ligand
 OpenBabel11021811513D
libRbt.so/2013.1/901 2013/11/27
 40 42  0  0  0  0  0  0  0  0999 V2000
    4.0555   -7.6230   19.0748 C   0  0  2  0  0  0  0  0  0  0  0  0
    2.8033   -8.2101   19.4622 O   0  0  0  0  0  0  0  0  0  0  0  0
    5.2479   -8.3021   19.8471 C   0  0  1  0  0  0  0  0  0  0  0  0
    5.1774   -8.0144   21.3752 C   0  0  2  0  0  0  0  0  0  0  0  0
    5.2429   -6.4666   21.5705 C   0  0  2  0  0  0  0  0  0  0  0  0
    5.2060   -6.1631   22.9816 O   0  0  0  0  0  0  0  0  0  0  0  0
    4.0035   -5.8107   20.8187 C   0  0  2  0  0  0  0  0  0  0  0  0
    4.0633   -6.1511   19.3522 O   0  0  0  0  0  0  0  0  0  0  0  0
    3.9883   -4.2926   20.9334 C   0  0  0  0  0  0  0  0  0  0  0  0
    2.7034   -3.7159   20.4263 N   0  0  0  0  0  0  0  0  0  0  0  0
   -0.9668   -9.4251   17.5542 C   0  0  2  0  0  0  0  0  0  0  0  0
   -2.1109   -9.4036   16.6727 N   0  0  0  0  0  0  0  0  0  0  0  0
   -0.9644   -8.1211   18.4500 C   0  0  0  0  0  0  0  0  0  0  0  0
    0.2962   -8.1283   19.4256 C   0  0  2  0  0  0  0  0  0  0  0  0
    0.2879   -6.9106   20.2779 N   0  0  0  0  0  0  0  0  0  0  0  0
    1.6341   -8.2150   18.5541 C   0  0  2  0  0  0  0  0  0  0  0  0
    1.5834   -9.5357   17.6737 C   0  0  2  0  0  0  0  0  0  0  0  0
    2.7777   -9.6242   16.8932 O   0  0  0  0  0  0  0  0  0  0  0  0
    0.3278   -9.5168   16.7154 C   0  0  1  0  0  0  0  0  0  0  0  0
    0.2846  -10.7371   15.9346 O   0  0  0  0  0  0  0  0  0  0  0  0
   -0.3505  -10.8835   14.7098 C   0  0  2  0  0  0  0  0  0  0  0  0
   -0.6901  -12.4062   14.5333 C   0  0  2  0  0  0  0  0  0  0  0  0
   -1.4826  -12.8361   15.5927 O   0  0  0  0  0  0  0  0  0  0  0  0
    0.6215  -13.2916   14.4017 C   0  0  1  0  0  0  0  0  0  0  0  0
    0.2751  -14.7355   14.2220 N   0  0  0  0  0  0  0  0  0  0  0  0
    1.4779  -12.7535   13.1736 C   0  0  2  0  0  0  0  0  0  0  0  0
    2.6698  -13.5309   13.0049 O   0  0  0  0  0  0  0  0  0  0  0  0
    1.8101  -11.2337   13.4358 C   0  0  2  0  0  0  0  0  0  0  0  0
    0.5330  -10.4226   13.6082 O   0  0  0  0  0  0  0  0  0  0  0  0
    2.6083  -10.6455   12.2967 C   0  0  0  0  0  0  0  0  0  0  0  0
    2.9435   -9.2616   12.5092 O   0  0  0  0  0  0  0  0  0  0  0  0
    5.2023   -9.7358   19.5896 O   0  0  0  0  0  0  0  0  0  0  0  0
    6.2446   -8.6177   21.9956 O   0  0  0  0  0  0  0  0  0  0  0  0
   -3.3447  -10.0139   17.1111 C   0  0  0  0  0  0  0  0  0  0  0  0
   -3.3207  -10.9072   18.0091 O   0  0  0  0  0  0  0  0  0  0  0  0
   -4.6716   -9.5396   16.4426 C   0  0  2  0  0  0  0  0  0  0  0  0
   -7.5420  -11.6185   14.8304 N   0  0  0  0  0  0  0  0  0  0  0  0
   -5.3987  -10.7274   15.7399 C   0  0  0  0  0  0  0  0  0  0  0  0
   -6.8749  -10.4346   15.4232 C   0  0  0  0  0  0  0  0  0  0  0  0
   -4.4787   -8.6742   15.5305 O   0  0  0  0  0  0  0  0  0  0  0  0
  1  2  1  1  0  0  0
  1  3  1  0  0  0  0
  1  8  1  0  0  0  0
  3  4  1  0  0  0  0
  3 32  1  1  0  0  0
  4  5  1  0  0  0  0
  4 33  1  1  0  0  0
  5  6  1  1  0  0  0
  5  7  1  0  0  0  0
  7  8  1  0  0  0  0
  7  9  1  6  0  0  0
  9 10  1  0  0  0  0
 11 12  1  6  0  0  0
 11 13  1  0  0  0  0
 11 19  1  0  0  0  0
 12 34  1  0  0  0  0
 13 14  1  0  0  0  0
 14 15  1  6  0  0  0
 14 16  1  0  0  0  0
 16  2  1  1  0  0  0
 16 17  1  0  0  0  0
 17 18  1  6  0  0  0
 17 19  1  0  0  0  0
 19 20  1  1  0  0  0
 21 20  1  1  0  0  0
 21 22  1  0  0  0  0
 21 29  1  0  0  0  0
 22 23  1  1  0  0  0
 22 24  1  0  0  0  0
 24 25  1  6  0  0  0
 24 26  1  0  0  0  0
 26 27  1  1  0  0  0
 26 28  1  0  0  0  0
 28 29  1  0  0  0  0
 28 30  1  6  0  0  0
 30 31  1  0  0  0  0
 34 35  2  0  0  0  0
 36 34  1  6  0  0  0
 36 38  1  0  0  0  0
 36 40  1  0  0  0  0
 37 39  1  0  0  0  0
 38 39  1  0  0  0  0
M  END
>  <CHROM.1>
-153.46064947,-148.08701539,-170.29025248,-91.06909271,83.95521926,-155.79363027
-179.32027827,120.23274054,163.24759074,-176.64778671,0.83593208,-9.42150560
17.24914874,-0.81508450,0.03161288,-2.25715038

>  <Name>
ligand

>  <RI>
0

>  <Rbt.Current_Directory>
/home/itssahil/PROJECTS/Mol_Feturizer/New_Systems/rnas/4P20

>  <Rbt.Executable>
rbdock ($Id: //depot/dev/client3/rdock/2013.1/src/exe/rbdock.cxx#4 $)

>  <Rbt.Library>
libRbt.so (2013.1, Build901 2013/11/27)

>  <Rbt.Parameter_File>
/export/apps/rDock/src/rDock_2013.1_src/data/scripts/dock_solv.prm

>  <Rbt.Receptor>
prm/pocket_docking_2.prm

>  <SCORE>
-15.4151

>  <SCORE.INTER>
-9.57669

>  <SCORE.INTER.CONST>
1

>  <SCORE.INTER.POLAR>
0

>  <SCORE.INTER.ROT>
10

>  <SCORE.INTER.SOLV>
24.6059

>  <SCORE.INTER.VDW>
-24.8531

>  <SCORE.INTER.norm>
-0.239417

>  <SCORE.INTRA>
-5.8384

>  <SCORE.INTRA.DIHEDRAL>
-11.9522

>  <SCORE.INTRA.DIHEDRAL.0>
28.2802

>  <SCORE.INTRA.POLAR>
0

>  <SCORE.INTRA.POLAR.0>
0

>  <SCORE.INTRA.REPUL>
0

>  <SCORE.INTRA.REPUL.0>
0

>  <SCORE.INTRA.SOLV>
-1.02911

>  <SCORE.INTRA.SOLV.lig_0>
-101.981

>  <SCORE.INTRA.VDW>
0.652244

>  <SCORE.INTRA.VDW.0>
-5.72964

>  <SCORE.INTRA.norm>
-0.14596

>  <SCORE.RESTR>
0

>  <SCORE.RESTR.CAVITY>
0

>  <SCORE.RESTR.norm>
0

>  <SCORE.SYSTEM>
0

>  <SCORE.SYSTEM.CONST>
0

>  <SCORE.SYSTEM.DIHEDRAL>
0

>  <SCORE.SYSTEM.SOLV>
0

>  <SCORE.SYSTEM.norm>
0

>  <SCORE.heavy>
40

>  <SCORE.norm>
-0.385377

>  <RMSD>
0.708

$$$$
ligand
 OpenBabel11021811513D
libRbt.so/2013.1/901 2013/11/27
 40 42  0  0  0  0  0  0  0  0999 V2000
    3.7326   -7.1348   19.0381 C   0  0  2  0  0  0  0  0  0  0  0  0
    2.5165   -7.7565   19.4825 O   0  0  0  0  0  0  0  0  0  0  0  0
    4.9775   -7.7767   19.7574 C   0  0  1  0  0  0  0  0  0  0  0  0
    4.9674   -7.4861   21.2866 C   0  0  2  0  0  0  0  0  0  0  0  0
    4.9967   -5.9364   21.4757 C   0  0  2  0  0  0  0  0  0  0  0  0
    5.0143   -5.6295   22.8863 O   0  0  0  0  0  0  0  0  0  0  0  0
    3.7064   -5.3190   20.7790 C   0  0  2  0  0  0  0  0  0  0  0  0
    3.7102   -5.6624   19.3119 O   0  0  0  0  0  0  0  0  0  0  0  0
    3.6524   -3.8015   20.8912 C   0  0  0  0  0  0  0  0  0  0  0  0
    2.3312   -3.2635   20.4380 N   0  0  0  0  0  0  0  0  0  0  0  0
   -1.1106   -9.3664   17.5899 C   0  0  2  0  0  0  0  0  0  0  0  0
   -2.2693   -9.4550   16.7319 N   0  0  0  0  0  0  0  0  0  0  0  0
   -1.2549   -8.1147   18.5464 C   0  0  0  0  0  0  0  0  0  0  0  0
    0.0198   -8.0009   19.4968 C   0  0  2  0  0  0  0  0  0  0  0  0
   -0.1250   -6.8340   20.4061 N   0  0  0  0  0  0  0  0  0  0  0  0
    1.3356   -7.8732   18.5973 C   0  0  2  0  0  0  0  0  0  0  0  0
    1.4346   -9.1486   17.6562 C   0  0  2  0  0  0  0  0  0  0  0  0
    2.6106   -9.0456   16.8502 O   0  0  0  0  0  0  0  0  0  0  0  0
    0.1638   -9.2508   16.7235 C   0  0  1  0  0  0  0  0  0  0  0  0
    0.2596  -10.4303   15.8866 O   0  0  0  0  0  0  0  0  0  0  0  0
   -0.0702  -10.4872   14.5402 C   0  0  2  0  0  0  0  0  0  0  0  0
   -0.4395  -11.9764   14.2073 C   0  0  2  0  0  0  0  0  0  0  0  0
   -1.4850  -12.3945   15.0241 O   0  0  0  0  0  0  0  0  0  0  0  0
    0.8154  -12.9399   14.3432 C   0  0  1  0  0  0  0  0  0  0  0  0
    0.4445  -14.3499   14.0098 N   0  0  0  0  0  0  0  0  0  0  0  0
    1.9692  -12.4115   13.3836 C   0  0  2  0  0  0  0  0  0  0  0  0
    3.1229  -13.2580   13.4610 O   0  0  0  0  0  0  0  0  0  0  0  0
    2.3107  -10.9279   13.7977 C   0  0  2  0  0  0  0  0  0  0  0  0
    1.0753  -10.0425   13.7055 O   0  0  0  0  0  0  0  0  0  0  0  0
    3.3894  -10.3494   12.9133 C   0  0  0  0  0  0  0  0  0  0  0  0
    3.0360  -10.3726   11.5178 O   0  0  0  0  0  0  0  0  0  0  0  0
    4.9620   -9.2120   19.5051 O   0  0  0  0  0  0  0  0  0  0  0  0
    6.0783   -8.0564   21.8596 O   0  0  0  0  0  0  0  0  0  0  0  0
   -3.4974   -9.9959   17.2668 C   0  0  0  0  0  0  0  0  0  0  0  0
   -3.4610  -10.7636   18.2740 O   0  0  0  0  0  0  0  0  0  0  0  0
   -4.8339   -9.6067   16.5635 C   0  0  2  0  0  0  0  0  0  0  0  0
   -7.6223  -10.5549   15.8723 N   0  0  0  0  0  0  0  0  0  0  0  0
   -5.1722  -10.6062   15.4145 C   0  0  0  0  0  0  0  0  0  0  0  0
   -6.5799  -10.4050   14.8288 C   0  0  0  0  0  0  0  0  0  0  0  0
   -4.7817   -8.4620   16.0112 O   0  0  0  0  0  0  0  0  0  0  0  0
  1  2  1  1  0  0  0
  1  3  1  0  0  0  0
  1  8  1  0  0  0  0
  3  4  1  0  0  0  0
  3 32  1  1  0  0  0
  4  5  1  0  0  0  0
  4 33  1  1  0  0  0
  5  6  1  1  0  0  0
  5  7  1  0  0  0  0
  7  8  1  0  0  0  0
  7  9  1  6  0  0  0
  9 10  1  0  0  0  0
 11 12  1  6  0  0  0
 11 13  1  0  0  0  0
 11 19  1  0  0  0  0
 12 34  1  0  0  0  0
 13 14  1  0  0  0  0
 14 15  1  1  0  0  0
 14 16  1  0  0  0  0
 16  2  1  1  0  0  0
 16 17  1  0  0  0  0
 17 18  1  6  0  0  0
 17 19  1  0  0  0  0
 19 20  1  6  0  0  0
 21 20  1  1  0  0  0
 21 22  1  0  0  0  0
 21 29  1  0  0  0  0
 22 23  1  1  0  0  0
 22 24  1  0  0  0  0
 24 25  1  6  0  0  0
 24 26  1  0  0  0  0
 26 27  1  1  0  0  0
 26 28  1  0  0  0  0
 28 29  1  0  0  0  0
 28 30  1  6  0  0  0
 30 31  1  0  0  0  0
 34 35  2  0  0  0  0
 36 34  1  6  0  0  0
 36 38  1  0  0  0  0
 36 40  1  0  0  0  0
 37 39  1  0  0  0  0
 38 39  1  0  0  0  0
M  END
>  <CHROM.1>
-149.56552514,-155.82594188,-170.42781561,-78.27875445,102.04442255,-154.93906714
57.50584737,88.88495241,171.06722801,-58.74555731,0.78728328,-9.11775909
17.25067730,-0.85276059,-0.00335370,-2.25541911

>  <Name>
ligand

>  <RI>
0

>  <Rbt.Current_Directory>
/home/itssahil/PROJECTS/Mol_Feturizer/New_Systems/rnas/4P20

>  <Rbt.Executable>
rbdock ($Id: //depot/dev/client3/rdock/2013.1/src/exe/rbdock.cxx#4 $)

>  <Rbt.Library>
libRbt.so (2013.1, Build901 2013/11/27)

>  <Rbt.Parameter_File>
/export/apps/rDock/src/rDock_2013.1_src/data/scripts/dock_solv.prm

>  <Rbt.Receptor>
prm/pocket_docking_2.prm

>  <SCORE>
-14.826

>  <SCORE.INTER>
-9.95828

>  <SCORE.INTER.CONST>
1

>  <SCORE.INTER.POLAR>
0

>  <SCORE.INTER.ROT>
10

>  <SCORE.INTER.SOLV>
23.1318

>  <SCORE.INTER.VDW>
-24.6161

>  <SCORE.INTER.norm>
-0.248957

>  <SCORE.INTRA>
-4.92583

>  <SCORE.INTRA.DIHEDRAL>
-11.1893

>  <SCORE.INTRA.DIHEDRAL.0>
28.2802

>  <SCORE.INTRA.POLAR>
0

>  <SCORE.INTRA.POLAR.0>
0

>  <SCORE.INTRA.REPUL>
0

>  <SCORE.INTRA.REPUL.0>
0

>  <SCORE.INTRA.SOLV>
0.00191685

>  <SCORE.INTRA.SOLV.lig_0>
-101.981

>  <SCORE.INTRA.VDW>
0.667872

>  <SCORE.INTRA.VDW.0>
-5.72964

>  <SCORE.INTRA.norm>
-0.123146

>  <SCORE.RESTR>
0.0580906

>  <SCORE.RESTR.CAVITY>
0.0580906

>  <SCORE.RESTR.norm>
0.00145226

>  <SCORE.SYSTEM>
0

>  <SCORE.SYSTEM.CONST>
0

>  <SCORE.SYSTEM.DIHEDRAL>
0

>  <SCORE.SYSTEM.SOLV>
0

>  <SCORE.SYSTEM.norm>
0

>  <SCORE.heavy>
40

>  <SCORE.norm>
-0.370651

>  <RMSD>
0.712

$$$$
ligand
 OpenBabel11021811513D
libRbt.so/2013.1/901 2013/11/27
 40 42  0  0  0  0  0  0  0  0999 V2000
    4.0187   -7.7689   18.9228 C   0  0  2  0  0  0  0  0  0  0  0  0
    2.7855   -8.4091   19.2865 O   0  0  0  0  0  0  0  0  0  0  0  0
    5.1865   -8.2386   19.8688 C   0  0  1  0  0  0  0  0  0  0  0  0
    4.9597   -7.7675   21.3349 C   0  0  2  0  0  0  0  0  0  0  0  0
    4.8896   -6.2076   21.3269 C   0  0  2  0  0  0  0  0  0  0  0  0
    4.7052   -5.7327   22.6778 O   0  0  0  0  0  0  0  0  0  0  0  0
    3.6750   -5.7623   20.4005 C   0  0  2  0  0  0  0  0  0  0  0  0
    3.8898   -6.2787   19.0015 O   0  0  0  0  0  0  0  0  0  0  0  0
    3.5342   -4.2489   20.3105 C   0  0  0  0  0  0  0  0  0  0  0  0
    3.2197   -3.6459   21.6440 N   0  0  0  0  0  0  0  0  0  0  0  0
   -1.0508   -9.5147   17.4451 C   0  0  2  0  0  0  0  0  0  0  0  0
   -2.2045   -9.4652   16.5774 N   0  0  0  0  0  0  0  0  0  0  0  0
   -0.9892   -8.1976   18.3193 C   0  0  0  0  0  0  0  0  0  0  0  0
    0.2828   -8.2357   19.2793 C   0  0  2  0  0  0  0  0  0  0  0  0
    0.3300   -7.0050   20.1117 N   0  0  0  0  0  0  0  0  0  0  0  0
    1.6053   -8.3853   18.3930 C   0  0  2  0  0  0  0  0  0  0  0  0
    1.4950   -9.7171   17.5351 C   0  0  2  0  0  0  0  0  0  0  0  0
    2.6751   -9.8619   16.7416 O   0  0  0  0  0  0  0  0  0  0  0  0
    0.2287   -9.6673   16.5920 C   0  0  1  0  0  0  0  0  0  0  0  0
    0.1308  -10.8974   15.8319 O   0  0  0  0  0  0  0  0  0  0  0  0
   -0.4642  -11.0246   14.5851 C   0  0  2  0  0  0  0  0  0  0  0  0
   -0.7817  -12.5466   14.3667 C   0  0  2  0  0  0  0  0  0  0  0  0
   -1.6022  -13.0066   15.3916 O   0  0  0  0  0  0  0  0  0  0  0  0
    0.5427  -13.4158   14.2580 C   0  0  1  0  0  0  0  0  0  0  0  0
    0.2176  -14.8590   14.0379 N   0  0  0  0  0  0  0  0  0  0  0  0
    1.4312  -12.8435   13.0688 C   0  0  2  0  0  0  0  0  0  0  0  0
    2.6360  -13.6051   12.9216 O   0  0  0  0  0  0  0  0  0  0  0  0
    1.7387  -11.3262   13.3725 C   0  0  2  0  0  0  0  0  0  0  0  0
    0.4482  -10.5318   13.5215 O   0  0  0  0  0  0  0  0  0  0  0  0
    2.5656  -10.7063   12.2714 C   0  0  0  0  0  0  0  0  0  0  0  0
    2.9083   -9.3338   12.5390 O   0  0  0  0  0  0  0  0  0  0  0  0
    5.2731   -9.6919   19.8017 O   0  0  0  0  0  0  0  0  0  0  0  0
    6.0107   -8.1925   22.1110 O   0  0  0  0  0  0  0  0  0  0  0  0
   -3.5033   -9.7913   17.1195 C   0  0  0  0  0  0  0  0  0  0  0  0
   -3.5890  -10.5111   18.1584 O   0  0  0  0  0  0  0  0  0  0  0  0
   -4.7617   -9.2363   16.3839 C   0  0  2  0  0  0  0  0  0  0  0  0
   -6.8149  -12.4641   15.6540 N   0  0  0  0  0  0  0  0  0  0  0  0
   -5.4774  -10.3618   15.5749 C   0  0  0  0  0  0  0  0  0  0  0  0
   -6.1481  -11.4193   16.4676 C   0  0  0  0  0  0  0  0  0  0  0  0
   -4.4740   -8.3376   15.5309 O   0  0  0  0  0  0  0  0  0  0  0  0
  1  2  1  1  0  0  0
  1  3  1  0  0  0  0
  1  8  1  0  0  0  0
  3  4  1  0  0  0  0
  3 32  1  1  0  0  0
  4  5  1  0  0  0  0
  4 33  1  1  0  0  0
  5  6  1  1  0  0  0
  5  7  1  0  0  0  0
  7  8  1  0  0  0  0
  7  9  1  6  0  0  0
  9 10  1  0  0  0  0
 11 12  1  6  0  0  0
 11 13  1  0  0  0  0
 11 19  1  0  0  0  0
 12 34  1  0  0  0  0
 13 14  1  0  0  0  0
 14 15  1  6  0  0  0
 14 16  1  0  0  0  0
 16  2  1  1  0  0  0
 16 17  1  0  0  0  0
 17 18  1  6  0  0  0
 17 19  1  0  0  0  0
 19 20  1  1  0  0  0
 21 20  1  1  0  0  0
 21 22  1  0  0  0  0
 21 29  1  0  0  0  0
 22 23  1  1  0  0  0
 22 24  1  0  0  0  0
 24 25  1  6  0  0  0
 24 26  1  0  0  0  0
 26 27  1  1  0  0  0
 26 28  1  0  0  0  0
 28 29  1  0  0  0  0
 28 30  1  6  0  0  0
 30 31  1  0  0  0  0
 34 35  2  0  0  0  0
 36 34  1  6  0  0  0
 36 38  1  0  0  0  0
 36 40  1  0  0  0  0
 37 39  1  0  0  0  0
 38 39  1  0  0  0  0
M  END
>  <CHROM.1>
-166.23887360,-142.39682253,-63.28758831,-79.75074619,87.52572994,-160.95427323
-177.82043169,104.97298389,68.94776105,179.91889702,0.77594452,-9.45855176
17.21466196,-0.86820848,-0.01307094,-2.26263617

>  <Name>
ligand

>  <RI>
0

>  <Rbt.Current_Directory>
/home/itssahil/PROJECTS/Mol_Feturizer/New_Systems/rnas/4P20

>  <Rbt.Executable>
rbdock ($Id: //depot/dev/client3/rdock/2013.1/src/exe/rbdock.cxx#4 $)

>  <Rbt.Library>
libRbt.so (2013.1, Build901 2013/11/27)

>  <Rbt.Parameter_File>
/export/apps/rDock/src/rDock_2013.1_src/data/scripts/dock_solv.prm

>  <Rbt.Receptor>
prm/pocket_docking_2.prm

>  <SCORE>
-16.7436

>  <SCORE.INTER>
-9.9184

>  <SCORE.INTER.CONST>
1

>  <SCORE.INTER.POLAR>
0

>  <SCORE.INTER.ROT>
10

>  <SCORE.INTER.SOLV>
24.0852

>  <SCORE.INTER.VDW>
-24.9073

>  <SCORE.INTER.norm>
-0.24796

>  <SCORE.INTRA>
-6.8281

>  <SCORE.INTRA.DIHEDRAL>
-14.7563

>  <SCORE.INTRA.DIHEDRAL.0>
28.2802

>  <SCORE.INTRA.POLAR>
0

>  <SCORE.INTRA.POLAR.0>
0

>  <SCORE.INTRA.REPUL>
0

>  <SCORE.INTRA.REPUL.0>
0

>  <SCORE.INTRA.SOLV>
-0.0134953

>  <SCORE.INTRA.SOLV.lig_0>
-101.981

>  <SCORE.INTRA.VDW>
0.556797

>  <SCORE.INTRA.VDW.0>
-5.72964

>  <SCORE.INTRA.norm>
-0.170703

>  <SCORE.RESTR>
0.00286937

>  <SCORE.RESTR.CAVITY>
0.00286937

>  <SCORE.RESTR.norm>
7.17342e-05

>  <SCORE.SYSTEM>
0

>  <SCORE.SYSTEM.CONST>
0

>  <SCORE.SYSTEM.DIHEDRAL>
0

>  <SCORE.SYSTEM.SOLV>
0

>  <SCORE.SYSTEM.norm>
0

>  <SCORE.heavy>
40

>  <SCORE.norm>
-0.418591

>  <RMSD>
0.722

$$$$
ligand
 OpenBabel11021811513D
libRbt.so/2013.1/901 2013/11/27
 40 42  0  0  0  0  0  0  0  0999 V2000
    4.0662   -7.6057   19.0838 C   0  0  2  0  0  0  0  0  0  0  0  0
    2.8214   -8.2024   19.4808 O   0  0  0  0  0  0  0  0  0  0  0  0
    5.2686   -8.2683   19.8548 C   0  0  1  0  0  0  0  0  0  0  0  0
    5.2024   -7.9716   21.3814 C   0  0  2  0  0  0  0  0  0  0  0  0
    5.2538   -6.4219   21.5665 C   0  0  2  0  0  0  0  0  0  0  0  0
    5.2205   -6.1098   22.9758 O   0  0  0  0  0  0  0  0  0  0  0  0
    4.0047   -5.7829   20.8163 C   0  0  2  0  0  0  0  0  0  0  0  0
    4.0610   -6.1320   19.3517 O   0  0  0  0  0  0  0  0  0  0  0  0
    3.9754   -4.2642   20.9214 C   0  0  0  0  0  0  0  0  0  0  0  0
    2.7005   -3.7000   20.3765 N   0  0  0  0  0  0  0  0  0  0  0  0
   -0.9251   -9.5054   17.5845 C   0  0  2  0  0  0  0  0  0  0  0  0
   -2.0690   -9.5138   16.7026 N   0  0  0  0  0  0  0  0  0  0  0  0
   -0.9469   -8.1926   18.4671 C   0  0  0  0  0  0  0  0  0  0  0  0
    0.3133   -8.1669   19.4429 C   0  0  2  0  0  0  0  0  0  0  0  0
    0.2824   -6.9410   20.2830 N   0  0  0  0  0  0  0  0  0  0  0  0
    1.6528   -8.2378   18.5726 C   0  0  2  0  0  0  0  0  0  0  0  0
    1.6267   -9.5680   17.7055 C   0  0  2  0  0  0  0  0  0  0  0  0
    2.8226   -9.6424   16.9262 O   0  0  0  0  0  0  0  0  0  0  0  0
    0.3713   -9.5817   16.7468 C   0  0  1  0  0  0  0  0  0  0  0  0
    0.3507  -10.8104   15.9784 O   0  0  0  0  0  0  0  0  0  0  0  0
   -0.3075  -10.9899   14.7703 C   0  0  2  0  0  0  0  0  0  0  0  0
   -0.6220  -12.5215   14.6272 C   0  0  2  0  0  0  0  0  0  0  0  0
   -1.3835  -12.9475   15.7106 O   0  0  0  0  0  0  0  0  0  0  0  0
    0.7029  -13.3846   14.4823 C   0  0  1  0  0  0  0  0  0  0  0  0
    0.3801  -14.8375   14.3348 N   0  0  0  0  0  0  0  0  0  0  0  0
    1.5226  -12.8522   13.2269 C   0  0  2  0  0  0  0  0  0  0  0  0
    2.7251  -13.6103   13.0457 O   0  0  0  0  0  0  0  0  0  0  0  0
    1.8316  -11.3222   13.4559 C   0  0  2  0  0  0  0  0  0  0  0  0
    0.5434  -10.5320   13.6421 O   0  0  0  0  0  0  0  0  0  0  0  0
    2.5940  -10.7393   12.2900 C   0  0  0  0  0  0  0  0  0  0  0  0
    2.8878   -9.3404   12.4614 O   0  0  0  0  0  0  0  0  0  0  0  0
    5.2356   -9.7041   19.6067 O   0  0  0  0  0  0  0  0  0  0  0  0
    6.2782   -8.5606   22.0006 O   0  0  0  0  0  0  0  0  0  0  0  0
   -3.3675   -9.8447   17.2425 C   0  0  0  0  0  0  0  0  0  0  0  0
   -3.4513  -10.5246   18.3082 O   0  0  0  0  0  0  0  0  0  0  0  0
   -4.6277   -9.3451   16.4714 C   0  0  2  0  0  0  0  0  0  0  0  0
   -7.4377  -11.3152   14.6994 N   0  0  0  0  0  0  0  0  0  0  0  0
   -5.2862  -10.5069   15.6651 C   0  0  0  0  0  0  0  0  0  0  0  0
   -6.6274  -10.1163   15.0218 C   0  0  0  0  0  0  0  0  0  0  0  0
   -4.3525   -8.4499   15.6106 O   0  0  0  0  0  0  0  0  0  0  0  0
  1  2  1  1  0  0  0
  1  3  1  0  0  0  0
  1  8  1  0  0  0  0
  3  4  1  0  0  0  0
  3 32  1  1  0  0  0
  4  5  1  0  0  0  0
  4 33  1  1  0  0  0
  5  6  1  1  0  0  0
  5  7  1  0  0  0  0
  7  8  1  0  0  0  0
  7  9  1  6  0  0  0
  9 10  1  0  0  0  0
 11 12  1  6  0  0  0
 11 13  1  0  0  0  0
 11 19  1  0  0  0  0
 12 34  1  0  0  0  0
 13 14  1  0  0  0  0
 14 15  1  6  0  0  0
 14 16  1  0  0  0  0
 16  2  1  1  0  0  0
 16 17  1  0  0  0  0
 17 18  1  6  0  0  0
 17 19  1  0  0  0  0
 19 20  1  1  0  0  0
 21 20  1  1  0  0  0
 21 22  1  0  0  0  0
 21 29  1  0  0  0  0
 22 23  1  1  0  0  0
 22 24  1  0  0  0  0
 24 25  1  6  0  0  0
 24 26  1  0  0  0  0
 26 27  1  1  0  0  0
 26 28  1  0  0  0  0
 28 29  1  0  0  0  0
 28 30  1  6  0  0  0
 30 31  1  0  0  0  0
 34 35  2  0  0  0  0
 36 34  1  6  0  0  0
 36 38  1  0  0  0  0
 36 40  1  0  0  0  0
 37 39  1  0  0  0  0
 38 39  1  0  0  0  0
M  END
>  <CHROM.1>
-152.76211522,-148.58992538,-172.10149830,-76.45291028,82.34534084,-154.83652599
179.69492546,103.26110801,173.02528320,-159.54821611,0.87114445,-9.40623696
17.26825933,-0.82470704,0.06300835,-2.27779916

>  <Name>
ligand

>  <RI>
0

>  <Rbt.Current_Directory>
/home/itssahil/PROJECTS/Mol_Feturizer/New_Systems/rnas/4P20

>  <Rbt.Executable>
rbdock ($Id: //depot/dev/client3/rdock/2013.1/src/exe/rbdock.cxx#4 $)

>  <Rbt.Library>
libRbt.so (2013.1, Build901 2013/11/27)

>  <Rbt.Parameter_File>
/export/apps/rDock/src/rDock_2013.1_src/data/scripts/dock_solv.prm

>  <Rbt.Receptor>
prm/pocket_docking_2.prm

>  <SCORE>
-15.4846

>  <SCORE.INTER>
-9.8128

>  <SCORE.INTER.CONST>
1

>  <SCORE.INTER.POLAR>
0

>  <SCORE.INTER.ROT>
10

>  <SCORE.INTER.SOLV>
24.6074

>  <SCORE.INTER.VDW>
-25.011

>  <SCORE.INTER.norm>
-0.24532

>  <SCORE.INTRA>
-5.72183

>  <SCORE.INTRA.DIHEDRAL>
-12.2204

>  <SCORE.INTRA.DIHEDRAL.0>
28.2802

>  <SCORE.INTRA.POLAR>
0

>  <SCORE.INTRA.POLAR.0>
0

>  <SCORE.INTRA.REPUL>
0

>  <SCORE.INTRA.REPUL.0>
0

>  <SCORE.INTRA.SOLV>
-1.26534

>  <SCORE.INTRA.SOLV.lig_0>
-101.981

>  <SCORE.INTRA.VDW>
1.02103

>  <SCORE.INTRA.VDW.0>
-5.72964

>  <SCORE.INTRA.norm>
-0.143046

>  <SCORE.RESTR>
0.0500388

>  <SCORE.RESTR.CAVITY>
0.0500388

>  <SCORE.RESTR.norm>
0.00125097

>  <SCORE.SYSTEM>
0

>  <SCORE.SYSTEM.CONST>
0

>  <SCORE.SYSTEM.DIHEDRAL>
0

>  <SCORE.SYSTEM.SOLV>
0

>  <SCORE.SYSTEM.norm>
0

>  <SCORE.heavy>
40

>  <SCORE.norm>
-0.387115

>  <RMSD>
0.772

$$$$
ligand
 OpenBabel11021811513D
libRbt.so/2013.1/901 2013/11/27
 40 42  0  0  0  0  0  0  0  0999 V2000
    3.9005   -7.7017   18.9266 C   0  0  2  0  0  0  0  0  0  0  0  0
    2.6644   -8.3162   19.3232 O   0  0  0  0  0  0  0  0  0  0  0  0
    5.0880   -8.2180   19.8225 C   0  0  1  0  0  0  0  0  0  0  0  0
    4.9253   -7.7671   21.3034 C   0  0  2  0  0  0  0  0  0  0  0  0
    4.8961   -6.2060   21.3239 C   0  0  2  0  0  0  0  0  0  0  0  0
    4.7719   -5.7504   22.6883 O   0  0  0  0  0  0  0  0  0  0  0  0
    3.6620   -5.7133   20.4489 C   0  0  2  0  0  0  0  0  0  0  0  0
    3.8138   -6.2103   19.0347 O   0  0  0  0  0  0  0  0  0  0  0  0
    3.5580   -4.1954   20.3893 C   0  0  0  0  0  0  0  0  0  0  0  0
    3.2768   -3.6104   21.7381 N   0  0  0  0  0  0  0  0  0  0  0  0
   -1.1062   -9.5870   17.4530 C   0  0  2  0  0  0  0  0  0  0  0  0
   -2.2600   -9.5819   16.5840 N   0  0  0  0  0  0  0  0  0  0  0  0
   -1.1151   -8.2854   18.3521 C   0  0  0  0  0  0  0  0  0  0  0  0
    0.1561   -8.2747   19.3139 C   0  0  2  0  0  0  0  0  0  0  0  0
    0.1375   -7.0593   20.1695 N   0  0  0  0  0  0  0  0  0  0  0  0
    1.4856   -8.3377   18.4278 C   0  0  2  0  0  0  0  0  0  0  0  0
    1.4466   -9.6569   17.5446 C   0  0  2  0  0  0  0  0  0  0  0  0
    2.6335   -9.7243   16.7510 O   0  0  0  0  0  0  0  0  0  0  0  0
    0.1805   -9.6559   16.6000 C   0  0  1  0  0  0  0  0  0  0  0  0
    0.1483  -10.8748   15.8166 O   0  0  0  0  0  0  0  0  0  0  0  0
   -0.4281  -11.0066   14.5615 C   0  0  2  0  0  0  0  0  0  0  0  0
   -0.7548  -12.5276   14.3495 C   0  0  2  0  0  0  0  0  0  0  0  0
   -1.5951  -12.9730   15.3648 O   0  0  0  0  0  0  0  0  0  0  0  0
    0.5639  -13.4084   14.2683 C   0  0  1  0  0  0  0  0  0  0  0  0
    0.2303  -14.8505   14.0539 N   0  0  0  0  0  0  0  0  0  0  0  0
    1.4756  -12.8525   13.0889 C   0  0  2  0  0  0  0  0  0  0  0  0
    2.6762  -13.6251   12.9663 O   0  0  0  0  0  0  0  0  0  0  0  0
    1.7909  -11.3355   13.3860 C   0  0  2  0  0  0  0  0  0  0  0  0
    0.5049  -10.5294   13.5087 O   0  0  0  0  0  0  0  0  0  0  0  0
    2.6401  -10.7308   12.2934 C   0  0  0  0  0  0  0  0  0  0  0  0
    3.0414   -9.3793   12.5849 O   0  0  0  0  0  0  0  0  0  0  0  0
    5.1339   -9.6716   19.7281 O   0  0  0  0  0  0  0  0  0  0  0  0
    5.9914   -8.2326   22.0344 O   0  0  0  0  0  0  0  0  0  0  0  0
   -3.5688   -9.7992   17.1558 C   0  0  0  0  0  0  0  0  0  0  0  0
   -3.6791  -10.4043   18.2633 O   0  0  0  0  0  0  0  0  0  0  0  0
   -4.8069   -9.2739   16.3660 C   0  0  2  0  0  0  0  0  0  0  0  0
   -5.9319  -11.9452   17.2799 N   0  0  0  0  0  0  0  0  0  0  0  0
   -5.3770  -10.3777   15.4225 C   0  0  0  0  0  0  0  0  0  0  0  0
   -6.4610  -11.2437   16.0858 C   0  0  0  0  0  0  0  0  0  0  0  0
   -4.5238   -8.2934   15.6068 O   0  0  0  0  0  0  0  0  0  0  0  0
  1  2  1  1  0  0  0
  1  3  1  0  0  0  0
  1  8  1  0  0  0  0
  3  4  1  0  0  0  0
  3 32  1  1  0  0  0
  4  5  1  0  0  0  0
  4 33  1  1  0  0  0
  5  6  1  1  0  0  0
  5  7  1  0  0  0  0
  7  8  1  0  0  0  0
  7  9  1  6  0  0  0
  9 10  1  0  0  0  0
 11 12  1  6  0  0  0
 11 13  1  0  0  0  0
 11 19  1  0  0  0  0
 12 34  1  0  0  0  0
 13 14  1  0  0  0  0
 14 15  1  6  0  0  0
 14 16  1  0  0  0  0
 16  2  1  1  0  0  0
 16 17  1  0  0  0  0
 17 18  1  6  0  0  0
 17 19  1  0  0  0  0
 19 20  1  1  0  0  0
 21 20  1  1  0  0  0
 21 22  1  0  0  0  0
 21 29  1  0  0  0  0
 22 23  1  1  0  0  0
 22 24  1  0  0  0  0
 24 25  1  6  0  0  0
 24 26  1  0  0  0  0
 26 27  1  1  0  0  0
 26 28  1  0  0  0  0
 28 29  1  0  0  0  0
 28 30  1  6  0  0  0
 30 31  1  0  0  0  0
 34 35  2  0  0  0  0
 36 34  1  6  0  0  0
 36 38  1  0  0  0  0
 36 40  1  0  0  0  0
 37 39  1  0  0  0  0
 38 39  1  0  0  0  0
M  END
>  <CHROM.1>
-161.40031262,-147.74360325,-64.52983008,-70.99022262,88.08882146,-157.41528637
-175.12834125,92.12007485,90.67149710,-60.16694254,0.76800775,-9.43207719
17.25547477,-0.87891768,-0.02406563,-2.25609674

>  <Name>
ligand

>  <RI>
0

>  <Rbt.Current_Directory>
/home/itssahil/PROJECTS/Mol_Feturizer/New_Systems/rnas/4P20

>  <Rbt.Executable>
rbdock ($Id: //depot/dev/client3/rdock/2013.1/src/exe/rbdock.cxx#4 $)

>  <Rbt.Library>
libRbt.so (2013.1, Build901 2013/11/27)

>  <Rbt.Parameter_File>
/export/apps/rDock/src/rDock_2013.1_src/data/scripts/dock_solv.prm

>  <Rbt.Receptor>
prm/pocket_docking_2.prm

>  <SCORE>
-15.3677

>  <SCORE.INTER>
-10.7463

>  <SCORE.INTER.CONST>
1

>  <SCORE.INTER.POLAR>
0

>  <SCORE.INTER.ROT>
10

>  <SCORE.INTER.SOLV>
21.2561

>  <SCORE.INTER.VDW>
-24.5162

>  <SCORE.INTER.norm>
-0.268658

>  <SCORE.INTRA>
-4.62495

>  <SCORE.INTRA.DIHEDRAL>
-12.5717

>  <SCORE.INTRA.DIHEDRAL.0>
28.2802

>  <SCORE.INTRA.POLAR>
0

>  <SCORE.INTRA.POLAR.0>
0

>  <SCORE.INTRA.REPUL>
0

>  <SCORE.INTRA.REPUL.0>
0

>  <SCORE.INTRA.SOLV>
2.4368

>  <SCORE.INTRA.SOLV.lig_0>
-101.981

>  <SCORE.INTRA.VDW>
0.442482

>  <SCORE.INTRA.VDW.0>
-5.72964

>  <SCORE.INTRA.norm>
-0.115624

>  <SCORE.RESTR>
0.00353211

>  <SCORE.RESTR.CAVITY>
0.00353211

>  <SCORE.RESTR.norm>
8.83027e-05

>  <SCORE.SYSTEM>
0

>  <SCORE.SYSTEM.CONST>
0

>  <SCORE.SYSTEM.DIHEDRAL>
0

>  <SCORE.SYSTEM.SOLV>
0

>  <SCORE.SYSTEM.norm>
0

>  <SCORE.heavy>
40

>  <SCORE.norm>
-0.384193

>  <RMSD>
0.784

$$$$
ligand
 OpenBabel11021811513D
libRbt.so/2013.1/901 2013/11/27
 40 42  0  0  0  0  0  0  0  0999 V2000
    3.9098   -7.4853   19.1281 C   0  0  2  0  0  0  0  0  0  0  0  0
    2.6360   -8.0087   19.5360 O   0  0  0  0  0  0  0  0  0  0  0  0
    5.0574   -8.0362   20.0549 C   0  0  1  0  0  0  0  0  0  0  0  0
    4.9111   -7.5186   21.5156 C   0  0  2  0  0  0  0  0  0  0  0  0
    4.9757   -5.9590   21.4754 C   0  0  2  0  0  0  0  0  0  0  0  0
    4.8689   -5.4436   22.8199 O   0  0  0  0  0  0  0  0  0  0  0  0
    3.7800   -5.4280   20.5699 C   0  0  2  0  0  0  0  0  0  0  0  0
    3.9122   -5.9883   19.1775 O   0  0  0  0  0  0  0  0  0  0  0  0
    3.7681   -3.9102   20.4506 C   0  0  0  0  0  0  0  0  0  0  0  0
    3.4086   -3.2595   21.7499 N   0  0  0  0  0  0  0  0  0  0  0  0
   -1.2626   -8.9238   17.7212 C   0  0  2  0  0  0  0  0  0  0  0  0
   -2.4282   -8.8053   16.8765 N   0  0  0  0  0  0  0  0  0  0  0  0
   -1.1454   -7.6442   18.6441 C   0  0  0  0  0  0  0  0  0  0  0  0
    0.1403   -7.7585   19.5794 C   0  0  2  0  0  0  0  0  0  0  0  0
    0.2397   -6.5631   20.4573 N   0  0  0  0  0  0  0  0  0  0  0  0
    1.4427   -7.9142   18.6650 C   0  0  2  0  0  0  0  0  0  0  0  0
    1.2768   -9.2076   17.7587 C   0  0  2  0  0  0  0  0  0  0  0  0
    2.4386   -9.3576   16.9396 O   0  0  0  0  0  0  0  0  0  0  0  0
   -0.0026   -9.0824   16.8406 C   0  0  1  0  0  0  0  0  0  0  0  0
   -0.1514  -10.2786   16.0359 O   0  0  0  0  0  0  0  0  0  0  0  0
   -0.6288  -10.3148   14.7337 C   0  0  2  0  0  0  0  0  0  0  0  0
   -0.8607  -11.8215   14.3579 C   0  0  2  0  0  0  0  0  0  0  0  0
   -1.7475  -12.3993   15.2606 O   0  0  0  0  0  0  0  0  0  0  0  0
    0.5041  -12.6308   14.2963 C   0  0  1  0  0  0  0  0  0  0  0  0
    0.2615  -14.0591   13.9247 N   0  0  0  0  0  0  0  0  0  0  0  0
    1.4681  -11.9242   13.2462 C   0  0  2  0  0  0  0  0  0  0  0  0
    2.7126  -12.6272   13.1447 O   0  0  0  0  0  0  0  0  0  0  0  0
    1.6827  -10.4302   13.7054 C   0  0  2  0  0  0  0  0  0  0  0  0
    0.3514   -9.6977   13.8037 O   0  0  0  0  0  0  0  0  0  0  0  0
    2.5757   -9.6863   12.7413 C   0  0  0  0  0  0  0  0  0  0  0  0
    3.9302  -10.1741   12.7487 O   0  0  0  0  0  0  0  0  0  0  0  0
    5.0164   -9.4925   20.0173 O   0  0  0  0  0  0  0  0  0  0  0  0
    5.9417   -8.0181   22.2745 O   0  0  0  0  0  0  0  0  0  0  0  0
   -3.7284   -9.1043   17.4307 C   0  0  0  0  0  0  0  0  0  0  0  0
   -3.8219   -9.8552   18.4467 O   0  0  0  0  0  0  0  0  0  0  0  0
   -4.9786   -8.4818   16.7365 C   0  0  2  0  0  0  0  0  0  0  0  0
   -7.2682  -11.6234   16.5021 N   0  0  0  0  0  0  0  0  0  0  0  0
   -6.2304   -9.3950   16.9170 C   0  0  0  0  0  0  0  0  0  0  0  0
   -6.0501  -10.7990   16.3159 C   0  0  0  0  0  0  0  0  0  0  0  0
   -4.8297   -8.3569   15.4794 O   0  0  0  0  0  0  0  0  0  0  0  0
  1  2  1  1  0  0  0
  1  3  1  0  0  0  0
  1  8  1  0  0  0  0
  3  4  1  0  0  0  0
  3 32  1  1  0  0  0
  4  5  1  0  0  0  0
  4 33  1  1  0  0  0
  5  6  1  1  0  0  0
  5  7  1  0  0  0  0
  7  8  1  0  0  0  0
  7  9  1  6  0  0  0
  9 10  1  0  0  0  0
 11 12  1  6  0  0  0
 11 13  1  0  0  0  0
 11 19  1  0  0  0  0
 12 34  1  0  0  0  0
 13 14  1  0  0  0  0
 14 15  1  6  0  0  0
 14 16  1  0  0  0  0
 16  2  1  1  0  0  0
 16 17  1  0  0  0  0
 17 18  1  6  0  0  0
 17 19  1  0  0  0  0
 19 20  1  1  0  0  0
 21 20  1  1  0  0  0
 21 22  1  0  0  0  0
 21 29  1  0  0  0  0
 22 23  1  1  0  0  0
 22 24  1  0  0  0  0
 24 25  1  6  0  0  0
 24 26  1  0  0  0  0
 26 27  1  1  0  0  0
 26 28  1  0  0  0  0
 28 29  1  0  0  0  0
 28 30  1  6  0  0  0
 30 31  1  0  0  0  0
 34 35  2  0  0  0  0
 36 34  1  6  0  0  0
 36 38  1  0  0  0  0
 36 40  1  0  0  0  0
 37 39  1  0  0  0  0
 38 39  1  0  0  0  0
M  END
>  <CHROM.1>
-165.50707271,-147.42229542,-68.91146156,-79.37391242,95.44795133,-169.95144095
-67.37798312,150.78256811,-60.22366906,-179.51503336,0.69263186,-8.94836880
17.44580643,-0.79946702,-0.02138776,-2.22053586

>  <Name>
ligand

>  <RI>
0

>  <Rbt.Current_Directory>
/home/itssahil/PROJECTS/Mol_Feturizer/New_Systems/rnas/4P20

>  <Rbt.Executable>
rbdock ($Id: //depot/dev/client3/rdock/2013.1/src/exe/rbdock.cxx#4 $)

>  <Rbt.Library>
libRbt.so (2013.1, Build901 2013/11/27)

>  <Rbt.Parameter_File>
/export/apps/rDock/src/rDock_2013.1_src/data/scripts/dock_solv.prm

>  <Rbt.Receptor>
prm/pocket_docking_2.prm

>  <SCORE>
-16.6933

>  <SCORE.INTER>
-10.235

>  <SCORE.INTER.CONST>
1

>  <SCORE.INTER.POLAR>
0

>  <SCORE.INTER.ROT>
10

>  <SCORE.INTER.SOLV>
21.9393

>  <SCORE.INTER.VDW>
-24.4031

>  <SCORE.INTER.norm>
-0.255876

>  <SCORE.INTRA>
-6.45968

>  <SCORE.INTRA.DIHEDRAL>
-15.7504

>  <SCORE.INTRA.DIHEDRAL.0>
28.2802

>  <SCORE.INTRA.POLAR>
0

>  <SCORE.INTRA.POLAR.0>
0

>  <SCORE.INTRA.REPUL>
0

>  <SCORE.INTRA.REPUL.0>
0

>  <SCORE.INTRA.SOLV>
0.0560521

>  <SCORE.INTRA.SOLV.lig_0>
-101.981

>  <SCORE.INTRA.VDW>
1.38748

>  <SCORE.INTRA.VDW.0>
-5.72964

>  <SCORE.INTRA.norm>
-0.161492

>  <SCORE.RESTR>
0.00136448

>  <SCORE.RESTR.CAVITY>
0.00136448

>  <SCORE.RESTR.norm>
3.41121e-05

>  <SCORE.SYSTEM>
0

>  <SCORE.SYSTEM.CONST>
0

>  <SCORE.SYSTEM.DIHEDRAL>
0

>  <SCORE.SYSTEM.SOLV>
0

>  <SCORE.SYSTEM.norm>
0

>  <SCORE.heavy>
40

>  <SCORE.norm>
-0.417334

>  <RMSD>
0.793

$$$$
ligand
 OpenBabel11021811513D
libRbt.so/2013.1/901 2013/11/27
 40 42  0  0  0  0  0  0  0  0999 V2000
    3.3064   -6.8039   18.9638 C   0  0  2  0  0  0  0  0  0  0  0  0
    2.2029   -7.6513   19.3203 O   0  0  0  0  0  0  0  0  0  0  0  0
    4.6589   -7.3965   19.5107 C   0  0  1  0  0  0  0  0  0  0  0  0
    4.6966   -7.3943   21.0668 C   0  0  2  0  0  0  0  0  0  0  0  0
    4.5440   -5.9152   21.5434 C   0  0  2  0  0  0  0  0  0  0  0  0
    4.6007   -5.8717   22.9854 O   0  0  0  0  0  0  0  0  0  0  0  0
    3.1509   -5.3565   21.0155 C   0  0  2  0  0  0  0  0  0  0  0  0
    3.1168   -5.4223   19.5106 O   0  0  0  0  0  0  0  0  0  0  0  0
    2.9156   -3.9058   21.4131 C   0  0  0  0  0  0  0  0  0  0  0  0
    3.9842   -3.0076   20.8729 N   0  0  0  0  0  0  0  0  0  0  0  0
   -1.4869   -9.2198   17.5163 C   0  0  2  0  0  0  0  0  0  0  0  0
   -2.6731   -9.2904   16.6950 N   0  0  0  0  0  0  0  0  0  0  0  0
   -1.5976   -7.9867   18.5011 C   0  0  0  0  0  0  0  0  0  0  0  0
   -0.2924   -7.8929   19.4113 C   0  0  2  0  0  0  0  0  0  0  0  0
   -0.4053   -6.7436   20.3472 N   0  0  0  0  0  0  0  0  0  0  0  0
    0.9936   -7.7494   18.4720 C   0  0  2  0  0  0  0  0  0  0  0  0
    1.0595   -9.0064   17.5037 C   0  0  2  0  0  0  0  0  0  0  0  0
    2.2088   -8.8892   16.6619 O   0  0  0  0  0  0  0  0  0  0  0  0
   -0.2412   -9.0890   16.6112 C   0  0  1  0  0  0  0  0  0  0  0  0
   -0.1749  -10.2521   15.7489 O   0  0  0  0  0  0  0  0  0  0  0  0
   -0.3299  -10.2383   14.3703 C   0  0  2  0  0  0  0  0  0  0  0  0
   -0.4373  -11.7300   13.8925 C   0  0  2  0  0  0  0  0  0  0  0  0
   -1.5013  -12.3535   14.5362 O   0  0  0  0  0  0  0  0  0  0  0  0
    0.9185  -12.5230   14.1253 C   0  0  1  0  0  0  0  0  0  0  0  0
    0.7982  -13.9367   13.6522 N   0  0  0  0  0  0  0  0  0  0  0  0
    2.0899  -11.7639   13.3619 C   0  0  2  0  0  0  0  0  0  0  0  0
    3.3364  -12.4502   13.5314 O   0  0  0  0  0  0  0  0  0  0  0  0
    2.1611  -10.2885   13.9160 C   0  0  2  0  0  0  0  0  0  0  0  0
    0.8305   -9.5735   13.7238 O   0  0  0  0  0  0  0  0  0  0  0  0
    3.2425   -9.4963   13.2206 C   0  0  0  0  0  0  0  0  0  0  0  0
    4.5675   -9.9137   13.5984 O   0  0  0  0  0  0  0  0  0  0  0  0
    4.8074   -8.7508   18.9932 O   0  0  0  0  0  0  0  0  0  0  0  0
    5.8993   -7.9081   21.4877 O   0  0  0  0  0  0  0  0  0  0  0  0
   -3.8652   -9.9004   17.2370 C   0  0  0  0  0  0  0  0  0  0  0  0
   -3.7705  -10.7274   18.1920 O   0  0  0  0  0  0  0  0  0  0  0  0
   -5.2369   -9.5092   16.6062 C   0  0  2  0  0  0  0  0  0  0  0  0
   -8.3132  -11.6717   15.6025 N   0  0  0  0  0  0  0  0  0  0  0  0
   -6.0952  -10.7767   16.3054 C   0  0  0  0  0  0  0  0  0  0  0  0
   -7.4882  -10.4479   15.7429 C   0  0  0  0  0  0  0  0  0  0  0  0
   -5.1105   -8.9137   15.4893 O   0  0  0  0  0  0  0  0  0  0  0  0
  1  2  1  1  0  0  0
  1  3  1  0  0  0  0
  1  8  1  0  0  0  0
  3  4  1  0  0  0  0
  3 32  1  1  0  0  0
  4  5  1  0  0  0  0
  4 33  1  6  0  0  0
  5  6  1  1  0  0  0
  5  7  1  0  0  0  0
  7  8  1  0  0  0  0
  7  9  1  6  0  0  0
  9 10  1  0  0  0  0
 11 12  1  6  0  0  0
 11 13  1  0  0  0  0
 11 19  1  0  0  0  0
 12 34  1  0  0  0  0
 13 14  1  0  0  0  0
 14 15  1  1  0  0  0
 14 16  1  0  0  0  0
 16  2  1  1  0  0  0
 16 17  1  0  0  0  0
 17 18  1  6  0  0  0
 17 19  1  0  0  0  0
 19 20  1  6  0  0  0
 21 20  1  1  0  0  0
 21 22  1  0  0  0  0
 21 29  1  0  0  0  0
 22 23  1  1  0  0  0
 22 24  1  0  0  0  0
 24 25  1  6  0  0  0
 24 26  1  0  0  0  0
 26 27  1  1  0  0  0
 26 28  1  0  0  0  0
 28 29  1  0  0  0  0
 28 30  1  6  0  0  0
 30 31  1  0  0  0  0
 34 35  2  0  0  0  0
 36 34  1  6  0  0  0
 36 38  1  0  0  0  0
 36 40  1  0  0  0  0
 37 39  1  0  0  0  0
 38 39  1  0  0  0  0
M  END
>  <CHROM.1>
-150.13959474,-143.33310192,59.55206483,-81.31894095,113.55963327,-170.07375003
-71.22595155,132.47365528,177.26491543,-174.26543820,0.57210006,-8.95009897
17.27602828,0.76050267,0.06710846,0.91349017

>  <Name>
ligand

>  <RI>
0

>  <Rbt.Current_Directory>
/home/itssahil/PROJECTS/Mol_Feturizer/New_Systems/rnas/4P20

>  <Rbt.Executable>
rbdock ($Id: //depot/dev/client3/rdock/2013.1/src/exe/rbdock.cxx#4 $)

>  <Rbt.Library>
libRbt.so (2013.1, Build901 2013/11/27)

>  <Rbt.Parameter_File>
/export/apps/rDock/src/rDock_2013.1_src/data/scripts/dock_solv.prm

>  <Rbt.Receptor>
prm/pocket_docking_2.prm

>  <SCORE>
-10.3612

>  <SCORE.INTER>
-7.0312

>  <SCORE.INTER.CONST>
1

>  <SCORE.INTER.POLAR>
0

>  <SCORE.INTER.ROT>
10

>  <SCORE.INTER.SOLV>
24.243

>  <SCORE.INTER.VDW>
-23.0351

>  <SCORE.INTER.norm>
-0.17578

>  <SCORE.INTRA>
-3.3525

>  <SCORE.INTRA.DIHEDRAL>
-9.18768

>  <SCORE.INTRA.DIHEDRAL.0>
28.2802

>  <SCORE.INTRA.POLAR>
0

>  <SCORE.INTRA.POLAR.0>
0

>  <SCORE.INTRA.REPUL>
0

>  <SCORE.INTRA.REPUL.0>
0

>  <SCORE.INTRA.SOLV>
0.386095

>  <SCORE.INTRA.SOLV.lig_0>
-101.981

>  <SCORE.INTRA.VDW>
1.0483

>  <SCORE.INTRA.VDW.0>
-5.72964

>  <SCORE.INTRA.norm>
-0.0838124

>  <SCORE.RESTR>
0.0225127

>  <SCORE.RESTR.CAVITY>
0.0225127

>  <SCORE.RESTR.norm>
0.000562817

>  <SCORE.SYSTEM>
0

>  <SCORE.SYSTEM.CONST>
0

>  <SCORE.SYSTEM.DIHEDRAL>
0

>  <SCORE.SYSTEM.SOLV>
0

>  <SCORE.SYSTEM.norm>
0

>  <SCORE.heavy>
40

>  <SCORE.norm>
-0.25903

>  <RMSD>
0.799

$$$$
ligand
 OpenBabel11021811513D
libRbt.so/2013.1/901 2013/11/27
 40 42  0  0  0  0  0  0  0  0999 V2000
    4.0192   -7.4840   19.0246 C   0  0  2  0  0  0  0  0  0  0  0  0
    2.8092   -8.1696   19.3836 O   0  0  0  0  0  0  0  0  0  0  0  0
    5.1968   -7.9003   19.9834 C   0  0  1  0  0  0  0  0  0  0  0  0
    4.9396   -7.4276   21.4440 C   0  0  2  0  0  0  0  0  0  0  0  0
    4.8082   -5.8718   21.4234 C   0  0  2  0  0  0  0  0  0  0  0  0
    4.5943   -5.3945   22.7691 O   0  0  0  0  0  0  0  0  0  0  0  0
    3.5847   -5.4816   20.4841 C   0  0  2  0  0  0  0  0  0  0  0  0
    3.8311   -5.9995   19.0908 O   0  0  0  0  0  0  0  0  0  0  0  0
    3.3851   -3.9757   20.3813 C   0  0  0  0  0  0  0  0  0  0  0  0
    2.9397   -3.3900   21.6848 N   0  0  0  0  0  0  0  0  0  0  0  0
   -0.9247   -9.4936   17.4771 C   0  0  2  0  0  0  0  0  0  0  0  0
   -2.0693   -9.5055   16.5960 N   0  0  0  0  0  0  0  0  0  0  0  0
   -0.9599   -8.1901   18.3729 C   0  0  0  0  0  0  0  0  0  0  0  0
    0.3008   -8.1606   19.3479 C   0  0  2  0  0  0  0  0  0  0  0  0
    0.2575   -6.9436   20.2002 N   0  0  0  0  0  0  0  0  0  0  0  0
    1.6403   -8.2085   18.4759 C   0  0  2  0  0  0  0  0  0  0  0  0
    1.6276   -9.5301   17.5956 C   0  0  2  0  0  0  0  0  0  0  0  0
    2.8237   -9.5840   16.8147 O   0  0  0  0  0  0  0  0  0  0  0  0
    0.3717   -9.5478   16.6378 C   0  0  1  0  0  0  0  0  0  0  0  0
    0.3636  -10.7689   15.8571 O   0  0  0  0  0  0  0  0  0  0  0  0
   -0.2455  -10.9262   14.6205 C   0  0  2  0  0  0  0  0  0  0  0  0
   -0.4851  -12.4627   14.4045 C   0  0  2  0  0  0  0  0  0  0  0  0
   -1.2619  -12.9671   15.4425 O   0  0  0  0  0  0  0  0  0  0  0  0
    0.8817  -13.2599   14.2711 C   0  0  1  0  0  0  0  0  0  0  0  0
    0.6303  -14.7181   14.0536 N   0  0  0  0  0  0  0  0  0  0  0  0
    1.7174  -12.6395   13.0678 C   0  0  2  0  0  0  0  0  0  0  0  0
    2.9584  -13.3356   12.8980 O   0  0  0  0  0  0  0  0  0  0  0  0
    1.9488  -11.1083   13.3692 C   0  0  2  0  0  0  0  0  0  0  0  0
    0.6206  -10.3842   13.5422 O   0  0  0  0  0  0  0  0  0  0  0  0
    2.7221  -10.4439   12.2552 C   0  0  0  0  0  0  0  0  0  0  0  0
    4.0516  -10.9761   12.1071 O   0  0  0  0  0  0  0  0  0  0  0  0
    5.3411   -9.3495   19.9283 O   0  0  0  0  0  0  0  0  0  0  0  0
    6.0002   -7.8050   22.2316 O   0  0  0  0  0  0  0  0  0  0  0  0
   -3.3242  -10.0283   17.0846 C   0  0  0  0  0  0  0  0  0  0  0  0
   -3.3318  -10.8406   18.0567 O   0  0  0  0  0  0  0  0  0  0  0  0
   -4.6339   -9.5639   16.3764 C   0  0  2  0  0  0  0  0  0  0  0  0
   -7.5307  -10.4656   15.8601 N   0  0  0  0  0  0  0  0  0  0  0  0
   -5.1011  -10.6141   15.3217 C   0  0  0  0  0  0  0  0  0  0  0  0
   -6.5172  -10.3474   14.7845 C   0  0  0  0  0  0  0  0  0  0  0  0
   -4.4828   -8.4792   15.7293 O   0  0  0  0  0  0  0  0  0  0  0  0
  1  2  1  1  0  0  0
  1  3  1  0  0  0  0
  1  8  1  0  0  0  0
  3  4  1  0  0  0  0
  3 32  1  1  0  0  0
  4  5  1  0  0  0  0
  4 33  1  1  0  0  0
  5  6  1  1  0  0  0
  5  7  1  0  0  0  0
  7  8  1  0  0  0  0
  7  9  1  6  0  0  0
  9 10  1  0  0  0  0
 11 12  1  6  0  0  0
 11 13  1  0  0  0  0
 11 19  1  0  0  0  0
 12 34  1  0  0  0  0
 13 14  1  0  0  0  0
 14 15  1  6  0  0  0
 14 16  1  0  0  0  0
 16  2  1  1  0  0  0
 16 17  1  0  0  0  0
 17 18  1  6  0  0  0
 17 19  1  0  0  0  0
 19 20  1  1  0  0  0
 21 20  1  1  0  0  0
 21 22  1  0  0  0  0
 21 29  1  0  0  0  0
 22 23  1  1  0  0  0
 22 24  1  0  0  0  0
 24 25  1  6  0  0  0
 24 26  1  0  0  0  0
 26 27  1  1  0  0  0
 26 28  1  0  0  0  0
 28 29  1  0  0  0  0
 28 30  1  6  0  0  0
 30 31  1  0  0  0  0
 34 35  2  0  0  0  0
 36 34  1  6  0  0  0
 36 38  1  0  0  0  0
 36 40  1  0  0  0  0
 37 39  1  0  0  0  0
 38 39  1  0  0  0  0
M  END
>  <CHROM.1>
-165.72910446,-144.66382940,-67.40747987,-84.79163265,85.28030074,-158.83174762
-63.60203896,97.48959727,169.01990914,-64.00789531,0.87903685,-9.30158889
17.20730415,-0.89848605,0.02222016,-2.26994643

>  <Name>
ligand

>  <RI>
0

>  <Rbt.Current_Directory>
/home/itssahil/PROJECTS/Mol_Feturizer/New_Systems/rnas/4P20

>  <Rbt.Executable>
rbdock ($Id: //depot/dev/client3/rdock/2013.1/src/exe/rbdock.cxx#4 $)

>  <Rbt.Library>
libRbt.so (2013.1, Build901 2013/11/27)

>  <Rbt.Parameter_File>
/export/apps/rDock/src/rDock_2013.1_src/data/scripts/dock_solv.prm

>  <Rbt.Receptor>
prm/pocket_docking_2.prm

>  <SCORE>
-17.2215

>  <SCORE.INTER>
-11.2359

>  <SCORE.INTER.CONST>
1

>  <SCORE.INTER.POLAR>
0

>  <SCORE.INTER.ROT>
10

>  <SCORE.INTER.SOLV>
19.4037

>  <SCORE.INTER.VDW>
-24.2252

>  <SCORE.INTER.norm>
-0.280897

>  <SCORE.INTRA>
-5.98562

>  <SCORE.INTRA.DIHEDRAL>
-14.893

>  <SCORE.INTRA.DIHEDRAL.0>
28.2802

>  <SCORE.INTRA.POLAR>
0

>  <SCORE.INTRA.POLAR.0>
0

>  <SCORE.INTRA.REPUL>
0

>  <SCORE.INTRA.REPUL.0>
0

>  <SCORE.INTRA.SOLV>
1.36667

>  <SCORE.INTRA.SOLV.lig_0>
-101.981

>  <SCORE.INTRA.VDW>
0.777524

>  <SCORE.INTRA.VDW.0>
-5.72964

>  <SCORE.INTRA.norm>
-0.149641

>  <SCORE.RESTR>
0

>  <SCORE.RESTR.CAVITY>
0

>  <SCORE.RESTR.norm>
0

>  <SCORE.SYSTEM>
0

>  <SCORE.SYSTEM.CONST>
0

>  <SCORE.SYSTEM.DIHEDRAL>
0

>  <SCORE.SYSTEM.SOLV>
0

>  <SCORE.SYSTEM.norm>
0

>  <SCORE.heavy>
40

>  <SCORE.norm>
-0.430538

>  <RMSD>
0.834

$$$$
ligand
 OpenBabel11021811513D
libRbt.so/2013.1/901 2013/11/27
 40 42  0  0  0  0  0  0  0  0999 V2000
    3.3226   -6.7317   18.9382 C   0  0  2  0  0  0  0  0  0  0  0  0
    2.2179   -7.5764   19.2976 O   0  0  0  0  0  0  0  0  0  0  0  0
    4.6892   -7.4184   19.3122 C   0  0  1  0  0  0  0  0  0  0  0  0
    4.8477   -7.5757   20.8527 C   0  0  2  0  0  0  0  0  0  0  0  0
    4.7904   -6.1486   21.4840 C   0  0  2  0  0  0  0  0  0  0  0  0
    4.9606   -6.2538   22.9139 O   0  0  0  0  0  0  0  0  0  0  0  0
    3.3833   -5.4964   21.1288 C   0  0  2  0  0  0  0  0  0  0  0  0
    3.2299   -5.4077   19.6325 O   0  0  0  0  0  0  0  0  0  0  0  0
    3.2363   -4.0870   21.6857 C   0  0  0  0  0  0  0  0  0  0  0  0
    4.0016   -3.0914   20.8710 N   0  0  0  0  0  0  0  0  0  0  0  0
   -1.2935   -9.3602   17.3436 C   0  0  2  0  0  0  0  0  0  0  0  0
   -2.4467   -9.4952   16.4842 N   0  0  0  0  0  0  0  0  0  0  0  0
   -1.5224   -8.1631   18.3523 C   0  0  0  0  0  0  0  0  0  0  0  0
   -0.2550   -7.9987   19.3048 C   0  0  2  0  0  0  0  0  0  0  0  0
   -0.4786   -6.8842   20.2627 N   0  0  0  0  0  0  0  0  0  0  0  0
    1.0445   -7.7399   18.4098 C   0  0  2  0  0  0  0  0  0  0  0  0
    1.2300   -8.9643   17.4156 C   0  0  2  0  0  0  0  0  0  0  0  0
    2.3922   -8.7439   16.6131 O   0  0  0  0  0  0  0  0  0  0  0  0
   -0.0343   -9.1178   16.4812 C   0  0  1  0  0  0  0  0  0  0  0  0
    0.1416  -10.2512   15.5952 O   0  0  0  0  0  0  0  0  0  0  0  0
    0.0615  -10.2070   14.2108 C   0  0  2  0  0  0  0  0  0  0  0  0
   -0.1254  -11.6804   13.7016 C   0  0  2  0  0  0  0  0  0  0  0  0
   -1.2634  -12.2353   14.2779 O   0  0  0  0  0  0  0  0  0  0  0  0
    1.1568  -12.5714   13.9906 C   0  0  1  0  0  0  0  0  0  0  0  0
    0.9622  -13.9661   13.4867 N   0  0  0  0  0  0  0  0  0  0  0  0
    2.4178  -11.8873   13.3028 C   0  0  2  0  0  0  0  0  0  0  0  0
    3.6019  -12.6632   13.5248 O   0  0  0  0  0  0  0  0  0  0  0  0
    2.5634  -10.4286   13.8860 C   0  0  2  0  0  0  0  0  0  0  0  0
    1.2987   -9.6178   13.6375 O   0  0  0  0  0  0  0  0  0  0  0  0
    3.7334   -9.7061   13.2620 C   0  0  0  0  0  0  0  0  0  0  0  0
    3.9763   -8.4198   13.8615 O   0  0  0  0  0  0  0  0  0  0  0  0
    4.7443   -8.7170   18.6530 O   0  0  0  0  0  0  0  0  0  0  0  0
    6.0586   -8.1666   21.1217 O   0  0  0  0  0  0  0  0  0  0  0  0
   -3.6980   -9.9368   17.0551 C   0  0  0  0  0  0  0  0  0  0  0  0
   -3.6981  -10.5997   18.1347 O   0  0  0  0  0  0  0  0  0  0  0  0
   -5.0134   -9.5750   16.2992 C   0  0  2  0  0  0  0  0  0  0  0  0
   -7.0750  -11.9226   16.4003 N   0  0  0  0  0  0  0  0  0  0  0  0
   -5.3258  -10.6243   15.1880 C   0  0  0  0  0  0  0  0  0  0  0  0
   -5.7462  -11.9941   15.7465 C   0  0  0  0  0  0  0  0  0  0  0  0
   -4.9408   -8.4567   15.6973 O   0  0  0  0  0  0  0  0  0  0  0  0
  1  2  1  1  0  0  0
  1  3  1  0  0  0  0
  1  8  1  0  0  0  0
  3  4  1  0  0  0  0
  3 32  1  6  0  0  0
  4  5  1  0  0  0  0
  4 33  1  6  0  0  0
  5  6  1  1  0  0  0
  5  7  1  0  0  0  0
  7  8  1  0  0  0  0
  7  9  1  1  0  0  0
  9 10  1  0  0  0  0
 11 12  1  6  0  0  0
 11 13  1  0  0  0  0
 11 19  1  0  0  0  0
 12 34  1  0  0  0  0
 13 14  1  0  0  0  0
 14 15  1  1  0  0  0
 14 16  1  0  0  0  0
 16  2  1  1  0  0  0
 16 17  1  0  0  0  0
 17 18  1  6  0  0  0
 17 19  1  0  0  0  0
 19 20  1  6  0  0  0
 21 20  1  1  0  0  0
 21 22  1  0  0  0  0
 21 29  1  0  0  0  0
 22 23  1  1  0  0  0
 22 24  1  0  0  0  0
 24 25  1  6  0  0  0
 24 26  1  0  0  0  0
 26 27  1  1  0  0  0
 26 28  1  0  0  0  0
 28 29  1  0  0  0  0
 28 30  1  6  0  0  0
 30 31  1  0  0  0  0
 34 35  2  0  0  0  0
 36 34  1  6  0  0  0
 36 38  1  0  0  0  0
 36 40  1  0  0  0  0
 37 39  1  0  0  0  0
 38 39  1  0  0  0  0
M  END
>  <CHROM.1>
-138.58933591,-148.90373443,76.63068984,-68.03893992,115.35378727,-162.91782168
-174.38163934,85.13492245,69.98060778,68.75782829,0.82024694,-8.99607121
17.19220404,0.81901125,0.09094950,0.92546508

>  <Name>
ligand

>  <RI>
0

>  <Rbt.Current_Directory>
/home/itssahil/PROJECTS/Mol_Feturizer/New_Systems/rnas/4P20

>  <Rbt.Executable>
rbdock ($Id: //depot/dev/client3/rdock/2013.1/src/exe/rbdock.cxx#4 $)

>  <Rbt.Library>
libRbt.so (2013.1, Build901 2013/11/27)

>  <Rbt.Parameter_File>
/export/apps/rDock/src/rDock_2013.1_src/data/scripts/dock_solv.prm

>  <Rbt.Receptor>
prm/pocket_docking_2.prm

>  <SCORE>
-10.1499

>  <SCORE.INTER>
-7.42207

>  <SCORE.INTER.CONST>
1

>  <SCORE.INTER.POLAR>
0

>  <SCORE.INTER.ROT>
10

>  <SCORE.INTER.SOLV>
25.5128

>  <SCORE.INTER.VDW>
-23.719

>  <SCORE.INTER.norm>
-0.185552

>  <SCORE.INTRA>
-2.73656

>  <SCORE.INTRA.DIHEDRAL>
-7.24009

>  <SCORE.INTRA.DIHEDRAL.0>
28.2802

>  <SCORE.INTRA.POLAR>
0

>  <SCORE.INTRA.POLAR.0>
0

>  <SCORE.INTRA.REPUL>
0

>  <SCORE.INTRA.REPUL.0>
0

>  <SCORE.INTRA.SOLV>
1.31018

>  <SCORE.INTRA.SOLV.lig_0>
-101.981

>  <SCORE.INTRA.VDW>
0.228393

>  <SCORE.INTRA.VDW.0>
-5.72964

>  <SCORE.INTRA.norm>
-0.0684141

>  <SCORE.RESTR>
0.00870235

>  <SCORE.RESTR.CAVITY>
0.00870235

>  <SCORE.RESTR.norm>
0.000217559

>  <SCORE.SYSTEM>
0

>  <SCORE.SYSTEM.CONST>
0

>  <SCORE.SYSTEM.DIHEDRAL>
0

>  <SCORE.SYSTEM.SOLV>
0

>  <SCORE.SYSTEM.norm>
0

>  <SCORE.heavy>
40

>  <SCORE.norm>
-0.253748

>  <RMSD>
0.845

$$$$
ligand
 OpenBabel11021811513D
libRbt.so/2013.1/901 2013/11/27
 40 42  0  0  0  0  0  0  0  0999 V2000
    4.0356   -7.6872   18.9538 C   0  0  2  0  0  0  0  0  0  0  0  0
    2.8054   -8.3135   19.3506 O   0  0  0  0  0  0  0  0  0  0  0  0
    5.2273   -8.1889   19.8524 C   0  0  1  0  0  0  0  0  0  0  0  0
    5.0582   -7.7359   21.3320 C   0  0  2  0  0  0  0  0  0  0  0  0
    5.0129   -6.1752   21.3485 C   0  0  2  0  0  0  0  0  0  0  0  0
    4.8823   -5.7175   22.7116 O   0  0  0  0  0  0  0  0  0  0  0  0
    3.7747   -5.6975   20.4709 C   0  0  2  0  0  0  0  0  0  0  0  0
    3.9333   -6.1965   19.0581 O   0  0  0  0  0  0  0  0  0  0  0  0
    3.6551   -4.1810   20.4073 C   0  0  0  0  0  0  0  0  0  0  0  0
    3.3225   -3.5993   21.7458 N   0  0  0  0  0  0  0  0  0  0  0  0
   -0.9530   -9.6251   17.4842 C   0  0  2  0  0  0  0  0  0  0  0  0
   -2.1056   -9.6345   16.6135 N   0  0  0  0  0  0  0  0  0  0  0  0
   -0.9727   -8.3173   18.3741 C   0  0  0  0  0  0  0  0  0  0  0  0
    0.2969   -8.2905   19.3376 C   0  0  2  0  0  0  0  0  0  0  0  0
    0.2682   -7.0693   20.1845 N   0  0  0  0  0  0  0  0  0  0  0  0
    1.6282   -8.3499   18.4537 C   0  0  2  0  0  0  0  0  0  0  0  0
    1.6001   -9.6755   17.5798 C   0  0  2  0  0  0  0  0  0  0  0  0
    2.7887   -9.7398   16.7883 O   0  0  0  0  0  0  0  0  0  0  0  0
    0.3354   -9.6905   16.6334 C   0  0  1  0  0  0  0  0  0  0  0  0
    0.3134  -10.9151   15.8586 O   0  0  0  0  0  0  0  0  0  0  0  0
   -0.2742  -11.0641   14.6106 C   0  0  2  0  0  0  0  0  0  0  0  0
   -0.4802  -12.6013   14.3664 C   0  0  2  0  0  0  0  0  0  0  0  0
   -1.2621  -13.1375   15.3844 O   0  0  0  0  0  0  0  0  0  0  0  0
    0.9039  -13.3694   14.2409 C   0  0  1  0  0  0  0  0  0  0  0  0
    0.6845  -14.8285   13.9964 N   0  0  0  0  0  0  0  0  0  0  0  0
    1.7449  -12.7134   13.0604 C   0  0  2  0  0  0  0  0  0  0  0  0
    3.0017  -13.3823   12.8983 O   0  0  0  0  0  0  0  0  0  0  0  0
    1.9415  -11.1831   13.3897 C   0  0  2  0  0  0  0  0  0  0  0  0
    0.5969  -10.4878   13.5543 O   0  0  0  0  0  0  0  0  0  0  0  0
    2.7180  -10.4857   12.2983 C   0  0  0  0  0  0  0  0  0  0  0  0
    4.0705  -10.9658   12.1845 O   0  0  0  0  0  0  0  0  0  0  0  0
    5.2884   -9.6422   19.7618 O   0  0  0  0  0  0  0  0  0  0  0  0
    6.1283   -8.1885   22.0654 O   0  0  0  0  0  0  0  0  0  0  0  0
   -3.3802  -10.0608   17.1431 C   0  0  0  0  0  0  0  0  0  0  0  0
   -3.4189  -10.8084   18.1651 O   0  0  0  0  0  0  0  0  0  0  0  0
   -4.6719   -9.5762   16.4156 C   0  0  2  0  0  0  0  0  0  0  0  0
   -7.5708  -10.4393   15.8593 N   0  0  0  0  0  0  0  0  0  0  0  0
   -5.1368  -10.6167   15.3504 C   0  0  0  0  0  0  0  0  0  0  0  0
   -6.5429  -10.3324   14.7962 C   0  0  0  0  0  0  0  0  0  0  0  0
   -4.4956   -8.4918   15.7745 O   0  0  0  0  0  0  0  0  0  0  0  0
  1  2  1  1  0  0  0
  1  3  1  0  0  0  0
  1  8  1  0  0  0  0
  3  4  1  0  0  0  0
  3 32  1  1  0  0  0
  4  5  1  0  0  0  0
  4 33  1  1  0  0  0
  5  6  1  1  0  0  0
  5  7  1  0  0  0  0
  7  8  1  0  0  0  0
  7  9  1  6  0  0  0
  9 10  1  0  0  0  0
 11 12  1  6  0  0  0
 11 13  1  0  0  0  0
 11 19  1  0  0  0  0
 12 34  1  0  0  0  0
 13 14  1  0  0  0  0
 14 15  1  6  0  0  0
 14 16  1  0  0  0  0
 16  2  1  1  0  0  0
 16 17  1  0  0  0  0
 17 18  1  6  0  0  0
 17 19  1  0  0  0  0
 19 20  1  1  0  0  0
 21 20  1  1  0  0  0
 21 22  1  0  0  0  0
 21 29  1  0  0  0  0
 22 23  1  1  0  0  0
 22 24  1  0  0  0  0
 24 25  1  6  0  0  0
 24 26  1  0  0  0  0
 26 27  1  1  0  0  0
 26 28  1  0  0  0  0
 28 29  1  0  0  0  0
 28 30  1  6  0  0  0
 30 31  1  0  0  0  0
 34 35  2  0  0  0  0
 36 34  1  6  0  0  0
 36 38  1  0  0  0  0
 36 40  1  0  0  0  0
 37 39  1  0  0  0  0
 38 39  1  0  0  0  0
M  END
>  <CHROM.1>
-161.37621417,-147.44590365,-66.37029138,-80.53552743,87.27548938,-161.64267355
-65.08998968,92.90211418,168.76058733,-63.79451238,0.91049373,-9.43767805
17.19223236,-0.86078526,0.02984369,-2.26531760

>  <Name>
ligand

>  <RI>
0

>  <Rbt.Current_Directory>
/home/itssahil/PROJECTS/Mol_Feturizer/New_Systems/rnas/4P20

>  <Rbt.Executable>
rbdock ($Id: //depot/dev/client3/rdock/2013.1/src/exe/rbdock.cxx#4 $)

>  <Rbt.Library>
libRbt.so (2013.1, Build901 2013/11/27)

>  <Rbt.Parameter_File>
/export/apps/rDock/src/rDock_2013.1_src/data/scripts/dock_solv.prm

>  <Rbt.Receptor>
prm/pocket_docking_2.prm

>  <SCORE>
-17.0333

>  <SCORE.INTER>
-10.8478

>  <SCORE.INTER.CONST>
1

>  <SCORE.INTER.POLAR>
0

>  <SCORE.INTER.ROT>
10

>  <SCORE.INTER.SOLV>
19.4672

>  <SCORE.INTER.VDW>
-23.9876

>  <SCORE.INTER.norm>
-0.271195

>  <SCORE.INTRA>
-6.19499

>  <SCORE.INTRA.DIHEDRAL>
-15.1777

>  <SCORE.INTRA.DIHEDRAL.0>
28.2802

>  <SCORE.INTRA.POLAR>
0

>  <SCORE.INTRA.POLAR.0>
0

>  <SCORE.INTRA.REPUL>
0

>  <SCORE.INTRA.REPUL.0>
0

>  <SCORE.INTRA.SOLV>
1.07194

>  <SCORE.INTRA.SOLV.lig_0>
-101.981

>  <SCORE.INTRA.VDW>
0.85788

>  <SCORE.INTRA.VDW.0>
-5.72964

>  <SCORE.INTRA.norm>
-0.154875

>  <SCORE.RESTR>
0.00948513

>  <SCORE.RESTR.CAVITY>
0.00948513

>  <SCORE.RESTR.norm>
0.000237128

>  <SCORE.SYSTEM>
0

>  <SCORE.SYSTEM.CONST>
0

>  <SCORE.SYSTEM.DIHEDRAL>
0

>  <SCORE.SYSTEM.SOLV>
0

>  <SCORE.SYSTEM.norm>
0

>  <SCORE.heavy>
40

>  <SCORE.norm>
-0.425833

>  <RMSD>
0.893

$$$$
ligand
 OpenBabel11021811513D
libRbt.so/2013.1/901 2013/11/27
 40 42  0  0  0  0  0  0  0  0999 V2000
    3.7438   -7.2511   19.0757 C   0  0  2  0  0  0  0  0  0  0  0  0
    2.4885   -7.7922   19.5166 O   0  0  0  0  0  0  0  0  0  0  0  0
    4.9376   -7.9081   19.8646 C   0  0  1  0  0  0  0  0  0  0  0  0
    4.8997   -7.5343   21.3751 C   0  0  2  0  0  0  0  0  0  0  0  0
    4.9961   -5.9794   21.4820 C   0  0  2  0  0  0  0  0  0  0  0  0
    4.9899   -5.5970   22.8742 O   0  0  0  0  0  0  0  0  0  0  0  0
    3.7551   -5.3436   20.7157 C   0  0  2  0  0  0  0  0  0  0  0  0
    3.7825   -5.7664   19.2698 O   0  0  0  0  0  0  0  0  0  0  0  0
    3.7689   -3.8214   20.7451 C   0  0  0  0  0  0  0  0  0  0  0  0
    2.4828   -3.2501   20.2350 N   0  0  0  0  0  0  0  0  0  0  0  0
   -1.2373   -9.1385   17.6099 C   0  0  2  0  0  0  0  0  0  0  0  0
   -2.4002   -9.1404   16.7531 N   0  0  0  0  0  0  0  0  0  0  0  0
   -1.2992   -7.8930   18.5833 C   0  0  0  0  0  0  0  0  0  0  0  0
   -0.0188   -7.8747   19.5326 C   0  0  2  0  0  0  0  0  0  0  0  0
   -0.0867   -6.7132   20.4576 N   0  0  0  0  0  0  0  0  0  0  0  0
    1.3016   -7.8204   18.6322 C   0  0  2  0  0  0  0  0  0  0  0  0
    1.3168   -9.0867   17.6741 C   0  0  2  0  0  0  0  0  0  0  0  0
    2.4960   -9.0492   16.8672 O   0  0  0  0  0  0  0  0  0  0  0  0
    0.0410   -9.0940   16.7426 C   0  0  1  0  0  0  0  0  0  0  0  0
    0.0593  -10.2658   15.8899 O   0  0  0  0  0  0  0  0  0  0  0  0
   -0.3855  -10.3089   14.5764 C   0  0  2  0  0  0  0  0  0  0  0  0
   -0.5422  -11.8202   14.1806 C   0  0  2  0  0  0  0  0  0  0  0  0
   -1.4237  -12.4457   15.0563 O   0  0  0  0  0  0  0  0  0  0  0  0
    0.8578  -12.5685   14.1437 C   0  0  1  0  0  0  0  0  0  0  0  0
    0.6869  -14.0019   13.7527 N   0  0  0  0  0  0  0  0  0  0  0  0
    1.8142  -11.8093   13.1239 C   0  0  2  0  0  0  0  0  0  0  0  0
    3.0904  -12.4562   13.0452 O   0  0  0  0  0  0  0  0  0  0  0  0
    1.9523  -10.3123   13.6025 C   0  0  2  0  0  0  0  0  0  0  0  0
    0.5882   -9.6397   13.6761 O   0  0  0  0  0  0  0  0  0  0  0  0
    2.8342   -9.5199   12.6672 C   0  0  0  0  0  0  0  0  0  0  0  0
    4.1855  -10.0148   12.6244 O   0  0  0  0  0  0  0  0  0  0  0  0
    4.8621   -9.3529   19.6889 O   0  0  0  0  0  0  0  0  0  0  0  0
    5.9670   -8.1218   22.0102 O   0  0  0  0  0  0  0  0  0  0  0  0
   -3.6294   -9.7215   17.2416 C   0  0  0  0  0  0  0  0  0  0  0  0
   -3.5933  -10.5795   18.1730 O   0  0  0  0  0  0  0  0  0  0  0  0
   -4.9665   -9.2610   16.5840 C   0  0  2  0  0  0  0  0  0  0  0  0
   -7.2426   -8.8130   14.6203 N   0  0  0  0  0  0  0  0  0  0  0  0
   -5.4509  -10.2943   15.5204 C   0  0  0  0  0  0  0  0  0  0  0  0
   -6.9427  -10.1554   15.1735 C   0  0  0  0  0  0  0  0  0  0  0  0
   -4.8506   -8.1601   15.9573 O   0  0  0  0  0  0  0  0  0  0  0  0
  1  2  1  1  0  0  0
  1  3  1  0  0  0  0
  1  8  1  0  0  0  0
  3  4  1  0  0  0  0
  3 32  1  1  0  0  0
  4  5  1  0  0  0  0
  4 33  1  1  0  0  0
  5  6  1  1  0  0  0
  5  7  1  0  0  0  0
  7  8  1  0  0  0  0
  7  9  1  6  0  0  0
  9 10  1  0  0  0  0
 11 12  1  6  0  0  0
 11 13  1  0  0  0  0
 11 19  1  0  0  0  0
 12 34  1  0  0  0  0
 13 14  1  0  0  0  0
 14 15  1  1  0  0  0
 14 16  1  0  0  0  0
 16  2  1  1  0  0  0
 16 17  1  0  0  0  0
 17 18  1  6  0  0  0
 17 19  1  0  0  0  0
 19 20  1  6  0  0  0
 21 20  1  1  0  0  0
 21 22  1  0  0  0  0
 21 29  1  0  0  0  0
 22 23  1  1  0  0  0
 22 24  1  0  0  0  0
 24 25  1  6  0  0  0
 24 26  1  0  0  0  0
 26 27  1  1  0  0  0
 26 28  1  0  0  0  0
 28 29  1  0  0  0  0
 28 30  1  6  0  0  0
 30 31  1  0  0  0  0
 34 35  2  0  0  0  0
 36 34  1  6  0  0  0
 36 38  1  0  0  0  0
 36 40  1  0  0  0  0
 37 39  1  0  0  0  0
 38 39  1  0  0  0  0
M  END
>  <CHROM.1>
-153.73884074,-156.16342610,-169.98930561,-83.94766721,96.06395976,-164.94105719
-62.85239994,99.24136208,161.19682666,60.18737949,0.73850702,-8.90022707
17.22934994,-0.80233176,0.03436263,-2.22635189

>  <Name>
ligand

>  <RI>
0

>  <Rbt.Current_Directory>
/home/itssahil/PROJECTS/Mol_Feturizer/New_Systems/rnas/4P20

>  <Rbt.Executable>
rbdock ($Id: //depot/dev/client3/rdock/2013.1/src/exe/rbdock.cxx#4 $)

>  <Rbt.Library>
libRbt.so (2013.1, Build901 2013/11/27)

>  <Rbt.Parameter_File>
/export/apps/rDock/src/rDock_2013.1_src/data/scripts/dock_solv.prm

>  <Rbt.Receptor>
prm/pocket_docking_3.prm

>  <SCORE>
-16.0102

>  <SCORE.INTER>
-10.2799

>  <SCORE.INTER.CONST>
1

>  <SCORE.INTER.POLAR>
0

>  <SCORE.INTER.ROT>
10

>  <SCORE.INTER.SOLV>
25.8351

>  <SCORE.INTER.VDW>
-25.7316

>  <SCORE.INTER.norm>
-0.256997

>  <SCORE.INTRA>
-5.73028

>  <SCORE.INTRA.DIHEDRAL>
-13.1544

>  <SCORE.INTRA.DIHEDRAL.0>
28.2802

>  <SCORE.INTRA.POLAR>
0

>  <SCORE.INTRA.POLAR.0>
0

>  <SCORE.INTRA.REPUL>
0

>  <SCORE.INTRA.REPUL.0>
0

>  <SCORE.INTRA.SOLV>
0.200513

>  <SCORE.INTRA.SOLV.lig_0>
-101.981

>  <SCORE.INTRA.VDW>
0.746687

>  <SCORE.INTRA.VDW.0>
-5.72964

>  <SCORE.INTRA.norm>
-0.143257

>  <SCORE.RESTR>
0

>  <SCORE.RESTR.CAVITY>
0

>  <SCORE.RESTR.norm>
0

>  <SCORE.SYSTEM>
0

>  <SCORE.SYSTEM.CONST>
0

>  <SCORE.SYSTEM.DIHEDRAL>
0

>  <SCORE.SYSTEM.SOLV>
0

>  <SCORE.SYSTEM.norm>
0

>  <SCORE.heavy>
40

>  <SCORE.norm>
-0.400254

>  <RMSD>
0.896

$$$$
ligand
 OpenBabel11021811513D
libRbt.so/2013.1/901 2013/11/27
 40 42  0  0  0  0  0  0  0  0999 V2000
    3.9598   -7.5247   18.8531 C   0  0  2  0  0  0  0  0  0  0  0  0
    2.8709   -8.4277   19.1018 O   0  0  0  0  0  0  0  0  0  0  0  0
    5.2397   -7.9660   19.6571 C   0  0  1  0  0  0  0  0  0  0  0  0
    5.0203   -7.8446   21.1933 C   0  0  2  0  0  0  0  0  0  0  0  0
    4.6942   -6.3507   21.5098 C   0  0  2  0  0  0  0  0  0  0  0  0
    4.5097   -6.1953   22.9333 O   0  0  0  0  0  0  0  0  0  0  0  0
    3.3734   -5.9450   20.7209 C   0  0  2  0  0  0  0  0  0  0  0  0
    3.5921   -6.1255   19.2412 O   0  0  0  0  0  0  0  0  0  0  0  0
    2.9808   -4.4917   20.9491 C   0  0  0  0  0  0  0  0  0  0  0  0
    4.0554   -3.5541   20.4944 N   0  0  0  0  0  0  0  0  0  0  0  0
   -1.0237   -9.6045   17.4353 C   0  0  2  0  0  0  0  0  0  0  0  0
   -2.2064   -9.5886   16.6063 N   0  0  0  0  0  0  0  0  0  0  0  0
   -0.9349   -8.2553   18.2566 C   0  0  0  0  0  0  0  0  0  0  0  0
    0.3691   -8.2562   19.1734 C   0  0  2  0  0  0  0  0  0  0  0  0
    0.4423   -6.9949   19.9565 N   0  0  0  0  0  0  0  0  0  0  0  0
    1.6609   -8.4385   18.2488 C   0  0  2  0  0  0  0  0  0  0  0  0
    1.5240   -9.8018   17.4461 C   0  0  2  0  0  0  0  0  0  0  0  0
    2.6767   -9.9759   16.6188 O   0  0  0  0  0  0  0  0  0  0  0  0
    0.2263   -9.7885   16.5455 C   0  0  1  0  0  0  0  0  0  0  0  0
    0.1049  -11.0467   15.8363 O   0  0  0  0  0  0  0  0  0  0  0  0
   -0.4975  -11.2143   14.5978 C   0  0  2  0  0  0  0  0  0  0  0  0
   -0.7283  -12.7532   14.3896 C   0  0  2  0  0  0  0  0  0  0  0  0
   -1.5074  -13.2554   15.4269 O   0  0  0  0  0  0  0  0  0  0  0  0
    0.6431  -13.5442   14.2673 C   0  0  1  0  0  0  0  0  0  0  0  0
    0.4001  -15.0049   14.0572 N   0  0  0  0  0  0  0  0  0  0  0  0
    1.4815  -12.9266   13.0644 C   0  0  2  0  0  0  0  0  0  0  0  0
    2.7268  -13.6174   12.9046 O   0  0  0  0  0  0  0  0  0  0  0  0
    1.7037  -11.3925   13.3579 C   0  0  2  0  0  0  0  0  0  0  0  0
    0.3710  -10.6741   13.5204 O   0  0  0  0  0  0  0  0  0  0  0  0
    2.4789  -10.7307   12.2437 C   0  0  0  0  0  0  0  0  0  0  0  0
    3.8302  -11.2169   12.1417 O   0  0  0  0  0  0  0  0  0  0  0  0
    5.5604   -9.3392   19.2889 O   0  0  0  0  0  0  0  0  0  0  0  0
    6.1685   -8.2288   21.8428 O   0  0  0  0  0  0  0  0  0  0  0  0
   -3.4968   -9.7938   17.2225 C   0  0  0  0  0  0  0  0  0  0  0  0
   -3.5749  -10.3979   18.3333 O   0  0  0  0  0  0  0  0  0  0  0  0
   -4.7563   -9.2570   16.4754 C   0  0  2  0  0  0  0  0  0  0  0  0
   -6.8075  -12.5062   15.8414 N   0  0  0  0  0  0  0  0  0  0  0  0
   -5.4764  -10.4031   15.6998 C   0  0  0  0  0  0  0  0  0  0  0  0
   -6.1155  -11.4537   16.6233 C   0  0  0  0  0  0  0  0  0  0  0  0
   -4.4694   -8.3828   15.5970 O   0  0  0  0  0  0  0  0  0  0  0  0
  1  2  1  1  0  0  0
  1  3  1  0  0  0  0
  1  8  1  0  0  0  0
  3  4  1  0  0  0  0
  3 32  1  1  0  0  0
  4  5  1  0  0  0  0
  4 33  1  1  0  0  0
  5  6  1  1  0  0  0
  5  7  1  0  0  0  0
  7  8  1  0  0  0  0
  7  9  1  6  0  0  0
  9 10  1  0  0  0  0
 11 12  1  6  0  0  0
 11 13  1  0  0  0  0
 11 19  1  0  0  0  0
 12 34  1  0  0  0  0
 13 14  1  0  0  0  0
 14 15  1  6  0  0  0
 14 16  1  0  0  0  0
 16  2  1  1  0  0  0
 16 17  1  0  0  0  0
 17 18  1  6  0  0  0
 17 19  1  0  0  0  0
 19 20  1  1  0  0  0
 21 20  1  1  0  0  0
 21 22  1  0  0  0  0
 21 29  1  0  0  0  0
 22 23  1  1  0  0  0
 22 24  1  0  0  0  0
 24 25  1  6  0  0  0
 24 26  1  0  0  0  0
 26 27  1  1  0  0  0
 26 28  1  0  0  0  0
 28 29  1  0  0  0  0
 28 30  1  6  0  0  0
 30 31  1  0  0  0  0
 34 35  2  0  0  0  0
 36 34  1  6  0  0  0
 36 38  1  0  0  0  0
 36 40  1  0  0  0  0
 37 39  1  0  0  0  0
 38 39  1  0  0  0  0
M  END
>  <CHROM.1>
-165.61201560,-125.71450084,60.24637043,-75.06683389,89.53522102,-165.74781746
-66.07920349,99.55825872,67.46532310,178.94723960,0.81792228,-9.56560643
17.18593101,-0.88027381,-0.02213440,-2.27308674

>  <Name>
ligand

>  <RI>
0

>  <Rbt.Current_Directory>
/home/itssahil/PROJECTS/Mol_Feturizer/New_Systems/rnas/4P20

>  <Rbt.Executable>
rbdock ($Id: //depot/dev/client3/rdock/2013.1/src/exe/rbdock.cxx#4 $)

>  <Rbt.Library>
libRbt.so (2013.1, Build901 2013/11/27)

>  <Rbt.Parameter_File>
/export/apps/rDock/src/rDock_2013.1_src/data/scripts/dock_solv.prm

>  <Rbt.Receptor>
prm/pocket_docking_2.prm

>  <SCORE>
-13.6787

>  <SCORE.INTER>
-8.19373

>  <SCORE.INTER.CONST>
1

>  <SCORE.INTER.POLAR>
0

>  <SCORE.INTER.ROT>
10

>  <SCORE.INTER.SOLV>
25.6648

>  <SCORE.INTER.VDW>
-24.2841

>  <SCORE.INTER.norm>
-0.204843

>  <SCORE.INTRA>
-5.48758

>  <SCORE.INTRA.DIHEDRAL>
-13.2527

>  <SCORE.INTRA.DIHEDRAL.0>
28.2802

>  <SCORE.INTRA.POLAR>
0

>  <SCORE.INTRA.POLAR.0>
0

>  <SCORE.INTRA.REPUL>
0

>  <SCORE.INTRA.REPUL.0>
0

>  <SCORE.INTRA.SOLV>
1.46239

>  <SCORE.INTRA.SOLV.lig_0>
-101.981

>  <SCORE.INTRA.VDW>
0.407581

>  <SCORE.INTRA.VDW.0>
-5.72964

>  <SCORE.INTRA.norm>
-0.137189

>  <SCORE.RESTR>
0.00263475

>  <SCORE.RESTR.CAVITY>
0.00263475

>  <SCORE.RESTR.norm>
6.58688e-05

>  <SCORE.SYSTEM>
0

>  <SCORE.SYSTEM.CONST>
0

>  <SCORE.SYSTEM.DIHEDRAL>
0

>  <SCORE.SYSTEM.SOLV>
0

>  <SCORE.SYSTEM.norm>
0

>  <SCORE.heavy>
40

>  <SCORE.norm>
-0.341967

>  <RMSD>
0.924

$$$$
ligand
 OpenBabel11021811513D
libRbt.so/2013.1/901 2013/11/27
 40 42  0  0  0  0  0  0  0  0999 V2000
    3.8857   -7.4744   19.0332 C   0  0  2  0  0  0  0  0  0  0  0  0
    2.6290   -8.0476   19.4272 O   0  0  0  0  0  0  0  0  0  0  0  0
    5.0467   -7.9944   19.9611 C   0  0  1  0  0  0  0  0  0  0  0  0
    4.8732   -7.4989   21.4265 C   0  0  2  0  0  0  0  0  0  0  0  0
    4.8823   -5.9376   21.4040 C   0  0  2  0  0  0  0  0  0  0  0  0
    4.7491   -5.4416   22.7534 O   0  0  0  0  0  0  0  0  0  0  0  0
    3.6737   -5.4395   20.4969 C   0  0  2  0  0  0  0  0  0  0  0  0
    3.8342   -5.9789   19.0992 O   0  0  0  0  0  0  0  0  0  0  0  0
    3.6082   -3.9218   20.3943 C   0  0  0  0  0  0  0  0  0  0  0  0
    3.2121   -3.2995   21.6967 N   0  0  0  0  0  0  0  0  0  0  0  0
   -0.8419   -9.7688   17.3486 C   0  0  2  0  0  0  0  0  0  0  0  0
   -1.9360   -9.9032   16.4152 N   0  0  0  0  0  0  0  0  0  0  0  0
   -1.0635   -8.4821   18.2421 C   0  0  0  0  0  0  0  0  0  0  0  0
    0.1396   -8.3178   19.2748 C   0  0  2  0  0  0  0  0  0  0  0  0
   -0.0785   -7.1178   20.1245 N   0  0  0  0  0  0  0  0  0  0  0  0
    1.5150   -8.2114   18.4661 C   0  0  2  0  0  0  0  0  0  0  0  0
    1.6905   -9.5214   17.5858 C   0  0  2  0  0  0  0  0  0  0  0  0
    2.9199   -9.4375   16.8614 O   0  0  0  0  0  0  0  0  0  0  0  0
    0.4899   -9.6736   16.5705 C   0  0  1  0  0  0  0  0  0  0  0  0
    0.6541  -10.8837   15.7900 O   0  0  0  0  0  0  0  0  0  0  0  0
   -0.0395  -11.1888   14.6279 C   0  0  2  0  0  0  0  0  0  0  0  0
   -0.2235  -12.7475   14.5834 C   0  0  2  0  0  0  0  0  0  0  0  0
   -0.8946  -13.1735   15.7250 O   0  0  0  0  0  0  0  0  0  0  0  0
    1.1646  -13.5008   14.4191 C   0  0  1  0  0  0  0  0  0  0  0  0
    0.9652  -14.9821   14.3665 N   0  0  0  0  0  0  0  0  0  0  0  0
    1.8765  -12.9738   13.0974 C   0  0  2  0  0  0  0  0  0  0  0  0
    3.1318  -13.6353   12.8973 O   0  0  0  0  0  0  0  0  0  0  0  0
    2.0590  -11.4122   13.2278 C   0  0  2  0  0  0  0  0  0  0  0  0
    0.7157  -10.7259   13.4354 O   0  0  0  0  0  0  0  0  0  0  0  0
    2.7134  -10.8348   11.9954 C   0  0  0  0  0  0  0  0  0  0  0  0
    2.9218   -9.4135   12.0907 O   0  0  0  0  0  0  0  0  0  0  0  0
    5.0581   -9.4508   19.9072 O   0  0  0  0  0  0  0  0  0  0  0  0
    5.9165   -7.9698   22.1864 O   0  0  0  0  0  0  0  0  0  0  0  0
   -3.0492  -10.7574   16.7588 C   0  0  0  0  0  0  0  0  0  0  0  0
   -2.8918  -11.6860   17.6061 O   0  0  0  0  0  0  0  0  0  0  0  0
   -4.4155  -10.4949   16.0540 C   0  0  2  0  0  0  0  0  0  0  0  0
   -8.0438  -11.5467   16.9993 N   0  0  0  0  0  0  0  0  0  0  0  0
   -5.5839  -11.1799   16.8281 C   0  0  0  0  0  0  0  0  0  0  0  0
   -6.9722  -10.8309   16.2661 C   0  0  0  0  0  0  0  0  0  0  0  0
   -4.4607  -10.9771   14.8778 O   0  0  0  0  0  0  0  0  0  0  0  0
  1  2  1  1  0  0  0
  1  3  1  0  0  0  0
  1  8  1  0  0  0  0
  3  4  1  0  0  0  0
  3 32  1  1  0  0  0
  4  5  1  0  0  0  0
  4 33  1  1  0  0  0
  5  6  1  1  0  0  0
  5  7  1  0  0  0  0
  7  8  1  0  0  0  0
  7  9  1  6  0  0  0
  9 10  1  0  0  0  0
 11 12  1  6  0  0  0
 11 13  1  0  0  0  0
 11 19  1  0  0  0  0
 12 34  1  0  0  0  0
 13 14  1  0  0  0  0
 14 15  1  6  0  0  0
 14 16  1  0  0  0  0
 16  2  1  1  0  0  0
 16 17  1  0  0  0  0
 17 18  1  6  0  0  0
 17 19  1  0  0  0  0
 19 20  1  1  0  0  0
 21 20  1  1  0  0  0
 21 22  1  0  0  0  0
 21 29  1  0  0  0  0
 22 23  1  1  0  0  0
 22 24  1  0  0  0  0
 24 25  1  6  0  0  0
 24 26  1  0  0  0  0
 26 27  1  1  0  0  0
 26 28  1  0  0  0  0
 28 29  1  0  0  0  0
 28 30  1  6  0  0  0
 30 31  1  0  0  0  0
 34 35  2  0  0  0  0
 36 34  1  1  0  0  0
 36 38  1  0  0  0  0
 36 40  1  0  0  0  0
 37 39  1  0  0  0  0
 38 39  1  0  0  0  0
M  END
>  <CHROM.1>
-154.01299173,-158.09002150,-69.15870563,-95.31572150,74.54947187,-147.59567533
-178.77281423,-162.57301107,173.80481639,177.74621274,0.88435520,-9.55205121
17.25121705,-0.89066644,-0.10204169,-2.24974744

>  <Name>
ligand

>  <RI>
0

>  <Rbt.Current_Directory>
/home/itssahil/PROJECTS/Mol_Feturizer/New_Systems/rnas/4P20

>  <Rbt.Executable>
rbdock ($Id: //depot/dev/client3/rdock/2013.1/src/exe/rbdock.cxx#4 $)

>  <Rbt.Library>
libRbt.so (2013.1, Build901 2013/11/27)

>  <Rbt.Parameter_File>
/export/apps/rDock/src/rDock_2013.1_src/data/scripts/dock_solv.prm

>  <Rbt.Receptor>
prm/pocket_docking_2.prm

>  <SCORE>
-16.3039

>  <SCORE.INTER>
-9.42873

>  <SCORE.INTER.CONST>
1

>  <SCORE.INTER.POLAR>
0

>  <SCORE.INTER.ROT>
10

>  <SCORE.INTER.SOLV>
18.2793

>  <SCORE.INTER.VDW>
-22.6456

>  <SCORE.INTER.norm>
-0.235718

>  <SCORE.INTRA>
-6.88363

>  <SCORE.INTRA.DIHEDRAL>
-15.8988

>  <SCORE.INTRA.DIHEDRAL.0>
28.2802

>  <SCORE.INTRA.POLAR>
0

>  <SCORE.INTRA.POLAR.0>
0

>  <SCORE.INTRA.REPUL>
0

>  <SCORE.INTRA.REPUL.0>
0

>  <SCORE.INTRA.SOLV>
-0.55057

>  <SCORE.INTRA.SOLV.lig_0>
-101.981

>  <SCORE.INTRA.VDW>
1.34105

>  <SCORE.INTRA.VDW.0>
-5.72964

>  <SCORE.INTRA.norm>
-0.172091

>  <SCORE.RESTR>
0.00849173

>  <SCORE.RESTR.CAVITY>
0.00849173

>  <SCORE.RESTR.norm>
0.000212293

>  <SCORE.SYSTEM>
0

>  <SCORE.SYSTEM.CONST>
0

>  <SCORE.SYSTEM.DIHEDRAL>
0

>  <SCORE.SYSTEM.SOLV>
0

>  <SCORE.SYSTEM.norm>
0

>  <SCORE.heavy>
40

>  <SCORE.norm>
-0.407597

>  <RMSD>
0.968

$$$$
ligand
 OpenBabel11021811513D
libRbt.so/2013.1/901 2013/11/27
 40 42  0  0  0  0  0  0  0  0999 V2000
    3.6197   -7.0353   18.9187 C   0  0  2  0  0  0  0  0  0  0  0  0
    2.5536   -7.9532   19.2085 O   0  0  0  0  0  0  0  0  0  0  0  0
    4.9562   -7.5041   19.6066 C   0  0  1  0  0  0  0  0  0  0  0  0
    4.8508   -7.4488   21.1586 C   0  0  2  0  0  0  0  0  0  0  0  0
    4.5465   -5.9712   21.5615 C   0  0  2  0  0  0  0  0  0  0  0  0
    4.4674   -5.8770   23.0000 O   0  0  0  0  0  0  0  0  0  0  0  0
    3.1703   -5.5388   20.8902 C   0  0  2  0  0  0  0  0  0  0  0  0
    3.2794   -5.6556   19.3920 O   0  0  0  0  0  0  0  0  0  0  0  0
    2.7932   -4.0984   21.2083 C   0  0  0  0  0  0  0  0  0  0  0  0
    3.9045   -3.1528   20.8745 N   0  0  0  0  0  0  0  0  0  0  0  0
   -0.9263   -9.7492   17.2098 C   0  0  2  0  0  0  0  0  0  0  0  0
   -2.0481   -9.9007   16.3126 N   0  0  0  0  0  0  0  0  0  0  0  0
   -1.1615   -8.4944   18.1441 C   0  0  0  0  0  0  0  0  0  0  0  0
    0.0717   -8.3115   19.1375 C   0  0  2  0  0  0  0  0  0  0  0  0
   -0.1585   -7.1420   20.0256 N   0  0  0  0  0  0  0  0  0  0  0  0
    1.4119   -8.1341   18.2835 C   0  0  2  0  0  0  0  0  0  0  0  0
    1.6024   -9.4143   17.3634 C   0  0  2  0  0  0  0  0  0  0  0  0
    2.8008   -9.2669   16.5983 O   0  0  0  0  0  0  0  0  0  0  0  0
    0.3719   -9.5854   16.3878 C   0  0  1  0  0  0  0  0  0  0  0  0
    0.5512  -10.7688   15.5703 O   0  0  0  0  0  0  0  0  0  0  0  0
   -0.0965  -11.0195   14.3693 C   0  0  2  0  0  0  0  0  0  0  0  0
   -0.4678  -12.5448   14.3428 C   0  0  2  0  0  0  0  0  0  0  0  0
   -1.2602  -12.8541   15.4435 O   0  0  0  0  0  0  0  0  0  0  0  0
    0.8247  -13.4657   14.2894 C   0  0  1  0  0  0  0  0  0  0  0  0
    0.4482  -14.9127   14.2522 N   0  0  0  0  0  0  0  0  0  0  0  0
    1.6819  -13.0663   13.0100 C   0  0  2  0  0  0  0  0  0  0  0  0
    2.8566  -13.8809   12.9099 O   0  0  0  0  0  0  0  0  0  0  0  0
    2.0464  -11.5355   13.1220 C   0  0  2  0  0  0  0  0  0  0  0  0
    0.7872  -10.6854   13.2230 O   0  0  0  0  0  0  0  0  0  0  0  0
    2.8471  -11.0766   11.9267 C   0  0  0  0  0  0  0  0  0  0  0  0
    3.2050   -9.6839   11.9987 O   0  0  0  0  0  0  0  0  0  0  0  0
    5.2511   -8.8589   19.1577 O   0  0  0  0  0  0  0  0  0  0  0  0
    6.0444   -7.8546   21.7047 O   0  0  0  0  0  0  0  0  0  0  0  0
   -3.2111  -10.6303   16.7620 C   0  0  0  0  0  0  0  0  0  0  0  0
   -3.1010  -11.4737   17.7009 O   0  0  0  0  0  0  0  0  0  0  0  0
   -4.5710  -10.3443   16.0540 C   0  0  2  0  0  0  0  0  0  0  0  0
   -7.4309  -11.0271   15.1208 N   0  0  0  0  0  0  0  0  0  0  0  0
   -5.7709  -10.7575   16.9612 C   0  0  0  0  0  0  0  0  0  0  0  0
   -7.1357  -10.3302   16.3957 C   0  0  0  0  0  0  0  0  0  0  0  0
   -4.7140  -11.0108   14.9800 O   0  0  0  0  0  0  0  0  0  0  0  0
  1  2  1  1  0  0  0
  1  3  1  0  0  0  0
  1  8  1  0  0  0  0
  3  4  1  0  0  0  0
  3 32  1  1  0  0  0
  4  5  1  0  0  0  0
  4 33  1  1  0  0  0
  5  6  1  1  0  0  0
  5  7  1  0  0  0  0
  7  8  1  0  0  0  0
  7  9  1  6  0  0  0
  9 10  1  0  0  0  0
 11 12  1  6  0  0  0
 11 13  1  0  0  0  0
 11 19  1  0  0  0  0
 12 34  1  0  0  0  0
 13 14  1  0  0  0  0
 14 15  1  6  0  0  0
 14 16  1  0  0  0  0
 16  2  1  1  0  0  0
 16 17  1  0  0  0  0
 17 18  1  6  0  0  0
 17 19  1  0  0  0  0
 19 20  1  1  0  0  0
 21 20  1  1  0  0  0
 21 22  1  0  0  0  0
 21 29  1  0  0  0  0
 22 23  1  1  0  0  0
 22 24  1  0  0  0  0
 24 25  1  6  0  0  0
 24 26  1  0  0  0  0
 26 27  1  1  0  0  0
 26 28  1  0  0  0  0
 28 29  1  0  0  0  0
 28 30  1  6  0  0  0
 30 31  1  0  0  0  0
 34 35  2  0  0  0  0
 36 34  1  1  0  0  0
 36 38  1  0  0  0  0
 36 40  1  0  0  0  0
 37 39  1  0  0  0  0
 38 39  1  0  0  0  0
M  END
>  <CHROM.1>
-152.45977799,-141.47061893,52.99657089,-85.47266795,80.00789761,-140.40597590
-179.65458527,-158.24704015,172.41546779,64.72448674,0.76233699,-9.45749229
17.10675054,-0.91224334,-0.07395302,-2.25654002

>  <Name>
ligand

>  <RI>
0

>  <Rbt.Current_Directory>
/home/itssahil/PROJECTS/Mol_Feturizer/New_Systems/rnas/4P20

>  <Rbt.Executable>
rbdock ($Id: //depot/dev/client3/rdock/2013.1/src/exe/rbdock.cxx#4 $)

>  <Rbt.Library>
libRbt.so (2013.1, Build901 2013/11/27)

>  <Rbt.Parameter_File>
/export/apps/rDock/src/rDock_2013.1_src/data/scripts/dock_solv.prm

>  <Rbt.Receptor>
prm/pocket_docking_2.prm

>  <SCORE>
-11.3917

>  <SCORE.INTER>
-8.41147

>  <SCORE.INTER.CONST>
1

>  <SCORE.INTER.POLAR>
0

>  <SCORE.INTER.ROT>
10

>  <SCORE.INTER.SOLV>
23.1205

>  <SCORE.INTER.VDW>
-23.5812

>  <SCORE.INTER.norm>
-0.210287

>  <SCORE.INTRA>
-2.98021

>  <SCORE.INTRA.DIHEDRAL>
-10.6295

>  <SCORE.INTRA.DIHEDRAL.0>
28.2802

>  <SCORE.INTRA.POLAR>
0

>  <SCORE.INTRA.POLAR.0>
0

>  <SCORE.INTRA.REPUL>
0

>  <SCORE.INTRA.REPUL.0>
0

>  <SCORE.INTRA.SOLV>
2.62904

>  <SCORE.INTRA.SOLV.lig_0>
-101.981

>  <SCORE.INTRA.VDW>
1.02001

>  <SCORE.INTRA.VDW.0>
-5.72964

>  <SCORE.INTRA.norm>
-0.0745053

>  <SCORE.RESTR>
0

>  <SCORE.RESTR.CAVITY>
0

>  <SCORE.RESTR.norm>
0

>  <SCORE.SYSTEM>
0

>  <SCORE.SYSTEM.CONST>
0

>  <SCORE.SYSTEM.DIHEDRAL>
0

>  <SCORE.SYSTEM.SOLV>
0

>  <SCORE.SYSTEM.norm>
0

>  <SCORE.heavy>
40

>  <SCORE.norm>
-0.284792

>  <RMSD>
0.995

$$$$
ligand
 OpenBabel11021811513D
libRbt.so/2013.1/901 2013/11/27
 40 42  0  0  0  0  0  0  0  0999 V2000
    4.1009   -7.9645   18.7801 C   0  0  2  0  0  0  0  0  0  0  0  0
    2.8911   -8.6247   19.1845 O   0  0  0  0  0  0  0  0  0  0  0  0
    5.3007   -8.3911   19.7063 C   0  0  1  0  0  0  0  0  0  0  0  0
    5.0978   -7.8980   21.1687 C   0  0  2  0  0  0  0  0  0  0  0  0
    4.9928   -6.3404   21.1344 C   0  0  2  0  0  0  0  0  0  0  0  0
    4.8295   -5.8448   22.4806 O   0  0  0  0  0  0  0  0  0  0  0  0
    3.7473   -5.9390   20.2293 C   0  0  2  0  0  0  0  0  0  0  0  0
    3.9407   -6.4763   18.8350 O   0  0  0  0  0  0  0  0  0  0  0  0
    3.5707   -4.4310   20.1156 C   0  0  0  0  0  0  0  0  0  0  0  0
    3.1477   -3.8273   21.4183 N   0  0  0  0  0  0  0  0  0  0  0  0
   -0.9398   -9.8859   17.4343 C   0  0  2  0  0  0  0  0  0  0  0  0
   -2.1106   -9.8885   16.5882 N   0  0  0  0  0  0  0  0  0  0  0  0
   -0.9058   -8.5535   18.2866 C   0  0  0  0  0  0  0  0  0  0  0  0
    0.3844   -8.5340   19.2225 C   0  0  2  0  0  0  0  0  0  0  0  0
    0.4061   -7.2892   20.0345 N   0  0  0  0  0  0  0  0  0  0  0  0
    1.6944   -8.6544   18.3135 C   0  0  2  0  0  0  0  0  0  0  0  0
    1.6125  -10.0028   17.4786 C   0  0  2  0  0  0  0  0  0  0  0  0
    2.7818  -10.1215   16.6650 O   0  0  0  0  0  0  0  0  0  0  0  0
    0.3279  -10.0100   16.5594 C   0  0  1  0  0  0  0  0  0  0  0  0
    0.2569  -11.2549   15.8206 O   0  0  0  0  0  0  0  0  0  0  0  0
   -0.3499  -11.4201   14.5839 C   0  0  2  0  0  0  0  0  0  0  0  0
   -0.5832  -12.9585   14.3743 C   0  0  2  0  0  0  0  0  0  0  0  0
   -1.3593  -13.4613   15.4135 O   0  0  0  0  0  0  0  0  0  0  0  0
    0.7870  -13.7508   14.2462 C   0  0  1  0  0  0  0  0  0  0  0  0
    0.5416  -15.2109   14.0349 N   0  0  0  0  0  0  0  0  0  0  0  0
    1.6219  -13.1325   13.0413 C   0  0  2  0  0  0  0  0  0  0  0  0
    2.8659  -13.8244   12.8763 O   0  0  0  0  0  0  0  0  0  0  0  0
    1.8468  -11.5991   13.3363 C   0  0  2  0  0  0  0  0  0  0  0  0
    0.5155  -10.8794   13.5044 O   0  0  0  0  0  0  0  0  0  0  0  0
    2.6190  -10.9365   12.2204 C   0  0  0  0  0  0  0  0  0  0  0  0
    2.8255   -9.5297   12.4462 O   0  0  0  0  0  0  0  0  0  0  0  0
    5.4181   -9.8431   19.6633 O   0  0  0  0  0  0  0  0  0  0  0  0
    6.1759   -8.2855   21.9271 O   0  0  0  0  0  0  0  0  0  0  0  0
   -3.4030  -10.1430   17.1813 C   0  0  0  0  0  0  0  0  0  0  0  0
   -3.4791  -10.7703   18.2793 O   0  0  0  0  0  0  0  0  0  0  0  0
   -4.6669   -9.6289   16.4258 C   0  0  2  0  0  0  0  0  0  0  0  0
   -7.5853  -10.4544   15.8242 N   0  0  0  0  0  0  0  0  0  0  0  0
   -5.1444  -10.6677   15.3645 C   0  0  0  0  0  0  0  0  0  0  0  0
   -6.5330  -10.3501   14.7850 C   0  0  0  0  0  0  0  0  0  0  0  0
   -4.4472   -8.5579   15.7755 O   0  0  0  0  0  0  0  0  0  0  0  0
  1  2  1  1  0  0  0
  1  3  1  0  0  0  0
  1  8  1  0  0  0  0
  3  4  1  0  0  0  0
  3 32  1  1  0  0  0
  4  5  1  0  0  0  0
  4 33  1  1  0  0  0
  5  6  1  1  0  0  0
  5  7  1  0  0  0  0
  7  8  1  0  0  0  0
  7  9  1  6  0  0  0
  9 10  1  0  0  0  0
 11 12  1  6  0  0  0
 11 13  1  0  0  0  0
 11 19  1  0  0  0  0
 12 34  1  0  0  0  0
 13 14  1  0  0  0  0
 14 15  1  6  0  0  0
 14 16  1  0  0  0  0
 16  2  1  1  0  0  0
 16 17  1  0  0  0  0
 17 18  1  6  0  0  0
 17 19  1  0  0  0  0
 19 20  1  1  0  0  0
 21 20  1  1  0  0  0
 21 22  1  0  0  0  0
 21 29  1  0  0  0  0
 22 23  1  1  0  0  0
 22 24  1  0  0  0  0
 24 25  1  6  0  0  0
 24 26  1  0  0  0  0
 26 27  1  1  0  0  0
 26 28  1  0  0  0  0
 28 29  1  0  0  0  0
 28 30  1  6  0  0  0
 30 31  1  0  0  0  0
 34 35  2  0  0  0  0
 36 34  1  6  0  0  0
 36 38  1  0  0  0  0
 36 40  1  0  0  0  0
 37 39  1  0  0  0  0
 38 39  1  0  0  0  0
M  END
>  <CHROM.1>
-165.64262679,-143.19263887,-68.64900964,-74.81871422,87.92556416,-162.73320948
179.10159414,86.12260006,168.62388038,-65.43158498,0.85769395,-9.63591314
17.11604241,-0.84270564,0.04921615,-2.29751812

>  <Name>
ligand

>  <RI>
0

>  <Rbt.Current_Directory>
/home/itssahil/PROJECTS/Mol_Feturizer/New_Systems/rnas/4P20

>  <Rbt.Executable>
rbdock ($Id: //depot/dev/client3/rdock/2013.1/src/exe/rbdock.cxx#4 $)

>  <Rbt.Library>
libRbt.so (2013.1, Build901 2013/11/27)

>  <Rbt.Parameter_File>
/export/apps/rDock/src/rDock_2013.1_src/data/scripts/dock_solv.prm

>  <Rbt.Receptor>
prm/pocket_docking_2.prm

>  <SCORE>
-17.6181

>  <SCORE.INTER>
-11.122

>  <SCORE.INTER.CONST>
1

>  <SCORE.INTER.POLAR>
0

>  <SCORE.INTER.ROT>
10

>  <SCORE.INTER.SOLV>
20.6144

>  <SCORE.INTER.VDW>
-24.5528

>  <SCORE.INTER.norm>
-0.278051

>  <SCORE.INTRA>
-6.52483

>  <SCORE.INTRA.DIHEDRAL>
-15.388

>  <SCORE.INTRA.DIHEDRAL.0>
28.2802

>  <SCORE.INTRA.POLAR>
0

>  <SCORE.INTRA.POLAR.0>
0

>  <SCORE.INTRA.REPUL>
0

>  <SCORE.INTRA.REPUL.0>
0

>  <SCORE.INTRA.SOLV>
0.908533

>  <SCORE.INTRA.SOLV.lig_0>
-101.981

>  <SCORE.INTRA.VDW>
0.714902

>  <SCORE.INTRA.VDW.0>
-5.72964

>  <SCORE.INTRA.norm>
-0.163121

>  <SCORE.RESTR>
0.0287156

>  <SCORE.RESTR.CAVITY>
0.0287156

>  <SCORE.RESTR.norm>
0.00071789

>  <SCORE.SYSTEM>
0

>  <SCORE.SYSTEM.CONST>
0

>  <SCORE.SYSTEM.DIHEDRAL>
0

>  <SCORE.SYSTEM.SOLV>
0

>  <SCORE.SYSTEM.norm>
0

>  <SCORE.heavy>
40

>  <SCORE.norm>
-0.440454

>  <RMSD>
1.002

$$$$
ligand
 OpenBabel11021811513D
libRbt.so/2013.1/901 2013/11/27
 40 42  0  0  0  0  0  0  0  0999 V2000
    4.0280   -7.7716   18.8659 C   0  0  2  0  0  0  0  0  0  0  0  0
    2.8051   -8.4173   19.2540 O   0  0  0  0  0  0  0  0  0  0  0  0
    5.2049   -8.1936   19.8230 C   0  0  1  0  0  0  0  0  0  0  0  0
    4.9752   -7.6785   21.2738 C   0  0  2  0  0  0  0  0  0  0  0  0
    4.8825   -6.1208   21.2155 C   0  0  2  0  0  0  0  0  0  0  0  0
    4.6949   -5.6051   22.5509 O   0  0  0  0  0  0  0  0  0  0  0  0
    3.6592   -5.7233   20.2790 C   0  0  2  0  0  0  0  0  0  0  0  0
    3.8778   -6.2816   18.8967 O   0  0  0  0  0  0  0  0  0  0  0  0
    3.4963   -4.2158   20.1405 C   0  0  0  0  0  0  0  0  0  0  0  0
    3.0497   -3.5909   21.4253 N   0  0  0  0  0  0  0  0  0  0  0  0
   -0.9796   -9.6794   17.4067 C   0  0  2  0  0  0  0  0  0  0  0  0
   -2.1384   -9.6719   16.5444 N   0  0  0  0  0  0  0  0  0  0  0  0
   -0.9797   -8.3769   18.3046 C   0  0  0  0  0  0  0  0  0  0  0  0
    0.2969   -8.3688   19.2591 C   0  0  2  0  0  0  0  0  0  0  0  0
    0.2867   -7.1525   20.1135 N   0  0  0  0  0  0  0  0  0  0  0  0
    1.6212   -8.4364   18.3654 C   0  0  2  0  0  0  0  0  0  0  0  0
    1.5734   -9.7563   17.4838 C   0  0  2  0  0  0  0  0  0  0  0  0
    2.7557   -9.8278   16.6835 O   0  0  0  0  0  0  0  0  0  0  0  0
    0.3020   -9.7527   16.5464 C   0  0  1  0  0  0  0  0  0  0  0  0
    0.2620  -10.9724   15.7644 O   0  0  0  0  0  0  0  0  0  0  0  0
   -0.3048  -11.0990   14.5044 C   0  0  2  0  0  0  0  0  0  0  0  0
   -0.5169  -12.6310   14.2341 C   0  0  2  0  0  0  0  0  0  0  0  0
   -1.3199  -13.1766   15.2304 O   0  0  0  0  0  0  0  0  0  0  0  0
    0.8640  -13.4067   14.1211 C   0  0  1  0  0  0  0  0  0  0  0  0
    0.6392  -14.8605   13.8513 N   0  0  0  0  0  0  0  0  0  0  0  0
    1.7298  -12.7393   12.9651 C   0  0  2  0  0  0  0  0  0  0  0  0
    2.9847  -13.4145   12.8148 O   0  0  0  0  0  0  0  0  0  0  0  0
    1.9309  -11.2154   13.3204 C   0  0  2  0  0  0  0  0  0  0  0  0
    0.5883  -10.5133   13.4719 O   0  0  0  0  0  0  0  0  0  0  0  0
    2.7308  -10.5075   12.2529 C   0  0  0  0  0  0  0  0  0  0  0  0
    4.0734  -11.0142   12.1365 O   0  0  0  0  0  0  0  0  0  0  0  0
    5.3124   -9.6469   19.8028 O   0  0  0  0  0  0  0  0  0  0  0  0
    6.0344   -8.0629   22.0600 O   0  0  0  0  0  0  0  0  0  0  0  0
   -3.4177  -10.0674   17.0863 C   0  0  0  0  0  0  0  0  0  0  0  0
   -3.4645  -10.8058   18.1147 O   0  0  0  0  0  0  0  0  0  0  0  0
   -4.7043   -9.5619   16.3641 C   0  0  2  0  0  0  0  0  0  0  0  0
   -6.8880   -9.0516   14.3378 N   0  0  0  0  0  0  0  0  0  0  0  0
   -5.2070  -10.6078   15.3215 C   0  0  0  0  0  0  0  0  0  0  0  0
   -6.6752  -10.4014   14.9130 C   0  0  0  0  0  0  0  0  0  0  0  0
   -4.5072   -8.4933   15.7028 O   0  0  0  0  0  0  0  0  0  0  0  0
  1  2  1  1  0  0  0
  1  3  1  0  0  0  0
  1  8  1  0  0  0  0
  3  4  1  0  0  0  0
  3 32  1  1  0  0  0
  4  5  1  0  0  0  0
  4 33  1  1  0  0  0
  5  6  1  1  0  0  0
  5  7  1  0  0  0  0
  7  8  1  0  0  0  0
  7  9  1  6  0  0  0
  9 10  1  0  0  0  0
 11 12  1  6  0  0  0
 11 13  1  0  0  0  0
 11 19  1  0  0  0  0
 12 34  1  0  0  0  0
 13 14  1  0  0  0  0
 14 15  1  6  0  0  0
 14 16  1  0  0  0  0
 16  2  1  1  0  0  0
 16 17  1  0  0  0  0
 17 18  1  6  0  0  0
 17 19  1  0  0  0  0
 19 20  1  1  0  0  0
 21 20  1  1  0  0  0
 21 22  1  0  0  0  0
 21 29  1  0  0  0  0
 22 23  1  1  0  0  0
 22 24  1  0  0  0  0
 24 25  1  6  0  0  0
 24 26  1  0  0  0  0
 26 27  1  1  0  0  0
 26 28  1  0  0  0  0
 28 29  1  0  0  0  0
 28 30  1  6  0  0  0
 30 31  1  0  0  0  0
 34 35  2  0  0  0  0
 36 34  1  6  0  0  0
 36 38  1  0  0  0  0
 36 40  1  0  0  0  0
 37 39  1  0  0  0  0
 38 39  1  0  0  0  0
M  END
>  <CHROM.1>
-166.40741054,-145.83914875,-68.69187957,-79.52698374,89.08653279,-162.93080165
-63.88075729,93.51402461,161.32670839,58.45033881,0.88035457,-9.43012969
17.06680907,-0.87529570,0.06971585,-2.27990330

>  <Name>
ligand

>  <RI>
0

>  <Rbt.Current_Directory>
/home/itssahil/PROJECTS/Mol_Feturizer/New_Systems/rnas/4P20

>  <Rbt.Executable>
rbdock ($Id: //depot/dev/client3/rdock/2013.1/src/exe/rbdock.cxx#4 $)

>  <Rbt.Library>
libRbt.so (2013.1, Build901 2013/11/27)

>  <Rbt.Parameter_File>
/export/apps/rDock/src/rDock_2013.1_src/data/scripts/dock_solv.prm

>  <Rbt.Receptor>
prm/pocket_docking_7.prm

>  <SCORE>
-16.2811

>  <SCORE.INTER>
-10.5786

>  <SCORE.INTER.CONST>
1

>  <SCORE.INTER.POLAR>
0

>  <SCORE.INTER.ROT>
10

>  <SCORE.INTER.SOLV>
22.9768

>  <SCORE.INTER.VDW>
-24.978

>  <SCORE.INTER.norm>
-0.264466

>  <SCORE.INTRA>
-5.70246

>  <SCORE.INTRA.DIHEDRAL>
-14.7004

>  <SCORE.INTRA.DIHEDRAL.0>
28.2802

>  <SCORE.INTRA.POLAR>
0

>  <SCORE.INTRA.POLAR.0>
0

>  <SCORE.INTRA.REPUL>
0

>  <SCORE.INTRA.REPUL.0>
0

>  <SCORE.INTRA.SOLV>
1.75824

>  <SCORE.INTRA.SOLV.lig_0>
-101.981

>  <SCORE.INTRA.VDW>
0.768628

>  <SCORE.INTRA.VDW.0>
-5.72964

>  <SCORE.INTRA.norm>
-0.142561

>  <SCORE.RESTR>
0

>  <SCORE.RESTR.CAVITY>
0

>  <SCORE.RESTR.norm>
0

>  <SCORE.SYSTEM>
0

>  <SCORE.SYSTEM.CONST>
0

>  <SCORE.SYSTEM.DIHEDRAL>
0

>  <SCORE.SYSTEM.SOLV>
0

>  <SCORE.SYSTEM.norm>
0

>  <SCORE.heavy>
40

>  <SCORE.norm>
-0.407027

>  <RMSD>
1.037

$$$$
ligand
 OpenBabel11021811513D
libRbt.so/2013.1/901 2013/11/27
 40 42  0  0  0  0  0  0  0  0999 V2000
    4.0115   -7.6502   19.0423 C   0  0  2  0  0  0  0  0  0  0  0  0
    2.7401   -8.2202   19.3911 O   0  0  0  0  0  0  0  0  0  0  0  0
    5.1393   -8.1820   20.0038 C   0  0  1  0  0  0  0  0  0  0  0  0
    4.9204   -7.6960   21.4663 C   0  0  2  0  0  0  0  0  0  0  0  0
    4.9371   -6.1347   21.4553 C   0  0  2  0  0  0  0  0  0  0  0  0
    4.7623   -5.6476   22.8031 O   0  0  0  0  0  0  0  0  0  0  0  0
    3.7610   -5.6246   20.5129 C   0  0  2  0  0  0  0  0  0  0  0  0
    3.9645   -6.1549   19.1174 O   0  0  0  0  0  0  0  0  0  0  0  0
    3.7055   -4.1059   20.4191 C   0  0  0  0  0  0  0  0  0  0  0  0
    3.3651   -3.4858   21.7383 N   0  0  0  0  0  0  0  0  0  0  0  0
   -0.9078   -9.5578   17.3337 C   0  0  2  0  0  0  0  0  0  0  0  0
   -2.0024   -9.5861   16.3916 N   0  0  0  0  0  0  0  0  0  0  0  0
   -0.9676   -8.2189   18.1743 C   0  0  0  0  0  0  0  0  0  0  0  0
    0.2381   -8.1711   19.2159 C   0  0  2  0  0  0  0  0  0  0  0  0
    0.1710   -6.9202   20.0161 N   0  0  0  0  0  0  0  0  0  0  0  0
    1.6222   -8.2762   18.4222 C   0  0  2  0  0  0  0  0  0  0  0  0
    1.6331   -9.6318   17.5951 C   0  0  2  0  0  0  0  0  0  0  0  0
    2.8689   -9.7369   16.8845 O   0  0  0  0  0  0  0  0  0  0  0  0
    0.4314   -9.6671   16.5704 C   0  0  1  0  0  0  0  0  0  0  0  0
    0.4432  -10.9184   15.8390 O   0  0  0  0  0  0  0  0  0  0  0  0
   -0.1729  -11.1380   14.6155 C   0  0  2  0  0  0  0  0  0  0  0  0
   -0.3280  -12.6902   14.4371 C   0  0  2  0  0  0  0  0  0  0  0  0
   -1.0606  -13.2136   15.4975 O   0  0  0  0  0  0  0  0  0  0  0  0
    1.0798  -13.4118   14.3007 C   0  0  1  0  0  0  0  0  0  0  0  0
    0.9085  -14.8864   14.1192 N   0  0  0  0  0  0  0  0  0  0  0  0
    1.8624  -12.7730   13.0716 C   0  0  2  0  0  0  0  0  0  0  0  0
    3.1384  -13.4017   12.8985 O   0  0  0  0  0  0  0  0  0  0  0  0
    2.0107  -11.2247   13.3357 C   0  0  2  0  0  0  0  0  0  0  0  0
    0.6461  -10.5728   13.5126 O   0  0  0  0  0  0  0  0  0  0  0  0
    2.7297  -10.5434   12.1958 C   0  0  0  0  0  0  0  0  0  0  0  0
    4.0803  -11.0138   12.0300 O   0  0  0  0  0  0  0  0  0  0  0  0
    5.1460   -9.6380   19.9398 O   0  0  0  0  0  0  0  0  0  0  0  0
    5.9364   -8.1771   22.2563 O   0  0  0  0  0  0  0  0  0  0  0  0
   -3.0047  -10.6194   16.5128 C   0  0  0  0  0  0  0  0  0  0  0  0
   -2.7242  -11.7014   17.1092 O   0  0  0  0  0  0  0  0  0  0  0  0
   -4.4084  -10.3518   15.8881 C   0  0  2  0  0  0  0  0  0  0  0  0
   -7.4022  -10.9166   15.4830 N   0  0  0  0  0  0  0  0  0  0  0  0
   -5.5116  -10.3097   16.9902 C   0  0  0  0  0  0  0  0  0  0  0  0
   -6.8957   -9.9133   16.4499 C   0  0  0  0  0  0  0  0  0  0  0  0
   -4.7694  -11.2684   15.0834 O   0  0  0  0  0  0  0  0  0  0  0  0
  1  2  1  1  0  0  0
  1  3  1  0  0  0  0
  1  8  1  0  0  0  0
  3  4  1  0  0  0  0
  3 32  1  1  0  0  0
  4  5  1  0  0  0  0
  4 33  1  1  0  0  0
  5  6  1  1  0  0  0
  5  7  1  0  0  0  0
  7  8  1  0  0  0  0
  7  9  1  6  0  0  0
  9 10  1  0  0  0  0
 11 12  1  6  0  0  0
 11 13  1  0  0  0  0
 11 19  1  0  0  0  0
 12 34  1  0  0  0  0
 13 14  1  0  0  0  0
 14 15  1  6  0  0  0
 14 16  1  0  0  0  0
 16  2  1  1  0  0  0
 16 17  1  0  0  0  0
 17 18  1  6  0  0  0
 17 19  1  0  0  0  0
 19 20  1  1  0  0  0
 21 20  1  1  0  0  0
 21 22  1  0  0  0  0
 21 29  1  0  0  0  0
 22 23  1  1  0  0  0
 22 24  1  0  0  0  0
 24 25  1  6  0  0  0
 24 26  1  0  0  0  0
 26 27  1  1  0  0  0
 26 28  1  0  0  0  0
 28 29  1  0  0  0  0
 28 30  1  6  0  0  0
 30 31  1  0  0  0  0
 34 35  2  0  0  0  0
 36 34  1  1  0  0  0
 36 38  1  0  0  0  0
 36 40  1  0  0  0  0
 37 39  1  0  0  0  0
 38 39  1  0  0  0  0
M  END
>  <CHROM.1>
-158.84091447,-148.95368827,-65.09592107,-116.85820508,80.96246558,-161.08839142
-62.95081365,-116.10169114,174.38074641,63.60582103,0.94307760,-9.55051885
17.19735943,-0.89152607,-0.01990968,-2.26160058

>  <Name>
ligand

>  <RI>
0

>  <Rbt.Current_Directory>
/home/itssahil/PROJECTS/Mol_Feturizer/New_Systems/rnas/4P20

>  <Rbt.Executable>
rbdock ($Id: //depot/dev/client3/rdock/2013.1/src/exe/rbdock.cxx#4 $)

>  <Rbt.Library>
libRbt.so (2013.1, Build901 2013/11/27)

>  <Rbt.Parameter_File>
/export/apps/rDock/src/rDock_2013.1_src/data/scripts/dock_solv.prm

>  <Rbt.Receptor>
prm/pocket_docking_2.prm

>  <SCORE>
-14.7393

>  <SCORE.INTER>
-9.26214

>  <SCORE.INTER.CONST>
1

>  <SCORE.INTER.POLAR>
0

>  <SCORE.INTER.ROT>
10

>  <SCORE.INTER.SOLV>
18.6299

>  <SCORE.INTER.VDW>
-22.6514

>  <SCORE.INTER.norm>
-0.231554

>  <SCORE.INTRA>
-5.47859

>  <SCORE.INTRA.DIHEDRAL>
-14.9814

>  <SCORE.INTRA.DIHEDRAL.0>
28.2802

>  <SCORE.INTRA.POLAR>
0

>  <SCORE.INTRA.POLAR.0>
0

>  <SCORE.INTRA.REPUL>
0

>  <SCORE.INTRA.REPUL.0>
0

>  <SCORE.INTRA.SOLV>
2.46157

>  <SCORE.INTRA.SOLV.lig_0>
-101.981

>  <SCORE.INTRA.VDW>
0.781314

>  <SCORE.INTRA.VDW.0>
-5.72964

>  <SCORE.INTRA.norm>
-0.136965

>  <SCORE.RESTR>
0.00145958

>  <SCORE.RESTR.CAVITY>
0.00145958

>  <SCORE.RESTR.norm>
3.64895e-05

>  <SCORE.SYSTEM>
0

>  <SCORE.SYSTEM.CONST>
0

>  <SCORE.SYSTEM.DIHEDRAL>
0

>  <SCORE.SYSTEM.SOLV>
0

>  <SCORE.SYSTEM.norm>
0

>  <SCORE.heavy>
40

>  <SCORE.norm>
-0.368482

>  <RMSD>
1.039

$$$$
ligand
 OpenBabel11021811513D
libRbt.so/2013.1/901 2013/11/27
 40 42  0  0  0  0  0  0  0  0999 V2000
    3.2359   -6.7821   18.7330 C   0  0  2  0  0  0  0  0  0  0  0  0
    2.1374   -7.6110   19.1443 O   0  0  0  0  0  0  0  0  0  0  0  0
    4.6036   -7.3965   19.2138 C   0  0  1  0  0  0  0  0  0  0  0  0
    4.7176   -7.3941   20.7662 C   0  0  2  0  0  0  0  0  0  0  0  0
    4.6128   -5.9123   21.2477 C   0  0  2  0  0  0  0  0  0  0  0  0
    4.7408   -5.8690   22.6851 O   0  0  0  0  0  0  0  0  0  0  0  0
    3.2048   -5.3312   20.7878 C   0  0  2  0  0  0  0  0  0  0  0  0
    3.0960   -5.3973   19.2865 O   0  0  0  0  0  0  0  0  0  0  0  0
    3.0131   -3.8765   21.1945 C   0  0  0  0  0  0  0  0  0  0  0  0
    3.9789   -2.9767   20.4888 N   0  0  0  0  0  0  0  0  0  0  0  0
   -1.4325   -9.4147   17.3190 C   0  0  2  0  0  0  0  0  0  0  0  0
   -2.6145   -9.5567   16.5010 N   0  0  0  0  0  0  0  0  0  0  0  0
   -1.6311   -8.2162   18.3323 C   0  0  0  0  0  0  0  0  0  0  0  0
   -0.3318   -8.0440   19.2394 C   0  0  2  0  0  0  0  0  0  0  0  0
   -0.5264   -6.9282   20.2020 N   0  0  0  0  0  0  0  0  0  0  0  0
    0.9344   -7.7817   18.2987 C   0  0  2  0  0  0  0  0  0  0  0  0
    1.0902   -9.0077   17.3014 C   0  0  2  0  0  0  0  0  0  0  0  0
    2.2225   -8.7843   16.4581 O   0  0  0  0  0  0  0  0  0  0  0  0
   -0.2055   -9.1689   16.4123 C   0  0  1  0  0  0  0  0  0  0  0  0
   -0.0558  -10.3037   15.5232 O   0  0  0  0  0  0  0  0  0  0  0  0
   -0.1354  -10.2540   14.1390 C   0  0  2  0  0  0  0  0  0  0  0  0
   -0.1262  -11.7331   13.6124 C   0  0  2  0  0  0  0  0  0  0  0  0
   -1.1844  -12.4385   14.1761 O   0  0  0  0  0  0  0  0  0  0  0  0
    1.2601  -12.4525   13.8984 C   0  0  1  0  0  0  0  0  0  0  0  0
    1.2514  -13.8546   13.3780 N   0  0  0  0  0  0  0  0  0  0  0  0
    2.4237  -11.6015   13.2253 C   0  0  2  0  0  0  0  0  0  0  0  0
    3.6981  -12.2188   13.4452 O   0  0  0  0  0  0  0  0  0  0  0  0
    2.3753  -10.1433   13.8256 C   0  0  2  0  0  0  0  0  0  0  0  0
    1.0166   -9.5016   13.5791 O   0  0  0  0  0  0  0  0  0  0  0  0
    3.4435   -9.2670   13.2162 C   0  0  0  0  0  0  0  0  0  0  0  0
    3.3173   -9.1492   11.7868 O   0  0  0  0  0  0  0  0  0  0  0  0
    4.7044   -8.7534   18.6915 O   0  0  0  0  0  0  0  0  0  0  0  0
    5.9309   -7.9273   21.1284 O   0  0  0  0  0  0  0  0  0  0  0  0
   -3.8914   -9.7623   17.1445 C   0  0  0  0  0  0  0  0  0  0  0  0
   -3.9356  -10.2416   18.3164 O   0  0  0  0  0  0  0  0  0  0  0  0
   -5.1788   -9.3826   16.3503 C   0  0  2  0  0  0  0  0  0  0  0  0
   -8.0404  -10.3147   15.6591 N   0  0  0  0  0  0  0  0  0  0  0  0
   -5.5744  -10.5153   15.3532 C   0  0  0  0  0  0  0  0  0  0  0  0
   -6.9335  -10.2792   14.6734 C   0  0  0  0  0  0  0  0  0  0  0  0
   -5.0245   -8.3418   15.6355 O   0  0  0  0  0  0  0  0  0  0  0  0
  1  2  1  1  0  0  0
  1  3  1  0  0  0  0
  1  8  1  0  0  0  0
  3  4  1  0  0  0  0
  3 32  1  1  0  0  0
  4  5  1  0  0  0  0
  4 33  1  6  0  0  0
  5  6  1  1  0  0  0
  5  7  1  0  0  0  0
  7  8  1  0  0  0  0
  7  9  1  6  0  0  0
  9 10  1  0  0  0  0
 11 12  1  6  0  0  0
 11 13  1  0  0  0  0
 11 19  1  0  0  0  0
 12 34  1  0  0  0  0
 13 14  1  0  0  0  0
 14 15  1  1  0  0  0
 14 16  1  0  0  0  0
 16  2  1  1  0  0  0
 16 17  1  0  0  0  0
 17 18  1  6  0  0  0
 17 19  1  0  0  0  0
 19 20  1  6  0  0  0
 21 20  1  1  0  0  0
 21 22  1  0  0  0  0
 21 29  1  0  0  0  0
 22 23  1  1  0  0  0
 22 24  1  0  0  0  0
 24 25  1  6  0  0  0
 24 26  1  0  0  0  0
 26 27  1  1  0  0  0
 26 28  1  0  0  0  0
 28 29  1  0  0  0  0
 28 30  1  6  0  0  0
 30 31  1  0  0  0  0
 34 35  2  0  0  0  0
 36 34  1  6  0  0  0
 36 38  1  0  0  0  0
 36 40  1  0  0  0  0
 37 39  1  0  0  0  0
 38 39  1  0  0  0  0
M  END
>  <CHROM.1>
-144.74665112,-150.08363619,65.53325554,-56.83888754,117.89579300,-171.74600421
59.32381096,81.29308607,172.57246359,-65.03600950,0.64521041,-8.84876084
17.00038731,0.78335230,0.05221449,0.93801521

>  <Name>
ligand

>  <RI>
0

>  <Rbt.Current_Directory>
/home/itssahil/PROJECTS/Mol_Feturizer/New_Systems/rnas/4P20

>  <Rbt.Executable>
rbdock ($Id: //depot/dev/client3/rdock/2013.1/src/exe/rbdock.cxx#4 $)

>  <Rbt.Library>
libRbt.so (2013.1, Build901 2013/11/27)

>  <Rbt.Parameter_File>
/export/apps/rDock/src/rDock_2013.1_src/data/scripts/dock_solv.prm

>  <Rbt.Receptor>
prm/pocket_docking_3.prm

>  <SCORE>
-13.1179

>  <SCORE.INTER>
-9.42006

>  <SCORE.INTER.CONST>
1

>  <SCORE.INTER.POLAR>
0

>  <SCORE.INTER.ROT>
10

>  <SCORE.INTER.SOLV>
26.267

>  <SCORE.INTER.VDW>
-25.3024

>  <SCORE.INTER.norm>
-0.235502

>  <SCORE.INTRA>
-3.69779

>  <SCORE.INTRA.DIHEDRAL>
-10.9136

>  <SCORE.INTRA.DIHEDRAL.0>
28.2802

>  <SCORE.INTRA.POLAR>
0

>  <SCORE.INTRA.POLAR.0>
0

>  <SCORE.INTRA.REPUL>
0

>  <SCORE.INTRA.REPUL.0>
0

>  <SCORE.INTRA.SOLV>
1.26867

>  <SCORE.INTRA.SOLV.lig_0>
-101.981

>  <SCORE.INTRA.VDW>
1.12468

>  <SCORE.INTRA.VDW.0>
-5.72964

>  <SCORE.INTRA.norm>
-0.0924447

>  <SCORE.RESTR>
0

>  <SCORE.RESTR.CAVITY>
0

>  <SCORE.RESTR.norm>
0

>  <SCORE.SYSTEM>
0

>  <SCORE.SYSTEM.CONST>
0

>  <SCORE.SYSTEM.DIHEDRAL>
0

>  <SCORE.SYSTEM.SOLV>
0

>  <SCORE.SYSTEM.norm>
0

>  <SCORE.heavy>
40

>  <SCORE.norm>
-0.327946

>  <RMSD>
1.046

$$$$
ligand
 OpenBabel11021811513D
libRbt.so/2013.1/901 2013/11/27
 40 42  0  0  0  0  0  0  0  0999 V2000
    3.5853   -7.1421   18.7639 C   0  0  2  0  0  0  0  0  0  0  0  0
    2.4110   -7.8589   19.1765 O   0  0  0  0  0  0  0  0  0  0  0  0
    4.8353   -7.5947   19.6077 C   0  0  1  0  0  0  0  0  0  0  0  0
    4.6864   -7.2016   21.1065 C   0  0  2  0  0  0  0  0  0  0  0  0
    4.5427   -5.6484   21.1780 C   0  0  2  0  0  0  0  0  0  0  0  0
    4.4283   -5.2443   22.5594 O   0  0  0  0  0  0  0  0  0  0  0  0
    3.2486   -5.2235   20.3557 C   0  0  2  0  0  0  0  0  0  0  0  0
    3.3921   -5.6652   18.9224 O   0  0  0  0  0  0  0  0  0  0  0  0
    3.0311   -3.7165   20.3479 C   0  0  0  0  0  0  0  0  0  0  0  0
    2.6654   -3.2070   21.7070 N   0  0  0  0  0  0  0  0  0  0  0  0
   -0.9408   -9.8745   17.1684 C   0  0  2  0  0  0  0  0  0  0  0  0
   -2.0437  -10.1002   16.2633 N   0  0  0  0  0  0  0  0  0  0  0  0
   -1.2567   -8.6254   18.0864 C   0  0  0  0  0  0  0  0  0  0  0  0
   -0.0454   -8.3609   19.0882 C   0  0  2  0  0  0  0  0  0  0  0  0
   -0.3508   -7.1972   19.9611 N   0  0  0  0  0  0  0  0  0  0  0  0
    1.2902   -8.1155   18.2439 C   0  0  2  0  0  0  0  0  0  0  0  0
    1.5628   -9.3923   17.3399 C   0  0  2  0  0  0  0  0  0  0  0  0
    2.7577   -9.1841   16.5835 O   0  0  0  0  0  0  0  0  0  0  0  0
    0.3533   -9.6448   16.3557 C   0  0  1  0  0  0  0  0  0  0  0  0
    0.6081  -10.8245   15.5532 O   0  0  0  0  0  0  0  0  0  0  0  0
   -0.0225  -11.1318   14.3562 C   0  0  2  0  0  0  0  0  0  0  0  0
   -0.2780  -12.6809   14.3415 C   0  0  2  0  0  0  0  0  0  0  0  0
   -1.0416  -13.0411   15.4471 O   0  0  0  0  0  0  0  0  0  0  0  0
    1.0799  -13.5022   14.2898 C   0  0  1  0  0  0  0  0  0  0  0  0
    0.8132  -14.9736   14.2639 N   0  0  0  0  0  0  0  0  0  0  0  0
    1.9007  -13.0486   13.0046 C   0  0  2  0  0  0  0  0  0  0  0  0
    3.1331  -13.7732   12.9060 O   0  0  0  0  0  0  0  0  0  0  0  0
    2.1494  -11.4939   13.1049 C   0  0  2  0  0  0  0  0  0  0  0  0
    0.8301  -10.7402   13.2045 O   0  0  0  0  0  0  0  0  0  0  0  0
    2.9096  -10.9846   11.9036 C   0  0  0  0  0  0  0  0  0  0  0  0
    3.2006   -9.5770   11.9857 O   0  0  0  0  0  0  0  0  0  0  0  0
    4.9854   -9.0373   19.4654 O   0  0  0  0  0  0  0  0  0  0  0  0
    5.8065   -7.6078   21.7907 O   0  0  0  0  0  0  0  0  0  0  0  0
   -3.0967  -11.0085   16.6547 C   0  0  0  0  0  0  0  0  0  0  0  0
   -2.8669  -11.9014   17.5236 O   0  0  0  0  0  0  0  0  0  0  0  0
   -4.4903  -10.8478   15.9733 C   0  0  2  0  0  0  0  0  0  0  0  0
   -7.5270  -10.4624   16.1760 N   0  0  0  0  0  0  0  0  0  0  0  0
   -5.5110  -11.8835   16.5380 C   0  0  0  0  0  0  0  0  0  0  0  0
   -6.9036  -11.7776   15.8940 C   0  0  0  0  0  0  0  0  0  0  0  0
   -4.4504  -11.0613   14.7199 O   0  0  0  0  0  0  0  0  0  0  0  0
  1  2  1  1  0  0  0
  1  3  1  0  0  0  0
  1  8  1  0  0  0  0
  3  4  1  0  0  0  0
  3 32  1  1  0  0  0
  4  5  1  0  0  0  0
  4 33  1  1  0  0  0
  5  6  1  1  0  0  0
  5  7  1  0  0  0  0
  7  8  1  0  0  0  0
  7  9  1  6  0  0  0
  9 10  1  0  0  0  0
 11 12  1  6  0  0  0
 11 13  1  0  0  0  0
 11 19  1  0  0  0  0
 12 34  1  0  0  0  0
 13 14  1  0  0  0  0
 14 15  1  6  0  0  0
 14 16  1  0  0  0  0
 16  2  1  1  0  0  0
 16 17  1  0  0  0  0
 17 18  1  6  0  0  0
 17 19  1  0  0  0  0
 19 20  1  1  0  0  0
 21 20  1  1  0  0  0
 21 22  1  0  0  0  0
 21 29  1  0  0  0  0
 22 23  1  1  0  0  0
 22 24  1  0  0  0  0
 24 25  1  6  0  0  0
 24 26  1  0  0  0  0
 26 27  1  1  0  0  0
 26 28  1  0  0  0  0
 28 29  1  0  0  0  0
 28 30  1  6  0  0  0
 30 31  1  0  0  0  0
 34 35  2  0  0  0  0
 36 34  1  1  0  0  0
 36 38  1  0  0  0  0
 36 40  1  0  0  0  0
 37 39  1  0  0  0  0
 38 39  1  0  0  0  0
M  END
>  <CHROM.1>
-152.08920466,-156.84694468,-68.10683380,-92.18413472,79.32756802,-141.12683180
-177.72249413,-178.62162219,-179.61208953,-63.04544578,0.77507968,-9.51244540
17.04022018,-0.94636997,-0.11894911,-2.27881721

>  <Name>
ligand

>  <RI>
0

>  <Rbt.Current_Directory>
/home/itssahil/PROJECTS/Mol_Feturizer/New_Systems/rnas/4P20

>  <Rbt.Executable>
rbdock ($Id: //depot/dev/client3/rdock/2013.1/src/exe/rbdock.cxx#4 $)

>  <Rbt.Library>
libRbt.so (2013.1, Build901 2013/11/27)

>  <Rbt.Parameter_File>
/export/apps/rDock/src/rDock_2013.1_src/data/scripts/dock_solv.prm

>  <Rbt.Receptor>
prm/pocket_docking_2.prm

>  <SCORE>
-15.4498

>  <SCORE.INTER>
-10.3128

>  <SCORE.INTER.CONST>
1

>  <SCORE.INTER.POLAR>
0

>  <SCORE.INTER.ROT>
10

>  <SCORE.INTER.SOLV>
19.0285

>  <SCORE.INTER.VDW>
-23.4847

>  <SCORE.INTER.norm>
-0.257821

>  <SCORE.INTRA>
-5.15186

>  <SCORE.INTRA.DIHEDRAL>
-14.0577

>  <SCORE.INTRA.DIHEDRAL.0>
28.2802

>  <SCORE.INTRA.POLAR>
0

>  <SCORE.INTRA.POLAR.0>
0

>  <SCORE.INTRA.REPUL>
0

>  <SCORE.INTRA.REPUL.0>
0

>  <SCORE.INTRA.SOLV>
1.07008

>  <SCORE.INTRA.SOLV.lig_0>
-101.981

>  <SCORE.INTRA.VDW>
1.34197

>  <SCORE.INTRA.VDW.0>
-5.72964

>  <SCORE.INTRA.norm>
-0.128797

>  <SCORE.RESTR>
0.0149168

>  <SCORE.RESTR.CAVITY>
0.0149168

>  <SCORE.RESTR.norm>
0.00037292

>  <SCORE.SYSTEM>
0

>  <SCORE.SYSTEM.CONST>
0

>  <SCORE.SYSTEM.DIHEDRAL>
0

>  <SCORE.SYSTEM.SOLV>
0

>  <SCORE.SYSTEM.norm>
0

>  <SCORE.heavy>
40

>  <SCORE.norm>
-0.386245

>  <RMSD>
1.062

$$$$
ligand
 OpenBabel11021811513D
libRbt.so/2013.1/901 2013/11/27
 40 42  0  0  0  0  0  0  0  0999 V2000
    3.9215   -7.8501   18.9330 C   0  0  2  0  0  0  0  0  0  0  0  0
    2.6806   -8.4555   19.3289 O   0  0  0  0  0  0  0  0  0  0  0  0
    5.0964   -8.3378   19.8610 C   0  0  1  0  0  0  0  0  0  0  0  0
    4.9109   -7.8446   21.3257 C   0  0  2  0  0  0  0  0  0  0  0  0
    4.8789   -6.2836   21.3006 C   0  0  2  0  0  0  0  0  0  0  0  0
    4.7336   -5.7890   22.6492 O   0  0  0  0  0  0  0  0  0  0  0  0
    3.6571   -5.8190   20.3935 C   0  0  2  0  0  0  0  0  0  0  0  0
    3.8308   -6.3564   18.9966 O   0  0  0  0  0  0  0  0  0  0  0  0
    3.5515   -4.3037   20.2884 C   0  0  0  0  0  0  0  0  0  0  0  0
    3.2651   -3.6792   21.6183 N   0  0  0  0  0  0  0  0  0  0  0  0
   -0.9297  -10.0131   17.3619 C   0  0  2  0  0  0  0  0  0  0  0  0
   -2.0459  -10.1063   16.4498 N   0  0  0  0  0  0  0  0  0  0  0  0
   -1.0519   -8.6856   18.2138 C   0  0  0  0  0  0  0  0  0  0  0  0
    0.1767   -8.5664   19.2225 C   0  0  2  0  0  0  0  0  0  0  0  0
    0.0517   -7.3271   20.0336 N   0  0  0  0  0  0  0  0  0  0  0  0
    1.5422   -8.5776   18.3905 C   0  0  2  0  0  0  0  0  0  0  0  0
    1.6170   -9.9249   17.5532 C   0  0  2  0  0  0  0  0  0  0  0  0
    2.8368   -9.9462   16.8083 O   0  0  0  0  0  0  0  0  0  0  0  0
    0.3920  -10.0316   16.5615 C   0  0  1  0  0  0  0  0  0  0  0  0
    0.4638  -11.2752   15.8206 O   0  0  0  0  0  0  0  0  0  0  0  0
   -0.1685  -11.5260   14.6114 C   0  0  2  0  0  0  0  0  0  0  0  0
   -0.3233  -13.0824   14.4737 C   0  0  2  0  0  0  0  0  0  0  0  0
   -1.0406  -13.5803   15.5567 O   0  0  0  0  0  0  0  0  0  0  0  0
    1.0837  -13.8052   14.3362 C   0  0  1  0  0  0  0  0  0  0  0  0
    0.9125  -15.2842   14.1938 N   0  0  0  0  0  0  0  0  0  0  0  0
    1.8485  -13.1962   13.0810 C   0  0  2  0  0  0  0  0  0  0  0  0
    3.1231  -13.8273   12.9064 O   0  0  0  0  0  0  0  0  0  0  0  0
    1.9978  -11.6416   13.3046 C   0  0  2  0  0  0  0  0  0  0  0  0
    0.6345  -10.9873   13.4838 O   0  0  0  0  0  0  0  0  0  0  0  0
    2.7001  -10.9879   12.1384 C   0  0  0  0  0  0  0  0  0  0  0  0
    2.8543   -9.5665   12.3082 O   0  0  0  0  0  0  0  0  0  0  0  0
    5.1461   -9.7934   19.8095 O   0  0  0  0  0  0  0  0  0  0  0  0
    5.9668   -8.2866   22.0856 O   0  0  0  0  0  0  0  0  0  0  0  0
   -3.0968  -11.0590   16.7237 C   0  0  0  0  0  0  0  0  0  0  0  0
   -2.8584  -12.0664   17.4539 O   0  0  0  0  0  0  0  0  0  0  0  0
   -4.4991  -10.8008   16.0918 C   0  0  2  0  0  0  0  0  0  0  0  0
   -8.0225  -12.1828   17.0102 N   0  0  0  0  0  0  0  0  0  0  0  0
   -5.5933  -11.6686   16.7869 C   0  0  0  0  0  0  0  0  0  0  0  0
   -7.0211  -11.3288   16.3275 C   0  0  0  0  0  0  0  0  0  0  0  0
   -4.5478  -11.1177   14.8609 O   0  0  0  0  0  0  0  0  0  0  0  0
  1  2  1  1  0  0  0
  1  3  1  0  0  0  0
  1  8  1  0  0  0  0
  3  4  1  0  0  0  0
  3 32  1  1  0  0  0
  4  5  1  0  0  0  0
  4 33  1  1  0  0  0
  5  6  1  1  0  0  0
  5  7  1  0  0  0  0
  7  8  1  0  0  0  0
  7  9  1  6  0  0  0
  9 10  1  0  0  0  0
 11 12  1  6  0  0  0
 11 13  1  0  0  0  0
 11 19  1  0  0  0  0
 12 34  1  0  0  0  0
 13 14  1  0  0  0  0
 14 15  1  6  0  0  0
 14 16  1  0  0  0  0
 16  2  1  1  0  0  0
 16 17  1  0  0  0  0
 17 18  1  6  0  0  0
 17 19  1  0  0  0  0
 19 20  1  1  0  0  0
 21 20  1  1  0  0  0
 21 22  1  0  0  0  0
 21 29  1  0  0  0  0
 22 23  1  1  0  0  0
 22 24  1  0  0  0  0
 24 25  1  6  0  0  0
 24 26  1  0  0  0  0
 26 27  1  1  0  0  0
 26 28  1  0  0  0  0
 28 29  1  0  0  0  0
 28 30  1  6  0  0  0
 30 31  1  0  0  0  0
 34 35  2  0  0  0  0
 36 34  1  1  0  0  0
 36 38  1  0  0  0  0
 36 40  1  0  0  0  0
 37 39  1  0  0  0  0
 38 39  1  0  0  0  0
M  END
>  <CHROM.1>
-157.68927916,-151.46649026,-63.86538987,-106.41267212,81.10198713,-157.06709058
-179.99410962,-164.21060003,172.77098961,179.72815870,0.85541805,-9.88039826
17.20957999,-0.86717114,-0.10757666,-2.25272148

>  <Name>
ligand

>  <RI>
0

>  <Rbt.Current_Directory>
/home/itssahil/PROJECTS/Mol_Feturizer/New_Systems/rnas/4P20

>  <Rbt.Executable>
rbdock ($Id: //depot/dev/client3/rdock/2013.1/src/exe/rbdock.cxx#4 $)

>  <Rbt.Library>
libRbt.so (2013.1, Build901 2013/11/27)

>  <Rbt.Parameter_File>
/export/apps/rDock/src/rDock_2013.1_src/data/scripts/dock_solv.prm

>  <Rbt.Receptor>
prm/pocket_docking_2.prm

>  <SCORE>
-16.2288

>  <SCORE.INTER>
-9.18359

>  <SCORE.INTER.CONST>
1

>  <SCORE.INTER.POLAR>
0

>  <SCORE.INTER.ROT>
10

>  <SCORE.INTER.SOLV>
18.4186

>  <SCORE.INTER.VDW>
-22.5286

>  <SCORE.INTER.norm>
-0.22959

>  <SCORE.INTRA>
-7.04524

>  <SCORE.INTRA.DIHEDRAL>
-16.105

>  <SCORE.INTRA.DIHEDRAL.0>
28.2802

>  <SCORE.INTRA.POLAR>
0

>  <SCORE.INTRA.POLAR.0>
0

>  <SCORE.INTRA.REPUL>
0

>  <SCORE.INTRA.REPUL.0>
0

>  <SCORE.INTRA.SOLV>
-0.107951

>  <SCORE.INTRA.SOLV.lig_0>
-101.981

>  <SCORE.INTRA.VDW>
1.06123

>  <SCORE.INTRA.VDW.0>
-5.72964

>  <SCORE.INTRA.norm>
-0.176131

>  <SCORE.RESTR>
0

>  <SCORE.RESTR.CAVITY>
0

>  <SCORE.RESTR.norm>
0

>  <SCORE.SYSTEM>
0

>  <SCORE.SYSTEM.CONST>
0

>  <SCORE.SYSTEM.DIHEDRAL>
0

>  <SCORE.SYSTEM.SOLV>
0

>  <SCORE.SYSTEM.norm>
0

>  <SCORE.heavy>
40

>  <SCORE.norm>
-0.405721

>  <RMSD>
1.097

$$$$
ligand
 OpenBabel11021811513D
libRbt.so/2013.1/901 2013/11/27
 40 42  0  0  0  0  0  0  0  0999 V2000
    3.1730   -7.0852   18.6989 C   0  0  2  0  0  0  0  0  0  0  0  0
    1.9879   -7.6375   19.2934 O   0  0  0  0  0  0  0  0  0  0  0  0
    4.4326   -7.9579   19.0611 C   0  0  1  0  0  0  0  0  0  0  0  0
    4.7432   -7.9091   20.5855 C   0  0  2  0  0  0  0  0  0  0  0  0
    5.0127   -6.4193   20.9677 C   0  0  2  0  0  0  0  0  0  0  0  0
    5.3307   -6.3389   22.3738 O   0  0  0  0  0  0  0  0  0  0  0  0
    3.7099   -5.5694   20.6334 C   0  0  2  0  0  0  0  0  0  0  0  0
    3.3975   -5.6790   19.1635 O   0  0  0  0  0  0  0  0  0  0  0  0
    3.8799   -4.0906   20.9535 C   0  0  0  0  0  0  0  0  0  0  0  0
    2.5901   -3.3450   20.8085 N   0  0  0  0  0  0  0  0  0  0  0  0
   -1.4789   -9.7537   17.6103 C   0  0  2  0  0  0  0  0  0  0  0  0
   -2.6719  -10.0035   16.8352 N   0  0  0  0  0  0  0  0  0  0  0  0
   -1.7424   -8.5634   18.6185 C   0  0  0  0  0  0  0  0  0  0  0  0
   -0.4319   -8.2727   19.4783 C   0  0  2  0  0  0  0  0  0  0  0  0
   -0.6863   -7.1651   20.4364 N   0  0  0  0  0  0  0  0  0  0  0  0
    0.7754   -7.9179   18.4917 C   0  0  2  0  0  0  0  0  0  0  0  0
    0.9991   -9.1390   17.5013 C   0  0  2  0  0  0  0  0  0  0  0  0
    2.0796   -8.8328   16.6171 O   0  0  0  0  0  0  0  0  0  0  0  0
   -0.3079   -9.4182   16.6593 C   0  0  1  0  0  0  0  0  0  0  0  0
   -0.0943  -10.5476   15.7764 O   0  0  0  0  0  0  0  0  0  0  0  0
   -0.2085  -10.5177   14.3940 C   0  0  2  0  0  0  0  0  0  0  0  0
   -0.2607  -12.0046   13.8926 C   0  0  2  0  0  0  0  0  0  0  0  0
   -1.3259  -12.6660   14.4953 O   0  0  0  0  0  0  0  0  0  0  0  0
    1.1088  -12.7641   14.1552 C   0  0  1  0  0  0  0  0  0  0  0  0
    1.0414  -14.1735   13.6591 N   0  0  0  0  0  0  0  0  0  0  0  0
    2.2812  -11.9625   13.4381 C   0  0  2  0  0  0  0  0  0  0  0  0
    3.5404  -12.6174   13.6356 O   0  0  0  0  0  0  0  0  0  0  0  0
    2.2954  -10.4940   14.0144 C   0  0  2  0  0  0  0  0  0  0  0  0
    0.9520   -9.8124   13.7921 O   0  0  0  0  0  0  0  0  0  0  0  0
    3.3749   -9.6629   13.3630 C   0  0  0  0  0  0  0  0  0  0  0  0
    3.1561   -9.4741   11.9526 O   0  0  0  0  0  0  0  0  0  0  0  0
    4.1800   -9.3270   18.6298 O   0  0  0  0  0  0  0  0  0  0  0  0
    5.8547   -8.6747   20.8422 O   0  0  0  0  0  0  0  0  0  0  0  0
   -3.3263  -11.2863   16.9502 C   0  0  0  0  0  0  0  0  0  0  0  0
   -2.6694  -12.2948   17.3456 O   0  0  0  0  0  0  0  0  0  0  0  0
   -4.8366  -11.3720   16.5705 C   0  0  2  0  0  0  0  0  0  0  0  0
   -7.6483  -10.4349   15.9621 N   0  0  0  0  0  0  0  0  0  0  0  0
   -5.2032  -10.3046   15.4935 C   0  0  0  0  0  0  0  0  0  0  0  0
   -6.6111  -10.4944   14.9044 C   0  0  0  0  0  0  0  0  0  0  0  0
   -5.6040  -11.1344   17.5567 O   0  0  0  0  0  0  0  0  0  0  0  0
  1  2  1  1  0  0  0
  1  3  1  0  0  0  0
  1  8  1  0  0  0  0
  3  4  1  0  0  0  0
  3 32  1  1  0  0  0
  4  5  1  0  0  0  0
  4 33  1  6  0  0  0
  5  6  1  1  0  0  0
  5  7  1  0  0  0  0
  7  8  1  0  0  0  0
  7  9  1  6  0  0  0
  9 10  1  0  0  0  0
 11 12  1  6  0  0  0
 11 13  1  0  0  0  0
 11 19  1  0  0  0  0
 12 34  1  0  0  0  0
 13 14  1  0  0  0  0
 14 15  1  1  0  0  0
 14 16  1  0  0  0  0
 16  2  1  1  0  0  0
 16 17  1  0  0  0  0
 17 18  1  6  0  0  0
 17 19  1  0  0  0  0
 19 20  1  6  0  0  0
 21 20  1  1  0  0  0
 21 22  1  0  0  0  0
 21 29  1  0  0  0  0
 22 23  1  1  0  0  0
 22 24  1  0  0  0  0
 24 25  1  6  0  0  0
 24 26  1  0  0  0  0
 26 27  1  1  0  0  0
 26 28  1  0  0  0  0
 28 29  1  0  0  0  0
 28 30  1  6  0  0  0
 30 31  1  0  0  0  0
 34 35  2  0  0  0  0
 36 34  1  1  0  0  0
 36 38  1  0  0  0  0
 36 40  1  0  0  0  0
 37 39  1  0  0  0  0
 38 39  1  0  0  0  0
M  END
>  <CHROM.1>
-127.96460867,-169.98460915,-172.25956680,-117.43029709,118.73440529,-165.61297888
64.03069768,28.71245706,170.13674300,58.77844209,0.65859873,-9.33538667,17.13281141
0.77563696,0.11800484,0.92178842

>  <Name>
ligand

>  <RI>
0

>  <Rbt.Current_Directory>
/home/itssahil/PROJECTS/Mol_Feturizer/New_Systems/rnas/4P20

>  <Rbt.Executable>
rbdock ($Id: //depot/dev/client3/rdock/2013.1/src/exe/rbdock.cxx#4 $)

>  <Rbt.Library>
libRbt.so (2013.1, Build901 2013/11/27)

>  <Rbt.Parameter_File>
/export/apps/rDock/src/rDock_2013.1_src/data/scripts/dock_solv.prm

>  <Rbt.Receptor>
prm/pocket_docking_2.prm

>  <SCORE>
-10.9779

>  <SCORE.INTER>
-7.21518

>  <SCORE.INTER.CONST>
1

>  <SCORE.INTER.POLAR>
0

>  <SCORE.INTER.ROT>
10

>  <SCORE.INTER.SOLV>
21.0849

>  <SCORE.INTER.VDW>
-22.1051

>  <SCORE.INTER.norm>
-0.180379

>  <SCORE.INTRA>
-3.77475

>  <SCORE.INTRA.DIHEDRAL>
-9.23863

>  <SCORE.INTRA.DIHEDRAL.0>
28.2802

>  <SCORE.INTRA.POLAR>
0

>  <SCORE.INTRA.POLAR.0>
0

>  <SCORE.INTRA.REPUL>
0

>  <SCORE.INTRA.REPUL.0>
0

>  <SCORE.INTRA.SOLV>
0.850719

>  <SCORE.INTRA.SOLV.lig_0>
-101.981

>  <SCORE.INTRA.VDW>
0.419203

>  <SCORE.INTRA.VDW.0>
-5.72964

>  <SCORE.INTRA.norm>
-0.0943688

>  <SCORE.RESTR>
0.0120006

>  <SCORE.RESTR.CAVITY>
0.0120006

>  <SCORE.RESTR.norm>
0.000300015

>  <SCORE.SYSTEM>
0

>  <SCORE.SYSTEM.CONST>
0

>  <SCORE.SYSTEM.DIHEDRAL>
0

>  <SCORE.SYSTEM.SOLV>
0

>  <SCORE.SYSTEM.norm>
0

>  <SCORE.heavy>
40

>  <SCORE.norm>
-0.274448

>  <RMSD>
1.125

$$$$
ligand
 OpenBabel11021811513D
libRbt.so/2013.1/901 2013/11/27
 40 42  0  0  0  0  0  0  0  0999 V2000
    3.9330   -7.4210   19.0952 C   0  0  2  0  0  0  0  0  0  0  0  0
    2.6800   -7.9973   19.4962 O   0  0  0  0  0  0  0  0  0  0  0  0
    5.1199   -8.0504   19.9164 C   0  0  1  0  0  0  0  0  0  0  0  0
    5.0273   -7.6854   21.4268 C   0  0  2  0  0  0  0  0  0  0  0  0
    5.0792   -6.1291   21.5432 C   0  0  2  0  0  0  0  0  0  0  0  0
    5.0215   -5.7541   22.9363 O   0  0  0  0  0  0  0  0  0  0  0  0
    3.8451   -5.5223   20.7430 C   0  0  2  0  0  0  0  0  0  0  0  0
    3.9266   -5.9368   19.2967 O   0  0  0  0  0  0  0  0  0  0  0  0
    3.8176   -4.0004   20.7795 C   0  0  0  0  0  0  0  0  0  0  0  0
    2.4545   -3.4677   20.4650 N   0  0  0  0  0  0  0  0  0  0  0  0
   -0.9308   -9.5231   17.5051 C   0  0  2  0  0  0  0  0  0  0  0  0
   -2.0503   -9.5990   16.5955 N   0  0  0  0  0  0  0  0  0  0  0  0
   -1.0560   -8.2183   18.3908 C   0  0  0  0  0  0  0  0  0  0  0  0
    0.1762   -8.1184   19.3972 C   0  0  2  0  0  0  0  0  0  0  0  0
    0.0484   -6.9006   20.2399 N   0  0  0  0  0  0  0  0  0  0  0  0
    1.5382   -8.1016   18.5596 C   0  0  2  0  0  0  0  0  0  0  0  0
    1.6162   -9.4269   17.6882 C   0  0  2  0  0  0  0  0  0  0  0  0
    2.8330   -9.4230   16.9381 O   0  0  0  0  0  0  0  0  0  0  0  0
    0.3877   -9.5147   16.6991 C   0  0  1  0  0  0  0  0  0  0  0  0
    0.4626  -10.7388   15.9268 O   0  0  0  0  0  0  0  0  0  0  0  0
    0.0710  -10.8771   14.6030 C   0  0  2  0  0  0  0  0  0  0  0  0
   -0.1200  -12.4105   14.3250 C   0  0  2  0  0  0  0  0  0  0  0  0
   -1.0572  -12.9346   15.2094 O   0  0  0  0  0  0  0  0  0  0  0  0
    1.2544  -13.2011   14.4105 C   0  0  1  0  0  0  0  0  0  0  0  0
    1.0516  -14.6562   14.1304 N   0  0  0  0  0  0  0  0  0  0  0  0
    2.2769  -12.5581   13.3750 C   0  0  2  0  0  0  0  0  0  0  0  0
    3.5328  -13.2474   13.4052 O   0  0  0  0  0  0  0  0  0  0  0  0
    2.4454  -11.0315   13.7357 C   0  0  2  0  0  0  0  0  0  0  0  0
    1.1028  -10.3144   13.6946 O   0  0  0  0  0  0  0  0  0  0  0  0
    3.3911  -10.3461   12.7785 C   0  0  0  0  0  0  0  0  0  0  0  0
    2.9995  -10.5033   11.4020 O   0  0  0  0  0  0  0  0  0  0  0  0
    5.0880   -9.4957   19.7323 O   0  0  0  0  0  0  0  0  0  0  0  0
    6.0905   -8.2478   22.0908 O   0  0  0  0  0  0  0  0  0  0  0  0
   -2.9037  -10.7641   16.6304 C   0  0  0  0  0  0  0  0  0  0  0  0
   -2.4604  -11.8551   17.0974 O   0  0  0  0  0  0  0  0  0  0  0  0
   -4.3550  -10.6229   16.0769 C   0  0  2  0  0  0  0  0  0  0  0  0
   -6.5431   -8.5216   15.4683 N   0  0  0  0  0  0  0  0  0  0  0  0
   -5.2799   -9.9084   17.1101 C   0  0  0  0  0  0  0  0  0  0  0  0
   -6.6595   -9.5409   16.5386 C   0  0  0  0  0  0  0  0  0  0  0  0
   -4.9051  -11.7475   15.8517 O   0  0  0  0  0  0  0  0  0  0  0  0
  1  2  1  1  0  0  0
  1  3  1  0  0  0  0
  1  8  1  0  0  0  0
  3  4  1  0  0  0  0
  3 32  1  1  0  0  0
  4  5  1  0  0  0  0
  4 33  1  1  0  0  0
  5  6  1  1  0  0  0
  5  7  1  0  0  0  0
  7  8  1  0  0  0  0
  7  9  1  6  0  0  0
  9 10  1  0  0  0  0
 11 12  1  6  0  0  0
 11 13  1  0  0  0  0
 11 19  1  0  0  0  0
 12 34  1  0  0  0  0
 13 14  1  0  0  0  0
 14 15  1  6  0  0  0
 14 16  1  0  0  0  0
 16  2  1  1  0  0  0
 16 17  1  0  0  0  0
 17 18  1  6  0  0  0
 17 19  1  0  0  0  0
 19 20  1  1  0  0  0
 21 20  1  1  0  0  0
 21 22  1  0  0  0  0
 21 29  1  0  0  0  0
 22 23  1  1  0  0  0
 22 24  1  0  0  0  0
 24 25  1  6  0  0  0
 24 26  1  0  0  0  0
 26 27  1  1  0  0  0
 26 28  1  0  0  0  0
 28 29  1  0  0  0  0
 28 30  1  6  0  0  0
 30 31  1  0  0  0  0
 34 35  2  0  0  0  0
 36 34  1  1  0  0  0
 36 38  1  0  0  0  0
 36 40  1  0  0  0  0
 37 39  1  0  0  0  0
 38 39  1  0  0  0  0
M  END
>  <CHROM.1>
-151.24390222,-153.84219023,-159.93070584,-122.48801408,95.39830935,-161.76851782
55.04788053,-78.06004864,170.84768023,-65.65207427,1.01088577,-9.37485242
17.27479616,-0.89262393,0.00585241,-2.27303070

>  <Name>
ligand

>  <RI>
0

>  <Rbt.Current_Directory>
/home/itssahil/PROJECTS/Mol_Feturizer/New_Systems/rnas/4P20

>  <Rbt.Executable>
rbdock ($Id: //depot/dev/client3/rdock/2013.1/src/exe/rbdock.cxx#4 $)

>  <Rbt.Library>
libRbt.so (2013.1, Build901 2013/11/27)

>  <Rbt.Parameter_File>
/export/apps/rDock/src/rDock_2013.1_src/data/scripts/dock_solv.prm

>  <Rbt.Receptor>
prm/pocket_docking_2.prm

>  <SCORE>
-12.4188

>  <SCORE.INTER>
-7.37841

>  <SCORE.INTER.CONST>
1

>  <SCORE.INTER.POLAR>
0

>  <SCORE.INTER.ROT>
10

>  <SCORE.INTER.SOLV>
21.5644

>  <SCORE.INTER.VDW>
-22.3738

>  <SCORE.INTER.norm>
-0.18446

>  <SCORE.INTRA>
-5.08925

>  <SCORE.INTRA.DIHEDRAL>
-11.7345

>  <SCORE.INTRA.DIHEDRAL.0>
28.2802

>  <SCORE.INTRA.POLAR>
0

>  <SCORE.INTRA.POLAR.0>
0

>  <SCORE.INTRA.REPUL>
0

>  <SCORE.INTRA.REPUL.0>
0

>  <SCORE.INTRA.SOLV>
0.766234

>  <SCORE.INTRA.SOLV.lig_0>
-101.981

>  <SCORE.INTRA.VDW>
0.394871

>  <SCORE.INTRA.VDW.0>
-5.72964

>  <SCORE.INTRA.norm>
-0.127231

>  <SCORE.RESTR>
0.0488384

>  <SCORE.RESTR.CAVITY>
0.0488384

>  <SCORE.RESTR.norm>
0.00122096

>  <SCORE.SYSTEM>
0

>  <SCORE.SYSTEM.CONST>
0

>  <SCORE.SYSTEM.DIHEDRAL>
0

>  <SCORE.SYSTEM.SOLV>
0

>  <SCORE.SYSTEM.norm>
0

>  <SCORE.heavy>
40

>  <SCORE.norm>
-0.310471

>  <RMSD>
1.173

$$$$
ligand
 OpenBabel11021811513D
libRbt.so/2013.1/901 2013/11/27
 40 42  0  0  0  0  0  0  0  0999 V2000
    3.5284   -7.3368   19.1540 C   0  0  2  0  0  0  0  0  0  0  0  0
    2.2697   -7.8891   19.5705 O   0  0  0  0  0  0  0  0  0  0  0  0
    4.6640   -8.4246   19.2343 C   0  0  1  0  0  0  0  0  0  0  0  0
    4.9354   -8.8608   20.7037 C   0  0  2  0  0  0  0  0  0  0  0  0
    5.3702   -7.5919   21.5031 C   0  0  2  0  0  0  0  0  0  0  0  0
    5.6561   -7.9646   22.8684 O   0  0  0  0  0  0  0  0  0  0  0  0
    4.1882   -6.5286   21.4430 C   0  0  2  0  0  0  0  0  0  0  0  0
    3.9062   -6.1658   20.0081 O   0  0  0  0  0  0  0  0  0  0  0  0
    4.5246   -5.2399   22.1807 C   0  0  0  0  0  0  0  0  0  0  0  0
    4.8536   -5.4990   23.6178 N   0  0  0  0  0  0  0  0  0  0  0  0
   -1.3584   -9.3112   17.5347 C   0  0  2  0  0  0  0  0  0  0  0  0
   -2.5045   -9.3263   16.6557 N   0  0  0  0  0  0  0  0  0  0  0  0
   -1.4925   -8.1129   18.5588 C   0  0  0  0  0  0  0  0  0  0  0  0
   -0.2314   -8.0805   19.5332 C   0  0  2  0  0  0  0  0  0  0  0  0
   -0.3670   -6.9642   20.5052 N   0  0  0  0  0  0  0  0  0  0  0  0
    1.1012   -7.9302   18.6623 C   0  0  2  0  0  0  0  0  0  0  0  0
    1.1893   -9.1519   17.6517 C   0  0  2  0  0  0  0  0  0  0  0  0
    2.3802   -9.0286   16.8707 O   0  0  0  0  0  0  0  0  0  0  0  0
   -0.0679   -9.1740   16.6956 C   0  0  1  0  0  0  0  0  0  0  0  0
    0.0173  -10.3058   15.7944 O   0  0  0  0  0  0  0  0  0  0  0  0
   -0.1099  -10.2434   14.4142 C   0  0  2  0  0  0  0  0  0  0  0  0
   -0.2299  -11.7164   13.8842 C   0  0  2  0  0  0  0  0  0  0  0  0
   -1.3156  -12.3446   14.4856 O   0  0  0  0  0  0  0  0  0  0  0  0
    1.1092  -12.5377   14.1164 C   0  0  1  0  0  0  0  0  0  0  0  0
    0.9773  -13.9327   13.5935 N   0  0  0  0  0  0  0  0  0  0  0  0
    2.3067  -11.7716   13.4021 C   0  0  2  0  0  0  0  0  0  0  0  0
    3.5392  -12.4824   13.5726 O   0  0  0  0  0  0  0  0  0  0  0  0
    2.3886  -10.3169   14.0071 C   0  0  2  0  0  0  0  0  0  0  0  0
    1.0729   -9.5753   13.8133 O   0  0  0  0  0  0  0  0  0  0  0  0
    3.4953   -9.5187   13.3601 C   0  0  0  0  0  0  0  0  0  0  0  0
    3.3255   -9.3853   11.9366 O   0  0  0  0  0  0  0  0  0  0  0  0
    4.2619   -9.5667   18.4233 O   0  0  0  0  0  0  0  0  0  0  0  0
    5.9399   -9.7981   20.7158 O   0  0  0  0  0  0  0  0  0  0  0  0
   -3.7427   -9.9009   17.1287 C   0  0  0  0  0  0  0  0  0  0  0  0
   -3.7244  -10.7452   18.0730 O   0  0  0  0  0  0  0  0  0  0  0  0
   -5.0670   -9.4507   16.4387 C   0  0  2  0  0  0  0  0  0  0  0  0
   -7.8946  -11.6605   14.9315 N   0  0  0  0  0  0  0  0  0  0  0  0
   -5.7549  -10.6490   15.7146 C   0  0  0  0  0  0  0  0  0  0  0  0
   -7.2655  -10.4481   15.5080 C   0  0  0  0  0  0  0  0  0  0  0  0
   -4.8761   -8.5749   15.5362 O   0  0  0  0  0  0  0  0  0  0  0  0
  1  2  1  1  0  0  0
  1  3  1  0  0  0  0
  1  8  1  0  0  0  0
  3  4  1  0  0  0  0
  3 32  1  6  0  0  0
  4  5  1  0  0  0  0
  4 33  1  6  0  0  0
  5  6  1  1  0  0  0
  5  7  1  0  0  0  0
  7  8  1  0  0  0  0
  7  9  1  1  0  0  0
  9 10  1  0  0  0  0
 11 12  1  6  0  0  0
 11 13  1  0  0  0  0
 11 19  1  0  0  0  0
 12 34  1  0  0  0  0
 13 14  1  0  0  0  0
 14 15  1  1  0  0  0
 14 16  1  0  0  0  0
 16  2  1  1  0  0  0
 16 17  1  0  0  0  0
 17 18  1  6  0  0  0
 17 19  1  0  0  0  0
 19 20  1  6  0  0  0
 21 20  1  1  0  0  0
 21 22  1  0  0  0  0
 21 29  1  0  0  0  0
 22 23  1  1  0  0  0
 22 24  1  0  0  0  0
 24 25  1  6  0  0  0
 24 26  1  0  0  0  0
 26 27  1  1  0  0  0
 26 28  1  0  0  0  0
 28 29  1  0  0  0  0
 28 30  1  6  0  0  0
 30 31  1  0  0  0  0
 34 35  2  0  0  0  0
 36 34  1  6  0  0  0
 36 38  1  0  0  0  0
 36 40  1  0  0  0  0
 37 39  1  0  0  0  0
 38 39  1  0  0  0  0
M  END
>  <CHROM.1>
-119.86515526,-159.39489685,-57.94775618,-79.82496553,111.53843159,-169.14389277
59.29314244,116.17068088,157.03323778,-174.76329900,0.81418417,-9.34580471
17.28159225,0.71150007,0.00437967,1.05556326

>  <Name>
ligand

>  <RI>
0

>  <Rbt.Current_Directory>
/home/itssahil/PROJECTS/Mol_Feturizer/New_Systems/rnas/4P20

>  <Rbt.Executable>
rbdock ($Id: //depot/dev/client3/rdock/2013.1/src/exe/rbdock.cxx#4 $)

>  <Rbt.Library>
libRbt.so (2013.1, Build901 2013/11/27)

>  <Rbt.Parameter_File>
/export/apps/rDock/src/rDock_2013.1_src/data/scripts/dock_solv.prm

>  <Rbt.Receptor>
prm/pocket_docking_2.prm

>  <SCORE>
-8.71194

>  <SCORE.INTER>
-6.31941

>  <SCORE.INTER.CONST>
1

>  <SCORE.INTER.POLAR>
0

>  <SCORE.INTER.ROT>
10

>  <SCORE.INTER.SOLV>
24.9232

>  <SCORE.INTER.VDW>
-22.7873

>  <SCORE.INTER.norm>
-0.157985

>  <SCORE.INTRA>
-2.53475

>  <SCORE.INTRA.DIHEDRAL>
-7.25309

>  <SCORE.INTRA.DIHEDRAL.0>
28.2802

>  <SCORE.INTRA.POLAR>
0

>  <SCORE.INTRA.POLAR.0>
0

>  <SCORE.INTRA.REPUL>
0

>  <SCORE.INTRA.REPUL.0>
0

>  <SCORE.INTRA.SOLV>
-0.426247

>  <SCORE.INTRA.SOLV.lig_0>
-101.981

>  <SCORE.INTRA.VDW>
1.30492

>  <SCORE.INTRA.VDW.0>
-5.72964

>  <SCORE.INTRA.norm>
-0.0633687

>  <SCORE.RESTR>
0.142216

>  <SCORE.RESTR.CAVITY>
0.142216

>  <SCORE.RESTR.norm>
0.00355541

>  <SCORE.SYSTEM>
0

>  <SCORE.SYSTEM.CONST>
0

>  <SCORE.SYSTEM.DIHEDRAL>
0

>  <SCORE.SYSTEM.SOLV>
0

>  <SCORE.SYSTEM.norm>
0

>  <SCORE.heavy>
40

>  <SCORE.norm>
-0.217798

>  <RMSD>
1.229

$$$$
ligand
 OpenBabel11021811513D
libRbt.so/2013.1/901 2013/11/27
 40 42  0  0  0  0  0  0  0  0999 V2000
    4.0694   -7.7763   18.7759 C   0  0  2  0  0  0  0  0  0  0  0  0
    2.9279   -8.5786   19.1169 O   0  0  0  0  0  0  0  0  0  0  0  0
    5.2920   -8.1306   19.7027 C   0  0  1  0  0  0  0  0  0  0  0  0
    5.0163   -7.7456   21.1855 C   0  0  2  0  0  0  0  0  0  0  0  0
    4.7517   -6.2075   21.2354 C   0  0  2  0  0  0  0  0  0  0  0  0
    4.5170   -5.8092   22.6032 O   0  0  0  0  0  0  0  0  0  0  0  0
    3.4859   -5.8840   20.3273 C   0  0  2  0  0  0  0  0  0  0  0  0
    3.7557   -6.3178   18.9099 O   0  0  0  0  0  0  0  0  0  0  0  0
    3.1565   -4.3978   20.2936 C   0  0  0  0  0  0  0  0  0  0  0  0
    4.3154   -3.5891   19.8002 N   0  0  0  0  0  0  0  0  0  0  0  0
   -0.9035   -9.8829   17.3997 C   0  0  2  0  0  0  0  0  0  0  0  0
   -2.0813   -9.8989   16.5636 N   0  0  0  0  0  0  0  0  0  0  0  0
   -0.8770   -8.5498   18.2511 C   0  0  0  0  0  0  0  0  0  0  0  0
    0.4207   -8.5156   19.1760 C   0  0  2  0  0  0  0  0  0  0  0  0
    0.4357   -7.2701   19.9873 N   0  0  0  0  0  0  0  0  0  0  0  0
    1.7243   -8.6220   18.2560 C   0  0  2  0  0  0  0  0  0  0  0  0
    1.6502   -9.9717   17.4225 C   0  0  2  0  0  0  0  0  0  0  0  0
    2.8138  -10.0779   16.5991 O   0  0  0  0  0  0  0  0  0  0  0  0
    0.3581   -9.9936   16.5142 C   0  0  1  0  0  0  0  0  0  0  0  0
    0.2945  -11.2396   15.7765 O   0  0  0  0  0  0  0  0  0  0  0  0
   -0.2941  -11.4052   14.5311 C   0  0  2  0  0  0  0  0  0  0  0  0
   -0.6054  -12.9340   14.3558 C   0  0  2  0  0  0  0  0  0  0  0  0
   -1.4292  -13.3668   15.3898 O   0  0  0  0  0  0  0  0  0  0  0  0
    0.7225  -13.8013   14.2788 C   0  0  1  0  0  0  0  0  0  0  0  0
    0.4034  -15.2514   14.0994 N   0  0  0  0  0  0  0  0  0  0  0  0
    1.6147  -13.2608   13.0776 C   0  0  2  0  0  0  0  0  0  0  0  0
    2.8228  -14.0222   12.9583 O   0  0  0  0  0  0  0  0  0  0  0  0
    1.9156  -11.7342   13.3382 C   0  0  2  0  0  0  0  0  0  0  0  0
    0.6217  -10.9404   13.4579 O   0  0  0  0  0  0  0  0  0  0  0  0
    2.7457  -11.1438   12.2234 C   0  0  0  0  0  0  0  0  0  0  0  0
    2.2550  -11.4986   10.9172 O   0  0  0  0  0  0  0  0  0  0  0  0
    5.5593   -9.5582   19.5818 O   0  0  0  0  0  0  0  0  0  0  0  0
    6.1166   -8.0639   21.9443 O   0  0  0  0  0  0  0  0  0  0  0  0
   -3.3729  -10.1066   17.1764 C   0  0  0  0  0  0  0  0  0  0  0  0
   -3.4505  -10.6879   18.2994 O   0  0  0  0  0  0  0  0  0  0  0  0
   -4.6341   -9.6011   16.4107 C   0  0  2  0  0  0  0  0  0  0  0  0
   -4.8840  -12.6091   16.8684 N   0  0  0  0  0  0  0  0  0  0  0  0
   -5.0982  -10.6448   15.3484 C   0  0  0  0  0  0  0  0  0  0  0  0
   -5.7963  -11.8692   15.9639 C   0  0  0  0  0  0  0  0  0  0  0  0
   -4.4155   -8.5304   15.7596 O   0  0  0  0  0  0  0  0  0  0  0  0
  1  2  1  1  0  0  0
  1  3  1  0  0  0  0
  1  8  1  0  0  0  0
  3  4  1  0  0  0  0
  3 32  1  1  0  0  0
  4  5  1  0  0  0  0
  4 33  1  1  0  0  0
  5  6  1  1  0  0  0
  5  7  1  0  0  0  0
  7  8  1  0  0  0  0
  7  9  1  6  0  0  0
  9 10  1  0  0  0  0
 11 12  1  6  0  0  0
 11 13  1  0  0  0  0
 11 19  1  0  0  0  0
 12 34  1  0  0  0  0
 13 14  1  0  0  0  0
 14 15  1  6  0  0  0
 14 16  1  0  0  0  0
 16  2  1  1  0  0  0
 16 17  1  0  0  0  0
 17 18  1  6  0  0  0
 17 19  1  0  0  0  0
 19 20  1  1  0  0  0
 21 20  1  1  0  0  0
 21 22  1  0  0  0  0
 21 29  1  0  0  0  0
 22 23  1  1  0  0  0
 22 24  1  0  0  0  0
 24 25  1  6  0  0  0
 24 26  1  0  0  0  0
 26 27  1  1  0  0  0
 26 28  1  0  0  0  0
 28 29  1  0  0  0  0
 28 30  1  6  0  0  0
 30 31  1  0  0  0  0
 34 35  2  0  0  0  0
 36 34  1  6  0  0  0
 36 38  1  0  0  0  0
 36 40  1  0  0  0  0
 37 39  1  0  0  0  0
 38 39  1  0  0  0  0
M  END
>  <CHROM.1>
-169.05097825,-135.71208242,57.73432242,-72.01975477,89.49057445,-159.48632272
46.43892344,83.43640573,74.51570072,-61.56136041,0.93244798,-9.74379802,17.08897043
-0.93959010,-0.04162798,-2.28610658

>  <Name>
ligand

>  <RI>
0

>  <Rbt.Current_Directory>
/home/itssahil/PROJECTS/Mol_Feturizer/New_Systems/rnas/4P20

>  <Rbt.Executable>
rbdock ($Id: //depot/dev/client3/rdock/2013.1/src/exe/rbdock.cxx#4 $)

>  <Rbt.Library>
libRbt.so (2013.1, Build901 2013/11/27)

>  <Rbt.Parameter_File>
/export/apps/rDock/src/rDock_2013.1_src/data/scripts/dock_solv.prm

>  <Rbt.Receptor>
prm/pocket_docking_3.prm

>  <SCORE>
-13.3207

>  <SCORE.INTER>
-9.21357

>  <SCORE.INTER.CONST>
1

>  <SCORE.INTER.POLAR>
0

>  <SCORE.INTER.ROT>
10

>  <SCORE.INTER.SOLV>
27.6827

>  <SCORE.INTER.VDW>
-25.6366

>  <SCORE.INTER.norm>
-0.230339

>  <SCORE.INTRA>
-4.10711

>  <SCORE.INTRA.DIHEDRAL>
-13.4318

>  <SCORE.INTRA.DIHEDRAL.0>
28.2802

>  <SCORE.INTRA.POLAR>
0

>  <SCORE.INTRA.POLAR.0>
0

>  <SCORE.INTRA.REPUL>
0

>  <SCORE.INTRA.REPUL.0>
0

>  <SCORE.INTRA.SOLV>
4.8596

>  <SCORE.INTRA.SOLV.lig_0>
-101.981

>  <SCORE.INTRA.VDW>
0.178964

>  <SCORE.INTRA.VDW.0>
-5.72964

>  <SCORE.INTRA.norm>
-0.102678

>  <SCORE.RESTR>
0

>  <SCORE.RESTR.CAVITY>
0

>  <SCORE.RESTR.norm>
0

>  <SCORE.SYSTEM>
0

>  <SCORE.SYSTEM.CONST>
0

>  <SCORE.SYSTEM.DIHEDRAL>
0

>  <SCORE.SYSTEM.SOLV>
0

>  <SCORE.SYSTEM.norm>
0

>  <SCORE.heavy>
40

>  <SCORE.norm>
-0.333017

>  <RMSD>
1.229

$$$$
ligand
 OpenBabel11021811513D
libRbt.so/2013.1/901 2013/11/27
 40 42  0  0  0  0  0  0  0  0999 V2000
    4.0413   -8.1068   19.0214 C   0  0  2  0  0  0  0  0  0  0  0  0
    2.7852   -8.6691   19.4324 O   0  0  0  0  0  0  0  0  0  0  0  0
    5.1897   -8.5353   20.0099 C   0  0  1  0  0  0  0  0  0  0  0  0
    4.9772   -7.9326   21.4292 C   0  0  2  0  0  0  0  0  0  0  0  0
    4.9633   -6.3776   21.2876 C   0  0  2  0  0  0  0  0  0  0  0  0
    4.7937   -5.7825   22.5920 O   0  0  0  0  0  0  0  0  0  0  0  0
    3.7674   -5.9701   20.3205 C   0  0  2  0  0  0  0  0  0  0  0  0
    3.9661   -6.6117   18.9718 O   0  0  0  0  0  0  0  0  0  0  0  0
    3.6813   -4.4660   20.1008 C   0  0  0  0  0  0  0  0  0  0  0  0
    3.2602   -3.7517   21.3470 N   0  0  0  0  0  0  0  0  0  0  0  0
   -1.0740   -9.8558   17.6922 C   0  0  2  0  0  0  0  0  0  0  0  0
   -2.2076   -9.8873   16.7975 N   0  0  0  0  0  0  0  0  0  0  0  0
   -0.9538   -8.4193   18.3438 C   0  0  0  0  0  0  0  0  0  0  0  0
    0.2968   -8.3677   19.3308 C   0  0  2  0  0  0  0  0  0  0  0  0
    0.3984   -7.0223   19.9547 N   0  0  0  0  0  0  0  0  0  0  0  0
    1.6242   -8.7288   18.5158 C   0  0  2  0  0  0  0  0  0  0  0  0
    1.4544  -10.1747   17.8812 C   0  0  2  0  0  0  0  0  0  0  0  0
    2.6383  -10.5084   17.1532 O   0  0  0  0  0  0  0  0  0  0  0  0
    0.2098  -10.2122   16.9092 C   0  0  1  0  0  0  0  0  0  0  0  0
    0.0563  -11.5427   16.3552 O   0  0  0  0  0  0  0  0  0  0  0  0
   -0.6139  -11.8496   15.1799 C   0  0  2  0  0  0  0  0  0  0  0  0
   -0.8404  -13.4031   15.1576 C   0  0  2  0  0  0  0  0  0  0  0  0
   -1.5539  -13.7895   16.2876 O   0  0  0  0  0  0  0  0  0  0  0  0
    0.5299  -14.1974   15.0449 C   0  0  1  0  0  0  0  0  0  0  0  0
    0.2904  -15.6734   15.0127 N   0  0  0  0  0  0  0  0  0  0  0  0
    1.2919  -13.7146   13.7344 C   0  0  2  0  0  0  0  0  0  0  0  0
    2.5331  -14.4141   13.5806 O   0  0  0  0  0  0  0  0  0  0  0  0
    1.5147  -12.1565   13.8424 C   0  0  2  0  0  0  0  0  0  0  0  0
    0.1862  -11.4296   14.0008 O   0  0  0  0  0  0  0  0  0  0  0  0
    2.2184  -11.6200   12.6187 C   0  0  0  0  0  0  0  0  0  0  0  0
    1.5666  -11.9985   11.3920 O   0  0  0  0  0  0  0  0  0  0  0  0
    5.2240   -9.9912   20.0678 O   0  0  0  0  0  0  0  0  0  0  0  0
    6.0108   -8.3269   22.2440 O   0  0  0  0  0  0  0  0  0  0  0  0
   -3.5330  -10.0416   17.3512 C   0  0  0  0  0  0  0  0  0  0  0  0
   -3.6803  -10.5691   18.4935 O   0  0  0  0  0  0  0  0  0  0  0  0
   -4.7422   -9.5474   16.4991 C   0  0  2  0  0  0  0  0  0  0  0  0
   -6.9966  -11.6907   16.6964 N   0  0  0  0  0  0  0  0  0  0  0  0
   -5.1423  -10.6093   15.4287 C   0  0  0  0  0  0  0  0  0  0  0  0
   -5.6864  -11.9120   16.0387 C   0  0  0  0  0  0  0  0  0  0  0  0
   -4.4799   -8.4892   15.8437 O   0  0  0  0  0  0  0  0  0  0  0  0
  1  2  1  1  0  0  0
  1  3  1  0  0  0  0
  1  8  1  0  0  0  0
  3  4  1  0  0  0  0
  3 32  1  1  0  0  0
  4  5  1  0  0  0  0
  4 33  1  1  0  0  0
  5  6  1  1  0  0  0
  5  7  1  0  0  0  0
  7  8  1  0  0  0  0
  7  9  1  6  0  0  0
  9 10  1  0  0  0  0
 11 12  1  6  0  0  0
 11 13  1  0  0  0  0
 11 19  1  0  0  0  0
 12 34  1  0  0  0  0
 13 14  1  0  0  0  0
 14 15  1  6  0  0  0
 14 16  1  0  0  0  0
 16  2  1  1  0  0  0
 16 17  1  0  0  0  0
 17 18  1  6  0  0  0
 17 19  1  0  0  0  0
 19 20  1  1  0  0  0
 21 20  1  1  0  0  0
 21 22  1  0  0  0  0
 21 29  1  0  0  0  0
 22 23  1  1  0  0  0
 22 24  1  0  0  0  0
 24 25  1  6  0  0  0
 24 26  1  0  0  0  0
 26 27  1  1  0  0  0
 26 28  1  0  0  0  0
 28 29  1  0  0  0  0
 28 30  1  6  0  0  0
 30 31  1  0  0  0  0
 34 35  2  0  0  0  0
 36 34  1  6  0  0  0
 36 38  1  0  0  0  0
 36 40  1  0  0  0  0
 37 39  1  0  0  0  0
 38 39  1  0  0  0  0
M  END
>  <CHROM.1>
-163.74887440,-139.53880035,-68.63348355,-79.26770011,82.23473006,-166.02233276
52.69274634,81.45986459,65.74621426,67.87968435,0.73225918,-9.91868022,17.44307529
-0.89178011,0.06414739,-2.37964721

>  <Name>
ligand

>  <RI>
0

>  <Rbt.Current_Directory>
/home/itssahil/PROJECTS/Mol_Feturizer/New_Systems/rnas/4P20

>  <Rbt.Executable>
rbdock ($Id: //depot/dev/client3/rdock/2013.1/src/exe/rbdock.cxx#4 $)

>  <Rbt.Library>
libRbt.so (2013.1, Build901 2013/11/27)

>  <Rbt.Parameter_File>
/export/apps/rDock/src/rDock_2013.1_src/data/scripts/dock_solv.prm

>  <Rbt.Receptor>
prm/pocket_docking_3.prm

>  <SCORE>
-16.0028

>  <SCORE.INTER>
-9.20655

>  <SCORE.INTER.CONST>
1

>  <SCORE.INTER.POLAR>
0

>  <SCORE.INTER.ROT>
10

>  <SCORE.INTER.SOLV>
20.1549

>  <SCORE.INTER.VDW>
-23.1227

>  <SCORE.INTER.norm>
-0.230164

>  <SCORE.INTRA>
-6.80519

>  <SCORE.INTRA.DIHEDRAL>
-16.1164

>  <SCORE.INTRA.DIHEDRAL.0>
28.2802

>  <SCORE.INTRA.POLAR>
0

>  <SCORE.INTRA.POLAR.0>
0

>  <SCORE.INTRA.REPUL>
0

>  <SCORE.INTRA.REPUL.0>
0

>  <SCORE.INTRA.SOLV>
1.87007

>  <SCORE.INTRA.SOLV.lig_0>
-101.981

>  <SCORE.INTRA.VDW>
0.317993

>  <SCORE.INTRA.VDW.0>
-5.72964

>  <SCORE.INTRA.norm>
-0.17013

>  <SCORE.RESTR>
0.00898712

>  <SCORE.RESTR.CAVITY>
0.00898712

>  <SCORE.RESTR.norm>
0.000224678

>  <SCORE.SYSTEM>
0

>  <SCORE.SYSTEM.CONST>
0

>  <SCORE.SYSTEM.DIHEDRAL>
0

>  <SCORE.SYSTEM.SOLV>
0

>  <SCORE.SYSTEM.norm>
0

>  <SCORE.heavy>
40

>  <SCORE.norm>
-0.400069

>  <RMSD>
1.242

$$$$
ligand
 OpenBabel11021811513D
libRbt.so/2013.1/901 2013/11/27
 40 42  0  0  0  0  0  0  0  0999 V2000
    3.0877   -7.1179   18.5668 C   0  0  2  0  0  0  0  0  0  0  0  0
    1.9612   -7.9171   18.9608 O   0  0  0  0  0  0  0  0  0  0  0  0
    4.4355   -7.8164   18.9849 C   0  0  1  0  0  0  0  0  0  0  0  0
    4.5812   -7.8986   20.5324 C   0  0  2  0  0  0  0  0  0  0  0  0
    4.5539   -6.4403   21.0901 C   0  0  2  0  0  0  0  0  0  0  0  0
    4.7132   -6.4765   22.5246 O   0  0  0  0  0  0  0  0  0  0  0  0
    3.1648   -5.7743   20.6922 C   0  0  2  0  0  0  0  0  0  0  0  0
    3.0224   -5.7585   19.1923 O   0  0  0  0  0  0  0  0  0  0  0  0
    3.0480   -4.3353   21.1757 C   0  0  0  0  0  0  0  0  0  0  0  0
    4.0671   -3.4526   20.5257 N   0  0  0  0  0  0  0  0  0  0  0  0
   -1.4375   -9.9544   17.0561 C   0  0  2  0  0  0  0  0  0  0  0  0
   -2.5301  -10.2117   16.1469 N   0  0  0  0  0  0  0  0  0  0  0  0
   -1.7141   -8.6143   17.8501 C   0  0  0  0  0  0  0  0  0  0  0  0
   -0.5135   -8.3145   18.8548 C   0  0  2  0  0  0  0  0  0  0  0  0
   -0.7827   -7.0639   19.6118 N   0  0  0  0  0  0  0  0  0  0  0  0
    0.8500   -8.2067   18.0265 C   0  0  2  0  0  0  0  0  0  0  0  0
    1.0817   -9.5713   17.2479 C   0  0  2  0  0  0  0  0  0  0  0  0
    2.3010   -9.4863   16.5068 O   0  0  0  0  0  0  0  0  0  0  0  0
   -0.1168   -9.8575   16.2595 C   0  0  1  0  0  0  0  0  0  0  0  0
    0.0995  -11.1154   15.5729 O   0  0  0  0  0  0  0  0  0  0  0  0
   -0.3827  -11.4339   14.3116 C   0  0  2  0  0  0  0  0  0  0  0  0
   -0.4023  -12.9995   14.1953 C   0  0  2  0  0  0  0  0  0  0  0  0
   -1.1876  -13.5358   15.2106 O   0  0  0  0  0  0  0  0  0  0  0  0
    1.0629  -13.6112   14.2192 C   0  0  1  0  0  0  0  0  0  0  0  0
    1.0216  -15.1010   14.0947 N   0  0  0  0  0  0  0  0  0  0  0  0
    1.9046  -12.9630   13.0349 C   0  0  2  0  0  0  0  0  0  0  0  0
    3.2352  -13.4941   13.0063 O   0  0  0  0  0  0  0  0  0  0  0  0
    1.9098  -11.3982   13.2361 C   0  0  2  0  0  0  0  0  0  0  0  0
    0.4891  -10.8509   13.2596 O   0  0  0  0  0  0  0  0  0  0  0  0
    2.6770  -10.7091   12.1328 C   0  0  0  0  0  0  0  0  0  0  0  0
    4.0979  -10.9205   12.2279 O   0  0  0  0  0  0  0  0  0  0  0  0
    4.4637   -9.1478   18.3928 O   0  0  0  0  0  0  0  0  0  0  0  0
    5.7761   -8.5032   20.8397 O   0  0  0  0  0  0  0  0  0  0  0  0
   -3.8504  -10.4427   16.6858 C   0  0  0  0  0  0  0  0  0  0  0  0
   -3.9811  -10.8469   17.8793 O   0  0  0  0  0  0  0  0  0  0  0  0
   -5.0745  -10.1841   15.7546 C   0  0  2  0  0  0  0  0  0  0  0  0
   -8.0480  -12.1195   17.3414 N   0  0  0  0  0  0  0  0  0  0  0  0
   -6.4153  -10.4270   16.5141 C   0  0  0  0  0  0  0  0  0  0  0  0
   -6.6678  -11.9079   16.8429 C   0  0  0  0  0  0  0  0  0  0  0  0
   -5.1048  -10.9707   14.7553 O   0  0  0  0  0  0  0  0  0  0  0  0
  1  2  1  1  0  0  0
  1  3  1  0  0  0  0
  1  8  1  0  0  0  0
  3  4  1  0  0  0  0
  3 32  1  6  0  0  0
  4  5  1  0  0  0  0
  4 33  1  6  0  0  0
  5  6  1  1  0  0  0
  5  7  1  0  0  0  0
  7  8  1  0  0  0  0
  7  9  1  6  0  0  0
  9 10  1  0  0  0  0
 11 12  1  6  0  0  0
 11 13  1  0  0  0  0
 11 19  1  0  0  0  0
 12 34  1  0  0  0  0
 13 14  1  0  0  0  0
 14 15  1  6  0  0  0
 14 16  1  0  0  0  0
 16  2  1  1  0  0  0
 16 17  1  0  0  0  0
 17 18  1  6  0  0  0
 17 19  1  0  0  0  0
 19 20  1  1  0  0  0
 21 20  1  1  0  0  0
 21 22  1  0  0  0  0
 21 29  1  0  0  0  0
 22 23  1  1  0  0  0
 22 24  1  0  0  0  0
 24 25  1  6  0  0  0
 24 26  1  0  0  0  0
 26 27  1  1  0  0  0
 26 28  1  0  0  0  0
 28 29  1  0  0  0  0
 28 30  1  6  0  0  0
 30 31  1  0  0  0  0
 34 35  2  0  0  0  0
 36 34  1  1  0  0  0
 36 38  1  0  0  0  0
 36 40  1  0  0  0  0
 37 39  1  0  0  0  0
 38 39  1  0  0  0  0
M  END
>  <CHROM.1>
-132.53720540,-147.29322299,63.77483699,-63.03174266,88.05054904,-158.66662786
-71.46869798,-177.68760160,-69.53008169,-169.86749877,0.52830058,-9.68458073
16.97469858,0.82720893,0.11120487,0.86160866

>  <Name>
ligand

>  <RI>
0

>  <Rbt.Current_Directory>
/home/itssahil/PROJECTS/Mol_Feturizer/New_Systems/rnas/4P20

>  <Rbt.Executable>
rbdock ($Id: //depot/dev/client3/rdock/2013.1/src/exe/rbdock.cxx#4 $)

>  <Rbt.Library>
libRbt.so (2013.1, Build901 2013/11/27)

>  <Rbt.Parameter_File>
/export/apps/rDock/src/rDock_2013.1_src/data/scripts/dock_solv.prm

>  <Rbt.Receptor>
prm/pocket_docking_2.prm

>  <SCORE>
-9.46169

>  <SCORE.INTER>
-6.56681

>  <SCORE.INTER.CONST>
1

>  <SCORE.INTER.POLAR>
0

>  <SCORE.INTER.ROT>
10

>  <SCORE.INTER.SOLV>
22.2089

>  <SCORE.INTER.VDW>
-22.0475

>  <SCORE.INTER.norm>
-0.16417

>  <SCORE.INTRA>
-2.93563

>  <SCORE.INTRA.DIHEDRAL>
-10.4367

>  <SCORE.INTRA.DIHEDRAL.0>
28.2802

>  <SCORE.INTRA.POLAR>
0

>  <SCORE.INTRA.POLAR.0>
0

>  <SCORE.INTRA.REPUL>
0

>  <SCORE.INTRA.REPUL.0>
0

>  <SCORE.INTRA.SOLV>
0.17791

>  <SCORE.INTRA.SOLV.lig_0>
-101.981

>  <SCORE.INTRA.VDW>
2.19379

>  <SCORE.INTRA.VDW.0>
-5.72964

>  <SCORE.INTRA.norm>
-0.0733907

>  <SCORE.RESTR>
0.0407482

>  <SCORE.RESTR.CAVITY>
0.0407482

>  <SCORE.RESTR.norm>
0.0010187

>  <SCORE.SYSTEM>
0

>  <SCORE.SYSTEM.CONST>
0

>  <SCORE.SYSTEM.DIHEDRAL>
0

>  <SCORE.SYSTEM.SOLV>
0

>  <SCORE.SYSTEM.norm>
0

>  <SCORE.heavy>
40

>  <SCORE.norm>
-0.236542

>  <RMSD>
1.245

$$$$
ligand
 OpenBabel11021811513D
libRbt.so/2013.1/901 2013/11/27
 40 42  0  0  0  0  0  0  0  0999 V2000
    4.1382   -7.7312   18.9791 C   0  0  2  0  0  0  0  0  0  0  0  0
    2.8887   -8.3444   19.3332 O   0  0  0  0  0  0  0  0  0  0  0  0
    5.3055   -8.2974   19.8713 C   0  0  1  0  0  0  0  0  0  0  0  0
    5.1261   -7.9024   21.3662 C   0  0  2  0  0  0  0  0  0  0  0  0
    5.1162   -6.3430   21.4473 C   0  0  2  0  0  0  0  0  0  0  0  0
    4.9771   -5.9392   22.8265 O   0  0  0  0  0  0  0  0  0  0  0  0
    3.9017   -5.8005   20.5743 C   0  0  2  0  0  0  0  0  0  0  0  0
    4.0686   -6.2441   19.1441 O   0  0  0  0  0  0  0  0  0  0  0  0
    3.8177   -4.2803   20.5725 C   0  0  0  0  0  0  0  0  0  0  0  0
    2.5221   -3.8020   19.9951 N   0  0  0  0  0  0  0  0  0  0  0  0
   -0.5122  -10.0040   17.0949 C   0  0  2  0  0  0  0  0  0  0  0  0
   -1.6039  -10.0937   16.1534 N   0  0  0  0  0  0  0  0  0  0  0  0
   -0.7867   -8.8245   18.1129 C   0  0  0  0  0  0  0  0  0  0  0  0
    0.4131   -8.7101   19.1561 C   0  0  2  0  0  0  0  0  0  0  0  0
    0.1458   -7.6122   20.1218 N   0  0  0  0  0  0  0  0  0  0  0  0
    1.7782   -8.4614   18.3613 C   0  0  2  0  0  0  0  0  0  0  0  0
    2.0077   -9.6676   17.3541 C   0  0  2  0  0  0  0  0  0  0  0  0
    3.2284   -9.4563   16.6410 O   0  0  0  0  0  0  0  0  0  0  0  0
    0.8100   -9.7715   16.3294 C   0  0  1  0  0  0  0  0  0  0  0  0
    1.0243  -10.8889   15.4316 O   0  0  0  0  0  0  0  0  0  0  0  0
    0.2846  -11.1518   14.2876 C   0  0  2  0  0  0  0  0  0  0  0  0
    0.0337  -12.7008   14.2335 C   0  0  2  0  0  0  0  0  0  0  0  0
   -0.6211  -13.1108   15.3903 O   0  0  0  0  0  0  0  0  0  0  0  0
    1.3833  -13.5099   14.0207 C   0  0  1  0  0  0  0  0  0  0  0  0
    1.1200  -14.9808   13.9596 N   0  0  0  0  0  0  0  0  0  0  0  0
    2.0779  -12.9988   12.6836 C   0  0  2  0  0  0  0  0  0  0  0  0
    3.2977  -13.7101   12.4399 O   0  0  0  0  0  0  0  0  0  0  0  0
    2.3300  -11.4477   12.8237 C   0  0  2  0  0  0  0  0  0  0  0  0
    1.0236  -10.7080   13.0779 O   0  0  0  0  0  0  0  0  0  0  0  0
    2.9719  -10.8848   11.5782 C   0  0  0  0  0  0  0  0  0  0  0  0
    4.3228  -11.3465   11.3918 O   0  0  0  0  0  0  0  0  0  0  0  0
    5.3346   -9.7468   19.7209 O   0  0  0  0  0  0  0  0  0  0  0  0
    6.1751   -8.4099   22.0940 O   0  0  0  0  0  0  0  0  0  0  0  0
   -2.6854  -11.0136   16.4202 C   0  0  0  0  0  0  0  0  0  0  0  0
   -2.4928  -12.0074   17.1819 O   0  0  0  0  0  0  0  0  0  0  0  0
   -4.0624  -10.7380   15.7416 C   0  0  2  0  0  0  0  0  0  0  0  0
   -7.6872  -11.6635   16.8236 N   0  0  0  0  0  0  0  0  0  0  0  0
   -5.2239  -11.3988   16.5465 C   0  0  0  0  0  0  0  0  0  0  0  0
   -6.6188  -11.0304   16.0139 C   0  0  0  0  0  0  0  0  0  0  0  0
   -4.1392  -11.2304   14.5713 O   0  0  0  0  0  0  0  0  0  0  0  0
  1  2  1  1  0  0  0
  1  3  1  0  0  0  0
  1  8  1  0  0  0  0
  3  4  1  0  0  0  0
  3 32  1  1  0  0  0
  4  5  1  0  0  0  0
  4 33  1  1  0  0  0
  5  6  1  1  0  0  0
  5  7  1  0  0  0  0
  7  8  1  0  0  0  0
  7  9  1  6  0  0  0
  9 10  1  0  0  0  0
 11 12  1  6  0  0  0
 11 13  1  0  0  0  0
 11 19  1  0  0  0  0
 12 34  1  0  0  0  0
 13 14  1  0  0  0  0
 14 15  1  1  0  0  0
 14 16  1  0  0  0  0
 16  2  1  1  0  0  0
 16 17  1  0  0  0  0
 17 18  1  6  0  0  0
 17 19  1  0  0  0  0
 19 20  1  6  0  0  0
 21 20  1  1  0  0  0
 21 22  1  0  0  0  0
 21 29  1  0  0  0  0
 22 23  1  1  0  0  0
 22 24  1  0  0  0  0
 24 25  1  6  0  0  0
 24 26  1  0  0  0  0
 26 27  1  1  0  0  0
 26 28  1  0  0  0  0
 28 29  1  0  0  0  0
 28 30  1  6  0  0  0
 30 31  1  0  0  0  0
 34 35  2  0  0  0  0
 36 34  1  1  0  0  0
 36 38  1  0  0  0  0
 36 40  1  0  0  0  0
 37 39  1  0  0  0  0
 38 39  1  0  0  0  0
M  END
>  <CHROM.1>
-153.81758158,-160.90122653,-168.06072736,-94.43945936,70.39142641,-138.68594375
-68.42743439,-156.17841682,173.56478850,-179.06641159,1.17229739,-9.81058260
16.98848058,-0.91529635,-0.10024111,-2.20536074

>  <Name>
ligand

>  <RI>
0

>  <Rbt.Current_Directory>
/home/itssahil/PROJECTS/Mol_Feturizer/New_Systems/rnas/4P20

>  <Rbt.Executable>
rbdock ($Id: //depot/dev/client3/rdock/2013.1/src/exe/rbdock.cxx#4 $)

>  <Rbt.Library>
libRbt.so (2013.1, Build901 2013/11/27)

>  <Rbt.Parameter_File>
/export/apps/rDock/src/rDock_2013.1_src/data/scripts/dock_solv.prm

>  <Rbt.Receptor>
prm/pocket_docking_4.prm

>  <SCORE>
-15.9498

>  <SCORE.INTER>
-9.32679

>  <SCORE.INTER.CONST>
1

>  <SCORE.INTER.POLAR>
0

>  <SCORE.INTER.ROT>
10

>  <SCORE.INTER.SOLV>
21.1804

>  <SCORE.INTER.VDW>
-23.5447

>  <SCORE.INTER.norm>
-0.23317

>  <SCORE.INTRA>
-6.62299

>  <SCORE.INTRA.DIHEDRAL>
-14.5882

>  <SCORE.INTRA.DIHEDRAL.0>
28.2802

>  <SCORE.INTRA.POLAR>
0

>  <SCORE.INTRA.POLAR.0>
0

>  <SCORE.INTRA.REPUL>
0

>  <SCORE.INTRA.REPUL.0>
0

>  <SCORE.INTRA.SOLV>
-1.15924

>  <SCORE.INTRA.SOLV.lig_0>
-101.981

>  <SCORE.INTRA.VDW>
1.25072

>  <SCORE.INTRA.VDW.0>
-5.72964

>  <SCORE.INTRA.norm>
-0.165575

>  <SCORE.RESTR>
0

>  <SCORE.RESTR.CAVITY>
0

>  <SCORE.RESTR.norm>
0

>  <SCORE.SYSTEM>
0

>  <SCORE.SYSTEM.CONST>
0

>  <SCORE.SYSTEM.DIHEDRAL>
0

>  <SCORE.SYSTEM.SOLV>
0

>  <SCORE.SYSTEM.norm>
0

>  <SCORE.heavy>
40

>  <SCORE.norm>
-0.398744

>  <RMSD>
1.333

$$$$
ligand
 OpenBabel11021811513D
libRbt.so/2013.1/901 2013/11/27
 40 42  0  0  0  0  0  0  0  0999 V2000
    4.2219   -7.8104   19.0251 C   0  0  2  0  0  0  0  0  0  0  0  0
    2.9583   -8.4082   19.3552 O   0  0  0  0  0  0  0  0  0  0  0  0
    5.3658   -8.3949   19.9358 C   0  0  1  0  0  0  0  0  0  0  0  0
    5.1653   -8.0022   21.4286 C   0  0  2  0  0  0  0  0  0  0  0  0
    5.1745   -6.4431   21.5148 C   0  0  2  0  0  0  0  0  0  0  0  0
    5.0165   -6.0419   22.8927 O   0  0  0  0  0  0  0  0  0  0  0  0
    3.9828   -5.8818   20.6225 C   0  0  2  0  0  0  0  0  0  0  0  0
    4.1690   -6.3231   19.1939 O   0  0  0  0  0  0  0  0  0  0  0  0
    3.9188   -4.3606   20.6244 C   0  0  0  0  0  0  0  0  0  0  0  0
    2.6288   -3.8640   20.0502 N   0  0  0  0  0  0  0  0  0  0  0  0
   -0.6234   -9.7479   17.1858 C   0  0  2  0  0  0  0  0  0  0  0  0
   -1.7247   -9.7456   16.2511 N   0  0  0  0  0  0  0  0  0  0  0  0
   -0.7559   -8.5106   18.1628 C   0  0  0  0  0  0  0  0  0  0  0  0
    0.4562   -8.4971   19.1979 C   0  0  2  0  0  0  0  0  0  0  0  0
    0.3213   -7.3434   20.1255 N   0  0  0  0  0  0  0  0  0  0  0  0
    1.8352   -8.4320   18.3910 C   0  0  2  0  0  0  0  0  0  0  0  0
    1.9200   -9.6903   17.4260 C   0  0  2  0  0  0  0  0  0  0  0  0
    3.1519   -9.6432   16.7024 O   0  0  0  0  0  0  0  0  0  0  0  0
    0.7113   -9.6931   16.4090 C   0  0  1  0  0  0  0  0  0  0  0  0
    0.7918  -10.8577   15.5500 O   0  0  0  0  0  0  0  0  0  0  0  0
    0.1483  -10.9999   14.3292 C   0  0  2  0  0  0  0  0  0  0  0  0
   -0.0109  -12.5378   14.0558 C   0  0  2  0  0  0  0  0  0  0  0  0
   -0.7194  -13.1286   15.0970 O   0  0  0  0  0  0  0  0  0  0  0  0
    1.3935  -13.2473   13.8422 C   0  0  1  0  0  0  0  0  0  0  0  0
    1.2181  -14.7077   13.5711 N   0  0  0  0  0  0  0  0  0  0  0  0
    2.1483  -12.5305   12.6389 C   0  0  2  0  0  0  0  0  0  0  0  0
    3.4200  -13.1452   12.3976 O   0  0  0  0  0  0  0  0  0  0  0  0
    2.3026  -11.0020   12.9976 C   0  0  2  0  0  0  0  0  0  0  0  0
    0.9423  -10.3645   13.2464 O   0  0  0  0  0  0  0  0  0  0  0  0
    2.9958  -10.2485   11.8876 C   0  0  0  0  0  0  0  0  0  0  0  0
    4.3336  -10.7221   11.6453 O   0  0  0  0  0  0  0  0  0  0  0  0
    5.3784   -9.8440   19.7810 O   0  0  0  0  0  0  0  0  0  0  0  0
    6.1946   -8.5259   22.1729 O   0  0  0  0  0  0  0  0  0  0  0  0
   -2.8638  -10.5959   16.5085 C   0  0  0  0  0  0  0  0  0  0  0  0
   -2.7337  -11.6152   17.2495 O   0  0  0  0  0  0  0  0  0  0  0  0
   -4.2234  -10.2154   15.8459 C   0  0  2  0  0  0  0  0  0  0  0  0
   -6.5397   -8.1644   15.9130 N   0  0  0  0  0  0  0  0  0  0  0  0
   -5.3570  -10.1178   16.9131 C   0  0  0  0  0  0  0  0  0  0  0  0
   -6.6799   -9.5751   16.3467 C   0  0  0  0  0  0  0  0  0  0  0  0
   -4.6214  -11.0865   15.0087 O   0  0  0  0  0  0  0  0  0  0  0  0
  1  2  1  1  0  0  0
  1  3  1  0  0  0  0
  1  8  1  0  0  0  0
  3  4  1  0  0  0  0
  3 32  1  1  0  0  0
  4  5  1  0  0  0  0
  4 33  1  1  0  0  0
  5  6  1  1  0  0  0
  5  7  1  0  0  0  0
  7  8  1  0  0  0  0
  7  9  1  6  0  0  0
  9 10  1  0  0  0  0
 11 12  1  6  0  0  0
 11 13  1  0  0  0  0
 11 19  1  0  0  0  0
 12 34  1  0  0  0  0
 13 14  1  0  0  0  0
 14 15  1  1  0  0  0
 14 16  1  0  0  0  0
 16  2  1  1  0  0  0
 16 17  1  0  0  0  0
 17 18  1  6  0  0  0
 17 19  1  0  0  0  0
 19 20  1  6  0  0  0
 21 20  1  1  0  0  0
 21 22  1  0  0  0  0
 21 29  1  0  0  0  0
 22 23  1  1  0  0  0
 22 24  1  0  0  0  0
 24 25  1  6  0  0  0
 24 26  1  0  0  0  0
 26 27  1  1  0  0  0
 26 28  1  0  0  0  0
 28 29  1  0  0  0  0
 28 30  1  6  0  0  0
 30 31  1  0  0  0  0
 34 35  2  0  0  0  0
 36 34  1  1  0  0  0
 36 38  1  0  0  0  0
 36 40  1  0  0  0  0
 37 39  1  0  0  0  0
 38 39  1  0  0  0  0
M  END
>  <CHROM.1>
-157.69166692,-153.53015843,-166.96217298,-98.51651808,79.17271958,-155.98343170
-61.87036397,-126.47389327,172.78627718,-65.69285318,1.17582116,-9.51741210
17.03103737,-0.89446498,0.01502056,-2.20815080

>  <Name>
ligand

>  <RI>
0

>  <Rbt.Current_Directory>
/home/itssahil/PROJECTS/Mol_Feturizer/New_Systems/rnas/4P20

>  <Rbt.Executable>
rbdock ($Id: //depot/dev/client3/rdock/2013.1/src/exe/rbdock.cxx#4 $)

>  <Rbt.Library>
libRbt.so (2013.1, Build901 2013/11/27)

>  <Rbt.Parameter_File>
/export/apps/rDock/src/rDock_2013.1_src/data/scripts/dock_solv.prm

>  <Rbt.Receptor>
prm/pocket_docking_3.prm

>  <SCORE>
-15.6044

>  <SCORE.INTER>
-9.24034

>  <SCORE.INTER.CONST>
1

>  <SCORE.INTER.POLAR>
0

>  <SCORE.INTER.ROT>
10

>  <SCORE.INTER.SOLV>
21.9468

>  <SCORE.INTER.VDW>
-23.7425

>  <SCORE.INTER.norm>
-0.231009

>  <SCORE.INTRA>
-6.36916

>  <SCORE.INTRA.DIHEDRAL>
-14.8017

>  <SCORE.INTRA.DIHEDRAL.0>
28.2802

>  <SCORE.INTRA.POLAR>
0

>  <SCORE.INTRA.POLAR.0>
0

>  <SCORE.INTRA.REPUL>
0

>  <SCORE.INTRA.REPUL.0>
0

>  <SCORE.INTRA.SOLV>
0.147128

>  <SCORE.INTRA.SOLV.lig_0>
-101.981

>  <SCORE.INTRA.VDW>
0.958146

>  <SCORE.INTRA.VDW.0>
-5.72964

>  <SCORE.INTRA.norm>
-0.159229

>  <SCORE.RESTR>
0.00515113

>  <SCORE.RESTR.CAVITY>
0.00515113

>  <SCORE.RESTR.norm>
0.000128778

>  <SCORE.SYSTEM>
0

>  <SCORE.SYSTEM.CONST>
0

>  <SCORE.SYSTEM.DIHEDRAL>
0

>  <SCORE.SYSTEM.SOLV>
0

>  <SCORE.SYSTEM.norm>
0

>  <SCORE.heavy>
40

>  <SCORE.norm>
-0.390109

>  <RMSD>
1.385

$$$$
ligand
 OpenBabel11021811513D
libRbt.so/2013.1/901 2013/11/27
 40 42  0  0  0  0  0  0  0  0999 V2000
    3.8306   -7.5218   18.7541 C   0  0  2  0  0  0  0  0  0  0  0  0
    2.8388   -8.5131   19.0649 O   0  0  0  0  0  0  0  0  0  0  0  0
    5.1709   -7.8186   19.5253 C   0  0  1  0  0  0  0  0  0  0  0  0
    4.9902   -7.6710   21.0643 C   0  0  2  0  0  0  0  0  0  0  0  0
    4.5367   -6.2045   21.3506 C   0  0  2  0  0  0  0  0  0  0  0  0
    4.3838   -6.0234   22.7748 O   0  0  0  0  0  0  0  0  0  0  0  0
    3.1594   -5.9464   20.5970 C   0  0  2  0  0  0  0  0  0  0  0  0
    3.3468   -6.1512   19.1161 O   0  0  0  0  0  0  0  0  0  0  0  0
    2.6407   -4.5292   20.7985 C   0  0  0  0  0  0  0  0  0  0  0  0
    3.6782   -3.5090   20.4471 N   0  0  0  0  0  0  0  0  0  0  0  0
   -0.9391  -10.1385   17.5109 C   0  0  2  0  0  0  0  0  0  0  0  0
   -2.1472  -10.2540   16.7275 N   0  0  0  0  0  0  0  0  0  0  0  0
   -0.9893   -8.8099   18.3682 C   0  0  0  0  0  0  0  0  0  0  0  0
    0.3406   -8.6662   19.2351 C   0  0  2  0  0  0  0  0  0  0  0  0
    0.2846   -7.4258   20.0524 N   0  0  0  0  0  0  0  0  0  0  0  0
    1.6062   -8.6580   18.2579 C   0  0  2  0  0  0  0  0  0  0  0  0
    1.6113  -10.0073   17.4204 C   0  0  2  0  0  0  0  0  0  0  0  0
    2.7419  -10.0112   16.5458 O   0  0  0  0  0  0  0  0  0  0  0  0
    0.2867  -10.1383   16.5698 C   0  0  1  0  0  0  0  0  0  0  0  0
    0.2976  -11.3836   15.8283 O   0  0  0  0  0  0  0  0  0  0  0  0
   -0.2536  -11.5720   14.5691 C   0  0  2  0  0  0  0  0  0  0  0  0
   -0.3254  -13.1192   14.3121 C   0  0  2  0  0  0  0  0  0  0  0  0
   -1.0770  -13.7268   15.3127 O   0  0  0  0  0  0  0  0  0  0  0  0
    1.1203  -13.7674   14.2068 C   0  0  1  0  0  0  0  0  0  0  0  0
    1.0287  -15.2379   13.9497 N   0  0  0  0  0  0  0  0  0  0  0  0
    1.9236  -13.0343   13.0456 C   0  0  2  0  0  0  0  0  0  0  0  0
    3.2349  -13.5942   12.9020 O   0  0  0  0  0  0  0  0  0  0  0  0
    1.9852  -11.4954   13.3876 C   0  0  2  0  0  0  0  0  0  0  0  0
    0.5842  -10.9168   13.5321 O   0  0  0  0  0  0  0  0  0  0  0  0
    2.7191  -10.7272   12.3144 C   0  0  0  0  0  0  0  0  0  0  0  0
    2.8232   -9.3219   12.6094 O   0  0  0  0  0  0  0  0  0  0  0  0
    5.6061   -9.1670   19.1841 O   0  0  0  0  0  0  0  0  0  0  0  0
    6.1892   -7.9279   21.6840 O   0  0  0  0  0  0  0  0  0  0  0  0
   -3.0159  -11.3881   16.9424 C   0  0  0  0  0  0  0  0  0  0  0  0
   -2.5493  -12.4511   17.4496 O   0  0  0  0  0  0  0  0  0  0  0  0
   -4.5130  -11.2498   16.5277 C   0  0  2  0  0  0  0  0  0  0  0  0
   -6.6421   -8.1442   15.5408 N   0  0  0  0  0  0  0  0  0  0  0  0
   -4.8713   -9.7639   16.2157 C   0  0  0  0  0  0  0  0  0  0  0  0
   -6.3111   -9.5797   15.7077 C   0  0  0  0  0  0  0  0  0  0  0  0
   -5.3121  -11.6032   17.4522 O   0  0  0  0  0  0  0  0  0  0  0  0
  1  2  1  1  0  0  0
  1  3  1  0  0  0  0
  1  8  1  0  0  0  0
  3  4  1  0  0  0  0
  3 32  1  1  0  0  0
  4  5  1  0  0  0  0
  4 33  1  1  0  0  0
  5  6  1  1  0  0  0
  5  7  1  0  0  0  0
  7  8  1  0  0  0  0
  7  9  1  6  0  0  0
  9 10  1  0  0  0  0
 11 12  1  6  0  0  0
 11 13  1  0  0  0  0
 11 19  1  0  0  0  0
 12 34  1  0  0  0  0
 13 14  1  0  0  0  0
 14 15  1  6  0  0  0
 14 16  1  0  0  0  0
 16  2  1  1  0  0  0
 16 17  1  0  0  0  0
 17 18  1  6  0  0  0
 17 19  1  0  0  0  0
 19 20  1  1  0  0  0
 21 20  1  1  0  0  0
 21 22  1  0  0  0  0
 21 29  1  0  0  0  0
 22 23  1  1  0  0  0
 22 24  1  0  0  0  0
 24 25  1  6  0  0  0
 24 26  1  0  0  0  0
 26 27  1  1  0  0  0
 26 28  1  0  0  0  0
 28 29  1  0  0  0  0
 28 30  1  6  0  0  0
 30 31  1  0  0  0  0
 34 35  2  0  0  0  0
 36 34  1  1  0  0  0
 36 38  1  0  0  0  0
 36 40  1  0  0  0  0
 37 39  1  0  0  0  0
 38 39  1  0  0  0  0
M  END
>  <CHROM.1>
-165.84511078,-129.42735853,52.84526021,-118.82461986,94.00967721,-166.36535458
-178.58307061,-12.02258967,176.04792548,174.94208467,0.88678697,-9.68672584
17.17011316,-0.91046698,-0.01911354,-2.30835401

>  <Name>
ligand

>  <RI>
0

>  <Rbt.Current_Directory>
/home/itssahil/PROJECTS/Mol_Feturizer/New_Systems/rnas/4P20

>  <Rbt.Executable>
rbdock ($Id: //depot/dev/client3/rdock/2013.1/src/exe/rbdock.cxx#4 $)

>  <Rbt.Library>
libRbt.so (2013.1, Build901 2013/11/27)

>  <Rbt.Parameter_File>
/export/apps/rDock/src/rDock_2013.1_src/data/scripts/dock_solv.prm

>  <Rbt.Receptor>
prm/pocket_docking_2.prm

>  <SCORE>
-11.1668

>  <SCORE.INTER>
-7.25184

>  <SCORE.INTER.CONST>
1

>  <SCORE.INTER.POLAR>
0

>  <SCORE.INTER.ROT>
10

>  <SCORE.INTER.SOLV>
22.3555

>  <SCORE.INTER.VDW>
-22.553

>  <SCORE.INTER.norm>
-0.181296

>  <SCORE.INTRA>
-4.25685

>  <SCORE.INTRA.DIHEDRAL>
-11.4798

>  <SCORE.INTRA.DIHEDRAL.0>
28.2802

>  <SCORE.INTRA.POLAR>
0

>  <SCORE.INTRA.POLAR.0>
0

>  <SCORE.INTRA.REPUL>
0

>  <SCORE.INTRA.REPUL.0>
0

>  <SCORE.INTRA.SOLV>
1.87381

>  <SCORE.INTRA.SOLV.lig_0>
-101.981

>  <SCORE.INTRA.VDW>
0.546162

>  <SCORE.INTRA.VDW.0>
-5.72964

>  <SCORE.INTRA.norm>
-0.106421

>  <SCORE.RESTR>
0.341891

>  <SCORE.RESTR.CAVITY>
0.341891

>  <SCORE.RESTR.norm>
0.00854727

>  <SCORE.SYSTEM>
0

>  <SCORE.SYSTEM.CONST>
0

>  <SCORE.SYSTEM.DIHEDRAL>
0

>  <SCORE.SYSTEM.SOLV>
0

>  <SCORE.SYSTEM.norm>
0

>  <SCORE.heavy>
40

>  <SCORE.norm>
-0.27917

>  <RMSD>
1.390

$$$$
ligand
 OpenBabel11021811513D
libRbt.so/2013.1/901 2013/11/27
 40 42  0  0  0  0  0  0  0  0999 V2000
    2.7429   -6.9956   18.6186 C   0  0  2  0  0  0  0  0  0  0  0  0
    1.9053   -8.0318   19.1550 O   0  0  0  0  0  0  0  0  0  0  0  0
    4.2526   -7.2627   18.9773 C   0  0  1  0  0  0  0  0  0  0  0  0
    4.5024   -7.1643   20.5106 C   0  0  2  0  0  0  0  0  0  0  0  0
    4.1045   -5.7244   20.9651 C   0  0  2  0  0  0  0  0  0  0  0  0
    4.3482   -5.5883   22.3816 O   0  0  0  0  0  0  0  0  0  0  0  0
    2.5653   -5.4979   20.6320 C   0  0  2  0  0  0  0  0  0  0  0  0
    2.3396   -5.6547   19.1505 O   0  0  0  0  0  0  0  0  0  0  0  0
    2.0826   -4.1073   21.0212 C   0  0  0  0  0  0  0  0  0  0  0  0
    2.9320   -3.0387   20.4071 N   0  0  0  0  0  0  0  0  0  0  0  0
   -2.0786   -9.8112   18.6146 C   0  0  2  0  0  0  0  0  0  0  0  0
   -3.4279   -9.9988   18.1346 N   0  0  0  0  0  0  0  0  0  0  0  0
   -1.9718   -8.4219   19.3637 C   0  0  0  0  0  0  0  0  0  0  0  0
   -0.4858   -8.1984   19.8954 C   0  0  2  0  0  0  0  0  0  0  0  0
   -0.3912   -6.9002   20.6132 N   0  0  0  0  0  0  0  0  0  0  0  0
    0.5276   -8.2509   18.6596 C   0  0  2  0  0  0  0  0  0  0  0  0
    0.3819   -9.6597   17.9414 C   0  0  2  0  0  0  0  0  0  0  0  0
    1.2871   -9.7179   16.8367 O   0  0  0  0  0  0  0  0  0  0  0  0
   -1.0957   -9.8693   17.4235 C   0  0  1  0  0  0  0  0  0  0  0  0
   -1.2171  -11.1671   16.7898 O   0  0  0  0  0  0  0  0  0  0  0  0
   -1.4453  -11.3814   15.4382 C   0  0  2  0  0  0  0  0  0  0  0  0
   -1.5468  -12.9324   15.2168 C   0  0  2  0  0  0  0  0  0  0  0  0
   -2.5617  -13.4546   16.0120 O   0  0  0  0  0  0  0  0  0  0  0  0
   -0.1642  -13.6603   15.4998 C   0  0  1  0  0  0  0  0  0  0  0  0
   -0.2799  -15.1338   15.2710 N   0  0  0  0  0  0  0  0  0  0  0  0
    0.9488  -13.0227   14.5586 C   0  0  2  0  0  0  0  0  0  0  0  0
    2.2166  -13.6570   14.7679 O   0  0  0  0  0  0  0  0  0  0  0  0
    1.0185  -11.4756   14.8598 C   0  0  2  0  0  0  0  0  0  0  0  0
   -0.3351  -10.8178   14.6281 O   0  0  0  0  0  0  0  0  0  0  0  0
    2.0446  -10.7954   13.9852 C   0  0  0  0  0  0  0  0  0  0  0  0
    1.8675  -11.0913   12.5874 O   0  0  0  0  0  0  0  0  0  0  0  0
    4.6143   -8.5838   18.4796 O   0  0  0  0  0  0  0  0  0  0  0  0
    5.8332   -7.3927   20.7645 O   0  0  0  0  0  0  0  0  0  0  0  0
   -3.9661   -9.0640   17.1737 C   0  0  0  0  0  0  0  0  0  0  0  0
   -3.4758   -7.8991   17.0861 O   0  0  0  0  0  0  0  0  0  0  0  0
   -5.1502   -9.5394   16.2767 C   0  0  2  0  0  0  0  0  0  0  0  0
   -6.9896  -11.9285   16.6429 N   0  0  0  0  0  0  0  0  0  0  0  0
   -4.8848  -10.9695   15.7130 C   0  0  0  0  0  0  0  0  0  0  0  0
   -6.1734  -11.7551   15.4174 C   0  0  0  0  0  0  0  0  0  0  0  0
   -5.3193   -8.7996   15.2559 O   0  0  0  0  0  0  0  0  0  0  0  0
  1  2  1  1  0  0  0
  1  3  1  0  0  0  0
  1  8  1  0  0  0  0
  3  4  1  0  0  0  0
  3 32  1  1  0  0  0
  4  5  1  0  0  0  0
  4 33  1  6  0  0  0
  5  6  1  1  0  0  0
  5  7  1  0  0  0  0
  7  8  1  0  0  0  0
  7  9  1  6  0  0  0
  9 10  1  0  0  0  0
 11 12  1  6  0  0  0
 11 13  1  0  0  0  0
 11 19  1  0  0  0  0
 12 34  1  0  0  0  0
 13 14  1  0  0  0  0
 14 15  1  6  0  0  0
 14 16  1  0  0  0  0
 16  2  1  1  0  0  0
 16 17  1  0  0  0  0
 17 18  1  6  0  0  0
 17 19  1  0  0  0  0
 19 20  1  1  0  0  0
 21 20  1  1  0  0  0
 21 22  1  0  0  0  0
 21 29  1  0  0  0  0
 22 23  1  1  0  0  0
 22 24  1  0  0  0  0
 24 25  1  6  0  0  0
 24 26  1  0  0  0  0
 26 27  1  1  0  0  0
 26 28  1  0  0  0  0
 28 29  1  0  0  0  0
 28 30  1  6  0  0  0
 30 31  1  0  0  0  0
 34 35  2  0  0  0  0
 36 34  1  6  0  0  0
 36 38  1  0  0  0  0
 36 40  1  0  0  0  0
 37 39  1  0  0  0  0
 38 39  1  0  0  0  0
M  END
>  <CHROM.1>
-162.23188675,-125.14850073,54.23351165,61.72197032,127.26437153,-178.26834653
51.81029416,-44.95474986,152.51133294,-59.98776600,0.02720656,-9.36080652
17.52387031,-0.87016604,0.02113078,-2.45557748

>  <Name>
ligand

>  <RI>
0

>  <Rbt.Current_Directory>
/home/itssahil/PROJECTS/Mol_Feturizer/New_Systems/rnas/4P20

>  <Rbt.Executable>
rbdock ($Id: //depot/dev/client3/rdock/2013.1/src/exe/rbdock.cxx#4 $)

>  <Rbt.Library>
libRbt.so (2013.1, Build901 2013/11/27)

>  <Rbt.Parameter_File>
/export/apps/rDock/src/rDock_2013.1_src/data/scripts/dock_solv.prm

>  <Rbt.Receptor>
prm/pocket_docking_2.prm

>  <SCORE>
-3.23344

>  <SCORE.INTER>
-1.77266

>  <SCORE.INTER.CONST>
1

>  <SCORE.INTER.POLAR>
0

>  <SCORE.INTER.ROT>
10

>  <SCORE.INTER.SOLV>
23.8658

>  <SCORE.INTER.VDW>
-19.4037

>  <SCORE.INTER.norm>
-0.0443165

>  <SCORE.INTRA>
-1.50461

>  <SCORE.INTRA.DIHEDRAL>
-9.15082

>  <SCORE.INTRA.DIHEDRAL.0>
28.2802

>  <SCORE.INTRA.POLAR>
0

>  <SCORE.INTRA.POLAR.0>
0

>  <SCORE.INTRA.REPUL>
0

>  <SCORE.INTRA.REPUL.0>
0

>  <SCORE.INTRA.SOLV>
4.03394

>  <SCORE.INTRA.SOLV.lig_0>
-101.981

>  <SCORE.INTRA.VDW>
1.05383

>  <SCORE.INTRA.VDW.0>
-5.72964

>  <SCORE.INTRA.norm>
-0.0376152

>  <SCORE.RESTR>
0.0438295

>  <SCORE.RESTR.CAVITY>
0.0438295

>  <SCORE.RESTR.norm>
0.00109574

>  <SCORE.SYSTEM>
0

>  <SCORE.SYSTEM.CONST>
0

>  <SCORE.SYSTEM.DIHEDRAL>
0

>  <SCORE.SYSTEM.SOLV>
0

>  <SCORE.SYSTEM.norm>
0

>  <SCORE.heavy>
40

>  <SCORE.norm>
-0.080836

>  <RMSD>
1.395

$$$$
ligand
 OpenBabel11021811513D
libRbt.so/2013.1/901 2013/11/27
 40 42  0  0  0  0  0  0  0  0999 V2000
    2.2563   -6.9588   18.4664 C   0  0  2  0  0  0  0  0  0  0  0  0
    1.3033   -7.7109   19.2339 O   0  0  0  0  0  0  0  0  0  0  0  0
    3.7175   -7.4819   18.7318 C   0  0  1  0  0  0  0  0  0  0  0  0
    4.1599   -7.2223   20.2015 C   0  0  2  0  0  0  0  0  0  0  0  0
    4.1037   -5.6816   20.4492 C   0  0  2  0  0  0  0  0  0  0  0  0
    4.5337   -5.4007   21.7985 O   0  0  0  0  0  0  0  0  0  0  0  0
    2.6089   -5.1880   20.2180 C   0  0  2  0  0  0  0  0  0  0  0  0
    2.1849   -5.5019   18.8067 O   0  0  0  0  0  0  0  0  0  0  0  0
    2.4529   -3.6866   20.4169 C   0  0  0  0  0  0  0  0  0  0  0  0
    2.7073   -3.2911   21.8379 N   0  0  0  0  0  0  0  0  0  0  0  0
   -2.0122  -10.3884   18.1530 C   0  0  2  0  0  0  0  0  0  0  0  0
   -3.2568  -10.8450   17.5795 N   0  0  0  0  0  0  0  0  0  0  0  0
   -2.2986   -9.2108   19.1699 C   0  0  0  0  0  0  0  0  0  0  0  0
   -0.9327   -8.6928   19.8078 C   0  0  2  0  0  0  0  0  0  0  0  0
   -1.2052   -7.5976   20.7752 N   0  0  0  0  0  0  0  0  0  0  0  0
    0.0403   -8.2018   18.6378 C   0  0  2  0  0  0  0  0  0  0  0  0
    0.2954   -9.4150   17.6453 C   0  0  2  0  0  0  0  0  0  0  0  0
    1.1678   -8.9869   16.5970 O   0  0  0  0  0  0  0  0  0  0  0  0
   -1.0662   -9.9205   17.0241 C   0  0  1  0  0  0  0  0  0  0  0  0
   -0.8187  -11.0402   16.1378 O   0  0  0  0  0  0  0  0  0  0  0  0
   -1.0103  -11.0329   14.7637 C   0  0  2  0  0  0  0  0  0  0  0  0
   -0.8604  -12.5118   14.2584 C   0  0  2  0  0  0  0  0  0  0  0  0
   -1.7774  -13.3270   14.9141 O   0  0  0  0  0  0  0  0  0  0  0  0
    0.6217  -13.0510   14.4435 C   0  0  1  0  0  0  0  0  0  0  0  0
    0.7449  -14.4556   13.9448 N   0  0  0  0  0  0  0  0  0  0  0  0
    1.6167  -12.0813   13.6685 C   0  0  2  0  0  0  0  0  0  0  0  0
    2.9704  -12.5342   13.7950 O   0  0  0  0  0  0  0  0  0  0  0  0
    1.4362  -10.6260   14.2505 C   0  0  2  0  0  0  0  0  0  0  0  0
   -0.0059  -10.1597   14.1038 O   0  0  0  0  0  0  0  0  0  0  0  0
    2.3386   -9.6411   13.5462 C   0  0  0  0  0  0  0  0  0  0  0  0
    3.7306   -9.9959   13.6418 O   0  0  0  0  0  0  0  0  0  0  0  0
    3.7564   -8.9062   18.4256 O   0  0  0  0  0  0  0  0  0  0  0  0
    5.4420   -7.6853   20.3731 O   0  0  0  0  0  0  0  0  0  0  0  0
   -3.9778   -9.9709   16.6834 C   0  0  0  0  0  0  0  0  0  0  0  0
   -3.7882   -8.7194   16.7371 O   0  0  0  0  0  0  0  0  0  0  0  0
   -4.9776  -10.6200   15.6777 C   0  0  2  0  0  0  0  0  0  0  0  0
   -8.0107  -11.2479   15.2953 N   0  0  0  0  0  0  0  0  0  0  0  0
   -5.8147  -11.7412   16.3672 C   0  0  0  0  0  0  0  0  0  0  0  0
   -6.9581  -12.2741   15.4876 C   0  0  0  0  0  0  0  0  0  0  0  0
   -4.3916  -11.1875   14.7016 O   0  0  0  0  0  0  0  0  0  0  0  0
  1  2  1  1  0  0  0
  1  3  1  0  0  0  0
  1  8  1  0  0  0  0
  3  4  1  0  0  0  0
  3 32  1  1  0  0  0
  4  5  1  0  0  0  0
  4 33  1  6  0  0  0
  5  6  1  1  0  0  0
  5  7  1  0  0  0  0
  7  8  1  0  0  0  0
  7  9  1  6  0  0  0
  9 10  1  0  0  0  0
 11 12  1  6  0  0  0
 11 13  1  0  0  0  0
 11 19  1  0  0  0  0
 12 34  1  0  0  0  0
 13 14  1  0  0  0  0
 14 15  1  1  0  0  0
 14 16  1  0  0  0  0
 16  2  1  1  0  0  0
 16 17  1  0  0  0  0
 17 18  1  6  0  0  0
 17 19  1  0  0  0  0
 19 20  1  6  0  0  0
 21 20  1  1  0  0  0
 21 22  1  0  0  0  0
 21 29  1  0  0  0  0
 22 23  1  1  0  0  0
 22 24  1  0  0  0  0
 24 25  1  6  0  0  0
 24 26  1  0  0  0  0
 26 27  1  1  0  0  0
 26 28  1  0  0  0  0
 28 29  1  0  0  0  0
 28 30  1  6  0  0  0
 30 31  1  0  0  0  0
 34 35  2  0  0  0  0
 36 34  1  1  0  0  0
 36 38  1  0  0  0  0
 36 40  1  0  0  0  0
 37 39  1  0  0  0  0
 38 39  1  0  0  0  0
M  END
>  <CHROM.1>
-135.14667003,-167.07135448,-65.49669488,68.33412751,126.20803647,-170.27396021
-58.23097716,42.43727996,171.45030178,-68.27259141,0.07168229,-9.35207666
17.15412763,0.84578766,0.11929474,0.82192533

>  <Name>
ligand

>  <RI>
0

>  <Rbt.Current_Directory>
/home/itssahil/PROJECTS/Mol_Feturizer/New_Systems/rnas/4P20

>  <Rbt.Executable>
rbdock ($Id: //depot/dev/client3/rdock/2013.1/src/exe/rbdock.cxx#4 $)

>  <Rbt.Library>
libRbt.so (2013.1, Build901 2013/11/27)

>  <Rbt.Parameter_File>
/export/apps/rDock/src/rDock_2013.1_src/data/scripts/dock_solv.prm

>  <Rbt.Receptor>
prm/pocket_docking_2.prm

>  <SCORE>
-9.64894

>  <SCORE.INTER>
-5.74284

>  <SCORE.INTER.CONST>
1

>  <SCORE.INTER.POLAR>
0

>  <SCORE.INTER.ROT>
10

>  <SCORE.INTER.SOLV>
22.3814

>  <SCORE.INTER.VDW>
-21.5557

>  <SCORE.INTER.norm>
-0.143571

>  <SCORE.INTRA>
-4.05681

>  <SCORE.INTRA.DIHEDRAL>
-12.0708

>  <SCORE.INTRA.DIHEDRAL.0>
28.2802

>  <SCORE.INTRA.POLAR>
0

>  <SCORE.INTRA.POLAR.0>
0

>  <SCORE.INTRA.REPUL>
0

>  <SCORE.INTRA.REPUL.0>
0

>  <SCORE.INTRA.SOLV>
1.89526

>  <SCORE.INTRA.SOLV.lig_0>
-101.981

>  <SCORE.INTRA.VDW>
1.03098

>  <SCORE.INTRA.VDW.0>
-5.72964

>  <SCORE.INTRA.norm>
-0.10142

>  <SCORE.RESTR>
0.150702

>  <SCORE.RESTR.CAVITY>
0.150702

>  <SCORE.RESTR.norm>
0.00376755

>  <SCORE.SYSTEM>
0

>  <SCORE.SYSTEM.CONST>
0

>  <SCORE.SYSTEM.DIHEDRAL>
0

>  <SCORE.SYSTEM.SOLV>
0

>  <SCORE.SYSTEM.norm>
0

>  <SCORE.heavy>
40

>  <SCORE.norm>
-0.241224

>  <RMSD>
1.404

$$$$
ligand
 OpenBabel11021811513D
libRbt.so/2013.1/901 2013/11/27
 40 42  0  0  0  0  0  0  0  0999 V2000
    3.2166   -6.6735   18.7907 C   0  0  2  0  0  0  0  0  0  0  0  0
    2.1228   -7.5125   19.1939 O   0  0  0  0  0  0  0  0  0  0  0  0
    4.5879   -7.2859   19.2640 C   0  0  1  0  0  0  0  0  0  0  0  0
    4.7030   -7.2995   20.8162 C   0  0  2  0  0  0  0  0  0  0  0  0
    4.5908   -5.8236   21.3136 C   0  0  2  0  0  0  0  0  0  0  0  0
    4.7197   -5.7950   22.7513 O   0  0  0  0  0  0  0  0  0  0  0  0
    3.1795   -5.2449   20.8610 C   0  0  2  0  0  0  0  0  0  0  0  0
    3.0699   -5.2955   19.3591 O   0  0  0  0  0  0  0  0  0  0  0  0
    2.9805   -3.7957   21.2834 C   0  0  0  0  0  0  0  0  0  0  0  0
    3.9529   -2.8856   20.6003 N   0  0  0  0  0  0  0  0  0  0  0  0
   -1.0936   -9.6635   17.1063 C   0  0  2  0  0  0  0  0  0  0  0  0
   -2.2181   -9.9105   16.2341 N   0  0  0  0  0  0  0  0  0  0  0  0
   -1.4931   -8.5848   18.1924 C   0  0  0  0  0  0  0  0  0  0  0  0
   -0.2595   -8.2981   19.1602 C   0  0  2  0  0  0  0  0  0  0  0  0
   -0.6416   -7.2966   20.1900 N   0  0  0  0  0  0  0  0  0  0  0  0
    0.9824   -7.7887   18.2912 C   0  0  2  0  0  0  0  0  0  0  0  0
    1.3431   -8.9019   17.2176 C   0  0  2  0  0  0  0  0  0  0  0  0
    2.4553   -8.4572   16.4376 O   0  0  0  0  0  0  0  0  0  0  0  0
    0.1110   -9.1786   16.2686 C   0  0  1  0  0  0  0  0  0  0  0  0
    0.4493  -10.2107   15.3090 O   0  0  0  0  0  0  0  0  0  0  0  0
    0.3371  -10.0927   13.9312 C   0  0  2  0  0  0  0  0  0  0  0  0
    0.3053  -11.5444   13.3341 C   0  0  2  0  0  0  0  0  0  0  0  0
   -0.7521  -12.2573   13.8898 O   0  0  0  0  0  0  0  0  0  0  0  0
    1.6842  -12.3015   13.5504 C   0  0  1  0  0  0  0  0  0  0  0  0
    1.6361  -13.6764   12.9638 N   0  0  0  0  0  0  0  0  0  0  0  0
    2.8471  -11.4399   12.8899 C   0  0  2  0  0  0  0  0  0  0  0  0
    4.1145  -12.0897   13.0477 O   0  0  0  0  0  0  0  0  0  0  0  0
    2.8411  -10.0118   13.5603 C   0  0  2  0  0  0  0  0  0  0  0  0
    1.4893   -9.3347   13.3792 O   0  0  0  0  0  0  0  0  0  0  0  0
    3.9107   -9.1262   12.9670 C   0  0  0  0  0  0  0  0  0  0  0  0
    4.1569   -7.9472   13.7558 O   0  0  0  0  0  0  0  0  0  0  0  0
    4.6954   -8.6365   18.7270 O   0  0  0  0  0  0  0  0  0  0  0  0
    5.9193   -7.8302   21.1718 O   0  0  0  0  0  0  0  0  0  0  0  0
   -3.3739  -10.6001   16.7591 C   0  0  0  0  0  0  0  0  0  0  0  0
   -3.2536  -11.3459   17.7761 O   0  0  0  0  0  0  0  0  0  0  0  0
   -4.7388  -10.3947   16.0331 C   0  0  2  0  0  0  0  0  0  0  0  0
   -6.8514   -9.0804   17.8970 N   0  0  0  0  0  0  0  0  0  0  0  0
   -5.8939  -11.1058   16.8035 C   0  0  0  0  0  0  0  0  0  0  0  0
   -6.2537  -10.4170   18.1305 C   0  0  0  0  0  0  0  0  0  0  0  0
   -4.7527  -10.8968   14.8644 O   0  0  0  0  0  0  0  0  0  0  0  0
  1  2  1  1  0  0  0
  1  3  1  0  0  0  0
  1  8  1  0  0  0  0
  3  4  1  0  0  0  0
  3 32  1  1  0  0  0
  4  5  1  0  0  0  0
  4 33  1  6  0  0  0
  5  6  1  1  0  0  0
  5  7  1  0  0  0  0
  7  8  1  0  0  0  0
  7  9  1  6  0  0  0
  9 10  1  0  0  0  0
 11 12  1  6  0  0  0
 11 13  1  0  0  0  0
 11 19  1  0  0  0  0
 12 34  1  0  0  0  0
 13 14  1  0  0  0  0
 14 15  1  1  0  0  0
 14 16  1  0  0  0  0
 16  2  1  1  0  0  0
 16 17  1  0  0  0  0
 17 18  1  6  0  0  0
 17 19  1  0  0  0  0
 19 20  1  6  0  0  0
 21 20  1  1  0  0  0
 21 22  1  0  0  0  0
 21 29  1  0  0  0  0
 22 23  1  1  0  0  0
 22 24  1  0  0  0  0
 24 25  1  6  0  0  0
 24 26  1  0  0  0  0
 26 27  1  1  0  0  0
 26 28  1  0  0  0  0
 28 29  1  0  0  0  0
 28 30  1  6  0  0  0
 30 31  1  0  0  0  0
 34 35  2  0  0  0  0
 36 34  1  1  0  0  0
 36 38  1  0  0  0  0
 36 40  1  0  0  0  0
 37 39  1  0  0  0  0
 38 39  1  0  0  0  0
M  END
>  <CHROM.1>
-138.52016468,-160.56071708,64.78225297,-69.52648415,114.31169296,-160.09555118
-165.82226214,-174.94562389,70.98542630,67.08285587,0.91252413,-8.90224107
17.09590151,0.82701795,0.18935730,0.97081487

>  <Name>
ligand

>  <RI>
0

>  <Rbt.Current_Directory>
/home/itssahil/PROJECTS/Mol_Feturizer/New_Systems/rnas/4P20

>  <Rbt.Executable>
rbdock ($Id: //depot/dev/client3/rdock/2013.1/src/exe/rbdock.cxx#4 $)

>  <Rbt.Library>
libRbt.so (2013.1, Build901 2013/11/27)

>  <Rbt.Parameter_File>
/export/apps/rDock/src/rDock_2013.1_src/data/scripts/dock_solv.prm

>  <Rbt.Receptor>
prm/pocket_docking_3.prm

>  <SCORE>
-10.0943

>  <SCORE.INTER>
-6.46874

>  <SCORE.INTER.CONST>
1

>  <SCORE.INTER.POLAR>
0

>  <SCORE.INTER.ROT>
10

>  <SCORE.INTER.SOLV>
25.0489

>  <SCORE.INTER.VDW>
-22.9288

>  <SCORE.INTER.norm>
-0.161718

>  <SCORE.INTRA>
-3.62556

>  <SCORE.INTRA.DIHEDRAL>
-9.81692

>  <SCORE.INTRA.DIHEDRAL.0>
28.2802

>  <SCORE.INTRA.POLAR>
0

>  <SCORE.INTRA.POLAR.0>
0

>  <SCORE.INTRA.REPUL>
0

>  <SCORE.INTRA.REPUL.0>
0

>  <SCORE.INTRA.SOLV>
0.82668

>  <SCORE.INTRA.SOLV.lig_0>
-101.981

>  <SCORE.INTRA.VDW>
0.869564

>  <SCORE.INTRA.VDW.0>
-5.72964

>  <SCORE.INTRA.norm>
-0.0906389

>  <SCORE.RESTR>
0

>  <SCORE.RESTR.CAVITY>
0

>  <SCORE.RESTR.norm>
0

>  <SCORE.SYSTEM>
0

>  <SCORE.SYSTEM.CONST>
0

>  <SCORE.SYSTEM.DIHEDRAL>
0

>  <SCORE.SYSTEM.SOLV>
0

>  <SCORE.SYSTEM.norm>
0

>  <SCORE.heavy>
40

>  <SCORE.norm>
-0.252357

>  <RMSD>
1.413

$$$$
ligand
 OpenBabel11021811513D
libRbt.so/2013.1/901 2013/11/27
 40 42  0  0  0  0  0  0  0  0999 V2000
    3.5293   -6.8134   18.9374 C   0  0  2  0  0  0  0  0  0  0  0  0
    2.4009   -7.6387   19.2670 O   0  0  0  0  0  0  0  0  0  0  0  0
    4.8474   -7.4002   19.5681 C   0  0  1  0  0  0  0  0  0  0  0  0
    4.8100   -7.3475   21.1233 C   0  0  2  0  0  0  0  0  0  0  0  0
    4.6504   -5.8523   21.5441 C   0  0  2  0  0  0  0  0  0  0  0  0
    4.6380   -5.7623   22.9850 O   0  0  0  0  0  0  0  0  0  0  0  0
    3.2905   -5.2985   20.9314 C   0  0  2  0  0  0  0  0  0  0  0  0
    3.3283   -5.4131   19.4296 O   0  0  0  0  0  0  0  0  0  0  0  0
    3.0518   -3.8335   21.2703 C   0  0  0  0  0  0  0  0  0  0  0  0
    4.0690   -2.9467   20.6227 N   0  0  0  0  0  0  0  0  0  0  0  0
   -1.0971   -9.3393   17.2172 C   0  0  2  0  0  0  0  0  0  0  0  0
   -2.2354   -9.4435   16.3341 N   0  0  0  0  0  0  0  0  0  0  0  0
   -1.3285   -8.1562   18.2416 C   0  0  0  0  0  0  0  0  0  0  0  0
   -0.0773   -8.0258   19.2205 C   0  0  2  0  0  0  0  0  0  0  0  0
   -0.3035   -6.9245   20.1928 N   0  0  0  0  0  0  0  0  0  0  0  0
    1.2426   -7.7705   18.3546 C   0  0  2  0  0  0  0  0  0  0  0  0
    1.4299   -8.9806   17.3435 C   0  0  2  0  0  0  0  0  0  0  0  0
    2.6101   -8.7635   16.5668 O   0  0  0  0  0  0  0  0  0  0  0  0
    0.1816   -9.1004   16.3829 C   0  0  1  0  0  0  0  0  0  0  0  0
    0.3586  -10.2212   15.4812 O   0  0  0  0  0  0  0  0  0  0  0  0
    0.2060  -10.1737   14.1030 C   0  0  2  0  0  0  0  0  0  0  0  0
    0.2302  -11.6518   13.5743 C   0  0  2  0  0  0  0  0  0  0  0  0
   -0.7767  -12.3874   14.1909 O   0  0  0  0  0  0  0  0  0  0  0  0
    1.6495  -12.3313   13.7870 C   0  0  1  0  0  0  0  0  0  0  0  0
    1.6540  -13.7330   13.2655 N   0  0  0  0  0  0  0  0  0  0  0  0
    2.7519  -11.4472   13.0559 C   0  0  2  0  0  0  0  0  0  0  0  0
    4.0531  -12.0278   13.2085 O   0  0  0  0  0  0  0  0  0  0  0  0
    2.6929   -9.9911   13.6602 C   0  0  2  0  0  0  0  0  0  0  0  0
    1.3055   -9.3885   13.4855 O   0  0  0  0  0  0  0  0  0  0  0  0
    3.7026   -9.0844   12.9977 C   0  0  0  0  0  0  0  0  0  0  0  0
    5.0617   -9.4542   13.2958 O   0  0  0  0  0  0  0  0  0  0  0  0
    5.0063   -8.7719   19.1023 O   0  0  0  0  0  0  0  0  0  0  0  0
    5.9855   -7.8582   21.6185 O   0  0  0  0  0  0  0  0  0  0  0  0
   -3.4844   -9.9465   16.8574 C   0  0  0  0  0  0  0  0  0  0  0  0
   -3.4845  -10.6765   17.8928 O   0  0  0  0  0  0  0  0  0  0  0  0
   -4.7971   -9.5649   16.1066 C   0  0  2  0  0  0  0  0  0  0  0  0
   -7.6118   -8.3906   15.7470 N   0  0  0  0  0  0  0  0  0  0  0  0
   -5.2388   -8.1105   16.4577 C   0  0  0  0  0  0  0  0  0  0  0  0
   -6.3777   -7.5892   15.5656 C   0  0  0  0  0  0  0  0  0  0  0  0
   -5.7799  -10.3043   16.4313 O   0  0  0  0  0  0  0  0  0  0  0  0
  1  2  1  1  0  0  0
  1  3  1  0  0  0  0
  1  8  1  0  0  0  0
  3  4  1  0  0  0  0
  3 32  1  1  0  0  0
  4  5  1  0  0  0  0
  4 33  1  1  0  0  0
  5  6  1  1  0  0  0
  5  7  1  0  0  0  0
  7  8  1  0  0  0  0
  7  9  1  6  0  0  0
  9 10  1  0  0  0  0
 11 12  1  6  0  0  0
 11 13  1  0  0  0  0
 11 19  1  0  0  0  0
 12 34  1  0  0  0  0
 13 14  1  0  0  0  0
 14 15  1  1  0  0  0
 14 16  1  0  0  0  0
 16  2  1  1  0  0  0
 16 17  1  0  0  0  0
 17 18  1  6  0  0  0
 17 19  1  0  0  0  0
 19 20  1  6  0  0  0
 21 20  1  1  0  0  0
 21 22  1  0  0  0  0
 21 29  1  0  0  0  0
 22 23  1  1  0  0  0
 22 24  1  0  0  0  0
 24 25  1  6  0  0  0
 24 26  1  0  0  0  0
 26 27  1  1  0  0  0
 26 28  1  0  0  0  0
 28 29  1  0  0  0  0
 28 30  1  6  0  0  0
 30 31  1  0  0  0  0
 34 35  2  0  0  0  0
 36 34  1  1  0  0  0
 36 38  1  0  0  0  0
 36 40  1  0  0  0  0
 37 39  1  0  0  0  0
 38 39  1  0  0  0  0
M  END
>  <CHROM.1>
-149.14272194,-149.47987296,66.04361570,-71.40063992,110.19442932,-169.69411628
-67.25600053,-78.39807177,169.77500638,63.36518733,0.94482563,-8.70951467
17.13576999,0.78187637,-0.00490800,0.92800462

>  <Name>
ligand

>  <RI>
0

>  <Rbt.Current_Directory>
/home/itssahil/PROJECTS/Mol_Feturizer/New_Systems/rnas/4P20

>  <Rbt.Executable>
rbdock ($Id: //depot/dev/client3/rdock/2013.1/src/exe/rbdock.cxx#4 $)

>  <Rbt.Library>
libRbt.so (2013.1, Build901 2013/11/27)

>  <Rbt.Parameter_File>
/export/apps/rDock/src/rDock_2013.1_src/data/scripts/dock_solv.prm

>  <Rbt.Receptor>
prm/pocket_docking_3.prm

>  <SCORE>
-14.1487

>  <SCORE.INTER>
-10.0827

>  <SCORE.INTER.CONST>
1

>  <SCORE.INTER.POLAR>
0

>  <SCORE.INTER.ROT>
10

>  <SCORE.INTER.SOLV>
23.6313

>  <SCORE.INTER.VDW>
-24.8656

>  <SCORE.INTER.norm>
-0.252068

>  <SCORE.INTRA>
-4.07786

>  <SCORE.INTRA.DIHEDRAL>
-11.5826

>  <SCORE.INTRA.DIHEDRAL.0>
28.2802

>  <SCORE.INTRA.POLAR>
0

>  <SCORE.INTRA.POLAR.0>
0

>  <SCORE.INTRA.REPUL>
0

>  <SCORE.INTRA.REPUL.0>
0

>  <SCORE.INTRA.SOLV>
1.70662

>  <SCORE.INTRA.SOLV.lig_0>
-101.981

>  <SCORE.INTRA.VDW>
0.860116

>  <SCORE.INTRA.VDW.0>
-5.72964

>  <SCORE.INTRA.norm>
-0.101946

>  <SCORE.RESTR>
0.0118157

>  <SCORE.RESTR.CAVITY>
0.0118157

>  <SCORE.RESTR.norm>
0.000295392

>  <SCORE.SYSTEM>
0

>  <SCORE.SYSTEM.CONST>
0

>  <SCORE.SYSTEM.DIHEDRAL>
0

>  <SCORE.SYSTEM.SOLV>
0

>  <SCORE.SYSTEM.norm>
0

>  <SCORE.heavy>
40

>  <SCORE.norm>
-0.353719

>  <RMSD>
1.421

$$$$
ligand
 OpenBabel11021811513D
libRbt.so/2013.1/901 2013/11/27
 40 42  0  0  0  0  0  0  0  0999 V2000
    3.9649   -7.2310   19.1323 C   0  0  2  0  0  0  0  0  0  0  0  0
    2.7002   -7.8243   19.4659 O   0  0  0  0  0  0  0  0  0  0  0  0
    5.1136   -7.8397   20.0206 C   0  0  1  0  0  0  0  0  0  0  0  0
    4.9323   -7.4708   21.5219 C   0  0  2  0  0  0  0  0  0  0  0  0
    4.9549   -5.9135   21.6343 C   0  0  2  0  0  0  0  0  0  0  0  0
    4.8148   -5.5344   23.0203 O   0  0  0  0  0  0  0  0  0  0  0  0
    3.7583   -5.3279   20.7644 C   0  0  2  0  0  0  0  0  0  0  0  0
    3.9257   -5.7463   19.3267 O   0  0  0  0  0  0  0  0  0  0  0  0
    3.7066   -3.8065   20.7926 C   0  0  0  0  0  0  0  0  0  0  0  0
    2.4661   -3.2864   20.1359 N   0  0  0  0  0  0  0  0  0  0  0  0
   -0.7009   -9.4257   17.1859 C   0  0  2  0  0  0  0  0  0  0  0  0
   -1.7776   -9.4996   16.2259 N   0  0  0  0  0  0  0  0  0  0  0  0
   -0.9637   -8.2273   18.1848 C   0  0  0  0  0  0  0  0  0  0  0  0
    0.2197   -8.1302   19.2482 C   0  0  2  0  0  0  0  0  0  0  0  0
   -0.0370   -7.0142   20.1959 N   0  0  0  0  0  0  0  0  0  0  0  0
    1.6046   -7.9255   18.4754 C   0  0  2  0  0  0  0  0  0  0  0  0
    1.8216   -9.1492   17.4868 C   0  0  2  0  0  0  0  0  0  0  0  0
    3.0597   -8.9772   16.7935 O   0  0  0  0  0  0  0  0  0  0  0  0
    0.6401   -9.2357   16.4419 C   0  0  1  0  0  0  0  0  0  0  0  0
    0.8422  -10.3690   15.5613 O   0  0  0  0  0  0  0  0  0  0  0  0
    0.3831  -10.4618   14.2554 C   0  0  2  0  0  0  0  0  0  0  0  0
    0.1870  -11.9855   13.9312 C   0  0  2  0  0  0  0  0  0  0  0  0
   -0.6998  -12.5489   14.8429 O   0  0  0  0  0  0  0  0  0  0  0  0
    1.5687  -12.7679   13.9161 C   0  0  1  0  0  0  0  0  0  0  0  0
    1.3602  -14.2133   13.5933 N   0  0  0  0  0  0  0  0  0  0  0  0
    2.5320  -12.0793   12.8536 C   0  0  2  0  0  0  0  0  0  0  0  0
    3.7919  -12.7595   12.7931 O   0  0  0  0  0  0  0  0  0  0  0  0
    2.7100  -10.5657   13.2612 C   0  0  2  0  0  0  0  0  0  0  0  0
    1.3628   -9.8581   13.3162 O   0  0  0  0  0  0  0  0  0  0  0  0
    3.6005   -9.8383   12.2823 C   0  0  0  0  0  0  0  0  0  0  0  0
    3.1565   -9.9746   10.9195 O   0  0  0  0  0  0  0  0  0  0  0  0
    5.1130   -9.2861   19.8414 O   0  0  0  0  0  0  0  0  0  0  0  0
    5.9652   -8.0150   22.2462 O   0  0  0  0  0  0  0  0  0  0  0  0
   -2.8277  -10.4716   16.4243 C   0  0  0  0  0  0  0  0  0  0  0  0
   -2.6078  -11.5005   17.1299 O   0  0  0  0  0  0  0  0  0  0  0  0
   -4.2059  -10.2066   15.7439 C   0  0  2  0  0  0  0  0  0  0  0  0
   -6.9234   -7.4951   16.3876 N   0  0  0  0  0  0  0  0  0  0  0  0
   -4.9288   -8.9906   16.4014 C   0  0  0  0  0  0  0  0  0  0  0  0
   -6.2081   -8.5699   15.6587 C   0  0  0  0  0  0  0  0  0  0  0  0
   -5.0095  -11.1848   15.8674 O   0  0  0  0  0  0  0  0  0  0  0  0
  1  2  1  1  0  0  0
  1  3  1  0  0  0  0
  1  8  1  0  0  0  0
  3  4  1  0  0  0  0
  3 32  1  1  0  0  0
  4  5  1  0  0  0  0
  4 33  1  1  0  0  0
  5  6  1  1  0  0  0
  5  7  1  0  0  0  0
  7  8  1  0  0  0  0
  7  9  1  6  0  0  0
  9 10  1  0  0  0  0
 11 12  1  6  0  0  0
 11 13  1  0  0  0  0
 11 19  1  0  0  0  0
 12 34  1  0  0  0  0
 13 14  1  0  0  0  0
 14 15  1  1  0  0  0
 14 16  1  0  0  0  0
 16  2  1  1  0  0  0
 16 17  1  0  0  0  0
 17 18  1  6  0  0  0
 17 19  1  0  0  0  0
 19 20  1  6  0  0  0
 21 20  1  1  0  0  0
 21 22  1  0  0  0  0
 21 29  1  0  0  0  0
 22 23  1  1  0  0  0
 22 24  1  0  0  0  0
 24 25  1  6  0  0  0
 24 26  1  0  0  0  0
 26 27  1  1  0  0  0
 26 28  1  0  0  0  0
 28 29  1  0  0  0  0
 28 30  1  6  0  0  0
 30 31  1  0  0  0  0
 34 35  2  0  0  0  0
 36 34  1  1  0  0  0
 36 38  1  0  0  0  0
 36 40  1  0  0  0  0
 37 39  1  0  0  0  0
 38 39  1  0  0  0  0
M  END
>  <CHROM.1>
-152.42934682,-160.06980224,-171.77741631,-99.78004476,88.09844603,-152.94724111
53.66696841,-68.87673603,172.67302247,174.82056701,1.11961832,-9.03215128
17.07648174,-0.94834859,0.02137613,-2.21340699

>  <Name>
ligand

>  <RI>
0

>  <Rbt.Current_Directory>
/home/itssahil/PROJECTS/Mol_Feturizer/New_Systems/rnas/4P20

>  <Rbt.Executable>
rbdock ($Id: //depot/dev/client3/rdock/2013.1/src/exe/rbdock.cxx#4 $)

>  <Rbt.Library>
libRbt.so (2013.1, Build901 2013/11/27)

>  <Rbt.Parameter_File>
/export/apps/rDock/src/rDock_2013.1_src/data/scripts/dock_solv.prm

>  <Rbt.Receptor>
prm/pocket_docking_3.prm

>  <SCORE>
-17.9722

>  <SCORE.INTER>
-10.765

>  <SCORE.INTER.CONST>
1

>  <SCORE.INTER.POLAR>
0

>  <SCORE.INTER.ROT>
10

>  <SCORE.INTER.SOLV>
23.6504

>  <SCORE.INTER.VDW>
-25.3268

>  <SCORE.INTER.norm>
-0.269125

>  <SCORE.INTRA>
-7.21073

>  <SCORE.INTRA.DIHEDRAL>
-14.5929

>  <SCORE.INTRA.DIHEDRAL.0>
28.2802

>  <SCORE.INTRA.POLAR>
0

>  <SCORE.INTRA.POLAR.0>
0

>  <SCORE.INTRA.REPUL>
0

>  <SCORE.INTRA.REPUL.0>
0

>  <SCORE.INTRA.SOLV>
-1.34131

>  <SCORE.INTRA.SOLV.lig_0>
-101.981

>  <SCORE.INTRA.VDW>
0.756346

>  <SCORE.INTRA.VDW.0>
-5.72964

>  <SCORE.INTRA.norm>
-0.180268

>  <SCORE.RESTR>
0.00351281

>  <SCORE.RESTR.CAVITY>
0.00351281

>  <SCORE.RESTR.norm>
8.78202e-05

>  <SCORE.SYSTEM>
0

>  <SCORE.SYSTEM.CONST>
0

>  <SCORE.SYSTEM.DIHEDRAL>
0

>  <SCORE.SYSTEM.SOLV>
0

>  <SCORE.SYSTEM.norm>
0

>  <SCORE.heavy>
40

>  <SCORE.norm>
-0.449306

>  <RMSD>
1.421

$$$$
ligand
 OpenBabel11021811513D
libRbt.so/2013.1/901 2013/11/27
 40 42  0  0  0  0  0  0  0  0999 V2000
    3.7925   -7.1691   18.9653 C   0  0  2  0  0  0  0  0  0  0  0  0
    2.5501   -7.7530   19.3880 O   0  0  0  0  0  0  0  0  0  0  0  0
    4.9828   -7.7003   19.8487 C   0  0  1  0  0  0  0  0  0  0  0  0
    4.8528   -7.2295   21.3266 C   0  0  2  0  0  0  0  0  0  0  0  0
    4.8566   -5.6680   21.3296 C   0  0  2  0  0  0  0  0  0  0  0  0
    4.7634   -5.1946   22.6904 O   0  0  0  0  0  0  0  0  0  0  0  0
    3.6195   -5.1592   20.4681 C   0  0  2  0  0  0  0  0  0  0  0  0
    3.7387   -5.6751   19.0575 O   0  0  0  0  0  0  0  0  0  0  0  0
    3.5464   -3.6403   20.3926 C   0  0  0  0  0  0  0  0  0  0  0  0
    3.1804   -3.0412   21.7146 N   0  0  0  0  0  0  0  0  0  0  0  0
   -1.2194   -8.9897   17.4929 C   0  0  2  0  0  0  0  0  0  0  0  0
   -2.3947   -8.9487   16.6543 N   0  0  0  0  0  0  0  0  0  0  0  0
   -1.2518   -7.7778   18.5092 C   0  0  0  0  0  0  0  0  0  0  0  0
    0.0426   -7.8070   19.4390 C   0  0  2  0  0  0  0  0  0  0  0  0
    0.0023   -6.6773   20.4042 N   0  0  0  0  0  0  0  0  0  0  0  0
    1.3501   -7.7370   18.5212 C   0  0  2  0  0  0  0  0  0  0  0  0
    1.3358   -8.9697   17.5201 C   0  0  2  0  0  0  0  0  0  0  0  0
    2.5035   -8.9181   16.6972 O   0  0  0  0  0  0  0  0  0  0  0  0
    0.0465   -8.9302   16.6084 C   0  0  1  0  0  0  0  0  0  0  0  0
    0.0381  -10.0721   15.7159 O   0  0  0  0  0  0  0  0  0  0  0  0
   -0.2341  -10.0253   14.3563 C   0  0  2  0  0  0  0  0  0  0  0  0
   -0.3720  -11.5056   13.8513 C   0  0  2  0  0  0  0  0  0  0  0  0
   -1.3729  -12.1543   14.5672 O   0  0  0  0  0  0  0  0  0  0  0  0
    1.0041  -12.2922   13.9475 C   0  0  1  0  0  0  0  0  0  0  0  0
    0.8532  -13.6946   13.4503 N   0  0  0  0  0  0  0  0  0  0  0  0
    2.1009  -11.5039   13.1068 C   0  0  2  0  0  0  0  0  0  0  0  0
    3.3619  -12.1832   13.1520 O   0  0  0  0  0  0  0  0  0  0  0  0
    2.2093  -10.0422   13.6904 C   0  0  2  0  0  0  0  0  0  0  0  0
    0.8625   -9.3344   13.6305 O   0  0  0  0  0  0  0  0  0  0  0  0
    3.2221   -9.2234   12.9259 C   0  0  0  0  0  0  0  0  0  0  0  0
    4.5644   -9.7237   13.0703 O   0  0  0  0  0  0  0  0  0  0  0  0
    4.9968   -9.1555   19.7704 O   0  0  0  0  0  0  0  0  0  0  0  0
    5.9202   -7.7092   22.0464 O   0  0  0  0  0  0  0  0  0  0  0  0
   -3.2045  -10.1380   16.5243 C   0  0  0  0  0  0  0  0  0  0  0  0
   -2.6944  -11.2748   16.7534 O   0  0  0  0  0  0  0  0  0  0  0  0
   -4.6937   -9.9639   16.0951 C   0  0  2  0  0  0  0  0  0  0  0  0
   -5.9306   -7.0836   16.1642 N   0  0  0  0  0  0  0  0  0  0  0  0
   -5.5290   -9.2998   17.2330 C   0  0  0  0  0  0  0  0  0  0  0  0
   -5.3267   -7.7781   17.3266 C   0  0  0  0  0  0  0  0  0  0  0  0
   -5.2682  -11.0737   15.8578 O   0  0  0  0  0  0  0  0  0  0  0  0
  1  2  1  1  0  0  0
  1  3  1  0  0  0  0
  1  8  1  0  0  0  0
  3  4  1  0  0  0  0
  3 32  1  1  0  0  0
  4  5  1  0  0  0  0
  4 33  1  1  0  0  0
  5  6  1  1  0  0  0
  5  7  1  0  0  0  0
  7  8  1  0  0  0  0
  7  9  1  6  0  0  0
  9 10  1  0  0  0  0
 11 12  1  6  0  0  0
 11 13  1  0  0  0  0
 11 19  1  0  0  0  0
 12 34  1  0  0  0  0
 13 14  1  0  0  0  0
 14 15  1  1  0  0  0
 14 16  1  0  0  0  0
 16  2  1  1  0  0  0
 16 17  1  0  0  0  0
 17 18  1  6  0  0  0
 17 19  1  0  0  0  0
 19 20  1  6  0  0  0
 21 20  1  1  0  0  0
 21 22  1  0  0  0  0
 21 29  1  0  0  0  0
 22 23  1  1  0  0  0
 22 24  1  0  0  0  0
 24 25  1  6  0  0  0
 24 26  1  0  0  0  0
 26 27  1  1  0  0  0
 26 28  1  0  0  0  0
 28 29  1  0  0  0  0
 28 30  1  6  0  0  0
 30 31  1  0  0  0  0
 34 35  2  0  0  0  0
 36 34  1  1  0  0  0
 36 38  1  0  0  0  0
 36 40  1  0  0  0  0
 37 39  1  0  0  0  0
 38 39  1  0  0  0  0
M  END
>  <CHROM.1>
-162.57019559,-153.91632377,-69.50824859,-128.65051869,106.36634018,-170.50360351
-65.24357860,-69.89405275,78.33671113,69.66536850,0.91150989,-8.72246336
17.25155989,-0.87869648,-0.00896251,-2.23102671

>  <Name>
ligand

>  <RI>
0

>  <Rbt.Current_Directory>
/home/itssahil/PROJECTS/Mol_Feturizer/New_Systems/rnas/4P20

>  <Rbt.Executable>
rbdock ($Id: //depot/dev/client3/rdock/2013.1/src/exe/rbdock.cxx#4 $)

>  <Rbt.Library>
libRbt.so (2013.1, Build901 2013/11/27)

>  <Rbt.Parameter_File>
/export/apps/rDock/src/rDock_2013.1_src/data/scripts/dock_solv.prm

>  <Rbt.Receptor>
prm/pocket_docking_4.prm

>  <SCORE>
-16.468

>  <SCORE.INTER>
-10.3857

>  <SCORE.INTER.CONST>
1

>  <SCORE.INTER.POLAR>
0

>  <SCORE.INTER.ROT>
10

>  <SCORE.INTER.SOLV>
24.6429

>  <SCORE.INTER.VDW>
-25.4048

>  <SCORE.INTER.norm>
-0.259643

>  <SCORE.INTRA>
-6.08232

>  <SCORE.INTRA.DIHEDRAL>
-13.3601

>  <SCORE.INTRA.DIHEDRAL.0>
28.2802

>  <SCORE.INTRA.POLAR>
0

>  <SCORE.INTRA.POLAR.0>
0

>  <SCORE.INTRA.REPUL>
0

>  <SCORE.INTRA.REPUL.0>
0

>  <SCORE.INTRA.SOLV>
1.89808

>  <SCORE.INTRA.SOLV.lig_0>
-101.981

>  <SCORE.INTRA.VDW>
-0.35129

>  <SCORE.INTRA.VDW.0>
-5.72964

>  <SCORE.INTRA.norm>
-0.152058

>  <SCORE.RESTR>
0

>  <SCORE.RESTR.CAVITY>
0

>  <SCORE.RESTR.norm>
0

>  <SCORE.SYSTEM>
0

>  <SCORE.SYSTEM.CONST>
0

>  <SCORE.SYSTEM.DIHEDRAL>
0

>  <SCORE.SYSTEM.SOLV>
0

>  <SCORE.SYSTEM.norm>
0

>  <SCORE.heavy>
40

>  <SCORE.norm>
-0.411701

>  <RMSD>
1.440

$$$$
ligand
 OpenBabel11021811513D
libRbt.so/2013.1/901 2013/11/27
 40 42  0  0  0  0  0  0  0  0999 V2000
    3.6804   -7.0220   19.1263 C   0  0  2  0  0  0  0  0  0  0  0  0
    2.4304   -7.6184   19.5067 O   0  0  0  0  0  0  0  0  0  0  0  0
    4.8227   -7.4468   20.1233 C   0  0  1  0  0  0  0  0  0  0  0  0
    4.5767   -6.8779   21.5511 C   0  0  2  0  0  0  0  0  0  0  0  0
    4.5324   -5.3209   21.4407 C   0  0  2  0  0  0  0  0  0  0  0  0
    4.3310   -4.7564   22.7541 O   0  0  0  0  0  0  0  0  0  0  0  0
    3.3426   -4.9185   20.4640 C   0  0  2  0  0  0  0  0  0  0  0  0
    3.5746   -5.5280   19.1057 O   0  0  0  0  0  0  0  0  0  0  0  0
    3.2282   -3.4122   20.2734 C   0  0  0  0  0  0  0  0  0  0  0  0
    2.7490   -2.7354   21.5195 N   0  0  0  0  0  0  0  0  0  0  0  0
   -1.0042   -9.2669   17.3122 C   0  0  2  0  0  0  0  0  0  0  0  0
   -2.1143   -9.3496   16.3917 N   0  0  0  0  0  0  0  0  0  0  0  0
   -1.2657   -8.1049   18.3535 C   0  0  0  0  0  0  0  0  0  0  0  0
   -0.0458   -7.9982   19.3739 C   0  0  2  0  0  0  0  0  0  0  0  0
   -0.3006   -6.9170   20.3616 N   0  0  0  0  0  0  0  0  0  0  0  0
    1.3012   -7.7282   18.5557 C   0  0  2  0  0  0  0  0  0  0  0  0
    1.5181   -8.9173   17.5257 C   0  0  2  0  0  0  0  0  0  0  0  0
    2.7227   -8.6868   16.7914 O   0  0  0  0  0  0  0  0  0  0  0  0
    0.3006   -9.0137   16.5239 C   0  0  1  0  0  0  0  0  0  0  0  0
    0.5039  -10.1158   15.6048 O   0  0  0  0  0  0  0  0  0  0  0  0
    0.0736  -10.1504   14.2863 C   0  0  2  0  0  0  0  0  0  0  0  0
   -0.0409  -11.6590   13.8666 C   0  0  2  0  0  0  0  0  0  0  0  0
   -0.9150  -12.3195   14.7238 O   0  0  0  0  0  0  0  0  0  0  0  0
    1.3779  -12.3713   13.8334 C   0  0  1  0  0  0  0  0  0  0  0  0
    1.2471  -13.8025   13.4195 N   0  0  0  0  0  0  0  0  0  0  0  0
    2.3250  -11.5731   12.8349 C   0  0  2  0  0  0  0  0  0  0  0  0
    3.6179  -12.1865   12.7600 O   0  0  0  0  0  0  0  0  0  0  0  0
    2.4204  -10.0805   13.3369 C   0  0  2  0  0  0  0  0  0  0  0  0
    1.0391   -9.4435   13.4061 O   0  0  0  0  0  0  0  0  0  0  0  0
    3.2914   -9.2522   12.4226 C   0  0  0  0  0  0  0  0  0  0  0  0
    4.6614   -9.6945   12.4087 O   0  0  0  0  0  0  0  0  0  0  0  0
    4.8868   -8.9025   20.1522 O   0  0  0  0  0  0  0  0  0  0  0  0
    5.6062   -7.2673   22.3734 O   0  0  0  0  0  0  0  0  0  0  0  0
   -3.2482  -10.1767   16.7339 C   0  0  0  0  0  0  0  0  0  0  0  0
   -3.1077  -11.1264   17.5606 O   0  0  0  0  0  0  0  0  0  0  0  0
   -4.6152   -9.8592   16.0536 C   0  0  2  0  0  0  0  0  0  0  0  0
   -6.2461   -8.6110   18.3992 N   0  0  0  0  0  0  0  0  0  0  0  0
   -5.0036   -8.3615   16.2523 C   0  0  0  0  0  0  0  0  0  0  0  0
   -5.0997   -7.9497   17.7309 C   0  0  0  0  0  0  0  0  0  0  0  0
   -5.5769  -10.5268   16.5512 O   0  0  0  0  0  0  0  0  0  0  0  0
  1  2  1  1  0  0  0
  1  3  1  0  0  0  0
  1  8  1  0  0  0  0
  3  4  1  0  0  0  0
  3 32  1  1  0  0  0
  4  5  1  0  0  0  0
  4 33  1  1  0  0  0
  5  6  1  1  0  0  0
  5  7  1  0  0  0  0
  7  8  1  0  0  0  0
  7  9  1  6  0  0  0
  9 10  1  0  0  0  0
 11 12  1  6  0  0  0
 11 13  1  0  0  0  0
 11 19  1  0  0  0  0
 12 34  1  0  0  0  0
 13 14  1  0  0  0  0
 14 15  1  1  0  0  0
 14 16  1  0  0  0  0
 16  2  1  1  0  0  0
 16 17  1  0  0  0  0
 17 18  1  6  0  0  0
 17 19  1  0  0  0  0
 19 20  1  6  0  0  0
 21 20  1  1  0  0  0
 21 22  1  0  0  0  0
 21 29  1  0  0  0  0
 22 23  1  1  0  0  0
 22 24  1  0  0  0  0
 24 25  1  6  0  0  0
 24 26  1  0  0  0  0
 26 27  1  1  0  0  0
 26 28  1  0  0  0  0
 28 29  1  0  0  0  0
 28 30  1  6  0  0  0
 30 31  1  0  0  0  0
 34 35  2  0  0  0  0
 36 34  1  1  0  0  0
 36 38  1  0  0  0  0
 36 40  1  0  0  0  0
 37 39  1  0  0  0  0
 38 39  1  0  0  0  0
M  END
>  <CHROM.1>
-161.45764637,-162.51939173,-69.71083561,-88.09409516,92.61964008,-156.95501744
-64.10402954,-53.42450478,-58.22421809,-67.94811005,0.92848205,-8.68719299
17.29297309,-0.99465481,-0.08957681,-2.20136091

>  <Name>
ligand

>  <RI>
0

>  <Rbt.Current_Directory>
/home/itssahil/PROJECTS/Mol_Feturizer/New_Systems/rnas/4P20

>  <Rbt.Executable>
rbdock ($Id: //depot/dev/client3/rdock/2013.1/src/exe/rbdock.cxx#4 $)

>  <Rbt.Library>
libRbt.so (2013.1, Build901 2013/11/27)

>  <Rbt.Parameter_File>
/export/apps/rDock/src/rDock_2013.1_src/data/scripts/dock_solv.prm

>  <Rbt.Receptor>
prm/pocket_docking_6.prm

>  <SCORE>
-17.4751

>  <SCORE.INTER>
-11.0886

>  <SCORE.INTER.CONST>
1

>  <SCORE.INTER.POLAR>
0

>  <SCORE.INTER.ROT>
10

>  <SCORE.INTER.SOLV>
19.7506

>  <SCORE.INTER.VDW>
-24.2426

>  <SCORE.INTER.norm>
-0.277215

>  <SCORE.INTRA>
-6.38654

>  <SCORE.INTRA.DIHEDRAL>
-16.8535

>  <SCORE.INTRA.DIHEDRAL.0>
28.2802

>  <SCORE.INTRA.POLAR>
0

>  <SCORE.INTRA.POLAR.0>
0

>  <SCORE.INTRA.REPUL>
0

>  <SCORE.INTRA.REPUL.0>
0

>  <SCORE.INTRA.SOLV>
2.08538

>  <SCORE.INTRA.SOLV.lig_0>
-101.981

>  <SCORE.INTRA.VDW>
0.997527

>  <SCORE.INTRA.VDW.0>
-5.72964

>  <SCORE.INTRA.norm>
-0.159663

>  <SCORE.RESTR>
0

>  <SCORE.RESTR.CAVITY>
0

>  <SCORE.RESTR.norm>
0

>  <SCORE.SYSTEM>
0

>  <SCORE.SYSTEM.CONST>
0

>  <SCORE.SYSTEM.DIHEDRAL>
0

>  <SCORE.SYSTEM.SOLV>
0

>  <SCORE.SYSTEM.norm>
0

>  <SCORE.heavy>
40

>  <SCORE.norm>
-0.436879

>  <RMSD>
1.443

$$$$
ligand
 OpenBabel11021811513D
libRbt.so/2013.1/901 2013/11/27
 40 42  0  0  0  0  0  0  0  0999 V2000
    2.8250   -7.0164   18.1133 C   0  0  2  0  0  0  0  0  0  0  0  0
    1.6630   -7.6373   18.6853 O   0  0  0  0  0  0  0  0  0  0  0  0
    4.1217   -7.8371   18.4661 C   0  0  1  0  0  0  0  0  0  0  0  0
    4.4186   -7.8088   19.9938 C   0  0  2  0  0  0  0  0  0  0  0  0
    4.6148   -6.3171   20.4118 C   0  0  2  0  0  0  0  0  0  0  0  0
    4.9184   -6.2542   21.8219 O   0  0  0  0  0  0  0  0  0  0  0  0
    3.2757   -5.5219   20.0860 C   0  0  2  0  0  0  0  0  0  0  0  0
    2.9796   -5.6123   18.6114 O   0  0  0  0  0  0  0  0  0  0  0  0
    3.3735   -4.0445   20.4409 C   0  0  0  0  0  0  0  0  0  0  0  0
    3.5961   -3.8451   21.9076 N   0  0  0  0  0  0  0  0  0  0  0  0
   -1.5416  -10.1823   17.0779 C   0  0  2  0  0  0  0  0  0  0  0  0
   -2.6502  -10.6146   16.2591 N   0  0  0  0  0  0  0  0  0  0  0  0
   -1.9471   -8.8741   17.8698 C   0  0  0  0  0  0  0  0  0  0  0  0
   -0.7309   -8.3819   18.7750 C   0  0  2  0  0  0  0  0  0  0  0  0
   -1.1191   -7.1622   19.5308 N   0  0  0  0  0  0  0  0  0  0  0  0
    0.5388   -8.1050   17.8433 C   0  0  2  0  0  0  0  0  0  0  0  0
    0.9046   -9.4433   17.0706 C   0  0  2  0  0  0  0  0  0  0  0  0
    2.0416   -9.2069   16.2371 O   0  0  0  0  0  0  0  0  0  0  0  0
   -0.3103   -9.9213   16.1813 C   0  0  1  0  0  0  0  0  0  0  0  0
    0.0319  -11.1538   15.4998 O   0  0  0  0  0  0  0  0  0  0  0  0
   -0.5008  -11.5760   14.2903 C   0  0  2  0  0  0  0  0  0  0  0  0
   -0.5997  -13.1422   14.3392 C   0  0  2  0  0  0  0  0  0  0  0  0
   -1.3810  -13.5294   15.4231 O   0  0  0  0  0  0  0  0  0  0  0  0
    0.8341  -13.8223   14.3933 C   0  0  1  0  0  0  0  0  0  0  0  0
    0.7170  -15.3130   14.4267 N   0  0  0  0  0  0  0  0  0  0  0  0
    1.6724  -13.3443   13.1284 C   0  0  2  0  0  0  0  0  0  0  0  0
    2.9743  -13.9430   13.1249 O   0  0  0  0  0  0  0  0  0  0  0  0
    1.7594  -11.7694   13.1642 C   0  0  2  0  0  0  0  0  0  0  0  0
    0.3681  -11.1505   13.1632 O   0  0  0  0  0  0  0  0  0  0  0  0
    2.5275  -11.2385   11.9774 C   0  0  0  0  0  0  0  0  0  0  0  0
    3.9104  -11.6389   11.9859 O   0  0  0  0  0  0  0  0  0  0  0  0
    3.9371   -9.2062   18.0019 O   0  0  0  0  0  0  0  0  0  0  0  0
    5.5631   -8.5270   20.2424 O   0  0  0  0  0  0  0  0  0  0  0  0
   -3.8307  -11.1447   16.9013 C   0  0  0  0  0  0  0  0  0  0  0  0
   -3.7481  -11.6292   18.0689 O   0  0  0  0  0  0  0  0  0  0  0  0
   -5.1744  -11.0997   16.1107 C   0  0  2  0  0  0  0  0  0  0  0  0
   -7.7845  -11.8800   14.6961 N   0  0  0  0  0  0  0  0  0  0  0  0
   -6.0449  -12.3575   16.4168 C   0  0  0  0  0  0  0  0  0  0  0  0
   -7.5415  -12.1441   16.1346 C   0  0  0  0  0  0  0  0  0  0  0  0
   -5.0019  -11.1066   14.8505 O   0  0  0  0  0  0  0  0  0  0  0  0
  1  2  1  1  0  0  0
  1  3  1  0  0  0  0
  1  8  1  0  0  0  0
  3  4  1  0  0  0  0
  3 32  1  1  0  0  0
  4  5  1  0  0  0  0
  4 33  1  6  0  0  0
  5  6  1  1  0  0  0
  5  7  1  0  0  0  0
  7  8  1  0  0  0  0
  7  9  1  6  0  0  0
  9 10  1  0  0  0  0
 11 12  1  6  0  0  0
 11 13  1  0  0  0  0
 11 19  1  0  0  0  0
 12 34  1  0  0  0  0
 13 14  1  0  0  0  0
 14 15  1  6  0  0  0
 14 16  1  0  0  0  0
 16  2  1  1  0  0  0
 16 17  1  0  0  0  0
 17 18  1  6  0  0  0
 17 19  1  0  0  0  0
 19 20  1  1  0  0  0
 21 20  1  1  0  0  0
 21 22  1  0  0  0  0
 21 29  1  0  0  0  0
 22 23  1  1  0  0  0
 22 24  1  0  0  0  0
 24 25  1  6  0  0  0
 24 26  1  0  0  0  0
 26 27  1  1  0  0  0
 26 28  1  0  0  0  0
 28 29  1  0  0  0  0
 28 30  1  6  0  0  0
 30 31  1  0  0  0  0
 34 35  2  0  0  0  0
 36 34  1  1  0  0  0
 36 38  1  0  0  0  0
 36 40  1  0  0  0  0
 37 39  1  0  0  0  0
 38 39  1  0  0  0  0
M  END
>  <CHROM.1>
-120.43598782,-165.20905761,-62.25072522,-69.34265382,87.40727678,-145.96923573
-64.96487562,144.47550926,157.76886245,63.22340484,0.38568557,-9.87075693
16.78224530,0.85130199,0.12383286,0.81029179

>  <Name>
ligand

>  <RI>
0

>  <Rbt.Current_Directory>
/home/itssahil/PROJECTS/Mol_Feturizer/New_Systems/rnas/4P20

>  <Rbt.Executable>
rbdock ($Id: //depot/dev/client3/rdock/2013.1/src/exe/rbdock.cxx#4 $)

>  <Rbt.Library>
libRbt.so (2013.1, Build901 2013/11/27)

>  <Rbt.Parameter_File>
/export/apps/rDock/src/rDock_2013.1_src/data/scripts/dock_solv.prm

>  <Rbt.Receptor>
prm/pocket_docking_3.prm

>  <SCORE>
-11.0751

>  <SCORE.INTER>
-8.83045

>  <SCORE.INTER.CONST>
1

>  <SCORE.INTER.POLAR>
0

>  <SCORE.INTER.ROT>
10

>  <SCORE.INTER.SOLV>
23.3494

>  <SCORE.INTER.VDW>
-23.9368

>  <SCORE.INTER.norm>
-0.220761

>  <SCORE.INTRA>
-2.24463

>  <SCORE.INTRA.DIHEDRAL>
-8.95407

>  <SCORE.INTRA.DIHEDRAL.0>
28.2802

>  <SCORE.INTRA.POLAR>
0

>  <SCORE.INTRA.POLAR.0>
0

>  <SCORE.INTRA.REPUL>
0

>  <SCORE.INTRA.REPUL.0>
0

>  <SCORE.INTRA.SOLV>
1.43961

>  <SCORE.INTRA.SOLV.lig_0>
-101.981

>  <SCORE.INTRA.VDW>
1.5126

>  <SCORE.INTRA.VDW.0>
-5.72964

>  <SCORE.INTRA.norm>
-0.0561157

>  <SCORE.RESTR>
0

>  <SCORE.RESTR.CAVITY>
0

>  <SCORE.RESTR.norm>
0

>  <SCORE.SYSTEM>
0

>  <SCORE.SYSTEM.CONST>
0

>  <SCORE.SYSTEM.DIHEDRAL>
0

>  <SCORE.SYSTEM.SOLV>
0

>  <SCORE.SYSTEM.norm>
0

>  <SCORE.heavy>
40

>  <SCORE.norm>
-0.276877

>  <RMSD>
1.480

$$$$
ligand
 OpenBabel11021811513D
libRbt.so/2013.1/901 2013/11/27
 40 42  0  0  0  0  0  0  0  0999 V2000
    4.2642   -7.9396   18.7560 C   0  0  2  0  0  0  0  0  0  0  0  0
    3.0425   -8.6250   19.0737 O   0  0  0  0  0  0  0  0  0  0  0  0
    5.4018   -8.3374   19.7693 C   0  0  1  0  0  0  0  0  0  0  0  0
    5.0818   -7.8450   21.2109 C   0  0  2  0  0  0  0  0  0  0  0  0
    4.9460   -6.2902   21.1624 C   0  0  2  0  0  0  0  0  0  0  0  0
    4.6740   -5.7948   22.4909 O   0  0  0  0  0  0  0  0  0  0  0  0
    3.7617   -5.9184   20.1670 C   0  0  2  0  0  0  0  0  0  0  0  0
    4.0683   -6.4551   18.7929 O   0  0  0  0  0  0  0  0  0  0  0  0
    3.5614   -4.4150   20.0342 C   0  0  0  0  0  0  0  0  0  0  0  0
    3.1686   -3.7955   21.3390 N   0  0  0  0  0  0  0  0  0  0  0  0
   -0.4072  -10.1938   16.8448 C   0  0  2  0  0  0  0  0  0  0  0  0
   -1.5034  -10.2545   15.9061 N   0  0  0  0  0  0  0  0  0  0  0  0
   -0.6474   -9.0068   17.8628 C   0  0  0  0  0  0  0  0  0  0  0  0
    0.5576   -8.9241   18.9029 C   0  0  2  0  0  0  0  0  0  0  0  0
    0.3224   -7.8189   19.8686 N   0  0  0  0  0  0  0  0  0  0  0  0
    1.9269   -8.7126   18.1045 C   0  0  2  0  0  0  0  0  0  0  0  0
    2.1214   -9.9251   17.0975 C   0  0  2  0  0  0  0  0  0  0  0  0
    3.3455   -9.7470   16.3812 O   0  0  0  0  0  0  0  0  0  0  0  0
    0.9188   -9.9973   16.0759 C   0  0  1  0  0  0  0  0  0  0  0  0
    1.1007  -11.1205   15.1782 O   0  0  0  0  0  0  0  0  0  0  0  0
    0.3102  -11.3999   14.0728 C   0  0  2  0  0  0  0  0  0  0  0  0
   -0.0041  -12.9381   14.0941 C   0  0  2  0  0  0  0  0  0  0  0  0
   -0.6325  -13.2721   15.2894 O   0  0  0  0  0  0  0  0  0  0  0  0
    1.3035  -13.8105   13.8699 C   0  0  1  0  0  0  0  0  0  0  0  0
    0.9796  -15.2706   13.8813 N   0  0  0  0  0  0  0  0  0  0  0  0
    1.9690  -13.3847   12.4890 C   0  0  2  0  0  0  0  0  0  0  0  0
    3.1499  -14.1555   12.2342 O   0  0  0  0  0  0  0  0  0  0  0  0
    2.2878  -11.8410   12.5534 C   0  0  2  0  0  0  0  0  0  0  0  0
    1.0220  -11.0378   12.8203 O   0  0  0  0  0  0  0  0  0  0  0  0
    2.9062  -11.3575   11.2633 C   0  0  0  0  0  0  0  0  0  0  0  0
    3.3100   -9.9769   11.3236 O   0  0  0  0  0  0  0  0  0  0  0  0
    5.5534   -9.7867   19.7412 O   0  0  0  0  0  0  0  0  0  0  0  0
    6.1097   -8.2069   22.0477 O   0  0  0  0  0  0  0  0  0  0  0  0
   -2.6323  -11.1061   16.2014 C   0  0  0  0  0  0  0  0  0  0  0  0
   -2.4925  -12.0842   16.9944 O   0  0  0  0  0  0  0  0  0  0  0  0
   -3.9934  -10.7788   15.5138 C   0  0  2  0  0  0  0  0  0  0  0  0
   -7.6658  -11.4388   16.6294 N   0  0  0  0  0  0  0  0  0  0  0  0
   -5.1905  -11.2958   16.3700 C   0  0  0  0  0  0  0  0  0  0  0  0
   -6.5626  -10.9482   15.7689 C   0  0  0  0  0  0  0  0  0  0  0  0
   -4.1187  -11.3443   14.3813 O   0  0  0  0  0  0  0  0  0  0  0  0
  1  2  1  1  0  0  0
  1  3  1  0  0  0  0
  1  8  1  0  0  0  0
  3  4  1  0  0  0  0
  3 32  1  1  0  0  0
  4  5  1  0  0  0  0
  4 33  1  1  0  0  0
  5  6  1  1  0  0  0
  5  7  1  0  0  0  0
  7  8  1  0  0  0  0
  7  9  1  6  0  0  0
  9 10  1  0  0  0  0
 11 12  1  6  0  0  0
 11 13  1  0  0  0  0
 11 19  1  0  0  0  0
 12 34  1  0  0  0  0
 13 14  1  0  0  0  0
 14 15  1  1  0  0  0
 14 16  1  0  0  0  0
 16  2  1  1  0  0  0
 16 17  1  0  0  0  0
 17 18  1  6  0  0  0
 17 19  1  0  0  0  0
 19 20  1  6  0  0  0
 21 20  1  1  0  0  0
 21 22  1  0  0  0  0
 21 29  1  0  0  0  0
 22 23  1  1  0  0  0
 22 24  1  0  0  0  0
 24 25  1  6  0  0  0
 24 26  1  0  0  0  0
 26 27  1  1  0  0  0
 26 28  1  0  0  0  0
 28 29  1  0  0  0  0
 28 30  1  6  0  0  0
 30 31  1  0  0  0  0
 34 35  2  0  0  0  0
 36 34  1  1  0  0  0
 36 38  1  0  0  0  0
 36 40  1  0  0  0  0
 37 39  1  0  0  0  0
 38 39  1  0  0  0  0
M  END
>  <CHROM.1>
-164.05718745,-155.21338297,-62.70524525,-92.07840917,67.06567667,-135.16727475
-175.29216849,-153.69762436,177.57436340,-178.99172530,1.17125821,-9.91972928
16.80669401,-0.93886276,-0.09119835,-2.21402804

>  <Name>
ligand

>  <RI>
0

>  <Rbt.Current_Directory>
/home/itssahil/PROJECTS/Mol_Feturizer/New_Systems/rnas/4P20

>  <Rbt.Executable>
rbdock ($Id: //depot/dev/client3/rdock/2013.1/src/exe/rbdock.cxx#4 $)

>  <Rbt.Library>
libRbt.so (2013.1, Build901 2013/11/27)

>  <Rbt.Parameter_File>
/export/apps/rDock/src/rDock_2013.1_src/data/scripts/dock_solv.prm

>  <Rbt.Receptor>
prm/pocket_docking_3.prm

>  <SCORE>
-17.8044

>  <SCORE.INTER>
-11.3765

>  <SCORE.INTER.CONST>
1

>  <SCORE.INTER.POLAR>
0

>  <SCORE.INTER.ROT>
10

>  <SCORE.INTER.SOLV>
20.2386

>  <SCORE.INTER.VDW>
-24.5972

>  <SCORE.INTER.norm>
-0.284413

>  <SCORE.INTRA>
-6.42784

>  <SCORE.INTRA.DIHEDRAL>
-15.8094

>  <SCORE.INTRA.DIHEDRAL.0>
28.2802

>  <SCORE.INTRA.POLAR>
0

>  <SCORE.INTRA.POLAR.0>
0

>  <SCORE.INTRA.REPUL>
0

>  <SCORE.INTRA.REPUL.0>
0

>  <SCORE.INTRA.SOLV>
0.0287592

>  <SCORE.INTRA.SOLV.lig_0>
-101.981

>  <SCORE.INTRA.VDW>
1.46247

>  <SCORE.INTRA.VDW.0>
-5.72964

>  <SCORE.INTRA.norm>
-0.160696

>  <SCORE.RESTR>
0

>  <SCORE.RESTR.CAVITY>
0

>  <SCORE.RESTR.norm>
0

>  <SCORE.SYSTEM>
0

>  <SCORE.SYSTEM.CONST>
0

>  <SCORE.SYSTEM.DIHEDRAL>
0

>  <SCORE.SYSTEM.SOLV>
0

>  <SCORE.SYSTEM.norm>
0

>  <SCORE.heavy>
40

>  <SCORE.norm>
-0.445109

>  <RMSD>
1.482

$$$$
ligand
 OpenBabel11021811513D
libRbt.so/2013.1/901 2013/11/27
 40 42  0  0  0  0  0  0  0  0999 V2000
    3.7757   -7.3670   19.0349 C   0  0  2  0  0  0  0  0  0  0  0  0
    2.4918   -7.8931   19.4063 O   0  0  0  0  0  0  0  0  0  0  0  0
    4.9005   -7.9326   19.9806 C   0  0  1  0  0  0  0  0  0  0  0  0
    4.7213   -7.4343   21.4443 C   0  0  2  0  0  0  0  0  0  0  0  0
    4.7897   -5.8744   21.4265 C   0  0  2  0  0  0  0  0  0  0  0  0
    4.6528   -5.3767   22.7749 O   0  0  0  0  0  0  0  0  0  0  0  0
    3.6163   -5.3288   20.5008 C   0  0  2  0  0  0  0  0  0  0  0  0
    3.7797   -5.8708   19.1044 O   0  0  0  0  0  0  0  0  0  0  0  0
    3.6099   -3.8095   20.4015 C   0  0  0  0  0  0  0  0  0  0  0  0
    3.2731   -3.1743   21.7144 N   0  0  0  0  0  0  0  0  0  0  0  0
   -0.8197   -9.7112   17.1572 C   0  0  2  0  0  0  0  0  0  0  0  0
   -1.8846   -9.8619   16.1931 N   0  0  0  0  0  0  0  0  0  0  0  0
   -1.1413   -8.4939   18.1151 C   0  0  0  0  0  0  0  0  0  0  0  0
    0.0285   -8.3121   19.1824 C   0  0  2  0  0  0  0  0  0  0  0  0
   -0.2831   -7.1784   20.0919 N   0  0  0  0  0  0  0  0  0  0  0  0
    1.4094   -8.0728   18.4124 C   0  0  2  0  0  0  0  0  0  0  0  0
    1.6863   -9.3171   17.4654 C   0  0  2  0  0  0  0  0  0  0  0  0
    2.9214   -9.1143   16.7749 O   0  0  0  0  0  0  0  0  0  0  0  0
    0.5179   -9.4877   16.4161 C   0  0  1  0  0  0  0  0  0  0  0  0
    0.7751  -10.6388   15.5739 O   0  0  0  0  0  0  0  0  0  0  0  0
    0.3198  -10.7986   14.2731 C   0  0  2  0  0  0  0  0  0  0  0  0
   -0.0750  -12.3076   14.0934 C   0  0  2  0  0  0  0  0  0  0  0  0
   -1.0375  -12.6563   15.0352 O   0  0  0  0  0  0  0  0  0  0  0  0
    1.1899  -13.2631   14.1847 C   0  0  1  0  0  0  0  0  0  0  0  0
    0.7933  -14.6931   13.9985 N   0  0  0  0  0  0  0  0  0  0  0  0
    2.2464  -12.8161   13.0824 C   0  0  2  0  0  0  0  0  0  0  0  0
    3.4046  -13.6592   13.1161 O   0  0  0  0  0  0  0  0  0  0  0  0
    2.6211  -11.3064   13.3458 C   0  0  2  0  0  0  0  0  0  0  0  0
    1.3801  -10.4252   13.3021 O   0  0  0  0  0  0  0  0  0  0  0  0
    3.6098  -10.8031   12.3213 C   0  0  0  0  0  0  0  0  0  0  0  0
    3.0088  -10.5779   11.0325 O   0  0  0  0  0  0  0  0  0  0  0  0
    4.8577   -9.3883   19.9226 O   0  0  0  0  0  0  0  0  0  0  0  0
    5.7332   -7.9460   22.2201 O   0  0  0  0  0  0  0  0  0  0  0  0
   -2.9119  -10.8490   16.4324 C   0  0  0  0  0  0  0  0  0  0  0  0
   -2.6732  -11.8343   17.1922 O   0  0  0  0  0  0  0  0  0  0  0  0
   -4.2895  -10.6547   15.7274 C   0  0  2  0  0  0  0  0  0  0  0  0
   -5.4771   -7.4171   17.5326 N   0  0  0  0  0  0  0  0  0  0  0  0
   -4.8147   -9.1984   15.9192 C   0  0  0  0  0  0  0  0  0  0  0  0
   -4.8592   -8.7574   17.3918 C   0  0  0  0  0  0  0  0  0  0  0  0
   -5.1960  -11.4069   16.2075 O   0  0  0  0  0  0  0  0  0  0  0  0
  1  2  1  1  0  0  0
  1  3  1  0  0  0  0
  1  8  1  0  0  0  0
  3  4  1  0  0  0  0
  3 32  1  1  0  0  0
  4  5  1  0  0  0  0
  4 33  1  1  0  0  0
  5  6  1  1  0  0  0
  5  7  1  0  0  0  0
  7  8  1  0  0  0  0
  7  9  1  6  0  0  0
  9 10  1  0  0  0  0
 11 12  1  6  0  0  0
 11 13  1  0  0  0  0
 11 19  1  0  0  0  0
 12 34  1  0  0  0  0
 13 14  1  0  0  0  0
 14 15  1  1  0  0  0
 14 16  1  0  0  0  0
 16  2  1  1  0  0  0
 16 17  1  0  0  0  0
 17 18  1  6  0  0  0
 17 19  1  0  0  0  0
 19 20  1  6  0  0  0
 21 20  1  1  0  0  0
 21 22  1  0  0  0  0
 21 29  1  0  0  0  0
 22 23  1  1  0  0  0
 22 24  1  0  0  0  0
 24 25  1  6  0  0  0
 24 26  1  0  0  0  0
 26 27  1  1  0  0  0
 26 28  1  0  0  0  0
 28 29  1  0  0  0  0
 28 30  1  6  0  0  0
 30 31  1  0  0  0  0
 34 35  2  0  0  0  0
 36 34  1  1  0  0  0
 36 38  1  0  0  0  0
 36 40  1  0  0  0  0
 37 39  1  0  0  0  0
 38 39  1  0  0  0  0
M  END
>  <CHROM.1>
-151.04494659,-165.75153071,-66.71570538,-98.27545339,87.43885726,-141.78579713
73.91272857,-48.59223105,-53.26092534,-174.89289605,1.04989555,-9.28852120
17.18264763,-1.04954591,-0.01910215,-2.26544973

>  <Name>
ligand

>  <RI>
0

>  <Rbt.Current_Directory>
/home/itssahil/PROJECTS/Mol_Feturizer/New_Systems/rnas/4P20

>  <Rbt.Executable>
rbdock ($Id: //depot/dev/client3/rdock/2013.1/src/exe/rbdock.cxx#4 $)

>  <Rbt.Library>
libRbt.so (2013.1, Build901 2013/11/27)

>  <Rbt.Parameter_File>
/export/apps/rDock/src/rDock_2013.1_src/data/scripts/dock_solv.prm

>  <Rbt.Receptor>
prm/pocket_docking_2.prm

>  <SCORE>
-14.12

>  <SCORE.INTER>
-9.90102

>  <SCORE.INTER.CONST>
1

>  <SCORE.INTER.POLAR>
0

>  <SCORE.INTER.ROT>
10

>  <SCORE.INTER.SOLV>
20.6301

>  <SCORE.INTER.VDW>
-23.744

>  <SCORE.INTER.norm>
-0.247525

>  <SCORE.INTRA>
-5.46602

>  <SCORE.INTRA.DIHEDRAL>
-12.8013

>  <SCORE.INTRA.DIHEDRAL.0>
28.2802

>  <SCORE.INTRA.POLAR>
0

>  <SCORE.INTRA.POLAR.0>
0

>  <SCORE.INTRA.REPUL>
0

>  <SCORE.INTRA.REPUL.0>
0

>  <SCORE.INTRA.SOLV>
0.43243

>  <SCORE.INTRA.SOLV.lig_0>
-101.981

>  <SCORE.INTRA.VDW>
0.718412

>  <SCORE.INTRA.VDW.0>
-5.72964

>  <SCORE.INTRA.norm>
-0.136651

>  <SCORE.RESTR>
1.247

>  <SCORE.RESTR.CAVITY>
1.247

>  <SCORE.RESTR.norm>
0.0311751

>  <SCORE.SYSTEM>
0

>  <SCORE.SYSTEM.CONST>
0

>  <SCORE.SYSTEM.DIHEDRAL>
0

>  <SCORE.SYSTEM.SOLV>
0

>  <SCORE.SYSTEM.norm>
0

>  <SCORE.heavy>
40

>  <SCORE.norm>
-0.353001

>  <RMSD>
1.501

$$$$
ligand
 OpenBabel11021811513D
libRbt.so/2013.1/901 2013/11/27
 40 42  0  0  0  0  0  0  0  0999 V2000
    4.1127   -7.7510   18.7917 C   0  0  2  0  0  0  0  0  0  0  0  0
    2.9694   -8.5717   19.0781 O   0  0  0  0  0  0  0  0  0  0  0  0
    5.3171   -8.1316   19.7320 C   0  0  1  0  0  0  0  0  0  0  0  0
    5.0064   -7.8023   21.2212 C   0  0  2  0  0  0  0  0  0  0  0  0
    4.7307   -6.2685   21.3208 C   0  0  2  0  0  0  0  0  0  0  0  0
    4.4635   -5.9216   22.6966 O   0  0  0  0  0  0  0  0  0  0  0  0
    3.4830   -5.9196   20.3973 C   0  0  2  0  0  0  0  0  0  0  0  0
    3.7867   -6.3001   18.9714 O   0  0  0  0  0  0  0  0  0  0  0  0
    3.1447   -4.4351   20.4100 C   0  0  0  0  0  0  0  0  0  0  0  0
    4.2853   -3.6071   19.9060 N   0  0  0  0  0  0  0  0  0  0  0  0
   -0.7609   -9.9132   17.1766 C   0  0  2  0  0  0  0  0  0  0  0  0
   -1.9075   -9.9295   16.2983 N   0  0  0  0  0  0  0  0  0  0  0  0
   -0.8020   -8.6127   18.0765 C   0  0  0  0  0  0  0  0  0  0  0  0
    0.4609   -8.5784   19.0485 C   0  0  2  0  0  0  0  0  0  0  0  0
    0.4121   -7.3643   19.9048 N   0  0  0  0  0  0  0  0  0  0  0  0
    1.7985   -8.6151   18.1732 C   0  0  2  0  0  0  0  0  0  0  0  0
    1.7920   -9.9341   17.2888 C   0  0  2  0  0  0  0  0  0  0  0  0
    2.9864   -9.9780   16.5048 O   0  0  0  0  0  0  0  0  0  0  0  0
    0.5338   -9.9566   16.3339 C   0  0  1  0  0  0  0  0  0  0  0  0
    0.5314  -11.1753   15.5495 O   0  0  0  0  0  0  0  0  0  0  0  0
   -0.1407  -11.3552   14.3492 C   0  0  2  0  0  0  0  0  0  0  0  0
   -0.3834  -12.8961   14.1705 C   0  0  2  0  0  0  0  0  0  0  0  0
   -1.1021  -13.3869   15.2557 O   0  0  0  0  0  0  0  0  0  0  0  0
    0.9787  -13.6893   13.9783 C   0  0  1  0  0  0  0  0  0  0  0  0
    0.7237  -15.1519   13.7975 N   0  0  0  0  0  0  0  0  0  0  0  0
    1.7470  -13.0849   12.7231 C   0  0  2  0  0  0  0  0  0  0  0  0
    2.9810  -13.7783   12.4996 O   0  0  0  0  0  0  0  0  0  0  0  0
    1.9859  -11.5480   12.9876 C   0  0  2  0  0  0  0  0  0  0  0  0
    0.6649  -10.8269   13.2185 O   0  0  0  0  0  0  0  0  0  0  0  0
    2.6964  -10.8984   11.8241 C   0  0  0  0  0  0  0  0  0  0  0  0
    4.0420  -11.3816   11.6544 O   0  0  0  0  0  0  0  0  0  0  0  0
    5.5962   -9.5523   19.5654 O   0  0  0  0  0  0  0  0  0  0  0  0
    6.0918   -8.1416   21.9922 O   0  0  0  0  0  0  0  0  0  0  0  0
   -3.1695  -10.4191   16.8026 C   0  0  0  0  0  0  0  0  0  0  0  0
   -3.1879  -11.2057   17.7956 O   0  0  0  0  0  0  0  0  0  0  0  0
   -4.4732   -9.9523   16.0850 C   0  0  2  0  0  0  0  0  0  0  0  0
   -7.2282   -8.4514   16.0178 N   0  0  0  0  0  0  0  0  0  0  0  0
   -4.7607   -8.4463   16.3730 C   0  0  0  0  0  0  0  0  0  0  0  0
   -5.9376   -7.8855   15.5573 C   0  0  0  0  0  0  0  0  0  0  0  0
   -5.5052  -10.5767   16.4887 O   0  0  0  0  0  0  0  0  0  0  0  0
  1  2  1  1  0  0  0
  1  3  1  0  0  0  0
  1  8  1  0  0  0  0
  3  4  1  0  0  0  0
  3 32  1  1  0  0  0
  4  5  1  0  0  0  0
  4 33  1  1  0  0  0
  5  6  1  1  0  0  0
  5  7  1  0  0  0  0
  7  8  1  0  0  0  0
  7  9  1  6  0  0  0
  9 10  1  0  0  0  0
 11 12  1  6  0  0  0
 11 13  1  0  0  0  0
 11 19  1  0  0  0  0
 12 34  1  0  0  0  0
 13 14  1  0  0  0  0
 14 15  1  6  0  0  0
 14 16  1  0  0  0  0
 16  2  1  1  0  0  0
 16 17  1  0  0  0  0
 17 18  1  6  0  0  0
 17 19  1  0  0  0  0
 19 20  1  1  0  0  0
 21 20  1  1  0  0  0
 21 22  1  0  0  0  0
 21 29  1  0  0  0  0
 22 23  1  1  0  0  0
 22 24  1  0  0  0  0
 24 25  1  6  0  0  0
 24 26  1  0  0  0  0
 26 27  1  1  0  0  0
 26 28  1  0  0  0  0
 28 29  1  0  0  0  0
 28 30  1  6  0  0  0
 30 31  1  0  0  0  0
 34 35  2  0  0  0  0
 36 34  1  1  0  0  0
 36 38  1  0  0  0  0
 36 40  1  0  0  0  0
 37 39  1  0  0  0  0
 38 39  1  0  0  0  0
M  END
>  <CHROM.1>
-167.57796950,-137.23002109,60.62095307,-82.68740638,81.53073347,-156.42816069
-66.38127544,-70.94700063,173.05446321,69.93197470,0.98605944,-9.55055274
16.99884163,-0.90774145,0.06324614,-2.29157806

>  <Name>
ligand

>  <RI>
0

>  <Rbt.Current_Directory>
/home/itssahil/PROJECTS/Mol_Feturizer/New_Systems/rnas/4P20

>  <Rbt.Executable>
rbdock ($Id: //depot/dev/client3/rdock/2013.1/src/exe/rbdock.cxx#4 $)

>  <Rbt.Library>
libRbt.so (2013.1, Build901 2013/11/27)

>  <Rbt.Parameter_File>
/export/apps/rDock/src/rDock_2013.1_src/data/scripts/dock_solv.prm

>  <Rbt.Receptor>
prm/pocket_docking_3.prm

>  <SCORE>
-16.2593

>  <SCORE.INTER>
-10.7867

>  <SCORE.INTER.CONST>
1

>  <SCORE.INTER.POLAR>
0

>  <SCORE.INTER.ROT>
10

>  <SCORE.INTER.SOLV>
24.3954

>  <SCORE.INTER.VDW>
-25.5896

>  <SCORE.INTER.norm>
-0.269669

>  <SCORE.INTRA>
-5.47251

>  <SCORE.INTRA.DIHEDRAL>
-15.2437

>  <SCORE.INTRA.DIHEDRAL.0>
28.2802

>  <SCORE.INTRA.POLAR>
0

>  <SCORE.INTRA.POLAR.0>
0

>  <SCORE.INTRA.REPUL>
0

>  <SCORE.INTRA.REPUL.0>
0

>  <SCORE.INTRA.SOLV>
2.59415

>  <SCORE.INTRA.SOLV.lig_0>
-101.981

>  <SCORE.INTRA.VDW>
0.852279

>  <SCORE.INTRA.VDW.0>
-5.72964

>  <SCORE.INTRA.norm>
-0.136813

>  <SCORE.RESTR>
0

>  <SCORE.RESTR.CAVITY>
0

>  <SCORE.RESTR.norm>
0

>  <SCORE.SYSTEM>
0

>  <SCORE.SYSTEM.CONST>
0

>  <SCORE.SYSTEM.DIHEDRAL>
0

>  <SCORE.SYSTEM.SOLV>
0

>  <SCORE.SYSTEM.norm>
0

>  <SCORE.heavy>
40

>  <SCORE.norm>
-0.406482

>  <RMSD>
1.530

$$$$
ligand
 OpenBabel11021811513D
libRbt.so/2013.1/901 2013/11/27
 40 42  0  0  0  0  0  0  0  0999 V2000
    2.4690   -7.1908   18.2699 C   0  0  2  0  0  0  0  0  0  0  0  0
    1.3977   -7.7985   19.0088 O   0  0  0  0  0  0  0  0  0  0  0  0
    3.8033   -8.0054   18.4580 C   0  0  1  0  0  0  0  0  0  0  0  0
    4.3072   -7.9459   19.9296 C   0  0  2  0  0  0  0  0  0  0  0  0
    4.5564   -6.4462   20.2858 C   0  0  2  0  0  0  0  0  0  0  0  0
    5.0509   -6.3546   21.6392 O   0  0  0  0  0  0  0  0  0  0  0  0
    3.1839   -5.6564   20.1308 C   0  0  2  0  0  0  0  0  0  0  0  0
    2.6881   -5.7769   18.7131 O   0  0  0  0  0  0  0  0  0  0  0  0
    3.3270   -4.1721   20.4384 C   0  0  0  0  0  0  0  0  0  0  0  0
    1.9951   -3.4911   20.4923 N   0  0  0  0  0  0  0  0  0  0  0  0
   -1.8393  -10.5206   17.8080 C   0  0  2  0  0  0  0  0  0  0  0  0
   -3.0332  -11.0059   17.1557 N   0  0  0  0  0  0  0  0  0  0  0  0
   -2.2013   -9.2785   18.7185 C   0  0  0  0  0  0  0  0  0  0  0  0
   -0.8916   -8.7285   19.4417 C   0  0  2  0  0  0  0  0  0  0  0  0
   -1.2363   -7.5718   20.3094 N   0  0  0  0  0  0  0  0  0  0  0  0
    0.1871   -8.3194   18.3345 C   0  0  2  0  0  0  0  0  0  0  0  0
    0.5153   -9.5952   17.4478 C   0  0  2  0  0  0  0  0  0  0  0  0
    1.4823   -9.2404   16.4567 O   0  0  0  0  0  0  0  0  0  0  0  0
   -0.7915  -10.1316   16.7408 C   0  0  1  0  0  0  0  0  0  0  0  0
   -0.4791  -11.3074   15.9529 O   0  0  0  0  0  0  0  0  0  0  0  0
   -0.8576  -11.5128   14.6341 C   0  0  2  0  0  0  0  0  0  0  0  0
   -0.8684  -13.0625   14.3821 C   0  0  2  0  0  0  0  0  0  0  0  0
   -1.7338  -13.6780   15.2808 O   0  0  0  0  0  0  0  0  0  0  0  0
    0.5897  -13.6849   14.4717 C   0  0  1  0  0  0  0  0  0  0  0  0
    0.5578  -15.1582   14.2164 N   0  0  0  0  0  0  0  0  0  0  0  0
    1.5250  -12.9438   13.4195 C   0  0  2  0  0  0  0  0  0  0  0  0
    2.8533  -13.4805   13.4528 O   0  0  0  0  0  0  0  0  0  0  0  0
    1.5147  -11.4021   13.7544 C   0  0  2  0  0  0  0  0  0  0  0  0
    0.0970  -10.8483   13.7101 O   0  0  0  0  0  0  0  0  0  0  0  0
    2.3692  -10.6267   12.7802 C   0  0  0  0  0  0  0  0  0  0  0  0
    2.4361   -9.2233   13.0943 O   0  0  0  0  0  0  0  0  0  0  0  0
    3.5590   -9.3836   18.0519 O   0  0  0  0  0  0  0  0  0  0  0  0
    5.4763   -8.6602   20.0332 O   0  0  0  0  0  0  0  0  0  0  0  0
   -3.7240  -10.1424   16.2261 C   0  0  0  0  0  0  0  0  0  0  0  0
   -3.5745   -8.8868   16.3034 O   0  0  0  0  0  0  0  0  0  0  0  0
   -4.6419  -10.8082   15.1553 C   0  0  2  0  0  0  0  0  0  0  0  0
   -6.4027  -10.4896   17.5182 N   0  0  0  0  0  0  0  0  0  0  0  0
   -6.0273  -10.0944   15.0856 C   0  0  0  0  0  0  0  0  0  0  0  0
   -7.0108  -10.5691   16.1684 C   0  0  0  0  0  0  0  0  0  0  0  0
   -4.9015  -12.0248   15.4206 O   0  0  0  0  0  0  0  0  0  0  0  0
  1  2  1  1  0  0  0
  1  3  1  0  0  0  0
  1  8  1  0  0  0  0
  3  4  1  0  0  0  0
  3 32  1  1  0  0  0
  4  5  1  0  0  0  0
  4 33  1  6  0  0  0
  5  6  1  1  0  0  0
  5  7  1  0  0  0  0
  7  8  1  0  0  0  0
  7  9  1  6  0  0  0
  9 10  1  0  0  0  0
 11 12  1  6  0  0  0
 11 13  1  0  0  0  0
 11 19  1  0  0  0  0
 12 34  1  0  0  0  0
 13 14  1  0  0  0  0
 14 15  1  6  0  0  0
 14 16  1  0  0  0  0
 16  2  1  1  0  0  0
 16 17  1  0  0  0  0
 17 18  1  6  0  0  0
 17 19  1  0  0  0  0
 19 20  1  1  0  0  0
 21 20  1  1  0  0  0
 21 22  1  0  0  0  0
 21 29  1  0  0  0  0
 22 23  1  1  0  0  0
 22 24  1  0  0  0  0
 24 25  1  6  0  0  0
 24 26  1  0  0  0  0
 26 27  1  1  0  0  0
 26 28  1  0  0  0  0
 28 29  1  0  0  0  0
 28 30  1  6  0  0  0
 30 31  1  0  0  0  0
 34 35  2  0  0  0  0
 36 34  1  1  0  0  0
 36 38  1  0  0  0  0
 36 40  1  0  0  0  0
 37 39  1  0  0  0  0
 38 39  1  0  0  0  0
M  END
>  <CHROM.1>
-118.54797610,-171.75291218,-171.25551077,63.27441442,108.90924377,-156.30586853
-177.15149731,132.67763023,-82.17610421,52.30624307,0.18197755,-9.63041769
16.96056128,0.84849322,0.05141142,0.77643912

>  <Name>
ligand

>  <RI>
0

>  <Rbt.Current_Directory>
/home/itssahil/PROJECTS/Mol_Feturizer/New_Systems/rnas/4P20

>  <Rbt.Executable>
rbdock ($Id: //depot/dev/client3/rdock/2013.1/src/exe/rbdock.cxx#4 $)

>  <Rbt.Library>
libRbt.so (2013.1, Build901 2013/11/27)

>  <Rbt.Parameter_File>
/export/apps/rDock/src/rDock_2013.1_src/data/scripts/dock_solv.prm

>  <Rbt.Receptor>
prm/pocket_docking_2.prm

>  <SCORE>
-5.75293

>  <SCORE.INTER>
-6.02782

>  <SCORE.INTER.CONST>
1

>  <SCORE.INTER.POLAR>
0

>  <SCORE.INTER.ROT>
10

>  <SCORE.INTER.SOLV>
23.938

>  <SCORE.INTER.VDW>
-22.2645

>  <SCORE.INTER.norm>
-0.150696

>  <SCORE.INTRA>
0.233101

>  <SCORE.INTRA.DIHEDRAL>
-7.35056

>  <SCORE.INTRA.DIHEDRAL.0>
28.2802

>  <SCORE.INTRA.POLAR>
0

>  <SCORE.INTRA.POLAR.0>
0

>  <SCORE.INTRA.REPUL>
0

>  <SCORE.INTRA.REPUL.0>
0

>  <SCORE.INTRA.SOLV>
3.69054

>  <SCORE.INTRA.SOLV.lig_0>
-101.981

>  <SCORE.INTRA.VDW>
2.06311

>  <SCORE.INTRA.VDW.0>
-5.72964

>  <SCORE.INTRA.norm>
0.00582752

>  <SCORE.RESTR>
0.041789

>  <SCORE.RESTR.CAVITY>
0.041789

>  <SCORE.RESTR.norm>
0.00104473

>  <SCORE.SYSTEM>
0

>  <SCORE.SYSTEM.CONST>
0

>  <SCORE.SYSTEM.DIHEDRAL>
0

>  <SCORE.SYSTEM.SOLV>
0

>  <SCORE.SYSTEM.norm>
0

>  <SCORE.heavy>
40

>  <SCORE.norm>
-0.143823

>  <RMSD>
1.561

$$$$
ligand
 OpenBabel11021811513D
libRbt.so/2013.1/901 2013/11/27
 40 42  0  0  0  0  0  0  0  0999 V2000
    3.8477   -7.0696   19.0795 C   0  0  2  0  0  0  0  0  0  0  0  0
    2.5812   -7.6307   19.4592 O   0  0  0  0  0  0  0  0  0  0  0  0
    4.9894   -7.5828   20.0348 C   0  0  1  0  0  0  0  0  0  0  0  0
    4.7930   -7.0662   21.4900 C   0  0  2  0  0  0  0  0  0  0  0  0
    4.8109   -5.5055   21.4462 C   0  0  2  0  0  0  0  0  0  0  0  0
    4.6569   -4.9902   22.7861 O   0  0  0  0  0  0  0  0  0  0  0  0
    3.6213   -5.0136   20.5112 C   0  0  2  0  0  0  0  0  0  0  0  0
    3.8033   -5.5731   19.1241 O   0  0  0  0  0  0  0  0  0  0  0  0
    3.5658   -3.4971   20.3866 C   0  0  0  0  0  0  0  0  0  0  0  0
    3.1546   -2.8546   21.6745 N   0  0  0  0  0  0  0  0  0  0  0  0
   -0.8368   -9.2652   17.2285 C   0  0  2  0  0  0  0  0  0  0  0  0
   -1.9402   -9.3419   16.2996 N   0  0  0  0  0  0  0  0  0  0  0  0
   -1.1063   -8.1111   18.2764 C   0  0  0  0  0  0  0  0  0  0  0  0
    0.1063   -8.0111   19.3061 C   0  0  2  0  0  0  0  0  0  0  0  0
   -0.1562   -6.9372   20.2998 N   0  0  0  0  0  0  0  0  0  0  0  0
    1.4588   -7.7343   18.4994 C   0  0  2  0  0  0  0  0  0  0  0  0
    1.6838   -8.9157   17.4623 C   0  0  2  0  0  0  0  0  0  0  0  0
    2.8934   -8.6791   16.7383 O   0  0  0  0  0  0  0  0  0  0  0  0
    0.4734   -9.0056   16.4513 C   0  0  1  0  0  0  0  0  0  0  0  0
    0.6840  -10.1008   15.5257 O   0  0  0  0  0  0  0  0  0  0  0  0
    0.2006  -10.1570   14.2264 C   0  0  2  0  0  0  0  0  0  0  0  0
    0.0503  -11.6724   13.8440 C   0  0  2  0  0  0  0  0  0  0  0  0
   -0.7970  -12.3031   14.7492 O   0  0  0  0  0  0  0  0  0  0  0  0
    1.4575  -12.4043   13.7693 C   0  0  1  0  0  0  0  0  0  0  0  0
    1.2921  -13.8419   13.3917 N   0  0  0  0  0  0  0  0  0  0  0  0
    2.3737  -11.6399   12.7170 C   0  0  2  0  0  0  0  0  0  0  0  0
    3.6547  -12.2722   12.6037 O   0  0  0  0  0  0  0  0  0  0  0  0
    2.5081  -10.1386   13.1828 C   0  0  2  0  0  0  0  0  0  0  0  0
    1.1388   -9.4818   13.2935 O   0  0  0  0  0  0  0  0  0  0  0  0
    3.3520   -9.3413   12.2170 C   0  0  0  0  0  0  0  0  0  0  0  0
    4.7122   -9.8083   12.1509 O   0  0  0  0  0  0  0  0  0  0  0  0
    4.9937   -9.0398   20.0011 O   0  0  0  0  0  0  0  0  0  0  0  0
    5.8202   -7.5320   22.2745 O   0  0  0  0  0  0  0  0  0  0  0  0
   -3.1663   -9.9802   16.7193 C   0  0  0  0  0  0  0  0  0  0  0  0
   -3.1459  -10.8209   17.6667 O   0  0  0  0  0  0  0  0  0  0  0  0
   -4.4804   -9.6014   15.9694 C   0  0  2  0  0  0  0  0  0  0  0  0
   -6.2409   -7.4020   18.6577 N   0  0  0  0  0  0  0  0  0  0  0  0
   -5.5723   -9.1099   16.9692 C   0  0  0  0  0  0  0  0  0  0  0  0
   -5.2000   -7.7972   17.6787 C   0  0  0  0  0  0  0  0  0  0  0  0
   -4.9998  -10.5904   15.3610 O   0  0  0  0  0  0  0  0  0  0  0  0
  1  2  1  1  0  0  0
  1  3  1  0  0  0  0
  1  8  1  0  0  0  0
  3  4  1  0  0  0  0
  3 32  1  1  0  0  0
  4  5  1  0  0  0  0
  4 33  1  1  0  0  0
  5  6  1  1  0  0  0
  5  7  1  0  0  0  0
  7  8  1  0  0  0  0
  7  9  1  6  0  0  0
  9 10  1  0  0  0  0
 11 12  1  6  0  0  0
 11 13  1  0  0  0  0
 11 19  1  0  0  0  0
 12 34  1  0  0  0  0
 13 14  1  0  0  0  0
 14 15  1  1  0  0  0
 14 16  1  0  0  0  0
 16  2  1  1  0  0  0
 16 17  1  0  0  0  0
 17 18  1  6  0  0  0
 17 19  1  0  0  0  0
 19 20  1  6  0  0  0
 21 20  1  1  0  0  0
 21 22  1  0  0  0  0
 21 29  1  0  0  0  0
 22 23  1  1  0  0  0
 22 24  1  0  0  0  0
 24 25  1  6  0  0  0
 24 26  1  0  0  0  0
 26 27  1  1  0  0  0
 26 28  1  0  0  0  0
 28 29  1  0  0  0  0
 28 30  1  6  0  0  0
 30 31  1  0  0  0  0
 34 35  2  0  0  0  0
 36 34  1  1  0  0  0
 36 38  1  0  0  0  0
 36 40  1  0  0  0  0
 37 39  1  0  0  0  0
 38 39  1  0  0  0  0
M  END
>  <CHROM.1>
-157.39242839,-164.54195092,-68.97921526,-77.59843187,88.91383582,-153.62481855
-63.69323987,-125.02040550,65.18614341,-177.62818093,1.06614399,-8.70817901
17.23262164,-0.99024597,-0.06024053,-2.19283899

>  <Name>
ligand

>  <RI>
0

>  <Rbt.Current_Directory>
/home/itssahil/PROJECTS/Mol_Feturizer/New_Systems/rnas/4P20

>  <Rbt.Executable>
rbdock ($Id: //depot/dev/client3/rdock/2013.1/src/exe/rbdock.cxx#4 $)

>  <Rbt.Library>
libRbt.so (2013.1, Build901 2013/11/27)

>  <Rbt.Parameter_File>
/export/apps/rDock/src/rDock_2013.1_src/data/scripts/dock_solv.prm

>  <Rbt.Receptor>
prm/pocket_docking_5.prm

>  <SCORE>
-17.9304

>  <SCORE.INTER>
-10.7411

>  <SCORE.INTER.CONST>
1

>  <SCORE.INTER.POLAR>
0

>  <SCORE.INTER.ROT>
10

>  <SCORE.INTER.SOLV>
22.3304

>  <SCORE.INTER.VDW>
-24.8709

>  <SCORE.INTER.norm>
-0.268528

>  <SCORE.INTRA>
-7.18929

>  <SCORE.INTRA.DIHEDRAL>
-15.4857

>  <SCORE.INTRA.DIHEDRAL.0>
28.2802

>  <SCORE.INTRA.POLAR>
0

>  <SCORE.INTRA.POLAR.0>
0

>  <SCORE.INTRA.REPUL>
0

>  <SCORE.INTRA.REPUL.0>
0

>  <SCORE.INTRA.SOLV>
-0.790391

>  <SCORE.INTRA.SOLV.lig_0>
-101.981

>  <SCORE.INTRA.VDW>
0.948739

>  <SCORE.INTRA.VDW.0>
-5.72964

>  <SCORE.INTRA.norm>
-0.179732

>  <SCORE.RESTR>
0

>  <SCORE.RESTR.CAVITY>
0

>  <SCORE.RESTR.norm>
0

>  <SCORE.SYSTEM>
0

>  <SCORE.SYSTEM.CONST>
0

>  <SCORE.SYSTEM.DIHEDRAL>
0

>  <SCORE.SYSTEM.SOLV>
0

>  <SCORE.SYSTEM.norm>
0

>  <SCORE.heavy>
40

>  <SCORE.norm>
-0.44826

>  <RMSD>
1.561

$$$$
ligand
 OpenBabel11021811513D
libRbt.so/2013.1/901 2013/11/27
 40 42  0  0  0  0  0  0  0  0999 V2000
    3.7504   -6.9164   19.3144 C   0  0  2  0  0  0  0  0  0  0  0  0
    2.4966   -7.4630   19.7531 O   0  0  0  0  0  0  0  0  0  0  0  0
    4.9498   -7.6186   20.0545 C   0  0  1  0  0  0  0  0  0  0  0  0
    4.9407   -7.3089   21.5800 C   0  0  2  0  0  0  0  0  0  0  0  0
    5.0557   -5.7611   21.7510 C   0  0  2  0  0  0  0  0  0  0  0  0
    5.0765   -5.4382   23.1580 O   0  0  0  0  0  0  0  0  0  0  0  0
    3.8094   -5.0806   21.0332 C   0  0  2  0  0  0  0  0  0  0  0  0
    3.8085   -5.4418   19.5705 O   0  0  0  0  0  0  0  0  0  0  0  0
    3.8402   -3.5612   21.1269 C   0  0  0  0  0  0  0  0  0  0  0  0
    2.5574   -2.9550   20.6500 N   0  0  0  0  0  0  0  0  0  0  0  0
   -0.9670   -9.2640   17.7308 C   0  0  2  0  0  0  0  0  0  0  0  0
   -2.0835   -9.4164   16.8272 N   0  0  0  0  0  0  0  0  0  0  0  0
   -1.2111   -8.0127   18.6675 C   0  0  0  0  0  0  0  0  0  0  0  0
    0.0163   -7.8288   19.6678 C   0  0  2  0  0  0  0  0  0  0  0  0
   -0.2223   -6.6627   20.5582 N   0  0  0  0  0  0  0  0  0  0  0  0
    1.3605   -7.6447   18.8216 C   0  0  2  0  0  0  0  0  0  0  0  0
    1.5598   -8.9217   17.8987 C   0  0  2  0  0  0  0  0  0  0  0  0
    2.7618   -8.7682   17.1404 O   0  0  0  0  0  0  0  0  0  0  0  0
    0.3351   -9.0937   16.9161 C   0  0  1  0  0  0  0  0  0  0  0  0
    0.5224  -10.2741   16.0962 O   0  0  0  0  0  0  0  0  0  0  0  0
    0.7384  -10.2727   14.7257 C   0  0  2  0  0  0  0  0  0  0  0  0
   -0.4847  -10.9928   14.0544 C   0  0  2  0  0  0  0  0  0  0  0  0
   -1.6627  -10.3401   14.4030 O   0  0  0  0  0  0  0  0  0  0  0  0
   -0.5464  -12.5323   14.4386 C   0  0  1  0  0  0  0  0  0  0  0  0
   -1.7104  -13.2009   13.7791 N   0  0  0  0  0  0  0  0  0  0  0  0
    0.8234  -13.2190   14.0106 C   0  0  2  0  0  0  0  0  0  0  0  0
    0.8121  -14.6169   14.3258 O   0  0  0  0  0  0  0  0  0  0  0  0
    1.9995  -12.4688   14.7473 C   0  0  2  0  0  0  0  0  0  0  0  0
    1.9989  -10.9868   14.3977 O   0  0  0  0  0  0  0  0  0  0  0  0
    3.3398  -13.0551   14.3726 C   0  0  0  0  0  0  0  0  0  0  0  0
    3.5525  -13.0911   12.9492 O   0  0  0  0  0  0  0  0  0  0  0  0
    4.8556   -9.0537   19.8191 O   0  0  0  0  0  0  0  0  0  0  0  0
    6.0118   -7.9338   22.1715 O   0  0  0  0  0  0  0  0  0  0  0  0
   -2.9034  -10.6021   16.9203 C   0  0  0  0  0  0  0  0  0  0  0  0
   -2.4294  -11.6558   17.4399 O   0  0  0  0  0  0  0  0  0  0  0  0
   -4.3579  -10.5297   16.3619 C   0  0  2  0  0  0  0  0  0  0  0  0
   -4.5724  -11.9951   18.9928 N   0  0  0  0  0  0  0  0  0  0  0  0
   -5.1001  -11.8876   16.5587 C   0  0  0  0  0  0  0  0  0  0  0  0
   -5.6530  -12.0775   17.9811 C   0  0  0  0  0  0  0  0  0  0  0  0
   -4.3917  -10.3043   15.1105 O   0  0  0  0  0  0  0  0  0  0  0  0
  1  2  1  1  0  0  0
  1  3  1  0  0  0  0
  1  8  1  0  0  0  0
  3  4  1  0  0  0  0
  3 32  1  1  0  0  0
  4  5  1  0  0  0  0
  4 33  1  1  0  0  0
  5  6  1  1  0  0  0
  5  7  1  0  0  0  0
  7  8  1  0  0  0  0
  7  9  1  6  0  0  0
  9 10  1  0  0  0  0
 11 12  1  6  0  0  0
 11 13  1  0  0  0  0
 11 19  1  0  0  0  0
 12 34  1  0  0  0  0
 13 14  1  0  0  0  0
 14 15  1  6  0  0  0
 14 16  1  0  0  0  0
 16  2  1  1  0  0  0
 16 17  1  0  0  0  0
 17 18  1  6  0  0  0
 17 19  1  0  0  0  0
 19 20  1  1  0  0  0
 21 20  1  1  0  0  0
 21 22  1  0  0  0  0
 21 29  1  0  0  0  0
 22 23  1  1  0  0  0
 22 24  1  0  0  0  0
 24 25  1  6  0  0  0
 24 26  1  0  0  0  0
 26 27  1  1  0  0  0
 26 28  1  0  0  0  0
 28 29  1  0  0  0  0
 28 30  1  6  0  0  0
 30 31  1  0  0  0  0
 34 35  2  0  0  0  0
 36 34  1  6  0  0  0
 36 38  1  0  0  0  0
 36 40  1  0  0  0  0
 37 39  1  0  0  0  0
 38 39  1  0  0  0  0
M  END
>  <CHROM.1>
-143.55689110,-162.62027325,-170.56990652,-115.99852497,127.26848809,-115.98320311
54.22387971,-179.36871655,80.40014906,-58.12331567,0.85729586,-9.37237254
17.63736687,-0.95785647,-0.05487727,-2.33868728

>  <Name>
ligand

>  <RI>
0

>  <Rbt.Current_Directory>
/home/itssahil/PROJECTS/Mol_Feturizer/New_Systems/rnas/4P20

>  <Rbt.Executable>
rbdock ($Id: //depot/dev/client3/rdock/2013.1/src/exe/rbdock.cxx#4 $)

>  <Rbt.Library>
libRbt.so (2013.1, Build901 2013/11/27)

>  <Rbt.Parameter_File>
/export/apps/rDock/src/rDock_2013.1_src/data/scripts/dock_solv.prm

>  <Rbt.Receptor>
prm/pocket_docking_2.prm

>  <SCORE>
-3.21164

>  <SCORE.INTER>
-3.68704

>  <SCORE.INTER.CONST>
1

>  <SCORE.INTER.POLAR>
0

>  <SCORE.INTER.ROT>
10

>  <SCORE.INTER.SOLV>
27.1358

>  <SCORE.INTER.VDW>
-21.7699

>  <SCORE.INTER.norm>
-0.0921759

>  <SCORE.INTRA>
-0.0849867

>  <SCORE.INTRA.DIHEDRAL>
-4.27944

>  <SCORE.INTRA.DIHEDRAL.0>
28.2802

>  <SCORE.INTRA.POLAR>
0

>  <SCORE.INTRA.POLAR.0>
0

>  <SCORE.INTRA.REPUL>
0

>  <SCORE.INTRA.REPUL.0>
0

>  <SCORE.INTRA.SOLV>
3.61591

>  <SCORE.INTRA.SOLV.lig_0>
-101.981

>  <SCORE.INTRA.VDW>
0.246782

>  <SCORE.INTRA.VDW.0>
-5.72964

>  <SCORE.INTRA.norm>
-0.00212467

>  <SCORE.RESTR>
0.560386

>  <SCORE.RESTR.CAVITY>
0.560386

>  <SCORE.RESTR.norm>
0.0140097

>  <SCORE.SYSTEM>
0

>  <SCORE.SYSTEM.CONST>
0

>  <SCORE.SYSTEM.DIHEDRAL>
0

>  <SCORE.SYSTEM.SOLV>
0

>  <SCORE.SYSTEM.norm>
0

>  <SCORE.heavy>
40

>  <SCORE.norm>
-0.0802909

>  <RMSD>
1.568

$$$$
ligand
 OpenBabel11021811513D
libRbt.so/2013.1/901 2013/11/27
 40 42  0  0  0  0  0  0  0  0999 V2000
    2.7500   -6.7690   18.5670 C   0  0  2  0  0  0  0  0  0  0  0  0
    1.6815   -7.6309   18.9893 O   0  0  0  0  0  0  0  0  0  0  0  0
    4.1425   -7.3557   19.0098 C   0  0  1  0  0  0  0  0  0  0  0  0
    4.2898   -7.3722   20.5593 C   0  0  2  0  0  0  0  0  0  0  0  0
    4.1587   -5.9005   21.0644 C   0  0  2  0  0  0  0  0  0  0  0  0
    4.3166   -5.8742   22.4993 O   0  0  0  0  0  0  0  0  0  0  0  0
    2.7273   -5.3484   20.6430 C   0  0  2  0  0  0  0  0  0  0  0  0
    2.5878   -5.3961   19.1435 O   0  0  0  0  0  0  0  0  0  0  0  0
    2.5084   -3.9049   21.0748 C   0  0  0  0  0  0  0  0  0  0  0  0
    3.5737   -3.0023   20.5354 N   0  0  0  0  0  0  0  0  0  0  0  0
   -1.6830   -9.7507   17.1141 C   0  0  2  0  0  0  0  0  0  0  0  0
   -2.8248  -10.0046   16.2666 N   0  0  0  0  0  0  0  0  0  0  0  0
   -2.0033   -8.5444   18.0862 C   0  0  0  0  0  0  0  0  0  0  0  0
   -0.7495   -8.2491   19.0252 C   0  0  2  0  0  0  0  0  0  0  0  0
   -1.0581   -7.1263   19.9491 N   0  0  0  0  0  0  0  0  0  0  0  0
    0.5217   -7.9157   18.1144 C   0  0  2  0  0  0  0  0  0  0  0  0
    0.8010   -9.1522   17.1579 C   0  0  2  0  0  0  0  0  0  0  0  0
    1.9388   -8.8652   16.3417 O   0  0  0  0  0  0  0  0  0  0  0  0
   -0.4504   -9.4358   16.2367 C   0  0  1  0  0  0  0  0  0  0  0  0
   -0.1876  -10.5791   15.3855 O   0  0  0  0  0  0  0  0  0  0  0  0
   -0.1638  -10.5577   13.9984 C   0  0  2  0  0  0  0  0  0  0  0  0
   -0.1930  -12.0472   13.5029 C   0  0  2  0  0  0  0  0  0  0  0  0
   -1.3243  -12.6853   14.0008 O   0  0  0  0  0  0  0  0  0  0  0  0
    1.1299  -12.8284   13.9043 C   0  0  1  0  0  0  0  0  0  0  0  0
    1.0864  -14.2400   13.4121 N   0  0  0  0  0  0  0  0  0  0  0  0
    2.3817  -12.0527   13.3023 C   0  0  2  0  0  0  0  0  0  0  0  0
    3.6032  -12.7279   13.6274 O   0  0  0  0  0  0  0  0  0  0  0  0
    2.3653  -10.5804   13.8687 C   0  0  2  0  0  0  0  0  0  0  0  0
    1.0632   -9.8772   13.5104 O   0  0  0  0  0  0  0  0  0  0  0  0
    3.5189   -9.7731   13.3227 C   0  0  0  0  0  0  0  0  0  0  0  0
    3.4199   -9.5516   11.9036 O   0  0  0  0  0  0  0  0  0  0  0  0
    4.2656   -8.7021   18.4657 O   0  0  0  0  0  0  0  0  0  0  0  0
    5.5234   -7.8799   20.8879 O   0  0  0  0  0  0  0  0  0  0  0  0
   -3.8273  -10.9475   16.7056 C   0  0  0  0  0  0  0  0  0  0  0  0
   -3.5248  -11.8384   17.5540 O   0  0  0  0  0  0  0  0  0  0  0  0
   -5.2593  -10.8255   16.0998 C   0  0  2  0  0  0  0  0  0  0  0  0
   -4.7074   -7.9317   16.9960 N   0  0  0  0  0  0  0  0  0  0  0  0
   -6.1759   -9.9462   17.0053 C   0  0  0  0  0  0  0  0  0  0  0  0
   -6.0677   -8.4425   16.7016 C   0  0  0  0  0  0  0  0  0  0  0  0
   -5.8504  -11.9483   16.0095 O   0  0  0  0  0  0  0  0  0  0  0  0
  1  2  1  1  0  0  0
  1  3  1  0  0  0  0
  1  8  1  0  0  0  0
  3  4  1  0  0  0  0
  3 32  1  1  0  0  0
  4  5  1  0  0  0  0
  4 33  1  6  0  0  0
  5  6  1  1  0  0  0
  5  7  1  0  0  0  0
  7  8  1  0  0  0  0
  7  9  1  6  0  0  0
  9 10  1  0  0  0  0
 11 12  1  6  0  0  0
 11 13  1  0  0  0  0
 11 19  1  0  0  0  0
 12 34  1  0  0  0  0
 13 14  1  0  0  0  0
 14 15  1  1  0  0  0
 14 16  1  0  0  0  0
 16  2  1  1  0  0  0
 16 17  1  0  0  0  0
 17 18  1  6  0  0  0
 17 19  1  0  0  0  0
 19 20  1  6  0  0  0
 21 20  1  1  0  0  0
 21 22  1  0  0  0  0
 21 29  1  0  0  0  0
 22 23  1  1  0  0  0
 22 24  1  0  0  0  0
 24 25  1  6  0  0  0
 24 26  1  0  0  0  0
 26 27  1  1  0  0  0
 26 28  1  0  0  0  0
 28 29  1  0  0  0  0
 28 30  1  6  0  0  0
 30 31  1  0  0  0  0
 34 35  2  0  0  0  0
 36 34  1  1  0  0  0
 36 38  1  0  0  0  0
 36 40  1  0  0  0  0
 37 39  1  0  0  0  0
 38 39  1  0  0  0  0
M  END
>  <CHROM.1>
-139.14673372,-152.35147619,56.32785626,-90.56731410,121.21010127,-166.44236874
66.05519954,-93.38071748,86.46066003,-64.19074357,0.49641508,-9.10000194
17.00473450,-0.91373840,-0.11228033,-2.26794516

>  <Name>
ligand

>  <RI>
0

>  <Rbt.Current_Directory>
/home/itssahil/PROJECTS/Mol_Feturizer/New_Systems/rnas/4P20

>  <Rbt.Executable>
rbdock ($Id: //depot/dev/client3/rdock/2013.1/src/exe/rbdock.cxx#4 $)

>  <Rbt.Library>
libRbt.so (2013.1, Build901 2013/11/27)

>  <Rbt.Parameter_File>
/export/apps/rDock/src/rDock_2013.1_src/data/scripts/dock_solv.prm

>  <Rbt.Receptor>
prm/pocket_docking_2.prm

>  <SCORE>
-7.24452

>  <SCORE.INTER>
-6.11013

>  <SCORE.INTER.CONST>
1

>  <SCORE.INTER.POLAR>
0

>  <SCORE.INTER.ROT>
10

>  <SCORE.INTER.SOLV>
25.081

>  <SCORE.INTER.VDW>
-22.7004

>  <SCORE.INTER.norm>
-0.152753

>  <SCORE.INTRA>
-1.14832

>  <SCORE.INTRA.DIHEDRAL>
-6.80974

>  <SCORE.INTRA.DIHEDRAL.0>
28.2802

>  <SCORE.INTRA.POLAR>
0

>  <SCORE.INTRA.POLAR.0>
0

>  <SCORE.INTRA.REPUL>
0

>  <SCORE.INTRA.REPUL.0>
0

>  <SCORE.INTRA.SOLV>
4.98283

>  <SCORE.INTRA.SOLV.lig_0>
-101.981

>  <SCORE.INTRA.VDW>
-0.234866

>  <SCORE.INTRA.VDW.0>
-5.72964

>  <SCORE.INTRA.norm>
-0.028708

>  <SCORE.RESTR>
0.0139316

>  <SCORE.RESTR.CAVITY>
0.0139316

>  <SCORE.RESTR.norm>
0.00034829

>  <SCORE.SYSTEM>
0

>  <SCORE.SYSTEM.CONST>
0

>  <SCORE.SYSTEM.DIHEDRAL>
0

>  <SCORE.SYSTEM.SOLV>
0

>  <SCORE.SYSTEM.norm>
0

>  <SCORE.heavy>
40

>  <SCORE.norm>
-0.181113

>  <RMSD>
1.578

$$$$
ligand
 OpenBabel11021811513D
libRbt.so/2013.1/901 2013/11/27
 40 42  0  0  0  0  0  0  0  0999 V2000
    4.1626   -7.6661   18.8149 C   0  0  2  0  0  0  0  0  0  0  0  0
    3.0135   -8.4820   19.0920 O   0  0  0  0  0  0  0  0  0  0  0  0
    5.3535   -8.0431   19.7735 C   0  0  1  0  0  0  0  0  0  0  0  0
    5.0242   -7.7024   21.2562 C   0  0  2  0  0  0  0  0  0  0  0  0
    4.7512   -6.1674   21.3414 C   0  0  2  0  0  0  0  0  0  0  0  0
    4.4668   -5.8100   22.7110 O   0  0  0  0  0  0  0  0  0  0  0  0
    3.5165   -5.8219   20.3991 C   0  0  2  0  0  0  0  0  0  0  0  0
    3.8379   -6.2133   18.9800 O   0  0  0  0  0  0  0  0  0  0  0  0
    3.1819   -4.3366   20.3970 C   0  0  0  0  0  0  0  0  0  0  0  0
    4.3143   -3.5188   19.8590 N   0  0  0  0  0  0  0  0  0  0  0  0
   -0.6108   -9.9278   17.0662 C   0  0  2  0  0  0  0  0  0  0  0  0
   -1.7359   -9.9680   16.1612 N   0  0  0  0  0  0  0  0  0  0  0  0
   -0.7293   -8.6577   18.0018 C   0  0  0  0  0  0  0  0  0  0  0  0
    0.5090   -8.5972   19.0037 C   0  0  2  0  0  0  0  0  0  0  0  0
    0.3876   -7.4123   19.8930 N   0  0  0  0  0  0  0  0  0  0  0  0
    1.8659   -8.5495   18.1591 C   0  0  2  0  0  0  0  0  0  0  0  0
    1.9373   -9.8407   17.2373 C   0  0  2  0  0  0  0  0  0  0  0  0
    3.1496   -9.8092   16.4805 O   0  0  0  0  0  0  0  0  0  0  0  0
    0.7028   -9.8897   16.2531 C   0  0  1  0  0  0  0  0  0  0  0  0
    0.7717  -11.0835   15.4341 O   0  0  0  0  0  0  0  0  0  0  0  0
    0.0747  -11.2864   14.2518 C   0  0  2  0  0  0  0  0  0  0  0  0
   -0.1935  -12.8278   14.1206 C   0  0  2  0  0  0  0  0  0  0  0  0
   -0.8987  -13.2778   15.2320 O   0  0  0  0  0  0  0  0  0  0  0  0
    1.1532  -13.6462   13.9256 C   0  0  1  0  0  0  0  0  0  0  0  0
    0.8739  -15.1093   13.7903 N   0  0  0  0  0  0  0  0  0  0  0  0
    1.9066  -13.0881   12.6402 C   0  0  2  0  0  0  0  0  0  0  0  0
    3.1260  -13.8057   12.4135 O   0  0  0  0  0  0  0  0  0  0  0  0
    2.1725  -11.5483   12.8574 C   0  0  2  0  0  0  0  0  0  0  0  0
    0.8665  -10.8015   13.0923 O   0  0  0  0  0  0  0  0  0  0  0  0
    2.8703  -10.9416   11.6635 C   0  0  0  0  0  0  0  0  0  0  0  0
    3.1863   -9.5498   11.8523 O   0  0  0  0  0  0  0  0  0  0  0  0
    5.6312   -9.4656   19.6207 O   0  0  0  0  0  0  0  0  0  0  0  0
    6.0986   -8.0389   22.0437 O   0  0  0  0  0  0  0  0  0  0  0  0
   -2.9275  -10.6830   16.5560 C   0  0  0  0  0  0  0  0  0  0  0  0
   -2.8522  -11.5977   17.4293 O   0  0  0  0  0  0  0  0  0  0  0  0
   -4.2737  -10.2920   15.8725 C   0  0  2  0  0  0  0  0  0  0  0  0
   -5.7858   -8.9538   18.2387 N   0  0  0  0  0  0  0  0  0  0  0  0
   -4.5779   -8.7742   16.0654 C   0  0  0  0  0  0  0  0  0  0  0  0
   -4.6264   -8.3469   17.5419 C   0  0  0  0  0  0  0  0  0  0  0  0
   -5.2719  -10.9028   16.3711 O   0  0  0  0  0  0  0  0  0  0  0  0
  1  2  1  1  0  0  0
  1  3  1  0  0  0  0
  1  8  1  0  0  0  0
  3  4  1  0  0  0  0
  3 32  1  1  0  0  0
  4  5  1  0  0  0  0
  4 33  1  1  0  0  0
  5  6  1  1  0  0  0
  5  7  1  0  0  0  0
  7  8  1  0  0  0  0
  7  9  1  6  0  0  0
  9 10  1  0  0  0  0
 11 12  1  6  0  0  0
 11 13  1  0  0  0  0
 11 19  1  0  0  0  0
 12 34  1  0  0  0  0
 13 14  1  0  0  0  0
 14 15  1  6  0  0  0
 14 16  1  0  0  0  0
 16  2  1  1  0  0  0
 16 17  1  0  0  0  0
 17 18  1  6  0  0  0
 17 19  1  0  0  0  0
 19 20  1  1  0  0  0
 21 20  1  1  0  0  0
 21 22  1  0  0  0  0
 21 29  1  0  0  0  0
 22 23  1  1  0  0  0
 22 24  1  0  0  0  0
 24 25  1  6  0  0  0
 24 26  1  0  0  0  0
 26 27  1  1  0  0  0
 26 28  1  0  0  0  0
 28 29  1  0  0  0  0
 28 30  1  6  0  0  0
 30 31  1  0  0  0  0
 34 35  2  0  0  0  0
 36 34  1  1  0  0  0
 36 38  1  0  0  0  0
 36 40  1  0  0  0  0
 37 39  1  0  0  0  0
 38 39  1  0  0  0  0
M  END
>  <CHROM.1>
-166.35373690,-141.13165704,62.52998391,-90.81668488,77.62964693,-150.00502454
-177.24158388,-56.56764041,-57.13956458,-67.26852617,1.14400399,-9.52001318
17.04559136,-0.99171793,-0.03678442,-2.25285354

>  <Name>
ligand

>  <RI>
0

>  <Rbt.Current_Directory>
/home/itssahil/PROJECTS/Mol_Feturizer/New_Systems/rnas/4P20

>  <Rbt.Executable>
rbdock ($Id: //depot/dev/client3/rdock/2013.1/src/exe/rbdock.cxx#4 $)

>  <Rbt.Library>
libRbt.so (2013.1, Build901 2013/11/27)

>  <Rbt.Parameter_File>
/export/apps/rDock/src/rDock_2013.1_src/data/scripts/dock_solv.prm

>  <Rbt.Receptor>
prm/pocket_docking_4.prm

>  <SCORE>
-15.8221

>  <SCORE.INTER>
-10.5293

>  <SCORE.INTER.CONST>
1

>  <SCORE.INTER.POLAR>
0

>  <SCORE.INTER.ROT>
10

>  <SCORE.INTER.SOLV>
24.594

>  <SCORE.INTER.VDW>
-25.4842

>  <SCORE.INTER.norm>
-0.263232

>  <SCORE.INTRA>
-5.29279

>  <SCORE.INTRA.DIHEDRAL>
-15.4242

>  <SCORE.INTRA.DIHEDRAL.0>
28.2802

>  <SCORE.INTRA.POLAR>
0

>  <SCORE.INTRA.POLAR.0>
0

>  <SCORE.INTRA.REPUL>
0

>  <SCORE.INTRA.REPUL.0>
0

>  <SCORE.INTRA.SOLV>
3.45113

>  <SCORE.INTRA.SOLV.lig_0>
-101.981

>  <SCORE.INTRA.VDW>
0.693745

>  <SCORE.INTRA.VDW.0>
-5.72964

>  <SCORE.INTRA.norm>
-0.13232

>  <SCORE.RESTR>
0

>  <SCORE.RESTR.CAVITY>
0

>  <SCORE.RESTR.norm>
0

>  <SCORE.SYSTEM>
0

>  <SCORE.SYSTEM.CONST>
0

>  <SCORE.SYSTEM.DIHEDRAL>
0

>  <SCORE.SYSTEM.SOLV>
0

>  <SCORE.SYSTEM.norm>
0

>  <SCORE.heavy>
40

>  <SCORE.norm>
-0.395551

>  <RMSD>
1.584

$$$$
ligand
 OpenBabel11021811513D
libRbt.so/2013.1/901 2013/11/27
 40 42  0  0  0  0  0  0  0  0999 V2000
    3.5530   -6.4611   19.2703 C   0  0  2  0  0  0  0  0  0  0  0  0
    2.4622   -7.2982   19.6856 O   0  0  0  0  0  0  0  0  0  0  0  0
    4.7805   -6.6283   20.2422 C   0  0  1  0  0  0  0  0  0  0  0  0
    4.4540   -6.1049   21.6714 C   0  0  2  0  0  0  0  0  0  0  0  0
    4.0859   -4.5922   21.5505 C   0  0  2  0  0  0  0  0  0  0  0  0
    3.8015   -4.0654   22.8643 O   0  0  0  0  0  0  0  0  0  0  0  0
    2.8171   -4.4565   20.6002 C   0  0  2  0  0  0  0  0  0  0  0  0
    3.1398   -5.0216   19.2412 O   0  0  0  0  0  0  0  0  0  0  0  0
    2.3893   -3.0089   20.4013 C   0  0  0  0  0  0  0  0  0  0  0  0
    1.8963   -2.4012   21.6773 N   0  0  0  0  0  0  0  0  0  0  0  0
   -0.8911   -9.3962   17.7663 C   0  0  2  0  0  0  0  0  0  0  0  0
   -2.0217   -9.6436   16.9021 N   0  0  0  0  0  0  0  0  0  0  0  0
   -1.2159   -8.1831   18.7284 C   0  0  0  0  0  0  0  0  0  0  0  0
    0.0255   -7.8949   19.6858 C   0  0  2  0  0  0  0  0  0  0  0  0
   -0.2875   -6.7655   20.6002 N   0  0  0  0  0  0  0  0  0  0  0  0
    1.3138   -7.5765   18.7937 C   0  0  2  0  0  0  0  0  0  0  0  0
    1.5970   -8.8195   17.8468 C   0  0  2  0  0  0  0  0  0  0  0  0
    2.7500   -8.5459   17.0473 O   0  0  0  0  0  0  0  0  0  0  0  0
    0.3577   -9.0959   16.9071 C   0  0  1  0  0  0  0  0  0  0  0  0
    0.6237  -10.2449   16.0648 O   0  0  0  0  0  0  0  0  0  0  0  0
    0.7776  -10.2105   14.6864 C   0  0  2  0  0  0  0  0  0  0  0  0
   -0.4589  -10.9435   14.0550 C   0  0  2  0  0  0  0  0  0  0  0  0
   -1.6336  -10.3244   14.4697 O   0  0  0  0  0  0  0  0  0  0  0  0
   -0.4706  -12.4915   14.4082 C   0  0  1  0  0  0  0  0  0  0  0  0
   -1.6487  -13.1720   13.7870 N   0  0  0  0  0  0  0  0  0  0  0  0
    0.8928  -13.1389   13.9048 C   0  0  2  0  0  0  0  0  0  0  0  0
    0.9253  -14.5428   14.1899 O   0  0  0  0  0  0  0  0  0  0  0  0
    2.0848  -12.3781   14.6043 C   0  0  2  0  0  0  0  0  0  0  0  0
    2.0370  -10.8896   14.2872 O   0  0  0  0  0  0  0  0  0  0  0  0
    3.4189  -12.9267   14.1577 C   0  0  0  0  0  0  0  0  0  0  0  0
    3.5561  -14.3359   14.4189 O   0  0  0  0  0  0  0  0  0  0  0  0
    5.1450   -8.0388   20.2804 O   0  0  0  0  0  0  0  0  0  0  0  0
    5.5599   -6.2630   22.4711 O   0  0  0  0  0  0  0  0  0  0  0  0
   -2.9469  -10.6993   17.2435 C   0  0  0  0  0  0  0  0  0  0  0  0
   -2.5692  -11.6495   17.9914 O   0  0  0  0  0  0  0  0  0  0  0  0
   -4.3914  -10.6209   16.6607 C   0  0  2  0  0  0  0  0  0  0  0  0
   -7.0053  -11.3476   15.2126 N   0  0  0  0  0  0  0  0  0  0  0  0
   -5.0394  -12.0377   16.5816 C   0  0  0  0  0  0  0  0  0  0  0  0
   -6.5729  -11.9993   16.4721 C   0  0  0  0  0  0  0  0  0  0  0  0
   -4.4160  -10.1710   15.4711 O   0  0  0  0  0  0  0  0  0  0  0  0
  1  2  1  1  0  0  0
  1  3  1  0  0  0  0
  1  8  1  0  0  0  0
  3  4  1  0  0  0  0
  3 32  1  1  0  0  0
  4  5  1  0  0  0  0
  4 33  1  1  0  0  0
  5  6  1  1  0  0  0
  5  7  1  0  0  0  0
  7  8  1  0  0  0  0
  7  9  1  6  0  0  0
  9 10  1  0  0  0  0
 11 12  1  6  0  0  0
 11 13  1  0  0  0  0
 11 19  1  0  0  0  0
 12 34  1  0  0  0  0
 13 14  1  0  0  0  0
 14 15  1  1  0  0  0
 14 16  1  0  0  0  0
 16  2  1  1  0  0  0
 16 17  1  0  0  0  0
 17 18  1  6  0  0  0
 17 19  1  0  0  0  0
 19 20  1  6  0  0  0
 21 20  1  1  0  0  0
 21 22  1  0  0  0  0
 21 29  1  0  0  0  0
 22 23  1  1  0  0  0
 22 24  1  0  0  0  0
 24 25  1  6  0  0  0
 24 26  1  0  0  0  0
 26 27  1  1  0  0  0
 26 28  1  0  0  0  0
 28 29  1  0  0  0  0
 28 30  1  6  0  0  0
 30 31  1  0  0  0  0
 34 35  2  0  0  0  0
 36 34  1  6  0  0  0
 36 38  1  0  0  0  0
 36 40  1  0  0  0  0
 37 39  1  0  0  0  0
 38 39  1  0  0  0  0
M  END
>  <CHROM.1>
-165.65210253,-153.14518526,-65.77399218,-98.57619879,126.78930922,-111.52607230
-57.75274034,155.38723370,160.78174180,63.79053335,0.61302410,-9.12313411
17.57115305,-1.02336443,0.00108417,-2.42672851

>  <Name>
ligand

>  <RI>
0

>  <Rbt.Current_Directory>
/home/itssahil/PROJECTS/Mol_Feturizer/New_Systems/rnas/4P20

>  <Rbt.Executable>
rbdock ($Id: //depot/dev/client3/rdock/2013.1/src/exe/rbdock.cxx#4 $)

>  <Rbt.Library>
libRbt.so (2013.1, Build901 2013/11/27)

>  <Rbt.Parameter_File>
/export/apps/rDock/src/rDock_2013.1_src/data/scripts/dock_solv.prm

>  <Rbt.Receptor>
prm/pocket_docking_2.prm

>  <SCORE>
-4.89243

>  <SCORE.INTER>
-4.28613

>  <SCORE.INTER.CONST>
1

>  <SCORE.INTER.POLAR>
0

>  <SCORE.INTER.ROT>
10

>  <SCORE.INTER.SOLV>
26.4863

>  <SCORE.INTER.VDW>
-21.9529

>  <SCORE.INTER.norm>
-0.107153

>  <SCORE.INTRA>
-1.10559

>  <SCORE.INTRA.DIHEDRAL>
-6.81568

>  <SCORE.INTRA.DIHEDRAL.0>
28.2802

>  <SCORE.INTRA.POLAR>
0

>  <SCORE.INTRA.POLAR.0>
0

>  <SCORE.INTRA.REPUL>
0.0180341

>  <SCORE.INTRA.REPUL.0>
0

>  <SCORE.INTRA.SOLV>
2.7268

>  <SCORE.INTRA.SOLV.lig_0>
-101.981

>  <SCORE.INTRA.VDW>
0.848681

>  <SCORE.INTRA.VDW.0>
-5.72964

>  <SCORE.INTRA.norm>
-0.0276397

>  <SCORE.RESTR>
0.499287

>  <SCORE.RESTR.CAVITY>
0.499287

>  <SCORE.RESTR.norm>
0.0124822

>  <SCORE.SYSTEM>
0

>  <SCORE.SYSTEM.CONST>
0

>  <SCORE.SYSTEM.DIHEDRAL>
0

>  <SCORE.SYSTEM.SOLV>
0

>  <SCORE.SYSTEM.norm>
0

>  <SCORE.heavy>
40

>  <SCORE.norm>
-0.122311

>  <RMSD>
1.588

$$$$
ligand
 OpenBabel11021811513D
libRbt.so/2013.1/901 2013/11/27
 40 42  0  0  0  0  0  0  0  0999 V2000
    3.4557   -6.5597   19.0606 C   0  0  2  0  0  0  0  0  0  0  0  0
    2.3450   -7.4010   19.4095 O   0  0  0  0  0  0  0  0  0  0  0  0
    4.7878   -7.1102   19.6942 C   0  0  1  0  0  0  0  0  0  0  0  0
    4.7568   -7.0325   21.2486 C   0  0  2  0  0  0  0  0  0  0  0  0
    4.5702   -5.5338   21.6454 C   0  0  2  0  0  0  0  0  0  0  0  0
    4.5628   -5.4201   23.0846 O   0  0  0  0  0  0  0  0  0  0  0  0
    3.1968   -5.0167   21.0305 C   0  0  2  0  0  0  0  0  0  0  0  0
    3.2298   -5.1555   19.5305 O   0  0  0  0  0  0  0  0  0  0  0  0
    2.9313   -3.5511   21.3463 C   0  0  0  0  0  0  0  0  0  0  0  0
    3.9571   -2.6592   20.7194 N   0  0  0  0  0  0  0  0  0  0  0  0
   -0.8410   -9.4559   17.1831 C   0  0  2  0  0  0  0  0  0  0  0  0
   -1.9443   -9.6660   16.2749 N   0  0  0  0  0  0  0  0  0  0  0  0
   -1.2559   -8.3985   18.2843 C   0  0  0  0  0  0  0  0  0  0  0  0
   -0.0455   -8.1525   19.2920 C   0  0  2  0  0  0  0  0  0  0  0  0
   -0.4426   -7.1712   20.3355 N   0  0  0  0  0  0  0  0  0  0  0  0
    1.2262   -7.6393   18.4697 C   0  0  2  0  0  0  0  0  0  0  0  0
    1.6016   -8.7308   17.3790 C   0  0  2  0  0  0  0  0  0  0  0  0
    2.7405   -8.2826   16.6407 O   0  0  0  0  0  0  0  0  0  0  0  0
    0.3924   -8.9673   16.3905 C   0  0  1  0  0  0  0  0  0  0  0  0
    0.7432   -9.9803   15.4151 O   0  0  0  0  0  0  0  0  0  0  0  0
    1.3709   -9.7414   14.2011 C   0  0  2  0  0  0  0  0  0  0  0  0
    1.1833  -11.0223   13.3128 C   0  0  2  0  0  0  0  0  0  0  0  0
   -0.1726  -11.2935   13.1606 O   0  0  0  0  0  0  0  0  0  0  0  0
    1.9550  -12.2740   13.9121 C   0  0  1  0  0  0  0  0  0  0  0  0
    1.7733  -13.4787   13.0445 N   0  0  0  0  0  0  0  0  0  0  0  0
    3.4951  -11.9016   14.0556 C   0  0  2  0  0  0  0  0  0  0  0  0
    4.2391  -13.0073   14.5822 O   0  0  0  0  0  0  0  0  0  0  0  0
    3.6083  -10.6321   14.9854 C   0  0  2  0  0  0  0  0  0  0  0  0
    2.8159   -9.4667   14.4087 O   0  0  0  0  0  0  0  0  0  0  0  0
    5.0470  -10.2050   15.1527 C   0  0  0  0  0  0  0  0  0  0  0  0
    5.1912   -9.0643   16.0190 O   0  0  0  0  0  0  0  0  0  0  0  0
    4.9711   -8.4862   19.2503 O   0  0  0  0  0  0  0  0  0  0  0  0
    5.9443   -7.5120   21.7461 O   0  0  0  0  0  0  0  0  0  0  0  0
   -3.1120  -10.3758   16.7434 C   0  0  0  0  0  0  0  0  0  0  0  0
   -3.0157  -11.1629   17.7315 O   0  0  0  0  0  0  0  0  0  0  0  0
   -4.4594  -10.1397   15.9942 C   0  0  2  0  0  0  0  0  0  0  0  0
   -7.3960   -9.1173   15.8242 N   0  0  0  0  0  0  0  0  0  0  0  0
   -4.9721   -8.6827   16.2126 C   0  0  0  0  0  0  0  0  0  0  0  0
   -6.2148   -8.3434   15.3726 C   0  0  0  0  0  0  0  0  0  0  0  0
   -5.3932  -10.8935   16.4160 O   0  0  0  0  0  0  0  0  0  0  0  0
  1  2  1  1  0  0  0
  1  3  1  0  0  0  0
  1  8  1  0  0  0  0
  3  4  1  0  0  0  0
  3 32  1  1  0  0  0
  4  5  1  0  0  0  0
  4 33  1  1  0  0  0
  5  6  1  1  0  0  0
  5  7  1  0  0  0  0
  7  8  1  0  0  0  0
  7  9  1  6  0  0  0
  9 10  1  0  0  0  0
 11 12  1  6  0  0  0
 11 13  1  0  0  0  0
 11 19  1  0  0  0  0
 12 34  1  0  0  0  0
 13 14  1  0  0  0  0
 14 15  1  1  0  0  0
 14 16  1  0  0  0  0
 16  2  1  1  0  0  0
 16 17  1  0  0  0  0
 17 18  1  6  0  0  0
 17 19  1  0  0  0  0
 19 20  1  6  0  0  0
 21 20  1  1  0  0  0
 21 22  1  0  0  0  0
 21 29  1  0  0  0  0
 22 23  1  1  0  0  0
 22 24  1  0  0  0  0
 24 25  1  6  0  0  0
 24 26  1  0  0  0  0
 26 27  1  1  0  0  0
 26 28  1  0  0  0  0
 28 29  1  0  0  0  0
 28 30  1  6  0  0  0
 30 31  1  0  0  0  0
 34 35  2  0  0  0  0
 36 34  1  1  0  0  0
 36 38  1  0  0  0  0
 36 40  1  0  0  0  0
 37 39  1  0  0  0  0
 38 39  1  0  0  0  0
M  END
>  <CHROM.1>
-145.15309583,-160.09929913,63.99425257,-70.76083080,151.62738795,-164.05090015
-178.78172778,-67.51791879,173.61613304,67.60586691,1.21083070,-8.72371871
17.37194248,0.79872586,-0.02454891,0.84928526

>  <Name>
ligand

>  <RI>
0

>  <Rbt.Current_Directory>
/home/itssahil/PROJECTS/Mol_Feturizer/New_Systems/rnas/4P20

>  <Rbt.Executable>
rbdock ($Id: //depot/dev/client3/rdock/2013.1/src/exe/rbdock.cxx#4 $)

>  <Rbt.Library>
libRbt.so (2013.1, Build901 2013/11/27)

>  <Rbt.Parameter_File>
/export/apps/rDock/src/rDock_2013.1_src/data/scripts/dock_solv.prm

>  <Rbt.Receptor>
prm/pocket_docking_4.prm

>  <SCORE>
-12.1495

>  <SCORE.INTER>
-6.33609

>  <SCORE.INTER.CONST>
1

>  <SCORE.INTER.POLAR>
0

>  <SCORE.INTER.ROT>
10

>  <SCORE.INTER.SOLV>
23.0239

>  <SCORE.INTER.VDW>
-22.1653

>  <SCORE.INTER.norm>
-0.158402

>  <SCORE.INTRA>
-5.81338

>  <SCORE.INTRA.DIHEDRAL>
-16.1198

>  <SCORE.INTRA.DIHEDRAL.0>
28.2802

>  <SCORE.INTRA.POLAR>
0

>  <SCORE.INTRA.POLAR.0>
0

>  <SCORE.INTRA.REPUL>
0

>  <SCORE.INTRA.REPUL.0>
0

>  <SCORE.INTRA.SOLV>
1.95319

>  <SCORE.INTRA.SOLV.lig_0>
-101.981

>  <SCORE.INTRA.VDW>
1.26992

>  <SCORE.INTRA.VDW.0>
-5.72964

>  <SCORE.INTRA.norm>
-0.145335

>  <SCORE.RESTR>
0

>  <SCORE.RESTR.CAVITY>
0

>  <SCORE.RESTR.norm>
0

>  <SCORE.SYSTEM>
0

>  <SCORE.SYSTEM.CONST>
0

>  <SCORE.SYSTEM.DIHEDRAL>
0

>  <SCORE.SYSTEM.SOLV>
0

>  <SCORE.SYSTEM.norm>
0

>  <SCORE.heavy>
40

>  <SCORE.norm>
-0.303737

>  <RMSD>
1.622

$$$$
ligand
 OpenBabel11021811513D
libRbt.so/2013.1/901 2013/11/27
 40 42  0  0  0  0  0  0  0  0999 V2000
    4.2425   -8.0030   18.8486 C   0  0  2  0  0  0  0  0  0  0  0  0
    2.9865   -8.6113   19.1882 O   0  0  0  0  0  0  0  0  0  0  0  0
    5.3695   -8.4656   19.8461 C   0  0  1  0  0  0  0  0  0  0  0  0
    5.1027   -7.9491   21.2900 C   0  0  2  0  0  0  0  0  0  0  0  0
    5.0612   -6.3891   21.2362 C   0  0  2  0  0  0  0  0  0  0  0  0
    4.8407   -5.8728   22.5664 O   0  0  0  0  0  0  0  0  0  0  0  0
    3.8863   -5.9495   20.2573 C   0  0  2  0  0  0  0  0  0  0  0  0
    4.1381   -6.5091   18.8813 O   0  0  0  0  0  0  0  0  0  0  0  0
    3.7760   -4.4371   20.1205 C   0  0  0  0  0  0  0  0  0  0  0  0
    3.2894   -3.8047   21.3870 N   0  0  0  0  0  0  0  0  0  0  0  0
   -0.6384   -9.9540   17.0937 C   0  0  2  0  0  0  0  0  0  0  0  0
   -1.7445   -9.9644   16.1647 N   0  0  0  0  0  0  0  0  0  0  0  0
   -0.7357   -8.6737   18.0179 C   0  0  0  0  0  0  0  0  0  0  0  0
    0.4821   -8.6459   19.0461 C   0  0  2  0  0  0  0  0  0  0  0  0
    0.3801   -7.4512   19.9246 N   0  0  0  0  0  0  0  0  0  0  0  0
    1.8577   -8.6485   18.2310 C   0  0  2  0  0  0  0  0  0  0  0  0
    1.9069   -9.9482   17.3197 C   0  0  2  0  0  0  0  0  0  0  0  0
    3.1356   -9.9616   16.5893 O   0  0  0  0  0  0  0  0  0  0  0  0
    0.6929   -9.9645   16.3092 C   0  0  1  0  0  0  0  0  0  0  0  0
    0.7406  -11.1660   15.5000 O   0  0  0  0  0  0  0  0  0  0  0  0
    0.0525  -11.3600   14.3110 C   0  0  2  0  0  0  0  0  0  0  0  0
   -0.1463  -12.9066   14.1277 C   0  0  2  0  0  0  0  0  0  0  0  0
   -0.8298  -13.4249   15.2228 O   0  0  0  0  0  0  0  0  0  0  0  0
    1.2356  -13.6568   13.9063 C   0  0  1  0  0  0  0  0  0  0  0  0
    1.0221  -15.1255   13.7216 N   0  0  0  0  0  0  0  0  0  0  0  0
    1.9621  -13.0225   12.6410 C   0  0  2  0  0  0  0  0  0  0  0  0
    3.2124  -13.6766   12.3912 O   0  0  0  0  0  0  0  0  0  0  0  0
    2.1589  -11.4805   12.9101 C   0  0  2  0  0  0  0  0  0  0  0  0
    0.8209  -10.8013   13.1691 O   0  0  0  0  0  0  0  0  0  0  0  0
    2.8279  -10.8032   11.7379 C   0  0  0  0  0  0  0  0  0  0  0  0
    4.1727  -11.2689   11.5202 O   0  0  0  0  0  0  0  0  0  0  0  0
    5.4320   -9.9215   19.8226 O   0  0  0  0  0  0  0  0  0  0  0  0
    6.1195   -8.3698   22.1126 O   0  0  0  0  0  0  0  0  0  0  0  0
   -2.9858  -10.5887   16.5602 C   0  0  0  0  0  0  0  0  0  0  0  0
   -2.9853  -11.4683   17.4719 O   0  0  0  0  0  0  0  0  0  0  0  0
   -4.2907  -10.1464   15.8294 C   0  0  2  0  0  0  0  0  0  0  0  0
   -5.3544   -7.5853   17.2567 N   0  0  0  0  0  0  0  0  0  0  0  0
   -5.4822  -10.0382   16.8305 C   0  0  0  0  0  0  0  0  0  0  0  0
   -5.2958   -8.9294   17.8796 C   0  0  0  0  0  0  0  0  0  0  0  0
   -4.6655  -10.9823   14.9469 O   0  0  0  0  0  0  0  0  0  0  0  0
  1  2  1  1  0  0  0
  1  3  1  0  0  0  0
  1  8  1  0  0  0  0
  3  4  1  0  0  0  0
  3 32  1  1  0  0  0
  4  5  1  0  0  0  0
  4 33  1  1  0  0  0
  5  6  1  1  0  0  0
  5  7  1  0  0  0  0
  7  8  1  0  0  0  0
  7  9  1  6  0  0  0
  9 10  1  0  0  0  0
 11 12  1  6  0  0  0
 11 13  1  0  0  0  0
 11 19  1  0  0  0  0
 12 34  1  0  0  0  0
 13 14  1  0  0  0  0
 14 15  1  6  0  0  0
 14 16  1  0  0  0  0
 16  2  1  1  0  0  0
 16 17  1  0  0  0  0
 17 18  1  6  0  0  0
 17 19  1  0  0  0  0
 19 20  1  1  0  0  0
 21 20  1  1  0  0  0
 21 22  1  0  0  0  0
 21 29  1  0  0  0  0
 22 23  1  1  0  0  0
 22 24  1  0  0  0  0
 24 25  1  6  0  0  0
 24 26  1  0  0  0  0
 26 27  1  1  0  0  0
 26 28  1  0  0  0  0
 28 29  1  0  0  0  0
 28 30  1  6  0  0  0
 30 31  1  0  0  0  0
 34 35  2  0  0  0  0
 36 34  1  1  0  0  0
 36 38  1  0  0  0  0
 36 40  1  0  0  0  0
 37 39  1  0  0  0  0
 38 39  1  0  0  0  0
M  END
>  <CHROM.1>
-163.32440038,-150.57971231,-69.24484084,-88.24280586,76.94618812,-154.74277464
-64.89956950,-140.25481747,65.32247502,68.07629409,1.18235790,-9.66414458
17.04764546,-0.98977913,0.01164095,-2.24975746

>  <Name>
ligand

>  <RI>
0

>  <Rbt.Current_Directory>
/home/itssahil/PROJECTS/Mol_Feturizer/New_Systems/rnas/4P20

>  <Rbt.Executable>
rbdock ($Id: //depot/dev/client3/rdock/2013.1/src/exe/rbdock.cxx#4 $)

>  <Rbt.Library>
libRbt.so (2013.1, Build901 2013/11/27)

>  <Rbt.Parameter_File>
/export/apps/rDock/src/rDock_2013.1_src/data/scripts/dock_solv.prm

>  <Rbt.Receptor>
prm/pocket_docking_5.prm

>  <SCORE>
-17.1827

>  <SCORE.INTER>
-10.3531

>  <SCORE.INTER.CONST>
1

>  <SCORE.INTER.POLAR>
0

>  <SCORE.INTER.ROT>
10

>  <SCORE.INTER.SOLV>
21.0327

>  <SCORE.INTER.VDW>
-24.1796

>  <SCORE.INTER.norm>
-0.258828

>  <SCORE.INTRA>
-6.82962

>  <SCORE.INTRA.DIHEDRAL>
-16.1413

>  <SCORE.INTRA.DIHEDRAL.0>
28.2802

>  <SCORE.INTRA.POLAR>
0

>  <SCORE.INTRA.POLAR.0>
0

>  <SCORE.INTRA.REPUL>
0

>  <SCORE.INTRA.REPUL.0>
0

>  <SCORE.INTRA.SOLV>
1.06293

>  <SCORE.INTRA.SOLV.lig_0>
-101.981

>  <SCORE.INTRA.VDW>
0.70955

>  <SCORE.INTRA.VDW.0>
-5.72964

>  <SCORE.INTRA.norm>
-0.170741

>  <SCORE.RESTR>
0

>  <SCORE.RESTR.CAVITY>
0

>  <SCORE.RESTR.norm>
0

>  <SCORE.SYSTEM>
0

>  <SCORE.SYSTEM.CONST>
0

>  <SCORE.SYSTEM.DIHEDRAL>
0

>  <SCORE.SYSTEM.SOLV>
0

>  <SCORE.SYSTEM.norm>
0

>  <SCORE.heavy>
40

>  <SCORE.norm>
-0.429568

>  <RMSD>
1.625

$$$$
ligand
 OpenBabel11021811513D
libRbt.so/2013.1/901 2013/11/27
 40 42  0  0  0  0  0  0  0  0999 V2000
    4.0727   -7.5644   18.8809 C   0  0  2  0  0  0  0  0  0  0  0  0
    2.8960   -8.3352   19.1709 O   0  0  0  0  0  0  0  0  0  0  0  0
    5.2597   -7.9897   19.8240 C   0  0  1  0  0  0  0  0  0  0  0  0
    4.9623   -7.6395   21.3113 C   0  0  2  0  0  0  0  0  0  0  0  0
    4.7507   -6.0950   21.4022 C   0  0  2  0  0  0  0  0  0  0  0  0
    4.4975   -5.7296   22.7759 O   0  0  0  0  0  0  0  0  0  0  0  0
    3.5190   -5.6995   20.4759 C   0  0  2  0  0  0  0  0  0  0  0  0
    3.8073   -6.1002   19.0523 O   0  0  0  0  0  0  0  0  0  0  0  0
    3.2429   -4.2022   20.4803 C   0  0  0  0  0  0  0  0  0  0  0  0
    4.3632   -3.4348   19.8505 N   0  0  0  0  0  0  0  0  0  0  0  0
   -0.5812   -9.9119   16.9907 C   0  0  2  0  0  0  0  0  0  0  0  0
   -1.6838   -9.9792   16.0601 N   0  0  0  0  0  0  0  0  0  0  0  0
   -0.8047   -8.7059   17.9898 C   0  0  0  0  0  0  0  0  0  0  0  0
    0.4076   -8.6159   19.0209 C   0  0  2  0  0  0  0  0  0  0  0  0
    0.1879   -7.4925   19.9691 N   0  0  0  0  0  0  0  0  0  0  0  0
    1.7734   -8.4297   18.2104 C   0  0  2  0  0  0  0  0  0  0  0  0
    1.9512   -9.6606   17.2230 C   0  0  2  0  0  0  0  0  0  0  0  0
    3.1722   -9.5052   16.4961 O   0  0  0  0  0  0  0  0  0  0  0  0
    0.7415   -9.7399   16.2103 C   0  0  1  0  0  0  0  0  0  0  0  0
    0.9082  -10.8796   15.3307 O   0  0  0  0  0  0  0  0  0  0  0  0
    0.3692  -10.9957   14.0575 C   0  0  2  0  0  0  0  0  0  0  0  0
   -0.0735  -12.4900   13.8669 C   0  0  2  0  0  0  0  0  0  0  0  0
   -0.9841  -12.8399   14.8587 O   0  0  0  0  0  0  0  0  0  0  0  0
    1.1704  -13.4769   13.8561 C   0  0  1  0  0  0  0  0  0  0  0  0
    0.7275  -14.8920   13.6610 N   0  0  0  0  0  0  0  0  0  0  0  0
    2.1673  -13.0269   12.7007 C   0  0  2  0  0  0  0  0  0  0  0  0
    3.3040  -13.8974   12.6416 O   0  0  0  0  0  0  0  0  0  0  0  0
    2.5952  -11.5335   12.9760 C   0  0  2  0  0  0  0  0  0  0  0  0
    1.3762  -10.6227   13.0311 O   0  0  0  0  0  0  0  0  0  0  0  0
    3.5306  -11.0277   11.9038 C   0  0  0  0  0  0  0  0  0  0  0  0
    2.9288  -11.0274   10.5959 O   0  0  0  0  0  0  0  0  0  0  0  0
    5.4795   -9.4217   19.6655 O   0  0  0  0  0  0  0  0  0  0  0  0
    6.0323   -8.0194   22.0848 O   0  0  0  0  0  0  0  0  0  0  0  0
   -2.8026  -10.8422   16.3606 C   0  0  0  0  0  0  0  0  0  0  0  0
   -2.6478  -11.8220   17.1487 O   0  0  0  0  0  0  0  0  0  0  0  0
   -4.1718  -10.5247   15.6845 C   0  0  2  0  0  0  0  0  0  0  0  0
   -6.5500   -7.4570   15.9997 N   0  0  0  0  0  0  0  0  0  0  0  0
   -4.7338   -9.1554   16.1771 C   0  0  0  0  0  0  0  0  0  0  0  0
   -6.0438   -8.7503   15.4809 C   0  0  0  0  0  0  0  0  0  0  0  0
   -5.0689  -11.3804   15.9691 O   0  0  0  0  0  0  0  0  0  0  0  0
  1  2  1  1  0  0  0
  1  3  1  0  0  0  0
  1  8  1  0  0  0  0
  3  4  1  0  0  0  0
  3 32  1  1  0  0  0
  4  5  1  0  0  0  0
  4 33  1  1  0  0  0
  5  6  1  1  0  0  0
  5  7  1  0  0  0  0
  7  8  1  0  0  0  0
  7  9  1  6  0  0  0
  9 10  1  0  0  0  0
 11 12  1  6  0  0  0
 11 13  1  0  0  0  0
 11 19  1  0  0  0  0
 12 34  1  0  0  0  0
 13 14  1  0  0  0  0
 14 15  1  1  0  0  0
 14 16  1  0  0  0  0
 16  2  1  1  0  0  0
 16 17  1  0  0  0  0
 17 18  1  6  0  0  0
 17 19  1  0  0  0  0
 19 20  1  6  0  0  0
 21 20  1  1  0  0  0
 21 22  1  0  0  0  0
 21 29  1  0  0  0  0
 22 23  1  1  0  0  0
 22 24  1  0  0  0  0
 24 25  1  6  0  0  0
 24 26  1  0  0  0  0
 26 27  1  1  0  0  0
 26 28  1  0  0  0  0
 28 29  1  0  0  0  0
 28 30  1  6  0  0  0
 30 31  1  0  0  0  0
 34 35  2  0  0  0  0
 36 34  1  1  0  0  0
 36 38  1  0  0  0  0
 36 40  1  0  0  0  0
 37 39  1  0  0  0  0
 38 39  1  0  0  0  0
M  END
>  <CHROM.1>
-162.12033517,-149.50429296,66.12831862,-93.64173574,85.41321180,-142.31810009
61.44735073,-65.10933832,176.59768561,178.95667118,1.13483775,-9.48722544
16.88108703,-0.97982945,0.03633044,-2.26295763

>  <Name>
ligand

>  <RI>
0

>  <Rbt.Current_Directory>
/home/itssahil/PROJECTS/Mol_Feturizer/New_Systems/rnas/4P20

>  <Rbt.Executable>
rbdock ($Id: //depot/dev/client3/rdock/2013.1/src/exe/rbdock.cxx#4 $)

>  <Rbt.Library>
libRbt.so (2013.1, Build901 2013/11/27)

>  <Rbt.Parameter_File>
/export/apps/rDock/src/rDock_2013.1_src/data/scripts/dock_solv.prm

>  <Rbt.Receptor>
prm/pocket_docking_3.prm

>  <SCORE>
-15.4356

>  <SCORE.INTER>
-9.55822

>  <SCORE.INTER.CONST>
1

>  <SCORE.INTER.POLAR>
0

>  <SCORE.INTER.ROT>
10

>  <SCORE.INTER.SOLV>
28.0501

>  <SCORE.INTER.VDW>
-25.9888

>  <SCORE.INTER.norm>
-0.238955

>  <SCORE.INTRA>
-5.87736

>  <SCORE.INTRA.DIHEDRAL>
-13.6172

>  <SCORE.INTRA.DIHEDRAL.0>
28.2802

>  <SCORE.INTRA.POLAR>
0

>  <SCORE.INTRA.POLAR.0>
0

>  <SCORE.INTRA.REPUL>
0

>  <SCORE.INTRA.REPUL.0>
0

>  <SCORE.INTRA.SOLV>
0.644193

>  <SCORE.INTRA.SOLV.lig_0>
-101.981

>  <SCORE.INTRA.VDW>
0.609144

>  <SCORE.INTRA.VDW.0>
-5.72964

>  <SCORE.INTRA.norm>
-0.146934

>  <SCORE.RESTR>
0

>  <SCORE.RESTR.CAVITY>
0

>  <SCORE.RESTR.norm>
0

>  <SCORE.SYSTEM>
0

>  <SCORE.SYSTEM.CONST>
0

>  <SCORE.SYSTEM.DIHEDRAL>
0

>  <SCORE.SYSTEM.SOLV>
0

>  <SCORE.SYSTEM.norm>
0

>  <SCORE.heavy>
40

>  <SCORE.norm>
-0.385889

>  <RMSD>
1.627

$$$$
ligand
 OpenBabel11021811513D
libRbt.so/2013.1/901 2013/11/27
 40 42  0  0  0  0  0  0  0  0999 V2000
    4.0356   -7.5433   18.8326 C   0  0  2  0  0  0  0  0  0  0  0  0
    2.9362   -8.4453   19.0341 O   0  0  0  0  0  0  0  0  0  0  0  0
    5.2804   -7.9876   19.6884 C   0  0  1  0  0  0  0  0  0  0  0  0
    4.9973   -7.8686   21.2144 C   0  0  2  0  0  0  0  0  0  0  0  0
    4.6600   -6.3748   21.5197 C   0  0  2  0  0  0  0  0  0  0  0  0
    4.4165   -6.2216   22.9345 O   0  0  0  0  0  0  0  0  0  0  0  0
    3.3737   -5.9661   20.6772 C   0  0  2  0  0  0  0  0  0  0  0  0
    3.6536   -6.1443   19.2075 O   0  0  0  0  0  0  0  0  0  0  0  0
    2.9735   -4.5127   20.8914 C   0  0  0  0  0  0  0  0  0  0  0  0
    4.0481   -3.5743   20.4384 N   0  0  0  0  0  0  0  0  0  0  0  0
   -0.8251   -9.7083   17.1400 C   0  0  2  0  0  0  0  0  0  0  0  0
   -1.9378   -9.7403   16.2196 N   0  0  0  0  0  0  0  0  0  0  0  0
   -0.7882   -8.3090   17.8772 C   0  0  0  0  0  0  0  0  0  0  0  0
    0.4385   -8.2569   18.8938 C   0  0  2  0  0  0  0  0  0  0  0  0
    0.4620   -6.9478   19.5975 N   0  0  0  0  0  0  0  0  0  0  0  0
    1.7980   -8.5054   18.0894 C   0  0  2  0  0  0  0  0  0  0  0  0
    1.7115   -9.9173   17.3676 C   0  0  2  0  0  0  0  0  0  0  0  0
    2.9246  -10.1506   16.6483 O   0  0  0  0  0  0  0  0  0  0  0  0
    0.4898   -9.9560   16.3670 C   0  0  1  0  0  0  0  0  0  0  0  0
    0.4125  -11.2569   15.7327 O   0  0  0  0  0  0  0  0  0  0  0  0
   -0.2901  -11.5422   14.5709 C   0  0  2  0  0  0  0  0  0  0  0  0
   -0.5455  -13.0910   14.5421 C   0  0  2  0  0  0  0  0  0  0  0  0
   -1.2399  -13.4735   15.6852 O   0  0  0  0  0  0  0  0  0  0  0  0
    0.8070  -13.9092   14.3916 C   0  0  1  0  0  0  0  0  0  0  0  0
    0.5398  -15.3802   14.3537 N   0  0  0  0  0  0  0  0  0  0  0  0
    1.5474  -13.4298   13.0675 C   0  0  2  0  0  0  0  0  0  0  0  0
    2.7717  -14.1504   12.8798 O   0  0  0  0  0  0  0  0  0  0  0  0
    1.8012  -11.8769   13.1822 C   0  0  2  0  0  0  0  0  0  0  0  0
    0.4902  -11.1273   13.3769 O   0  0  0  0  0  0  0  0  0  0  0  0
    2.4863  -11.3435   11.9467 C   0  0  0  0  0  0  0  0  0  0  0  0
    2.8097   -9.9444   12.0506 O   0  0  0  0  0  0  0  0  0  0  0  0
    5.6145   -9.3605   19.3315 O   0  0  0  0  0  0  0  0  0  0  0  0
    6.1169   -8.2553   21.9105 O   0  0  0  0  0  0  0  0  0  0  0  0
   -3.0033  -10.6903   16.4411 C   0  0  0  0  0  0  0  0  0  0  0  0
   -2.7828  -11.7359   17.1215 O   0  0  0  0  0  0  0  0  0  0  0  0
   -4.3987  -10.3811   15.8167 C   0  0  2  0  0  0  0  0  0  0  0  0
   -3.7360   -7.9727   17.6063 N   0  0  0  0  0  0  0  0  0  0  0  0
   -5.3476   -9.7250   16.8667 C   0  0  0  0  0  0  0  0  0  0  0  0
   -5.0920   -8.2210   17.0607 C   0  0  0  0  0  0  0  0  0  0  0  0
   -5.0027  -11.4294   15.4236 O   0  0  0  0  0  0  0  0  0  0  0  0
  1  2  1  1  0  0  0
  1  3  1  0  0  0  0
  1  8  1  0  0  0  0
  3  4  1  0  0  0  0
  3 32  1  1  0  0  0
  4  5  1  0  0  0  0
  4 33  1  1  0  0  0
  5  6  1  1  0  0  0
  5  7  1  0  0  0  0
  7  8  1  0  0  0  0
  7  9  1  6  0  0  0
  9 10  1  0  0  0  0
 11 12  1  6  0  0  0
 11 13  1  0  0  0  0
 11 19  1  0  0  0  0
 12 34  1  0  0  0  0
 13 14  1  0  0  0  0
 14 15  1  6  0  0  0
 14 16  1  0  0  0  0
 16  2  1  1  0  0  0
 16 17  1  0  0  0  0
 17 18  1  6  0  0  0
 17 19  1  0  0  0  0
 19 20  1  1  0  0  0
 21 20  1  1  0  0  0
 21 22  1  0  0  0  0
 21 29  1  0  0  0  0
 22 23  1  1  0  0  0
 22 24  1  0  0  0  0
 24 25  1  6  0  0  0
 24 26  1  0  0  0  0
 26 27  1  1  0  0  0
 26 28  1  0  0  0  0
 28 29  1  0  0  0  0
 28 30  1  6  0  0  0
 30 31  1  0  0  0  0
 34 35  2  0  0  0  0
 36 34  1  1  0  0  0
 36 38  1  0  0  0  0
 36 40  1  0  0  0  0
 37 39  1  0  0  0  0
 38 39  1  0  0  0  0
M  END
>  <CHROM.1>
-162.16959979,-124.21810661,62.26520590,-116.30288044,77.87890466,-159.38487300
-176.34012612,-97.49844471,80.14284623,-63.55029221,0.99939904,-9.62593441
17.14505229,-0.99164874,0.04441455,-2.32680556

>  <Name>
ligand

>  <RI>
0

>  <Rbt.Current_Directory>
/home/itssahil/PROJECTS/Mol_Feturizer/New_Systems/rnas/4P20

>  <Rbt.Executable>
rbdock ($Id: //depot/dev/client3/rdock/2013.1/src/exe/rbdock.cxx#4 $)

>  <Rbt.Library>
libRbt.so (2013.1, Build901 2013/11/27)

>  <Rbt.Parameter_File>
/export/apps/rDock/src/rDock_2013.1_src/data/scripts/dock_solv.prm

>  <Rbt.Receptor>
prm/pocket_docking_2.prm

>  <SCORE>
-11.9279

>  <SCORE.INTER>
-9.20123

>  <SCORE.INTER.CONST>
1

>  <SCORE.INTER.POLAR>
0

>  <SCORE.INTER.ROT>
10

>  <SCORE.INTER.SOLV>
25.5

>  <SCORE.INTER.VDW>
-24.9008

>  <SCORE.INTER.norm>
-0.230031

>  <SCORE.INTRA>
-2.80999

>  <SCORE.INTRA.DIHEDRAL>
-11.8032

>  <SCORE.INTRA.DIHEDRAL.0>
28.2802

>  <SCORE.INTRA.POLAR>
0

>  <SCORE.INTRA.POLAR.0>
0

>  <SCORE.INTRA.REPUL>
0

>  <SCORE.INTRA.REPUL.0>
0

>  <SCORE.INTRA.SOLV>
7.16984

>  <SCORE.INTRA.SOLV.lig_0>
-101.981

>  <SCORE.INTRA.VDW>
-0.493298

>  <SCORE.INTRA.VDW.0>
-5.72964

>  <SCORE.INTRA.norm>
-0.0702498

>  <SCORE.RESTR>
0.0832765

>  <SCORE.RESTR.CAVITY>
0.0832765

>  <SCORE.RESTR.norm>
0.00208191

>  <SCORE.SYSTEM>
0

>  <SCORE.SYSTEM.CONST>
0

>  <SCORE.SYSTEM.DIHEDRAL>
0

>  <SCORE.SYSTEM.SOLV>
0

>  <SCORE.SYSTEM.norm>
0

>  <SCORE.heavy>
40

>  <SCORE.norm>
-0.298199

>  <RMSD>
1.638

$$$$
ligand
 OpenBabel11021811513D
libRbt.so/2013.1/901 2013/11/27
 40 42  0  0  0  0  0  0  0  0999 V2000
    4.1318   -7.8478   18.7824 C   0  0  2  0  0  0  0  0  0  0  0  0
    2.9854   -8.6587   19.0843 O   0  0  0  0  0  0  0  0  0  0  0  0
    5.3329   -8.2109   19.7336 C   0  0  1  0  0  0  0  0  0  0  0  0
    5.0199   -7.8477   21.2144 C   0  0  2  0  0  0  0  0  0  0  0  0
    4.7485   -6.3113   21.2793 C   0  0  2  0  0  0  0  0  0  0  0  0
    4.4793   -5.9331   22.6464 O   0  0  0  0  0  0  0  0  0  0  0  0
    3.5039   -5.9794   20.3454 C   0  0  2  0  0  0  0  0  0  0  0  0
    3.8096   -6.3924   18.9290 O   0  0  0  0  0  0  0  0  0  0  0  0
    3.1699   -4.4941   20.3244 C   0  0  0  0  0  0  0  0  0  0  0  0
    4.3167   -3.6800   19.8118 N   0  0  0  0  0  0  0  0  0  0  0  0
   -0.6822  -10.0988   17.1338 C   0  0  2  0  0  0  0  0  0  0  0  0
   -1.8244  -10.1383   16.2505 N   0  0  0  0  0  0  0  0  0  0  0  0
   -0.7780   -8.8243   18.0661 C   0  0  0  0  0  0  0  0  0  0  0  0
    0.4793   -8.7645   19.0441 C   0  0  2  0  0  0  0  0  0  0  0  0
    0.3793   -7.5755   19.9305 N   0  0  0  0  0  0  0  0  0  0  0  0
    1.8201   -8.7256   18.1736 C   0  0  2  0  0  0  0  0  0  0  0  0
    1.8691  -10.0208   17.2561 C   0  0  2  0  0  0  0  0  0  0  0  0
    3.0668   -9.9972   16.4763 O   0  0  0  0  0  0  0  0  0  0  0  0
    0.6158  -10.0691   16.2957 C   0  0  1  0  0  0  0  0  0  0  0  0
    0.6646  -11.2666   15.4807 O   0  0  0  0  0  0  0  0  0  0  0  0
   -0.0213  -11.4544   14.2894 C   0  0  2  0  0  0  0  0  0  0  0  0
   -0.2251  -12.9997   14.1007 C   0  0  2  0  0  0  0  0  0  0  0  0
   -0.9131  -13.5191   15.1925 O   0  0  0  0  0  0  0  0  0  0  0  0
    1.1547  -13.7541   13.8803 C   0  0  1  0  0  0  0  0  0  0  0  0
    0.9365  -15.2214   13.6904 N   0  0  0  0  0  0  0  0  0  0  0  0
    1.8866  -13.1184   12.6188 C   0  0  2  0  0  0  0  0  0  0  0  0
    3.1352  -13.7761   12.3699 O   0  0  0  0  0  0  0  0  0  0  0  0
    2.0881  -11.5779   12.8933 C   0  0  2  0  0  0  0  0  0  0  0  0
    0.7519  -10.8948   13.1511 O   0  0  0  0  0  0  0  0  0  0  0  0
    2.7625  -10.8994   11.7248 C   0  0  0  0  0  0  0  0  0  0  0  0
    4.1350  -11.3030   11.5640 O   0  0  0  0  0  0  0  0  0  0  0  0
    5.6084   -9.6358   19.5993 O   0  0  0  0  0  0  0  0  0  0  0  0
    6.1027   -8.1728   21.9952 O   0  0  0  0  0  0  0  0  0  0  0  0
   -3.1177  -10.4853   16.7927 C   0  0  0  0  0  0  0  0  0  0  0  0
   -3.1913  -11.1532   17.8667 O   0  0  0  0  0  0  0  0  0  0  0  0
   -4.3853  -10.0176   16.0137 C   0  0  2  0  0  0  0  0  0  0  0  0
   -5.6904   -7.4105   17.2340 N   0  0  0  0  0  0  0  0  0  0  0  0
   -5.6118   -9.8880   16.9689 C   0  0  0  0  0  0  0  0  0  0  0  0
   -5.5030   -8.7006   17.9401 C   0  0  0  0  0  0  0  0  0  0  0  0
   -4.7419  -10.8453   15.1160 O   0  0  0  0  0  0  0  0  0  0  0  0
  1  2  1  1  0  0  0
  1  3  1  0  0  0  0
  1  8  1  0  0  0  0
  3  4  1  0  0  0  0
  3 32  1  1  0  0  0
  4  5  1  0  0  0  0
  4 33  1  1  0  0  0
  5  6  1  1  0  0  0
  5  7  1  0  0  0  0
  7  8  1  0  0  0  0
  7  9  1  6  0  0  0
  9 10  1  0  0  0  0
 11 12  1  6  0  0  0
 11 13  1  0  0  0  0
 11 19  1  0  0  0  0
 12 34  1  0  0  0  0
 13 14  1  0  0  0  0
 14 15  1  6  0  0  0
 14 16  1  0  0  0  0
 16  2  1  1  0  0  0
 16 17  1  0  0  0  0
 17 18  1  6  0  0  0
 17 19  1  0  0  0  0
 19 20  1  1  0  0  0
 21 20  1  1  0  0  0
 21 22  1  0  0  0  0
 21 29  1  0  0  0  0
 22 23  1  1  0  0  0
 22 24  1  0  0  0  0
 24 25  1  6  0  0  0
 24 26  1  0  0  0  0
 26 27  1  1  0  0  0
 26 28  1  0  0  0  0
 28 29  1  0  0  0  0
 28 30  1  6  0  0  0
 30 31  1  0  0  0  0
 34 35  2  0  0  0  0
 36 34  1  1  0  0  0
 36 38  1  0  0  0  0
 36 40  1  0  0  0  0
 37 39  1  0  0  0  0
 38 39  1  0  0  0  0
M  END
>  <CHROM.1>
-167.17931022,-141.09234834,60.30291924,-72.76502715,79.90194694,-154.53141938
-68.81525886,-154.72967033,70.74008032,72.10370893,1.09547299,-9.65580567
17.02458468,-0.98454757,-0.00121207,-2.26452659

>  <Name>
ligand

>  <RI>
0

>  <Rbt.Current_Directory>
/home/itssahil/PROJECTS/Mol_Feturizer/New_Systems/rnas/4P20

>  <Rbt.Executable>
rbdock ($Id: //depot/dev/client3/rdock/2013.1/src/exe/rbdock.cxx#4 $)

>  <Rbt.Library>
libRbt.so (2013.1, Build901 2013/11/27)

>  <Rbt.Parameter_File>
/export/apps/rDock/src/rDock_2013.1_src/data/scripts/dock_solv.prm

>  <Rbt.Receptor>
prm/pocket_docking_3.prm

>  <SCORE>
-14.1465

>  <SCORE.INTER>
-8.43888

>  <SCORE.INTER.CONST>
1

>  <SCORE.INTER.POLAR>
0

>  <SCORE.INTER.ROT>
10

>  <SCORE.INTER.SOLV>
26.3819

>  <SCORE.INTER.VDW>
-24.6865

>  <SCORE.INTER.norm>
-0.210972

>  <SCORE.INTRA>
-5.72541

>  <SCORE.INTRA.DIHEDRAL>
-14.9724

>  <SCORE.INTRA.DIHEDRAL.0>
28.2802

>  <SCORE.INTRA.POLAR>
0

>  <SCORE.INTRA.POLAR.0>
0

>  <SCORE.INTRA.REPUL>
0

>  <SCORE.INTRA.REPUL.0>
0

>  <SCORE.INTRA.SOLV>
1.65772

>  <SCORE.INTRA.SOLV.lig_0>
-101.981

>  <SCORE.INTRA.VDW>
0.931954

>  <SCORE.INTRA.VDW.0>
-5.72964

>  <SCORE.INTRA.norm>
-0.143135

>  <SCORE.RESTR>
0.0177449

>  <SCORE.RESTR.CAVITY>
0.0177449

>  <SCORE.RESTR.norm>
0.000443623

>  <SCORE.SYSTEM>
0

>  <SCORE.SYSTEM.CONST>
0

>  <SCORE.SYSTEM.DIHEDRAL>
0

>  <SCORE.SYSTEM.SOLV>
0

>  <SCORE.SYSTEM.norm>
0

>  <SCORE.heavy>
40

>  <SCORE.norm>
-0.353664

>  <RMSD>
1.677

$$$$
ligand
 OpenBabel11021811513D
libRbt.so/2013.1/901 2013/11/27
 40 42  0  0  0  0  0  0  0  0999 V2000
    4.2314   -7.9772   18.7649 C   0  0  2  0  0  0  0  0  0  0  0  0
    2.9985   -8.6313   19.1044 O   0  0  0  0  0  0  0  0  0  0  0  0
    5.3774   -8.4072   19.7554 C   0  0  1  0  0  0  0  0  0  0  0  0
    5.0979   -7.9103   21.2038 C   0  0  2  0  0  0  0  0  0  0  0  0
    5.0019   -6.3523   21.1610 C   0  0  2  0  0  0  0  0  0  0  0  0
    4.7683   -5.8533   22.4955 O   0  0  0  0  0  0  0  0  0  0  0  0
    3.8090   -5.9472   20.1892 C   0  0  2  0  0  0  0  0  0  0  0  0
    4.0752   -6.4882   18.8084 O   0  0  0  0  0  0  0  0  0  0  0  0
    3.6456   -4.4387   20.0634 C   0  0  0  0  0  0  0  0  0  0  0  0
    3.2269   -3.8211   21.3610 N   0  0  0  0  0  0  0  0  0  0  0  0
   -0.4335  -10.2477   16.8821 C   0  0  2  0  0  0  0  0  0  0  0  0
   -1.5304  -10.3237   15.9455 N   0  0  0  0  0  0  0  0  0  0  0  0
   -0.6881   -9.0641   17.9005 C   0  0  0  0  0  0  0  0  0  0  0  0
    0.5177   -8.9647   18.9383 C   0  0  2  0  0  0  0  0  0  0  0  0
    0.2689   -7.8628   19.9044 N   0  0  0  0  0  0  0  0  0  0  0  0
    1.8823   -8.7344   18.1374 C   0  0  2  0  0  0  0  0  0  0  0  0
    2.0917   -9.9441   17.1301 C   0  0  2  0  0  0  0  0  0  0  0  0
    3.3119   -9.7492   16.4115 O   0  0  0  0  0  0  0  0  0  0  0  0
    0.8882  -10.0330   16.1107 C   0  0  1  0  0  0  0  0  0  0  0  0
    1.0840  -11.1537   15.2127 O   0  0  0  0  0  0  0  0  0  0  0  0
    0.3183  -11.4230   14.0875 C   0  0  2  0  0  0  0  0  0  0  0  0
    0.0454  -12.9689   14.0614 C   0  0  2  0  0  0  0  0  0  0  0  0
   -0.5919  -13.3529   15.2368 O   0  0  0  0  0  0  0  0  0  0  0  0
    1.3794  -13.7997   13.8342 C   0  0  1  0  0  0  0  0  0  0  0  0
    1.0950  -15.2676   13.8001 N   0  0  0  0  0  0  0  0  0  0  0  0
    2.0542  -13.3178   12.4763 C   0  0  2  0  0  0  0  0  0  0  0  0
    3.2592  -14.0495   12.2193 O   0  0  0  0  0  0  0  0  0  0  0  0
    2.3300  -11.7685   12.5883 C   0  0  2  0  0  0  0  0  0  0  0  0
    1.0390  -11.0071   12.8570 O   0  0  0  0  0  0  0  0  0  0  0  0
    2.9547  -11.2328   11.3221 C   0  0  0  0  0  0  0  0  0  0  0  0
    3.2024   -9.8158   11.3808 O   0  0  0  0  0  0  0  0  0  0  0  0
    5.4904   -9.8598   19.7214 O   0  0  0  0  0  0  0  0  0  0  0  0
    6.1317   -8.3010   22.0200 O   0  0  0  0  0  0  0  0  0  0  0  0
   -2.7674  -10.9416   16.3638 C   0  0  0  0  0  0  0  0  0  0  0  0
   -2.7645  -11.7697   17.3226 O   0  0  0  0  0  0  0  0  0  0  0  0
   -4.0709  -10.5572   15.5985 C   0  0  2  0  0  0  0  0  0  0  0  0
   -5.3220   -8.1148   17.0451 N   0  0  0  0  0  0  0  0  0  0  0  0
   -5.3022  -10.5593   16.5562 C   0  0  0  0  0  0  0  0  0  0  0  0
   -5.2315   -9.4700   17.6395 C   0  0  0  0  0  0  0  0  0  0  0  0
   -4.3590  -11.3838   14.6756 O   0  0  0  0  0  0  0  0  0  0  0  0
  1  2  1  1  0  0  0
  1  3  1  0  0  0  0
  1  8  1  0  0  0  0
  3  4  1  0  0  0  0
  3 32  1  1  0  0  0
  4  5  1  0  0  0  0
  4 33  1  1  0  0  0
  5  6  1  1  0  0  0
  5  7  1  0  0  0  0
  7  8  1  0  0  0  0
  7  9  1  6  0  0  0
  9 10  1  0  0  0  0
 11 12  1  6  0  0  0
 11 13  1  0  0  0  0
 11 19  1  0  0  0  0
 12 34  1  0  0  0  0
 13 14  1  0  0  0  0
 14 15  1  1  0  0  0
 14 16  1  0  0  0  0
 16  2  1  1  0  0  0
 16 17  1  0  0  0  0
 17 18  1  6  0  0  0
 17 19  1  0  0  0  0
 19 20  1  6  0  0  0
 21 20  1  1  0  0  0
 21 22  1  0  0  0  0
 21 29  1  0  0  0  0
 22 23  1  1  0  0  0
 22 24  1  0  0  0  0
 24 25  1  6  0  0  0
 24 26  1  0  0  0  0
 26 27  1  1  0  0  0
 26 28  1  0  0  0  0
 28 29  1  0  0  0  0
 28 30  1  6  0  0  0
 30 31  1  0  0  0  0
 34 35  2  0  0  0  0
 36 34  1  1  0  0  0
 36 38  1  0  0  0  0
 36 40  1  0  0  0  0
 37 39  1  0  0  0  0
 38 39  1  0  0  0  0
M  END
>  <CHROM.1>
-161.57698942,-157.84735850,-65.56379638,-78.34559408,68.97454834,-137.56710454
179.11998411,-146.32998233,65.83789381,66.43160626,1.24880202,-9.77926300
16.90017412,-1.01933490,-0.02982688,-2.23297269

>  <Name>
ligand

>  <RI>
0

>  <Rbt.Current_Directory>
/home/itssahil/PROJECTS/Mol_Feturizer/New_Systems/rnas/4P20

>  <Rbt.Executable>
rbdock ($Id: //depot/dev/client3/rdock/2013.1/src/exe/rbdock.cxx#4 $)

>  <Rbt.Library>
libRbt.so (2013.1, Build901 2013/11/27)

>  <Rbt.Parameter_File>
/export/apps/rDock/src/rDock_2013.1_src/data/scripts/dock_solv.prm

>  <Rbt.Receptor>
prm/pocket_docking_4.prm

>  <SCORE>
-17.3003

>  <SCORE.INTER>
-10.6647

>  <SCORE.INTER.CONST>
1

>  <SCORE.INTER.POLAR>
0

>  <SCORE.INTER.ROT>
10

>  <SCORE.INTER.SOLV>
20.7891

>  <SCORE.INTER.VDW>
-24.3062

>  <SCORE.INTER.norm>
-0.266618

>  <SCORE.INTRA>
-6.63559

>  <SCORE.INTRA.DIHEDRAL>
-15.9517

>  <SCORE.INTRA.DIHEDRAL.0>
28.2802

>  <SCORE.INTRA.POLAR>
0

>  <SCORE.INTRA.POLAR.0>
0

>  <SCORE.INTRA.REPUL>
0

>  <SCORE.INTRA.REPUL.0>
0

>  <SCORE.INTRA.SOLV>
0.786026

>  <SCORE.INTRA.SOLV.lig_0>
-101.981

>  <SCORE.INTRA.VDW>
0.947253

>  <SCORE.INTRA.VDW.0>
-5.72964

>  <SCORE.INTRA.norm>
-0.16589

>  <SCORE.RESTR>
0

>  <SCORE.RESTR.CAVITY>
0

>  <SCORE.RESTR.norm>
0

>  <SCORE.SYSTEM>
0

>  <SCORE.SYSTEM.CONST>
0

>  <SCORE.SYSTEM.DIHEDRAL>
0

>  <SCORE.SYSTEM.SOLV>
0

>  <SCORE.SYSTEM.norm>
0

>  <SCORE.heavy>
40

>  <SCORE.norm>
-0.432508

>  <RMSD>
1.685

$$$$
ligand
 OpenBabel11021811513D
libRbt.so/2013.1/901 2013/11/27
 40 42  0  0  0  0  0  0  0  0999 V2000
    3.2410   -6.7166   18.5500 C   0  0  2  0  0  0  0  0  0  0  0  0
    2.0397   -7.3433   19.0266 O   0  0  0  0  0  0  0  0  0  0  0  0
    4.5054   -7.5628   18.9557 C   0  0  1  0  0  0  0  0  0  0  0  0
    4.7055   -7.5884   20.4991 C   0  0  2  0  0  0  0  0  0  0  0  0
    4.8882   -6.1136   20.9788 C   0  0  2  0  0  0  0  0  0  0  0  0
    5.1027   -6.1008   22.4065 O   0  0  0  0  0  0  0  0  0  0  0  0
    3.5795   -5.2934   20.5964 C   0  0  2  0  0  0  0  0  0  0  0  0
    3.3763   -5.3316   19.1040 O   0  0  0  0  0  0  0  0  0  0  0  0
    3.6678   -3.8297   21.0065 C   0  0  0  0  0  0  0  0  0  0  0  0
    3.8211   -3.6823   22.4881 N   0  0  0  0  0  0  0  0  0  0  0  0
   -1.1944   -9.5265   17.0007 C   0  0  2  0  0  0  0  0  0  0  0  0
   -2.3111   -9.7929   16.1242 N   0  0  0  0  0  0  0  0  0  0  0  0
   -1.5849   -8.3841   18.0231 C   0  0  0  0  0  0  0  0  0  0  0  0
   -0.3595   -8.0755   18.9948 C   0  0  2  0  0  0  0  0  0  0  0  0
   -0.7336   -7.0136   19.9653 N   0  0  0  0  0  0  0  0  0  0  0  0
    0.9069   -7.6401   18.1209 C   0  0  2  0  0  0  0  0  0  0  0  0
    1.2575   -8.8154   17.1121 C   0  0  2  0  0  0  0  0  0  0  0  0
    2.3915   -8.4370   16.3285 O   0  0  0  0  0  0  0  0  0  0  0  0
    0.0337   -9.1130   16.1588 C   0  0  1  0  0  0  0  0  0  0  0  0
    0.3622  -10.2009   15.2592 O   0  0  0  0  0  0  0  0  0  0  0  0
    0.3137  -10.1387   13.8741 C   0  0  2  0  0  0  0  0  0  0  0  0
    0.4222  -11.6080   13.3315 C   0  0  2  0  0  0  0  0  0  0  0  0
   -0.6064  -12.3808   13.8607 O   0  0  0  0  0  0  0  0  0  0  0  0
    1.8409  -12.2491   13.6444 C   0  0  1  0  0  0  0  0  0  0  0  0
    1.9269  -13.6427   13.1085 N   0  0  0  0  0  0  0  0  0  0  0  0
    2.9688  -11.3235   13.0102 C   0  0  2  0  0  0  0  0  0  0  0  0
    4.2714  -11.8683   13.2552 O   0  0  0  0  0  0  0  0  0  0  0  0
    2.8205   -9.8782   13.6251 C   0  0  2  0  0  0  0  0  0  0  0  0
    1.4330   -9.3136   13.3517 O   0  0  0  0  0  0  0  0  0  0  0  0
    3.8502   -8.9336   13.0525 C   0  0  0  0  0  0  0  0  0  0  0  0
    5.1975   -9.3023   13.4010 O   0  0  0  0  0  0  0  0  0  0  0  0
    4.3383   -8.9136   18.4349 O   0  0  0  0  0  0  0  0  0  0  0  0
    5.8256   -8.3270   20.7947 O   0  0  0  0  0  0  0  0  0  0  0  0
   -3.3240  -10.7329   16.5456 C   0  0  0  0  0  0  0  0  0  0  0  0
   -3.0439  -11.6131   17.4127 O   0  0  0  0  0  0  0  0  0  0  0  0
   -4.7384  -10.6213   15.8980 C   0  0  2  0  0  0  0  0  0  0  0  0
   -6.2715   -7.4108   17.4810 N   0  0  0  0  0  0  0  0  0  0  0  0
   -5.6779   -9.7221   16.7596 C   0  0  0  0  0  0  0  0  0  0  0  0
   -5.3151   -8.2290   16.6974 C   0  0  0  0  0  0  0  0  0  0  0  0
   -5.3290  -11.7447   15.8144 O   0  0  0  0  0  0  0  0  0  0  0  0
  1  2  1  1  0  0  0
  1  3  1  0  0  0  0
  1  8  1  0  0  0  0
  3  4  1  0  0  0  0
  3 32  1  1  0  0  0
  4  5  1  0  0  0  0
  4 33  1  6  0  0  0
  5  6  1  1  0  0  0
  5  7  1  0  0  0  0
  7  8  1  0  0  0  0
  7  9  1  6  0  0  0
  9 10  1  0  0  0  0
 11 12  1  6  0  0  0
 11 13  1  0  0  0  0
 11 19  1  0  0  0  0
 12 34  1  0  0  0  0
 13 14  1  0  0  0  0
 14 15  1  1  0  0  0
 14 16  1  0  0  0  0
 16  2  1  1  0  0  0
 16 17  1  0  0  0  0
 17 18  1  6  0  0  0
 17 19  1  0  0  0  0
 19 20  1  6  0  0  0
 21 20  1  1  0  0  0
 21 22  1  0  0  0  0
 21 29  1  0  0  0  0
 22 23  1  1  0  0  0
 22 24  1  0  0  0  0
 24 25  1  6  0  0  0
 24 26  1  0  0  0  0
 26 27  1  1  0  0  0
 26 28  1  0  0  0  0
 28 29  1  0  0  0  0
 28 30  1  6  0  0  0
 30 31  1  0  0  0  0
 34 35  2  0  0  0  0
 36 34  1  1  0  0  0
 36 38  1  0  0  0  0
 36 40  1  0  0  0  0
 37 39  1  0  0  0  0
 38 39  1  0  0  0  0
M  END
>  <CHROM.1>
-127.02456306,-169.51446408,-61.34419552,-86.24317953,116.45399228,-167.17454032
-64.69238375,-92.83191676,71.70763191,177.42212674,1.00764526,-8.87516433
16.99683047,0.82608430,0.09218129,0.93596079

>  <Name>
ligand

>  <RI>
0

>  <Rbt.Current_Directory>
/home/itssahil/PROJECTS/Mol_Feturizer/New_Systems/rnas/4P20

>  <Rbt.Executable>
rbdock ($Id: //depot/dev/client3/rdock/2013.1/src/exe/rbdock.cxx#4 $)

>  <Rbt.Library>
libRbt.so (2013.1, Build901 2013/11/27)

>  <Rbt.Parameter_File>
/export/apps/rDock/src/rDock_2013.1_src/data/scripts/dock_solv.prm

>  <Rbt.Receptor>
prm/pocket_docking_3.prm

>  <SCORE>
-13.9969

>  <SCORE.INTER>
-9.08251

>  <SCORE.INTER.CONST>
1

>  <SCORE.INTER.POLAR>
0

>  <SCORE.INTER.ROT>
10

>  <SCORE.INTER.SOLV>
22.9908

>  <SCORE.INTER.VDW>
-23.9853

>  <SCORE.INTER.norm>
-0.227063

>  <SCORE.INTRA>
-4.91435

>  <SCORE.INTRA.DIHEDRAL>
-10.0745

>  <SCORE.INTRA.DIHEDRAL.0>
28.2802

>  <SCORE.INTRA.POLAR>
0

>  <SCORE.INTRA.POLAR.0>
0

>  <SCORE.INTRA.REPUL>
0

>  <SCORE.INTRA.REPUL.0>
0

>  <SCORE.INTRA.SOLV>
-0.502603

>  <SCORE.INTRA.SOLV.lig_0>
-101.981

>  <SCORE.INTRA.VDW>
0.3742

>  <SCORE.INTRA.VDW.0>
-5.72964

>  <SCORE.INTRA.norm>
-0.122859

>  <SCORE.RESTR>
0

>  <SCORE.RESTR.CAVITY>
0

>  <SCORE.RESTR.norm>
0

>  <SCORE.SYSTEM>
0

>  <SCORE.SYSTEM.CONST>
0

>  <SCORE.SYSTEM.DIHEDRAL>
0

>  <SCORE.SYSTEM.SOLV>
0

>  <SCORE.SYSTEM.norm>
0

>  <SCORE.heavy>
40

>  <SCORE.norm>
-0.349921

>  <RMSD>
1.704

$$$$
ligand
 OpenBabel11021811513D
libRbt.so/2013.1/901 2013/11/27
 40 42  0  0  0  0  0  0  0  0999 V2000
    4.2497   -8.0124   18.8245 C   0  0  2  0  0  0  0  0  0  0  0  0
    3.0073   -8.6495   19.1616 O   0  0  0  0  0  0  0  0  0  0  0  0
    5.3809   -8.4354   19.8349 C   0  0  1  0  0  0  0  0  0  0  0  0
    5.0902   -7.9111   21.2714 C   0  0  2  0  0  0  0  0  0  0  0  0
    5.0089   -6.3533   21.2008 C   0  0  2  0  0  0  0  0  0  0  0  0
    4.7654   -5.8293   22.5239 O   0  0  0  0  0  0  0  0  0  0  0  0
    3.8304   -5.9544   20.2091 C   0  0  2  0  0  0  0  0  0  0  0  0
    4.1066   -6.5215   18.8408 O   0  0  0  0  0  0  0  0  0  0  0  0
    3.6821   -4.4469   20.0556 C   0  0  0  0  0  0  0  0  0  0  0  0
    3.2534   -3.8034   21.3373 N   0  0  0  0  0  0  0  0  0  0  0  0
   -0.6979   -9.8884   17.1452 C   0  0  2  0  0  0  0  0  0  0  0  0
   -1.8218   -9.8687   16.2380 N   0  0  0  0  0  0  0  0  0  0  0  0
   -0.7373   -8.6015   18.0645 C   0  0  0  0  0  0  0  0  0  0  0  0
    0.5007   -8.6068   19.0686 C   0  0  2  0  0  0  0  0  0  0  0  0
    0.4532   -7.4055   19.9427 N   0  0  0  0  0  0  0  0  0  0  0  0
    1.8594   -8.6560   18.2268 C   0  0  2  0  0  0  0  0  0  0  0  0
    1.8503   -9.9606   17.3215 C   0  0  2  0  0  0  0  0  0  0  0  0
    3.0634  -10.0156   16.5673 O   0  0  0  0  0  0  0  0  0  0  0  0
    0.6168   -9.9438   16.3349 C   0  0  1  0  0  0  0  0  0  0  0  0
    0.6113  -11.1499   15.5312 O   0  0  0  0  0  0  0  0  0  0  0  0
   -0.0532  -11.3057   14.3233 C   0  0  2  0  0  0  0  0  0  0  0  0
   -0.3176  -12.8406   14.1246 C   0  0  2  0  0  0  0  0  0  0  0  0
   -1.0529  -13.3329   15.1980 O   0  0  0  0  0  0  0  0  0  0  0  0
    1.0340  -13.6521   13.9346 C   0  0  1  0  0  0  0  0  0  0  0  0
    0.7586  -15.1085   13.7346 N   0  0  0  0  0  0  0  0  0  0  0  0
    1.8221  -13.0450   12.6930 C   0  0  2  0  0  0  0  0  0  0  0  0
    3.0474  -13.7545   12.4718 O   0  0  0  0  0  0  0  0  0  0  0  0
    2.0819  -11.5151   12.9774 C   0  0  2  0  0  0  0  0  0  0  0  0
    0.7700  -10.7767   13.2056 O   0  0  0  0  0  0  0  0  0  0  0  0
    2.8121  -10.8630   11.8277 C   0  0  0  0  0  0  0  0  0  0  0  0
    4.1352  -11.3969   11.6349 O   0  0  0  0  0  0  0  0  0  0  0  0
    5.4810   -9.8894   19.8271 O   0  0  0  0  0  0  0  0  0  0  0  0
    6.1115   -8.2969   22.1056 O   0  0  0  0  0  0  0  0  0  0  0  0
   -3.1530  -10.0545   16.7675 C   0  0  0  0  0  0  0  0  0  0  0  0
   -3.3123  -10.6467   17.8761 O   0  0  0  0  0  0  0  0  0  0  0  0
   -4.3533   -9.5124   15.9321 C   0  0  2  0  0  0  0  0  0  0  0  0
   -4.0460   -7.9852   18.6342 N   0  0  0  0  0  0  0  0  0  0  0  0
   -5.4881   -8.9838   16.8628 C   0  0  0  0  0  0  0  0  0  0  0  0
   -5.1006   -7.7083   17.6296 C   0  0  0  0  0  0  0  0  0  0  0  0
   -4.8961  -10.4113   15.2141 O   0  0  0  0  0  0  0  0  0  0  0  0
  1  2  1  1  0  0  0
  1  3  1  0  0  0  0
  1  8  1  0  0  0  0
  3  4  1  0  0  0  0
  3 32  1  1  0  0  0
  4  5  1  0  0  0  0
  4 33  1  1  0  0  0
  5  6  1  1  0  0  0
  5  7  1  0  0  0  0
  7  8  1  0  0  0  0
  7  9  1  6  0  0  0
  9 10  1  0  0  0  0
 11 12  1  6  0  0  0
 11 13  1  0  0  0  0
 11 19  1  0  0  0  0
 12 34  1  0  0  0  0
 13 14  1  0  0  0  0
 14 15  1  6  0  0  0
 14 16  1  0  0  0  0
 16  2  1  1  0  0  0
 16 17  1  0  0  0  0
 17 18  1  6  0  0  0
 17 19  1  0  0  0  0
 19 20  1  1  0  0  0
 21 20  1  1  0  0  0
 21 22  1  0  0  0  0
 21 29  1  0  0  0  0
 22 23  1  1  0  0  0
 22 24  1  0  0  0  0
 24 25  1  6  0  0  0
 24 26  1  0  0  0  0
 26 27  1  1  0  0  0
 26 28  1  0  0  0  0
 28 29  1  0  0  0  0
 28 30  1  6  0  0  0
 30 31  1  0  0  0  0
 34 35  2  0  0  0  0
 36 34  1  1  0  0  0
 36 38  1  0  0  0  0
 36 40  1  0  0  0  0
 37 39  1  0  0  0  0
 38 39  1  0  0  0  0
M  END
>  <CHROM.1>
-166.99710285,-146.83803364,-65.63114340,-69.13814102,80.29697426,-155.92099598
-64.38449942,-145.23684419,68.50676918,-68.08393097,1.14582391,-9.54365810
17.11056714,-1.01639115,0.04498138,-2.26230538

>  <Name>
ligand

>  <RI>
0

>  <Rbt.Current_Directory>
/home/itssahil/PROJECTS/Mol_Feturizer/New_Systems/rnas/4P20

>  <Rbt.Executable>
rbdock ($Id: //depot/dev/client3/rdock/2013.1/src/exe/rbdock.cxx#4 $)

>  <Rbt.Library>
libRbt.so (2013.1, Build901 2013/11/27)

>  <Rbt.Parameter_File>
/export/apps/rDock/src/rDock_2013.1_src/data/scripts/dock_solv.prm

>  <Rbt.Receptor>
prm/pocket_docking_3.prm

>  <SCORE>
-16.9327

>  <SCORE.INTER>
-11.8929

>  <SCORE.INTER.CONST>
1

>  <SCORE.INTER.POLAR>
0

>  <SCORE.INTER.ROT>
10

>  <SCORE.INTER.SOLV>
20.7345

>  <SCORE.INTER.VDW>
-25.1068

>  <SCORE.INTER.norm>
-0.297322

>  <SCORE.INTRA>
-5.03977

>  <SCORE.INTRA.DIHEDRAL>
-16.3453

>  <SCORE.INTRA.DIHEDRAL.0>
28.2802

>  <SCORE.INTRA.POLAR>
0

>  <SCORE.INTRA.POLAR.0>
0

>  <SCORE.INTRA.REPUL>
0

>  <SCORE.INTRA.REPUL.0>
0

>  <SCORE.INTRA.SOLV>
4.44871

>  <SCORE.INTRA.SOLV.lig_0>
-101.981

>  <SCORE.INTRA.VDW>
0.908511

>  <SCORE.INTRA.VDW.0>
-5.72964

>  <SCORE.INTRA.norm>
-0.125994

>  <SCORE.RESTR>
0

>  <SCORE.RESTR.CAVITY>
0

>  <SCORE.RESTR.norm>
0

>  <SCORE.SYSTEM>
0

>  <SCORE.SYSTEM.CONST>
0

>  <SCORE.SYSTEM.DIHEDRAL>
0

>  <SCORE.SYSTEM.SOLV>
0

>  <SCORE.SYSTEM.norm>
0

>  <SCORE.heavy>
40

>  <SCORE.norm>
-0.423316

>  <RMSD>
1.720

$$$$
ligand
 OpenBabel11021811513D
libRbt.so/2013.1/901 2013/11/27
 40 42  0  0  0  0  0  0  0  0999 V2000
    2.9290   -7.1534   19.5345 C   0  0  2  0  0  0  0  0  0  0  0  0
    2.0244   -8.2674   19.5944 O   0  0  0  0  0  0  0  0  0  0  0  0
    4.2245   -7.5350   18.7248 C   0  0  1  0  0  0  0  0  0  0  0  0
    5.0551   -8.6291   19.4569 C   0  0  2  0  0  0  0  0  0  0  0  0
    5.4606   -8.0618   20.8541 C   0  0  2  0  0  0  0  0  0  0  0  0
    6.2566   -9.0428   21.5530 O   0  0  0  0  0  0  0  0  0  0  0  0
    4.1342   -7.7272   21.6667 C   0  0  2  0  0  0  0  0  0  0  0  0
    3.3206   -6.7094   20.9103 O   0  0  0  0  0  0  0  0  0  0  0  0
    4.4246   -7.1458   23.0436 C   0  0  0  0  0  0  0  0  0  0  0  0
    5.0128   -5.7727   22.9475 N   0  0  0  0  0  0  0  0  0  0  0  0
   -1.6730   -9.7483   17.7326 C   0  0  2  0  0  0  0  0  0  0  0  0
   -2.7967   -9.8381   16.8295 N   0  0  0  0  0  0  0  0  0  0  0  0
   -1.7201   -8.3658   18.5002 C   0  0  0  0  0  0  0  0  0  0  0  0
   -0.4824   -8.2501   19.4980 C   0  0  2  0  0  0  0  0  0  0  0  0
   -0.5372   -6.9578   20.2303 N   0  0  0  0  0  0  0  0  0  0  0  0
    0.8768   -8.3865   18.6667 C   0  0  2  0  0  0  0  0  0  0  0  0
    0.8756   -9.7854   17.9151 C   0  0  2  0  0  0  0  0  0  0  0  0
    2.0892   -9.9185   17.1716 O   0  0  0  0  0  0  0  0  0  0  0  0
   -0.3577   -9.8877   16.9334 C   0  0  1  0  0  0  0  0  0  0  0  0
   -0.3560  -11.1771   16.2716 O   0  0  0  0  0  0  0  0  0  0  0  0
   -0.9210  -11.4435   15.0328 C   0  0  2  0  0  0  0  0  0  0  0  0
   -1.0859  -13.0003   14.9142 C   0  0  2  0  0  0  0  0  0  0  0  0
   -1.8696  -13.4705   15.9630 O   0  0  0  0  0  0  0  0  0  0  0  0
    0.3182  -13.7405   14.8705 C   0  0  1  0  0  0  0  0  0  0  0  0
    0.1382  -15.2199   14.7449 N   0  0  0  0  0  0  0  0  0  0  0  0
    1.1605  -13.1629   13.6506 C   0  0  2  0  0  0  0  0  0  0  0  0
    2.4356  -13.8106   13.5607 O   0  0  0  0  0  0  0  0  0  0  0  0
    1.3149  -11.6061   13.8546 C   0  0  2  0  0  0  0  0  0  0  0  0
   -0.0486  -10.9342   13.9436 O   0  0  0  0  0  0  0  0  0  0  0  0
    2.0903  -10.9816   12.7192 C   0  0  0  0  0  0  0  0  0  0  0  0
    2.3689   -9.5861   12.9377 O   0  0  0  0  0  0  0  0  0  0  0  0
    3.8189   -7.9941   17.4024 O   0  0  0  0  0  0  0  0  0  0  0  0
    6.1761   -8.9133   18.7152 O   0  0  0  0  0  0  0  0  0  0  0  0
   -4.1110  -10.0980   17.3699 C   0  0  0  0  0  0  0  0  0  0  0  0
   -4.2271  -10.6616   18.4986 O   0  0  0  0  0  0  0  0  0  0  0  0
   -5.3472   -9.6699   16.5209 C   0  0  2  0  0  0  0  0  0  0  0  0
   -8.0224  -11.8745   14.7472 N   0  0  0  0  0  0  0  0  0  0  0  0
   -5.9863  -10.8997   15.8051 C   0  0  0  0  0  0  0  0  0  0  0  0
   -7.4402  -10.6592   15.3654 C   0  0  0  0  0  0  0  0  0  0  0  0
   -5.0449   -8.8567   15.5906 O   0  0  0  0  0  0  0  0  0  0  0  0
  1  2  1  1  0  0  0
  1  3  1  0  0  0  0
  1  8  1  0  0  0  0
  3  4  1  0  0  0  0
  3 32  1  6  0  0  0
  4  5  1  0  0  0  0
  4 33  1  6  0  0  0
  5  6  1  1  0  0  0
  5  7  1  0  0  0  0
  7  8  1  0  0  0  0
  7  9  1  1  0  0  0
  9 10  1  0  0  0  0
 11 12  1  6  0  0  0
 11 13  1  0  0  0  0
 11 19  1  0  0  0  0
 12 34  1  0  0  0  0
 13 14  1  0  0  0  0
 14 15  1  6  0  0  0
 14 16  1  0  0  0  0
 16  2  1  1  0  0  0
 16 17  1  0  0  0  0
 17 18  1  6  0  0  0
 17 19  1  0  0  0  0
 19 20  1  1  0  0  0
 21 20  1  1  0  0  0
 21 22  1  0  0  0  0
 21 29  1  0  0  0  0
 22 23  1  1  0  0  0
 22 24  1  0  0  0  0
 24 25  1  6  0  0  0
 24 26  1  0  0  0  0
 26 27  1  1  0  0  0
 26 28  1  0  0  0  0
 28 29  1  0  0  0  0
 28 30  1  6  0  0  0
 30 31  1  0  0  0  0
 34 35  2  0  0  0  0
 36 34  1  6  0  0  0
 36 38  1  0  0  0  0
 36 40  1  0  0  0  0
 37 39  1  0  0  0  0
 38 39  1  0  0  0  0
M  END
>  <CHROM.1>
-98.05194610,-113.40869951,68.98156501,-74.98313805,86.22136831,-162.63469576
-174.05665273,102.26524076,160.09446986,-177.40299017,0.40161893,-9.87652721
17.33991940,0.67446913,-0.03151263,0.91217721

>  <Name>
ligand

>  <RI>
0

>  <Rbt.Current_Directory>
/home/itssahil/PROJECTS/Mol_Feturizer/New_Systems/rnas/4P20

>  <Rbt.Executable>
rbdock ($Id: //depot/dev/client3/rdock/2013.1/src/exe/rbdock.cxx#4 $)

>  <Rbt.Library>
libRbt.so (2013.1, Build901 2013/11/27)

>  <Rbt.Parameter_File>
/export/apps/rDock/src/rDock_2013.1_src/data/scripts/dock_solv.prm

>  <Rbt.Receptor>
prm/pocket_docking_2.prm

>  <SCORE>
-8.23371

>  <SCORE.INTER>
-5.42721

>  <SCORE.INTER.CONST>
1

>  <SCORE.INTER.POLAR>
0

>  <SCORE.INTER.ROT>
10

>  <SCORE.INTER.SOLV>
25.8394

>  <SCORE.INTER.VDW>
-22.4979

>  <SCORE.INTER.norm>
-0.13568

>  <SCORE.INTRA>
-3.21385

>  <SCORE.INTRA.DIHEDRAL>
-7.9014

>  <SCORE.INTRA.DIHEDRAL.0>
28.2802

>  <SCORE.INTRA.POLAR>
0

>  <SCORE.INTRA.POLAR.0>
0

>  <SCORE.INTRA.REPUL>
0

>  <SCORE.INTRA.REPUL.0>
0

>  <SCORE.INTRA.SOLV>
-0.285689

>  <SCORE.INTRA.SOLV.lig_0>
-101.981

>  <SCORE.INTRA.VDW>
0.879693

>  <SCORE.INTRA.VDW.0>
-5.72964

>  <SCORE.INTRA.norm>
-0.0803463

>  <SCORE.RESTR>
0.40735

>  <SCORE.RESTR.CAVITY>
0.40735

>  <SCORE.RESTR.norm>
0.0101837

>  <SCORE.SYSTEM>
0

>  <SCORE.SYSTEM.CONST>
0

>  <SCORE.SYSTEM.DIHEDRAL>
0

>  <SCORE.SYSTEM.SOLV>
0

>  <SCORE.SYSTEM.norm>
0

>  <SCORE.heavy>
40

>  <SCORE.norm>
-0.205843

>  <RMSD>
1.731

$$$$
ligand
 OpenBabel11021811513D
libRbt.so/2013.1/901 2013/11/27
 40 42  0  0  0  0  0  0  0  0999 V2000
    4.2158   -7.7809   18.6727 C   0  0  2  0  0  0  0  0  0  0  0  0
    3.1288   -8.7056   18.8347 O   0  0  0  0  0  0  0  0  0  0  0  0
    5.4361   -8.1970   19.5766 C   0  0  1  0  0  0  0  0  0  0  0  0
    5.0926   -8.0809   21.0903 C   0  0  2  0  0  0  0  0  0  0  0  0
    4.7126   -6.5940   21.3783 C   0  0  2  0  0  0  0  0  0  0  0  0
    4.4120   -6.4431   22.7823 O   0  0  0  0  0  0  0  0  0  0  0  0
    3.4510   -6.2143   20.4862 C   0  0  2  0  0  0  0  0  0  0  0  0
    3.7905   -6.3896   19.0288 O   0  0  0  0  0  0  0  0  0  0  0  0
    3.0125   -4.7693   20.6808 C   0  0  0  0  0  0  0  0  0  0  0  0
    4.0775   -3.8091   20.2515 N   0  0  0  0  0  0  0  0  0  0  0  0
   -0.6550   -9.8843   16.9311 C   0  0  2  0  0  0  0  0  0  0  0  0
   -1.7781   -9.8761   16.0229 N   0  0  0  0  0  0  0  0  0  0  0  0
   -0.6084   -8.5181   17.7275 C   0  0  0  0  0  0  0  0  0  0  0  0
    0.6298   -8.5104   18.7312 C   0  0  2  0  0  0  0  0  0  0  0  0
    0.6625   -7.2329   19.4904 N   0  0  0  0  0  0  0  0  0  0  0  0
    1.9798   -8.7245   17.9013 C   0  0  2  0  0  0  0  0  0  0  0  0
    1.8839  -10.1039   17.1204 C   0  0  2  0  0  0  0  0  0  0  0  0
    3.0885  -10.3063   16.3779 O   0  0  0  0  0  0  0  0  0  0  0  0
    0.6509  -10.0989   16.1331 C   0  0  1  0  0  0  0  0  0  0  0  0
    0.5651  -11.3712   15.4442 O   0  0  0  0  0  0  0  0  0  0  0  0
   -0.0965  -11.5908   14.2447 C   0  0  2  0  0  0  0  0  0  0  0  0
   -0.2504  -13.1433   14.0679 C   0  0  2  0  0  0  0  0  0  0  0  0
   -0.9390  -13.6733   15.1543 O   0  0  0  0  0  0  0  0  0  0  0  0
    1.1548  -13.8572   13.8754 C   0  0  1  0  0  0  0  0  0  0  0  0
    0.9841  -15.3323   13.6965 N   0  0  0  0  0  0  0  0  0  0  0  0
    1.8862  -13.2111   12.6189 C   0  0  2  0  0  0  0  0  0  0  0  0
    3.1578  -13.8328   12.3952 O   0  0  0  0  0  0  0  0  0  0  0  0
    2.0367  -11.6628   12.8815 C   0  0  2  0  0  0  0  0  0  0  0  0
    0.6766  -11.0185   13.1127 O   0  0  0  0  0  0  0  0  0  0  0  0
    2.7078  -10.9748   11.7168 C   0  0  0  0  0  0  0  0  0  0  0  0
    4.0618  -11.4199   11.5132 O   0  0  0  0  0  0  0  0  0  0  0  0
    5.8125   -9.5633   19.2366 O   0  0  0  0  0  0  0  0  0  0  0  0
    6.1928   -8.4425   21.8296 O   0  0  0  0  0  0  0  0  0  0  0  0
   -2.9477  -10.6593   16.3479 C   0  0  0  0  0  0  0  0  0  0  0  0
   -2.8453  -11.6464   17.1353 O   0  0  0  0  0  0  0  0  0  0  0  0
   -4.3050  -10.2485   15.6986 C   0  0  2  0  0  0  0  0  0  0  0  0
   -6.4637   -7.0296   16.0800 N   0  0  0  0  0  0  0  0  0  0  0  0
   -4.7934   -8.8726   16.2481 C   0  0  0  0  0  0  0  0  0  0  0  0
   -6.0267   -8.3264   15.5094 C   0  0  0  0  0  0  0  0  0  0  0  0
   -5.2414  -11.0687   15.9602 O   0  0  0  0  0  0  0  0  0  0  0  0
  1  2  1  1  0  0  0
  1  3  1  0  0  0  0
  1  8  1  0  0  0  0
  3  4  1  0  0  0  0
  3 32  1  6  0  0  0
  4  5  1  0  0  0  0
  4 33  1  1  0  0  0
  5  6  1  1  0  0  0
  5  7  1  0  0  0  0
  7  8  1  0  0  0  0
  7  9  1  6  0  0  0
  9 10  1  0  0  0  0
 11 12  1  6  0  0  0
 11 13  1  0  0  0  0
 11 19  1  0  0  0  0
 12 34  1  0  0  0  0
 13 14  1  0  0  0  0
 14 15  1  6  0  0  0
 14 16  1  0  0  0  0
 16  2  1  1  0  0  0
 16 17  1  0  0  0  0
 17 18  1  6  0  0  0
 17 19  1  0  0  0  0
 19 20  1  1  0  0  0
 21 20  1  1  0  0  0
 21 22  1  0  0  0  0
 21 29  1  0  0  0  0
 22 23  1  1  0  0  0
 22 24  1  0  0  0  0
 24 25  1  6  0  0  0
 24 26  1  0  0  0  0
 26 27  1  1  0  0  0
 26 28  1  0  0  0  0
 28 29  1  0  0  0  0
 28 30  1  6  0  0  0
 30 31  1  0  0  0  0
 34 35  2  0  0  0  0
 36 34  1  1  0  0  0
 36 38  1  0  0  0  0
 36 40  1  0  0  0  0
 37 39  1  0  0  0  0
 38 39  1  0  0  0  0
M  END
>  <CHROM.1>
-166.67810456,-123.15704252,62.92887848,-105.22633583,81.22858650,-165.52540473
-64.02796383,-67.70742875,172.27140030,179.16002230,1.09987932,-9.69887747
16.84731061,-0.94244933,0.10711038,-2.30363304

>  <Name>
ligand

>  <RI>
0

>  <Rbt.Current_Directory>
/home/itssahil/PROJECTS/Mol_Feturizer/New_Systems/rnas/4P20

>  <Rbt.Executable>
rbdock ($Id: //depot/dev/client3/rdock/2013.1/src/exe/rbdock.cxx#4 $)

>  <Rbt.Library>
libRbt.so (2013.1, Build901 2013/11/27)

>  <Rbt.Parameter_File>
/export/apps/rDock/src/rDock_2013.1_src/data/scripts/dock_solv.prm

>  <Rbt.Receptor>
prm/pocket_docking_4.prm

>  <SCORE>
-16.2993

>  <SCORE.INTER>
-10.2273

>  <SCORE.INTER.CONST>
1

>  <SCORE.INTER.POLAR>
0

>  <SCORE.INTER.ROT>
10

>  <SCORE.INTER.SOLV>
26.8476

>  <SCORE.INTER.VDW>
-26.0341

>  <SCORE.INTER.norm>
-0.255683

>  <SCORE.INTRA>
-6.07198

>  <SCORE.INTRA.DIHEDRAL>
-15.0862

>  <SCORE.INTRA.DIHEDRAL.0>
28.2802

>  <SCORE.INTRA.POLAR>
0

>  <SCORE.INTRA.POLAR.0>
0

>  <SCORE.INTRA.REPUL>
0

>  <SCORE.INTRA.REPUL.0>
0

>  <SCORE.INTRA.SOLV>
1.88902

>  <SCORE.INTRA.SOLV.lig_0>
-101.981

>  <SCORE.INTRA.VDW>
0.526603

>  <SCORE.INTRA.VDW.0>
-5.72964

>  <SCORE.INTRA.norm>
-0.1518

>  <SCORE.RESTR>
0

>  <SCORE.RESTR.CAVITY>
0

>  <SCORE.RESTR.norm>
0

>  <SCORE.SYSTEM>
0

>  <SCORE.SYSTEM.CONST>
0

>  <SCORE.SYSTEM.DIHEDRAL>
0

>  <SCORE.SYSTEM.SOLV>
0

>  <SCORE.SYSTEM.norm>
0

>  <SCORE.heavy>
40

>  <SCORE.norm>
-0.407482

>  <RMSD>
1.745

$$$$
ligand
 OpenBabel11021811513D
libRbt.so/2013.1/901 2013/11/27
 40 42  0  0  0  0  0  0  0  0999 V2000
    4.2678   -8.1083   18.8674 C   0  0  2  0  0  0  0  0  0  0  0  0
    3.0007   -8.6901   19.2122 O   0  0  0  0  0  0  0  0  0  0  0  0
    5.3780   -8.5520   19.8919 C   0  0  1  0  0  0  0  0  0  0  0  0
    5.1019   -7.9860   21.3154 C   0  0  2  0  0  0  0  0  0  0  0  0
    5.0804   -6.4281   21.2109 C   0  0  2  0  0  0  0  0  0  0  0  0
    4.8519   -5.8666   22.5213 O   0  0  0  0  0  0  0  0  0  0  0  0
    3.9219   -6.0062   20.2053 C   0  0  2  0  0  0  0  0  0  0  0  0
    4.1816   -6.6130   18.8508 O   0  0  0  0  0  0  0  0  0  0  0  0
    3.8319   -4.4979   20.0187 C   0  0  0  0  0  0  0  0  0  0  0  0
    3.3579   -3.8172   21.2647 N   0  0  0  0  0  0  0  0  0  0  0  0
   -0.7755   -9.8064   17.2565 C   0  0  2  0  0  0  0  0  0  0  0  0
   -1.8888   -9.7761   16.3368 N   0  0  0  0  0  0  0  0  0  0  0  0
   -0.7224   -8.4494   18.0681 C   0  0  0  0  0  0  0  0  0  0  0  0
    0.5053   -8.4662   19.0847 C   0  0  2  0  0  0  0  0  0  0  0  0
    0.5439   -7.1974   19.8581 N   0  0  0  0  0  0  0  0  0  0  0  0
    1.8615   -8.6862   18.2667 C   0  0  2  0  0  0  0  0  0  0  0  0
    1.7587  -10.0560   17.4699 C   0  0  2  0  0  0  0  0  0  0  0  0
    2.9688  -10.2638   16.7379 O   0  0  0  0  0  0  0  0  0  0  0  0
    0.5363  -10.0268   16.4699 C   0  0  1  0  0  0  0  0  0  0  0  0
    0.4439  -11.2906   15.7664 O   0  0  0  0  0  0  0  0  0  0  0  0
   -0.2499  -11.5012   14.5835 C   0  0  2  0  0  0  0  0  0  0  0  0
   -0.6092  -13.0280   14.5126 C   0  0  2  0  0  0  0  0  0  0  0  0
   -1.3536  -13.3874   15.6314 O   0  0  0  0  0  0  0  0  0  0  0  0
    0.6878  -13.9332   14.3713 C   0  0  1  0  0  0  0  0  0  0  0  0
    0.3221  -15.3813   14.2929 N   0  0  0  0  0  0  0  0  0  0  0  0
    1.4889  -13.4763   13.0749 C   0  0  2  0  0  0  0  0  0  0  0  0
    2.6653  -14.2746   12.8960 O   0  0  0  0  0  0  0  0  0  0  0  0
    1.8448  -11.9473   13.2318 C   0  0  2  0  0  0  0  0  0  0  0  0
    0.5837  -11.1143   13.4165 O   0  0  0  0  0  0  0  0  0  0  0  0
    2.5924  -11.4347   12.0240 C   0  0  0  0  0  0  0  0  0  0  0  0
    1.9795  -11.8289   10.7823 O   0  0  0  0  0  0  0  0  0  0  0  0
    5.4226  -10.0085   19.9159 O   0  0  0  0  0  0  0  0  0  0  0  0
    6.1044   -8.3921   22.1625 O   0  0  0  0  0  0  0  0  0  0  0  0
   -3.2256   -9.9722   16.8482 C   0  0  0  0  0  0  0  0  0  0  0  0
   -3.3964  -10.5804   17.9463 O   0  0  0  0  0  0  0  0  0  0  0  0
   -4.4174   -9.4207   16.0067 C   0  0  2  0  0  0  0  0  0  0  0  0
   -3.9973   -7.7647   18.5919 N   0  0  0  0  0  0  0  0  0  0  0  0
   -5.5241   -8.8239   16.9300 C   0  0  0  0  0  0  0  0  0  0  0  0
   -5.0966   -7.5215   17.6273 C   0  0  0  0  0  0  0  0  0  0  0  0
   -4.9968  -10.3257   15.3261 O   0  0  0  0  0  0  0  0  0  0  0  0
  1  2  1  1  0  0  0
  1  3  1  0  0  0  0
  1  8  1  0  0  0  0
  3  4  1  0  0  0  0
  3 32  1  1  0  0  0
  4  5  1  0  0  0  0
  4 33  1  1  0  0  0
  5  6  1  1  0  0  0
  5  7  1  0  0  0  0
  7  8  1  0  0  0  0
  7  9  1  6  0  0  0
  9 10  1  0  0  0  0
 11 12  1  6  0  0  0
 11 13  1  0  0  0  0
 11 19  1  0  0  0  0
 12 34  1  0  0  0  0
 13 14  1  0  0  0  0
 14 15  1  6  0  0  0
 14 16  1  0  0  0  0
 16  2  1  1  0  0  0
 16 17  1  0  0  0  0
 17 18  1  6  0  0  0
 17 19  1  0  0  0  0
 19 20  1  1  0  0  0
 21 20  1  1  0  0  0
 21 22  1  0  0  0  0
 21 29  1  0  0  0  0
 22 23  1  1  0  0  0
 22 24  1  0  0  0  0
 24 25  1  6  0  0  0
 24 26  1  0  0  0  0
 26 27  1  1  0  0  0
 26 28  1  0  0  0  0
 28 29  1  0  0  0  0
 28 30  1  6  0  0  0
 30 31  1  0  0  0  0
 34 35  2  0  0  0  0
 36 34  1  1  0  0  0
 36 38  1  0  0  0  0
 36 40  1  0  0  0  0
 37 39  1  0  0  0  0
 38 39  1  0  0  0  0
M  END
>  <CHROM.1>
-166.31947298,-143.16808253,-68.43824278,-76.21758546,78.64858443,-155.94703581
47.00052780,-141.57966123,69.59076768,-66.10265191,1.00570474,-9.63653736
17.21241940,-0.99319062,0.09911240,-2.31777261

>  <Name>
ligand

>  <RI>
0

>  <Rbt.Current_Directory>
/home/itssahil/PROJECTS/Mol_Feturizer/New_Systems/rnas/4P20

>  <Rbt.Executable>
rbdock ($Id: //depot/dev/client3/rdock/2013.1/src/exe/rbdock.cxx#4 $)

>  <Rbt.Library>
libRbt.so (2013.1, Build901 2013/11/27)

>  <Rbt.Parameter_File>
/export/apps/rDock/src/rDock_2013.1_src/data/scripts/dock_solv.prm

>  <Rbt.Receptor>
prm/pocket_docking_7.prm

>  <SCORE>
-16.7658

>  <SCORE.INTER>
-12.2705

>  <SCORE.INTER.CONST>
1

>  <SCORE.INTER.POLAR>
0

>  <SCORE.INTER.ROT>
10

>  <SCORE.INTER.SOLV>
23.0051

>  <SCORE.INTER.VDW>
-26.1154

>  <SCORE.INTER.norm>
-0.306762

>  <SCORE.INTRA>
-4.49527

>  <SCORE.INTRA.DIHEDRAL>
-14.9701

>  <SCORE.INTRA.DIHEDRAL.0>
28.2802

>  <SCORE.INTRA.POLAR>
0

>  <SCORE.INTRA.POLAR.0>
0

>  <SCORE.INTRA.REPUL>
0

>  <SCORE.INTRA.REPUL.0>
0

>  <SCORE.INTRA.SOLV>
4.79345

>  <SCORE.INTRA.SOLV.lig_0>
-101.981

>  <SCORE.INTRA.VDW>
0.593047

>  <SCORE.INTRA.VDW.0>
-5.72964

>  <SCORE.INTRA.norm>
-0.112382

>  <SCORE.RESTR>
0

>  <SCORE.RESTR.CAVITY>
0

>  <SCORE.RESTR.norm>
0

>  <SCORE.SYSTEM>
0

>  <SCORE.SYSTEM.CONST>
0

>  <SCORE.SYSTEM.DIHEDRAL>
0

>  <SCORE.SYSTEM.SOLV>
0

>  <SCORE.SYSTEM.norm>
0

>  <SCORE.heavy>
40

>  <SCORE.norm>
-0.419144

>  <RMSD>
1.808

$$$$
ligand
 OpenBabel11021811513D
libRbt.so/2013.1/901 2013/11/27
 40 42  0  0  0  0  0  0  0  0999 V2000
    2.6823   -7.3069   17.9900 C   0  0  2  0  0  0  0  0  0  0  0  0
    1.4362   -7.7879   18.5181 O   0  0  0  0  0  0  0  0  0  0  0  0
    3.8770   -8.2050   18.4853 C   0  0  1  0  0  0  0  0  0  0  0  0
    4.0763   -8.0936   20.0251 C   0  0  2  0  0  0  0  0  0  0  0  0
    4.3745   -6.5975   20.3582 C   0  0  2  0  0  0  0  0  0  0  0  0
    4.5911   -6.4606   21.7791 O   0  0  0  0  0  0  0  0  0  0  0  0
    3.1337   -5.7194   19.8884 C   0  0  2  0  0  0  0  0  0  0  0  0
    2.9263   -5.8888   18.4057 O   0  0  0  0  0  0  0  0  0  0  0  0
    3.3368   -4.2338   20.1528 C   0  0  0  0  0  0  0  0  0  0  0  0
    3.2981   -3.9258   21.6171 N   0  0  0  0  0  0  0  0  0  0  0  0
   -1.7212  -10.3660   16.8705 C   0  0  2  0  0  0  0  0  0  0  0  0
   -2.7828  -10.8298   16.0078 N   0  0  0  0  0  0  0  0  0  0  0  0
   -2.1430   -8.9955   17.5388 C   0  0  0  0  0  0  0  0  0  0  0  0
   -0.9783   -8.4683   18.4909 C   0  0  2  0  0  0  0  0  0  0  0  0
   -1.3829   -7.1890   19.1307 N   0  0  0  0  0  0  0  0  0  0  0  0
    0.3595   -8.2882   17.6337 C   0  0  2  0  0  0  0  0  0  0  0  0
    0.7396   -9.6864   16.9838 C   0  0  2  0  0  0  0  0  0  0  0  0
    1.9373   -9.5367   16.2180 O   0  0  0  0  0  0  0  0  0  0  0  0
   -0.4245  -10.1984   16.0468 C   0  0  1  0  0  0  0  0  0  0  0  0
   -0.0712  -11.4841   15.4785 O   0  0  0  0  0  0  0  0  0  0  0  0
   -0.4015  -11.9146   14.2016 C   0  0  2  0  0  0  0  0  0  0  0  0
   -0.1888  -13.4696   14.1581 C   0  0  2  0  0  0  0  0  0  0  0  0
   -0.9680  -14.0774   15.1372 O   0  0  0  0  0  0  0  0  0  0  0  0
    1.3419  -13.8603   14.3184 C   0  0  1  0  0  0  0  0  0  0  0  0
    1.5229  -15.3438   14.2615 N   0  0  0  0  0  0  0  0  0  0  0  0
    2.1742  -13.1397   13.1698 C   0  0  2  0  0  0  0  0  0  0  0  0
    3.5649  -13.4724   13.2640 O   0  0  0  0  0  0  0  0  0  0  0  0
    1.9408  -11.5846   13.2968 C   0  0  2  0  0  0  0  0  0  0  0  0
    0.4594  -11.2493   13.1902 O   0  0  0  0  0  0  0  0  0  0  0  0
    2.6873  -10.8315   12.2217 C   0  0  0  0  0  0  0  0  0  0  0  0
    2.4963  -11.3975   10.9117 O   0  0  0  0  0  0  0  0  0  0  0  0
    3.6040   -9.5835   18.0991 O   0  0  0  0  0  0  0  0  0  0  0  0
    5.1355   -8.8846   20.3993 O   0  0  0  0  0  0  0  0  0  0  0  0
   -3.7593  -11.7553   16.5340 C   0  0  0  0  0  0  0  0  0  0  0  0
   -3.4686  -12.4753   17.5350 O   0  0  0  0  0  0  0  0  0  0  0  0
   -5.1486  -11.8298   15.8291 C   0  0  2  0  0  0  0  0  0  0  0  0
   -7.9414   -9.1682   15.3292 N   0  0  0  0  0  0  0  0  0  0  0  0
   -5.8771  -10.4514   15.8834 C   0  0  0  0  0  0  0  0  0  0  0  0
   -7.2017  -10.4329   15.1023 C   0  0  0  0  0  0  0  0  0  0  0  0
   -5.9395  -12.6525   16.3908 O   0  0  0  0  0  0  0  0  0  0  0  0
  1  2  1  1  0  0  0
  1  3  1  0  0  0  0
  1  8  1  0  0  0  0
  3  4  1  0  0  0  0
  3 32  1  1  0  0  0
  4  5  1  0  0  0  0
  4 33  1  6  0  0  0
  5  6  1  1  0  0  0
  5  7  1  0  0  0  0
  7  8  1  0  0  0  0
  7  9  1  6  0  0  0
  9 10  1  0  0  0  0
 11 12  1  6  0  0  0
 11 13  1  0  0  0  0
 11 19  1  0  0  0  0
 12 34  1  0  0  0  0
 13 14  1  0  0  0  0
 14 15  1  6  0  0  0
 14 16  1  0  0  0  0
 16  2  1  1  0  0  0
 16 17  1  0  0  0  0
 17 18  1  6  0  0  0
 17 19  1  0  0  0  0
 19 20  1  1  0  0  0
 21 20  1  1  0  0  0
 21 22  1  0  0  0  0
 21 29  1  0  0  0  0
 22 23  1  1  0  0  0
 22 24  1  0  0  0  0
 24 25  1  6  0  0  0
 24 26  1  0  0  0  0
 26 27  1  1  0  0  0
 26 28  1  0  0  0  0
 28 29  1  0  0  0  0
 28 30  1  6  0  0  0
 30 31  1  0  0  0  0
 34 35  2  0  0  0  0
 36 34  1  1  0  0  0
 36 38  1  0  0  0  0
 36 40  1  0  0  0  0
 37 39  1  0  0  0  0
 38 39  1  0  0  0  0
M  END
>  <CHROM.1>
-117.05660579,-168.80846978,-69.85565470,-94.07876804,95.46599023,-164.14618617
47.54934306,-60.57940478,175.22273492,172.49597454,0.31876566,-9.93525892
16.66504923,0.85792561,0.05144033,0.78665470

>  <Name>
ligand

>  <RI>
0

>  <Rbt.Current_Directory>
/home/itssahil/PROJECTS/Mol_Feturizer/New_Systems/rnas/4P20

>  <Rbt.Executable>
rbdock ($Id: //depot/dev/client3/rdock/2013.1/src/exe/rbdock.cxx#4 $)

>  <Rbt.Library>
libRbt.so (2013.1, Build901 2013/11/27)

>  <Rbt.Parameter_File>
/export/apps/rDock/src/rDock_2013.1_src/data/scripts/dock_solv.prm

>  <Rbt.Receptor>
prm/pocket_docking_3.prm

>  <SCORE>
-13.0926

>  <SCORE.INTER>
-8.31954

>  <SCORE.INTER.CONST>
1

>  <SCORE.INTER.POLAR>
0

>  <SCORE.INTER.ROT>
10

>  <SCORE.INTER.SOLV>
19.0692

>  <SCORE.INTER.VDW>
-22.1694

>  <SCORE.INTER.norm>
-0.207989

>  <SCORE.INTRA>
-4.77305

>  <SCORE.INTRA.DIHEDRAL>
-12.0336

>  <SCORE.INTRA.DIHEDRAL.0>
28.2802

>  <SCORE.INTRA.POLAR>
0

>  <SCORE.INTRA.POLAR.0>
0

>  <SCORE.INTRA.REPUL>
0

>  <SCORE.INTRA.REPUL.0>
0

>  <SCORE.INTRA.SOLV>
-0.48138

>  <SCORE.INTRA.SOLV.lig_0>
-101.981

>  <SCORE.INTRA.VDW>
1.48443

>  <SCORE.INTRA.VDW.0>
-5.72964

>  <SCORE.INTRA.norm>
-0.119326

>  <SCORE.RESTR>
2.25409e-05

>  <SCORE.RESTR.CAVITY>
2.25409e-05

>  <SCORE.RESTR.norm>
5.63521e-07

>  <SCORE.SYSTEM>
0

>  <SCORE.SYSTEM.CONST>
0

>  <SCORE.SYSTEM.DIHEDRAL>
0

>  <SCORE.SYSTEM.SOLV>
0

>  <SCORE.SYSTEM.norm>
0

>  <SCORE.heavy>
40

>  <SCORE.norm>
-0.327314

>  <RMSD>
1.823

$$$$
ligand
 OpenBabel11021811513D
libRbt.so/2013.1/901 2013/11/27
 40 42  0  0  0  0  0  0  0  0999 V2000
    3.6090   -6.5866   19.2747 C   0  0  2  0  0  0  0  0  0  0  0  0
    2.3759   -7.2105   19.6661 O   0  0  0  0  0  0  0  0  0  0  0  0
    4.7688   -6.9841   20.2627 C   0  0  1  0  0  0  0  0  0  0  0  0
    4.5217   -6.4188   21.6918 C   0  0  2  0  0  0  0  0  0  0  0  0
    4.4413   -4.8634   21.5798 C   0  0  2  0  0  0  0  0  0  0  0  0
    4.2381   -4.3017   22.8942 O   0  0  0  0  0  0  0  0  0  0  0  0
    3.2347   -4.4894   20.6125 C   0  0  2  0  0  0  0  0  0  0  0  0
    3.4693   -5.0954   19.2531 O   0  0  0  0  0  0  0  0  0  0  0  0
    3.0849   -2.9863   20.4210 C   0  0  0  0  0  0  0  0  0  0  0  0
    2.6421   -2.3130   21.6824 N   0  0  0  0  0  0  0  0  0  0  0  0
   -0.8781   -9.1285   17.4161 C   0  0  2  0  0  0  0  0  0  0  0  0
   -1.9720   -9.2957   16.4877 N   0  0  0  0  0  0  0  0  0  0  0  0
   -1.2529   -8.0208   18.4816 C   0  0  0  0  0  0  0  0  0  0  0  0
   -0.0523   -7.8216   19.5110 C   0  0  2  0  0  0  0  0  0  0  0  0
   -0.4125   -6.7923   20.5211 N   0  0  0  0  0  0  0  0  0  0  0  0
    1.2656   -7.4057   18.7065 C   0  0  2  0  0  0  0  0  0  0  0  0
    1.5986   -8.5449   17.6514 C   0  0  2  0  0  0  0  0  0  0  0  0
    2.7782   -8.1840   16.9293 O   0  0  0  0  0  0  0  0  0  0  0  0
    0.3993   -8.7342   16.6409 C   0  0  1  0  0  0  0  0  0  0  0  0
    0.7101   -9.7906   15.6986 O   0  0  0  0  0  0  0  0  0  0  0  0
    1.4446   -9.6343   14.5320 C   0  0  2  0  0  0  0  0  0  0  0  0
    1.1450  -10.8738   13.6161 C   0  0  2  0  0  0  0  0  0  0  0  0
   -0.2218  -10.9570   13.3711 O   0  0  0  0  0  0  0  0  0  0  0  0
    1.6978  -12.2216   14.2481 C   0  0  1  0  0  0  0  0  0  0  0  0
    1.4131  -13.3865   13.3543 N   0  0  0  0  0  0  0  0  0  0  0  0
    3.2610  -12.0631   14.4980 C   0  0  2  0  0  0  0  0  0  0  0  0
    3.8110  -13.2621   15.0577 O   0  0  0  0  0  0  0  0  0  0  0  0
    3.4826  -10.8249   15.4502 C   0  0  2  0  0  0  0  0  0  0  0  0
    2.8962   -9.5599   14.8382 O   0  0  0  0  0  0  0  0  0  0  0  0
    4.9514  -10.5986   15.7178 C   0  0  0  0  0  0  0  0  0  0  0  0
    5.1860   -9.5697   16.6972 O   0  0  0  0  0  0  0  0  0  0  0  0
    4.8659   -8.4380   20.2929 O   0  0  0  0  0  0  0  0  0  0  0  0
    5.5665   -6.7838   22.5060 O   0  0  0  0  0  0  0  0  0  0  0  0
   -3.2741   -9.6588   16.9972 C   0  0  0  0  0  0  0  0  0  0  0  0
   -3.3715  -10.2387   18.1193 O   0  0  0  0  0  0  0  0  0  0  0  0
   -4.5207   -9.3185   16.1238 C   0  0  2  0  0  0  0  0  0  0  0  0
   -4.3621   -7.2717   18.4502 N   0  0  0  0  0  0  0  0  0  0  0  0
   -5.6986   -8.8042   17.0080 C   0  0  0  0  0  0  0  0  0  0  0  0
   -5.5008   -7.3624   17.5052 C   0  0  0  0  0  0  0  0  0  0  0  0
   -4.9785  -10.3325   15.5073 O   0  0  0  0  0  0  0  0  0  0  0  0
  1  2  1  1  0  0  0
  1  3  1  0  0  0  0
  1  8  1  0  0  0  0
  3  4  1  0  0  0  0
  3 32  1  1  0  0  0
  4  5  1  0  0  0  0
  4 33  1  1  0  0  0
  5  6  1  1  0  0  0
  5  7  1  0  0  0  0
  7  8  1  0  0  0  0
  7  9  1  6  0  0  0
  9 10  1  0  0  0  0
 11 12  1  6  0  0  0
 11 13  1  0  0  0  0
 11 19  1  0  0  0  0
 12 34  1  0  0  0  0
 13 14  1  0  0  0  0
 14 15  1  1  0  0  0
 14 16  1  0  0  0  0
 16  2  1  1  0  0  0
 16 17  1  0  0  0  0
 17 18  1  6  0  0  0
 17 19  1  0  0  0  0
 19 20  1  6  0  0  0
 21 20  1  1  0  0  0
 21 22  1  0  0  0  0
 21 29  1  0  0  0  0
 22 23  1  1  0  0  0
 22 24  1  0  0  0  0
 24 25  1  6  0  0  0
 24 26  1  0  0  0  0
 26 27  1  1  0  0  0
 26 28  1  0  0  0  0
 28 29  1  0  0  0  0
 28 30  1  6  0  0  0
 30 31  1  0  0  0  0
 34 35  2  0  0  0  0
 36 34  1  1  0  0  0
 36 38  1  0  0  0  0
 36 40  1  0  0  0  0
 37 39  1  0  0  0  0
 38 39  1  0  0  0  0
M  END
>  <CHROM.1>
-158.46289065,-167.75111219,-67.91934972,-57.95017843,155.59425375,-161.98287626
-173.63514617,-139.77858347,75.08361917,-66.48389490,1.19835193,-8.41180687
17.73882666,-0.95367209,0.06306725,-2.35129601

>  <Name>
ligand

>  <RI>
0

>  <Rbt.Current_Directory>
/home/itssahil/PROJECTS/Mol_Feturizer/New_Systems/rnas/4P20

>  <Rbt.Executable>
rbdock ($Id: //depot/dev/client3/rdock/2013.1/src/exe/rbdock.cxx#4 $)

>  <Rbt.Library>
libRbt.so (2013.1, Build901 2013/11/27)

>  <Rbt.Parameter_File>
/export/apps/rDock/src/rDock_2013.1_src/data/scripts/dock_solv.prm

>  <Rbt.Receptor>
prm/pocket_docking_4.prm

>  <SCORE>
-13.1547

>  <SCORE.INTER>
-7.28607

>  <SCORE.INTER.CONST>
1

>  <SCORE.INTER.POLAR>
0

>  <SCORE.INTER.ROT>
10

>  <SCORE.INTER.SOLV>
22.4516

>  <SCORE.INTER.VDW>
-22.6079

>  <SCORE.INTER.norm>
-0.182152

>  <SCORE.INTRA>
-5.86865

>  <SCORE.INTRA.DIHEDRAL>
-18.1122

>  <SCORE.INTRA.DIHEDRAL.0>
28.2802

>  <SCORE.INTRA.POLAR>
0

>  <SCORE.INTRA.POLAR.0>
0

>  <SCORE.INTRA.REPUL>
0

>  <SCORE.INTRA.REPUL.0>
0

>  <SCORE.INTRA.SOLV>
4.10883

>  <SCORE.INTRA.SOLV.lig_0>
-101.981

>  <SCORE.INTRA.VDW>
1.13306

>  <SCORE.INTRA.VDW.0>
-5.72964

>  <SCORE.INTRA.norm>
-0.146716

>  <SCORE.RESTR>
0

>  <SCORE.RESTR.CAVITY>
0

>  <SCORE.RESTR.norm>
0

>  <SCORE.SYSTEM>
0

>  <SCORE.SYSTEM.CONST>
0

>  <SCORE.SYSTEM.DIHEDRAL>
0

>  <SCORE.SYSTEM.SOLV>
0

>  <SCORE.SYSTEM.norm>
0

>  <SCORE.heavy>
40

>  <SCORE.norm>
-0.328868

>  <RMSD>
1.951

$$$$
ligand
 OpenBabel11021811513D
libRbt.so/2013.1/901 2013/11/27
 40 42  0  0  0  0  0  0  0  0999 V2000
    2.7420   -7.2590   19.5284 C   0  0  2  0  0  0  0  0  0  0  0  0
    1.8148   -8.3558   19.5388 O   0  0  0  0  0  0  0  0  0  0  0  0
    3.9711   -7.5818   18.5987 C   0  0  1  0  0  0  0  0  0  0  0  0
    4.8195   -8.7598   19.1604 C   0  0  2  0  0  0  0  0  0  0  0  0
    5.3305   -8.3441   20.5761 C   0  0  2  0  0  0  0  0  0  0  0  0
    6.1451   -9.4057   21.1185 O   0  0  0  0  0  0  0  0  0  0  0  0
    4.0696   -8.0677   21.5062 C   0  0  2  0  0  0  0  0  0  0  0  0
    3.2346   -6.9634   20.9117 O   0  0  0  0  0  0  0  0  0  0  0  0
    4.4648   -7.6337   22.9111 C   0  0  0  0  0  0  0  0  0  0  0  0
    5.1093   -6.2827   22.9080 N   0  0  0  0  0  0  0  0  0  0  0  0
   -1.7831   -9.7852   17.4550 C   0  0  2  0  0  0  0  0  0  0  0  0
   -2.8471   -9.8635   16.4812 N   0  0  0  0  0  0  0  0  0  0  0  0
   -1.8515   -8.3928   18.2029 C   0  0  0  0  0  0  0  0  0  0  0  0
   -0.6795   -8.2898   19.2783 C   0  0  2  0  0  0  0  0  0  0  0  0
   -0.7552   -6.9878   19.9915 N   0  0  0  0  0  0  0  0  0  0  0  0
    0.7279   -8.4632   18.5393 C   0  0  2  0  0  0  0  0  0  0  0  0
    0.7469   -9.8708   17.8043 C   0  0  2  0  0  0  0  0  0  0  0  0
    2.0034  -10.0370   17.1434 O   0  0  0  0  0  0  0  0  0  0  0  0
   -0.4216   -9.9603   16.7452 C   0  0  1  0  0  0  0  0  0  0  0  0
   -0.4034  -11.2574   16.0988 O   0  0  0  0  0  0  0  0  0  0  0  0
   -0.9351  -11.5379   14.8484 C   0  0  2  0  0  0  0  0  0  0  0  0
   -1.0666  -13.0981   14.7307 C   0  0  2  0  0  0  0  0  0  0  0  0
   -1.8643  -13.5810   15.7630 O   0  0  0  0  0  0  0  0  0  0  0  0
    0.3524  -13.8106   14.7206 C   0  0  1  0  0  0  0  0  0  0  0  0
    0.2043  -15.2935   14.5953 N   0  0  0  0  0  0  0  0  0  0  0  0
    1.2104  -13.2194   13.5183 C   0  0  2  0  0  0  0  0  0  0  0  0
    2.4997  -13.8421   13.4588 O   0  0  0  0  0  0  0  0  0  0  0  0
    1.3295  -11.6594   13.7211 C   0  0  2  0  0  0  0  0  0  0  0  0
   -0.0486  -11.0143   13.7776 O   0  0  0  0  0  0  0  0  0  0  0  0
    2.1178  -11.0225   12.6015 C   0  0  0  0  0  0  0  0  0  0  0  0
    2.3137   -9.6092   12.7936 O   0  0  0  0  0  0  0  0  0  0  0  0
    3.4678   -7.8974   17.2679 O   0  0  0  0  0  0  0  0  0  0  0  0
    5.8816   -8.9894   18.3197 O   0  0  0  0  0  0  0  0  0  0  0  0
   -3.9081  -10.8238   16.6784 C   0  0  0  0  0  0  0  0  0  0  0  0
   -3.7067  -11.8446   17.4012 O   0  0  0  0  0  0  0  0  0  0  0  0
   -5.2744  -10.5569   15.9753 C   0  0  2  0  0  0  0  0  0  0  0  0
   -7.9840  -11.4941   14.6562 N   0  0  0  0  0  0  0  0  0  0  0  0
   -6.3982  -11.4545   16.5794 C   0  0  0  0  0  0  0  0  0  0  0  0
   -7.8040  -11.0921   16.0719 C   0  0  0  0  0  0  0  0  0  0  0  0
   -5.2496  -10.8356   14.7344 O   0  0  0  0  0  0  0  0  0  0  0  0
  1  2  1  1  0  0  0
  1  3  1  0  0  0  0
  1  8  1  0  0  0  0
  3  4  1  0  0  0  0
  3 32  1  6  0  0  0
  4  5  1  0  0  0  0
  4 33  1  6  0  0  0
  5  6  1  1  0  0  0
  5  7  1  0  0  0  0
  7  8  1  0  0  0  0
  7  9  1  1  0  0  0
  9 10  1  0  0  0  0
 11 12  1  6  0  0  0
 11 13  1  0  0  0  0
 11 19  1  0  0  0  0
 12 34  1  0  0  0  0
 13 14  1  0  0  0  0
 14 15  1  6  0  0  0
 14 16  1  0  0  0  0
 16  2  1  1  0  0  0
 16 17  1  0  0  0  0
 17 18  1  6  0  0  0
 17 19  1  0  0  0  0
 19 20  1  1  0  0  0
 21 20  1  1  0  0  0
 21 22  1  0  0  0  0
 21 29  1  0  0  0  0
 22 23  1  1  0  0  0
 22 24  1  0  0  0  0
 24 25  1  6  0  0  0
 24 26  1  0  0  0  0
 26 27  1  1  0  0  0
 26 28  1  0  0  0  0
 28 29  1  0  0  0  0
 28 30  1  6  0  0  0
 30 31  1  0  0  0  0
 34 35  2  0  0  0  0
 36 34  1  1  0  0  0
 36 38  1  0  0  0  0
 36 40  1  0  0  0  0
 37 39  1  0  0  0  0
 38 39  1  0  0  0  0
M  END
>  <CHROM.1>
-88.21232026,-113.24359875,67.67516200,-113.34340424,83.75082423,-163.94471672
-176.60601592,-164.96982883,171.55712944,71.65839498,0.32869159,-10.11378562
17.14898459,0.67445799,0.00625767,0.93783789

>  <Name>
ligand

>  <RI>
0

>  <Rbt.Current_Directory>
/home/itssahil/PROJECTS/Mol_Feturizer/New_Systems/rnas/4P20

>  <Rbt.Executable>
rbdock ($Id: //depot/dev/client3/rdock/2013.1/src/exe/rbdock.cxx#4 $)

>  <Rbt.Library>
libRbt.so (2013.1, Build901 2013/11/27)

>  <Rbt.Parameter_File>
/export/apps/rDock/src/rDock_2013.1_src/data/scripts/dock_solv.prm

>  <Rbt.Receptor>
prm/pocket_docking_2.prm

>  <SCORE>
-7.71723

>  <SCORE.INTER>
-4.43746

>  <SCORE.INTER.CONST>
1

>  <SCORE.INTER.POLAR>
0

>  <SCORE.INTER.ROT>
10

>  <SCORE.INTER.SOLV>
25.836

>  <SCORE.INTER.VDW>
-21.837

>  <SCORE.INTER.norm>
-0.110936

>  <SCORE.INTRA>
-3.67812

>  <SCORE.INTRA.DIHEDRAL>
-11.1663

>  <SCORE.INTRA.DIHEDRAL.0>
28.2802

>  <SCORE.INTRA.POLAR>
0

>  <SCORE.INTRA.POLAR.0>
0

>  <SCORE.INTRA.REPUL>
0

>  <SCORE.INTRA.REPUL.0>
0

>  <SCORE.INTRA.SOLV>
2.25596

>  <SCORE.INTRA.SOLV.lig_0>
-101.981

>  <SCORE.INTRA.VDW>
0.777029

>  <SCORE.INTRA.VDW.0>
-5.72964

>  <SCORE.INTRA.norm>
-0.091953

>  <SCORE.RESTR>
0.39835

>  <SCORE.RESTR.CAVITY>
0.39835

>  <SCORE.RESTR.norm>
0.00995876

>  <SCORE.SYSTEM>
0

>  <SCORE.SYSTEM.CONST>
0

>  <SCORE.SYSTEM.DIHEDRAL>
0

>  <SCORE.SYSTEM.SOLV>
0

>  <SCORE.SYSTEM.norm>
0

>  <SCORE.heavy>
40

>  <SCORE.norm>
-0.192931

>  <RMSD>
1.972

$$$$
ligand
 OpenBabel11021811513D
libRbt.so/2013.1/901 2013/11/27
 40 42  0  0  0  0  0  0  0  0999 V2000
    2.4738   -7.0297   19.4703 C   0  0  2  0  0  0  0  0  0  0  0  0
    1.5441   -8.1194   19.5763 O   0  0  0  0  0  0  0  0  0  0  0  0
    3.4074   -7.2184   18.2165 C   0  0  1  0  0  0  0  0  0  0  0  0
    4.3317   -8.4610   18.3733 C   0  0  2  0  0  0  0  0  0  0  0  0
    5.2069   -8.2438   19.6481 C   0  0  2  0  0  0  0  0  0  0  0  0
    6.0976   -9.3685   19.8109 O   0  0  0  0  0  0  0  0  0  0  0  0
    4.2410   -8.1013   20.9044 C   0  0  2  0  0  0  0  0  0  0  0  0
    3.3186   -6.9272   20.7029 O   0  0  0  0  0  0  0  0  0  0  0  0
    5.0022   -7.8647   22.2017 C   0  0  0  0  0  0  0  0  0  0  0  0
    4.0733   -7.5754   23.3391 N   0  0  0  0  0  0  0  0  0  0  0  0
   -1.8799   -9.8963   17.4670 C   0  0  2  0  0  0  0  0  0  0  0  0
   -2.9270  -10.0762   16.4885 N   0  0  0  0  0  0  0  0  0  0  0  0
   -2.0945   -8.5248   18.2258 C   0  0  0  0  0  0  0  0  0  0  0  0
   -0.9428   -8.3100   19.3066 C   0  0  2  0  0  0  0  0  0  0  0  0
   -1.1552   -7.0289   20.0299 N   0  0  0  0  0  0  0  0  0  0  0  0
    0.4773   -8.3304   18.5718 C   0  0  2  0  0  0  0  0  0  0  0  0
    0.6443   -9.7222   17.8256 C   0  0  2  0  0  0  0  0  0  0  0  0
    1.9132   -9.7518   17.1683 O   0  0  0  0  0  0  0  0  0  0  0  0
   -0.5054   -9.9235   16.7612 C   0  0  1  0  0  0  0  0  0  0  0  0
   -0.3508  -11.2062   16.1044 O   0  0  0  0  0  0  0  0  0  0  0  0
   -0.8761  -11.5410   14.8647 C   0  0  2  0  0  0  0  0  0  0  0  0
   -0.9557  -13.1074   14.7932 C   0  0  2  0  0  0  0  0  0  0  0  0
   -1.7341  -13.5861   15.8421 O   0  0  0  0  0  0  0  0  0  0  0  0
    0.4864  -13.7722   14.7991 C   0  0  1  0  0  0  0  0  0  0  0  0
    0.3876  -15.2623   14.7178 N   0  0  0  0  0  0  0  0  0  0  0  0
    1.3210  -13.1884   13.5768 C   0  0  2  0  0  0  0  0  0  0  0  0
    2.6302  -13.7692   13.5311 O   0  0  0  0  0  0  0  0  0  0  0  0
    1.3884  -11.6200   13.7334 C   0  0  2  0  0  0  0  0  0  0  0  0
   -0.0103  -11.0198   13.7759 O   0  0  0  0  0  0  0  0  0  0  0  0
    2.1521  -10.9903   12.5929 C   0  0  0  0  0  0  0  0  0  0  0  0
    2.3712   -9.5800   12.7821 O   0  0  0  0  0  0  0  0  0  0  0  0
    2.5651   -7.3482   17.0342 O   0  0  0  0  0  0  0  0  0  0  0  0
    5.1304   -8.5699   17.2607 O   0  0  0  0  0  0  0  0  0  0  0  0
   -4.0215  -10.9696   16.7897 C   0  0  0  0  0  0  0  0  0  0  0  0
   -3.8664  -11.8874   17.6491 O   0  0  0  0  0  0  0  0  0  0  0  0
   -5.3650  -10.7620   16.0253 C   0  0  2  0  0  0  0  0  0  0  0  0
   -8.5677  -12.9663   15.7992 N   0  0  0  0  0  0  0  0  0  0  0  0
   -6.3418  -11.9514   16.2793 C   0  0  0  0  0  0  0  0  0  0  0  0
   -7.6731  -11.8172   15.5211 C   0  0  0  0  0  0  0  0  0  0  0  0
   -5.2089  -10.7163   14.7637 O   0  0  0  0  0  0  0  0  0  0  0  0
  1  2  1  1  0  0  0
  1  3  1  0  0  0  0
  1  8  1  0  0  0  0
  3  4  1  0  0  0  0
  3 32  1  6  0  0  0
  4  5  1  0  0  0  0
  4 33  1  6  0  0  0
  5  6  1  1  0  0  0
  5  7  1  0  0  0  0
  7  8  1  0  0  0  0
  7  9  1  1  0  0  0
  9 10  1  0  0  0  0
 11 12  1  6  0  0  0
 11 13  1  0  0  0  0
 11 19  1  0  0  0  0
 12 34  1  0  0  0  0
 13 14  1  0  0  0  0
 14 15  1  6  0  0  0
 14 16  1  0  0  0  0
 16  2  1  1  0  0  0
 16 17  1  0  0  0  0
 17 18  1  6  0  0  0
 17 19  1  0  0  0  0
 19 20  1  1  0  0  0
 21 20  1  1  0  0  0
 21 22  1  0  0  0  0
 21 29  1  0  0  0  0
 22 23  1  1  0  0  0
 22 24  1  0  0  0  0
 24 25  1  6  0  0  0
 24 26  1  0  0  0  0
 26 27  1  1  0  0  0
 26 28  1  0  0  0  0
 28 29  1  0  0  0  0
 28 30  1  6  0  0  0
 30 31  1  0  0  0  0
 34 35  2  0  0  0  0
 36 34  1  1  0  0  0
 36 38  1  0  0  0  0
 36 40  1  0  0  0  0
 37 39  1  0  0  0  0
 38 39  1  0  0  0  0
M  END
>  <CHROM.1>
-66.75305106,-122.11821135,173.36086042,-101.98238247,81.99331430,-158.57075778
-173.09010568,169.91557061,-178.58482900,-179.74723763,0.20567365,-10.15487550
17.03640710,0.63341965,0.08631729,0.93831427

>  <Name>
ligand

>  <RI>
0

>  <Rbt.Current_Directory>
/home/itssahil/PROJECTS/Mol_Feturizer/New_Systems/rnas/4P20

>  <Rbt.Executable>
rbdock ($Id: //depot/dev/client3/rdock/2013.1/src/exe/rbdock.cxx#4 $)

>  <Rbt.Library>
libRbt.so (2013.1, Build901 2013/11/27)

>  <Rbt.Parameter_File>
/export/apps/rDock/src/rDock_2013.1_src/data/scripts/dock_solv.prm

>  <Rbt.Receptor>
prm/pocket_docking_2.prm

>  <SCORE>
-6.15935

>  <SCORE.INTER>
-2.04473

>  <SCORE.INTER.CONST>
1

>  <SCORE.INTER.POLAR>
0

>  <SCORE.INTER.ROT>
10

>  <SCORE.INTER.SOLV>
27.4016

>  <SCORE.INTER.VDW>
-20.7637

>  <SCORE.INTER.norm>
-0.0511184

>  <SCORE.INTRA>
-5.42427

>  <SCORE.INTRA.DIHEDRAL>
-14.4886

>  <SCORE.INTRA.DIHEDRAL.0>
28.2802

>  <SCORE.INTRA.POLAR>
0

>  <SCORE.INTRA.POLAR.0>
0

>  <SCORE.INTRA.REPUL>
0

>  <SCORE.INTRA.REPUL.0>
0

>  <SCORE.INTRA.SOLV>
-0.465961

>  <SCORE.INTRA.SOLV.lig_0>
-101.981

>  <SCORE.INTRA.VDW>
2.053

>  <SCORE.INTRA.VDW.0>
-5.72964

>  <SCORE.INTRA.norm>
-0.135607

>  <SCORE.RESTR>
1.30965

>  <SCORE.RESTR.CAVITY>
1.30965

>  <SCORE.RESTR.norm>
0.0327413

>  <SCORE.SYSTEM>
0

>  <SCORE.SYSTEM.CONST>
0

>  <SCORE.SYSTEM.DIHEDRAL>
0

>  <SCORE.SYSTEM.SOLV>
0

>  <SCORE.SYSTEM.norm>
0

>  <SCORE.heavy>
40

>  <SCORE.norm>
-0.153984

>  <RMSD>
2.215

$$$$
ligand
 OpenBabel11021811513D
libRbt.so/2013.1/901 2013/11/27
 40 42  0  0  0  0  0  0  0  0999 V2000
    2.0150   -7.1144   19.5904 C   0  0  2  0  0  0  0  0  0  0  0  0
    1.1961   -8.2943   19.5763 O   0  0  0  0  0  0  0  0  0  0  0  0
    3.1709   -7.2300   18.5274 C   0  0  1  0  0  0  0  0  0  0  0  0
    4.1732   -8.3634   18.8931 C   0  0  2  0  0  0  0  0  0  0  0  0
    4.7813   -8.0266   20.2913 C   0  0  2  0  0  0  0  0  0  0  0  0
    5.7377   -9.0462   20.6523 O   0  0  0  0  0  0  0  0  0  0  0  0
    3.5980   -7.9602   21.3530 C   0  0  2  0  0  0  0  0  0  0  0  0
    2.6124   -6.8957   20.9464 O   0  0  0  0  0  0  0  0  0  0  0  0
    4.0886   -7.6157   22.7526 C   0  0  0  0  0  0  0  0  0  0  0  0
    4.7043   -6.2522   22.7991 N   0  0  0  0  0  0  0  0  0  0  0  0
   -2.1429  -10.0969   17.3554 C   0  0  2  0  0  0  0  0  0  0  0  0
   -3.1715  -10.2724   16.3567 N   0  0  0  0  0  0  0  0  0  0  0  0
   -2.4107   -8.7627   18.1623 C   0  0  0  0  0  0  0  0  0  0  0  0
   -1.2799   -8.5529   19.2659 C   0  0  2  0  0  0  0  0  0  0  0  0
   -1.5422   -7.3076   20.0340 N   0  0  0  0  0  0  0  0  0  0  0  0
    0.1491   -8.5005   18.5501 C   0  0  2  0  0  0  0  0  0  0  0  0
    0.3698   -9.8570   17.7544 C   0  0  2  0  0  0  0  0  0  0  0  0
    1.6470   -9.8215   17.1137 O   0  0  0  0  0  0  0  0  0  0  0  0
   -0.7596  -10.0538   16.6677 C   0  0  1  0  0  0  0  0  0  0  0  0
   -0.5559  -11.3051   15.9653 O   0  0  0  0  0  0  0  0  0  0  0  0
   -0.6988  -11.4896   14.5977 C   0  0  2  0  0  0  0  0  0  0  0  0
   -0.5164  -13.0216   14.3066 C   0  0  2  0  0  0  0  0  0  0  0  0
   -1.4479  -13.7523   15.0371 O   0  0  0  0  0  0  0  0  0  0  0  0
    0.9634  -13.5084   14.6140 C   0  0  1  0  0  0  0  0  0  0  0  0
    1.1182  -14.9663   14.3182 N   0  0  0  0  0  0  0  0  0  0  0  0
    1.9756  -12.6398   13.7466 C   0  0  2  0  0  0  0  0  0  0  0  0
    3.3283  -13.0511   13.9798 O   0  0  0  0  0  0  0  0  0  0  0  0
    1.7601  -11.1212   14.1159 C   0  0  2  0  0  0  0  0  0  0  0  0
    0.3195  -10.7008   13.8579 O   0  0  0  0  0  0  0  0  0  0  0  0
    2.6770  -10.2293   13.3133 C   0  0  0  0  0  0  0  0  0  0  0  0
    2.5199  -10.4046   11.8930 O   0  0  0  0  0  0  0  0  0  0  0  0
    2.5697   -7.4744   17.2225 O   0  0  0  0  0  0  0  0  0  0  0  0
    5.1639   -8.4109   17.9424 O   0  0  0  0  0  0  0  0  0  0  0  0
   -3.9820  -11.4678   16.3882 C   0  0  0  0  0  0  0  0  0  0  0  0
   -3.5440  -12.5102   16.9595 O   0  0  0  0  0  0  0  0  0  0  0  0
   -5.3810  -11.4197   15.7005 C   0  0  2  0  0  0  0  0  0  0  0  0
   -5.1858   -8.6935   17.3734 N   0  0  0  0  0  0  0  0  0  0  0  0
   -5.7583   -9.9591   15.3033 C   0  0  0  0  0  0  0  0  0  0  0  0
   -6.2888   -9.1264   16.4823 C   0  0  0  0  0  0  0  0  0  0  0  0
   -6.3171  -11.8143   16.4660 O   0  0  0  0  0  0  0  0  0  0  0  0
  1  2  1  1  0  0  0
  1  3  1  0  0  0  0
  1  8  1  0  0  0  0
  3  4  1  0  0  0  0
  3 32  1  6  0  0  0
  4  5  1  0  0  0  0
  4 33  1  6  0  0  0
  5  6  1  1  0  0  0
  5  7  1  0  0  0  0
  7  8  1  0  0  0  0
  7  9  1  1  0  0  0
  9 10  1  0  0  0  0
 11 12  1  6  0  0  0
 11 13  1  0  0  0  0
 11 19  1  0  0  0  0
 12 34  1  0  0  0  0
 13 14  1  0  0  0  0
 14 15  1  6  0  0  0
 14 16  1  0  0  0  0
 16  2  1  1  0  0  0
 16 17  1  0  0  0  0
 17 18  1  6  0  0  0
 17 19  1  0  0  0  0
 19 20  1  1  0  0  0
 21 20  1  1  0  0  0
 21 22  1  0  0  0  0
 21 29  1  0  0  0  0
 22 23  1  1  0  0  0
 22 24  1  0  0  0  0
 24 25  1  6  0  0  0
 24 26  1  0  0  0  0
 26 27  1  1  0  0  0
 26 28  1  0  0  0  0
 28 29  1  0  0  0  0
 28 30  1  6  0  0  0
 30 31  1  0  0  0  0
 34 35  2  0  0  0  0
 36 34  1  1  0  0  0
 36 38  1  0  0  0  0
 36 40  1  0  0  0  0
 37 39  1  0  0  0  0
 38 39  1  0  0  0  0
M  END
>  <CHROM.1>
-79.63587762,-116.64094873,63.15983153,-121.40713569,101.88099333,-174.64970557
56.66330793,-10.09495062,-79.69851450,76.30578088,0.27684232,-9.93702531
17.13790946,0.72766863,0.02270475,0.93286061

>  <Name>
ligand

>  <RI>
0

>  <Rbt.Current_Directory>
/home/itssahil/PROJECTS/Mol_Feturizer/New_Systems/rnas/4P20

>  <Rbt.Executable>
rbdock ($Id: //depot/dev/client3/rdock/2013.1/src/exe/rbdock.cxx#4 $)

>  <Rbt.Library>
libRbt.so (2013.1, Build901 2013/11/27)

>  <Rbt.Parameter_File>
/export/apps/rDock/src/rDock_2013.1_src/data/scripts/dock_solv.prm

>  <Rbt.Receptor>
prm/pocket_docking_2.prm

>  <SCORE>
-1.73925

>  <SCORE.INTER>
-3.28033

>  <SCORE.INTER.CONST>
1

>  <SCORE.INTER.POLAR>
0

>  <SCORE.INTER.ROT>
10

>  <SCORE.INTER.SOLV>
21.3383

>  <SCORE.INTER.VDW>
-19.5663

>  <SCORE.INTER.norm>
-0.0820083

>  <SCORE.INTRA>
0.960776

>  <SCORE.INTRA.DIHEDRAL>
-7.72533

>  <SCORE.INTRA.DIHEDRAL.0>
28.2802

>  <SCORE.INTRA.POLAR>
0

>  <SCORE.INTRA.POLAR.0>
0

>  <SCORE.INTRA.REPUL>
0

>  <SCORE.INTRA.REPUL.0>
0

>  <SCORE.INTRA.SOLV>
6.88553

>  <SCORE.INTRA.SOLV.lig_0>
-101.981

>  <SCORE.INTRA.VDW>
1.38068

>  <SCORE.INTRA.VDW.0>
-5.72964

>  <SCORE.INTRA.norm>
0.0240194

>  <SCORE.RESTR>
0.580311

>  <SCORE.RESTR.CAVITY>
0.580311

>  <SCORE.RESTR.norm>
0.0145078

>  <SCORE.SYSTEM>
0

>  <SCORE.SYSTEM.CONST>
0

>  <SCORE.SYSTEM.DIHEDRAL>
0

>  <SCORE.SYSTEM.SOLV>
0

>  <SCORE.SYSTEM.norm>
0

>  <SCORE.heavy>
40

>  <SCORE.norm>
-0.0434811

>  <RMSD>
2.271

$$$$
ligand
 OpenBabel11021811513D
libRbt.so/2013.1/901 2013/11/27
 40 42  0  0  0  0  0  0  0  0999 V2000
    2.5934   -7.0878   19.7816 C   0  0  2  0  0  0  0  0  0  0  0  0
    1.7455   -8.2270   19.5666 O   0  0  0  0  0  0  0  0  0  0  0  0
    3.7627   -7.0610   18.7275 C   0  0  1  0  0  0  0  0  0  0  0  0
    4.7304   -8.2656   18.9158 C   0  0  2  0  0  0  0  0  0  0  0  0
    5.3245   -8.1765   20.3571 C   0  0  2  0  0  0  0  0  0  0  0  0
    6.2493   -9.2668   20.5586 O   0  0  0  0  0  0  0  0  0  0  0  0
    4.1267   -8.2509   21.4016 C   0  0  2  0  0  0  0  0  0  0  0  0
    3.1745   -7.1080   21.1620 O   0  0  0  0  0  0  0  0  0  0  0  0
    4.6035   -8.1512   22.8442 C   0  0  0  0  0  0  0  0  0  0  0  0
    5.1825   -6.8029   23.1398 N   0  0  0  0  0  0  0  0  0  0  0  0
   -1.8301   -9.3858   17.2859 C   0  0  2  0  0  0  0  0  0  0  0  0
   -2.8762   -9.3499   16.2904 N   0  0  0  0  0  0  0  0  0  0  0  0
   -1.8947   -8.0748   18.1689 C   0  0  0  0  0  0  0  0  0  0  0  0
   -0.7422   -8.0979   19.2699 C   0  0  2  0  0  0  0  0  0  0  0  0
   -0.8145   -6.8732   20.1091 N   0  0  0  0  0  0  0  0  0  0  0  0
    0.6767   -8.2172   18.5423 C   0  0  2  0  0  0  0  0  0  0  0  0
    0.6913   -9.5439   17.6697 C   0  0  2  0  0  0  0  0  0  0  0  0
    1.9579   -9.6616   17.0178 O   0  0  0  0  0  0  0  0  0  0  0  0
   -0.4577   -9.5091   16.5863 C   0  0  1  0  0  0  0  0  0  0  0  0
   -0.4441  -10.7348   15.8130 O   0  0  0  0  0  0  0  0  0  0  0  0
   -0.7712  -10.8386   14.4687 C   0  0  2  0  0  0  0  0  0  0  0  0
   -0.7580  -12.3638   14.0962 C   0  0  2  0  0  0  0  0  0  0  0  0
   -1.6503  -13.0535   14.9106 O   0  0  0  0  0  0  0  0  0  0  0  0
    0.7016  -12.9818   14.1919 C   0  0  1  0  0  0  0  0  0  0  0  0
    0.6932  -14.4307   13.8213 N   0  0  0  0  0  0  0  0  0  0  0  0
    1.6684  -12.1543   13.2370 C   0  0  2  0  0  0  0  0  0  0  0  0
    2.9995  -12.6833   13.2786 O   0  0  0  0  0  0  0  0  0  0  0  0
    1.6310  -10.6438   13.6908 C   0  0  2  0  0  0  0  0  0  0  0  0
    0.2108  -10.0974   13.6363 O   0  0  0  0  0  0  0  0  0  0  0  0
    2.5138   -9.7887   12.8132 C   0  0  0  0  0  0  0  0  0  0  0  0
    3.9124  -10.0946   12.9654 O   0  0  0  0  0  0  0  0  0  0  0  0
    3.1763   -7.0743   17.3933 O   0  0  0  0  0  0  0  0  0  0  0  0
    5.7345   -8.1854   17.9815 O   0  0  0  0  0  0  0  0  0  0  0  0
   -4.2439   -9.5637   16.7033 C   0  0  0  0  0  0  0  0  0  0  0  0
   -4.4865  -10.1898   17.7776 O   0  0  0  0  0  0  0  0  0  0  0  0
   -5.3781   -9.0085   15.7880 C   0  0  2  0  0  0  0  0  0  0  0  0
   -8.1055   -7.5814   15.2356 N   0  0  0  0  0  0  0  0  0  0  0  0
   -5.8317   -7.5918   16.2576 C   0  0  0  0  0  0  0  0  0  0  0  0
   -6.7884   -6.9017   15.2709 C   0  0  0  0  0  0  0  0  0  0  0  0
   -6.4276   -9.7266   15.8180 O   0  0  0  0  0  0  0  0  0  0  0  0
  1  2  1  6  0  0  0
  1  3  1  0  0  0  0
  1  8  1  0  0  0  0
  3  4  1  0  0  0  0
  3 32  1  6  0  0  0
  4  5  1  0  0  0  0
  4 33  1  6  0  0  0
  5  6  1  1  0  0  0
  5  7  1  0  0  0  0
  7  8  1  0  0  0  0
  7  9  1  1  0  0  0
  9 10  1  0  0  0  0
 11 12  1  6  0  0  0
 11 13  1  0  0  0  0
 11 19  1  0  0  0  0
 12 34  1  0  0  0  0
 13 14  1  0  0  0  0
 14 15  1  6  0  0  0
 14 16  1  0  0  0  0
 16  2  1  1  0  0  0
 16 17  1  0  0  0  0
 17 18  1  6  0  0  0
 17 19  1  0  0  0  0
 19 20  1  1  0  0  0
 21 20  1  1  0  0  0
 21 22  1  0  0  0  0
 21 29  1  0  0  0  0
 22 23  1  1  0  0  0
 22 24  1  0  0  0  0
 24 25  1  6  0  0  0
 24 26  1  0  0  0  0
 26 27  1  1  0  0  0
 26 28  1  0  0  0  0
 28 29  1  0  0  0  0
 28 30  1  6  0  0  0
 30 31  1  0  0  0  0
 34 35  2  0  0  0  0
 36 34  1  1  0  0  0
 36 38  1  0  0  0  0
 36 40  1  0  0  0  0
 37 39  1  0  0  0  0
 38 39  1  0  0  0  0
M  END
>  <CHROM.1>
-81.94730091,-106.26259120,66.37182728,-73.23445201,93.83071241,-174.31767716
-67.04634858,-94.11998526,171.01538263,68.89239194,0.40225015,-9.33196682
17.04930025,0.51219506,-0.14644042,0.97782141

>  <Name>
ligand

>  <RI>
0

>  <Rbt.Current_Directory>
/home/itssahil/PROJECTS/Mol_Feturizer/New_Systems/rnas/4P20

>  <Rbt.Executable>
rbdock ($Id: //depot/dev/client3/rdock/2013.1/src/exe/rbdock.cxx#4 $)

>  <Rbt.Library>
libRbt.so (2013.1, Build901 2013/11/27)

>  <Rbt.Parameter_File>
/export/apps/rDock/src/rDock_2013.1_src/data/scripts/dock_solv.prm

>  <Rbt.Receptor>
prm/pocket_docking_4.prm

>  <SCORE>
-13.4801

>  <SCORE.INTER>
-8.92664

>  <SCORE.INTER.CONST>
1

>  <SCORE.INTER.POLAR>
0

>  <SCORE.INTER.ROT>
10

>  <SCORE.INTER.SOLV>
26.4239

>  <SCORE.INTER.VDW>
-25.0257

>  <SCORE.INTER.norm>
-0.223166

>  <SCORE.INTRA>
-4.55345

>  <SCORE.INTRA.DIHEDRAL>
-12.5209

>  <SCORE.INTRA.DIHEDRAL.0>
28.2802

>  <SCORE.INTRA.POLAR>
0

>  <SCORE.INTRA.POLAR.0>
0

>  <SCORE.INTRA.REPUL>
0

>  <SCORE.INTRA.REPUL.0>
0

>  <SCORE.INTRA.SOLV>
1.78694

>  <SCORE.INTRA.SOLV.lig_0>
-101.981

>  <SCORE.INTRA.VDW>
0.813523

>  <SCORE.INTRA.VDW.0>
-5.72964

>  <SCORE.INTRA.norm>
-0.113836

>  <SCORE.RESTR>
0

>  <SCORE.RESTR.CAVITY>
0

>  <SCORE.RESTR.norm>
0

>  <SCORE.SYSTEM>
0

>  <SCORE.SYSTEM.CONST>
0

>  <SCORE.SYSTEM.DIHEDRAL>
0

>  <SCORE.SYSTEM.SOLV>
0

>  <SCORE.SYSTEM.norm>
0

>  <SCORE.heavy>
40

>  <SCORE.norm>
-0.337002

>  <RMSD>
2.315

$$$$
ligand
 OpenBabel11021811513D
libRbt.so/2013.1/901 2013/11/27
 40 42  0  0  0  0  0  0  0  0999 V2000
    3.1347   -6.2054   19.3758 C   0  0  2  0  0  0  0  0  0  0  0  0
    1.9604   -6.9264   19.7809 O   0  0  0  0  0  0  0  0  0  0  0  0
    4.4351   -6.9399   19.8748 C   0  0  1  0  0  0  0  0  0  0  0  0
    4.5335   -6.9365   21.4282 C   0  0  2  0  0  0  0  0  0  0  0  0
    4.5613   -5.4480   21.8990 C   0  0  2  0  0  0  0  0  0  0  0  0
    4.6787   -5.4061   23.3374 O   0  0  0  0  0  0  0  0  0  0  0  0
    3.2176   -4.7428   21.4208 C   0  0  2  0  0  0  0  0  0  0  0  0
    3.1178   -4.8096   19.9189 O   0  0  0  0  0  0  0  0  0  0  0  0
    3.1570   -3.2737   21.8161 C   0  0  0  0  0  0  0  0  0  0  0  0
    1.8832   -2.6338   21.3597 N   0  0  0  0  0  0  0  0  0  0  0  0
   -0.7015   -9.4375   17.3439 C   0  0  2  0  0  0  0  0  0  0  0  0
   -1.7334   -9.8082   16.4037 N   0  0  0  0  0  0  0  0  0  0  0  0
   -1.3362   -8.5906   18.5198 C   0  0  0  0  0  0  0  0  0  0  0  0
   -0.2076   -8.1698   19.5638 C   0  0  2  0  0  0  0  0  0  0  0  0
   -0.8083   -7.3883   20.6763 N   0  0  0  0  0  0  0  0  0  0  0  0
    0.9195   -7.3253   18.8067 C   0  0  2  0  0  0  0  0  0  0  0  0
    1.5232   -8.2150   17.6379 C   0  0  2  0  0  0  0  0  0  0  0  0
    2.5351   -7.4696   16.9570 O   0  0  0  0  0  0  0  0  0  0  0  0
    0.3936   -8.6278   16.6138 C   0  0  1  0  0  0  0  0  0  0  0  0
    0.9564   -9.4559   15.5658 O   0  0  0  0  0  0  0  0  0  0  0  0
    1.8375  -10.5094   15.7623 C   0  0  2  0  0  0  0  0  0  0  0  0
    2.9408  -10.4158   14.6492 C   0  0  2  0  0  0  0  0  0  0  0  0
    3.5740   -9.1791   14.7190 O   0  0  0  0  0  0  0  0  0  0  0  0
    2.3413  -10.6726   13.2014 C   0  0  1  0  0  0  0  0  0  0  0  0
    3.4105  -10.5913   12.1588 N   0  0  0  0  0  0  0  0  0  0  0  0
    1.6384  -12.0998   13.1873 C   0  0  2  0  0  0  0  0  0  0  0  0
    1.0909  -12.3847   11.8940 O   0  0  0  0  0  0  0  0  0  0  0  0
    0.5230  -12.1083   14.3031 C   0  0  2  0  0  0  0  0  0  0  0  0
    1.1228  -11.8084   15.6701 O   0  0  0  0  0  0  0  0  0  0  0  0
   -0.1779  -13.4446   14.3634 C   0  0  0  0  0  0  0  0  0  0  0  0
    0.7003  -14.5158   14.7558 O   0  0  0  0  0  0  0  0  0  0  0  0
    4.4153   -8.3040   19.3622 O   0  0  0  0  0  0  0  0  0  0  0  0
    5.6888   -7.5768   21.8064 O   0  0  0  0  0  0  0  0  0  0  0  0
   -2.6831  -10.8321   16.7733 C   0  0  0  0  0  0  0  0  0  0  0  0
   -2.3806  -11.6782   17.6663 O   0  0  0  0  0  0  0  0  0  0  0  0
   -4.0587  -10.8514   16.0387 C   0  0  2  0  0  0  0  0  0  0  0  0
   -6.3872  -10.3615   14.4940 N   0  0  0  0  0  0  0  0  0  0  0  0
   -4.8034   -9.4915   16.2114 C   0  0  0  0  0  0  0  0  0  0  0  0
   -6.2577   -9.5274   15.7128 C   0  0  0  0  0  0  0  0  0  0  0  0
   -4.8503  -11.7317   16.5040 O   0  0  0  0  0  0  0  0  0  0  0  0
  1  2  1  1  0  0  0
  1  3  1  0  0  0  0
  1  8  1  0  0  0  0
  3  4  1  0  0  0  0
  3 32  1  1  0  0  0
  4  5  1  0  0  0  0
  4 33  1  6  0  0  0
  5  6  1  1  0  0  0
  5  7  1  0  0  0  0
  7  8  1  0  0  0  0
  7  9  1  6  0  0  0
  9 10  1  0  0  0  0
 11 12  1  6  0  0  0
 11 13  1  0  0  0  0
 11 19  1  0  0  0  0
 12 34  1  0  0  0  0
 13 14  1  0  0  0  0
 14 15  1  1  0  0  0
 14 16  1  0  0  0  0
 16  2  1  1  0  0  0
 16 17  1  0  0  0  0
 17 18  1  6  0  0  0
 17 19  1  0  0  0  0
 19 20  1  6  0  0  0
 21 20  1  6  0  0  0
 21 22  1  0  0  0  0
 21 29  1  0  0  0  0
 22 23  1  6  0  0  0
 22 24  1  0  0  0  0
 24 25  1  6  0  0  0
 24 26  1  0  0  0  0
 26 27  1  6  0  0  0
 26 28  1  0  0  0  0
 28 29  1  0  0  0  0
 28 30  1  1  0  0  0
 30 31  1  0  0  0  0
 34 35  2  0  0  0  0
 36 34  1  1  0  0  0
 36 38  1  0  0  0  0
 36 40  1  0  0  0  0
 37 39  1  0  0  0  0
 38 39  1  0  0  0  0
M  END
>  <CHROM.1>
-126.94632495,177.17401669,-179.81645222,-73.30723888,-75.15495447,-137.91834187
64.23231144,-57.49533985,-170.38191460,-37.09545935,0.87676707,-8.91647557
17.44136713,-1.02460808,-0.07139949,-2.27624781

>  <Name>
ligand

>  <RI>
0

>  <Rbt.Current_Directory>
/home/itssahil/PROJECTS/Mol_Feturizer/New_Systems/rnas/4P20

>  <Rbt.Executable>
rbdock ($Id: //depot/dev/client3/rdock/2013.1/src/exe/rbdock.cxx#4 $)

>  <Rbt.Library>
libRbt.so (2013.1, Build901 2013/11/27)

>  <Rbt.Parameter_File>
/export/apps/rDock/src/rDock_2013.1_src/data/scripts/dock_solv.prm

>  <Rbt.Receptor>
prm/pocket_docking_2.prm

>  <SCORE>
-8.56539

>  <SCORE.INTER>
-6.291

>  <SCORE.INTER.CONST>
1

>  <SCORE.INTER.POLAR>
0

>  <SCORE.INTER.ROT>
10

>  <SCORE.INTER.SOLV>
24.2509

>  <SCORE.INTER.VDW>
-22.5443

>  <SCORE.INTER.norm>
-0.157275

>  <SCORE.INTRA>
-3.07118

>  <SCORE.INTRA.DIHEDRAL>
-11.3784

>  <SCORE.INTRA.DIHEDRAL.0>
28.2802

>  <SCORE.INTRA.POLAR>
0

>  <SCORE.INTRA.POLAR.0>
0

>  <SCORE.INTRA.REPUL>
0

>  <SCORE.INTRA.REPUL.0>
0

>  <SCORE.INTRA.SOLV>
0.688047

>  <SCORE.INTRA.SOLV.lig_0>
-101.981

>  <SCORE.INTRA.VDW>
2.27398

>  <SCORE.INTRA.VDW.0>
-5.72964

>  <SCORE.INTRA.norm>
-0.0767795

>  <SCORE.RESTR>
0.796792

>  <SCORE.RESTR.CAVITY>
0.796792

>  <SCORE.RESTR.norm>
0.0199198

>  <SCORE.SYSTEM>
0

>  <SCORE.SYSTEM.CONST>
0

>  <SCORE.SYSTEM.DIHEDRAL>
0

>  <SCORE.SYSTEM.SOLV>
0

>  <SCORE.SYSTEM.norm>
0

>  <SCORE.heavy>
40

>  <SCORE.norm>
-0.214135

>  <RMSD>
2.399

$$$$
ligand
 OpenBabel11021811513D
libRbt.so/2013.1/901 2013/11/27
 40 42  0  0  0  0  0  0  0  0999 V2000
    3.6749   -6.4059   19.3935 C   0  0  2  0  0  0  0  0  0  0  0  0
    2.5444   -7.2404   19.6911 O   0  0  0  0  0  0  0  0  0  0  0  0
    4.9896   -7.0137   20.0111 C   0  0  1  0  0  0  0  0  0  0  0  0
    4.9450   -7.0112   21.5670 C   0  0  2  0  0  0  0  0  0  0  0  0
    4.7844   -5.5301   22.0351 C   0  0  2  0  0  0  0  0  0  0  0  0
    4.7653   -5.4867   23.4781 O   0  0  0  0  0  0  0  0  0  0  0  0
    3.4276   -4.9559   21.4343 C   0  0  2  0  0  0  0  0  0  0  0  0
    3.4724   -5.0220   19.9297 O   0  0  0  0  0  0  0  0  0  0  0  0
    3.1883   -3.5023   21.8191 C   0  0  0  0  0  0  0  0  0  0  0  0
    4.0171   -2.5709   20.9909 N   0  0  0  0  0  0  0  0  0  0  0  0
   -0.6683   -9.2065   17.4233 C   0  0  2  0  0  0  0  0  0  0  0  0
   -1.7355   -9.3977   16.4689 N   0  0  0  0  0  0  0  0  0  0  0  0
   -1.0584   -8.0487   18.4284 C   0  0  0  0  0  0  0  0  0  0  0  0
    0.1129   -7.8227   19.4857 C   0  0  2  0  0  0  0  0  0  0  0  0
   -0.2622   -6.7459   20.4393 N   0  0  0  0  0  0  0  0  0  0  0  0
    1.4613   -7.4608   18.7062 C   0  0  2  0  0  0  0  0  0  0  0  0
    1.8088   -8.6490   17.7115 C   0  0  2  0  0  0  0  0  0  0  0  0
    3.0156   -8.3364   17.0122 O   0  0  0  0  0  0  0  0  0  0  0  0
    0.6384   -8.8643   16.6727 C   0  0  1  0  0  0  0  0  0  0  0  0
    0.9615   -9.9646   15.7865 O   0  0  0  0  0  0  0  0  0  0  0  0
    1.2556  -11.2592   16.1894 C   0  0  2  0  0  0  0  0  0  0  0  0
    1.7940  -12.0334   14.9341 C   0  0  2  0  0  0  0  0  0  0  0  0
    2.9066  -11.3762   14.4190 O   0  0  0  0  0  0  0  0  0  0  0  0
    0.6708  -12.2146   13.8264 C   0  0  1  0  0  0  0  0  0  0  0  0
    1.2011  -12.9647   12.6461 N   0  0  0  0  0  0  0  0  0  0  0  0
   -0.5669  -12.9745   14.4759 C   0  0  2  0  0  0  0  0  0  0  0  0
   -1.6057  -13.1742   13.5092 O   0  0  0  0  0  0  0  0  0  0  0  0
   -1.0746  -12.1246   15.7043 C   0  0  2  0  0  0  0  0  0  0  0  0
    0.0400  -11.9261   16.7225 O   0  0  0  0  0  0  0  0  0  0  0  0
   -2.2417  -12.7966   16.3873 C   0  0  0  0  0  0  0  0  0  0  0  0
   -1.9633  -14.1622   16.7486 O   0  0  0  0  0  0  0  0  0  0  0  0
    5.1498   -8.3698   19.5020 O   0  0  0  0  0  0  0  0  0  0  0  0
    6.1178   -7.5385   22.0509 O   0  0  0  0  0  0  0  0  0  0  0  0
   -3.0225   -9.8552   16.9393 C   0  0  0  0  0  0  0  0  0  0  0  0
   -3.1045  -10.4851   18.0354 O   0  0  0  0  0  0  0  0  0  0  0  0
   -4.2724   -9.5512   16.0573 C   0  0  2  0  0  0  0  0  0  0  0  0
   -6.5168  -11.7980   16.5015 N   0  0  0  0  0  0  0  0  0  0  0  0
   -5.5724   -9.5290   16.9194 C   0  0  0  0  0  0  0  0  0  0  0  0
   -5.9256  -10.8992   17.5217 C   0  0  0  0  0  0  0  0  0  0  0  0
   -4.4718  -10.4383   15.1677 O   0  0  0  0  0  0  0  0  0  0  0  0
  1  2  1  1  0  0  0
  1  3  1  0  0  0  0
  1  8  1  0  0  0  0
  3  4  1  0  0  0  0
  3 32  1  6  0  0  0
  4  5  1  0  0  0  0
  4 33  1  1  0  0  0
  5  6  1  1  0  0  0
  5  7  1  0  0  0  0
  7  8  1  0  0  0  0
  7  9  1  6  0  0  0
  9 10  1  0  0  0  0
 11 12  1  6  0  0  0
 11 13  1  0  0  0  0
 11 19  1  0  0  0  0
 12 34  1  0  0  0  0
 13 14  1  0  0  0  0
 14 15  1  1  0  0  0
 14 16  1  0  0  0  0
 16  2  1  1  0  0  0
 16 17  1  0  0  0  0
 17 18  1  6  0  0  0
 17 19  1  0  0  0  0
 19 20  1  6  0  0  0
 21 20  1  6  0  0  0
 21 22  1  0  0  0  0
 21 29  1  0  0  0  0
 22 23  1  6  0  0  0
 22 24  1  0  0  0  0
 24 25  1  6  0  0  0
 24 26  1  0  0  0  0
 26 27  1  6  0  0  0
 26 28  1  0  0  0  0
 28 29  1  0  0  0  0
 28 30  1  1  0  0  0
 30 31  1  0  0  0  0
 34 35  2  0  0  0  0
 36 34  1  1  0  0  0
 36 38  1  0  0  0  0
 36 40  1  0  0  0  0
 37 39  1  0  0  0  0
 38 39  1  0  0  0  0
M  END
>  <CHROM.1>
-142.21328514,-154.27986335,77.94901816,-64.32515117,-62.94665464,-169.80071415
53.03499464,-155.40719743,-65.72781952,-76.51038685,0.59653065,-9.13740743
17.82224590,-0.88560889,-0.01980427,-2.38238603

>  <Name>
ligand

>  <RI>
0

>  <Rbt.Current_Directory>
/home/itssahil/PROJECTS/Mol_Feturizer/New_Systems/rnas/4P20

>  <Rbt.Executable>
rbdock ($Id: //depot/dev/client3/rdock/2013.1/src/exe/rbdock.cxx#4 $)

>  <Rbt.Library>
libRbt.so (2013.1, Build901 2013/11/27)

>  <Rbt.Parameter_File>
/export/apps/rDock/src/rDock_2013.1_src/data/scripts/dock_solv.prm

>  <Rbt.Receptor>
prm/pocket_docking_2.prm

>  <SCORE>
-4.55441

>  <SCORE.INTER>
-1.638

>  <SCORE.INTER.CONST>
1

>  <SCORE.INTER.POLAR>
0

>  <SCORE.INTER.ROT>
10

>  <SCORE.INTER.SOLV>
26.889

>  <SCORE.INTER.VDW>
-20.3217

>  <SCORE.INTER.norm>
-0.0409499

>  <SCORE.INTRA>
-4.56082

>  <SCORE.INTRA.DIHEDRAL>
-16.1373

>  <SCORE.INTRA.DIHEDRAL.0>
28.2802

>  <SCORE.INTRA.POLAR>
0

>  <SCORE.INTRA.POLAR.0>
0

>  <SCORE.INTRA.REPUL>
0

>  <SCORE.INTRA.REPUL.0>
0

>  <SCORE.INTRA.SOLV>
3.78007

>  <SCORE.INTRA.SOLV.lig_0>
-101.981

>  <SCORE.INTRA.VDW>
1.61779

>  <SCORE.INTRA.VDW.0>
-5.72964

>  <SCORE.INTRA.norm>
-0.114021

>  <SCORE.RESTR>
1.64441

>  <SCORE.RESTR.CAVITY>
1.64441

>  <SCORE.RESTR.norm>
0.0411103

>  <SCORE.SYSTEM>
0

>  <SCORE.SYSTEM.CONST>
0

>  <SCORE.SYSTEM.DIHEDRAL>
0

>  <SCORE.SYSTEM.SOLV>
0

>  <SCORE.SYSTEM.norm>
0

>  <SCORE.heavy>
40

>  <SCORE.norm>
-0.11386

>  <RMSD>
2.433

$$$$
ligand
 OpenBabel11021811513D
libRbt.so/2013.1/901 2013/11/27
 40 42  0  0  0  0  0  0  0  0999 V2000
    2.1736   -6.9588   19.0184 C   0  0  2  0  0  0  0  0  0  0  0  0
    1.4353   -8.1904   18.9862 O   0  0  0  0  0  0  0  0  0  0  0  0
    3.3614   -6.9982   17.9854 C   0  0  1  0  0  0  0  0  0  0  0  0
    4.4269   -8.0624   18.3792 C   0  0  2  0  0  0  0  0  0  0  0  0
    4.9755   -7.6851   19.7917 C   0  0  2  0  0  0  0  0  0  0  0  0
    5.9877   -8.6388   20.1792 O   0  0  0  0  0  0  0  0  0  0  0  0
    3.7637   -7.6967   20.8227 C   0  0  2  0  0  0  0  0  0  0  0  0
    2.7204   -6.7000   20.3886 O   0  0  0  0  0  0  0  0  0  0  0  0
    4.1944   -7.3195   22.2335 C   0  0  0  0  0  0  0  0  0  0  0  0
    5.1857   -8.2960   22.7851 N   0  0  0  0  0  0  0  0  0  0  0  0
   -1.8155  -10.1367   16.7558 C   0  0  2  0  0  0  0  0  0  0  0  0
   -2.7969  -10.3831   15.7250 N   0  0  0  0  0  0  0  0  0  0  0  0
   -2.1047   -8.7392   17.4387 C   0  0  0  0  0  0  0  0  0  0  0  0
   -1.0259   -8.4510   18.5762 C   0  0  2  0  0  0  0  0  0  0  0  0
   -1.3089   -7.1453   19.2278 N   0  0  0  0  0  0  0  0  0  0  0  0
    0.4365   -8.4695   17.9297 C   0  0  2  0  0  0  0  0  0  0  0  0
    0.6779   -9.8879   17.2574 C   0  0  2  0  0  0  0  0  0  0  0  0
    1.9849   -9.9158   16.6795 O   0  0  0  0  0  0  0  0  0  0  0  0
   -0.4002  -10.1618   16.1358 C   0  0  1  0  0  0  0  0  0  0  0  0
   -0.1790  -11.4676   15.5471 O   0  0  0  0  0  0  0  0  0  0  0  0
   -0.5805  -11.8529   14.2762 C   0  0  2  0  0  0  0  0  0  0  0  0
   -0.5272  -13.4210   14.2196 C   0  0  2  0  0  0  0  0  0  0  0  0
   -1.3410  -13.9545   15.2137 O   0  0  0  0  0  0  0  0  0  0  0  0
    0.9594  -13.9655   14.3414 C   0  0  1  0  0  0  0  0  0  0  0  0
    0.9882  -15.4592   14.2725 N   0  0  0  0  0  0  0  0  0  0  0  0
    1.8336  -13.3239   13.1771 C   0  0  2  0  0  0  0  0  0  0  0  0
    3.1853  -13.7959   13.2365 O   0  0  0  0  0  0  0  0  0  0  0  0
    1.7616  -11.7542   13.3177 C   0  0  2  0  0  0  0  0  0  0  0  0
    0.3195  -11.2702   13.2481 O   0  0  0  0  0  0  0  0  0  0  0  0
    2.5553  -11.0721   12.2291 C   0  0  0  0  0  0  0  0  0  0  0  0
    2.1796  -11.5096   10.9099 O   0  0  0  0  0  0  0  0  0  0  0  0
    2.8113   -7.2829   16.6662 O   0  0  0  0  0  0  0  0  0  0  0  0
    5.4426   -8.0449   17.4542 O   0  0  0  0  0  0  0  0  0  0  0  0
   -3.9497  -11.1966   16.0353 C   0  0  0  0  0  0  0  0  0  0  0  0
   -3.8986  -12.0200   16.9967 O   0  0  0  0  0  0  0  0  0  0  0  0
   -5.2241  -11.0235   15.1530 C   0  0  2  0  0  0  0  0  0  0  0  0
   -8.1818  -10.2673   14.6701 N   0  0  0  0  0  0  0  0  0  0  0  0
   -5.8818   -9.6289   15.3891 C   0  0  0  0  0  0  0  0  0  0  0  0
   -7.0508   -9.3385   14.4330 C   0  0  0  0  0  0  0  0  0  0  0  0
   -6.1289  -11.8747   15.4269 O   0  0  0  0  0  0  0  0  0  0  0  0
  1  2  1  1  0  0  0
  1  3  1  0  0  0  0
  1  8  1  0  0  0  0
  3  4  1  0  0  0  0
  3 32  1  6  0  0  0
  4  5  1  0  0  0  0
  4 33  1  6  0  0  0
  5  6  1  1  0  0  0
  5  7  1  0  0  0  0
  7  8  1  0  0  0  0
  7  9  1  1  0  0  0
  9 10  1  0  0  0  0
 11 12  1  6  0  0  0
 11 13  1  0  0  0  0
 11 19  1  0  0  0  0
 12 34  1  0  0  0  0
 13 14  1  0  0  0  0
 14 15  1  6  0  0  0
 14 16  1  0  0  0  0
 16  2  1  1  0  0  0
 16 17  1  0  0  0  0
 17 18  1  6  0  0  0
 17 19  1  0  0  0  0
 19 20  1  1  0  0  0
 21 20  1  1  0  0  0
 21 22  1  0  0  0  0
 21 29  1  0  0  0  0
 22 23  1  1  0  0  0
 22 24  1  0  0  0  0
 24 25  1  6  0  0  0
 24 26  1  0  0  0  0
 26 27  1  1  0  0  0
 26 28  1  0  0  0  0
 28 29  1  0  0  0  0
 28 30  1  6  0  0  0
 30 31  1  0  0  0  0
 34 35  2  0  0  0  0
 36 34  1  1  0  0  0
 36 38  1  0  0  0  0
 36 40  1  0  0  0  0
 37 39  1  0  0  0  0
 38 39  1  0  0  0  0
M  END
>  <CHROM.1>
-79.27200145,-110.35861648,-62.13450728,-96.72312446,84.32691981,-163.43203884
53.51054720,-68.52525127,173.55522512,65.32774424,0.30893303,-10.09506375
16.54547991,0.69573744,-0.04074858,0.88162699

>  <Name>
ligand

>  <RI>
0

>  <Rbt.Current_Directory>
/home/itssahil/PROJECTS/Mol_Feturizer/New_Systems/rnas/4P20

>  <Rbt.Executable>
rbdock ($Id: //depot/dev/client3/rdock/2013.1/src/exe/rbdock.cxx#4 $)

>  <Rbt.Library>
libRbt.so (2013.1, Build901 2013/11/27)

>  <Rbt.Parameter_File>
/export/apps/rDock/src/rDock_2013.1_src/data/scripts/dock_solv.prm

>  <Rbt.Receptor>
prm/pocket_docking_3.prm

>  <SCORE>
-13.1051

>  <SCORE.INTER>
-8.11197

>  <SCORE.INTER.CONST>
1

>  <SCORE.INTER.POLAR>
0

>  <SCORE.INTER.ROT>
10

>  <SCORE.INTER.SOLV>
26.8114

>  <SCORE.INTER.VDW>
-24.6118

>  <SCORE.INTER.norm>
-0.202799

>  <SCORE.INTRA>
-4.99309

>  <SCORE.INTRA.DIHEDRAL>
-13.9094

>  <SCORE.INTRA.DIHEDRAL.0>
28.2802

>  <SCORE.INTRA.POLAR>
0

>  <SCORE.INTRA.POLAR.0>
0

>  <SCORE.INTRA.REPUL>
0

>  <SCORE.INTRA.REPUL.0>
0

>  <SCORE.INTRA.SOLV>
2.17101

>  <SCORE.INTRA.SOLV.lig_0>
-101.981

>  <SCORE.INTRA.VDW>
0.876094

>  <SCORE.INTRA.VDW.0>
-5.72964

>  <SCORE.INTRA.norm>
-0.124827

>  <SCORE.RESTR>
0

>  <SCORE.RESTR.CAVITY>
0

>  <SCORE.RESTR.norm>
0

>  <SCORE.SYSTEM>
0

>  <SCORE.SYSTEM.CONST>
0

>  <SCORE.SYSTEM.DIHEDRAL>
0

>  <SCORE.SYSTEM.SOLV>
0

>  <SCORE.SYSTEM.norm>
0

>  <SCORE.heavy>
40

>  <SCORE.norm>
-0.327626

>  <RMSD>
2.439

$$$$
ligand
 OpenBabel11021811513D
libRbt.so/2013.1/901 2013/11/27
 40 42  0  0  0  0  0  0  0  0999 V2000
    2.1592   -7.2806   19.3912 C   0  0  2  0  0  0  0  0  0  0  0  0
    1.5063   -8.5489   19.2236 O   0  0  0  0  0  0  0  0  0  0  0  0
    3.3296   -7.1185   18.3504 C   0  0  1  0  0  0  0  0  0  0  0  0
    4.4717   -8.1438   18.6096 C   0  0  2  0  0  0  0  0  0  0  0  0
    5.0166   -7.8932   20.0514 C   0  0  2  0  0  0  0  0  0  0  0  0
    6.0980   -8.8121   20.3176 O   0  0  0  0  0  0  0  0  0  0  0  0
    3.8257   -8.1072   21.0846 C   0  0  2  0  0  0  0  0  0  0  0  0
    2.7097   -7.1427   20.7774 O   0  0  0  0  0  0  0  0  0  0  0  0
    4.2530   -7.8648   22.5257 C   0  0  0  0  0  0  0  0  0  0  0  0
    4.7394   -6.4635   22.7265 N   0  0  0  0  0  0  0  0  0  0  0  0
   -1.7998  -10.2982   16.9130 C   0  0  2  0  0  0  0  0  0  0  0  0
   -2.7525  -10.5010   15.8464 N   0  0  0  0  0  0  0  0  0  0  0  0
   -1.9964   -8.8552   17.5310 C   0  0  0  0  0  0  0  0  0  0  0  0
   -0.9477   -8.6150   18.7072 C   0  0  2  0  0  0  0  0  0  0  0  0
   -1.1447   -7.2651   19.2976 N   0  0  0  0  0  0  0  0  0  0  0  0
    0.5346   -8.7837   18.1317 C   0  0  2  0  0  0  0  0  0  0  0  0
    0.6811  -10.2430   17.5228 C   0  0  2  0  0  0  0  0  0  0  0  0
    2.0051  -10.4050   17.0088 O   0  0  0  0  0  0  0  0  0  0  0  0
   -0.3661  -10.4684   16.3619 C   0  0  1  0  0  0  0  0  0  0  0  0
   -0.2335  -11.8107   15.8315 O   0  0  0  0  0  0  0  0  0  0  0  0
   -0.8290  -12.2757   14.6679 C   0  0  2  0  0  0  0  0  0  0  0  0
   -0.7530  -13.8437   14.6929 C   0  0  2  0  0  0  0  0  0  0  0  0
   -1.3823  -14.3259   15.8360 O   0  0  0  0  0  0  0  0  0  0  0  0
    0.7446  -14.3632   14.5998 C   0  0  1  0  0  0  0  0  0  0  0  0
    0.7929  -15.8580   14.6126 N   0  0  0  0  0  0  0  0  0  0  0  0
    1.4034  -13.7826   13.2732 C   0  0  2  0  0  0  0  0  0  0  0  0
    2.7562  -14.2350   13.1367 O   0  0  0  0  0  0  0  0  0  0  0  0
    1.3226  -12.2082   13.3338 C   0  0  2  0  0  0  0  0  0  0  0  0
   -0.1212  -11.7455   13.4744 O   0  0  0  0  0  0  0  0  0  0  0  0
    1.9136  -11.5836   12.0924 C   0  0  0  0  0  0  0  0  0  0  0  0
    3.3235  -11.8417   11.9574 O   0  0  0  0  0  0  0  0  0  0  0  0
    2.7784   -7.2880   17.0119 O   0  0  0  0  0  0  0  0  0  0  0  0
    5.4683   -7.9497   17.6840 O   0  0  0  0  0  0  0  0  0  0  0  0
   -4.0473  -11.0595   16.1603 C   0  0  0  0  0  0  0  0  0  0  0  0
   -4.1962  -11.7518   17.2108 O   0  0  0  0  0  0  0  0  0  0  0  0
   -5.2208  -10.7835   15.1707 C   0  0  2  0  0  0  0  0  0  0  0  0
   -7.7651   -7.8437   14.9464 N   0  0  0  0  0  0  0  0  0  0  0  0
   -5.9384   -9.4420   15.5155 C   0  0  0  0  0  0  0  0  0  0  0  0
   -7.0914   -9.1052   14.5552 C   0  0  0  0  0  0  0  0  0  0  0  0
   -6.1268  -11.6748   15.2242 O   0  0  0  0  0  0  0  0  0  0  0  0
  1  2  1  1  0  0  0
  1  3  1  0  0  0  0
  1  8  1  0  0  0  0
  3  4  1  0  0  0  0
  3 32  1  6  0  0  0
  4  5  1  0  0  0  0
  4 33  1  6  0  0  0
  5  6  1  1  0  0  0
  5  7  1  0  0  0  0
  7  8  1  0  0  0  0
  7  9  1  1  0  0  0
  9 10  1  0  0  0  0
 11 12  1  6  0  0  0
 11 13  1  0  0  0  0
 11 19  1  0  0  0  0
 12 34  1  0  0  0  0
 13 14  1  0  0  0  0
 14 15  1  6  0  0  0
 14 16  1  0  0  0  0
 16  2  1  1  0  0  0
 16 17  1  0  0  0  0
 17 18  1  6  0  0  0
 17 19  1  0  0  0  0
 19 20  1  1  0  0  0
 21 20  1  1  0  0  0
 21 22  1  0  0  0  0
 21 29  1  0  0  0  0
 22 23  1  1  0  0  0
 22 24  1  0  0  0  0
 24 25  1  6  0  0  0
 24 26  1  0  0  0  0
 26 27  1  1  0  0  0
 26 28  1  0  0  0  0
 28 29  1  0  0  0  0
 28 30  1  6  0  0  0
 30 31  1  0  0  0  0
 34 35  2  0  0  0  0
 36 34  1  1  0  0  0
 36 38  1  0  0  0  0
 36 40  1  0  0  0  0
 37 39  1  0  0  0  0
 38 39  1  0  0  0  0
M  END
>  <CHROM.1>
-77.84999840,-98.22230259,60.52668082,-89.59400230,71.48583372,-164.44584990
-64.36515898,-87.23475138,178.98914644,178.38281964,0.26617567,-10.20206948
16.76998299,0.71139787,-0.11889067,0.80734894

>  <Name>
ligand

>  <RI>
0

>  <Rbt.Current_Directory>
/home/itssahil/PROJECTS/Mol_Feturizer/New_Systems/rnas/4P20

>  <Rbt.Executable>
rbdock ($Id: //depot/dev/client3/rdock/2013.1/src/exe/rbdock.cxx#4 $)

>  <Rbt.Library>
libRbt.so (2013.1, Build901 2013/11/27)

>  <Rbt.Parameter_File>
/export/apps/rDock/src/rDock_2013.1_src/data/scripts/dock_solv.prm

>  <Rbt.Receptor>
prm/pocket_docking_5.prm

>  <SCORE>
-15.194

>  <SCORE.INTER>
-7.78403

>  <SCORE.INTER.CONST>
1

>  <SCORE.INTER.POLAR>
0

>  <SCORE.INTER.ROT>
10

>  <SCORE.INTER.SOLV>
25.9958

>  <SCORE.INTER.VDW>
-24.1213

>  <SCORE.INTER.norm>
-0.194601

>  <SCORE.INTRA>
-7.40999

>  <SCORE.INTRA.DIHEDRAL>
-17.7696

>  <SCORE.INTRA.DIHEDRAL.0>
28.2802

>  <SCORE.INTRA.POLAR>
0

>  <SCORE.INTRA.POLAR.0>
0

>  <SCORE.INTRA.REPUL>
0

>  <SCORE.INTRA.REPUL.0>
0

>  <SCORE.INTRA.SOLV>
0.2075

>  <SCORE.INTRA.SOLV.lig_0>
-101.981

>  <SCORE.INTRA.VDW>
1.37107

>  <SCORE.INTRA.VDW.0>
-5.72964

>  <SCORE.INTRA.norm>
-0.18525

>  <SCORE.RESTR>
0

>  <SCORE.RESTR.CAVITY>
0

>  <SCORE.RESTR.norm>
0

>  <SCORE.SYSTEM>
0

>  <SCORE.SYSTEM.CONST>
0

>  <SCORE.SYSTEM.DIHEDRAL>
0

>  <SCORE.SYSTEM.SOLV>
0

>  <SCORE.SYSTEM.norm>
0

>  <SCORE.heavy>
40

>  <SCORE.norm>
-0.379851

>  <RMSD>
2.488

$$$$
ligand
 OpenBabel11021811513D
libRbt.so/2013.1/901 2013/11/27
 40 42  0  0  0  0  0  0  0  0999 V2000
    1.7579   -7.3608   20.0577 C   0  0  2  0  0  0  0  0  0  0  0  0
    1.9621   -7.8083   18.7082 O   0  0  0  0  0  0  0  0  0  0  0  0
    2.5175   -6.0053   20.3125 C   0  0  1  0  0  0  0  0  0  0  0  0
    4.0608   -6.1897   20.2282 C   0  0  2  0  0  0  0  0  0  0  0  0
    4.4744   -7.2323   21.3146 C   0  0  2  0  0  0  0  0  0  0  0  0
    5.9069   -7.4096   21.2828 O   0  0  0  0  0  0  0  0  0  0  0  0
    3.7282   -8.6035   21.0074 C   0  0  2  0  0  0  0  0  0  0  0  0
    2.2375   -8.3864   21.0383 O   0  0  0  0  0  0  0  0  0  0  0  0
    4.0519   -9.6854   22.0286 C   0  0  0  0  0  0  0  0  0  0  0  0
    3.9619  -11.0533   21.4275 N   0  0  0  0  0  0  0  0  0  0  0  0
   -1.3106  -10.1975   17.0021 C   0  0  2  0  0  0  0  0  0  0  0  0
   -2.4263  -10.5684   16.1630 N   0  0  0  0  0  0  0  0  0  0  0  0
   -1.6798   -8.9016   17.8311 C   0  0  0  0  0  0  0  0  0  0  0  0
   -0.4552   -8.4771   18.7591 C   0  0  2  0  0  0  0  0  0  0  0  0
   -0.8097   -7.2691   19.5495 N   0  0  0  0  0  0  0  0  0  0  0  0
    0.8298   -8.2132   17.8448 C   0  0  2  0  0  0  0  0  0  0  0  0
    1.1581   -9.5384   17.0337 C   0  0  2  0  0  0  0  0  0  0  0  0
    2.3085   -9.3137   16.2155 O   0  0  0  0  0  0  0  0  0  0  0  0
   -0.0648   -9.9494   16.1221 C   0  0  1  0  0  0  0  0  0  0  0  0
    0.2427  -11.1709   15.4052 O   0  0  0  0  0  0  0  0  0  0  0  0
   -0.4093  -11.6174   14.2649 C   0  0  2  0  0  0  0  0  0  0  0  0
   -0.5835  -13.1720   14.3990 C   0  0  2  0  0  0  0  0  0  0  0  0
   -1.2909  -13.4665   15.5600 O   0  0  0  0  0  0  0  0  0  0  0  0
    0.8133  -13.9267   14.3711 C   0  0  1  0  0  0  0  0  0  0  0  0
    0.6235  -15.4056   14.4875 N   0  0  0  0  0  0  0  0  0  0  0  0
    1.5670  -13.5529   13.0208 C   0  0  2  0  0  0  0  0  0  0  0  0
    2.8319  -14.2217   12.9422 O   0  0  0  0  0  0  0  0  0  0  0  0
    1.7368  -11.9851   12.9716 C   0  0  2  0  0  0  0  0  0  0  0  0
    0.3837  -11.2915   13.0519 O   0  0  0  0  0  0  0  0  0  0  0  0
    2.4299  -11.5512   11.7020 C   0  0  0  0  0  0  0  0  0  0  0  0
    2.7891  -10.1571   11.7133 O   0  0  0  0  0  0  0  0  0  0  0  0
    2.0599   -5.0324   19.3285 O   0  0  0  0  0  0  0  0  0  0  0  0
    4.6713   -4.9829   20.4701 O   0  0  0  0  0  0  0  0  0  0  0  0
   -3.5050  -11.3419   16.7330 C   0  0  0  0  0  0  0  0  0  0  0  0
   -3.2979  -12.0441   17.7669 O   0  0  0  0  0  0  0  0  0  0  0  0
   -4.8974  -11.2794   16.0332 C   0  0  2  0  0  0  0  0  0  0  0  0
   -7.2976  -11.3578   18.0312 N   0  0  0  0  0  0  0  0  0  0  0  0
   -5.7756  -12.5074   16.4259 C   0  0  0  0  0  0  0  0  0  0  0  0
   -6.3000  -12.4426   17.8702 C   0  0  0  0  0  0  0  0  0  0  0  0
   -4.8105  -11.3178   14.7648 O   0  0  0  0  0  0  0  0  0  0  0  0
  1  2  1  6  0  0  0
  1  3  1  0  0  0  0
  1  8  1  0  0  0  0
  3  4  1  0  0  0  0
  3 32  1  6  0  0  0
  4  5  1  0  0  0  0
  4 33  1  1  0  0  0
  5  6  1  6  0  0  0
  5  7  1  0  0  0  0
  7  8  1  0  0  0  0
  7  9  1  1  0  0  0
  9 10  1  0  0  0  0
 11 12  1  6  0  0  0
 11 13  1  0  0  0  0
 11 19  1  0  0  0  0
 12 34  1  0  0  0  0
 13 14  1  0  0  0  0
 14 15  1  6  0  0  0
 14 16  1  0  0  0  0
 16  2  1  1  0  0  0
 16 17  1  0  0  0  0
 17 18  1  6  0  0  0
 17 19  1  0  0  0  0
 19 20  1  1  0  0  0
 21 20  1  1  0  0  0
 21 22  1  0  0  0  0
 21 29  1  0  0  0  0
 22 23  1  1  0  0  0
 22 24  1  0  0  0  0
 24 25  1  6  0  0  0
 24 26  1  0  0  0  0
 26 27  1  1  0  0  0
 26 28  1  0  0  0  0
 28 29  1  0  0  0  0
 28 30  1  6  0  0  0
 30 31  1  0  0  0  0
 34 35  2  0  0  0  0
 36 34  1  1  0  0  0
 36 38  1  0  0  0  0
 36 40  1  0  0  0  0
 37 39  1  0  0  0  0
 38 39  1  0  0  0  0
M  END
>  <CHROM.1>
-130.19399381,-16.62161315,-151.16127151,-82.70619114,79.12275549,-139.86051127
-170.92203864,159.65735281,72.57838440,68.55611255,0.39182897,-10.13579174
17.11565485,0.92567104,0.17821110,0.95096959

>  <Name>
ligand

>  <RI>
0

>  <Rbt.Current_Directory>
/home/itssahil/PROJECTS/Mol_Feturizer/New_Systems/rnas/4P20

>  <Rbt.Executable>
rbdock ($Id: //depot/dev/client3/rdock/2013.1/src/exe/rbdock.cxx#4 $)

>  <Rbt.Library>
libRbt.so (2013.1, Build901 2013/11/27)

>  <Rbt.Parameter_File>
/export/apps/rDock/src/rDock_2013.1_src/data/scripts/dock_solv.prm

>  <Rbt.Receptor>
prm/pocket_docking_3.prm

>  <SCORE>
-5.00016

>  <SCORE.INTER>
-7.31035

>  <SCORE.INTER.CONST>
1

>  <SCORE.INTER.POLAR>
0

>  <SCORE.INTER.ROT>
10

>  <SCORE.INTER.SOLV>
21.608

>  <SCORE.INTER.VDW>
-22.3429

>  <SCORE.INTER.norm>
-0.182759

>  <SCORE.INTRA>
2.31019

>  <SCORE.INTRA.DIHEDRAL>
-3.39368

>  <SCORE.INTRA.DIHEDRAL.0>
28.2802

>  <SCORE.INTRA.POLAR>
0

>  <SCORE.INTRA.POLAR.0>
0

>  <SCORE.INTRA.REPUL>
0

>  <SCORE.INTRA.REPUL.0>
0

>  <SCORE.INTRA.SOLV>
1.61531

>  <SCORE.INTRA.SOLV.lig_0>
-101.981

>  <SCORE.INTRA.VDW>
3.19938

>  <SCORE.INTRA.VDW.0>
-5.72964

>  <SCORE.INTRA.norm>
0.0577547

>  <SCORE.RESTR>
0

>  <SCORE.RESTR.CAVITY>
0

>  <SCORE.RESTR.norm>
0

>  <SCORE.SYSTEM>
0

>  <SCORE.SYSTEM.CONST>
0

>  <SCORE.SYSTEM.DIHEDRAL>
0

>  <SCORE.SYSTEM.SOLV>
0

>  <SCORE.SYSTEM.norm>
0

>  <SCORE.heavy>
40

>  <SCORE.norm>
-0.125004

>  <RMSD>
2.530

$$$$
ligand
 OpenBabel11021811513D
libRbt.so/2013.1/901 2013/11/27
 40 42  0  0  0  0  0  0  0  0999 V2000
    3.7026   -6.2073   19.3767 C   0  0  2  0  0  0  0  0  0  0  0  0
    2.5231   -6.9570   19.7078 O   0  0  0  0  0  0  0  0  0  0  0  0
    4.8537   -6.5012   20.4100 C   0  0  1  0  0  0  0  0  0  0  0  0
    4.4911   -5.9843   21.8327 C   0  0  2  0  0  0  0  0  0  0  0  0
    4.2596   -4.4432   21.7333 C   0  0  2  0  0  0  0  0  0  0  0  0
    3.9456   -3.9238   23.0433 O   0  0  0  0  0  0  0  0  0  0  0  0
    3.0634   -4.1776   20.7183 C   0  0  2  0  0  0  0  0  0  0  0  0
    3.4147   -4.7374   19.3643 O   0  0  0  0  0  0  0  0  0  0  0  0
    2.7714   -2.6945   20.5359 C   0  0  0  0  0  0  0  0  0  0  0  0
    2.3300   -2.0595   21.8176 N   0  0  0  0  0  0  0  0  0  0  0  0
   -0.3397   -9.1666   17.2074 C   0  0  2  0  0  0  0  0  0  0  0  0
   -1.3751   -9.4250   16.2339 N   0  0  0  0  0  0  0  0  0  0  0  0
   -0.9067   -8.2261   18.3461 C   0  0  0  0  0  0  0  0  0  0  0  0
    0.2271   -7.9279   19.4261 C   0  0  2  0  0  0  0  0  0  0  0  0
   -0.3120   -7.0575   20.5038 N   0  0  0  0  0  0  0  0  0  0  0  0
    1.4765   -7.2429   18.7005 C   0  0  2  0  0  0  0  0  0  0  0  0
    2.0071   -8.2219   17.5683 C   0  0  2  0  0  0  0  0  0  0  0  0
    3.1273   -7.6197   16.9157 O   0  0  0  0  0  0  0  0  0  0  0  0
    0.8727   -8.5117   16.5079 C   0  0  1  0  0  0  0  0  0  0  0  0
    1.3660   -9.4224   15.4940 O   0  0  0  0  0  0  0  0  0  0  0  0
    1.9220  -10.6698   15.7384 C   0  0  2  0  0  0  0  0  0  0  0  0
    3.1298  -10.8498   14.7516 C   0  0  2  0  0  0  0  0  0  0  0  0
    4.0454   -9.8192   14.9375 O   0  0  0  0  0  0  0  0  0  0  0  0
    2.6500  -10.9254   13.2398 C   0  0  1  0  0  0  0  0  0  0  0  0
    3.8140  -11.1093   12.3188 N   0  0  0  0  0  0  0  0  0  0  0  0
    1.6127  -12.1228   13.0941 C   0  0  2  0  0  0  0  0  0  0  0  0
    1.1585  -12.2407   11.7401 O   0  0  0  0  0  0  0  0  0  0  0  0
    0.4147  -11.8575   14.0857 C   0  0  2  0  0  0  0  0  0  0  0  0
    0.9148  -11.7394   15.5191 O   0  0  0  0  0  0  0  0  0  0  0  0
   -0.6058  -12.9686   14.0179 C   0  0  0  0  0  0  0  0  0  0  0  0
   -1.7482  -12.7263   14.8599 O   0  0  0  0  0  0  0  0  0  0  0  0
    5.0951   -7.9383   20.4295 O   0  0  0  0  0  0  0  0  0  0  0  0
    5.5320   -6.2548   22.6877 O   0  0  0  0  0  0  0  0  0  0  0  0
   -2.3577  -10.4472   16.5108 C   0  0  0  0  0  0  0  0  0  0  0  0
   -2.0874  -11.3745   17.3305 O   0  0  0  0  0  0  0  0  0  0  0  0
   -3.7277  -10.3626   15.7703 C   0  0  2  0  0  0  0  0  0  0  0  0
   -6.2512   -8.8907   14.7221 N   0  0  0  0  0  0  0  0  0  0  0  0
   -4.7685   -9.5604   16.6110 C   0  0  0  0  0  0  0  0  0  0  0  0
   -6.1881   -9.6024   16.0212 C   0  0  0  0  0  0  0  0  0  0  0  0
   -4.2540  -11.5051   15.5816 O   0  0  0  0  0  0  0  0  0  0  0  0
  1  2  1  1  0  0  0
  1  3  1  0  0  0  0
  1  8  1  0  0  0  0
  3  4  1  0  0  0  0
  3 32  1  1  0  0  0
  4  5  1  0  0  0  0
  4 33  1  1  0  0  0
  5  6  1  1  0  0  0
  5  7  1  0  0  0  0
  7  8  1  0  0  0  0
  7  9  1  6  0  0  0
  9 10  1  0  0  0  0
 11 12  1  6  0  0  0
 11 13  1  0  0  0  0
 11 19  1  0  0  0  0
 12 34  1  0  0  0  0
 13 14  1  0  0  0  0
 14 15  1  1  0  0  0
 14 16  1  0  0  0  0
 16  2  1  1  0  0  0
 16 17  1  0  0  0  0
 17 18  1  6  0  0  0
 17 19  1  0  0  0  0
 19 20  1  6  0  0  0
 21 20  1  6  0  0  0
 21 22  1  0  0  0  0
 21 29  1  0  0  0  0
 22 23  1  6  0  0  0
 22 24  1  0  0  0  0
 24 25  1  6  0  0  0
 24 26  1  0  0  0  0
 26 27  1  6  0  0  0
 26 28  1  0  0  0  0
 28 29  1  0  0  0  0
 28 30  1  1  0  0  0
 30 31  1  0  0  0  0
 34 35  2  0  0  0  0
 36 34  1  1  0  0  0
 36 38  1  0  0  0  0
 36 40  1  0  0  0  0
 37 39  1  0  0  0  0
 38 39  1  0  0  0  0
M  END
>  <CHROM.1>
-158.74933969,-172.96389145,-62.67969043,-81.39622048,-64.76653191,-140.41740143
-177.00029556,-91.78264658,-172.32217021,-66.59118155,1.01608388,-8.60036530
17.39045059,-1.04479352,-0.04671021,-2.30574018

>  <Name>
ligand

>  <RI>
0

>  <Rbt.Current_Directory>
/home/itssahil/PROJECTS/Mol_Feturizer/New_Systems/rnas/4P20

>  <Rbt.Executable>
rbdock ($Id: //depot/dev/client3/rdock/2013.1/src/exe/rbdock.cxx#4 $)

>  <Rbt.Library>
libRbt.so (2013.1, Build901 2013/11/27)

>  <Rbt.Parameter_File>
/export/apps/rDock/src/rDock_2013.1_src/data/scripts/dock_solv.prm

>  <Rbt.Receptor>
prm/pocket_docking_3.prm

>  <SCORE>
-14.6541

>  <SCORE.INTER>
-7.67258

>  <SCORE.INTER.CONST>
1

>  <SCORE.INTER.POLAR>
0

>  <SCORE.INTER.ROT>
10

>  <SCORE.INTER.SOLV>
23.9309

>  <SCORE.INTER.VDW>
-23.3587

>  <SCORE.INTER.norm>
-0.191814

>  <SCORE.INTRA>
-6.98148

>  <SCORE.INTRA.DIHEDRAL>
-18.1147

>  <SCORE.INTRA.DIHEDRAL.0>
28.2802

>  <SCORE.INTRA.POLAR>
0

>  <SCORE.INTRA.POLAR.0>
0

>  <SCORE.INTRA.REPUL>
0

>  <SCORE.INTRA.REPUL.0>
0

>  <SCORE.INTRA.SOLV>
2.17705

>  <SCORE.INTRA.SOLV.lig_0>
-101.981

>  <SCORE.INTRA.VDW>
0.987347

>  <SCORE.INTRA.VDW.0>
-5.72964

>  <SCORE.INTRA.norm>
-0.174537

>  <SCORE.RESTR>
0

>  <SCORE.RESTR.CAVITY>
0

>  <SCORE.RESTR.norm>
0

>  <SCORE.SYSTEM>
0

>  <SCORE.SYSTEM.CONST>
0

>  <SCORE.SYSTEM.DIHEDRAL>
0

>  <SCORE.SYSTEM.SOLV>
0

>  <SCORE.SYSTEM.norm>
0

>  <SCORE.heavy>
40

>  <SCORE.norm>
-0.366352

>  <RMSD>
2.534

$$$$
ligand
 OpenBabel11021811513D
libRbt.so/2013.1/901 2013/11/27
 40 42  0  0  0  0  0  0  0  0999 V2000
    3.9642   -6.9861   18.9968 C   0  0  2  0  0  0  0  0  0  0  0  0
    2.7680   -7.7035   19.3398 O   0  0  0  0  0  0  0  0  0  0  0  0
    5.1609   -7.4325   19.9176 C   0  0  1  0  0  0  0  0  0  0  0  0
    4.9198   -7.0332   21.4027 C   0  0  2  0  0  0  0  0  0  0  0  0
    4.7693   -5.4799   21.4582 C   0  0  2  0  0  0  0  0  0  0  0  0
    4.5697   -5.0700   22.8281 O   0  0  0  0  0  0  0  0  0  0  0  0
    3.5273   -5.0612   20.5562 C   0  0  2  0  0  0  0  0  0  0  0  0
    3.7592   -5.5090   19.1364 O   0  0  0  0  0  0  0  0  0  0  0  0
    3.3081   -3.5547   20.5283 C   0  0  0  0  0  0  0  0  0  0  0  0
    2.9367   -3.0283   21.8794 N   0  0  0  0  0  0  0  0  0  0  0  0
   -0.0004   -9.6601   16.5403 C   0  0  2  0  0  0  0  0  0  0  0  0
   -1.0858   -9.8344   15.6033 N   0  0  0  0  0  0  0  0  0  0  0  0
   -0.5715   -9.1393   17.9207 C   0  0  0  0  0  0  0  0  0  0  0  0
    0.6163   -8.9374   18.9643 C   0  0  2  0  0  0  0  0  0  0  0  0
    0.0763   -8.4638   20.2657 N   0  0  0  0  0  0  0  0  0  0  0  0
    1.6721   -7.8974   18.3637 C   0  0  2  0  0  0  0  0  0  0  0  0
    2.2134   -8.4626   16.9818 C   0  0  2  0  0  0  0  0  0  0  0  0
    3.1614   -7.5411   16.4383 O   0  0  0  0  0  0  0  0  0  0  0  0
    1.0259   -8.6614   15.9593 C   0  0  1  0  0  0  0  0  0  0  0  0
    1.5334   -9.1969   14.7118 O   0  0  0  0  0  0  0  0  0  0  0  0
    2.6424  -10.0208   14.5848 C   0  0  2  0  0  0  0  0  0  0  0  0
    2.6589  -10.5664   13.1127 C   0  0  2  0  0  0  0  0  0  0  0  0
    2.6882   -9.5016   12.2179 O   0  0  0  0  0  0  0  0  0  0  0  0
    1.4255  -11.5241   12.8247 C   0  0  1  0  0  0  0  0  0  0  0  0
    1.4677  -12.0418   11.4221 N   0  0  0  0  0  0  0  0  0  0  0  0
    1.4528  -12.7190   13.8747 C   0  0  2  0  0  0  0  0  0  0  0  0
    0.3629  -13.6212   13.6474 O   0  0  0  0  0  0  0  0  0  0  0  0
    1.3988  -12.0993   15.3246 C   0  0  2  0  0  0  0  0  0  0  0  0
    2.5657  -11.1474   15.5500 O   0  0  0  0  0  0  0  0  0  0  0  0
    1.4416  -13.1779   16.3807 C   0  0  0  0  0  0  0  0  0  0  0  0
    1.4971  -12.6455   17.7171 O   0  0  0  0  0  0  0  0  0  0  0  0
    5.3219   -8.8755   19.7913 O   0  0  0  0  0  0  0  0  0  0  0  0
    5.9965   -7.4341   22.1561 O   0  0  0  0  0  0  0  0  0  0  0  0
   -2.0724  -10.8587   15.8566 C   0  0  0  0  0  0  0  0  0  0  0  0
   -1.7801  -11.8449   16.5961 O   0  0  0  0  0  0  0  0  0  0  0  0
   -3.4746  -10.7022   15.1918 C   0  0  2  0  0  0  0  0  0  0  0  0
   -5.3566   -8.4340   17.7370 N   0  0  0  0  0  0  0  0  0  0  0  0
   -4.5410  -10.2504   16.2368 C   0  0  0  0  0  0  0  0  0  0  0  0
   -4.3506   -8.7999   16.7112 C   0  0  0  0  0  0  0  0  0  0  0  0
   -3.9138  -11.7950   14.7115 O   0  0  0  0  0  0  0  0  0  0  0  0
  1  2  1  1  0  0  0
  1  3  1  0  0  0  0
  1  8  1  0  0  0  0
  3  4  1  0  0  0  0
  3 32  1  1  0  0  0
  4  5  1  0  0  0  0
  4 33  1  1  0  0  0
  5  6  1  1  0  0  0
  5  7  1  0  0  0  0
  7  8  1  0  0  0  0
  7  9  1  6  0  0  0
  9 10  1  0  0  0  0
 11 12  1  6  0  0  0
 11 13  1  0  0  0  0
 11 19  1  0  0  0  0
 12 34  1  0  0  0  0
 13 14  1  0  0  0  0
 14 15  1  1  0  0  0
 14 16  1  0  0  0  0
 16  2  1  1  0  0  0
 16 17  1  0  0  0  0
 17 18  1  6  0  0  0
 17 19  1  0  0  0  0
 19 20  1  6  0  0  0
 21 20  1  6  0  0  0
 21 22  1  0  0  0  0
 21 29  1  0  0  0  0
 22 23  1  6  0  0  0
 22 24  1  0  0  0  0
 24 25  1  6  0  0  0
 24 26  1  0  0  0  0
 26 27  1  6  0  0  0
 26 28  1  0  0  0  0
 28 29  1  0  0  0  0
 28 30  1  1  0  0  0
 30 31  1  0  0  0  0
 34 35  2  0  0  0  0
 36 34  1  1  0  0  0
 36 38  1  0  0  0  0
 36 40  1  0  0  0  0
 37 39  1  0  0  0  0
 38 39  1  0  0  0  0
M  END
>  <CHROM.1>
-155.74390950,170.26193942,-64.77162550,-66.51507365,-89.85261476,169.56176550
175.55114161,-104.84880280,70.26332045,-177.97377885,1.37256918,-9.07874772
17.24655515,-1.02917779,-0.04689362,-2.26081531

>  <Name>
ligand

>  <RI>
0

>  <Rbt.Current_Directory>
/home/itssahil/PROJECTS/Mol_Feturizer/New_Systems/rnas/4P20

>  <Rbt.Executable>
rbdock ($Id: //depot/dev/client3/rdock/2013.1/src/exe/rbdock.cxx#4 $)

>  <Rbt.Library>
libRbt.so (2013.1, Build901 2013/11/27)

>  <Rbt.Parameter_File>
/export/apps/rDock/src/rDock_2013.1_src/data/scripts/dock_solv.prm

>  <Rbt.Receptor>
prm/pocket_docking_3.prm

>  <SCORE>
-14.9299

>  <SCORE.INTER>
-6.75673

>  <SCORE.INTER.CONST>
1

>  <SCORE.INTER.POLAR>
0

>  <SCORE.INTER.ROT>
10

>  <SCORE.INTER.SOLV>
23.1893

>  <SCORE.INTER.VDW>
-22.5009

>  <SCORE.INTER.norm>
-0.168918

>  <SCORE.INTRA>
-8.40495

>  <SCORE.INTRA.DIHEDRAL>
-18.4227

>  <SCORE.INTRA.DIHEDRAL.0>
28.2802

>  <SCORE.INTRA.POLAR>
0

>  <SCORE.INTRA.POLAR.0>
0

>  <SCORE.INTRA.REPUL>
0

>  <SCORE.INTRA.REPUL.0>
0

>  <SCORE.INTRA.SOLV>
-0.128684

>  <SCORE.INTRA.SOLV.lig_0>
-101.981

>  <SCORE.INTRA.VDW>
0.870735

>  <SCORE.INTRA.VDW.0>
-5.72964

>  <SCORE.INTRA.norm>
-0.210124

>  <SCORE.RESTR>
0.231812

>  <SCORE.RESTR.CAVITY>
0.231812

>  <SCORE.RESTR.norm>
0.00579529

>  <SCORE.SYSTEM>
0

>  <SCORE.SYSTEM.CONST>
0

>  <SCORE.SYSTEM.DIHEDRAL>
0

>  <SCORE.SYSTEM.SOLV>
0

>  <SCORE.SYSTEM.norm>
0

>  <SCORE.heavy>
40

>  <SCORE.norm>
-0.373247

>  <RMSD>
2.554

$$$$
ligand
 OpenBabel11021811513D
libRbt.so/2013.1/901 2013/11/27
 40 42  0  0  0  0  0  0  0  0999 V2000
    2.8871   -6.2915   18.9229 C   0  0  2  0  0  0  0  0  0  0  0  0
    1.6691   -6.9260   19.3433 O   0  0  0  0  0  0  0  0  0  0  0  0
    4.1351   -7.1540   19.3448 C   0  0  1  0  0  0  0  0  0  0  0  0
    4.2856   -7.2234   20.8926 C   0  0  2  0  0  0  0  0  0  0  0  0
    4.4579   -5.7634   21.4188 C   0  0  2  0  0  0  0  0  0  0  0  0
    4.6268   -5.7913   22.8524 O   0  0  0  0  0  0  0  0  0  0  0  0
    3.1650   -4.9272   21.0181 C   0  0  2  0  0  0  0  0  0  0  0  0
    3.0094   -4.9230   19.5195 O   0  0  0  0  0  0  0  0  0  0  0  0
    3.2451   -3.4760   21.4715 C   0  0  0  0  0  0  0  0  0  0  0  0
    1.9494   -2.7592   21.2521 N   0  0  0  0  0  0  0  0  0  0  0  0
   -1.0363   -9.6598   17.2132 C   0  0  2  0  0  0  0  0  0  0  0  0
   -2.0156  -10.1338   16.2631 N   0  0  0  0  0  0  0  0  0  0  0  0
   -1.6716   -8.5154   18.1017 C   0  0  0  0  0  0  0  0  0  0  0  0
   -0.6001   -7.9785   19.1527 C   0  0  2  0  0  0  0  0  0  0  0  0
   -1.2037   -6.9149   19.9976 N   0  0  0  0  0  0  0  0  0  0  0  0
    0.6807   -7.4342   18.3653 C   0  0  2  0  0  0  0  0  0  0  0  0
    1.2797   -8.6156   17.4892 C   0  0  2  0  0  0  0  0  0  0  0  0
    2.4282   -8.1396   16.7838 O   0  0  0  0  0  0  0  0  0  0  0  0
    0.2064   -9.1402   16.4557 C   0  0  1  0  0  0  0  0  0  0  0  0
    0.7612  -10.2310   15.6791 O   0  0  0  0  0  0  0  0  0  0  0  0
    1.2898  -11.4014   16.2040 C   0  0  2  0  0  0  0  0  0  0  0  0
    1.9897  -12.1718   15.0285 C   0  0  2  0  0  0  0  0  0  0  0  0
    2.9656  -11.3643   14.4534 O   0  0  0  0  0  0  0  0  0  0  0  0
    0.9428  -12.6684   13.9428 C   0  0  1  0  0  0  0  0  0  0  0  0
    1.6288  -13.4098   12.8397 N   0  0  0  0  0  0  0  0  0  0  0  0
   -0.1387  -13.5876   14.6614 C   0  0  2  0  0  0  0  0  0  0  0  0
   -1.1018  -14.0729   13.7178 O   0  0  0  0  0  0  0  0  0  0  0  0
   -0.8224  -12.7399   15.8029 C   0  0  2  0  0  0  0  0  0  0  0  0
    0.2144  -12.2365   16.7979 O   0  0  0  0  0  0  0  0  0  0  0  0
   -1.8520  -13.5567   16.5465 C   0  0  0  0  0  0  0  0  0  0  0  0
   -2.5160  -12.8063   17.5803 O   0  0  0  0  0  0  0  0  0  0  0  0
    3.9801   -8.4891   18.7814 O   0  0  0  0  0  0  0  0  0  0  0  0
    5.3932   -7.9748   21.2029 O   0  0  0  0  0  0  0  0  0  0  0  0
   -3.3726  -10.3542   16.7067 C   0  0  0  0  0  0  0  0  0  0  0  0
   -3.6078  -10.5606   17.9343 O   0  0  0  0  0  0  0  0  0  0  0  0
   -4.5042  -10.3327   15.6335 C   0  0  2  0  0  0  0  0  0  0  0  0
   -6.6031   -8.1770   16.2309 N   0  0  0  0  0  0  0  0  0  0  0  0
   -5.9001  -10.5680   16.2889 C   0  0  0  0  0  0  0  0  0  0  0  0
   -6.4021   -9.3615   17.0996 C   0  0  0  0  0  0  0  0  0  0  0  0
   -4.3767  -11.2566   14.7686 O   0  0  0  0  0  0  0  0  0  0  0  0
  1  2  1  1  0  0  0
  1  3  1  0  0  0  0
  1  8  1  0  0  0  0
  3  4  1  0  0  0  0
  3 32  1  1  0  0  0
  4  5  1  0  0  0  0
  4 33  1  6  0  0  0
  5  6  1  1  0  0  0
  5  7  1  0  0  0  0
  7  8  1  0  0  0  0
  7  9  1  6  0  0  0
  9 10  1  0  0  0  0
 11 12  1  6  0  0  0
 11 13  1  0  0  0  0
 11 19  1  0  0  0  0
 12 34  1  0  0  0  0
 13 14  1  0  0  0  0
 14 15  1  6  0  0  0
 14 16  1  0  0  0  0
 16  2  1  1  0  0  0
 16 17  1  0  0  0  0
 17 18  1  6  0  0  0
 17 19  1  0  0  0  0
 19 20  1  1  0  0  0
 21 20  1  6  0  0  0
 21 22  1  0  0  0  0
 21 29  1  0  0  0  0
 22 23  1  6  0  0  0
 22 24  1  0  0  0  0
 24 25  1  6  0  0  0
 24 26  1  0  0  0  0
 26 27  1  6  0  0  0
 26 28  1  0  0  0  0
 28 29  1  0  0  0  0
 28 30  1  1  0  0  0
 30 31  1  0  0  0  0
 34 35  2  0  0  0  0
 36 34  1  1  0  0  0
 36 38  1  0  0  0  0
 36 40  1  0  0  0  0
 37 39  1  0  0  0  0
 38 39  1  0  0  0  0
M  END
>  <CHROM.1>
-114.74985544,-175.79965207,-172.22963579,-43.12063712,-63.42605175,-170.37440243
-178.86654064,-179.23514871,72.59210746,63.01725966,0.26011831,-9.24106261
17.59951321,-0.92685257,0.06044766,-2.47733733

>  <Name>
ligand

>  <RI>
0

>  <Rbt.Current_Directory>
/home/itssahil/PROJECTS/Mol_Feturizer/New_Systems/rnas/4P20

>  <Rbt.Executable>
rbdock ($Id: //depot/dev/client3/rdock/2013.1/src/exe/rbdock.cxx#4 $)

>  <Rbt.Library>
libRbt.so (2013.1, Build901 2013/11/27)

>  <Rbt.Parameter_File>
/export/apps/rDock/src/rDock_2013.1_src/data/scripts/dock_solv.prm

>  <Rbt.Receptor>
prm/pocket_docking_2.prm

>  <SCORE>
-7.45536

>  <SCORE.INTER>
-3.20137

>  <SCORE.INTER.CONST>
1

>  <SCORE.INTER.POLAR>
0

>  <SCORE.INTER.ROT>
10

>  <SCORE.INTER.SOLV>
22.1693

>  <SCORE.INTER.VDW>
-19.7907

>  <SCORE.INTER.norm>
-0.0800343

>  <SCORE.INTRA>
-5.73376

>  <SCORE.INTRA.DIHEDRAL>
-18.8083

>  <SCORE.INTRA.DIHEDRAL.0>
28.2802

>  <SCORE.INTRA.POLAR>
0

>  <SCORE.INTRA.POLAR.0>
0

>  <SCORE.INTRA.REPUL>
0

>  <SCORE.INTRA.REPUL.0>
0

>  <SCORE.INTRA.SOLV>
1.85943

>  <SCORE.INTRA.SOLV.lig_0>
-101.981

>  <SCORE.INTRA.VDW>
2.74065

>  <SCORE.INTRA.VDW.0>
-5.72964

>  <SCORE.INTRA.norm>
-0.143344

>  <SCORE.RESTR>
1.47977

>  <SCORE.RESTR.CAVITY>
1.47977

>  <SCORE.RESTR.norm>
0.0369943

>  <SCORE.SYSTEM>
0

>  <SCORE.SYSTEM.CONST>
0

>  <SCORE.SYSTEM.DIHEDRAL>
0

>  <SCORE.SYSTEM.SOLV>
0

>  <SCORE.SYSTEM.norm>
0

>  <SCORE.heavy>
40

>  <SCORE.norm>
-0.186384

>  <RMSD>
2.568

$$$$
ligand
 OpenBabel11021811513D
libRbt.so/2013.1/901 2013/11/27
 40 42  0  0  0  0  0  0  0  0999 V2000
    4.0420   -7.2824   19.7049 C   0  0  2  0  0  0  0  0  0  0  0  0
    2.7088   -7.7620   19.9403 O   0  0  0  0  0  0  0  0  0  0  0  0
    5.0412   -7.8818   20.7641 C   0  0  1  0  0  0  0  0  0  0  0  0
    4.7271   -7.3703   22.2002 C   0  0  2  0  0  0  0  0  0  0  0  0
    4.8513   -5.8138   22.1876 C   0  0  2  0  0  0  0  0  0  0  0  0
    4.5914   -5.3051   23.5136 O   0  0  0  0  0  0  0  0  0  0  0  0
    3.8011   -5.2327   21.1433 C   0  0  2  0  0  0  0  0  0  0  0  0
    4.0908   -5.7869   19.7725 O   0  0  0  0  0  0  0  0  0  0  0  0
    3.8580   -3.7146   21.0419 C   0  0  0  0  0  0  0  0  0  0  0  0
    2.7483   -3.1784   20.1923 N   0  0  0  0  0  0  0  0  0  0  0  0
   -0.3923   -9.5811   17.4096 C   0  0  2  0  0  0  0  0  0  0  0  0
   -1.3378   -9.7496   16.3307 N   0  0  0  0  0  0  0  0  0  0  0  0
   -0.7654   -8.2894   18.2434 C   0  0  0  0  0  0  0  0  0  0  0  0
    0.2730   -8.0875   19.4357 C   0  0  2  0  0  0  0  0  0  0  0  0
   -0.0886   -6.8829   20.2279 N   0  0  0  0  0  0  0  0  0  0  0  0
    1.7481   -7.9607   18.8316 C   0  0  2  0  0  0  0  0  0  0  0  0
    2.0742   -9.2766   18.0045 C   0  0  2  0  0  0  0  0  0  0  0  0
    3.3932   -9.1745   17.4631 O   0  0  0  0  0  0  0  0  0  0  0  0
    1.0355   -9.4662   16.8296 C   0  0  1  0  0  0  0  0  0  0  0  0
    1.3341  -10.6813   16.0982 O   0  0  0  0  0  0  0  0  0  0  0  0
    2.6070  -11.1439   15.7972 C   0  0  2  0  0  0  0  0  0  0  0  0
    3.1091  -10.3566   14.5351 C   0  0  2  0  0  0  0  0  0  0  0  0
    3.0931   -8.9905   14.7971 O   0  0  0  0  0  0  0  0  0  0  0  0
    2.2520  -10.7033   13.2441 C   0  0  1  0  0  0  0  0  0  0  0  0
    2.7547   -9.9528   12.0521 N   0  0  0  0  0  0  0  0  0  0  0  0
    2.3153  -12.2738   12.9976 C   0  0  2  0  0  0  0  0  0  0  0  0
    1.5650  -12.6366   11.8319 O   0  0  0  0  0  0  0  0  0  0  0  0
    1.7654  -12.9955   14.2882 C   0  0  2  0  0  0  0  0  0  0  0  0
    2.5765  -12.6021   15.5153 O   0  0  0  0  0  0  0  0  0  0  0  0
    1.8137  -14.4972   14.1357 C   0  0  0  0  0  0  0  0  0  0  0  0
    0.9172  -14.9818   13.1188 O   0  0  0  0  0  0  0  0  0  0  0  0
    4.9540   -9.3354   20.7038 O   0  0  0  0  0  0  0  0  0  0  0  0
    5.6337   -7.9128   23.0785 O   0  0  0  0  0  0  0  0  0  0  0  0
   -2.4007  -10.7172   16.4753 C   0  0  0  0  0  0  0  0  0  0  0  0
   -2.2682  -11.6811   17.2868 O   0  0  0  0  0  0  0  0  0  0  0  0
   -3.6821  -10.5295   15.6064 C   0  0  2  0  0  0  0  0  0  0  0  0
   -5.5548   -7.8942   17.7772 N   0  0  0  0  0  0  0  0  0  0  0  0
   -4.4272   -9.2128   15.9871 C   0  0  0  0  0  0  0  0  0  0  0  0
   -4.8004   -9.1347   17.4769 C   0  0  0  0  0  0  0  0  0  0  0  0
   -4.5317  -11.4604   15.7786 O   0  0  0  0  0  0  0  0  0  0  0  0
  1  2  1  1  0  0  0
  1  3  1  0  0  0  0
  1  8  1  0  0  0  0
  3  4  1  0  0  0  0
  3 32  1  1  0  0  0
  4  5  1  0  0  0  0
  4 33  1  1  0  0  0
  5  6  1  1  0  0  0
  5  7  1  0  0  0  0
  7  8  1  0  0  0  0
  7  9  1  6  0  0  0
  9 10  1  0  0  0  0
 11 12  1  6  0  0  0
 11 13  1  0  0  0  0
 11 19  1  0  0  0  0
 12 34  1  0  0  0  0
 13 14  1  0  0  0  0
 14 15  1  6  0  0  0
 14 16  1  0  0  0  0
 16  2  1  1  0  0  0
 16 17  1  0  0  0  0
 17 18  1  6  0  0  0
 17 19  1  0  0  0  0
 19 20  1  1  0  0  0
 21 20  1  6  0  0  0
 21 22  1  0  0  0  0
 21 29  1  0  0  0  0
 22 23  1  1  0  0  0
 22 24  1  0  0  0  0
 24 25  1  6  0  0  0
 24 26  1  0  0  0  0
 26 27  1  6  0  0  0
 26 28  1  0  0  0  0
 28 29  1  0  0  0  0
 28 30  1  6  0  0  0
 30 31  1  0  0  0  0
 34 35  2  0  0  0  0
 36 34  1  1  0  0  0
 36 38  1  0  0  0  0
 36 40  1  0  0  0  0
 37 39  1  0  0  0  0
 38 39  1  0  0  0  0
M  END
>  <CHROM.1>
-148.55334441,-163.96883812,-172.61645846,-101.07289526,-158.67302854,-80.93372457
-66.26719926,-64.35556072,-56.31099879,-177.61829933,1.41046923,-9.21476636
17.54811362,-1.10120809,0.05085482,-2.28163592

>  <Name>
ligand

>  <RI>
0

>  <Rbt.Current_Directory>
/home/itssahil/PROJECTS/Mol_Feturizer/New_Systems/rnas/4P20

>  <Rbt.Executable>
rbdock ($Id: //depot/dev/client3/rdock/2013.1/src/exe/rbdock.cxx#4 $)

>  <Rbt.Library>
libRbt.so (2013.1, Build901 2013/11/27)

>  <Rbt.Parameter_File>
/export/apps/rDock/src/rDock_2013.1_src/data/scripts/dock_solv.prm

>  <Rbt.Receptor>
prm/pocket_docking_3.prm

>  <SCORE>
-12.8085

>  <SCORE.INTER>
-6.32387

>  <SCORE.INTER.CONST>
1

>  <SCORE.INTER.POLAR>
0

>  <SCORE.INTER.ROT>
10

>  <SCORE.INTER.SOLV>
24.8422

>  <SCORE.INTER.VDW>
-22.7633

>  <SCORE.INTER.norm>
-0.158097

>  <SCORE.INTRA>
-6.48463

>  <SCORE.INTRA.DIHEDRAL>
-17.0762

>  <SCORE.INTRA.DIHEDRAL.0>
28.2802

>  <SCORE.INTRA.POLAR>
0

>  <SCORE.INTRA.POLAR.0>
0

>  <SCORE.INTRA.REPUL>
0

>  <SCORE.INTRA.REPUL.0>
0

>  <SCORE.INTRA.SOLV>
-1.30039

>  <SCORE.INTRA.SOLV.lig_0>
-101.981

>  <SCORE.INTRA.VDW>
2.70365

>  <SCORE.INTRA.VDW.0>
-5.72964

>  <SCORE.INTRA.norm>
-0.162116

>  <SCORE.RESTR>
0

>  <SCORE.RESTR.CAVITY>
0

>  <SCORE.RESTR.norm>
0

>  <SCORE.SYSTEM>
0

>  <SCORE.SYSTEM.CONST>
0

>  <SCORE.SYSTEM.DIHEDRAL>
0

>  <SCORE.SYSTEM.SOLV>
0

>  <SCORE.SYSTEM.norm>
0

>  <SCORE.heavy>
40

>  <SCORE.norm>
-0.320212

>  <RMSD>
2.576

$$$$
ligand
 OpenBabel11021811513D
libRbt.so/2013.1/901 2013/11/27
 40 42  0  0  0  0  0  0  0  0999 V2000
    3.6297   -6.1130   19.4166 C   0  0  2  0  0  0  0  0  0  0  0  0
    2.4121   -6.8124   19.7188 O   0  0  0  0  0  0  0  0  0  0  0  0
    4.8710   -6.8827   20.0049 C   0  0  1  0  0  0  0  0  0  0  0  0
    4.8478   -6.9008   21.5612 C   0  0  2  0  0  0  0  0  0  0  0  0
    4.8706   -5.4192   22.0537 C   0  0  2  0  0  0  0  0  0  0  0  0
    4.8761   -5.3978   23.4973 O   0  0  0  0  0  0  0  0  0  0  0  0
    3.5839   -4.6781   21.4823 C   0  0  2  0  0  0  0  0  0  0  0  0
    3.6004   -4.7240   19.9764 O   0  0  0  0  0  0  0  0  0  0  0  0
    3.5241   -3.2131   21.8924 C   0  0  0  0  0  0  0  0  0  0  0  0
    2.2427   -2.5726   21.4584 N   0  0  0  0  0  0  0  0  0  0  0  0
   -0.1261   -9.2349   17.0695 C   0  0  2  0  0  0  0  0  0  0  0  0
   -1.0881   -9.5715   16.0460 N   0  0  0  0  0  0  0  0  0  0  0  0
   -0.8259   -8.3596   18.1862 C   0  0  0  0  0  0  0  0  0  0  0  0
    0.2255   -7.9759   19.3212 C   0  0  2  0  0  0  0  0  0  0  0  0
   -0.4376   -7.1675   20.3778 N   0  0  0  0  0  0  0  0  0  0  0  0
    1.4431   -7.1771   18.6607 C   0  0  2  0  0  0  0  0  0  0  0  0
    2.1097   -8.0939   17.5485 C   0  0  2  0  0  0  0  0  0  0  0  0
    3.2024   -7.3896   16.9544 O   0  0  0  0  0  0  0  0  0  0  0  0
    1.0560   -8.4695   16.4332 C   0  0  1  0  0  0  0  0  0  0  0  0
    1.6740   -9.3227   15.4379 O   0  0  0  0  0  0  0  0  0  0  0  0
    2.1913  -10.5879   15.6757 C   0  0  2  0  0  0  0  0  0  0  0  0
    3.3310  -10.8370   14.6250 C   0  0  2  0  0  0  0  0  0  0  0  0
    4.2977   -9.8429   14.7366 O   0  0  0  0  0  0  0  0  0  0  0  0
    2.7612  -10.9198   13.1452 C   0  0  1  0  0  0  0  0  0  0  0  0
    3.8609  -11.1697   12.1629 N   0  0  0  0  0  0  0  0  0  0  0  0
    1.6686  -12.0746   13.0842 C   0  0  2  0  0  0  0  0  0  0  0  0
    1.1317  -12.1979   11.7613 O   0  0  0  0  0  0  0  0  0  0  0  0
    0.5424  -11.7406   14.1374 C   0  0  2  0  0  0  0  0  0  0  0  0
    1.1297  -11.6176   15.5369 O   0  0  0  0  0  0  0  0  0  0  0  0
   -0.5253  -12.8084   14.1513 C   0  0  0  0  0  0  0  0  0  0  0  0
   -0.0066  -14.1089   14.4870 O   0  0  0  0  0  0  0  0  0  0  0  0
    4.8621   -8.2396   19.4732 O   0  0  0  0  0  0  0  0  0  0  0  0
    5.9560   -7.5716   22.0192 O   0  0  0  0  0  0  0  0  0  0  0  0
   -2.0807  -10.5839   16.3232 C   0  0  0  0  0  0  0  0  0  0  0  0
   -1.8627  -11.4496   17.2220 O   0  0  0  0  0  0  0  0  0  0  0  0
   -3.3954  -10.5664   15.4842 C   0  0  2  0  0  0  0  0  0  0  0  0
   -5.1988   -8.3844   16.8104 N   0  0  0  0  0  0  0  0  0  0  0  0
   -4.6429  -10.7790   16.3963 C   0  0  0  0  0  0  0  0  0  0  0  0
   -4.8242   -9.6702   17.4464 C   0  0  0  0  0  0  0  0  0  0  0  0
   -3.4410  -11.5035   14.6252 O   0  0  0  0  0  0  0  0  0  0  0  0
  1  2  1  1  0  0  0
  1  3  1  0  0  0  0
  1  8  1  0  0  0  0
  3  4  1  0  0  0  0
  3 32  1  6  0  0  0
  4  5  1  0  0  0  0
  4 33  1  1  0  0  0
  5  6  1  1  0  0  0
  5  7  1  0  0  0  0
  7  8  1  0  0  0  0
  7  9  1  6  0  0  0
  9 10  1  0  0  0  0
 11 12  1  6  0  0  0
 11 13  1  0  0  0  0
 11 19  1  0  0  0  0
 12 34  1  0  0  0  0
 13 14  1  0  0  0  0
 14 15  1  1  0  0  0
 14 16  1  0  0  0  0
 16  2  1  1  0  0  0
 16 17  1  0  0  0  0
 17 18  1  6  0  0  0
 17 19  1  0  0  0  0
 19 20  1  6  0  0  0
 21 20  1  6  0  0  0
 21 22  1  0  0  0  0
 21 29  1  0  0  0  0
 22 23  1  6  0  0  0
 22 24  1  0  0  0  0
 24 25  1  6  0  0  0
 24 26  1  0  0  0  0
 26 27  1  6  0  0  0
 26 28  1  0  0  0  0
 28 29  1  0  0  0  0
 28 30  1  1  0  0  0
 30 31  1  0  0  0  0
 34 35  2  0  0  0  0
 36 34  1  1  0  0  0
 36 38  1  0  0  0  0
 36 40  1  0  0  0  0
 37 39  1  0  0  0  0
 38 39  1  0  0  0  0
M  END
>  <CHROM.1>
-126.86939037,178.46019616,-174.40955938,-74.95482235,-57.08245098,-152.25317688
59.83749875,-135.60948722,62.09811062,68.76825605,1.31380241,-8.82265353
17.40879021,-1.08195660,-0.07405148,-2.26176232

>  <Name>
ligand

>  <RI>
0

>  <Rbt.Current_Directory>
/home/itssahil/PROJECTS/Mol_Feturizer/New_Systems/rnas/4P20

>  <Rbt.Executable>
rbdock ($Id: //depot/dev/client3/rdock/2013.1/src/exe/rbdock.cxx#4 $)

>  <Rbt.Library>
libRbt.so (2013.1, Build901 2013/11/27)

>  <Rbt.Parameter_File>
/export/apps/rDock/src/rDock_2013.1_src/data/scripts/dock_solv.prm

>  <Rbt.Receptor>
prm/pocket_docking_3.prm

>  <SCORE>
-16.4068

>  <SCORE.INTER>
-9.36506

>  <SCORE.INTER.CONST>
1

>  <SCORE.INTER.POLAR>
0

>  <SCORE.INTER.ROT>
10

>  <SCORE.INTER.SOLV>
22.7195

>  <SCORE.INTER.VDW>
-24.0832

>  <SCORE.INTER.norm>
-0.234127

>  <SCORE.INTRA>
-7.04799

>  <SCORE.INTRA.DIHEDRAL>
-15.2867

>  <SCORE.INTRA.DIHEDRAL.0>
28.2802

>  <SCORE.INTRA.POLAR>
0

>  <SCORE.INTRA.POLAR.0>
0

>  <SCORE.INTRA.REPUL>
0

>  <SCORE.INTRA.REPUL.0>
0

>  <SCORE.INTRA.SOLV>
0.802808

>  <SCORE.INTRA.SOLV.lig_0>
-101.981

>  <SCORE.INTRA.VDW>
0.193971

>  <SCORE.INTRA.VDW.0>
-5.72964

>  <SCORE.INTRA.norm>
-0.1762

>  <SCORE.RESTR>
0.00624599

>  <SCORE.RESTR.CAVITY>
0.00624599

>  <SCORE.RESTR.norm>
0.00015615

>  <SCORE.SYSTEM>
0

>  <SCORE.SYSTEM.CONST>
0

>  <SCORE.SYSTEM.DIHEDRAL>
0

>  <SCORE.SYSTEM.SOLV>
0

>  <SCORE.SYSTEM.norm>
0

>  <SCORE.heavy>
40

>  <SCORE.norm>
-0.41017

>  <RMSD>
2.591

$$$$
ligand
 OpenBabel11021811513D
libRbt.so/2013.1/901 2013/11/27
 40 42  0  0  0  0  0  0  0  0999 V2000
    3.4525   -6.0109   19.4523 C   0  0  2  0  0  0  0  0  0  0  0  0
    2.3117   -6.8362   19.7360 O   0  0  0  0  0  0  0  0  0  0  0  0
    4.7783   -6.7180   19.9228 C   0  0  1  0  0  0  0  0  0  0  0  0
    4.8263   -6.8716   21.4711 C   0  0  2  0  0  0  0  0  0  0  0  0
    4.7484   -5.4413   22.0927 C   0  0  2  0  0  0  0  0  0  0  0  0
    4.8166   -5.5435   23.5313 O   0  0  0  0  0  0  0  0  0  0  0  0
    3.3804   -4.7679   21.6381 C   0  0  2  0  0  0  0  0  0  0  0  0
    3.3333   -4.6828   20.1346 O   0  0  0  0  0  0  0  0  0  0  0  0
    3.2180   -3.3541   22.1794 C   0  0  0  0  0  0  0  0  0  0  0  0
    4.0961   -2.3833   21.4534 N   0  0  0  0  0  0  0  0  0  0  0  0
   -0.1724   -9.2558   17.0333 C   0  0  2  0  0  0  0  0  0  0  0  0
   -1.1425   -9.5919   16.0174 N   0  0  0  0  0  0  0  0  0  0  0  0
   -0.8853   -8.4693   18.2064 C   0  0  0  0  0  0  0  0  0  0  0  0
    0.1747   -8.0871   19.3339 C   0  0  2  0  0  0  0  0  0  0  0  0
   -0.4997   -7.3627   20.4428 N   0  0  0  0  0  0  0  0  0  0  0  0
    1.3350   -7.1989   18.6844 C   0  0  2  0  0  0  0  0  0  0  0  0
    2.0169   -8.0287   17.5146 C   0  0  2  0  0  0  0  0  0  0  0  0
    3.0587   -7.2441   16.9297 O   0  0  0  0  0  0  0  0  0  0  0  0
    0.9547   -8.4039   16.4072 C   0  0  1  0  0  0  0  0  0  0  0  0
    1.5880   -9.1781   15.3583 O   0  0  0  0  0  0  0  0  0  0  0  0
    2.4460  -10.2497   15.5591 C   0  0  2  0  0  0  0  0  0  0  0  0
    3.3777  -10.3508   14.2994 C   0  0  2  0  0  0  0  0  0  0  0  0
    4.0627   -9.1527   14.1251 O   0  0  0  0  0  0  0  0  0  0  0  0
    2.5635  -10.7416   12.9934 C   0  0  1  0  0  0  0  0  0  0  0  0
    3.4713  -10.8445   11.8092 N   0  0  0  0  0  0  0  0  0  0  0  0
    1.8101  -12.1181   13.2559 C   0  0  2  0  0  0  0  0  0  0  0  0
    1.0688  -12.5214   12.0978 O   0  0  0  0  0  0  0  0  0  0  0  0
    0.8702  -11.9316   14.5092 C   0  0  2  0  0  0  0  0  0  0  0  0
    1.6747  -11.5076   15.7305 O   0  0  0  0  0  0  0  0  0  0  0  0
    0.1334  -13.2093   14.8332 C   0  0  0  0  0  0  0  0  0  0  0  0
   -0.9121  -13.5032   13.8880 O   0  0  0  0  0  0  0  0  0  0  0  0
    4.8580   -8.0200   19.2728 O   0  0  0  0  0  0  0  0  0  0  0  0
    6.0056   -7.4809   21.8257 O   0  0  0  0  0  0  0  0  0  0  0  0
   -2.1132  -10.6264   16.2903 C   0  0  0  0  0  0  0  0  0  0  0  0
   -1.8673  -11.5036   17.1708 O   0  0  0  0  0  0  0  0  0  0  0  0
   -3.4396  -10.6179   15.4699 C   0  0  2  0  0  0  0  0  0  0  0  0
   -6.7841   -8.6943   15.9993 N   0  0  0  0  0  0  0  0  0  0  0  0
   -4.4859   -9.6538   16.1097 C   0  0  0  0  0  0  0  0  0  0  0  0
   -5.8326   -9.6393   15.3672 C   0  0  0  0  0  0  0  0  0  0  0  0
   -4.0041  -11.7574   15.4394 O   0  0  0  0  0  0  0  0  0  0  0  0
  1  2  1  1  0  0  0
  1  3  1  0  0  0  0
  1  8  1  0  0  0  0
  3  4  1  0  0  0  0
  3 32  1  6  0  0  0
  4  5  1  0  0  0  0
  4 33  1  6  0  0  0
  5  6  1  1  0  0  0
  5  7  1  0  0  0  0
  7  8  1  0  0  0  0
  7  9  1  1  0  0  0
  9 10  1  0  0  0  0
 11 12  1  6  0  0  0
 11 13  1  0  0  0  0
 11 19  1  0  0  0  0
 12 34  1  0  0  0  0
 13 14  1  0  0  0  0
 14 15  1  1  0  0  0
 14 16  1  0  0  0  0
 16  2  1  1  0  0  0
 16 17  1  0  0  0  0
 17 18  1  6  0  0  0
 17 19  1  0  0  0  0
 19 20  1  6  0  0  0
 21 20  1  6  0  0  0
 21 22  1  0  0  0  0
 21 29  1  0  0  0  0
 22 23  1  6  0  0  0
 22 24  1  0  0  0  0
 24 25  1  6  0  0  0
 24 26  1  0  0  0  0
 26 27  1  6  0  0  0
 26 28  1  0  0  0  0
 28 29  1  0  0  0  0
 28 30  1  1  0  0  0
 30 31  1  0  0  0  0
 34 35  2  0  0  0  0
 36 34  1  1  0  0  0
 36 38  1  0  0  0  0
 36 40  1  0  0  0  0
 37 39  1  0  0  0  0
 38 39  1  0  0  0  0
M  END
>  <CHROM.1>
-126.43310440,-178.54369939,74.33195163,-72.40806092,-73.72471670,-154.17446845
-72.92923461,-84.29260793,-178.12569731,-179.10789174,1.23060467,-8.75617902
17.33887888,-1.01883489,-0.06467133,-2.24783403

>  <Name>
ligand

>  <RI>
0

>  <Rbt.Current_Directory>
/home/itssahil/PROJECTS/Mol_Feturizer/New_Systems/rnas/4P20

>  <Rbt.Executable>
rbdock ($Id: //depot/dev/client3/rdock/2013.1/src/exe/rbdock.cxx#4 $)

>  <Rbt.Library>
libRbt.so (2013.1, Build901 2013/11/27)

>  <Rbt.Parameter_File>
/export/apps/rDock/src/rDock_2013.1_src/data/scripts/dock_solv.prm

>  <Rbt.Receptor>
prm/pocket_docking_3.prm

>  <SCORE>
-12.691

>  <SCORE.INTER>
-6.54267

>  <SCORE.INTER.CONST>
1

>  <SCORE.INTER.POLAR>
0

>  <SCORE.INTER.ROT>
10

>  <SCORE.INTER.SOLV>
25.5967

>  <SCORE.INTER.VDW>
-23.1607

>  <SCORE.INTER.norm>
-0.163567

>  <SCORE.INTRA>
-6.248

>  <SCORE.INTRA.DIHEDRAL>
-14.7567

>  <SCORE.INTRA.DIHEDRAL.0>
28.2802

>  <SCORE.INTRA.POLAR>
0

>  <SCORE.INTRA.POLAR.0>
0

>  <SCORE.INTRA.REPUL>
0

>  <SCORE.INTRA.REPUL.0>
0

>  <SCORE.INTRA.SOLV>
0.373251

>  <SCORE.INTRA.SOLV.lig_0>
-101.981

>  <SCORE.INTRA.VDW>
0.943729

>  <SCORE.INTRA.VDW.0>
-5.72964

>  <SCORE.INTRA.norm>
-0.1562

>  <SCORE.RESTR>
0.0996333

>  <SCORE.RESTR.CAVITY>
0.0996333

>  <SCORE.RESTR.norm>
0.00249083

>  <SCORE.SYSTEM>
0

>  <SCORE.SYSTEM.CONST>
0

>  <SCORE.SYSTEM.DIHEDRAL>
0

>  <SCORE.SYSTEM.SOLV>
0

>  <SCORE.SYSTEM.norm>
0

>  <SCORE.heavy>
40

>  <SCORE.norm>
-0.317276

>  <RMSD>
2.600

$$$$
ligand
 OpenBabel11021811513D
libRbt.so/2013.1/901 2013/11/27
 40 42  0  0  0  0  0  0  0  0999 V2000
    3.3330   -5.7990   19.2776 C   0  0  2  0  0  0  0  0  0  0  0  0
    2.3254   -6.7609   19.6277 O   0  0  0  0  0  0  0  0  0  0  0  0
    4.6159   -5.9914   20.1700 C   0  0  1  0  0  0  0  0  0  0  0  0
    4.3251   -5.6739   21.6658 C   0  0  2  0  0  0  0  0  0  0  0  0
    3.8468   -4.1900   21.7521 C   0  0  2  0  0  0  0  0  0  0  0  0
    3.5919   -3.8518   23.1323 O   0  0  0  0  0  0  0  0  0  0  0  0
    2.5259   -4.0346   20.8788 C   0  0  2  0  0  0  0  0  0  0  0  0
    2.8193   -4.4023   19.4474 O   0  0  0  0  0  0  0  0  0  0  0  0
    1.9886   -2.6100   20.8819 C   0  0  0  0  0  0  0  0  0  0  0  0
    2.9896   -1.6439   20.3292 N   0  0  0  0  0  0  0  0  0  0  0  0
   -0.6426   -9.1107   17.3918 C   0  0  2  0  0  0  0  0  0  0  0  0
   -1.7335   -9.4224   16.4977 N   0  0  0  0  0  0  0  0  0  0  0  0
   -1.1555   -8.1467   18.5365 C   0  0  0  0  0  0  0  0  0  0  0  0
    0.0395   -7.7897   19.5292 C   0  0  2  0  0  0  0  0  0  0  0  0
   -0.4479   -6.8973   20.6134 N   0  0  0  0  0  0  0  0  0  0  0  0
    1.2219   -7.1014   18.7014 C   0  0  2  0  0  0  0  0  0  0  0  0
    1.6998   -8.1044   17.5667 C   0  0  2  0  0  0  0  0  0  0  0  0
    2.7599   -7.4992   16.8231 O   0  0  0  0  0  0  0  0  0  0  0  0
    0.5052   -8.4524   16.5935 C   0  0  1  0  0  0  0  0  0  0  0  0
    0.9521   -9.3841   15.5772 O   0  0  0  0  0  0  0  0  0  0  0  0
    1.6287  -10.5709   15.8190 C   0  0  2  0  0  0  0  0  0  0  0  0
    1.9977  -11.1959   14.4268 C   0  0  2  0  0  0  0  0  0  0  0  0
    2.7623  -10.2930   13.6950 O   0  0  0  0  0  0  0  0  0  0  0  0
    0.7053  -11.6406   13.6186 C   0  0  1  0  0  0  0  0  0  0  0  0
    1.0800  -12.2440   12.3024 N   0  0  0  0  0  0  0  0  0  0  0  0
   -0.1194  -12.6727   14.5051 C   0  0  2  0  0  0  0  0  0  0  0  0
   -1.2928  -13.1152   13.8117 O   0  0  0  0  0  0  0  0  0  0  0  0
   -0.4838  -11.9670   15.8682 C   0  0  2  0  0  0  0  0  0  0  0  0
    0.7741  -11.5076   16.5929 O   0  0  0  0  0  0  0  0  0  0  0  0
   -1.2539  -12.8970   16.7751 C   0  0  0  0  0  0  0  0  0  0  0  0
   -2.5549  -13.2290   16.2555 O   0  0  0  0  0  0  0  0  0  0  0  0
    5.0796   -7.3643   20.0149 O   0  0  0  0  0  0  0  0  0  0  0  0
    5.4778   -5.8453   22.3937 O   0  0  0  0  0  0  0  0  0  0  0  0
   -2.9064  -10.0797   17.0261 C   0  0  0  0  0  0  0  0  0  0  0  0
   -2.8223  -10.7532   18.0958 O   0  0  0  0  0  0  0  0  0  0  0  0
   -4.2439   -9.9311   16.2378 C   0  0  2  0  0  0  0  0  0  0  0  0
   -7.2102   -8.9469   15.9945 N   0  0  0  0  0  0  0  0  0  0  0  0
   -4.7858   -8.4710   16.3272 C   0  0  0  0  0  0  0  0  0  0  0  0
   -6.0297   -8.2299   15.4556 C   0  0  0  0  0  0  0  0  0  0  0  0
   -5.1719  -10.6653   16.7046 O   0  0  0  0  0  0  0  0  0  0  0  0
  1  2  1  1  0  0  0
  1  3  1  0  0  0  0
  1  8  1  0  0  0  0
  3  4  1  0  0  0  0
  3 32  1  1  0  0  0
  4  5  1  0  0  0  0
  4 33  1  1  0  0  0
  5  6  1  1  0  0  0
  5  7  1  0  0  0  0
  7  8  1  0  0  0  0
  7  9  1  6  0  0  0
  9 10  1  0  0  0  0
 11 12  1  6  0  0  0
 11 13  1  0  0  0  0
 11 19  1  0  0  0  0
 12 34  1  0  0  0  0
 13 14  1  0  0  0  0
 14 15  1  1  0  0  0
 14 16  1  0  0  0  0
 16  2  1  1  0  0  0
 16 17  1  0  0  0  0
 17 18  1  6  0  0  0
 17 19  1  0  0  0  0
 19 20  1  6  0  0  0
 21 20  1  6  0  0  0
 21 22  1  0  0  0  0
 21 29  1  0  0  0  0
 22 23  1  6  0  0  0
 22 24  1  0  0  0  0
 24 25  1  6  0  0  0
 24 26  1  0  0  0  0
 26 27  1  6  0  0  0
 26 28  1  0  0  0  0
 28 29  1  0  0  0  0
 28 30  1  1  0  0  0
 30 31  1  0  0  0  0
 34 35  2  0  0  0  0
 36 34  1  1  0  0  0
 36 38  1  0  0  0  0
 36 40  1  0  0  0  0
 37 39  1  0  0  0  0
 38 39  1  0  0  0  0
M  END
>  <CHROM.1>
-160.09004755,-161.22776696,59.95394085,-59.93781320,-69.12709676,-176.02614968
-66.30189018,-69.38502730,174.35417405,69.60913887,0.42385066,-8.47477169
17.68144860,-0.97649525,0.00356124,-2.43229522

>  <Name>
ligand

>  <RI>
0

>  <Rbt.Current_Directory>
/home/itssahil/PROJECTS/Mol_Feturizer/New_Systems/rnas/4P20

>  <Rbt.Executable>
rbdock ($Id: //depot/dev/client3/rdock/2013.1/src/exe/rbdock.cxx#4 $)

>  <Rbt.Library>
libRbt.so (2013.1, Build901 2013/11/27)

>  <Rbt.Parameter_File>
/export/apps/rDock/src/rDock_2013.1_src/data/scripts/dock_solv.prm

>  <Rbt.Receptor>
prm/pocket_docking_3.prm

>  <SCORE>
-14.0526

>  <SCORE.INTER>
-5.07807

>  <SCORE.INTER.CONST>
1

>  <SCORE.INTER.POLAR>
0

>  <SCORE.INTER.ROT>
10

>  <SCORE.INTER.SOLV>
28.1672

>  <SCORE.INTER.VDW>
-23.0411

>  <SCORE.INTER.norm>
-0.126952

>  <SCORE.INTRA>
-8.982

>  <SCORE.INTRA.DIHEDRAL>
-22.9022

>  <SCORE.INTRA.DIHEDRAL.0>
28.2802

>  <SCORE.INTRA.POLAR>
0

>  <SCORE.INTRA.POLAR.0>
0

>  <SCORE.INTRA.REPUL>
0

>  <SCORE.INTRA.REPUL.0>
0

>  <SCORE.INTRA.SOLV>
3.12866

>  <SCORE.INTRA.SOLV.lig_0>
-101.981

>  <SCORE.INTRA.VDW>
0.904773

>  <SCORE.INTRA.VDW.0>
-5.72964

>  <SCORE.INTRA.norm>
-0.22455

>  <SCORE.RESTR>
0.00748189

>  <SCORE.RESTR.CAVITY>
0.00748189

>  <SCORE.RESTR.norm>
0.000187047

>  <SCORE.SYSTEM>
0

>  <SCORE.SYSTEM.CONST>
0

>  <SCORE.SYSTEM.DIHEDRAL>
0

>  <SCORE.SYSTEM.SOLV>
0

>  <SCORE.SYSTEM.norm>
0

>  <SCORE.heavy>
40

>  <SCORE.norm>
-0.351315

>  <RMSD>
2.665

$$$$
ligand
 OpenBabel11021811513D
libRbt.so/2013.1/901 2013/11/27
 40 42  0  0  0  0  0  0  0  0999 V2000
    3.8271   -6.1506   19.4719 C   0  0  2  0  0  0  0  0  0  0  0  0
    2.6264   -6.8877   19.7510 O   0  0  0  0  0  0  0  0  0  0  0  0
    4.9162   -6.4279   20.5748 C   0  0  1  0  0  0  0  0  0  0  0  0
    4.4765   -5.8795   21.9636 C   0  0  2  0  0  0  0  0  0  0  0  0
    4.2599   -4.3399   21.8192 C   0  0  2  0  0  0  0  0  0  0  0  0
    3.8753   -3.7916   23.0982 O   0  0  0  0  0  0  0  0  0  0  0  0
    3.1246   -4.0902   20.7327 C   0  0  2  0  0  0  0  0  0  0  0  0
    3.5489   -4.6800   19.4127 O   0  0  0  0  0  0  0  0  0  0  0  0
    2.8521   -2.6099   20.5033 C   0  0  0  0  0  0  0  0  0  0  0  0
    2.3224   -1.9507   21.7384 N   0  0  0  0  0  0  0  0  0  0  0  0
   -0.0399   -9.1452   17.0818 C   0  0  2  0  0  0  0  0  0  0  0  0
   -1.0209   -9.4199   16.0579 N   0  0  0  0  0  0  0  0  0  0  0  0
   -0.6908   -8.2494   18.2117 C   0  0  0  0  0  0  0  0  0  0  0  0
    0.3822   -7.9337   19.3474 C   0  0  2  0  0  0  0  0  0  0  0  0
   -0.2356   -7.1057   20.4162 N   0  0  0  0  0  0  0  0  0  0  0  0
    1.6368   -7.1896   18.6922 C   0  0  2  0  0  0  0  0  0  0  0  0
    2.2525   -8.1253   17.5664 C   0  0  2  0  0  0  0  0  0  0  0  0
    3.3778   -7.4701   16.9769 O   0  0  0  0  0  0  0  0  0  0  0  0
    1.1777   -8.4331   16.4505 C   0  0  1  0  0  0  0  0  0  0  0  0
    1.7484   -9.3042   15.4426 O   0  0  0  0  0  0  0  0  0  0  0  0
    2.2351  -10.5833   15.6704 C   0  0  2  0  0  0  0  0  0  0  0  0
    3.3480  -10.8626   14.5988 C   0  0  2  0  0  0  0  0  0  0  0  0
    4.3435   -9.8955   14.6929 O   0  0  0  0  0  0  0  0  0  0  0  0
    2.7490  -10.9285   13.1297 C   0  0  1  0  0  0  0  0  0  0  0  0
    3.8232  -11.2076   12.1272 N   0  0  0  0  0  0  0  0  0  0  0  0
    1.6242  -12.0529   13.0885 C   0  0  2  0  0  0  0  0  0  0  0  0
    1.0599  -12.1603   11.7756 O   0  0  0  0  0  0  0  0  0  0  0  0
    0.5273  -11.6891   14.1624 C   0  0  2  0  0  0  0  0  0  0  0  0
    1.1433  -11.5835   15.5508 O   0  0  0  0  0  0  0  0  0  0  0  0
   -0.5689  -12.7273   14.1956 C   0  0  0  0  0  0  0  0  0  0  0  0
   -0.0800  -14.0415   14.5221 O   0  0  0  0  0  0  0  0  0  0  0  0
    5.1478   -7.8655   20.6378 O   0  0  0  0  0  0  0  0  0  0  0  0
    5.4657   -6.1367   22.8817 O   0  0  0  0  0  0  0  0  0  0  0  0
   -1.9804  -10.4782   16.2728 C   0  0  0  0  0  0  0  0  0  0  0  0
   -1.7168  -11.4106   17.0890 O   0  0  0  0  0  0  0  0  0  0  0  0
   -3.3175  -10.4252   15.4716 C   0  0  2  0  0  0  0  0  0  0  0  0
   -5.2530  -10.3194   17.8956 N   0  0  0  0  0  0  0  0  0  0  0  0
   -4.1936   -9.2172   15.9264 C   0  0  0  0  0  0  0  0  0  0  0  0
   -4.4268   -9.1734   17.4458 C   0  0  0  0  0  0  0  0  0  0  0  0
   -4.0405  -11.4554   15.6561 O   0  0  0  0  0  0  0  0  0  0  0  0
  1  2  1  1  0  0  0
  1  3  1  0  0  0  0
  1  8  1  0  0  0  0
  3  4  1  0  0  0  0
  3 32  1  1  0  0  0
  4  5  1  0  0  0  0
  4 33  1  1  0  0  0
  5  6  1  1  0  0  0
  5  7  1  0  0  0  0
  7  8  1  0  0  0  0
  7  9  1  6  0  0  0
  9 10  1  0  0  0  0
 11 12  1  6  0  0  0
 11 13  1  0  0  0  0
 11 19  1  0  0  0  0
 12 34  1  0  0  0  0
 13 14  1  0  0  0  0
 14 15  1  1  0  0  0
 14 16  1  0  0  0  0
 16  2  1  1  0  0  0
 16 17  1  0  0  0  0
 17 18  1  6  0  0  0
 17 19  1  0  0  0  0
 19 20  1  6  0  0  0
 21 20  1  6  0  0  0
 21 22  1  0  0  0  0
 21 29  1  0  0  0  0
 22 23  1  6  0  0  0
 22 24  1  0  0  0  0
 24 25  1  6  0  0  0
 24 26  1  0  0  0  0
 26 27  1  6  0  0  0
 26 28  1  0  0  0  0
 28 29  1  0  0  0  0
 28 30  1  1  0  0  0
 30 31  1  0  0  0  0
 34 35  2  0  0  0  0
 36 34  1  1  0  0  0
 36 38  1  0  0  0  0
 36 40  1  0  0  0  0
 37 39  1  0  0  0  0
 38 39  1  0  0  0  0
M  END
>  <CHROM.1>
-158.76850215,-176.35627006,-63.55729434,-81.13709153,-58.95771605,-151.97591286
59.87611261,-67.29199740,-52.83858454,-66.58435977,1.28147009,-8.60145978
17.45772216,-1.13445443,-0.13387548,-2.29239445

>  <Name>
ligand

>  <RI>
0

>  <Rbt.Current_Directory>
/home/itssahil/PROJECTS/Mol_Feturizer/New_Systems/rnas/4P20

>  <Rbt.Executable>
rbdock ($Id: //depot/dev/client3/rdock/2013.1/src/exe/rbdock.cxx#4 $)

>  <Rbt.Library>
libRbt.so (2013.1, Build901 2013/11/27)

>  <Rbt.Parameter_File>
/export/apps/rDock/src/rDock_2013.1_src/data/scripts/dock_solv.prm

>  <Rbt.Receptor>
prm/pocket_docking_3.prm

>  <SCORE>
-17.7333

>  <SCORE.INTER>
-9.20098

>  <SCORE.INTER.CONST>
1

>  <SCORE.INTER.POLAR>
0

>  <SCORE.INTER.ROT>
10

>  <SCORE.INTER.SOLV>
20.0925

>  <SCORE.INTER.VDW>
-23.0982

>  <SCORE.INTER.norm>
-0.230025

>  <SCORE.INTRA>
-8.57133

>  <SCORE.INTRA.DIHEDRAL>
-21.3907

>  <SCORE.INTRA.DIHEDRAL.0>
28.2802

>  <SCORE.INTRA.POLAR>
0

>  <SCORE.INTRA.POLAR.0>
0

>  <SCORE.INTRA.REPUL>
0

>  <SCORE.INTRA.REPUL.0>
0

>  <SCORE.INTRA.SOLV>
3.35245

>  <SCORE.INTRA.SOLV.lig_0>
-101.981

>  <SCORE.INTRA.VDW>
0.447775

>  <SCORE.INTRA.VDW.0>
-5.72964

>  <SCORE.INTRA.norm>
-0.214283

>  <SCORE.RESTR>
0.0389743

>  <SCORE.RESTR.CAVITY>
0.0389743

>  <SCORE.RESTR.norm>
0.000974356

>  <SCORE.SYSTEM>
0

>  <SCORE.SYSTEM.CONST>
0

>  <SCORE.SYSTEM.DIHEDRAL>
0

>  <SCORE.SYSTEM.SOLV>
0

>  <SCORE.SYSTEM.norm>
0

>  <SCORE.heavy>
40

>  <SCORE.norm>
-0.443334

>  <RMSD>
2.669

$$$$
ligand
 OpenBabel11021811513D
libRbt.so/2013.1/901 2013/11/27
 40 42  0  0  0  0  0  0  0  0999 V2000
    1.2864   -7.5050   20.0262 C   0  0  2  0  0  0  0  0  0  0  0  0
    1.0207   -7.0669   18.6844 O   0  0  0  0  0  0  0  0  0  0  0  0
    2.1266   -6.4250   20.8052 C   0  0  1  0  0  0  0  0  0  0  0  0
    3.5496   -6.2589   20.1965 C   0  0  2  0  0  0  0  0  0  0  0  0
    4.2680   -7.6425   20.2844 C   0  0  2  0  0  0  0  0  0  0  0  0
    5.6040   -7.5196   19.7509 O   0  0  0  0  0  0  0  0  0  0  0  0
    3.4227   -8.7033   19.4527 C   0  0  2  0  0  0  0  0  0  0  0  0
    2.0327   -8.8037   20.0255 O   0  0  0  0  0  0  0  0  0  0  0  0
    4.0336  -10.0973   19.4935 C   0  0  0  0  0  0  0  0  0  0  0  0
    5.4423  -10.0951   18.9873 N   0  0  0  0  0  0  0  0  0  0  0  0
   -1.7552  -10.0953   17.1183 C   0  0  2  0  0  0  0  0  0  0  0  0
   -2.7786  -10.7063   16.3022 N   0  0  0  0  0  0  0  0  0  0  0  0
   -2.3582   -8.8426   17.8731 C   0  0  0  0  0  0  0  0  0  0  0  0
   -1.2382   -8.1544   18.7748 C   0  0  2  0  0  0  0  0  0  0  0  0
   -1.8106   -6.9874   19.4960 N   0  0  0  0  0  0  0  0  0  0  0  0
   -0.0127   -7.7157   17.8460 C   0  0  2  0  0  0  0  0  0  0  0  0
    0.5552   -9.0036   17.1108 C   0  0  2  0  0  0  0  0  0  0  0  0
    1.6544   -8.6222   16.2804 O   0  0  0  0  0  0  0  0  0  0  0  0
   -0.5657   -9.6773   16.2248 C   0  0  1  0  0  0  0  0  0  0  0  0
   -0.0377  -10.8619   15.5778 O   0  0  0  0  0  0  0  0  0  0  0  0
   -0.5570  -11.4494   14.4332 C   0  0  2  0  0  0  0  0  0  0  0  0
   -0.5596  -13.0030   14.6598 C   0  0  2  0  0  0  0  0  0  0  0  0
   -1.3038  -13.3106   15.7941 O   0  0  0  0  0  0  0  0  0  0  0  0
    0.9136  -13.5863   14.7644 C   0  0  1  0  0  0  0  0  0  0  0  0
    0.8880  -15.0678   14.9674 N   0  0  0  0  0  0  0  0  0  0  0  0
    1.7071  -13.2058   13.4390 C   0  0  2  0  0  0  0  0  0  0  0  0
    3.0430  -13.7227   13.4796 O   0  0  0  0  0  0  0  0  0  0  0  0
    1.6982  -11.6346   13.2959 C   0  0  2  0  0  0  0  0  0  0  0  0
    0.2719  -11.1036   13.2500 O   0  0  0  0  0  0  0  0  0  0  0  0
    2.4194  -11.1970   12.0433 C   0  0  0  0  0  0  0  0  0  0  0  0
    2.6807   -9.7815   12.0181 O   0  0  0  0  0  0  0  0  0  0  0  0
    1.3985   -5.1631   20.7659 O   0  0  0  0  0  0  0  0  0  0  0  0
    4.2405   -5.3172   20.9200 O   0  0  0  0  0  0  0  0  0  0  0  0
   -3.6245  -11.7227   16.8839 C   0  0  0  0  0  0  0  0  0  0  0  0
   -3.2234  -12.3726   17.8947 O   0  0  0  0  0  0  0  0  0  0  0  0
   -5.0144  -11.9806   16.2251 C   0  0  2  0  0  0  0  0  0  0  0  0
   -6.4635   -9.3264   16.8436 N   0  0  0  0  0  0  0  0  0  0  0  0
   -5.3673  -10.8534   15.2061 C   0  0  0  0  0  0  0  0  0  0  0  0
   -5.3845   -9.4498   15.8343 C   0  0  0  0  0  0  0  0  0  0  0  0
   -5.9648  -11.9815   17.0706 O   0  0  0  0  0  0  0  0  0  0  0  0
  1  2  1  6  0  0  0
  1  3  1  0  0  0  0
  1  8  1  0  0  0  0
  3  4  1  0  0  0  0
  3 32  1  6  0  0  0
  4  5  1  0  0  0  0
  4 33  1  1  0  0  0
  5  6  1  6  0  0  0
  5  7  1  0  0  0  0
  7  8  1  0  0  0  0
  7  9  1  1  0  0  0
  9 10  1  0  0  0  0
 11 12  1  6  0  0  0
 11 13  1  0  0  0  0
 11 19  1  0  0  0  0
 12 34  1  0  0  0  0
 13 14  1  0  0  0  0
 14 15  1  6  0  0  0
 14 16  1  0  0  0  0
 16  2  1  1  0  0  0
 16 17  1  0  0  0  0
 17 18  1  6  0  0  0
 17 19  1  0  0  0  0
 19 20  1  1  0  0  0
 21 20  1  1  0  0  0
 21 22  1  0  0  0  0
 21 29  1  0  0  0  0
 22 23  1  1  0  0  0
 22 24  1  0  0  0  0
 24 25  1  6  0  0  0
 24 26  1  0  0  0  0
 26 27  1  1  0  0  0
 26 28  1  0  0  0  0
 28 29  1  0  0  0  0
 28 30  1  6  0  0  0
 30 31  1  0  0  0  0
 34 35  2  0  0  0  0
 36 34  1  1  0  0  0
 36 38  1  0  0  0  0
 36 40  1  0  0  0  0
 37 39  1  0  0  0  0
 38 39  1  0  0  0  0
M  END
>  <CHROM.1>
-164.70720765,35.45426476,-57.23681238,-88.58222057,81.89150677,-137.08718619
-167.65031413,-12.17027378,-57.96327215,-64.91110722,0.18912524,-9.88729065
16.99988439,0.86562984,0.05694560,0.83436737

>  <Name>
ligand

>  <RI>
0

>  <Rbt.Current_Directory>
/home/itssahil/PROJECTS/Mol_Feturizer/New_Systems/rnas/4P20

>  <Rbt.Executable>
rbdock ($Id: //depot/dev/client3/rdock/2013.1/src/exe/rbdock.cxx#4 $)

>  <Rbt.Library>
libRbt.so (2013.1, Build901 2013/11/27)

>  <Rbt.Parameter_File>
/export/apps/rDock/src/rDock_2013.1_src/data/scripts/dock_solv.prm

>  <Rbt.Receptor>
prm/pocket_docking_2.prm

>  <SCORE>
-6.85682

>  <SCORE.INTER>
-4.49251

>  <SCORE.INTER.CONST>
1

>  <SCORE.INTER.POLAR>
0

>  <SCORE.INTER.ROT>
10

>  <SCORE.INTER.SOLV>
18.5384

>  <SCORE.INTER.VDW>
-19.4411

>  <SCORE.INTER.norm>
-0.112313

>  <SCORE.INTRA>
-2.92295

>  <SCORE.INTRA.DIHEDRAL>
-13.0928

>  <SCORE.INTRA.DIHEDRAL.0>
28.2802

>  <SCORE.INTRA.POLAR>
0

>  <SCORE.INTRA.POLAR.0>
0

>  <SCORE.INTRA.REPUL>
0

>  <SCORE.INTRA.REPUL.0>
0

>  <SCORE.INTRA.SOLV>
4.25763

>  <SCORE.INTRA.SOLV.lig_0>
-101.981

>  <SCORE.INTRA.VDW>
1.49463

>  <SCORE.INTRA.VDW.0>
-5.72964

>  <SCORE.INTRA.norm>
-0.0730737

>  <SCORE.RESTR>
0.558643

>  <SCORE.RESTR.CAVITY>
0.558643

>  <SCORE.RESTR.norm>
0.0139661

>  <SCORE.SYSTEM>
0

>  <SCORE.SYSTEM.CONST>
0

>  <SCORE.SYSTEM.DIHEDRAL>
0

>  <SCORE.SYSTEM.SOLV>
0

>  <SCORE.SYSTEM.norm>
0

>  <SCORE.heavy>
40

>  <SCORE.norm>
-0.17142

>  <RMSD>
2.735

$$$$
ligand
 OpenBabel11021811513D
libRbt.so/2013.1/901 2013/11/27
 40 42  0  0  0  0  0  0  0  0999 V2000
    1.4243   -7.5703   20.0445 C   0  0  2  0  0  0  0  0  0  0  0  0
    1.1967   -7.1013   18.7061 O   0  0  0  0  0  0  0  0  0  0  0  0
    2.3264   -6.5549   20.8411 C   0  0  1  0  0  0  0  0  0  0  0  0
    3.7614   -6.4738   20.2435 C   0  0  2  0  0  0  0  0  0  0  0  0
    4.3891   -7.9015   20.3203 C   0  0  2  0  0  0  0  0  0  0  0  0
    5.7339   -7.8587   19.7968 O   0  0  0  0  0  0  0  0  0  0  0  0
    3.4834   -8.8967   19.4713 C   0  0  2  0  0  0  0  0  0  0  0  0
    2.0859   -8.9140   20.0340 O   0  0  0  0  0  0  0  0  0  0  0  0
    4.0035  -10.3274   19.5002 C   0  0  0  0  0  0  0  0  0  0  0  0
    3.2148  -11.2175   18.5912 N   0  0  0  0  0  0  0  0  0  0  0  0
   -1.6384  -10.0145   17.0312 C   0  0  2  0  0  0  0  0  0  0  0  0
   -2.6673  -10.5773   16.1880 N   0  0  0  0  0  0  0  0  0  0  0  0
   -2.2174   -8.7655   17.8106 C   0  0  0  0  0  0  0  0  0  0  0  0
   -1.0910   -8.1302   18.7425 C   0  0  2  0  0  0  0  0  0  0  0  0
   -1.6413   -6.9669   19.4864 N   0  0  0  0  0  0  0  0  0  0  0  0
    0.1571   -7.7012   17.8396 C   0  0  2  0  0  0  0  0  0  0  0  0
    0.6999   -8.9849   17.0785 C   0  0  2  0  0  0  0  0  0  0  0  0
    1.8189   -8.6122   16.2710 O   0  0  0  0  0  0  0  0  0  0  0  0
   -0.4273   -9.6060   16.1626 C   0  0  1  0  0  0  0  0  0  0  0  0
    0.0772  -10.7876   15.4919 O   0  0  0  0  0  0  0  0  0  0  0  0
   -0.4324  -11.3222   14.3174 C   0  0  2  0  0  0  0  0  0  0  0  0
   -0.5213  -12.8782   14.5068 C   0  0  2  0  0  0  0  0  0  0  0  0
   -1.3179  -13.1721   15.6087 O   0  0  0  0  0  0  0  0  0  0  0  0
    0.9161  -13.5387   14.6453 C   0  0  1  0  0  0  0  0  0  0  0  0
    0.8087  -15.0211   14.8121 N   0  0  0  0  0  0  0  0  0  0  0  0
    1.7720  -13.1703   13.3558 C   0  0  2  0  0  0  0  0  0  0  0  0
    3.0779  -13.7561   13.4275 O   0  0  0  0  0  0  0  0  0  0  0  0
    1.8476  -11.5981   13.2498 C   0  0  2  0  0  0  0  0  0  0  0  0
    0.4523  -10.9934   13.1703 O   0  0  0  0  0  0  0  0  0  0  0  0
    2.6317  -11.1706   12.0321 C   0  0  0  0  0  0  0  0  0  0  0  0
    2.7793   -9.7414   11.9395 O   0  0  0  0  0  0  0  0  0  0  0  0
    1.6809   -5.2485   20.8114 O   0  0  0  0  0  0  0  0  0  0  0  0
    4.5061   -5.5863   20.9820 O   0  0  0  0  0  0  0  0  0  0  0  0
   -3.8968  -11.0345   16.7932 C   0  0  0  0  0  0  0  0  0  0  0  0
   -3.9151  -11.3497   18.0201 O   0  0  0  0  0  0  0  0  0  0  0  0
   -5.1653  -11.1252   15.8904 C   0  0  2  0  0  0  0  0  0  0  0  0
   -6.5054   -8.3941   15.8731 N   0  0  0  0  0  0  0  0  0  0  0  0
   -6.4495  -10.7481   16.6918 C   0  0  0  0  0  0  0  0  0  0  0  0
   -6.5109   -9.2604   17.0763 C   0  0  0  0  0  0  0  0  0  0  0  0
   -5.3727  -12.3018   15.4537 O   0  0  0  0  0  0  0  0  0  0  0  0
  1  2  1  6  0  0  0
  1  3  1  0  0  0  0
  1  8  1  0  0  0  0
  3  4  1  0  0  0  0
  3 32  1  6  0  0  0
  4  5  1  0  0  0  0
  4 33  1  1  0  0  0
  5  6  1  6  0  0  0
  5  7  1  0  0  0  0
  7  8  1  0  0  0  0
  7  9  1  1  0  0  0
  9 10  1  0  0  0  0
 11 12  1  6  0  0  0
 11 13  1  0  0  0  0
 11 19  1  0  0  0  0
 12 34  1  0  0  0  0
 13 14  1  0  0  0  0
 14 15  1  6  0  0  0
 14 16  1  0  0  0  0
 16  2  1  1  0  0  0
 16 17  1  0  0  0  0
 17 18  1  6  0  0  0
 17 19  1  0  0  0  0
 19 20  1  1  0  0  0
 21 20  1  1  0  0  0
 21 22  1  0  0  0  0
 21 29  1  0  0  0  0
 22 23  1  1  0  0  0
 22 24  1  0  0  0  0
 24 25  1  6  0  0  0
 24 26  1  0  0  0  0
 26 27  1  1  0  0  0
 26 28  1  0  0  0  0
 28 29  1  0  0  0  0
 28 30  1  6  0  0  0
 30 31  1  0  0  0  0
 34 35  2  0  0  0  0
 36 34  1  1  0  0  0
 36 38  1  0  0  0  0
 36 40  1  0  0  0  0
 37 39  1  0  0  0  0
 38 39  1  0  0  0  0
M  END
>  <CHROM.1>
-166.58893134,34.75781212,-174.51540061,-58.52673298,82.77279838,-135.88117523
-177.04933859,-144.50093701,68.81323480,60.47781353,0.16332908,-9.84956956
16.95145047,0.81641961,0.01410749,0.85356134

>  <Name>
ligand

>  <RI>
0

>  <Rbt.Current_Directory>
/home/itssahil/PROJECTS/Mol_Feturizer/New_Systems/rnas/4P20

>  <Rbt.Executable>
rbdock ($Id: //depot/dev/client3/rdock/2013.1/src/exe/rbdock.cxx#4 $)

>  <Rbt.Library>
libRbt.so (2013.1, Build901 2013/11/27)

>  <Rbt.Parameter_File>
/export/apps/rDock/src/rDock_2013.1_src/data/scripts/dock_solv.prm

>  <Rbt.Receptor>
prm/pocket_docking_2.prm

>  <SCORE>
-6.55028

>  <SCORE.INTER>
-3.14255

>  <SCORE.INTER.CONST>
1

>  <SCORE.INTER.POLAR>
0

>  <SCORE.INTER.ROT>
10

>  <SCORE.INTER.SOLV>
19.4718

>  <SCORE.INTER.VDW>
-18.8523

>  <SCORE.INTER.norm>
-0.0785638

>  <SCORE.INTRA>
-5.04426

>  <SCORE.INTRA.DIHEDRAL>
-14.1277

>  <SCORE.INTRA.DIHEDRAL.0>
28.2802

>  <SCORE.INTRA.POLAR>
0

>  <SCORE.INTRA.POLAR.0>
0

>  <SCORE.INTRA.REPUL>
0.0131068

>  <SCORE.INTRA.REPUL.0>
0

>  <SCORE.INTRA.SOLV>
1.79439

>  <SCORE.INTRA.SOLV.lig_0>
-101.981

>  <SCORE.INTRA.VDW>
1.05683

>  <SCORE.INTRA.VDW.0>
-5.72964

>  <SCORE.INTRA.norm>
-0.126107

>  <SCORE.RESTR>
1.63654

>  <SCORE.RESTR.CAVITY>
1.63654

>  <SCORE.RESTR.norm>
0.0409134

>  <SCORE.SYSTEM>
0

>  <SCORE.SYSTEM.CONST>
0

>  <SCORE.SYSTEM.DIHEDRAL>
0

>  <SCORE.SYSTEM.SOLV>
0

>  <SCORE.SYSTEM.norm>
0

>  <SCORE.heavy>
40

>  <SCORE.norm>
-0.163757

>  <RMSD>
2.743

$$$$
ligand
 OpenBabel11021811513D
libRbt.so/2013.1/901 2013/11/27
 40 42  0  0  0  0  0  0  0  0999 V2000
    1.4017   -7.6829   20.0104 C   0  0  2  0  0  0  0  0  0  0  0  0
    1.1090   -7.1205   18.7216 O   0  0  0  0  0  0  0  0  0  0  0  0
    2.2806   -6.6910   20.8607 C   0  0  1  0  0  0  0  0  0  0  0  0
    3.6900   -6.4919   20.2308 C   0  0  2  0  0  0  0  0  0  0  0  0
    4.3861   -7.8885   20.1734 C   0  0  2  0  0  0  0  0  0  0  0  0
    5.7098   -7.7378   19.6168 O   0  0  0  0  0  0  0  0  0  0  0  0
    3.5010   -8.8563   19.2726 C   0  0  2  0  0  0  0  0  0  0  0  0
    2.1248   -8.9873   19.8718 O   0  0  0  0  0  0  0  0  0  0  0  0
    4.0882  -10.2573   19.1703 C   0  0  0  0  0  0  0  0  0  0  0  0
    4.6053  -10.7343   20.4916 N   0  0  0  0  0  0  0  0  0  0  0  0
   -1.6561  -10.0491   16.9587 C   0  0  2  0  0  0  0  0  0  0  0  0
   -2.6505  -10.6194   16.0799 N   0  0  0  0  0  0  0  0  0  0  0  0
   -2.2661   -8.7945   17.7047 C   0  0  0  0  0  0  0  0  0  0  0  0
   -1.1778   -8.1510   18.6754 C   0  0  2  0  0  0  0  0  0  0  0  0
   -1.7577   -6.9823   19.3877 N   0  0  0  0  0  0  0  0  0  0  0  0
    0.1048   -7.7280   17.8192 C   0  0  2  0  0  0  0  0  0  0  0  0
    0.6780   -9.0173   17.0904 C   0  0  2  0  0  0  0  0  0  0  0  0
    1.8279   -8.6500   16.3249 O   0  0  0  0  0  0  0  0  0  0  0  0
   -0.4118   -9.6464   16.1356 C   0  0  1  0  0  0  0  0  0  0  0  0
    0.1195  -10.8329   15.4947 O   0  0  0  0  0  0  0  0  0  0  0  0
   -0.3984  -11.4281   14.3535 C   0  0  2  0  0  0  0  0  0  0  0  0
   -0.4039  -12.9800   14.5916 C   0  0  2  0  0  0  0  0  0  0  0  0
   -1.1509  -13.2779   15.7267 O   0  0  0  0  0  0  0  0  0  0  0  0
    1.0681  -13.5648   14.7036 C   0  0  1  0  0  0  0  0  0  0  0  0
    1.0397  -15.0448   14.9175 N   0  0  0  0  0  0  0  0  0  0  0  0
    1.8649  -13.1955   13.3770 C   0  0  2  0  0  0  0  0  0  0  0  0
    3.1999  -13.7142   13.4242 O   0  0  0  0  0  0  0  0  0  0  0  0
    1.8588  -11.6254   13.2221 C   0  0  2  0  0  0  0  0  0  0  0  0
    0.4335  -11.0924   13.1694 O   0  0  0  0  0  0  0  0  0  0  0  0
    2.5832  -11.1983   11.9678 C   0  0  0  0  0  0  0  0  0  0  0  0
    2.8050   -9.7770   11.9106 O   0  0  0  0  0  0  0  0  0  0  0  0
    1.5740   -5.4199   20.9557 O   0  0  0  0  0  0  0  0  0  0  0  0
    4.4159   -5.6305   21.0174 O   0  0  0  0  0  0  0  0  0  0  0  0
   -3.6182  -11.5441   16.6235 C   0  0  0  0  0  0  0  0  0  0  0  0
   -3.3553  -12.1757   17.6897 O   0  0  0  0  0  0  0  0  0  0  0  0
   -4.9631  -11.7287   15.8555 C   0  0  2  0  0  0  0  0  0  0  0  0
   -5.0685   -9.1077   17.4536 N   0  0  0  0  0  0  0  0  0  0  0  0
   -5.5058  -10.3592   15.3424 C   0  0  0  0  0  0  0  0  0  0  0  0
   -6.1009   -9.4845   16.4586 C   0  0  0  0  0  0  0  0  0  0  0  0
   -5.8859  -12.2040   16.5907 O   0  0  0  0  0  0  0  0  0  0  0  0
  1  2  1  6  0  0  0
  1  3  1  0  0  0  0
  1  8  1  0  0  0  0
  3  4  1  0  0  0  0
  3 32  1  6  0  0  0
  4  5  1  0  0  0  0
  4 33  1  1  0  0  0
  5  6  1  6  0  0  0
  5  7  1  0  0  0  0
  7  8  1  0  0  0  0
  7  9  1  1  0  0  0
  9 10  1  0  0  0  0
 11 12  1  6  0  0  0
 11 13  1  0  0  0  0
 11 19  1  0  0  0  0
 12 34  1  0  0  0  0
 13 14  1  0  0  0  0
 14 15  1  6  0  0  0
 14 16  1  0  0  0  0
 16  2  1  1  0  0  0
 16 17  1  0  0  0  0
 17 18  1  6  0  0  0
 17 19  1  0  0  0  0
 19 20  1  1  0  0  0
 21 20  1  1  0  0  0
 21 22  1  0  0  0  0
 21 29  1  0  0  0  0
 22 23  1  1  0  0  0
 22 24  1  0  0  0  0
 24 25  1  6  0  0  0
 24 26  1  0  0  0  0
 26 27  1  1  0  0  0
 26 28  1  0  0  0  0
 28 29  1  0  0  0  0
 28 30  1  6  0  0  0
 30 31  1  0  0  0  0
 34 35  2  0  0  0  0
 36 34  1  1  0  0  0
 36 38  1  0  0  0  0
 36 40  1  0  0  0  0
 37 39  1  0  0  0  0
 38 39  1  0  0  0  0
M  END
>  <CHROM.1>
-168.78407051,42.67785918,41.97226902,-83.70763596,78.24321186,-136.76606890
-169.70539062,-41.25575529,-74.27098653,63.42540349,0.28605630,-9.92612216
16.98341289,0.87335014,0.03228931,0.86287597

>  <Name>
ligand

>  <RI>
0

>  <Rbt.Current_Directory>
/home/itssahil/PROJECTS/Mol_Feturizer/New_Systems/rnas/4P20

>  <Rbt.Executable>
rbdock ($Id: //depot/dev/client3/rdock/2013.1/src/exe/rbdock.cxx#4 $)

>  <Rbt.Library>
libRbt.so (2013.1, Build901 2013/11/27)

>  <Rbt.Parameter_File>
/export/apps/rDock/src/rDock_2013.1_src/data/scripts/dock_solv.prm

>  <Rbt.Receptor>
prm/pocket_docking_2.prm

>  <SCORE>
-5.29422

>  <SCORE.INTER>
-3.85396

>  <SCORE.INTER.CONST>
1

>  <SCORE.INTER.POLAR>
0

>  <SCORE.INTER.ROT>
10

>  <SCORE.INTER.SOLV>
17.8989

>  <SCORE.INTER.VDW>
-18.8023

>  <SCORE.INTER.norm>
-0.096349

>  <SCORE.INTRA>
-2.60659

>  <SCORE.INTRA.DIHEDRAL>
-15.0752

>  <SCORE.INTRA.DIHEDRAL.0>
28.2802

>  <SCORE.INTRA.POLAR>
0

>  <SCORE.INTRA.POLAR.0>
0

>  <SCORE.INTRA.REPUL>
0

>  <SCORE.INTRA.REPUL.0>
0

>  <SCORE.INTRA.SOLV>
7.1931

>  <SCORE.INTRA.SOLV.lig_0>
-101.981

>  <SCORE.INTRA.VDW>
1.33448

>  <SCORE.INTRA.VDW.0>
-5.72964

>  <SCORE.INTRA.norm>
-0.0651648

>  <SCORE.RESTR>
1.16633

>  <SCORE.RESTR.CAVITY>
1.16633

>  <SCORE.RESTR.norm>
0.0291582

>  <SCORE.SYSTEM>
0

>  <SCORE.SYSTEM.CONST>
0

>  <SCORE.SYSTEM.DIHEDRAL>
0

>  <SCORE.SYSTEM.SOLV>
0

>  <SCORE.SYSTEM.norm>
0

>  <SCORE.heavy>
40

>  <SCORE.norm>
-0.132356

>  <RMSD>
2.749

$$$$
ligand
 OpenBabel11021811513D
libRbt.so/2013.1/901 2013/11/27
 40 42  0  0  0  0  0  0  0  0999 V2000
    1.2169   -7.4651   20.0277 C   0  0  2  0  0  0  0  0  0  0  0  0
    0.9435   -7.0245   18.6882 O   0  0  0  0  0  0  0  0  0  0  0  0
    2.0576   -6.3845   20.8053 C   0  0  1  0  0  0  0  0  0  0  0  0
    3.4772   -6.2128   20.1904 C   0  0  2  0  0  0  0  0  0  0  0  0
    4.2000   -7.5946   20.2716 C   0  0  2  0  0  0  0  0  0  0  0  0
    5.5331   -7.4665   19.7321 O   0  0  0  0  0  0  0  0  0  0  0  0
    3.3538   -8.6558   19.4413 C   0  0  2  0  0  0  0  0  0  0  0  0
    1.9669   -8.7616   20.0204 O   0  0  0  0  0  0  0  0  0  0  0  0
    3.9690  -10.0481   19.4759 C   0  0  0  0  0  0  0  0  0  0  0  0
    3.3146  -10.9628   18.4881 N   0  0  0  0  0  0  0  0  0  0  0  0
   -1.6865  -10.1433   17.0494 C   0  0  2  0  0  0  0  0  0  0  0  0
   -2.6859  -10.7807   16.2239 N   0  0  0  0  0  0  0  0  0  0  0  0
   -2.3458   -8.9506   17.8528 C   0  0  0  0  0  0  0  0  0  0  0  0
   -1.2530   -8.2339   18.7655 C   0  0  2  0  0  0  0  0  0  0  0  0
   -1.8777   -7.1241   19.5320 N   0  0  0  0  0  0  0  0  0  0  0  0
   -0.0642   -7.6994   17.8392 C   0  0  2  0  0  0  0  0  0  0  0  0
    0.5623   -8.9297   17.0546 C   0  0  2  0  0  0  0  0  0  0  0  0
    1.6292   -8.4623   16.2260 O   0  0  0  0  0  0  0  0  0  0  0  0
   -0.5321   -9.6324   16.1581 C   0  0  1  0  0  0  0  0  0  0  0  0
    0.0501  -10.7647   15.4655 O   0  0  0  0  0  0  0  0  0  0  0  0
   -0.1330  -11.0644   14.1233 C   0  0  2  0  0  0  0  0  0  0  0  0
   -0.2465  -12.6255   13.9996 C   0  0  2  0  0  0  0  0  0  0  0  0
   -1.2955  -13.0839   14.7898 O   0  0  0  0  0  0  0  0  0  0  0  0
    1.1158  -13.3478   14.3790 C   0  0  1  0  0  0  0  0  0  0  0  0
    0.9893  -14.8318   14.2423 N   0  0  0  0  0  0  0  0  0  0  0  0
    2.2695  -12.7848   13.4391 C   0  0  2  0  0  0  0  0  0  0  0  0
    3.5208  -13.4174   13.7349 O   0  0  0  0  0  0  0  0  0  0  0  0
    2.3483  -11.2222   13.6416 C   0  0  2  0  0  0  0  0  0  0  0  0
    1.0124  -10.5667   13.3190 O   0  0  0  0  0  0  0  0  0  0  0  0
    3.4134  -10.6114   12.7623 C   0  0  0  0  0  0  0  0  0  0  0  0
    3.0028  -10.5011   11.3868 O   0  0  0  0  0  0  0  0  0  0  0  0
    1.3256   -5.1246   20.7724 O   0  0  0  0  0  0  0  0  0  0  0  0
    4.1688   -5.2709   20.9129 O   0  0  0  0  0  0  0  0  0  0  0  0
   -3.6290  -11.6860   16.8387 C   0  0  0  0  0  0  0  0  0  0  0  0
   -3.3379  -12.2483   17.9360 O   0  0  0  0  0  0  0  0  0  0  0  0
   -4.9832  -11.9371   16.1070 C   0  0  2  0  0  0  0  0  0  0  0  0
   -6.5156   -8.3640   16.3262 N   0  0  0  0  0  0  0  0  0  0  0  0
   -5.6279  -10.5927   15.6482 C   0  0  0  0  0  0  0  0  0  0  0  0
   -5.8459   -9.5986   16.8011 C   0  0  0  0  0  0  0  0  0  0  0  0
   -5.8501  -12.4892   16.8565 O   0  0  0  0  0  0  0  0  0  0  0  0
  1  2  1  6  0  0  0
  1  3  1  0  0  0  0
  1  8  1  0  0  0  0
  3  4  1  0  0  0  0
  3 32  1  6  0  0  0
  4  5  1  0  0  0  0
  4 33  1  1  0  0  0
  5  6  1  6  0  0  0
  5  7  1  0  0  0  0
  7  8  1  0  0  0  0
  7  9  1  1  0  0  0
  9 10  1  0  0  0  0
 11 12  1  6  0  0  0
 11 13  1  0  0  0  0
 11 19  1  0  0  0  0
 12 34  1  0  0  0  0
 13 14  1  0  0  0  0
 14 15  1  6  0  0  0
 14 16  1  0  0  0  0
 16  2  1  1  0  0  0
 16 17  1  0  0  0  0
 17 18  1  6  0  0  0
 17 19  1  0  0  0  0
 19 20  1  1  0  0  0
 21 20  1  1  0  0  0
 21 22  1  0  0  0  0
 21 29  1  0  0  0  0
 22 23  1  1  0  0  0
 22 24  1  0  0  0  0
 24 25  1  6  0  0  0
 24 26  1  0  0  0  0
 26 27  1  1  0  0  0
 26 28  1  0  0  0  0
 28 29  1  0  0  0  0
 28 30  1  6  0  0  0
 30 31  1  0  0  0  0
 34 35  2  0  0  0  0
 36 34  1  1  0  0  0
 36 38  1  0  0  0  0
 36 40  1  0  0  0  0
 37 39  1  0  0  0  0
 38 39  1  0  0  0  0
M  END
>  <CHROM.1>
-166.52010671,33.33900711,-169.12122021,-77.52619399,105.32354577,-141.80247289
76.52863912,-46.96578610,-56.43530619,-177.42066650,0.22216237,-9.80702241
16.92825179,0.88372406,0.08241208,0.85883429

>  <Name>
ligand

>  <RI>
0

>  <Rbt.Current_Directory>
/home/itssahil/PROJECTS/Mol_Feturizer/New_Systems/rnas/4P20

>  <Rbt.Executable>
rbdock ($Id: //depot/dev/client3/rdock/2013.1/src/exe/rbdock.cxx#4 $)

>  <Rbt.Library>
libRbt.so (2013.1, Build901 2013/11/27)

>  <Rbt.Parameter_File>
/export/apps/rDock/src/rDock_2013.1_src/data/scripts/dock_solv.prm

>  <Rbt.Receptor>
prm/pocket_docking_2.prm

>  <SCORE>
-5.25704

>  <SCORE.INTER>
-3.10947

>  <SCORE.INTER.CONST>
1

>  <SCORE.INTER.POLAR>
0

>  <SCORE.INTER.ROT>
10

>  <SCORE.INTER.SOLV>
18.8335

>  <SCORE.INTER.VDW>
-18.6175

>  <SCORE.INTER.norm>
-0.0777367

>  <SCORE.INTRA>
-3.88866

>  <SCORE.INTRA.DIHEDRAL>
-10.4945

>  <SCORE.INTRA.DIHEDRAL.0>
28.2802

>  <SCORE.INTRA.POLAR>
0

>  <SCORE.INTRA.POLAR.0>
0

>  <SCORE.INTRA.REPUL>
0

>  <SCORE.INTRA.REPUL.0>
0

>  <SCORE.INTRA.SOLV>
1.15377

>  <SCORE.INTRA.SOLV.lig_0>
-101.981

>  <SCORE.INTRA.VDW>
0.781727

>  <SCORE.INTRA.VDW.0>
-5.72964

>  <SCORE.INTRA.norm>
-0.0972165

>  <SCORE.RESTR>
1.74109

>  <SCORE.RESTR.CAVITY>
1.74109

>  <SCORE.RESTR.norm>
0.0435272

>  <SCORE.SYSTEM>
0

>  <SCORE.SYSTEM.CONST>
0

>  <SCORE.SYSTEM.DIHEDRAL>
0

>  <SCORE.SYSTEM.SOLV>
0

>  <SCORE.SYSTEM.norm>
0

>  <SCORE.heavy>
40

>  <SCORE.norm>
-0.131426

>  <RMSD>
2.787

$$$$
ligand
 OpenBabel11021811513D
libRbt.so/2013.1/901 2013/11/27
 40 42  0  0  0  0  0  0  0  0999 V2000
    1.5868   -7.6795   19.8520 C   0  0  2  0  0  0  0  0  0  0  0  0
    0.9817   -7.1663   18.6547 O   0  0  0  0  0  0  0  0  0  0  0  0
    2.6367   -6.6552   20.4247 C   0  0  1  0  0  0  0  0  0  0  0  0
    3.8469   -6.4780   19.4620 C   0  0  2  0  0  0  0  0  0  0  0  0
    4.5223   -7.8748   19.2862 C   0  0  2  0  0  0  0  0  0  0  0  0
    5.6678   -7.7433   18.4173 O   0  0  0  0  0  0  0  0  0  0  0  0
    3.4538   -8.8769   18.6652 C   0  0  2  0  0  0  0  0  0  0  0  0
    2.2676   -8.9872   19.5876 O   0  0  0  0  0  0  0  0  0  0  0  0
    4.0128  -10.2800   18.4728 C   0  0  0  0  0  0  0  0  0  0  0  0
    4.3907  -10.9050   19.7793 N   0  0  0  0  0  0  0  0  0  0  0  0
   -2.0087  -10.2365   17.6743 C   0  0  2  0  0  0  0  0  0  0  0  0
   -3.1456  -10.8748   17.0527 N   0  0  0  0  0  0  0  0  0  0  0  0
   -2.4866   -8.9430   18.4498 C   0  0  0  0  0  0  0  0  0  0  0  0
   -1.2410   -8.2245   19.1377 C   0  0  2  0  0  0  0  0  0  0  0  0
   -1.6940   -7.0187   19.8795 N   0  0  0  0  0  0  0  0  0  0  0  0
   -0.1686   -7.8433   18.0144 C   0  0  2  0  0  0  0  0  0  0  0  0
    0.2775   -9.1706   17.2653 C   0  0  2  0  0  0  0  0  0  0  0  0
    1.2396   -8.8406   16.2610 O   0  0  0  0  0  0  0  0  0  0  0  0
   -0.9667   -9.8738   16.5924 C   0  0  1  0  0  0  0  0  0  0  0  0
   -0.5464  -11.0933   15.9314 O   0  0  0  0  0  0  0  0  0  0  0  0
   -0.9504  -11.5010   14.6683 C   0  0  2  0  0  0  0  0  0  0  0  0
   -0.9566  -13.0710   14.6587 C   0  0  2  0  0  0  0  0  0  0  0  0
   -1.7996  -13.5431   15.6596 O   0  0  0  0  0  0  0  0  0  0  0  0
    0.5068  -13.6677   14.8124 C   0  0  1  0  0  0  0  0  0  0  0  0
    0.4791  -15.1628   14.7883 N   0  0  0  0  0  0  0  0  0  0  0  0
    1.4159  -13.0951   13.6390 C   0  0  2  0  0  0  0  0  0  0  0  0
    2.7479  -13.6161   13.7267 O   0  0  0  0  0  0  0  0  0  0  0  0
    1.4028  -11.5202   13.7322 C   0  0  2  0  0  0  0  0  0  0  0  0
   -0.0190  -10.9841   13.6329 O   0  0  0  0  0  0  0  0  0  0  0  0
    2.2323  -10.9019   12.6322 C   0  0  0  0  0  0  0  0  0  0  0  0
    2.4093   -9.4830   12.8001 O   0  0  0  0  0  0  0  0  0  0  0  0
    1.9615   -5.3824   20.6440 O   0  0  0  0  0  0  0  0  0  0  0  0
    4.7342   -5.5867   20.0152 O   0  0  0  0  0  0  0  0  0  0  0  0
   -3.9279  -10.1316   16.0922 C   0  0  0  0  0  0  0  0  0  0  0  0
   -3.9137   -8.8650   16.1142 O   0  0  0  0  0  0  0  0  0  0  0  0
   -4.7723  -10.9379   15.0581 C   0  0  2  0  0  0  0  0  0  0  0  0
   -6.4709  -13.4651   17.4852 N   0  0  0  0  0  0  0  0  0  0  0  0
   -5.8986  -11.7502   15.7687 C   0  0  0  0  0  0  0  0  0  0  0  0
   -5.3628  -12.7627   16.7948 C   0  0  0  0  0  0  0  0  0  0  0  0
   -4.0814  -11.7992   14.4265 O   0  0  0  0  0  0  0  0  0  0  0  0
  1  2  1  6  0  0  0
  1  3  1  0  0  0  0
  1  8  1  0  0  0  0
  3  4  1  0  0  0  0
  3 32  1  6  0  0  0
  4  5  1  0  0  0  0
  4 33  1  1  0  0  0
  5  6  1  6  0  0  0
  5  7  1  0  0  0  0
  7  8  1  0  0  0  0
  7  9  1  1  0  0  0
  9 10  1  0  0  0  0
 11 12  1  6  0  0  0
 11 13  1  0  0  0  0
 11 19  1  0  0  0  0
 12 34  1  0  0  0  0
 13 14  1  0  0  0  0
 14 15  1  6  0  0  0
 14 16  1  0  0  0  0
 16  2  1  1  0  0  0
 16 17  1  0  0  0  0
 17 18  1  6  0  0  0
 17 19  1  0  0  0  0
 19 20  1  1  0  0  0
 21 20  1  1  0  0  0
 21 22  1  0  0  0  0
 21 29  1  0  0  0  0
 22 23  1  1  0  0  0
 22 24  1  0  0  0  0
 24 25  1  6  0  0  0
 24 26  1  0  0  0  0
 26 27  1  1  0  0  0
 26 28  1  0  0  0  0
 28 29  1  0  0  0  0
 28 30  1  6  0  0  0
 30 31  1  0  0  0  0
 34 35  2  0  0  0  0
 36 34  1  1  0  0  0
 36 38  1  0  0  0  0
 36 40  1  0  0  0  0
 37 39  1  0  0  0  0
 38 39  1  0  0  0  0
M  END
>  <CHROM.1>
-171.58635943,45.97600968,63.15729449,59.32165336,104.10961293,-149.30355675
-171.26424092,65.09625727,-59.74211877,177.45923790,0.09768422,-10.03028803
16.88514873,0.77687181,0.10015469,0.79950238

>  <Name>
ligand

>  <RI>
0

>  <Rbt.Current_Directory>
/home/itssahil/PROJECTS/Mol_Feturizer/New_Systems/rnas/4P20

>  <Rbt.Executable>
rbdock ($Id: //depot/dev/client3/rdock/2013.1/src/exe/rbdock.cxx#4 $)

>  <Rbt.Library>
libRbt.so (2013.1, Build901 2013/11/27)

>  <Rbt.Parameter_File>
/export/apps/rDock/src/rDock_2013.1_src/data/scripts/dock_solv.prm

>  <Rbt.Receptor>
prm/pocket_docking_3.prm

>  <SCORE>
-8.57181

>  <SCORE.INTER>
-2.72849

>  <SCORE.INTER.CONST>
1

>  <SCORE.INTER.POLAR>
0

>  <SCORE.INTER.ROT>
10

>  <SCORE.INTER.SOLV>
23.6481

>  <SCORE.INTER.VDW>
-19.9684

>  <SCORE.INTER.norm>
-0.0682122

>  <SCORE.INTRA>
-5.84333

>  <SCORE.INTRA.DIHEDRAL>
-16.063

>  <SCORE.INTRA.DIHEDRAL.0>
28.2802

>  <SCORE.INTRA.POLAR>
0

>  <SCORE.INTRA.POLAR.0>
0

>  <SCORE.INTRA.REPUL>
0

>  <SCORE.INTRA.REPUL.0>
0

>  <SCORE.INTRA.SOLV>
2.3219

>  <SCORE.INTRA.SOLV.lig_0>
-101.981

>  <SCORE.INTRA.VDW>
1.02721

>  <SCORE.INTRA.VDW.0>
-5.72964

>  <SCORE.INTRA.norm>
-0.146083

>  <SCORE.RESTR>
0

>  <SCORE.RESTR.CAVITY>
0

>  <SCORE.RESTR.norm>
0

>  <SCORE.SYSTEM>
0

>  <SCORE.SYSTEM.CONST>
0

>  <SCORE.SYSTEM.DIHEDRAL>
0

>  <SCORE.SYSTEM.SOLV>
0

>  <SCORE.SYSTEM.norm>
0

>  <SCORE.heavy>
40

>  <SCORE.norm>
-0.214295

>  <RMSD>
2.798

$$$$
ligand
 OpenBabel11021811513D
libRbt.so/2013.1/901 2013/11/27
 40 42  0  0  0  0  0  0  0  0999 V2000
    2.8734   -9.7126   20.7862 C   0  0  2  0  0  0  0  0  0  0  0  0
    1.5758   -9.0974   20.8149 O   0  0  0  0  0  0  0  0  0  0  0  0
    3.7130   -9.2932   22.0505 C   0  0  1  0  0  0  0  0  0  0  0  0
    4.0402   -7.7715   22.0409 C   0  0  2  0  0  0  0  0  0  0  0  0
    4.8597   -7.4702   20.7463 C   0  0  2  0  0  0  0  0  0  0  0  0
    5.2041   -6.0684   20.7167 O   0  0  0  0  0  0  0  0  0  0  0  0
    3.9718   -7.8608   19.4852 C   0  0  2  0  0  0  0  0  0  0  0  0
    3.6206   -9.3247   19.5474 O   0  0  0  0  0  0  0  0  0  0  0  0
    4.6941   -7.6217   18.1664 C   0  0  0  0  0  0  0  0  0  0  0  0
    3.8462   -8.0126   16.9965 N   0  0  0  0  0  0  0  0  0  0  0  0
   -2.0388   -9.8675   18.4333 C   0  0  2  0  0  0  0  0  0  0  0  0
   -2.9318   -9.9199   17.2992 N   0  0  0  0  0  0  0  0  0  0  0  0
   -1.6331   -8.3652   18.7186 C   0  0  0  0  0  0  0  0  0  0  0  0
   -0.6431   -8.2918   19.9657 C   0  0  2  0  0  0  0  0  0  0  0  0
   -0.2760   -6.8783   20.2425 N   0  0  0  0  0  0  0  0  0  0  0  0
    0.6533   -9.1766   19.6597 C   0  0  2  0  0  0  0  0  0  0  0  0
    0.1951  -10.6709   19.3791 C   0  0  2  0  0  0  0  0  0  0  0  0
    1.3480  -11.4711   19.1080 O   0  0  0  0  0  0  0  0  0  0  0  0
   -0.7882  -10.7280   18.1441 C   0  0  1  0  0  0  0  0  0  0  0  0
   -1.2132  -12.0945   17.9145 O   0  0  0  0  0  0  0  0  0  0  0  0
   -2.0313  -12.5162   16.8764 C   0  0  2  0  0  0  0  0  0  0  0  0
   -2.3377  -14.0389   17.1057 C   0  0  2  0  0  0  0  0  0  0  0  0
   -2.9327  -14.2155   18.3507 O   0  0  0  0  0  0  0  0  0  0  0  0
   -1.0323  -14.9315   16.9618 C   0  0  1  0  0  0  0  0  0  0  0  0
   -1.3490  -16.3781   17.1715 N   0  0  0  0  0  0  0  0  0  0  0  0
   -0.4055  -14.6881   15.5199 C   0  0  2  0  0  0  0  0  0  0  0  0
    0.7718  -15.4840   15.3359 O   0  0  0  0  0  0  0  0  0  0  0  0
   -0.0925  -13.1486   15.3747 C   0  0  2  0  0  0  0  0  0  0  0  0
   -1.3545  -12.3191   15.5688 O   0  0  0  0  0  0  0  0  0  0  0  0
    0.4894  -12.8362   14.0166 C   0  0  0  0  0  0  0  0  0  0  0  0
    0.8284  -11.4454   13.8637 O   0  0  0  0  0  0  0  0  0  0  0  0
    2.9543   -9.6500   23.2426 O   0  0  0  0  0  0  0  0  0  0  0  0
    4.7821   -7.4645   23.1558 O   0  0  0  0  0  0  0  0  0  0  0  0
   -4.3573   -9.8658   17.5268 C   0  0  0  0  0  0  0  0  0  0  0  0
   -4.8283  -10.2065   18.6525 O   0  0  0  0  0  0  0  0  0  0  0  0
   -5.2664   -9.3871   16.3534 C   0  0  2  0  0  0  0  0  0  0  0  0
   -7.6040  -11.4125   16.1302 N   0  0  0  0  0  0  0  0  0  0  0  0
   -5.4385  -10.5113   15.2857 C   0  0  0  0  0  0  0  0  0  0  0  0
   -6.1933  -11.7421   15.8153 C   0  0  0  0  0  0  0  0  0  0  0  0
   -4.7742   -8.3966   15.7250 O   0  0  0  0  0  0  0  0  0  0  0  0
  1  2  1  1  0  0  0
  1  3  1  0  0  0  0
  1  8  1  0  0  0  0
  3  4  1  0  0  0  0
  3 32  1  1  0  0  0
  4  5  1  0  0  0  0
  4 33  1  1  0  0  0
  5  6  1  6  0  0  0
  5  7  1  0  0  0  0
  7  8  1  0  0  0  0
  7  9  1  6  0  0  0
  9 10  1  0  0  0  0
 11 12  1  6  0  0  0
 11 13  1  0  0  0  0
 11 19  1  0  0  0  0
 12 34  1  0  0  0  0
 13 14  1  0  0  0  0
 14 15  1  6  0  0  0
 14 16  1  0  0  0  0
 16  2  1  1  0  0  0
 16 17  1  0  0  0  0
 17 18  1  6  0  0  0
 17 19  1  0  0  0  0
 19 20  1  1  0  0  0
 21 20  1  1  0  0  0
 21 22  1  0  0  0  0
 21 29  1  0  0  0  0
 22 23  1  1  0  0  0
 22 24  1  0  0  0  0
 24 25  1  6  0  0  0
 24 26  1  0  0  0  0
 26 27  1  1  0  0  0
 26 28  1  0  0  0  0
 28 29  1  0  0  0  0
 28 30  1  6  0  0  0
 30 31  1  0  0  0  0
 34 35  2  0  0  0  0
 36 34  1  1  0  0  0
 36 38  1  0  0  0  0
 36 40  1  0  0  0  0
 37 39  1  0  0  0  0
 38 39  1  0  0  0  0
M  END
>  <CHROM.1>
171.65920673,-175.26110691,179.27061181,-91.86715748,62.99661730,-174.51952172
-178.10102741,76.43434662,65.16614485,66.32962503,-0.19809237,-10.51031690
18.21373823,-0.67575310,0.23906604,-2.58650504

>  <Name>
ligand

>  <RI>
0

>  <Rbt.Current_Directory>
/home/itssahil/PROJECTS/Mol_Feturizer/New_Systems/rnas/4P20

>  <Rbt.Executable>
rbdock ($Id: //depot/dev/client3/rdock/2013.1/src/exe/rbdock.cxx#4 $)

>  <Rbt.Library>
libRbt.so (2013.1, Build901 2013/11/27)

>  <Rbt.Parameter_File>
/export/apps/rDock/src/rDock_2013.1_src/data/scripts/dock_solv.prm

>  <Rbt.Receptor>
prm/pocket_docking_5.prm

>  <SCORE>
-15.3032

>  <SCORE.INTER>
-3.2758

>  <SCORE.INTER.CONST>
1

>  <SCORE.INTER.POLAR>
0

>  <SCORE.INTER.ROT>
10

>  <SCORE.INTER.SOLV>
22.3338

>  <SCORE.INTER.VDW>
-19.8951

>  <SCORE.INTER.norm>
-0.081895

>  <SCORE.INTRA>
-12.0274

>  <SCORE.INTRA.DIHEDRAL>
-25.6142

>  <SCORE.INTRA.DIHEDRAL.0>
28.2802

>  <SCORE.INTRA.POLAR>
0

>  <SCORE.INTRA.POLAR.0>
0

>  <SCORE.INTRA.REPUL>
0

>  <SCORE.INTRA.REPUL.0>
0

>  <SCORE.INTRA.SOLV>
-0.48023

>  <SCORE.INTRA.SOLV.lig_0>
-101.981

>  <SCORE.INTRA.VDW>
1.01984

>  <SCORE.INTRA.VDW.0>
-5.72964

>  <SCORE.INTRA.norm>
-0.300684

>  <SCORE.RESTR>
0

>  <SCORE.RESTR.CAVITY>
0

>  <SCORE.RESTR.norm>
0

>  <SCORE.SYSTEM>
0

>  <SCORE.SYSTEM.CONST>
0

>  <SCORE.SYSTEM.DIHEDRAL>
0

>  <SCORE.SYSTEM.SOLV>
0

>  <SCORE.SYSTEM.norm>
0

>  <SCORE.heavy>
40

>  <SCORE.norm>
-0.382579

>  <RMSD>
2.844

$$$$
ligand
 OpenBabel11021811513D
libRbt.so/2013.1/901 2013/11/27
 40 42  0  0  0  0  0  0  0  0999 V2000
    3.5109   -5.5941   19.4954 C   0  0  2  0  0  0  0  0  0  0  0  0
    2.5240   -6.5974   19.7825 O   0  0  0  0  0  0  0  0  0  0  0  0
    4.6953   -5.6704   20.5301 C   0  0  1  0  0  0  0  0  0  0  0  0
    4.2235   -5.3045   21.9676 C   0  0  2  0  0  0  0  0  0  0  0  0
    3.6592   -3.8492   21.9262 C   0  0  2  0  0  0  0  0  0  0  0  0
    3.2347   -3.4656   23.2518 O   0  0  0  0  0  0  0  0  0  0  0  0
    2.4370   -3.8111   20.9082 C   0  0  2  0  0  0  0  0  0  0  0  0
    2.9070   -4.2240   19.5375 O   0  0  0  0  0  0  0  0  0  0  0  0
    1.8267   -2.4221   20.7809 C   0  0  0  0  0  0  0  0  0  0  0  0
    2.8073   -1.4403   20.2195 N   0  0  0  0  0  0  0  0  0  0  0  0
    0.4499   -9.6606   17.4067 C   0  0  2  0  0  0  0  0  0  0  0  0
   -0.3479  -10.2583   16.3613 N   0  0  0  0  0  0  0  0  0  0  0  0
   -0.4234   -8.6090   18.2031 C   0  0  0  0  0  0  0  0  0  0  0  0
    0.4458   -7.9370   19.3580 C   0  0  2  0  0  0  0  0  0  0  0  0
   -0.3808   -6.9613   20.1158 N   0  0  0  0  0  0  0  0  0  0  0  0
    1.7248   -7.2301   18.7089 C   0  0  2  0  0  0  0  0  0  0  0  0
    2.5656   -8.3231   17.9214 C   0  0  2  0  0  0  0  0  0  0  0  0
    3.7140   -7.7013   17.3401 O   0  0  0  0  0  0  0  0  0  0  0  0
    1.6911   -8.9832   16.7834 C   0  0  1  0  0  0  0  0  0  0  0  0
    2.4656   -9.9922   16.0886 O   0  0  0  0  0  0  0  0  0  0  0  0
    1.9790  -10.8393   15.1035 C   0  0  2  0  0  0  0  0  0  0  0  0
    2.8517  -12.1443   15.1299 C   0  0  2  0  0  0  0  0  0  0  0  0
    2.7963  -12.7204   16.3949 O   0  0  0  0  0  0  0  0  0  0  0  0
    4.3519  -11.8595   14.6943 C   0  0  1  0  0  0  0  0  0  0  0  0
    5.1614  -13.1169   14.7144 N   0  0  0  0  0  0  0  0  0  0  0  0
    4.3456  -11.2084   13.2427 C   0  0  2  0  0  0  0  0  0  0  0  0
    5.6819  -10.9436   12.7980 O   0  0  0  0  0  0  0  0  0  0  0  0
    3.4824   -9.8891   13.3005 C   0  0  2  0  0  0  0  0  0  0  0  0
    2.0656  -10.1896   13.7705 O   0  0  0  0  0  0  0  0  0  0  0  0
    3.4136   -9.2226   11.9472 C   0  0  0  0  0  0  0  0  0  0  0  0
    4.7001   -8.7735   11.4826 O   0  0  0  0  0  0  0  0  0  0  0  0
    5.2466   -7.0190   20.4959 O   0  0  0  0  0  0  0  0  0  0  0  0
    5.2957   -5.3748   22.8238 O   0  0  0  0  0  0  0  0  0  0  0  0
   -0.6599  -11.6668   16.4366 C   0  0  0  0  0  0  0  0  0  0  0  0
    0.0786  -12.4395   17.1167 O   0  0  0  0  0  0  0  0  0  0  0  0
   -1.9106  -12.1801   15.6590 C   0  0  2  0  0  0  0  0  0  0  0  0
   -2.4254  -11.6255   18.7272 N   0  0  0  0  0  0  0  0  0  0  0  0
   -3.2286  -11.7434   16.3701 C   0  0  0  0  0  0  0  0  0  0  0  0
   -3.3625  -12.3003   17.7973 C   0  0  0  0  0  0  0  0  0  0  0  0
   -1.9634  -13.4496   15.5992 O   0  0  0  0  0  0  0  0  0  0  0  0
  1  2  1  1  0  0  0
  1  3  1  0  0  0  0
  1  8  1  0  0  0  0
  3  4  1  0  0  0  0
  3 32  1  1  0  0  0
  4  5  1  0  0  0  0
  4 33  1  1  0  0  0
  5  6  1  1  0  0  0
  5  7  1  0  0  0  0
  7  8  1  0  0  0  0
  7  9  1  6  0  0  0
  9 10  1  0  0  0  0
 11 12  1  6  0  0  0
 11 13  1  0  0  0  0
 11 19  1  0  0  0  0
 12 34  1  0  0  0  0
 13 14  1  0  0  0  0
 14 15  1  6  0  0  0
 14 16  1  0  0  0  0
 16  2  1  1  0  0  0
 16 17  1  0  0  0  0
 17 18  1  6  0  0  0
 17 19  1  0  0  0  0
 19 20  1  1  0  0  0
 21 20  1  1  0  0  0
 21 22  1  0  0  0  0
 21 29  1  0  0  0  0
 22 23  1  1  0  0  0
 22 24  1  0  0  0  0
 24 25  1  6  0  0  0
 24 26  1  0  0  0  0
 26 27  1  1  0  0  0
 26 28  1  0  0  0  0
 28 29  1  0  0  0  0
 28 30  1  6  0  0  0
 30 31  1  0  0  0  0
 34 35  2  0  0  0  0
 36 34  1  1  0  0  0
 36 38  1  0  0  0  0
 36 40  1  0  0  0  0
 37 39  1  0  0  0  0
 38 39  1  0  0  0  0
M  END
>  <CHROM.1>
-148.21248768,-162.69589528,63.13144745,-114.39815484,54.76074998,-153.05696884
-63.83038689,-73.49879687,-61.04245868,72.05672916,2.07899931,-8.66605438
17.50354430,-1.35423829,-0.46699825,-2.32805475

>  <Name>
ligand

>  <RI>
0

>  <Rbt.Current_Directory>
/home/itssahil/PROJECTS/Mol_Feturizer/New_Systems/rnas/4P20

>  <Rbt.Executable>
rbdock ($Id: //depot/dev/client3/rdock/2013.1/src/exe/rbdock.cxx#4 $)

>  <Rbt.Library>
libRbt.so (2013.1, Build901 2013/11/27)

>  <Rbt.Parameter_File>
/export/apps/rDock/src/rDock_2013.1_src/data/scripts/dock_solv.prm

>  <Rbt.Receptor>
prm/pocket_docking_7.prm

>  <SCORE>
-7.26611

>  <SCORE.INTER>
-2.91921

>  <SCORE.INTER.CONST>
1

>  <SCORE.INTER.POLAR>
0

>  <SCORE.INTER.ROT>
10

>  <SCORE.INTER.SOLV>
19.0372

>  <SCORE.INTER.VDW>
-18.5585

>  <SCORE.INTER.norm>
-0.0729803

>  <SCORE.INTRA>
-4.3469

>  <SCORE.INTRA.DIHEDRAL>
-17.0002

>  <SCORE.INTRA.DIHEDRAL.0>
28.2802

>  <SCORE.INTRA.POLAR>
0

>  <SCORE.INTRA.POLAR.0>
0

>  <SCORE.INTRA.REPUL>
0

>  <SCORE.INTRA.REPUL.0>
0

>  <SCORE.INTRA.SOLV>
5.61734

>  <SCORE.INTRA.SOLV.lig_0>
-101.981

>  <SCORE.INTRA.VDW>
1.34455

>  <SCORE.INTRA.VDW.0>
-5.72964

>  <SCORE.INTRA.norm>
-0.108673

>  <SCORE.RESTR>
0

>  <SCORE.RESTR.CAVITY>
0

>  <SCORE.RESTR.norm>
0

>  <SCORE.SYSTEM>
0

>  <SCORE.SYSTEM.CONST>
0

>  <SCORE.SYSTEM.DIHEDRAL>
0

>  <SCORE.SYSTEM.SOLV>
0

>  <SCORE.SYSTEM.norm>
0

>  <SCORE.heavy>
40

>  <SCORE.norm>
-0.181653

>  <RMSD>
2.865

$$$$
ligand
 OpenBabel11021811513D
libRbt.so/2013.1/901 2013/11/27
 40 42  0  0  0  0  0  0  0  0999 V2000
    1.3694   -7.6101   19.7602 C   0  0  2  0  0  0  0  0  0  0  0  0
    0.8830   -7.0189   18.5450 O   0  0  0  0  0  0  0  0  0  0  0  0
    2.4192   -6.6641   20.4547 C   0  0  1  0  0  0  0  0  0  0  0  0
    3.7068   -6.5090   19.5940 C   0  0  2  0  0  0  0  0  0  0  0  0
    4.3273   -7.9298   19.4075 C   0  0  2  0  0  0  0  0  0  0  0  0
    5.5411   -7.8209   18.6334 O   0  0  0  0  0  0  0  0  0  0  0  0
    3.2637   -8.8508   18.6645 C   0  0  2  0  0  0  0  0  0  0  0  0
    2.0061   -8.9386   19.4897 O   0  0  0  0  0  0  0  0  0  0  0  0
    3.7691  -10.2712   18.4524 C   0  0  0  0  0  0  0  0  0  0  0  0
    2.6811  -11.1741   17.9607 N   0  0  0  0  0  0  0  0  0  0  0  0
   -1.8091  -10.1097   16.9546 C   0  0  2  0  0  0  0  0  0  0  0  0
   -2.8353  -10.7345   16.1528 N   0  0  0  0  0  0  0  0  0  0  0  0
   -2.4388   -8.9218   17.7883 C   0  0  0  0  0  0  0  0  0  0  0  0
   -1.3162   -8.2189   18.6752 C   0  0  2  0  0  0  0  0  0  0  0  0
   -1.9127   -7.1137   19.4703 N   0  0  0  0  0  0  0  0  0  0  0  0
   -0.1524   -7.6809   17.7196 C   0  0  2  0  0  0  0  0  0  0  0  0
    0.4448   -8.9065   16.9053 C   0  0  2  0  0  0  0  0  0  0  0  0
    1.4892   -8.4361   16.0502 O   0  0  0  0  0  0  0  0  0  0  0  0
   -0.6788   -9.5956   16.0347 C   0  0  1  0  0  0  0  0  0  0  0  0
   -0.1227  -10.7238   15.3146 O   0  0  0  0  0  0  0  0  0  0  0  0
    0.1711  -10.7440   13.9588 C   0  0  2  0  0  0  0  0  0  0  0  0
    0.2943  -12.2478   13.5250 C   0  0  2  0  0  0  0  0  0  0  0  0
   -0.8883  -12.9192   13.8180 O   0  0  0  0  0  0  0  0  0  0  0  0
    1.5410  -12.9579   14.2055 C   0  0  1  0  0  0  0  0  0  0  0  0
    1.6467  -14.3845   13.7692 N   0  0  0  0  0  0  0  0  0  0  0  0
    2.8570  -12.1472   13.8286 C   0  0  2  0  0  0  0  0  0  0  0  0
    4.0152  -12.7581   14.4106 O   0  0  0  0  0  0  0  0  0  0  0  0
    2.6759  -10.6602   14.3237 C   0  0  2  0  0  0  0  0  0  0  0  0
    1.4440  -10.0259   13.6925 O   0  0  0  0  0  0  0  0  0  0  0  0
    3.8834   -9.8205   13.9814 C   0  0  0  0  0  0  0  0  0  0  0  0
    3.7991   -8.4840   14.5101 O   0  0  0  0  0  0  0  0  0  0  0  0
    1.7899   -5.3689   20.6792 O   0  0  0  0  0  0  0  0  0  0  0  0
    4.5900   -5.6868   20.2510 O   0  0  0  0  0  0  0  0  0  0  0  0
   -3.7139  -11.7017   16.7689 C   0  0  0  0  0  0  0  0  0  0  0  0
   -3.3431  -12.3120   17.8153 O   0  0  0  0  0  0  0  0  0  0  0  0
   -5.1003  -11.9577   16.1018 C   0  0  2  0  0  0  0  0  0  0  0  0
   -7.9279   -9.4953   15.0494 N   0  0  0  0  0  0  0  0  0  0  0  0
   -5.9165  -10.6335   15.9840 C   0  0  0  0  0  0  0  0  0  0  0  0
   -7.2022  -10.7839   15.1537 C   0  0  0  0  0  0  0  0  0  0  0  0
   -5.8321  -12.7466   16.7801 O   0  0  0  0  0  0  0  0  0  0  0  0
  1  2  1  6  0  0  0
  1  3  1  0  0  0  0
  1  8  1  0  0  0  0
  3  4  1  0  0  0  0
  3 32  1  6  0  0  0
  4  5  1  0  0  0  0
  4 33  1  1  0  0  0
  5  6  1  6  0  0  0
  5  7  1  0  0  0  0
  7  8  1  0  0  0  0
  7  9  1  1  0  0  0
  9 10  1  0  0  0  0
 11 12  1  6  0  0  0
 11 13  1  0  0  0  0
 11 19  1  0  0  0  0
 12 34  1  0  0  0  0
 13 14  1  0  0  0  0
 14 15  1  6  0  0  0
 14 16  1  0  0  0  0
 16  2  1  1  0  0  0
 16 17  1  0  0  0  0
 17 18  1  6  0  0  0
 17 19  1  0  0  0  0
 19 20  1  1  0  0  0
 21 20  1  1  0  0  0
 21 22  1  0  0  0  0
 21 29  1  0  0  0  0
 22 23  1  1  0  0  0
 22 24  1  0  0  0  0
 24 25  1  6  0  0  0
 24 26  1  0  0  0  0
 26 27  1  1  0  0  0
 26 28  1  0  0  0  0
 28 29  1  0  0  0  0
 28 30  1  6  0  0  0
 30 31  1  0  0  0  0
 34 35  2  0  0  0  0
 36 34  1  1  0  0  0
 36 38  1  0  0  0  0
 36 40  1  0  0  0  0
 37 39  1  0  0  0  0
 38 39  1  0  0  0  0
M  END
>  <CHROM.1>
-177.80083659,45.03136532,170.63770607,-81.18276251,135.12020414,-161.78601326
-175.42167193,-56.95131920,171.65174732,-178.91301396,0.27435203,-9.76271586
16.76966032,0.52222487,0.08053037,0.82136516

>  <Name>
ligand

>  <RI>
0

>  <Rbt.Current_Directory>
/home/itssahil/PROJECTS/Mol_Feturizer/New_Systems/rnas/4P20

>  <Rbt.Executable>
rbdock ($Id: //depot/dev/client3/rdock/2013.1/src/exe/rbdock.cxx#4 $)

>  <Rbt.Library>
libRbt.so (2013.1, Build901 2013/11/27)

>  <Rbt.Parameter_File>
/export/apps/rDock/src/rDock_2013.1_src/data/scripts/dock_solv.prm

>  <Rbt.Receptor>
prm/pocket_docking_3.prm

>  <SCORE>
-9.59601

>  <SCORE.INTER>
-1.96513

>  <SCORE.INTER.CONST>
1

>  <SCORE.INTER.POLAR>
0

>  <SCORE.INTER.ROT>
10

>  <SCORE.INTER.SOLV>
19.2867

>  <SCORE.INTER.VDW>
-18.0057

>  <SCORE.INTER.norm>
-0.0491282

>  <SCORE.INTRA>
-7.63088

>  <SCORE.INTRA.DIHEDRAL>
-17.7566

>  <SCORE.INTRA.DIHEDRAL.0>
28.2802

>  <SCORE.INTRA.POLAR>
0

>  <SCORE.INTRA.POLAR.0>
0

>  <SCORE.INTRA.REPUL>
0.0491553

>  <SCORE.INTRA.REPUL.0>
0

>  <SCORE.INTRA.SOLV>
2.79675

>  <SCORE.INTRA.SOLV.lig_0>
-101.981

>  <SCORE.INTRA.VDW>
-0.39674

>  <SCORE.INTRA.VDW.0>
-5.72964

>  <SCORE.INTRA.norm>
-0.190772

>  <SCORE.RESTR>
0

>  <SCORE.RESTR.CAVITY>
0

>  <SCORE.RESTR.norm>
0

>  <SCORE.SYSTEM>
0

>  <SCORE.SYSTEM.CONST>
0

>  <SCORE.SYSTEM.DIHEDRAL>
0

>  <SCORE.SYSTEM.SOLV>
0

>  <SCORE.SYSTEM.norm>
0

>  <SCORE.heavy>
40

>  <SCORE.norm>
-0.2399

>  <RMSD>
2.872

$$$$
ligand
 OpenBabel11021811513D
libRbt.so/2013.1/901 2013/11/27
 40 42  0  0  0  0  0  0  0  0999 V2000
    4.1316   -7.3040   19.7742 C   0  0  2  0  0  0  0  0  0  0  0  0
    2.8340   -7.8777   19.9978 O   0  0  0  0  0  0  0  0  0  0  0  0
    5.0865   -7.6040   20.9898 C   0  0  1  0  0  0  0  0  0  0  0  0
    4.6017   -6.8932   22.2870 C   0  0  2  0  0  0  0  0  0  0  0  0
    4.5797   -5.3572   22.0069 C   0  0  2  0  0  0  0  0  0  0  0  0
    4.1584   -4.6620   23.2001 O   0  0  0  0  0  0  0  0  0  0  0  0
    3.5745   -5.0782   20.8055 C   0  0  2  0  0  0  0  0  0  0  0  0
    4.0335   -5.8223   19.5784 O   0  0  0  0  0  0  0  0  0  0  0  0
    3.4971   -3.6021   20.4404 C   0  0  0  0  0  0  0  0  0  0  0  0
    2.8801   -2.7955   21.5401 N   0  0  0  0  0  0  0  0  0  0  0  0
    0.2816   -9.6670   16.8972 C   0  0  2  0  0  0  0  0  0  0  0  0
   -0.7017   -9.7767   15.8449 N   0  0  0  0  0  0  0  0  0  0  0  0
   -0.4070   -9.1127   18.2092 C   0  0  0  0  0  0  0  0  0  0  0  0
    0.6678   -8.9815   19.3790 C   0  0  2  0  0  0  0  0  0  0  0  0
    0.0160   -8.4762   20.6157 N   0  0  0  0  0  0  0  0  0  0  0  0
    1.8433   -8.0064   18.9053 C   0  0  2  0  0  0  0  0  0  0  0  0
    2.4999   -8.6032   17.5882 C   0  0  2  0  0  0  0  0  0  0  0  0
    3.5551   -7.7400   17.1586 O   0  0  0  0  0  0  0  0  0  0  0  0
    1.4232   -8.7314   16.4395 C   0  0  1  0  0  0  0  0  0  0  0  0
    2.0331   -9.2965   15.2524 O   0  0  0  0  0  0  0  0  0  0  0  0
    2.8930  -10.3852   15.2333 C   0  0  2  0  0  0  0  0  0  0  0  0
    3.9083  -10.1640   14.0562 C   0  0  2  0  0  0  0  0  0  0  0  0
    4.5840   -8.9619   14.2390 O   0  0  0  0  0  0  0  0  0  0  0  0
    3.1896  -10.2089   12.6410 C   0  0  1  0  0  0  0  0  0  0  0  0
    4.1759  -10.0087   11.5347 N   0  0  0  0  0  0  0  0  0  0  0  0
    2.4426  -11.6059   12.4934 C   0  0  2  0  0  0  0  0  0  0  0  0
    1.7869  -11.7005   11.2227 O   0  0  0  0  0  0  0  0  0  0  0  0
    1.4182  -11.7428   13.6854 C   0  0  2  0  0  0  0  0  0  0  0  0
    2.1323  -11.6443   15.0266 O   0  0  0  0  0  0  0  0  0  0  0  0
    0.6821  -13.0599   13.6232 C   0  0  0  0  0  0  0  0  0  0  0  0
    1.5630  -14.1943   13.7221 O   0  0  0  0  0  0  0  0  0  0  0  0
    5.1420   -9.0475   21.1827 O   0  0  0  0  0  0  0  0  0  0  0  0
    5.4753   -7.1780   23.3085 O   0  0  0  0  0  0  0  0  0  0  0  0
   -1.3884  -11.0336   15.6559 C   0  0  0  0  0  0  0  0  0  0  0  0
   -0.8607  -12.1077   16.0713 O   0  0  0  0  0  0  0  0  0  0  0  0
   -2.7696  -11.0092   14.9317 C   0  0  2  0  0  0  0  0  0  0  0  0
   -4.9409   -8.8459   17.3340 N   0  0  0  0  0  0  0  0  0  0  0  0
   -3.9123  -10.6237   15.9211 C   0  0  0  0  0  0  0  0  0  0  0  0
   -3.8159   -9.1742   16.4259 C   0  0  0  0  0  0  0  0  0  0  0  0
   -3.0972  -12.1455   14.4631 O   0  0  0  0  0  0  0  0  0  0  0  0
  1  2  1  1  0  0  0
  1  3  1  0  0  0  0
  1  8  1  0  0  0  0
  3  4  1  0  0  0  0
  3 32  1  1  0  0  0
  4  5  1  0  0  0  0
  4 33  1  1  0  0  0
  5  6  1  1  0  0  0
  5  7  1  0  0  0  0
  7  8  1  0  0  0  0
  7  9  1  6  0  0  0
  9 10  1  0  0  0  0
 11 12  1  6  0  0  0
 11 13  1  0  0  0  0
 11 19  1  0  0  0  0
 12 34  1  0  0  0  0
 13 14  1  0  0  0  0
 14 15  1  1  0  0  0
 14 16  1  0  0  0  0
 16  2  1  1  0  0  0
 16 17  1  0  0  0  0
 17 18  1  6  0  0  0
 17 19  1  0  0  0  0
 19 20  1  6  0  0  0
 21 20  1  6  0  0  0
 21 22  1  0  0  0  0
 21 29  1  0  0  0  0
 22 23  1  1  0  0  0
 22 24  1  0  0  0  0
 24 25  1  6  0  0  0
 24 26  1  0  0  0  0
 26 27  1  6  0  0  0
 26 28  1  0  0  0  0
 28 29  1  0  0  0  0
 28 30  1  1  0  0  0
 30 31  1  0  0  0  0
 34 35  2  0  0  0  0
 36 34  1  1  0  0  0
 36 38  1  0  0  0  0
 36 40  1  0  0  0  0
 37 39  1  0  0  0  0
 38 39  1  0  0  0  0
M  END
>  <CHROM.1>
-166.34850162,166.52364425,-66.64780799,-93.07400489,-75.28200369,-147.64954846
61.04055791,-81.82076331,67.02700039,178.54955515,1.75744784,-9.02200567
17.24463907,-1.16657249,-0.15522996,-2.14213624

>  <Name>
ligand

>  <RI>
0

>  <Rbt.Current_Directory>
/home/itssahil/PROJECTS/Mol_Feturizer/New_Systems/rnas/4P20

>  <Rbt.Executable>
rbdock ($Id: //depot/dev/client3/rdock/2013.1/src/exe/rbdock.cxx#4 $)

>  <Rbt.Library>
libRbt.so (2013.1, Build901 2013/11/27)

>  <Rbt.Parameter_File>
/export/apps/rDock/src/rDock_2013.1_src/data/scripts/dock_solv.prm

>  <Rbt.Receptor>
prm/pocket_docking_2.prm

>  <SCORE>
-12.1531

>  <SCORE.INTER>
-5.87807

>  <SCORE.INTER.CONST>
1

>  <SCORE.INTER.POLAR>
0

>  <SCORE.INTER.ROT>
10

>  <SCORE.INTER.SOLV>
18.5335

>  <SCORE.INTER.VDW>
-20.3632

>  <SCORE.INTER.norm>
-0.146952

>  <SCORE.INTRA>
-8.70839

>  <SCORE.INTRA.DIHEDRAL>
-19.0784

>  <SCORE.INTRA.DIHEDRAL.0>
28.2802

>  <SCORE.INTRA.POLAR>
0

>  <SCORE.INTRA.POLAR.0>
0

>  <SCORE.INTRA.REPUL>
0

>  <SCORE.INTRA.REPUL.0>
0

>  <SCORE.INTRA.SOLV>
0.223189

>  <SCORE.INTRA.SOLV.lig_0>
-101.981

>  <SCORE.INTRA.VDW>
0.719215

>  <SCORE.INTRA.VDW.0>
-5.72964

>  <SCORE.INTRA.norm>
-0.21771

>  <SCORE.RESTR>
2.43332

>  <SCORE.RESTR.CAVITY>
2.43332

>  <SCORE.RESTR.norm>
0.0608331

>  <SCORE.SYSTEM>
0

>  <SCORE.SYSTEM.CONST>
0

>  <SCORE.SYSTEM.DIHEDRAL>
0

>  <SCORE.SYSTEM.SOLV>
0

>  <SCORE.SYSTEM.norm>
0

>  <SCORE.heavy>
40

>  <SCORE.norm>
-0.303828

>  <RMSD>
2.915

$$$$
ligand
 OpenBabel11021811513D
libRbt.so/2013.1/901 2013/11/27
 40 42  0  0  0  0  0  0  0  0999 V2000
    1.5395   -8.1666   19.5196 C   0  0  2  0  0  0  0  0  0  0  0  0
    1.1056   -7.4661   18.3432 O   0  0  0  0  0  0  0  0  0  0  0  0
    2.5114   -7.2678   20.3723 C   0  0  1  0  0  0  0  0  0  0  0  0
    3.8417   -6.9857   19.6150 C   0  0  2  0  0  0  0  0  0  0  0  0
    4.5227   -8.3602   19.3233 C   0  0  2  0  0  0  0  0  0  0  0  0
    5.7759   -8.1353   18.6425 O   0  0  0  0  0  0  0  0  0  0  0  0
    3.5391   -9.2294   18.4241 C   0  0  2  0  0  0  0  0  0  0  0  0
    2.2385   -9.4401   19.1550 O   0  0  0  0  0  0  0  0  0  0  0  0
    4.1069  -10.6044   18.0998 C   0  0  0  0  0  0  0  0  0  0  0  0
    4.3510  -11.4050   19.3408 N   0  0  0  0  0  0  0  0  0  0  0  0
   -1.8331  -10.2434   16.6167 C   0  0  2  0  0  0  0  0  0  0  0  0
   -2.8492  -10.7694   15.7352 N   0  0  0  0  0  0  0  0  0  0  0  0
   -2.3633   -8.9222   17.3068 C   0  0  0  0  0  0  0  0  0  0  0  0
   -1.2499   -8.3270   18.2799 C   0  0  2  0  0  0  0  0  0  0  0  0
   -1.7557   -7.0949   18.9399 N   0  0  0  0  0  0  0  0  0  0  0  0
    0.0774   -8.0292   17.4392 C   0  0  2  0  0  0  0  0  0  0  0  0
    0.5679   -9.3815   16.7665 C   0  0  2  0  0  0  0  0  0  0  0  0
    1.7569   -9.1263   16.0153 O   0  0  0  0  0  0  0  0  0  0  0  0
   -0.5462   -9.9618   15.8088 C   0  0  1  0  0  0  0  0  0  0  0  0
   -0.0915  -11.2056   15.2197 O   0  0  0  0  0  0  0  0  0  0  0  0
   -0.6289  -11.8001   14.0872 C   0  0  2  0  0  0  0  0  0  0  0  0
   -0.7204  -13.3431   14.3625 C   0  0  2  0  0  0  0  0  0  0  0  0
   -1.4940  -13.5726   15.4956 O   0  0  0  0  0  0  0  0  0  0  0  0
    0.7168  -14.0030   14.5057 C   0  0  1  0  0  0  0  0  0  0  0  0
    0.6066  -15.4736   14.7548 N   0  0  0  0  0  0  0  0  0  0  0  0
    1.5461  -13.7097   13.1800 C   0  0  2  0  0  0  0  0  0  0  0  0
    2.8506  -14.2979   13.2552 O   0  0  0  0  0  0  0  0  0  0  0  0
    1.6261  -12.1459   12.9873 C   0  0  2  0  0  0  0  0  0  0  0  0
    0.2321  -11.5388   12.9052 O   0  0  0  0  0  0  0  0  0  0  0  0
    2.3853  -11.7892   11.7316 C   0  0  0  0  0  0  0  0  0  0  0  0
    2.6546  -10.3788   11.6265 O   0  0  0  0  0  0  0  0  0  0  0  0
    1.8237   -6.0223   20.6883 O   0  0  0  0  0  0  0  0  0  0  0  0
    4.6540   -6.2110   20.4073 O   0  0  0  0  0  0  0  0  0  0  0  0
   -3.9885  -11.4497   16.3064 C   0  0  0  0  0  0  0  0  0  0  0  0
   -3.9018  -11.9608   17.4623 O   0  0  0  0  0  0  0  0  0  0  0  0
   -5.2934  -11.5289   15.4558 C   0  0  2  0  0  0  0  0  0  0  0  0
   -8.2704  -10.8377   14.7946 N   0  0  0  0  0  0  0  0  0  0  0  0
   -5.9345  -10.1172   15.2835 C   0  0  0  0  0  0  0  0  0  0  0  0
   -7.0961  -10.0961   14.2759 C   0  0  0  0  0  0  0  0  0  0  0  0
   -6.1922  -12.2438   16.0028 O   0  0  0  0  0  0  0  0  0  0  0  0
  1  2  1  6  0  0  0
  1  3  1  0  0  0  0
  1  8  1  0  0  0  0
  3  4  1  0  0  0  0
  3 32  1  6  0  0  0
  4  5  1  0  0  0  0
  4 33  1  1  0  0  0
  5  6  1  6  0  0  0
  5  7  1  0  0  0  0
  7  8  1  0  0  0  0
  7  9  1  1  0  0  0
  9 10  1  0  0  0  0
 11 12  1  6  0  0  0
 11 13  1  0  0  0  0
 11 19  1  0  0  0  0
 12 34  1  0  0  0  0
 13 14  1  0  0  0  0
 14 15  1  6  0  0  0
 14 16  1  0  0  0  0
 16  2  1  1  0  0  0
 16 17  1  0  0  0  0
 17 18  1  6  0  0  0
 17 19  1  0  0  0  0
 19 20  1  1  0  0  0
 21 20  1  1  0  0  0
 21 22  1  0  0  0  0
 21 29  1  0  0  0  0
 22 23  1  1  0  0  0
 22 24  1  0  0  0  0
 24 25  1  6  0  0  0
 24 26  1  0  0  0  0
 26 27  1  1  0  0  0
 26 28  1  0  0  0  0
 28 29  1  0  0  0  0
 28 30  1  6  0  0  0
 30 31  1  0  0  0  0
 34 35  2  0  0  0  0
 36 34  1  1  0  0  0
 36 38  1  0  0  0  0
 36 40  1  0  0  0  0
 37 39  1  0  0  0  0
 38 39  1  0  0  0  0
M  END
>  <CHROM.1>
-173.59133150,56.70288423,60.89787084,-75.53964356,78.27081791,-138.18362249
-171.16701057,-67.68045805,170.97581018,68.84941177,0.05618721,-10.30774808
16.46206772,0.65782635,-0.02637542,0.82078176

>  <Name>
ligand

>  <RI>
0

>  <Rbt.Current_Directory>
/home/itssahil/PROJECTS/Mol_Feturizer/New_Systems/rnas/4P20

>  <Rbt.Executable>
rbdock ($Id: //depot/dev/client3/rdock/2013.1/src/exe/rbdock.cxx#4 $)

>  <Rbt.Library>
libRbt.so (2013.1, Build901 2013/11/27)

>  <Rbt.Parameter_File>
/export/apps/rDock/src/rDock_2013.1_src/data/scripts/dock_solv.prm

>  <Rbt.Receptor>
prm/pocket_docking_4.prm

>  <SCORE>
-14.7376

>  <SCORE.INTER>
-7.13469

>  <SCORE.INTER.CONST>
1

>  <SCORE.INTER.POLAR>
0

>  <SCORE.INTER.ROT>
10

>  <SCORE.INTER.SOLV>
21.2151

>  <SCORE.INTER.VDW>
-22.0948

>  <SCORE.INTER.norm>
-0.178367

>  <SCORE.INTRA>
-7.60293

>  <SCORE.INTRA.DIHEDRAL>
-18.8776

>  <SCORE.INTRA.DIHEDRAL.0>
28.2802

>  <SCORE.INTRA.POLAR>
0

>  <SCORE.INTRA.POLAR.0>
0

>  <SCORE.INTRA.REPUL>
0

>  <SCORE.INTRA.REPUL.0>
0

>  <SCORE.INTRA.SOLV>
2.16314

>  <SCORE.INTRA.SOLV.lig_0>
-101.981

>  <SCORE.INTRA.VDW>
0.754288

>  <SCORE.INTRA.VDW.0>
-5.72964

>  <SCORE.INTRA.norm>
-0.190073

>  <SCORE.RESTR>
0

>  <SCORE.RESTR.CAVITY>
0

>  <SCORE.RESTR.norm>
0

>  <SCORE.SYSTEM>
0

>  <SCORE.SYSTEM.CONST>
0

>  <SCORE.SYSTEM.DIHEDRAL>
0

>  <SCORE.SYSTEM.SOLV>
0

>  <SCORE.SYSTEM.norm>
0

>  <SCORE.heavy>
40

>  <SCORE.norm>
-0.36844

>  <RMSD>
2.966

$$$$
ligand
 OpenBabel11021811513D
libRbt.so/2013.1/901 2013/11/27
 40 42  0  0  0  0  0  0  0  0999 V2000
    2.7113   -8.9844   20.5916 C   0  0  2  0  0  0  0  0  0  0  0  0
    2.5680   -7.9750   19.5799 O   0  0  0  0  0  0  0  0  0  0  0  0
    3.8357   -8.5836   21.6183 C   0  0  1  0  0  0  0  0  0  0  0  0
    5.2393   -8.5517   20.9460 C   0  0  2  0  0  0  0  0  0  0  0  0
    5.5295   -9.9796   20.3848 C   0  0  2  0  0  0  0  0  0  0  0  0
    6.8382   -9.9942   19.7751 O   0  0  0  0  0  0  0  0  0  0  0  0
    4.4051  -10.3404   19.3185 C   0  0  2  0  0  0  0  0  0  0  0  0
    3.0516  -10.3086   19.9799 O   0  0  0  0  0  0  0  0  0  0  0  0
    4.5888  -11.7301   18.7243 C   0  0  0  0  0  0  0  0  0  0  0  0
    5.8644  -11.8315   17.9476 N   0  0  0  0  0  0  0  0  0  0  0  0
   -1.0730   -9.2554   17.4742 C   0  0  2  0  0  0  0  0  0  0  0  0
   -2.1765   -9.2466   16.5422 N   0  0  0  0  0  0  0  0  0  0  0  0
   -1.1515   -7.9746   18.3994 C   0  0  0  0  0  0  0  0  0  0  0  0
    0.0638   -7.9679   19.4310 C   0  0  2  0  0  0  0  0  0  0  0  0
   -0.0207   -6.7725   20.3103 N   0  0  0  0  0  0  0  0  0  0  0  0
    1.4414   -7.9926   18.6196 C   0  0  2  0  0  0  0  0  0  0  0  0
    1.4715   -9.2920   17.7071 C   0  0  2  0  0  0  0  0  0  0  0  0
    2.7017   -9.3252   16.9800 O   0  0  0  0  0  0  0  0  0  0  0  0
    0.2602   -9.2873   16.6933 C   0  0  1  0  0  0  0  0  0  0  0  0
    0.2901  -10.4886   15.8831 O   0  0  0  0  0  0  0  0  0  0  0  0
   -0.2369  -10.6075   14.6052 C   0  0  2  0  0  0  0  0  0  0  0  0
   -0.3261  -12.1392   14.2720 C   0  0  2  0  0  0  0  0  0  0  0  0
   -1.1078  -12.7823   15.2263 O   0  0  0  0  0  0  0  0  0  0  0  0
    1.1118  -12.8043   14.1651 C   0  0  1  0  0  0  0  0  0  0  0  0
    1.0039  -14.2591   13.8352 N   0  0  0  0  0  0  0  0  0  0  0  0
    1.9503  -12.0289   13.0575 C   0  0  2  0  0  0  0  0  0  0  0  0
    3.2559  -12.6019   12.9139 O   0  0  0  0  0  0  0  0  0  0  0  0
    2.0273  -10.5095   13.4749 C   0  0  2  0  0  0  0  0  0  0  0  0
    0.6323   -9.9164   13.6185 O   0  0  0  0  0  0  0  0  0  0  0  0
    2.7952   -9.7021   12.4556 C   0  0  0  0  0  0  0  0  0  0  0  0
    4.1877  -10.0627   12.3953 O   0  0  0  0  0  0  0  0  0  0  0  0
    3.5017   -7.2796   22.1768 O   0  0  0  0  0  0  0  0  0  0  0  0
    6.1803   -8.2100   21.8869 O   0  0  0  0  0  0  0  0  0  0  0  0
   -3.4095   -9.9035   16.9100 C   0  0  0  0  0  0  0  0  0  0  0  0
   -3.3983  -10.8171   17.7876 O   0  0  0  0  0  0  0  0  0  0  0  0
   -4.7190   -9.4527   16.1927 C   0  0  2  0  0  0  0  0  0  0  0  0
   -7.5432   -8.0801   16.0092 N   0  0  0  0  0  0  0  0  0  0  0  0
   -5.1307   -8.0142   16.6338 C   0  0  0  0  0  0  0  0  0  0  0  0
   -6.2448   -7.4074   15.7646 C   0  0  0  0  0  0  0  0  0  0  0  0
   -5.7138  -10.1918   16.4792 O   0  0  0  0  0  0  0  0  0  0  0  0
  1  2  1  6  0  0  0
  1  3  1  0  0  0  0
  1  8  1  0  0  0  0
  3  4  1  0  0  0  0
  3 32  1  6  0  0  0
  4  5  1  0  0  0  0
  4 33  1  1  0  0  0
  5  6  1  6  0  0  0
  5  7  1  0  0  0  0
  7  8  1  0  0  0  0
  7  9  1  1  0  0  0
  9 10  1  0  0  0  0
 11 12  1  6  0  0  0
 11 13  1  0  0  0  0
 11 19  1  0  0  0  0
 12 34  1  0  0  0  0
 13 14  1  0  0  0  0
 14 15  1  6  0  0  0
 14 16  1  0  0  0  0
 16  2  1  1  0  0  0
 16 17  1  0  0  0  0
 17 18  1  6  0  0  0
 17 19  1  0  0  0  0
 19 20  1  1  0  0  0
 21 20  1  1  0  0  0
 21 22  1  0  0  0  0
 21 29  1  0  0  0  0
 22 23  1  1  0  0  0
 22 24  1  0  0  0  0
 24 25  1  6  0  0  0
 24 26  1  0  0  0  0
 26 27  1  1  0  0  0
 26 28  1  0  0  0  0
 28 29  1  0  0  0  0
 28 30  1  6  0  0  0
 30 31  1  0  0  0  0
 34 35  2  0  0  0  0
 36 34  1  1  0  0  0
 36 38  1  0  0  0  0
 36 40  1  0  0  0  0
 37 39  1  0  0  0  0
 38 39  1  0  0  0  0
M  END
>  <CHROM.1>
-170.03285623,57.55729536,-63.75846947,-91.01900957,86.74554070,-165.17073715
-66.38773385,-69.44476970,168.59434233,70.64278578,0.91986410,-9.82281373
17.16845839,0.41682553,-0.19804104,1.08748890

>  <Name>
ligand

>  <RI>
0

>  <Rbt.Current_Directory>
/home/itssahil/PROJECTS/Mol_Feturizer/New_Systems/rnas/4P20

>  <Rbt.Executable>
rbdock ($Id: //depot/dev/client3/rdock/2013.1/src/exe/rbdock.cxx#4 $)

>  <Rbt.Library>
libRbt.so (2013.1, Build901 2013/11/27)

>  <Rbt.Parameter_File>
/export/apps/rDock/src/rDock_2013.1_src/data/scripts/dock_solv.prm

>  <Rbt.Receptor>
prm/pocket_docking_6.prm

>  <SCORE>
-13.3402

>  <SCORE.INTER>
-4.50106

>  <SCORE.INTER.CONST>
1

>  <SCORE.INTER.POLAR>
0

>  <SCORE.INTER.ROT>
10

>  <SCORE.INTER.SOLV>
16.2019

>  <SCORE.INTER.VDW>
-18.668

>  <SCORE.INTER.norm>
-0.112526

>  <SCORE.INTRA>
-8.83918

>  <SCORE.INTRA.DIHEDRAL>
-21.1441

>  <SCORE.INTRA.DIHEDRAL.0>
28.2802

>  <SCORE.INTRA.POLAR>
0

>  <SCORE.INTRA.POLAR.0>
0

>  <SCORE.INTRA.REPUL>
0

>  <SCORE.INTRA.REPUL.0>
0

>  <SCORE.INTRA.SOLV>
1.96513

>  <SCORE.INTRA.SOLV.lig_0>
-101.981

>  <SCORE.INTRA.VDW>
0.750327

>  <SCORE.INTRA.VDW.0>
-5.72964

>  <SCORE.INTRA.norm>
-0.22098

>  <SCORE.RESTR>
0

>  <SCORE.RESTR.CAVITY>
0

>  <SCORE.RESTR.norm>
0

>  <SCORE.SYSTEM>
0

>  <SCORE.SYSTEM.CONST>
0

>  <SCORE.SYSTEM.DIHEDRAL>
0

>  <SCORE.SYSTEM.SOLV>
0

>  <SCORE.SYSTEM.norm>
0

>  <SCORE.heavy>
40

>  <SCORE.norm>
-0.333506

>  <RMSD>
2.983

$$$$
ligand
 OpenBabel11021811513D
libRbt.so/2013.1/901 2013/11/27
 40 42  0  0  0  0  0  0  0  0999 V2000
    0.9741   -7.7367   19.5971 C   0  0  2  0  0  0  0  0  0  0  0  0
    0.4879   -7.0808   18.4154 O   0  0  0  0  0  0  0  0  0  0  0  0
    1.9642   -6.7982   20.3836 C   0  0  1  0  0  0  0  0  0  0  0  0
    3.2619   -6.5246   19.5688 C   0  0  2  0  0  0  0  0  0  0  0  0
    3.9506   -7.8994   19.2968 C   0  0  2  0  0  0  0  0  0  0  0  0
    5.1748   -7.6814   18.5632 O   0  0  0  0  0  0  0  0  0  0  0  0
    2.9467   -8.8100   18.4634 C   0  0  2  0  0  0  0  0  0  0  0  0
    1.6767   -9.0127   19.2485 O   0  0  0  0  0  0  0  0  0  0  0  0
    3.5210  -10.1878   18.1631 C   0  0  0  0  0  0  0  0  0  0  0  0
    3.8104  -10.9484   19.4194 N   0  0  0  0  0  0  0  0  0  0  0  0
   -2.3672  -10.0141   16.8110 C   0  0  2  0  0  0  0  0  0  0  0  0
   -3.3775  -10.6012   15.9619 N   0  0  0  0  0  0  0  0  0  0  0  0
   -2.9377   -8.6993   17.4809 C   0  0  0  0  0  0  0  0  0  0  0  0
   -1.8314   -8.0369   18.4180 C   0  0  2  0  0  0  0  0  0  0  0  0
   -2.3745   -6.8108   19.0593 N   0  0  0  0  0  0  0  0  0  0  0  0
   -0.5333   -7.7061   17.5449 C   0  0  2  0  0  0  0  0  0  0  0  0
   -0.0008   -9.0532   16.8940 C   0  0  2  0  0  0  0  0  0  0  0  0
    1.1626   -8.7684   16.1139 O   0  0  0  0  0  0  0  0  0  0  0  0
   -1.1081   -9.7004   15.9718 C   0  0  1  0  0  0  0  0  0  0  0  0
   -0.6144  -10.9385   15.4027 O   0  0  0  0  0  0  0  0  0  0  0  0
   -0.1532  -11.0963   14.1037 C   0  0  2  0  0  0  0  0  0  0  0  0
   -0.0440  -12.6376   13.8256 C   0  0  2  0  0  0  0  0  0  0  0  0
   -1.2831  -13.2388   14.0216 O   0  0  0  0  0  0  0  0  0  0  0  0
    1.0737  -13.3211   14.7228 C   0  0  1  0  0  0  0  0  0  0  0  0
    1.1693  -14.7853   14.4331 N   0  0  0  0  0  0  0  0  0  0  0  0
    2.4618  -12.5937   14.4488 C   0  0  2  0  0  0  0  0  0  0  0  0
    3.5088  -13.1849   15.2284 O   0  0  0  0  0  0  0  0  0  0  0  0
    2.2868  -11.0615   14.7815 C   0  0  2  0  0  0  0  0  0  0  0  0
    1.1740  -10.4491   13.9416 O   0  0  0  0  0  0  0  0  0  0  0  0
    3.5643  -10.2982   14.5249 C   0  0  0  0  0  0  0  0  0  0  0  0
    3.4410   -8.8938   14.8167 O   0  0  0  0  0  0  0  0  0  0  0  0
    1.2715   -5.5517   20.6841 O   0  0  0  0  0  0  0  0  0  0  0  0
    4.0919   -5.7141   20.3048 O   0  0  0  0  0  0  0  0  0  0  0  0
   -4.6166  -11.0493   16.5541 C   0  0  0  0  0  0  0  0  0  0  0  0
   -4.6573  -11.3355   17.7876 O   0  0  0  0  0  0  0  0  0  0  0  0
   -5.8671  -11.1670   15.6295 C   0  0  2  0  0  0  0  0  0  0  0  0
   -6.9668   -7.4312   15.6665 N   0  0  0  0  0  0  0  0  0  0  0  0
   -6.3033   -9.7663   15.0990 C   0  0  0  0  0  0  0  0  0  0  0  0
   -6.5268   -8.7352   16.2180 C   0  0  0  0  0  0  0  0  0  0  0  0
   -6.8841  -11.6299   16.2374 O   0  0  0  0  0  0  0  0  0  0  0  0
  1  2  1  6  0  0  0
  1  3  1  0  0  0  0
  1  8  1  0  0  0  0
  3  4  1  0  0  0  0
  3 32  1  6  0  0  0
  4  5  1  0  0  0  0
  4 33  1  1  0  0  0
  5  6  1  6  0  0  0
  5  7  1  0  0  0  0
  7  8  1  0  0  0  0
  7  9  1  1  0  0  0
  9 10  1  0  0  0  0
 11 12  1  6  0  0  0
 11 13  1  0  0  0  0
 11 19  1  0  0  0  0
 12 34  1  0  0  0  0
 13 14  1  0  0  0  0
 14 15  1  6  0  0  0
 14 16  1  0  0  0  0
 16  2  1  1  0  0  0
 16 17  1  0  0  0  0
 17 18  1  6  0  0  0
 17 19  1  0  0  0  0
 19 20  1  1  0  0  0
 21 20  1  1  0  0  0
 21 22  1  0  0  0  0
 21 29  1  0  0  0  0
 22 23  1  1  0  0  0
 22 24  1  0  0  0  0
 24 25  1  6  0  0  0
 24 26  1  0  0  0  0
 26 27  1  1  0  0  0
 26 28  1  0  0  0  0
 28 29  1  0  0  0  0
 28 30  1  6  0  0  0
 30 31  1  0  0  0  0
 34 35  2  0  0  0  0
 36 34  1  1  0  0  0
 36 38  1  0  0  0  0
 36 40  1  0  0  0  0
 37 39  1  0  0  0  0
 38 39  1  0  0  0  0
M  END
>  <CHROM.1>
-175.60841156,56.85889625,61.38089365,-61.96562388,137.74608964,-166.94227281
179.93705679,-65.22980367,-53.77567970,-178.80170213,-0.10116295,-9.66197599
16.85072345,0.40013364,-0.06400022,0.71670782

>  <Name>
ligand

>  <RI>
0

>  <Rbt.Current_Directory>
/home/itssahil/PROJECTS/Mol_Feturizer/New_Systems/rnas/4P20

>  <Rbt.Executable>
rbdock ($Id: //depot/dev/client3/rdock/2013.1/src/exe/rbdock.cxx#4 $)

>  <Rbt.Library>
libRbt.so (2013.1, Build901 2013/11/27)

>  <Rbt.Parameter_File>
/export/apps/rDock/src/rDock_2013.1_src/data/scripts/dock_solv.prm

>  <Rbt.Receptor>
prm/pocket_docking_4.prm

>  <SCORE>
-11.4269

>  <SCORE.INTER>
-2.18247

>  <SCORE.INTER.CONST>
1

>  <SCORE.INTER.POLAR>
0

>  <SCORE.INTER.ROT>
10

>  <SCORE.INTER.SOLV>
20.2195

>  <SCORE.INTER.VDW>
-18.4615

>  <SCORE.INTER.norm>
-0.0545617

>  <SCORE.INTRA>
-9.24446

>  <SCORE.INTRA.DIHEDRAL>
-20.5763

>  <SCORE.INTRA.DIHEDRAL.0>
28.2802

>  <SCORE.INTRA.POLAR>
0

>  <SCORE.INTRA.POLAR.0>
0

>  <SCORE.INTRA.REPUL>
0

>  <SCORE.INTRA.REPUL.0>
0

>  <SCORE.INTRA.SOLV>
1.40883

>  <SCORE.INTRA.SOLV.lig_0>
-101.981

>  <SCORE.INTRA.VDW>
0.339288

>  <SCORE.INTRA.VDW.0>
-5.72964

>  <SCORE.INTRA.norm>
-0.231112

>  <SCORE.RESTR>
0

>  <SCORE.RESTR.CAVITY>
0

>  <SCORE.RESTR.norm>
0

>  <SCORE.SYSTEM>
0

>  <SCORE.SYSTEM.CONST>
0

>  <SCORE.SYSTEM.DIHEDRAL>
0

>  <SCORE.SYSTEM.SOLV>
0

>  <SCORE.SYSTEM.norm>
0

>  <SCORE.heavy>
40

>  <SCORE.norm>
-0.285673

>  <RMSD>
3.002

$$$$
ligand
 OpenBabel11021811513D
libRbt.so/2013.1/901 2013/11/27
 40 42  0  0  0  0  0  0  0  0999 V2000
    1.3162   -8.0401   19.4787 C   0  0  2  0  0  0  0  0  0  0  0  0
    0.8399   -7.4077   18.2803 O   0  0  0  0  0  0  0  0  0  0  0  0
    2.2551   -7.0654   20.2835 C   0  0  1  0  0  0  0  0  0  0  0  0
    3.5640   -6.7553   19.5003 C   0  0  2  0  0  0  0  0  0  0  0  0
    4.3031   -8.1089   19.2558 C   0  0  2  0  0  0  0  0  0  0  0  0
    5.5382   -7.8561   18.5522 O   0  0  0  0  0  0  0  0  0  0  0  0
    3.3507   -9.0565   18.4034 C   0  0  2  0  0  0  0  0  0  0  0  0
    2.0681   -9.2951   19.1572 O   0  0  0  0  0  0  0  0  0  0  0  0
    3.9764  -10.4169   18.1277 C   0  0  0  0  0  0  0  0  0  0  0  0
    4.2851  -11.1474   19.3972 N   0  0  0  0  0  0  0  0  0  0  0  0
   -2.0687  -10.3318   16.7574 C   0  0  2  0  0  0  0  0  0  0  0  0
   -3.0929  -10.9220   15.9272 N   0  0  0  0  0  0  0  0  0  0  0  0
   -2.6153   -8.9942   17.4015 C   0  0  0  0  0  0  0  0  0  0  0  0
   -1.4934   -8.3283   18.3174 C   0  0  2  0  0  0  0  0  0  0  0  0
   -2.0141   -7.0805   18.9349 N   0  0  0  0  0  0  0  0  0  0  0  0
   -0.1959   -8.0363   17.4297 C   0  0  2  0  0  0  0  0  0  0  0  0
    0.3123   -9.4052   16.8054 C   0  0  2  0  0  0  0  0  0  0  0  0
    1.4750   -9.1551   16.0125 O   0  0  0  0  0  0  0  0  0  0  0  0
   -0.8103  -10.0555   15.9041 C   0  0  1  0  0  0  0  0  0  0  0  0
   -0.3387  -11.3131   15.3593 O   0  0  0  0  0  0  0  0  0  0  0  0
   -0.9035  -11.9832   14.2838 C   0  0  2  0  0  0  0  0  0  0  0  0
   -0.8996  -13.5152   14.6275 C   0  0  2  0  0  0  0  0  0  0  0  0
   -1.5991  -13.7326   15.8101 O   0  0  0  0  0  0  0  0  0  0  0  0
    0.5756  -14.0956   14.7185 C   0  0  1  0  0  0  0  0  0  0  0  0
    0.5557  -15.5574   15.0341 N   0  0  0  0  0  0  0  0  0  0  0  0
    1.3171  -13.8202   13.3381 C   0  0  2  0  0  0  0  0  0  0  0  0
    2.6528  -14.3386   13.3656 O   0  0  0  0  0  0  0  0  0  0  0  0
    1.3051  -12.2644   13.0766 C   0  0  2  0  0  0  0  0  0  0  0  0
   -0.1211  -11.7318   13.0463 O   0  0  0  0  0  0  0  0  0  0  0  0
    1.9771  -11.9262   11.7672 C   0  0  0  0  0  0  0  0  0  0  0  0
    3.3997  -12.1456   11.7996 O   0  0  0  0  0  0  0  0  0  0  0  0
    1.5154   -5.8399   20.5574 O   0  0  0  0  0  0  0  0  0  0  0  0
    4.3484   -5.9139   20.2516 O   0  0  0  0  0  0  0  0  0  0  0  0
   -4.0796  -11.7828   16.5375 C   0  0  0  0  0  0  0  0  0  0  0  0
   -3.8197  -12.3583   17.6358 O   0  0  0  0  0  0  0  0  0  0  0  0
   -5.4408  -11.9708   15.7997 C   0  0  2  0  0  0  0  0  0  0  0  0
   -7.6469  -10.7206   13.9828 N   0  0  0  0  0  0  0  0  0  0  0  0
   -6.4338  -10.8225   16.1583 C   0  0  0  0  0  0  0  0  0  0  0  0
   -7.7889  -10.9448   15.4415 C   0  0  0  0  0  0  0  0  0  0  0  0
   -6.0335  -13.0463   16.1316 O   0  0  0  0  0  0  0  0  0  0  0  0
  1  2  1  6  0  0  0
  1  3  1  0  0  0  0
  1  8  1  0  0  0  0
  3  4  1  0  0  0  0
  3 32  1  6  0  0  0
  4  5  1  0  0  0  0
  4 33  1  1  0  0  0
  5  6  1  6  0  0  0
  5  7  1  0  0  0  0
  7  8  1  0  0  0  0
  7  9  1  1  0  0  0
  9 10  1  0  0  0  0
 11 12  1  6  0  0  0
 11 13  1  0  0  0  0
 11 19  1  0  0  0  0
 12 34  1  0  0  0  0
 13 14  1  0  0  0  0
 14 15  1  6  0  0  0
 14 16  1  0  0  0  0
 16  2  1  1  0  0  0
 16 17  1  0  0  0  0
 17 18  1  6  0  0  0
 17 19  1  0  0  0  0
 19 20  1  1  0  0  0
 21 20  1  1  0  0  0
 21 22  1  0  0  0  0
 21 29  1  0  0  0  0
 22 23  1  1  0  0  0
 22 24  1  0  0  0  0
 24 25  1  6  0  0  0
 24 26  1  0  0  0  0
 26 27  1  1  0  0  0
 26 28  1  0  0  0  0
 28 29  1  0  0  0  0
 28 30  1  6  0  0  0
 30 31  1  0  0  0  0
 34 35  2  0  0  0  0
 36 34  1  1  0  0  0
 36 38  1  0  0  0  0
 36 40  1  0  0  0  0
 37 39  1  0  0  0  0
 38 39  1  0  0  0  0
M  END
>  <CHROM.1>
-172.01030864,56.37773477,60.13658281,-85.37675099,77.05946513,-139.45234606
-69.51754723,-84.82983337,179.13776815,-68.12736006,-0.12182974,-10.42924713
16.56321436,0.70009436,0.02225143,0.77270933

>  <Name>
ligand

>  <RI>
0

>  <Rbt.Current_Directory>
/home/itssahil/PROJECTS/Mol_Feturizer/New_Systems/rnas/4P20

>  <Rbt.Executable>
rbdock ($Id: //depot/dev/client3/rdock/2013.1/src/exe/rbdock.cxx#4 $)

>  <Rbt.Library>
libRbt.so (2013.1, Build901 2013/11/27)

>  <Rbt.Parameter_File>
/export/apps/rDock/src/rDock_2013.1_src/data/scripts/dock_solv.prm

>  <Rbt.Receptor>
prm/pocket_docking_3.prm

>  <SCORE>
-12.9724

>  <SCORE.INTER>
-5.42204

>  <SCORE.INTER.CONST>
1

>  <SCORE.INTER.POLAR>
0

>  <SCORE.INTER.ROT>
10

>  <SCORE.INTER.SOLV>
23.5078

>  <SCORE.INTER.VDW>
-21.7173

>  <SCORE.INTER.norm>
-0.135551

>  <SCORE.INTRA>
-7.55039

>  <SCORE.INTRA.DIHEDRAL>
-18.6364

>  <SCORE.INTRA.DIHEDRAL.0>
28.2802

>  <SCORE.INTRA.POLAR>
0

>  <SCORE.INTRA.POLAR.0>
0

>  <SCORE.INTRA.REPUL>
0

>  <SCORE.INTRA.REPUL.0>
0

>  <SCORE.INTRA.SOLV>
2.03627

>  <SCORE.INTRA.SOLV.lig_0>
-101.981

>  <SCORE.INTRA.VDW>
0.749686

>  <SCORE.INTRA.VDW.0>
-5.72964

>  <SCORE.INTRA.norm>
-0.18876

>  <SCORE.RESTR>
0

>  <SCORE.RESTR.CAVITY>
0

>  <SCORE.RESTR.norm>
0

>  <SCORE.SYSTEM>
0

>  <SCORE.SYSTEM.CONST>
0

>  <SCORE.SYSTEM.DIHEDRAL>
0

>  <SCORE.SYSTEM.SOLV>
0

>  <SCORE.SYSTEM.norm>
0

>  <SCORE.heavy>
40

>  <SCORE.norm>
-0.324311

>  <RMSD>
3.061

$$$$
ligand
 OpenBabel11021811513D
libRbt.so/2013.1/901 2013/11/27
 40 42  0  0  0  0  0  0  0  0999 V2000
    1.4034   -7.7153   19.5842 C   0  0  2  0  0  0  0  0  0  0  0  0
    0.8646   -7.1468   18.3803 O   0  0  0  0  0  0  0  0  0  0  0  0
    2.4302   -6.7260   20.2524 C   0  0  1  0  0  0  0  0  0  0  0  0
    3.6897   -6.5207   19.3610 C   0  0  2  0  0  0  0  0  0  0  0  0
    4.3626   -7.9155   19.1613 C   0  0  2  0  0  0  0  0  0  0  0  0
    5.5522   -7.7592   18.3583 O   0  0  0  0  0  0  0  0  0  0  0  0
    3.3198   -8.8804   18.4450 C   0  0  2  0  0  0  0  0  0  0  0  0
    2.0869   -9.0174   19.3001 O   0  0  0  0  0  0  0  0  0  0  0  0
    3.8773  -10.2797   18.2224 C   0  0  0  0  0  0  0  0  0  0  0  0
    5.0198  -10.2688   17.2554 N   0  0  0  0  0  0  0  0  0  0  0  0
   -2.0376  -10.1928   17.1040 C   0  0  2  0  0  0  0  0  0  0  0  0
   -3.0963  -10.8305   16.3564 N   0  0  0  0  0  0  0  0  0  0  0  0
   -2.5848   -8.8664   17.7702 C   0  0  0  0  0  0  0  0  0  0  0  0
   -1.4253   -8.1484   18.5954 C   0  0  2  0  0  0  0  0  0  0  0  0
   -1.9455   -6.9111   19.2341 N   0  0  0  0  0  0  0  0  0  0  0  0
   -0.2058   -7.8235   17.6135 C   0  0  2  0  0  0  0  0  0  0  0  0
    0.3057   -9.1823   16.9703 C   0  0  2  0  0  0  0  0  0  0  0  0
    1.3992   -8.9026   16.0931 O   0  0  0  0  0  0  0  0  0  0  0  0
   -0.8539   -9.8845   16.1595 C   0  0  1  0  0  0  0  0  0  0  0  0
   -0.3772  -11.1322   15.5969 O   0  0  0  0  0  0  0  0  0  0  0  0
   -1.0076  -11.8514   14.5918 C   0  0  2  0  0  0  0  0  0  0  0  0
   -0.9780  -13.3657   15.0053 C   0  0  2  0  0  0  0  0  0  0  0  0
   -1.6004  -13.5276   16.2389 O   0  0  0  0  0  0  0  0  0  0  0  0
    0.5015  -13.9419   15.0291 C   0  0  1  0  0  0  0  0  0  0  0  0
    0.5053  -15.3875   15.4129 N   0  0  0  0  0  0  0  0  0  0  0  0
    1.1530  -13.7314   13.5930 C   0  0  2  0  0  0  0  0  0  0  0  0
    2.4889  -14.2486   13.5595 O   0  0  0  0  0  0  0  0  0  0  0  0
    1.1204  -12.1894   13.2608 C   0  0  2  0  0  0  0  0  0  0  0  0
   -0.3061  -11.6582   13.2967 O   0  0  0  0  0  0  0  0  0  0  0  0
    1.7070  -11.9128   11.8971 C   0  0  0  0  0  0  0  0  0  0  0  0
    3.1197  -12.1833   11.8343 O   0  0  0  0  0  0  0  0  0  0  0  0
    1.7544   -5.4569   20.4903 O   0  0  0  0  0  0  0  0  0  0  0  0
    4.5541   -5.6619   19.9958 O   0  0  0  0  0  0  0  0  0  0  0  0
   -4.0424  -11.6679   17.0568 C   0  0  0  0  0  0  0  0  0  0  0  0
   -3.7218  -12.1873   18.1670 O   0  0  0  0  0  0  0  0  0  0  0  0
   -5.4370  -11.9019   16.3990 C   0  0  2  0  0  0  0  0  0  0  0  0
   -7.5509  -12.9177   18.4363 N   0  0  0  0  0  0  0  0  0  0  0  0
   -5.9150  -13.3716   16.6107 C   0  0  0  0  0  0  0  0  0  0  0  0
   -6.3314  -13.6724   18.0603 C   0  0  0  0  0  0  0  0  0  0  0  0
   -5.4193  -11.7305   15.1387 O   0  0  0  0  0  0  0  0  0  0  0  0
  1  2  1  6  0  0  0
  1  3  1  0  0  0  0
  1  8  1  0  0  0  0
  3  4  1  0  0  0  0
  3 32  1  6  0  0  0
  4  5  1  0  0  0  0
  4 33  1  1  0  0  0
  5  6  1  6  0  0  0
  5  7  1  0  0  0  0
  7  8  1  0  0  0  0
  7  9  1  1  0  0  0
  9 10  1  0  0  0  0
 11 12  1  6  0  0  0
 11 13  1  0  0  0  0
 11 19  1  0  0  0  0
 12 34  1  0  0  0  0
 13 14  1  0  0  0  0
 14 15  1  6  0  0  0
 14 16  1  0  0  0  0
 16  2  1  1  0  0  0
 16 17  1  0  0  0  0
 17 18  1  6  0  0  0
 17 19  1  0  0  0  0
 19 20  1  1  0  0  0
 21 20  1  1  0  0  0
 21 22  1  0  0  0  0
 21 29  1  0  0  0  0
 22 23  1  1  0  0  0
 22 24  1  0  0  0  0
 24 25  1  6  0  0  0
 24 26  1  0  0  0  0
 26 27  1  1  0  0  0
 26 28  1  0  0  0  0
 28 29  1  0  0  0  0
 28 30  1  6  0  0  0
 30 31  1  0  0  0  0
 34 35  2  0  0  0  0
 36 34  1  6  0  0  0
 36 38  1  0  0  0  0
 36 40  1  0  0  0  0
 37 39  1  0  0  0  0
 38 39  1  0  0  0  0
M  END
>  <CHROM.1>
-175.00795685,53.37296650,-65.63502606,-82.54818553,75.62672173,-136.07330882
-67.14033593,141.42535560,71.82142941,66.87236682,-0.04991642,-10.40736139
16.83468666,0.70592220,0.22979656,0.77195723

>  <Name>
ligand

>  <RI>
0

>  <Rbt.Current_Directory>
/home/itssahil/PROJECTS/Mol_Feturizer/New_Systems/rnas/4P20

>  <Rbt.Executable>
rbdock ($Id: //depot/dev/client3/rdock/2013.1/src/exe/rbdock.cxx#4 $)

>  <Rbt.Library>
libRbt.so (2013.1, Build901 2013/11/27)

>  <Rbt.Parameter_File>
/export/apps/rDock/src/rDock_2013.1_src/data/scripts/dock_solv.prm

>  <Rbt.Receptor>
prm/pocket_docking_5.prm

>  <SCORE>
-12.1864

>  <SCORE.INTER>
-5.27034

>  <SCORE.INTER.CONST>
1

>  <SCORE.INTER.POLAR>
0

>  <SCORE.INTER.ROT>
10

>  <SCORE.INTER.SOLV>
20.1383

>  <SCORE.INTER.VDW>
-20.493

>  <SCORE.INTER.norm>
-0.131759

>  <SCORE.INTRA>
-6.91603

>  <SCORE.INTRA.DIHEDRAL>
-17.504

>  <SCORE.INTRA.DIHEDRAL.0>
28.2802

>  <SCORE.INTRA.POLAR>
0

>  <SCORE.INTRA.POLAR.0>
0

>  <SCORE.INTRA.REPUL>
0

>  <SCORE.INTRA.REPUL.0>
0

>  <SCORE.INTRA.SOLV>
2.52967

>  <SCORE.INTRA.SOLV.lig_0>
-101.981

>  <SCORE.INTRA.VDW>
0.571121

>  <SCORE.INTRA.VDW.0>
-5.72964

>  <SCORE.INTRA.norm>
-0.172901

>  <SCORE.RESTR>
0

>  <SCORE.RESTR.CAVITY>
0

>  <SCORE.RESTR.norm>
0

>  <SCORE.SYSTEM>
0

>  <SCORE.SYSTEM.CONST>
0

>  <SCORE.SYSTEM.DIHEDRAL>
0

>  <SCORE.SYSTEM.SOLV>
0

>  <SCORE.SYSTEM.norm>
0

>  <SCORE.heavy>
40

>  <SCORE.norm>
-0.304659

>  <RMSD>
3.063

$$$$
ligand
 OpenBabel11021811513D
libRbt.so/2013.1/901 2013/11/27
 40 42  0  0  0  0  0  0  0  0999 V2000
    2.7956   -9.1892   20.4068 C   0  0  2  0  0  0  0  0  0  0  0  0
    2.6897   -8.2239   19.3486 O   0  0  0  0  0  0  0  0  0  0  0  0
    3.8463   -8.7197   21.4815 C   0  0  1  0  0  0  0  0  0  0  0  0
    5.2867   -8.6772   20.8929 C   0  0  2  0  0  0  0  0  0  0  0  0
    5.6440  -10.1178   20.4079 C   0  0  2  0  0  0  0  0  0  0  0  0
    6.9870  -10.1218   19.8779 O   0  0  0  0  0  0  0  0  0  0  0  0
    4.5948  -10.5489   19.2921 C   0  0  2  0  0  0  0  0  0  0  0  0
    3.2036  -10.5268   19.8702 O   0  0  0  0  0  0  0  0  0  0  0  0
    4.8470  -11.9553   18.7664 C   0  0  0  0  0  0  0  0  0  0  0  0
    3.8661  -12.3270   17.6985 N   0  0  0  0  0  0  0  0  0  0  0  0
   -1.1046   -9.3384   17.4274 C   0  0  2  0  0  0  0  0  0  0  0  0
   -2.2348   -9.2976   16.5288 N   0  0  0  0  0  0  0  0  0  0  0  0
   -1.0565   -8.0055   18.2782 C   0  0  0  0  0  0  0  0  0  0  0  0
    0.1894   -8.0339   19.2720 C   0  0  2  0  0  0  0  0  0  0  0  0
    0.2236   -6.7881   20.0821 N   0  0  0  0  0  0  0  0  0  0  0  0
    1.5337   -8.2092   18.4239 C   0  0  2  0  0  0  0  0  0  0  0  0
    1.4364   -9.5562   17.5884 C   0  0  2  0  0  0  0  0  0  0  0  0
    2.6358   -9.7239   16.8292 O   0  0  0  0  0  0  0  0  0  0  0  0
    0.1957   -9.5157   16.6115 C   0  0  1  0  0  0  0  0  0  0  0  0
    0.1090  -10.7593   15.8722 O   0  0  0  0  0  0  0  0  0  0  0  0
   -0.4271  -10.9006   14.6004 C   0  0  2  0  0  0  0  0  0  0  0  0
   -0.6771  -12.4320   14.3611 C   0  0  2  0  0  0  0  0  0  0  0  0
   -1.5225  -12.9293   15.3475 O   0  0  0  0  0  0  0  0  0  0  0  0
    0.6828  -13.2500   14.3050 C   0  0  1  0  0  0  0  0  0  0  0  0
    0.4223  -14.7029   14.0640 N   0  0  0  0  0  0  0  0  0  0  0  0
    1.5988  -12.6368   13.1578 C   0  0  2  0  0  0  0  0  0  0  0  0
    2.8368  -13.3516   13.0585 O   0  0  0  0  0  0  0  0  0  0  0  0
    1.8353  -11.1110   13.4818 C   0  0  2  0  0  0  0  0  0  0  0  0
    0.5105  -10.3668   13.5793 O   0  0  0  0  0  0  0  0  0  0  0  0
    2.6844  -10.4532   12.4203 C   0  0  0  0  0  0  0  0  0  0  0  0
    4.0062  -11.0177   12.3369 O   0  0  0  0  0  0  0  0  0  0  0  0
    3.4483   -7.4041   21.9662 O   0  0  0  0  0  0  0  0  0  0  0  0
    6.1609   -8.2748   21.8734 O   0  0  0  0  0  0  0  0  0  0  0  0
   -3.5611   -9.1352   17.0780 C   0  0  0  0  0  0  0  0  0  0  0  0
   -3.7880   -9.4595   18.2814 O   0  0  0  0  0  0  0  0  0  0  0  0
   -4.6724   -8.5630   16.1453 C   0  0  2  0  0  0  0  0  0  0  0  0
   -7.5431   -7.7372   15.3290 N   0  0  0  0  0  0  0  0  0  0  0  0
   -5.6412   -7.6313   16.9372 C   0  0  0  0  0  0  0  0  0  0  0  0
   -6.5969   -6.8373   16.0310 C   0  0  0  0  0  0  0  0  0  0  0  0
   -5.4097   -9.4719   15.6468 O   0  0  0  0  0  0  0  0  0  0  0  0
  1  2  1  6  0  0  0
  1  3  1  0  0  0  0
  1  8  1  0  0  0  0
  3  4  1  0  0  0  0
  3 32  1  6  0  0  0
  4  5  1  0  0  0  0
  4 33  1  1  0  0  0
  5  6  1  6  0  0  0
  5  7  1  0  0  0  0
  7  8  1  0  0  0  0
  7  9  1  1  0  0  0
  9 10  1  0  0  0  0
 11 12  1  6  0  0  0
 11 13  1  0  0  0  0
 11 19  1  0  0  0  0
 12 34  1  0  0  0  0
 13 14  1  0  0  0  0
 14 15  1  6  0  0  0
 14 16  1  0  0  0  0
 16  2  1  1  0  0  0
 16 17  1  0  0  0  0
 17 18  1  6  0  0  0
 17 19  1  0  0  0  0
 19 20  1  1  0  0  0
 21 20  1  1  0  0  0
 21 22  1  0  0  0  0
 21 29  1  0  0  0  0
 22 23  1  1  0  0  0
 22 24  1  0  0  0  0
 24 25  1  6  0  0  0
 24 26  1  0  0  0  0
 26 27  1  1  0  0  0
 26 28  1  0  0  0  0
 28 29  1  0  0  0  0
 28 30  1  6  0  0  0
 30 31  1  0  0  0  0
 34 35  2  0  0  0  0
 36 34  1  1  0  0  0
 36 38  1  0  0  0  0
 36 40  1  0  0  0  0
 37 39  1  0  0  0  0
 38 39  1  0  0  0  0
M  END
>  <CHROM.1>
-162.44981632,58.01984827,-178.79826604,-58.26679600,89.04535760,-164.64476258
-62.82287553,-143.42456591,169.42881796,65.89694227,0.78946716,-9.94070271
17.12172846,0.36241278,-0.28166062,0.99791611

>  <Name>
ligand

>  <RI>
0

>  <Rbt.Current_Directory>
/home/itssahil/PROJECTS/Mol_Feturizer/New_Systems/rnas/4P20

>  <Rbt.Executable>
rbdock ($Id: //depot/dev/client3/rdock/2013.1/src/exe/rbdock.cxx#4 $)

>  <Rbt.Library>
libRbt.so (2013.1, Build901 2013/11/27)

>  <Rbt.Parameter_File>
/export/apps/rDock/src/rDock_2013.1_src/data/scripts/dock_solv.prm

>  <Rbt.Receptor>
prm/pocket_docking_4.prm

>  <SCORE>
-13.716

>  <SCORE.INTER>
-6.42488

>  <SCORE.INTER.CONST>
1

>  <SCORE.INTER.POLAR>
0

>  <SCORE.INTER.ROT>
10

>  <SCORE.INTER.SOLV>
17.658

>  <SCORE.INTER.VDW>
-20.4359

>  <SCORE.INTER.norm>
-0.160622

>  <SCORE.INTRA>
-7.29113

>  <SCORE.INTRA.DIHEDRAL>
-19.8384

>  <SCORE.INTRA.DIHEDRAL.0>
28.2802

>  <SCORE.INTRA.POLAR>
0

>  <SCORE.INTRA.POLAR.0>
0

>  <SCORE.INTRA.REPUL>
0

>  <SCORE.INTRA.REPUL.0>
0

>  <SCORE.INTRA.SOLV>
2.59321

>  <SCORE.INTRA.SOLV.lig_0>
-101.981

>  <SCORE.INTRA.VDW>
1.33145

>  <SCORE.INTRA.VDW.0>
-5.72964

>  <SCORE.INTRA.norm>
-0.182278

>  <SCORE.RESTR>
0

>  <SCORE.RESTR.CAVITY>
0

>  <SCORE.RESTR.norm>
0

>  <SCORE.SYSTEM>
0

>  <SCORE.SYSTEM.CONST>
0

>  <SCORE.SYSTEM.DIHEDRAL>
0

>  <SCORE.SYSTEM.SOLV>
0

>  <SCORE.SYSTEM.norm>
0

>  <SCORE.heavy>
40

>  <SCORE.norm>
-0.3429

>  <RMSD>
3.079

$$$$
ligand
 OpenBabel11021811513D
libRbt.so/2013.1/901 2013/11/27
 40 42  0  0  0  0  0  0  0  0999 V2000
    1.2250   -8.1114   19.4695 C   0  0  2  0  0  0  0  0  0  0  0  0
    0.8494   -7.5023   18.2241 O   0  0  0  0  0  0  0  0  0  0  0  0
    1.9664   -7.0732   20.3923 C   0  0  1  0  0  0  0  0  0  0  0  0
    3.3310   -6.6382   19.7828 C   0  0  2  0  0  0  0  0  0  0  0  0
    4.2107   -7.9188   19.6260 C   0  0  2  0  0  0  0  0  0  0  0  0
    5.4975   -7.5487   19.0858 O   0  0  0  0  0  0  0  0  0  0  0  0
    3.4596   -8.9304   18.6544 C   0  0  2  0  0  0  0  0  0  0  0  0
    2.1183   -9.2913   19.2384 O   0  0  0  0  0  0  0  0  0  0  0  0
    4.2317  -10.2270   18.4521 C   0  0  0  0  0  0  0  0  0  0  0  0
    3.5365  -11.1359   17.4872 N   0  0  0  0  0  0  0  0  0  0  0  0
   -2.1248  -10.3292   16.6452 C   0  0  2  0  0  0  0  0  0  0  0  0
   -3.1336  -10.8967   15.7811 N   0  0  0  0  0  0  0  0  0  0  0  0
   -2.6335   -8.9432   17.2136 C   0  0  0  0  0  0  0  0  0  0  0  0
   -1.5277   -8.3020   18.1659 C   0  0  2  0  0  0  0  0  0  0  0  0
   -2.0139   -7.0078   18.7121 N   0  0  0  0  0  0  0  0  0  0  0  0
   -0.1720   -8.1083   17.3403 C   0  0  2  0  0  0  0  0  0  0  0  0
    0.2957   -9.5229   16.7907 C   0  0  2  0  0  0  0  0  0  0  0  0
    1.5098   -9.3608   16.0539 O   0  0  0  0  0  0  0  0  0  0  0  0
   -0.8107  -10.1480   15.8524 C   0  0  1  0  0  0  0  0  0  0  0  0
   -0.3777  -11.4467   15.3765 O   0  0  0  0  0  0  0  0  0  0  0  0
   -0.8601  -12.0877   14.2445 C   0  0  2  0  0  0  0  0  0  0  0  0
   -0.7908  -13.6333   14.5118 C   0  0  2  0  0  0  0  0  0  0  0  0
   -1.5280  -13.9464   15.6492 O   0  0  0  0  0  0  0  0  0  0  0  0
    0.7075  -14.1430   14.6407 C   0  0  1  0  0  0  0  0  0  0  0  0
    0.7506  -15.6183   14.8823 N   0  0  0  0  0  0  0  0  0  0  0  0
    1.4919  -13.7596   13.3107 C   0  0  2  0  0  0  0  0  0  0  0  0
    2.8505  -14.2112   13.3731 O   0  0  0  0  0  0  0  0  0  0  0  0
    1.4097  -12.1949   13.1263 C   0  0  2  0  0  0  0  0  0  0  0  0
   -0.0398  -11.7336   13.0578 O   0  0  0  0  0  0  0  0  0  0  0  0
    2.1185  -11.7561   11.8672 C   0  0  0  0  0  0  0  0  0  0  0  0
    1.5535  -12.3403   10.6788 O   0  0  0  0  0  0  0  0  0  0  0  0
    1.0936   -5.9208   20.5776 O   0  0  0  0  0  0  0  0  0  0  0  0
    3.9381   -5.7451   20.6322 O   0  0  0  0  0  0  0  0  0  0  0  0
   -4.3565  -11.3963   16.3659 C   0  0  0  0  0  0  0  0  0  0  0  0
   -4.3766  -11.7398   17.5851 O   0  0  0  0  0  0  0  0  0  0  0  0
   -5.6156  -11.4962   15.4509 C   0  0  2  0  0  0  0  0  0  0  0  0
   -8.5186  -10.6387   14.6879 N   0  0  0  0  0  0  0  0  0  0  0  0
   -6.1133  -10.0793   15.0289 C   0  0  0  0  0  0  0  0  0  0  0  0
   -7.2907  -10.1181   14.0404 C   0  0  0  0  0  0  0  0  0  0  0  0
   -6.6046  -12.0414   16.0363 O   0  0  0  0  0  0  0  0  0  0  0  0
  1  2  1  6  0  0  0
  1  3  1  0  0  0  0
  1  8  1  0  0  0  0
  3  4  1  0  0  0  0
  3 32  1  6  0  0  0
  4  5  1  0  0  0  0
  4 33  1  1  0  0  0
  5  6  1  6  0  0  0
  5  7  1  0  0  0  0
  7  8  1  0  0  0  0
  7  9  1  1  0  0  0
  9 10  1  0  0  0  0
 11 12  1  6  0  0  0
 11 13  1  0  0  0  0
 11 19  1  0  0  0  0
 12 34  1  0  0  0  0
 13 14  1  0  0  0  0
 14 15  1  6  0  0  0
 14 16  1  0  0  0  0
 16  2  1  1  0  0  0
 16 17  1  0  0  0  0
 17 18  1  6  0  0  0
 17 19  1  0  0  0  0
 19 20  1  1  0  0  0
 21 20  1  1  0  0  0
 21 22  1  0  0  0  0
 21 29  1  0  0  0  0
 22 23  1  1  0  0  0
 22 24  1  0  0  0  0
 24 25  1  6  0  0  0
 24 26  1  0  0  0  0
 26 27  1  1  0  0  0
 26 28  1  0  0  0  0
 28 29  1  0  0  0  0
 28 30  1  6  0  0  0
 30 31  1  0  0  0  0
 34 35  2  0  0  0  0
 36 34  1  1  0  0  0
 36 38  1  0  0  0  0
 36 40  1  0  0  0  0
 37 39  1  0  0  0  0
 38 39  1  0  0  0  0
M  END
>  <CHROM.1>
-162.51676124,56.14183632,-177.42290283,-70.36912972,81.46958611,-148.79288283
60.39471272,-67.08865532,175.71657096,68.33922133,-0.23778138,-10.32225275
16.45004133,0.73987425,-0.04208367,0.78564810

>  <Name>
ligand

>  <RI>
0

>  <Rbt.Current_Directory>
/home/itssahil/PROJECTS/Mol_Feturizer/New_Systems/rnas/4P20

>  <Rbt.Executable>
rbdock ($Id: //depot/dev/client3/rdock/2013.1/src/exe/rbdock.cxx#4 $)

>  <Rbt.Library>
libRbt.so (2013.1, Build901 2013/11/27)

>  <Rbt.Parameter_File>
/export/apps/rDock/src/rDock_2013.1_src/data/scripts/dock_solv.prm

>  <Rbt.Receptor>
prm/pocket_docking_4.prm

>  <SCORE>
-15.4842

>  <SCORE.INTER>
-7.94469

>  <SCORE.INTER.CONST>
1

>  <SCORE.INTER.POLAR>
0

>  <SCORE.INTER.ROT>
10

>  <SCORE.INTER.SOLV>
22.3408

>  <SCORE.INTER.VDW>
-23.0101

>  <SCORE.INTER.norm>
-0.198617

>  <SCORE.INTRA>
-7.55455

>  <SCORE.INTRA.DIHEDRAL>
-19.6174

>  <SCORE.INTRA.DIHEDRAL.0>
28.2802

>  <SCORE.INTRA.POLAR>
0

>  <SCORE.INTRA.POLAR.0>
0

>  <SCORE.INTRA.REPUL>
0

>  <SCORE.INTRA.REPUL.0>
0

>  <SCORE.INTRA.SOLV>
2.78011

>  <SCORE.INTRA.SOLV.lig_0>
-101.981

>  <SCORE.INTRA.VDW>
0.864112

>  <SCORE.INTRA.VDW.0>
-5.72964

>  <SCORE.INTRA.norm>
-0.188864

>  <SCORE.RESTR>
0.0150035

>  <SCORE.RESTR.CAVITY>
0.0150035

>  <SCORE.RESTR.norm>
0.000375087

>  <SCORE.SYSTEM>
0

>  <SCORE.SYSTEM.CONST>
0

>  <SCORE.SYSTEM.DIHEDRAL>
0

>  <SCORE.SYSTEM.SOLV>
0

>  <SCORE.SYSTEM.norm>
0

>  <SCORE.heavy>
40

>  <SCORE.norm>
-0.387106

>  <RMSD>
3.092

$$$$
ligand
 OpenBabel11021811513D
libRbt.so/2013.1/901 2013/11/27
 40 42  0  0  0  0  0  0  0  0999 V2000
    1.3216   -8.0864   19.4722 C   0  0  2  0  0  0  0  0  0  0  0  0
    0.9303   -7.4704   18.2352 O   0  0  0  0  0  0  0  0  0  0  0  0
    2.2171   -7.1069   20.3195 C   0  0  1  0  0  0  0  0  0  0  0  0
    3.5770   -6.8231   19.6173 C   0  0  2  0  0  0  0  0  0  0  0  0
    4.3157   -8.1879   19.4438 C   0  0  2  0  0  0  0  0  0  0  0  0
    5.5962   -7.9595   18.8173 O   0  0  0  0  0  0  0  0  0  0  0  0
    3.4100   -9.1410   18.5478 C   0  0  2  0  0  0  0  0  0  0  0  0
    2.0790   -9.3540   19.2211 O   0  0  0  0  0  0  0  0  0  0  0  0
    4.0374  -10.5120   18.3360 C   0  0  0  0  0  0  0  0  0  0  0  0
    5.3209  -10.4169   17.5717 N   0  0  0  0  0  0  0  0  0  0  0  0
   -2.0389  -10.3045   16.6598 C   0  0  2  0  0  0  0  0  0  0  0  0
   -3.0600  -10.8667   15.8067 N   0  0  0  0  0  0  0  0  0  0  0  0
   -2.5543   -8.9407   17.2739 C   0  0  0  0  0  0  0  0  0  0  0  0
   -1.4353   -8.3054   18.2147 C   0  0  2  0  0  0  0  0  0  0  0  0
   -1.9274   -7.0325   18.8038 N   0  0  0  0  0  0  0  0  0  0  0  0
   -0.1033   -8.0708   17.3617 C   0  0  2  0  0  0  0  0  0  0  0  0
    0.3721   -9.4643   16.7666 C   0  0  2  0  0  0  0  0  0  0  0  0
    1.5652   -9.2656   16.0049 O   0  0  0  0  0  0  0  0  0  0  0  0
   -0.7475  -10.0838   15.8403 C   0  0  1  0  0  0  0  0  0  0  0  0
   -0.3069  -11.3638   15.3224 O   0  0  0  0  0  0  0  0  0  0  0  0
   -0.8148  -11.9900   14.1934 C   0  0  2  0  0  0  0  0  0  0  0  0
   -0.8009  -13.5364   14.4648 C   0  0  2  0  0  0  0  0  0  0  0  0
   -1.5462  -13.8195   15.6048 O   0  0  0  0  0  0  0  0  0  0  0  0
    0.6783  -14.0996   14.5919 C   0  0  1  0  0  0  0  0  0  0  0  0
    0.6685  -15.5749   14.8375 N   0  0  0  0  0  0  0  0  0  0  0  0
    1.4730  -13.7486   13.2590 C   0  0  2  0  0  0  0  0  0  0  0  0
    2.8144  -14.2490   13.3196 O   0  0  0  0  0  0  0  0  0  0  0  0
    1.4470  -12.1825   13.0704 C   0  0  2  0  0  0  0  0  0  0  0  0
    0.0150  -11.6692   13.0038 O   0  0  0  0  0  0  0  0  0  0  0  0
    2.1684  -11.7731   11.8085 C   0  0  0  0  0  0  0  0  0  0  0  0
    2.5086  -10.3743   11.7915 O   0  0  0  0  0  0  0  0  0  0  0  0
    1.4746   -5.8697   20.5245 O   0  0  0  0  0  0  0  0  0  0  0  0
    4.3204   -5.9764   20.4034 O   0  0  0  0  0  0  0  0  0  0  0  0
   -3.9973  -11.8130   16.3660 C   0  0  0  0  0  0  0  0  0  0  0  0
   -3.6882  -12.4642   17.4078 O   0  0  0  0  0  0  0  0  0  0  0  0
   -5.3682  -11.9957   15.6451 C   0  0  2  0  0  0  0  0  0  0  0  0
   -6.9128   -8.4222   15.6925 N   0  0  0  0  0  0  0  0  0  0  0  0
   -6.3438  -10.8303   15.9964 C   0  0  0  0  0  0  0  0  0  0  0  0
   -5.9089   -9.4763   15.4110 C   0  0  0  0  0  0  0  0  0  0  0  0
   -5.9702  -13.0589   15.9992 O   0  0  0  0  0  0  0  0  0  0  0  0
  1  2  1  6  0  0  0
  1  3  1  0  0  0  0
  1  8  1  0  0  0  0
  3  4  1  0  0  0  0
  3 32  1  6  0  0  0
  4  5  1  0  0  0  0
  4 33  1  1  0  0  0
  5  6  1  6  0  0  0
  5  7  1  0  0  0  0
  7  8  1  0  0  0  0
  7  9  1  1  0  0  0
  9 10  1  0  0  0  0
 11 12  1  6  0  0  0
 11 13  1  0  0  0  0
 11 19  1  0  0  0  0
 12 34  1  0  0  0  0
 13 14  1  0  0  0  0
 14 15  1  6  0  0  0
 14 16  1  0  0  0  0
 16  2  1  1  0  0  0
 16 17  1  0  0  0  0
 17 18  1  6  0  0  0
 17 19  1  0  0  0  0
 19 20  1  1  0  0  0
 21 20  1  1  0  0  0
 21 22  1  0  0  0  0
 21 29  1  0  0  0  0
 22 23  1  1  0  0  0
 22 24  1  0  0  0  0
 24 25  1  6  0  0  0
 24 26  1  0  0  0  0
 26 27  1  1  0  0  0
 26 28  1  0  0  0  0
 28 29  1  0  0  0  0
 28 30  1  6  0  0  0
 30 31  1  0  0  0  0
 34 35  2  0  0  0  0
 36 34  1  1  0  0  0
 36 38  1  0  0  0  0
 36 40  1  0  0  0  0
 37 39  1  0  0  0  0
 38 39  1  0  0  0  0
M  END
>  <CHROM.1>
-169.00390649,54.57093054,-63.79960781,-92.83524382,80.90507005,-144.93210557
-162.99559624,-78.53349826,68.29462737,176.10582921,0.00510888,-10.28618572
16.52369278,0.72938611,0.00322315,0.76373834

>  <Name>
ligand

>  <RI>
0

>  <Rbt.Current_Directory>
/home/itssahil/PROJECTS/Mol_Feturizer/New_Systems/rnas/4P20

>  <Rbt.Executable>
rbdock ($Id: //depot/dev/client3/rdock/2013.1/src/exe/rbdock.cxx#4 $)

>  <Rbt.Library>
libRbt.so (2013.1, Build901 2013/11/27)

>  <Rbt.Parameter_File>
/export/apps/rDock/src/rDock_2013.1_src/data/scripts/dock_solv.prm

>  <Rbt.Receptor>
prm/pocket_docking_5.prm

>  <SCORE>
-14.7536

>  <SCORE.INTER>
-6.13898

>  <SCORE.INTER.CONST>
1

>  <SCORE.INTER.POLAR>
0

>  <SCORE.INTER.ROT>
10

>  <SCORE.INTER.SOLV>
21.8357

>  <SCORE.INTER.VDW>
-21.6379

>  <SCORE.INTER.norm>
-0.153474

>  <SCORE.INTRA>
-8.61462

>  <SCORE.INTRA.DIHEDRAL>
-17.875

>  <SCORE.INTRA.DIHEDRAL.0>
28.2802

>  <SCORE.INTRA.POLAR>
0

>  <SCORE.INTRA.POLAR.0>
0

>  <SCORE.INTRA.REPUL>
0

>  <SCORE.INTRA.REPUL.0>
0

>  <SCORE.INTRA.SOLV>
0.552311

>  <SCORE.INTRA.SOLV.lig_0>
-101.981

>  <SCORE.INTRA.VDW>
0.046717

>  <SCORE.INTRA.VDW.0>
-5.72964

>  <SCORE.INTRA.norm>
-0.215366

>  <SCORE.RESTR>
0

>  <SCORE.RESTR.CAVITY>
0

>  <SCORE.RESTR.norm>
0

>  <SCORE.SYSTEM>
0

>  <SCORE.SYSTEM.CONST>
0

>  <SCORE.SYSTEM.DIHEDRAL>
0

>  <SCORE.SYSTEM.SOLV>
0

>  <SCORE.SYSTEM.norm>
0

>  <SCORE.heavy>
40

>  <SCORE.norm>
-0.36884

>  <RMSD>
3.099

$$$$
ligand
 OpenBabel11021811513D
libRbt.so/2013.1/901 2013/11/27
 40 42  0  0  0  0  0  0  0  0999 V2000
    3.0067   -9.5443   20.4280 C   0  0  2  0  0  0  0  0  0  0  0  0
    2.9816   -8.6246   19.3251 O   0  0  0  0  0  0  0  0  0  0  0  0
    3.9529   -9.0143   21.5696 C   0  0  1  0  0  0  0  0  0  0  0  0
    5.4386   -8.9719   21.1074 C   0  0  2  0  0  0  0  0  0  0  0  0
    5.8558  -10.4248   20.7160 C   0  0  2  0  0  0  0  0  0  0  0  0
    7.2401  -10.4281   20.3057 O   0  0  0  0  0  0  0  0  0  0  0  0
    4.9142  -10.9180   19.5321 C   0  0  2  0  0  0  0  0  0  0  0  0
    3.4775  -10.8956   19.9853 O   0  0  0  0  0  0  0  0  0  0  0  0
    5.2298  -12.3402   19.0895 C   0  0  0  0  0  0  0  0  0  0  0  0
    4.4332  -12.7301   17.8836 N   0  0  0  0  0  0  0  0  0  0  0  0
   -0.7341   -9.7335   17.2529 C   0  0  2  0  0  0  0  0  0  0  0  0
   -1.8123   -9.7081   16.2920 N   0  0  0  0  0  0  0  0  0  0  0  0
   -0.6932   -8.3611   18.0389 C   0  0  0  0  0  0  0  0  0  0  0  0
    0.4957   -8.3724   19.1006 C   0  0  2  0  0  0  0  0  0  0  0  0
    0.5224   -7.0887   19.8495 N   0  0  0  0  0  0  0  0  0  0  0  0
    1.8782   -8.6258   18.3381 C   0  0  2  0  0  0  0  0  0  0  0  0
    1.7870  -10.0101   17.5653 C   0  0  2  0  0  0  0  0  0  0  0  0
    3.0204  -10.2477   16.8830 O   0  0  0  0  0  0  0  0  0  0  0  0
    0.6028   -9.9861   16.5201 C   0  0  1  0  0  0  0  0  0  0  0  0
    0.5199  -11.2627   15.8389 O   0  0  0  0  0  0  0  0  0  0  0  0
   -0.1558  -11.4947   14.6496 C   0  0  2  0  0  0  0  0  0  0  0  0
   -0.3232  -13.0483   14.4972 C   0  0  2  0  0  0  0  0  0  0  0  0
   -1.0044  -13.5572   15.5982 O   0  0  0  0  0  0  0  0  0  0  0  0
    1.0745  -13.7757   14.3008 C   0  0  1  0  0  0  0  0  0  0  0  0
    0.8910  -15.2519   14.1453 N   0  0  0  0  0  0  0  0  0  0  0  0
    1.7977  -13.1537   13.0275 C   0  0  2  0  0  0  0  0  0  0  0  0
    3.0622  -13.7882   12.7998 O   0  0  0  0  0  0  0  0  0  0  0  0
    1.9625  -11.6029   13.2658 C   0  0  2  0  0  0  0  0  0  0  0  0
    0.6097  -10.9448   13.5014 O   0  0  0  0  0  0  0  0  0  0  0  0
    2.6266  -10.9371   12.0842 C   0  0  0  0  0  0  0  0  0  0  0  0
    2.8333   -9.5264   12.2847 O   0  0  0  0  0  0  0  0  0  0  0  0
    3.4969   -7.6870   21.9623 O   0  0  0  0  0  0  0  0  0  0  0  0
    6.2182   -8.5157   22.1427 O   0  0  0  0  0  0  0  0  0  0  0  0
   -3.0990  -10.2463   16.6683 C   0  0  0  0  0  0  0  0  0  0  0  0
   -3.1763  -11.0959   17.6049 O   0  0  0  0  0  0  0  0  0  0  0  0
   -4.3544   -9.7514   15.8863 C   0  0  2  0  0  0  0  0  0  0  0  0
   -7.2583   -8.6182   15.7115 N   0  0  0  0  0  0  0  0  0  0  0  0
   -4.8978   -8.4187   16.4881 C   0  0  0  0  0  0  0  0  0  0  0  0
   -6.0284   -7.7921   15.6550 C   0  0  0  0  0  0  0  0  0  0  0  0
   -5.3251  -10.5710   15.9487 O   0  0  0  0  0  0  0  0  0  0  0  0
  1  2  1  6  0  0  0
  1  3  1  0  0  0  0
  1  8  1  0  0  0  0
  3  4  1  0  0  0  0
  3 32  1  6  0  0  0
  4  5  1  0  0  0  0
  4 33  1  1  0  0  0
  5  6  1  6  0  0  0
  5  7  1  0  0  0  0
  7  8  1  0  0  0  0
  7  9  1  1  0  0  0
  9 10  1  0  0  0  0
 11 12  1  6  0  0  0
 11 13  1  0  0  0  0
 11 19  1  0  0  0  0
 12 34  1  0  0  0  0
 13 14  1  0  0  0  0
 14 15  1  6  0  0  0
 14 16  1  0  0  0  0
 16  2  1  1  0  0  0
 16 17  1  0  0  0  0
 17 18  1  6  0  0  0
 17 19  1  0  0  0  0
 19 20  1  1  0  0  0
 21 20  1  1  0  0  0
 21 22  1  0  0  0  0
 21 29  1  0  0  0  0
 22 23  1  1  0  0  0
 22 24  1  0  0  0  0
 24 25  1  6  0  0  0
 24 26  1  0  0  0  0
 26 27  1  1  0  0  0
 26 28  1  0  0  0  0
 28 29  1  0  0  0  0
 28 30  1  6  0  0  0
 30 31  1  0  0  0  0
 34 35  2  0  0  0  0
 36 34  1  1  0  0  0
 36 38  1  0  0  0  0
 36 40  1  0  0  0  0
 37 39  1  0  0  0  0
 38 39  1  0  0  0  0
M  END
>  <CHROM.1>
-159.60360236,58.48656181,-173.97335778,-93.80013410,77.23549351,-164.38919718
-178.09640331,-84.76949790,172.94400332,68.37827503,1.05931288,-10.42993973
17.09688518,0.51513819,-0.26974048,0.99658284

>  <Name>
ligand

>  <RI>
0

>  <Rbt.Current_Directory>
/home/itssahil/PROJECTS/Mol_Feturizer/New_Systems/rnas/4P20

>  <Rbt.Executable>
rbdock ($Id: //depot/dev/client3/rdock/2013.1/src/exe/rbdock.cxx#4 $)

>  <Rbt.Library>
libRbt.so (2013.1, Build901 2013/11/27)

>  <Rbt.Parameter_File>
/export/apps/rDock/src/rDock_2013.1_src/data/scripts/dock_solv.prm

>  <Rbt.Receptor>
prm/pocket_docking_5.prm

>  <SCORE>
-13.901

>  <SCORE.INTER>
-5.13881

>  <SCORE.INTER.CONST>
1

>  <SCORE.INTER.POLAR>
0

>  <SCORE.INTER.ROT>
10

>  <SCORE.INTER.SOLV>
16.5008

>  <SCORE.INTER.VDW>
-19.1928

>  <SCORE.INTER.norm>
-0.12847

>  <SCORE.INTRA>
-8.76215

>  <SCORE.INTRA.DIHEDRAL>
-21.1806

>  <SCORE.INTRA.DIHEDRAL.0>
28.2802

>  <SCORE.INTRA.POLAR>
0

>  <SCORE.INTRA.POLAR.0>
0

>  <SCORE.INTRA.REPUL>
0

>  <SCORE.INTRA.REPUL.0>
0

>  <SCORE.INTRA.SOLV>
2.29451

>  <SCORE.INTRA.SOLV.lig_0>
-101.981

>  <SCORE.INTRA.VDW>
0.680919

>  <SCORE.INTRA.VDW.0>
-5.72964

>  <SCORE.INTRA.norm>
-0.219054

>  <SCORE.RESTR>
0

>  <SCORE.RESTR.CAVITY>
0

>  <SCORE.RESTR.norm>
0

>  <SCORE.SYSTEM>
0

>  <SCORE.SYSTEM.CONST>
0

>  <SCORE.SYSTEM.DIHEDRAL>
0

>  <SCORE.SYSTEM.SOLV>
0

>  <SCORE.SYSTEM.norm>
0

>  <SCORE.heavy>
40

>  <SCORE.norm>
-0.347524

>  <RMSD>
3.157

$$$$
ligand
 OpenBabel11021811513D
libRbt.so/2013.1/901 2013/11/27
 40 42  0  0  0  0  0  0  0  0999 V2000
    1.2779   -8.2394   19.3311 C   0  0  2  0  0  0  0  0  0  0  0  0
    0.9004   -7.6512   18.0764 O   0  0  0  0  0  0  0  0  0  0  0  0
    2.0521   -7.1964   20.2211 C   0  0  1  0  0  0  0  0  0  0  0  0
    3.4183   -6.8050   19.5860 C   0  0  2  0  0  0  0  0  0  0  0  0
    4.2686   -8.1075   19.4489 C   0  0  2  0  0  0  0  0  0  0  0  0
    5.5564   -7.7777   18.8856 O   0  0  0  0  0  0  0  0  0  0  0  0
    3.4846   -9.1249   18.5099 C   0  0  2  0  0  0  0  0  0  0  0  0
    2.1431   -9.4433   19.1173 O   0  0  0  0  0  0  0  0  0  0  0  0
    4.2266  -10.4421   18.3290 C   0  0  0  0  0  0  0  0  0  0  0  0
    3.5356  -11.3312   17.3428 N   0  0  0  0  0  0  0  0  0  0  0  0
   -2.1713  -10.4353   16.6125 C   0  0  2  0  0  0  0  0  0  0  0  0
   -3.1917  -11.0083   15.7658 N   0  0  0  0  0  0  0  0  0  0  0  0
   -2.6273   -8.9985   17.0925 C   0  0  0  0  0  0  0  0  0  0  0  0
   -1.5081   -8.3510   18.0248 C   0  0  2  0  0  0  0  0  0  0  0  0
   -1.9453   -7.0080   18.4882 N   0  0  0  0  0  0  0  0  0  0  0  0
   -0.1339   -8.2631   17.2119 C   0  0  2  0  0  0  0  0  0  0  0  0
    0.2796   -9.7257   16.7516 C   0  0  2  0  0  0  0  0  0  0  0  0
    1.5098   -9.6581   16.0268 O   0  0  0  0  0  0  0  0  0  0  0  0
   -0.8397  -10.3562   15.8324 C   0  0  1  0  0  0  0  0  0  0  0  0
   -0.4570  -11.6975   15.4385 O   0  0  0  0  0  0  0  0  0  0  0  0
   -0.9572  -12.3848   14.3421 C   0  0  2  0  0  0  0  0  0  0  0  0
   -0.7538  -13.9179   14.6131 C   0  0  2  0  0  0  0  0  0  0  0  0
   -1.3940  -14.2744   15.7956 O   0  0  0  0  0  0  0  0  0  0  0  0
    0.7842  -14.3110   14.6523 C   0  0  1  0  0  0  0  0  0  0  0  0
    0.9545  -15.7762   14.8990 N   0  0  0  0  0  0  0  0  0  0  0  0
    1.4543  -13.8829   13.2743 C   0  0  2  0  0  0  0  0  0  0  0  0
    2.8446  -14.2294   13.2552 O   0  0  0  0  0  0  0  0  0  0  0  0
    1.2416  -12.3310   13.0866 C   0  0  2  0  0  0  0  0  0  0  0  0
   -0.2404  -11.9817   13.1050 O   0  0  0  0  0  0  0  0  0  0  0  0
    1.8367  -11.8526   11.7837 C   0  0  0  0  0  0  0  0  0  0  0  0
    3.2662  -12.0158   11.7323 O   0  0  0  0  0  0  0  0  0  0  0  0
    1.2063   -6.0215   20.3894 O   0  0  0  0  0  0  0  0  0  0  0  0
    4.0543   -5.9059   20.4074 O   0  0  0  0  0  0  0  0  0  0  0  0
   -4.2588  -11.7703   16.3721 C   0  0  0  0  0  0  0  0  0  0  0  0
   -4.0875  -12.2964   17.5118 O   0  0  0  0  0  0  0  0  0  0  0  0
   -5.5936  -11.9164   15.5788 C   0  0  2  0  0  0  0  0  0  0  0  0
   -7.7331  -10.4843   13.7908 N   0  0  0  0  0  0  0  0  0  0  0  0
   -6.6141  -10.8121   15.9943 C   0  0  0  0  0  0  0  0  0  0  0  0
   -7.9334  -10.8764   15.2065 C   0  0  0  0  0  0  0  0  0  0  0  0
   -6.1804  -13.0218   15.8064 O   0  0  0  0  0  0  0  0  0  0  0  0
  1  2  1  6  0  0  0
  1  3  1  0  0  0  0
  1  8  1  0  0  0  0
  3  4  1  0  0  0  0
  3 32  1  6  0  0  0
  4  5  1  0  0  0  0
  4 33  1  1  0  0  0
  5  6  1  6  0  0  0
  5  7  1  0  0  0  0
  7  8  1  0  0  0  0
  7  9  1  1  0  0  0
  9 10  1  0  0  0  0
 11 12  1  6  0  0  0
 11 13  1  0  0  0  0
 11 19  1  0  0  0  0
 12 34  1  0  0  0  0
 13 14  1  0  0  0  0
 14 15  1  6  0  0  0
 14 16  1  0  0  0  0
 16  2  1  1  0  0  0
 16 17  1  0  0  0  0
 17 18  1  6  0  0  0
 17 19  1  0  0  0  0
 19 20  1  1  0  0  0
 21 20  1  1  0  0  0
 21 22  1  0  0  0  0
 21 29  1  0  0  0  0
 22 23  1  1  0  0  0
 22 24  1  0  0  0  0
 24 25  1  6  0  0  0
 24 26  1  0  0  0  0
 26 27  1  1  0  0  0
 26 28  1  0  0  0  0
 28 29  1  0  0  0  0
 28 30  1  6  0  0  0
 30 31  1  0  0  0  0
 34 35  2  0  0  0  0
 36 34  1  1  0  0  0
 36 38  1  0  0  0  0
 36 40  1  0  0  0  0
 37 39  1  0  0  0  0
 38 39  1  0  0  0  0
M  END
>  <CHROM.1>
-163.17940172,59.21886728,-174.66533543,-88.37200579,81.03270834,-157.13863143
-63.74078135,-93.75437268,177.94003697,-69.58773792,-0.16953347,-10.53979187
16.44170544,0.68928012,-0.00524914,0.75033634

>  <Name>
ligand

>  <RI>
0

>  <Rbt.Current_Directory>
/home/itssahil/PROJECTS/Mol_Feturizer/New_Systems/rnas/4P20

>  <Rbt.Executable>
rbdock ($Id: //depot/dev/client3/rdock/2013.1/src/exe/rbdock.cxx#4 $)

>  <Rbt.Library>
libRbt.so (2013.1, Build901 2013/11/27)

>  <Rbt.Parameter_File>
/export/apps/rDock/src/rDock_2013.1_src/data/scripts/dock_solv.prm

>  <Rbt.Receptor>
prm/pocket_docking_3.prm

>  <SCORE>
-12.3366

>  <SCORE.INTER>
-4.19231

>  <SCORE.INTER.CONST>
1

>  <SCORE.INTER.POLAR>
0

>  <SCORE.INTER.ROT>
10

>  <SCORE.INTER.SOLV>
24.478

>  <SCORE.INTER.VDW>
-21.2209

>  <SCORE.INTER.norm>
-0.104808

>  <SCORE.INTRA>
-8.14428

>  <SCORE.INTRA.DIHEDRAL>
-19.8565

>  <SCORE.INTRA.DIHEDRAL.0>
28.2802

>  <SCORE.INTRA.POLAR>
0

>  <SCORE.INTRA.POLAR.0>
0

>  <SCORE.INTRA.REPUL>
0.00631023

>  <SCORE.INTRA.REPUL.0>
0

>  <SCORE.INTRA.SOLV>
2.09945

>  <SCORE.INTRA.SOLV.lig_0>
-101.981

>  <SCORE.INTRA.VDW>
0.702698

>  <SCORE.INTRA.VDW.0>
-5.72964

>  <SCORE.INTRA.norm>
-0.203607

>  <SCORE.RESTR>
0

>  <SCORE.RESTR.CAVITY>
0

>  <SCORE.RESTR.norm>
0

>  <SCORE.SYSTEM>
0

>  <SCORE.SYSTEM.CONST>
0

>  <SCORE.SYSTEM.DIHEDRAL>
0

>  <SCORE.SYSTEM.SOLV>
0

>  <SCORE.SYSTEM.norm>
0

>  <SCORE.heavy>
40

>  <SCORE.norm>
-0.308415

>  <RMSD>
3.177

$$$$
ligand
 OpenBabel11021811513D
libRbt.so/2013.1/901 2013/11/27
 40 42  0  0  0  0  0  0  0  0999 V2000
    4.3851   -8.1408   18.8431 C   0  0  2  0  0  0  0  0  0  0  0  0
    3.3779   -9.1454   18.6450 O   0  0  0  0  0  0  0  0  0  0  0  0
    5.8209   -8.7413   18.6039 C   0  0  1  0  0  0  0  0  0  0  0  0
    6.1762   -9.8170   19.6715 C   0  0  2  0  0  0  0  0  0  0  0  0
    6.1242   -9.1303   21.0729 C   0  0  2  0  0  0  0  0  0  0  0  0
    6.4748  -10.0948   22.0885 O   0  0  0  0  0  0  0  0  0  0  0  0
    4.6525   -8.5728   21.3069 C   0  0  2  0  0  0  0  0  0  0  0  0
    4.3112   -7.5770   20.2288 O   0  0  0  0  0  0  0  0  0  0  0  0
    4.5034   -7.8632   22.6457 C   0  0  0  0  0  0  0  0  0  0  0  0
    5.2651   -6.5749   22.6728 N   0  0  0  0  0  0  0  0  0  0  0  0
   -1.0052   -8.8394   18.4897 C   0  0  2  0  0  0  0  0  0  0  0  0
   -2.3254   -8.4760   18.0297 N   0  0  0  0  0  0  0  0  0  0  0  0
   -0.1711   -7.5297   18.7924 C   0  0  0  0  0  0  0  0  0  0  0  0
    1.2911   -7.9151   19.2968 C   0  0  2  0  0  0  0  0  0  0  0  0
    2.0679   -6.6838   19.5964 N   0  0  0  0  0  0  0  0  0  0  0  0
    2.0164   -8.7986   18.1786 C   0  0  2  0  0  0  0  0  0  0  0  0
    1.1424  -10.0969   17.9095 C   0  0  2  0  0  0  0  0  0  0  0  0
    1.7849  -10.8956   16.9133 O   0  0  0  0  0  0  0  0  0  0  0  0
   -0.3043   -9.7001   17.4145 C   0  0  1  0  0  0  0  0  0  0  0  0
   -1.0951  -10.8944   17.1938 O   0  0  0  0  0  0  0  0  0  0  0  0
   -1.1367  -11.6219   16.0132 C   0  0  2  0  0  0  0  0  0  0  0  0
   -2.4115  -12.5369   16.0673 C   0  0  2  0  0  0  0  0  0  0  0  0
   -3.5460  -11.7511   16.2424 O   0  0  0  0  0  0  0  0  0  0  0  0
   -2.2974  -13.6409   17.2028 C   0  0  1  0  0  0  0  0  0  0  0  0
   -3.5155  -14.5083   17.2284 N   0  0  0  0  0  0  0  0  0  0  0  0
   -0.9872  -14.5052   16.9427 C   0  0  2  0  0  0  0  0  0  0  0  0
   -0.8460  -15.5272   17.9371 O   0  0  0  0  0  0  0  0  0  0  0  0
    0.2516  -13.5284   16.9362 C   0  0  2  0  0  0  0  0  0  0  0  0
    0.0867  -12.4524   15.8714 O   0  0  0  0  0  0  0  0  0  0  0  0
    1.5360  -14.2780   16.6735 C   0  0  0  0  0  0  0  0  0  0  0  0
    1.8487  -15.2256   17.7113 O   0  0  0  0  0  0  0  0  0  0  0  0
    5.8605   -9.3123   17.2636 O   0  0  0  0  0  0  0  0  0  0  0  0
    7.4396  -10.2962   19.4231 O   0  0  0  0  0  0  0  0  0  0  0  0
   -3.3694   -8.2522   19.0028 C   0  0  0  0  0  0  0  0  0  0  0  0
   -3.2790   -8.7733   20.1540 O   0  0  0  0  0  0  0  0  0  0  0  0
   -4.5831   -7.3681   18.5811 C   0  0  2  0  0  0  0  0  0  0  0  0
   -7.1505   -7.7430   15.6799 N   0  0  0  0  0  0  0  0  0  0  0  0
   -5.2424   -7.9106   17.2755 C   0  0  0  0  0  0  0  0  0  0  0  0
   -6.4856   -7.1136   16.8461 C   0  0  0  0  0  0  0  0  0  0  0  0
   -4.2482   -6.1695   18.3178 O   0  0  0  0  0  0  0  0  0  0  0  0
  1  2  1  1  0  0  0
  1  3  1  0  0  0  0
  1  8  1  0  0  0  0
  3  4  1  0  0  0  0
  3 32  1  6  0  0  0
  4  5  1  0  0  0  0
  4 33  1  6  0  0  0
  5  6  1  1  0  0  0
  5  7  1  0  0  0  0
  7  8  1  0  0  0  0
  7  9  1  1  0  0  0
  9 10  1  0  0  0  0
 11 12  1  6  0  0  0
 11 13  1  0  0  0  0
 11 19  1  0  0  0  0
 12 34  1  0  0  0  0
 13 14  1  0  0  0  0
 14 15  1  6  0  0  0
 14 16  1  0  0  0  0
 16  2  1  1  0  0  0
 16 17  1  0  0  0  0
 17 18  1  6  0  0  0
 17 19  1  0  0  0  0
 19 20  1  1  0  0  0
 21 20  1  1  0  0  0
 21 22  1  0  0  0  0
 21 29  1  0  0  0  0
 22 23  1  1  0  0  0
 22 24  1  0  0  0  0
 24 25  1  6  0  0  0
 24 26  1  0  0  0  0
 26 27  1  1  0  0  0
 26 28  1  0  0  0  0
 28 29  1  0  0  0  0
 28 30  1  6  0  0  0
 30 31  1  0  0  0  0
 34 35  2  0  0  0  0
 36 34  1  6  0  0  0
 36 38  1  0  0  0  0
 36 40  1  0  0  0  0
 37 39  1  0  0  0  0
 38 39  1  0  0  0  0
M  END
>  <CHROM.1>
-150.78655823,-65.32867329,69.05587707,-87.33609416,152.60639097,-162.99756966
-63.82911880,54.44731055,177.40918823,-174.52349358,0.59441803,-9.98003048
18.37136987,0.22127880,-0.26198641,0.35842378

>  <Name>
ligand

>  <RI>
0

>  <Rbt.Current_Directory>
/home/itssahil/PROJECTS/Mol_Feturizer/New_Systems/rnas/4P20

>  <Rbt.Executable>
rbdock ($Id: //depot/dev/client3/rdock/2013.1/src/exe/rbdock.cxx#4 $)

>  <Rbt.Library>
libRbt.so (2013.1, Build901 2013/11/27)

>  <Rbt.Parameter_File>
/export/apps/rDock/src/rDock_2013.1_src/data/scripts/dock_solv.prm

>  <Rbt.Receptor>
prm/pocket_docking_7.prm

>  <SCORE>
-12.3676

>  <SCORE.INTER>
-6.44596

>  <SCORE.INTER.CONST>
1

>  <SCORE.INTER.POLAR>
0

>  <SCORE.INTER.ROT>
10

>  <SCORE.INTER.SOLV>
20.5259

>  <SCORE.INTER.VDW>
-21.4059

>  <SCORE.INTER.norm>
-0.161149

>  <SCORE.INTRA>
-5.9216

>  <SCORE.INTRA.DIHEDRAL>
-18.3981

>  <SCORE.INTRA.DIHEDRAL.0>
28.2802

>  <SCORE.INTRA.POLAR>
0

>  <SCORE.INTRA.POLAR.0>
0

>  <SCORE.INTRA.REPUL>
0

>  <SCORE.INTRA.REPUL.0>
0

>  <SCORE.INTRA.SOLV>
2.23162

>  <SCORE.INTRA.SOLV.lig_0>
-101.981

>  <SCORE.INTRA.VDW>
2.16163

>  <SCORE.INTRA.VDW.0>
-5.72964

>  <SCORE.INTRA.norm>
-0.14804

>  <SCORE.RESTR>
0

>  <SCORE.RESTR.CAVITY>
0

>  <SCORE.RESTR.norm>
0

>  <SCORE.SYSTEM>
0

>  <SCORE.SYSTEM.CONST>
0

>  <SCORE.SYSTEM.DIHEDRAL>
0

>  <SCORE.SYSTEM.SOLV>
0

>  <SCORE.SYSTEM.norm>
0

>  <SCORE.heavy>
40

>  <SCORE.norm>
-0.309189

>  <RMSD>
3.454

$$$$
ligand
 OpenBabel11021811513D
libRbt.so/2013.1/901 2013/11/27
 40 42  0  0  0  0  0  0  0  0999 V2000
    2.5274   -7.8754   20.9316 C   0  0  2  0  0  0  0  0  0  0  0  0
    2.4121   -7.0461   19.7645 O   0  0  0  0  0  0  0  0  0  0  0  0
    3.8408   -7.5302   21.7286 C   0  0  1  0  0  0  0  0  0  0  0  0
    5.1165   -7.8868   20.9110 C   0  0  2  0  0  0  0  0  0  0  0  0
    5.0752   -9.4186   20.6108 C   0  0  2  0  0  0  0  0  0  0  0  0
    6.2596   -9.7910   19.8739 O   0  0  0  0  0  0  0  0  0  0  0  0
    3.7629   -9.7319   19.7674 C   0  0  2  0  0  0  0  0  0  0  0  0
    2.5453   -9.3253   20.5563 O   0  0  0  0  0  0  0  0  0  0  0  0
    3.6196  -11.2118   19.4395 C   0  0  0  0  0  0  0  0  0  0  0  0
    2.3599  -11.4867   18.6790 N   0  0  0  0  0  0  0  0  0  0  0  0
   -0.3538   -9.2305   17.1362 C   0  0  2  0  0  0  0  0  0  0  0  0
   -1.3472   -9.4797   16.1176 N   0  0  0  0  0  0  0  0  0  0  0  0
   -0.9635   -8.2876   18.2506 C   0  0  0  0  0  0  0  0  0  0  0  0
    0.1238   -7.9996   19.3802 C   0  0  2  0  0  0  0  0  0  0  0  0
   -0.4559   -7.1270   20.4347 N   0  0  0  0  0  0  0  0  0  0  0  0
    1.4089   -7.3227   18.7115 C   0  0  2  0  0  0  0  0  0  0  0  0
    1.9817   -8.3038   17.6019 C   0  0  2  0  0  0  0  0  0  0  0  0
    3.1339   -7.7089   17.0005 O   0  0  0  0  0  0  0  0  0  0  0  0
    0.8930   -8.5835   16.4921 C   0  0  1  0  0  0  0  0  0  0  0  0
    1.4238   -9.4962   15.4991 O   0  0  0  0  0  0  0  0  0  0  0  0
    1.9543  -10.7503   15.7648 C   0  0  2  0  0  0  0  0  0  0  0  0
    3.1644  -10.9674   14.7883 C   0  0  2  0  0  0  0  0  0  0  0  0
    4.0984   -9.9518   14.9654 O   0  0  0  0  0  0  0  0  0  0  0  0
    2.6926  -11.0555   13.2747 C   0  0  1  0  0  0  0  0  0  0  0  0
    3.8584  -11.2747   12.3639 N   0  0  0  0  0  0  0  0  0  0  0  0
    1.6334  -12.2349   13.1394 C   0  0  2  0  0  0  0  0  0  0  0  0
    1.1853  -12.3635   11.7844 O   0  0  0  0  0  0  0  0  0  0  0  0
    0.4347  -11.9327   14.1196 C   0  0  2  0  0  0  0  0  0  0  0  0
    0.9282  -11.8036   15.5543 O   0  0  0  0  0  0  0  0  0  0  0  0
   -0.6064  -13.0250   14.0610 C   0  0  0  0  0  0  0  0  0  0  0  0
   -1.7315  -12.7673   14.9215 O   0  0  0  0  0  0  0  0  0  0  0  0
    3.8179   -6.1101   22.0552 O   0  0  0  0  0  0  0  0  0  0  0  0
    6.2286   -7.5779   21.6563 O   0  0  0  0  0  0  0  0  0  0  0  0
   -2.4752  -10.3259   16.4312 C   0  0  0  0  0  0  0  0  0  0  0  0
   -2.3882  -11.1666   17.3749 O   0  0  0  0  0  0  0  0  0  0  0  0
   -3.7686  -10.1656   15.5745 C   0  0  2  0  0  0  0  0  0  0  0  0
   -3.9938   -8.1906   17.9711 N   0  0  0  0  0  0  0  0  0  0  0  0
   -5.0118   -9.9114   16.4819 C   0  0  0  0  0  0  0  0  0  0  0  0
   -5.0912   -8.4708   17.0143 C   0  0  0  0  0  0  0  0  0  0  0  0
   -4.0463  -11.2116   14.9060 O   0  0  0  0  0  0  0  0  0  0  0  0
  1  2  1  6  0  0  0
  1  3  1  0  0  0  0
  1  8  1  0  0  0  0
  3  4  1  0  0  0  0
  3 32  1  6  0  0  0
  4  5  1  0  0  0  0
  4 33  1  1  0  0  0
  5  6  1  6  0  0  0
  5  7  1  0  0  0  0
  7  8  1  0  0  0  0
  7  9  1  1  0  0  0
  9 10  1  0  0  0  0
 11 12  1  6  0  0  0
 11 13  1  0  0  0  0
 11 19  1  0  0  0  0
 12 34  1  0  0  0  0
 13 14  1  0  0  0  0
 14 15  1  1  0  0  0
 14 16  1  0  0  0  0
 16  2  1  1  0  0  0
 16 17  1  0  0  0  0
 17 18  1  6  0  0  0
 17 19  1  0  0  0  0
 19 20  1  6  0  0  0
 21 20  1  6  0  0  0
 21 22  1  0  0  0  0
 21 29  1  0  0  0  0
 22 23  1  6  0  0  0
 22 24  1  0  0  0  0
 24 25  1  6  0  0  0
 24 26  1  0  0  0  0
 26 27  1  6  0  0  0
 26 28  1  0  0  0  0
 28 29  1  0  0  0  0
 28 30  1  1  0  0  0
 30 31  1  0  0  0  0
 34 35  2  0  0  0  0
 36 34  1  1  0  0  0
 36 38  1  0  0  0  0
 36 40  1  0  0  0  0
 37 39  1  0  0  0  0
 38 39  1  0  0  0  0
M  END
>  <CHROM.1>
168.76210671,30.87548786,178.43348304,-71.09897325,-64.48894370,-143.01458246
-178.67449539,-126.04455638,77.02675025,-67.56067137,1.12931266,-9.65917848
17.32797591,0.83672951,-0.07745581,1.02460719

>  <Name>
ligand

>  <RI>
0

>  <Rbt.Current_Directory>
/home/itssahil/PROJECTS/Mol_Feturizer/New_Systems/rnas/4P20

>  <Rbt.Executable>
rbdock ($Id: //depot/dev/client3/rdock/2013.1/src/exe/rbdock.cxx#4 $)

>  <Rbt.Library>
libRbt.so (2013.1, Build901 2013/11/27)

>  <Rbt.Parameter_File>
/export/apps/rDock/src/rDock_2013.1_src/data/scripts/dock_solv.prm

>  <Rbt.Receptor>
prm/pocket_docking_3.prm

>  <SCORE>
-4.65786

>  <SCORE.INTER>
-1.04532

>  <SCORE.INTER.CONST>
1

>  <SCORE.INTER.POLAR>
0

>  <SCORE.INTER.ROT>
10

>  <SCORE.INTER.SOLV>
19.4758

>  <SCORE.INTER.VDW>
-17.4555

>  <SCORE.INTER.norm>
-0.0261331

>  <SCORE.INTRA>
-3.63799

>  <SCORE.INTRA.DIHEDRAL>
-15.5544

>  <SCORE.INTRA.DIHEDRAL.0>
28.2802

>  <SCORE.INTRA.POLAR>
0

>  <SCORE.INTRA.POLAR.0>
0

>  <SCORE.INTRA.REPUL>
0

>  <SCORE.INTRA.REPUL.0>
0

>  <SCORE.INTRA.SOLV>
10.54

>  <SCORE.INTRA.SOLV.lig_0>
-101.981

>  <SCORE.INTRA.VDW>
-1.13077

>  <SCORE.INTRA.VDW.0>
-5.72964

>  <SCORE.INTRA.norm>
-0.0909498

>  <SCORE.RESTR>
0.0254554

>  <SCORE.RESTR.CAVITY>
0.0254554

>  <SCORE.RESTR.norm>
0.000636385

>  <SCORE.SYSTEM>
0

>  <SCORE.SYSTEM.CONST>
0

>  <SCORE.SYSTEM.DIHEDRAL>
0

>  <SCORE.SYSTEM.SOLV>
0

>  <SCORE.SYSTEM.norm>
0

>  <SCORE.heavy>
40

>  <SCORE.norm>
-0.116446

>  <RMSD>
3.516

$$$$
ligand
 OpenBabel11021811513D
libRbt.so/2013.1/901 2013/11/27
 40 42  0  0  0  0  0  0  0  0999 V2000
    3.7121   -7.2616   20.0426 C   0  0  2  0  0  0  0  0  0  0  0  0
    2.3696   -7.5749   20.4457 O   0  0  0  0  0  0  0  0  0  0  0  0
    4.7308   -7.6104   21.1915 C   0  0  1  0  0  0  0  0  0  0  0  0
    4.5146   -6.7080   22.4412 C   0  0  2  0  0  0  0  0  0  0  0  0
    4.7166   -5.2248   21.9966 C   0  0  2  0  0  0  0  0  0  0  0  0
    4.5486   -4.3586   23.1394 O   0  0  0  0  0  0  0  0  0  0  0  0
    3.6466   -4.8864   20.8687 C   0  0  2  0  0  0  0  0  0  0  0  0
    3.8398   -5.8104   19.6944 O   0  0  0  0  0  0  0  0  0  0  0  0
    3.7752   -3.4601   20.3516 C   0  0  0  0  0  0  0  0  0  0  0  0
    3.4493   -2.4585   21.4152 N   0  0  0  0  0  0  0  0  0  0  0  0
    1.7809  -11.6585   18.9264 C   0  0  2  0  0  0  0  0  0  0  0  0
    1.1130  -12.8755   18.5274 N   0  0  0  0  0  0  0  0  0  0  0  0
    1.5020  -11.3795   20.4585 C   0  0  0  0  0  0  0  0  0  0  0  0
    2.2294  -10.0358   20.9125 C   0  0  2  0  0  0  0  0  0  0  0  0
    1.9799   -9.7839   22.3560 N   0  0  0  0  0  0  0  0  0  0  0  0
    1.7007   -8.8231   20.0142 C   0  0  2  0  0  0  0  0  0  0  0  0
    2.0013   -9.1503   18.4896 C   0  0  2  0  0  0  0  0  0  0  0  0
    1.5354   -8.0697   17.6782 O   0  0  0  0  0  0  0  0  0  0  0  0
    1.2780  -10.4857   18.0548 C   0  0  1  0  0  0  0  0  0  0  0  0
    1.5791  -10.7810   16.6682 O   0  0  0  0  0  0  0  0  0  0  0  0
    1.0665  -10.0999   15.5735 C   0  0  2  0  0  0  0  0  0  0  0  0
   -0.4994  -10.1555   15.6741 C   0  0  2  0  0  0  0  0  0  0  0  0
   -0.9121   -9.6001   16.8809 O   0  0  0  0  0  0  0  0  0  0  0  0
   -1.0491  -11.6356   15.5058 C   0  0  1  0  0  0  0  0  0  0  0  0
   -2.5419  -11.6637   15.5923 N   0  0  0  0  0  0  0  0  0  0  0  0
   -0.5478  -12.2091   14.1090 C   0  0  2  0  0  0  0  0  0  0  0  0
   -1.0302  -13.5428   13.9038 O   0  0  0  0  0  0  0  0  0  0  0  0
    1.0289  -12.1548   14.0937 C   0  0  2  0  0  0  0  0  0  0  0  0
    1.5233  -10.7308   14.3087 O   0  0  0  0  0  0  0  0  0  0  0  0
    1.5796  -12.6672   12.7843 C   0  0  0  0  0  0  0  0  0  0  0  0
    1.1460  -11.8862   11.6552 O   0  0  0  0  0  0  0  0  0  0  0  0
    4.5674   -9.0169   21.5365 O   0  0  0  0  0  0  0  0  0  0  0  0
    5.4349   -7.0457   23.4038 O   0  0  0  0  0  0  0  0  0  0  0  0
    1.7447  -13.7340   17.5523 C   0  0  0  0  0  0  0  0  0  0  0  0
    2.6026  -13.2541   16.7532 O   0  0  0  0  0  0  0  0  0  0  0  0
    1.3294  -15.2371   17.5251 C   0  0  2  0  0  0  0  0  0  0  0  0
   -2.5123  -15.1289   18.1348 N   0  0  0  0  0  0  0  0  0  0  0  0
   -0.1978  -15.3897   17.2460 C   0  0  0  0  0  0  0  0  0  0  0  0
   -1.0807  -14.8242   18.3710 C   0  0  0  0  0  0  0  0  0  0  0  0
    1.5298  -15.8210   18.6373 O   0  0  0  0  0  0  0  0  0  0  0  0
  1  2  1  1  0  0  0
  1  3  1  0  0  0  0
  1  8  1  0  0  0  0
  3  4  1  0  0  0  0
  3 32  1  1  0  0  0
  4  5  1  0  0  0  0
  4 33  1  1  0  0  0
  5  6  1  1  0  0  0
  5  7  1  0  0  0  0
  7  8  1  0  0  0  0
  7  9  1  6  0  0  0
  9 10  1  0  0  0  0
 11 12  1  6  0  0  0
 11 13  1  0  0  0  0
 11 19  1  0  0  0  0
 12 34  1  0  0  0  0
 13 14  1  0  0  0  0
 14 15  1  1  0  0  0
 14 16  1  0  0  0  0
 16  2  1  1  0  0  0
 16 17  1  0  0  0  0
 17 18  1  6  0  0  0
 17 19  1  0  0  0  0
 19 20  1  6  0  0  0
 21 20  1  1  0  0  0
 21 22  1  0  0  0  0
 21 29  1  0  0  0  0
 22 23  1  1  0  0  0
 22 24  1  0  0  0  0
 24 25  1  6  0  0  0
 24 26  1  0  0  0  0
 26 27  1  1  0  0  0
 26 28  1  0  0  0  0
 28 29  1  0  0  0  0
 28 30  1  6  0  0  0
 30 31  1  0  0  0  0
 34 35  2  0  0  0  0
 36 34  1  1  0  0  0
 36 38  1  0  0  0  0
 36 40  1  0  0  0  0
 37 39  1  0  0  0  0
 38 39  1  0  0  0  0
M  END
>  <CHROM.1>
-99.66253342,78.74465808,-65.54623133,-144.78789003,167.12333197,-56.01588370
61.21822256,59.66168778,-65.49155792,-173.53320121,1.74447323,-10.09328006
18.30930559,0.16318866,-1.17058663,-0.71378539

>  <Name>
ligand

>  <RI>
0

>  <Rbt.Current_Directory>
/home/itssahil/PROJECTS/Mol_Feturizer/New_Systems/rnas/4P20

>  <Rbt.Executable>
rbdock ($Id: //depot/dev/client3/rdock/2013.1/src/exe/rbdock.cxx#4 $)

>  <Rbt.Library>
libRbt.so (2013.1, Build901 2013/11/27)

>  <Rbt.Parameter_File>
/export/apps/rDock/src/rDock_2013.1_src/data/scripts/dock_solv.prm

>  <Rbt.Receptor>
prm/pocket_docking_8.prm

>  <SCORE>
-11.3324

>  <SCORE.INTER>
-6.05958

>  <SCORE.INTER.CONST>
1

>  <SCORE.INTER.POLAR>
0

>  <SCORE.INTER.ROT>
10

>  <SCORE.INTER.SOLV>
18.3792

>  <SCORE.INTER.VDW>
-20.4328

>  <SCORE.INTER.norm>
-0.151489

>  <SCORE.INTRA>
-5.27283

>  <SCORE.INTRA.DIHEDRAL>
-18.5157

>  <SCORE.INTRA.DIHEDRAL.0>
28.2802

>  <SCORE.INTRA.POLAR>
0

>  <SCORE.INTRA.POLAR.0>
0

>  <SCORE.INTRA.REPUL>
0

>  <SCORE.INTRA.REPUL.0>
0

>  <SCORE.INTRA.SOLV>
3.88595

>  <SCORE.INTRA.SOLV.lig_0>
-101.981

>  <SCORE.INTRA.VDW>
2.04206

>  <SCORE.INTRA.VDW.0>
-5.72964

>  <SCORE.INTRA.norm>
-0.131821

>  <SCORE.RESTR>
0

>  <SCORE.RESTR.CAVITY>
0

>  <SCORE.RESTR.norm>
0

>  <SCORE.SYSTEM>
0

>  <SCORE.SYSTEM.CONST>
0

>  <SCORE.SYSTEM.DIHEDRAL>
0

>  <SCORE.SYSTEM.SOLV>
0

>  <SCORE.SYSTEM.norm>
0

>  <SCORE.heavy>
40

>  <SCORE.norm>
-0.28331

>  <RMSD>
3.930

$$$$
ligand
 OpenBabel11021811513D
libRbt.so/2013.1/901 2013/11/27
 40 42  0  0  0  0  0  0  0  0999 V2000
    2.5095   -9.9332   20.8891 C   0  0  2  0  0  0  0  0  0  0  0  0
    1.2753   -9.2082   21.0076 O   0  0  0  0  0  0  0  0  0  0  0  0
    3.4494   -9.6306   22.1157 C   0  0  1  0  0  0  0  0  0  0  0  0
    3.9099   -8.1438   22.1304 C   0  0  2  0  0  0  0  0  0  0  0  0
    4.6828   -7.8729   20.8009 C   0  0  2  0  0  0  0  0  0  0  0  0
    5.1487   -6.5064   20.7914 O   0  0  0  0  0  0  0  0  0  0  0  0
    3.6976   -8.1428   19.5810 C   0  0  2  0  0  0  0  0  0  0  0  0
    3.2213   -9.5716   19.6218 O   0  0  0  0  0  0  0  0  0  0  0  0
    4.3671   -7.9245   18.2311 C   0  0  0  0  0  0  0  0  0  0  0  0
    3.4504   -8.2728   17.1002 N   0  0  0  0  0  0  0  0  0  0  0  0
   -2.6175   -9.3995   18.9731 C   0  0  2  0  0  0  0  0  0  0  0  0
   -3.5959   -9.3919   17.9105 N   0  0  0  0  0  0  0  0  0  0  0  0
   -1.8480   -8.0174   18.9939 C   0  0  0  0  0  0  0  0  0  0  0  0
   -0.7606   -8.0127   20.1595 C   0  0  2  0  0  0  0  0  0  0  0  0
   -0.0500   -6.7075   20.1882 N   0  0  0  0  0  0  0  0  0  0  0  0
    0.2602   -9.2219   19.9301 C   0  0  2  0  0  0  0  0  0  0  0  0
   -0.5579  -10.5829   19.9153 C   0  0  2  0  0  0  0  0  0  0  0  0
    0.3470  -11.6710   19.7144 O   0  0  0  0  0  0  0  0  0  0  0  0
   -1.6338  -10.5719   18.7588 C   0  0  1  0  0  0  0  0  0  0  0  0
   -2.3853  -11.8112   18.7721 O   0  0  0  0  0  0  0  0  0  0  0  0
   -3.2405  -12.2414   17.7679 C   0  0  2  0  0  0  0  0  0  0  0  0
   -4.0421  -13.4710   18.3253 C   0  0  2  0  0  0  0  0  0  0  0  0
   -4.7270  -13.1011   19.4782 O   0  0  0  0  0  0  0  0  0  0  0  0
   -3.0970  -14.7182   18.5946 C   0  0  1  0  0  0  0  0  0  0  0  0
   -3.8821  -15.8810   19.1127 N   0  0  0  0  0  0  0  0  0  0  0  0
   -2.3497  -15.0925   17.2408 C   0  0  2  0  0  0  0  0  0  0  0  0
   -1.4914  -16.2244   17.4295 O   0  0  0  0  0  0  0  0  0  0  0  0
   -1.5407  -13.8259   16.7608 C   0  0  2  0  0  0  0  0  0  0  0  0
   -2.4684  -12.6350   16.5614 O   0  0  0  0  0  0  0  0  0  0  0  0
   -0.8176  -14.1001   15.4637 C   0  0  0  0  0  0  0  0  0  0  0  0
   -0.0655  -12.9651   14.9959 O   0  0  0  0  0  0  0  0  0  0  0  0
    2.7265   -9.9586   23.3379 O   0  0  0  0  0  0  0  0  0  0  0  0
    4.7345   -7.9396   23.2101 O   0  0  0  0  0  0  0  0  0  0  0  0
   -4.6465   -8.4006   17.9326 C   0  0  0  0  0  0  0  0  0  0  0  0
   -4.9757   -7.8567   19.0284 O   0  0  0  0  0  0  0  0  0  0  0  0
   -5.3423   -8.0440   16.5831 C   0  0  2  0  0  0  0  0  0  0  0  0
   -8.3532   -7.3457   17.0072 N   0  0  0  0  0  0  0  0  0  0  0  0
   -6.5788   -8.9616   16.3326 C   0  0  0  0  0  0  0  0  0  0  0  0
   -7.7526   -8.6727   17.2833 C   0  0  0  0  0  0  0  0  0  0  0  0
   -4.5821   -8.2196   15.5784 O   0  0  0  0  0  0  0  0  0  0  0  0
  1  2  1  1  0  0  0
  1  3  1  0  0  0  0
  1  8  1  0  0  0  0
  3  4  1  0  0  0  0
  3 32  1  1  0  0  0
  4  5  1  0  0  0  0
  4 33  1  1  0  0  0
  5  6  1  1  0  0  0
  5  7  1  0  0  0  0
  7  8  1  0  0  0  0
  7  9  1  6  0  0  0
  9 10  1  0  0  0  0
 11 12  1  6  0  0  0
 11 13  1  0  0  0  0
 11 19  1  0  0  0  0
 12 34  1  0  0  0  0
 13 14  1  0  0  0  0
 14 15  1  6  0  0  0
 14 16  1  0  0  0  0
 16  2  1  1  0  0  0
 16 17  1  0  0  0  0
 17 18  1  6  0  0  0
 17 19  1  0  0  0  0
 19 20  1  1  0  0  0
 21 20  1  1  0  0  0
 21 22  1  0  0  0  0
 21 29  1  0  0  0  0
 22 23  1  1  0  0  0
 22 24  1  0  0  0  0
 24 25  1  6  0  0  0
 24 26  1  0  0  0  0
 26 27  1  1  0  0  0
 26 28  1  0  0  0  0
 28 29  1  0  0  0  0
 28 30  1  6  0  0  0
 30 31  1  0  0  0  0
 34 35  2  0  0  0  0
 36 34  1  1  0  0  0
 36 38  1  0  0  0  0
 36 40  1  0  0  0  0
 37 39  1  0  0  0  0
 38 39  1  0  0  0  0
M  END
>  <CHROM.1>
174.66792506,-163.33019049,176.15976634,-60.31389403,71.91871151,-168.95356410
-179.89417423,90.19194331,70.02809033,68.15045108,-0.96014768,-10.26947775
18.84696334,-0.38181007,0.34742445,-2.95125071

>  <Name>
ligand

>  <RI>
0

>  <Rbt.Current_Directory>
/home/itssahil/PROJECTS/Mol_Feturizer/New_Systems/rnas/4P20

>  <Rbt.Executable>
rbdock ($Id: //depot/dev/client3/rdock/2013.1/src/exe/rbdock.cxx#4 $)

>  <Rbt.Library>
libRbt.so (2013.1, Build901 2013/11/27)

>  <Rbt.Parameter_File>
/export/apps/rDock/src/rDock_2013.1_src/data/scripts/dock_solv.prm

>  <Rbt.Receptor>
prm/pocket_docking_6.prm

>  <SCORE>
-11.6688

>  <SCORE.INTER>
-1.11475

>  <SCORE.INTER.CONST>
1

>  <SCORE.INTER.POLAR>
0

>  <SCORE.INTER.ROT>
10

>  <SCORE.INTER.SOLV>
22.6679

>  <SCORE.INTER.VDW>
-18.5658

>  <SCORE.INTER.norm>
-0.0278687

>  <SCORE.INTRA>
-10.5541

>  <SCORE.INTRA.DIHEDRAL>
-23.2908

>  <SCORE.INTRA.DIHEDRAL.0>
28.2802

>  <SCORE.INTRA.POLAR>
0

>  <SCORE.INTRA.POLAR.0>
0

>  <SCORE.INTRA.REPUL>
0

>  <SCORE.INTRA.REPUL.0>
0

>  <SCORE.INTRA.SOLV>
-0.505219

>  <SCORE.INTRA.SOLV.lig_0>
-101.981

>  <SCORE.INTRA.VDW>
1.34396

>  <SCORE.INTRA.VDW.0>
-5.72964

>  <SCORE.INTRA.norm>
-0.263852

>  <SCORE.RESTR>
0

>  <SCORE.RESTR.CAVITY>
0

>  <SCORE.RESTR.norm>
0

>  <SCORE.SYSTEM>
0

>  <SCORE.SYSTEM.CONST>
0

>  <SCORE.SYSTEM.DIHEDRAL>
0

>  <SCORE.SYSTEM.SOLV>
0

>  <SCORE.SYSTEM.norm>
0

>  <SCORE.heavy>
40

>  <SCORE.norm>
-0.29172

>  <RMSD>
3.970

$$$$
ligand
 OpenBabel11021811513D
libRbt.so/2013.1/901 2013/11/27
 40 42  0  0  0  0  0  0  0  0999 V2000
    4.6020  -10.5651   19.3227 C   0  0  2  0  0  0  0  0  0  0  0  0
    3.6520  -11.4561   19.9282 O   0  0  0  0  0  0  0  0  0  0  0  0
    5.9772  -10.6188   20.0877 C   0  0  1  0  0  0  0  0  0  0  0  0
    5.8471  -10.0684   21.5378 C   0  0  2  0  0  0  0  0  0  0  0  0
    5.3604   -8.5878   21.4418 C   0  0  2  0  0  0  0  0  0  0  0  0
    5.2530   -8.0351   22.7713 O   0  0  0  0  0  0  0  0  0  0  0  0
    3.9501   -8.5674   20.7056 C   0  0  2  0  0  0  0  0  0  0  0  0
    4.0907   -9.1572   19.3263 O   0  0  0  0  0  0  0  0  0  0  0  0
    3.3968   -7.1582   20.5438 C   0  0  0  0  0  0  0  0  0  0  0  0
    4.3045   -6.3029   19.7160 N   0  0  0  0  0  0  0  0  0  0  0  0
    0.0990  -13.5583   18.4162 C   0  0  2  0  0  0  0  0  0  0  0  0
   -1.2097  -13.7746   17.8444 N   0  0  0  0  0  0  0  0  0  0  0  0
   -0.0378  -12.7129   19.7464 C   0  0  0  0  0  0  0  0  0  0  0  0
    1.4001  -12.4619   20.3869 C   0  0  2  0  0  0  0  0  0  0  0  0
    1.2683  -11.6816   21.6452 N   0  0  0  0  0  0  0  0  0  0  0  0
    2.3212  -11.6977   19.3265 C   0  0  2  0  0  0  0  0  0  0  0  0
    2.4260  -12.5829   18.0122 C   0  0  2  0  0  0  0  0  0  0  0  0
    3.2511  -11.9095   17.0588 O   0  0  0  0  0  0  0  0  0  0  0  0
    0.9944  -12.8269   17.3909 C   0  0  1  0  0  0  0  0  0  0  0  0
    1.1053  -13.6529   16.2051 O   0  0  0  0  0  0  0  0  0  0  0  0
    0.0933  -13.8695   15.2811 C   0  0  2  0  0  0  0  0  0  0  0  0
    0.7451  -14.5265   14.0128 C   0  0  2  0  0  0  0  0  0  0  0  0
    1.3902  -15.7049   14.3738 O   0  0  0  0  0  0  0  0  0  0  0  0
    1.7391  -13.5303   13.2773 C   0  0  1  0  0  0  0  0  0  0  0  0
    2.3384  -14.1714   12.0663 N   0  0  0  0  0  0  0  0  0  0  0  0
    0.9411  -12.2101   12.8879 C   0  0  2  0  0  0  0  0  0  0  0  0
    1.7947  -11.2815   12.2077 O   0  0  0  0  0  0  0  0  0  0  0  0
    0.3462  -11.5884   14.2102 C   0  0  2  0  0  0  0  0  0  0  0  0
   -0.5609  -12.5866   14.9170 O   0  0  0  0  0  0  0  0  0  0  0  0
   -0.4458  -10.3367   13.9161 C   0  0  0  0  0  0  0  0  0  0  0  0
   -0.9939   -9.7340   15.1031 O   0  0  0  0  0  0  0  0  0  0  0  0
    6.4401  -12.0007   20.1002 O   0  0  0  0  0  0  0  0  0  0  0  0
    7.0745  -10.1269   22.1524 O   0  0  0  0  0  0  0  0  0  0  0  0
   -1.9409  -14.9688   18.1996 C   0  0  0  0  0  0  0  0  0  0  0  0
   -1.3163  -15.9872   18.6211 O   0  0  0  0  0  0  0  0  0  0  0  0
   -3.4922  -14.9496   18.0396 C   0  0  2  0  0  0  0  0  0  0  0  0
   -4.7407  -13.5928   20.5546 N   0  0  0  0  0  0  0  0  0  0  0  0
   -4.1873  -15.6445   19.2510 C   0  0  0  0  0  0  0  0  0  0  0  0
   -4.0080  -14.8816   20.5742 C   0  0  0  0  0  0  0  0  0  0  0  0
   -3.8867  -15.5874   17.0122 O   0  0  0  0  0  0  0  0  0  0  0  0
  1  2  1  1  0  0  0
  1  3  1  0  0  0  0
  1  8  1  0  0  0  0
  3  4  1  0  0  0  0
  3 32  1  1  0  0  0
  4  5  1  0  0  0  0
  4 33  1  6  0  0  0
  5  6  1  1  0  0  0
  5  7  1  0  0  0  0
  7  8  1  0  0  0  0
  7  9  1  6  0  0  0
  9 10  1  0  0  0  0
 11 12  1  6  0  0  0
 11 13  1  0  0  0  0
 11 19  1  0  0  0  0
 12 34  1  0  0  0  0
 13 14  1  0  0  0  0
 14 15  1  1  0  0  0
 14 16  1  0  0  0  0
 16  2  1  1  0  0  0
 16 17  1  0  0  0  0
 17 18  1  6  0  0  0
 17 19  1  0  0  0  0
 19 20  1  6  0  0  0
 21 20  1  1  0  0  0
 21 22  1  0  0  0  0
 21 29  1  0  0  0  0
 22 23  1  1  0  0  0
 22 24  1  0  0  0  0
 24 25  1  6  0  0  0
 24 26  1  0  0  0  0
 26 27  1  1  0  0  0
 26 28  1  0  0  0  0
 28 29  1  0  0  0  0
 28 30  1  6  0  0  0
 30 31  1  0  0  0  0
 34 35  2  0  0  0  0
 36 34  1  1  0  0  0
 36 38  1  0  0  0  0
 36 40  1  0  0  0  0
 37 39  1  0  0  0  0
 38 39  1  0  0  0  0
M  END
>  <CHROM.1>
-173.95469467,-167.54904030,61.11528953,-92.01642907,72.08065438,166.70429919
-179.44134874,-138.41003214,66.66896434,68.02433832,1.40889817,-12.10822375
17.94596072,-0.59238249,-0.58218079,-1.69108798

>  <Name>
ligand

>  <RI>
0

>  <Rbt.Current_Directory>
/home/itssahil/PROJECTS/Mol_Feturizer/New_Systems/rnas/4P20

>  <Rbt.Executable>
rbdock ($Id: //depot/dev/client3/rdock/2013.1/src/exe/rbdock.cxx#4 $)

>  <Rbt.Library>
libRbt.so (2013.1, Build901 2013/11/27)

>  <Rbt.Parameter_File>
/export/apps/rDock/src/rDock_2013.1_src/data/scripts/dock_solv.prm

>  <Rbt.Receptor>
prm/pocket_docking_7.prm

>  <SCORE>
-15.0373

>  <SCORE.INTER>
-4.85746

>  <SCORE.INTER.CONST>
1

>  <SCORE.INTER.POLAR>
0

>  <SCORE.INTER.ROT>
10

>  <SCORE.INTER.SOLV>
21.7214

>  <SCORE.INTER.VDW>
-20.7454

>  <SCORE.INTER.norm>
-0.121436

>  <SCORE.INTRA>
-10.1896

>  <SCORE.INTRA.DIHEDRAL>
-22.648

>  <SCORE.INTRA.DIHEDRAL.0>
28.2802

>  <SCORE.INTRA.POLAR>
0

>  <SCORE.INTRA.POLAR.0>
0

>  <SCORE.INTRA.REPUL>
0

>  <SCORE.INTRA.REPUL.0>
0

>  <SCORE.INTRA.SOLV>
0.249684

>  <SCORE.INTRA.SOLV.lig_0>
-101.981

>  <SCORE.INTRA.VDW>
1.00958

>  <SCORE.INTRA.VDW.0>
-5.72964

>  <SCORE.INTRA.norm>
-0.254739

>  <SCORE.RESTR>
0.00976421

>  <SCORE.RESTR.CAVITY>
0.00976421

>  <SCORE.RESTR.norm>
0.000244105

>  <SCORE.SYSTEM>
0

>  <SCORE.SYSTEM.CONST>
0

>  <SCORE.SYSTEM.DIHEDRAL>
0

>  <SCORE.SYSTEM.SOLV>
0

>  <SCORE.SYSTEM.norm>
0

>  <SCORE.heavy>
40

>  <SCORE.norm>
-0.375931

>  <RMSD>
4.082

$$$$
ligand
 OpenBabel11021811513D
libRbt.so/2013.1/901 2013/11/27
 40 42  0  0  0  0  0  0  0  0999 V2000
    2.7847  -10.9520   21.3320 C   0  0  2  0  0  0  0  0  0  0  0  0
    2.7083  -11.8070   20.1804 O   0  0  0  0  0  0  0  0  0  0  0  0
    2.4570   -9.4630   20.9388 C   0  0  1  0  0  0  0  0  0  0  0  0
    3.5359   -8.8725   19.9848 C   0  0  2  0  0  0  0  0  0  0  0  0
    4.9079   -8.9263   20.7284 C   0  0  2  0  0  0  0  0  0  0  0  0
    5.9309   -8.3611   19.8808 O   0  0  0  0  0  0  0  0  0  0  0  0
    5.2350  -10.4447   21.0735 C   0  0  2  0  0  0  0  0  0  0  0  0
    4.1478  -11.0100   21.9502 O   0  0  0  0  0  0  0  0  0  0  0  0
    6.5515  -10.6023   21.8221 C   0  0  0  0  0  0  0  0  0  0  0  0
    6.8223  -12.0346   22.1622 N   0  0  0  0  0  0  0  0  0  0  0  0
   -0.7317  -13.7765   18.2785 C   0  0  2  0  0  0  0  0  0  0  0  0
   -1.9787  -13.9441   17.5691 N   0  0  0  0  0  0  0  0  0  0  0  0
   -0.9809  -12.9363   19.5956 C   0  0  0  0  0  0  0  0  0  0  0  0
    0.3884  -12.7389   20.3874 C   0  0  2  0  0  0  0  0  0  0  0  0
    0.1496  -11.9634   21.6328 N   0  0  0  0  0  0  0  0  0  0  0  0
    1.4416  -11.9990   19.4386 C   0  0  2  0  0  0  0  0  0  0  0  0
    1.6561  -12.8779   18.1335 C   0  0  2  0  0  0  0  0  0  0  0  0
    2.5996  -12.2263   17.2800 O   0  0  0  0  0  0  0  0  0  0  0  0
    0.2912  -13.0687   17.3616 C   0  0  1  0  0  0  0  0  0  0  0  0
    0.5000  -13.8897   16.1855 O   0  0  0  0  0  0  0  0  0  0  0  0
   -0.3737  -13.9908   15.1126 C   0  0  2  0  0  0  0  0  0  0  0  0
    0.4250  -14.6082   13.9101 C   0  0  2  0  0  0  0  0  0  0  0  0
    0.9505  -15.8420   14.2799 O   0  0  0  0  0  0  0  0  0  0  0  0
    1.5649  -13.6302   13.3949 C   0  0  1  0  0  0  0  0  0  0  0  0
    2.3042  -14.2321   12.2425 N   0  0  0  0  0  0  0  0  0  0  0  0
    0.8997  -12.2444   12.9846 C   0  0  2  0  0  0  0  0  0  0  0  0
    1.8894  -11.3289   12.4992 O   0  0  0  0  0  0  0  0  0  0  0  0
    0.1474  -11.6688   14.2462 C   0  0  2  0  0  0  0  0  0  0  0  0
   -0.9026  -12.6521   14.7454 O   0  0  0  0  0  0  0  0  0  0  0  0
   -0.5294  -10.3573   13.9262 C   0  0  0  0  0  0  0  0  0  0  0  0
   -1.2633   -9.8233   15.0437 O   0  0  0  0  0  0  0  0  0  0  0  0
    1.1421   -9.4343   20.3109 O   0  0  0  0  0  0  0  0  0  0  0  0
    3.2077   -7.5723   19.6855 O   0  0  0  0  0  0  0  0  0  0  0  0
   -3.1254  -14.4602   18.2801 C   0  0  0  0  0  0  0  0  0  0  0  0
   -2.9572  -15.1504   19.3290 O   0  0  0  0  0  0  0  0  0  0  0  0
   -4.5419  -14.1422   17.7099 C   0  0  2  0  0  0  0  0  0  0  0  0
   -6.3021  -12.7265   20.8817 N   0  0  0  0  0  0  0  0  0  0  0  0
   -5.5867  -13.9961   18.8590 C   0  0  0  0  0  0  0  0  0  0  0  0
   -5.3227  -12.7857   19.7702 C   0  0  0  0  0  0  0  0  0  0  0  0
   -4.9887  -15.0695   16.9626 O   0  0  0  0  0  0  0  0  0  0  0  0
  1  2  1  6  0  0  0
  1  3  1  0  0  0  0
  1  8  1  0  0  0  0
  3  4  1  0  0  0  0
  3 32  1  6  0  0  0
  4  5  1  0  0  0  0
  4 33  1  1  0  0  0
  5  6  1  6  0  0  0
  5  7  1  0  0  0  0
  7  8  1  0  0  0  0
  7  9  1  1  0  0  0
  9 10  1  0  0  0  0
 11 12  1  6  0  0  0
 11 13  1  0  0  0  0
 11 19  1  0  0  0  0
 12 34  1  0  0  0  0
 13 14  1  0  0  0  0
 14 15  1  1  0  0  0
 14 16  1  0  0  0  0
 16  2  1  1  0  0  0
 16 17  1  0  0  0  0
 17 18  1  6  0  0  0
 17 19  1  0  0  0  0
 19 20  1  6  0  0  0
 21 20  1  1  0  0  0
 21 22  1  0  0  0  0
 21 29  1  0  0  0  0
 22 23  1  1  0  0  0
 22 24  1  0  0  0  0
 24 25  1  6  0  0  0
 24 26  1  0  0  0  0
 26 27  1  1  0  0  0
 26 28  1  0  0  0  0
 28 29  1  0  0  0  0
 28 30  1  6  0  0  0
 30 31  1  0  0  0  0
 34 35  2  0  0  0  0
 36 34  1  1  0  0  0
 36 38  1  0  0  0  0
 36 40  1  0  0  0  0
 37 39  1  0  0  0  0
 38 39  1  0  0  0  0
M  END
>  <CHROM.1>
-62.74652950,-65.29246330,178.72527181,-52.00589828,76.94499685,162.86759430
178.09767136,-147.15236017,65.65467823,-177.31747071,0.63860708,-12.17001939
17.98669584,0.60306303,0.37244216,1.35750044

>  <Name>
ligand

>  <RI>
0

>  <Rbt.Current_Directory>
/home/itssahil/PROJECTS/Mol_Feturizer/New_Systems/rnas/4P20

>  <Rbt.Executable>
rbdock ($Id: //depot/dev/client3/rdock/2013.1/src/exe/rbdock.cxx#4 $)

>  <Rbt.Library>
libRbt.so (2013.1, Build901 2013/11/27)

>  <Rbt.Parameter_File>
/export/apps/rDock/src/rDock_2013.1_src/data/scripts/dock_solv.prm

>  <Rbt.Receptor>
prm/pocket_docking_5.prm

>  <SCORE>
-9.78426

>  <SCORE.INTER>
-0.839814

>  <SCORE.INTER.CONST>
1

>  <SCORE.INTER.POLAR>
0

>  <SCORE.INTER.ROT>
10

>  <SCORE.INTER.SOLV>
19.5104

>  <SCORE.INTER.VDW>
-17.33

>  <SCORE.INTER.norm>
-0.0209953

>  <SCORE.INTRA>
-8.94893

>  <SCORE.INTRA.DIHEDRAL>
-23.4455

>  <SCORE.INTRA.DIHEDRAL.0>
28.2802

>  <SCORE.INTRA.POLAR>
0

>  <SCORE.INTRA.POLAR.0>
0

>  <SCORE.INTRA.REPUL>
0

>  <SCORE.INTRA.REPUL.0>
0

>  <SCORE.INTRA.SOLV>
0.309097

>  <SCORE.INTRA.SOLV.lig_0>
-101.981

>  <SCORE.INTRA.VDW>
2.61927

>  <SCORE.INTRA.VDW.0>
-5.72964

>  <SCORE.INTRA.norm>
-0.223723

>  <SCORE.RESTR>
0.00448299

>  <SCORE.RESTR.CAVITY>
0.00448299

>  <SCORE.RESTR.norm>
0.000112075

>  <SCORE.SYSTEM>
0

>  <SCORE.SYSTEM.CONST>
0

>  <SCORE.SYSTEM.DIHEDRAL>
0

>  <SCORE.SYSTEM.SOLV>
0

>  <SCORE.SYSTEM.norm>
0

>  <SCORE.heavy>
40

>  <SCORE.norm>
-0.244607

>  <RMSD>
4.468

$$$$
ligand
 OpenBabel11021811513D
libRbt.so/2013.1/901 2013/11/27
 40 42  0  0  0  0  0  0  0  0999 V2000
    3.0874   -4.9514   19.7231 C   0  0  2  0  0  0  0  0  0  0  0  0
    2.2612   -6.0728   20.0736 O   0  0  0  0  0  0  0  0  0  0  0  0
    4.3664   -4.8980   20.6399 C   0  0  1  0  0  0  0  0  0  0  0  0
    3.9946   -4.6160   22.1249 C   0  0  2  0  0  0  0  0  0  0  0  0
    3.2572   -3.2406   22.1767 C   0  0  2  0  0  0  0  0  0  0  0  0
    2.9191   -2.9333   23.5463 O   0  0  0  0  0  0  0  0  0  0  0  0
    1.9470   -3.3368   21.2790 C   0  0  2  0  0  0  0  0  0  0  0  0
    2.3293   -3.6668   19.8595 O   0  0  0  0  0  0  0  0  0  0  0  0
    1.1640   -2.0314   21.2478 C   0  0  0  0  0  0  0  0  0  0  0  0
    1.9611   -0.9270   20.6270 N   0  0  0  0  0  0  0  0  0  0  0  0
    1.7958  -10.0630   18.2870 C   0  0  2  0  0  0  0  0  0  0  0  0
    1.4627  -11.0909   17.3285 N   0  0  0  0  0  0  0  0  0  0  0  0
    0.4910   -9.2556   18.6722 C   0  0  0  0  0  0  0  0  0  0  0  0
    0.8440   -8.1136   19.7267 C   0  0  2  0  0  0  0  0  0  0  0  0
   -0.3857   -7.3667   20.0998 N   0  0  0  0  0  0  0  0  0  0  0  0
    1.9437   -7.1387   19.0964 C   0  0  2  0  0  0  0  0  0  0  0  0
    3.2296   -7.9938   18.7260 C   0  0  2  0  0  0  0  0  0  0  0  0
    4.2206   -7.1300   18.1649 O   0  0  0  0  0  0  0  0  0  0  0  0
    2.8644   -9.1235   17.6840 C   0  0  1  0  0  0  0  0  0  0  0  0
    4.0431   -9.9073   17.3727 O   0  0  0  0  0  0  0  0  0  0  0  0
    5.1840   -9.4260   16.7471 C   0  0  2  0  0  0  0  0  0  0  0  0
    5.4606  -10.3406   15.5012 C   0  0  2  0  0  0  0  0  0  0  0  0
    4.3541  -10.3324   14.6582 O   0  0  0  0  0  0  0  0  0  0  0  0
    5.8447  -11.8205   15.9296 C   0  0  1  0  0  0  0  0  0  0  0  0
    6.1160  -12.6704   14.7291 N   0  0  0  0  0  0  0  0  0  0  0  0
    7.1156  -11.7605   16.8848 C   0  0  2  0  0  0  0  0  0  0  0  0
    7.5106  -13.0771   17.2897 O   0  0  0  0  0  0  0  0  0  0  0  0
    6.7538  -10.8568   18.1264 C   0  0  2  0  0  0  0  0  0  0  0  0
    6.3410   -9.4614   17.6781 O   0  0  0  0  0  0  0  0  0  0  0  0
    7.9246  -10.7359   19.0725 C   0  0  0  0  0  0  0  0  0  0  0  0
    9.0995  -10.1985   18.4373 O   0  0  0  0  0  0  0  0  0  0  0  0
    5.0708   -6.1680   20.5170 O   0  0  0  0  0  0  0  0  0  0  0  0
    5.1449   -4.5677   22.8746 O   0  0  0  0  0  0  0  0  0  0  0  0
    0.6937  -12.2333   17.7649 C   0  0  0  0  0  0  0  0  0  0  0  0
    0.6891  -12.5583   18.9894 O   0  0  0  0  0  0  0  0  0  0  0  0
   -0.1048  -13.0304   16.6881 C   0  0  2  0  0  0  0  0  0  0  0  0
    1.0951  -15.2590   13.7285 N   0  0  0  0  0  0  0  0  0  0  0  0
    0.8590  -13.7067   15.6649 C   0  0  0  0  0  0  0  0  0  0  0  0
    0.1350  -14.6135   14.6557 C   0  0  0  0  0  0  0  0  0  0  0  0
   -0.8675  -12.2864   15.9933 O   0  0  0  0  0  0  0  0  0  0  0  0
  1  2  1  1  0  0  0
  1  3  1  0  0  0  0
  1  8  1  0  0  0  0
  3  4  1  0  0  0  0
  3 32  1  1  0  0  0
  4  5  1  0  0  0  0
  4 33  1  1  0  0  0
  5  6  1  1  0  0  0
  5  7  1  0  0  0  0
  7  8  1  0  0  0  0
  7  9  1  6  0  0  0
  9 10  1  0  0  0  0
 11 12  1  6  0  0  0
 11 13  1  0  0  0  0
 11 19  1  0  0  0  0
 12 34  1  0  0  0  0
 13 14  1  0  0  0  0
 14 15  1  6  0  0  0
 14 16  1  0  0  0  0
 16  2  1  1  0  0  0
 16 17  1  0  0  0  0
 17 18  1  6  0  0  0
 17 19  1  0  0  0  0
 19 20  1  1  0  0  0
 21 20  1  1  0  0  0
 21 22  1  0  0  0  0
 21 29  1  0  0  0  0
 22 23  1  6  0  0  0
 22 24  1  0  0  0  0
 24 25  1  6  0  0  0
 24 26  1  0  0  0  0
 26 27  1  1  0  0  0
 26 28  1  0  0  0  0
 28 29  1  0  0  0  0
 28 30  1  1  0  0  0
 30 31  1  0  0  0  0
 34 35  2  0  0  0  0
 36 34  1  1  0  0  0
 36 38  1  0  0  0  0
 36 40  1  0  0  0  0
 37 39  1  0  0  0  0
 38 39  1  0  0  0  0
M  END
>  <CHROM.1>
-119.99591558,-171.81175425,63.01410248,-70.78371231,176.14416739,-125.77777715
57.67104482,64.75442760,174.66077975,-178.54179959,3.34177916,-8.70964163
18.47426998,1.59991317,-0.01117452,0.53945626

>  <Name>
ligand

>  <RI>
0

>  <Rbt.Current_Directory>
/home/itssahil/PROJECTS/Mol_Feturizer/New_Systems/rnas/4P20

>  <Rbt.Executable>
rbdock ($Id: //depot/dev/client3/rdock/2013.1/src/exe/rbdock.cxx#4 $)

>  <Rbt.Library>
libRbt.so (2013.1, Build901 2013/11/27)

>  <Rbt.Parameter_File>
/export/apps/rDock/src/rDock_2013.1_src/data/scripts/dock_solv.prm

>  <Rbt.Receptor>
prm/pocket_docking_6.prm

>  <SCORE>
-8.69658

>  <SCORE.INTER>
-3.97388

>  <SCORE.INTER.CONST>
1

>  <SCORE.INTER.POLAR>
0

>  <SCORE.INTER.ROT>
10

>  <SCORE.INTER.SOLV>
19.7794

>  <SCORE.INTER.VDW>
-19.5091

>  <SCORE.INTER.norm>
-0.0993469

>  <SCORE.INTRA>
-4.7227

>  <SCORE.INTRA.DIHEDRAL>
-12.5517

>  <SCORE.INTRA.DIHEDRAL.0>
28.2802

>  <SCORE.INTRA.POLAR>
0

>  <SCORE.INTRA.POLAR.0>
0

>  <SCORE.INTRA.REPUL>
0

>  <SCORE.INTRA.REPUL.0>
0

>  <SCORE.INTRA.SOLV>
-0.561655

>  <SCORE.INTRA.SOLV.lig_0>
-101.981

>  <SCORE.INTRA.VDW>
1.83399

>  <SCORE.INTRA.VDW.0>
-5.72964

>  <SCORE.INTRA.norm>
-0.118068

>  <SCORE.RESTR>
0

>  <SCORE.RESTR.CAVITY>
0

>  <SCORE.RESTR.norm>
0

>  <SCORE.SYSTEM>
0

>  <SCORE.SYSTEM.CONST>
0

>  <SCORE.SYSTEM.DIHEDRAL>
0

>  <SCORE.SYSTEM.SOLV>
0

>  <SCORE.SYSTEM.norm>
0

>  <SCORE.heavy>
40

>  <SCORE.norm>
-0.217414

>  <RMSD>
4.786

$$$$
ligand
 OpenBabel11021811513D
libRbt.so/2013.1/901 2013/11/27
 40 42  0  0  0  0  0  0  0  0999 V2000
    3.8404   -6.7077   19.4036 C   0  0  2  0  0  0  0  0  0  0  0  0
    2.4371   -7.0138   19.4058 O   0  0  0  0  0  0  0  0  0  0  0  0
    4.6508   -7.8197   20.1691 C   0  0  1  0  0  0  0  0  0  0  0  0
    4.2947   -7.8464   21.6841 C   0  0  2  0  0  0  0  0  0  0  0  0
    4.6420   -6.4448   22.2783 C   0  0  2  0  0  0  0  0  0  0  0  0
    4.3479   -6.4412   23.6918 O   0  0  0  0  0  0  0  0  0  0  0  0
    3.7772   -5.3467   21.5182 C   0  0  2  0  0  0  0  0  0  0  0  0
    4.0979   -5.3796   20.0464 O   0  0  0  0  0  0  0  0  0  0  0  0
    4.0602   -3.9352   22.0142 C   0  0  0  0  0  0  0  0  0  0  0  0
    3.0924   -2.9471   21.4418 N   0  0  0  0  0  0  0  0  0  0  0  0
    0.4507   -8.9104   15.9725 C   0  0  2  0  0  0  0  0  0  0  0  0
   -0.0825   -9.9401   15.1113 N   0  0  0  0  0  0  0  0  0  0  0  0
    2.0080   -9.1242   16.1516 C   0  0  0  0  0  0  0  0  0  0  0  0
    2.6102   -7.9971   17.1044 C   0  0  2  0  0  0  0  0  0  0  0  0
    4.0761   -8.1898   17.2583 N   0  0  0  0  0  0  0  0  0  0  0  0
    1.8679   -8.0541   18.5195 C   0  0  2  0  0  0  0  0  0  0  0  0
    0.3121   -7.8366   18.2872 C   0  0  2  0  0  0  0  0  0  0  0  0
   -0.3604   -7.8821   19.5478 O   0  0  0  0  0  0  0  0  0  0  0  0
   -0.2702   -8.9575   17.3386 C   0  0  1  0  0  0  0  0  0  0  0  0
   -1.6852   -8.7329   17.1200 O   0  0  0  0  0  0  0  0  0  0  0  0
   -2.6672   -8.7921   18.0983 C   0  0  2  0  0  0  0  0  0  0  0  0
   -2.7179  -10.2696   18.6272 C   0  0  2  0  0  0  0  0  0  0  0  0
   -1.4673  -10.6374   19.1128 O   0  0  0  0  0  0  0  0  0  0  0  0
   -3.2190  -11.2795   17.5090 C   0  0  1  0  0  0  0  0  0  0  0  0
   -3.2718  -12.6777   18.0372 N   0  0  0  0  0  0  0  0  0  0  0  0
   -4.6510  -10.8072   17.0012 C   0  0  2  0  0  0  0  0  0  0  0  0
   -5.1536  -11.6970   15.9967 O   0  0  0  0  0  0  0  0  0  0  0  0
   -4.5162   -9.3335   16.4545 C   0  0  2  0  0  0  0  0  0  0  0  0
   -3.9853   -8.4018   17.5355 O   0  0  0  0  0  0  0  0  0  0  0  0
   -5.8465   -8.8074   15.9709 C   0  0  0  0  0  0  0  0  0  0  0  0
   -5.7638   -7.4581   15.4755 O   0  0  0  0  0  0  0  0  0  0  0  0
    4.3610   -9.1061   19.5484 O   0  0  0  0  0  0  0  0  0  0  0  0
    5.0372   -8.8228   22.3030 O   0  0  0  0  0  0  0  0  0  0  0  0
    0.5869  -10.2259   13.8634 C   0  0  0  0  0  0  0  0  0  0  0  0
    1.3223   -9.3444   13.3275 O   0  0  0  0  0  0  0  0  0  0  0  0
    0.3645  -11.6292   13.2203 C   0  0  2  0  0  0  0  0  0  0  0  0
   -0.0054  -14.3695   15.9139 N   0  0  0  0  0  0  0  0  0  0  0  0
   -0.3689  -12.5870   14.2093 C   0  0  0  0  0  0  0  0  0  0  0  0
    0.5440  -13.1253   15.3237 C   0  0  0  0  0  0  0  0  0  0  0  0
    1.4564  -12.2140   12.9306 O   0  0  0  0  0  0  0  0  0  0  0  0
  1  2  1  1  0  0  0
  1  3  1  0  0  0  0
  1  8  1  0  0  0  0
  3  4  1  0  0  0  0
  3 32  1  6  0  0  0
  4  5  1  0  0  0  0
  4 33  1  1  0  0  0
  5  6  1  1  0  0  0
  5  7  1  0  0  0  0
  7  8  1  0  0  0  0
  7  9  1  1  0  0  0
  9 10  1  0  0  0  0
 11 12  1  6  0  0  0
 11 13  1  0  0  0  0
 11 19  1  0  0  0  0
 12 34  1  0  0  0  0
 13 14  1  0  0  0  0
 14 15  1  1  0  0  0
 14 16  1  0  0  0  0
 16  2  1  1  0  0  0
 16 17  1  0  0  0  0
 17 18  1  1  0  0  0
 17 19  1  0  0  0  0
 19 20  1  6  0  0  0
 21 20  1  6  0  0  0
 21 22  1  0  0  0  0
 21 29  1  0  0  0  0
 22 23  1  6  0  0  0
 22 24  1  0  0  0  0
 24 25  1  1  0  0  0
 24 26  1  0  0  0  0
 26 27  1  6  0  0  0
 26 28  1  0  0  0  0
 28 29  1  0  0  0  0
 28 30  1  1  0  0  0
 30 31  1  0  0  0  0
 34 35  2  0  0  0  0
 36 34  1  1  0  0  0
 36 38  1  0  0  0  0
 36 40  1  0  0  0  0
 37 39  1  0  0  0  0
 38 39  1  0  0  0  0
M  END
>  <CHROM.1>
-76.07972375,-38.06504148,-171.18375521,-48.38379886,175.43351350,-64.19010283
179.46050294,-10.33530609,-75.82923046,-158.87771995,0.44756778,-8.92096860
17.87750912,-0.80133328,0.03193885,-2.28843929

>  <Name>
ligand

>  <RI>
0

>  <Rbt.Current_Directory>
/home/itssahil/PROJECTS/Mol_Feturizer/New_Systems/rnas/4P20

>  <Rbt.Executable>
rbdock ($Id: //depot/dev/client3/rdock/2013.1/src/exe/rbdock.cxx#4 $)

>  <Rbt.Library>
libRbt.so (2013.1, Build901 2013/11/27)

>  <Rbt.Parameter_File>
/export/apps/rDock/src/rDock_2013.1_src/data/scripts/dock_solv.prm

>  <Rbt.Receptor>
prm/pocket_docking_2.prm

>  <SCORE>
-9.86579

>  <SCORE.INTER>
-9.28626

>  <SCORE.INTER.CONST>
1

>  <SCORE.INTER.POLAR>
0

>  <SCORE.INTER.ROT>
10

>  <SCORE.INTER.SOLV>
16.8528

>  <SCORE.INTER.VDW>
-22.0751

>  <SCORE.INTER.norm>
-0.232157

>  <SCORE.INTRA>
-2.54443

>  <SCORE.INTRA.DIHEDRAL>
-19.6603

>  <SCORE.INTRA.DIHEDRAL.0>
28.2802

>  <SCORE.INTRA.POLAR>
0

>  <SCORE.INTRA.POLAR.0>
0

>  <SCORE.INTRA.REPUL>
0

>  <SCORE.INTRA.REPUL.0>
0

>  <SCORE.INTRA.SOLV>
2.23621

>  <SCORE.INTRA.SOLV.lig_0>
-101.981

>  <SCORE.INTRA.VDW>
6.16763

>  <SCORE.INTRA.VDW.0>
-5.72964

>  <SCORE.INTRA.norm>
-0.0636109

>  <SCORE.RESTR>
1.96491

>  <SCORE.RESTR.CAVITY>
1.96491

>  <SCORE.RESTR.norm>
0.0491226

>  <SCORE.SYSTEM>
0

>  <SCORE.SYSTEM.CONST>
0

>  <SCORE.SYSTEM.DIHEDRAL>
0

>  <SCORE.SYSTEM.SOLV>
0

>  <SCORE.SYSTEM.norm>
0

>  <SCORE.heavy>
40

>  <SCORE.norm>
-0.246645

>  <RMSD>
4.903

$$$$
ligand
 OpenBabel11021811513D
libRbt.so/2013.1/901 2013/11/27
 40 42  0  0  0  0  0  0  0  0999 V2000
    4.1764   -6.2065   19.7092 C   0  0  2  0  0  0  0  0  0  0  0  0
    2.8206   -6.6805   19.7193 O   0  0  0  0  0  0  0  0  0  0  0  0
    5.1017   -7.1570   20.5575 C   0  0  1  0  0  0  0  0  0  0  0  0
    4.7245   -7.1244   22.0673 C   0  0  2  0  0  0  0  0  0  0  0  0
    4.8891   -5.6539   22.5662 C   0  0  2  0  0  0  0  0  0  0  0  0
    4.5716   -5.5905   23.9732 O   0  0  0  0  0  0  0  0  0  0  0  0
    3.9114   -4.7233   21.7237 C   0  0  2  0  0  0  0  0  0  0  0  0
    4.2599   -4.8164   20.2608 O   0  0  0  0  0  0  0  0  0  0  0  0
    4.0126   -3.2577   22.1233 C   0  0  0  0  0  0  0  0  0  0  0  0
    2.9142   -2.4444   21.5128 N   0  0  0  0  0  0  0  0  0  0  0  0
    1.0643   -9.4238   16.7664 C   0  0  2  0  0  0  0  0  0  0  0  0
    0.7090  -10.6553   16.1004 N   0  0  0  0  0  0  0  0  0  0  0  0
    2.6395   -9.2869   16.8207 C   0  0  0  0  0  0  0  0  0  0  0  0
    3.0471   -7.9336   17.5579 C   0  0  2  0  0  0  0  0  0  0  0  0
    4.5270   -7.7985   17.5934 N   0  0  0  0  0  0  0  0  0  0  0  0
    2.4309   -7.9333   19.0334 C   0  0  2  0  0  0  0  0  0  0  0  0
    0.8528   -8.0742   18.9260 C   0  0  2  0  0  0  0  0  0  0  0  0
    0.2919   -8.0710   20.2407 O   0  0  0  0  0  0  0  0  0  0  0  0
    0.4636   -9.4167   18.1902 C   0  0  1  0  0  0  0  0  0  0  0  0
   -0.9780   -9.5199   18.0818 O   0  0  0  0  0  0  0  0  0  0  0  0
   -1.7033   -9.4143   16.9038 C   0  0  2  0  0  0  0  0  0  0  0  0
   -3.1625   -8.9782   17.2854 C   0  0  2  0  0  0  0  0  0  0  0  0
   -3.1248   -7.7796   17.9905 O   0  0  0  0  0  0  0  0  0  0  0  0
   -3.9183  -10.1054   18.1099 C   0  0  1  0  0  0  0  0  0  0  0  0
   -5.3092   -9.6747   18.4518 N   0  0  0  0  0  0  0  0  0  0  0  0
   -3.9309  -11.4435   17.2494 C   0  0  2  0  0  0  0  0  0  0  0  0
   -4.6157  -12.4910   17.9475 O   0  0  0  0  0  0  0  0  0  0  0  0
   -2.4363  -11.8383   16.9343 C   0  0  2  0  0  0  0  0  0  0  0  0
   -1.7259  -10.7164   16.1892 O   0  0  0  0  0  0  0  0  0  0  0  0
   -2.3685  -13.0945   16.0991 C   0  0  0  0  0  0  0  0  0  0  0  0
   -1.0413  -13.3677   15.6127 O   0  0  0  0  0  0  0  0  0  0  0  0
    4.9807   -8.5082   20.0248 O   0  0  0  0  0  0  0  0  0  0  0  0
    5.5685   -7.9588   22.7593 O   0  0  0  0  0  0  0  0  0  0  0  0
    0.7516  -10.7090   14.6574 C   0  0  0  0  0  0  0  0  0  0  0  0
    0.6627   -9.6390   13.9849 O   0  0  0  0  0  0  0  0  0  0  0  0
    0.9023  -12.1071   13.9829 C   0  0  2  0  0  0  0  0  0  0  0  0
    2.9197  -14.3136   13.5988 N   0  0  0  0  0  0  0  0  0  0  0  0
    2.0315  -12.0894   12.9068 C   0  0  0  0  0  0  0  0  0  0  0  0
    2.4596  -13.4946   12.4518 C   0  0  0  0  0  0  0  0  0  0  0  0
   -0.1487  -12.4684   13.3641 O   0  0  0  0  0  0  0  0  0  0  0  0
  1  2  1  1  0  0  0
  1  3  1  0  0  0  0
  1  8  1  0  0  0  0
  3  4  1  0  0  0  0
  3 32  1  6  0  0  0
  4  5  1  0  0  0  0
  4 33  1  1  0  0  0
  5  6  1  1  0  0  0
  5  7  1  0  0  0  0
  7  8  1  0  0  0  0
  7  9  1  1  0  0  0
  9 10  1  0  0  0  0
 11 12  1  1  0  0  0
 11 13  1  0  0  0  0
 11 19  1  0  0  0  0
 12 34  1  0  0  0  0
 13 14  1  0  0  0  0
 14 15  1  1  0  0  0
 14 16  1  0  0  0  0
 16  2  1  6  0  0  0
 16 17  1  0  0  0  0
 17 18  1  1  0  0  0
 17 19  1  0  0  0  0
 19 20  1  6  0  0  0
 21 20  1  1  0  0  0
 21 22  1  0  0  0  0
 21 29  1  0  0  0  0
 22 23  1  1  0  0  0
 22 24  1  0  0  0  0
 24 25  1  6  0  0  0
 24 26  1  0  0  0  0
 26 27  1  1  0  0  0
 26 28  1  0  0  0  0
 28 29  1  0  0  0  0
 28 30  1  6  0  0  0
 30 31  1  0  0  0  0
 34 35  2  0  0  0  0
 36 34  1  6  0  0  0
 36 38  1  0  0  0  0
 36 40  1  0  0  0  0
 37 39  1  0  0  0  0
 38 39  1  0  0  0  0
M  END
>  <CHROM.1>
-68.59110257,-47.72983429,-169.19078357,-79.22491768,-9.93650113,-156.31260524
170.69127326,-131.09457437,166.08237695,-57.62379704,1.07447797,-9.05587372
18.01703283,-1.00008810,-0.12594926,-2.28359845

>  <Name>
ligand

>  <RI>
0

>  <Rbt.Current_Directory>
/home/itssahil/PROJECTS/Mol_Feturizer/New_Systems/rnas/4P20

>  <Rbt.Executable>
rbdock ($Id: //depot/dev/client3/rdock/2013.1/src/exe/rbdock.cxx#4 $)

>  <Rbt.Library>
libRbt.so (2013.1, Build901 2013/11/27)

>  <Rbt.Parameter_File>
/export/apps/rDock/src/rDock_2013.1_src/data/scripts/dock_solv.prm

>  <Rbt.Receptor>
prm/pocket_docking_2.prm

>  <SCORE>
-6.44306

>  <SCORE.INTER>
-8.09935

>  <SCORE.INTER.CONST>
1

>  <SCORE.INTER.POLAR>
0

>  <SCORE.INTER.ROT>
10

>  <SCORE.INTER.SOLV>
16.7612

>  <SCORE.INTER.VDW>
-21.2533

>  <SCORE.INTER.norm>
-0.202484

>  <SCORE.INTRA>
-0.196011

>  <SCORE.INTRA.DIHEDRAL>
-14.0373

>  <SCORE.INTRA.DIHEDRAL.0>
28.2802

>  <SCORE.INTRA.POLAR>
0

>  <SCORE.INTRA.POLAR.0>
0

>  <SCORE.INTRA.REPUL>
0

>  <SCORE.INTRA.REPUL.0>
0

>  <SCORE.INTRA.SOLV>
4.44038

>  <SCORE.INTRA.SOLV.lig_0>
-101.981

>  <SCORE.INTRA.VDW>
4.60245

>  <SCORE.INTRA.VDW.0>
-5.72964

>  <SCORE.INTRA.norm>
-0.00490028

>  <SCORE.RESTR>
1.8523

>  <SCORE.RESTR.CAVITY>
1.8523

>  <SCORE.RESTR.norm>
0.0463075

>  <SCORE.SYSTEM>
0

>  <SCORE.SYSTEM.CONST>
0

>  <SCORE.SYSTEM.DIHEDRAL>
0

>  <SCORE.SYSTEM.SOLV>
0

>  <SCORE.SYSTEM.norm>
0

>  <SCORE.heavy>
40

>  <SCORE.norm>
-0.161076

>  <RMSD>
4.974

$$$$
ligand
 OpenBabel11021811513D
libRbt.so/2013.1/901 2013/11/27
 40 42  0  0  0  0  0  0  0  0999 V2000
    4.1046   -6.1195   18.9900 C   0  0  2  0  0  0  0  0  0  0  0  0
    2.7529   -6.6052   18.9886 O   0  0  0  0  0  0  0  0  0  0  0  0
    5.0245   -7.0444   19.8718 C   0  0  1  0  0  0  0  0  0  0  0  0
    4.6232   -6.9846   21.3745 C   0  0  2  0  0  0  0  0  0  0  0  0
    4.7673   -5.5030   21.8459 C   0  0  2  0  0  0  0  0  0  0  0  0
    4.4272   -5.4140   23.2462 O   0  0  0  0  0  0  0  0  0  0  0  0
    3.7952   -4.5983   20.9695 C   0  0  2  0  0  0  0  0  0  0  0  0
    4.1674   -4.7179   19.5144 O   0  0  0  0  0  0  0  0  0  0  0  0
    3.8776   -3.1240   21.3408 C   0  0  0  0  0  0  0  0  0  0  0  0
    3.4128   -2.8836   22.7432 N   0  0  0  0  0  0  0  0  0  0  0  0
    0.9176   -9.4836   16.2181 C   0  0  2  0  0  0  0  0  0  0  0  0
    0.5881  -10.7411   15.5883 N   0  0  0  0  0  0  0  0  0  0  0  0
    2.4765   -9.2340   16.1179 C   0  0  0  0  0  0  0  0  0  0  0  0
    2.8562   -7.8509   16.8136 C   0  0  2  0  0  0  0  0  0  0  0  0
    4.3189   -7.6101   16.7041 N   0  0  0  0  0  0  0  0  0  0  0  0
    2.3889   -7.8864   18.3424 C   0  0  2  0  0  0  0  0  0  0  0  0
    0.8220   -8.1405   18.3899 C   0  0  2  0  0  0  0  0  0  0  0  0
    0.3937   -8.1702   19.7533 O   0  0  0  0  0  0  0  0  0  0  0  0
    0.4601   -9.5116   17.6939 C   0  0  1  0  0  0  0  0  0  0  0  0
   -0.9741   -9.7183   17.7271 O   0  0  0  0  0  0  0  0  0  0  0  0
   -1.7430   -9.8216   18.8772 C   0  0  2  0  0  0  0  0  0  0  0  0
   -2.8728  -10.8752   18.5966 C   0  0  2  0  0  0  0  0  0  0  0  0
   -2.3015  -12.0905   18.2336 O   0  0  0  0  0  0  0  0  0  0  0  0
   -3.8916  -10.3668   17.4898 C   0  0  1  0  0  0  0  0  0  0  0  0
   -4.9654  -11.3792   17.2473 N   0  0  0  0  0  0  0  0  0  0  0  0
   -4.5113   -8.9811   17.9662 C   0  0  2  0  0  0  0  0  0  0  0  0
   -5.4501   -8.4857   17.0036 O   0  0  0  0  0  0  0  0  0  0  0  0
   -3.3254   -7.9659   18.1943 C   0  0  2  0  0  0  0  0  0  0  0  0
   -2.3407   -8.5062   19.2224 O   0  0  0  0  0  0  0  0  0  0  0  0
   -3.8373   -6.6271   18.6696 C   0  0  0  0  0  0  0  0  0  0  0  0
   -4.8977   -6.1121   17.8431 O   0  0  0  0  0  0  0  0  0  0  0  0
    4.9234   -8.4071   19.3649 O   0  0  0  0  0  0  0  0  0  0  0  0
    5.4634   -7.7974   22.0965 O   0  0  0  0  0  0  0  0  0  0  0  0
   -0.1307  -10.7300   14.3352 C   0  0  0  0  0  0  0  0  0  0  0  0
   -0.8307   -9.7222   14.0201 O   0  0  0  0  0  0  0  0  0  0  0  0
   -0.0133  -11.9839   13.4151 C   0  0  2  0  0  0  0  0  0  0  0  0
   -0.2140  -14.7430   16.1499 N   0  0  0  0  0  0  0  0  0  0  0  0
    0.3721  -13.2493   14.2419 C   0  0  0  0  0  0  0  0  0  0  0  0
   -0.6991  -13.6540   15.2685 C   0  0  0  0  0  0  0  0  0  0  0  0
    0.8987  -11.8634   12.5367 O   0  0  0  0  0  0  0  0  0  0  0  0
  1  2  1  1  0  0  0
  1  3  1  0  0  0  0
  1  8  1  0  0  0  0
  3  4  1  0  0  0  0
  3 32  1  6  0  0  0
  4  5  1  0  0  0  0
  4 33  1  1  0  0  0
  5  6  1  1  0  0  0
  5  7  1  0  0  0  0
  7  8  1  0  0  0  0
  7  9  1  1  0  0  0
  9 10  1  0  0  0  0
 11 12  1  1  0  0  0
 11 13  1  0  0  0  0
 11 19  1  0  0  0  0
 12 34  1  0  0  0  0
 13 14  1  0  0  0  0
 14 15  1  1  0  0  0
 14 16  1  0  0  0  0
 16  2  1  6  0  0  0
 16 17  1  0  0  0  0
 17 18  1  1  0  0  0
 17 19  1  0  0  0  0
 19 20  1  6  0  0  0
 21 20  1  6  0  0  0
 21 22  1  0  0  0  0
 21 29  1  0  0  0  0
 22 23  1  6  0  0  0
 22 24  1  0  0  0  0
 24 25  1  1  0  0  0
 24 26  1  0  0  0  0
 26 27  1  6  0  0  0
 26 28  1  0  0  0  0
 28 29  1  0  0  0  0
 28 30  1  1  0  0  0
 30 31  1  0  0  0  0
 34 35  2  0  0  0  0
 36 34  1  1  0  0  0
 36 38  1  0  0  0  0
 36 40  1  0  0  0  0
 37 39  1  0  0  0  0
 38 39  1  0  0  0  0
M  END
>  <CHROM.1>
-67.52429337,-55.76553513,-64.06549909,-109.27019732,178.90759277,-144.03428264
-50.60815046,23.52916787,63.98795755,-172.36124864,0.61096755,-8.60304192
18.09398451,-0.85326891,-0.02203001,-2.38991942

>  <Name>
ligand

>  <RI>
0

>  <Rbt.Current_Directory>
/home/itssahil/PROJECTS/Mol_Feturizer/New_Systems/rnas/4P20

>  <Rbt.Executable>
rbdock ($Id: //depot/dev/client3/rdock/2013.1/src/exe/rbdock.cxx#4 $)

>  <Rbt.Library>
libRbt.so (2013.1, Build901 2013/11/27)

>  <Rbt.Parameter_File>
/export/apps/rDock/src/rDock_2013.1_src/data/scripts/dock_solv.prm

>  <Rbt.Receptor>
prm/pocket_docking_4.prm

>  <SCORE>
-16.1824

>  <SCORE.INTER>
-10.3768

>  <SCORE.INTER.CONST>
1

>  <SCORE.INTER.POLAR>
0

>  <SCORE.INTER.ROT>
10

>  <SCORE.INTER.SOLV>
20.3008

>  <SCORE.INTER.VDW>
-23.9515

>  <SCORE.INTER.norm>
-0.25942

>  <SCORE.INTRA>
-5.80785

>  <SCORE.INTRA.DIHEDRAL>
-19.5371

>  <SCORE.INTRA.DIHEDRAL.0>
28.2802

>  <SCORE.INTRA.POLAR>
0

>  <SCORE.INTRA.POLAR.0>
0

>  <SCORE.INTRA.REPUL>
0

>  <SCORE.INTRA.REPUL.0>
0

>  <SCORE.INTRA.SOLV>
2.81405

>  <SCORE.INTRA.SOLV.lig_0>
-101.981

>  <SCORE.INTRA.VDW>
2.55367

>  <SCORE.INTRA.VDW.0>
-5.72964

>  <SCORE.INTRA.norm>
-0.145196

>  <SCORE.RESTR>
0.00230898

>  <SCORE.RESTR.CAVITY>
0.00230898

>  <SCORE.RESTR.norm>
5.77245e-05

>  <SCORE.SYSTEM>
0

>  <SCORE.SYSTEM.CONST>
0

>  <SCORE.SYSTEM.DIHEDRAL>
0

>  <SCORE.SYSTEM.SOLV>
0

>  <SCORE.SYSTEM.norm>
0

>  <SCORE.heavy>
40

>  <SCORE.norm>
-0.404559

>  <RMSD>
4.999

$$$$
ligand
 OpenBabel11021811513D
libRbt.so/2013.1/901 2013/11/27
 40 42  0  0  0  0  0  0  0  0999 V2000
    4.3545   -6.2521   19.5566 C   0  0  2  0  0  0  0  0  0  0  0  0
    2.9487   -6.5141   19.4219 O   0  0  0  0  0  0  0  0  0  0  0  0
    5.0582   -7.4069   20.3630 C   0  0  1  0  0  0  0  0  0  0  0  0
    4.5628   -7.4589   21.8378 C   0  0  2  0  0  0  0  0  0  0  0  0
    4.8942   -6.0835   22.4987 C   0  0  2  0  0  0  0  0  0  0  0  0
    4.4709   -6.1046   23.8788 O   0  0  0  0  0  0  0  0  0  0  0  0
    4.1355   -4.9409   21.6922 C   0  0  2  0  0  0  0  0  0  0  0  0
    4.5898   -4.9485   20.2556 O   0  0  0  0  0  0  0  0  0  0  0  0
    4.4121   -3.5513   22.2497 C   0  0  0  0  0  0  0  0  0  0  0  0
    3.8973   -3.4076   23.6479 N   0  0  0  0  0  0  0  0  0  0  0  0
    1.0604   -8.7383   16.1329 C   0  0  2  0  0  0  0  0  0  0  0  0
    0.5907   -9.8504   15.3398 N   0  0  0  0  0  0  0  0  0  0  0  0
    2.6308   -8.8328   16.2993 C   0  0  0  0  0  0  0  0  0  0  0  0
    3.1635   -7.6137   17.1773 C   0  0  2  0  0  0  0  0  0  0  0  0
    4.6410   -7.6949   17.3188 N   0  0  0  0  0  0  0  0  0  0  0  0
    2.4437   -7.6406   18.6048 C   0  0  2  0  0  0  0  0  0  0  0  0
    0.8738   -7.5454   18.3851 C   0  0  2  0  0  0  0  0  0  0  0  0
    0.2210   -7.5650   19.6566 O   0  0  0  0  0  0  0  0  0  0  0  0
    0.3607   -8.7567   17.5107 C   0  0  1  0  0  0  0  0  0  0  0  0
   -1.0691   -8.6439   17.3020 O   0  0  0  0  0  0  0  0  0  0  0  0
   -2.0391   -8.8307   18.2763 C   0  0  2  0  0  0  0  0  0  0  0  0
   -2.1608  -10.3752   18.5309 C   0  0  2  0  0  0  0  0  0  0  0  0
   -0.9249  -10.8867   18.9128 O   0  0  0  0  0  0  0  0  0  0  0  0
   -2.7305  -11.1393   17.2609 C   0  0  1  0  0  0  0  0  0  0  0  0
   -2.8500  -12.6058   17.5293 N   0  0  0  0  0  0  0  0  0  0  0  0
   -4.1423  -10.5122   16.8803 C   0  0  2  0  0  0  0  0  0  0  0  0
   -4.7055  -11.1789   15.7438 O   0  0  0  0  0  0  0  0  0  0  0  0
   -3.9371   -8.9723   16.6055 C   0  0  2  0  0  0  0  0  0  0  0  0
   -3.3424   -8.2797   17.8242 O   0  0  0  0  0  0  0  0  0  0  0  0
   -5.2442   -8.3017   16.2560 C   0  0  0  0  0  0  0  0  0  0  0  0
   -5.8479   -8.8459   15.0677 O   0  0  0  0  0  0  0  0  0  0  0  0
    4.7899   -8.6684   19.6842 O   0  0  0  0  0  0  0  0  0  0  0  0
    5.2164   -8.4726   22.4957 O   0  0  0  0  0  0  0  0  0  0  0  0
    1.2253  -10.1235   14.0711 C   0  0  0  0  0  0  0  0  0  0  0  0
    1.8447   -9.1992   13.4652 O   0  0  0  0  0  0  0  0  0  0  0  0
    1.1117  -11.5680   13.4939 C   0  0  2  0  0  0  0  0  0  0  0  0
    3.0352  -13.8898   12.6789 N   0  0  0  0  0  0  0  0  0  0  0  0
    1.9353  -11.7096   12.1767 C   0  0  0  0  0  0  0  0  0  0  0  0
    2.1395  -13.1705   11.7417 C   0  0  0  0  0  0  0  0  0  0  0  0
   -0.0817  -11.8782   13.1814 O   0  0  0  0  0  0  0  0  0  0  0  0
  1  2  1  1  0  0  0
  1  3  1  0  0  0  0
  1  8  1  0  0  0  0
  3  4  1  0  0  0  0
  3 32  1  6  0  0  0
  4  5  1  0  0  0  0
  4 33  1  1  0  0  0
  5  6  1  1  0  0  0
  5  7  1  0  0  0  0
  7  8  1  0  0  0  0
  7  9  1  1  0  0  0
  9 10  1  0  0  0  0
 11 12  1  6  0  0  0
 11 13  1  0  0  0  0
 11 19  1  0  0  0  0
 12 34  1  0  0  0  0
 13 14  1  0  0  0  0
 14 15  1  1  0  0  0
 14 16  1  0  0  0  0
 16  2  1  1  0  0  0
 16 17  1  0  0  0  0
 17 18  1  1  0  0  0
 17 19  1  0  0  0  0
 19 20  1  6  0  0  0
 21 20  1  6  0  0  0
 21 22  1  0  0  0  0
 21 29  1  0  0  0  0
 22 23  1  6  0  0  0
 22 24  1  0  0  0  0
 24 25  1  1  0  0  0
 24 26  1  0  0  0  0
 26 27  1  6  0  0  0
 26 28  1  0  0  0  0
 28 29  1  0  0  0  0
 28 30  1  1  0  0  0
 30 31  1  0  0  0  0
 34 35  2  0  0  0  0
 36 34  1  6  0  0  0
 36 38  1  0  0  0  0
 36 40  1  0  0  0  0
 37 39  1  0  0  0  0
 38 39  1  0  0  0  0
M  END
>  <CHROM.1>
-67.31433038,-48.70866936,-63.65570465,-51.12293129,169.46154143,-75.32103326
-60.83672141,-175.97560705,166.29610425,-68.49498529,1.01808727,-8.70157843
17.79009067,-0.92710899,-0.05469061,-2.16681860

>  <Name>
ligand

>  <RI>
0

>  <Rbt.Current_Directory>
/home/itssahil/PROJECTS/Mol_Feturizer/New_Systems/rnas/4P20

>  <Rbt.Executable>
rbdock ($Id: //depot/dev/client3/rdock/2013.1/src/exe/rbdock.cxx#4 $)

>  <Rbt.Library>
libRbt.so (2013.1, Build901 2013/11/27)

>  <Rbt.Parameter_File>
/export/apps/rDock/src/rDock_2013.1_src/data/scripts/dock_solv.prm

>  <Rbt.Receptor>
prm/pocket_docking_6.prm

>  <SCORE>
-18.2708

>  <SCORE.INTER>
-12.9185

>  <SCORE.INTER.CONST>
1

>  <SCORE.INTER.POLAR>
0

>  <SCORE.INTER.ROT>
10

>  <SCORE.INTER.SOLV>
21.2868

>  <SCORE.INTER.VDW>
-25.9746

>  <SCORE.INTER.norm>
-0.322964

>  <SCORE.INTRA>
-5.35227

>  <SCORE.INTRA.DIHEDRAL>
-23.9148

>  <SCORE.INTRA.DIHEDRAL.0>
28.2802

>  <SCORE.INTRA.POLAR>
0

>  <SCORE.INTRA.POLAR.0>
0

>  <SCORE.INTRA.REPUL>
0

>  <SCORE.INTRA.REPUL.0>
0

>  <SCORE.INTRA.SOLV>
3.75449

>  <SCORE.INTRA.SOLV.lig_0>
-101.981

>  <SCORE.INTRA.VDW>
4.72788

>  <SCORE.INTRA.VDW.0>
-5.72964

>  <SCORE.INTRA.norm>
-0.133807

>  <SCORE.RESTR>
0

>  <SCORE.RESTR.CAVITY>
0

>  <SCORE.RESTR.norm>
0

>  <SCORE.SYSTEM>
0

>  <SCORE.SYSTEM.CONST>
0

>  <SCORE.SYSTEM.DIHEDRAL>
0

>  <SCORE.SYSTEM.SOLV>
0

>  <SCORE.SYSTEM.norm>
0

>  <SCORE.heavy>
40

>  <SCORE.norm>
-0.45677

>  <RMSD>
5.180

$$$$
ligand
 OpenBabel11021811513D
libRbt.so/2013.1/901 2013/11/27
 40 42  0  0  0  0  0  0  0  0999 V2000
    4.0535   -5.6769   19.4119 C   0  0  2  0  0  0  0  0  0  0  0  0
    2.6790   -6.0933   19.3970 O   0  0  0  0  0  0  0  0  0  0  0  0
    4.8835   -6.5431   20.4317 C   0  0  1  0  0  0  0  0  0  0  0  0
    4.4217   -6.2992   21.8981 C   0  0  2  0  0  0  0  0  0  0  0  0
    4.6248   -4.7836   22.2139 C   0  0  2  0  0  0  0  0  0  0  0  0
    4.2300   -4.5249   23.5784 O   0  0  0  0  0  0  0  0  0  0  0  0
    3.7414   -3.9343   21.1991 C   0  0  2  0  0  0  0  0  0  0  0  0
    4.1690   -4.2309   19.7852 O   0  0  0  0  0  0  0  0  0  0  0  0
    3.8868   -2.4339   21.4134 C   0  0  0  0  0  0  0  0  0  0  0  0
    3.2856   -2.0038   22.7150 N   0  0  0  0  0  0  0  0  0  0  0  0
    0.8781   -8.9990   16.6323 C   0  0  2  0  0  0  0  0  0  0  0  0
    0.4986  -10.2664   16.0525 N   0  0  0  0  0  0  0  0  0  0  0  0
    2.4556   -8.8942   16.6890 C   0  0  0  0  0  0  0  0  0  0  0  0
    2.8899   -7.5015   17.3316 C   0  0  2  0  0  0  0  0  0  0  0  0
    4.3722   -7.3977   17.3690 N   0  0  0  0  0  0  0  0  0  0  0  0
    2.2647   -7.3825   18.7986 C   0  0  2  0  0  0  0  0  0  0  0  0
    0.6845   -7.4950   18.6891 C   0  0  2  0  0  0  0  0  0  0  0  0
    0.1157   -7.3858   19.9959 O   0  0  0  0  0  0  0  0  0  0  0  0
    0.2690   -8.8772   18.0473 C   0  0  1  0  0  0  0  0  0  0  0  0
   -1.1739   -8.9554   17.9352 O   0  0  0  0  0  0  0  0  0  0  0  0
   -1.8957  -10.1077   17.6594 C   0  0  2  0  0  0  0  0  0  0  0  0
   -3.4019   -9.6942   17.4997 C   0  0  2  0  0  0  0  0  0  0  0  0
   -3.5230   -8.7427   16.4922 O   0  0  0  0  0  0  0  0  0  0  0  0
   -4.0165   -9.1656   18.8651 C   0  0  1  0  0  0  0  0  0  0  0  0
   -5.4538   -8.7895   18.6934 N   0  0  0  0  0  0  0  0  0  0  0  0
   -3.8514  -10.2983   19.9700 C   0  0  2  0  0  0  0  0  0  0  0  0
   -4.4044   -9.8727   21.2216 O   0  0  0  0  0  0  0  0  0  0  0  0
   -2.3160  -10.6365   20.1003 C   0  0  2  0  0  0  0  0  0  0  0  0
   -1.7465  -11.0907   18.7631 O   0  0  0  0  0  0  0  0  0  0  0  0
   -2.0817  -11.7237   21.1218 C   0  0  0  0  0  0  0  0  0  0  0  0
   -0.6846  -12.0116   21.3169 O   0  0  0  0  0  0  0  0  0  0  0  0
    4.7313   -7.9467   20.0699 O   0  0  0  0  0  0  0  0  0  0  0  0
    5.1851   -7.0678   22.7432 O   0  0  0  0  0  0  0  0  0  0  0  0
    0.2228  -10.3343   14.6361 C   0  0  0  0  0  0  0  0  0  0  0  0
   -0.1126   -9.2857   14.0092 O   0  0  0  0  0  0  0  0  0  0  0  0
    0.3478  -11.7211   13.9336 C   0  0  2  0  0  0  0  0  0  0  0  0
   -0.1018  -15.3449   15.2864 N   0  0  0  0  0  0  0  0  0  0  0  0
    0.0440  -12.8818   14.9306 C   0  0  0  0  0  0  0  0  0  0  0  0
    0.1400  -14.2757   14.2882 C   0  0  0  0  0  0  0  0  0  0  0  0
    1.5222  -11.9466   13.5000 O   0  0  0  0  0  0  0  0  0  0  0  0
  1  2  1  1  0  0  0
  1  3  1  0  0  0  0
  1  8  1  0  0  0  0
  3  4  1  0  0  0  0
  3 32  1  6  0  0  0
  4  5  1  0  0  0  0
  4 33  1  1  0  0  0
  5  6  1  1  0  0  0
  5  7  1  0  0  0  0
  7  8  1  0  0  0  0
  7  9  1  1  0  0  0
  9 10  1  0  0  0  0
 11 12  1  1  0  0  0
 11 13  1  0  0  0  0
 11 19  1  0  0  0  0
 12 34  1  0  0  0  0
 13 14  1  0  0  0  0
 14 15  1  1  0  0  0
 14 16  1  0  0  0  0
 16  2  1  6  0  0  0
 16 17  1  0  0  0  0
 17 18  1  1  0  0  0
 17 19  1  0  0  0  0
 19 20  1  6  0  0  0
 21 20  1  1  0  0  0
 21 22  1  0  0  0  0
 21 29  1  0  0  0  0
 22 23  1  6  0  0  0
 22 24  1  0  0  0  0
 24 25  1  6  0  0  0
 24 26  1  0  0  0  0
 26 27  1  1  0  0  0
 26 28  1  0  0  0  0
 28 29  1  0  0  0  0
 28 30  1  1  0  0  0
 30 31  1  0  0  0  0
 34 35  2  0  0  0  0
 36 34  1  1  0  0  0
 36 38  1  0  0  0  0
 36 40  1  0  0  0  0
 37 39  1  0  0  0  0
 38 39  1  0  0  0  0
M  END
>  <CHROM.1>
-71.40133741,-50.29637268,-68.21277830,-94.62460681,73.03040307,-174.73095300
-177.04351455,28.92706524,179.47735710,177.67243754,0.79863145,-8.56553852
18.64636485,-0.91109851,-0.38582665,-2.22772767

>  <Name>
ligand

>  <RI>
0

>  <Rbt.Current_Directory>
/home/itssahil/PROJECTS/Mol_Feturizer/New_Systems/rnas/4P20

>  <Rbt.Executable>
rbdock ($Id: //depot/dev/client3/rdock/2013.1/src/exe/rbdock.cxx#4 $)

>  <Rbt.Library>
libRbt.so (2013.1, Build901 2013/11/27)

>  <Rbt.Parameter_File>
/export/apps/rDock/src/rDock_2013.1_src/data/scripts/dock_solv.prm

>  <Rbt.Receptor>
prm/pocket_docking_5.prm

>  <SCORE>
-15.9646

>  <SCORE.INTER>
-7.70811

>  <SCORE.INTER.CONST>
1

>  <SCORE.INTER.POLAR>
0

>  <SCORE.INTER.ROT>
10

>  <SCORE.INTER.SOLV>
20.3932

>  <SCORE.INTER.VDW>
-22.2032

>  <SCORE.INTER.norm>
-0.192703

>  <SCORE.INTRA>
-8.25652

>  <SCORE.INTRA.DIHEDRAL>
-23.5384

>  <SCORE.INTRA.DIHEDRAL.0>
28.2802

>  <SCORE.INTRA.POLAR>
0

>  <SCORE.INTRA.POLAR.0>
0

>  <SCORE.INTRA.REPUL>
0

>  <SCORE.INTRA.REPUL.0>
0

>  <SCORE.INTRA.SOLV>
1.56909

>  <SCORE.INTRA.SOLV.lig_0>
-101.981

>  <SCORE.INTRA.VDW>
2.72815

>  <SCORE.INTRA.VDW.0>
-5.72964

>  <SCORE.INTRA.norm>
-0.206413

>  <SCORE.RESTR>
0

>  <SCORE.RESTR.CAVITY>
0

>  <SCORE.RESTR.norm>
0

>  <SCORE.SYSTEM>
0

>  <SCORE.SYSTEM.CONST>
0

>  <SCORE.SYSTEM.DIHEDRAL>
0

>  <SCORE.SYSTEM.SOLV>
0

>  <SCORE.SYSTEM.norm>
0

>  <SCORE.heavy>
40

>  <SCORE.norm>
-0.399116

>  <RMSD>
5.232

$$$$
ligand
 OpenBabel11021811513D
libRbt.so/2013.1/901 2013/11/27
 40 42  0  0  0  0  0  0  0  0999 V2000
    1.7654   -6.4686   20.1847 C   0  0  2  0  0  0  0  0  0  0  0  0
    2.1217   -6.7685   18.8260 O   0  0  0  0  0  0  0  0  0  0  0  0
    2.4821   -5.1524   20.6675 C   0  0  1  0  0  0  0  0  0  0  0  0
    4.0265   -5.3343   20.7363 C   0  0  2  0  0  0  0  0  0  0  0  0
    4.3240   -6.4903   21.7430 C   0  0  2  0  0  0  0  0  0  0  0  0
    5.7524   -6.6702   21.8521 O   0  0  0  0  0  0  0  0  0  0  0  0
    3.6265   -7.8165   21.2082 C   0  0  2  0  0  0  0  0  0  0  0  0
    2.1401   -7.5966   21.0960 O   0  0  0  0  0  0  0  0  0  0  0  0
    3.8422   -9.0041   22.1362 C   0  0  0  0  0  0  0  0  0  0  0  0
    5.2411   -9.5282   22.0422 N   0  0  0  0  0  0  0  0  0  0  0  0
    0.1890   -9.2234   15.7328 C   0  0  2  0  0  0  0  0  0  0  0  0
   -0.3302  -10.3854   15.0496 N   0  0  0  0  0  0  0  0  0  0  0  0
    1.7436   -9.3984   15.9679 C   0  0  0  0  0  0  0  0  0  0  0  0
    2.3303   -8.1248   16.7259 C   0  0  2  0  0  0  0  0  0  0  0  0
    3.7939   -8.2835   16.9314 N   0  0  0  0  0  0  0  0  0  0  0  0
    1.5670   -7.9452   18.1194 C   0  0  2  0  0  0  0  0  0  0  0  0
    0.0145   -7.7755   17.8312 C   0  0  2  0  0  0  0  0  0  0  0  0
   -0.6766   -7.6104   19.0714 O   0  0  0  0  0  0  0  0  0  0  0  0
   -0.5522   -9.0423   17.0766 C   0  0  1  0  0  0  0  0  0  0  0  0
   -1.9641   -8.8627   16.8027 O   0  0  0  0  0  0  0  0  0  0  0  0
   -2.9479   -8.6639   17.7605 C   0  0  2  0  0  0  0  0  0  0  0  0
   -3.3855  -10.0765   18.2879 C   0  0  2  0  0  0  0  0  0  0  0  0
   -2.2806  -10.7495   18.7992 O   0  0  0  0  0  0  0  0  0  0  0  0
   -4.1058  -10.9303   17.1593 C   0  0  1  0  0  0  0  0  0  0  0  0
   -4.5251  -12.2658   17.6861 N   0  0  0  0  0  0  0  0  0  0  0  0
   -5.3588  -10.1101   16.6222 C   0  0  2  0  0  0  0  0  0  0  0  0
   -6.0522  -10.8469   15.6073 O   0  0  0  0  0  0  0  0  0  0  0  0
   -4.8406   -8.7227   16.0787 C   0  0  2  0  0  0  0  0  0  0  0  0
   -4.1108   -7.9522   17.1706 O   0  0  0  0  0  0  0  0  0  0  0  0
   -5.9821   -7.8763   15.5678 C   0  0  0  0  0  0  0  0  0  0  0  0
   -6.9093   -7.5083   16.6059 O   0  0  0  0  0  0  0  0  0  0  0  0
    2.1300   -4.0765   19.7495 O   0  0  0  0  0  0  0  0  0  0  0  0
    4.5976   -4.1638   21.1737 O   0  0  0  0  0  0  0  0  0  0  0  0
   -0.4313  -11.6341   15.7690 C   0  0  0  0  0  0  0  0  0  0  0  0
    0.2981  -11.8359   16.7850 O   0  0  0  0  0  0  0  0  0  0  0  0
   -1.4479  -12.6962   15.2486 C   0  0  2  0  0  0  0  0  0  0  0  0
   -0.0261  -15.3863   15.6859 N   0  0  0  0  0  0  0  0  0  0  0  0
   -0.8053  -13.5898   14.1431 C   0  0  0  0  0  0  0  0  0  0  0  0
    0.3911  -14.4141   14.6472 C   0  0  0  0  0  0  0  0  0  0  0  0
   -2.4711  -12.1704   14.7058 O   0  0  0  0  0  0  0  0  0  0  0  0
  1  2  1  6  0  0  0
  1  3  1  0  0  0  0
  1  8  1  0  0  0  0
  3  4  1  0  0  0  0
  3 32  1  6  0  0  0
  4  5  1  0  0  0  0
  4 33  1  1  0  0  0
  5  6  1  6  0  0  0
  5  7  1  0  0  0  0
  7  8  1  0  0  0  0
  7  9  1  1  0  0  0
  9 10  1  0  0  0  0
 11 12  1  1  0  0  0
 11 13  1  0  0  0  0
 11 19  1  0  0  0  0
 12 34  1  0  0  0  0
 13 14  1  0  0  0  0
 14 15  1  1  0  0  0
 14 16  1  0  0  0  0
 16  2  1  6  0  0  0
 16 17  1  0  0  0  0
 17 18  1  1  0  0  0
 17 19  1  0  0  0  0
 19 20  1  6  0  0  0
 21 20  1  6  0  0  0
 21 22  1  0  0  0  0
 21 29  1  0  0  0  0
 22 23  1  6  0  0  0
 22 24  1  0  0  0  0
 24 25  1  1  0  0  0
 24 26  1  0  0  0  0
 26 27  1  6  0  0  0
 26 28  1  0  0  0  0
 28 29  1  0  0  0  0
 28 30  1  1  0  0  0
 30 31  1  0  0  0  0
 34 35  2  0  0  0  0
 36 34  1  6  0  0  0
 36 38  1  0  0  0  0
 36 40  1  0  0  0  0
 37 39  1  0  0  0  0
 38 39  1  0  0  0  0
M  END
>  <CHROM.1>
-179.00095308,-171.10277541,-73.95167136,71.37849196,-179.66474520,-84.30844874
64.17690071,86.23597063,62.73313026,63.65448351,-0.18871459,-9.04937961,17.89506282
0.68024854,-0.26901031,0.51146839

>  <Name>
ligand

>  <RI>
0

>  <Rbt.Current_Directory>
/home/itssahil/PROJECTS/Mol_Feturizer/New_Systems/rnas/4P20

>  <Rbt.Executable>
rbdock ($Id: //depot/dev/client3/rdock/2013.1/src/exe/rbdock.cxx#4 $)

>  <Rbt.Library>
libRbt.so (2013.1, Build901 2013/11/27)

>  <Rbt.Parameter_File>
/export/apps/rDock/src/rDock_2013.1_src/data/scripts/dock_solv.prm

>  <Rbt.Receptor>
prm/pocket_docking_4.prm

>  <SCORE>
-16.5518

>  <SCORE.INTER>
-7.45751

>  <SCORE.INTER.CONST>
1

>  <SCORE.INTER.POLAR>
0

>  <SCORE.INTER.ROT>
10

>  <SCORE.INTER.SOLV>
22.0738

>  <SCORE.INTER.VDW>
-22.5963

>  <SCORE.INTER.norm>
-0.186438

>  <SCORE.INTRA>
-9.11156

>  <SCORE.INTRA.DIHEDRAL>
-22.9422

>  <SCORE.INTRA.DIHEDRAL.0>
28.2802

>  <SCORE.INTRA.POLAR>
0

>  <SCORE.INTRA.POLAR.0>
0

>  <SCORE.INTRA.REPUL>
0

>  <SCORE.INTRA.REPUL.0>
0

>  <SCORE.INTRA.SOLV>
3.30322

>  <SCORE.INTRA.SOLV.lig_0>
-101.981

>  <SCORE.INTRA.VDW>
0.70791

>  <SCORE.INTRA.VDW.0>
-5.72964

>  <SCORE.INTRA.norm>
-0.227789

>  <SCORE.RESTR>
0.0172263

>  <SCORE.RESTR.CAVITY>
0.0172263

>  <SCORE.RESTR.norm>
0.000430658

>  <SCORE.SYSTEM>
0

>  <SCORE.SYSTEM.CONST>
0

>  <SCORE.SYSTEM.DIHEDRAL>
0

>  <SCORE.SYSTEM.SOLV>
0

>  <SCORE.SYSTEM.norm>
0

>  <SCORE.heavy>
40

>  <SCORE.norm>
-0.413796

>  <RMSD>
5.269

$$$$
ligand
 OpenBabel11021811513D
libRbt.so/2013.1/901 2013/11/27
 40 42  0  0  0  0  0  0  0  0999 V2000
    4.7270   -7.4450   19.0081 C   0  0  2  0  0  0  0  0  0  0  0  0
    3.3719   -7.8767   18.8072 O   0  0  0  0  0  0  0  0  0  0  0  0
    5.4637   -8.3902   20.0294 C   0  0  1  0  0  0  0  0  0  0  0  0
    4.8429   -8.2886   21.4532 C   0  0  2  0  0  0  0  0  0  0  0  0
    4.9760   -6.8059   21.9245 C   0  0  2  0  0  0  0  0  0  0  0  0
    4.4323   -6.6794   23.2560 O   0  0  0  0  0  0  0  0  0  0  0  0
    4.1860   -5.8788   20.9008 C   0  0  2  0  0  0  0  0  0  0  0  0
    4.7684   -6.0381   19.5204 O   0  0  0  0  0  0  0  0  0  0  0  0
    4.2729   -4.4027   21.2639 C   0  0  0  0  0  0  0  0  0  0  0  0
    3.3440   -3.5761   20.4306 N   0  0  0  0  0  0  0  0  0  0  0  0
    1.9292  -10.8909   15.9501 C   0  0  2  0  0  0  0  0  0  0  0  0
    1.6468  -12.1806   15.3641 N   0  0  0  0  0  0  0  0  0  0  0  0
    3.4906  -10.7299   16.1477 C   0  0  0  0  0  0  0  0  0  0  0  0
    3.8176   -9.3121   16.7986 C   0  0  2  0  0  0  0  0  0  0  0  0
    5.2860   -9.1558   16.9684 N   0  0  0  0  0  0  0  0  0  0  0  0
    3.0573   -9.1897   18.2000 C   0  0  2  0  0  0  0  0  0  0  0  0
    1.4983   -9.3593   17.9497 C   0  0  2  0  0  0  0  0  0  0  0  0
    0.8090   -9.2477   19.1970 O   0  0  0  0  0  0  0  0  0  0  0  0
    1.1895  -10.7662   17.3011 C   0  0  1  0  0  0  0  0  0  0  0  0
   -0.2337  -10.8967   17.0600 O   0  0  0  0  0  0  0  0  0  0  0  0
   -0.8721  -12.0518   16.6323 C   0  0  2  0  0  0  0  0  0  0  0  0
   -2.1881  -11.6180   15.8941 C   0  0  2  0  0  0  0  0  0  0  0  0
   -1.8756  -10.7670   14.8390 O   0  0  0  0  0  0  0  0  0  0  0  0
   -3.2266  -10.9428   16.8876 C   0  0  1  0  0  0  0  0  0  0  0  0
   -4.4765  -10.5490   16.1669 N   0  0  0  0  0  0  0  0  0  0  0  0
   -3.5446  -11.9656   18.0640 C   0  0  2  0  0  0  0  0  0  0  0  0
   -4.4904  -11.4056   18.9834 O   0  0  0  0  0  0  0  0  0  0  0  0
   -2.1861  -12.3281   18.7796 C   0  0  2  0  0  0  0  0  0  0  0  0
   -1.1955  -12.9254   17.7894 O   0  0  0  0  0  0  0  0  0  0  0  0
   -2.4068  -13.3157   19.9005 C   0  0  0  0  0  0  0  0  0  0  0  0
   -2.9734  -14.5578   19.4437 O   0  0  0  0  0  0  0  0  0  0  0  0
    5.3835   -9.7564   19.5281 O   0  0  0  0  0  0  0  0  0  0  0  0
    5.5297   -9.1214   22.3031 O   0  0  0  0  0  0  0  0  0  0  0  0
    1.2670  -12.2496   13.9720 C   0  0  0  0  0  0  0  0  0  0  0  0
    0.7684  -11.2325   13.4045 O   0  0  0  0  0  0  0  0  0  0  0  0
    1.4877  -13.5986   13.2210 C   0  0  2  0  0  0  0  0  0  0  0  0
    1.9034  -15.6116   15.5370 N   0  0  0  0  0  0  0  0  0  0  0  0
    0.4801  -14.6831   13.7130 C   0  0  0  0  0  0  0  0  0  0  0  0
    0.5984  -14.9853   15.2162 C   0  0  0  0  0  0  0  0  0  0  0  0
    2.6421  -14.0912   13.4276 O   0  0  0  0  0  0  0  0  0  0  0  0
  1  2  1  1  0  0  0
  1  3  1  0  0  0  0
  1  8  1  0  0  0  0
  3  4  1  0  0  0  0
  3 32  1  6  0  0  0
  4  5  1  0  0  0  0
  4 33  1  1  0  0  0
  5  6  1  1  0  0  0
  5  7  1  0  0  0  0
  7  8  1  0  0  0  0
  7  9  1  1  0  0  0
  9 10  1  0  0  0  0
 11 12  1  1  0  0  0
 11 13  1  0  0  0  0
 11 19  1  0  0  0  0
 12 34  1  0  0  0  0
 13 14  1  0  0  0  0
 14 15  1  1  0  0  0
 14 16  1  0  0  0  0
 16  2  1  6  0  0  0
 16 17  1  0  0  0  0
 17 18  1  1  0  0  0
 17 19  1  0  0  0  0
 19 20  1  6  0  0  0
 21 20  1  1  0  0  0
 21 22  1  0  0  0  0
 21 29  1  0  0  0  0
 22 23  1  6  0  0  0
 22 24  1  0  0  0  0
 24 25  1  6  0  0  0
 24 26  1  0  0  0  0
 26 27  1  1  0  0  0
 26 28  1  0  0  0  0
 28 29  1  0  0  0  0
 28 30  1  1  0  0  0
 30 31  1  0  0  0  0
 34 35  2  0  0  0  0
 36 34  1  1  0  0  0
 36 38  1  0  0  0  0
 36 40  1  0  0  0  0
 37 39  1  0  0  0  0
 38 39  1  0  0  0  0
M  END
>  <CHROM.1>
-63.84081992,-53.90376532,-170.50882423,-105.66081614,67.19202486,-154.53443834
60.46255584,71.00813911,-59.80908795,-65.89090695,1.42818775,-10.37683147
17.80876599,-0.89609703,-0.28158591,-2.26388949

>  <Name>
ligand

>  <RI>
0

>  <Rbt.Current_Directory>
/home/itssahil/PROJECTS/Mol_Feturizer/New_Systems/rnas/4P20

>  <Rbt.Executable>
rbdock ($Id: //depot/dev/client3/rdock/2013.1/src/exe/rbdock.cxx#4 $)

>  <Rbt.Library>
libRbt.so (2013.1, Build901 2013/11/27)

>  <Rbt.Parameter_File>
/export/apps/rDock/src/rDock_2013.1_src/data/scripts/dock_solv.prm

>  <Rbt.Receptor>
prm/pocket_docking_4.prm

>  <SCORE>
-12.3646

>  <SCORE.INTER>
-5.6873

>  <SCORE.INTER.CONST>
1

>  <SCORE.INTER.POLAR>
0

>  <SCORE.INTER.ROT>
10

>  <SCORE.INTER.SOLV>
14.8301

>  <SCORE.INTER.VDW>
-19.0016

>  <SCORE.INTER.norm>
-0.142183

>  <SCORE.INTRA>
-6.6773

>  <SCORE.INTRA.DIHEDRAL>
-22.5725

>  <SCORE.INTRA.DIHEDRAL.0>
28.2802

>  <SCORE.INTRA.POLAR>
0

>  <SCORE.INTRA.POLAR.0>
0

>  <SCORE.INTRA.REPUL>
0

>  <SCORE.INTRA.REPUL.0>
0

>  <SCORE.INTRA.SOLV>
5.24928

>  <SCORE.INTRA.SOLV.lig_0>
-101.981

>  <SCORE.INTRA.VDW>
1.98429

>  <SCORE.INTRA.VDW.0>
-5.72964

>  <SCORE.INTRA.norm>
-0.166933

>  <SCORE.RESTR>
0

>  <SCORE.RESTR.CAVITY>
0

>  <SCORE.RESTR.norm>
0

>  <SCORE.SYSTEM>
0

>  <SCORE.SYSTEM.CONST>
0

>  <SCORE.SYSTEM.DIHEDRAL>
0

>  <SCORE.SYSTEM.SOLV>
0

>  <SCORE.SYSTEM.norm>
0

>  <SCORE.heavy>
40

>  <SCORE.norm>
-0.309115

>  <RMSD>
5.283

$$$$
ligand
 OpenBabel11021811513D
libRbt.so/2013.1/901 2013/11/27
 40 42  0  0  0  0  0  0  0  0999 V2000
    2.1223   -7.3929   19.8455 C   0  0  2  0  0  0  0  0  0  0  0  0
    2.6454   -7.1893   18.5234 O   0  0  0  0  0  0  0  0  0  0  0  0
    2.5061   -6.1886   20.7844 C   0  0  1  0  0  0  0  0  0  0  0  0
    4.0432   -6.1124   21.0176 C   0  0  2  0  0  0  0  0  0  0  0  0
    4.4901   -7.4540   21.6800 C   0  0  2  0  0  0  0  0  0  0  0  0
    5.9104   -7.4085   21.9353 O   0  0  0  0  0  0  0  0  0  0  0  0
    4.1314   -8.6482   20.6917 C   0  0  2  0  0  0  0  0  0  0  0  0
    2.6465   -8.6654   20.4367 O   0  0  0  0  0  0  0  0  0  0  0  0
    4.5116  -10.0090   21.2588 C   0  0  0  0  0  0  0  0  0  0  0  0
    5.9896  -10.1249   21.4654 N   0  0  0  0  0  0  0  0  0  0  0  0
    1.9840  -11.0629   16.5517 C   0  0  2  0  0  0  0  0  0  0  0  0
    1.8167  -12.0410   15.5021 N   0  0  0  0  0  0  0  0  0  0  0  0
    0.8617   -9.9550   16.4264 C   0  0  0  0  0  0  0  0  0  0  0  0
    1.0365   -8.8649   17.5762 C   0  0  2  0  0  0  0  0  0  0  0  0
   -0.0285   -7.8337   17.4670 N   0  0  0  0  0  0  0  0  0  0  0  0
    2.4903   -8.2090   17.4614 C   0  0  2  0  0  0  0  0  0  0  0  0
    3.5788   -9.3580   17.5911 C   0  0  2  0  0  0  0  0  0  0  0  0
    4.8828   -8.7809   17.4934 O   0  0  0  0  0  0  0  0  0  0  0  0
    3.3912  -10.4326   16.4485 C   0  0  1  0  0  0  0  0  0  0  0  0
    4.3780  -11.4842   16.5933 O   0  0  0  0  0  0  0  0  0  0  0  0
    5.7458  -11.3299   16.4196 C   0  0  2  0  0  0  0  0  0  0  0  0
    5.9935  -10.9831   14.9084 C   0  0  2  0  0  0  0  0  0  0  0  0
    5.2862   -9.8345   14.5685 O   0  0  0  0  0  0  0  0  0  0  0  0
    5.6127  -12.1946   13.9552 C   0  0  1  0  0  0  0  0  0  0  0  0
    5.8679  -11.8476   12.5230 N   0  0  0  0  0  0  0  0  0  0  0  0
    6.4566  -13.4707   14.3920 C   0  0  2  0  0  0  0  0  0  0  0  0
    6.1570  -14.5913   13.5504 O   0  0  0  0  0  0  0  0  0  0  0  0
    6.1319  -13.7793   15.9047 C   0  0  2  0  0  0  0  0  0  0  0  0
    6.4600  -12.5803   16.7840 O   0  0  0  0  0  0  0  0  0  0  0  0
    6.9155  -14.9721   16.3984 C   0  0  0  0  0  0  0  0  0  0  0  0
    8.3379  -14.7503   16.3769 O   0  0  0  0  0  0  0  0  0  0  0  0
    2.0154   -4.9590   20.1751 O   0  0  0  0  0  0  0  0  0  0  0  0
    4.3193   -5.0554   21.8508 O   0  0  0  0  0  0  0  0  0  0  0  0
    2.1067  -13.4279   15.7841 C   0  0  0  0  0  0  0  0  0  0  0  0
    2.8864  -13.7267   16.7369 O   0  0  0  0  0  0  0  0  0  0  0  0
    1.4386  -14.5113   14.8828 C   0  0  2  0  0  0  0  0  0  0  0  0
   -0.6670  -15.5313   16.9132 N   0  0  0  0  0  0  0  0  0  0  0  0
   -0.1064  -14.3067   14.8154 C   0  0  0  0  0  0  0  0  0  0  0  0
   -0.7710  -14.2355   16.2004 C   0  0  0  0  0  0  0  0  0  0  0  0
    1.6042  -15.6906   15.3299 O   0  0  0  0  0  0  0  0  0  0  0  0
  1  2  1  6  0  0  0
  1  3  1  0  0  0  0
  1  8  1  0  0  0  0
  3  4  1  0  0  0  0
  3 32  1  6  0  0  0
  4  5  1  0  0  0  0
  4 33  1  1  0  0  0
  5  6  1  6  0  0  0
  5  7  1  0  0  0  0
  7  8  1  0  0  0  0
  7  9  1  1  0  0  0
  9 10  1  0  0  0  0
 11 12  1  6  0  0  0
 11 13  1  0  0  0  0
 11 19  1  0  0  0  0
 12 34  1  0  0  0  0
 13 14  1  0  0  0  0
 14 15  1  6  0  0  0
 14 16  1  0  0  0  0
 16  2  1  1  0  0  0
 16 17  1  0  0  0  0
 17 18  1  6  0  0  0
 17 19  1  0  0  0  0
 19 20  1  1  0  0  0
 21 20  1  6  0  0  0
 21 22  1  0  0  0  0
 21 29  1  0  0  0  0
 22 23  1  6  0  0  0
 22 24  1  0  0  0  0
 24 25  1  6  0  0  0
 24 26  1  0  0  0  0
 26 27  1  6  0  0  0
 26 28  1  0  0  0  0
 28 29  1  0  0  0  0
 28 30  1  1  0  0  0
 30 31  1  0  0  0  0
 34 35  2  0  0  0  0
 36 34  1  1  0  0  0
 36 38  1  0  0  0  0
 36 40  1  0  0  0  0
 37 39  1  0  0  0  0
 38 39  1  0  0  0  0
M  END
>  <CHROM.1>
176.65726631,38.88194182,-62.93309383,-144.14485223,172.96765680,-65.49901387
63.24783612,-52.62681130,-53.59940974,-66.01494257,3.66551384,-10.71936078
17.39798125,1.62825389,-0.03061752,0.66191836

>  <Name>
ligand

>  <RI>
0

>  <Rbt.Current_Directory>
/home/itssahil/PROJECTS/Mol_Feturizer/New_Systems/rnas/4P20

>  <Rbt.Executable>
rbdock ($Id: //depot/dev/client3/rdock/2013.1/src/exe/rbdock.cxx#4 $)

>  <Rbt.Library>
libRbt.so (2013.1, Build901 2013/11/27)

>  <Rbt.Parameter_File>
/export/apps/rDock/src/rDock_2013.1_src/data/scripts/dock_solv.prm

>  <Rbt.Receptor>
prm/pocket_docking_8.prm

>  <SCORE>
-8.5939

>  <SCORE.INTER>
0.331009

>  <SCORE.INTER.CONST>
1

>  <SCORE.INTER.POLAR>
0

>  <SCORE.INTER.ROT>
10

>  <SCORE.INTER.SOLV>
14.9697

>  <SCORE.INTER.VDW>
-15.0359

>  <SCORE.INTER.norm>
0.00827523

>  <SCORE.INTRA>
-8.92491

>  <SCORE.INTRA.DIHEDRAL>
-23.8417

>  <SCORE.INTRA.DIHEDRAL.0>
28.2802

>  <SCORE.INTRA.POLAR>
0

>  <SCORE.INTRA.POLAR.0>
0

>  <SCORE.INTRA.REPUL>
0

>  <SCORE.INTRA.REPUL.0>
0

>  <SCORE.INTRA.SOLV>
4.31275

>  <SCORE.INTRA.SOLV.lig_0>
-101.981

>  <SCORE.INTRA.VDW>
0.839566

>  <SCORE.INTRA.VDW.0>
-5.72964

>  <SCORE.INTRA.norm>
-0.223123

>  <SCORE.RESTR>
0

>  <SCORE.RESTR.CAVITY>
0

>  <SCORE.RESTR.norm>
0

>  <SCORE.SYSTEM>
0

>  <SCORE.SYSTEM.CONST>
0

>  <SCORE.SYSTEM.DIHEDRAL>
0

>  <SCORE.SYSTEM.SOLV>
0

>  <SCORE.SYSTEM.norm>
0

>  <SCORE.heavy>
40

>  <SCORE.norm>
-0.214848

>  <RMSD>
5.300

$$$$
ligand
 OpenBabel11021811513D
libRbt.so/2013.1/901 2013/11/27
 40 42  0  0  0  0  0  0  0  0999 V2000
    1.5562   -6.5584   20.4375 C   0  0  2  0  0  0  0  0  0  0  0  0
    1.7380   -6.6293   19.0145 O   0  0  0  0  0  0  0  0  0  0  0  0
    2.1269   -5.2037   21.0018 C   0  0  1  0  0  0  0  0  0  0  0  0
    3.6723   -5.1207   20.8358 C   0  0  2  0  0  0  0  0  0  0  0  0
    4.2990   -6.3177   21.6186 C   0  0  2  0  0  0  0  0  0  0  0  0
    5.7372   -6.2577   21.5080 O   0  0  0  0  0  0  0  0  0  0  0  0
    3.7405   -7.6727   20.9993 C   0  0  2  0  0  0  0  0  0  0  0  0
    2.2389   -7.7034   21.1204 O   0  0  0  0  0  0  0  0  0  0  0  0
    4.2799   -8.9056   21.7115 C   0  0  0  0  0  0  0  0  0  0  0  0
    3.9736   -8.8723   23.1763 N   0  0  0  0  0  0  0  0  0  0  0  0
    0.1848   -9.1203   15.7415 C   0  0  2  0  0  0  0  0  0  0  0  0
   -0.1910  -10.2956   14.9906 N   0  0  0  0  0  0  0  0  0  0  0  0
    1.7373   -9.1590   16.0432 C   0  0  0  0  0  0  0  0  0  0  0  0
    2.1663   -7.8695   16.8763 C   0  0  2  0  0  0  0  0  0  0  0  0
    3.6280   -7.8993   17.1447 N   0  0  0  0  0  0  0  0  0  0  0  0
    1.3293   -7.8216   18.2379 C   0  0  2  0  0  0  0  0  0  0  0  0
   -0.2181   -7.7857   17.8832 C   0  0  2  0  0  0  0  0  0  0  0  0
   -0.9753   -7.7389   19.0947 O   0  0  0  0  0  0  0  0  0  0  0  0
   -0.6281   -9.0666   17.0547 C   0  0  1  0  0  0  0  0  0  0  0  0
   -2.0374   -9.0084   16.7212 O   0  0  0  0  0  0  0  0  0  0  0  0
   -2.7525  -10.0112   16.0825 C   0  0  2  0  0  0  0  0  0  0  0  0
   -4.2519   -9.5507   16.0133 C   0  0  2  0  0  0  0  0  0  0  0  0
   -4.3389   -8.3338   15.3450 O   0  0  0  0  0  0  0  0  0  0  0  0
   -4.9086   -9.4611   17.4563 C   0  0  1  0  0  0  0  0  0  0  0  0
   -6.3389   -9.0333   17.3663 N   0  0  0  0  0  0  0  0  0  0  0  0
   -4.7812  -10.8809   18.1627 C   0  0  2  0  0  0  0  0  0  0  0  0
   -5.3729  -10.8549   19.4676 O   0  0  0  0  0  0  0  0  0  0  0  0
   -3.2514  -11.2609   18.2279 C   0  0  2  0  0  0  0  0  0  0  0  0
   -2.6407  -11.2880   16.8334 O   0  0  0  0  0  0  0  0  0  0  0  0
   -3.0522  -12.6126   18.8711 C   0  0  0  0  0  0  0  0  0  0  0  0
   -1.6664  -12.9966   18.9401 O   0  0  0  0  0  0  0  0  0  0  0  0
    1.4733   -4.1051   20.3020 O   0  0  0  0  0  0  0  0  0  0  0  0
    4.1164   -3.9285   21.3545 O   0  0  0  0  0  0  0  0  0  0  0  0
   -0.0091  -11.5975   15.5896 C   0  0  0  0  0  0  0  0  0  0  0  0
    0.8368  -11.7494   16.5203 O   0  0  0  0  0  0  0  0  0  0  0  0
   -0.8744  -12.7772   15.0490 C   0  0  2  0  0  0  0  0  0  0  0  0
    1.0293  -15.0291   15.5705 N   0  0  0  0  0  0  0  0  0  0  0  0
   -0.1214  -13.5525   13.9242 C   0  0  0  0  0  0  0  0  0  0  0  0
    0.2387  -14.9952   14.3168 C   0  0  0  0  0  0  0  0  0  0  0  0
   -1.9620  -12.3843   14.5190 O   0  0  0  0  0  0  0  0  0  0  0  0
  1  2  1  6  0  0  0
  1  3  1  0  0  0  0
  1  8  1  0  0  0  0
  3  4  1  0  0  0  0
  3 32  1  6  0  0  0
  4  5  1  0  0  0  0
  4 33  1  1  0  0  0
  5  6  1  6  0  0  0
  5  7  1  0  0  0  0
  7  8  1  0  0  0  0
  7  9  1  1  0  0  0
  9 10  1  0  0  0  0
 11 12  1  1  0  0  0
 11 13  1  0  0  0  0
 11 19  1  0  0  0  0
 12 34  1  0  0  0  0
 13 14  1  0  0  0  0
 14 15  1  1  0  0  0
 14 16  1  0  0  0  0
 16  2  1  6  0  0  0
 16 17  1  0  0  0  0
 17 18  1  1  0  0  0
 17 19  1  0  0  0  0
 19 20  1  6  0  0  0
 21 20  1  1  0  0  0
 21 22  1  0  0  0  0
 21 29  1  0  0  0  0
 22 23  1  1  0  0  0
 22 24  1  0  0  0  0
 24 25  1  6  0  0  0
 24 26  1  0  0  0  0
 26 27  1  1  0  0  0
 26 28  1  0  0  0  0
 28 29  1  0  0  0  0
 28 30  1  6  0  0  0
 30 31  1  0  0  0  0
 34 35  2  0  0  0  0
 36 34  1  6  0  0  0
 36 38  1  0  0  0  0
 36 40  1  0  0  0  0
 37 39  1  0  0  0  0
 38 39  1  0  0  0  0
M  END
>  <CHROM.1>
177.93083159,-156.89173592,56.93365421,61.99825394,64.86775230,176.45737812
179.63234106,92.92620470,114.05572224,-55.56564928,-0.01200172,-9.27146966
18.05321558,0.86154904,-0.10206651,0.62902601

>  <Name>
ligand

>  <RI>
0

>  <Rbt.Current_Directory>
/home/itssahil/PROJECTS/Mol_Feturizer/New_Systems/rnas/4P20

>  <Rbt.Executable>
rbdock ($Id: //depot/dev/client3/rdock/2013.1/src/exe/rbdock.cxx#4 $)

>  <Rbt.Library>
libRbt.so (2013.1, Build901 2013/11/27)

>  <Rbt.Parameter_File>
/export/apps/rDock/src/rDock_2013.1_src/data/scripts/dock_solv.prm

>  <Rbt.Receptor>
prm/pocket_docking_2.prm

>  <SCORE>
-2.73033

>  <SCORE.INTER>
0.0871894

>  <SCORE.INTER.CONST>
1

>  <SCORE.INTER.POLAR>
0

>  <SCORE.INTER.ROT>
10

>  <SCORE.INTER.SOLV>
23.5787

>  <SCORE.INTER.VDW>
-18.0681

>  <SCORE.INTER.norm>
0.00217974

>  <SCORE.INTRA>
-6.67801

>  <SCORE.INTRA.DIHEDRAL>
-18.881

>  <SCORE.INTRA.DIHEDRAL.0>
28.2802

>  <SCORE.INTRA.POLAR>
0

>  <SCORE.INTRA.POLAR.0>
0

>  <SCORE.INTRA.REPUL>
0

>  <SCORE.INTRA.REPUL.0>
0

>  <SCORE.INTRA.SOLV>
3.58429

>  <SCORE.INTRA.SOLV.lig_0>
-101.981

>  <SCORE.INTRA.VDW>
0.970319

>  <SCORE.INTRA.VDW.0>
-5.72964

>  <SCORE.INTRA.norm>
-0.16695

>  <SCORE.RESTR>
3.86049

>  <SCORE.RESTR.CAVITY>
3.86049

>  <SCORE.RESTR.norm>
0.0965123

>  <SCORE.SYSTEM>
0

>  <SCORE.SYSTEM.CONST>
0

>  <SCORE.SYSTEM.DIHEDRAL>
0

>  <SCORE.SYSTEM.SOLV>
0

>  <SCORE.SYSTEM.norm>
0

>  <SCORE.heavy>
40

>  <SCORE.norm>
-0.0682583

>  <RMSD>
5.306

$$$$
ligand
 OpenBabel11021811513D
libRbt.so/2013.1/901 2013/11/27
 40 42  0  0  0  0  0  0  0  0999 V2000
    4.4092   -6.2280   21.0938 C   0  0  2  0  0  0  0  0  0  0  0  0
    3.0998   -6.7758   21.3135 O   0  0  0  0  0  0  0  0  0  0  0  0
    5.3007   -6.3906   22.3815 C   0  0  1  0  0  0  0  0  0  0  0  0
    4.7540   -5.5422   23.5665 C   0  0  2  0  0  0  0  0  0  0  0  0
    4.7519   -4.0464   23.1184 C   0  0  2  0  0  0  0  0  0  0  0  0
    4.2738   -3.2249   24.2051 O   0  0  0  0  0  0  0  0  0  0  0  0
    3.8094   -3.9031   21.8445 C   0  0  2  0  0  0  0  0  0  0  0  0
    4.3267   -4.7770   20.7314 O   0  0  0  0  0  0  0  0  0  0  0  0
    3.7561   -2.4763   21.3158 C   0  0  0  0  0  0  0  0  0  0  0  0
    2.6965   -2.3168   20.2706 N   0  0  0  0  0  0  0  0  0  0  0  0
    3.2600  -10.5990   19.1484 C   0  0  2  0  0  0  0  0  0  0  0  0
    2.8234  -11.8351   18.5419 N   0  0  0  0  0  0  0  0  0  0  0  0
    2.9355  -10.6255   20.6966 C   0  0  0  0  0  0  0  0  0  0  0  0
    3.4077   -9.2646   21.3792 C   0  0  2  0  0  0  0  0  0  0  0  0
    3.1170   -9.2979   22.8365 N   0  0  0  0  0  0  0  0  0  0  0  0
    2.6679   -8.0372   20.6700 C   0  0  2  0  0  0  0  0  0  0  0  0
    3.0224   -8.0548   19.1221 C   0  0  2  0  0  0  0  0  0  0  0  0
    2.3683   -6.9582   18.4795 O   0  0  0  0  0  0  0  0  0  0  0  0
    2.5528   -9.4099   18.4599 C   0  0  1  0  0  0  0  0  0  0  0  0
    2.9020   -9.4188   17.0533 O   0  0  0  0  0  0  0  0  0  0  0  0
    2.4164   -8.5346   16.1008 C   0  0  2  0  0  0  0  0  0  0  0  0
    0.8880   -8.8392   15.9100 C   0  0  2  0  0  0  0  0  0  0  0  0
    0.2290   -8.7151   17.1288 O   0  0  0  0  0  0  0  0  0  0  0  0
    0.6475  -10.2728   15.2710 C   0  0  1  0  0  0  0  0  0  0  0  0
   -0.8130  -10.5370   15.0867 N   0  0  0  0  0  0  0  0  0  0  0  0
    1.4203  -10.3475   13.8824 C   0  0  2  0  0  0  0  0  0  0  0  0
    1.2230  -11.6221   13.2581 O   0  0  0  0  0  0  0  0  0  0  0  0
    2.9485  -10.0669   14.1558 C   0  0  2  0  0  0  0  0  0  0  0  0
    3.1397   -8.7076   14.8149 O   0  0  0  0  0  0  0  0  0  0  0  0
    3.7471  -10.1014   12.8745 C   0  0  0  0  0  0  0  0  0  0  0  0
    3.6618  -11.3706   12.2003 O   0  0  0  0  0  0  0  0  0  0  0  0
    5.3409   -7.8040   22.7346 O   0  0  0  0  0  0  0  0  0  0  0  0
    5.5741   -5.7113   24.6558 O   0  0  0  0  0  0  0  0  0  0  0  0
    3.6385  -12.4363   17.5118 C   0  0  0  0  0  0  0  0  0  0  0  0
    4.4471  -11.7194   16.8506 O   0  0  0  0  0  0  0  0  0  0  0  0
    3.4781  -13.9661   17.2538 C   0  0  2  0  0  0  0  0  0  0  0  0
    6.1227  -15.0563   18.5331 N   0  0  0  0  0  0  0  0  0  0  0  0
    3.6459  -14.7762   18.5763 C   0  0  0  0  0  0  0  0  0  0  0  0
    4.9779  -14.4999   19.2934 C   0  0  0  0  0  0  0  0  0  0  0  0
    4.3617  -14.4247   16.4620 O   0  0  0  0  0  0  0  0  0  0  0  0
  1  2  1  1  0  0  0
  1  3  1  0  0  0  0
  1  8  1  0  0  0  0
  3  4  1  0  0  0  0
  3 32  1  1  0  0  0
  4  5  1  0  0  0  0
  4 33  1  1  0  0  0
  5  6  1  1  0  0  0
  5  7  1  0  0  0  0
  7  8  1  0  0  0  0
  7  9  1  6  0  0  0
  9 10  1  0  0  0  0
 11 12  1  6  0  0  0
 11 13  1  0  0  0  0
 11 19  1  0  0  0  0
 12 34  1  0  0  0  0
 13 14  1  0  0  0  0
 14 15  1  1  0  0  0
 14 16  1  0  0  0  0
 16  2  1  1  0  0  0
 16 17  1  0  0  0  0
 17 18  1  6  0  0  0
 17 19  1  0  0  0  0
 19 20  1  6  0  0  0
 21 20  1  1  0  0  0
 21 22  1  0  0  0  0
 21 29  1  0  0  0  0
 22 23  1  1  0  0  0
 22 24  1  0  0  0  0
 24 25  1  6  0  0  0
 24 26  1  0  0  0  0
 26 27  1  1  0  0  0
 26 28  1  0  0  0  0
 28 29  1  0  0  0  0
 28 30  1  6  0  0  0
 30 31  1  0  0  0  0
 34 35  2  0  0  0  0
 36 34  1  1  0  0  0
 36 38  1  0  0  0  0
 36 40  1  0  0  0  0
 37 39  1  0  0  0  0
 38 39  1  0  0  0  0
M  END
>  <CHROM.1>
-108.14409124,73.22649937,-170.45298005,-141.42711211,177.30965050,-68.18373444
-59.63513540,-53.10541820,-55.64708118,-69.49101953,3.29489786,-8.95396363
18.70495342,1.23636293,-1.14178100,0.48667784

>  <Name>
ligand

>  <RI>
0

>  <Rbt.Current_Directory>
/home/itssahil/PROJECTS/Mol_Feturizer/New_Systems/rnas/4P20

>  <Rbt.Executable>
rbdock ($Id: //depot/dev/client3/rdock/2013.1/src/exe/rbdock.cxx#4 $)

>  <Rbt.Library>
libRbt.so (2013.1, Build901 2013/11/27)

>  <Rbt.Parameter_File>
/export/apps/rDock/src/rDock_2013.1_src/data/scripts/dock_solv.prm

>  <Rbt.Receptor>
prm/pocket_docking_7.prm

>  <SCORE>
-8.67919

>  <SCORE.INTER>
-3.53734

>  <SCORE.INTER.CONST>
1

>  <SCORE.INTER.POLAR>
0

>  <SCORE.INTER.ROT>
10

>  <SCORE.INTER.SOLV>
19.2374

>  <SCORE.INTER.VDW>
-19.0373

>  <SCORE.INTER.norm>
-0.0884334

>  <SCORE.INTRA>
-5.14186

>  <SCORE.INTRA.DIHEDRAL>
-18.1127

>  <SCORE.INTRA.DIHEDRAL.0>
28.2802

>  <SCORE.INTRA.POLAR>
0

>  <SCORE.INTRA.POLAR.0>
0

>  <SCORE.INTRA.REPUL>
0

>  <SCORE.INTRA.REPUL.0>
0

>  <SCORE.INTRA.SOLV>
4.16627

>  <SCORE.INTRA.SOLV.lig_0>
-101.981

>  <SCORE.INTRA.VDW>
1.83138

>  <SCORE.INTRA.VDW.0>
-5.72964

>  <SCORE.INTRA.norm>
-0.128546

>  <SCORE.RESTR>
0

>  <SCORE.RESTR.CAVITY>
0

>  <SCORE.RESTR.norm>
0

>  <SCORE.SYSTEM>
0

>  <SCORE.SYSTEM.CONST>
0

>  <SCORE.SYSTEM.DIHEDRAL>
0

>  <SCORE.SYSTEM.SOLV>
0

>  <SCORE.SYSTEM.norm>
0

>  <SCORE.heavy>
40

>  <SCORE.norm>
-0.21698

>  <RMSD>
5.321

$$$$
ligand
 OpenBabel11021811513D
libRbt.so/2013.1/901 2013/11/27
 40 42  0  0  0  0  0  0  0  0999 V2000
    4.3907   -6.0138   19.2595 C   0  0  2  0  0  0  0  0  0  0  0  0
    3.1104   -6.6513   19.1282 O   0  0  0  0  0  0  0  0  0  0  0  0
    5.1322   -6.5217   20.5524 C   0  0  1  0  0  0  0  0  0  0  0  0
    4.3847   -6.0894   21.8476 C   0  0  2  0  0  0  0  0  0  0  0  0
    4.3213   -4.5293   21.8609 C   0  0  2  0  0  0  0  0  0  0  0  0
    3.6554   -4.0905   23.0645 O   0  0  0  0  0  0  0  0  0  0  0  0
    3.5291   -4.0459   20.5684 C   0  0  2  0  0  0  0  0  0  0  0  0
    4.2409   -4.5251   19.3299 O   0  0  0  0  0  0  0  0  0  0  0  0
    3.4298   -2.5293   20.4783 C   0  0  0  0  0  0  0  0  0  0  0  0
    2.5862   -1.9672   21.5796 N   0  0  0  0  0  0  0  0  0  0  0  0
    2.1876   -9.7260   16.1241 C   0  0  2  0  0  0  0  0  0  0  0  0
    2.0702  -11.0243   15.5020 N   0  0  0  0  0  0  0  0  0  0  0  0
    3.7061   -9.4351   16.4593 C   0  0  0  0  0  0  0  0  0  0  0  0
    3.8510   -8.0065   17.1513 C   0  0  2  0  0  0  0  0  0  0  0  0
    5.2801   -7.7278   17.4506 N   0  0  0  0  0  0  0  0  0  0  0  0
    2.9649   -7.9753   18.4819 C   0  0  2  0  0  0  0  0  0  0  0  0
    1.4540   -8.2735   18.0944 C   0  0  2  0  0  0  0  0  0  0  0  0
    0.6526   -8.2440   19.2777 O   0  0  0  0  0  0  0  0  0  0  0  0
    1.3260   -9.6897   17.4064 C   0  0  1  0  0  0  0  0  0  0  0  0
   -0.0543   -9.9375   17.0403 O   0  0  0  0  0  0  0  0  0  0  0  0
   -1.0251  -10.4624   17.8810 C   0  0  2  0  0  0  0  0  0  0  0  0
   -1.9830  -11.3439   17.0032 C   0  0  2  0  0  0  0  0  0  0  0  0
   -1.2500  -12.3362   16.3604 O   0  0  0  0  0  0  0  0  0  0  0  0
   -2.8006  -10.4683   15.9611 C   0  0  1  0  0  0  0  0  0  0  0  0
   -3.7150  -11.3253   15.1448 N   0  0  0  0  0  0  0  0  0  0  0  0
   -3.6179   -9.3599   16.7578 C   0  0  2  0  0  0  0  0  0  0  0  0
   -4.3850   -8.5491   15.8592 O   0  0  0  0  0  0  0  0  0  0  0  0
   -2.5915   -8.4943   17.5862 C   0  0  2  0  0  0  0  0  0  0  0  0
   -1.7888   -9.3708   18.5380 O   0  0  0  0  0  0  0  0  0  0  0  0
   -3.2993   -7.4285   18.3883 C   0  0  0  0  0  0  0  0  0  0  0  0
   -4.4410   -7.9370   19.1031 O   0  0  0  0  0  0  0  0  0  0  0  0
    5.2384   -7.9733   20.4785 O   0  0  0  0  0  0  0  0  0  0  0  0
    5.0796   -6.5466   22.9411 O   0  0  0  0  0  0  0  0  0  0  0  0
    1.3951  -11.1330   14.2294 C   0  0  0  0  0  0  0  0  0  0  0  0
    0.5607  -10.2453   13.8818 O   0  0  0  0  0  0  0  0  0  0  0  0
    1.7271  -12.3628   13.3296 C   0  0  2  0  0  0  0  0  0  0  0  0
    4.3132  -11.4778   11.9196 N   0  0  0  0  0  0  0  0  0  0  0  0
    1.8650  -11.9399   11.8344 C   0  0  0  0  0  0  0  0  0  0  0  0
    2.9824  -10.9110   11.5943 C   0  0  0  0  0  0  0  0  0  0  0  0
    0.8110  -13.2452   13.3482 O   0  0  0  0  0  0  0  0  0  0  0  0
  1  2  1  1  0  0  0
  1  3  1  0  0  0  0
  1  8  1  0  0  0  0
  3  4  1  0  0  0  0
  3 32  1  6  0  0  0
  4  5  1  0  0  0  0
  4 33  1  1  0  0  0
  5  6  1  1  0  0  0
  5  7  1  0  0  0  0
  7  8  1  0  0  0  0
  7  9  1  6  0  0  0
  9 10  1  0  0  0  0
 11 12  1  1  0  0  0
 11 13  1  0  0  0  0
 11 19  1  0  0  0  0
 12 34  1  0  0  0  0
 13 14  1  0  0  0  0
 14 15  1  1  0  0  0
 14 16  1  0  0  0  0
 16  2  1  6  0  0  0
 16 17  1  0  0  0  0
 17 18  1  1  0  0  0
 17 19  1  0  0  0  0
 19 20  1  6  0  0  0
 21 20  1  6  0  0  0
 21 22  1  0  0  0  0
 21 29  1  0  0  0  0
 22 23  1  6  0  0  0
 22 24  1  0  0  0  0
 24 25  1  1  0  0  0
 24 26  1  0  0  0  0
 26 27  1  6  0  0  0
 26 28  1  0  0  0  0
 28 29  1  0  0  0  0
 28 30  1  1  0  0  0
 30 31  1  0  0  0  0
 34 35  2  0  0  0  0
 36 34  1  1  0  0  0
 36 38  1  0  0  0  0
 36 40  1  0  0  0  0
 37 39  1  0  0  0  0
 38 39  1  0  0  0  0
M  END
>  <CHROM.1>
-85.09487840,-43.85242487,-66.42061824,-126.20486797,154.88005424,-145.90357196
46.83276416,-138.19207340,60.34786094,63.82183634,1.35746518,-8.49023724
17.60099088,-1.09705126,-0.11461479,-2.27707693

>  <Name>
ligand

>  <RI>
0

>  <Rbt.Current_Directory>
/home/itssahil/PROJECTS/Mol_Feturizer/New_Systems/rnas/4P20

>  <Rbt.Executable>
rbdock ($Id: //depot/dev/client3/rdock/2013.1/src/exe/rbdock.cxx#4 $)

>  <Rbt.Library>
libRbt.so (2013.1, Build901 2013/11/27)

>  <Rbt.Parameter_File>
/export/apps/rDock/src/rDock_2013.1_src/data/scripts/dock_solv.prm

>  <Rbt.Receptor>
prm/pocket_docking_3.prm

>  <SCORE>
-11.0099

>  <SCORE.INTER>
-8.1256

>  <SCORE.INTER.CONST>
1

>  <SCORE.INTER.POLAR>
0

>  <SCORE.INTER.ROT>
10

>  <SCORE.INTER.SOLV>
21.0599

>  <SCORE.INTER.VDW>
-22.7037

>  <SCORE.INTER.norm>
-0.20314

>  <SCORE.INTRA>
-2.93154

>  <SCORE.INTRA.DIHEDRAL>
-13.2411

>  <SCORE.INTRA.DIHEDRAL.0>
28.2802

>  <SCORE.INTRA.POLAR>
0

>  <SCORE.INTRA.POLAR.0>
0

>  <SCORE.INTRA.REPUL>
0

>  <SCORE.INTRA.REPUL.0>
0

>  <SCORE.INTRA.SOLV>
4.25199

>  <SCORE.INTRA.SOLV.lig_0>
-101.981

>  <SCORE.INTRA.VDW>
1.56304

>  <SCORE.INTRA.VDW.0>
-5.72964

>  <SCORE.INTRA.norm>
-0.0732884

>  <SCORE.RESTR>
0.0472009

>  <SCORE.RESTR.CAVITY>
0.0472009

>  <SCORE.RESTR.norm>
0.00118002

>  <SCORE.SYSTEM>
0

>  <SCORE.SYSTEM.CONST>
0

>  <SCORE.SYSTEM.DIHEDRAL>
0

>  <SCORE.SYSTEM.SOLV>
0

>  <SCORE.SYSTEM.norm>
0

>  <SCORE.heavy>
40

>  <SCORE.norm>
-0.275248

>  <RMSD>
5.333

$$$$
ligand
 OpenBabel11021811513D
libRbt.so/2013.1/901 2013/11/27
 40 42  0  0  0  0  0  0  0  0999 V2000
    1.4603   -5.9613   20.2040 C   0  0  2  0  0  0  0  0  0  0  0  0
    1.6908   -6.3448   18.8392 O   0  0  0  0  0  0  0  0  0  0  0  0
    2.1967   -4.6085   20.5310 C   0  0  1  0  0  0  0  0  0  0  0  0
    3.7436   -4.7681   20.4625 C   0  0  2  0  0  0  0  0  0  0  0  0
    4.1558   -5.8528   21.5074 C   0  0  2  0  0  0  0  0  0  0  0  0
    5.5909   -6.0092   21.4899 O   0  0  0  0  0  0  0  0  0  0  0  0
    3.4337   -7.2188   21.1276 C   0  0  2  0  0  0  0  0  0  0  0  0
    1.9398   -7.0234   21.1451 O   0  0  0  0  0  0  0  0  0  0  0  0
    3.7574   -8.3410   22.1042 C   0  0  0  0  0  0  0  0  0  0  0  0
    5.1743   -8.8024   21.9613 N   0  0  0  0  0  0  0  0  0  0  0  0
    0.2799   -9.5002   16.1222 C   0  0  2  0  0  0  0  0  0  0  0  0
   -0.0833  -10.8111   15.6363 N   0  0  0  0  0  0  0  0  0  0  0  0
    1.8063   -9.4940   16.5377 C   0  0  0  0  0  0  0  0  0  0  0  0
    2.2209   -8.0539   17.0810 C   0  0  2  0  0  0  0  0  0  0  0  0
    3.6593   -8.0452   17.4555 N   0  0  0  0  0  0  0  0  0  0  0  0
    1.2960   -7.6776   18.3299 C   0  0  2  0  0  0  0  0  0  0  0  0
   -0.2220   -7.6990   17.8639 C   0  0  2  0  0  0  0  0  0  0  0  0
   -1.0571   -7.3599   18.9733 O   0  0  0  0  0  0  0  0  0  0  0  0
   -0.6176   -9.1300   17.3245 C   0  0  1  0  0  0  0  0  0  0  0  0
   -1.9984   -9.1270   16.8842 O   0  0  0  0  0  0  0  0  0  0  0  0
   -3.1064   -9.1074   17.7190 C   0  0  2  0  0  0  0  0  0  0  0  0
   -3.2260  -10.5275   18.3779 C   0  0  2  0  0  0  0  0  0  0  0  0
   -2.0538  -10.8264   19.0648 O   0  0  0  0  0  0  0  0  0  0  0  0
   -3.5645  -11.6487   17.3056 C   0  0  1  0  0  0  0  0  0  0  0  0
   -3.6861  -12.9900   17.9559 N   0  0  0  0  0  0  0  0  0  0  0  0
   -4.9134  -11.2510   16.5618 C   0  0  2  0  0  0  0  0  0  0  0  0
   -5.2696  -12.2417   15.5896 O   0  0  0  0  0  0  0  0  0  0  0  0
   -4.7081   -9.8350   15.8972 C   0  0  2  0  0  0  0  0  0  0  0  0
   -4.3348   -8.7947   16.9446 O   0  0  0  0  0  0  0  0  0  0  0  0
   -5.9600   -9.3797   15.1859 C   0  0  0  0  0  0  0  0  0  0  0  0
   -7.1378   -9.4930   16.0060 O   0  0  0  0  0  0  0  0  0  0  0  0
    1.7401   -3.5986   19.5846 O   0  0  0  0  0  0  0  0  0  0  0  0
    4.3333   -3.5653   20.7676 O   0  0  0  0  0  0  0  0  0  0  0  0
   -0.0763  -11.0575   14.2128 C   0  0  0  0  0  0  0  0  0  0  0  0
   -0.1893  -10.0875   13.4057 O   0  0  0  0  0  0  0  0  0  0  0  0
    0.0673  -12.5328   13.7279 C   0  0  2  0  0  0  0  0  0  0  0  0
    0.6079  -15.5128   13.4875 N   0  0  0  0  0  0  0  0  0  0  0  0
    0.4053  -13.4819   14.9190 C   0  0  0  0  0  0  0  0  0  0  0  0
   -0.0451  -14.9337   14.6860 C   0  0  0  0  0  0  0  0  0  0  0  0
    1.0165  -12.6846   12.8949 O   0  0  0  0  0  0  0  0  0  0  0  0
  1  2  1  6  0  0  0
  1  3  1  0  0  0  0
  1  8  1  0  0  0  0
  3  4  1  0  0  0  0
  3 32  1  6  0  0  0
  4  5  1  0  0  0  0
  4 33  1  1  0  0  0
  5  6  1  6  0  0  0
  5  7  1  0  0  0  0
  7  8  1  0  0  0  0
  7  9  1  1  0  0  0
  9 10  1  0  0  0  0
 11 12  1  1  0  0  0
 11 13  1  0  0  0  0
 11 19  1  0  0  0  0
 12 34  1  0  0  0  0
 13 14  1  0  0  0  0
 14 15  1  1  0  0  0
 14 16  1  0  0  0  0
 16  2  1  6  0  0  0
 16 17  1  0  0  0  0
 17 18  1  1  0  0  0
 17 19  1  0  0  0  0
 19 20  1  6  0  0  0
 21 20  1  6  0  0  0
 21 22  1  0  0  0  0
 21 29  1  0  0  0  0
 22 23  1  6  0  0  0
 22 24  1  0  0  0  0
 24 25  1  1  0  0  0
 24 26  1  0  0  0  0
 26 27  1  6  0  0  0
 26 28  1  0  0  0  0
 28 29  1  0  0  0  0
 28 30  1  1  0  0  0
 30 31  1  0  0  0  0
 34 35  2  0  0  0  0
 36 34  1  1  0  0  0
 36 38  1  0  0  0  0
 36 40  1  0  0  0  0
 37 39  1  0  0  0  0
 38 39  1  0  0  0  0
M  END
>  <CHROM.1>
170.12110202,-154.55037009,-70.77560240,-96.44728107,166.31364434,-72.76771993
49.68577656,-8.90580229,154.12464367,60.06159783,-0.05843390,-9.10613481
17.65286083,0.88303232,-0.07348398,0.67398490

>  <Name>
ligand

>  <RI>
0

>  <Rbt.Current_Directory>
/home/itssahil/PROJECTS/Mol_Feturizer/New_Systems/rnas/4P20

>  <Rbt.Executable>
rbdock ($Id: //depot/dev/client3/rdock/2013.1/src/exe/rbdock.cxx#4 $)

>  <Rbt.Library>
libRbt.so (2013.1, Build901 2013/11/27)

>  <Rbt.Parameter_File>
/export/apps/rDock/src/rDock_2013.1_src/data/scripts/dock_solv.prm

>  <Rbt.Receptor>
prm/pocket_docking_2.prm

>  <SCORE>
-5.90406

>  <SCORE.INTER>
-1.23684

>  <SCORE.INTER.CONST>
1

>  <SCORE.INTER.POLAR>
0

>  <SCORE.INTER.ROT>
10

>  <SCORE.INTER.SOLV>
28.334

>  <SCORE.INTER.VDW>
-20.5359

>  <SCORE.INTER.norm>
-0.0309211

>  <SCORE.INTRA>
-6.48902

>  <SCORE.INTRA.DIHEDRAL>
-17.4212

>  <SCORE.INTRA.DIHEDRAL.0>
28.2802

>  <SCORE.INTRA.POLAR>
0

>  <SCORE.INTRA.POLAR.0>
0

>  <SCORE.INTRA.REPUL>
0

>  <SCORE.INTRA.REPUL.0>
0

>  <SCORE.INTRA.SOLV>
1.4825

>  <SCORE.INTRA.SOLV.lig_0>
-101.981

>  <SCORE.INTRA.VDW>
1.48032

>  <SCORE.INTRA.VDW.0>
-5.72964

>  <SCORE.INTRA.norm>
-0.162225

>  <SCORE.RESTR>
1.8218

>  <SCORE.RESTR.CAVITY>
1.8218

>  <SCORE.RESTR.norm>
0.045545

>  <SCORE.SYSTEM>
0

>  <SCORE.SYSTEM.CONST>
0

>  <SCORE.SYSTEM.DIHEDRAL>
0

>  <SCORE.SYSTEM.SOLV>
0

>  <SCORE.SYSTEM.norm>
0

>  <SCORE.heavy>
40

>  <SCORE.norm>
-0.147602

>  <RMSD>
5.374

$$$$
ligand
 OpenBabel11021811513D
libRbt.so/2013.1/901 2013/11/27
 40 42  0  0  0  0  0  0  0  0999 V2000
    4.1847   -6.1839   19.7084 C   0  0  2  0  0  0  0  0  0  0  0  0
    2.7687   -6.4198   19.6590 O   0  0  0  0  0  0  0  0  0  0  0  0
    4.9153   -7.3564   20.4640 C   0  0  1  0  0  0  0  0  0  0  0  0
    4.5106   -7.4088   21.9661 C   0  0  2  0  0  0  0  0  0  0  0  0
    4.9070   -6.0438   22.6125 C   0  0  2  0  0  0  0  0  0  0  0  0
    4.5690   -6.0661   24.0160 O   0  0  0  0  0  0  0  0  0  0  0  0
    4.1213   -4.8826   21.8603 C   0  0  2  0  0  0  0  0  0  0  0  0
    4.4863   -4.8892   20.3985 O   0  0  0  0  0  0  0  0  0  0  0  0
    4.4570   -3.5018   22.4070 C   0  0  0  0  0  0  0  0  0  0  0  0
    4.0332   -3.3583   23.8354 N   0  0  0  0  0  0  0  0  0  0  0  0
    0.5272   -8.7434   16.6747 C   0  0  2  0  0  0  0  0  0  0  0  0
   -0.0051   -9.8795   15.9590 N   0  0  0  0  0  0  0  0  0  0  0  0
    2.1080   -8.7767   16.6199 C   0  0  0  0  0  0  0  0  0  0  0  0
    2.7104   -7.5304   17.4104 C   0  0  2  0  0  0  0  0  0  0  0  0
    4.1952   -7.5543   17.3440 N   0  0  0  0  0  0  0  0  0  0  0  0
    2.1986   -7.5719   18.9247 C   0  0  2  0  0  0  0  0  0  0  0  0
    0.6109   -7.5383   18.9265 C   0  0  2  0  0  0  0  0  0  0  0  0
    0.1434   -7.5713   20.2769 O   0  0  0  0  0  0  0  0  0  0  0  0
    0.0281   -8.7760   18.1368 C   0  0  1  0  0  0  0  0  0  0  0  0
   -1.4201   -8.7194   18.1298 O   0  0  0  0  0  0  0  0  0  0  0  0
   -2.2604   -9.7346   17.6962 C   0  0  2  0  0  0  0  0  0  0  0  0
   -3.7365   -9.2195   17.8406 C   0  0  2  0  0  0  0  0  0  0  0  0
   -3.8996   -8.0502   17.1050 O   0  0  0  0  0  0  0  0  0  0  0  0
   -4.1392   -9.0018   19.3611 C   0  0  1  0  0  0  0  0  0  0  0  0
   -5.5516   -8.5236   19.4761 N   0  0  0  0  0  0  0  0  0  0  0  0
   -3.9356  -10.3724   20.1429 C   0  0  2  0  0  0  0  0  0  0  0  0
   -4.2992  -10.2306   21.5217 O   0  0  0  0  0  0  0  0  0  0  0  0
   -2.4280  -10.8089   19.9835 C   0  0  2  0  0  0  0  0  0  0  0  0
   -2.0606  -10.9589   18.5134 O   0  0  0  0  0  0  0  0  0  0  0  0
   -2.1622  -12.1190   20.6860 C   0  0  0  0  0  0  0  0  0  0  0  0
   -2.9704  -13.1965   20.1775 O   0  0  0  0  0  0  0  0  0  0  0  0
    4.5827   -8.6084   19.7963 O   0  0  0  0  0  0  0  0  0  0  0  0
    5.1846   -8.4382   22.5773 O   0  0  0  0  0  0  0  0  0  0  0  0
    0.1740   -9.9523   14.5273 C   0  0  0  0  0  0  0  0  0  0  0  0
    0.3788   -8.8926   13.8640 O   0  0  0  0  0  0  0  0  0  0  0  0
    0.1002  -11.3567   13.8528 C   0  0  2  0  0  0  0  0  0  0  0  0
    1.3685  -14.8439   15.0349 N   0  0  0  0  0  0  0  0  0  0  0  0
    0.8305  -12.4305   14.7172 C   0  0  0  0  0  0  0  0  0  0  0  0
    0.6762  -13.8592   14.1694 C   0  0  0  0  0  0  0  0  0  0  0  0
    0.6761  -11.3865   12.7191 O   0  0  0  0  0  0  0  0  0  0  0  0
  1  2  1  1  0  0  0
  1  3  1  0  0  0  0
  1  8  1  0  0  0  0
  3  4  1  0  0  0  0
  3 32  1  6  0  0  0
  4  5  1  0  0  0  0
  4 33  1  1  0  0  0
  5  6  1  1  0  0  0
  5  7  1  0  0  0  0
  7  8  1  0  0  0  0
  7  9  1  1  0  0  0
  9 10  1  0  0  0  0
 11 12  1  6  0  0  0
 11 13  1  0  0  0  0
 11 19  1  0  0  0  0
 12 34  1  0  0  0  0
 13 14  1  0  0  0  0
 14 15  1  1  0  0  0
 14 16  1  0  0  0  0
 16  2  1  1  0  0  0
 16 17  1  0  0  0  0
 17 18  1  1  0  0  0
 17 19  1  0  0  0  0
 19 20  1  6  0  0  0
 21 20  1  1  0  0  0
 21 22  1  0  0  0  0
 21 29  1  0  0  0  0
 22 23  1  6  0  0  0
 22 24  1  0  0  0  0
 24 25  1  6  0  0  0
 24 26  1  0  0  0  0
 26 27  1  1  0  0  0
 26 28  1  0  0  0  0
 28 29  1  0  0  0  0
 28 30  1  1  0  0  0
 30 31  1  0  0  0  0
 34 35  2  0  0  0  0
 36 34  1  1  0  0  0
 36 38  1  0  0  0  0
 36 40  1  0  0  0  0
 37 39  1  0  0  0  0
 38 39  1  0  0  0  0
M  END
>  <CHROM.1>
-64.17535390,-55.28130852,-63.59088107,-67.04331403,69.72620507,-178.72808101
59.76541322,-40.86798998,174.51902878,-179.11740782,0.76014558,-8.77650508
18.75015628,-0.83679327,-0.32215012,-2.10121485

>  <Name>
ligand

>  <RI>
0

>  <Rbt.Current_Directory>
/home/itssahil/PROJECTS/Mol_Feturizer/New_Systems/rnas/4P20

>  <Rbt.Executable>
rbdock ($Id: //depot/dev/client3/rdock/2013.1/src/exe/rbdock.cxx#4 $)

>  <Rbt.Library>
libRbt.so (2013.1, Build901 2013/11/27)

>  <Rbt.Parameter_File>
/export/apps/rDock/src/rDock_2013.1_src/data/scripts/dock_solv.prm

>  <Rbt.Receptor>
prm/pocket_docking_5.prm

>  <SCORE>
-18.1789

>  <SCORE.INTER>
-9.20236

>  <SCORE.INTER.CONST>
1

>  <SCORE.INTER.POLAR>
0

>  <SCORE.INTER.ROT>
10

>  <SCORE.INTER.SOLV>
19.0752

>  <SCORE.INTER.VDW>
-22.76

>  <SCORE.INTER.norm>
-0.230059

>  <SCORE.INTRA>
-8.97654

>  <SCORE.INTRA.DIHEDRAL>
-26.2145

>  <SCORE.INTRA.DIHEDRAL.0>
28.2802

>  <SCORE.INTRA.POLAR>
0

>  <SCORE.INTRA.POLAR.0>
0

>  <SCORE.INTRA.REPUL>
0

>  <SCORE.INTRA.REPUL.0>
0

>  <SCORE.INTRA.SOLV>
1.90042

>  <SCORE.INTRA.SOLV.lig_0>
-101.981

>  <SCORE.INTRA.VDW>
3.18051

>  <SCORE.INTRA.VDW.0>
-5.72964

>  <SCORE.INTRA.norm>
-0.224413

>  <SCORE.RESTR>
0

>  <SCORE.RESTR.CAVITY>
0

>  <SCORE.RESTR.norm>
0

>  <SCORE.SYSTEM>
0

>  <SCORE.SYSTEM.CONST>
0

>  <SCORE.SYSTEM.DIHEDRAL>
0

>  <SCORE.SYSTEM.SOLV>
0

>  <SCORE.SYSTEM.norm>
0

>  <SCORE.heavy>
40

>  <SCORE.norm>
-0.454473

>  <RMSD>
5.390

$$$$
ligand
 OpenBabel11021811513D
libRbt.so/2013.1/901 2013/11/27
 40 42  0  0  0  0  0  0  0  0999 V2000
    4.4108   -6.1048   19.8792 C   0  0  2  0  0  0  0  0  0  0  0  0
    3.0361   -6.5059   19.7679 O   0  0  0  0  0  0  0  0  0  0  0  0
    5.2280   -7.1563   20.7194 C   0  0  1  0  0  0  0  0  0  0  0  0
    4.7495   -7.2019   22.1999 C   0  0  2  0  0  0  0  0  0  0  0  0
    4.9505   -5.7778   22.8079 C   0  0  2  0  0  0  0  0  0  0  0  0
    4.5401   -5.7893   24.1921 O   0  0  0  0  0  0  0  0  0  0  0  0
    4.0797   -4.7438   21.9688 C   0  0  2  0  0  0  0  0  0  0  0  0
    4.5234   -4.7600   20.5290 O   0  0  0  0  0  0  0  0  0  0  0  0
    4.2242   -3.3147   22.4736 C   0  0  0  0  0  0  0  0  0  0  0  0
    3.3064   -2.3803   21.7489 N   0  0  0  0  0  0  0  0  0  0  0  0
    1.2810   -9.0611   16.6502 C   0  0  2  0  0  0  0  0  0  0  0  0
    0.9180  -10.2498   15.9142 N   0  0  0  0  0  0  0  0  0  0  0  0
    2.8570   -8.9489   16.7302 C   0  0  0  0  0  0  0  0  0  0  0  0
    3.2731   -7.6432   17.5445 C   0  0  2  0  0  0  0  0  0  0  0  0
    4.7540   -7.5305   17.6046 N   0  0  0  0  0  0  0  0  0  0  0  0
    2.6386   -7.7142   19.0105 C   0  0  2  0  0  0  0  0  0  0  0  0
    1.0603   -7.8275   18.8772 C   0  0  2  0  0  0  0  0  0  0  0  0
    0.4831   -7.8878   20.1835 O   0  0  0  0  0  0  0  0  0  0  0  0
    0.6628   -9.1228   18.0651 C   0  0  1  0  0  0  0  0  0  0  0  0
   -0.7786   -9.2003   17.9344 O   0  0  0  0  0  0  0  0  0  0  0  0
   -1.6737   -9.3265   18.9869 C   0  0  2  0  0  0  0  0  0  0  0  0
   -2.7338  -10.4098   18.5775 C   0  0  2  0  0  0  0  0  0  0  0  0
   -2.0912  -11.6085   18.2856 O   0  0  0  0  0  0  0  0  0  0  0  0
   -3.6296   -9.9273   17.3584 C   0  0  1  0  0  0  0  0  0  0  0  0
   -4.6398  -10.9680   16.9934 N   0  0  0  0  0  0  0  0  0  0  0  0
   -4.3382   -8.5598   17.7572 C   0  0  2  0  0  0  0  0  0  0  0  0
   -5.1711   -8.0883   16.6906 O   0  0  0  0  0  0  0  0  0  0  0  0
   -3.2151   -7.5132   18.1209 C   0  0  2  0  0  0  0  0  0  0  0  0
   -2.3431   -8.0284   19.2579 O   0  0  0  0  0  0  0  0  0  0  0  0
   -3.8153   -6.1896   18.5312 C   0  0  0  0  0  0  0  0  0  0  0  0
   -4.9816   -6.3415   19.3614 O   0  0  0  0  0  0  0  0  0  0  0  0
    5.0785   -8.4617   20.0887 O   0  0  0  0  0  0  0  0  0  0  0  0
    5.5022   -8.1232   22.8871 O   0  0  0  0  0  0  0  0  0  0  0  0
    0.7423  -10.1615   14.4830 C   0  0  0  0  0  0  0  0  0  0  0  0
    0.4738   -9.0441   13.9497 O   0  0  0  0  0  0  0  0  0  0  0  0
    0.8887  -11.4701   13.6473 C   0  0  2  0  0  0  0  0  0  0  0  0
    2.7005  -13.6987   12.6449 N   0  0  0  0  0  0  0  0  0  0  0  0
    1.9861  -11.3122   12.5499 C   0  0  0  0  0  0  0  0  0  0  0  0
    2.2421  -12.6042   11.7560 C   0  0  0  0  0  0  0  0  0  0  0  0
   -0.1757  -11.7725   13.0199 O   0  0  0  0  0  0  0  0  0  0  0  0
  1  2  1  1  0  0  0
  1  3  1  0  0  0  0
  1  8  1  0  0  0  0
  3  4  1  0  0  0  0
  3 32  1  6  0  0  0
  4  5  1  0  0  0  0
  4 33  1  1  0  0  0
  5  6  1  1  0  0  0
  5  7  1  0  0  0  0
  7  8  1  0  0  0  0
  7  9  1  1  0  0  0
  9 10  1  0  0  0  0
 11 12  1  6  0  0  0
 11 13  1  0  0  0  0
 11 19  1  0  0  0  0
 12 34  1  0  0  0  0
 13 14  1  0  0  0  0
 14 15  1  1  0  0  0
 14 16  1  0  0  0  0
 16  2  1  1  0  0  0
 16 17  1  0  0  0  0
 17 18  1  1  0  0  0
 17 19  1  0  0  0  0
 19 20  1  6  0  0  0
 21 20  1  6  0  0  0
 21 22  1  0  0  0  0
 21 29  1  0  0  0  0
 22 23  1  6  0  0  0
 22 24  1  0  0  0  0
 24 25  1  1  0  0  0
 24 26  1  0  0  0  0
 26 27  1  6  0  0  0
 26 28  1  0  0  0  0
 28 29  1  0  0  0  0
 28 30  1  1  0  0  0
 30 31  1  0  0  0  0
 34 35  2  0  0  0  0
 36 34  1  6  0  0  0
 36 38  1  0  0  0  0
 36 40  1  0  0  0  0
 37 39  1  0  0  0  0
 38 39  1  0  0  0  0
M  END
>  <CHROM.1>
-66.55044005,-52.29620949,-174.98498772,-90.33036182,177.16428850,-135.82428804
40.58633278,-123.04571099,176.06316533,-60.45753959,1.00570213,-8.30416164
18.27022331,-0.95241487,-0.00051028,-2.21355718

>  <Name>
ligand

>  <RI>
0

>  <Rbt.Current_Directory>
/home/itssahil/PROJECTS/Mol_Feturizer/New_Systems/rnas/4P20

>  <Rbt.Executable>
rbdock ($Id: //depot/dev/client3/rdock/2013.1/src/exe/rbdock.cxx#4 $)

>  <Rbt.Library>
libRbt.so (2013.1, Build901 2013/11/27)

>  <Rbt.Parameter_File>
/export/apps/rDock/src/rDock_2013.1_src/data/scripts/dock_solv.prm

>  <Rbt.Receptor>
prm/pocket_docking_5.prm

>  <SCORE>
-17.6669

>  <SCORE.INTER>
-13.3714

>  <SCORE.INTER.CONST>
1

>  <SCORE.INTER.POLAR>
0

>  <SCORE.INTER.ROT>
10

>  <SCORE.INTER.SOLV>
23.434

>  <SCORE.INTER.VDW>
-26.9923

>  <SCORE.INTER.norm>
-0.334286

>  <SCORE.INTRA>
-4.29548

>  <SCORE.INTRA.DIHEDRAL>
-17.2551

>  <SCORE.INTRA.DIHEDRAL.0>
28.2802

>  <SCORE.INTRA.POLAR>
0

>  <SCORE.INTRA.POLAR.0>
0

>  <SCORE.INTRA.REPUL>
0

>  <SCORE.INTRA.REPUL.0>
0

>  <SCORE.INTRA.SOLV>
2.25669

>  <SCORE.INTRA.SOLV.lig_0>
-101.981

>  <SCORE.INTRA.VDW>
3.20371

>  <SCORE.INTRA.VDW.0>
-5.72964

>  <SCORE.INTRA.norm>
-0.107387

>  <SCORE.RESTR>
0

>  <SCORE.RESTR.CAVITY>
0

>  <SCORE.RESTR.norm>
0

>  <SCORE.SYSTEM>
0

>  <SCORE.SYSTEM.CONST>
0

>  <SCORE.SYSTEM.DIHEDRAL>
0

>  <SCORE.SYSTEM.SOLV>
0

>  <SCORE.SYSTEM.norm>
0

>  <SCORE.heavy>
40

>  <SCORE.norm>
-0.441673

>  <RMSD>
5.411

$$$$
ligand
 OpenBabel11021811513D
libRbt.so/2013.1/901 2013/11/27
 40 42  0  0  0  0  0  0  0  0999 V2000
    3.6006   -6.0112   20.0030 C   0  0  2  0  0  0  0  0  0  0  0  0
    2.7329   -6.9791   20.6138 O   0  0  0  0  0  0  0  0  0  0  0  0
    4.8235   -5.6929   20.9425 C   0  0  1  0  0  0  0  0  0  0  0  0
    4.3693   -4.9869   22.2532 C   0  0  2  0  0  0  0  0  0  0  0  0
    3.6576   -3.6557   21.8534 C   0  0  2  0  0  0  0  0  0  0  0  0
    3.2446   -2.9595   23.0489 O   0  0  0  0  0  0  0  0  0  0  0  0
    2.4017   -4.0093   20.9428 C   0  0  2  0  0  0  0  0  0  0  0  0
    2.8614   -4.7421   19.7091 O   0  0  0  0  0  0  0  0  0  0  0  0
    1.6480   -2.7694   20.4814 C   0  0  0  0  0  0  0  0  0  0  0  0
    1.1144   -1.9875   21.6409 N   0  0  0  0  0  0  0  0  0  0  0  0
    0.7553   -8.9419   17.2128 C   0  0  2  0  0  0  0  0  0  0  0  0
    0.0689   -9.9497   16.4384 N   0  0  0  0  0  0  0  0  0  0  0  0
    2.1509   -9.5069   17.6984 C   0  0  0  0  0  0  0  0  0  0  0  0
    2.9185   -8.4066   18.5592 C   0  0  2  0  0  0  0  0  0  0  0  0
    4.2365   -8.9332   19.0007 N   0  0  0  0  0  0  0  0  0  0  0  0
    2.0127   -7.9927   19.8102 C   0  0  2  0  0  0  0  0  0  0  0  0
    0.6264   -7.4350   19.2726 C   0  0  2  0  0  0  0  0  0  0  0  0
   -0.1896   -7.0585   20.3842 O   0  0  0  0  0  0  0  0  0  0  0  0
   -0.1209   -8.5338   18.4186 C   0  0  1  0  0  0  0  0  0  0  0  0
   -1.3732   -8.0026   17.9183 O   0  0  0  0  0  0  0  0  0  0  0  0
   -2.4541   -7.6249   18.7018 C   0  0  2  0  0  0  0  0  0  0  0  0
   -2.7992   -8.8327   19.6438 C   0  0  2  0  0  0  0  0  0  0  0  0
   -1.6852   -9.1651   20.4078 O   0  0  0  0  0  0  0  0  0  0  0  0
   -3.3288  -10.0863   18.8257 C   0  0  1  0  0  0  0  0  0  0  0  0
   -3.6630  -11.2197   19.7425 N   0  0  0  0  0  0  0  0  0  0  0  0
   -4.6014   -9.6420   17.9806 C   0  0  2  0  0  0  0  0  0  0  0  0
   -5.1259  -10.7457   17.2321 O   0  0  0  0  0  0  0  0  0  0  0  0
   -4.1726   -8.4533   17.0361 C   0  0  2  0  0  0  0  0  0  0  0  0
   -3.6222   -7.2886   17.8479 O   0  0  0  0  0  0  0  0  0  0  0  0
   -5.3396   -7.9625   16.2130 C   0  0  0  0  0  0  0  0  0  0  0  0
   -6.4128   -7.4466   17.0223 O   0  0  0  0  0  0  0  0  0  0  0  0
    5.5086   -6.9441   21.2414 O   0  0  0  0  0  0  0  0  0  0  0  0
    5.4735   -4.7223   23.0267 O   0  0  0  0  0  0  0  0  0  0  0  0
    0.5361  -10.2467   15.1041 C   0  0  0  0  0  0  0  0  0  0  0  0
    1.2097   -9.3837   14.4665 O   0  0  0  0  0  0  0  0  0  0  0  0
    0.1783  -11.6386   14.4982 C   0  0  2  0  0  0  0  0  0  0  0  0
    2.6762  -13.1768   13.4583 N   0  0  0  0  0  0  0  0  0  0  0  0
    0.6775  -11.7514   13.0246 C   0  0  0  0  0  0  0  0  0  0  0  0
    2.2053  -11.8828   12.9088 C   0  0  0  0  0  0  0  0  0  0  0  0
   -1.0762  -11.8427   14.4467 O   0  0  0  0  0  0  0  0  0  0  0  0
  1  2  1  1  0  0  0
  1  3  1  0  0  0  0
  1  8  1  0  0  0  0
  3  4  1  0  0  0  0
  3 32  1  1  0  0  0
  4  5  1  0  0  0  0
  4 33  1  1  0  0  0
  5  6  1  1  0  0  0
  5  7  1  0  0  0  0
  7  8  1  0  0  0  0
  7  9  1  6  0  0  0
  9 10  1  0  0  0  0
 11 12  1  1  0  0  0
 11 13  1  0  0  0  0
 11 19  1  0  0  0  0
 12 34  1  0  0  0  0
 13 14  1  0  0  0  0
 14 15  1  1  0  0  0
 14 16  1  0  0  0  0
 16  2  1  6  0  0  0
 16 17  1  0  0  0  0
 17 18  1  1  0  0  0
 17 19  1  0  0  0  0
 19 20  1  6  0  0  0
 21 20  1  6  0  0  0
 21 22  1  0  0  0  0
 21 29  1  0  0  0  0
 22 23  1  6  0  0  0
 22 24  1  0  0  0  0
 24 25  1  1  0  0  0
 24 26  1  0  0  0  0
 26 27  1  6  0  0  0
 26 28  1  0  0  0  0
 28 29  1  0  0  0  0
 28 30  1  1  0  0  0
 30 31  1  0  0  0  0
 34 35  2  0  0  0  0
 36 34  1  6  0  0  0
 36 38  1  0  0  0  0
 36 40  1  0  0  0  0
 37 39  1  0  0  0  0
 38 39  1  0  0  0  0
M  END
>  <CHROM.1>
-145.34154502,33.43370838,-60.83193556,-73.25629480,174.92296478,-52.58292252
61.63513492,176.21020754,72.08032650,67.43453155,0.37733424,-7.94499001,18.49439180
-0.94480073,-0.01412225,-2.35538114

>  <Name>
ligand

>  <RI>
0

>  <Rbt.Current_Directory>
/home/itssahil/PROJECTS/Mol_Feturizer/New_Systems/rnas/4P20

>  <Rbt.Executable>
rbdock ($Id: //depot/dev/client3/rdock/2013.1/src/exe/rbdock.cxx#4 $)

>  <Rbt.Library>
libRbt.so (2013.1, Build901 2013/11/27)

>  <Rbt.Parameter_File>
/export/apps/rDock/src/rDock_2013.1_src/data/scripts/dock_solv.prm

>  <Rbt.Receptor>
prm/pocket_docking_3.prm

>  <SCORE>
-14.4938

>  <SCORE.INTER>
-10.5066

>  <SCORE.INTER.CONST>
1

>  <SCORE.INTER.POLAR>
0

>  <SCORE.INTER.ROT>
10

>  <SCORE.INTER.SOLV>
14.8591

>  <SCORE.INTER.VDW>
-22.2241

>  <SCORE.INTER.norm>
-0.262666

>  <SCORE.INTRA>
-4.00942

>  <SCORE.INTRA.DIHEDRAL>
-18.7858

>  <SCORE.INTRA.DIHEDRAL.0>
28.2802

>  <SCORE.INTRA.POLAR>
0

>  <SCORE.INTRA.POLAR.0>
0

>  <SCORE.INTRA.REPUL>
0

>  <SCORE.INTRA.REPUL.0>
0

>  <SCORE.INTRA.SOLV>
2.9064

>  <SCORE.INTRA.SOLV.lig_0>
-101.981

>  <SCORE.INTRA.VDW>
3.93029

>  <SCORE.INTRA.VDW.0>
-5.72964

>  <SCORE.INTRA.norm>
-0.100236

>  <SCORE.RESTR>
0.0222217

>  <SCORE.RESTR.CAVITY>
0.0222217

>  <SCORE.RESTR.norm>
0.000555542

>  <SCORE.SYSTEM>
0

>  <SCORE.SYSTEM.CONST>
0

>  <SCORE.SYSTEM.DIHEDRAL>
0

>  <SCORE.SYSTEM.SOLV>
0

>  <SCORE.SYSTEM.norm>
0

>  <SCORE.heavy>
40

>  <SCORE.norm>
-0.362346

>  <RMSD>
5.434

$$$$
ligand
 OpenBabel11021811513D
libRbt.so/2013.1/901 2013/11/27
 40 42  0  0  0  0  0  0  0  0999 V2000
    2.0458   -7.1563   20.0296 C   0  0  2  0  0  0  0  0  0  0  0  0
    2.5347   -7.2373   18.6815 O   0  0  0  0  0  0  0  0  0  0  0  0
    2.5871   -5.8583   20.7379 C   0  0  1  0  0  0  0  0  0  0  0  0
    4.1319   -5.9089   20.9218 C   0  0  2  0  0  0  0  0  0  0  0  0
    4.4652   -7.1586   21.7966 C   0  0  2  0  0  0  0  0  0  0  0  0
    5.8917   -7.2230   22.0102 O   0  0  0  0  0  0  0  0  0  0  0  0
    3.9481   -8.4578   21.0375 C   0  0  2  0  0  0  0  0  0  0  0  0
    2.4604   -8.3587   20.8208 O   0  0  0  0  0  0  0  0  0  0  0  0
    4.2096   -9.7355   21.8232 C   0  0  0  0  0  0  0  0  0  0  0  0
    5.6670  -10.0757   21.8500 N   0  0  0  0  0  0  0  0  0  0  0  0
    1.0084   -9.4054   15.1744 C   0  0  2  0  0  0  0  0  0  0  0  0
    0.6601  -10.5032   14.3027 N   0  0  0  0  0  0  0  0  0  0  0  0
    2.5668   -9.4199   15.4469 C   0  0  0  0  0  0  0  0  0  0  0  0
    2.9659   -8.2159   16.4122 C   0  0  2  0  0  0  0  0  0  0  0  0
    4.4326   -8.2212   16.6539 N   0  0  0  0  0  0  0  0  0  0  0  0
    2.1536   -8.3503   17.7829 C   0  0  2  0  0  0  0  0  0  0  0  0
    0.5994   -8.3326   17.4574 C   0  0  2  0  0  0  0  0  0  0  0  0
   -0.1360   -8.4486   18.6776 O   0  0  0  0  0  0  0  0  0  0  0  0
    0.2191   -9.5279   16.4973 C   0  0  1  0  0  0  0  0  0  0  0  0
   -1.1974   -9.4853   16.1934 O   0  0  0  0  0  0  0  0  0  0  0  0
   -1.8937  -10.4490   15.4784 C   0  0  2  0  0  0  0  0  0  0  0  0
   -3.4124  -10.3076   15.8508 C   0  0  2  0  0  0  0  0  0  0  0  0
   -3.8485   -9.0188   15.5610 O   0  0  0  0  0  0  0  0  0  0  0  0
   -3.6838  -10.6769   17.3711 C   0  0  1  0  0  0  0  0  0  0  0  0
   -5.1369  -10.5476   17.7007 N   0  0  0  0  0  0  0  0  0  0  0  0
   -3.1688  -12.1590   17.6347 C   0  0  2  0  0  0  0  0  0  0  0  0
   -3.4039  -12.5451   18.9945 O   0  0  0  0  0  0  0  0  0  0  0  0
   -1.6342  -12.2167   17.2734 C   0  0  2  0  0  0  0  0  0  0  0  0
   -1.4036  -11.8078   15.8249 O   0  0  0  0  0  0  0  0  0  0  0  0
   -1.0770  -13.6049   17.4803 C   0  0  0  0  0  0  0  0  0  0  0  0
   -1.1138  -14.0190   18.8587 O   0  0  0  0  0  0  0  0  0  0  0  0
    2.2008   -4.7045   19.9357 O   0  0  0  0  0  0  0  0  0  0  0  0
    4.5468   -4.7616   21.5537 O   0  0  0  0  0  0  0  0  0  0  0  0
    1.4694  -10.7525   13.1323 C   0  0  0  0  0  0  0  0  0  0  0  0
    2.1652   -9.8167   12.6373 O   0  0  0  0  0  0  0  0  0  0  0  0
    1.4439  -12.1863   12.5190 C   0  0  2  0  0  0  0  0  0  0  0  0
    2.2195  -14.5069   15.5484 N   0  0  0  0  0  0  0  0  0  0  0  0
    2.2103  -13.1963   13.4278 C   0  0  0  0  0  0  0  0  0  0  0  0
    1.4309  -13.5861   14.6950 C   0  0  0  0  0  0  0  0  0  0  0  0
    2.0208  -12.2452   11.3868 O   0  0  0  0  0  0  0  0  0  0  0  0
  1  2  1  6  0  0  0
  1  3  1  0  0  0  0
  1  8  1  0  0  0  0
  3  4  1  0  0  0  0
  3 32  1  6  0  0  0
  4  5  1  0  0  0  0
  4 33  1  1  0  0  0
  5  6  1  6  0  0  0
  5  7  1  0  0  0  0
  7  8  1  0  0  0  0
  7  9  1  1  0  0  0
  9 10  1  0  0  0  0
 11 12  1  6  0  0  0
 11 13  1  0  0  0  0
 11 19  1  0  0  0  0
 12 34  1  0  0  0  0
 13 14  1  0  0  0  0
 14 15  1  1  0  0  0
 14 16  1  0  0  0  0
 16  2  1  1  0  0  0
 16 17  1  0  0  0  0
 17 18  1  1  0  0  0
 17 19  1  0  0  0  0
 19 20  1  6  0  0  0
 21 20  1  1  0  0  0
 21 22  1  0  0  0  0
 21 29  1  0  0  0  0
 22 23  1  1  0  0  0
 22 24  1  0  0  0  0
 24 25  1  6  0  0  0
 24 26  1  0  0  0  0
 26 27  1  1  0  0  0
 26 28  1  0  0  0  0
 28 29  1  0  0  0  0
 28 30  1  6  0  0  0
 30 31  1  0  0  0  0
 34 35  2  0  0  0  0
 36 34  1  1  0  0  0
 36 38  1  0  0  0  0
 36 40  1  0  0  0  0
 37 39  1  0  0  0  0
 38 39  1  0  0  0  0
M  END
>  <CHROM.1>
-178.77170823,-174.89628219,-70.97053456,-45.64827628,66.12515634,158.57890989
-64.29329121,-72.16893374,74.84578933,-177.92492847,1.02605120,-9.74344264
17.45133936,0.95613447,0.28905761,1.06009207

>  <Name>
ligand

>  <RI>
0

>  <Rbt.Current_Directory>
/home/itssahil/PROJECTS/Mol_Feturizer/New_Systems/rnas/4P20

>  <Rbt.Executable>
rbdock ($Id: //depot/dev/client3/rdock/2013.1/src/exe/rbdock.cxx#4 $)

>  <Rbt.Library>
libRbt.so (2013.1, Build901 2013/11/27)

>  <Rbt.Parameter_File>
/export/apps/rDock/src/rDock_2013.1_src/data/scripts/dock_solv.prm

>  <Rbt.Receptor>
prm/pocket_docking_4.prm

>  <SCORE>
-16.3679

>  <SCORE.INTER>
-6.43508

>  <SCORE.INTER.CONST>
1

>  <SCORE.INTER.POLAR>
0

>  <SCORE.INTER.ROT>
10

>  <SCORE.INTER.SOLV>
17.3742

>  <SCORE.INTER.VDW>
-20.3481

>  <SCORE.INTER.norm>
-0.160877

>  <SCORE.INTRA>
-9.93278

>  <SCORE.INTRA.DIHEDRAL>
-23.5596

>  <SCORE.INTRA.DIHEDRAL.0>
28.2802

>  <SCORE.INTRA.POLAR>
0

>  <SCORE.INTRA.POLAR.0>
0

>  <SCORE.INTRA.REPUL>
0

>  <SCORE.INTRA.REPUL.0>
0

>  <SCORE.INTRA.SOLV>
-0.275001

>  <SCORE.INTRA.SOLV.lig_0>
-101.981

>  <SCORE.INTRA.VDW>
1.98452

>  <SCORE.INTRA.VDW.0>
-5.72964

>  <SCORE.INTRA.norm>
-0.248319

>  <SCORE.RESTR>
0

>  <SCORE.RESTR.CAVITY>
0

>  <SCORE.RESTR.norm>
0

>  <SCORE.SYSTEM>
0

>  <SCORE.SYSTEM.CONST>
0

>  <SCORE.SYSTEM.DIHEDRAL>
0

>  <SCORE.SYSTEM.SOLV>
0

>  <SCORE.SYSTEM.norm>
0

>  <SCORE.heavy>
40

>  <SCORE.norm>
-0.409196

>  <RMSD>
5.447

$$$$
ligand
 OpenBabel11021811513D
libRbt.so/2013.1/901 2013/11/27
 40 42  0  0  0  0  0  0  0  0999 V2000
    2.5986   -7.4299   19.6296 C   0  0  2  0  0  0  0  0  0  0  0  0
    3.2652   -7.3676   18.3588 O   0  0  0  0  0  0  0  0  0  0  0  0
    3.0214   -6.2143   20.5367 C   0  0  1  0  0  0  0  0  0  0  0  0
    4.5281   -6.2843   20.9213 C   0  0  2  0  0  0  0  0  0  0  0  0
    4.7586   -7.6198   21.6969 C   0  0  2  0  0  0  0  0  0  0  0  0
    6.1442   -7.7067   22.0932 O   0  0  0  0  0  0  0  0  0  0  0  0
    4.3665   -8.8311   20.7428 C   0  0  2  0  0  0  0  0  0  0  0  0
    2.9201   -8.7094   20.3387 O   0  0  0  0  0  0  0  0  0  0  0  0
    4.5381  -10.1849   21.4180 C   0  0  0  0  0  0  0  0  0  0  0  0
    5.9824  -10.5088   21.6408 N   0  0  0  0  0  0  0  0  0  0  0  0
    2.3218   -9.5638   14.6687 C   0  0  2  0  0  0  0  0  0  0  0  0
    2.2487  -10.6442   13.7128 N   0  0  0  0  0  0  0  0  0  0  0  0
    3.8375   -9.2344   14.9801 C   0  0  0  0  0  0  0  0  0  0  0  0
    3.9342   -8.0460   16.0381 C   0  0  2  0  0  0  0  0  0  0  0  0
    5.3589   -7.7268   16.3172 N   0  0  0  0  0  0  0  0  0  0  0  0
    3.1640   -8.4685   17.3742 C   0  0  2  0  0  0  0  0  0  0  0  0
    1.6520   -8.7899   17.0102 C   0  0  2  0  0  0  0  0  0  0  0  0
    0.9537   -9.1652   18.1995 O   0  0  0  0  0  0  0  0  0  0  0  0
    1.5716   -9.9658   15.9585 C   0  0  1  0  0  0  0  0  0  0  0  0
    0.1874  -10.2324   15.6214 O   0  0  0  0  0  0  0  0  0  0  0  0
   -0.2562  -11.2719   14.8167 C   0  0  2  0  0  0  0  0  0  0  0  0
   -1.8199  -11.3327   14.9435 C   0  0  2  0  0  0  0  0  0  0  0  0
   -2.3687  -10.1090   14.5739 O   0  0  0  0  0  0  0  0  0  0  0  0
   -2.2773  -11.7483   16.4062 C   0  0  1  0  0  0  0  0  0  0  0  0
   -3.7686  -11.8122   16.5012 N   0  0  0  0  0  0  0  0  0  0  0  0
   -1.6223  -13.1532   16.7645 C   0  0  2  0  0  0  0  0  0  0  0  0
   -2.0167  -13.5792   18.0747 O   0  0  0  0  0  0  0  0  0  0  0  0
   -0.0555  -13.0073   16.6502 C   0  0  2  0  0  0  0  0  0  0  0  0
    0.3455  -12.5585   15.2515 O   0  0  0  0  0  0  0  0  0  0  0  0
    0.6377  -14.3131   16.9582 C   0  0  0  0  0  0  0  0  0  0  0  0
    2.0727  -14.2026   16.9226 O   0  0  0  0  0  0  0  0  0  0  0  0
    2.7300   -4.9819   19.8154 O   0  0  0  0  0  0  0  0  0  0  0  0
    4.8381   -5.2105   21.7203 O   0  0  0  0  0  0  0  0  0  0  0  0
    2.7094  -10.4175   12.3625 C   0  0  0  0  0  0  0  0  0  0  0  0
    2.7544   -9.2379   11.9027 O   0  0  0  0  0  0  0  0  0  0  0  0
    3.1322  -11.6582   11.5174 C   0  0  2  0  0  0  0  0  0  0  0  0
    1.1730  -14.6660   13.0211 N   0  0  0  0  0  0  0  0  0  0  0  0
    2.0766  -12.8007   11.6358 C   0  0  0  0  0  0  0  0  0  0  0  0
    2.0903  -13.5014   13.0047 C   0  0  0  0  0  0  0  0  0  0  0  0
    4.2286  -12.1689   11.9113 O   0  0  0  0  0  0  0  0  0  0  0  0
  1  2  1  6  0  0  0
  1  3  1  0  0  0  0
  1  8  1  0  0  0  0
  3  4  1  0  0  0  0
  3 32  1  6  0  0  0
  4  5  1  0  0  0  0
  4 33  1  1  0  0  0
  5  6  1  6  0  0  0
  5  7  1  0  0  0  0
  7  8  1  0  0  0  0
  7  9  1  1  0  0  0
  9 10  1  0  0  0  0
 11 12  1  6  0  0  0
 11 13  1  0  0  0  0
 11 19  1  0  0  0  0
 12 34  1  0  0  0  0
 13 14  1  0  0  0  0
 14 15  1  1  0  0  0
 14 16  1  0  0  0  0
 16  2  1  1  0  0  0
 16 17  1  0  0  0  0
 17 18  1  1  0  0  0
 17 19  1  0  0  0  0
 19 20  1  6  0  0  0
 21 20  1  1  0  0  0
 21 22  1  0  0  0  0
 21 29  1  0  0  0  0
 22 23  1  1  0  0  0
 22 24  1  0  0  0  0
 24 25  1  6  0  0  0
 24 26  1  0  0  0  0
 26 27  1  1  0  0  0
 26 28  1  0  0  0  0
 28 29  1  0  0  0  0
 28 30  1  6  0  0  0
 30 31  1  0  0  0  0
 34 35  2  0  0  0  0
 36 34  1  1  0  0  0
 36 38  1  0  0  0  0
 36 40  1  0  0  0  0
 37 39  1  0  0  0  0
 38 39  1  0  0  0  0
M  END
>  <CHROM.1>
173.04095835,176.24962025,-69.34888068,-67.42170040,65.78148432,169.71560122
-177.36844034,46.37406771,-72.42274545,-174.08622620,2.05120502,-10.10267952
16.82609071,1.03857192,0.59184694,1.23425711

>  <Name>
ligand

>  <RI>
0

>  <Rbt.Current_Directory>
/home/itssahil/PROJECTS/Mol_Feturizer/New_Systems/rnas/4P20

>  <Rbt.Executable>
rbdock ($Id: //depot/dev/client3/rdock/2013.1/src/exe/rbdock.cxx#4 $)

>  <Rbt.Library>
libRbt.so (2013.1, Build901 2013/11/27)

>  <Rbt.Parameter_File>
/export/apps/rDock/src/rDock_2013.1_src/data/scripts/dock_solv.prm

>  <Rbt.Receptor>
prm/pocket_docking_4.prm

>  <SCORE>
-16.4112

>  <SCORE.INTER>
-6.5122

>  <SCORE.INTER.CONST>
1

>  <SCORE.INTER.POLAR>
0

>  <SCORE.INTER.ROT>
10

>  <SCORE.INTER.SOLV>
21.4589

>  <SCORE.INTER.VDW>
-21.7611

>  <SCORE.INTER.norm>
-0.162805

>  <SCORE.INTRA>
-9.89897

>  <SCORE.INTRA.DIHEDRAL>
-25.2421

>  <SCORE.INTRA.DIHEDRAL.0>
28.2802

>  <SCORE.INTRA.POLAR>
0

>  <SCORE.INTRA.POLAR.0>
0

>  <SCORE.INTRA.REPUL>
0

>  <SCORE.INTRA.REPUL.0>
0

>  <SCORE.INTRA.SOLV>
1.59408

>  <SCORE.INTRA.SOLV.lig_0>
-101.981

>  <SCORE.INTRA.VDW>
1.92505

>  <SCORE.INTRA.VDW.0>
-5.72964

>  <SCORE.INTRA.norm>
-0.247474

>  <SCORE.RESTR>
0

>  <SCORE.RESTR.CAVITY>
0

>  <SCORE.RESTR.norm>
0

>  <SCORE.SYSTEM>
0

>  <SCORE.SYSTEM.CONST>
0

>  <SCORE.SYSTEM.DIHEDRAL>
0

>  <SCORE.SYSTEM.SOLV>
0

>  <SCORE.SYSTEM.norm>
0

>  <SCORE.heavy>
40

>  <SCORE.norm>
-0.410279

>  <RMSD>
5.463

$$$$
ligand
 OpenBabel11021811513D
libRbt.so/2013.1/901 2013/11/27
 40 42  0  0  0  0  0  0  0  0999 V2000
    1.9115   -6.4996   20.3249 C   0  0  2  0  0  0  0  0  0  0  0  0
    2.3652   -6.7466   18.9847 O   0  0  0  0  0  0  0  0  0  0  0  0
    2.4478   -5.1133   20.8444 C   0  0  1  0  0  0  0  0  0  0  0  0
    3.9977   -5.1170   20.9882 C   0  0  2  0  0  0  0  0  0  0  0  0
    4.3774   -6.2385   22.0063 C   0  0  2  0  0  0  0  0  0  0  0  0
    5.8100   -6.2539   22.1847 O   0  0  0  0  0  0  0  0  0  0  0  0
    3.8638   -7.6322   21.4358 C   0  0  2  0  0  0  0  0  0  0  0  0
    2.3692   -7.5837   21.2516 O   0  0  0  0  0  0  0  0  0  0  0  0
    4.1697   -8.7939   22.3713 C   0  0  0  0  0  0  0  0  0  0  0  0
    5.5774   -9.2756   22.2073 N   0  0  0  0  0  0  0  0  0  0  0  0
    0.5213   -9.0184   15.7031 C   0  0  2  0  0  0  0  0  0  0  0  0
    0.0414  -10.1407   14.9308 N   0  0  0  0  0  0  0  0  0  0  0  0
    2.0799   -9.1621   15.9332 C   0  0  0  0  0  0  0  0  0  0  0  0
    2.6236   -7.9322   16.7890 C   0  0  2  0  0  0  0  0  0  0  0  0
    4.0908   -8.0603   16.9903 N   0  0  0  0  0  0  0  0  0  0  0  0
    1.8503   -7.8830   18.1877 C   0  0  2  0  0  0  0  0  0  0  0  0
    0.2942   -7.7404   17.9043 C   0  0  2  0  0  0  0  0  0  0  0  0
   -0.4060   -7.6918   19.1495 O   0  0  0  0  0  0  0  0  0  0  0  0
   -0.2297   -8.9632   17.0525 C   0  0  1  0  0  0  0  0  0  0  0  0
   -1.6456   -8.8075   16.7849 O   0  0  0  0  0  0  0  0  0  0  0  0
   -2.6474   -8.8027   17.7447 C   0  0  2  0  0  0  0  0  0  0  0  0
   -2.8652  -10.2873   18.2071 C   0  0  2  0  0  0  0  0  0  0  0  0
   -1.6705  -10.8069   18.6949 O   0  0  0  0  0  0  0  0  0  0  0  0
   -3.4485  -11.1897   17.0380 C   0  0  1  0  0  0  0  0  0  0  0  0
   -3.6597  -12.5953   17.5033 N   0  0  0  0  0  0  0  0  0  0  0  0
   -4.8119  -10.5461   16.5300 C   0  0  2  0  0  0  0  0  0  0  0  0
   -5.3862  -11.3339   15.4797 O   0  0  0  0  0  0  0  0  0  0  0  0
   -4.5106   -9.0735   16.0509 C   0  0  2  0  0  0  0  0  0  0  0  0
   -3.9053   -8.2503   17.1798 O   0  0  0  0  0  0  0  0  0  0  0  0
   -5.7678   -8.3882   15.5709 C   0  0  0  0  0  0  0  0  0  0  0  0
   -6.4088   -9.0944   14.4923 O   0  0  0  0  0  0  0  0  0  0  0  0
    2.0189   -4.0784   19.9121 O   0  0  0  0  0  0  0  0  0  0  0  0
    4.4085   -3.8919   21.4549 O   0  0  0  0  0  0  0  0  0  0  0  0
    0.7676  -10.5384   13.7470 C   0  0  0  0  0  0  0  0  0  0  0  0
    1.5113   -9.7015   13.1541 O   0  0  0  0  0  0  0  0  0  0  0  0
    0.5948  -12.0040   13.2424 C   0  0  2  0  0  0  0  0  0  0  0  0
    1.2692  -15.4209   14.9849 N   0  0  0  0  0  0  0  0  0  0  0  0
    1.0617  -13.0260   14.3245 C   0  0  0  0  0  0  0  0  0  0  0  0
    0.7910  -14.4891   13.9356 C   0  0  0  0  0  0  0  0  0  0  0  0
    1.3003  -12.2546   12.2141 O   0  0  0  0  0  0  0  0  0  0  0  0
  1  2  1  6  0  0  0
  1  3  1  0  0  0  0
  1  8  1  0  0  0  0
  3  4  1  0  0  0  0
  3 32  1  6  0  0  0
  4  5  1  0  0  0  0
  4 33  1  1  0  0  0
  5  6  1  6  0  0  0
  5  7  1  0  0  0  0
  7  8  1  0  0  0  0
  7  9  1  1  0  0  0
  9 10  1  0  0  0  0
 11 12  1  6  0  0  0
 11 13  1  0  0  0  0
 11 19  1  0  0  0  0
 12 34  1  0  0  0  0
 13 14  1  0  0  0  0
 14 15  1  1  0  0  0
 14 16  1  0  0  0  0
 16  2  1  1  0  0  0
 16 17  1  0  0  0  0
 17 18  1  1  0  0  0
 17 19  1  0  0  0  0
 19 20  1  6  0  0  0
 21 20  1  6  0  0  0
 21 22  1  0  0  0  0
 21 29  1  0  0  0  0
 22 23  1  6  0  0  0
 22 24  1  0  0  0  0
 24 25  1  1  0  0  0
 24 26  1  0  0  0  0
 26 27  1  6  0  0  0
 26 28  1  0  0  0  0
 28 29  1  0  0  0  0
 28 30  1  1  0  0  0
 30 31  1  0  0  0  0
 34 35  2  0  0  0  0
 36 34  1  1  0  0  0
 36 38  1  0  0  0  0
 36 40  1  0  0  0  0
 37 39  1  0  0  0  0
 38 39  1  0  0  0  0
M  END
>  <CHROM.1>
-171.09763998,-176.26707219,-81.76284497,-46.87923941,175.75903411,-75.54752315
-58.07843965,-60.58460923,174.54387300,179.17700163,0.35521392,-8.98591553
17.59345531,0.85726628,-0.11739866,0.79388236

>  <Name>
ligand

>  <RI>
0

>  <Rbt.Current_Directory>
/home/itssahil/PROJECTS/Mol_Feturizer/New_Systems/rnas/4P20

>  <Rbt.Executable>
rbdock ($Id: //depot/dev/client3/rdock/2013.1/src/exe/rbdock.cxx#4 $)

>  <Rbt.Library>
libRbt.so (2013.1, Build901 2013/11/27)

>  <Rbt.Parameter_File>
/export/apps/rDock/src/rDock_2013.1_src/data/scripts/dock_solv.prm

>  <Rbt.Receptor>
prm/pocket_docking_3.prm

>  <SCORE>
-17.6881

>  <SCORE.INTER>
-8.53994

>  <SCORE.INTER.CONST>
1

>  <SCORE.INTER.POLAR>
0

>  <SCORE.INTER.ROT>
10

>  <SCORE.INTER.SOLV>
26.0872

>  <SCORE.INTER.VDW>
-24.6557

>  <SCORE.INTER.norm>
-0.213499

>  <SCORE.INTRA>
-9.14812

>  <SCORE.INTRA.DIHEDRAL>
-23.9969

>  <SCORE.INTRA.DIHEDRAL.0>
28.2802

>  <SCORE.INTRA.POLAR>
0

>  <SCORE.INTRA.POLAR.0>
0

>  <SCORE.INTRA.REPUL>
0

>  <SCORE.INTRA.REPUL.0>
0

>  <SCORE.INTRA.SOLV>
-1.24997

>  <SCORE.INTRA.SOLV.lig_0>
-101.981

>  <SCORE.INTRA.VDW>
3.47534

>  <SCORE.INTRA.VDW.0>
-5.72964

>  <SCORE.INTRA.norm>
-0.228703

>  <SCORE.RESTR>
0

>  <SCORE.RESTR.CAVITY>
0

>  <SCORE.RESTR.norm>
0

>  <SCORE.SYSTEM>
0

>  <SCORE.SYSTEM.CONST>
0

>  <SCORE.SYSTEM.DIHEDRAL>
0

>  <SCORE.SYSTEM.SOLV>
0

>  <SCORE.SYSTEM.norm>
0

>  <SCORE.heavy>
40

>  <SCORE.norm>
-0.442201

>  <RMSD>
5.468

$$$$
ligand
 OpenBabel11021811513D
libRbt.so/2013.1/901 2013/11/27
 40 42  0  0  0  0  0  0  0  0999 V2000
    4.2932   -6.8660   18.6274 C   0  0  2  0  0  0  0  0  0  0  0  0
    2.9676   -7.4186   18.6470 O   0  0  0  0  0  0  0  0  0  0  0  0
    5.2315   -7.6422   19.6256 C   0  0  1  0  0  0  0  0  0  0  0  0
    4.7844   -7.4428   21.1032 C   0  0  2  0  0  0  0  0  0  0  0  0
    4.8420   -5.9137   21.4144 C   0  0  2  0  0  0  0  0  0  0  0  0
    4.4575   -5.6932   22.7885 O   0  0  0  0  0  0  0  0  0  0  0  0
    3.8523   -5.1598   20.4226 C   0  0  2  0  0  0  0  0  0  0  0  0
    4.2720   -5.4149   18.9981 O   0  0  0  0  0  0  0  0  0  0  0  0
    3.8515   -3.6520   20.6337 C   0  0  0  0  0  0  0  0  0  0  0  0
    3.2569   -3.2826   21.9568 N   0  0  0  0  0  0  0  0  0  0  0  0
    1.2505  -10.6060   16.1525 C   0  0  2  0  0  0  0  0  0  0  0  0
    0.9952  -11.9239   15.6194 N   0  0  0  0  0  0  0  0  0  0  0  0
    2.7793  -10.2457   15.9637 C   0  0  0  0  0  0  0  0  0  0  0  0
    3.0775   -8.7946   16.5522 C   0  0  2  0  0  0  0  0  0  0  0  0
    4.5107   -8.4511   16.3592 N   0  0  0  0  0  0  0  0  0  0  0  0
    2.6790   -8.7639   18.1005 C   0  0  2  0  0  0  0  0  0  0  0  0
    1.1405   -9.1327   18.2376 C   0  0  2  0  0  0  0  0  0  0  0  0
    0.7734   -9.1042   19.6187 O   0  0  0  0  0  0  0  0  0  0  0  0
    0.8590  -10.5705   17.6470 C   0  0  1  0  0  0  0  0  0  0  0  0
   -0.5517  -10.8831   17.7606 O   0  0  0  0  0  0  0  0  0  0  0  0
   -1.1282  -12.1088   17.4604 C   0  0  2  0  0  0  0  0  0  0  0  0
   -2.6830  -11.9479   17.6085 C   0  0  2  0  0  0  0  0  0  0  0  0
   -3.1321  -10.9343   16.7682 O   0  0  0  0  0  0  0  0  0  0  0  0
   -3.1070  -11.6749   19.1142 C   0  0  1  0  0  0  0  0  0  0  0  0
   -4.5914  -11.5375   19.2343 N   0  0  0  0  0  0  0  0  0  0  0  0
   -2.5696  -12.8683   20.0188 C   0  0  2  0  0  0  0  0  0  0  0  0
   -2.9392  -12.6741   21.3896 O   0  0  0  0  0  0  0  0  0  0  0  0
   -1.0034  -12.9474   19.8469 C   0  0  2  0  0  0  0  0  0  0  0  0
   -0.6293  -13.1581   18.3860 O   0  0  0  0  0  0  0  0  0  0  0  0
   -0.4213  -14.0758   20.6643 C   0  0  0  0  0  0  0  0  0  0  0  0
    1.0125  -14.1557   20.5601 O   0  0  0  0  0  0  0  0  0  0  0  0
    5.2121   -9.0547   19.2671 O   0  0  0  0  0  0  0  0  0  0  0  0
    5.6423   -8.1289   21.9285 O   0  0  0  0  0  0  0  0  0  0  0  0
    1.1371  -12.1446   14.1988 C   0  0  0  0  0  0  0  0  0  0  0  0
    1.0469  -11.1672   13.3979 O   0  0  0  0  0  0  0  0  0  0  0  0
    1.3941  -13.6028   13.7085 C   0  0  2  0  0  0  0  0  0  0  0  0
    3.6945  -11.7738   12.5469 N   0  0  0  0  0  0  0  0  0  0  0  0
    2.0283  -13.6093   12.2833 C   0  0  0  0  0  0  0  0  0  0  0  0
    3.5163  -13.2209   12.2785 C   0  0  0  0  0  0  0  0  0  0  0  0
    0.3228  -14.2808   13.6049 O   0  0  0  0  0  0  0  0  0  0  0  0
  1  2  1  1  0  0  0
  1  3  1  0  0  0  0
  1  8  1  0  0  0  0
  3  4  1  0  0  0  0
  3 32  1  6  0  0  0
  4  5  1  0  0  0  0
  4 33  1  1  0  0  0
  5  6  1  1  0  0  0
  5  7  1  0  0  0  0
  7  8  1  0  0  0  0
  7  9  1  1  0  0  0
  9 10  1  0  0  0  0
 11 12  1  1  0  0  0
 11 13  1  0  0  0  0
 11 19  1  0  0  0  0
 12 34  1  0  0  0  0
 13 14  1  0  0  0  0
 14 15  1  1  0  0  0
 14 16  1  0  0  0  0
 16  2  1  6  0  0  0
 16 17  1  0  0  0  0
 17 18  1  1  0  0  0
 17 19  1  0  0  0  0
 19 20  1  6  0  0  0
 21 20  1  1  0  0  0
 21 22  1  0  0  0  0
 21 29  1  0  0  0  0
 22 23  1  6  0  0  0
 22 24  1  0  0  0  0
 24 25  1  6  0  0  0
 24 26  1  0  0  0  0
 26 27  1  1  0  0  0
 26 28  1  0  0  0  0
 28 29  1  0  0  0  0
 28 30  1  1  0  0  0
 30 31  1  0  0  0  0
 34 35  2  0  0  0  0
 36 34  1  6  0  0  0
 36 38  1  0  0  0  0
 36 40  1  0  0  0  0
 37 39  1  0  0  0  0
 38 39  1  0  0  0  0
M  END
>  <CHROM.1>
-69.25966415,-59.62819240,-67.57638028,-65.65326934,66.56780445,-175.06071298
-178.42475613,-159.21497260,75.33181765,-72.05560150,1.55198999,-10.05672181
18.04391174,-0.89892060,-0.63491661,-2.11842526

>  <Name>
ligand

>  <RI>
0

>  <Rbt.Current_Directory>
/home/itssahil/PROJECTS/Mol_Feturizer/New_Systems/rnas/4P20

>  <Rbt.Executable>
rbdock ($Id: //depot/dev/client3/rdock/2013.1/src/exe/rbdock.cxx#4 $)

>  <Rbt.Library>
libRbt.so (2013.1, Build901 2013/11/27)

>  <Rbt.Parameter_File>
/export/apps/rDock/src/rDock_2013.1_src/data/scripts/dock_solv.prm

>  <Rbt.Receptor>
prm/pocket_docking_6.prm

>  <SCORE>
-13.1825

>  <SCORE.INTER>
-5.4341

>  <SCORE.INTER.CONST>
1

>  <SCORE.INTER.POLAR>
0

>  <SCORE.INTER.ROT>
10

>  <SCORE.INTER.SOLV>
11.5389

>  <SCORE.INTER.VDW>
-17.7357

>  <SCORE.INTER.norm>
-0.135853

>  <SCORE.INTRA>
-7.7484

>  <SCORE.INTRA.DIHEDRAL>
-24.7235

>  <SCORE.INTRA.DIHEDRAL.0>
28.2802

>  <SCORE.INTRA.POLAR>
0

>  <SCORE.INTRA.POLAR.0>
0

>  <SCORE.INTRA.REPUL>
0

>  <SCORE.INTRA.REPUL.0>
0

>  <SCORE.INTRA.SOLV>
4.72282

>  <SCORE.INTRA.SOLV.lig_0>
-101.981

>  <SCORE.INTRA.VDW>
2.25194

>  <SCORE.INTRA.VDW.0>
-5.72964

>  <SCORE.INTRA.norm>
-0.19371

>  <SCORE.RESTR>
0

>  <SCORE.RESTR.CAVITY>
0

>  <SCORE.RESTR.norm>
0

>  <SCORE.SYSTEM>
0

>  <SCORE.SYSTEM.CONST>
0

>  <SCORE.SYSTEM.DIHEDRAL>
0

>  <SCORE.SYSTEM.SOLV>
0

>  <SCORE.SYSTEM.norm>
0

>  <SCORE.heavy>
40

>  <SCORE.norm>
-0.329563

>  <RMSD>
5.478

$$$$
ligand
 OpenBabel11021811513D
libRbt.so/2013.1/901 2013/11/27
 40 42  0  0  0  0  0  0  0  0999 V2000
    4.2749   -6.0354   19.9620 C   0  0  2  0  0  0  0  0  0  0  0  0
    2.8498   -6.1874   19.8664 O   0  0  0  0  0  0  0  0  0  0  0  0
    4.9056   -7.2278   20.7741 C   0  0  1  0  0  0  0  0  0  0  0  0
    4.4456   -7.2138   22.2611 C   0  0  2  0  0  0  0  0  0  0  0  0
    4.9012   -5.8574   22.8863 C   0  0  2  0  0  0  0  0  0  0  0  0
    4.5130   -5.8202   24.2765 O   0  0  0  0  0  0  0  0  0  0  0  0
    4.2147   -4.6729   22.0758 C   0  0  2  0  0  0  0  0  0  0  0  0
    4.6301   -4.7422   20.6292 O   0  0  0  0  0  0  0  0  0  0  0  0
    4.6141   -3.2999   22.5988 C   0  0  0  0  0  0  0  0  0  0  0  0
    3.8374   -2.2094   21.9294 N   0  0  0  0  0  0  0  0  0  0  0  0
    0.6314   -8.5871   16.9254 C   0  0  2  0  0  0  0  0  0  0  0  0
    0.0562   -9.7379   16.2687 N   0  0  0  0  0  0  0  0  0  0  0  0
    2.2038   -8.7475   16.9931 C   0  0  0  0  0  0  0  0  0  0  0  0
    2.8529   -7.4862   17.7201 C   0  0  2  0  0  0  0  0  0  0  0  0
    4.3315   -7.6307   17.7682 N   0  0  0  0  0  0  0  0  0  0  0  0
    2.2369   -7.3527   19.1897 C   0  0  2  0  0  0  0  0  0  0  0  0
    0.6612   -7.1963   19.0689 C   0  0  2  0  0  0  0  0  0  0  0  0
    0.1013   -7.0724   20.3782 O   0  0  0  0  0  0  0  0  0  0  0  0
    0.0323   -8.4506   18.3433 C   0  0  1  0  0  0  0  0  0  0  0  0
   -1.4022   -8.2828   18.2224 O   0  0  0  0  0  0  0  0  0  0  0  0
   -2.2859   -8.1459   19.2832 C   0  0  2  0  0  0  0  0  0  0  0  0
   -2.5170   -9.5745   19.8922 C   0  0  2  0  0  0  0  0  0  0  0  0
   -1.2994  -10.1187   20.2875 O   0  0  0  0  0  0  0  0  0  0  0  0
   -3.2716  -10.5337   18.8763 C   0  0  1  0  0  0  0  0  0  0  0  0
   -3.4923  -11.8838   19.4807 N   0  0  0  0  0  0  0  0  0  0  0  0
   -4.6533   -9.8583   18.4690 C   0  0  2  0  0  0  0  0  0  0  0  0
   -5.3800  -10.6944   17.5601 O   0  0  0  0  0  0  0  0  0  0  0  0
   -4.3417   -8.4476   17.8352 C   0  0  2  0  0  0  0  0  0  0  0  0
   -3.5736   -7.5716   18.8157 O   0  0  0  0  0  0  0  0  0  0  0  0
   -5.6129   -7.7343   17.4404 C   0  0  0  0  0  0  0  0  0  0  0  0
   -6.5059   -7.5337   18.5517 O   0  0  0  0  0  0  0  0  0  0  0  0
    4.5214   -8.4759   20.1272 O   0  0  0  0  0  0  0  0  0  0  0  0
    5.0338   -8.2642   22.9232 O   0  0  0  0  0  0  0  0  0  0  0  0
    0.3874   -9.9939   14.8860 C   0  0  0  0  0  0  0  0  0  0  0  0
    0.7876   -9.0447   14.1486 O   0  0  0  0  0  0  0  0  0  0  0  0
    0.2289  -11.4518   14.3552 C   0  0  2  0  0  0  0  0  0  0  0  0
    2.7159  -11.4623   11.3587 N   0  0  0  0  0  0  0  0  0  0  0  0
    0.7523  -11.5730   12.8907 C   0  0  0  0  0  0  0  0  0  0  0  0
    2.2569  -11.2840   12.7571 C   0  0  0  0  0  0  0  0  0  0  0  0
   -0.9854  -11.8284   14.3125 O   0  0  0  0  0  0  0  0  0  0  0  0
  1  2  1  1  0  0  0
  1  3  1  0  0  0  0
  1  8  1  0  0  0  0
  3  4  1  0  0  0  0
  3 32  1  6  0  0  0
  4  5  1  0  0  0  0
  4 33  1  1  0  0  0
  5  6  1  1  0  0  0
  5  7  1  0  0  0  0
  7  8  1  0  0  0  0
  7  9  1  1  0  0  0
  9 10  1  0  0  0  0
 11 12  1  1  0  0  0
 11 13  1  0  0  0  0
 11 19  1  0  0  0  0
 12 34  1  0  0  0  0
 13 14  1  0  0  0  0
 14 15  1  1  0  0  0
 14 16  1  0  0  0  0
 16  2  1  6  0  0  0
 16 17  1  0  0  0  0
 17 18  1  1  0  0  0
 17 19  1  0  0  0  0
 19 20  1  6  0  0  0
 21 20  1  6  0  0  0
 21 22  1  0  0  0  0
 21 29  1  0  0  0  0
 22 23  1  6  0  0  0
 22 24  1  0  0  0  0
 24 25  1  1  0  0  0
 24 26  1  0  0  0  0
 26 27  1  6  0  0  0
 26 28  1  0  0  0  0
 28 29  1  0  0  0  0
 28 30  1  1  0  0  0
 30 31  1  0  0  0  0
 34 35  2  0  0  0  0
 36 34  1  6  0  0  0
 36 38  1  0  0  0  0
 36 40  1  0  0  0  0
 37 39  1  0  0  0  0
 38 39  1  0  0  0  0
M  END
>  <CHROM.1>
-61.61055586,-53.09201461,-173.37248398,-63.54444110,179.10262069,-77.70408875
58.65669066,-174.75320540,63.17467697,177.82762189,0.67035877,-8.22745274
18.58413964,-0.79129667,-0.15464234,-2.10477640

>  <Name>
ligand

>  <RI>
0

>  <Rbt.Current_Directory>
/home/itssahil/PROJECTS/Mol_Feturizer/New_Systems/rnas/4P20

>  <Rbt.Executable>
rbdock ($Id: //depot/dev/client3/rdock/2013.1/src/exe/rbdock.cxx#4 $)

>  <Rbt.Library>
libRbt.so (2013.1, Build901 2013/11/27)

>  <Rbt.Parameter_File>
/export/apps/rDock/src/rDock_2013.1_src/data/scripts/dock_solv.prm

>  <Rbt.Receptor>
prm/pocket_docking_4.prm

>  <SCORE>
-18.1557

>  <SCORE.INTER>
-10.6324

>  <SCORE.INTER.CONST>
1

>  <SCORE.INTER.POLAR>
0

>  <SCORE.INTER.ROT>
10

>  <SCORE.INTER.SOLV>
21.4113

>  <SCORE.INTER.VDW>
-24.4921

>  <SCORE.INTER.norm>
-0.265811

>  <SCORE.INTRA>
-7.52322

>  <SCORE.INTRA.DIHEDRAL>
-25.511

>  <SCORE.INTRA.DIHEDRAL.0>
28.2802

>  <SCORE.INTRA.POLAR>
0

>  <SCORE.INTRA.POLAR.0>
0

>  <SCORE.INTRA.REPUL>
0

>  <SCORE.INTRA.REPUL.0>
0

>  <SCORE.INTRA.SOLV>
1.61739

>  <SCORE.INTRA.SOLV.lig_0>
-101.981

>  <SCORE.INTRA.VDW>
4.42361

>  <SCORE.INTRA.VDW.0>
-5.72964

>  <SCORE.INTRA.norm>
-0.188081

>  <SCORE.RESTR>
0

>  <SCORE.RESTR.CAVITY>
0

>  <SCORE.RESTR.norm>
0

>  <SCORE.SYSTEM>
0

>  <SCORE.SYSTEM.CONST>
0

>  <SCORE.SYSTEM.DIHEDRAL>
0

>  <SCORE.SYSTEM.SOLV>
0

>  <SCORE.SYSTEM.norm>
0

>  <SCORE.heavy>
40

>  <SCORE.norm>
-0.453892

>  <RMSD>
5.479

$$$$
ligand
 OpenBabel11021811513D
libRbt.so/2013.1/901 2013/11/27
 40 42  0  0  0  0  0  0  0  0999 V2000
    4.4603   -7.2345   19.1273 C   0  0  2  0  0  0  0  0  0  0  0  0
    3.1166   -7.6989   18.9229 O   0  0  0  0  0  0  0  0  0  0  0  0
    5.2809   -8.2723   19.9811 C   0  0  1  0  0  0  0  0  0  0  0  0
    4.7215   -8.3916   21.4287 C   0  0  2  0  0  0  0  0  0  0  0  0
    4.8142   -6.9807   22.0914 C   0  0  2  0  0  0  0  0  0  0  0  0
    4.3265   -7.0594   23.4480 O   0  0  0  0  0  0  0  0  0  0  0  0
    3.9411   -5.9631   21.2349 C   0  0  2  0  0  0  0  0  0  0  0  0
    4.4666   -5.9086   19.8239 O   0  0  0  0  0  0  0  0  0  0  0  0
    3.9831   -4.5465   21.7914 C   0  0  0  0  0  0  0  0  0  0  0  0
    5.2134   -4.3145   22.6117 N   0  0  0  0  0  0  0  0  0  0  0  0
    1.6380  -10.0156   15.4913 C   0  0  2  0  0  0  0  0  0  0  0  0
    1.3714  -11.1419   14.6271 N   0  0  0  0  0  0  0  0  0  0  0  0
    3.2007   -9.8349   15.6583 C   0  0  0  0  0  0  0  0  0  0  0  0
    3.5106   -8.5975   16.6141 C   0  0  2  0  0  0  0  0  0  0  0  0
    4.9794   -8.4190   16.7568 N   0  0  0  0  0  0  0  0  0  0  0  0
    2.8176   -8.8443   18.0339 C   0  0  2  0  0  0  0  0  0  0  0  0
    1.2549   -9.0208   17.8137 C   0  0  2  0  0  0  0  0  0  0  0  0
    0.6254   -9.2383   19.0785 O   0  0  0  0  0  0  0  0  0  0  0  0
    0.9629  -10.2473   16.8619 C   0  0  1  0  0  0  0  0  0  0  0  0
   -0.4652  -10.3818   16.6544 O   0  0  0  0  0  0  0  0  0  0  0  0
   -1.3814  -10.7808   17.6169 C   0  0  2  0  0  0  0  0  0  0  0  0
   -2.6063  -11.4160   16.8678 C   0  0  2  0  0  0  0  0  0  0  0  0
   -2.1750  -12.4773   16.0788 O   0  0  0  0  0  0  0  0  0  0  0  0
   -3.3915  -10.3402   16.0031 C   0  0  1  0  0  0  0  0  0  0  0  0
   -4.5605  -10.9633   15.3089 N   0  0  0  0  0  0  0  0  0  0  0  0
   -3.8602   -9.1602   16.9619 C   0  0  2  0  0  0  0  0  0  0  0  0
   -4.5871   -8.1668   16.2283 O   0  0  0  0  0  0  0  0  0  0  0  0
   -2.5790   -8.5495   17.6507 C   0  0  2  0  0  0  0  0  0  0  0  0
   -1.8219   -9.6173   18.4286 O   0  0  0  0  0  0  0  0  0  0  0  0
   -2.9486   -7.4312   18.5958 C   0  0  0  0  0  0  0  0  0  0  0  0
   -1.8083   -6.8868   19.2858 O   0  0  0  0  0  0  0  0  0  0  0  0
    5.2348   -9.5613   19.3025 O   0  0  0  0  0  0  0  0  0  0  0  0
    5.4799   -9.2974   22.1301 O   0  0  0  0  0  0  0  0  0  0  0  0
    1.8516  -11.1090   13.2650 C   0  0  0  0  0  0  0  0  0  0  0  0
    2.0944   -9.9964   12.7100 O   0  0  0  0  0  0  0  0  0  0  0  0
    2.0470  -12.4689   12.5268 C   0  0  2  0  0  0  0  0  0  0  0  0
    4.2415  -14.5165   15.0075 N   0  0  0  0  0  0  0  0  0  0  0  0
    3.2779  -13.2409   13.0946 C   0  0  0  0  0  0  0  0  0  0  0  0
    3.0248  -13.8508   14.4835 C   0  0  0  0  0  0  0  0  0  0  0  0
    2.2829  -12.3230   11.2853 O   0  0  0  0  0  0  0  0  0  0  0  0
  1  2  1  1  0  0  0
  1  3  1  0  0  0  0
  1  8  1  0  0  0  0
  3  4  1  0  0  0  0
  3 32  1  6  0  0  0
  4  5  1  0  0  0  0
  4 33  1  1  0  0  0
  5  6  1  1  0  0  0
  5  7  1  0  0  0  0
  7  8  1  0  0  0  0
  7  9  1  1  0  0  0
  9 10  1  0  0  0  0
 11 12  1  6  0  0  0
 11 13  1  0  0  0  0
 11 19  1  0  0  0  0
 12 34  1  0  0  0  0
 13 14  1  0  0  0  0
 14 15  1  1  0  0  0
 14 16  1  0  0  0  0
 16  2  1  1  0  0  0
 16 17  1  0  0  0  0
 17 18  1  1  0  0  0
 17 19  1  0  0  0  0
 19 20  1  6  0  0  0
 21 20  1  6  0  0  0
 21 22  1  0  0  0  0
 21 29  1  0  0  0  0
 22 23  1  6  0  0  0
 22 24  1  0  0  0  0
 24 25  1  1  0  0  0
 24 26  1  0  0  0  0
 26 27  1  6  0  0  0
 26 28  1  0  0  0  0
 28 29  1  0  0  0  0
 28 30  1  1  0  0  0
 30 31  1  0  0  0  0
 34 35  2  0  0  0  0
 36 34  1  1  0  0  0
 36 38  1  0  0  0  0
 36 40  1  0  0  0  0
 37 39  1  0  0  0  0
 38 39  1  0  0  0  0
M  END
>  <CHROM.1>
-70.69694896,-51.57753900,23.53588300,-61.46748160,170.59614882,-154.22971411
177.54406996,-71.64256510,73.48467361,-177.26659140,1.54356019,-9.34590387
17.54613792,-1.00168131,0.06911515,-2.22112395

>  <Name>
ligand

>  <RI>
0

>  <Rbt.Current_Directory>
/home/itssahil/PROJECTS/Mol_Feturizer/New_Systems/rnas/4P20

>  <Rbt.Executable>
rbdock ($Id: //depot/dev/client3/rdock/2013.1/src/exe/rbdock.cxx#4 $)

>  <Rbt.Library>
libRbt.so (2013.1, Build901 2013/11/27)

>  <Rbt.Parameter_File>
/export/apps/rDock/src/rDock_2013.1_src/data/scripts/dock_solv.prm

>  <Rbt.Receptor>
prm/pocket_docking_3.prm

>  <SCORE>
-11.7889

>  <SCORE.INTER>
-6.70177

>  <SCORE.INTER.CONST>
1

>  <SCORE.INTER.POLAR>
0

>  <SCORE.INTER.ROT>
10

>  <SCORE.INTER.SOLV>
20.8778

>  <SCORE.INTER.VDW>
-21.6938

>  <SCORE.INTER.norm>
-0.167544

>  <SCORE.INTRA>
-5.28588

>  <SCORE.INTRA.DIHEDRAL>
-19.021

>  <SCORE.INTRA.DIHEDRAL.0>
28.2802

>  <SCORE.INTRA.POLAR>
0

>  <SCORE.INTRA.POLAR.0>
0

>  <SCORE.INTRA.REPUL>
0

>  <SCORE.INTRA.REPUL.0>
0

>  <SCORE.INTRA.SOLV>
2.75985

>  <SCORE.INTRA.SOLV.lig_0>
-101.981

>  <SCORE.INTRA.VDW>
2.84471

>  <SCORE.INTRA.VDW.0>
-5.72964

>  <SCORE.INTRA.norm>
-0.132147

>  <SCORE.RESTR>
0.198735

>  <SCORE.RESTR.CAVITY>
0.198735

>  <SCORE.RESTR.norm>
0.00496838

>  <SCORE.SYSTEM>
0

>  <SCORE.SYSTEM.CONST>
0

>  <SCORE.SYSTEM.DIHEDRAL>
0

>  <SCORE.SYSTEM.SOLV>
0

>  <SCORE.SYSTEM.norm>
0

>  <SCORE.heavy>
40

>  <SCORE.norm>
-0.294723

>  <RMSD>
5.482

$$$$
ligand
 OpenBabel11021811513D
libRbt.so/2013.1/901 2013/11/27
 40 42  0  0  0  0  0  0  0  0999 V2000
    4.8284   -7.0696   20.6784 C   0  0  2  0  0  0  0  0  0  0  0  0
    3.5750   -7.7546   20.8289 O   0  0  0  0  0  0  0  0  0  0  0  0
    5.5443   -6.9123   22.0720 C   0  0  1  0  0  0  0  0  0  0  0  0
    4.7414   -5.9800   23.0255 C   0  0  2  0  0  0  0  0  0  0  0  0
    4.6255   -4.5832   22.3374 C   0  0  2  0  0  0  0  0  0  0  0  0
    3.9069   -3.6824   23.2073 O   0  0  0  0  0  0  0  0  0  0  0  0
    3.8598   -4.7644   20.9545 C   0  0  2  0  0  0  0  0  0  0  0  0
    4.6268   -5.7149   20.0721 O   0  0  0  0  0  0  0  0  0  0  0  0
    3.7129   -3.4543   20.1928 C   0  0  0  0  0  0  0  0  0  0  0  0
    2.8512   -2.4809   20.9347 N   0  0  0  0  0  0  0  0  0  0  0  0
    2.3798  -10.0897   17.3007 C   0  0  2  0  0  0  0  0  0  0  0  0
    2.0458  -11.2263   16.4743 N   0  0  0  0  0  0  0  0  0  0  0  0
    3.8612  -10.2408   17.8349 C   0  0  0  0  0  0  0  0  0  0  0  0
    4.2427   -8.9951   18.7532 C   0  0  2  0  0  0  0  0  0  0  0  0
    5.6403   -9.1305   19.2409 N   0  0  0  0  0  0  0  0  0  0  0  0
    3.2113   -8.9056   19.9718 C   0  0  2  0  0  0  0  0  0  0  0  0
    1.7428   -8.7569   19.3859 C   0  0  2  0  0  0  0  0  0  0  0  0
    0.8131   -8.6723   20.4684 O   0  0  0  0  0  0  0  0  0  0  0  0
    1.3799   -9.9956   18.4752 C   0  0  1  0  0  0  0  0  0  0  0  0
    0.0459   -9.8346   17.9319 O   0  0  0  0  0  0  0  0  0  0  0  0
   -0.3095   -8.9447   16.9286 C   0  0  2  0  0  0  0  0  0  0  0  0
   -1.2329   -7.8507   17.5734 C   0  0  2  0  0  0  0  0  0  0  0  0
   -0.5605   -7.2256   18.6185 O   0  0  0  0  0  0  0  0  0  0  0  0
   -2.6151   -8.4596   18.0632 C   0  0  1  0  0  0  0  0  0  0  0  0
   -3.4834   -7.3992   18.6620 N   0  0  0  0  0  0  0  0  0  0  0  0
   -3.3336   -9.1528   16.8244 C   0  0  2  0  0  0  0  0  0  0  0  0
   -4.5959   -9.7083   17.2137 O   0  0  0  0  0  0  0  0  0  0  0  0
   -2.3656  -10.2593   16.2521 C   0  0  2  0  0  0  0  0  0  0  0  0
   -1.0320   -9.6510   15.8398 O   0  0  0  0  0  0  0  0  0  0  0  0
   -2.9744  -10.9504   15.0553 C   0  0  0  0  0  0  0  0  0  0  0  0
   -4.1802  -11.6665   15.3807 O   0  0  0  0  0  0  0  0  0  0  0  0
    5.7012   -8.2374   22.6580 O   0  0  0  0  0  0  0  0  0  0  0  0
    5.4155   -5.8687   24.2175 O   0  0  0  0  0  0  0  0  0  0  0  0
    2.7719  -11.4348   15.2429 C   0  0  0  0  0  0  0  0  0  0  0  0
    3.3501  -10.4581   14.6802 O   0  0  0  0  0  0  0  0  0  0  0  0
    2.8060  -12.8772   14.6507 C   0  0  2  0  0  0  0  0  0  0  0  0
    2.7596  -12.7448   11.5959 N   0  0  0  0  0  0  0  0  0  0  0  0
    1.5621  -13.1394   13.7465 C   0  0  0  0  0  0  0  0  0  0  0  0
    1.5947  -12.3532   12.4252 C   0  0  0  0  0  0  0  0  0  0  0  0
    2.7664  -13.7768   15.5492 O   0  0  0  0  0  0  0  0  0  0  0  0
  1  2  1  1  0  0  0
  1  3  1  0  0  0  0
  1  8  1  0  0  0  0
  3  4  1  0  0  0  0
  3 32  1  1  0  0  0
  4  5  1  0  0  0  0
  4 33  1  1  0  0  0
  5  6  1  1  0  0  0
  5  7  1  0  0  0  0
  7  8  1  0  0  0  0
  7  9  1  6  0  0  0
  9 10  1  0  0  0  0
 11 12  1  6  0  0  0
 11 13  1  0  0  0  0
 11 19  1  0  0  0  0
 12 34  1  0  0  0  0
 13 14  1  0  0  0  0
 14 15  1  1  0  0  0
 14 16  1  0  0  0  0
 16  2  1  1  0  0  0
 16 17  1  0  0  0  0
 17 18  1  1  0  0  0
 17 19  1  0  0  0  0
 19 20  1  6  0  0  0
 21 20  1  1  0  0  0
 21 22  1  0  0  0  0
 21 29  1  0  0  0  0
 22 23  1  1  0  0  0
 22 24  1  0  0  0  0
 24 25  1  6  0  0  0
 24 26  1  0  0  0  0
 26 27  1  1  0  0  0
 26 28  1  0  0  0  0
 28 29  1  0  0  0  0
 28 30  1  6  0  0  0
 30 31  1  0  0  0  0
 34 35  2  0  0  0  0
 36 34  1  1  0  0  0
 36 38  1  0  0  0  0
 36 40  1  0  0  0  0
 37 39  1  0  0  0  0
 38 39  1  0  0  0  0
M  END
>  <CHROM.1>
-130.47192365,-12.00711858,-64.59858093,-64.18835569,-46.94037721,-111.95896028
-63.30307375,86.52257435,70.40452200,62.07217835,1.72563368,-8.75659243,18.30608954
-1.06015437,0.15465640,-2.35218941

>  <Name>
ligand

>  <RI>
0

>  <Rbt.Current_Directory>
/home/itssahil/PROJECTS/Mol_Feturizer/New_Systems/rnas/4P20

>  <Rbt.Executable>
rbdock ($Id: //depot/dev/client3/rdock/2013.1/src/exe/rbdock.cxx#4 $)

>  <Rbt.Library>
libRbt.so (2013.1, Build901 2013/11/27)

>  <Rbt.Parameter_File>
/export/apps/rDock/src/rDock_2013.1_src/data/scripts/dock_solv.prm

>  <Rbt.Receptor>
prm/pocket_docking_3.prm

>  <SCORE>
-5.04773

>  <SCORE.INTER>
-8.02004

>  <SCORE.INTER.CONST>
1

>  <SCORE.INTER.POLAR>
0

>  <SCORE.INTER.ROT>
10

>  <SCORE.INTER.SOLV>
22.2228

>  <SCORE.INTER.VDW>
-23.021

>  <SCORE.INTER.norm>
-0.200501

>  <SCORE.INTRA>
2.97231

>  <SCORE.INTRA.DIHEDRAL>
-5.40266

>  <SCORE.INTRA.DIHEDRAL.0>
28.2802

>  <SCORE.INTRA.POLAR>
0

>  <SCORE.INTRA.POLAR.0>
0

>  <SCORE.INTRA.REPUL>
0

>  <SCORE.INTRA.REPUL.0>
0

>  <SCORE.INTRA.SOLV>
3.77651

>  <SCORE.INTRA.SOLV.lig_0>
-101.981

>  <SCORE.INTRA.VDW>
3.78539

>  <SCORE.INTRA.VDW.0>
-5.72964

>  <SCORE.INTRA.norm>
0.0743078

>  <SCORE.RESTR>
0

>  <SCORE.RESTR.CAVITY>
0

>  <SCORE.RESTR.norm>
0

>  <SCORE.SYSTEM>
0

>  <SCORE.SYSTEM.CONST>
0

>  <SCORE.SYSTEM.DIHEDRAL>
0

>  <SCORE.SYSTEM.SOLV>
0

>  <SCORE.SYSTEM.norm>
0

>  <SCORE.heavy>
40

>  <SCORE.norm>
-0.126193

>  <RMSD>
5.486

$$$$
ligand
 OpenBabel11021811513D
libRbt.so/2013.1/901 2013/11/27
 40 42  0  0  0  0  0  0  0  0999 V2000
    2.1714   -6.3818   20.3746 C   0  0  2  0  0  0  0  0  0  0  0  0
    2.6718   -6.6440   19.0540 O   0  0  0  0  0  0  0  0  0  0  0  0
    3.0262   -5.2623   21.0785 C   0  0  1  0  0  0  0  0  0  0  0  0
    4.4860   -5.7359   21.3385 C   0  0  2  0  0  0  0  0  0  0  0  0
    4.4196   -6.9971   22.2567 C   0  0  2  0  0  0  0  0  0  0  0  0
    5.7608   -7.4499   22.5408 O   0  0  0  0  0  0  0  0  0  0  0  0
    3.5896   -8.1262   21.5032 C   0  0  2  0  0  0  0  0  0  0  0  0
    2.1995   -7.6232   21.2122 O   0  0  0  0  0  0  0  0  0  0  0  0
    3.4500   -9.3973   22.3297 C   0  0  0  0  0  0  0  0  0  0  0  0
    2.5028  -10.3657   21.6928 N   0  0  0  0  0  0  0  0  0  0  0  0
    0.8026   -8.8415   15.7363 C   0  0  2  0  0  0  0  0  0  0  0  0
    0.3184   -9.9463   14.9418 N   0  0  0  0  0  0  0  0  0  0  0  0
    2.3638   -8.9859   15.9478 C   0  0  0  0  0  0  0  0  0  0  0  0
    2.9122   -7.7752   16.8279 C   0  0  2  0  0  0  0  0  0  0  0  0
    4.3817   -7.9036   17.0118 N   0  0  0  0  0  0  0  0  0  0  0  0
    2.1524   -7.7623   18.2348 C   0  0  2  0  0  0  0  0  0  0  0  0
    0.5933   -7.6179   17.9699 C   0  0  2  0  0  0  0  0  0  0  0  0
   -0.0949   -7.6015   19.2227 O   0  0  0  0  0  0  0  0  0  0  0  0
    0.0646   -8.8213   17.0939 C   0  0  1  0  0  0  0  0  0  0  0  0
   -1.3543   -8.6636   16.8439 O   0  0  0  0  0  0  0  0  0  0  0  0
   -2.3418   -8.6338   17.8179 C   0  0  2  0  0  0  0  0  0  0  0  0
   -2.5318  -10.1015   18.3424 C   0  0  2  0  0  0  0  0  0  0  0  0
   -1.3228  -10.5849   18.8323 O   0  0  0  0  0  0  0  0  0  0  0  0
   -3.1194  -11.0578   17.2193 C   0  0  1  0  0  0  0  0  0  0  0  0
   -3.3040  -12.4464   17.7435 N   0  0  0  0  0  0  0  0  0  0  0  0
   -4.4991  -10.4536   16.7069 C   0  0  2  0  0  0  0  0  0  0  0  0
   -5.0776  -11.2906   15.6978 O   0  0  0  0  0  0  0  0  0  0  0  0
   -4.2257   -8.9975   16.1648 C   0  0  2  0  0  0  0  0  0  0  0  0
   -3.6156   -8.1215   17.2506 O   0  0  0  0  0  0  0  0  0  0  0  0
   -5.4994   -8.3490   15.6771 C   0  0  0  0  0  0  0  0  0  0  0  0
   -6.4705   -8.1733   16.7253 O   0  0  0  0  0  0  0  0  0  0  0  0
    3.0120   -4.0758   20.2323 O   0  0  0  0  0  0  0  0  0  0  0  0
    5.1805   -4.7285   21.9634 O   0  0  0  0  0  0  0  0  0  0  0  0
    1.0237  -10.3014   13.7320 C   0  0  0  0  0  0  0  0  0  0  0  0
    1.7458   -9.4394   13.1485 O   0  0  0  0  0  0  0  0  0  0  0  0
    0.8559  -11.7536   13.1886 C   0  0  2  0  0  0  0  0  0  0  0  0
    1.6081  -15.2109   14.8158 N   0  0  0  0  0  0  0  0  0  0  0  0
    1.3656  -12.8008   14.2265 C   0  0  0  0  0  0  0  0  0  0  0  0
    1.0812  -14.2545   13.8129 C   0  0  0  0  0  0  0  0  0  0  0  0
    1.5359  -11.9640   12.1344 O   0  0  0  0  0  0  0  0  0  0  0  0
  1  2  1  6  0  0  0
  1  3  1  0  0  0  0
  1  8  1  0  0  0  0
  3  4  1  0  0  0  0
  3 32  1  6  0  0  0
  4  5  1  0  0  0  0
  4 33  1  1  0  0  0
  5  6  1  6  0  0  0
  5  7  1  0  0  0  0
  7  8  1  0  0  0  0
  7  9  1  1  0  0  0
  9 10  1  0  0  0  0
 11 12  1  6  0  0  0
 11 13  1  0  0  0  0
 11 19  1  0  0  0  0
 12 34  1  0  0  0  0
 13 14  1  0  0  0  0
 14 15  1  1  0  0  0
 14 16  1  0  0  0  0
 16  2  1  1  0  0  0
 16 17  1  0  0  0  0
 17 18  1  1  0  0  0
 17 19  1  0  0  0  0
 19 20  1  6  0  0  0
 21 20  1  6  0  0  0
 21 22  1  0  0  0  0
 21 29  1  0  0  0  0
 22 23  1  6  0  0  0
 22 24  1  0  0  0  0
 24 25  1  1  0  0  0
 24 26  1  0  0  0  0
 26 27  1  6  0  0  0
 26 28  1  0  0  0  0
 28 29  1  0  0  0  0
 28 30  1  1  0  0  0
 30 31  1  0  0  0  0
 34 35  2  0  0  0  0
 36 34  1  1  0  0  0
 36 38  1  0  0  0  0
 36 40  1  0  0  0  0
 37 39  1  0  0  0  0
 38 39  1  0  0  0  0
M  END
>  <CHROM.1>
172.63993826,179.87537628,171.63314700,-47.71280886,178.37879718,-73.98890535
62.75135867,-60.98493079,173.54256868,178.83192425,0.53419943,-8.99106950
17.73120935,0.86950907,-0.04771503,0.89444303

>  <Name>
ligand

>  <RI>
0

>  <Rbt.Current_Directory>
/home/itssahil/PROJECTS/Mol_Feturizer/New_Systems/rnas/4P20

>  <Rbt.Executable>
rbdock ($Id: //depot/dev/client3/rdock/2013.1/src/exe/rbdock.cxx#4 $)

>  <Rbt.Library>
libRbt.so (2013.1, Build901 2013/11/27)

>  <Rbt.Parameter_File>
/export/apps/rDock/src/rDock_2013.1_src/data/scripts/dock_solv.prm

>  <Rbt.Receptor>
prm/pocket_docking_3.prm

>  <SCORE>
-18.4825

>  <SCORE.INTER>
-8.4637

>  <SCORE.INTER.CONST>
1

>  <SCORE.INTER.POLAR>
0

>  <SCORE.INTER.ROT>
10

>  <SCORE.INTER.SOLV>
20.4212

>  <SCORE.INTER.VDW>
-22.7162

>  <SCORE.INTER.norm>
-0.211593

>  <SCORE.INTRA>
-10.3959

>  <SCORE.INTRA.DIHEDRAL>
-25.7066

>  <SCORE.INTRA.DIHEDRAL.0>
28.2802

>  <SCORE.INTRA.POLAR>
0

>  <SCORE.INTRA.POLAR.0>
0

>  <SCORE.INTRA.REPUL>
0

>  <SCORE.INTRA.REPUL.0>
0

>  <SCORE.INTRA.SOLV>
-1.59136

>  <SCORE.INTRA.SOLV.lig_0>
-101.981

>  <SCORE.INTRA.VDW>
3.25305

>  <SCORE.INTRA.VDW.0>
-5.72964

>  <SCORE.INTRA.norm>
-0.259899

>  <SCORE.RESTR>
0.377174

>  <SCORE.RESTR.CAVITY>
0.377174

>  <SCORE.RESTR.norm>
0.00942934

>  <SCORE.SYSTEM>
0

>  <SCORE.SYSTEM.CONST>
0

>  <SCORE.SYSTEM.DIHEDRAL>
0

>  <SCORE.SYSTEM.SOLV>
0

>  <SCORE.SYSTEM.norm>
0

>  <SCORE.heavy>
40

>  <SCORE.norm>
-0.462062

>  <RMSD>
5.498

$$$$
ligand
 OpenBabel11021811513D
libRbt.so/2013.1/901 2013/11/27
 40 42  0  0  0  0  0  0  0  0999 V2000
    5.5621   -9.7168   19.6568 C   0  0  2  0  0  0  0  0  0  0  0  0
    4.6348  -10.7897   19.8848 O   0  0  0  0  0  0  0  0  0  0  0  0
    6.1096   -9.1583   21.0234 C   0  0  1  0  0  0  0  0  0  0  0  0
    4.9826   -8.4833   21.8582 C   0  0  2  0  0  0  0  0  0  0  0  0
    4.4016   -7.3086   21.0092 C   0  0  2  0  0  0  0  0  0  0  0  0
    3.3681   -6.6412   21.7649 O   0  0  0  0  0  0  0  0  0  0  0  0
    3.8158   -7.9062   19.6560 C   0  0  2  0  0  0  0  0  0  0  0  0
    4.9128   -8.6033   18.8939 O   0  0  0  0  0  0  0  0  0  0  0  0
    3.2405   -6.8310   18.7442 C   0  0  0  0  0  0  0  0  0  0  0  0
    2.0364   -6.1817   19.3517 N   0  0  0  0  0  0  0  0  0  0  0  0
    2.2251  -10.9507   16.2109 C   0  0  2  0  0  0  0  0  0  0  0  0
    1.3944  -11.4796   15.1542 N   0  0  0  0  0  0  0  0  0  0  0  0
    3.6028  -11.7279   16.2403 C   0  0  0  0  0  0  0  0  0  0  0  0
    4.5291  -11.1580   17.4056 C   0  0  2  0  0  0  0  0  0  0  0  0
    5.8294  -11.8781   17.4212 N   0  0  0  0  0  0  0  0  0  0  0  0
    3.7675  -11.3094   18.8034 C   0  0  2  0  0  0  0  0  0  0  0  0
    2.3942  -10.5159   18.7234 C   0  0  2  0  0  0  0  0  0  0  0  0
    1.7072  -10.6422   19.9704 O   0  0  0  0  0  0  0  0  0  0  0  0
    1.4887  -11.0883   17.5625 C   0  0  1  0  0  0  0  0  0  0  0  0
    0.2493  -10.3405   17.4892 O   0  0  0  0  0  0  0  0  0  0  0  0
   -0.7961  -10.6043   16.6160 C   0  0  2  0  0  0  0  0  0  0  0  0
   -2.0378   -9.7754   17.1023 C   0  0  2  0  0  0  0  0  0  0  0  0
   -1.7129   -8.4233   17.1423 O   0  0  0  0  0  0  0  0  0  0  0  0
   -2.5687  -10.2799   18.5111 C   0  0  1  0  0  0  0  0  0  0  0  0
   -3.7580   -9.4857   18.9490 N   0  0  0  0  0  0  0  0  0  0  0  0
   -2.9261  -11.8260   18.3966 C   0  0  2  0  0  0  0  0  0  0  0  0
   -3.4237  -12.3270   19.6435 O   0  0  0  0  0  0  0  0  0  0  0  0
   -1.6278  -12.5970   17.9394 C   0  0  2  0  0  0  0  0  0  0  0  0
   -1.1159  -12.0549   16.6117 O   0  0  0  0  0  0  0  0  0  0  0  0
   -1.8961  -14.0754   17.7887 C   0  0  0  0  0  0  0  0  0  0  0  0
   -2.9007  -14.3599   16.7974 O   0  0  0  0  0  0  0  0  0  0  0  0
    6.7076  -10.2630   21.7625 O   0  0  0  0  0  0  0  0  0  0  0  0
    5.5168   -8.0046   23.0300 O   0  0  0  0  0  0  0  0  0  0  0  0
    1.7746  -11.2454   13.7803 C   0  0  0  0  0  0  0  0  0  0  0  0
    2.5254  -10.2662   13.4933 O   0  0  0  0  0  0  0  0  0  0  0  0
    1.2290  -12.2235   12.6950 C   0  0  2  0  0  0  0  0  0  0  0  0
    1.2246  -15.6535   14.5361 N   0  0  0  0  0  0  0  0  0  0  0  0
    1.6023  -13.6996   13.0347 C   0  0  0  0  0  0  0  0  0  0  0  0
    0.7616  -14.2912   14.1785 C   0  0  0  0  0  0  0  0  0  0  0  0
    1.7260  -12.0054   11.5445 O   0  0  0  0  0  0  0  0  0  0  0  0
  1  2  1  1  0  0  0
  1  3  1  0  0  0  0
  1  8  1  0  0  0  0
  3  4  1  0  0  0  0
  3 32  1  1  0  0  0
  4  5  1  0  0  0  0
  4 33  1  1  0  0  0
  5  6  1  1  0  0  0
  5  7  1  0  0  0  0
  7  8  1  0  0  0  0
  7  9  1  6  0  0  0
  9 10  1  0  0  0  0
 11 12  1  6  0  0  0
 11 13  1  0  0  0  0
 11 19  1  0  0  0  0
 12 34  1  0  0  0  0
 13 14  1  0  0  0  0
 14 15  1  1  0  0  0
 14 16  1  0  0  0  0
 16  2  1  1  0  0  0
 16 17  1  0  0  0  0
 17 18  1  1  0  0  0
 17 19  1  0  0  0  0
 19 20  1  6  0  0  0
 21 20  1  1  0  0  0
 21 22  1  0  0  0  0
 21 29  1  0  0  0  0
 22 23  1  1  0  0  0
 22 24  1  0  0  0  0
 24 25  1  6  0  0  0
 24 26  1  0  0  0  0
 26 27  1  1  0  0  0
 26 28  1  0  0  0  0
 28 29  1  0  0  0  0
 28 30  1  6  0  0  0
 30 31  1  0  0  0  0
 34 35  2  0  0  0  0
 36 34  1  1  0  0  0
 36 38  1  0  0  0  0
 36 40  1  0  0  0  0
 37 39  1  0  0  0  0
 38 39  1  0  0  0  0
M  END
>  <CHROM.1>
167.37440988,31.23403977,-65.76837413,-69.08782341,62.44947793,167.29920390
60.96055788,-55.68568821,74.68594269,-175.47259100,1.70790807,-10.64888438
17.78249522,-0.86704726,-0.11523046,-2.12742713

>  <Name>
ligand

>  <RI>
0

>  <Rbt.Current_Directory>
/home/itssahil/PROJECTS/Mol_Feturizer/New_Systems/rnas/4P20

>  <Rbt.Executable>
rbdock ($Id: //depot/dev/client3/rdock/2013.1/src/exe/rbdock.cxx#4 $)

>  <Rbt.Library>
libRbt.so (2013.1, Build901 2013/11/27)

>  <Rbt.Parameter_File>
/export/apps/rDock/src/rDock_2013.1_src/data/scripts/dock_solv.prm

>  <Rbt.Receptor>
prm/pocket_docking_5.prm

>  <SCORE>
-11.5623

>  <SCORE.INTER>
-2.41901

>  <SCORE.INTER.CONST>
1

>  <SCORE.INTER.POLAR>
0

>  <SCORE.INTER.ROT>
10

>  <SCORE.INTER.SOLV>
16.7017

>  <SCORE.INTER.VDW>
-17.4466

>  <SCORE.INTER.norm>
-0.0604752

>  <SCORE.INTRA>
-9.14333

>  <SCORE.INTRA.DIHEDRAL>
-21.5395

>  <SCORE.INTRA.DIHEDRAL.0>
28.2802

>  <SCORE.INTRA.POLAR>
0

>  <SCORE.INTRA.POLAR.0>
0

>  <SCORE.INTRA.REPUL>
0

>  <SCORE.INTRA.REPUL.0>
0

>  <SCORE.INTRA.SOLV>
0.759827

>  <SCORE.INTRA.SOLV.lig_0>
-101.981

>  <SCORE.INTRA.VDW>
1.2465

>  <SCORE.INTRA.VDW.0>
-5.72964

>  <SCORE.INTRA.norm>
-0.228583

>  <SCORE.RESTR>
0

>  <SCORE.RESTR.CAVITY>
0

>  <SCORE.RESTR.norm>
0

>  <SCORE.SYSTEM>
0

>  <SCORE.SYSTEM.CONST>
0

>  <SCORE.SYSTEM.DIHEDRAL>
0

>  <SCORE.SYSTEM.SOLV>
0

>  <SCORE.SYSTEM.norm>
0

>  <SCORE.heavy>
40

>  <SCORE.norm>
-0.289059

>  <RMSD>
5.506

$$$$
ligand
 OpenBabel11021811513D
libRbt.so/2013.1/901 2013/11/27
 40 42  0  0  0  0  0  0  0  0999 V2000
    2.2878   -6.9700   20.5517 C   0  0  2  0  0  0  0  0  0  0  0  0
    2.7172   -7.1461   19.1924 O   0  0  0  0  0  0  0  0  0  0  0  0
    3.1536   -5.8664   21.2673 C   0  0  1  0  0  0  0  0  0  0  0  0
    4.6375   -6.3118   21.4175 C   0  0  2  0  0  0  0  0  0  0  0  0
    4.6563   -7.6222   22.2665 C   0  0  2  0  0  0  0  0  0  0  0  0
    6.0227   -8.0514   22.4487 O   0  0  0  0  0  0  0  0  0  0  0  0
    3.8127   -8.7319   21.4995 C   0  0  2  0  0  0  0  0  0  0  0  0
    2.3958   -8.2536   21.3160 O   0  0  0  0  0  0  0  0  0  0  0  0
    3.7534  -10.0493   22.2606 C   0  0  0  0  0  0  0  0  0  0  0  0
    2.9228   -9.9310   23.5002 N   0  0  0  0  0  0  0  0  0  0  0  0
    0.6121   -8.8874   15.7477 C   0  0  2  0  0  0  0  0  0  0  0  0
    0.0125   -9.8746   14.8803 N   0  0  0  0  0  0  0  0  0  0  0  0
    2.1517   -9.2047   15.9259 C   0  0  0  0  0  0  0  0  0  0  0  0
    2.8265   -8.1254   16.8854 C   0  0  2  0  0  0  0  0  0  0  0  0
    4.2763   -8.4155   17.0386 N   0  0  0  0  0  0  0  0  0  0  0  0
    2.0811   -8.1413   18.2999 C   0  0  2  0  0  0  0  0  0  0  0  0
    0.5432   -7.8201   18.0685 C   0  0  2  0  0  0  0  0  0  0  0  0
   -0.1316   -7.8282   19.3285 O   0  0  0  0  0  0  0  0  0  0  0  0
   -0.1112   -8.8945   17.1132 C   0  0  1  0  0  0  0  0  0  0  0  0
   -1.5082   -8.5755   16.8955 O   0  0  0  0  0  0  0  0  0  0  0  0
   -2.4858   -8.5414   17.8793 C   0  0  2  0  0  0  0  0  0  0  0  0
   -2.7452  -10.0203   18.3383 C   0  0  2  0  0  0  0  0  0  0  0  0
   -1.5585  -10.5853   18.7940 O   0  0  0  0  0  0  0  0  0  0  0  0
   -3.3884  -10.8937   17.1785 C   0  0  1  0  0  0  0  0  0  0  0  0
   -3.6384  -12.2939   17.6407 N   0  0  0  0  0  0  0  0  0  0  0  0
   -4.7397  -10.1986   16.7075 C   0  0  2  0  0  0  0  0  0  0  0  0
   -5.3669  -10.9585   15.6669 O   0  0  0  0  0  0  0  0  0  0  0  0
   -4.3977   -8.7345   16.2297 C   0  0  2  0  0  0  0  0  0  0  0  0
   -3.7364   -7.9409   17.3483 O   0  0  0  0  0  0  0  0  0  0  0  0
   -5.6408   -8.0018   15.7843 C   0  0  0  0  0  0  0  0  0  0  0  0
   -6.6059   -7.8506   16.8418 O   0  0  0  0  0  0  0  0  0  0  0  0
    3.0603   -4.6368   20.4906 O   0  0  0  0  0  0  0  0  0  0  0  0
    5.3414   -5.3203   22.0572 O   0  0  0  0  0  0  0  0  0  0  0  0
    0.7361  -10.3091   13.7079 C   0  0  0  0  0  0  0  0  0  0  0  0
    1.6300   -9.5636   13.2078 O   0  0  0  0  0  0  0  0  0  0  0  0
    0.3726  -11.6981   13.0988 C   0  0  2  0  0  0  0  0  0  0  0  0
    1.9901  -13.9773   15.8096 N   0  0  0  0  0  0  0  0  0  0  0  0
    0.5102  -12.8287   14.1647 C   0  0  0  0  0  0  0  0  0  0  0  0
    1.9304  -12.9503   14.7420 C   0  0  0  0  0  0  0  0  0  0  0  0
    1.1477  -12.0341   12.1478 O   0  0  0  0  0  0  0  0  0  0  0  0
  1  2  1  6  0  0  0
  1  3  1  0  0  0  0
  1  8  1  0  0  0  0
  3  4  1  0  0  0  0
  3 32  1  6  0  0  0
  4  5  1  0  0  0  0
  4 33  1  1  0  0  0
  5  6  1  6  0  0  0
  5  7  1  0  0  0  0
  7  8  1  0  0  0  0
  7  9  1  1  0  0  0
  9 10  1  0  0  0  0
 11 12  1  6  0  0  0
 11 13  1  0  0  0  0
 11 19  1  0  0  0  0
 12 34  1  0  0  0  0
 13 14  1  0  0  0  0
 14 15  1  1  0  0  0
 14 16  1  0  0  0  0
 16  2  1  1  0  0  0
 16 17  1  0  0  0  0
 17 18  1  1  0  0  0
 17 19  1  0  0  0  0
 19 20  1  6  0  0  0
 21 20  1  6  0  0  0
 21 22  1  0  0  0  0
 21 29  1  0  0  0  0
 22 23  1  6  0  0  0
 22 24  1  0  0  0  0
 24 25  1  1  0  0  0
 24 26  1  0  0  0  0
 26 27  1  6  0  0  0
 26 28  1  0  0  0  0
 28 29  1  0  0  0  0
 28 30  1  1  0  0  0
 30 31  1  0  0  0  0
 34 35  2  0  0  0  0
 36 34  1  1  0  0  0
 36 38  1  0  0  0  0
 36 40  1  0  0  0  0
 37 39  1  0  0  0  0
 38 39  1  0  0  0  0
M  END
>  <CHROM.1>
179.05565963,-177.72720058,69.50546177,-41.36142463,177.20921155,-70.03518163
61.54714192,-56.11511004,-59.68331416,176.38547141,0.47822995,-9.07761849
17.85874063,0.76049068,-0.09316068,0.99806340

>  <Name>
ligand

>  <RI>
0

>  <Rbt.Current_Directory>
/home/itssahil/PROJECTS/Mol_Feturizer/New_Systems/rnas/4P20

>  <Rbt.Executable>
rbdock ($Id: //depot/dev/client3/rdock/2013.1/src/exe/rbdock.cxx#4 $)

>  <Rbt.Library>
libRbt.so (2013.1, Build901 2013/11/27)

>  <Rbt.Parameter_File>
/export/apps/rDock/src/rDock_2013.1_src/data/scripts/dock_solv.prm

>  <Rbt.Receptor>
prm/pocket_docking_5.prm

>  <SCORE>
-17.5097

>  <SCORE.INTER>
-7.96972

>  <SCORE.INTER.CONST>
1

>  <SCORE.INTER.POLAR>
0

>  <SCORE.INTER.ROT>
10

>  <SCORE.INTER.SOLV>
20.7429

>  <SCORE.INTER.VDW>
-22.4941

>  <SCORE.INTER.norm>
-0.199243

>  <SCORE.INTRA>
-9.54

>  <SCORE.INTRA.DIHEDRAL>
-26.241

>  <SCORE.INTRA.DIHEDRAL.0>
28.2802

>  <SCORE.INTRA.POLAR>
0

>  <SCORE.INTRA.POLAR.0>
0

>  <SCORE.INTRA.REPUL>
0

>  <SCORE.INTRA.REPUL.0>
0

>  <SCORE.INTRA.SOLV>
-0.219257

>  <SCORE.INTRA.SOLV.lig_0>
-101.981

>  <SCORE.INTRA.VDW>
3.69014

>  <SCORE.INTRA.VDW.0>
-5.72964

>  <SCORE.INTRA.norm>
-0.2385

>  <SCORE.RESTR>
0

>  <SCORE.RESTR.CAVITY>
0

>  <SCORE.RESTR.norm>
0

>  <SCORE.SYSTEM>
0

>  <SCORE.SYSTEM.CONST>
0

>  <SCORE.SYSTEM.DIHEDRAL>
0

>  <SCORE.SYSTEM.SOLV>
0

>  <SCORE.SYSTEM.norm>
0

>  <SCORE.heavy>
40

>  <SCORE.norm>
-0.437743

>  <RMSD>
5.527

$$$$
ligand
 OpenBabel11021811513D
libRbt.so/2013.1/901 2013/11/27
 40 42  0  0  0  0  0  0  0  0999 V2000
    3.4297   -8.4917   19.7088 C   0  0  2  0  0  0  0  0  0  0  0  0
    2.2940   -8.8823   20.4967 O   0  0  0  0  0  0  0  0  0  0  0  0
    4.7562   -9.0809   20.3192 C   0  0  1  0  0  0  0  0  0  0  0  0
    5.0644   -8.4680   21.7165 C   0  0  2  0  0  0  0  0  0  0  0  0
    5.2136   -6.9243   21.5354 C   0  0  2  0  0  0  0  0  0  0  0  0
    5.5265   -6.3237   22.8105 O   0  0  0  0  0  0  0  0  0  0  0  0
    3.8459   -6.3496   20.9604 C   0  0  2  0  0  0  0  0  0  0  0  0
    3.5408   -6.9998   19.6358 O   0  0  0  0  0  0  0  0  0  0  0  0
    3.8966   -4.8457   20.7283 C   0  0  0  0  0  0  0  0  0  0  0  0
    4.0274   -4.0948   22.0166 N   0  0  0  0  0  0  0  0  0  0  0  0
   -1.9784   -8.1588   19.7531 C   0  0  2  0  0  0  0  0  0  0  0  0
   -3.2887   -8.2618   19.1540 N   0  0  0  0  0  0  0  0  0  0  0  0
   -0.9349   -7.6803   18.6645 C   0  0  0  0  0  0  0  0  0  0  0  0
    0.5180   -7.5664   19.3103 C   0  0  2  0  0  0  0  0  0  0  0  0
    1.4940   -7.1009   18.2904 N   0  0  0  0  0  0  0  0  0  0  0  0
    0.9400   -8.9884   19.9077 C   0  0  2  0  0  0  0  0  0  0  0  0
   -0.1360   -9.4248   20.9911 C   0  0  2  0  0  0  0  0  0  0  0  0
    0.2347  -10.6940   21.5342 O   0  0  0  0  0  0  0  0  0  0  0  0
   -1.5707   -9.5296   20.3386 C   0  0  1  0  0  0  0  0  0  0  0  0
   -2.5436   -9.9081   21.3439 O   0  0  0  0  0  0  0  0  0  0  0  0
   -3.8908  -10.1416   21.1085 C   0  0  2  0  0  0  0  0  0  0  0  0
   -4.5313  -10.6150   22.4616 C   0  0  2  0  0  0  0  0  0  0  0  0
   -4.3272   -9.6483   23.4409 O   0  0  0  0  0  0  0  0  0  0  0  0
   -3.9646  -12.0254   22.9208 C   0  0  1  0  0  0  0  0  0  0  0  0
   -4.5966  -12.4627   24.2038 N   0  0  0  0  0  0  0  0  0  0  0  0
   -4.2332  -13.0833   21.7632 C   0  0  2  0  0  0  0  0  0  0  0  0
   -3.7498  -14.3797   22.1363 O   0  0  0  0  0  0  0  0  0  0  0  0
   -3.5341  -12.5606   20.4491 C   0  0  2  0  0  0  0  0  0  0  0  0
   -4.0626  -11.1851   20.0654 O   0  0  0  0  0  0  0  0  0  0  0  0
   -3.7637  -13.5077   19.2955 C   0  0  0  0  0  0  0  0  0  0  0  0
   -3.1754  -14.8034   19.5144 O   0  0  0  0  0  0  0  0  0  0  0  0
    4.6141  -10.5284   20.4110 O   0  0  0  0  0  0  0  0  0  0  0  0
    6.2346   -9.0062   22.1948 O   0  0  0  0  0  0  0  0  0  0  0  0
   -3.8617   -7.0983   18.5178 C   0  0  0  0  0  0  0  0  0  0  0  0
   -3.4627   -5.9413   18.8454 O   0  0  0  0  0  0  0  0  0  0  0  0
   -4.9681   -7.3248   17.4422 C   0  0  2  0  0  0  0  0  0  0  0  0
   -8.7920   -7.9525   17.8175 N   0  0  0  0  0  0  0  0  0  0  0  0
   -6.3305   -7.6873   18.1101 C   0  0  0  0  0  0  0  0  0  0  0  0
   -7.5077   -7.7016   17.1206 C   0  0  0  0  0  0  0  0  0  0  0  0
   -4.7039   -8.2961   16.6645 O   0  0  0  0  0  0  0  0  0  0  0  0
  1  2  1  1  0  0  0
  1  3  1  0  0  0  0
  1  8  1  0  0  0  0
  3  4  1  0  0  0  0
  3 32  1  1  0  0  0
  4  5  1  0  0  0  0
  4 33  1  6  0  0  0
  5  6  1  1  0  0  0
  5  7  1  0  0  0  0
  7  8  1  0  0  0  0
  7  9  1  6  0  0  0
  9 10  1  0  0  0  0
 11 12  1  6  0  0  0
 11 13  1  0  0  0  0
 11 19  1  0  0  0  0
 12 34  1  0  0  0  0
 13 14  1  0  0  0  0
 14 15  1  6  0  0  0
 14 16  1  0  0  0  0
 16  2  1  1  0  0  0
 16 17  1  0  0  0  0
 17 18  1  6  0  0  0
 17 19  1  0  0  0  0
 19 20  1  1  0  0  0
 21 20  1  1  0  0  0
 21 22  1  0  0  0  0
 21 29  1  0  0  0  0
 22 23  1  1  0  0  0
 22 24  1  0  0  0  0
 24 25  1  1  0  0  0
 24 26  1  0  0  0  0
 26 27  1  1  0  0  0
 26 28  1  0  0  0  0
 28 29  1  0  0  0  0
 28 30  1  6  0  0  0
 30 31  1  0  0  0  0
 34 35  2  0  0  0  0
 36 34  1  1  0  0  0
 36 38  1  0  0  0  0
 36 40  1  0  0  0  0
 37 39  1  0  0  0  0
 38 39  1  0  0  0  0
M  END
>  <CHROM.1>
-153.53566866,-59.43390531,-66.27284326,-57.13366358,62.72519653,176.27446452
-63.54664022,76.19335021,170.78317347,-175.83209106,-0.93387726,-9.12370584
20.35583462,0.20315815,-0.25528313,-0.49415765

>  <Name>
ligand

>  <RI>
0

>  <Rbt.Current_Directory>
/home/itssahil/PROJECTS/Mol_Feturizer/New_Systems/rnas/4P20

>  <Rbt.Executable>
rbdock ($Id: //depot/dev/client3/rdock/2013.1/src/exe/rbdock.cxx#4 $)

>  <Rbt.Library>
libRbt.so (2013.1, Build901 2013/11/27)

>  <Rbt.Parameter_File>
/export/apps/rDock/src/rDock_2013.1_src/data/scripts/dock_solv.prm

>  <Rbt.Receptor>
prm/pocket_docking_8.prm

>  <SCORE>
-14.8105

>  <SCORE.INTER>
-7.29837

>  <SCORE.INTER.CONST>
1

>  <SCORE.INTER.POLAR>
0

>  <SCORE.INTER.ROT>
10

>  <SCORE.INTER.SOLV>
17.858

>  <SCORE.INTER.VDW>
-21.0849

>  <SCORE.INTER.norm>
-0.182459

>  <SCORE.INTRA>
-7.51211

>  <SCORE.INTRA.DIHEDRAL>
-23.5817

>  <SCORE.INTRA.DIHEDRAL.0>
28.2802

>  <SCORE.INTRA.POLAR>
0

>  <SCORE.INTRA.POLAR.0>
0

>  <SCORE.INTRA.REPUL>
0

>  <SCORE.INTRA.REPUL.0>
0

>  <SCORE.INTRA.SOLV>
1.73141

>  <SCORE.INTRA.SOLV.lig_0>
-101.981

>  <SCORE.INTRA.VDW>
3.41302

>  <SCORE.INTRA.VDW.0>
-5.72964

>  <SCORE.INTRA.norm>
-0.187803

>  <SCORE.RESTR>
0

>  <SCORE.RESTR.CAVITY>
0

>  <SCORE.RESTR.norm>
0

>  <SCORE.SYSTEM>
0

>  <SCORE.SYSTEM.CONST>
0

>  <SCORE.SYSTEM.DIHEDRAL>
0

>  <SCORE.SYSTEM.SOLV>
0

>  <SCORE.SYSTEM.norm>
0

>  <SCORE.heavy>
40

>  <SCORE.norm>
-0.370262

>  <RMSD>
5.540

$$$$
ligand
 OpenBabel11021811513D
libRbt.so/2013.1/901 2013/11/27
 40 42  0  0  0  0  0  0  0  0999 V2000
    2.2683   -7.4341   19.7360 C   0  0  2  0  0  0  0  0  0  0  0  0
    2.8959   -7.3981   18.4446 O   0  0  0  0  0  0  0  0  0  0  0  0
    2.5933   -6.1237   20.5463 C   0  0  1  0  0  0  0  0  0  0  0  0
    4.1084   -6.0242   20.8894 C   0  0  2  0  0  0  0  0  0  0  0  0
    4.4843   -7.2746   21.7459 C   0  0  2  0  0  0  0  0  0  0  0  0
    5.8808   -7.2025   22.1054 O   0  0  0  0  0  0  0  0  0  0  0  0
    4.1884   -8.5811   20.8875 C   0  0  2  0  0  0  0  0  0  0  0  0
    2.7279   -8.6250   20.5197 O   0  0  0  0  0  0  0  0  0  0  0  0
    4.5052   -9.8622   21.6468 C   0  0  0  0  0  0  0  0  0  0  0  0
    5.9811  -10.0611   21.7977 N   0  0  0  0  0  0  0  0  0  0  0  0
    1.9523   -9.7987   14.8842 C   0  0  2  0  0  0  0  0  0  0  0  0
    1.9039  -10.9229   13.9785 N   0  0  0  0  0  0  0  0  0  0  0  0
    3.4586   -9.3839   15.1328 C   0  0  0  0  0  0  0  0  0  0  0  0
    3.5283   -8.1464   16.1351 C   0  0  2  0  0  0  0  0  0  0  0  0
    4.9433   -7.7476   16.3547 N   0  0  0  0  0  0  0  0  0  0  0  0
    2.8197   -8.5453   17.5120 C   0  0  2  0  0  0  0  0  0  0  0  0
    1.3151   -8.9542   17.2103 C   0  0  2  0  0  0  0  0  0  0  0  0
    0.6716   -9.3091   18.4363 O   0  0  0  0  0  0  0  0  0  0  0  0
    1.2612  -10.1782   16.2133 C   0  0  1  0  0  0  0  0  0  0  0  0
   -0.1176  -10.5252   15.9321 O   0  0  0  0  0  0  0  0  0  0  0  0
   -0.5344  -11.6354   15.2119 C   0  0  2  0  0  0  0  0  0  0  0  0
   -2.1043  -11.6255   15.1960 C   0  0  2  0  0  0  0  0  0  0  0  0
   -2.5605  -10.4348   14.6398 O   0  0  0  0  0  0  0  0  0  0  0  0
   -2.7104  -11.8506   16.6463 C   0  0  1  0  0  0  0  0  0  0  0  0
   -4.2054  -11.8500   16.6062 N   0  0  0  0  0  0  0  0  0  0  0  0
   -2.1557  -13.2261   17.2220 C   0  0  2  0  0  0  0  0  0  0  0  0
   -2.6859  -13.4816   18.5286 O   0  0  0  0  0  0  0  0  0  0  0  0
   -0.5800  -13.1503   17.2410 C   0  0  2  0  0  0  0  0  0  0  0  0
   -0.0343  -12.8828   15.8448 O   0  0  0  0  0  0  0  0  0  0  0  0
    0.0216  -14.4348   17.7592 C   0  0  0  0  0  0  0  0  0  0  0  0
    1.4593  -14.3903   17.8201 O   0  0  0  0  0  0  0  0  0  0  0  0
    2.1680   -4.9777   19.7528 O   0  0  0  0  0  0  0  0  0  0  0  0
    4.3322   -4.8728   21.6048 O   0  0  0  0  0  0  0  0  0  0  0  0
    2.5339  -12.1634   14.3672 C   0  0  0  0  0  0  0  0  0  0  0  0
    3.4585  -12.1554   15.2333 O   0  0  0  0  0  0  0  0  0  0  0  0
    2.0412  -13.4772   13.6863 C   0  0  2  0  0  0  0  0  0  0  0  0
    4.7562  -14.7879   13.3317 N   0  0  0  0  0  0  0  0  0  0  0  0
    2.7559  -13.6990   12.3176 C   0  0  0  0  0  0  0  0  0  0  0  0
    4.2898  -13.7093   12.4275 C   0  0  0  0  0  0  0  0  0  0  0  0
    0.7979  -13.4538   13.4185 O   0  0  0  0  0  0  0  0  0  0  0  0
  1  2  1  6  0  0  0
  1  3  1  0  0  0  0
  1  8  1  0  0  0  0
  3  4  1  0  0  0  0
  3 32  1  6  0  0  0
  4  5  1  0  0  0  0
  4 33  1  1  0  0  0
  5  6  1  6  0  0  0
  5  7  1  0  0  0  0
  7  8  1  0  0  0  0
  7  9  1  1  0  0  0
  9 10  1  0  0  0  0
 11 12  1  6  0  0  0
 11 13  1  0  0  0  0
 11 19  1  0  0  0  0
 12 34  1  0  0  0  0
 13 14  1  0  0  0  0
 14 15  1  1  0  0  0
 14 16  1  0  0  0  0
 16  2  1  1  0  0  0
 16 17  1  0  0  0  0
 17 18  1  1  0  0  0
 17 19  1  0  0  0  0
 19 20  1  6  0  0  0
 21 20  1  1  0  0  0
 21 22  1  0  0  0  0
 21 29  1  0  0  0  0
 22 23  1  1  0  0  0
 22 24  1  0  0  0  0
 24 25  1  6  0  0  0
 24 26  1  0  0  0  0
 26 27  1  1  0  0  0
 26 28  1  0  0  0  0
 28 29  1  0  0  0  0
 28 30  1  6  0  0  0
 30 31  1  0  0  0  0
 34 35  2  0  0  0  0
 36 34  1  6  0  0  0
 36 38  1  0  0  0  0
 36 40  1  0  0  0  0
 37 39  1  0  0  0  0
 38 39  1  0  0  0  0
M  END
>  <CHROM.1>
176.18483960,176.08905526,-71.72456358,61.38923783,67.26424368,178.43796265
-178.63671619,84.31016287,55.79344090,59.80093130,1.80337417,-10.35242223
17.25388621,1.12824761,0.22412173,0.88042835

>  <Name>
ligand

>  <RI>
0

>  <Rbt.Current_Directory>
/home/itssahil/PROJECTS/Mol_Feturizer/New_Systems/rnas/4P20

>  <Rbt.Executable>
rbdock ($Id: //depot/dev/client3/rdock/2013.1/src/exe/rbdock.cxx#4 $)

>  <Rbt.Library>
libRbt.so (2013.1, Build901 2013/11/27)

>  <Rbt.Parameter_File>
/export/apps/rDock/src/rDock_2013.1_src/data/scripts/dock_solv.prm

>  <Rbt.Receptor>
prm/pocket_docking_6.prm

>  <SCORE>
-13.6525

>  <SCORE.INTER>
-3.7154

>  <SCORE.INTER.CONST>
1

>  <SCORE.INTER.POLAR>
0

>  <SCORE.INTER.ROT>
10

>  <SCORE.INTER.SOLV>
18.0659

>  <SCORE.INTER.VDW>
-18.7656

>  <SCORE.INTER.norm>
-0.0928851

>  <SCORE.INTRA>
-9.93707

>  <SCORE.INTRA.DIHEDRAL>
-25.8989

>  <SCORE.INTRA.DIHEDRAL.0>
28.2802

>  <SCORE.INTRA.POLAR>
0

>  <SCORE.INTRA.POLAR.0>
0

>  <SCORE.INTRA.REPUL>
0

>  <SCORE.INTRA.REPUL.0>
0

>  <SCORE.INTRA.SOLV>
2.45433

>  <SCORE.INTRA.SOLV.lig_0>
-101.981

>  <SCORE.INTRA.VDW>
1.78521

>  <SCORE.INTRA.VDW.0>
-5.72964

>  <SCORE.INTRA.norm>
-0.248427

>  <SCORE.RESTR>
0

>  <SCORE.RESTR.CAVITY>
0

>  <SCORE.RESTR.norm>
0

>  <SCORE.SYSTEM>
0

>  <SCORE.SYSTEM.CONST>
0

>  <SCORE.SYSTEM.DIHEDRAL>
0

>  <SCORE.SYSTEM.SOLV>
0

>  <SCORE.SYSTEM.norm>
0

>  <SCORE.heavy>
40

>  <SCORE.norm>
-0.341312

>  <RMSD>
5.583

$$$$
ligand
 OpenBabel11021811513D
libRbt.so/2013.1/901 2013/11/27
 40 42  0  0  0  0  0  0  0  0999 V2000
    4.7695   -7.3314   19.4852 C   0  0  2  0  0  0  0  0  0  0  0  0
    3.4555   -7.9058   19.4044 O   0  0  0  0  0  0  0  0  0  0  0  0
    5.5482   -7.9032   20.7285 C   0  0  1  0  0  0  0  0  0  0  0  0
    4.8862   -7.4672   22.0681 C   0  0  2  0  0  0  0  0  0  0  0  0
    4.8973   -5.9065   22.1175 C   0  0  2  0  0  0  0  0  0  0  0  0
    4.3125   -5.4657   23.3617 O   0  0  0  0  0  0  0  0  0  0  0  0
    4.0669   -5.3570   20.8766 C   0  0  2  0  0  0  0  0  0  0  0  0
    4.6939   -5.8395   19.5943 O   0  0  0  0  0  0  0  0  0  0  0  0
    4.0352   -3.8356   20.8234 C   0  0  0  0  0  0  0  0  0  0  0  0
    3.2863   -3.2606   21.9849 N   0  0  0  0  0  0  0  0  0  0  0  0
    1.6571   -9.5714   15.7545 C   0  0  2  0  0  0  0  0  0  0  0  0
    1.3279  -10.5156   14.7122 N   0  0  0  0  0  0  0  0  0  0  0  0
    3.2213   -9.3368   15.7815 C   0  0  0  0  0  0  0  0  0  0  0  0
    3.6006   -8.2997   16.9311 C   0  0  2  0  0  0  0  0  0  0  0  0
    5.0688   -8.0679   16.9443 N   0  0  0  0  0  0  0  0  0  0  0  0
    3.0920   -8.8656   18.3375 C   0  0  2  0  0  0  0  0  0  0  0  0
    1.5211   -9.0855   18.2596 C   0  0  2  0  0  0  0  0  0  0  0  0
    1.0560   -9.5881   19.5143 O   0  0  0  0  0  0  0  0  0  0  0  0
    1.1598  -10.1116   17.1143 C   0  0  1  0  0  0  0  0  0  0  0  0
   -0.2774  -10.2851   17.0426 O   0  0  0  0  0  0  0  0  0  0  0  0
   -1.1473   -9.4806   16.3208 C   0  0  2  0  0  0  0  0  0  0  0  0
   -1.5195   -8.2548   17.2285 C   0  0  2  0  0  0  0  0  0  0  0  0
   -0.3624   -7.5783   17.6011 O   0  0  0  0  0  0  0  0  0  0  0  0
   -2.3606   -8.6967   18.5007 C   0  0  1  0  0  0  0  0  0  0  0  0
   -2.7148   -7.5134   19.3440 N   0  0  0  0  0  0  0  0  0  0  0  0
   -3.6680   -9.4574   18.0075 C   0  0  2  0  0  0  0  0  0  0  0  0
   -4.4698   -9.8666   19.1225 O   0  0  0  0  0  0  0  0  0  0  0  0
   -3.2175  -10.6916   17.1342 C   0  0  2  0  0  0  0  0  0  0  0  0
   -2.3708  -10.2382   15.9527 O   0  0  0  0  0  0  0  0  0  0  0  0
   -4.4112  -11.4546   16.6114 C   0  0  0  0  0  0  0  0  0  0  0  0
   -4.8305  -12.5074   17.4994 O   0  0  0  0  0  0  0  0  0  0  0  0
    5.5819   -9.3560   20.6188 O   0  0  0  0  0  0  0  0  0  0  0  0
    5.6111   -7.9815   23.1158 O   0  0  0  0  0  0  0  0  0  0  0  0
    1.9014  -10.3369   13.3983 C   0  0  0  0  0  0  0  0  0  0  0  0
    2.3031   -9.1908   13.0375 O   0  0  0  0  0  0  0  0  0  0  0  0
    1.9959  -11.5845   12.4672 C   0  0  2  0  0  0  0  0  0  0  0  0
    3.9651  -13.5503   13.9282 N   0  0  0  0  0  0  0  0  0  0  0  0
    1.6587  -12.8917   13.2487 C   0  0  0  0  0  0  0  0  0  0  0  0
    2.6195  -13.1659   14.4178 C   0  0  0  0  0  0  0  0  0  0  0  0
    3.1667  -11.7612   12.0021 O   0  0  0  0  0  0  0  0  0  0  0  0
  1  2  1  1  0  0  0
  1  3  1  0  0  0  0
  1  8  1  0  0  0  0
  3  4  1  0  0  0  0
  3 32  1  6  0  0  0
  4  5  1  0  0  0  0
  4 33  1  1  0  0  0
  5  6  1  1  0  0  0
  5  7  1  0  0  0  0
  7  8  1  0  0  0  0
  7  9  1  6  0  0  0
  9 10  1  0  0  0  0
 11 12  1  6  0  0  0
 11 13  1  0  0  0  0
 11 19  1  0  0  0  0
 12 34  1  0  0  0  0
 13 14  1  0  0  0  0
 14 15  1  1  0  0  0
 14 16  1  0  0  0  0
 16  2  1  1  0  0  0
 16 17  1  0  0  0  0
 17 18  1  1  0  0  0
 17 19  1  0  0  0  0
 19 20  1  6  0  0  0
 21 20  1  1  0  0  0
 21 22  1  0  0  0  0
 21 29  1  0  0  0  0
 22 23  1  1  0  0  0
 22 24  1  0  0  0  0
 24 25  1  6  0  0  0
 24 26  1  0  0  0  0
 26 27  1  1  0  0  0
 26 28  1  0  0  0  0
 28 29  1  0  0  0  0
 28 30  1  6  0  0  0
 30 31  1  0  0  0  0
 34 35  2  0  0  0  0
 36 34  1  1  0  0  0
 36 38  1  0  0  0  0
 36 40  1  0  0  0  0
 37 39  1  0  0  0  0
 38 39  1  0  0  0  0
M  END
>  <CHROM.1>
-109.85326280,-46.48282980,-65.80961311,-47.42198001,-33.91192095,-85.52284826
-90.53570271,-9.90992497,-61.07107269,-70.37441386,1.56725470,-8.99691750
17.78691110,-0.95659655,-0.12706608,-2.16229174

>  <Name>
ligand

>  <RI>
0

>  <Rbt.Current_Directory>
/home/itssahil/PROJECTS/Mol_Feturizer/New_Systems/rnas/4P20

>  <Rbt.Executable>
rbdock ($Id: //depot/dev/client3/rdock/2013.1/src/exe/rbdock.cxx#4 $)

>  <Rbt.Library>
libRbt.so (2013.1, Build901 2013/11/27)

>  <Rbt.Parameter_File>
/export/apps/rDock/src/rDock_2013.1_src/data/scripts/dock_solv.prm

>  <Rbt.Receptor>
prm/pocket_docking_2.prm

>  <SCORE>
3.06064

>  <SCORE.INTER>
-4.30157

>  <SCORE.INTER.CONST>
1

>  <SCORE.INTER.POLAR>
0

>  <SCORE.INTER.ROT>
10

>  <SCORE.INTER.SOLV>
19.0325

>  <SCORE.INTER.VDW>
-19.4785

>  <SCORE.INTER.norm>
-0.107539

>  <SCORE.INTRA>
4.06592

>  <SCORE.INTRA.DIHEDRAL>
-9.38896

>  <SCORE.INTRA.DIHEDRAL.0>
28.2802

>  <SCORE.INTRA.POLAR>
0

>  <SCORE.INTRA.POLAR.0>
0

>  <SCORE.INTRA.REPUL>
0

>  <SCORE.INTRA.REPUL.0>
0

>  <SCORE.INTRA.SOLV>
4.65515

>  <SCORE.INTRA.SOLV.lig_0>
-101.981

>  <SCORE.INTRA.VDW>
6.43282

>  <SCORE.INTRA.VDW.0>
-5.72964

>  <SCORE.INTRA.norm>
0.101648

>  <SCORE.RESTR>
3.29629

>  <SCORE.RESTR.CAVITY>
3.29629

>  <SCORE.RESTR.norm>
0.0824072

>  <SCORE.SYSTEM>
0

>  <SCORE.SYSTEM.CONST>
0

>  <SCORE.SYSTEM.DIHEDRAL>
0

>  <SCORE.SYSTEM.SOLV>
0

>  <SCORE.SYSTEM.norm>
0

>  <SCORE.heavy>
40

>  <SCORE.norm>
0.0765159

>  <RMSD>
5.603

$$$$
ligand
 OpenBabel11021811513D
libRbt.so/2013.1/901 2013/11/27
 40 42  0  0  0  0  0  0  0  0999 V2000
    2.0930   -6.3157   20.3055 C   0  0  2  0  0  0  0  0  0  0  0  0
    2.6720   -6.5436   19.0110 O   0  0  0  0  0  0  0  0  0  0  0  0
    2.5330   -4.9131   20.8697 C   0  0  1  0  0  0  0  0  0  0  0  0
    4.0633   -4.8638   21.1505 C   0  0  2  0  0  0  0  0  0  0  0  0
    4.3897   -5.9741   22.1988 C   0  0  2  0  0  0  0  0  0  0  0  0
    5.8005   -5.9407   22.5036 O   0  0  0  0  0  0  0  0  0  0  0  0
    3.9770   -7.3832   21.5858 C   0  0  2  0  0  0  0  0  0  0  0  0
    2.5039   -7.3858   21.2697 O   0  0  0  0  0  0  0  0  0  0  0  0
    4.2387   -8.5360   22.5454 C   0  0  0  0  0  0  0  0  0  0  0  0
    3.9813   -9.8603   21.8967 N   0  0  0  0  0  0  0  0  0  0  0  0
    1.7567   -9.4602   15.8510 C   0  0  2  0  0  0  0  0  0  0  0  0
    1.6223  -10.7271   15.1703 N   0  0  0  0  0  0  0  0  0  0  0  0
    3.2717   -9.2281   16.2430 C   0  0  0  0  0  0  0  0  0  0  0  0
    3.4349   -7.8348   17.0000 C   0  0  2  0  0  0  0  0  0  0  0  0
    4.8614   -7.6107   17.3530 N   0  0  0  0  0  0  0  0  0  0  0  0
    2.5097   -7.8342   18.3041 C   0  0  2  0  0  0  0  0  0  0  0  0
    1.0037   -8.0718   17.8598 C   0  0  2  0  0  0  0  0  0  0  0  0
    0.1675   -8.0692   19.0191 O   0  0  0  0  0  0  0  0  0  0  0  0
    0.8575   -9.4533   17.1078 C   0  0  1  0  0  0  0  0  0  0  0  0
   -0.5173   -9.6451   16.6910 O   0  0  0  0  0  0  0  0  0  0  0  0
   -1.3613  -10.6472   17.1473 C   0  0  2  0  0  0  0  0  0  0  0  0
   -2.6691  -10.5940   16.2802 C   0  0  2  0  0  0  0  0  0  0  0  0
   -2.3472  -10.7478   14.9356 O   0  0  0  0  0  0  0  0  0  0  0  0
   -3.4852   -9.2542   16.5252 C   0  0  1  0  0  0  0  0  0  0  0  0
   -4.7321   -9.2300   15.6997 N   0  0  0  0  0  0  0  0  0  0  0  0
   -3.8252   -9.1414   18.0754 C   0  0  2  0  0  0  0  0  0  0  0  0
   -4.5751   -7.9508   18.3466 O   0  0  0  0  0  0  0  0  0  0  0  0
   -2.4675   -9.1662   18.8785 C   0  0  2  0  0  0  0  0  0  0  0  0
   -1.6865  -10.4392   18.5817 O   0  0  0  0  0  0  0  0  0  0  0  0
   -2.7123   -9.0829   20.3663 C   0  0  0  0  0  0  0  0  0  0  0  0
   -1.5124   -9.2740   21.1387 O   0  0  0  0  0  0  0  0  0  0  0  0
    2.1530   -3.8912   19.9026 O   0  0  0  0  0  0  0  0  0  0  0  0
    4.3885   -3.6264   21.6511 O   0  0  0  0  0  0  0  0  0  0  0  0
    0.8300  -10.7938   13.9642 C   0  0  0  0  0  0  0  0  0  0  0  0
   -0.0635   -9.9219   13.7491 O   0  0  0  0  0  0  0  0  0  0  0  0
    1.1132  -11.9601   12.9682 C   0  0  2  0  0  0  0  0  0  0  0  0
    3.1718  -13.7836   14.3879 N   0  0  0  0  0  0  0  0  0  0  0  0
    0.8366  -13.3433   13.6344 C   0  0  0  0  0  0  0  0  0  0  0  0
    1.7626  -13.6401   14.8258 C   0  0  0  0  0  0  0  0  0  0  0  0
    2.3287  -12.0017   12.5952 O   0  0  0  0  0  0  0  0  0  0  0  0
  1  2  1  6  0  0  0
  1  3  1  0  0  0  0
  1  8  1  0  0  0  0
  3  4  1  0  0  0  0
  3 32  1  6  0  0  0
  4  5  1  0  0  0  0
  4 33  1  1  0  0  0
  5  6  1  6  0  0  0
  5  7  1  0  0  0  0
  7  8  1  0  0  0  0
  7  9  1  1  0  0  0
  9 10  1  0  0  0  0
 11 12  1  1  0  0  0
 11 13  1  0  0  0  0
 11 19  1  0  0  0  0
 12 34  1  0  0  0  0
 13 14  1  0  0  0  0
 14 15  1  1  0  0  0
 14 16  1  0  0  0  0
 16  2  1  6  0  0  0
 16 17  1  0  0  0  0
 17 18  1  1  0  0  0
 17 19  1  0  0  0  0
 19 20  1  6  0  0  0
 21 20  1  6  0  0  0
 21 22  1  0  0  0  0
 21 29  1  0  0  0  0
 22 23  1  6  0  0  0
 22 24  1  0  0  0  0
 24 25  1  6  0  0  0
 24 26  1  0  0  0  0
 26 27  1  6  0  0  0
 26 28  1  0  0  0  0
 28 29  1  0  0  0  0
 28 30  1  1  0  0  0
 30 31  1  0  0  0  0
 34 35  2  0  0  0  0
 36 34  1  1  0  0  0
 36 38  1  0  0  0  0
 36 40  1  0  0  0  0
 37 39  1  0  0  0  0
 38 39  1  0  0  0  0
M  END
>  <CHROM.1>
174.88584615,-172.13381003,-173.92655283,-134.40335529,124.18295912,-172.01597473
172.56434403,62.11046265,-63.51038721,-65.72275315,1.00041563,-8.82846045
17.96646206,1.08004896,0.04061721,0.90917020

>  <Name>
ligand

>  <RI>
0

>  <Rbt.Current_Directory>
/home/itssahil/PROJECTS/Mol_Feturizer/New_Systems/rnas/4P20

>  <Rbt.Executable>
rbdock ($Id: //depot/dev/client3/rdock/2013.1/src/exe/rbdock.cxx#4 $)

>  <Rbt.Library>
libRbt.so (2013.1, Build901 2013/11/27)

>  <Rbt.Parameter_File>
/export/apps/rDock/src/rDock_2013.1_src/data/scripts/dock_solv.prm

>  <Rbt.Receptor>
prm/pocket_docking_3.prm

>  <SCORE>
-13.3912

>  <SCORE.INTER>
-6.11799

>  <SCORE.INTER.CONST>
1

>  <SCORE.INTER.POLAR>
0

>  <SCORE.INTER.ROT>
10

>  <SCORE.INTER.SOLV>
22.3338

>  <SCORE.INTER.VDW>
-21.7899

>  <SCORE.INTER.norm>
-0.15295

>  <SCORE.INTRA>
-7.31122

>  <SCORE.INTRA.DIHEDRAL>
-18.0706

>  <SCORE.INTRA.DIHEDRAL.0>
28.2802

>  <SCORE.INTRA.POLAR>
0

>  <SCORE.INTRA.POLAR.0>
0

>  <SCORE.INTRA.REPUL>
0

>  <SCORE.INTRA.REPUL.0>
0

>  <SCORE.INTRA.SOLV>
2.8175

>  <SCORE.INTRA.SOLV.lig_0>
-101.981

>  <SCORE.INTRA.VDW>
0.31535

>  <SCORE.INTRA.VDW.0>
-5.72964

>  <SCORE.INTRA.norm>
-0.18278

>  <SCORE.RESTR>
0.0380132

>  <SCORE.RESTR.CAVITY>
0.0380132

>  <SCORE.RESTR.norm>
0.000950329

>  <SCORE.SYSTEM>
0

>  <SCORE.SYSTEM.CONST>
0

>  <SCORE.SYSTEM.DIHEDRAL>
0

>  <SCORE.SYSTEM.SOLV>
0

>  <SCORE.SYSTEM.norm>
0

>  <SCORE.heavy>
40

>  <SCORE.norm>
-0.33478

>  <RMSD>
5.604

$$$$
ligand
 OpenBabel11021811513D
libRbt.so/2013.1/901 2013/11/27
 40 42  0  0  0  0  0  0  0  0999 V2000
    2.0877   -6.3038   20.4092 C   0  0  2  0  0  0  0  0  0  0  0  0
    2.5983   -6.6005   19.1000 O   0  0  0  0  0  0  0  0  0  0  0  0
    2.6381   -4.9188   20.9174 C   0  0  1  0  0  0  0  0  0  0  0  0
    4.1784   -4.9612   21.1372 C   0  0  2  0  0  0  0  0  0  0  0  0
    4.4760   -6.0638   22.2021 C   0  0  2  0  0  0  0  0  0  0  0  0
    5.8973   -6.1136   22.4510 O   0  0  0  0  0  0  0  0  0  0  0  0
    3.9505   -7.4582   21.6443 C   0  0  2  0  0  0  0  0  0  0  0  0
    2.4686   -7.3738   21.3857 O   0  0  0  0  0  0  0  0  0  0  0  0
    4.1772   -8.6013   22.6242 C   0  0  0  0  0  0  0  0  0  0  0  0
    3.9225   -9.9310   21.9859 N   0  0  0  0  0  0  0  0  0  0  0  0
    0.8410   -8.9750   15.8436 C   0  0  2  0  0  0  0  0  0  0  0  0
    0.3894  -10.1219   15.0906 N   0  0  0  0  0  0  0  0  0  0  0  0
    2.3973   -9.0916   16.1030 C   0  0  0  0  0  0  0  0  0  0  0  0
    2.9098   -7.8342   16.9379 C   0  0  2  0  0  0  0  0  0  0  0  0
    4.3749   -7.9371   17.1665 N   0  0  0  0  0  0  0  0  0  0  0  0
    2.1123   -7.7625   18.3220 C   0  0  2  0  0  0  0  0  0  0  0  0
    0.5595   -7.6484   18.0095 C   0  0  2  0  0  0  0  0  0  0  0  0
   -0.1623   -7.5799   19.2414 O   0  0  0  0  0  0  0  0  0  0  0  0
    0.0666   -8.8982   17.1787 C   0  0  1  0  0  0  0  0  0  0  0  0
   -1.3466   -8.7686   16.8840 O   0  0  0  0  0  0  0  0  0  0  0  0
   -2.3618   -8.7216   17.8285 C   0  0  2  0  0  0  0  0  0  0  0  0
   -2.5729  -10.1810   18.3675 C   0  0  2  0  0  0  0  0  0  0  0  0
   -1.3807  -10.6621   18.8989 O   0  0  0  0  0  0  0  0  0  0  0  0
   -3.1318  -11.1507   17.2412 C   0  0  1  0  0  0  0  0  0  0  0  0
   -3.3372  -12.5311   17.7790 N   0  0  0  0  0  0  0  0  0  0  0  0
   -4.4935  -10.5485   16.6807 C   0  0  2  0  0  0  0  0  0  0  0  0
   -5.0461  -11.3973   15.6669 O   0  0  0  0  0  0  0  0  0  0  0  0
   -4.1986   -9.1011   16.1267 C   0  0  2  0  0  0  0  0  0  0  0  0
   -3.6164   -8.2124   17.2175 O   0  0  0  0  0  0  0  0  0  0  0  0
   -5.4548   -8.4548   15.5933 C   0  0  0  0  0  0  0  0  0  0  0  0
   -6.3997   -8.1357   16.6316 O   0  0  0  0  0  0  0  0  0  0  0  0
    2.2848   -3.8989   19.9381 O   0  0  0  0  0  0  0  0  0  0  0  0
    4.6014   -3.7352   21.5908 O   0  0  0  0  0  0  0  0  0  0  0  0
    1.0631  -10.4606   13.8584 C   0  0  0  0  0  0  0  0  0  0  0  0
    1.7086   -9.5706   13.2289 O   0  0  0  0  0  0  0  0  0  0  0  0
    0.9577  -11.9309   13.3490 C   0  0  2  0  0  0  0  0  0  0  0  0
    3.7394  -11.0018   12.1831 N   0  0  0  0  0  0  0  0  0  0  0  0
    1.4998  -12.0574   11.8917 C   0  0  0  0  0  0  0  0  0  0  0  0
    3.0241  -12.2501   11.8249 C   0  0  0  0  0  0  0  0  0  0  0  0
   -0.2431  -12.3477   13.3003 O   0  0  0  0  0  0  0  0  0  0  0  0
  1  2  1  6  0  0  0
  1  3  1  0  0  0  0
  1  8  1  0  0  0  0
  3  4  1  0  0  0  0
  3 32  1  6  0  0  0
  4  5  1  0  0  0  0
  4 33  1  1  0  0  0
  5  6  1  6  0  0  0
  5  7  1  0  0  0  0
  7  8  1  0  0  0  0
  7  9  1  1  0  0  0
  9 10  1  0  0  0  0
 11 12  1  1  0  0  0
 11 13  1  0  0  0  0
 11 19  1  0  0  0  0
 12 34  1  0  0  0  0
 13 14  1  0  0  0  0
 14 15  1  1  0  0  0
 14 16  1  0  0  0  0
 16  2  1  6  0  0  0
 16 17  1  0  0  0  0
 17 18  1  1  0  0  0
 17 19  1  0  0  0  0
 19 20  1  6  0  0  0
 21 20  1  6  0  0  0
 21 22  1  0  0  0  0
 21 29  1  0  0  0  0
 22 23  1  6  0  0  0
 22 24  1  0  0  0  0
 24 25  1  1  0  0  0
 24 26  1  0  0  0  0
 26 27  1  6  0  0  0
 26 28  1  0  0  0  0
 28 29  1  0  0  0  0
 28 30  1  1  0  0  0
 30 31  1  0  0  0  0
 34 35  2  0  0  0  0
 36 34  1  6  0  0  0
 36 38  1  0  0  0  0
 36 40  1  0  0  0  0
 37 39  1  0  0  0  0
 38 39  1  0  0  0  0
M  END
>  <CHROM.1>
-172.54209542,-178.27567863,-169.05835336,-52.78503733,177.45541863,-75.44567078
68.72675059,169.12730341,84.90805678,-71.65946731,0.60769578,-8.70712573
17.61382967,0.90049562,0.09331864,1.01705576

>  <Name>
ligand

>  <RI>
0

>  <Rbt.Current_Directory>
/home/itssahil/PROJECTS/Mol_Feturizer/New_Systems/rnas/4P20

>  <Rbt.Executable>
rbdock ($Id: //depot/dev/client3/rdock/2013.1/src/exe/rbdock.cxx#4 $)

>  <Rbt.Library>
libRbt.so (2013.1, Build901 2013/11/27)

>  <Rbt.Parameter_File>
/export/apps/rDock/src/rDock_2013.1_src/data/scripts/dock_solv.prm

>  <Rbt.Receptor>
prm/pocket_docking_3.prm

>  <SCORE>
-18.249

>  <SCORE.INTER>
-10.0452

>  <SCORE.INTER.CONST>
1

>  <SCORE.INTER.POLAR>
0

>  <SCORE.INTER.ROT>
10

>  <SCORE.INTER.SOLV>
20.6449

>  <SCORE.INTER.VDW>
-23.8451

>  <SCORE.INTER.norm>
-0.251129

>  <SCORE.INTRA>
-8.20381

>  <SCORE.INTRA.DIHEDRAL>
-22.7921

>  <SCORE.INTRA.DIHEDRAL.0>
28.2802

>  <SCORE.INTRA.POLAR>
0

>  <SCORE.INTRA.POLAR.0>
0

>  <SCORE.INTRA.REPUL>
0

>  <SCORE.INTRA.REPUL.0>
0

>  <SCORE.INTRA.SOLV>
0.826046

>  <SCORE.INTRA.SOLV.lig_0>
-101.981

>  <SCORE.INTRA.VDW>
2.77923

>  <SCORE.INTRA.VDW.0>
-5.72964

>  <SCORE.INTRA.norm>
-0.205095

>  <SCORE.RESTR>
0

>  <SCORE.RESTR.CAVITY>
0

>  <SCORE.RESTR.norm>
0

>  <SCORE.SYSTEM>
0

>  <SCORE.SYSTEM.CONST>
0

>  <SCORE.SYSTEM.DIHEDRAL>
0

>  <SCORE.SYSTEM.SOLV>
0

>  <SCORE.SYSTEM.norm>
0

>  <SCORE.heavy>
40

>  <SCORE.norm>
-0.456224

>  <RMSD>
5.657

$$$$
ligand
 OpenBabel11021811513D
libRbt.so/2013.1/901 2013/11/27
 40 42  0  0  0  0  0  0  0  0999 V2000
    2.1877   -7.0794   19.9608 C   0  0  2  0  0  0  0  0  0  0  0  0
    2.7769   -7.1224   18.6516 O   0  0  0  0  0  0  0  0  0  0  0  0
    2.6182   -5.7682   20.7189 C   0  0  1  0  0  0  0  0  0  0  0  0
    4.1462   -5.7544   21.0155 C   0  0  2  0  0  0  0  0  0  0  0  0
    4.4693   -6.9995   21.9008 C   0  0  2  0  0  0  0  0  0  0  0  0
    5.8778   -7.0050   22.2180 O   0  0  0  0  0  0  0  0  0  0  0  0
    4.0665   -8.3102   21.0937 C   0  0  2  0  0  0  0  0  0  0  0  0
    2.5957   -8.2726   20.7690 O   0  0  0  0  0  0  0  0  0  0  0  0
    4.3257   -9.5851   21.8846 C   0  0  0  0  0  0  0  0  0  0  0  0
    3.9353  -10.8032   21.1071 N   0  0  0  0  0  0  0  0  0  0  0  0
    1.5992   -9.4544   15.1153 C   0  0  2  0  0  0  0  0  0  0  0  0
    1.4161  -10.5829   14.2325 N   0  0  0  0  0  0  0  0  0  0  0  0
    3.1418   -9.2512   15.4015 C   0  0  0  0  0  0  0  0  0  0  0  0
    3.3595   -8.0112   16.3791 C   0  0  2  0  0  0  0  0  0  0  0  0
    4.8103   -7.8116   16.6338 N   0  0  0  0  0  0  0  0  0  0  0  0
    2.5636   -8.2705   17.7415 C   0  0  2  0  0  0  0  0  0  0  0  0
    1.0250   -8.4693   17.4022 C   0  0  2  0  0  0  0  0  0  0  0  0
    0.3039   -8.6982   18.6150 O   0  0  0  0  0  0  0  0  0  0  0  0
    0.8247   -9.6982   16.4301 C   0  0  1  0  0  0  0  0  0  0  0  0
   -0.5812   -9.8531   16.1139 O   0  0  0  0  0  0  0  0  0  0  0  0
   -1.1060  -10.7812   15.2261 C   0  0  2  0  0  0  0  0  0  0  0  0
   -2.6442  -10.8970   15.5190 C   0  0  2  0  0  0  0  0  0  0  0  0
   -3.2419   -9.6475   15.3897 O   0  0  0  0  0  0  0  0  0  0  0  0
   -2.9266  -11.5228   16.9508 C   0  0  1  0  0  0  0  0  0  0  0  0
   -4.3963  -11.6355   17.2037 N   0  0  0  0  0  0  0  0  0  0  0  0
   -2.2231  -12.9475   17.0315 C   0  0  2  0  0  0  0  0  0  0  0  0
   -2.4604  -13.5608   18.3046 O   0  0  0  0  0  0  0  0  0  0  0  0
   -0.6812  -12.7492   16.7626 C   0  0  2  0  0  0  0  0  0  0  0  0
   -0.4477  -12.1008   15.4047 O   0  0  0  0  0  0  0  0  0  0  0  0
    0.0536  -14.0678   16.8033 C   0  0  0  0  0  0  0  0  0  0  0  0
    0.0235  -14.6810   18.1056 O   0  0  0  0  0  0  0  0  0  0  0  0
    2.2413   -4.6222   19.9012 O   0  0  0  0  0  0  0  0  0  0  0  0
    4.4631   -4.5983   21.6867 O   0  0  0  0  0  0  0  0  0  0  0  0
    2.0741  -10.5805   12.9465 C   0  0  0  0  0  0  0  0  0  0  0  0
    2.4222   -9.4821   12.4197 O   0  0  0  0  0  0  0  0  0  0  0  0
    2.3248  -11.9543   12.2521 C   0  0  2  0  0  0  0  0  0  0  0  0
    5.1808  -14.5662   12.6857 N   0  0  0  0  0  0  0  0  0  0  0  0
    3.6719  -12.5821   12.7259 C   0  0  0  0  0  0  0  0  0  0  0  0
    3.8822  -14.0203   12.2234 C   0  0  0  0  0  0  0  0  0  0  0  0
    2.4250  -11.8533   10.9880 O   0  0  0  0  0  0  0  0  0  0  0  0
  1  2  1  6  0  0  0
  1  3  1  0  0  0  0
  1  8  1  0  0  0  0
  3  4  1  0  0  0  0
  3 32  1  6  0  0  0
  4  5  1  0  0  0  0
  4 33  1  1  0  0  0
  5  6  1  6  0  0  0
  5  7  1  0  0  0  0
  7  8  1  0  0  0  0
  7  9  1  1  0  0  0
  9 10  1  0  0  0  0
 11 12  1  6  0  0  0
 11 13  1  0  0  0  0
 11 19  1  0  0  0  0
 12 34  1  0  0  0  0
 13 14  1  0  0  0  0
 14 15  1  1  0  0  0
 14 16  1  0  0  0  0
 16  2  1  1  0  0  0
 16 17  1  0  0  0  0
 17 18  1  1  0  0  0
 17 19  1  0  0  0  0
 19 20  1  6  0  0  0
 21 20  1  1  0  0  0
 21 22  1  0  0  0  0
 21 29  1  0  0  0  0
 22 23  1  1  0  0  0
 22 24  1  0  0  0  0
 24 25  1  6  0  0  0
 24 26  1  0  0  0  0
 26 27  1  1  0  0  0
 26 28  1  0  0  0  0
 28 29  1  0  0  0  0
 28 30  1  6  0  0  0
 30 31  1  0  0  0  0
 34 35  2  0  0  0  0
 36 34  1  1  0  0  0
 36 38  1  0  0  0  0
 36 40  1  0  0  0  0
 37 39  1  0  0  0  0
 38 39  1  0  0  0  0
M  END
>  <CHROM.1>
178.26312042,-179.58764932,179.81937878,-57.27394200,55.99793078,162.87435961
-64.70042508,-86.85032038,172.17904746,179.32000030,1.59597495,-9.88103244
17.12052461,1.16570659,0.39256024,1.02785576

>  <Name>
ligand

>  <RI>
0

>  <Rbt.Current_Directory>
/home/itssahil/PROJECTS/Mol_Feturizer/New_Systems/rnas/4P20

>  <Rbt.Executable>
rbdock ($Id: //depot/dev/client3/rdock/2013.1/src/exe/rbdock.cxx#4 $)

>  <Rbt.Library>
libRbt.so (2013.1, Build901 2013/11/27)

>  <Rbt.Parameter_File>
/export/apps/rDock/src/rDock_2013.1_src/data/scripts/dock_solv.prm

>  <Rbt.Receptor>
prm/pocket_docking_6.prm

>  <SCORE>
-17.3834

>  <SCORE.INTER>
-6.89717

>  <SCORE.INTER.CONST>
1

>  <SCORE.INTER.POLAR>
0

>  <SCORE.INTER.ROT>
10

>  <SCORE.INTER.SOLV>
18.2743

>  <SCORE.INTER.VDW>
-20.9562

>  <SCORE.INTER.norm>
-0.172429

>  <SCORE.INTRA>
-10.4862

>  <SCORE.INTRA.DIHEDRAL>
-25.0268

>  <SCORE.INTRA.DIHEDRAL.0>
28.2802

>  <SCORE.INTRA.POLAR>
0

>  <SCORE.INTRA.POLAR.0>
0

>  <SCORE.INTRA.REPUL>
0

>  <SCORE.INTRA.REPUL.0>
0

>  <SCORE.INTRA.SOLV>
-1.91036

>  <SCORE.INTRA.SOLV.lig_0>
-101.981

>  <SCORE.INTRA.VDW>
2.98236

>  <SCORE.INTRA.VDW.0>
-5.72964

>  <SCORE.INTRA.norm>
-0.262156

>  <SCORE.RESTR>
0

>  <SCORE.RESTR.CAVITY>
0

>  <SCORE.RESTR.norm>
0

>  <SCORE.SYSTEM>
0

>  <SCORE.SYSTEM.CONST>
0

>  <SCORE.SYSTEM.DIHEDRAL>
0

>  <SCORE.SYSTEM.SOLV>
0

>  <SCORE.SYSTEM.norm>
0

>  <SCORE.heavy>
40

>  <SCORE.norm>
-0.434585

>  <RMSD>
5.674

$$$$
ligand
 OpenBabel11021811513D
libRbt.so/2013.1/901 2013/11/27
 40 42  0  0  0  0  0  0  0  0999 V2000
    1.8061   -7.8871   19.5519 C   0  0  2  0  0  0  0  0  0  0  0  0
    1.4310   -8.9401   18.6500 O   0  0  0  0  0  0  0  0  0  0  0  0
    3.1970   -7.2746   19.1401 C   0  0  1  0  0  0  0  0  0  0  0  0
    4.3484   -8.3094   19.3024 C   0  0  2  0  0  0  0  0  0  0  0  0
    4.3913   -8.7405   20.8026 C   0  0  2  0  0  0  0  0  0  0  0  0
    5.4674   -9.6834   20.9960 O   0  0  0  0  0  0  0  0  0  0  0  0
    2.9911   -9.3958   21.1791 C   0  0  2  0  0  0  0  0  0  0  0  0
    1.8879   -8.3935   20.9592 O   0  0  0  0  0  0  0  0  0  0  0  0
    2.9247   -9.8336   22.6358 C   0  0  0  0  0  0  0  0  0  0  0  0
    1.6464  -10.5521   22.9361 N   0  0  0  0  0  0  0  0  0  0  0  0
   -2.4705  -10.4210   17.2661 C   0  0  2  0  0  0  0  0  0  0  0  0
   -3.7860  -11.0166   17.2990 N   0  0  0  0  0  0  0  0  0  0  0  0
   -1.3999  -11.4749   17.7618 C   0  0  0  0  0  0  0  0  0  0  0  0
    0.0575  -10.8298   17.7357 C   0  0  2  0  0  0  0  0  0  0  0  0
    1.0642  -11.8265   18.1860 N   0  0  0  0  0  0  0  0  0  0  0  0
    0.0735   -9.5304   18.6675 C   0  0  2  0  0  0  0  0  0  0  0  0
   -1.0160   -8.5066   18.1319 C   0  0  2  0  0  0  0  0  0  0  0  0
   -1.0069   -7.3392   18.9567 O   0  0  0  0  0  0  0  0  0  0  0  0
   -2.4538   -9.1602   18.1596 C   0  0  1  0  0  0  0  0  0  0  0  0
   -3.4325   -8.2213   17.6486 O   0  0  0  0  0  0  0  0  0  0  0  0
   -4.1574   -7.3211   18.4163 C   0  0  2  0  0  0  0  0  0  0  0  0
   -5.0850   -8.1544   19.3703 C   0  0  2  0  0  0  0  0  0  0  0  0
   -4.3110   -9.0080   20.1497 O   0  0  0  0  0  0  0  0  0  0  0  0
   -6.1909   -8.9588   18.5633 C   0  0  1  0  0  0  0  0  0  0  0  0
   -7.0703   -9.7348   19.4913 N   0  0  0  0  0  0  0  0  0  0  0  0
   -7.0415   -7.9282   17.6998 C   0  0  2  0  0  0  0  0  0  0  0  0
   -8.0646   -8.6065   16.9605 O   0  0  0  0  0  0  0  0  0  0  0  0
   -6.0524   -7.1551   16.7443 C   0  0  2  0  0  0  0  0  0  0  0  0
   -4.9753   -6.4374   17.5464 O   0  0  0  0  0  0  0  0  0  0  0  0
   -6.7886   -6.1397   15.9032 C   0  0  0  0  0  0  0  0  0  0  0  0
   -7.7305   -6.7453   14.9984 O   0  0  0  0  0  0  0  0  0  0  0  0
    3.1050   -6.8180   17.7591 O   0  0  0  0  0  0  0  0  0  0  0  0
    5.5362   -7.7200   18.9426 O   0  0  0  0  0  0  0  0  0  0  0  0
   -4.2319  -11.7935   16.1656 C   0  0  0  0  0  0  0  0  0  0  0  0
   -3.7093  -11.6030   15.0273 O   0  0  0  0  0  0  0  0  0  0  0  0
   -5.3595  -12.8453   16.3996 C   0  0  2  0  0  0  0  0  0  0  0  0
   -9.2267  -12.4524   16.6375 N   0  0  0  0  0  0  0  0  0  0  0  0
   -6.7556  -12.1558   16.4943 C   0  0  0  0  0  0  0  0  0  0  0  0
   -7.9223  -13.1544   16.5757 C   0  0  0  0  0  0  0  0  0  0  0  0
   -5.2199  -13.4779   17.4943 O   0  0  0  0  0  0  0  0  0  0  0  0
  1  2  1  6  0  0  0
  1  3  1  0  0  0  0
  1  8  1  0  0  0  0
  3  4  1  0  0  0  0
  3 32  1  6  0  0  0
  4  5  1  0  0  0  0
  4 33  1  1  0  0  0
  5  6  1  6  0  0  0
  5  7  1  0  0  0  0
  7  8  1  0  0  0  0
  7  9  1  1  0  0  0
  9 10  1  0  0  0  0
 11 12  1  1  0  0  0
 11 13  1  0  0  0  0
 11 19  1  0  0  0  0
 12 34  1  0  0  0  0
 13 14  1  0  0  0  0
 14 15  1  1  0  0  0
 14 16  1  0  0  0  0
 16  2  1  6  0  0  0
 16 17  1  0  0  0  0
 17 18  1  1  0  0  0
 17 19  1  0  0  0  0
 19 20  1  6  0  0  0
 21 20  1  6  0  0  0
 21 22  1  0  0  0  0
 21 29  1  0  0  0  0
 22 23  1  6  0  0  0
 22 24  1  0  0  0  0
 24 25  1  1  0  0  0
 24 26  1  0  0  0  0
 26 27  1  6  0  0  0
 26 28  1  0  0  0  0
 28 29  1  0  0  0  0
 28 30  1  1  0  0  0
 30 31  1  0  0  0  0
 34 35  2  0  0  0  0
 36 34  1  1  0  0  0
 36 38  1  0  0  0  0
 36 40  1  0  0  0  0
 37 39  1  0  0  0  0
 38 39  1  0  0  0  0
M  END
>  <CHROM.1>
-169.52188063,-170.21803475,-175.08317141,-85.42009840,148.54058932,-64.68337133
-64.14377115,77.63089231,173.89373546,-178.90024983,-2.12703983,-9.36221164
18.32571508,0.10675506,-0.30412646,0.00836216

>  <Name>
ligand

>  <RI>
0

>  <Rbt.Current_Directory>
/home/itssahil/PROJECTS/Mol_Feturizer/New_Systems/rnas/4P20

>  <Rbt.Executable>
rbdock ($Id: //depot/dev/client3/rdock/2013.1/src/exe/rbdock.cxx#4 $)

>  <Rbt.Library>
libRbt.so (2013.1, Build901 2013/11/27)

>  <Rbt.Parameter_File>
/export/apps/rDock/src/rDock_2013.1_src/data/scripts/dock_solv.prm

>  <Rbt.Receptor>
prm/pocket_docking_6.prm

>  <SCORE>
-11.2769

>  <SCORE.INTER>
-1.31651

>  <SCORE.INTER.CONST>
1

>  <SCORE.INTER.POLAR>
0

>  <SCORE.INTER.ROT>
10

>  <SCORE.INTER.SOLV>
14.2184

>  <SCORE.INTER.VDW>
-15.8838

>  <SCORE.INTER.norm>
-0.0329127

>  <SCORE.INTRA>
-9.96038

>  <SCORE.INTRA.DIHEDRAL>
-21.4116

>  <SCORE.INTRA.DIHEDRAL.0>
28.2802

>  <SCORE.INTRA.POLAR>
0

>  <SCORE.INTRA.POLAR.0>
0

>  <SCORE.INTRA.REPUL>
0

>  <SCORE.INTRA.REPUL.0>
0

>  <SCORE.INTRA.SOLV>
-0.571796

>  <SCORE.INTRA.SOLV.lig_0>
-101.981

>  <SCORE.INTRA.VDW>
1.03131

>  <SCORE.INTRA.VDW.0>
-5.72964

>  <SCORE.INTRA.norm>
-0.249009

>  <SCORE.RESTR>
0

>  <SCORE.RESTR.CAVITY>
0

>  <SCORE.RESTR.norm>
0

>  <SCORE.SYSTEM>
0

>  <SCORE.SYSTEM.CONST>
0

>  <SCORE.SYSTEM.DIHEDRAL>
0

>  <SCORE.SYSTEM.SOLV>
0

>  <SCORE.SYSTEM.norm>
0

>  <SCORE.heavy>
40

>  <SCORE.norm>
-0.281922

>  <RMSD>
5.869

$$$$
ligand
 OpenBabel11021811513D
libRbt.so/2013.1/901 2013/11/27
 40 42  0  0  0  0  0  0  0  0999 V2000
    0.6163   -7.6564   19.4076 C   0  0  2  0  0  0  0  0  0  0  0  0
    0.5050   -8.2033   18.0841 O   0  0  0  0  0  0  0  0  0  0  0  0
    1.9619   -6.8537   19.5637 C   0  0  1  0  0  0  0  0  0  0  0  0
    3.2015   -7.7894   19.4597 C   0  0  2  0  0  0  0  0  0  0  0  0
    3.0917   -8.8513   20.5993 C   0  0  2  0  0  0  0  0  0  0  0  0
    4.2415   -9.7231   20.5495 O   0  0  0  0  0  0  0  0  0  0  0  0
    1.7473   -9.6765   20.3916 C   0  0  2  0  0  0  0  0  0  0  0  0
    0.5670   -8.7413   20.4392 O   0  0  0  0  0  0  0  0  0  0  0  0
    1.5370  -10.7302   21.4703 C   0  0  0  0  0  0  0  0  0  0  0  0
    0.3410  -11.5824   21.1804 N   0  0  0  0  0  0  0  0  0  0  0  0
   -2.9511  -10.0423   16.0833 C   0  0  2  0  0  0  0  0  0  0  0  0
   -3.9630  -11.0148   15.7419 N   0  0  0  0  0  0  0  0  0  0  0  0
   -1.5169  -10.6566   15.8212 C   0  0  0  0  0  0  0  0  0  0  0  0
   -0.3887   -9.5956   16.1984 C   0  0  2  0  0  0  0  0  0  0  0  0
    0.9576  -10.1684   15.9360 N   0  0  0  0  0  0  0  0  0  0  0  0
   -0.5509   -9.1800   17.7339 C   0  0  2  0  0  0  0  0  0  0  0  0
   -2.0027   -8.5724   17.9461 C   0  0  2  0  0  0  0  0  0  0  0  0
   -2.1563   -8.1940   19.3159 O   0  0  0  0  0  0  0  0  0  0  0  0
   -3.1100   -9.6325   17.5648 C   0  0  1  0  0  0  0  0  0  0  0  0
   -4.4276   -9.0559   17.7438 O   0  0  0  0  0  0  0  0  0  0  0  0
   -4.9240   -7.9599   17.0531 C   0  0  2  0  0  0  0  0  0  0  0  0
   -6.1244   -7.3824   17.8841 C   0  0  2  0  0  0  0  0  0  0  0  0
   -5.6916   -7.0474   19.1630 O   0  0  0  0  0  0  0  0  0  0  0  0
   -7.3457   -8.3957   17.9387 C   0  0  1  0  0  0  0  0  0  0  0  0
   -8.4816   -7.8210   18.7237 N   0  0  0  0  0  0  0  0  0  0  0  0
   -7.7942   -8.7330   16.4500 C   0  0  2  0  0  0  0  0  0  0  0  0
   -8.9059   -9.6372   16.4460 O   0  0  0  0  0  0  0  0  0  0  0  0
   -6.5523   -9.3387   15.6887 C   0  0  2  0  0  0  0  0  0  0  0  0
   -5.3829   -8.3635   15.6991 O   0  0  0  0  0  0  0  0  0  0  0  0
   -6.8978   -9.6666   14.2557 C   0  0  0  0  0  0  0  0  0  0  0  0
   -7.8999  -10.6945   14.1467 O   0  0  0  0  0  0  0  0  0  0  0  0
    2.0038   -5.8257   18.5315 O   0  0  0  0  0  0  0  0  0  0  0  0
    4.3433   -7.0412   19.6151 O   0  0  0  0  0  0  0  0  0  0  0  0
   -4.1223  -12.1829   16.5769 C   0  0  0  0  0  0  0  0  0  0  0  0
   -3.1582  -12.5773   17.2979 O   0  0  0  0  0  0  0  0  0  0  0  0
   -5.4966  -12.9198   16.5470 C   0  0  2  0  0  0  0  0  0  0  0  0
   -8.7204  -12.4537   18.6786 N   0  0  0  0  0  0  0  0  0  0  0  0
   -6.4750  -12.3201   17.6038 C   0  0  0  0  0  0  0  0  0  0  0  0
   -7.8659  -12.9760   17.5853 C   0  0  0  0  0  0  0  0  0  0  0  0
   -5.3975  -14.1536   16.8400 O   0  0  0  0  0  0  0  0  0  0  0  0
  1  2  1  6  0  0  0
  1  3  1  0  0  0  0
  1  8  1  0  0  0  0
  3  4  1  0  0  0  0
  3 32  1  6  0  0  0
  4  5  1  0  0  0  0
  4 33  1  1  0  0  0
  5  6  1  6  0  0  0
  5  7  1  0  0  0  0
  7  8  1  0  0  0  0
  7  9  1  1  0  0  0
  9 10  1  0  0  0  0
 11 12  1  1  0  0  0
 11 13  1  0  0  0  0
 11 19  1  0  0  0  0
 12 34  1  0  0  0  0
 13 14  1  0  0  0  0
 14 15  1  1  0  0  0
 14 16  1  0  0  0  0
 16  2  1  6  0  0  0
 16 17  1  0  0  0  0
 17 18  1  1  0  0  0
 17 19  1  0  0  0  0
 19 20  1  6  0  0  0
 21 20  1  1  0  0  0
 21 22  1  0  0  0  0
 21 29  1  0  0  0  0
 22 23  1  1  0  0  0
 22 24  1  0  0  0  0
 24 25  1  1  0  0  0
 24 26  1  0  0  0  0
 26 27  1  1  0  0  0
 26 28  1  0  0  0  0
 28 29  1  0  0  0  0
 28 30  1  6  0  0  0
 30 31  1  0  0  0  0
 34 35  2  0  0  0  0
 36 34  1  1  0  0  0
 36 38  1  0  0  0  0
 36 40  1  0  0  0  0
 37 39  1  0  0  0  0
 38 39  1  0  0  0  0
M  END
>  <CHROM.1>
169.98013801,-179.50952052,-174.34516824,70.10374675,-57.61090605,-160.36430991
-64.02547908,-88.76950831,177.94464864,175.22479032,-2.82143200,-9.57642637
17.85808706,0.22327793,-0.28783629,0.09967010

>  <Name>
ligand

>  <RI>
0

>  <Rbt.Current_Directory>
/home/itssahil/PROJECTS/Mol_Feturizer/New_Systems/rnas/4P20

>  <Rbt.Executable>
rbdock ($Id: //depot/dev/client3/rdock/2013.1/src/exe/rbdock.cxx#4 $)

>  <Rbt.Library>
libRbt.so (2013.1, Build901 2013/11/27)

>  <Rbt.Parameter_File>
/export/apps/rDock/src/rDock_2013.1_src/data/scripts/dock_solv.prm

>  <Rbt.Receptor>
prm/pocket_docking_6.prm

>  <SCORE>
-11.9327

>  <SCORE.INTER>
-0.632229

>  <SCORE.INTER.CONST>
1

>  <SCORE.INTER.POLAR>
0

>  <SCORE.INTER.ROT>
10

>  <SCORE.INTER.SOLV>
12.0288

>  <SCORE.INTER.VDW>
-14.6977

>  <SCORE.INTER.norm>
-0.0158057

>  <SCORE.INTRA>
-11.3004

>  <SCORE.INTRA.DIHEDRAL>
-24.0834

>  <SCORE.INTRA.DIHEDRAL.0>
28.2802

>  <SCORE.INTRA.POLAR>
0

>  <SCORE.INTRA.POLAR.0>
0

>  <SCORE.INTRA.REPUL>
0

>  <SCORE.INTRA.REPUL.0>
0

>  <SCORE.INTRA.SOLV>
0.748057

>  <SCORE.INTRA.SOLV.lig_0>
-101.981

>  <SCORE.INTRA.VDW>
0.36723

>  <SCORE.INTRA.VDW.0>
-5.72964

>  <SCORE.INTRA.norm>
-0.282511

>  <SCORE.RESTR>
0

>  <SCORE.RESTR.CAVITY>
0

>  <SCORE.RESTR.norm>
0

>  <SCORE.SYSTEM>
0

>  <SCORE.SYSTEM.CONST>
0

>  <SCORE.SYSTEM.DIHEDRAL>
0

>  <SCORE.SYSTEM.SOLV>
0

>  <SCORE.SYSTEM.norm>
0

>  <SCORE.heavy>
40

>  <SCORE.norm>
-0.298317

>  <RMSD>
6.188

$$$$
ligand
 OpenBabel11021811513D
libRbt.so/2013.1/901 2013/11/27
 40 42  0  0  0  0  0  0  0  0999 V2000
    0.0993  -11.1776   22.1731 C   0  0  2  0  0  0  0  0  0  0  0  0
   -0.3299   -9.9076   21.6574 O   0  0  0  0  0  0  0  0  0  0  0  0
    0.8944  -10.9886   23.5190 C   0  0  1  0  0  0  0  0  0  0  0  0
    2.2323  -10.2265   23.2909 C   0  0  2  0  0  0  0  0  0  0  0  0
    3.0907  -11.0632   22.2903 C   0  0  2  0  0  0  0  0  0  0  0  0
    4.3536  -10.3974   22.0746 O   0  0  0  0  0  0  0  0  0  0  0  0
    2.2838  -11.2003   20.9259 C   0  0  2  0  0  0  0  0  0  0  0  0
    0.9688  -11.8894   21.1827 O   0  0  0  0  0  0  0  0  0  0  0  0
    3.0326  -12.0217   19.8852 C   0  0  0  0  0  0  0  0  0  0  0  0
    3.2445  -13.4302   20.3453 N   0  0  0  0  0  0  0  0  0  0  0  0
   -3.7479   -9.0048   19.0435 C   0  0  2  0  0  0  0  0  0  0  0  0
   -4.5518   -8.8973   17.8483 N   0  0  0  0  0  0  0  0  0  0  0  0
   -2.4241   -8.1563   18.8690 C   0  0  0  0  0  0  0  0  0  0  0  0
   -1.5236   -8.2693   20.1794 C   0  0  2  0  0  0  0  0  0  0  0  0
   -0.2881   -7.4583   20.0202 N   0  0  0  0  0  0  0  0  0  0  0  0
   -1.1755   -9.8070   20.4464 C   0  0  2  0  0  0  0  0  0  0  0  0
   -2.5327  -10.6147   20.6125 C   0  0  2  0  0  0  0  0  0  0  0  0
   -2.2318  -11.9908   20.8555 O   0  0  0  0  0  0  0  0  0  0  0  0
   -3.4162  -10.4906   19.3089 C   0  0  1  0  0  0  0  0  0  0  0  0
   -4.6591  -11.2152   19.4845 O   0  0  0  0  0  0  0  0  0  0  0  0
   -5.4989  -11.6271   18.4598 C   0  0  2  0  0  0  0  0  0  0  0  0
   -6.7840  -12.2409   19.1208 C   0  0  2  0  0  0  0  0  0  0  0  0
   -7.3842  -11.2956   19.9463 O   0  0  0  0  0  0  0  0  0  0  0  0
   -6.4575  -13.5745   19.9184 C   0  0  1  0  0  0  0  0  0  0  0  0
   -7.6964  -14.1485   20.5288 N   0  0  0  0  0  0  0  0  0  0  0  0
   -5.7802  -14.6118   18.9202 C   0  0  2  0  0  0  0  0  0  0  0  0
   -5.4772  -15.8409   19.5919 O   0  0  0  0  0  0  0  0  0  0  0  0
   -4.4821  -13.9426   18.3236 C   0  0  2  0  0  0  0  0  0  0  0  0
   -4.8231  -12.6412   17.6104 O   0  0  0  0  0  0  0  0  0  0  0  0
   -3.7927  -14.8650   17.3467 C   0  0  0  0  0  0  0  0  0  0  0  0
   -3.2857  -16.0586   17.9720 O   0  0  0  0  0  0  0  0  0  0  0  0
    0.0429  -10.2667   24.4559 O   0  0  0  0  0  0  0  0  0  0  0  0
    2.8883  -10.1013   24.4915 O   0  0  0  0  0  0  0  0  0  0  0  0
   -5.4668   -7.7872   17.7168 C   0  0  0  0  0  0  0  0  0  0  0  0
   -5.8848   -7.1900   18.7530 O   0  0  0  0  0  0  0  0  0  0  0  0
   -5.9091   -7.3718   16.2801 C   0  0  2  0  0  0  0  0  0  0  0  0
   -9.0694   -9.6160   15.9020 N   0  0  0  0  0  0  0  0  0  0  0  0
   -7.3924   -7.7748   16.0139 C   0  0  0  0  0  0  0  0  0  0  0  0
   -7.6513   -9.2820   16.1768 C   0  0  0  0  0  0  0  0  0  0  0  0
   -5.2330   -7.9522   15.3723 O   0  0  0  0  0  0  0  0  0  0  0  0
  1  2  1  6  0  0  0
  1  3  1  0  0  0  0
  1  8  1  0  0  0  0
  3  4  1  0  0  0  0
  3 32  1  1  0  0  0
  4  5  1  0  0  0  0
  4 33  1  1  0  0  0
  5  6  1  6  0  0  0
  5  7  1  0  0  0  0
  7  8  1  0  0  0  0
  7  9  1  6  0  0  0
  9 10  1  0  0  0  0
 11 12  1  6  0  0  0
 11 13  1  0  0  0  0
 11 19  1  0  0  0  0
 12 34  1  0  0  0  0
 13 14  1  0  0  0  0
 14 15  1  6  0  0  0
 14 16  1  0  0  0  0
 16  2  1  1  0  0  0
 16 17  1  0  0  0  0
 17 18  1  6  0  0  0
 17 19  1  0  0  0  0
 19 20  1  1  0  0  0
 21 20  1  1  0  0  0
 21 22  1  0  0  0  0
 21 29  1  0  0  0  0
 22 23  1  1  0  0  0
 22 24  1  0  0  0  0
 24 25  1  6  0  0  0
 24 26  1  0  0  0  0
 26 27  1  1  0  0  0
 26 28  1  0  0  0  0
 28 29  1  0  0  0  0
 28 30  1  6  0  0  0
 30 31  1  0  0  0  0
 34 35  2  0  0  0  0
 36 34  1  1  0  0  0
 36 38  1  0  0  0  0
 36 40  1  0  0  0  0
 37 39  1  0  0  0  0
 38 39  1  0  0  0  0
M  END
>  <CHROM.1>
-175.92131435,177.62662249,62.62933504,-86.21254653,78.46357499,-174.42758646
-64.84415418,107.75655805,-58.16759408,-179.48332758,-2.77816211,-10.93513484
19.69235902,0.10147973,0.48000913,2.96845456

>  <Name>
ligand

>  <RI>
0

>  <Rbt.Current_Directory>
/home/itssahil/PROJECTS/Mol_Feturizer/New_Systems/rnas/4P20

>  <Rbt.Executable>
rbdock ($Id: //depot/dev/client3/rdock/2013.1/src/exe/rbdock.cxx#4 $)

>  <Rbt.Library>
libRbt.so (2013.1, Build901 2013/11/27)

>  <Rbt.Parameter_File>
/export/apps/rDock/src/rDock_2013.1_src/data/scripts/dock_solv.prm

>  <Rbt.Receptor>
prm/pocket_docking_7.prm

>  <SCORE>
-11.0279

>  <SCORE.INTER>
-0.459262

>  <SCORE.INTER.CONST>
1

>  <SCORE.INTER.POLAR>
0

>  <SCORE.INTER.ROT>
10

>  <SCORE.INTER.SOLV>
14.1611

>  <SCORE.INTER.VDW>
-15.2932

>  <SCORE.INTER.norm>
-0.0114815

>  <SCORE.INTRA>
-10.5686

>  <SCORE.INTRA.DIHEDRAL>
-23.5519

>  <SCORE.INTRA.DIHEDRAL.0>
28.2802

>  <SCORE.INTRA.POLAR>
0

>  <SCORE.INTRA.POLAR.0>
0

>  <SCORE.INTRA.REPUL>
0

>  <SCORE.INTRA.REPUL.0>
0

>  <SCORE.INTRA.SOLV>
-0.640738

>  <SCORE.INTRA.SOLV.lig_0>
-101.981

>  <SCORE.INTRA.VDW>
1.52771

>  <SCORE.INTRA.VDW.0>
-5.72964

>  <SCORE.INTRA.norm>
-0.264215

>  <SCORE.RESTR>
0

>  <SCORE.RESTR.CAVITY>
0

>  <SCORE.RESTR.norm>
0

>  <SCORE.SYSTEM>
0

>  <SCORE.SYSTEM.CONST>
0

>  <SCORE.SYSTEM.DIHEDRAL>
0

>  <SCORE.SYSTEM.SOLV>
0

>  <SCORE.SYSTEM.norm>
0

>  <SCORE.heavy>
40

>  <SCORE.norm>
-0.275696

>  <RMSD>
6.248

$$$$
ligand
 OpenBabel11021811513D
libRbt.so/2013.1/901 2013/11/27
 40 42  0  0  0  0  0  0  0  0999 V2000
    3.4895   -9.1726   12.0707 C   0  0  2  0  0  0  0  0  0  0  0  0
    3.1861   -9.9042   13.2689 O   0  0  0  0  0  0  0  0  0  0  0  0
    4.2043  -10.1026   11.0201 C   0  0  1  0  0  0  0  0  0  0  0  0
    5.6048  -10.5612   11.5215 C   0  0  2  0  0  0  0  0  0  0  0  0
    6.4671   -9.2810   11.7578 C   0  0  2  0  0  0  0  0  0  0  0  0
    7.7852   -9.6703   12.2000 O   0  0  0  0  0  0  0  0  0  0  0  0
    5.7454   -8.3823   12.8546 C   0  0  2  0  0  0  0  0  0  0  0  0
    4.3710   -7.9993   12.3705 O   0  0  0  0  0  0  0  0  0  0  0  0
    6.5023   -7.0930   13.1425 C   0  0  0  0  0  0  0  0  0  0  0  0
    6.5588   -6.2078   11.9367 N   0  0  0  0  0  0  0  0  0  0  0  0
    0.8818   -9.4776   16.9889 C   0  0  2  0  0  0  0  0  0  0  0  0
   -0.0816   -8.9715   17.9386 N   0  0  0  0  0  0  0  0  0  0  0  0
    1.8918   -8.3255   16.5946 C   0  0  0  0  0  0  0  0  0  0  0  0
    2.9591   -8.8683   15.5424 C   0  0  2  0  0  0  0  0  0  0  0  0
    3.9171   -7.7892   15.1855 N   0  0  0  0  0  0  0  0  0  0  0  0
    2.1919   -9.4113   14.2488 C   0  0  2  0  0  0  0  0  0  0  0  0
    1.1918  -10.5612   14.6954 C   0  0  2  0  0  0  0  0  0  0  0  0
    0.5034  -11.0561   13.5446 O   0  0  0  0  0  0  0  0  0  0  0  0
    0.1431  -10.0106   15.7405 C   0  0  1  0  0  0  0  0  0  0  0  0
   -0.7481  -11.0763   16.1535 O   0  0  0  0  0  0  0  0  0  0  0  0
   -1.6312  -11.7506   15.3225 C   0  0  2  0  0  0  0  0  0  0  0  0
   -2.7173  -12.4236   16.2349 C   0  0  2  0  0  0  0  0  0  0  0  0
   -3.3527  -11.4528   17.0022 O   0  0  0  0  0  0  0  0  0  0  0  0
   -2.0954  -13.5623   17.1503 C   0  0  1  0  0  0  0  0  0  0  0  0
   -3.1485  -14.1979   18.0011 N   0  0  0  0  0  0  0  0  0  0  0  0
   -1.3910  -14.6394   16.2149 C   0  0  2  0  0  0  0  0  0  0  0  0
   -0.8234  -15.6982   16.9961 O   0  0  0  0  0  0  0  0  0  0  0  0
   -0.2929  -13.9004   15.3564 C   0  0  2  0  0  0  0  0  0  0  0  0
   -0.9139  -12.7823   14.5302 O   0  0  0  0  0  0  0  0  0  0  0  0
    0.4082  -14.8601   14.4248 C   0  0  0  0  0  0  0  0  0  0  0  0
    1.1296  -15.8894   15.1269 O   0  0  0  0  0  0  0  0  0  0  0  0
    3.3451  -11.2524   10.7675 O   0  0  0  0  0  0  0  0  0  0  0  0
    6.1864  -11.3566   10.5641 O   0  0  0  0  0  0  0  0  0  0  0  0
    0.1625   -9.1566   19.3504 C   0  0  0  0  0  0  0  0  0  0  0  0
    0.9271  -10.0885   19.7400 O   0  0  0  0  0  0  0  0  0  0  0  0
   -0.5435   -8.1863   20.3467 C   0  0  2  0  0  0  0  0  0  0  0  0
   -2.6300  -10.6681   22.5029 N   0  0  0  0  0  0  0  0  0  0  0  0
   -1.7855   -8.8654   21.0023 C   0  0  0  0  0  0  0  0  0  0  0  0
   -1.4170  -10.0111   21.9597 C   0  0  0  0  0  0  0  0  0  0  0  0
   -0.9911   -7.1403   19.7779 O   0  0  0  0  0  0  0  0  0  0  0  0
  1  2  1  1  0  0  0
  1  3  1  0  0  0  0
  1  8  1  0  0  0  0
  3  4  1  0  0  0  0
  3 32  1  1  0  0  0
  4  5  1  0  0  0  0
  4 33  1  6  0  0  0
  5  6  1  1  0  0  0
  5  7  1  0  0  0  0
  7  8  1  0  0  0  0
  7  9  1  6  0  0  0
  9 10  1  0  0  0  0
 11 12  1  1  0  0  0
 11 13  1  0  0  0  0
 11 19  1  0  0  0  0
 12 34  1  0  0  0  0
 13 14  1  0  0  0  0
 14 15  1  6  0  0  0
 14 16  1  0  0  0  0
 16  2  1  6  0  0  0
 16 17  1  0  0  0  0
 17 18  1  6  0  0  0
 17 19  1  0  0  0  0
 19 20  1  1  0  0  0
 21 20  1  1  0  0  0
 21 22  1  0  0  0  0
 21 29  1  0  0  0  0
 22 23  1  1  0  0  0
 22 24  1  0  0  0  0
 24 25  1  6  0  0  0
 24 26  1  0  0  0  0
 26 27  1  1  0  0  0
 26 28  1  0  0  0  0
 28 29  1  0  0  0  0
 28 30  1  6  0  0  0
 30 31  1  0  0  0  0
 34 35  2  0  0  0  0
 36 34  1  6  0  0  0
 36 38  1  0  0  0  0
 36 40  1  0  0  0  0
 37 39  1  0  0  0  0
 38 39  1  0  0  0  0
M  END
>  <CHROM.1>
-162.14878365,-106.56222881,63.81466232,-94.64237506,176.33313324,-160.23852400
-62.96337906,101.48720081,68.39984320,-177.10654932,1.38962789,-10.57615972
15.50095139,0.26847274,-0.74991045,-2.43800382

>  <Name>
ligand

>  <RI>
0

>  <Rbt.Current_Directory>
/home/itssahil/PROJECTS/Mol_Feturizer/New_Systems/rnas/4P20

>  <Rbt.Executable>
rbdock ($Id: //depot/dev/client3/rdock/2013.1/src/exe/rbdock.cxx#4 $)

>  <Rbt.Library>
libRbt.so (2013.1, Build901 2013/11/27)

>  <Rbt.Parameter_File>
/export/apps/rDock/src/rDock_2013.1_src/data/scripts/dock_solv.prm

>  <Rbt.Receptor>
prm/pocket_docking_6.prm

>  <SCORE>
-8.52776

>  <SCORE.INTER>
-3.61258

>  <SCORE.INTER.CONST>
1

>  <SCORE.INTER.POLAR>
0

>  <SCORE.INTER.ROT>
10

>  <SCORE.INTER.SOLV>
15.5666

>  <SCORE.INTER.VDW>
-17.8639

>  <SCORE.INTER.norm>
-0.0903146

>  <SCORE.INTRA>
-4.91517

>  <SCORE.INTRA.DIHEDRAL>
-15.4346

>  <SCORE.INTRA.DIHEDRAL.0>
28.2802

>  <SCORE.INTRA.POLAR>
0

>  <SCORE.INTRA.POLAR.0>
0

>  <SCORE.INTRA.REPUL>
0

>  <SCORE.INTRA.REPUL.0>
0

>  <SCORE.INTRA.SOLV>
2.46791

>  <SCORE.INTRA.SOLV.lig_0>
-101.981

>  <SCORE.INTRA.VDW>
1.56816

>  <SCORE.INTRA.VDW.0>
-5.72964

>  <SCORE.INTRA.norm>
-0.122879

>  <SCORE.RESTR>
0

>  <SCORE.RESTR.CAVITY>
0

>  <SCORE.RESTR.norm>
0

>  <SCORE.SYSTEM>
0

>  <SCORE.SYSTEM.CONST>
0

>  <SCORE.SYSTEM.DIHEDRAL>
0

>  <SCORE.SYSTEM.SOLV>
0

>  <SCORE.SYSTEM.norm>
0

>  <SCORE.heavy>
40

>  <SCORE.norm>
-0.213194

>  <RMSD>
6.760

$$$$
ligand
 OpenBabel11021811513D
libRbt.so/2013.1/901 2013/11/27
 40 42  0  0  0  0  0  0  0  0999 V2000
    4.3875   -9.4770   12.9474 C   0  0  2  0  0  0  0  0  0  0  0  0
    3.1466   -9.0814   13.5529 O   0  0  0  0  0  0  0  0  0  0  0  0
    5.5115   -9.6325   14.0390 C   0  0  1  0  0  0  0  0  0  0  0  0
    5.8581   -8.2673   14.7017 C   0  0  2  0  0  0  0  0  0  0  0  0
    6.3530   -7.3051   13.5759 C   0  0  2  0  0  0  0  0  0  0  0  0
    6.7091   -6.0334   14.1595 O   0  0  0  0  0  0  0  0  0  0  0  0
    5.1834   -7.1308   12.5114 C   0  0  2  0  0  0  0  0  0  0  0  0
    4.8272   -8.4730   11.9266 O   0  0  0  0  0  0  0  0  0  0  0  0
    5.5770   -6.2208   11.3559 C   0  0  0  0  0  0  0  0  0  0  0  0
    5.9627   -4.8569   11.8372 N   0  0  0  0  0  0  0  0  0  0  0  0
   -0.0930  -11.3338   15.4923 C   0  0  2  0  0  0  0  0  0  0  0  0
   -0.7716  -12.2112   16.4176 N   0  0  0  0  0  0  0  0  0  0  0  0
    1.0265  -12.1424   14.7205 C   0  0  0  0  0  0  0  0  0  0  0  0
    1.7879  -11.1853   13.6982 C   0  0  2  0  0  0  0  0  0  0  0  0
    2.8283  -11.9503   12.9622 N   0  0  0  0  0  0  0  0  0  0  0  0
    2.4307   -9.9623   14.5032 C   0  0  2  0  0  0  0  0  0  0  0  0
    1.2708   -9.1853   15.2601 C   0  0  2  0  0  0  0  0  0  0  0  0
    1.8353   -8.0871   15.9802 O   0  0  0  0  0  0  0  0  0  0  0  0
    0.5228  -10.1464   16.2661 C   0  0  1  0  0  0  0  0  0  0  0  0
   -0.5452   -9.4283   16.9327 O   0  0  0  0  0  0  0  0  0  0  0  0
   -0.3859   -8.2797   17.6944 C   0  0  2  0  0  0  0  0  0  0  0  0
    0.0193   -8.7270   19.1438 C   0  0  2  0  0  0  0  0  0  0  0  0
    1.1812   -9.4903   19.0918 O   0  0  0  0  0  0  0  0  0  0  0  0
   -1.1536   -9.5160   19.8672 C   0  0  1  0  0  0  0  0  0  0  0  0
   -0.7512   -9.9213   21.2495 N   0  0  0  0  0  0  0  0  0  0  0  0
   -2.4468   -8.5897   19.8981 C   0  0  2  0  0  0  0  0  0  0  0  0
   -3.5332   -9.2544   20.5548 O   0  0  0  0  0  0  0  0  0  0  0  0
   -2.8138   -8.2099   18.4115 C   0  0  2  0  0  0  0  0  0  0  0  0
   -1.6505   -7.5012   17.7311 O   0  0  0  0  0  0  0  0  0  0  0  0
   -4.0258   -7.3105   18.3618 C   0  0  0  0  0  0  0  0  0  0  0  0
   -3.7500   -5.9792   18.8355 O   0  0  0  0  0  0  0  0  0  0  0  0
    5.0502  -10.5882   15.0379 O   0  0  0  0  0  0  0  0  0  0  0  0
    6.8494   -8.4591   15.6334 O   0  0  0  0  0  0  0  0  0  0  0  0
   -1.2989  -13.4663   15.9344 C   0  0  0  0  0  0  0  0  0  0  0  0
   -1.5618  -13.6063   14.7031 O   0  0  0  0  0  0  0  0  0  0  0  0
   -1.5289  -14.6089   16.9709 C   0  0  2  0  0  0  0  0  0  0  0  0
   -5.0424  -13.8370   18.4631 N   0  0  0  0  0  0  0  0  0  0  0  0
   -2.6187  -14.2073   18.0124 C   0  0  0  0  0  0  0  0  0  0  0  0
   -4.0462  -14.2385   17.4411 C   0  0  0  0  0  0  0  0  0  0  0  0
   -0.4876  -14.8677   17.6540 O   0  0  0  0  0  0  0  0  0  0  0  0
  1  2  1  1  0  0  0
  1  3  1  0  0  0  0
  1  8  1  0  0  0  0
  3  4  1  0  0  0  0
  3 32  1  1  0  0  0
  4  5  1  0  0  0  0
  4 33  1  1  0  0  0
  5  6  1  1  0  0  0
  5  7  1  0  0  0  0
  7  8  1  0  0  0  0
  7  9  1  6  0  0  0
  9 10  1  0  0  0  0
 11 12  1  1  0  0  0
 11 13  1  0  0  0  0
 11 19  1  0  0  0  0
 12 34  1  0  0  0  0
 13 14  1  0  0  0  0
 14 15  1  1  0  0  0
 14 16  1  0  0  0  0
 16  2  1  6  0  0  0
 16 17  1  0  0  0  0
 17 18  1  1  0  0  0
 17 19  1  0  0  0  0
 19 20  1  6  0  0  0
 21 20  1  6  0  0  0
 21 22  1  0  0  0  0
 21 29  1  0  0  0  0
 22 23  1  6  0  0  0
 22 24  1  0  0  0  0
 24 25  1  1  0  0  0
 24 26  1  0  0  0  0
 26 27  1  6  0  0  0
 26 28  1  0  0  0  0
 28 29  1  0  0  0  0
 28 30  1  1  0  0  0
 30 31  1  0  0  0  0
 34 35  2  0  0  0  0
 36 34  1  6  0  0  0
 36 38  1  0  0  0  0
 36 40  1  0  0  0  0
 37 39  1  0  0  0  0
 38 39  1  0  0  0  0
M  END
>  <CHROM.1>
-64.50583219,-72.14677205,-58.76889713,-51.66865348,-178.08406862,-84.06256842
71.60694117,64.16150707,73.98756913,-179.43740569,1.00545959,-9.79240564
16.10227416,-0.13807321,-0.63941032,-2.79569381

>  <Name>
ligand

>  <RI>
0

>  <Rbt.Current_Directory>
/home/itssahil/PROJECTS/Mol_Feturizer/New_Systems/rnas/4P20

>  <Rbt.Executable>
rbdock ($Id: //depot/dev/client3/rdock/2013.1/src/exe/rbdock.cxx#4 $)

>  <Rbt.Library>
libRbt.so (2013.1, Build901 2013/11/27)

>  <Rbt.Parameter_File>
/export/apps/rDock/src/rDock_2013.1_src/data/scripts/dock_solv.prm

>  <Rbt.Receptor>
prm/pocket_docking_6.prm

>  <SCORE>
-11.7538

>  <SCORE.INTER>
-3.85644

>  <SCORE.INTER.CONST>
1

>  <SCORE.INTER.POLAR>
0

>  <SCORE.INTER.ROT>
10

>  <SCORE.INTER.SOLV>
16.3782

>  <SCORE.INTER.VDW>
-18.297

>  <SCORE.INTER.norm>
-0.0964109

>  <SCORE.INTRA>
-7.94038

>  <SCORE.INTRA.DIHEDRAL>
-22.9298

>  <SCORE.INTRA.DIHEDRAL.0>
28.2802

>  <SCORE.INTRA.POLAR>
0

>  <SCORE.INTRA.POLAR.0>
0

>  <SCORE.INTRA.REPUL>
0

>  <SCORE.INTRA.REPUL.0>
0

>  <SCORE.INTRA.SOLV>
1.57767

>  <SCORE.INTRA.SOLV.lig_0>
-101.981

>  <SCORE.INTRA.VDW>
2.7357

>  <SCORE.INTRA.VDW.0>
-5.72964

>  <SCORE.INTRA.norm>
-0.19851

>  <SCORE.RESTR>
0.0430712

>  <SCORE.RESTR.CAVITY>
0.0430712

>  <SCORE.RESTR.norm>
0.00107678

>  <SCORE.SYSTEM>
0

>  <SCORE.SYSTEM.CONST>
0

>  <SCORE.SYSTEM.DIHEDRAL>
0

>  <SCORE.SYSTEM.SOLV>
0

>  <SCORE.SYSTEM.norm>
0

>  <SCORE.heavy>
40

>  <SCORE.norm>
-0.293844

>  <RMSD>
6.762

$$$$
ligand
 OpenBabel11021811513D
libRbt.so/2013.1/901 2013/11/27
 40 42  0  0  0  0  0  0  0  0999 V2000
    1.6352  -11.8948   13.4824 C   0  0  2  0  0  0  0  0  0  0  0  0
    1.3634  -12.5741   14.7184 O   0  0  0  0  0  0  0  0  0  0  0  0
    2.5154  -12.7957   12.5374 C   0  0  1  0  0  0  0  0  0  0  0  0
    3.9339  -13.0338   13.1324 C   0  0  2  0  0  0  0  0  0  0  0  0
    4.6152  -11.6397   13.3080 C   0  0  2  0  0  0  0  0  0  0  0  0
    5.9466  -11.8240   13.8351 O   0  0  0  0  0  0  0  0  0  0  0  0
    3.7297  -10.7674   14.3012 C   0  0  2  0  0  0  0  0  0  0  0  0
    2.3455  -10.5996   13.7304 O   0  0  0  0  0  0  0  0  0  0  0  0
    4.3026   -9.3743   14.5230 C   0  0  0  0  0  0  0  0  0  0  0  0
    3.4056   -8.5419   15.3850 N   0  0  0  0  0  0  0  0  0  0  0  0
   -1.2189   -9.7270   16.8529 C   0  0  2  0  0  0  0  0  0  0  0  0
   -2.1403   -9.2009   17.8330 N   0  0  0  0  0  0  0  0  0  0  0  0
   -1.9022  -10.9206   16.0712 C   0  0  0  0  0  0  0  0  0  0  0  0
   -0.8947  -11.5150   14.9884 C   0  0  2  0  0  0  0  0  0  0  0  0
   -1.5441  -12.6256   14.2437 N   0  0  0  0  0  0  0  0  0  0  0  0
    0.4345  -12.0124   15.7251 C   0  0  2  0  0  0  0  0  0  0  0  0
    1.0806  -10.7825   16.4944 C   0  0  2  0  0  0  0  0  0  0  0  0
    2.2724  -11.2164   17.1536 O   0  0  0  0  0  0  0  0  0  0  0  0
    0.0703  -10.2013   17.5607 C   0  0  1  0  0  0  0  0  0  0  0  0
    0.6666   -9.0676   18.2387 O   0  0  0  0  0  0  0  0  0  0  0  0
    1.2660   -9.1056   19.4894 C   0  0  2  0  0  0  0  0  0  0  0  0
    1.2822   -7.6390   20.0497 C   0  0  2  0  0  0  0  0  0  0  0  0
   -0.0161   -7.1423   20.1023 O   0  0  0  0  0  0  0  0  0  0  0  0
    2.2250   -6.6908   19.1932 C   0  0  1  0  0  0  0  0  0  0  0  0
    2.2355   -5.3032   19.7511 N   0  0  0  0  0  0  0  0  0  0  0  0
    3.6904   -7.3100   19.1769 C   0  0  2  0  0  0  0  0  0  0  0  0
    4.5848   -6.4809   18.4244 O   0  0  0  0  0  0  0  0  0  0  0  0
    3.6017   -8.7644   18.5719 C   0  0  2  0  0  0  0  0  0  0  0  0
    2.6512   -9.6319   19.3858 O   0  0  0  0  0  0  0  0  0  0  0  0
    4.9586   -9.4266   18.5429 C   0  0  0  0  0  0  0  0  0  0  0  0
    4.9182  -10.7524   17.9829 O   0  0  0  0  0  0  0  0  0  0  0  0
    1.8217  -14.0615   12.3358 O   0  0  0  0  0  0  0  0  0  0  0  0
    4.6603  -13.8123   12.2641 O   0  0  0  0  0  0  0  0  0  0  0  0
   -2.3079   -7.7701   17.9400 C   0  0  0  0  0  0  0  0  0  0  0  0
   -1.3915   -6.9967   17.5312 O   0  0  0  0  0  0  0  0  0  0  0  0
   -3.6307   -7.2351   18.5698 C   0  0  2  0  0  0  0  0  0  0  0  0
   -5.5989   -9.6682   18.8138 N   0  0  0  0  0  0  0  0  0  0  0  0
   -4.8574   -7.5807   17.6703 C   0  0  0  0  0  0  0  0  0  0  0  0
   -5.1080   -9.0923   17.5389 C   0  0  0  0  0  0  0  0  0  0  0  0
   -3.6416   -5.9682   18.6841 O   0  0  0  0  0  0  0  0  0  0  0  0
  1  2  1  1  0  0  0
  1  3  1  0  0  0  0
  1  8  1  0  0  0  0
  3  4  1  0  0  0  0
  3 32  1  1  0  0  0
  4  5  1  0  0  0  0
  4 33  1  6  0  0  0
  5  6  1  1  0  0  0
  5  7  1  0  0  0  0
  7  8  1  0  0  0  0
  7  9  1  6  0  0  0
  9 10  1  0  0  0  0
 11 12  1  1  0  0  0
 11 13  1  0  0  0  0
 11 19  1  0  0  0  0
 12 34  1  0  0  0  0
 13 14  1  0  0  0  0
 14 15  1  1  0  0  0
 14 16  1  0  0  0  0
 16  2  1  6  0  0  0
 16 17  1  0  0  0  0
 17 18  1  1  0  0  0
 17 19  1  0  0  0  0
 19 20  1  6  0  0  0
 21 20  1  6  0  0  0
 21 22  1  0  0  0  0
 21 29  1  0  0  0  0
 22 23  1  6  0  0  0
 22 24  1  0  0  0  0
 24 25  1  1  0  0  0
 24 26  1  0  0  0  0
 26 27  1  6  0  0  0
 26 28  1  0  0  0  0
 28 29  1  0  0  0  0
 28 30  1  1  0  0  0
 30 31  1  0  0  0  0
 34 35  2  0  0  0  0
 36 34  1  6  0  0  0
 36 38  1  0  0  0  0
 36 40  1  0  0  0  0
 37 39  1  0  0  0  0
 38 39  1  0  0  0  0
M  END
>  <CHROM.1>
-173.21095127,46.17410602,176.12464351,-133.91013600,140.63259717,-159.32046116
-179.37933586,-65.77897575,64.07229711,70.02012670,1.09138876,-9.77822021
16.64672280,0.83901412,-0.01517300,-2.32591029

>  <Name>
ligand

>  <RI>
0

>  <Rbt.Current_Directory>
/home/itssahil/PROJECTS/Mol_Feturizer/New_Systems/rnas/4P20

>  <Rbt.Executable>
rbdock ($Id: //depot/dev/client3/rdock/2013.1/src/exe/rbdock.cxx#4 $)

>  <Rbt.Library>
libRbt.so (2013.1, Build901 2013/11/27)

>  <Rbt.Parameter_File>
/export/apps/rDock/src/rDock_2013.1_src/data/scripts/dock_solv.prm

>  <Rbt.Receptor>
prm/pocket_docking_4.prm

>  <SCORE>
-8.15824

>  <SCORE.INTER>
-1.11082

>  <SCORE.INTER.CONST>
1

>  <SCORE.INTER.POLAR>
0

>  <SCORE.INTER.ROT>
10

>  <SCORE.INTER.SOLV>
20.7638

>  <SCORE.INTER.VDW>
-17.9285

>  <SCORE.INTER.norm>
-0.0277706

>  <SCORE.INTRA>
-7.04742

>  <SCORE.INTRA.DIHEDRAL>
-17.5609

>  <SCORE.INTRA.DIHEDRAL.0>
28.2802

>  <SCORE.INTRA.POLAR>
0

>  <SCORE.INTRA.POLAR.0>
0

>  <SCORE.INTRA.REPUL>
0

>  <SCORE.INTRA.REPUL.0>
0

>  <SCORE.INTRA.SOLV>
7.38857

>  <SCORE.INTRA.SOLV.lig_0>
-101.981

>  <SCORE.INTRA.VDW>
-1.96127

>  <SCORE.INTRA.VDW.0>
-5.72964

>  <SCORE.INTRA.norm>
-0.176185

>  <SCORE.RESTR>
0

>  <SCORE.RESTR.CAVITY>
0

>  <SCORE.RESTR.norm>
0

>  <SCORE.SYSTEM>
0

>  <SCORE.SYSTEM.CONST>
0

>  <SCORE.SYSTEM.DIHEDRAL>
0

>  <SCORE.SYSTEM.SOLV>
0

>  <SCORE.SYSTEM.norm>
0

>  <SCORE.heavy>
40

>  <SCORE.norm>
-0.203956

>  <RMSD>
6.832

$$$$
ligand
 OpenBabel11021811513D
libRbt.so/2013.1/901 2013/11/27
 40 42  0  0  0  0  0  0  0  0999 V2000
    5.2429   -8.8695   18.6905 C   0  0  2  0  0  0  0  0  0  0  0  0
    3.9430   -9.4804   18.6861 O   0  0  0  0  0  0  0  0  0  0  0  0
    6.2401   -9.6960   19.5860 C   0  0  1  0  0  0  0  0  0  0  0  0
    5.8253   -9.6612   21.0858 C   0  0  2  0  0  0  0  0  0  0  0  0
    5.8263   -8.1685   21.5442 C   0  0  2  0  0  0  0  0  0  0  0  0
    5.4703   -8.0997   22.9417 O   0  0  0  0  0  0  0  0  0  0  0  0
    4.7790   -7.3671   20.6541 C   0  0  2  0  0  0  0  0  0  0  0  0
    5.1702   -7.4637   19.2022 O   0  0  0  0  0  0  0  0  0  0  0  0
    4.7199   -5.8884   21.0121 C   0  0  0  0  0  0  0  0  0  0  0  0
    4.3627   -5.6852   22.4514 N   0  0  0  0  0  0  0  0  0  0  0  0
    4.4551  -13.3754   16.7121 C   0  0  2  0  0  0  0  0  0  0  0  0
    4.1499  -14.5543   15.9354 N   0  0  0  0  0  0  0  0  0  0  0  0
    3.4649  -13.2812   17.9423 C   0  0  0  0  0  0  0  0  0  0  0  0
    3.7867  -11.9813   18.8069 C   0  0  2  0  0  0  0  0  0  0  0  0
    2.8662  -11.9031   19.9715 N   0  0  0  0  0  0  0  0  0  0  0  0
    3.6547  -10.6866   17.8777 C   0  0  2  0  0  0  0  0  0  0  0  0
    4.6640  -10.8291   16.6600 C   0  0  2  0  0  0  0  0  0  0  0  0
    4.5561   -9.6740   15.8249 O   0  0  0  0  0  0  0  0  0  0  0  0
    4.3361  -12.1228   15.8150 C   0  0  1  0  0  0  0  0  0  0  0  0
    5.2783  -12.2494   14.7209 O   0  0  0  0  0  0  0  0  0  0  0  0
    5.1294  -13.0903   13.6275 C   0  0  2  0  0  0  0  0  0  0  0  0
    6.5067  -13.1346   12.8752 C   0  0  2  0  0  0  0  0  0  0  0  0
    7.5021  -13.5706   13.7437 O   0  0  0  0  0  0  0  0  0  0  0  0
    6.8766  -11.7278   12.2385 C   0  0  1  0  0  0  0  0  0  0  0  0
    8.1848  -11.7957   11.5168 N   0  0  0  0  0  0  0  0  0  0  0  0
    5.7048  -11.2901   11.2553 C   0  0  2  0  0  0  0  0  0  0  0  0
    5.9986  -10.0279   10.6436 O   0  0  0  0  0  0  0  0  0  0  0  0
    4.3639  -11.2336   12.0846 C   0  0  2  0  0  0  0  0  0  0  0  0
    4.0655  -12.5833   12.7233 O   0  0  0  0  0  0  0  0  0  0  0  0
    3.1973  -10.8426   11.2091 C   0  0  0  0  0  0  0  0  0  0  0  0
    3.3286   -9.5148   10.6682 O   0  0  0  0  0  0  0  0  0  0  0  0
    6.2710  -11.0665   19.0912 O   0  0  0  0  0  0  0  0  0  0  0  0
    6.7336  -10.3849   21.8200 O   0  0  0  0  0  0  0  0  0  0  0  0
    4.9169  -15.7581   16.1582 C   0  0  0  0  0  0  0  0  0  0  0  0
    6.0750  -15.6815   16.6660 O   0  0  0  0  0  0  0  0  0  0  0  0
    4.2739  -17.1194   15.7509 C   0  0  2  0  0  0  0  0  0  0  0  0
    5.6076  -20.0118   13.5132 N   0  0  0  0  0  0  0  0  0  0  0  0
    5.1732  -17.8777   14.7264 C   0  0  0  0  0  0  0  0  0  0  0  0
    4.6598  -19.2888   14.3947 C   0  0  0  0  0  0  0  0  0  0  0  0
    3.1496  -16.9768   15.1731 O   0  0  0  0  0  0  0  0  0  0  0  0
  1  2  1  1  0  0  0
  1  3  1  0  0  0  0
  1  8  1  0  0  0  0
  3  4  1  0  0  0  0
  3 32  1  6  0  0  0
  4  5  1  0  0  0  0
  4 33  1  1  0  0  0
  5  6  1  1  0  0  0
  5  7  1  0  0  0  0
  7  8  1  0  0  0  0
  7  9  1  1  0  0  0
  9 10  1  0  0  0  0
 11 12  1  6  0  0  0
 11 13  1  0  0  0  0
 11 19  1  0  0  0  0
 12 34  1  0  0  0  0
 13 14  1  0  0  0  0
 14 15  1  1  0  0  0
 14 16  1  0  0  0  0
 16  2  1  1  0  0  0
 16 17  1  0  0  0  0
 17 18  1  6  0  0  0
 17 19  1  0  0  0  0
 19 20  1  6  0  0  0
 21 20  1  1  0  0  0
 21 22  1  0  0  0  0
 21 29  1  0  0  0  0
 22 23  1  1  0  0  0
 22 24  1  0  0  0  0
 24 25  1  6  0  0  0
 24 26  1  0  0  0  0
 26 27  1  1  0  0  0
 26 28  1  0  0  0  0
 28 29  1  0  0  0  0
 28 30  1  6  0  0  0
 30 31  1  0  0  0  0
 34 35  2  0  0  0  0
 36 34  1  6  0  0  0
 36 38  1  0  0  0  0
 36 40  1  0  0  0  0
 37 39  1  0  0  0  0
 38 39  1  0  0  0  0
M  END
>  <CHROM.1>
-77.07916361,96.90234173,-58.15744804,-96.95161175,74.32883096,-167.80341373
-63.66965593,122.41158931,174.25384440,-174.99043793,5.01875396,-11.82744705
16.39124181,-1.70699036,-1.52296045,-2.42506680

>  <Name>
ligand

>  <RI>
0

>  <Rbt.Current_Directory>
/home/itssahil/PROJECTS/Mol_Feturizer/New_Systems/rnas/4P20

>  <Rbt.Executable>
rbdock ($Id: //depot/dev/client3/rdock/2013.1/src/exe/rbdock.cxx#4 $)

>  <Rbt.Library>
libRbt.so (2013.1, Build901 2013/11/27)

>  <Rbt.Parameter_File>
/export/apps/rDock/src/rDock_2013.1_src/data/scripts/dock_solv.prm

>  <Rbt.Receptor>
prm/pocket_docking_8.prm

>  <SCORE>
-12.0121

>  <SCORE.INTER>
-6.9027

>  <SCORE.INTER.CONST>
1

>  <SCORE.INTER.POLAR>
0

>  <SCORE.INTER.ROT>
10

>  <SCORE.INTER.SOLV>
14.1336

>  <SCORE.INTER.VDW>
-19.5797

>  <SCORE.INTER.norm>
-0.172567

>  <SCORE.INTRA>
-5.10937

>  <SCORE.INTRA.DIHEDRAL>
-16.8383

>  <SCORE.INTRA.DIHEDRAL.0>
28.2802

>  <SCORE.INTRA.POLAR>
0

>  <SCORE.INTRA.POLAR.0>
0

>  <SCORE.INTRA.REPUL>
0

>  <SCORE.INTRA.REPUL.0>
0

>  <SCORE.INTRA.SOLV>
1.42215

>  <SCORE.INTRA.SOLV.lig_0>
-101.981

>  <SCORE.INTRA.VDW>
2.59869

>  <SCORE.INTRA.VDW.0>
-5.72964

>  <SCORE.INTRA.norm>
-0.127734

>  <SCORE.RESTR>
0

>  <SCORE.RESTR.CAVITY>
0

>  <SCORE.RESTR.norm>
0

>  <SCORE.SYSTEM>
0

>  <SCORE.SYSTEM.CONST>
0

>  <SCORE.SYSTEM.DIHEDRAL>
0

>  <SCORE.SYSTEM.SOLV>
0

>  <SCORE.SYSTEM.norm>
0

>  <SCORE.heavy>
40

>  <SCORE.norm>
-0.300302

>  <RMSD>
6.874

$$$$
ligand
 OpenBabel11021811513D
libRbt.so/2013.1/901 2013/11/27
 40 42  0  0  0  0  0  0  0  0999 V2000
   -2.6522   -9.7520   18.2484 C   0  0  2  0  0  0  0  0  0  0  0  0
   -1.6194  -10.7170   17.9928 O   0  0  0  0  0  0  0  0  0  0  0  0
   -2.0260   -8.3623   18.6434 C   0  0  1  0  0  0  0  0  0  0  0  0
   -1.2686   -8.4412   20.0009 C   0  0  2  0  0  0  0  0  0  0  0  0
   -2.2950   -8.8806   21.0925 C   0  0  2  0  0  0  0  0  0  0  0  0
   -1.6314   -8.9394   22.3734 O   0  0  0  0  0  0  0  0  0  0  0  0
   -2.8779  -10.3058   20.6919 C   0  0  2  0  0  0  0  0  0  0  0  0
   -3.5556  -10.2162   19.3492 O   0  0  0  0  0  0  0  0  0  0  0  0
   -3.9092  -10.8157   21.6892 C   0  0  0  0  0  0  0  0  0  0  0  0
   -5.1273   -9.9461   21.7133 N   0  0  0  0  0  0  0  0  0  0  0  0
    0.9772  -11.7725   14.6056 C   0  0  2  0  0  0  0  0  0  0  0  0
    1.8619  -11.6199   13.4741 N   0  0  0  0  0  0  0  0  0  0  0  0
   -0.3994  -11.0547   14.3016 C   0  0  0  0  0  0  0  0  0  0  0  0
   -1.3854  -11.2106   15.5444 C   0  0  2  0  0  0  0  0  0  0  0  0
   -2.6841  -10.5499   15.2506 N   0  0  0  0  0  0  0  0  0  0  0  0
   -0.6970  -10.5808   16.8430 C   0  0  2  0  0  0  0  0  0  0  0  0
    0.6779  -11.3312   17.1048 C   0  0  2  0  0  0  0  0  0  0  0  0
    1.2997  -10.7775   18.2667 O   0  0  0  0  0  0  0  0  0  0  0  0
    1.6429  -11.1718   15.8643 C   0  0  1  0  0  0  0  0  0  0  0  0
    2.8838  -11.8791   16.1103 O   0  0  0  0  0  0  0  0  0  0  0  0
    4.0631  -11.7000   15.4018 C   0  0  2  0  0  0  0  0  0  0  0  0
    5.1146  -12.7179   15.9705 C   0  0  2  0  0  0  0  0  0  0  0  0
    4.6226  -14.0140   15.8559 O   0  0  0  0  0  0  0  0  0  0  0  0
    5.5065  -12.3837   17.4726 C   0  0  1  0  0  0  0  0  0  0  0  0
    6.5174  -13.3571   17.9897 N   0  0  0  0  0  0  0  0  0  0  0  0
    6.0646  -10.8951   17.5339 C   0  0  2  0  0  0  0  0  0  0  0  0
    6.4454  -10.5491   18.8714 O   0  0  0  0  0  0  0  0  0  0  0  0
    4.9463   -9.9288   16.9819 C   0  0  2  0  0  0  0  0  0  0  0  0
    4.5574  -10.3081   15.5594 O   0  0  0  0  0  0  0  0  0  0  0  0
    5.4135   -8.4928   16.9906 C   0  0  0  0  0  0  0  0  0  0  0  0
    5.6576   -7.9956   18.3195 O   0  0  0  0  0  0  0  0  0  0  0  0
   -1.1270   -7.9453   17.5747 O   0  0  0  0  0  0  0  0  0  0  0  0
   -0.7552   -7.2028   20.3015 O   0  0  0  0  0  0  0  0  0  0  0  0
    1.8908  -12.6515   12.4632 C   0  0  0  0  0  0  0  0  0  0  0  0
    1.5156  -13.8265   12.7521 O   0  0  0  0  0  0  0  0  0  0  0  0
    2.3966  -12.2645   11.0395 C   0  0  2  0  0  0  0  0  0  0  0  0
    4.9643   -9.4273   11.7629 N   0  0  0  0  0  0  0  0  0  0  0  0
    3.0444  -10.8454   11.0434 C   0  0  0  0  0  0  0  0  0  0  0  0
    4.3743  -10.7865   11.8133 C   0  0  0  0  0  0  0  0  0  0  0  0
    1.4563  -12.2045   10.1850 O   0  0  0  0  0  0  0  0  0  0  0  0
  1  2  1  1  0  0  0
  1  3  1  0  0  0  0
  1  8  1  0  0  0  0
  3  4  1  0  0  0  0
  3 32  1  6  0  0  0
  4  5  1  0  0  0  0
  4 33  1  1  0  0  0
  5  6  1  1  0  0  0
  5  7  1  0  0  0  0
  7  8  1  0  0  0  0
  7  9  1  1  0  0  0
  9 10  1  0  0  0  0
 11 12  1  6  0  0  0
 11 13  1  0  0  0  0
 11 19  1  0  0  0  0
 12 34  1  0  0  0  0
 13 14  1  0  0  0  0
 14 15  1  6  0  0  0
 14 16  1  0  0  0  0
 16  2  1  1  0  0  0
 16 17  1  0  0  0  0
 17 18  1  1  0  0  0
 17 19  1  0  0  0  0
 19 20  1  1  0  0  0
 21 20  1  1  0  0  0
 21 22  1  0  0  0  0
 21 29  1  0  0  0  0
 22 23  1  1  0  0  0
 22 24  1  0  0  0  0
 24 25  1  6  0  0  0
 24 26  1  0  0  0  0
 26 27  1  1  0  0  0
 26 28  1  0  0  0  0
 28 29  1  0  0  0  0
 28 30  1  6  0  0  0
 30 31  1  0  0  0  0
 34 35  2  0  0  0  0
 36 34  1  1  0  0  0
 36 38  1  0  0  0  0
 36 40  1  0  0  0  0
 37 39  1  0  0  0  0
 38 39  1  0  0  0  0
M  END
>  <CHROM.1>
-66.43902958,-84.90089444,64.71224903,-93.10600575,76.31671107,-177.45961969
-64.44360754,10.72172900,68.91582416,178.74090401,1.35894737,-10.67896420
16.65408451,2.36735647,-0.04304245,1.28178570

>  <Name>
ligand

>  <RI>
0

>  <Rbt.Current_Directory>
/home/itssahil/PROJECTS/Mol_Feturizer/New_Systems/rnas/4P20

>  <Rbt.Executable>
rbdock ($Id: //depot/dev/client3/rdock/2013.1/src/exe/rbdock.cxx#4 $)

>  <Rbt.Library>
libRbt.so (2013.1, Build901 2013/11/27)

>  <Rbt.Parameter_File>
/export/apps/rDock/src/rDock_2013.1_src/data/scripts/dock_solv.prm

>  <Rbt.Receptor>
prm/pocket_docking_5.prm

>  <SCORE>
-10.131

>  <SCORE.INTER>
-1.5511

>  <SCORE.INTER.CONST>
1

>  <SCORE.INTER.POLAR>
0

>  <SCORE.INTER.ROT>
10

>  <SCORE.INTER.SOLV>
15.9788

>  <SCORE.INTER.VDW>
-16.627

>  <SCORE.INTER.norm>
-0.0387776

>  <SCORE.INTRA>
-8.57994

>  <SCORE.INTRA.DIHEDRAL>
-20.7001

>  <SCORE.INTRA.DIHEDRAL.0>
28.2802

>  <SCORE.INTRA.POLAR>
0

>  <SCORE.INTRA.POLAR.0>
0

>  <SCORE.INTRA.REPUL>
0

>  <SCORE.INTRA.REPUL.0>
0

>  <SCORE.INTRA.SOLV>
1.45843

>  <SCORE.INTRA.SOLV.lig_0>
-101.981

>  <SCORE.INTRA.VDW>
1.0409

>  <SCORE.INTRA.VDW.0>
-5.72964

>  <SCORE.INTRA.norm>
-0.214499

>  <SCORE.RESTR>
0

>  <SCORE.RESTR.CAVITY>
0

>  <SCORE.RESTR.norm>
0

>  <SCORE.SYSTEM>
0

>  <SCORE.SYSTEM.CONST>
0

>  <SCORE.SYSTEM.DIHEDRAL>
0

>  <SCORE.SYSTEM.SOLV>
0

>  <SCORE.SYSTEM.norm>
0

>  <SCORE.heavy>
40

>  <SCORE.norm>
-0.253276

>  <RMSD>
6.976

$$$$
ligand
 OpenBabel11021811513D
libRbt.so/2013.1/901 2013/11/27
 40 42  0  0  0  0  0  0  0  0999 V2000
    3.5277  -13.1726   13.0581 C   0  0  2  0  0  0  0  0  0  0  0  0
    3.1762  -13.9124   14.2379 O   0  0  0  0  0  0  0  0  0  0  0  0
    5.0013  -13.5056   12.6143 C   0  0  1  0  0  0  0  0  0  0  0  0
    6.0398  -13.0149   13.6648 C   0  0  2  0  0  0  0  0  0  0  0  0
    5.8748  -11.4689   13.8094 C   0  0  2  0  0  0  0  0  0  0  0  0
    6.8426  -10.9739   14.7596 O   0  0  0  0  0  0  0  0  0  0  0  0
    4.3927  -11.1639   14.3012 C   0  0  2  0  0  0  0  0  0  0  0  0
    3.4058  -11.6988   13.2962 O   0  0  0  0  0  0  0  0  0  0  0  0
    4.1238   -9.6731   14.4542 C   0  0  0  0  0  0  0  0  0  0  0  0
    4.2417   -8.9563   13.1455 N   0  0  0  0  0  0  0  0  0  0  0  0
   -0.9146  -12.5256   15.0579 C   0  0  2  0  0  0  0  0  0  0  0  0
   -2.2295  -12.4509   15.6511 N   0  0  0  0  0  0  0  0  0  0  0  0
   -0.7238  -13.9374   14.3700 C   0  0  0  0  0  0  0  0  0  0  0  0
    0.7258  -14.0366   13.7146 C   0  0  2  0  0  0  0  0  0  0  0  0
    0.8974  -15.3573   13.0545 N   0  0  0  0  0  0  0  0  0  0  0  0
    1.8311  -13.8085   14.8474 C   0  0  2  0  0  0  0  0  0  0  0  0
    1.5969  -12.3832   15.5073 C   0  0  2  0  0  0  0  0  0  0  0  0
    2.5831  -12.1681   16.5195 O   0  0  0  0  0  0  0  0  0  0  0  0
    0.1560  -12.2978   16.1488 C   0  0  1  0  0  0  0  0  0  0  0  0
   -0.0494  -10.9850   16.7278 O   0  0  0  0  0  0  0  0  0  0  0  0
    0.5833  -10.5017   17.8640 C   0  0  2  0  0  0  0  0  0  0  0  0
    0.2122  -11.4570   19.0534 C   0  0  2  0  0  0  0  0  0  0  0  0
    0.5984  -12.7581   18.7482 O   0  0  0  0  0  0  0  0  0  0  0  0
   -1.3342  -11.3855   19.4069 C   0  0  1  0  0  0  0  0  0  0  0  0
   -1.6631  -12.2929   20.5495 N   0  0  0  0  0  0  0  0  0  0  0  0
   -1.7088   -9.8778   19.7499 C   0  0  2  0  0  0  0  0  0  0  0  0
   -3.0962   -9.7628   20.0894 O   0  0  0  0  0  0  0  0  0  0  0  0
   -1.3421   -8.9851   18.5018 C   0  0  2  0  0  0  0  0  0  0  0  0
    0.1355   -9.1162   18.1582 O   0  0  0  0  0  0  0  0  0  0  0  0
   -1.6526   -7.5303   18.7617 C   0  0  0  0  0  0  0  0  0  0  0  0
   -0.9588   -7.0106   19.9112 O   0  0  0  0  0  0  0  0  0  0  0  0
    5.1060  -14.9461   12.4195 O   0  0  0  0  0  0  0  0  0  0  0  0
    7.3045  -13.3190   13.2222 O   0  0  0  0  0  0  0  0  0  0  0  0
   -3.0084  -11.2465   15.4789 C   0  0  0  0  0  0  0  0  0  0  0  0
   -2.4257  -10.1519   15.2195 O   0  0  0  0  0  0  0  0  0  0  0  0
   -4.5573  -11.3511   15.6282 C   0  0  2  0  0  0  0  0  0  0  0  0
   -5.6577   -7.8113   16.8194 N   0  0  0  0  0  0  0  0  0  0  0  0
   -5.1055  -10.2287   16.5627 C   0  0  0  0  0  0  0  0  0  0  0  0
   -5.0538   -8.8294   15.9268 C   0  0  0  0  0  0  0  0  0  0  0  0
   -4.9252  -12.4453   16.1625 O   0  0  0  0  0  0  0  0  0  0  0  0
  1  2  1  1  0  0  0
  1  3  1  0  0  0  0
  1  8  1  0  0  0  0
  3  4  1  0  0  0  0
  3 32  1  1  0  0  0
  4  5  1  0  0  0  0
  4 33  1  6  0  0  0
  5  6  1  1  0  0  0
  5  7  1  0  0  0  0
  7  8  1  0  0  0  0
  7  9  1  6  0  0  0
  9 10  1  0  0  0  0
 11 12  1  1  0  0  0
 11 13  1  0  0  0  0
 11 19  1  0  0  0  0
 12 34  1  0  0  0  0
 13 14  1  0  0  0  0
 14 15  1  1  0  0  0
 14 16  1  0  0  0  0
 16  2  1  6  0  0  0
 16 17  1  0  0  0  0
 17 18  1  1  0  0  0
 17 19  1  0  0  0  0
 19 20  1  6  0  0  0
 21 20  1  6  0  0  0
 21 22  1  0  0  0  0
 21 29  1  0  0  0  0
 22 23  1  6  0  0  0
 22 24  1  0  0  0  0
 24 25  1  1  0  0  0
 24 26  1  0  0  0  0
 26 27  1  6  0  0  0
 26 28  1  0  0  0  0
 28 29  1  0  0  0  0
 28 30  1  1  0  0  0
 30 31  1  0  0  0  0
 34 35  2  0  0  0  0
 36 34  1  1  0  0  0
 36 38  1  0  0  0  0
 36 40  1  0  0  0  0
 37 39  1  0  0  0  0
 38 39  1  0  0  0  0
M  END
>  <CHROM.1>
-178.49940183,50.63522836,62.81454997,-136.21247716,169.95268721,-60.02766262
58.07933190,131.83504715,71.25792412,176.64043050,0.57822710,-11.45069061
15.94269926,0.56450975,-0.12401175,-2.35169080

>  <Name>
ligand

>  <RI>
0

>  <Rbt.Current_Directory>
/home/itssahil/PROJECTS/Mol_Feturizer/New_Systems/rnas/4P20

>  <Rbt.Executable>
rbdock ($Id: //depot/dev/client3/rdock/2013.1/src/exe/rbdock.cxx#4 $)

>  <Rbt.Library>
libRbt.so (2013.1, Build901 2013/11/27)

>  <Rbt.Parameter_File>
/export/apps/rDock/src/rDock_2013.1_src/data/scripts/dock_solv.prm

>  <Rbt.Receptor>
prm/pocket_docking_7.prm

>  <SCORE>
-7.69132

>  <SCORE.INTER>
2.86961

>  <SCORE.INTER.CONST>
1

>  <SCORE.INTER.POLAR>
0

>  <SCORE.INTER.ROT>
10

>  <SCORE.INTER.SOLV>
17.495

>  <SCORE.INTER.VDW>
-14.1853

>  <SCORE.INTER.norm>
0.0717401

>  <SCORE.INTRA>
-10.5609

>  <SCORE.INTRA.DIHEDRAL>
-23.5414

>  <SCORE.INTRA.DIHEDRAL.0>
28.2802

>  <SCORE.INTRA.POLAR>
0

>  <SCORE.INTRA.POLAR.0>
0

>  <SCORE.INTRA.REPUL>
0

>  <SCORE.INTRA.REPUL.0>
0

>  <SCORE.INTRA.SOLV>
1.48534

>  <SCORE.INTRA.SOLV.lig_0>
-101.981

>  <SCORE.INTRA.VDW>
0.467105

>  <SCORE.INTRA.VDW.0>
-5.72964

>  <SCORE.INTRA.norm>
-0.264023

>  <SCORE.RESTR>
0

>  <SCORE.RESTR.CAVITY>
0

>  <SCORE.RESTR.norm>
0

>  <SCORE.SYSTEM>
0

>  <SCORE.SYSTEM.CONST>
0

>  <SCORE.SYSTEM.DIHEDRAL>
0

>  <SCORE.SYSTEM.SOLV>
0

>  <SCORE.SYSTEM.norm>
0

>  <SCORE.heavy>
40

>  <SCORE.norm>
-0.192283

>  <RMSD>
7.004

$$$$
ligand
 OpenBabel11021811513D
libRbt.so/2013.1/901 2013/11/27
 40 42  0  0  0  0  0  0  0  0999 V2000
    2.8866   -9.6673   12.4270 C   0  0  2  0  0  0  0  0  0  0  0  0
    3.0087  -10.7140   13.4030 O   0  0  0  0  0  0  0  0  0  0  0  0
    3.5746  -10.0883   11.0747 C   0  0  1  0  0  0  0  0  0  0  0  0
    5.1146  -10.2428   11.2402 C   0  0  2  0  0  0  0  0  0  0  0  0
    5.6824   -8.8655   11.7084 C   0  0  2  0  0  0  0  0  0  0  0  0
    7.1160   -8.9646   11.8477 O   0  0  0  0  0  0  0  0  0  0  0  0
    5.0044   -8.4865   13.0970 C   0  0  2  0  0  0  0  0  0  0  0  0
    3.5102   -8.3992   12.9235 O   0  0  0  0  0  0  0  0  0  0  0  0
    5.4800   -7.1422   13.6307 C   0  0  0  0  0  0  0  0  0  0  0  0
    5.2527   -6.0452   12.6380 N   0  0  0  0  0  0  0  0  0  0  0  0
   -1.0939  -11.0973   14.9366 C   0  0  2  0  0  0  0  0  0  0  0  0
   -2.2008  -11.5229   15.7611 N   0  0  0  0  0  0  0  0  0  0  0  0
   -0.4258  -12.3589   14.2550 C   0  0  0  0  0  0  0  0  0  0  0  0
    0.8016  -11.9049   13.3448 C   0  0  2  0  0  0  0  0  0  0  0  0
    1.4178  -13.0898   12.6922 N   0  0  0  0  0  0  0  0  0  0  0  0
    1.8650  -11.1244   14.2486 C   0  0  2  0  0  0  0  0  0  0  0  0
    1.1482   -9.8714   14.9104 C   0  0  2  0  0  0  0  0  0  0  0  0
    2.0922   -9.1644   15.7179 O   0  0  0  0  0  0  0  0  0  0  0  0
   -0.0678  -10.3355   15.8055 C   0  0  1  0  0  0  0  0  0  0  0  0
   -0.7234   -9.1800   16.3849 O   0  0  0  0  0  0  0  0  0  0  0  0
   -0.1605   -8.3234   17.3198 C   0  0  2  0  0  0  0  0  0  0  0  0
    0.1464   -9.1668   18.6081 C   0  0  2  0  0  0  0  0  0  0  0  0
    0.9909  -10.2244   18.2865 O   0  0  0  0  0  0  0  0  0  0  0  0
   -1.1833   -9.6855   19.3041 C   0  0  1  0  0  0  0  0  0  0  0  0
   -0.8687  -10.4751   20.5348 N   0  0  0  0  0  0  0  0  0  0  0  0
   -2.0995   -8.4316   19.6497 C   0  0  2  0  0  0  0  0  0  0  0  0
   -3.3102   -8.8480   20.2933 O   0  0  0  0  0  0  0  0  0  0  0  0
   -2.3942   -7.6549   18.3085 C   0  0  2  0  0  0  0  0  0  0  0  0
   -1.0978   -7.2166   17.6409 O   0  0  0  0  0  0  0  0  0  0  0  0
   -3.2466   -6.4342   18.5611 C   0  0  0  0  0  0  0  0  0  0  0  0
   -4.6013   -6.7663   18.9178 O   0  0  0  0  0  0  0  0  0  0  0  0
    2.9760  -11.3393   10.6268 O   0  0  0  0  0  0  0  0  0  0  0  0
    5.6630  -10.5973   10.0314 O   0  0  0  0  0  0  0  0  0  0  0  0
   -3.3786  -10.6899   15.8373 C   0  0  0  0  0  0  0  0  0  0  0  0
   -3.2933   -9.4538   15.5734 O   0  0  0  0  0  0  0  0  0  0  0  0
   -4.7228  -11.3625   16.2536 C   0  0  2  0  0  0  0  0  0  0  0  0
   -7.7578  -11.3783   16.8994 N   0  0  0  0  0  0  0  0  0  0  0  0
   -5.8871  -10.9087   15.3198 C   0  0  0  0  0  0  0  0  0  0  0  0
   -7.1955  -11.6800   15.5611 C   0  0  0  0  0  0  0  0  0  0  0  0
   -5.0877  -11.0417   17.4292 O   0  0  0  0  0  0  0  0  0  0  0  0
  1  2  1  1  0  0  0
  1  3  1  0  0  0  0
  1  8  1  0  0  0  0
  3  4  1  0  0  0  0
  3 32  1  1  0  0  0
  4  5  1  0  0  0  0
  4 33  1  6  0  0  0
  5  6  1  1  0  0  0
  5  7  1  0  0  0  0
  7  8  1  0  0  0  0
  7  9  1  6  0  0  0
  9 10  1  0  0  0  0
 11 12  1  1  0  0  0
 11 13  1  0  0  0  0
 11 19  1  0  0  0  0
 12 34  1  0  0  0  0
 13 14  1  0  0  0  0
 14 15  1  1  0  0  0
 14 16  1  0  0  0  0
 16  2  1  6  0  0  0
 16 17  1  0  0  0  0
 17 18  1  1  0  0  0
 17 19  1  0  0  0  0
 19 20  1  6  0  0  0
 21 20  1  6  0  0  0
 21 22  1  0  0  0  0
 21 29  1  0  0  0  0
 22 23  1  6  0  0  0
 22 24  1  0  0  0  0
 24 25  1  1  0  0  0
 24 26  1  0  0  0  0
 26 27  1  6  0  0  0
 26 28  1  0  0  0  0
 28 29  1  0  0  0  0
 28 30  1  1  0  0  0
 30 31  1  0  0  0  0
 34 35  2  0  0  0  0
 36 34  1  6  0  0  0
 36 38  1  0  0  0  0
 36 40  1  0  0  0  0
 37 39  1  0  0  0  0
 38 39  1  0  0  0  0
M  END
>  <CHROM.1>
-135.61125188,71.44962826,56.01860159,-143.75404417,173.75706551,-62.24187575
-70.45154681,-134.37802799,172.27535202,66.51456325,0.08395423,-9.72778529
15.32794797,0.44318164,-0.38731871,-2.20712387

>  <Name>
ligand

>  <RI>
0

>  <Rbt.Current_Directory>
/home/itssahil/PROJECTS/Mol_Feturizer/New_Systems/rnas/4P20

>  <Rbt.Executable>
rbdock ($Id: //depot/dev/client3/rdock/2013.1/src/exe/rbdock.cxx#4 $)

>  <Rbt.Library>
libRbt.so (2013.1, Build901 2013/11/27)

>  <Rbt.Parameter_File>
/export/apps/rDock/src/rDock_2013.1_src/data/scripts/dock_solv.prm

>  <Rbt.Receptor>
prm/pocket_docking_5.prm

>  <SCORE>
-12.9102

>  <SCORE.INTER>
-7.26393

>  <SCORE.INTER.CONST>
1

>  <SCORE.INTER.POLAR>
0

>  <SCORE.INTER.ROT>
10

>  <SCORE.INTER.SOLV>
20.4233

>  <SCORE.INTER.VDW>
-21.9171

>  <SCORE.INTER.norm>
-0.181598

>  <SCORE.INTRA>
-5.66231

>  <SCORE.INTRA.DIHEDRAL>
-17.5349

>  <SCORE.INTRA.DIHEDRAL.0>
28.2802

>  <SCORE.INTRA.POLAR>
0

>  <SCORE.INTRA.POLAR.0>
0

>  <SCORE.INTRA.REPUL>
0

>  <SCORE.INTRA.REPUL.0>
0

>  <SCORE.INTRA.SOLV>
4.00199

>  <SCORE.INTRA.SOLV.lig_0>
-101.981

>  <SCORE.INTRA.VDW>
1.10414

>  <SCORE.INTRA.VDW.0>
-5.72964

>  <SCORE.INTRA.norm>
-0.141558

>  <SCORE.RESTR>
0.016008

>  <SCORE.RESTR.CAVITY>
0.016008

>  <SCORE.RESTR.norm>
0.000400199

>  <SCORE.SYSTEM>
0

>  <SCORE.SYSTEM.CONST>
0

>  <SCORE.SYSTEM.DIHEDRAL>
0

>  <SCORE.SYSTEM.SOLV>
0

>  <SCORE.SYSTEM.norm>
0

>  <SCORE.heavy>
40

>  <SCORE.norm>
-0.322756

>  <RMSD>
7.037

$$$$
ligand
 OpenBabel11021811513D
libRbt.so/2013.1/901 2013/11/27
 40 42  0  0  0  0  0  0  0  0999 V2000
    5.2919   -4.3727   23.6893 C   0  0  2  0  0  0  0  0  0  0  0  0
    4.4113   -5.3375   23.0921 O   0  0  0  0  0  0  0  0  0  0  0  0
    4.8579   -4.0702   25.1724 C   0  0  1  0  0  0  0  0  0  0  0  0
    3.4695   -3.3690   25.2305 C   0  0  2  0  0  0  0  0  0  0  0  0
    3.5804   -2.0296   24.4354 C   0  0  2  0  0  0  0  0  0  0  0  0
    2.3143   -1.3378   24.4899 O   0  0  0  0  0  0  0  0  0  0  0  0
    3.9756   -2.3673   22.9316 C   0  0  2  0  0  0  0  0  0  0  0  0
    5.2943   -3.0958   22.9063 O   0  0  0  0  0  0  0  0  0  0  0  0
    4.1290   -1.1185   22.0742 C   0  0  0  0  0  0  0  0  0  0  0  0
    5.2030   -0.2187   22.6009 N   0  0  0  0  0  0  0  0  0  0  0  0
    3.7741   -7.4874   19.3104 C   0  0  2  0  0  0  0  0  0  0  0  0
    3.9328   -7.8834   17.9304 N   0  0  0  0  0  0  0  0  0  0  0  0
    3.3806   -5.9567   19.3797 C   0  0  0  0  0  0  0  0  0  0  0  0
    3.2065   -5.5035   20.8980 C   0  0  2  0  0  0  0  0  0  0  0  0
    2.8207   -4.0694   20.9607 N   0  0  0  0  0  0  0  0  0  0  0  0
    4.5725   -5.7698   21.6854 C   0  0  2  0  0  0  0  0  0  0  0  0
    4.9247   -7.3150   21.5856 C   0  0  2  0  0  0  0  0  0  0  0  0
    6.1432   -7.5640   22.2901 O   0  0  0  0  0  0  0  0  0  0  0  0
    5.0902   -7.7508   20.0763 C   0  0  1  0  0  0  0  0  0  0  0  0
    5.3904   -9.1667   20.0016 O   0  0  0  0  0  0  0  0  0  0  0  0
    6.4885   -9.7854   20.5815 C   0  0  2  0  0  0  0  0  0  0  0  0
    7.0863  -10.7768   19.5208 C   0  0  2  0  0  0  0  0  0  0  0  0
    7.4234  -10.0801   18.3649 O   0  0  0  0  0  0  0  0  0  0  0  0
    6.0890  -11.9704   19.2012 C   0  0  1  0  0  0  0  0  0  0  0  0
    6.6829  -12.9085   18.1991 N   0  0  0  0  0  0  0  0  0  0  0  0
    5.7486  -12.7268   20.5588 C   0  0  2  0  0  0  0  0  0  0  0  0
    4.8586  -13.8244   20.3204 O   0  0  0  0  0  0  0  0  0  0  0  0
    5.1224  -11.6804   21.5597 C   0  0  2  0  0  0  0  0  0  0  0  0
    6.0826  -10.5242   21.8046 O   0  0  0  0  0  0  0  0  0  0  0  0
    4.7904  -12.3242   22.8847 C   0  0  0  0  0  0  0  0  0  0  0  0
    3.7467  -13.3101   22.7777 O   0  0  0  0  0  0  0  0  0  0  0  0
    4.8311   -5.3287   25.9070 O   0  0  0  0  0  0  0  0  0  0  0  0
    3.1474   -3.1182   26.5423 O   0  0  0  0  0  0  0  0  0  0  0  0
    3.4819   -9.1934   17.5211 C   0  0  0  0  0  0  0  0  0  0  0  0
    3.3691  -10.1172   18.3807 O   0  0  0  0  0  0  0  0  0  0  0  0
    3.1542   -9.4143   16.0123 C   0  0  2  0  0  0  0  0  0  0  0  0
    3.8412  -10.6971   13.3537 N   0  0  0  0  0  0  0  0  0  0  0  0
    4.3631   -9.0098   15.1132 C   0  0  0  0  0  0  0  0  0  0  0  0
    4.1192   -9.2647   13.6163 C   0  0  0  0  0  0  0  0  0  0  0  0
    2.1813   -8.6992   15.6124 O   0  0  0  0  0  0  0  0  0  0  0  0
  1  2  1  6  0  0  0
  1  3  1  0  0  0  0
  1  8  1  0  0  0  0
  3  4  1  0  0  0  0
  3 32  1  1  0  0  0
  4  5  1  0  0  0  0
  4 33  1  1  0  0  0
  5  6  1  6  0  0  0
  5  7  1  0  0  0  0
  7  8  1  0  0  0  0
  7  9  1  6  0  0  0
  9 10  1  0  0  0  0
 11 12  1  6  0  0  0
 11 13  1  0  0  0  0
 11 19  1  0  0  0  0
 12 34  1  0  0  0  0
 13 14  1  0  0  0  0
 14 15  1  6  0  0  0
 14 16  1  0  0  0  0
 16  2  1  1  0  0  0
 16 17  1  0  0  0  0
 17 18  1  1  0  0  0
 17 19  1  0  0  0  0
 19 20  1  1  0  0  0
 21 20  1  6  0  0  0
 21 22  1  0  0  0  0
 21 29  1  0  0  0  0
 22 23  1  6  0  0  0
 22 24  1  0  0  0  0
 24 25  1  6  0  0  0
 24 26  1  0  0  0  0
 26 27  1  6  0  0  0
 26 28  1  0  0  0  0
 28 29  1  0  0  0  0
 28 30  1  1  0  0  0
 30 31  1  0  0  0  0
 34 35  2  0  0  0  0
 36 34  1  1  0  0  0
 36 38  1  0  0  0  0
 36 40  1  0  0  0  0
 37 39  1  0  0  0  0
 38 39  1  0  0  0  0
M  END
>  <CHROM.1>
178.16051273,-123.60893378,60.53968453,-142.05753768,-179.39449987,-135.67915103
-65.76114936,54.31131305,177.47684860,-59.32068182,4.55665582,-7.52761980
20.75231350,-1.88431172,1.30261692,-2.20530756

>  <Name>
ligand

>  <RI>
0

>  <Rbt.Current_Directory>
/home/itssahil/PROJECTS/Mol_Feturizer/New_Systems/rnas/4P20

>  <Rbt.Executable>
rbdock ($Id: //depot/dev/client3/rdock/2013.1/src/exe/rbdock.cxx#4 $)

>  <Rbt.Library>
libRbt.so (2013.1, Build901 2013/11/27)

>  <Rbt.Parameter_File>
/export/apps/rDock/src/rDock_2013.1_src/data/scripts/dock_solv.prm

>  <Rbt.Receptor>
prm/pocket_docking_8.prm

>  <SCORE>
-14.8237

>  <SCORE.INTER>
-10.9576

>  <SCORE.INTER.CONST>
1

>  <SCORE.INTER.POLAR>
0

>  <SCORE.INTER.ROT>
10

>  <SCORE.INTER.SOLV>
15.9226

>  <SCORE.INTER.VDW>
-22.8793

>  <SCORE.INTER.norm>
-0.273939

>  <SCORE.INTRA>
-3.86614

>  <SCORE.INTRA.DIHEDRAL>
-13.2345

>  <SCORE.INTRA.DIHEDRAL.0>
28.2802

>  <SCORE.INTRA.POLAR>
0

>  <SCORE.INTRA.POLAR.0>
0

>  <SCORE.INTRA.REPUL>
0

>  <SCORE.INTRA.REPUL.0>
0

>  <SCORE.INTRA.SOLV>
4.37492

>  <SCORE.INTRA.SOLV.lig_0>
-101.981

>  <SCORE.INTRA.VDW>
0.56364

>  <SCORE.INTRA.VDW.0>
-5.72964

>  <SCORE.INTRA.norm>
-0.0966534

>  <SCORE.RESTR>
0

>  <SCORE.RESTR.CAVITY>
0

>  <SCORE.RESTR.norm>
0

>  <SCORE.SYSTEM>
0

>  <SCORE.SYSTEM.CONST>
0

>  <SCORE.SYSTEM.DIHEDRAL>
0

>  <SCORE.SYSTEM.SOLV>
0

>  <SCORE.SYSTEM.norm>
0

>  <SCORE.heavy>
40

>  <SCORE.norm>
-0.370593

>  <RMSD>
7.164

$$$$
ligand
 OpenBabel11021811513D
libRbt.so/2013.1/901 2013/11/27
 40 42  0  0  0  0  0  0  0  0999 V2000
    2.2114  -11.9814   12.9864 C   0  0  2  0  0  0  0  0  0  0  0  0
    2.0572  -12.6394   14.2537 O   0  0  0  0  0  0  0  0  0  0  0  0
    3.2412  -12.7564   12.0818 C   0  0  1  0  0  0  0  0  0  0  0  0
    4.6765  -12.7129   12.6826 C   0  0  2  0  0  0  0  0  0  0  0  0
    5.1008  -11.2140   12.7904 C   0  0  2  0  0  0  0  0  0  0  0  0
    6.4412  -11.1361   13.3212 O   0  0  0  0  0  0  0  0  0  0  0  0
    4.0706  -10.4658   13.7445 C   0  0  2  0  0  0  0  0  0  0  0  0
    2.6813  -10.5712   13.1710 O   0  0  0  0  0  0  0  0  0  0  0  0
    4.3882   -8.9848   13.8989 C   0  0  0  0  0  0  0  0  0  0  0  0
    5.6950   -8.7727   14.5974 N   0  0  0  0  0  0  0  0  0  0  0  0
   -0.6306   -9.9251   16.4305 C   0  0  2  0  0  0  0  0  0  0  0  0
   -1.5232   -9.4292   17.4521 N   0  0  0  0  0  0  0  0  0  0  0  0
   -1.2467  -11.2269   15.7759 C   0  0  0  0  0  0  0  0  0  0  0  0
   -0.2697  -11.7890   14.6488 C   0  0  2  0  0  0  0  0  0  0  0  0
   -0.8577  -13.0026   14.0236 N   0  0  0  0  0  0  0  0  0  0  0  0
    1.1556  -12.1071   15.3003 C   0  0  2  0  0  0  0  0  0  0  0  0
    1.7301  -10.7737   15.9437 C   0  0  2  0  0  0  0  0  0  0  0  0
    3.0066  -11.0471   16.5259 O   0  0  0  0  0  0  0  0  0  0  0  0
    0.7504  -10.2261   17.0553 C   0  0  1  0  0  0  0  0  0  0  0  0
    1.2783   -8.9990   17.6173 O   0  0  0  0  0  0  0  0  0  0  0  0
    0.7207   -8.2967   18.6760 C   0  0  2  0  0  0  0  0  0  0  0  0
    1.7998   -7.2767   19.1862 C   0  0  2  0  0  0  0  0  0  0  0  0
    2.1849   -6.4402   18.1435 O   0  0  0  0  0  0  0  0  0  0  0  0
    3.0535   -8.0139   19.8235 C   0  0  1  0  0  0  0  0  0  0  0  0
    4.0622   -7.0244   20.3138 N   0  0  0  0  0  0  0  0  0  0  0  0
    2.5473   -8.9471   21.0084 C   0  0  2  0  0  0  0  0  0  0  0  0
    3.6472   -9.6267   21.6263 O   0  0  0  0  0  0  0  0  0  0  0  0
    1.4964   -9.9644   20.4170 C   0  0  2  0  0  0  0  0  0  0  0  0
    0.3335   -9.2254   19.7688 O   0  0  0  0  0  0  0  0  0  0  0  0
    0.9536  -10.8748   21.4926 C   0  0  0  0  0  0  0  0  0  0  0  0
    0.0031  -11.8296   20.9852 O   0  0  0  0  0  0  0  0  0  0  0  0
    2.7822  -14.1326   11.9419 O   0  0  0  0  0  0  0  0  0  0  0  0
    5.5329  -13.3910   11.8494 O   0  0  0  0  0  0  0  0  0  0  0  0
   -2.9368   -9.3445   17.1665 C   0  0  0  0  0  0  0  0  0  0  0  0
   -3.3330   -9.2733   15.9653 O   0  0  0  0  0  0  0  0  0  0  0  0
   -3.9262   -9.3391   18.3722 C   0  0  2  0  0  0  0  0  0  0  0  0
   -6.0265   -7.1939   17.9096 N   0  0  0  0  0  0  0  0  0  0  0  0
   -3.9505   -7.9434   19.0686 C   0  0  0  0  0  0  0  0  0  0  0  0
   -4.6172   -6.8505   18.2164 C   0  0  0  0  0  0  0  0  0  0  0  0
   -3.5950  -10.1648   19.2814 O   0  0  0  0  0  0  0  0  0  0  0  0
  1  2  1  1  0  0  0
  1  3  1  0  0  0  0
  1  8  1  0  0  0  0
  3  4  1  0  0  0  0
  3 32  1  1  0  0  0
  4  5  1  0  0  0  0
  4 33  1  6  0  0  0
  5  6  1  1  0  0  0
  5  7  1  0  0  0  0
  7  8  1  0  0  0  0
  7  9  1  6  0  0  0
  9 10  1  0  0  0  0
 11 12  1  1  0  0  0
 11 13  1  0  0  0  0
 11 19  1  0  0  0  0
 12 34  1  0  0  0  0
 13 14  1  0  0  0  0
 14 15  1  1  0  0  0
 14 16  1  0  0  0  0
 16  2  1  6  0  0  0
 16 17  1  0  0  0  0
 17 18  1  1  0  0  0
 17 19  1  0  0  0  0
 19 20  1  6  0  0  0
 21 20  1  6  0  0  0
 21 22  1  0  0  0  0
 21 29  1  0  0  0  0
 22 23  1  6  0  0  0
 22 24  1  0  0  0  0
 24 25  1  1  0  0  0
 24 26  1  0  0  0  0
 26 27  1  6  0  0  0
 26 28  1  0  0  0  0
 28 29  1  0  0  0  0
 28 30  1  1  0  0  0
 30 31  1  0  0  0  0
 34 35  2  0  0  0  0
 36 34  1  6  0  0  0
 36 38  1  0  0  0  0
 36 40  1  0  0  0  0
 37 39  1  0  0  0  0
 38 39  1  0  0  0  0
M  END
>  <CHROM.1>
179.30305464,49.18525048,-65.25869511,-45.57875169,64.53424642,165.27484775
-179.24007714,76.82055149,70.06644139,60.01589056,1.14376054,-10.14287663
16.63851473,0.85647114,0.01417421,-2.04257954

>  <Name>
ligand

>  <RI>
0

>  <Rbt.Current_Directory>
/home/itssahil/PROJECTS/Mol_Feturizer/New_Systems/rnas/4P20

>  <Rbt.Executable>
rbdock ($Id: //depot/dev/client3/rdock/2013.1/src/exe/rbdock.cxx#4 $)

>  <Rbt.Library>
libRbt.so (2013.1, Build901 2013/11/27)

>  <Rbt.Parameter_File>
/export/apps/rDock/src/rDock_2013.1_src/data/scripts/dock_solv.prm

>  <Rbt.Receptor>
prm/pocket_docking_7.prm

>  <SCORE>
-7.97335

>  <SCORE.INTER>
1.674

>  <SCORE.INTER.CONST>
1

>  <SCORE.INTER.POLAR>
0

>  <SCORE.INTER.ROT>
10

>  <SCORE.INTER.SOLV>
15.2817

>  <SCORE.INTER.VDW>
-14.2446

>  <SCORE.INTER.norm>
0.0418501

>  <SCORE.INTRA>
-9.64736

>  <SCORE.INTRA.DIHEDRAL>
-24.8665

>  <SCORE.INTRA.DIHEDRAL.0>
28.2802

>  <SCORE.INTRA.POLAR>
0

>  <SCORE.INTRA.POLAR.0>
0

>  <SCORE.INTRA.REPUL>
0

>  <SCORE.INTRA.REPUL.0>
0

>  <SCORE.INTRA.SOLV>
1.83876

>  <SCORE.INTRA.SOLV.lig_0>
-101.981

>  <SCORE.INTRA.VDW>
1.86653

>  <SCORE.INTRA.VDW.0>
-5.72964

>  <SCORE.INTRA.norm>
-0.241184

>  <SCORE.RESTR>
0

>  <SCORE.RESTR.CAVITY>
0

>  <SCORE.RESTR.norm>
0

>  <SCORE.SYSTEM>
0

>  <SCORE.SYSTEM.CONST>
0

>  <SCORE.SYSTEM.DIHEDRAL>
0

>  <SCORE.SYSTEM.SOLV>
0

>  <SCORE.SYSTEM.norm>
0

>  <SCORE.heavy>
40

>  <SCORE.norm>
-0.199334

>  <RMSD>
7.185

$$$$
ligand
 OpenBabel11021811513D
libRbt.so/2013.1/901 2013/11/27
 40 42  0  0  0  0  0  0  0  0999 V2000
    3.5241   -3.0680   22.6107 C   0  0  2  0  0  0  0  0  0  0  0  0
    4.3945   -3.8555   21.7829 O   0  0  0  0  0  0  0  0  0  0  0  0
    2.1289   -2.8637   21.9100 C   0  0  1  0  0  0  0  0  0  0  0  0
    2.2585   -2.0090   20.6156 C   0  0  2  0  0  0  0  0  0  0  0  0
    2.8479   -0.6208   21.0202 C   0  0  2  0  0  0  0  0  0  0  0  0
    2.9582    0.2102   19.8446 O   0  0  0  0  0  0  0  0  0  0  0  0
    4.2751   -0.8532   21.6840 C   0  0  2  0  0  0  0  0  0  0  0  0
    4.1306   -1.7295   22.9011 O   0  0  0  0  0  0  0  0  0  0  0  0
    4.9279    0.4467   22.1340 C   0  0  0  0  0  0  0  0  0  0  0  0
    6.2709    0.2033   22.7486 N   0  0  0  0  0  0  0  0  0  0  0  0
    5.3137   -8.1034   21.1198 C   0  0  2  0  0  0  0  0  0  0  0  0
    5.1267   -9.5311   21.0047 N   0  0  0  0  0  0  0  0  0  0  0  0
    4.9352   -7.6364   22.5831 C   0  0  0  0  0  0  0  0  0  0  0  0
    5.1321   -6.0609   22.7240 C   0  0  2  0  0  0  0  0  0  0  0  0
    4.7918   -5.6262   24.1041 N   0  0  0  0  0  0  0  0  0  0  0  0
    4.2181   -5.3186   21.6421 C   0  0  2  0  0  0  0  0  0  0  0  0
    4.6339   -5.8207   20.1941 C   0  0  2  0  0  0  0  0  0  0  0  0
    3.8244   -5.1596   19.2189 O   0  0  0  0  0  0  0  0  0  0  0  0
    4.4376   -7.3832   20.0701 C   0  0  1  0  0  0  0  0  0  0  0  0
    4.8409   -7.8280   18.7510 O   0  0  0  0  0  0  0  0  0  0  0  0
    4.2366   -7.4548   17.5592 C   0  0  2  0  0  0  0  0  0  0  0  0
    2.7738   -8.0250   17.5729 C   0  0  2  0  0  0  0  0  0  0  0  0
    2.0916   -7.5403   18.6841 O   0  0  0  0  0  0  0  0  0  0  0  0
    2.7592   -9.6124   17.5380 C   0  0  1  0  0  0  0  0  0  0  0  0
    1.3573  -10.1335   17.5390 N   0  0  0  0  0  0  0  0  0  0  0  0
    3.5482  -10.1005   16.2455 C   0  0  2  0  0  0  0  0  0  0  0  0
    3.5520  -11.5310   16.1617 O   0  0  0  0  0  0  0  0  0  0  0  0
    5.0136   -9.5206   16.3172 C   0  0  2  0  0  0  0  0  0  0  0  0
    4.9905   -8.0004   16.4014 O   0  0  0  0  0  0  0  0  0  0  0  0
    5.8209   -9.9273   15.1076 C   0  0  0  0  0  0  0  0  0  0  0  0
    6.0167  -11.3512   15.0230 O   0  0  0  0  0  0  0  0  0  0  0  0
    1.5721   -4.1762   21.6078 O   0  0  0  0  0  0  0  0  0  0  0  0
    1.0143   -1.8522   20.0543 O   0  0  0  0  0  0  0  0  0  0  0  0
    6.0484  -10.4151   21.6800 C   0  0  0  0  0  0  0  0  0  0  0  0
    7.2083  -10.0042   21.9813 O   0  0  0  0  0  0  0  0  0  0  0  0
    5.5654  -11.8615   22.0075 C   0  0  2  0  0  0  0  0  0  0  0  0
    1.7659  -11.3938   22.7230 N   0  0  0  0  0  0  0  0  0  0  0  0
    4.2184  -11.8359   22.7938 C   0  0  0  0  0  0  0  0  0  0  0  0
    3.0238  -11.3818   21.9383 C   0  0  0  0  0  0  0  0  0  0  0  0
    6.3800  -12.4930   22.7529 O   0  0  0  0  0  0  0  0  0  0  0  0
  1  2  1  6  0  0  0
  1  3  1  0  0  0  0
  1  8  1  0  0  0  0
  3  4  1  0  0  0  0
  3 32  1  6  0  0  0
  4  5  1  0  0  0  0
  4 33  1  1  0  0  0
  5  6  1  6  0  0  0
  5  7  1  0  0  0  0
  7  8  1  0  0  0  0
  7  9  1  1  0  0  0
  9 10  1  0  0  0  0
 11 12  1  1  0  0  0
 11 13  1  0  0  0  0
 11 19  1  0  0  0  0
 12 34  1  0  0  0  0
 13 14  1  0  0  0  0
 14 15  1  1  0  0  0
 14 16  1  0  0  0  0
 16  2  1  6  0  0  0
 16 17  1  0  0  0  0
 17 18  1  6  0  0  0
 17 19  1  0  0  0  0
 19 20  1  6  0  0  0
 21 20  1  1  0  0  0
 21 22  1  0  0  0  0
 21 29  1  0  0  0  0
 22 23  1  1  0  0  0
 22 24  1  0  0  0  0
 24 25  1  6  0  0  0
 24 26  1  0  0  0  0
 26 27  1  1  0  0  0
 26 28  1  0  0  0  0
 28 29  1  0  0  0  0
 28 30  1  6  0  0  0
 30 31  1  0  0  0  0
 34 35  2  0  0  0  0
 36 34  1  1  0  0  0
 36 38  1  0  0  0  0
 36 40  1  0  0  0  0
 37 39  1  0  0  0  0
 38 39  1  0  0  0  0
M  END
>  <CHROM.1>
-75.16155672,-92.83818151,-179.72390143,-71.51438924,176.45745183,-64.95353553
-63.83578942,-53.31477070,70.12466578,179.14125221,4.09542516,-6.77502836
20.23093327,-1.97740458,1.32202578,-2.44496728

>  <Name>
ligand

>  <RI>
0

>  <Rbt.Current_Directory>
/home/itssahil/PROJECTS/Mol_Feturizer/New_Systems/rnas/4P20

>  <Rbt.Executable>
rbdock ($Id: //depot/dev/client3/rdock/2013.1/src/exe/rbdock.cxx#4 $)

>  <Rbt.Library>
libRbt.so (2013.1, Build901 2013/11/27)

>  <Rbt.Parameter_File>
/export/apps/rDock/src/rDock_2013.1_src/data/scripts/dock_solv.prm

>  <Rbt.Receptor>
prm/pocket_docking_8.prm

>  <SCORE>
-21.1945

>  <SCORE.INTER>
-12.1209

>  <SCORE.INTER.CONST>
1

>  <SCORE.INTER.POLAR>
0

>  <SCORE.INTER.ROT>
10

>  <SCORE.INTER.SOLV>
20.9746

>  <SCORE.INTER.VDW>
-25.3388

>  <SCORE.INTER.norm>
-0.303022

>  <SCORE.INTRA>
-9.07361

>  <SCORE.INTRA.DIHEDRAL>
-21.5139

>  <SCORE.INTRA.DIHEDRAL.0>
28.2802

>  <SCORE.INTRA.POLAR>
0

>  <SCORE.INTRA.POLAR.0>
0

>  <SCORE.INTRA.REPUL>
0

>  <SCORE.INTRA.REPUL.0>
0

>  <SCORE.INTRA.SOLV>
-0.414641

>  <SCORE.INTRA.SOLV.lig_0>
-101.981

>  <SCORE.INTRA.VDW>
1.89067

>  <SCORE.INTRA.VDW.0>
-5.72964

>  <SCORE.INTRA.norm>
-0.22684

>  <SCORE.RESTR>
0

>  <SCORE.RESTR.CAVITY>
0

>  <SCORE.RESTR.norm>
0

>  <SCORE.SYSTEM>
0

>  <SCORE.SYSTEM.CONST>
0

>  <SCORE.SYSTEM.DIHEDRAL>
0

>  <SCORE.SYSTEM.SOLV>
0

>  <SCORE.SYSTEM.norm>
0

>  <SCORE.heavy>
40

>  <SCORE.norm>
-0.529862

>  <RMSD>
7.208

$$$$
ligand
 OpenBabel11021811513D
libRbt.so/2013.1/901 2013/11/27
 40 42  0  0  0  0  0  0  0  0999 V2000
    0.7652  -11.0456   13.5064 C   0  0  2  0  0  0  0  0  0  0  0  0
    0.3369  -12.2956   14.0694 O   0  0  0  0  0  0  0  0  0  0  0  0
    1.8694  -11.2821   12.4090 C   0  0  1  0  0  0  0  0  0  0  0  0
    3.1757  -11.8604   13.0271 C   0  0  2  0  0  0  0  0  0  0  0  0
    3.6980  -10.8328   14.0805 C   0  0  2  0  0  0  0  0  0  0  0  0
    4.9263  -11.3256   14.6574 O   0  0  0  0  0  0  0  0  0  0  0  0
    2.5824  -10.6470   15.1997 C   0  0  2  0  0  0  0  0  0  0  0  0
    1.3113  -10.1413   14.5682 O   0  0  0  0  0  0  0  0  0  0  0  0
    2.9903   -9.6428   16.2689 C   0  0  0  0  0  0  0  0  0  0  0  0
    1.9583   -9.5395   17.3483 N   0  0  0  0  0  0  0  0  0  0  0  0
   -3.0994  -13.2104   16.6550 C   0  0  2  0  0  0  0  0  0  0  0  0
   -3.9352  -13.2706   17.8316 N   0  0  0  0  0  0  0  0  0  0  0  0
   -1.7268  -13.9425   16.9429 C   0  0  0  0  0  0  0  0  0  0  0  0
   -0.7911  -13.8800   15.6540 C   0  0  2  0  0  0  0  0  0  0  0  0
    0.4914  -14.5825   15.9208 N   0  0  0  0  0  0  0  0  0  0  0  0
   -0.5415  -12.3506   15.2599 C   0  0  2  0  0  0  0  0  0  0  0  0
   -1.9448  -11.6607   14.9831 C   0  0  2  0  0  0  0  0  0  0  0  0
   -1.7319  -10.2931   14.6260 O   0  0  0  0  0  0  0  0  0  0  0  0
   -2.8626  -11.7335   16.2667 C   0  0  1  0  0  0  0  0  0  0  0  0
   -4.1459  -11.1189   15.9912 O   0  0  0  0  0  0  0  0  0  0  0  0
   -5.1506  -10.9071   16.9243 C   0  0  2  0  0  0  0  0  0  0  0  0
   -6.4741  -10.6101   16.1337 C   0  0  2  0  0  0  0  0  0  0  0  0
   -6.7607  -11.6724   15.2825 O   0  0  0  0  0  0  0  0  0  0  0  0
   -6.3888   -9.2410   15.3339 C   0  0  1  0  0  0  0  0  0  0  0  0
   -7.6632   -8.9718   14.5988 N   0  0  0  0  0  0  0  0  0  0  0  0
   -6.0649   -8.0704   16.3615 C   0  0  2  0  0  0  0  0  0  0  0  0
   -5.9902   -6.8079   15.6877 O   0  0  0  0  0  0  0  0  0  0  0  0
   -4.7099   -8.4187   17.0907 C   0  0  2  0  0  0  0  0  0  0  0  0
   -4.8088   -9.7602   17.8043 O   0  0  0  0  0  0  0  0  0  0  0  0
   -4.3459   -7.3573   18.1013 C   0  0  0  0  0  0  0  0  0  0  0  0
   -3.0690   -7.5955   18.7223 O   0  0  0  0  0  0  0  0  0  0  0  0
    1.3290  -12.1889   11.4041 O   0  0  0  0  0  0  0  0  0  0  0  0
    4.1054  -12.0344   12.0307 O   0  0  0  0  0  0  0  0  0  0  0  0
   -3.5346  -12.5429   19.0135 C   0  0  0  0  0  0  0  0  0  0  0  0
   -2.3167  -12.2373   19.1818 O   0  0  0  0  0  0  0  0  0  0  0  0
   -4.6392  -12.1655   20.0479 C   0  0  2  0  0  0  0  0  0  0  0  0
   -6.2736  -14.7169   20.6045 N   0  0  0  0  0  0  0  0  0  0  0  0
   -6.0596  -12.4954   19.4936 C   0  0  0  0  0  0  0  0  0  0  0  0
   -6.3039  -14.0021   19.3059 C   0  0  0  0  0  0  0  0  0  0  0  0
   -4.6596  -10.9211   20.3108 O   0  0  0  0  0  0  0  0  0  0  0  0
  1  2  1  1  0  0  0
  1  3  1  0  0  0  0
  1  8  1  0  0  0  0
  3  4  1  0  0  0  0
  3 32  1  6  0  0  0
  4  5  1  0  0  0  0
  4 33  1  6  0  0  0
  5  6  1  1  0  0  0
  5  7  1  0  0  0  0
  7  8  1  0  0  0  0
  7  9  1  1  0  0  0
  9 10  1  0  0  0  0
 11 12  1  1  0  0  0
 11 13  1  0  0  0  0
 11 19  1  0  0  0  0
 12 34  1  0  0  0  0
 13 14  1  0  0  0  0
 14 15  1  1  0  0  0
 14 16  1  0  0  0  0
 16  2  1  6  0  0  0
 16 17  1  0  0  0  0
 17 18  1  1  0  0  0
 17 19  1  0  0  0  0
 19 20  1  6  0  0  0
 21 20  1  6  0  0  0
 21 22  1  0  0  0  0
 21 29  1  0  0  0  0
 22 23  1  6  0  0  0
 22 24  1  0  0  0  0
 24 25  1  1  0  0  0
 24 26  1  0  0  0  0
 26 27  1  6  0  0  0
 26 28  1  0  0  0  0
 28 29  1  0  0  0  0
 28 30  1  1  0  0  0
 30 31  1  0  0  0  0
 34 35  2  0  0  0  0
 36 34  1  6  0  0  0
 36 38  1  0  0  0  0
 36 40  1  0  0  0  0
 37 39  1  0  0  0  0
 38 39  1  0  0  0  0
M  END
>  <CHROM.1>
170.65080958,-178.25607420,-176.95045645,67.25525132,65.76992064,-164.13334714
-176.05277176,-7.87818574,66.13540137,64.32513710,-2.14039736,-11.15683543
16.20357145,0.18262491,0.41823567,-0.59272207

>  <Name>
ligand

>  <RI>
0

>  <Rbt.Current_Directory>
/home/itssahil/PROJECTS/Mol_Feturizer/New_Systems/rnas/4P20

>  <Rbt.Executable>
rbdock ($Id: //depot/dev/client3/rdock/2013.1/src/exe/rbdock.cxx#4 $)

>  <Rbt.Library>
libRbt.so (2013.1, Build901 2013/11/27)

>  <Rbt.Parameter_File>
/export/apps/rDock/src/rDock_2013.1_src/data/scripts/dock_solv.prm

>  <Rbt.Receptor>
prm/pocket_docking_6.prm

>  <SCORE>
-9.93461

>  <SCORE.INTER>
-0.306972

>  <SCORE.INTER.CONST>
1

>  <SCORE.INTER.POLAR>
0

>  <SCORE.INTER.ROT>
10

>  <SCORE.INTER.SOLV>
10.6463

>  <SCORE.INTER.VDW>
-14.0201

>  <SCORE.INTER.norm>
-0.00767431

>  <SCORE.INTRA>
-9.62764

>  <SCORE.INTRA.DIHEDRAL>
-23.7684

>  <SCORE.INTRA.DIHEDRAL.0>
28.2802

>  <SCORE.INTRA.POLAR>
0

>  <SCORE.INTRA.POLAR.0>
0

>  <SCORE.INTRA.REPUL>
0

>  <SCORE.INTRA.REPUL.0>
0

>  <SCORE.INTRA.SOLV>
1.19542

>  <SCORE.INTRA.SOLV.lig_0>
-101.981

>  <SCORE.INTRA.VDW>
1.65887

>  <SCORE.INTRA.VDW.0>
-5.72964

>  <SCORE.INTRA.norm>
-0.240691

>  <SCORE.RESTR>
0

>  <SCORE.RESTR.CAVITY>
0

>  <SCORE.RESTR.norm>
0

>  <SCORE.SYSTEM>
0

>  <SCORE.SYSTEM.CONST>
0

>  <SCORE.SYSTEM.DIHEDRAL>
0

>  <SCORE.SYSTEM.SOLV>
0

>  <SCORE.SYSTEM.norm>
0

>  <SCORE.heavy>
40

>  <SCORE.norm>
-0.248365

>  <RMSD>
7.280

$$$$
ligand
 OpenBabel11021811513D
libRbt.so/2013.1/901 2013/11/27
 40 42  0  0  0  0  0  0  0  0999 V2000
    1.4919  -13.2365   13.1386 C   0  0  2  0  0  0  0  0  0  0  0  0
    2.1102  -13.6539   14.3660 O   0  0  0  0  0  0  0  0  0  0  0  0
    2.5837  -12.9000   12.0550 C   0  0  1  0  0  0  0  0  0  0  0  0
    3.4335  -11.6619   12.4645 C   0  0  2  0  0  0  0  0  0  0  0  0
    2.4618  -10.4496   12.6208 C   0  0  2  0  0  0  0  0  0  0  0  0
    3.2210   -9.2741   12.9759 O   0  0  0  0  0  0  0  0  0  0  0  0
    1.3982  -10.7985   13.7515 C   0  0  2  0  0  0  0  0  0  0  0  0
    0.6283  -12.0327   13.3586 O   0  0  0  0  0  0  0  0  0  0  0  0
    0.3872   -9.6805   13.9664 C   0  0  0  0  0  0  0  0  0  0  0  0
   -0.8205  -10.1662   14.7055 N   0  0  0  0  0  0  0  0  0  0  0  0
   -1.2432  -13.5754   17.2082 C   0  0  2  0  0  0  0  0  0  0  0  0
   -2.0003  -13.7825   18.4208 N   0  0  0  0  0  0  0  0  0  0  0  0
   -0.7856  -14.9730   16.6249 C   0  0  0  0  0  0  0  0  0  0  0  0
    0.0560  -14.7601   15.2879 C   0  0  2  0  0  0  0  0  0  0  0  0
    0.4711  -16.0747   14.7323 N   0  0  0  0  0  0  0  0  0  0  0  0
    1.3247  -13.8405   15.6069 C   0  0  2  0  0  0  0  0  0  0  0  0
    0.8148  -12.4541   16.1898 C   0  0  2  0  0  0  0  0  0  0  0  0
    1.9423  -11.6230   16.4748 O   0  0  0  0  0  0  0  0  0  0  0  0
   -0.0204  -12.6805   17.5113 C   0  0  1  0  0  0  0  0  0  0  0  0
   -0.4956  -11.4087   18.0186 O   0  0  0  0  0  0  0  0  0  0  0  0
   -0.9818  -11.1871   19.2990 C   0  0  2  0  0  0  0  0  0  0  0  0
   -1.7676   -9.8280   19.2768 C   0  0  2  0  0  0  0  0  0  0  0  0
   -2.7849   -9.8895   18.3300 O   0  0  0  0  0  0  0  0  0  0  0  0
   -0.8051   -8.5946   19.0055 C   0  0  1  0  0  0  0  0  0  0  0  0
   -1.5714   -7.3102   19.0010 N   0  0  0  0  0  0  0  0  0  0  0  0
    0.3286   -8.5783   20.1216 C   0  0  2  0  0  0  0  0  0  0  0  0
    1.2184   -7.4720   19.9271 O   0  0  0  0  0  0  0  0  0  0  0  0
    1.0956   -9.9557   20.0619 C   0  0  2  0  0  0  0  0  0  0  0  0
    0.1362  -11.1189   20.2746 O   0  0  0  0  0  0  0  0  0  0  0  0
    2.1793  -10.0224   21.1114 C   0  0  0  0  0  0  0  0  0  0  0  0
    3.2346   -9.0703   20.8821 O   0  0  0  0  0  0  0  0  0  0  0  0
    3.4315  -14.0725   11.8803 O   0  0  0  0  0  0  0  0  0  0  0  0
    4.3583  -11.4067   11.4810 O   0  0  0  0  0  0  0  0  0  0  0  0
   -3.3526  -13.2801   18.4969 C   0  0  0  0  0  0  0  0  0  0  0  0
   -3.7138  -12.3284   17.7426 O   0  0  0  0  0  0  0  0  0  0  0  0
   -4.3202  -13.9410   19.5261 C   0  0  2  0  0  0  0  0  0  0  0  0
   -7.7264  -13.8797   17.6397 N   0  0  0  0  0  0  0  0  0  0  0  0
   -5.8052  -13.5904   19.2017 C   0  0  0  0  0  0  0  0  0  0  0  0
   -6.3005  -14.2054   17.8821 C   0  0  0  0  0  0  0  0  0  0  0  0
   -4.1275  -13.5293   20.7142 O   0  0  0  0  0  0  0  0  0  0  0  0
  1  2  1  1  0  0  0
  1  3  1  0  0  0  0
  1  8  1  0  0  0  0
  3  4  1  0  0  0  0
  3 32  1  1  0  0  0
  4  5  1  0  0  0  0
  4 33  1  6  0  0  0
  5  6  1  1  0  0  0
  5  7  1  0  0  0  0
  7  8  1  0  0  0  0
  7  9  1  6  0  0  0
  9 10  1  0  0  0  0
 11 12  1  1  0  0  0
 11 13  1  0  0  0  0
 11 19  1  0  0  0  0
 12 34  1  0  0  0  0
 13 14  1  0  0  0  0
 14 15  1  1  0  0  0
 14 16  1  0  0  0  0
 16  2  1  6  0  0  0
 16 17  1  0  0  0  0
 17 18  1  1  0  0  0
 17 19  1  0  0  0  0
 19 20  1  6  0  0  0
 21 20  1  6  0  0  0
 21 22  1  0  0  0  0
 21 29  1  0  0  0  0
 22 23  1  6  0  0  0
 22 24  1  0  0  0  0
 24 25  1  1  0  0  0
 24 26  1  0  0  0  0
 26 27  1  6  0  0  0
 26 28  1  0  0  0  0
 28 29  1  0  0  0  0
 28 30  1  1  0  0  0
 30 31  1  0  0  0  0
 34 35  2  0  0  0  0
 36 34  1  6  0  0  0
 36 38  1  0  0  0  0
 36 40  1  0  0  0  0
 37 39  1  0  0  0  0
 38 39  1  0  0  0  0
M  END
>  <CHROM.1>
170.99384486,50.12117146,162.78726658,-121.87701832,75.99400633,-163.18438392
-65.66177165,-163.40558356,66.75592928,178.21428601,-0.22081116,-11.77976576
16.78073177,0.60806847,-0.57580968,-2.22997288

>  <Name>
ligand

>  <RI>
0

>  <Rbt.Current_Directory>
/home/itssahil/PROJECTS/Mol_Feturizer/New_Systems/rnas/4P20

>  <Rbt.Executable>
rbdock ($Id: //depot/dev/client3/rdock/2013.1/src/exe/rbdock.cxx#4 $)

>  <Rbt.Library>
libRbt.so (2013.1, Build901 2013/11/27)

>  <Rbt.Parameter_File>
/export/apps/rDock/src/rDock_2013.1_src/data/scripts/dock_solv.prm

>  <Rbt.Receptor>
prm/pocket_docking_4.prm

>  <SCORE>
-7.58621

>  <SCORE.INTER>
0.855504

>  <SCORE.INTER.CONST>
1

>  <SCORE.INTER.POLAR>
0

>  <SCORE.INTER.ROT>
10

>  <SCORE.INTER.SOLV>
18.8695

>  <SCORE.INTER.VDW>
-15.9862

>  <SCORE.INTER.norm>
0.0213876

>  <SCORE.INTRA>
-8.44171

>  <SCORE.INTRA.DIHEDRAL>
-21.332

>  <SCORE.INTRA.DIHEDRAL.0>
28.2802

>  <SCORE.INTRA.POLAR>
0

>  <SCORE.INTRA.POLAR.0>
0

>  <SCORE.INTRA.REPUL>
7.52931e-05

>  <SCORE.INTRA.REPUL.0>
0

>  <SCORE.INTRA.SOLV>
3.29892

>  <SCORE.INTRA.SOLV.lig_0>
-101.981

>  <SCORE.INTRA.VDW>
0.574467

>  <SCORE.INTRA.VDW.0>
-5.72964

>  <SCORE.INTRA.norm>
-0.211043

>  <SCORE.RESTR>
0

>  <SCORE.RESTR.CAVITY>
0

>  <SCORE.RESTR.norm>
0

>  <SCORE.SYSTEM>
0

>  <SCORE.SYSTEM.CONST>
0

>  <SCORE.SYSTEM.DIHEDRAL>
0

>  <SCORE.SYSTEM.SOLV>
0

>  <SCORE.SYSTEM.norm>
0

>  <SCORE.heavy>
40

>  <SCORE.norm>
-0.189655

>  <RMSD>
7.349

$$$$
ligand
 OpenBabel11021811513D
libRbt.so/2013.1/901 2013/11/27
 40 42  0  0  0  0  0  0  0  0999 V2000
    3.7630   -9.5214   12.7519 C   0  0  2  0  0  0  0  0  0  0  0  0
    2.7502  -10.5208   12.5560 O   0  0  0  0  0  0  0  0  0  0  0  0
    4.5655   -9.2776   11.4192 C   0  0  1  0  0  0  0  0  0  0  0  0
    5.3826  -10.5361   11.0051 C   0  0  2  0  0  0  0  0  0  0  0  0
    6.3792  -10.8575   12.1635 C   0  0  2  0  0  0  0  0  0  0  0  0
    7.1742  -12.0072   11.8018 O   0  0  0  0  0  0  0  0  0  0  0  0
    5.5408  -11.1432   13.4852 C   0  0  2  0  0  0  0  0  0  0  0  0
    4.7154   -9.9315   13.8327 O   0  0  0  0  0  0  0  0  0  0  0  0
    6.4279  -11.4488   14.6842 C   0  0  0  0  0  0  0  0  0  0  0  0
    7.1556  -12.7457   14.5132 N   0  0  0  0  0  0  0  0  0  0  0  0
   -0.7179  -11.4793   15.0825 C   0  0  2  0  0  0  0  0  0  0  0  0
   -1.4927  -12.0078   16.1810 N   0  0  0  0  0  0  0  0  0  0  0  0
    0.0174  -12.6641   14.3352 C   0  0  0  0  0  0  0  0  0  0  0  0
    0.8810  -12.0953   13.1222 C   0  0  2  0  0  0  0  0  0  0  0  0
    1.5580  -13.2113   12.4112 N   0  0  0  0  0  0  0  0  0  0  0  0
    1.9423  -11.0389   13.6831 C   0  0  2  0  0  0  0  0  0  0  0  0
    1.1577   -9.8736   14.4238 C   0  0  2  0  0  0  0  0  0  0  0  0
    2.0982   -8.9215   14.9260 O   0  0  0  0  0  0  0  0  0  0  0  0
    0.3036  -10.4520   15.6202 C   0  0  1  0  0  0  0  0  0  0  0  0
   -0.4219   -9.3798   16.2720 O   0  0  0  0  0  0  0  0  0  0  0  0
    0.1522   -8.3604   17.0177 C   0  0  2  0  0  0  0  0  0  0  0  0
    0.7178   -9.0004   18.3351 C   0  0  2  0  0  0  0  0  0  0  0  0
    1.6319   -9.9995   18.0166 O   0  0  0  0  0  0  0  0  0  0  0  0
   -0.4420   -9.5589   19.2647 C   0  0  1  0  0  0  0  0  0  0  0  0
    0.1176  -10.1521   20.5184 N   0  0  0  0  0  0  0  0  0  0  0  0
   -1.4465   -8.3702   19.5952 C   0  0  2  0  0  0  0  0  0  0  0  0
   -2.5079   -8.8223   20.4452 O   0  0  0  0  0  0  0  0  0  0  0  0
   -1.9991   -7.8014   18.2313 C   0  0  2  0  0  0  0  0  0  0  0  0
   -0.8589   -7.3221   17.3432 O   0  0  0  0  0  0  0  0  0  0  0  0
   -2.9487   -6.6507   18.4650 C   0  0  0  0  0  0  0  0  0  0  0  0
   -4.2090   -7.0735   19.0179 O   0  0  0  0  0  0  0  0  0  0  0  0
    3.6174   -8.9117   10.3746 O   0  0  0  0  0  0  0  0  0  0  0  0
    6.0705  -10.2641    9.8474 O   0  0  0  0  0  0  0  0  0  0  0  0
   -2.9289  -12.0907   16.0495 C   0  0  0  0  0  0  0  0  0  0  0  0
   -3.5295  -11.3410   15.2236 O   0  0  0  0  0  0  0  0  0  0  0  0
   -3.6867  -13.1137   16.9505 C   0  0  2  0  0  0  0  0  0  0  0  0
   -6.9971  -11.1602   17.5767 N   0  0  0  0  0  0  0  0  0  0  0  0
   -5.2145  -12.8005   16.9880 C   0  0  0  0  0  0  0  0  0  0  0  0
   -5.5348  -11.4022   17.5424 C   0  0  0  0  0  0  0  0  0  0  0  0
   -3.3041  -13.0762   18.1630 O   0  0  0  0  0  0  0  0  0  0  0  0
  1  2  1  6  0  0  0
  1  3  1  0  0  0  0
  1  8  1  0  0  0  0
  3  4  1  0  0  0  0
  3 32  1  6  0  0  0
  4  5  1  0  0  0  0
  4 33  1  6  0  0  0
  5  6  1  6  0  0  0
  5  7  1  0  0  0  0
  7  8  1  0  0  0  0
  7  9  1  1  0  0  0
  9 10  1  0  0  0  0
 11 12  1  1  0  0  0
 11 13  1  0  0  0  0
 11 19  1  0  0  0  0
 12 34  1  0  0  0  0
 13 14  1  0  0  0  0
 14 15  1  1  0  0  0
 14 16  1  0  0  0  0
 16  2  1  6  0  0  0
 16 17  1  0  0  0  0
 17 18  1  1  0  0  0
 17 19  1  0  0  0  0
 19 20  1  6  0  0  0
 21 20  1  6  0  0  0
 21 22  1  0  0  0  0
 21 29  1  0  0  0  0
 22 23  1  6  0  0  0
 22 24  1  0  0  0  0
 24 25  1  1  0  0  0
 24 26  1  0  0  0  0
 26 27  1  1  0  0  0
 26 28  1  0  0  0  0
 28 29  1  0  0  0  0
 28 30  1  1  0  0  0
 30 31  1  0  0  0  0
 34 35  2  0  0  0  0
 36 34  1  6  0  0  0
 36 38  1  0  0  0  0
 36 40  1  0  0  0  0
 37 39  1  0  0  0  0
 38 39  1  0  0  0  0
M  END
>  <CHROM.1>
173.72559227,178.14436678,-66.96085352,-105.04360953,171.64200377,-69.05318695
-71.65922156,163.80586447,-60.03205404,-179.15685460,0.65496168,-10.38373002
15.47666608,-0.49059620,0.37635543,0.84294298

>  <Name>
ligand

>  <RI>
0

>  <Rbt.Current_Directory>
/home/itssahil/PROJECTS/Mol_Feturizer/New_Systems/rnas/4P20

>  <Rbt.Executable>
rbdock ($Id: //depot/dev/client3/rdock/2013.1/src/exe/rbdock.cxx#4 $)

>  <Rbt.Library>
libRbt.so (2013.1, Build901 2013/11/27)

>  <Rbt.Parameter_File>
/export/apps/rDock/src/rDock_2013.1_src/data/scripts/dock_solv.prm

>  <Rbt.Receptor>
prm/pocket_docking_7.prm

>  <SCORE>
-15.1131

>  <SCORE.INTER>
-5.26012

>  <SCORE.INTER.CONST>
1

>  <SCORE.INTER.POLAR>
0

>  <SCORE.INTER.ROT>
10

>  <SCORE.INTER.SOLV>
15.4426

>  <SCORE.INTER.VDW>
-18.921

>  <SCORE.INTER.norm>
-0.131503

>  <SCORE.INTRA>
-9.85301

>  <SCORE.INTRA.DIHEDRAL>
-24.5745

>  <SCORE.INTRA.DIHEDRAL.0>
28.2802

>  <SCORE.INTRA.POLAR>
0

>  <SCORE.INTRA.POLAR.0>
0

>  <SCORE.INTRA.REPUL>
0

>  <SCORE.INTRA.REPUL.0>
0

>  <SCORE.INTRA.SOLV>
-0.445546

>  <SCORE.INTRA.SOLV.lig_0>
-101.981

>  <SCORE.INTRA.VDW>
2.65703

>  <SCORE.INTRA.VDW.0>
-5.72964

>  <SCORE.INTRA.norm>
-0.246325

>  <SCORE.RESTR>
0

>  <SCORE.RESTR.CAVITY>
0

>  <SCORE.RESTR.norm>
0

>  <SCORE.SYSTEM>
0

>  <SCORE.SYSTEM.CONST>
0

>  <SCORE.SYSTEM.DIHEDRAL>
0

>  <SCORE.SYSTEM.SOLV>
0

>  <SCORE.SYSTEM.norm>
0

>  <SCORE.heavy>
40

>  <SCORE.norm>
-0.377828

>  <RMSD>
7.386

$$$$
ligand
 OpenBabel11021811513D
libRbt.so/2013.1/901 2013/11/27
 40 42  0  0  0  0  0  0  0  0999 V2000
    3.7344   -9.5465   12.7809 C   0  0  2  0  0  0  0  0  0  0  0  0
    2.7233  -10.5467   12.5809 O   0  0  0  0  0  0  0  0  0  0  0  0
    4.5168   -9.2744   11.4418 C   0  0  1  0  0  0  0  0  0  0  0  0
    5.3333  -10.5213   10.9929 C   0  0  2  0  0  0  0  0  0  0  0  0
    6.3477  -10.8594   12.1308 C   0  0  2  0  0  0  0  0  0  0  0  0
    7.1424  -11.9985   11.7367 O   0  0  0  0  0  0  0  0  0  0  0  0
    5.5294  -11.1733   13.4588 C   0  0  2  0  0  0  0  0  0  0  0  0
    4.7039   -9.9721   13.8404 O   0  0  0  0  0  0  0  0  0  0  0  0
    6.4349  -11.4970   14.6392 C   0  0  0  0  0  0  0  0  0  0  0  0
    7.3152  -10.3385   14.9906 N   0  0  0  0  0  0  0  0  0  0  0  0
   -0.7785  -11.4641   15.0760 C   0  0  2  0  0  0  0  0  0  0  0  0
   -1.5690  -11.9813   16.1688 N   0  0  0  0  0  0  0  0  0  0  0  0
   -0.0464  -12.6584   14.3409 C   0  0  0  0  0  0  0  0  0  0  0  0
    0.8345  -12.1022   13.1344 C   0  0  2  0  0  0  0  0  0  0  0  0
    1.5086  -13.2271   12.4347 N   0  0  0  0  0  0  0  0  0  0  0  0
    1.8994  -11.0530   13.7019 C   0  0  2  0  0  0  0  0  0  0  0  0
    1.1179   -9.8779   14.4300 C   0  0  2  0  0  0  0  0  0  0  0  0
    2.0617   -8.9321   14.9378 O   0  0  0  0  0  0  0  0  0  0  0  0
    0.2466  -10.4437   15.6199 C   0  0  1  0  0  0  0  0  0  0  0  0
   -0.4758   -9.3626   16.2601 O   0  0  0  0  0  0  0  0  0  0  0  0
    0.1017   -8.3339   16.9904 C   0  0  2  0  0  0  0  0  0  0  0  0
    0.7013   -8.9625   18.2982 C   0  0  2  0  0  0  0  0  0  0  0  0
    1.6201   -9.9524   17.9646 O   0  0  0  0  0  0  0  0  0  0  0  0
   -0.4329   -9.5308   19.2532 C   0  0  1  0  0  0  0  0  0  0  0  0
    0.1589  -10.1129   20.4973 N   0  0  0  0  0  0  0  0  0  0  0  0
   -1.4440   -8.3524   19.6000 C   0  0  2  0  0  0  0  0  0  0  0  0
   -2.4826   -8.8134   20.4731 O   0  0  0  0  0  0  0  0  0  0  0  0
   -2.0308   -7.7950   18.2458 C   0  0  2  0  0  0  0  0  0  0  0  0
   -0.9144   -7.3060   17.3329 O   0  0  0  0  0  0  0  0  0  0  0  0
   -2.9885   -6.6544   18.4948 C   0  0  0  0  0  0  0  0  0  0  0  0
   -4.2352   -7.0903   19.0680 O   0  0  0  0  0  0  0  0  0  0  0  0
    3.5523   -8.8936   10.4177 O   0  0  0  0  0  0  0  0  0  0  0  0
    6.0035  -10.2248    9.8307 O   0  0  0  0  0  0  0  0  0  0  0  0
   -2.9308  -11.5253   16.3256 C   0  0  0  0  0  0  0  0  0  0  0  0
   -3.2838  -10.4147   15.8288 O   0  0  0  0  0  0  0  0  0  0  0  0
   -3.9188  -12.4356   17.1179 C   0  0  2  0  0  0  0  0  0  0  0  0
   -4.5011  -12.8763   20.9432 N   0  0  0  0  0  0  0  0  0  0  0  0
   -3.7030  -12.2883   18.6558 C   0  0  0  0  0  0  0  0  0  0  0  0
   -4.7301  -13.0706   19.4913 C   0  0  0  0  0  0  0  0  0  0  0  0
   -3.7518  -13.6720   16.8700 O   0  0  0  0  0  0  0  0  0  0  0  0
  1  2  1  6  0  0  0
  1  3  1  0  0  0  0
  1  8  1  0  0  0  0
  3  4  1  0  0  0  0
  3 32  1  6  0  0  0
  4  5  1  0  0  0  0
  4 33  1  6  0  0  0
  5  6  1  6  0  0  0
  5  7  1  0  0  0  0
  7  8  1  0  0  0  0
  7  9  1  1  0  0  0
  9 10  1  0  0  0  0
 11 12  1  1  0  0  0
 11 13  1  0  0  0  0
 11 19  1  0  0  0  0
 12 34  1  0  0  0  0
 13 14  1  0  0  0  0
 14 15  1  1  0  0  0
 14 16  1  0  0  0  0
 16  2  1  6  0  0  0
 16 17  1  0  0  0  0
 17 18  1  1  0  0  0
 17 19  1  0  0  0  0
 19 20  1  6  0  0  0
 21 20  1  6  0  0  0
 21 22  1  0  0  0  0
 21 29  1  0  0  0  0
 22 23  1  6  0  0  0
 22 24  1  0  0  0  0
 24 25  1  1  0  0  0
 24 26  1  0  0  0  0
 26 27  1  1  0  0  0
 26 28  1  0  0  0  0
 28 29  1  0  0  0  0
 28 30  1  1  0  0  0
 30 31  1  0  0  0  0
 34 35  2  0  0  0  0
 36 34  1  6  0  0  0
 36 38  1  0  0  0  0
 36 40  1  0  0  0  0
 37 39  1  0  0  0  0
 38 39  1  0  0  0  0
M  END
>  <CHROM.1>
176.02034117,177.55168434,62.25557000,-133.06505604,172.68641803,-67.73738946
-71.97924729,78.73605892,175.03273256,-178.80616538,0.74035472,-10.35489523
15.64967236,-0.44772759,0.52770559,0.71032562

>  <Name>
ligand

>  <RI>
0

>  <Rbt.Current_Directory>
/home/itssahil/PROJECTS/Mol_Feturizer/New_Systems/rnas/4P20

>  <Rbt.Executable>
rbdock ($Id: //depot/dev/client3/rdock/2013.1/src/exe/rbdock.cxx#4 $)

>  <Rbt.Library>
libRbt.so (2013.1, Build901 2013/11/27)

>  <Rbt.Parameter_File>
/export/apps/rDock/src/rDock_2013.1_src/data/scripts/dock_solv.prm

>  <Rbt.Receptor>
prm/pocket_docking_6.prm

>  <SCORE>
-15.7717

>  <SCORE.INTER>
-4.53574

>  <SCORE.INTER.CONST>
1

>  <SCORE.INTER.POLAR>
0

>  <SCORE.INTER.ROT>
10

>  <SCORE.INTER.SOLV>
15.3013

>  <SCORE.INTER.VDW>
-18.3909

>  <SCORE.INTER.norm>
-0.113393

>  <SCORE.INTRA>
-11.2359

>  <SCORE.INTRA.DIHEDRAL>
-24.7586

>  <SCORE.INTRA.DIHEDRAL.0>
28.2802

>  <SCORE.INTRA.POLAR>
0

>  <SCORE.INTRA.POLAR.0>
0

>  <SCORE.INTRA.REPUL>
0

>  <SCORE.INTRA.REPUL.0>
0

>  <SCORE.INTRA.SOLV>
-0.0959434

>  <SCORE.INTRA.SOLV.lig_0>
-101.981

>  <SCORE.INTRA.VDW>
1.19134

>  <SCORE.INTRA.VDW.0>
-5.72964

>  <SCORE.INTRA.norm>
-0.280898

>  <SCORE.RESTR>
0

>  <SCORE.RESTR.CAVITY>
0

>  <SCORE.RESTR.norm>
0

>  <SCORE.SYSTEM>
0

>  <SCORE.SYSTEM.CONST>
0

>  <SCORE.SYSTEM.DIHEDRAL>
0

>  <SCORE.SYSTEM.SOLV>
0

>  <SCORE.SYSTEM.norm>
0

>  <SCORE.heavy>
40

>  <SCORE.norm>
-0.394291

>  <RMSD>
7.396

$$$$
ligand
 OpenBabel11021811513D
libRbt.so/2013.1/901 2013/11/27
 40 42  0  0  0  0  0  0  0  0999 V2000
    3.5748   -3.0987   22.6462 C   0  0  2  0  0  0  0  0  0  0  0  0
    4.4372   -3.8945   21.8179 O   0  0  0  0  0  0  0  0  0  0  0  0
    2.1879   -2.8653   21.9382 C   0  0  1  0  0  0  0  0  0  0  0  0
    2.3405   -2.0031   20.6513 C   0  0  2  0  0  0  0  0  0  0  0  0
    2.9507   -0.6282   21.0705 C   0  0  2  0  0  0  0  0  0  0  0  0
    3.0827    0.2098   19.9022 O   0  0  0  0  0  0  0  0  0  0  0  0
    4.3693   -0.8899   21.7416 C   0  0  2  0  0  0  0  0  0  0  0  0
    4.2020   -1.7730   22.9508 O   0  0  0  0  0  0  0  0  0  0  0  0
    5.0411    0.3951   22.2059 C   0  0  0  0  0  0  0  0  0  0  0  0
    6.4094    0.1333   22.7534 N   0  0  0  0  0  0  0  0  0  0  0  0
    5.3347   -8.1650   21.2824 C   0  0  2  0  0  0  0  0  0  0  0  0
    5.1331   -9.5907   21.1672 N   0  0  0  0  0  0  0  0  0  0  0  0
    4.8407   -7.6737   22.7027 C   0  0  0  0  0  0  0  0  0  0  0  0
    5.0526   -6.1000   22.8427 C   0  0  2  0  0  0  0  0  0  0  0  0
    4.6032   -5.6427   24.1838 N   0  0  0  0  0  0  0  0  0  0  0  0
    4.2477   -5.3561   21.6784 C   0  0  2  0  0  0  0  0  0  0  0  0
    4.7769   -5.8829   20.2769 C   0  0  2  0  0  0  0  0  0  0  0  0
    4.0656   -5.2206   19.2288 O   0  0  0  0  0  0  0  0  0  0  0  0
    4.5644   -7.4433   20.1537 C   0  0  1  0  0  0  0  0  0  0  0  0
    5.0712   -7.9112   18.8789 O   0  0  0  0  0  0  0  0  0  0  0  0
    4.6077   -7.5081   17.6349 C   0  0  2  0  0  0  0  0  0  0  0  0
    3.1548   -8.0784   17.4650 C   0  0  2  0  0  0  0  0  0  0  0  0
    2.3473   -7.6217   18.5016 O   0  0  0  0  0  0  0  0  0  0  0  0
    3.1489   -9.6644   17.3890 C   0  0  1  0  0  0  0  0  0  0  0  0
    1.7578  -10.1854   17.2148 N   0  0  0  0  0  0  0  0  0  0  0  0
    4.0835  -10.1199   16.1848 C   0  0  2  0  0  0  0  0  0  0  0  0
    4.1011  -11.5479   16.0663 O   0  0  0  0  0  0  0  0  0  0  0  0
    5.5291   -9.5421   16.4400 C   0  0  2  0  0  0  0  0  0  0  0  0
    5.4920   -8.0245   16.5588 O   0  0  0  0  0  0  0  0  0  0  0  0
    6.4721   -9.9183   15.3221 C   0  0  0  0  0  0  0  0  0  0  0  0
    7.8271   -9.5024   15.5741 O   0  0  0  0  0  0  0  0  0  0  0  0
    1.6110   -4.1658   21.6221 O   0  0  0  0  0  0  0  0  0  0  0  0
    1.1028   -1.8209   20.0833 O   0  0  0  0  0  0  0  0  0  0  0  0
    6.1878  -10.4837   21.5880 C   0  0  0  0  0  0  0  0  0  0  0  0
    7.3839  -10.0684   21.6320 O   0  0  0  0  0  0  0  0  0  0  0  0
    5.7983  -11.9447   21.9702 C   0  0  2  0  0  0  0  0  0  0  0  0
    3.7665  -14.2147   21.7442 N   0  0  0  0  0  0  0  0  0  0  0  0
    4.4023  -11.9870   22.6652 C   0  0  0  0  0  0  0  0  0  0  0  0
    3.9241  -13.4139   22.9819 C   0  0  0  0  0  0  0  0  0  0  0  0
    6.6065  -12.4654   22.8032 O   0  0  0  0  0  0  0  0  0  0  0  0
  1  2  1  6  0  0  0
  1  3  1  0  0  0  0
  1  8  1  0  0  0  0
  3  4  1  0  0  0  0
  3 32  1  6  0  0  0
  4  5  1  0  0  0  0
  4 33  1  1  0  0  0
  5  6  1  6  0  0  0
  5  7  1  0  0  0  0
  7  8  1  0  0  0  0
  7  9  1  1  0  0  0
  9 10  1  0  0  0  0
 11 12  1  1  0  0  0
 11 13  1  0  0  0  0
 11 19  1  0  0  0  0
 12 34  1  0  0  0  0
 13 14  1  0  0  0  0
 14 15  1  1  0  0  0
 14 16  1  0  0  0  0
 16  2  1  6  0  0  0
 16 17  1  0  0  0  0
 17 18  1  6  0  0  0
 17 19  1  0  0  0  0
 19 20  1  6  0  0  0
 21 20  1  1  0  0  0
 21 22  1  0  0  0  0
 21 29  1  0  0  0  0
 22 23  1  1  0  0  0
 22 24  1  0  0  0  0
 24 25  1  6  0  0  0
 24 26  1  0  0  0  0
 26 27  1  1  0  0  0
 26 28  1  0  0  0  0
 28 29  1  0  0  0  0
 28 30  1  6  0  0  0
 30 31  1  0  0  0  0
 34 35  2  0  0  0  0
 36 34  1  1  0  0  0
 36 38  1  0  0  0  0
 36 40  1  0  0  0  0
 37 39  1  0  0  0  0
 38 39  1  0  0  0  0
M  END
>  <CHROM.1>
-75.97085254,-87.78909098,-176.36501806,-89.73892920,178.77604958,-68.52584078
-175.18835763,-35.17337679,176.21231358,-61.74706574,4.39230575,-6.87841794
20.26062171,-2.40039501,1.38142310,-2.07804607

>  <Name>
ligand

>  <RI>
0

>  <Rbt.Current_Directory>
/home/itssahil/PROJECTS/Mol_Feturizer/New_Systems/rnas/4P20

>  <Rbt.Executable>
rbdock ($Id: //depot/dev/client3/rdock/2013.1/src/exe/rbdock.cxx#4 $)

>  <Rbt.Library>
libRbt.so (2013.1, Build901 2013/11/27)

>  <Rbt.Parameter_File>
/export/apps/rDock/src/rDock_2013.1_src/data/scripts/dock_solv.prm

>  <Rbt.Receptor>
prm/pocket_docking_7.prm

>  <SCORE>
-20.3987

>  <SCORE.INTER>
-12.2268

>  <SCORE.INTER.CONST>
1

>  <SCORE.INTER.POLAR>
0

>  <SCORE.INTER.ROT>
10

>  <SCORE.INTER.SOLV>
21.6354

>  <SCORE.INTER.VDW>
-25.6297

>  <SCORE.INTER.norm>
-0.305671

>  <SCORE.INTRA>
-8.17318

>  <SCORE.INTRA.DIHEDRAL>
-21.3276

>  <SCORE.INTRA.DIHEDRAL.0>
28.2802

>  <SCORE.INTRA.POLAR>
0

>  <SCORE.INTRA.POLAR.0>
0

>  <SCORE.INTRA.REPUL>
0

>  <SCORE.INTRA.REPUL.0>
0

>  <SCORE.INTRA.SOLV>
0.403239

>  <SCORE.INTRA.SOLV.lig_0>
-101.981

>  <SCORE.INTRA.VDW>
2.28898

>  <SCORE.INTRA.VDW.0>
-5.72964

>  <SCORE.INTRA.norm>
-0.20433

>  <SCORE.RESTR>
0.00134191

>  <SCORE.RESTR.CAVITY>
0.00134191

>  <SCORE.RESTR.norm>
3.35477e-05

>  <SCORE.SYSTEM>
0

>  <SCORE.SYSTEM.CONST>
0

>  <SCORE.SYSTEM.DIHEDRAL>
0

>  <SCORE.SYSTEM.SOLV>
0

>  <SCORE.SYSTEM.norm>
0

>  <SCORE.heavy>
40

>  <SCORE.norm>
-0.509967

>  <RMSD>
7.401

$$$$
ligand
 OpenBabel11021811513D
libRbt.so/2013.1/901 2013/11/27
 40 42  0  0  0  0  0  0  0  0999 V2000
    3.7080   -9.4260   12.6477 C   0  0  2  0  0  0  0  0  0  0  0  0
    2.7129  -10.4436   12.4550 O   0  0  0  0  0  0  0  0  0  0  0  0
    4.4964   -9.1623   11.3104 C   0  0  1  0  0  0  0  0  0  0  0  0
    5.3341  -10.4036   10.8858 C   0  0  2  0  0  0  0  0  0  0  0  0
    6.3447  -10.7104   12.0360 C   0  0  2  0  0  0  0  0  0  0  0  0
    7.1586  -11.8436   11.6644 O   0  0  0  0  0  0  0  0  0  0  0  0
    5.5211  -11.0167   13.3624 C   0  0  2  0  0  0  0  0  0  0  0  0
    4.6756   -9.8221   13.7203 O   0  0  0  0  0  0  0  0  0  0  0  0
    6.4223  -11.3100   14.5541 C   0  0  0  0  0  0  0  0  0  0  0  0
    5.6271  -11.6869   15.7649 N   0  0  0  0  0  0  0  0  0  0  0  0
   -0.6865  -11.5027   15.0343 C   0  0  2  0  0  0  0  0  0  0  0  0
   -1.4299  -12.0636   16.1384 N   0  0  0  0  0  0  0  0  0  0  0  0
    0.0507  -12.6618   14.2495 C   0  0  0  0  0  0  0  0  0  0  0  0
    0.8799  -12.0571   13.0299 C   0  0  2  0  0  0  0  0  0  0  0  0
    1.5586  -13.1491   12.2838 N   0  0  0  0  0  0  0  0  0  0  0  0
    1.9367  -10.9951   13.5887 C   0  0  2  0  0  0  0  0  0  0  0  0
    1.1505   -9.8562   14.3675 C   0  0  2  0  0  0  0  0  0  0  0  0
    2.0868   -8.8992   14.8681 O   0  0  0  0  0  0  0  0  0  0  0  0
    0.3305  -10.4699   15.5701 C   0  0  1  0  0  0  0  0  0  0  0  0
   -0.3972   -9.4216   16.2571 O   0  0  0  0  0  0  0  0  0  0  0  0
    0.1692   -8.2827   16.8112 C   0  0  2  0  0  0  0  0  0  0  0  0
    1.1263   -8.7459   17.9665 C   0  0  2  0  0  0  0  0  0  0  0  0
    2.0844   -9.6184   17.4607 O   0  0  0  0  0  0  0  0  0  0  0  0
    0.3247   -9.4073   19.1670 C   0  0  1  0  0  0  0  0  0  0  0  0
    1.2534   -9.8294   20.2607 N   0  0  0  0  0  0  0  0  0  0  0  0
   -0.7473   -8.3602   19.7015 C   0  0  2  0  0  0  0  0  0  0  0  0
   -1.4903   -8.9072   20.7979 O   0  0  0  0  0  0  0  0  0  0  0  0
   -1.6917   -7.9684   18.5000 C   0  0  2  0  0  0  0  0  0  0  0  0
   -0.8865   -7.3853   17.3467 O   0  0  0  0  0  0  0  0  0  0  0  0
   -2.7281   -6.9570   18.9283 C   0  0  0  0  0  0  0  0  0  0  0  0
   -3.8226   -6.8548   17.9986 O   0  0  0  0  0  0  0  0  0  0  0  0
    3.5342   -8.8104   10.2739 O   0  0  0  0  0  0  0  0  0  0  0  0
    6.0086  -10.1144    9.7244 O   0  0  0  0  0  0  0  0  0  0  0  0
   -2.8563  -12.2470   16.0015 C   0  0  0  0  0  0  0  0  0  0  0  0
   -3.5018  -11.5549   15.1592 O   0  0  0  0  0  0  0  0  0  0  0  0
   -3.5478  -13.3034   16.9170 C   0  0  2  0  0  0  0  0  0  0  0  0
   -4.5369  -13.1770   20.6807 N   0  0  0  0  0  0  0  0  0  0  0  0
   -3.6244  -12.8001   18.3915 C   0  0  0  0  0  0  0  0  0  0  0  0
   -4.4211  -13.7384   19.3134 C   0  0  0  0  0  0  0  0  0  0  0  0
   -2.9081  -14.4017   16.9675 O   0  0  0  0  0  0  0  0  0  0  0  0
  1  2  1  6  0  0  0
  1  3  1  0  0  0  0
  1  8  1  0  0  0  0
  3  4  1  0  0  0  0
  3 32  1  6  0  0  0
  4  5  1  0  0  0  0
  4 33  1  6  0  0  0
  5  6  1  6  0  0  0
  5  7  1  0  0  0  0
  7  8  1  0  0  0  0
  7  9  1  1  0  0  0
  9 10  1  0  0  0  0
 11 12  1  1  0  0  0
 11 13  1  0  0  0  0
 11 19  1  0  0  0  0
 12 34  1  0  0  0  0
 13 14  1  0  0  0  0
 14 15  1  1  0  0  0
 14 16  1  0  0  0  0
 16  2  1  6  0  0  0
 16 17  1  0  0  0  0
 17 18  1  1  0  0  0
 17 19  1  0  0  0  0
 19 20  1  6  0  0  0
 21 20  1  1  0  0  0
 21 22  1  0  0  0  0
 21 29  1  0  0  0  0
 22 23  1  6  0  0  0
 22 24  1  0  0  0  0
 24 25  1  1  0  0  0
 24 26  1  0  0  0  0
 26 27  1  1  0  0  0
 26 28  1  0  0  0  0
 28 29  1  0  0  0  0
 28 30  1  1  0  0  0
 30 31  1  0  0  0  0
 34 35  2  0  0  0  0
 36 34  1  6  0  0  0
 36 38  1  0  0  0  0
 36 40  1  0  0  0  0
 37 39  1  0  0  0  0
 38 39  1  0  0  0  0
M  END
>  <CHROM.1>
172.81358907,177.71585080,-176.08343759,-101.04081971,-176.45054193,-63.73154795
-163.57102198,72.38416799,174.24411199,-176.47545737,0.88827208,-10.45988932
15.54014054,-0.42654965,0.57856488,0.70877249

>  <Name>
ligand

>  <RI>
0

>  <Rbt.Current_Directory>
/home/itssahil/PROJECTS/Mol_Feturizer/New_Systems/rnas/4P20

>  <Rbt.Executable>
rbdock ($Id: //depot/dev/client3/rdock/2013.1/src/exe/rbdock.cxx#4 $)

>  <Rbt.Library>
libRbt.so (2013.1, Build901 2013/11/27)

>  <Rbt.Parameter_File>
/export/apps/rDock/src/rDock_2013.1_src/data/scripts/dock_solv.prm

>  <Rbt.Receptor>
prm/pocket_docking_8.prm

>  <SCORE>
-15.4917

>  <SCORE.INTER>
-4.82345

>  <SCORE.INTER.CONST>
1

>  <SCORE.INTER.POLAR>
0

>  <SCORE.INTER.ROT>
10

>  <SCORE.INTER.SOLV>
16.432

>  <SCORE.INTER.VDW>
-18.9596

>  <SCORE.INTER.norm>
-0.120586

>  <SCORE.INTRA>
-10.6682

>  <SCORE.INTRA.DIHEDRAL>
-24.8063

>  <SCORE.INTRA.DIHEDRAL.0>
28.2802

>  <SCORE.INTRA.POLAR>
0

>  <SCORE.INTRA.POLAR.0>
0

>  <SCORE.INTRA.REPUL>
0.00346326

>  <SCORE.INTRA.REPUL.0>
0

>  <SCORE.INTRA.SOLV>
-1.89377

>  <SCORE.INTRA.SOLV.lig_0>
-101.981

>  <SCORE.INTRA.VDW>
2.66451

>  <SCORE.INTRA.VDW.0>
-5.72964

>  <SCORE.INTRA.norm>
-0.266705

>  <SCORE.RESTR>
0

>  <SCORE.RESTR.CAVITY>
0

>  <SCORE.RESTR.norm>
0

>  <SCORE.SYSTEM>
0

>  <SCORE.SYSTEM.CONST>
0

>  <SCORE.SYSTEM.DIHEDRAL>
0

>  <SCORE.SYSTEM.SOLV>
0

>  <SCORE.SYSTEM.norm>
0

>  <SCORE.heavy>
40

>  <SCORE.norm>
-0.387291

>  <RMSD>
7.410

$$$$
ligand
 OpenBabel11021811513D
libRbt.so/2013.1/901 2013/11/27
 40 42  0  0  0  0  0  0  0  0999 V2000
   -4.0195   -9.4465   16.9668 C   0  0  2  0  0  0  0  0  0  0  0  0
   -3.5596  -10.4024   17.9351 O   0  0  0  0  0  0  0  0  0  0  0  0
   -3.5433   -7.9958   17.3515 C   0  0  1  0  0  0  0  0  0  0  0  0
   -4.2039   -7.5088   18.6741 C   0  0  2  0  0  0  0  0  0  0  0  0
   -5.7508   -7.5114   18.4612 C   0  0  2  0  0  0  0  0  0  0  0  0
   -6.3972   -7.0391   19.6628 O   0  0  0  0  0  0  0  0  0  0  0  0
   -6.2101   -8.9956   18.1184 C   0  0  2  0  0  0  0  0  0  0  0  0
   -5.5139   -9.4645   16.8672 O   0  0  0  0  0  0  0  0  0  0  0  0
   -7.7089   -9.1004   17.8719 C   0  0  0  0  0  0  0  0  0  0  0  0
   -8.4943   -8.6921   19.0790 N   0  0  0  0  0  0  0  0  0  0  0  0
    0.7494  -10.8722   17.1991 C   0  0  2  0  0  0  0  0  0  0  0  0
    2.0567  -11.4830   17.1321 N   0  0  0  0  0  0  0  0  0  0  0  0
    0.2379  -10.8796   18.6961 C   0  0  0  0  0  0  0  0  0  0  0  0
   -1.2070  -10.2124   18.7852 C   0  0  2  0  0  0  0  0  0  0  0  0
   -1.6790  -10.2054   20.1947 N   0  0  0  0  0  0  0  0  0  0  0  0
   -2.2162  -11.0174   17.8415 C   0  0  2  0  0  0  0  0  0  0  0  0
   -1.6598  -10.9827   16.3545 C   0  0  2  0  0  0  0  0  0  0  0  0
   -2.5577  -11.6970   15.5019 O   0  0  0  0  0  0  0  0  0  0  0  0
   -0.2266  -11.6430   16.2819 C   0  0  1  0  0  0  0  0  0  0  0  0
    0.2753  -11.5846   14.9235 O   0  0  0  0  0  0  0  0  0  0  0  0
   -0.2869  -12.2311   13.8323 C   0  0  2  0  0  0  0  0  0  0  0  0
   -0.1400  -13.7758   14.0717 C   0  0  2  0  0  0  0  0  0  0  0  0
   -0.7580  -14.1262   15.2678 O   0  0  0  0  0  0  0  0  0  0  0  0
    1.3805  -14.2332   14.0561 C   0  0  1  0  0  0  0  0  0  0  0  0
    1.4965  -15.7084   14.2733 N   0  0  0  0  0  0  0  0  0  0  0  0
    2.0254  -13.8091   12.6649 C   0  0  2  0  0  0  0  0  0  0  0  0
    3.3987  -14.2128   12.5965 O   0  0  0  0  0  0  0  0  0  0  0  0
    1.8726  -12.2466   12.5094 C   0  0  2  0  0  0  0  0  0  0  0  0
    0.4080  -11.8364   12.5801 O   0  0  0  0  0  0  0  0  0  0  0  0
    2.4470  -11.7704   11.1964 C   0  0  0  0  0  0  0  0  0  0  0  0
    1.7705  -12.3333   10.0570 O   0  0  0  0  0  0  0  0  0  0  0  0
   -2.0912   -8.0084   17.4745 O   0  0  0  0  0  0  0  0  0  0  0  0
   -3.7644   -6.2376   18.9542 O   0  0  0  0  0  0  0  0  0  0  0  0
    2.9992  -11.0142   16.1427 C   0  0  0  0  0  0  0  0  0  0  0  0
    2.5790  -10.4269   15.1018 O   0  0  0  0  0  0  0  0  0  0  0  0
    4.5165  -11.2624   16.4046 C   0  0  2  0  0  0  0  0  0  0  0  0
    6.8004  -12.8081   14.9440 N   0  0  0  0  0  0  0  0  0  0  0  0
    4.8296  -12.7892   16.4706 C   0  0  0  0  0  0  0  0  0  0  0  0
    6.3256  -13.1100   16.3157 C   0  0  0  0  0  0  0  0  0  0  0  0
    4.9051  -10.7891   17.5195 O   0  0  0  0  0  0  0  0  0  0  0  0
  1  2  1  1  0  0  0
  1  3  1  0  0  0  0
  1  8  1  0  0  0  0
  3  4  1  0  0  0  0
  3 32  1  1  0  0  0
  4  5  1  0  0  0  0
  4 33  1  6  0  0  0
  5  6  1  1  0  0  0
  5  7  1  0  0  0  0
  7  8  1  0  0  0  0
  7  9  1  6  0  0  0
  9 10  1  0  0  0  0
 11 12  1  1  0  0  0
 11 13  1  0  0  0  0
 11 19  1  0  0  0  0
 12 34  1  0  0  0  0
 13 14  1  0  0  0  0
 14 15  1  1  0  0  0
 14 16  1  0  0  0  0
 16  2  1  6  0  0  0
 16 17  1  0  0  0  0
 17 18  1  6  0  0  0
 17 19  1  0  0  0  0
 19 20  1  6  0  0  0
 21 20  1  1  0  0  0
 21 22  1  0  0  0  0
 21 29  1  0  0  0  0
 22 23  1  1  0  0  0
 22 24  1  0  0  0  0
 24 25  1  6  0  0  0
 24 26  1  0  0  0  0
 26 27  1  1  0  0  0
 26 28  1  0  0  0  0
 28 29  1  0  0  0  0
 28 30  1  6  0  0  0
 30 31  1  0  0  0  0
 34 35  2  0  0  0  0
 36 34  1  1  0  0  0
 36 38  1  0  0  0  0
 36 40  1  0  0  0  0
 37 39  1  0  0  0  0
 38 39  1  0  0  0  0
M  END
>  <CHROM.1>
-85.63249395,96.69089814,-60.92787955,-147.92423672,175.80303196,-65.40154787
62.05156247,62.32338133,163.22250594,-68.24385581,-0.53238460,-10.97375755
16.13683158,2.55204384,-0.18272499,1.03680956

>  <Name>
ligand

>  <RI>
0

>  <Rbt.Current_Directory>
/home/itssahil/PROJECTS/Mol_Feturizer/New_Systems/rnas/4P20

>  <Rbt.Executable>
rbdock ($Id: //depot/dev/client3/rdock/2013.1/src/exe/rbdock.cxx#4 $)

>  <Rbt.Library>
libRbt.so (2013.1, Build901 2013/11/27)

>  <Rbt.Parameter_File>
/export/apps/rDock/src/rDock_2013.1_src/data/scripts/dock_solv.prm

>  <Rbt.Receptor>
prm/pocket_docking_5.prm

>  <SCORE>
-8.88974

>  <SCORE.INTER>
-3.35545

>  <SCORE.INTER.CONST>
1

>  <SCORE.INTER.POLAR>
0

>  <SCORE.INTER.ROT>
10

>  <SCORE.INTER.SOLV>
14.8837

>  <SCORE.INTER.VDW>
-17.4649

>  <SCORE.INTER.norm>
-0.0838864

>  <SCORE.INTRA>
-5.53667

>  <SCORE.INTRA.DIHEDRAL>
-17.7356

>  <SCORE.INTRA.DIHEDRAL.0>
28.2802

>  <SCORE.INTRA.POLAR>
0

>  <SCORE.INTRA.POLAR.0>
0

>  <SCORE.INTRA.REPUL>
0

>  <SCORE.INTRA.REPUL.0>
0

>  <SCORE.INTRA.SOLV>
3.56438

>  <SCORE.INTRA.SOLV.lig_0>
-101.981

>  <SCORE.INTRA.VDW>
1.54894

>  <SCORE.INTRA.VDW.0>
-5.72964

>  <SCORE.INTRA.norm>
-0.138417

>  <SCORE.RESTR>
0.002389

>  <SCORE.RESTR.CAVITY>
0.002389

>  <SCORE.RESTR.norm>
5.97249e-05

>  <SCORE.SYSTEM>
0

>  <SCORE.SYSTEM.CONST>
0

>  <SCORE.SYSTEM.DIHEDRAL>
0

>  <SCORE.SYSTEM.SOLV>
0

>  <SCORE.SYSTEM.norm>
0

>  <SCORE.heavy>
40

>  <SCORE.norm>
-0.222243

>  <RMSD>
7.422

$$$$
ligand
 OpenBabel11021811513D
libRbt.so/2013.1/901 2013/11/27
 40 42  0  0  0  0  0  0  0  0999 V2000
    4.1275   -3.1238   23.2419 C   0  0  2  0  0  0  0  0  0  0  0  0
    4.5461   -3.8164   22.0552 O   0  0  0  0  0  0  0  0  0  0  0  0
    3.7594   -1.6293   22.9099 C   0  0  1  0  0  0  0  0  0  0  0  0
    5.0074   -0.8218   22.4480 C   0  0  2  0  0  0  0  0  0  0  0  0
    6.0519   -0.8571   23.6082 C   0  0  2  0  0  0  0  0  0  0  0  0
    7.2158   -0.0941   23.2239 O   0  0  0  0  0  0  0  0  0  0  0  0
    6.4390   -2.3741   23.8921 C   0  0  2  0  0  0  0  0  0  0  0  0
    5.2055   -3.1468   24.2815 O   0  0  0  0  0  0  0  0  0  0  0  0
    7.4432   -2.5172   25.0276 C   0  0  0  0  0  0  0  0  0  0  0  0
    6.8266   -2.1881   26.3513 N   0  0  0  0  0  0  0  0  0  0  0  0
    5.3196   -8.0823   21.3244 C   0  0  2  0  0  0  0  0  0  0  0  0
    5.0823   -9.4996   21.1784 N   0  0  0  0  0  0  0  0  0  0  0  0
    4.9334   -7.6293   22.7902 C   0  0  0  0  0  0  0  0  0  0  0  0
    5.1857   -6.0651   22.9651 C   0  0  2  0  0  0  0  0  0  0  0  0
    4.8379   -5.6443   24.3476 N   0  0  0  0  0  0  0  0  0  0  0  0
    4.3184   -5.2691   21.8830 C   0  0  2  0  0  0  0  0  0  0  0  0
    4.7403   -5.7587   20.4324 C   0  0  2  0  0  0  0  0  0  0  0  0
    3.9726   -5.0497   19.4572 O   0  0  0  0  0  0  0  0  0  0  0  0
    4.4888   -7.3102   20.2747 C   0  0  1  0  0  0  0  0  0  0  0  0
    4.8982   -7.7447   18.9540 O   0  0  0  0  0  0  0  0  0  0  0  0
    4.3422   -7.3114   17.7590 C   0  0  2  0  0  0  0  0  0  0  0  0
    2.8575   -7.8204   17.7173 C   0  0  2  0  0  0  0  0  0  0  0  0
    2.1657   -7.3409   18.8249 O   0  0  0  0  0  0  0  0  0  0  0  0
    2.7790   -9.4041   17.6331 C   0  0  1  0  0  0  0  0  0  0  0  0
    1.3575   -9.8662   17.5818 N   0  0  0  0  0  0  0  0  0  0  0  0
    3.5822   -9.8860   16.3471 C   0  0  2  0  0  0  0  0  0  0  0  0
    3.5299  -11.3123   16.2194 O   0  0  0  0  0  0  0  0  0  0  0  0
    5.0676   -9.3700   16.4745 C   0  0  2  0  0  0  0  0  0  0  0  0
    5.1043   -7.8533   16.6049 O   0  0  0  0  0  0  0  0  0  0  0  0
    5.8901   -9.7738   15.2742 C   0  0  0  0  0  0  0  0  0  0  0  0
    6.0856  -11.1976   15.1877 O   0  0  0  0  0  0  0  0  0  0  0  0
    2.7334   -1.6298   21.8749 O   0  0  0  0  0  0  0  0  0  0  0  0
    4.6323    0.4734   22.1848 O   0  0  0  0  0  0  0  0  0  0  0  0
    6.0281  -10.4308   21.7486 C   0  0  0  0  0  0  0  0  0  0  0  0
    7.2197  -10.0617   21.9693 O   0  0  0  0  0  0  0  0  0  0  0  0
    5.5302  -11.8742   22.0666 C   0  0  2  0  0  0  0  0  0  0  0  0
    1.7404  -11.3968   22.8236 N   0  0  0  0  0  0  0  0  0  0  0  0
    4.1933  -11.8398   22.8697 C   0  0  0  0  0  0  0  0  0  0  0  0
    2.9952  -11.3574   22.0349 C   0  0  0  0  0  0  0  0  0  0  0  0
    6.3455  -12.5243   22.7952 O   0  0  0  0  0  0  0  0  0  0  0  0
  1  2  1  6  0  0  0
  1  3  1  0  0  0  0
  1  8  1  0  0  0  0
  3  4  1  0  0  0  0
  3 32  1  6  0  0  0
  4  5  1  0  0  0  0
  4 33  1  1  0  0  0
  5  6  1  6  0  0  0
  5  7  1  0  0  0  0
  7  8  1  0  0  0  0
  7  9  1  1  0  0  0
  9 10  1  0  0  0  0
 11 12  1  1  0  0  0
 11 13  1  0  0  0  0
 11 19  1  0  0  0  0
 12 34  1  0  0  0  0
 13 14  1  0  0  0  0
 14 15  1  1  0  0  0
 14 16  1  0  0  0  0
 16  2  1  6  0  0  0
 16 17  1  0  0  0  0
 17 18  1  6  0  0  0
 17 19  1  0  0  0  0
 19 20  1  6  0  0  0
 21 20  1  1  0  0  0
 21 22  1  0  0  0  0
 21 29  1  0  0  0  0
 22 23  1  1  0  0  0
 22 24  1  0  0  0  0
 24 25  1  6  0  0  0
 24 26  1  0  0  0  0
 26 27  1  1  0  0  0
 26 28  1  0  0  0  0
 28 29  1  0  0  0  0
 28 30  1  6  0  0  0
 30 31  1  0  0  0  0
 34 35  2  0  0  0  0
 36 34  1  1  0  0  0
 36 38  1  0  0  0  0
 36 40  1  0  0  0  0
 37 39  1  0  0  0  0
 38 39  1  0  0  0  0
M  END
>  <CHROM.1>
-149.45355927,-65.62931450,70.07638915,-77.13243649,177.49566545,-65.76834720
-66.72091378,-49.14106726,69.96869560,177.59122100,4.72141961,-6.74381544
20.89053779,1.05181832,-1.34636185,0.02936673

>  <Name>
ligand

>  <RI>
0

>  <Rbt.Current_Directory>
/home/itssahil/PROJECTS/Mol_Feturizer/New_Systems/rnas/4P20

>  <Rbt.Executable>
rbdock ($Id: //depot/dev/client3/rdock/2013.1/src/exe/rbdock.cxx#4 $)

>  <Rbt.Library>
libRbt.so (2013.1, Build901 2013/11/27)

>  <Rbt.Parameter_File>
/export/apps/rDock/src/rDock_2013.1_src/data/scripts/dock_solv.prm

>  <Rbt.Receptor>
prm/pocket_docking_8.prm

>  <SCORE>
-18.1099

>  <SCORE.INTER>
-10.7932

>  <SCORE.INTER.CONST>
1

>  <SCORE.INTER.POLAR>
0

>  <SCORE.INTER.ROT>
10

>  <SCORE.INTER.SOLV>
16.8579

>  <SCORE.INTER.VDW>
-23.0815

>  <SCORE.INTER.norm>
-0.26983

>  <SCORE.INTRA>
-7.31666

>  <SCORE.INTRA.DIHEDRAL>
-22.1807

>  <SCORE.INTRA.DIHEDRAL.0>
28.2802

>  <SCORE.INTRA.POLAR>
0

>  <SCORE.INTRA.POLAR.0>
0

>  <SCORE.INTRA.REPUL>
0

>  <SCORE.INTRA.REPUL.0>
0

>  <SCORE.INTRA.SOLV>
2.3744

>  <SCORE.INTRA.SOLV.lig_0>
-101.981

>  <SCORE.INTRA.VDW>
2.58648

>  <SCORE.INTRA.VDW.0>
-5.72964

>  <SCORE.INTRA.norm>
-0.182917

>  <SCORE.RESTR>
0

>  <SCORE.RESTR.CAVITY>
0

>  <SCORE.RESTR.norm>
0

>  <SCORE.SYSTEM>
0

>  <SCORE.SYSTEM.CONST>
0

>  <SCORE.SYSTEM.DIHEDRAL>
0

>  <SCORE.SYSTEM.SOLV>
0

>  <SCORE.SYSTEM.norm>
0

>  <SCORE.heavy>
40

>  <SCORE.norm>
-0.452747

>  <RMSD>
7.422

$$$$
ligand
 OpenBabel11021811513D
libRbt.so/2013.1/901 2013/11/27
 40 42  0  0  0  0  0  0  0  0999 V2000
    0.0226  -10.8547   14.1127 C   0  0  2  0  0  0  0  0  0  0  0  0
   -0.3301  -12.0745   14.7839 O   0  0  0  0  0  0  0  0  0  0  0  0
    1.2618  -11.0809   13.1679 C   0  0  1  0  0  0  0  0  0  0  0  0
    2.5448  -11.4244   13.9796 C   0  0  2  0  0  0  0  0  0  0  0  0
    2.8327  -10.2283   14.9412 C   0  0  2  0  0  0  0  0  0  0  0  0
    4.0342  -10.5015   15.6938 O   0  0  0  0  0  0  0  0  0  0  0  0
    1.5853  -10.0509   15.9127 C   0  0  2  0  0  0  0  0  0  0  0  0
    0.3463   -9.7763   15.1005 O   0  0  0  0  0  0  0  0  0  0  0  0
    1.7609   -8.8897   16.8817 C   0  0  0  0  0  0  0  0  0  0  0  0
    0.6221   -8.8043   17.8494 N   0  0  0  0  0  0  0  0  0  0  0  0
   -4.0846  -13.0147   16.8695 C   0  0  2  0  0  0  0  0  0  0  0  0
   -5.0874  -13.0546   17.9083 N   0  0  0  0  0  0  0  0  0  0  0  0
   -2.7460  -13.6695   17.4006 C   0  0  0  0  0  0  0  0  0  0  0  0
   -1.6275  -13.6284   16.2657 C   0  0  2  0  0  0  0  0  0  0  0  0
   -0.3757  -14.2588   16.7608 N   0  0  0  0  0  0  0  0  0  0  0  0
   -1.3772  -12.1104   15.8298 C   0  0  2  0  0  0  0  0  0  0  0  0
   -2.7463  -11.4985   15.3073 C   0  0  2  0  0  0  0  0  0  0  0  0
   -2.5320  -10.1419   14.9115 O   0  0  0  0  0  0  0  0  0  0  0  0
   -3.8460  -11.5495   16.4402 C   0  0  1  0  0  0  0  0  0  0  0  0
   -5.0940  -11.0072   15.9413 O   0  0  0  0  0  0  0  0  0  0  0  0
   -6.2150  -10.7347   16.7119 C   0  0  2  0  0  0  0  0  0  0  0  0
   -7.3039  -10.1222   15.7609 C   0  0  2  0  0  0  0  0  0  0  0  0
   -7.5784  -11.0119   14.7274 O   0  0  0  0  0  0  0  0  0  0  0  0
   -6.8639   -8.7048   15.1962 C   0  0  1  0  0  0  0  0  0  0  0  0
   -7.9199   -8.1345   14.3037 N   0  0  0  0  0  0  0  0  0  0  0  0
   -6.5708   -7.7363   16.4240 C   0  0  2  0  0  0  0  0  0  0  0  0
   -6.1811   -6.4360   15.9647 O   0  0  0  0  0  0  0  0  0  0  0  0
   -5.4474   -8.3973   17.3128 C   0  0  2  0  0  0  0  0  0  0  0  0
   -5.8799   -9.7752   17.7953 O   0  0  0  0  0  0  0  0  0  0  0  0
   -5.1283   -7.5405   18.5148 C   0  0  0  0  0  0  0  0  0  0  0  0
   -4.5291   -6.2814   18.1566 O   0  0  0  0  0  0  0  0  0  0  0  0
    0.9376  -12.1545   12.2371 O   0  0  0  0  0  0  0  0  0  0  0  0
    3.5937  -11.5984   13.1094 O   0  0  0  0  0  0  0  0  0  0  0  0
   -4.8512  -12.3343   19.1381 C   0  0  0  0  0  0  0  0  0  0  0  0
   -3.6655  -12.0556   19.4864 O   0  0  0  0  0  0  0  0  0  0  0  0
   -6.0889  -11.9310   19.9972 C   0  0  2  0  0  0  0  0  0  0  0  0
   -4.5793   -9.7433   22.8424 N   0  0  0  0  0  0  0  0  0  0  0  0
   -5.6554  -11.4935   21.4304 C   0  0  0  0  0  0  0  0  0  0  0  0
   -4.8977  -10.1554   21.4543 C   0  0  0  0  0  0  0  0  0  0  0  0
   -6.9010  -12.8948   20.1691 O   0  0  0  0  0  0  0  0  0  0  0  0
  1  2  1  1  0  0  0
  1  3  1  0  0  0  0
  1  8  1  0  0  0  0
  3  4  1  0  0  0  0
  3 32  1  6  0  0  0
  4  5  1  0  0  0  0
  4 33  1  6  0  0  0
  5  6  1  1  0  0  0
  5  7  1  0  0  0  0
  7  8  1  0  0  0  0
  7  9  1  1  0  0  0
  9 10  1  0  0  0  0
 11 12  1  1  0  0  0
 11 13  1  0  0  0  0
 11 19  1  0  0  0  0
 12 34  1  0  0  0  0
 13 14  1  0  0  0  0
 14 15  1  1  0  0  0
 14 16  1  0  0  0  0
 16  2  1  6  0  0  0
 16 17  1  0  0  0  0
 17 18  1  1  0  0  0
 17 19  1  0  0  0  0
 19 20  1  6  0  0  0
 21 20  1  6  0  0  0
 21 22  1  0  0  0  0
 21 29  1  0  0  0  0
 22 23  1  6  0  0  0
 22 24  1  0  0  0  0
 24 25  1  6  0  0  0
 24 26  1  0  0  0  0
 26 27  1  6  0  0  0
 26 28  1  0  0  0  0
 28 29  1  0  0  0  0
 28 30  1  1  0  0  0
 30 31  1  0  0  0  0
 34 35  2  0  0  0  0
 36 34  1  6  0  0  0
 36 38  1  0  0  0  0
 36 40  1  0  0  0  0
 37 39  1  0  0  0  0
 38 39  1  0  0  0  0
M  END
>  <CHROM.1>
173.95936386,174.35713685,-175.85656831,62.54138864,69.08109952,178.27513207
-66.01646888,165.77135812,69.60383882,176.59299750,-2.89762274,-10.65085036
16.65299478,0.28238671,0.34591817,-1.00336963

>  <Name>
ligand

>  <RI>
0

>  <Rbt.Current_Directory>
/home/itssahil/PROJECTS/Mol_Feturizer/New_Systems/rnas/4P20

>  <Rbt.Executable>
rbdock ($Id: //depot/dev/client3/rdock/2013.1/src/exe/rbdock.cxx#4 $)

>  <Rbt.Library>
libRbt.so (2013.1, Build901 2013/11/27)

>  <Rbt.Parameter_File>
/export/apps/rDock/src/rDock_2013.1_src/data/scripts/dock_solv.prm

>  <Rbt.Receptor>
prm/pocket_docking_8.prm

>  <SCORE>
-10.9464

>  <SCORE.INTER>
0.444875

>  <SCORE.INTER.CONST>
1

>  <SCORE.INTER.POLAR>
0

>  <SCORE.INTER.ROT>
10

>  <SCORE.INTER.SOLV>
13.477

>  <SCORE.INTER.VDW>
-14.4624

>  <SCORE.INTER.norm>
0.0111219

>  <SCORE.INTRA>
-11.3913

>  <SCORE.INTRA.DIHEDRAL>
-25.9492

>  <SCORE.INTRA.DIHEDRAL.0>
28.2802

>  <SCORE.INTRA.POLAR>
0

>  <SCORE.INTRA.POLAR.0>
0

>  <SCORE.INTRA.REPUL>
0

>  <SCORE.INTRA.REPUL.0>
0

>  <SCORE.INTRA.SOLV>
-0.753343

>  <SCORE.INTRA.SOLV.lig_0>
-101.981

>  <SCORE.INTRA.VDW>
1.96

>  <SCORE.INTRA.VDW.0>
-5.72964

>  <SCORE.INTRA.norm>
-0.284781

>  <SCORE.RESTR>
0

>  <SCORE.RESTR.CAVITY>
0

>  <SCORE.RESTR.norm>
0

>  <SCORE.SYSTEM>
0

>  <SCORE.SYSTEM.CONST>
0

>  <SCORE.SYSTEM.DIHEDRAL>
0

>  <SCORE.SYSTEM.SOLV>
0

>  <SCORE.SYSTEM.norm>
0

>  <SCORE.heavy>
40

>  <SCORE.norm>
-0.273659

>  <RMSD>
7.430

$$$$
ligand
 OpenBabel11021811513D
libRbt.so/2013.1/901 2013/11/27
 40 42  0  0  0  0  0  0  0  0999 V2000
    0.8830  -11.5103   13.0859 C   0  0  2  0  0  0  0  0  0  0  0  0
    0.7631  -12.7705   13.7645 O   0  0  0  0  0  0  0  0  0  0  0  0
    2.0382  -11.5646   12.0173 C   0  0  1  0  0  0  0  0  0  0  0  0
    3.4311  -11.7409   12.6892 C   0  0  2  0  0  0  0  0  0  0  0  0
    3.6568  -10.5237   13.6408 C   0  0  2  0  0  0  0  0  0  0  0  0
    4.9542  -10.6408   14.2635 O   0  0  0  0  0  0  0  0  0  0  0  0
    2.5026  -10.5191   14.7359 C   0  0  2  0  0  0  0  0  0  0  0  0
    1.1620  -10.4052   14.0577 O   0  0  0  0  0  0  0  0  0  0  0  0
    2.6229   -9.3514   15.7055 C   0  0  0  0  0  0  0  0  0  0  0  0
    3.8506   -9.4658   16.5541 N   0  0  0  0  0  0  0  0  0  0  0  0
   -2.3251  -14.0226   16.6325 C   0  0  2  0  0  0  0  0  0  0  0  0
   -3.0499  -14.1569   17.8747 N   0  0  0  0  0  0  0  0  0  0  0  0
   -0.8597  -14.5915   16.8105 C   0  0  0  0  0  0  0  0  0  0  0  0
   -0.0455  -14.4455   15.4480 C   0  0  2  0  0  0  0  0  0  0  0  0
    1.3256  -14.9956   15.6122 N   0  0  0  0  0  0  0  0  0  0  0  0
   -0.0032  -12.9043   15.0241 C   0  0  2  0  0  0  0  0  0  0  0  0
   -1.4934  -12.3805   14.8600 C   0  0  2  0  0  0  0  0  0  0  0  0
   -1.4662  -11.0035   14.4772 O   0  0  0  0  0  0  0  0  0  0  0  0
   -2.2891  -12.5349   16.2157 C   0  0  1  0  0  0  0  0  0  0  0  0
   -3.6519  -12.0723   16.0435 O   0  0  0  0  0  0  0  0  0  0  0  0
   -4.5172  -11.7260   17.0712 C   0  0  2  0  0  0  0  0  0  0  0  0
   -5.9259  -11.4579   16.4318 C   0  0  2  0  0  0  0  0  0  0  0  0
   -6.3516  -12.5890   15.7429 O   0  0  0  0  0  0  0  0  0  0  0  0
   -5.9114  -10.1820   15.4866 C   0  0  1  0  0  0  0  0  0  0  0  0
   -7.2647   -9.9378   14.8986 N   0  0  0  0  0  0  0  0  0  0  0  0
   -5.4224   -8.9268   16.3331 C   0  0  2  0  0  0  0  0  0  0  0  0
   -5.4045   -7.7437   15.5248 O   0  0  0  0  0  0  0  0  0  0  0  0
   -3.9921   -9.2535   16.9133 C   0  0  2  0  0  0  0  0  0  0  0  0
   -4.0308  -10.5102   17.7723 O   0  0  0  0  0  0  0  0  0  0  0  0
   -3.4685   -8.1102   17.7493 C   0  0  0  0  0  0  0  0  0  0  0  0
   -2.1551   -8.3659   18.2807 O   0  0  0  0  0  0  0  0  0  0  0  0
    1.7638  -12.6654   11.1024 O   0  0  0  0  0  0  0  0  0  0  0  0
    4.3994  -11.7691   11.7149 O   0  0  0  0  0  0  0  0  0  0  0  0
   -4.3649  -14.7548   17.8575 C   0  0  0  0  0  0  0  0  0  0  0  0
   -5.0428  -14.7536   16.7872 O   0  0  0  0  0  0  0  0  0  0  0  0
   -4.8999  -15.3802   19.1823 C   0  0  2  0  0  0  0  0  0  0  0  0
   -5.9897  -12.3020   21.3015 N   0  0  0  0  0  0  0  0  0  0  0  0
   -4.9063  -14.3280   20.3340 C   0  0  0  0  0  0  0  0  0  0  0  0
   -5.9454  -13.2124   20.1322 C   0  0  0  0  0  0  0  0  0  0  0  0
   -4.1728  -16.3359   19.6016 O   0  0  0  0  0  0  0  0  0  0  0  0
  1  2  1  1  0  0  0
  1  3  1  0  0  0  0
  1  8  1  0  0  0  0
  3  4  1  0  0  0  0
  3 32  1  6  0  0  0
  4  5  1  0  0  0  0
  4 33  1  6  0  0  0
  5  6  1  1  0  0  0
  5  7  1  0  0  0  0
  7  8  1  0  0  0  0
  7  9  1  1  0  0  0
  9 10  1  0  0  0  0
 11 12  1  1  0  0  0
 11 13  1  0  0  0  0
 11 19  1  0  0  0  0
 12 34  1  0  0  0  0
 13 14  1  0  0  0  0
 14 15  1  1  0  0  0
 14 16  1  0  0  0  0
 16  2  1  6  0  0  0
 16 17  1  0  0  0  0
 17 18  1  1  0  0  0
 17 19  1  0  0  0  0
 19 20  1  6  0  0  0
 21 20  1  6  0  0  0
 21 22  1  0  0  0  0
 21 29  1  0  0  0  0
 22 23  1  6  0  0  0
 22 24  1  0  0  0  0
 24 25  1  1  0  0  0
 24 26  1  0  0  0  0
 26 27  1  6  0  0  0
 26 28  1  0  0  0  0
 28 29  1  0  0  0  0
 28 30  1  1  0  0  0
 30 31  1  0  0  0  0
 34 35  2  0  0  0  0
 36 34  1  6  0  0  0
 36 38  1  0  0  0  0
 36 40  1  0  0  0  0
 37 39  1  0  0  0  0
 38 39  1  0  0  0  0
M  END
>  <CHROM.1>
164.92928685,175.18496144,-66.26770914,-130.33117992,78.25967614,-173.16752561
-179.18111704,56.79417975,68.66706647,175.36900791,-1.77436640,-11.87915348
15.97391873,0.26839583,0.44775815,-0.33210727

>  <Name>
ligand

>  <RI>
0

>  <Rbt.Current_Directory>
/home/itssahil/PROJECTS/Mol_Feturizer/New_Systems/rnas/4P20

>  <Rbt.Executable>
rbdock ($Id: //depot/dev/client3/rdock/2013.1/src/exe/rbdock.cxx#4 $)

>  <Rbt.Library>
libRbt.so (2013.1, Build901 2013/11/27)

>  <Rbt.Parameter_File>
/export/apps/rDock/src/rDock_2013.1_src/data/scripts/dock_solv.prm

>  <Rbt.Receptor>
prm/pocket_docking_8.prm

>  <SCORE>
-15.5995

>  <SCORE.INTER>
-4.34368

>  <SCORE.INTER.CONST>
1

>  <SCORE.INTER.POLAR>
0

>  <SCORE.INTER.ROT>
10

>  <SCORE.INTER.SOLV>
15.0223

>  <SCORE.INTER.VDW>
-18.1699

>  <SCORE.INTER.norm>
-0.108592

>  <SCORE.INTRA>
-11.2558

>  <SCORE.INTRA.DIHEDRAL>
-22.9327

>  <SCORE.INTRA.DIHEDRAL.0>
28.2802

>  <SCORE.INTRA.POLAR>
0

>  <SCORE.INTRA.POLAR.0>
0

>  <SCORE.INTRA.REPUL>
0

>  <SCORE.INTRA.REPUL.0>
0

>  <SCORE.INTRA.SOLV>
-0.143975

>  <SCORE.INTRA.SOLV.lig_0>
-101.981

>  <SCORE.INTRA.VDW>
0.28249

>  <SCORE.INTRA.VDW.0>
-5.72964

>  <SCORE.INTRA.norm>
-0.281396

>  <SCORE.RESTR>
0

>  <SCORE.RESTR.CAVITY>
0

>  <SCORE.RESTR.norm>
0

>  <SCORE.SYSTEM>
0

>  <SCORE.SYSTEM.CONST>
0

>  <SCORE.SYSTEM.DIHEDRAL>
0

>  <SCORE.SYSTEM.SOLV>
0

>  <SCORE.SYSTEM.norm>
0

>  <SCORE.heavy>
40

>  <SCORE.norm>
-0.389988

>  <RMSD>
7.436

$$$$
ligand
 OpenBabel11021811513D
libRbt.so/2013.1/901 2013/11/27
 40 42  0  0  0  0  0  0  0  0999 V2000
    3.5530   -3.2682   22.7017 C   0  0  2  0  0  0  0  0  0  0  0  0
    4.1265   -4.0314   21.6286 O   0  0  0  0  0  0  0  0  0  0  0  0
    3.2603   -1.7926   22.2369 C   0  0  1  0  0  0  0  0  0  0  0  0
    4.5744   -1.0228   21.9152 C   0  0  2  0  0  0  0  0  0  0  0  0
    5.4408   -0.9990   23.2141 C   0  0  2  0  0  0  0  0  0  0  0  0
    6.6598   -0.2684   22.9596 O   0  0  0  0  0  0  0  0  0  0  0  0
    5.7589   -2.5000   23.6355 C   0  0  2  0  0  0  0  0  0  0  0  0
    4.4701   -3.2394   23.8856 O   0  0  0  0  0  0  0  0  0  0  0  0
    6.5872   -2.5850   24.9102 C   0  0  0  0  0  0  0  0  0  0  0  0
    5.8039   -2.1398   26.1055 N   0  0  0  0  0  0  0  0  0  0  0  0
    5.1368   -8.2492   20.9077 C   0  0  2  0  0  0  0  0  0  0  0  0
    5.0192   -9.6887   20.8848 N   0  0  0  0  0  0  0  0  0  0  0  0
    5.0743   -7.7368   22.4031 C   0  0  0  0  0  0  0  0  0  0  0  0
    5.1980   -6.1481   22.4440 C   0  0  2  0  0  0  0  0  0  0  0  0
    5.1556   -5.6697   23.8507 N   0  0  0  0  0  0  0  0  0  0  0  0
    4.0156   -5.5069   21.5794 C   0  0  2  0  0  0  0  0  0  0  0  0
    4.1200   -6.0515   20.0913 C   0  0  2  0  0  0  0  0  0  0  0  0
    3.0687   -5.4807   19.3090 O   0  0  0  0  0  0  0  0  0  0  0  0
    3.9999   -7.6264   20.0664 C   0  0  1  0  0  0  0  0  0  0  0  0
    4.1181   -8.1087   18.7047 O   0  0  0  0  0  0  0  0  0  0  0  0
    5.1645   -7.8216   17.8401 C   0  0  2  0  0  0  0  0  0  0  0  0
    4.7352   -8.2952   16.4061 C   0  0  2  0  0  0  0  0  0  0  0  0
    3.5553   -7.6585   16.0352 O   0  0  0  0  0  0  0  0  0  0  0  0
    4.5848   -9.8739   16.3267 C   0  0  1  0  0  0  0  0  0  0  0  0
    4.1880  -10.3038   14.9502 N   0  0  0  0  0  0  0  0  0  0  0  0
    5.9647  -10.5391   16.7563 C   0  0  2  0  0  0  0  0  0  0  0  0
    5.8836  -11.9682   16.6885 O   0  0  0  0  0  0  0  0  0  0  0  0
    6.3133  -10.0474   18.2143 C   0  0  2  0  0  0  0  0  0  0  0  0
    6.3996   -8.5281   18.2668 O   0  0  0  0  0  0  0  0  0  0  0  0
    7.6270  -10.6245   18.6849 C   0  0  0  0  0  0  0  0  0  0  0  0
    8.7397  -10.2105   17.8704 O   0  0  0  0  0  0  0  0  0  0  0  0
    2.3937   -1.8449   21.0663 O   0  0  0  0  0  0  0  0  0  0  0  0
    4.2617    0.2579   21.5285 O   0  0  0  0  0  0  0  0  0  0  0  0
    5.9927  -10.4826   21.5983 C   0  0  0  0  0  0  0  0  0  0  0  0
    7.1348   -9.9976   21.8539 O   0  0  0  0  0  0  0  0  0  0  0  0
    5.5865  -11.9272   22.0232 C   0  0  2  0  0  0  0  0  0  0  0  0
    2.6620  -12.2241   21.1529 N   0  0  0  0  0  0  0  0  0  0  0  0
    4.3434  -11.9036   22.9654 C   0  0  0  0  0  0  0  0  0  0  0  0
    3.0755  -11.3607   22.2851 C   0  0  0  0  0  0  0  0  0  0  0  0
    6.4993  -12.5188   22.6828 O   0  0  0  0  0  0  0  0  0  0  0  0
  1  2  1  6  0  0  0
  1  3  1  0  0  0  0
  1  8  1  0  0  0  0
  3  4  1  0  0  0  0
  3 32  1  6  0  0  0
  4  5  1  0  0  0  0
  4 33  1  1  0  0  0
  5  6  1  6  0  0  0
  5  7  1  0  0  0  0
  7  8  1  0  0  0  0
  7  9  1  1  0  0  0
  9 10  1  0  0  0  0
 11 12  1  1  0  0  0
 11 13  1  0  0  0  0
 11 19  1  0  0  0  0
 12 34  1  0  0  0  0
 13 14  1  0  0  0  0
 14 15  1  1  0  0  0
 14 16  1  0  0  0  0
 16  2  1  6  0  0  0
 16 17  1  0  0  0  0
 17 18  1  6  0  0  0
 17 19  1  0  0  0  0
 19 20  1  6  0  0  0
 21 20  1  1  0  0  0
 21 22  1  0  0  0  0
 21 29  1  0  0  0  0
 22 23  1  1  0  0  0
 22 24  1  0  0  0  0
 24 25  1  6  0  0  0
 24 26  1  0  0  0  0
 26 27  1  1  0  0  0
 26 28  1  0  0  0  0
 28 29  1  0  0  0  0
 28 30  1  6  0  0  0
 30 31  1  0  0  0  0
 34 35  2  0  0  0  0
 36 34  1  1  0  0  0
 36 38  1  0  0  0  0
 36 40  1  0  0  0  0
 37 39  1  0  0  0  0
 38 39  1  0  0  0  0
M  END
>  <CHROM.1>
-155.59964802,-85.24166241,68.52893646,-59.00028965,-65.92814193,-168.42827043
62.14612220,-59.82892784,64.12710830,62.83850461,5.01525081,-6.97974409,20.69783756
1.95359494,-1.38284638,0.82811185

>  <Name>
ligand

>  <RI>
0

>  <Rbt.Current_Directory>
/home/itssahil/PROJECTS/Mol_Feturizer/New_Systems/rnas/4P20

>  <Rbt.Executable>
rbdock ($Id: //depot/dev/client3/rdock/2013.1/src/exe/rbdock.cxx#4 $)

>  <Rbt.Library>
libRbt.so (2013.1, Build901 2013/11/27)

>  <Rbt.Parameter_File>
/export/apps/rDock/src/rDock_2013.1_src/data/scripts/dock_solv.prm

>  <Rbt.Receptor>
prm/pocket_docking_7.prm

>  <SCORE>
-18.7195

>  <SCORE.INTER>
-11.6231

>  <SCORE.INTER.CONST>
1

>  <SCORE.INTER.POLAR>
0

>  <SCORE.INTER.ROT>
10

>  <SCORE.INTER.SOLV>
17.27

>  <SCORE.INTER.VDW>
-23.7721

>  <SCORE.INTER.norm>
-0.290577

>  <SCORE.INTRA>
-7.09637

>  <SCORE.INTRA.DIHEDRAL>
-21.0104

>  <SCORE.INTRA.DIHEDRAL.0>
28.2802

>  <SCORE.INTRA.POLAR>
0

>  <SCORE.INTRA.POLAR.0>
0

>  <SCORE.INTRA.REPUL>
0

>  <SCORE.INTRA.REPUL.0>
0

>  <SCORE.INTRA.SOLV>
5.5383

>  <SCORE.INTRA.SOLV.lig_0>
-101.981

>  <SCORE.INTRA.VDW>
0.639687

>  <SCORE.INTRA.VDW.0>
-5.72964

>  <SCORE.INTRA.norm>
-0.177409

>  <SCORE.RESTR>
0

>  <SCORE.RESTR.CAVITY>
0

>  <SCORE.RESTR.norm>
0

>  <SCORE.SYSTEM>
0

>  <SCORE.SYSTEM.CONST>
0

>  <SCORE.SYSTEM.DIHEDRAL>
0

>  <SCORE.SYSTEM.SOLV>
0

>  <SCORE.SYSTEM.norm>
0

>  <SCORE.heavy>
40

>  <SCORE.norm>
-0.467987

>  <RMSD>
7.474

$$$$
ligand
 OpenBabel11021811513D
libRbt.so/2013.1/901 2013/11/27
 40 42  0  0  0  0  0  0  0  0999 V2000
   -5.0424   -9.9234   18.4420 C   0  0  2  0  0  0  0  0  0  0  0  0
   -4.2847  -10.4163   17.3258 O   0  0  0  0  0  0  0  0  0  0  0  0
   -6.5619   -9.7739   18.0571 C   0  0  1  0  0  0  0  0  0  0  0  0
   -6.7720   -8.6776   16.9723 C   0  0  2  0  0  0  0  0  0  0  0  0
   -6.2453   -7.3274   17.5535 C   0  0  2  0  0  0  0  0  0  0  0  0
   -6.4485   -6.2795   16.5814 O   0  0  0  0  0  0  0  0  0  0  0  0
   -4.6994   -7.4929   17.8914 C   0  0  2  0  0  0  0  0  0  0  0  0
   -4.5172   -8.5975   18.8998 O   0  0  0  0  0  0  0  0  0  0  0  0
   -4.0936   -6.2290   18.4863 C   0  0  0  0  0  0  0  0  0  0  0  0
   -2.6491   -6.4204   18.8287 N   0  0  0  0  0  0  0  0  0  0  0  0
    0.0759  -10.9671   17.4321 C   0  0  2  0  0  0  0  0  0  0  0  0
    1.3603  -11.5970   17.6320 N   0  0  0  0  0  0  0  0  0  0  0  0
   -0.7086  -10.9177   18.8050 C   0  0  0  0  0  0  0  0  0  0  0  0
   -2.1313  -10.2289   18.5991 C   0  0  2  0  0  0  0  0  0  0  0  0
   -2.8603  -10.1684   19.8930 N   0  0  0  0  0  0  0  0  0  0  0  0
   -2.9599  -11.0517   17.5066 C   0  0  2  0  0  0  0  0  0  0  0  0
   -2.1327  -11.0742   16.1512 C   0  0  2  0  0  0  0  0  0  0  0  0
   -2.8673  -11.8047   15.1664 O   0  0  0  0  0  0  0  0  0  0  0  0
   -0.7245  -11.7553   16.3709 C   0  0  1  0  0  0  0  0  0  0  0  0
    0.0256  -11.7491   15.1307 O   0  0  0  0  0  0  0  0  0  0  0  0
   -0.3752  -12.3537   13.9480 C   0  0  2  0  0  0  0  0  0  0  0  0
   -0.1927  -13.9031   14.1247 C   0  0  2  0  0  0  0  0  0  0  0  0
   -0.9332  -14.3412   15.2178 O   0  0  0  0  0  0  0  0  0  0  0  0
    1.3368  -14.3042   14.2698 C   0  0  1  0  0  0  0  0  0  0  0  0
    1.4883  -15.7841   14.4243 N   0  0  0  0  0  0  0  0  0  0  0  0
    2.1240  -13.7807   12.9902 C   0  0  2  0  0  0  0  0  0  0  0  0
    3.5115  -14.1305   13.0680 O   0  0  0  0  0  0  0  0  0  0  0  0
    1.9250  -12.2184   12.8969 C   0  0  2  0  0  0  0  0  0  0  0  0
    0.4463  -11.8655   12.8108 O   0  0  0  0  0  0  0  0  0  0  0  0
    2.6307  -11.6499   11.6890 C   0  0  0  0  0  0  0  0  0  0  0  0
    2.0023  -12.0265   10.4496 O   0  0  0  0  0  0  0  0  0  0  0  0
   -7.0434  -11.0658   17.5846 O   0  0  0  0  0  0  0  0  0  0  0  0
   -8.1120   -8.5812   16.6847 O   0  0  0  0  0  0  0  0  0  0  0  0
    2.4702  -10.7947   18.0916 C   0  0  0  0  0  0  0  0  0  0  0  0
    2.4612   -9.5417   17.9043 O   0  0  0  0  0  0  0  0  0  0  0  0
    3.6510  -11.5222   18.8049 C   0  0  2  0  0  0  0  0  0  0  0  0
    3.7302  -10.0378   21.5622 N   0  0  0  0  0  0  0  0  0  0  0  0
    3.2128  -12.0616   20.2016 C   0  0  0  0  0  0  0  0  0  0  0  0
    2.6593  -10.9672   21.1293 C   0  0  0  0  0  0  0  0  0  0  0  0
    4.6354  -10.7500   19.0345 O   0  0  0  0  0  0  0  0  0  0  0  0
  1  2  1  6  0  0  0
  1  3  1  0  0  0  0
  1  8  1  0  0  0  0
  3  4  1  0  0  0  0
  3 32  1  6  0  0  0
  4  5  1  0  0  0  0
  4 33  1  1  0  0  0
  5  6  1  6  0  0  0
  5  7  1  0  0  0  0
  7  8  1  0  0  0  0
  7  9  1  1  0  0  0
  9 10  1  0  0  0  0
 11 12  1  1  0  0  0
 11 13  1  0  0  0  0
 11 19  1  0  0  0  0
 12 34  1  0  0  0  0
 13 14  1  0  0  0  0
 14 15  1  1  0  0  0
 14 16  1  0  0  0  0
 16  2  1  6  0  0  0
 16 17  1  0  0  0  0
 17 18  1  6  0  0  0
 17 19  1  0  0  0  0
 19 20  1  6  0  0  0
 21 20  1  1  0  0  0
 21 22  1  0  0  0  0
 21 29  1  0  0  0  0
 22 23  1  1  0  0  0
 22 24  1  0  0  0  0
 24 25  1  6  0  0  0
 24 26  1  0  0  0  0
 26 27  1  1  0  0  0
 26 28  1  0  0  0  0
 28 29  1  0  0  0  0
 28 30  1  6  0  0  0
 30 31  1  0  0  0  0
 34 35  2  0  0  0  0
 36 34  1  1  0  0  0
 36 38  1  0  0  0  0
 36 40  1  0  0  0  0
 37 39  1  0  0  0  0
 38 39  1  0  0  0  0
M  END
>  <CHROM.1>
-160.16401039,-41.22899214,178.50882721,-84.80014804,-179.85250284,-74.02664222
70.11866885,-69.37733940,-56.76145896,-69.39120070,-1.08250898,-10.84892514
16.68004183,-2.66313304,0.30597836,-2.02731027

>  <Name>
ligand

>  <RI>
0

>  <Rbt.Current_Directory>
/home/itssahil/PROJECTS/Mol_Feturizer/New_Systems/rnas/4P20

>  <Rbt.Executable>
rbdock ($Id: //depot/dev/client3/rdock/2013.1/src/exe/rbdock.cxx#4 $)

>  <Rbt.Library>
libRbt.so (2013.1, Build901 2013/11/27)

>  <Rbt.Parameter_File>
/export/apps/rDock/src/rDock_2013.1_src/data/scripts/dock_solv.prm

>  <Rbt.Receptor>
prm/pocket_docking_4.prm

>  <SCORE>
-5.98038

>  <SCORE.INTER>
-1.3499

>  <SCORE.INTER.CONST>
1

>  <SCORE.INTER.POLAR>
0

>  <SCORE.INTER.ROT>
10

>  <SCORE.INTER.SOLV>
19.8238

>  <SCORE.INTER.VDW>
-17.7745

>  <SCORE.INTER.norm>
-0.0337475

>  <SCORE.INTRA>
-4.63048

>  <SCORE.INTRA.DIHEDRAL>
-21.8877

>  <SCORE.INTRA.DIHEDRAL.0>
28.2802

>  <SCORE.INTRA.POLAR>
0

>  <SCORE.INTRA.POLAR.0>
0

>  <SCORE.INTRA.REPUL>
0

>  <SCORE.INTRA.REPUL.0>
0

>  <SCORE.INTRA.SOLV>
5.03399

>  <SCORE.INTRA.SOLV.lig_0>
-101.981

>  <SCORE.INTRA.VDW>
3.79637

>  <SCORE.INTRA.VDW.0>
-5.72964

>  <SCORE.INTRA.norm>
-0.115762

>  <SCORE.RESTR>
0

>  <SCORE.RESTR.CAVITY>
0

>  <SCORE.RESTR.norm>
0

>  <SCORE.SYSTEM>
0

>  <SCORE.SYSTEM.CONST>
0

>  <SCORE.SYSTEM.DIHEDRAL>
0

>  <SCORE.SYSTEM.SOLV>
0

>  <SCORE.SYSTEM.norm>
0

>  <SCORE.heavy>
40

>  <SCORE.norm>
-0.149509

>  <RMSD>
7.481

$$$$
ligand
 OpenBabel11021811513D
libRbt.so/2013.1/901 2013/11/27
 40 42  0  0  0  0  0  0  0  0999 V2000
    3.6412   -3.0784   22.7586 C   0  0  2  0  0  0  0  0  0  0  0  0
    4.4501   -3.8730   21.8770 O   0  0  0  0  0  0  0  0  0  0  0  0
    2.2810   -2.6929   22.0654 C   0  0  1  0  0  0  0  0  0  0  0  0
    2.5070   -1.7528   20.8455 C   0  0  2  0  0  0  0  0  0  0  0  0
    3.2124   -0.4607   21.3661 C   0  0  2  0  0  0  0  0  0  0  0  0
    3.4151    0.4481   20.2626 O   0  0  0  0  0  0  0  0  0  0  0  0
    4.6025   -0.8740   22.0206 C   0  0  2  0  0  0  0  0  0  0  0  0
    4.3609   -1.8281   23.1614 O   0  0  0  0  0  0  0  0  0  0  0  0
    5.3623    0.3211   22.5798 C   0  0  0  0  0  0  0  0  0  0  0  0
    5.7117    1.3022   21.5046 N   0  0  0  0  0  0  0  0  0  0  0  0
    5.5272   -8.1252   21.5802 C   0  0  2  0  0  0  0  0  0  0  0  0
    5.3864   -9.5625   21.5492 N   0  0  0  0  0  0  0  0  0  0  0  0
    5.0220   -7.5739   22.9743 C   0  0  0  0  0  0  0  0  0  0  0  0
    5.1668   -5.9872   23.0215 C   0  0  2  0  0  0  0  0  0  0  0  0
    4.7071   -5.4725   24.3380 N   0  0  0  0  0  0  0  0  0  0  0  0
    4.3228   -5.3470   21.8237 C   0  0  2  0  0  0  0  0  0  0  0  0
    4.8649   -5.9311   20.4501 C   0  0  2  0  0  0  0  0  0  0  0  0
    4.1187   -5.3615   19.3721 O   0  0  0  0  0  0  0  0  0  0  0  0
    4.7190   -7.5037   20.4189 C   0  0  1  0  0  0  0  0  0  0  0  0
    5.2369   -8.0225   19.1686 O   0  0  0  0  0  0  0  0  0  0  0  0
    4.7577   -7.7009   17.9069 C   0  0  2  0  0  0  0  0  0  0  0  0
    3.3683   -8.4114   17.7345 C   0  0  2  0  0  0  0  0  0  0  0  0
    2.5043   -8.0043   18.7460 O   0  0  0  0  0  0  0  0  0  0  0  0
    3.5137   -9.9923   17.7059 C   0  0  1  0  0  0  0  0  0  0  0  0
    2.1812  -10.6479   17.5285 N   0  0  0  0  0  0  0  0  0  0  0  0
    4.5068  -10.3910   16.5285 C   0  0  2  0  0  0  0  0  0  0  0  0
    4.6614  -11.8136   16.4530 O   0  0  0  0  0  0  0  0  0  0  0  0
    5.8869   -9.6712   16.7859 C   0  0  2  0  0  0  0  0  0  0  0  0
    5.7044   -8.1613   16.8588 O   0  0  0  0  0  0  0  0  0  0  0  0
    6.8793   -9.9878   15.6926 C   0  0  0  0  0  0  0  0  0  0  0  0
    8.1693   -9.3916   15.9232 O   0  0  0  0  0  0  0  0  0  0  0  0
    1.6134   -3.9211   21.6532 O   0  0  0  0  0  0  0  0  0  0  0  0
    1.2908   -1.4394   20.2886 O   0  0  0  0  0  0  0  0  0  0  0  0
    6.3678  -10.3474   20.8367 C   0  0  0  0  0  0  0  0  0  0  0  0
    7.0551   -9.8117   19.9171 O   0  0  0  0  0  0  0  0  0  0  0  0
    6.5345  -11.8457   21.2366 C   0  0  2  0  0  0  0  0  0  0  0  0
    3.9585  -12.3646   22.8651 N   0  0  0  0  0  0  0  0  0  0  0  0
    5.2984  -12.6846   20.7873 C   0  0  0  0  0  0  0  0  0  0  0  0
    3.9747  -12.1887   21.3930 C   0  0  0  0  0  0  0  0  0  0  0  0
    6.6156  -12.0107   22.4953 O   0  0  0  0  0  0  0  0  0  0  0  0
  1  2  1  6  0  0  0
  1  3  1  0  0  0  0
  1  8  1  0  0  0  0
  3  4  1  0  0  0  0
  3 32  1  6  0  0  0
  4  5  1  0  0  0  0
  4 33  1  1  0  0  0
  5  6  1  6  0  0  0
  5  7  1  0  0  0  0
  7  8  1  0  0  0  0
  7  9  1  1  0  0  0
  9 10  1  0  0  0  0
 11 12  1  1  0  0  0
 11 13  1  0  0  0  0
 11 19  1  0  0  0  0
 12 34  1  0  0  0  0
 13 14  1  0  0  0  0
 14 15  1  1  0  0  0
 14 16  1  0  0  0  0
 16  2  1  6  0  0  0
 16 17  1  0  0  0  0
 17 18  1  6  0  0  0
 17 19  1  0  0  0  0
 19 20  1  6  0  0  0
 21 20  1  1  0  0  0
 21 22  1  0  0  0  0
 21 29  1  0  0  0  0
 22 23  1  1  0  0  0
 22 24  1  0  0  0  0
 24 25  1  6  0  0  0
 24 26  1  0  0  0  0
 26 27  1  1  0  0  0
 26 28  1  0  0  0  0
 28 29  1  0  0  0  0
 28 30  1  6  0  0  0
 30 31  1  0  0  0  0
 34 35  2  0  0  0  0
 36 34  1  1  0  0  0
 36 38  1  0  0  0  0
 36 40  1  0  0  0  0
 37 39  1  0  0  0  0
 38 39  1  0  0  0  0
M  END
>  <CHROM.1>
-87.78511431,-81.98621298,-62.06475983,-145.44092482,179.52967275,-72.55975881
-177.59713934,70.77673219,-58.96000952,-65.38448503,4.58572858,-6.78928152
20.28376536,-2.71552652,1.39360079,-1.71232466

>  <Name>
ligand

>  <RI>
0

>  <Rbt.Current_Directory>
/home/itssahil/PROJECTS/Mol_Feturizer/New_Systems/rnas/4P20

>  <Rbt.Executable>
rbdock ($Id: //depot/dev/client3/rdock/2013.1/src/exe/rbdock.cxx#4 $)

>  <Rbt.Library>
libRbt.so (2013.1, Build901 2013/11/27)

>  <Rbt.Parameter_File>
/export/apps/rDock/src/rDock_2013.1_src/data/scripts/dock_solv.prm

>  <Rbt.Receptor>
prm/pocket_docking_8.prm

>  <SCORE>
-17.4937

>  <SCORE.INTER>
-10.5447

>  <SCORE.INTER.CONST>
1

>  <SCORE.INTER.POLAR>
0

>  <SCORE.INTER.ROT>
10

>  <SCORE.INTER.SOLV>
22.1433

>  <SCORE.INTER.VDW>
-24.6775

>  <SCORE.INTER.norm>
-0.263616

>  <SCORE.INTRA>
-6.94906

>  <SCORE.INTRA.DIHEDRAL>
-20.3731

>  <SCORE.INTRA.DIHEDRAL.0>
28.2802

>  <SCORE.INTRA.POLAR>
0

>  <SCORE.INTRA.POLAR.0>
0

>  <SCORE.INTRA.REPUL>
0

>  <SCORE.INTRA.REPUL.0>
0

>  <SCORE.INTRA.SOLV>
4.73063

>  <SCORE.INTRA.SOLV.lig_0>
-101.981

>  <SCORE.INTRA.VDW>
0.872172

>  <SCORE.INTRA.VDW.0>
-5.72964

>  <SCORE.INTRA.norm>
-0.173726

>  <SCORE.RESTR>
0

>  <SCORE.RESTR.CAVITY>
0

>  <SCORE.RESTR.norm>
0

>  <SCORE.SYSTEM>
0

>  <SCORE.SYSTEM.CONST>
0

>  <SCORE.SYSTEM.DIHEDRAL>
0

>  <SCORE.SYSTEM.SOLV>
0

>  <SCORE.SYSTEM.norm>
0

>  <SCORE.heavy>
40

>  <SCORE.norm>
-0.437343

>  <RMSD>
7.481

$$$$
ligand
 OpenBabel11021811513D
libRbt.so/2013.1/901 2013/11/27
 40 42  0  0  0  0  0  0  0  0999 V2000
   -3.9569   -8.4023   17.4445 C   0  0  2  0  0  0  0  0  0  0  0  0
   -2.8203   -8.6101   18.2977 O   0  0  0  0  0  0  0  0  0  0  0  0
   -4.9281   -7.3307   18.0671 C   0  0  1  0  0  0  0  0  0  0  0  0
   -5.5663   -7.8390   19.3928 C   0  0  2  0  0  0  0  0  0  0  0  0
   -6.3648   -9.1406   19.0669 C   0  0  2  0  0  0  0  0  0  0  0  0
   -6.9936   -9.6273   20.2720 O   0  0  0  0  0  0  0  0  0  0  0  0
   -5.3526  -10.2199   18.4820 C   0  0  2  0  0  0  0  0  0  0  0  0
   -4.7058   -9.6820   17.2320 O   0  0  0  0  0  0  0  0  0  0  0  0
   -6.0420  -11.5260   18.1118 C   0  0  0  0  0  0  0  0  0  0  0  0
   -6.6013  -12.2134   19.3182 N   0  0  0  0  0  0  0  0  0  0  0  0
    0.7337  -11.1122   17.6353 C   0  0  2  0  0  0  0  0  0  0  0  0
    1.5649  -12.2886   17.5275 N   0  0  0  0  0  0  0  0  0  0  0  0
    0.1506  -11.0090   19.1023 C   0  0  0  0  0  0  0  0  0  0  0  0
   -0.7736   -9.7170   19.2354 C   0  0  2  0  0  0  0  0  0  0  0  0
   -1.3074   -9.6126   20.6187 N   0  0  0  0  0  0  0  0  0  0  0  0
   -1.9574   -9.8056   18.1641 C   0  0  2  0  0  0  0  0  0  0  0  0
   -1.3230   -9.9092   16.7119 C   0  0  2  0  0  0  0  0  0  0  0  0
   -2.3741   -9.9851   15.7462 O   0  0  0  0  0  0  0  0  0  0  0  0
   -0.4071  -11.1909   16.5958 C   0  0  1  0  0  0  0  0  0  0  0  0
    0.1803  -11.2593   15.2726 O   0  0  0  0  0  0  0  0  0  0  0  0
   -0.4590  -11.7297   14.1346 C   0  0  2  0  0  0  0  0  0  0  0  0
   -0.6211  -13.2834   14.2925 C   0  0  2  0  0  0  0  0  0  0  0  0
   -1.3350  -13.5653   15.4527 O   0  0  0  0  0  0  0  0  0  0  0  0
    0.7823  -14.0263   14.2875 C   0  0  1  0  0  0  0  0  0  0  0  0
    0.6041  -15.5048   14.4262 N   0  0  0  0  0  0  0  0  0  0  0  0
    1.5433  -13.6678   12.9371 C   0  0  2  0  0  0  0  0  0  0  0  0
    2.8144  -14.3269   12.8789 O   0  0  0  0  0  0  0  0  0  0  0  0
    1.7002  -12.0997   12.8639 C   0  0  2  0  0  0  0  0  0  0  0  0
    0.3406  -11.4165   12.9226 O   0  0  0  0  0  0  0  0  0  0  0  0
    2.3994  -11.6803   11.5928 C   0  0  0  0  0  0  0  0  0  0  0  0
    1.7586  -12.1940   10.4103 O   0  0  0  0  0  0  0  0  0  0  0  0
   -4.1722   -6.1058   18.2952 O   0  0  0  0  0  0  0  0  0  0  0  0
   -6.4110   -6.8730   19.8839 O   0  0  0  0  0  0  0  0  0  0  0  0
    2.7902  -12.2132   16.7659 C   0  0  0  0  0  0  0  0  0  0  0  0
    2.9217  -11.3257   15.8714 O   0  0  0  0  0  0  0  0  0  0  0  0
    3.9116  -13.2499   17.0825 C   0  0  2  0  0  0  0  0  0  0  0  0
    5.7617  -15.3556   15.8490 N   0  0  0  0  0  0  0  0  0  0  0  0
    3.4919  -14.6825   16.6298 C   0  0  0  0  0  0  0  0  0  0  0  0
    4.6296  -15.7117   16.7375 C   0  0  0  0  0  0  0  0  0  0  0  0
    4.1525  -13.3460   18.3278 O   0  0  0  0  0  0  0  0  0  0  0  0
  1  2  1  1  0  0  0
  1  3  1  0  0  0  0
  1  8  1  0  0  0  0
  3  4  1  0  0  0  0
  3 32  1  1  0  0  0
  4  5  1  0  0  0  0
  4 33  1  6  0  0  0
  5  6  1  1  0  0  0
  5  7  1  0  0  0  0
  7  8  1  0  0  0  0
  7  9  1  6  0  0  0
  9 10  1  0  0  0  0
 11 12  1  1  0  0  0
 11 13  1  0  0  0  0
 11 19  1  0  0  0  0
 12 34  1  0  0  0  0
 13 14  1  0  0  0  0
 14 15  1  1  0  0  0
 14 16  1  0  0  0  0
 16  2  1  6  0  0  0
 16 17  1  0  0  0  0
 17 18  1  6  0  0  0
 17 19  1  0  0  0  0
 19 20  1  6  0  0  0
 21 20  1  1  0  0  0
 21 22  1  0  0  0  0
 21 29  1  0  0  0  0
 22 23  1  1  0  0  0
 22 24  1  0  0  0  0
 24 25  1  6  0  0  0
 24 26  1  0  0  0  0
 26 27  1  1  0  0  0
 26 28  1  0  0  0  0
 28 29  1  0  0  0  0
 28 30  1  6  0  0  0
 30 31  1  0  0  0  0
 34 35  2  0  0  0  0
 36 34  1  1  0  0  0
 36 38  1  0  0  0  0
 36 40  1  0  0  0  0
 37 39  1  0  0  0  0
 38 39  1  0  0  0  0
M  END
>  <CHROM.1>
162.54520644,178.83741983,-64.99539600,-140.49071751,159.68667426,-70.43345684
54.44131272,69.37096420,172.04022206,-62.50906528,-0.82233608,-11.30169131
16.57914779,2.65239648,-0.48968361,1.45298487

>  <Name>
ligand

>  <RI>
0

>  <Rbt.Current_Directory>
/home/itssahil/PROJECTS/Mol_Feturizer/New_Systems/rnas/4P20

>  <Rbt.Executable>
rbdock ($Id: //depot/dev/client3/rdock/2013.1/src/exe/rbdock.cxx#4 $)

>  <Rbt.Library>
libRbt.so (2013.1, Build901 2013/11/27)

>  <Rbt.Parameter_File>
/export/apps/rDock/src/rDock_2013.1_src/data/scripts/dock_solv.prm

>  <Rbt.Receptor>
prm/pocket_docking_7.prm

>  <SCORE>
-12.4786

>  <SCORE.INTER>
-2.58579

>  <SCORE.INTER.CONST>
1

>  <SCORE.INTER.POLAR>
0

>  <SCORE.INTER.ROT>
10

>  <SCORE.INTER.SOLV>
14.3117

>  <SCORE.INTER.VDW>
-16.7611

>  <SCORE.INTER.norm>
-0.0646447

>  <SCORE.INTRA>
-9.8928

>  <SCORE.INTRA.DIHEDRAL>
-22.2484

>  <SCORE.INTRA.DIHEDRAL.0>
28.2802

>  <SCORE.INTRA.POLAR>
0

>  <SCORE.INTRA.POLAR.0>
0

>  <SCORE.INTRA.REPUL>
0

>  <SCORE.INTRA.REPUL.0>
0

>  <SCORE.INTRA.SOLV>
2.45725

>  <SCORE.INTRA.SOLV.lig_0>
-101.981

>  <SCORE.INTRA.VDW>
0.00275563

>  <SCORE.INTRA.VDW.0>
-5.72964

>  <SCORE.INTRA.norm>
-0.24732

>  <SCORE.RESTR>
0

>  <SCORE.RESTR.CAVITY>
0

>  <SCORE.RESTR.norm>
0

>  <SCORE.SYSTEM>
0

>  <SCORE.SYSTEM.CONST>
0

>  <SCORE.SYSTEM.DIHEDRAL>
0

>  <SCORE.SYSTEM.SOLV>
0

>  <SCORE.SYSTEM.norm>
0

>  <SCORE.heavy>
40

>  <SCORE.norm>
-0.311965

>  <RMSD>
7.482

$$$$
ligand
 OpenBabel11021811513D
libRbt.so/2013.1/901 2013/11/27
 40 42  0  0  0  0  0  0  0  0999 V2000
   -2.1918  -12.1287   18.2984 C   0  0  2  0  0  0  0  0  0  0  0  0
   -1.7890  -10.7789   18.0180 O   0  0  0  0  0  0  0  0  0  0  0  0
   -3.1626  -12.1708   19.5374 C   0  0  1  0  0  0  0  0  0  0  0  0
   -2.4396  -11.7360   20.8456 C   0  0  2  0  0  0  0  0  0  0  0  0
   -1.2502  -12.7201   21.0804 C   0  0  2  0  0  0  0  0  0  0  0  0
   -0.5705  -12.3618   22.3027 O   0  0  0  0  0  0  0  0  0  0  0  0
   -0.2634  -12.6243   19.8359 C   0  0  2  0  0  0  0  0  0  0  0  0
   -1.0012  -12.9943   18.5754 O   0  0  0  0  0  0  0  0  0  0  0  0
    0.9259  -13.5667   19.9605 C   0  0  0  0  0  0  0  0  0  0  0  0
    0.4892  -14.9968   20.0284 N   0  0  0  0  0  0  0  0  0  0  0  0
    0.8483  -11.2767   14.5356 C   0  0  2  0  0  0  0  0  0  0  0  0
    1.6906  -10.9406   13.4114 N   0  0  0  0  0  0  0  0  0  0  0  0
   -0.6045  -10.6961   14.3007 C   0  0  0  0  0  0  0  0  0  0  0  0
   -1.5450  -11.0553   15.5366 C   0  0  2  0  0  0  0  0  0  0  0  0
   -2.9138  -10.5233   15.3068 N   0  0  0  0  0  0  0  0  0  0  0  0
   -0.9077  -10.4534   16.8739 C   0  0  2  0  0  0  0  0  0  0  0  0
    0.5462  -11.0632   17.0641 C   0  0  2  0  0  0  0  0  0  0  0  0
    1.1233  -10.5337   18.2599 O   0  0  0  0  0  0  0  0  0  0  0  0
    1.4655  -10.7032   15.8310 C   0  0  1  0  0  0  0  0  0  0  0  0
    2.7812  -11.2842   16.0102 O   0  0  0  0  0  0  0  0  0  0  0  0
    3.9391  -10.8583   15.3756 C   0  0  2  0  0  0  0  0  0  0  0  0
    5.0811  -11.8688   15.7496 C   0  0  2  0  0  0  0  0  0  0  0  0
    4.7134  -13.1549   15.3676 O   0  0  0  0  0  0  0  0  0  0  0  0
    5.4384  -11.8094   17.2956 C   0  0  1  0  0  0  0  0  0  0  0  0
    6.5359  -12.7698   17.6272 N   0  0  0  0  0  0  0  0  0  0  0  0
    5.8539  -10.3188   17.6652 C   0  0  2  0  0  0  0  0  0  0  0  0
    6.1991  -10.2158   19.0522 O   0  0  0  0  0  0  0  0  0  0  0  0
    4.6502   -9.3681   17.2959 C   0  0  2  0  0  0  0  0  0  0  0  0
    4.3001   -9.4872   15.8188 O   0  0  0  0  0  0  0  0  0  0  0  0
    4.9802   -7.9265   17.6016 C   0  0  0  0  0  0  0  0  0  0  0  0
    5.2417   -7.7003   18.9992 O   0  0  0  0  0  0  0  0  0  0  0  0
   -4.2963  -11.2980   19.2603 O   0  0  0  0  0  0  0  0  0  0  0  0
   -3.3266  -11.8033   21.8926 O   0  0  0  0  0  0  0  0  0  0  0  0
    2.4565  -11.9856   12.7725 C   0  0  0  0  0  0  0  0  0  0  0  0
    2.7389  -13.0409   13.4142 O   0  0  0  0  0  0  0  0  0  0  0  0
    2.9125  -11.7595   11.2983 C   0  0  2  0  0  0  0  0  0  0  0  0
    5.1245   -8.5655   11.5597 N   0  0  0  0  0  0  0  0  0  0  0  0
    3.3896  -10.2903   11.0803 C   0  0  0  0  0  0  0  0  0  0  0  0
    4.7459   -9.9877   11.7389 C   0  0  0  0  0  0  0  0  0  0  0  0
    1.9710  -11.9368   10.4615 O   0  0  0  0  0  0  0  0  0  0  0  0
  1  2  1  1  0  0  0
  1  3  1  0  0  0  0
  1  8  1  0  0  0  0
  3  4  1  0  0  0  0
  3 32  1  6  0  0  0
  4  5  1  0  0  0  0
  4 33  1  1  0  0  0
  5  6  1  1  0  0  0
  5  7  1  0  0  0  0
  7  8  1  0  0  0  0
  7  9  1  1  0  0  0
  9 10  1  0  0  0  0
 11 12  1  6  0  0  0
 11 13  1  0  0  0  0
 11 19  1  0  0  0  0
 12 34  1  0  0  0  0
 13 14  1  0  0  0  0
 14 15  1  6  0  0  0
 14 16  1  0  0  0  0
 16  2  1  1  0  0  0
 16 17  1  0  0  0  0
 17 18  1  1  0  0  0
 17 19  1  0  0  0  0
 19 20  1  1  0  0  0
 21 20  1  1  0  0  0
 21 22  1  0  0  0  0
 21 29  1  0  0  0  0
 22 23  1  1  0  0  0
 22 24  1  0  0  0  0
 24 25  1  6  0  0  0
 24 26  1  0  0  0  0
 26 27  1  1  0  0  0
 26 28  1  0  0  0  0
 28 29  1  0  0  0  0
 28 30  1  6  0  0  0
 30 31  1  0  0  0  0
 34 35  2  0  0  0  0
 36 34  1  1  0  0  0
 36 38  1  0  0  0  0
 36 40  1  0  0  0  0
 37 39  1  0  0  0  0
 38 39  1  0  0  0  0
M  END
>  <CHROM.1>
-178.06687155,53.97030135,61.14575777,-129.52400950,81.11116083,-173.96955410
-61.48604752,40.75803329,72.35793593,-177.27462867,1.59622023,-11.26371019
16.71155687,2.35774491,0.17751437,1.62586772

>  <Name>
ligand

>  <RI>
0

>  <Rbt.Current_Directory>
/home/itssahil/PROJECTS/Mol_Feturizer/New_Systems/rnas/4P20

>  <Rbt.Executable>
rbdock ($Id: //depot/dev/client3/rdock/2013.1/src/exe/rbdock.cxx#4 $)

>  <Rbt.Library>
libRbt.so (2013.1, Build901 2013/11/27)

>  <Rbt.Parameter_File>
/export/apps/rDock/src/rDock_2013.1_src/data/scripts/dock_solv.prm

>  <Rbt.Receptor>
prm/pocket_docking_6.prm

>  <SCORE>
-8.35242

>  <SCORE.INTER>
2.85679

>  <SCORE.INTER.CONST>
1

>  <SCORE.INTER.POLAR>
0

>  <SCORE.INTER.ROT>
10

>  <SCORE.INTER.SOLV>
9.89442

>  <SCORE.INTER.VDW>
-11.6603

>  <SCORE.INTER.norm>
0.0714198

>  <SCORE.INTRA>
-11.2092

>  <SCORE.INTRA.DIHEDRAL>
-23.0484

>  <SCORE.INTRA.DIHEDRAL.0>
28.2802

>  <SCORE.INTRA.POLAR>
0

>  <SCORE.INTRA.POLAR.0>
0

>  <SCORE.INTRA.REPUL>
0

>  <SCORE.INTRA.REPUL.0>
0

>  <SCORE.INTRA.SOLV>
1.256

>  <SCORE.INTRA.SOLV.lig_0>
-101.981

>  <SCORE.INTRA.VDW>
-0.313

>  <SCORE.INTRA.VDW.0>
-5.72964

>  <SCORE.INTRA.norm>
-0.28023

>  <SCORE.RESTR>
0

>  <SCORE.RESTR.CAVITY>
0

>  <SCORE.RESTR.norm>
0

>  <SCORE.SYSTEM>
0

>  <SCORE.SYSTEM.CONST>
0

>  <SCORE.SYSTEM.DIHEDRAL>
0

>  <SCORE.SYSTEM.SOLV>
0

>  <SCORE.SYSTEM.norm>
0

>  <SCORE.heavy>
40

>  <SCORE.norm>
-0.208811

>  <RMSD>
7.512

$$$$
ligand
 OpenBabel11021811513D
libRbt.so/2013.1/901 2013/11/27
 40 42  0  0  0  0  0  0  0  0999 V2000
    4.0297   -3.1114   23.0655 C   0  0  2  0  0  0  0  0  0  0  0  0
    4.5142   -3.8648   21.9427 O   0  0  0  0  0  0  0  0  0  0  0  0
    3.5861   -1.6694   22.6147 C   0  0  1  0  0  0  0  0  0  0  0  0
    4.7972   -0.8277   22.1172 C   0  0  2  0  0  0  0  0  0  0  0  0
    5.8146   -0.7163   23.2965 C   0  0  2  0  0  0  0  0  0  0  0  0
    6.9424    0.0822   22.8781 O   0  0  0  0  0  0  0  0  0  0  0  0
    6.2796   -2.1830   23.7014 C   0  0  2  0  0  0  0  0  0  0  0  0
    5.0827   -2.9947   24.1243 O   0  0  0  0  0  0  0  0  0  0  0  0
    7.2633   -2.1832   24.8635 C   0  0  0  0  0  0  0  0  0  0  0  0
    6.6521   -1.6042   26.1012 N   0  0  0  0  0  0  0  0  0  0  0  0
    5.4950   -8.1323   21.5470 C   0  0  2  0  0  0  0  0  0  0  0  0
    5.3236   -9.5656   21.4946 N   0  0  0  0  0  0  0  0  0  0  0  0
    5.0344   -7.5955   22.9621 C   0  0  0  0  0  0  0  0  0  0  0  0
    5.2134   -6.0132   23.0332 C   0  0  2  0  0  0  0  0  0  0  0  0
    4.7956   -5.5126   24.3690 N   0  0  0  0  0  0  0  0  0  0  0  0
    4.3550   -5.3347   21.8671 C   0  0  2  0  0  0  0  0  0  0  0  0
    4.8522   -5.9053   20.4711 C   0  0  2  0  0  0  0  0  0  0  0  0
    4.0929   -5.3016   19.4212 O   0  0  0  0  0  0  0  0  0  0  0  0
    4.6729   -7.4738   20.4162 C   0  0  1  0  0  0  0  0  0  0  0  0
    5.1502   -7.9809   19.1452 O   0  0  0  0  0  0  0  0  0  0  0  0
    4.6793   -7.5931   17.8991 C   0  0  2  0  0  0  0  0  0  0  0  0
    3.2377   -8.1922   17.7320 C   0  0  2  0  0  0  0  0  0  0  0  0
    2.4213   -7.7460   18.7662 O   0  0  0  0  0  0  0  0  0  0  0  0
    3.2623   -9.7784   17.6641 C   0  0  1  0  0  0  0  0  0  0  0  0
    1.8816  -10.3269   17.4924 N   0  0  0  0  0  0  0  0  0  0  0  0
    4.2057  -10.2219   16.4622 C   0  0  2  0  0  0  0  0  0  0  0  0
    4.2509  -11.6499   16.3509 O   0  0  0  0  0  0  0  0  0  0  0  0
    5.6399   -9.6150   16.7146 C   0  0  2  0  0  0  0  0  0  0  0  0
    5.5736   -8.0978   16.8257 O   0  0  0  0  0  0  0  0  0  0  0  0
    6.5901   -9.9786   15.5986 C   0  0  0  0  0  0  0  0  0  0  0  0
    6.2155   -9.3948   14.3371 O   0  0  0  0  0  0  0  0  0  0  0  0
    2.5863   -1.8060   21.5632 O   0  0  0  0  0  0  0  0  0  0  0  0
    4.3561    0.4206   21.7499 O   0  0  0  0  0  0  0  0  0  0  0  0
    6.3110  -10.3646   20.8066 C   0  0  0  0  0  0  0  0  0  0  0  0
    7.0409   -9.8346   19.9171 O   0  0  0  0  0  0  0  0  0  0  0  0
    6.4308  -11.8705   21.1945 C   0  0  2  0  0  0  0  0  0  0  0  0
    6.1062  -13.7552   18.7704 N   0  0  0  0  0  0  0  0  0  0  0  0
    5.1446  -12.6554   20.7904 C   0  0  0  0  0  0  0  0  0  0  0  0
    5.0209  -12.8798   19.2740 C   0  0  0  0  0  0  0  0  0  0  0  0
    6.5533  -12.0452   22.4485 O   0  0  0  0  0  0  0  0  0  0  0  0
  1  2  1  6  0  0  0
  1  3  1  0  0  0  0
  1  8  1  0  0  0  0
  3  4  1  0  0  0  0
  3 32  1  6  0  0  0
  4  5  1  0  0  0  0
  4 33  1  1  0  0  0
  5  6  1  6  0  0  0
  5  7  1  0  0  0  0
  7  8  1  0  0  0  0
  7  9  1  1  0  0  0
  9 10  1  0  0  0  0
 11 12  1  1  0  0  0
 11 13  1  0  0  0  0
 11 19  1  0  0  0  0
 12 34  1  0  0  0  0
 13 14  1  0  0  0  0
 14 15  1  1  0  0  0
 14 16  1  0  0  0  0
 16  2  1  6  0  0  0
 16 17  1  0  0  0  0
 17 18  1  6  0  0  0
 17 19  1  0  0  0  0
 19 20  1  6  0  0  0
 21 20  1  1  0  0  0
 21 22  1  0  0  0  0
 21 29  1  0  0  0  0
 22 23  1  1  0  0  0
 22 24  1  0  0  0  0
 24 25  1  6  0  0  0
 24 26  1  0  0  0  0
 26 27  1  1  0  0  0
 26 28  1  0  0  0  0
 28 29  1  0  0  0  0
 28 30  1  6  0  0  0
 30 31  1  0  0  0  0
 34 35  2  0  0  0  0
 36 34  1  1  0  0  0
 36 38  1  0  0  0  0
 36 40  1  0  0  0  0
 37 39  1  0  0  0  0
 38 39  1  0  0  0  0
M  END
>  <CHROM.1>
-148.54344367,-65.20706405,61.78555894,-142.11634063,-178.13590366,-71.31253108
65.24392885,66.46359499,72.90913989,65.02159018,5.03661826,-6.85749612,20.51527822
-1.54060986,1.24455084,-2.65121388

>  <Name>
ligand

>  <RI>
0

>  <Rbt.Current_Directory>
/home/itssahil/PROJECTS/Mol_Feturizer/New_Systems/rnas/4P20

>  <Rbt.Executable>
rbdock ($Id: //depot/dev/client3/rdock/2013.1/src/exe/rbdock.cxx#4 $)

>  <Rbt.Library>
libRbt.so (2013.1, Build901 2013/11/27)

>  <Rbt.Parameter_File>
/export/apps/rDock/src/rDock_2013.1_src/data/scripts/dock_solv.prm

>  <Rbt.Receptor>
prm/pocket_docking_7.prm

>  <SCORE>
-16.9284

>  <SCORE.INTER>
-9.30083

>  <SCORE.INTER.CONST>
1

>  <SCORE.INTER.POLAR>
0

>  <SCORE.INTER.ROT>
10

>  <SCORE.INTER.SOLV>
15.4296

>  <SCORE.INTER.VDW>
-21.6104

>  <SCORE.INTER.norm>
-0.232521

>  <SCORE.INTRA>
-7.62758

>  <SCORE.INTRA.DIHEDRAL>
-21.1768

>  <SCORE.INTRA.DIHEDRAL.0>
28.2802

>  <SCORE.INTRA.POLAR>
0

>  <SCORE.INTRA.POLAR.0>
0

>  <SCORE.INTRA.REPUL>
0

>  <SCORE.INTRA.REPUL.0>
0

>  <SCORE.INTRA.SOLV>
5.236

>  <SCORE.INTRA.SOLV.lig_0>
-101.981

>  <SCORE.INTRA.VDW>
0.342832

>  <SCORE.INTRA.VDW.0>
-5.72964

>  <SCORE.INTRA.norm>
-0.190689

>  <SCORE.RESTR>
0

>  <SCORE.RESTR.CAVITY>
0

>  <SCORE.RESTR.norm>
0

>  <SCORE.SYSTEM>
0

>  <SCORE.SYSTEM.CONST>
0

>  <SCORE.SYSTEM.DIHEDRAL>
0

>  <SCORE.SYSTEM.SOLV>
0

>  <SCORE.SYSTEM.norm>
0

>  <SCORE.heavy>
40

>  <SCORE.norm>
-0.42321

>  <RMSD>
7.540

$$$$
ligand
 OpenBabel11021811513D
libRbt.so/2013.1/901 2013/11/27
 40 42  0  0  0  0  0  0  0  0999 V2000
    0.6984  -10.9337   13.5430 C   0  0  2  0  0  0  0  0  0  0  0  0
    0.3243  -12.1670   14.1772 O   0  0  0  0  0  0  0  0  0  0  0  0
    1.8164  -11.1835   12.4627 C   0  0  1  0  0  0  0  0  0  0  0  0
    3.1448  -11.6656   13.1152 C   0  0  2  0  0  0  0  0  0  0  0  0
    3.6163  -10.5561   14.1077 C   0  0  2  0  0  0  0  0  0  0  0  0
    4.8632  -10.9588   14.7140 O   0  0  0  0  0  0  0  0  0  0  0  0
    2.4891  -10.3561   15.2126 C   0  0  2  0  0  0  0  0  0  0  0  0
    1.1991   -9.9456   14.5511 O   0  0  0  0  0  0  0  0  0  0  0  0
    2.8473   -9.2742   16.2223 C   0  0  0  0  0  0  0  0  0  0  0  0
    1.8509   -9.2116   17.3376 N   0  0  0  0  0  0  0  0  0  0  0  0
   -3.1627  -13.0952   16.6889 C   0  0  2  0  0  0  0  0  0  0  0  0
   -4.0390  -13.1280   17.8368 N   0  0  0  0  0  0  0  0  0  0  0  0
   -1.7704  -13.7441   17.0673 C   0  0  0  0  0  0  0  0  0  0  0  0
   -0.7903  -13.7106   15.8106 C   0  0  2  0  0  0  0  0  0  0  0  0
    0.5116  -14.3355   16.1630 N   0  0  0  0  0  0  0  0  0  0  0  0
   -0.5952  -12.1958   15.3371 C   0  0  2  0  0  0  0  0  0  0  0  0
   -2.0167  -11.5898   14.9712 C   0  0  2  0  0  0  0  0  0  0  0  0
   -1.8524  -10.2361   14.5428 O   0  0  0  0  0  0  0  0  0  0  0  0
   -2.9783  -11.6331   16.2237 C   0  0  1  0  0  0  0  0  0  0  0  0
   -4.2767  -11.0964   15.8678 O   0  0  0  0  0  0  0  0  0  0  0  0
   -5.3328  -10.9028   16.7465 C   0  0  2  0  0  0  0  0  0  0  0  0
   -6.6090  -10.5868   15.8882 C   0  0  2  0  0  0  0  0  0  0  0  0
   -6.8471  -11.6304   14.9997 O   0  0  0  0  0  0  0  0  0  0  0  0
   -6.4776   -9.2012   15.1239 C   0  0  1  0  0  0  0  0  0  0  0  0
   -7.7079   -8.9143   14.3233 N   0  0  0  0  0  0  0  0  0  0  0  0
   -6.2122   -8.0532   16.1930 C   0  0  2  0  0  0  0  0  0  0  0  0
   -6.0987   -6.7769   15.5515 O   0  0  0  0  0  0  0  0  0  0  0  0
   -4.9012   -8.4192   16.9906 C   0  0  2  0  0  0  0  0  0  0  0  0
   -5.0412   -9.7754   17.6687 O   0  0  0  0  0  0  0  0  0  0  0  0
   -4.5949   -7.3801   18.0426 C   0  0  0  0  0  0  0  0  0  0  0  0
   -5.5979   -7.3203   19.0737 O   0  0  0  0  0  0  0  0  0  0  0  0
    1.3212  -12.1705   11.5115 O   0  0  0  0  0  0  0  0  0  0  0  0
    4.0854  -11.8551   12.1318 O   0  0  0  0  0  0  0  0  0  0  0  0
   -4.9577  -14.2329   17.9855 C   0  0  0  0  0  0  0  0  0  0  0  0
   -5.3093  -14.9004   16.9677 O   0  0  0  0  0  0  0  0  0  0  0  0
   -5.4873  -14.5544   19.4168 C   0  0  2  0  0  0  0  0  0  0  0  0
   -3.9143  -12.9491   21.5428 N   0  0  0  0  0  0  0  0  0  0  0  0
   -4.3400  -15.0855   20.3306 C   0  0  0  0  0  0  0  0  0  0  0  0
   -3.3078  -14.0067   20.6991 C   0  0  0  0  0  0  0  0  0  0  0  0
   -6.3713  -15.4691   19.4181 O   0  0  0  0  0  0  0  0  0  0  0  0
  1  2  1  1  0  0  0
  1  3  1  0  0  0  0
  1  8  1  0  0  0  0
  3  4  1  0  0  0  0
  3 32  1  6  0  0  0
  4  5  1  0  0  0  0
  4 33  1  6  0  0  0
  5  6  1  1  0  0  0
  5  7  1  0  0  0  0
  7  8  1  0  0  0  0
  7  9  1  1  0  0  0
  9 10  1  0  0  0  0
 11 12  1  1  0  0  0
 11 13  1  0  0  0  0
 11 19  1  0  0  0  0
 12 34  1  0  0  0  0
 13 14  1  0  0  0  0
 14 15  1  1  0  0  0
 14 16  1  0  0  0  0
 16  2  1  6  0  0  0
 16 17  1  0  0  0  0
 17 18  1  1  0  0  0
 17 19  1  0  0  0  0
 19 20  1  6  0  0  0
 21 20  1  6  0  0  0
 21 22  1  0  0  0  0
 21 29  1  0  0  0  0
 22 23  1  6  0  0  0
 22 24  1  0  0  0  0
 24 25  1  1  0  0  0
 24 26  1  0  0  0  0
 26 27  1  6  0  0  0
 26 28  1  0  0  0  0
 28 29  1  0  0  0  0
 28 30  1  1  0  0  0
 30 31  1  0  0  0  0
 34 35  2  0  0  0  0
 36 34  1  6  0  0  0
 36 38  1  0  0  0  0
 36 40  1  0  0  0  0
 37 39  1  0  0  0  0
 38 39  1  0  0  0  0
M  END
>  <CHROM.1>
172.93540434,-179.36501256,-173.46936030,-94.11655366,64.51369973,-168.70119818
64.81982858,-67.57869491,69.94421867,65.61761759,-2.29218016,-11.36333480
16.14531449,0.22966394,0.36673255,-0.51922127

>  <Name>
ligand

>  <RI>
0

>  <Rbt.Current_Directory>
/home/itssahil/PROJECTS/Mol_Feturizer/New_Systems/rnas/4P20

>  <Rbt.Executable>
rbdock ($Id: //depot/dev/client3/rdock/2013.1/src/exe/rbdock.cxx#4 $)

>  <Rbt.Library>
libRbt.so (2013.1, Build901 2013/11/27)

>  <Rbt.Parameter_File>
/export/apps/rDock/src/rDock_2013.1_src/data/scripts/dock_solv.prm

>  <Rbt.Receptor>
prm/pocket_docking_6.prm

>  <SCORE>
-13.194

>  <SCORE.INTER>
-1.76696

>  <SCORE.INTER.CONST>
1

>  <SCORE.INTER.POLAR>
0

>  <SCORE.INTER.ROT>
10

>  <SCORE.INTER.SOLV>
14.7147

>  <SCORE.INTER.VDW>
-16.3496

>  <SCORE.INTER.norm>
-0.0441741

>  <SCORE.INTRA>
-11.4271

>  <SCORE.INTRA.DIHEDRAL>
-25.0218

>  <SCORE.INTRA.DIHEDRAL.0>
28.2802

>  <SCORE.INTRA.POLAR>
0

>  <SCORE.INTRA.POLAR.0>
0

>  <SCORE.INTRA.REPUL>
0

>  <SCORE.INTRA.REPUL.0>
0

>  <SCORE.INTRA.SOLV>
-0.206293

>  <SCORE.INTRA.SOLV.lig_0>
-101.981

>  <SCORE.INTRA.VDW>
1.18699

>  <SCORE.INTRA.VDW.0>
-5.72964

>  <SCORE.INTRA.norm>
-0.285676

>  <SCORE.RESTR>
0

>  <SCORE.RESTR.CAVITY>
0

>  <SCORE.RESTR.norm>
0

>  <SCORE.SYSTEM>
0

>  <SCORE.SYSTEM.CONST>
0

>  <SCORE.SYSTEM.DIHEDRAL>
0

>  <SCORE.SYSTEM.SOLV>
0

>  <SCORE.SYSTEM.norm>
0

>  <SCORE.heavy>
40

>  <SCORE.norm>
-0.32985

>  <RMSD>
7.542

$$$$
ligand
 OpenBabel11021811513D
libRbt.so/2013.1/901 2013/11/27
 40 42  0  0  0  0  0  0  0  0999 V2000
   -1.9666   -9.1321   20.6362 C   0  0  2  0  0  0  0  0  0  0  0  0
   -1.5116  -10.2734   19.8922 O   0  0  0  0  0  0  0  0  0  0  0  0
   -2.4406   -9.5621   22.0749 C   0  0  1  0  0  0  0  0  0  0  0  0
   -3.7014  -10.4728   22.0134 C   0  0  2  0  0  0  0  0  0  0  0  0
   -4.8370   -9.6647   21.3093 C   0  0  2  0  0  0  0  0  0  0  0  0
   -6.0332  -10.4714   21.2577 O   0  0  0  0  0  0  0  0  0  0  0  0
   -4.3494   -9.2823   19.8438 C   0  0  2  0  0  0  0  0  0  0  0  0
   -3.0966   -8.4496   19.9284 O   0  0  0  0  0  0  0  0  0  0  0  0
   -5.3848   -8.4703   19.0778 C   0  0  0  0  0  0  0  0  0  0  0  0
   -4.9567   -8.2275   17.6642 N   0  0  0  0  0  0  0  0  0  0  0  0
    1.2277  -10.9059   16.5119 C   0  0  2  0  0  0  0  0  0  0  0  0
    1.8256  -10.7663   15.2044 N   0  0  0  0  0  0  0  0  0  0  0  0
   -0.2750  -11.3765   16.3592 C   0  0  0  0  0  0  0  0  0  0  0  0
   -0.9500  -11.5304   17.7950 C   0  0  2  0  0  0  0  0  0  0  0  0
   -2.3567  -11.9884   17.6504 N   0  0  0  0  0  0  0  0  0  0  0  0
   -0.8739  -10.1303   18.5638 C   0  0  2  0  0  0  0  0  0  0  0  0
    0.6498   -9.7011   18.6901 C   0  0  2  0  0  0  0  0  0  0  0  0
    0.7286   -8.4515   19.3797 O   0  0  0  0  0  0  0  0  0  0  0  0
    1.3066   -9.5564   17.2608 C   0  0  1  0  0  0  0  0  0  0  0  0
    2.7012   -9.1851   17.3939 O   0  0  0  0  0  0  0  0  0  0  0  0
    3.1649   -7.9660   17.8670 C   0  0  2  0  0  0  0  0  0  0  0  0
    4.6185   -7.7652   17.3086 C   0  0  2  0  0  0  0  0  0  0  0  0
    4.5988   -7.8181   15.9186 O   0  0  0  0  0  0  0  0  0  0  0  0
    5.6333   -8.8288   17.9090 C   0  0  1  0  0  0  0  0  0  0  0  0
    7.0129   -8.6116   17.3740 N   0  0  0  0  0  0  0  0  0  0  0  0
    5.6121   -8.7134   19.4956 C   0  0  2  0  0  0  0  0  0  0  0  0
    6.5244   -9.6475   20.0860 O   0  0  0  0  0  0  0  0  0  0  0  0
    4.1329   -8.9599   19.9857 C   0  0  2  0  0  0  0  0  0  0  0  0
    3.1787   -7.9565   19.3523 O   0  0  0  0  0  0  0  0  0  0  0  0
    4.0300   -8.8457   21.4880 C   0  0  0  0  0  0  0  0  0  0  0  0
    2.7135   -9.1576   21.9803 O   0  0  0  0  0  0  0  0  0  0  0  0
   -1.3380  -10.2517   22.7328 O   0  0  0  0  0  0  0  0  0  0  0  0
   -4.0774  -10.8064   23.2920 O   0  0  0  0  0  0  0  0  0  0  0  0
    2.1336  -11.9556   14.4443 C   0  0  0  0  0  0  0  0  0  0  0  0
    2.2982  -13.0600   15.0428 O   0  0  0  0  0  0  0  0  0  0  0  0
    2.2566  -11.8206   12.8954 C   0  0  2  0  0  0  0  0  0  0  0  0
    4.3801   -9.4088   10.6966 N   0  0  0  0  0  0  0  0  0  0  0  0
    3.1646  -10.6120   12.5104 C   0  0  0  0  0  0  0  0  0  0  0  0
    3.4542  -10.5256   11.0025 C   0  0  0  0  0  0  0  0  0  0  0  0
    1.1381  -11.5957   12.3329 O   0  0  0  0  0  0  0  0  0  0  0  0
  1  2  1  6  0  0  0
  1  3  1  0  0  0  0
  1  8  1  0  0  0  0
  3  4  1  0  0  0  0
  3 32  1  6  0  0  0
  4  5  1  0  0  0  0
  4 33  1  1  0  0  0
  5  6  1  6  0  0  0
  5  7  1  0  0  0  0
  7  8  1  0  0  0  0
  7  9  1  1  0  0  0
  9 10  1  0  0  0  0
 11 12  1  6  0  0  0
 11 13  1  0  0  0  0
 11 19  1  0  0  0  0
 12 34  1  0  0  0  0
 13 14  1  0  0  0  0
 14 15  1  6  0  0  0
 14 16  1  0  0  0  0
 16  2  1  1  0  0  0
 16 17  1  0  0  0  0
 17 18  1  6  0  0  0
 17 19  1  0  0  0  0
 19 20  1  1  0  0  0
 21 20  1  1  0  0  0
 21 22  1  0  0  0  0
 21 29  1  0  0  0  0
 22 23  1  6  0  0  0
 22 24  1  0  0  0  0
 24 25  1  6  0  0  0
 24 26  1  0  0  0  0
 26 27  1  1  0  0  0
 26 28  1  0  0  0  0
 28 29  1  0  0  0  0
 28 30  1  1  0  0  0
 30 31  1  0  0  0  0
 34 35  2  0  0  0  0
 36 34  1  1  0  0  0
 36 38  1  0  0  0  0
 36 40  1  0  0  0  0
 37 39  1  0  0  0  0
 38 39  1  0  0  0  0
M  END
>  <CHROM.1>
-173.20820942,-160.46772910,-174.91303263,-71.95134264,171.91139097,-157.15646583
-175.88341704,48.06662407,173.37213902,-176.82162706,0.75109518,-9.79403589
18.09690929,-2.50324040,-0.17037632,-1.81017502

>  <Name>
ligand

>  <RI>
0

>  <Rbt.Current_Directory>
/home/itssahil/PROJECTS/Mol_Feturizer/New_Systems/rnas/4P20

>  <Rbt.Executable>
rbdock ($Id: //depot/dev/client3/rdock/2013.1/src/exe/rbdock.cxx#4 $)

>  <Rbt.Library>
libRbt.so (2013.1, Build901 2013/11/27)

>  <Rbt.Parameter_File>
/export/apps/rDock/src/rDock_2013.1_src/data/scripts/dock_solv.prm

>  <Rbt.Receptor>
prm/pocket_docking_7.prm

>  <SCORE>
-7.7732

>  <SCORE.INTER>
2.54128

>  <SCORE.INTER.CONST>
1

>  <SCORE.INTER.POLAR>
0

>  <SCORE.INTER.ROT>
10

>  <SCORE.INTER.SOLV>
17.2094

>  <SCORE.INTER.VDW>
-14.309

>  <SCORE.INTER.norm>
0.063532

>  <SCORE.INTRA>
-10.3145

>  <SCORE.INTRA.DIHEDRAL>
-22.2897

>  <SCORE.INTRA.DIHEDRAL.0>
28.2802

>  <SCORE.INTRA.POLAR>
0

>  <SCORE.INTRA.POLAR.0>
0

>  <SCORE.INTRA.REPUL>
0.00635121

>  <SCORE.INTRA.REPUL.0>
0

>  <SCORE.INTRA.SOLV>
-1.83167

>  <SCORE.INTRA.SOLV.lig_0>
-101.981

>  <SCORE.INTRA.VDW>
1.71447

>  <SCORE.INTRA.VDW.0>
-5.72964

>  <SCORE.INTRA.norm>
-0.257862

>  <SCORE.RESTR>
0

>  <SCORE.RESTR.CAVITY>
0

>  <SCORE.RESTR.norm>
0

>  <SCORE.SYSTEM>
0

>  <SCORE.SYSTEM.CONST>
0

>  <SCORE.SYSTEM.DIHEDRAL>
0

>  <SCORE.SYSTEM.SOLV>
0

>  <SCORE.SYSTEM.norm>
0

>  <SCORE.heavy>
40

>  <SCORE.norm>
-0.19433

>  <RMSD>
7.565

$$$$
ligand
 OpenBabel11021811513D
libRbt.so/2013.1/901 2013/11/27
 40 42  0  0  0  0  0  0  0  0999 V2000
   -4.0616   -7.6206   18.1240 C   0  0  2  0  0  0  0  0  0  0  0  0
   -3.2753   -8.2380   17.0927 O   0  0  0  0  0  0  0  0  0  0  0  0
   -4.7414   -8.7135   19.0311 C   0  0  1  0  0  0  0  0  0  0  0  0
   -5.7884   -9.5466   18.2358 C   0  0  2  0  0  0  0  0  0  0  0  0
   -6.8753   -8.5598   17.7037 C   0  0  2  0  0  0  0  0  0  0  0  0
   -7.8799   -9.3033   16.9807 O   0  0  0  0  0  0  0  0  0  0  0  0
   -6.1688   -7.4950   16.7557 C   0  0  2  0  0  0  0  0  0  0  0  0
   -5.1210   -6.7417   17.5334 O   0  0  0  0  0  0  0  0  0  0  0  0
   -7.1471   -6.4698   16.1989 C   0  0  0  0  0  0  0  0  0  0  0  0
   -8.0889   -7.0876   15.2131 N   0  0  0  0  0  0  0  0  0  0  0  0
    1.0130   -9.2022   16.9893 C   0  0  2  0  0  0  0  0  0  0  0  0
    2.2687   -9.8420   17.3059 N   0  0  0  0  0  0  0  0  0  0  0  0
    0.4299   -8.5099   18.2867 C   0  0  0  0  0  0  0  0  0  0  0  0
   -0.9595   -7.8030   17.9537 C   0  0  2  0  0  0  0  0  0  0  0  0
   -1.4979   -7.1391   19.1698 N   0  0  0  0  0  0  0  0  0  0  0  0
   -1.9826   -8.8952   17.3904 C   0  0  2  0  0  0  0  0  0  0  0  0
   -1.3532   -9.5611   16.0934 C   0  0  2  0  0  0  0  0  0  0  0  0
   -2.2626  -10.5370   15.5798 O   0  0  0  0  0  0  0  0  0  0  0  0
    0.0243  -10.2537   16.4371 C   0  0  1  0  0  0  0  0  0  0  0  0
    0.5952  -10.8378   15.2398 O   0  0  0  0  0  0  0  0  0  0  0  0
   -0.0904  -11.6254   14.3262 C   0  0  2  0  0  0  0  0  0  0  0  0
   -0.0203  -13.1088   14.8356 C   0  0  2  0  0  0  0  0  0  0  0  0
   -0.5620  -13.1920   16.1142 O   0  0  0  0  0  0  0  0  0  0  0  0
    1.4632  -13.6742   14.8030 C   0  0  1  0  0  0  0  0  0  0  0  0
    1.5051  -15.0911   15.2799 N   0  0  0  0  0  0  0  0  0  0  0  0
    2.0206  -13.5556   13.3176 C   0  0  2  0  0  0  0  0  0  0  0  0
    3.3567  -14.0667   13.2332 O   0  0  0  0  0  0  0  0  0  0  0  0
    1.9524  -12.0392   12.8876 C   0  0  2  0  0  0  0  0  0  0  0  0
    0.5259  -11.5145   12.9792 O   0  0  0  0  0  0  0  0  0  0  0  0
    2.4490  -11.8502   11.4741 C   0  0  0  0  0  0  0  0  0  0  0  0
    1.6185  -12.5095   10.5003 O   0  0  0  0  0  0  0  0  0  0  0  0
   -3.6969   -9.5760   19.5689 O   0  0  0  0  0  0  0  0  0  0  0  0
   -6.3573  -10.4730   19.0759 O   0  0  0  0  0  0  0  0  0  0  0  0
    3.4931   -9.0874   17.1710 C   0  0  0  0  0  0  0  0  0  0  0  0
    3.5318   -8.0832   16.3997 O   0  0  0  0  0  0  0  0  0  0  0  0
    4.7337   -9.5560   17.9919 C   0  0  2  0  0  0  0  0  0  0  0  0
    3.7354  -10.3686   20.7774 N   0  0  0  0  0  0  0  0  0  0  0  0
    4.8850   -8.7212   19.3010 C   0  0  0  0  0  0  0  0  0  0  0  0
    3.7493   -8.9617   20.3098 C   0  0  0  0  0  0  0  0  0  0  0  0
    5.8270   -9.3969   17.3614 O   0  0  0  0  0  0  0  0  0  0  0  0
  1  2  1  6  0  0  0
  1  3  1  0  0  0  0
  1  8  1  0  0  0  0
  3  4  1  0  0  0  0
  3 32  1  6  0  0  0
  4  5  1  0  0  0  0
  4 33  1  1  0  0  0
  5  6  1  6  0  0  0
  5  7  1  0  0  0  0
  7  8  1  0  0  0  0
  7  9  1  1  0  0  0
  9 10  1  0  0  0  0
 11 12  1  1  0  0  0
 11 13  1  0  0  0  0
 11 19  1  0  0  0  0
 12 34  1  0  0  0  0
 13 14  1  0  0  0  0
 14 15  1  1  0  0  0
 14 16  1  0  0  0  0
 16  2  1  6  0  0  0
 16 17  1  0  0  0  0
 17 18  1  1  0  0  0
 17 19  1  0  0  0  0
 19 20  1  6  0  0  0
 21 20  1  1  0  0  0
 21 22  1  0  0  0  0
 21 29  1  0  0  0  0
 22 23  1  1  0  0  0
 22 24  1  0  0  0  0
 24 25  1  6  0  0  0
 24 26  1  0  0  0  0
 26 27  1  1  0  0  0
 26 28  1  0  0  0  0
 28 29  1  0  0  0  0
 28 30  1  6  0  0  0
 30 31  1  0  0  0  0
 34 35  2  0  0  0  0
 36 34  1  6  0  0  0
 36 38  1  0  0  0  0
 36 40  1  0  0  0  0
 37 39  1  0  0  0  0
 38 39  1  0  0  0  0
M  END
>  <CHROM.1>
-73.12121879,-62.83929444,-69.28183152,-89.86990217,-167.08258536,-86.80275472
64.50140722,-98.06341743,66.89081086,63.11464002,-0.73237104,-9.98720828
16.50092448,-2.75974728,0.14801044,-2.20238155

>  <Name>
ligand

>  <RI>
0

>  <Rbt.Current_Directory>
/home/itssahil/PROJECTS/Mol_Feturizer/New_Systems/rnas/4P20

>  <Rbt.Executable>
rbdock ($Id: //depot/dev/client3/rdock/2013.1/src/exe/rbdock.cxx#4 $)

>  <Rbt.Library>
libRbt.so (2013.1, Build901 2013/11/27)

>  <Rbt.Parameter_File>
/export/apps/rDock/src/rDock_2013.1_src/data/scripts/dock_solv.prm

>  <Rbt.Receptor>
prm/pocket_docking_4.prm

>  <SCORE>
-12.2151

>  <SCORE.INTER>
-5.6012

>  <SCORE.INTER.CONST>
1

>  <SCORE.INTER.POLAR>
0

>  <SCORE.INTER.ROT>
10

>  <SCORE.INTER.SOLV>
14.7843

>  <SCORE.INTER.VDW>
-18.9289

>  <SCORE.INTER.norm>
-0.14003

>  <SCORE.INTRA>
-6.63966

>  <SCORE.INTRA.DIHEDRAL>
-20.4829

>  <SCORE.INTRA.DIHEDRAL.0>
28.2802

>  <SCORE.INTRA.POLAR>
0

>  <SCORE.INTRA.POLAR.0>
0

>  <SCORE.INTRA.REPUL>
0

>  <SCORE.INTRA.REPUL.0>
0

>  <SCORE.INTRA.SOLV>
3.35027

>  <SCORE.INTRA.SOLV.lig_0>
-101.981

>  <SCORE.INTRA.VDW>
1.92663

>  <SCORE.INTRA.VDW.0>
-5.72964

>  <SCORE.INTRA.norm>
-0.165992

>  <SCORE.RESTR>
0.0257231

>  <SCORE.RESTR.CAVITY>
0.0257231

>  <SCORE.RESTR.norm>
0.000643076

>  <SCORE.SYSTEM>
0

>  <SCORE.SYSTEM.CONST>
0

>  <SCORE.SYSTEM.DIHEDRAL>
0

>  <SCORE.SYSTEM.SOLV>
0

>  <SCORE.SYSTEM.norm>
0

>  <SCORE.heavy>
40

>  <SCORE.norm>
-0.305378

>  <RMSD>
7.580

$$$$
ligand
 OpenBabel11021811513D
libRbt.so/2013.1/901 2013/11/27
 40 42  0  0  0  0  0  0  0  0999 V2000
   -3.8952   -7.8174   17.7282 C   0  0  2  0  0  0  0  0  0  0  0  0
   -3.3764   -9.0063   17.1115 O   0  0  0  0  0  0  0  0  0  0  0  0
   -4.2484   -8.0863   19.2390 C   0  0  1  0  0  0  0  0  0  0  0  0
   -5.4201   -9.1012   19.3806 C   0  0  2  0  0  0  0  0  0  0  0  0
   -6.6626   -8.4965   18.6535 C   0  0  2  0  0  0  0  0  0  0  0  0
   -7.7793   -9.4018   18.7871 O   0  0  0  0  0  0  0  0  0  0  0  0
   -6.2929   -8.2771   17.1216 C   0  0  2  0  0  0  0  0  0  0  0  0
   -5.1206   -7.3367   17.0136 O   0  0  0  0  0  0  0  0  0  0  0  0
   -7.4396   -7.6684   16.3261 C   0  0  0  0  0  0  0  0  0  0  0  0
   -7.0926   -7.5350   14.8761 N   0  0  0  0  0  0  0  0  0  0  0  0
    0.7265  -10.5344   16.7104 C   0  0  2  0  0  0  0  0  0  0  0  0
    2.0271  -11.0447   17.0770 N   0  0  0  0  0  0  0  0  0  0  0  0
    0.5168   -9.1060   17.3575 C   0  0  0  0  0  0  0  0  0  0  0  0
   -0.9174   -8.5316   16.9654 C   0  0  2  0  0  0  0  0  0  0  0  0
   -1.1062   -7.1826   17.5605 N   0  0  0  0  0  0  0  0  0  0  0  0
   -2.0453   -9.5479   17.4671 C   0  0  2  0  0  0  0  0  0  0  0  0
   -1.7912  -10.9633   16.7933 C   0  0  2  0  0  0  0  0  0  0  0  0
   -2.7973  -11.8786   17.2330 O   0  0  0  0  0  0  0  0  0  0  0  0
   -0.3657  -11.5183   17.1870 C   0  0  1  0  0  0  0  0  0  0  0  0
   -0.1412  -12.7995   16.5478 O   0  0  0  0  0  0  0  0  0  0  0  0
   -0.6744  -13.1919   15.3285 C   0  0  2  0  0  0  0  0  0  0  0  0
   -0.2621  -14.6884   15.0928 C   0  0  2  0  0  0  0  0  0  0  0  0
   -0.7211  -15.4731   16.1457 O   0  0  0  0  0  0  0  0  0  0  0  0
    1.3065  -14.8451   14.9018 C   0  0  1  0  0  0  0  0  0  0  0  0
    1.6754  -16.2752   14.6664 N   0  0  0  0  0  0  0  0  0  0  0  0
    1.7649  -13.9298   13.6839 C   0  0  2  0  0  0  0  0  0  0  0  0
    3.1759  -14.0468   13.4624 O   0  0  0  0  0  0  0  0  0  0  0  0
    1.3505  -12.4419   14.0051 C   0  0  2  0  0  0  0  0  0  0  0  0
   -0.1513  -12.3357   14.2331 O   0  0  0  0  0  0  0  0  0  0  0  0
    1.7372  -11.5128   12.8792 C   0  0  0  0  0  0  0  0  0  0  0  0
    3.1618  -11.4370   12.6854 O   0  0  0  0  0  0  0  0  0  0  0  0
   -3.0523   -8.5831   19.9071 O   0  0  0  0  0  0  0  0  0  0  0  0
   -5.6936   -9.2882   20.7140 O   0  0  0  0  0  0  0  0  0  0  0  0
    3.2008  -10.4955   16.4384 C   0  0  0  0  0  0  0  0  0  0  0  0
    3.0965   -9.9297   15.3097 O   0  0  0  0  0  0  0  0  0  0  0  0
    4.5664  -10.6322   17.1791 C   0  0  2  0  0  0  0  0  0  0  0  0
    6.0253  -11.2365   19.8207 N   0  0  0  0  0  0  0  0  0  0  0  0
    4.6117   -9.7159   18.4408 C   0  0  0  0  0  0  0  0  0  0  0  0
    5.9054   -9.8701   19.2579 C   0  0  0  0  0  0  0  0  0  0  0  0
    5.5517  -10.2682   16.4615 O   0  0  0  0  0  0  0  0  0  0  0  0
  1  2  1  6  0  0  0
  1  3  1  0  0  0  0
  1  8  1  0  0  0  0
  3  4  1  0  0  0  0
  3 32  1  1  0  0  0
  4  5  1  0  0  0  0
  4 33  1  1  0  0  0
  5  6  1  6  0  0  0
  5  7  1  0  0  0  0
  7  8  1  0  0  0  0
  7  9  1  6  0  0  0
  9 10  1  0  0  0  0
 11 12  1  1  0  0  0
 11 13  1  0  0  0  0
 11 19  1  0  0  0  0
 12 34  1  0  0  0  0
 13 14  1  0  0  0  0
 14 15  1  1  0  0  0
 14 16  1  0  0  0  0
 16  2  1  6  0  0  0
 16 17  1  0  0  0  0
 17 18  1  1  0  0  0
 17 19  1  0  0  0  0
 19 20  1  6  0  0  0
 21 20  1  1  0  0  0
 21 22  1  0  0  0  0
 21 29  1  0  0  0  0
 22 23  1  1  0  0  0
 22 24  1  0  0  0  0
 24 25  1  6  0  0  0
 24 26  1  0  0  0  0
 26 27  1  1  0  0  0
 26 28  1  0  0  0  0
 28 29  1  0  0  0  0
 28 30  1  6  0  0  0
 30 31  1  0  0  0  0
 34 35  2  0  0  0  0
 36 34  1  6  0  0  0
 36 38  1  0  0  0  0
 36 40  1  0  0  0  0
 37 39  1  0  0  0  0
 38 39  1  0  0  0  0
M  END
>  <CHROM.1>
-69.76452912,-67.51990875,-177.15615137,-74.73906813,-89.79391952,-175.39574155
-63.99318582,-70.28646588,176.65766561,-64.01489015,-0.67641231,-10.65897797
16.68914964,-2.69011900,0.07468082,-2.44221025

>  <Name>
ligand

>  <RI>
0

>  <Rbt.Current_Directory>
/home/itssahil/PROJECTS/Mol_Feturizer/New_Systems/rnas/4P20

>  <Rbt.Executable>
rbdock ($Id: //depot/dev/client3/rdock/2013.1/src/exe/rbdock.cxx#4 $)

>  <Rbt.Library>
libRbt.so (2013.1, Build901 2013/11/27)

>  <Rbt.Parameter_File>
/export/apps/rDock/src/rDock_2013.1_src/data/scripts/dock_solv.prm

>  <Rbt.Receptor>
prm/pocket_docking_6.prm

>  <SCORE>
-5.9437

>  <SCORE.INTER>
2.88643

>  <SCORE.INTER.CONST>
1

>  <SCORE.INTER.POLAR>
0

>  <SCORE.INTER.ROT>
10

>  <SCORE.INTER.SOLV>
18.4006

>  <SCORE.INTER.VDW>
-14.4759

>  <SCORE.INTER.norm>
0.0721608

>  <SCORE.INTRA>
-8.83013

>  <SCORE.INTRA.DIHEDRAL>
-22.588

>  <SCORE.INTRA.DIHEDRAL.0>
28.2802

>  <SCORE.INTRA.POLAR>
0

>  <SCORE.INTRA.POLAR.0>
0

>  <SCORE.INTRA.REPUL>
0

>  <SCORE.INTRA.REPUL.0>
0

>  <SCORE.INTRA.SOLV>
2.3237

>  <SCORE.INTRA.SOLV.lig_0>
-101.981

>  <SCORE.INTRA.VDW>
1.30203

>  <SCORE.INTRA.VDW.0>
-5.72964

>  <SCORE.INTRA.norm>
-0.220753

>  <SCORE.RESTR>
0

>  <SCORE.RESTR.CAVITY>
0

>  <SCORE.RESTR.norm>
0

>  <SCORE.SYSTEM>
0

>  <SCORE.SYSTEM.CONST>
0

>  <SCORE.SYSTEM.DIHEDRAL>
0

>  <SCORE.SYSTEM.SOLV>
0

>  <SCORE.SYSTEM.norm>
0

>  <SCORE.heavy>
40

>  <SCORE.norm>
-0.148593

>  <RMSD>
7.581

$$$$
ligand
 OpenBabel11021811513D
libRbt.so/2013.1/901 2013/11/27
 40 42  0  0  0  0  0  0  0  0999 V2000
    0.2970  -10.0006   21.0752 C   0  0  2  0  0  0  0  0  0  0  0  0
    0.3728  -11.1074   20.1630 O   0  0  0  0  0  0  0  0  0  0  0  0
   -0.5112  -10.4010   22.3658 C   0  0  1  0  0  0  0  0  0  0  0  0
   -2.0041  -10.6948   22.0377 C   0  0  2  0  0  0  0  0  0  0  0  0
   -2.6179   -9.3995   21.4182 C   0  0  2  0  0  0  0  0  0  0  0  0
   -4.0130   -9.6276   21.1244 O   0  0  0  0  0  0  0  0  0  0  0  0
   -1.8121   -9.0437   20.0932 C   0  0  2  0  0  0  0  0  0  0  0  0
   -0.3603   -8.8202   20.4285 O   0  0  0  0  0  0  0  0  0  0  0  0
   -2.3243   -7.7770   19.4213 C   0  0  0  0  0  0  0  0  0  0  0  0
   -1.6837   -7.5662   18.0850 N   0  0  0  0  0  0  0  0  0  0  0  0
    3.1150  -11.9640   16.8349 C   0  0  2  0  0  0  0  0  0  0  0  0
    3.7721  -11.8505   15.5536 N   0  0  0  0  0  0  0  0  0  0  0  0
    1.5679  -12.2117   16.6162 C   0  0  0  0  0  0  0  0  0  0  0  0
    0.8280  -12.3344   18.0227 C   0  0  2  0  0  0  0  0  0  0  0  0
   -0.6227  -12.5835   17.8154 N   0  0  0  0  0  0  0  0  0  0  0  0
    1.0704  -10.9951   18.8621 C   0  0  2  0  0  0  0  0  0  0  0  0
    2.6336  -10.7900   19.0530 C   0  0  2  0  0  0  0  0  0  0  0  0
    2.8606   -9.5965   19.8060 O   0  0  0  0  0  0  0  0  0  0  0  0
    3.3540  -10.6743   17.6520 C   0  0  1  0  0  0  0  0  0  0  0  0
    4.7811  -10.5086   17.8432 O   0  0  0  0  0  0  0  0  0  0  0  0
    5.3941   -9.3814   18.3709 C   0  0  2  0  0  0  0  0  0  0  0  0
    5.6248   -8.3731   17.1897 C   0  0  2  0  0  0  0  0  0  0  0  0
    4.4093   -8.0762   16.5819 O   0  0  0  0  0  0  0  0  0  0  0  0
    6.6729   -8.9301   16.1349 C   0  0  1  0  0  0  0  0  0  0  0  0
    6.8870   -7.9495   15.0261 N   0  0  0  0  0  0  0  0  0  0  0  0
    8.0376   -9.2438   16.8902 C   0  0  2  0  0  0  0  0  0  0  0  0
    9.0233   -9.7388   15.9754 O   0  0  0  0  0  0  0  0  0  0  0  0
    7.7359  -10.2855   18.0360 C   0  0  2  0  0  0  0  0  0  0  0  0
    6.6905   -9.7417   19.0002 O   0  0  0  0  0  0  0  0  0  0  0  0
    8.9868  -10.6183   18.8137 C   0  0  0  0  0  0  0  0  0  0  0  0
    9.9687  -11.3085   18.0186 O   0  0  0  0  0  0  0  0  0  0  0  0
    0.1257  -11.5693   22.9603 O   0  0  0  0  0  0  0  0  0  0  0  0
   -2.6623  -11.0255   23.1975 O   0  0  0  0  0  0  0  0  0  0  0  0
    3.6787  -12.9479   14.6187 C   0  0  0  0  0  0  0  0  0  0  0  0
    3.4300  -14.1157   15.0419 O   0  0  0  0  0  0  0  0  0  0  0  0
    3.8977  -12.6387   13.1057 C   0  0  2  0  0  0  0  0  0  0  0  0
    6.8437  -14.9759   12.0944 N   0  0  0  0  0  0  0  0  0  0  0  0
    5.3214  -13.0803   12.6457 C   0  0  0  0  0  0  0  0  0  0  0  0
    5.4630  -14.6032   12.4853 C   0  0  0  0  0  0  0  0  0  0  0  0
    3.8286  -11.3956   12.8447 O   0  0  0  0  0  0  0  0  0  0  0  0
  1  2  1  6  0  0  0
  1  3  1  0  0  0  0
  1  8  1  0  0  0  0
  3  4  1  0  0  0  0
  3 32  1  6  0  0  0
  4  5  1  0  0  0  0
  4 33  1  1  0  0  0
  5  6  1  6  0  0  0
  5  7  1  0  0  0  0
  7  8  1  0  0  0  0
  7  9  1  1  0  0  0
  9 10  1  0  0  0  0
 11 12  1  6  0  0  0
 11 13  1  0  0  0  0
 11 19  1  0  0  0  0
 12 34  1  0  0  0  0
 13 14  1  0  0  0  0
 14 15  1  6  0  0  0
 14 16  1  0  0  0  0
 16  2  1  1  0  0  0
 16 17  1  0  0  0  0
 17 18  1  1  0  0  0
 17 19  1  0  0  0  0
 19 20  1  1  0  0  0
 21 20  1  6  0  0  0
 21 22  1  0  0  0  0
 21 29  1  0  0  0  0
 22 23  1  6  0  0  0
 22 24  1  0  0  0  0
 24 25  1  6  0  0  0
 24 26  1  0  0  0  0
 26 27  1  6  0  0  0
 26 28  1  0  0  0  0
 28 29  1  0  0  0  0
 28 30  1  1  0  0  0
 30 31  1  0  0  0  0
 34 35  2  0  0  0  0
 36 34  1  1  0  0  0
 36 38  1  0  0  0  0
 36 40  1  0  0  0  0
 37 39  1  0  0  0  0
 38 39  1  0  0  0  0
M  END
>  <CHROM.1>
179.49431705,-173.51442959,-172.09631404,-58.23296829,170.88762490,-85.95582451
-65.66612253,102.55273832,74.88186123,-177.97964133,2.95898636,-10.69279921
17.86212812,-2.55851518,-0.22599760,-2.13815098

>  <Name>
ligand

>  <RI>
0

>  <Rbt.Current_Directory>
/home/itssahil/PROJECTS/Mol_Feturizer/New_Systems/rnas/4P20

>  <Rbt.Executable>
rbdock ($Id: //depot/dev/client3/rdock/2013.1/src/exe/rbdock.cxx#4 $)

>  <Rbt.Library>
libRbt.so (2013.1, Build901 2013/11/27)

>  <Rbt.Parameter_File>
/export/apps/rDock/src/rDock_2013.1_src/data/scripts/dock_solv.prm

>  <Rbt.Receptor>
prm/pocket_docking_8.prm

>  <SCORE>
-9.65065

>  <SCORE.INTER>
0.0770801

>  <SCORE.INTER.CONST>
1

>  <SCORE.INTER.POLAR>
0

>  <SCORE.INTER.ROT>
10

>  <SCORE.INTER.SOLV>
13.691

>  <SCORE.INTER.VDW>
-14.779

>  <SCORE.INTER.norm>
0.001927

>  <SCORE.INTRA>
-9.72773

>  <SCORE.INTRA.DIHEDRAL>
-21.5907

>  <SCORE.INTRA.DIHEDRAL.0>
28.2802

>  <SCORE.INTRA.POLAR>
0

>  <SCORE.INTRA.POLAR.0>
0

>  <SCORE.INTRA.REPUL>
0

>  <SCORE.INTRA.REPUL.0>
0

>  <SCORE.INTRA.SOLV>
-1.91419

>  <SCORE.INTRA.SOLV.lig_0>
-101.981

>  <SCORE.INTRA.VDW>
2.02472

>  <SCORE.INTRA.VDW.0>
-5.72964

>  <SCORE.INTRA.norm>
-0.243193

>  <SCORE.RESTR>
0

>  <SCORE.RESTR.CAVITY>
0

>  <SCORE.RESTR.norm>
0

>  <SCORE.SYSTEM>
0

>  <SCORE.SYSTEM.CONST>
0

>  <SCORE.SYSTEM.DIHEDRAL>
0

>  <SCORE.SYSTEM.SOLV>
0

>  <SCORE.SYSTEM.norm>
0

>  <SCORE.heavy>
40

>  <SCORE.norm>
-0.241266

>  <RMSD>
7.592

$$$$
ligand
 OpenBabel11021811513D
libRbt.so/2013.1/901 2013/11/27
 40 42  0  0  0  0  0  0  0  0999 V2000
   -1.7870   -9.7561   17.7820 C   0  0  2  0  0  0  0  0  0  0  0  0
   -0.9367   -8.6249   18.0273 O   0  0  0  0  0  0  0  0  0  0  0  0
   -3.3018   -9.3525   17.9294 C   0  0  1  0  0  0  0  0  0  0  0  0
   -3.6486   -8.9575   19.3946 C   0  0  2  0  0  0  0  0  0  0  0  0
   -3.3461  -10.1909   20.3031 C   0  0  2  0  0  0  0  0  0  0  0  0
   -3.6815   -9.8687   21.6699 O   0  0  0  0  0  0  0  0  0  0  0  0
   -1.8015  -10.5488   20.1694 C   0  0  2  0  0  0  0  0  0  0  0  0
   -1.4792  -10.8713   18.7334 O   0  0  0  0  0  0  0  0  0  0  0  0
   -1.4082  -11.7579   21.0069 C   0  0  0  0  0  0  0  0  0  0  0  0
   -2.1074  -12.9979   20.5442 N   0  0  0  0  0  0  0  0  0  0  0  0
    3.1758   -7.7117   16.7689 C   0  0  2  0  0  0  0  0  0  0  0  0
    4.6130   -7.8021   16.6569 N   0  0  0  0  0  0  0  0  0  0  0  0
    2.7777   -7.4553   18.2785 C   0  0  0  0  0  0  0  0  0  0  0  0
    1.1929   -7.3579   18.4187 C   0  0  2  0  0  0  0  0  0  0  0  0
    0.8215   -7.1007   19.8348 N   0  0  0  0  0  0  0  0  0  0  0  0
    0.5342   -8.7139   17.8854 C   0  0  2  0  0  0  0  0  0  0  0  0
    0.9634   -8.9271   16.3714 C   0  0  2  0  0  0  0  0  0  0  0  0
    0.3760  -10.1356   15.8839 O   0  0  0  0  0  0  0  0  0  0  0  0
    2.5355   -9.0176   16.2469 C   0  0  1  0  0  0  0  0  0  0  0  0
    2.9113   -9.1910   14.8579 O   0  0  0  0  0  0  0  0  0  0  0  0
    2.5038  -10.2359   14.0412 C   0  0  2  0  0  0  0  0  0  0  0  0
    3.1992  -11.5427   14.5644 C   0  0  2  0  0  0  0  0  0  0  0  0
    2.8609  -11.7528   15.8973 O   0  0  0  0  0  0  0  0  0  0  0  0
    4.7747  -11.4894   14.3738 C   0  0  1  0  0  0  0  0  0  0  0  0
    5.4150  -12.7479   14.8668 N   0  0  0  0  0  0  0  0  0  0  0  0
    5.0934  -11.2530   12.8331 C   0  0  2  0  0  0  0  0  0  0  0  0
    6.5077  -11.2100   12.6068 O   0  0  0  0  0  0  0  0  0  0  0  0
    4.3946   -9.9104   12.3880 C   0  0  2  0  0  0  0  0  0  0  0  0
    2.8929   -9.9754   12.6314 O   0  0  0  0  0  0  0  0  0  0  0  0
    4.6370   -9.6285   10.9244 C   0  0  0  0  0  0  0  0  0  0  0  0
    3.9984   -8.4178   10.4781 O   0  0  0  0  0  0  0  0  0  0  0  0
   -3.5712   -8.2462   17.0196 O   0  0  0  0  0  0  0  0  0  0  0  0
   -4.9805   -8.6281   19.4677 O   0  0  0  0  0  0  0  0  0  0  0  0
    5.3065   -8.8518   17.3671 C   0  0  0  0  0  0  0  0  0  0  0  0
    4.7687   -9.3867   18.3817 O   0  0  0  0  0  0  0  0  0  0  0  0
    6.7121   -9.2811   16.8451 C   0  0  2  0  0  0  0  0  0  0  0  0
    9.4683  -11.5263   18.4328 N   0  0  0  0  0  0  0  0  0  0  0  0
    7.4665  -10.1355   17.9102 C   0  0  0  0  0  0  0  0  0  0  0  0
    8.8323  -10.6470   17.4226 C   0  0  0  0  0  0  0  0  0  0  0  0
    7.4713   -8.2882   16.6088 O   0  0  0  0  0  0  0  0  0  0  0  0
  1  2  1  1  0  0  0
  1  3  1  0  0  0  0
  1  8  1  0  0  0  0
  3  4  1  0  0  0  0
  3 32  1  6  0  0  0
  4  5  1  0  0  0  0
  4 33  1  6  0  0  0
  5  6  1  1  0  0  0
  5  7  1  0  0  0  0
  7  8  1  0  0  0  0
  7  9  1  1  0  0  0
  9 10  1  0  0  0  0
 11 12  1  1  0  0  0
 11 13  1  0  0  0  0
 11 19  1  0  0  0  0
 12 34  1  0  0  0  0
 13 14  1  0  0  0  0
 14 15  1  1  0  0  0
 14 16  1  0  0  0  0
 16  2  1  6  0  0  0
 16 17  1  0  0  0  0
 17 18  1  1  0  0  0
 17 19  1  0  0  0  0
 19 20  1  6  0  0  0
 21 20  1  1  0  0  0
 21 22  1  0  0  0  0
 21 29  1  0  0  0  0
 22 23  1  1  0  0  0
 22 24  1  0  0  0  0
 24 25  1  6  0  0  0
 24 26  1  0  0  0  0
 26 27  1  1  0  0  0
 26 28  1  0  0  0  0
 28 29  1  0  0  0  0
 28 30  1  6  0  0  0
 30 31  1  0  0  0  0
 34 35  2  0  0  0  0
 36 34  1  1  0  0  0
 36 38  1  0  0  0  0
 36 40  1  0  0  0  0
 37 39  1  0  0  0  0
 38 39  1  0  0  0  0
M  END
>  <CHROM.1>
-176.81757265,-172.30861058,63.60887900,61.53427170,-178.58044222,-69.01275207
179.24355356,165.30779160,177.12045323,-176.19515906,2.07890437,-9.73622230
16.77654121,2.63904774,-0.06097840,1.57802110

>  <Name>
ligand

>  <RI>
0

>  <Rbt.Current_Directory>
/home/itssahil/PROJECTS/Mol_Feturizer/New_Systems/rnas/4P20

>  <Rbt.Executable>
rbdock ($Id: //depot/dev/client3/rdock/2013.1/src/exe/rbdock.cxx#4 $)

>  <Rbt.Library>
libRbt.so (2013.1, Build901 2013/11/27)

>  <Rbt.Parameter_File>
/export/apps/rDock/src/rDock_2013.1_src/data/scripts/dock_solv.prm

>  <Rbt.Receptor>
prm/pocket_docking_7.prm

>  <SCORE>
-9.34944

>  <SCORE.INTER>
0.735079

>  <SCORE.INTER.CONST>
1

>  <SCORE.INTER.POLAR>
0

>  <SCORE.INTER.ROT>
10

>  <SCORE.INTER.SOLV>
18.6027

>  <SCORE.INTER.VDW>
-15.9775

>  <SCORE.INTER.norm>
0.018377

>  <SCORE.INTRA>
-10.0845

>  <SCORE.INTRA.DIHEDRAL>
-26.3519

>  <SCORE.INTRA.DIHEDRAL.0>
28.2802

>  <SCORE.INTRA.POLAR>
0

>  <SCORE.INTRA.POLAR.0>
0

>  <SCORE.INTRA.REPUL>
0

>  <SCORE.INTRA.REPUL.0>
0

>  <SCORE.INTRA.SOLV>
0.391801

>  <SCORE.INTRA.SOLV.lig_0>
-101.981

>  <SCORE.INTRA.VDW>
2.89551

>  <SCORE.INTRA.VDW.0>
-5.72964

>  <SCORE.INTRA.norm>
-0.252113

>  <SCORE.RESTR>
0

>  <SCORE.RESTR.CAVITY>
0

>  <SCORE.RESTR.norm>
0

>  <SCORE.SYSTEM>
0

>  <SCORE.SYSTEM.CONST>
0

>  <SCORE.SYSTEM.DIHEDRAL>
0

>  <SCORE.SYSTEM.SOLV>
0

>  <SCORE.SYSTEM.norm>
0

>  <SCORE.heavy>
40

>  <SCORE.norm>
-0.233736

>  <RMSD>
7.606

$$$$
ligand
 OpenBabel11021811513D
libRbt.so/2013.1/901 2013/11/27
 40 42  0  0  0  0  0  0  0  0999 V2000
   -2.6490   -7.9739   18.5195 C   0  0  2  0  0  0  0  0  0  0  0  0
   -1.7674   -8.0803   17.3906 O   0  0  0  0  0  0  0  0  0  0  0  0
   -2.9836   -9.4000   19.0971 C   0  0  1  0  0  0  0  0  0  0  0  0
   -3.8042  -10.2497   18.0835 C   0  0  2  0  0  0  0  0  0  0  0  0
   -5.1312   -9.4825   17.7855 C   0  0  2  0  0  0  0  0  0  0  0  0
   -5.9316  -10.2560   16.8659 O   0  0  0  0  0  0  0  0  0  0  0  0
   -4.7650   -8.0652   17.1621 C   0  0  2  0  0  0  0  0  0  0  0  0
   -3.9233   -7.2851   18.1384 O   0  0  0  0  0  0  0  0  0  0  0  0
   -5.9983   -7.2274   16.8534 C   0  0  0  0  0  0  0  0  0  0  0  0
   -6.9023   -7.9177   15.8804 N   0  0  0  0  0  0  0  0  0  0  0  0
    2.6268   -8.0276   17.2555 C   0  0  2  0  0  0  0  0  0  0  0  0
    3.9956   -8.4548   17.4292 N   0  0  0  0  0  0  0  0  0  0  0  0
    1.9175   -7.9368   18.6667 C   0  0  0  0  0  0  0  0  0  0  0  0
    0.4034   -7.4709   18.4904 C   0  0  2  0  0  0  0  0  0  0  0  0
   -0.2567   -7.3702   19.8185 N   0  0  0  0  0  0  0  0  0  0  0  0
   -0.3588   -8.5095   17.5432 C   0  0  2  0  0  0  0  0  0  0  0  0
    0.3897   -8.5662   16.1438 C   0  0  2  0  0  0  0  0  0  0  0  0
   -0.2868   -9.4899   15.2880 O   0  0  0  0  0  0  0  0  0  0  0  0
    1.8892   -9.0251   16.3339 C   0  0  1  0  0  0  0  0  0  0  0  0
    2.5636   -9.0515   15.0513 O   0  0  0  0  0  0  0  0  0  0  0  0
    3.7041   -9.7858   14.7598 C   0  0  2  0  0  0  0  0  0  0  0  0
    4.2213   -9.3159   13.3538 C   0  0  2  0  0  0  0  0  0  0  0  0
    4.4678   -7.9470   13.3779 O   0  0  0  0  0  0  0  0  0  0  0  0
    3.2051   -9.6957   12.1943 C   0  0  1  0  0  0  0  0  0  0  0  0
    3.7228   -9.2505   10.8637 N   0  0  0  0  0  0  0  0  0  0  0  0
    2.9708  -11.2691   12.2178 C   0  0  2  0  0  0  0  0  0  0  0  0
    2.0676  -11.6647   11.1780 O   0  0  0  0  0  0  0  0  0  0  0  0
    2.4207  -11.6620   13.6432 C   0  0  2  0  0  0  0  0  0  0  0  0
    3.3943  -11.2384   14.7346 O   0  0  0  0  0  0  0  0  0  0  0  0
    2.1920  -13.1510   13.7482 C   0  0  0  0  0  0  0  0  0  0  0  0
    1.6442  -13.5409   15.0213 O   0  0  0  0  0  0  0  0  0  0  0  0
   -1.7299  -10.0641   19.4308 O   0  0  0  0  0  0  0  0  0  0  0  0
   -4.0780  -11.4747   18.6422 O   0  0  0  0  0  0  0  0  0  0  0  0
    4.2565   -9.7853   17.9277 C   0  0  0  0  0  0  0  0  0  0  0  0
    3.3699  -10.3903   18.6007 O   0  0  0  0  0  0  0  0  0  0  0  0
    5.6441  -10.4239   17.6127 C   0  0  2  0  0  0  0  0  0  0  0  0
    5.1436   -9.8631   20.7145 N   0  0  0  0  0  0  0  0  0  0  0  0
    6.2265  -11.1423   18.8690 C   0  0  0  0  0  0  0  0  0  0  0  0
    6.4338  -10.1999   20.0665 C   0  0  0  0  0  0  0  0  0  0  0  0
    6.5174   -9.5601   17.2822 O   0  0  0  0  0  0  0  0  0  0  0  0
  1  2  1  6  0  0  0
  1  3  1  0  0  0  0
  1  8  1  0  0  0  0
  3  4  1  0  0  0  0
  3 32  1  6  0  0  0
  4  5  1  0  0  0  0
  4 33  1  1  0  0  0
  5  6  1  6  0  0  0
  5  7  1  0  0  0  0
  7  8  1  0  0  0  0
  7  9  1  1  0  0  0
  9 10  1  0  0  0  0
 11 12  1  1  0  0  0
 11 13  1  0  0  0  0
 11 19  1  0  0  0  0
 12 34  1  0  0  0  0
 13 14  1  0  0  0  0
 14 15  1  1  0  0  0
 14 16  1  0  0  0  0
 16  2  1  6  0  0  0
 16 17  1  0  0  0  0
 17 18  1  6  0  0  0
 17 19  1  0  0  0  0
 19 20  1  6  0  0  0
 21 20  1  6  0  0  0
 21 22  1  0  0  0  0
 21 29  1  0  0  0  0
 22 23  1  1  0  0  0
 22 24  1  0  0  0  0
 24 25  1  6  0  0  0
 24 26  1  0  0  0  0
 26 27  1  6  0  0  0
 26 28  1  0  0  0  0
 28 29  1  0  0  0  0
 28 30  1  6  0  0  0
 30 31  1  0  0  0  0
 34 35  2  0  0  0  0
 36 34  1  1  0  0  0
 36 38  1  0  0  0  0
 36 40  1  0  0  0  0
 37 39  1  0  0  0  0
 38 39  1  0  0  0  0
M  END
>  <CHROM.1>
-69.22926235,-60.83080067,-59.51767278,65.92289770,81.91378024,-170.05825869
-177.92131636,136.83994570,-59.93538919,75.06745405,0.85201317,-9.55852688
16.53969818,-2.88118933,0.10237211,-1.79271550

>  <Name>
ligand

>  <RI>
0

>  <Rbt.Current_Directory>
/home/itssahil/PROJECTS/Mol_Feturizer/New_Systems/rnas/4P20

>  <Rbt.Executable>
rbdock ($Id: //depot/dev/client3/rdock/2013.1/src/exe/rbdock.cxx#4 $)

>  <Rbt.Library>
libRbt.so (2013.1, Build901 2013/11/27)

>  <Rbt.Parameter_File>
/export/apps/rDock/src/rDock_2013.1_src/data/scripts/dock_solv.prm

>  <Rbt.Receptor>
prm/pocket_docking_4.prm

>  <SCORE>
-8.28502

>  <SCORE.INTER>
-2.61502

>  <SCORE.INTER.CONST>
1

>  <SCORE.INTER.POLAR>
0

>  <SCORE.INTER.ROT>
10

>  <SCORE.INTER.SOLV>
15.9636

>  <SCORE.INTER.VDW>
-17.3312

>  <SCORE.INTER.norm>
-0.0653756

>  <SCORE.INTRA>
-5.68162

>  <SCORE.INTRA.DIHEDRAL>
-22.2381

>  <SCORE.INTRA.DIHEDRAL.0>
28.2802

>  <SCORE.INTRA.POLAR>
0

>  <SCORE.INTRA.POLAR.0>
0

>  <SCORE.INTRA.REPUL>
0

>  <SCORE.INTRA.REPUL.0>
0

>  <SCORE.INTRA.SOLV>
6.54031

>  <SCORE.INTRA.SOLV.lig_0>
-101.981

>  <SCORE.INTRA.VDW>
2.16727

>  <SCORE.INTRA.VDW.0>
-5.72964

>  <SCORE.INTRA.norm>
-0.14204

>  <SCORE.RESTR>
0.011625

>  <SCORE.RESTR.CAVITY>
0.011625

>  <SCORE.RESTR.norm>
0.000290625

>  <SCORE.SYSTEM>
0

>  <SCORE.SYSTEM.CONST>
0

>  <SCORE.SYSTEM.DIHEDRAL>
0

>  <SCORE.SYSTEM.SOLV>
0

>  <SCORE.SYSTEM.norm>
0

>  <SCORE.heavy>
40

>  <SCORE.norm>
-0.207125

>  <RMSD>
7.619

$$$$
ligand
 OpenBabel11021811513D
libRbt.so/2013.1/901 2013/11/27
 40 42  0  0  0  0  0  0  0  0999 V2000
   -4.4226   -9.4762   16.8907 C   0  0  2  0  0  0  0  0  0  0  0  0
   -3.2764   -8.6287   17.0663 O   0  0  0  0  0  0  0  0  0  0  0  0
   -5.6723   -8.6311   16.4397 C   0  0  1  0  0  0  0  0  0  0  0  0
   -6.1271   -7.6435   17.5536 C   0  0  2  0  0  0  0  0  0  0  0  0
   -6.4949   -8.4873   18.8150 C   0  0  2  0  0  0  0  0  0  0  0  0
   -6.9473   -7.6035   19.8632 O   0  0  0  0  0  0  0  0  0  0  0  0
   -5.2038   -9.2954   19.2750 C   0  0  2  0  0  0  0  0  0  0  0  0
   -4.7498  -10.2012   18.1599 O   0  0  0  0  0  0  0  0  0  0  0  0
   -5.4663  -10.1699   20.4935 C   0  0  0  0  0  0  0  0  0  0  0  0
   -4.2222  -10.8675   20.9475 N   0  0  0  0  0  0  0  0  0  0  0  0
    1.0557   -9.2159   16.5992 C   0  0  2  0  0  0  0  0  0  0  0  0
    2.3798   -9.7616   16.7869 N   0  0  0  0  0  0  0  0  0  0  0  0
    0.5190   -8.6445   17.9733 C   0  0  0  0  0  0  0  0  0  0  0  0
   -0.9447   -8.0427   17.7827 C   0  0  2  0  0  0  0  0  0  0  0  0
   -1.4408   -7.4916   19.0710 N   0  0  0  0  0  0  0  0  0  0  0  0
   -1.9155   -9.1876   17.2316 C   0  0  2  0  0  0  0  0  0  0  0  0
   -1.3349   -9.7286   15.8560 C   0  0  2  0  0  0  0  0  0  0  0  0
   -2.1985  -10.7506   15.3530 O   0  0  0  0  0  0  0  0  0  0  0  0
    0.1166  -10.3179   16.0590 C   0  0  1  0  0  0  0  0  0  0  0  0
    0.6400  -10.7878   14.7917 O   0  0  0  0  0  0  0  0  0  0  0  0
   -0.0381  -11.6023   13.8965 C   0  0  2  0  0  0  0  0  0  0  0  0
    0.0693  -13.0768   14.4252 C   0  0  2  0  0  0  0  0  0  0  0  0
   -0.4569  -13.1539   15.7107 O   0  0  0  0  0  0  0  0  0  0  0  0
    1.5642  -13.6107   14.3842 C   0  0  1  0  0  0  0  0  0  0  0  0
    1.6417  -15.0196   14.8799 N   0  0  0  0  0  0  0  0  0  0  0  0
    2.1033  -13.5007   12.8914 C   0  0  2  0  0  0  0  0  0  0  0  0
    3.4491  -13.9842   12.7994 O   0  0  0  0  0  0  0  0  0  0  0  0
    1.9978  -11.9923   12.4416 C   0  0  2  0  0  0  0  0  0  0  0  0
    0.5614  -11.4969   12.5415 O   0  0  0  0  0  0  0  0  0  0  0  0
    2.4753  -11.8123   11.0203 C   0  0  0  0  0  0  0  0  0  0  0  0
    1.6238  -12.4657   10.0608 O   0  0  0  0  0  0  0  0  0  0  0  0
   -5.3219   -7.9098   15.2228 O   0  0  0  0  0  0  0  0  0  0  0  0
   -7.2242   -6.9437   17.1129 O   0  0  0  0  0  0  0  0  0  0  0  0
    3.5170   -8.8717   16.7434 C   0  0  0  0  0  0  0  0  0  0  0  0
    3.4267   -7.7644   16.1347 O   0  0  0  0  0  0  0  0  0  0  0  0
    4.8277   -9.3266   17.4560 C   0  0  2  0  0  0  0  0  0  0  0  0
    4.3412   -7.8814   21.0393 N   0  0  0  0  0  0  0  0  0  0  0  0
    5.0906   -8.4767   18.7374 C   0  0  0  0  0  0  0  0  0  0  0  0
    4.0284   -8.6810   19.8306 C   0  0  0  0  0  0  0  0  0  0  0  0
    5.8600   -9.1706   16.7293 O   0  0  0  0  0  0  0  0  0  0  0  0
  1  2  1  1  0  0  0
  1  3  1  0  0  0  0
  1  8  1  0  0  0  0
  3  4  1  0  0  0  0
  3 32  1  6  0  0  0
  4  5  1  0  0  0  0
  4 33  1  6  0  0  0
  5  6  1  1  0  0  0
  5  7  1  0  0  0  0
  7  8  1  0  0  0  0
  7  9  1  1  0  0  0
  9 10  1  0  0  0  0
 11 12  1  1  0  0  0
 11 13  1  0  0  0  0
 11 19  1  0  0  0  0
 12 34  1  0  0  0  0
 13 14  1  0  0  0  0
 14 15  1  1  0  0  0
 14 16  1  0  0  0  0
 16  2  1  6  0  0  0
 16 17  1  0  0  0  0
 17 18  1  1  0  0  0
 17 19  1  0  0  0  0
 19 20  1  6  0  0  0
 21 20  1  1  0  0  0
 21 22  1  0  0  0  0
 21 29  1  0  0  0  0
 22 23  1  1  0  0  0
 22 24  1  0  0  0  0
 24 25  1  6  0  0  0
 24 26  1  0  0  0  0
 26 27  1  1  0  0  0
 26 28  1  0  0  0  0
 28 29  1  0  0  0  0
 28 30  1  6  0  0  0
 30 31  1  0  0  0  0
 34 35  2  0  0  0  0
 36 34  1  6  0  0  0
 36 38  1  0  0  0  0
 36 40  1  0  0  0  0
 37 39  1  0  0  0  0
 38 39  1  0  0  0  0
M  END
>  <CHROM.1>
-168.03644978,-165.16427311,-177.20932109,-83.62759161,-168.32680852,-79.70823816
66.43837599,-109.53261822,65.30061527,178.48596416,-0.57410286,-10.04270172
16.39208907,2.62453353,-0.02578610,0.97783871

>  <Name>
ligand

>  <RI>
0

>  <Rbt.Current_Directory>
/home/itssahil/PROJECTS/Mol_Feturizer/New_Systems/rnas/4P20

>  <Rbt.Executable>
rbdock ($Id: //depot/dev/client3/rdock/2013.1/src/exe/rbdock.cxx#4 $)

>  <Rbt.Library>
libRbt.so (2013.1, Build901 2013/11/27)

>  <Rbt.Parameter_File>
/export/apps/rDock/src/rDock_2013.1_src/data/scripts/dock_solv.prm

>  <Rbt.Receptor>
prm/pocket_docking_6.prm

>  <SCORE>
-15.6425

>  <SCORE.INTER>
-5.95372

>  <SCORE.INTER.CONST>
1

>  <SCORE.INTER.POLAR>
0

>  <SCORE.INTER.ROT>
10

>  <SCORE.INTER.SOLV>
15.9173

>  <SCORE.INTER.VDW>
-19.5416

>  <SCORE.INTER.norm>
-0.148843

>  <SCORE.INTRA>
-9.68874

>  <SCORE.INTRA.DIHEDRAL>
-21.1257

>  <SCORE.INTRA.DIHEDRAL.0>
28.2802

>  <SCORE.INTRA.POLAR>
0

>  <SCORE.INTRA.POLAR.0>
0

>  <SCORE.INTRA.REPUL>
0

>  <SCORE.INTRA.REPUL.0>
0

>  <SCORE.INTRA.SOLV>
-1.77341

>  <SCORE.INTRA.SOLV.lig_0>
-101.981

>  <SCORE.INTRA.VDW>
1.76079

>  <SCORE.INTRA.VDW.0>
-5.72964

>  <SCORE.INTRA.norm>
-0.242219

>  <SCORE.RESTR>
0

>  <SCORE.RESTR.CAVITY>
0

>  <SCORE.RESTR.norm>
0

>  <SCORE.SYSTEM>
0

>  <SCORE.SYSTEM.CONST>
0

>  <SCORE.SYSTEM.DIHEDRAL>
0

>  <SCORE.SYSTEM.SOLV>
0

>  <SCORE.SYSTEM.norm>
0

>  <SCORE.heavy>
40

>  <SCORE.norm>
-0.391062

>  <RMSD>
7.620

$$$$
ligand
 OpenBabel11021811513D
libRbt.so/2013.1/901 2013/11/27
 40 42  0  0  0  0  0  0  0  0999 V2000
    3.5801   -2.9860   22.5930 C   0  0  2  0  0  0  0  0  0  0  0  0
    4.4257   -3.7938   21.7592 O   0  0  0  0  0  0  0  0  0  0  0  0
    2.1755   -2.7715   21.9145 C   0  0  1  0  0  0  0  0  0  0  0  0
    2.2932   -1.9330   20.6083 C   0  0  2  0  0  0  0  0  0  0  0  0
    2.9073   -0.5481   20.9868 C   0  0  2  0  0  0  0  0  0  0  0  0
    3.0074    0.2682   19.8002 O   0  0  0  0  0  0  0  0  0  0  0  0
    4.3428   -0.7915   21.6283 C   0  0  2  0  0  0  0  0  0  0  0  0
    4.2085   -1.6524   22.8576 O   0  0  0  0  0  0  0  0  0  0  0  0
    5.0199    0.5047   22.0521 C   0  0  0  0  0  0  0  0  0  0  0  0
    4.2796    1.1718   23.1690 N   0  0  0  0  0  0  0  0  0  0  0  0
    5.2863   -8.0559   21.1078 C   0  0  2  0  0  0  0  0  0  0  0  0
    5.0850   -9.4835   21.0191 N   0  0  0  0  0  0  0  0  0  0  0  0
    4.9778   -7.5685   22.5809 C   0  0  0  0  0  0  0  0  0  0  0  0
    5.1911   -5.9928   22.6931 C   0  0  2  0  0  0  0  0  0  0  0  0
    4.9168   -5.5390   24.0818 N   0  0  0  0  0  0  0  0  0  0  0  0
    4.2336   -5.2573   21.6448 C   0  0  2  0  0  0  0  0  0  0  0  0
    4.5798   -5.7798   20.1857 C   0  0  2  0  0  0  0  0  0  0  0  0
    3.7310   -5.1249   19.2402 O   0  0  0  0  0  0  0  0  0  0  0  0
    4.3680   -7.3423   20.0902 C   0  0  1  0  0  0  0  0  0  0  0  0
    4.7079   -7.8059   18.7597 O   0  0  0  0  0  0  0  0  0  0  0  0
    4.0458   -7.4512   17.5933 C   0  0  2  0  0  0  0  0  0  0  0  0
    2.5956   -8.0474   17.6738 C   0  0  2  0  0  0  0  0  0  0  0  0
    1.9535   -7.5680   18.8109 O   0  0  0  0  0  0  0  0  0  0  0  0
    2.6084   -9.6351   17.6484 C   0  0  1  0  0  0  0  0  0  0  0  0
    1.2176  -10.1813   17.7133 N   0  0  0  0  0  0  0  0  0  0  0  0
    3.3493  -10.1172   16.3256 C   0  0  2  0  0  0  0  0  0  0  0  0
    3.3756  -11.5479   16.2497 O   0  0  0  0  0  0  0  0  0  0  0  0
    4.8056   -9.5106   16.3303 C   0  0  2  0  0  0  0  0  0  0  0  0
    4.7585   -7.9906   16.4068 O   0  0  0  0  0  0  0  0  0  0  0  0
    5.5670   -9.9105   15.0889 C   0  0  0  0  0  0  0  0  0  0  0  0
    5.7624  -11.3335   14.9909 O   0  0  0  0  0  0  0  0  0  0  0  0
    1.5968   -4.0800   21.6369 O   0  0  0  0  0  0  0  0  0  0  0  0
    1.0415   -1.7665   20.0670 O   0  0  0  0  0  0  0  0  0  0  0  0
    6.0114  -10.3648   21.6914 C   0  0  0  0  0  0  0  0  0  0  0  0
    7.1802   -9.9593   21.9648 O   0  0  0  0  0  0  0  0  0  0  0  0
    5.5223  -11.8014   22.0509 C   0  0  2  0  0  0  0  0  0  0  0  0
    7.0619  -14.5246   24.3700 N   0  0  0  0  0  0  0  0  0  0  0  0
    6.5634  -12.5374   22.9497 C   0  0  0  0  0  0  0  0  0  0  0  0
    6.0584  -13.8885   23.4832 C   0  0  0  0  0  0  0  0  0  0  0  0
    5.3781  -12.5407   21.0259 O   0  0  0  0  0  0  0  0  0  0  0  0
  1  2  1  6  0  0  0
  1  3  1  0  0  0  0
  1  8  1  0  0  0  0
  3  4  1  0  0  0  0
  3 32  1  6  0  0  0
  4  5  1  0  0  0  0
  4 33  1  1  0  0  0
  5  6  1  6  0  0  0
  5  7  1  0  0  0  0
  7  8  1  0  0  0  0
  7  9  1  1  0  0  0
  9 10  1  0  0  0  0
 11 12  1  1  0  0  0
 11 13  1  0  0  0  0
 11 19  1  0  0  0  0
 12 34  1  0  0  0  0
 13 14  1  0  0  0  0
 14 15  1  1  0  0  0
 14 16  1  0  0  0  0
 16  2  1  6  0  0  0
 16 17  1  0  0  0  0
 17 18  1  6  0  0  0
 17 19  1  0  0  0  0
 19 20  1  6  0  0  0
 21 20  1  1  0  0  0
 21 22  1  0  0  0  0
 21 29  1  0  0  0  0
 22 23  1  1  0  0  0
 22 24  1  0  0  0  0
 24 25  1  6  0  0  0
 24 26  1  0  0  0  0
 26 27  1  1  0  0  0
 26 28  1  0  0  0  0
 28 29  1  0  0  0  0
 28 30  1  6  0  0  0
 30 31  1  0  0  0  0
 34 35  2  0  0  0  0
 36 34  1  6  0  0  0
 36 38  1  0  0  0  0
 36 40  1  0  0  0  0
 37 39  1  0  0  0  0
 38 39  1  0  0  0  0
M  END
>  <CHROM.1>
-75.55400084,-94.24314726,65.64593342,-69.94412753,175.91669693,-66.04637235
-62.71385145,-171.65809808,172.68248095,-177.92247980,4.23457609,-6.87403330
20.28633493,-2.04185766,1.18673351,-2.50261229

>  <Name>
ligand

>  <RI>
0

>  <Rbt.Current_Directory>
/home/itssahil/PROJECTS/Mol_Feturizer/New_Systems/rnas/4P20

>  <Rbt.Executable>
rbdock ($Id: //depot/dev/client3/rdock/2013.1/src/exe/rbdock.cxx#4 $)

>  <Rbt.Library>
libRbt.so (2013.1, Build901 2013/11/27)

>  <Rbt.Parameter_File>
/export/apps/rDock/src/rDock_2013.1_src/data/scripts/dock_solv.prm

>  <Rbt.Receptor>
prm/pocket_docking_8.prm

>  <SCORE>
-20.7747

>  <SCORE.INTER>
-13.162

>  <SCORE.INTER.CONST>
1

>  <SCORE.INTER.POLAR>
0

>  <SCORE.INTER.ROT>
10

>  <SCORE.INTER.SOLV>
19.856

>  <SCORE.INTER.VDW>
-25.66

>  <SCORE.INTER.norm>
-0.32905

>  <SCORE.INTRA>
-7.61275

>  <SCORE.INTRA.DIHEDRAL>
-21.1695

>  <SCORE.INTRA.DIHEDRAL.0>
28.2802

>  <SCORE.INTRA.POLAR>
0

>  <SCORE.INTRA.POLAR.0>
0

>  <SCORE.INTRA.REPUL>
0

>  <SCORE.INTRA.REPUL.0>
0

>  <SCORE.INTRA.SOLV>
0.538414

>  <SCORE.INTRA.SOLV.lig_0>
-101.981

>  <SCORE.INTRA.VDW>
2.70278

>  <SCORE.INTRA.VDW.0>
-5.72964

>  <SCORE.INTRA.norm>
-0.190319

>  <SCORE.RESTR>
0

>  <SCORE.RESTR.CAVITY>
0

>  <SCORE.RESTR.norm>
0

>  <SCORE.SYSTEM>
0

>  <SCORE.SYSTEM.CONST>
0

>  <SCORE.SYSTEM.DIHEDRAL>
0

>  <SCORE.SYSTEM.SOLV>
0

>  <SCORE.SYSTEM.norm>
0

>  <SCORE.heavy>
40

>  <SCORE.norm>
-0.519369

>  <RMSD>
7.638

$$$$
ligand
 OpenBabel11021811513D
libRbt.so/2013.1/901 2013/11/27
 40 42  0  0  0  0  0  0  0  0999 V2000
    4.0487  -13.6098   13.8090 C   0  0  2  0  0  0  0  0  0  0  0  0
    2.9874  -14.0372   12.9406 O   0  0  0  0  0  0  0  0  0  0  0  0
    5.4102  -14.2819   13.3916 C   0  0  1  0  0  0  0  0  0  0  0  0
    5.3757  -15.8236   13.6036 C   0  0  2  0  0  0  0  0  0  0  0  0
    5.1052  -16.0887   15.1185 C   0  0  2  0  0  0  0  0  0  0  0  0
    5.0923  -17.5125   15.3574 O   0  0  0  0  0  0  0  0  0  0  0  0
    3.7046  -15.4385   15.5019 C   0  0  2  0  0  0  0  0  0  0  0  0
    3.7445  -13.9563   15.2341 O   0  0  0  0  0  0  0  0  0  0  0  0
    3.3572  -15.6262   16.9723 C   0  0  0  0  0  0  0  0  0  0  0  0
    4.3313  -14.9188   17.8619 N   0  0  0  0  0  0  0  0  0  0  0  0
   -0.6038  -12.4708   14.9355 C   0  0  2  0  0  0  0  0  0  0  0  0
   -1.9756  -12.0685   15.1422 N   0  0  0  0  0  0  0  0  0  0  0  0
    0.0192  -11.6351   13.7454 C   0  0  0  0  0  0  0  0  0  0  0  0
    1.5328  -12.0719   13.5021 C   0  0  2  0  0  0  0  0  0  0  0  0
    2.1216  -11.2743   12.3946 N   0  0  0  0  0  0  0  0  0  0  0  0
    1.5819  -13.6368   13.1772 C   0  0  2  0  0  0  0  0  0  0  0  0
    0.9457  -14.4302   14.3969 C   0  0  2  0  0  0  0  0  0  0  0  0
    0.9884  -15.8313   14.1174 O   0  0  0  0  0  0  0  0  0  0  0  0
   -0.5519  -13.9846   14.6290 C   0  0  1  0  0  0  0  0  0  0  0  0
   -1.1109  -14.7019   15.7575 O   0  0  0  0  0  0  0  0  0  0  0  0
   -0.3860  -15.1971   16.8318 C   0  0  2  0  0  0  0  0  0  0  0  0
   -1.4161  -15.6793   17.9141 C   0  0  2  0  0  0  0  0  0  0  0  0
   -2.2622  -16.6363   17.3633 O   0  0  0  0  0  0  0  0  0  0  0  0
   -2.2408  -14.4675   18.5247 C   0  0  1  0  0  0  0  0  0  0  0  0
   -3.2062  -14.9473   19.5614 N   0  0  0  0  0  0  0  0  0  0  0  0
   -1.2188  -13.4153   19.1407 C   0  0  2  0  0  0  0  0  0  0  0  0
   -1.9174  -12.3051   19.7177 O   0  0  0  0  0  0  0  0  0  0  0  0
   -0.2413  -12.9510   17.9927 C   0  0  2  0  0  0  0  0  0  0  0  0
    0.4952  -14.1419   17.3945 O   0  0  0  0  0  0  0  0  0  0  0  0
    0.7756  -11.9613   18.5093 C   0  0  0  0  0  0  0  0  0  0  0  0
    1.6118  -11.4275   17.4659 O   0  0  0  0  0  0  0  0  0  0  0  0
    5.6704  -13.9592   11.9944 O   0  0  0  0  0  0  0  0  0  0  0  0
    6.5886  -16.3547   13.2368 O   0  0  0  0  0  0  0  0  0  0  0  0
   -2.2499  -10.9055   15.9542 C   0  0  0  0  0  0  0  0  0  0  0  0
   -1.3966  -10.5175   16.8064 O   0  0  0  0  0  0  0  0  0  0  0  0
   -3.6102  -10.1723   15.7435 C   0  0  2  0  0  0  0  0  0  0  0  0
   -3.6681   -7.6454   17.6595 N   0  0  0  0  0  0  0  0  0  0  0  0
   -4.3548   -9.9757   17.1001 C   0  0  0  0  0  0  0  0  0  0  0  0
   -3.5988   -9.0648   18.0819 C   0  0  0  0  0  0  0  0  0  0  0  0
   -4.4134  -10.8312   15.0094 O   0  0  0  0  0  0  0  0  0  0  0  0
  1  2  1  6  0  0  0
  1  3  1  0  0  0  0
  1  8  1  0  0  0  0
  3  4  1  0  0  0  0
  3 32  1  6  0  0  0
  4  5  1  0  0  0  0
  4 33  1  1  0  0  0
  5  6  1  6  0  0  0
  5  7  1  0  0  0  0
  7  8  1  0  0  0  0
  7  9  1  1  0  0  0
  9 10  1  0  0  0  0
 11 12  1  6  0  0  0
 11 13  1  0  0  0  0
 11 19  1  0  0  0  0
 12 34  1  0  0  0  0
 13 14  1  0  0  0  0
 14 15  1  6  0  0  0
 14 16  1  0  0  0  0
 16  2  1  1  0  0  0
 16 17  1  0  0  0  0
 17 18  1  6  0  0  0
 17 19  1  0  0  0  0
 19 20  1  1  0  0  0
 21 20  1  6  0  0  0
 21 22  1  0  0  0  0
 21 29  1  0  0  0  0
 22 23  1  6  0  0  0
 22 24  1  0  0  0  0
 24 25  1  1  0  0  0
 24 26  1  0  0  0  0
 26 27  1  6  0  0  0
 26 28  1  0  0  0  0
 28 29  1  0  0  0  0
 28 30  1  1  0  0  0
 30 31  1  0  0  0  0
 34 35  2  0  0  0  0
 36 34  1  1  0  0  0
 36 38  1  0  0  0  0
 36 40  1  0  0  0  0
 37 39  1  0  0  0  0
 38 39  1  0  0  0  0
M  END
>  <CHROM.1>
175.15582428,45.66767898,63.95390514,-83.73654425,-92.23539155,170.71667977
-174.96208563,128.46868614,63.84340612,73.17361009,0.65142004,-13.41923313
15.83629603,-0.07959297,0.59286217,-0.73625954

>  <Name>
ligand

>  <RI>
0

>  <Rbt.Current_Directory>
/home/itssahil/PROJECTS/Mol_Feturizer/New_Systems/rnas/4P20

>  <Rbt.Executable>
rbdock ($Id: //depot/dev/client3/rdock/2013.1/src/exe/rbdock.cxx#4 $)

>  <Rbt.Library>
libRbt.so (2013.1, Build901 2013/11/27)

>  <Rbt.Parameter_File>
/export/apps/rDock/src/rDock_2013.1_src/data/scripts/dock_solv.prm

>  <Rbt.Receptor>
prm/pocket_docking_5.prm

>  <SCORE>
-11.179

>  <SCORE.INTER>
-2.52162

>  <SCORE.INTER.CONST>
1

>  <SCORE.INTER.POLAR>
0

>  <SCORE.INTER.ROT>
10

>  <SCORE.INTER.SOLV>
14.8155

>  <SCORE.INTER.VDW>
-16.8863

>  <SCORE.INTER.norm>
-0.0630406

>  <SCORE.INTRA>
-8.67942

>  <SCORE.INTRA.DIHEDRAL>
-19.133

>  <SCORE.INTRA.DIHEDRAL.0>
28.2802

>  <SCORE.INTRA.POLAR>
0

>  <SCORE.INTRA.POLAR.0>
0

>  <SCORE.INTRA.REPUL>
0

>  <SCORE.INTRA.REPUL.0>
0

>  <SCORE.INTRA.SOLV>
3.97322

>  <SCORE.INTRA.SOLV.lig_0>
-101.981

>  <SCORE.INTRA.VDW>
-1.09953

>  <SCORE.INTRA.VDW.0>
-5.72964

>  <SCORE.INTRA.norm>
-0.216985

>  <SCORE.RESTR>
0.0220505

>  <SCORE.RESTR.CAVITY>
0.0220505

>  <SCORE.RESTR.norm>
0.000551262

>  <SCORE.SYSTEM>
0

>  <SCORE.SYSTEM.CONST>
0

>  <SCORE.SYSTEM.DIHEDRAL>
0

>  <SCORE.SYSTEM.SOLV>
0

>  <SCORE.SYSTEM.norm>
0

>  <SCORE.heavy>
40

>  <SCORE.norm>
-0.279475

>  <RMSD>
7.653

$$$$
ligand
 OpenBabel11021811513D
libRbt.so/2013.1/901 2013/11/27
 40 42  0  0  0  0  0  0  0  0999 V2000
    4.2743   -4.2388   24.7618 C   0  0  2  0  0  0  0  0  0  0  0  0
    4.7742   -3.6299   23.5608 O   0  0  0  0  0  0  0  0  0  0  0  0
    3.3624   -3.2302   25.5558 C   0  0  1  0  0  0  0  0  0  0  0  0
    4.1793   -2.0157   26.0858 C   0  0  2  0  0  0  0  0  0  0  0  0
    5.2927   -2.5685   27.0309 C   0  0  2  0  0  0  0  0  0  0  0  0
    6.0562   -1.4646   27.5630 O   0  0  0  0  0  0  0  0  0  0  0  0
    6.2247   -3.5485   26.1928 C   0  0  2  0  0  0  0  0  0  0  0  0
    5.4006   -4.6838   25.6432 O   0  0  0  0  0  0  0  0  0  0  0  0
    7.3363   -4.1590   27.0352 C   0  0  0  0  0  0  0  0  0  0  0  0
    6.7872   -5.0292   28.1224 N   0  0  0  0  0  0  0  0  0  0  0  0
    3.5933   -6.0971   20.1186 C   0  0  2  0  0  0  0  0  0  0  0  0
    3.6792   -6.8050   18.8625 N   0  0  0  0  0  0  0  0  0  0  0  0
    3.8735   -4.5586   19.8792 C   0  0  0  0  0  0  0  0  0  0  0  0
    3.7868   -3.7643   21.2585 C   0  0  2  0  0  0  0  0  0  0  0  0
    4.0340   -2.3166   21.0293 N   0  0  0  0  0  0  0  0  0  0  0  0
    4.8491   -4.3768   22.2848 C   0  0  2  0  0  0  0  0  0  0  0  0
    4.5279   -5.9184   22.4903 C   0  0  2  0  0  0  0  0  0  0  0  0
    5.4705   -6.4746   23.4097 O   0  0  0  0  0  0  0  0  0  0  0  0
    4.6134   -6.6918   21.1156 C   0  0  1  0  0  0  0  0  0  0  0  0
    4.2974   -8.0919   21.3166 O   0  0  0  0  0  0  0  0  0  0  0  0
    4.9190   -8.9313   22.2299 C   0  0  2  0  0  0  0  0  0  0  0  0
    5.4063  -10.2021   21.4471 C   0  0  2  0  0  0  0  0  0  0  0  0
    6.2593   -9.8202   20.4168 O   0  0  0  0  0  0  0  0  0  0  0  0
    4.1880  -11.0584   20.8958 C   0  0  1  0  0  0  0  0  0  0  0  0
    4.6740  -12.2695   20.1652 N   0  0  0  0  0  0  0  0  0  0  0  0
    3.2571  -11.4661   22.1199 C   0  0  2  0  0  0  0  0  0  0  0  0
    2.1462  -12.2540   21.6741 O   0  0  0  0  0  0  0  0  0  0  0  0
    2.7792  -10.1434   22.8347 C   0  0  2  0  0  0  0  0  0  0  0  0
    3.9715   -9.3215   23.3053 O   0  0  0  0  0  0  0  0  0  0  0  0
    1.9030  -10.4527   24.0251 C   0  0  0  0  0  0  0  0  0  0  0  0
    0.6862  -11.1296   23.6588 O   0  0  0  0  0  0  0  0  0  0  0  0
    2.2933   -2.7857   24.6708 O   0  0  0  0  0  0  0  0  0  0  0  0
    3.3398   -1.1777   26.7789 O   0  0  0  0  0  0  0  0  0  0  0  0
    2.5890   -7.6668   18.4680 C   0  0  0  0  0  0  0  0  0  0  0  0
    1.8099   -8.1391   19.3483 O   0  0  0  0  0  0  0  0  0  0  0  0
    2.4224   -7.9852   16.9503 C   0  0  2  0  0  0  0  0  0  0  0  0
    0.6963  -10.9622   15.1276 N   0  0  0  0  0  0  0  0  0  0  0  0
    1.7214   -9.3632   16.7423 C   0  0  0  0  0  0  0  0  0  0  0  0
    1.4085   -9.6695   15.2681 C   0  0  0  0  0  0  0  0  0  0  0  0
    3.5368   -8.0779   16.3440 O   0  0  0  0  0  0  0  0  0  0  0  0
  1  2  1  6  0  0  0
  1  3  1  0  0  0  0
  1  8  1  0  0  0  0
  3  4  1  0  0  0  0
  3 32  1  6  0  0  0
  4  5  1  0  0  0  0
  4 33  1  1  0  0  0
  5  6  1  6  0  0  0
  5  7  1  0  0  0  0
  7  8  1  0  0  0  0
  7  9  1  1  0  0  0
  9 10  1  0  0  0  0
 11 12  1  6  0  0  0
 11 13  1  0  0  0  0
 11 19  1  0  0  0  0
 12 34  1  0  0  0  0
 13 14  1  0  0  0  0
 14 15  1  6  0  0  0
 14 16  1  0  0  0  0
 16  2  1  1  0  0  0
 16 17  1  0  0  0  0
 17 18  1  1  0  0  0
 17 19  1  0  0  0  0
 19 20  1  1  0  0  0
 21 20  1  6  0  0  0
 21 22  1  0  0  0  0
 21 29  1  0  0  0  0
 22 23  1  6  0  0  0
 22 24  1  0  0  0  0
 24 25  1  1  0  0  0
 24 26  1  0  0  0  0
 26 27  1  6  0  0  0
 26 28  1  0  0  0  0
 28 29  1  0  0  0  0
 28 30  1  1  0  0  0
 30 31  1  0  0  0  0
 34 35  2  0  0  0  0
 36 34  1  1  0  0  0
 36 38  1  0  0  0  0
 36 40  1  0  0  0  0
 37 39  1  0  0  0  0
 38 39  1  0  0  0  0
M  END
>  <CHROM.1>
-139.12876024,111.63437024,63.74404158,-128.24954517,-174.12999279,-127.27463565
-62.82098034,152.95847598,174.46764391,-177.75781617,3.90336358,-6.81707522
22.17597527,0.51035071,-1.30503729,-0.22834284

>  <Name>
ligand

>  <RI>
0

>  <Rbt.Current_Directory>
/home/itssahil/PROJECTS/Mol_Feturizer/New_Systems/rnas/4P20

>  <Rbt.Executable>
rbdock ($Id: //depot/dev/client3/rdock/2013.1/src/exe/rbdock.cxx#4 $)

>  <Rbt.Library>
libRbt.so (2013.1, Build901 2013/11/27)

>  <Rbt.Parameter_File>
/export/apps/rDock/src/rDock_2013.1_src/data/scripts/dock_solv.prm

>  <Rbt.Receptor>
prm/pocket_docking_7.prm

>  <SCORE>
-11.0962

>  <SCORE.INTER>
-10.7903

>  <SCORE.INTER.CONST>
1

>  <SCORE.INTER.POLAR>
0

>  <SCORE.INTER.ROT>
10

>  <SCORE.INTER.SOLV>
21.383

>  <SCORE.INTER.VDW>
-24.5879

>  <SCORE.INTER.norm>
-0.269759

>  <SCORE.INTRA>
-0.305839

>  <SCORE.INTRA.DIHEDRAL>
-5.91502

>  <SCORE.INTRA.DIHEDRAL.0>
28.2802

>  <SCORE.INTRA.POLAR>
0

>  <SCORE.INTRA.POLAR.0>
0

>  <SCORE.INTRA.REPUL>
0

>  <SCORE.INTRA.REPUL.0>
0

>  <SCORE.INTRA.SOLV>
-0.311258

>  <SCORE.INTRA.SOLV.lig_0>
-101.981

>  <SCORE.INTRA.VDW>
2.8073

>  <SCORE.INTRA.VDW.0>
-5.72964

>  <SCORE.INTRA.norm>
-0.00764596

>  <SCORE.RESTR>
0

>  <SCORE.RESTR.CAVITY>
0

>  <SCORE.RESTR.norm>
0

>  <SCORE.SYSTEM>
0

>  <SCORE.SYSTEM.CONST>
0

>  <SCORE.SYSTEM.DIHEDRAL>
0

>  <SCORE.SYSTEM.SOLV>
0

>  <SCORE.SYSTEM.norm>
0

>  <SCORE.heavy>
40

>  <SCORE.norm>
-0.277405

>  <RMSD>
7.653

$$$$
ligand
 OpenBabel11021811513D
libRbt.so/2013.1/901 2013/11/27
 40 42  0  0  0  0  0  0  0  0999 V2000
   -1.8873   -8.3840   19.8286 C   0  0  2  0  0  0  0  0  0  0  0  0
   -1.2367   -9.3563   18.9954 O   0  0  0  0  0  0  0  0  0  0  0  0
   -2.1675   -8.9793   21.2591 C   0  0  1  0  0  0  0  0  0  0  0  0
   -3.1974  -10.1451   21.2018 C   0  0  2  0  0  0  0  0  0  0  0  0
   -4.5234   -9.5782   20.6031 C   0  0  2  0  0  0  0  0  0  0  0  0
   -5.5128  -10.6288   20.5590 O   0  0  0  0  0  0  0  0  0  0  0  0
   -4.2210   -9.0249   19.1423 C   0  0  2  0  0  0  0  0  0  0  0  0
   -3.1804   -7.9379   19.2183 O   0  0  0  0  0  0  0  0  0  0  0  0
   -5.4542   -8.4287   18.4774 C   0  0  0  0  0  0  0  0  0  0  0  0
   -5.2149   -8.1480   17.0267 N   0  0  0  0  0  0  0  0  0  0  0  0
    3.0207  -10.3310   18.4908 C   0  0  2  0  0  0  0  0  0  0  0  0
    4.3544  -10.7905   18.8016 N   0  0  0  0  0  0  0  0  0  0  0  0
    2.6320   -9.1412   19.4584 C   0  0  0  0  0  0  0  0  0  0  0  0
    1.1596   -8.6263   19.1303 C   0  0  2  0  0  0  0  0  0  0  0  0
    0.8023   -7.4977   20.0293 N   0  0  0  0  0  0  0  0  0  0  0  0
    0.1311   -9.8403   19.2896 C   0  0  2  0  0  0  0  0  0  0  0  0
    0.5634  -11.0065   18.3023 C   0  0  2  0  0  0  0  0  0  0  0  0
   -0.3528  -12.0957   18.4347 O   0  0  0  0  0  0  0  0  0  0  0  0
    2.0251  -11.5039   18.6362 C   0  0  1  0  0  0  0  0  0  0  0  0
    2.4121  -12.5528   17.7138 O   0  0  0  0  0  0  0  0  0  0  0  0
    1.8274  -13.8086   17.6363 C   0  0  2  0  0  0  0  0  0  0  0  0
    2.8839  -14.7828   17.0041 C   0  0  2  0  0  0  0  0  0  0  0  0
    4.0404  -14.7868   17.7773 O   0  0  0  0  0  0  0  0  0  0  0  0
    3.2041  -14.4070   15.4949 C   0  0  1  0  0  0  0  0  0  0  0  0
    4.2022  -15.3543   14.9091 N   0  0  0  0  0  0  0  0  0  0  0  0
    1.8458  -14.4254   14.6666 C   0  0  2  0  0  0  0  0  0  0  0  0
    2.0845  -14.1040   13.2907 O   0  0  0  0  0  0  0  0  0  0  0  0
    0.8492  -13.4018   15.3359 C   0  0  2  0  0  0  0  0  0  0  0  0
    0.6039  -13.7608   16.7952 O   0  0  0  0  0  0  0  0  0  0  0  0
   -0.4762  -13.3788   14.6126 C   0  0  0  0  0  0  0  0  0  0  0  0
   -1.3835  -12.3962   15.1457 O   0  0  0  0  0  0  0  0  0  0  0  0
   -0.9025   -9.4359   21.8205 O   0  0  0  0  0  0  0  0  0  0  0  0
   -3.4132  -10.6168   22.4740 O   0  0  0  0  0  0  0  0  0  0  0  0
    5.4478   -9.8473   18.7604 C   0  0  0  0  0  0  0  0  0  0  0  0
    5.3444   -8.7940   18.0642 O   0  0  0  0  0  0  0  0  0  0  0  0
    6.7291  -10.1785   19.5857 C   0  0  2  0  0  0  0  0  0  0  0  0
    8.7740  -12.0300   16.8447 N   0  0  0  0  0  0  0  0  0  0  0  0
    7.5605  -11.3054   18.8982 C   0  0  0  0  0  0  0  0  0  0  0  0
    8.1712  -10.8759   17.5537 C   0  0  0  0  0  0  0  0  0  0  0  0
    6.4625  -10.6173   20.7495 O   0  0  0  0  0  0  0  0  0  0  0  0
  1  2  1  6  0  0  0
  1  3  1  0  0  0  0
  1  8  1  0  0  0  0
  3  4  1  0  0  0  0
  3 32  1  6  0  0  0
  4  5  1  0  0  0  0
  4 33  1  1  0  0  0
  5  6  1  6  0  0  0
  5  7  1  0  0  0  0
  7  8  1  0  0  0  0
  7  9  1  1  0  0  0
  9 10  1  0  0  0  0
 11 12  1  1  0  0  0
 11 13  1  0  0  0  0
 11 19  1  0  0  0  0
 12 34  1  0  0  0  0
 13 14  1  0  0  0  0
 14 15  1  1  0  0  0
 14 16  1  0  0  0  0
 16  2  1  6  0  0  0
 16 17  1  0  0  0  0
 17 18  1  1  0  0  0
 17 19  1  0  0  0  0
 19 20  1  6  0  0  0
 21 20  1  6  0  0  0
 21 22  1  0  0  0  0
 21 29  1  0  0  0  0
 22 23  1  1  0  0  0
 22 24  1  0  0  0  0
 24 25  1  6  0  0  0
 24 26  1  0  0  0  0
 26 27  1  6  0  0  0
 26 28  1  0  0  0  0
 28 29  1  0  0  0  0
 28 30  1  6  0  0  0
 30 31  1  0  0  0  0
 34 35  2  0  0  0  0
 36 34  1  6  0  0  0
 36 38  1  0  0  0  0
 36 40  1  0  0  0  0
 37 39  1  0  0  0  0
 38 39  1  0  0  0  0
M  END
>  <CHROM.1>
-66.00123026,-65.32698051,-169.47522966,-56.91111600,174.15872516,-156.04495012
-176.44199338,74.29553822,66.85475539,-171.40285951,1.06871732,-11.07087965
18.30486027,-2.73186296,0.04228589,-2.35392708

>  <Name>
ligand

>  <RI>
0

>  <Rbt.Current_Directory>
/home/itssahil/PROJECTS/Mol_Feturizer/New_Systems/rnas/4P20

>  <Rbt.Executable>
rbdock ($Id: //depot/dev/client3/rdock/2013.1/src/exe/rbdock.cxx#4 $)

>  <Rbt.Library>
libRbt.so (2013.1, Build901 2013/11/27)

>  <Rbt.Parameter_File>
/export/apps/rDock/src/rDock_2013.1_src/data/scripts/dock_solv.prm

>  <Rbt.Receptor>
prm/pocket_docking_6.prm

>  <SCORE>
-6.44592

>  <SCORE.INTER>
2.56149

>  <SCORE.INTER.CONST>
1

>  <SCORE.INTER.POLAR>
0

>  <SCORE.INTER.ROT>
10

>  <SCORE.INTER.SOLV>
12.8749

>  <SCORE.INTER.VDW>
-12.8506

>  <SCORE.INTER.norm>
0.0640373

>  <SCORE.INTRA>
-9.01021

>  <SCORE.INTRA.DIHEDRAL>
-23.3895

>  <SCORE.INTRA.DIHEDRAL.0>
28.2802

>  <SCORE.INTRA.POLAR>
0

>  <SCORE.INTRA.POLAR.0>
0

>  <SCORE.INTRA.REPUL>
0

>  <SCORE.INTRA.REPUL.0>
0

>  <SCORE.INTRA.SOLV>
0.590825

>  <SCORE.INTRA.SOLV.lig_0>
-101.981

>  <SCORE.INTRA.VDW>
2.38915

>  <SCORE.INTRA.VDW.0>
-5.72964

>  <SCORE.INTRA.norm>
-0.225255

>  <SCORE.RESTR>
0.0028006

>  <SCORE.RESTR.CAVITY>
0.0028006

>  <SCORE.RESTR.norm>
7.0015e-05

>  <SCORE.SYSTEM>
0

>  <SCORE.SYSTEM.CONST>
0

>  <SCORE.SYSTEM.DIHEDRAL>
0

>  <SCORE.SYSTEM.SOLV>
0

>  <SCORE.SYSTEM.norm>
0

>  <SCORE.heavy>
40

>  <SCORE.norm>
-0.161148

>  <RMSD>
7.664

$$$$
ligand
 OpenBabel11021811513D
libRbt.so/2013.1/901 2013/11/27
 40 42  0  0  0  0  0  0  0  0999 V2000
    3.7228   -2.7580   22.7647 C   0  0  2  0  0  0  0  0  0  0  0  0
    4.5217   -3.6061   21.9247 O   0  0  0  0  0  0  0  0  0  0  0  0
    2.3058   -2.5179   22.1213 C   0  0  1  0  0  0  0  0  0  0  0  0
    2.4093   -1.7097   20.7950 C   0  0  2  0  0  0  0  0  0  0  0  0
    3.0718   -0.3352   21.1270 C   0  0  2  0  0  0  0  0  0  0  0  0
    3.1605    0.4537   19.9211 O   0  0  0  0  0  0  0  0  0  0  0  0
    4.5179   -0.6059   21.7330 C   0  0  2  0  0  0  0  0  0  0  0  0
    4.3950   -1.4375   22.9834 O   0  0  0  0  0  0  0  0  0  0  0  0
    5.2422    0.6791   22.1103 C   0  0  0  0  0  0  0  0  0  0  0  0
    6.6028    0.3996   22.6681 N   0  0  0  0  0  0  0  0  0  0  0  0
    5.2632   -7.9150   21.4632 C   0  0  2  0  0  0  0  0  0  0  0  0
    5.0149   -9.3368   21.4051 N   0  0  0  0  0  0  0  0  0  0  0  0
    4.8772   -7.3686   22.8968 C   0  0  0  0  0  0  0  0  0  0  0  0
    5.1415   -5.7985   22.9746 C   0  0  2  0  0  0  0  0  0  0  0  0
    4.7939   -5.2897   24.3273 N   0  0  0  0  0  0  0  0  0  0  0  0
    4.2829   -5.0648   21.8426 C   0  0  2  0  0  0  0  0  0  0  0  0
    4.7042   -5.6472   20.4266 C   0  0  2  0  0  0  0  0  0  0  0  0
    3.9444   -4.9944   19.4070 O   0  0  0  0  0  0  0  0  0  0  0  0
    4.4409   -7.2035   20.3652 C   0  0  1  0  0  0  0  0  0  0  0  0
    4.8497   -7.7226   19.0752 O   0  0  0  0  0  0  0  0  0  0  0  0
    4.3406   -7.3177   17.8498 C   0  0  2  0  0  0  0  0  0  0  0  0
    2.8237   -7.7210   17.8124 C   0  0  2  0  0  0  0  0  0  0  0  0
    2.1552   -7.1328   18.8812 O   0  0  0  0  0  0  0  0  0  0  0  0
    2.6322   -9.2973   17.8134 C   0  0  1  0  0  0  0  0  0  0  0  0
    1.1818   -9.6590   17.7650 N   0  0  0  0  0  0  0  0  0  0  0  0
    3.4137   -9.9058   16.5684 C   0  0  2  0  0  0  0  0  0  0  0  0
    3.2603  -11.3297   16.5178 O   0  0  0  0  0  0  0  0  0  0  0  0
    4.9309   -9.4908   16.6909 C   0  0  2  0  0  0  0  0  0  0  0  0
    5.0752   -7.9757   16.7390 O   0  0  0  0  0  0  0  0  0  0  0  0
    5.7363  -10.0182   15.5275 C   0  0  0  0  0  0  0  0  0  0  0  0
    5.2976   -9.4892   14.2624 O   0  0  0  0  0  0  0  0  0  0  0  0
    1.6837   -3.8149   21.8876 O   0  0  0  0  0  0  0  0  0  0  0  0
    1.1477   -1.5190   20.2855 O   0  0  0  0  0  0  0  0  0  0  0  0
    5.8778  -10.1662   20.5962 C   0  0  0  0  0  0  0  0  0  0  0  0
    6.5296   -9.6513   19.6396 O   0  0  0  0  0  0  0  0  0  0  0  0
    5.9640  -11.6847   20.9413 C   0  0  2  0  0  0  0  0  0  0  0  0
    7.0377  -14.3251   22.0261 N   0  0  0  0  0  0  0  0  0  0  0  0
    6.5652  -11.9008   22.3645 C   0  0  0  0  0  0  0  0  0  0  0  0
    6.3676  -13.3299   22.8972 C   0  0  0  0  0  0  0  0  0  0  0  0
    6.7284  -12.3243   20.1509 O   0  0  0  0  0  0  0  0  0  0  0  0
  1  2  1  6  0  0  0
  1  3  1  0  0  0  0
  1  8  1  0  0  0  0
  3  4  1  0  0  0  0
  3 32  1  6  0  0  0
  4  5  1  0  0  0  0
  4 33  1  1  0  0  0
  5  6  1  6  0  0  0
  5  7  1  0  0  0  0
  7  8  1  0  0  0  0
  7  9  1  1  0  0  0
  9 10  1  0  0  0  0
 11 12  1  1  0  0  0
 11 13  1  0  0  0  0
 11 19  1  0  0  0  0
 12 34  1  0  0  0  0
 13 14  1  0  0  0  0
 14 15  1  1  0  0  0
 14 16  1  0  0  0  0
 16  2  1  6  0  0  0
 16 17  1  0  0  0  0
 17 18  1  6  0  0  0
 17 19  1  0  0  0  0
 19 20  1  6  0  0  0
 21 20  1  1  0  0  0
 21 22  1  0  0  0  0
 21 29  1  0  0  0  0
 22 23  1  1  0  0  0
 22 24  1  0  0  0  0
 24 25  1  6  0  0  0
 24 26  1  0  0  0  0
 26 27  1  1  0  0  0
 26 28  1  0  0  0  0
 28 29  1  0  0  0  0
 28 30  1  6  0  0  0
 30 31  1  0  0  0  0
 34 35  2  0  0  0  0
 36 34  1  6  0  0  0
 36 38  1  0  0  0  0
 36 40  1  0  0  0  0
 37 39  1  0  0  0  0
 38 39  1  0  0  0  0
M  END
>  <CHROM.1>
-75.32189645,-88.89510938,-179.57733839,-146.75167271,-179.51353751,-64.65741673
61.98173152,-63.45341995,166.16636437,61.23978503,4.39091852,-6.63298244
20.19848467,-1.93954611,1.13989273,-2.52926132

>  <Name>
ligand

>  <RI>
0

>  <Rbt.Current_Directory>
/home/itssahil/PROJECTS/Mol_Feturizer/New_Systems/rnas/4P20

>  <Rbt.Executable>
rbdock ($Id: //depot/dev/client3/rdock/2013.1/src/exe/rbdock.cxx#4 $)

>  <Rbt.Library>
libRbt.so (2013.1, Build901 2013/11/27)

>  <Rbt.Parameter_File>
/export/apps/rDock/src/rDock_2013.1_src/data/scripts/dock_solv.prm

>  <Rbt.Receptor>
prm/pocket_docking_7.prm

>  <SCORE>
-19.885

>  <SCORE.INTER>
-11.6805

>  <SCORE.INTER.CONST>
1

>  <SCORE.INTER.POLAR>
0

>  <SCORE.INTER.ROT>
10

>  <SCORE.INTER.SOLV>
21.8317

>  <SCORE.INTER.VDW>
-25.3309

>  <SCORE.INTER.norm>
-0.292012

>  <SCORE.INTRA>
-8.2045

>  <SCORE.INTRA.DIHEDRAL>
-21.4776

>  <SCORE.INTRA.DIHEDRAL.0>
28.2802

>  <SCORE.INTRA.POLAR>
0

>  <SCORE.INTRA.POLAR.0>
0

>  <SCORE.INTRA.REPUL>
0

>  <SCORE.INTRA.REPUL.0>
0

>  <SCORE.INTRA.SOLV>
2.24771

>  <SCORE.INTRA.SOLV.lig_0>
-101.981

>  <SCORE.INTRA.VDW>
1.41047

>  <SCORE.INTRA.VDW.0>
-5.72964

>  <SCORE.INTRA.norm>
-0.205112

>  <SCORE.RESTR>
0

>  <SCORE.RESTR.CAVITY>
0

>  <SCORE.RESTR.norm>
0

>  <SCORE.SYSTEM>
0

>  <SCORE.SYSTEM.CONST>
0

>  <SCORE.SYSTEM.DIHEDRAL>
0

>  <SCORE.SYSTEM.SOLV>
0

>  <SCORE.SYSTEM.norm>
0

>  <SCORE.heavy>
40

>  <SCORE.norm>
-0.497124

>  <RMSD>
7.666

$$$$
ligand
 OpenBabel11021811513D
libRbt.so/2013.1/901 2013/11/27
 40 42  0  0  0  0  0  0  0  0999 V2000
   -3.6110   -8.0314   18.4299 C   0  0  2  0  0  0  0  0  0  0  0  0
   -2.5162   -8.0546   17.5005 O   0  0  0  0  0  0  0  0  0  0  0  0
   -4.1135   -9.4931   18.7303 C   0  0  1  0  0  0  0  0  0  0  0  0
   -4.7338  -10.1560   17.4659 C   0  0  2  0  0  0  0  0  0  0  0  0
   -5.9383   -9.2733   17.0095 C   0  0  2  0  0  0  0  0  0  0  0  0
   -6.5559   -9.8735   15.8507 O   0  0  0  0  0  0  0  0  0  0  0  0
   -5.3957   -7.8166   16.6700 C   0  0  2  0  0  0  0  0  0  0  0  0
   -4.7495   -7.2194   17.8931 O   0  0  0  0  0  0  0  0  0  0  0  0
   -6.5037   -6.8687   16.2318 C   0  0  0  0  0  0  0  0  0  0  0  0
   -7.2135   -7.3775   15.0161 N   0  0  0  0  0  0  0  0  0  0  0  0
    1.8231   -8.0463   18.2080 C   0  0  2  0  0  0  0  0  0  0  0  0
    3.1316   -8.4942   18.6247 N   0  0  0  0  0  0  0  0  0  0  0  0
    0.8577   -7.9947   19.4603 C   0  0  0  0  0  0  0  0  0  0  0  0
   -0.5928   -7.5063   19.0148 C   0  0  2  0  0  0  0  0  0  0  0  0
   -1.4939   -7.4427   20.1952 N   0  0  0  0  0  0  0  0  0  0  0  0
   -1.1647   -8.5043   17.9040 C   0  0  2  0  0  0  0  0  0  0  0  0
   -0.1628   -8.5226   16.6720 C   0  0  2  0  0  0  0  0  0  0  0  0
   -0.6676   -9.4096   15.6712 O   0  0  0  0  0  0  0  0  0  0  0  0
    1.2706   -9.0042   17.1286 C   0  0  1  0  0  0  0  0  0  0  0  0
    2.1775   -8.9953   15.9980 O   0  0  0  0  0  0  0  0  0  0  0  0
    1.9725   -9.6646   14.8001 C   0  0  2  0  0  0  0  0  0  0  0  0
    2.2666  -11.1859   15.0532 C   0  0  2  0  0  0  0  0  0  0  0  0
    1.4436  -11.6603   16.0695 O   0  0  0  0  0  0  0  0  0  0  0  0
    3.7975  -11.4431   15.3875 C   0  0  1  0  0  0  0  0  0  0  0  0
    4.0576  -12.8987   15.6124 N   0  0  0  0  0  0  0  0  0  0  0  0
    4.6813  -10.8844   14.1883 C   0  0  2  0  0  0  0  0  0  0  0  0
    6.0750  -11.1052   14.4375 O   0  0  0  0  0  0  0  0  0  0  0  0
    4.3598   -9.3496   14.0156 C   0  0  2  0  0  0  0  0  0  0  0  0
    2.8765   -9.1342   13.7475 O   0  0  0  0  0  0  0  0  0  0  0  0
    5.1506   -8.7515   12.8766 C   0  0  0  0  0  0  0  0  0  0  0  0
    4.9489   -7.3321   12.7447 O   0  0  0  0  0  0  0  0  0  0  0  0
   -2.9842  -10.2735   19.2202 O   0  0  0  0  0  0  0  0  0  0  0  0
   -5.1653  -11.4201   17.7873 O   0  0  0  0  0  0  0  0  0  0  0  0
    4.0952   -7.5176   19.0770 C   0  0  0  0  0  0  0  0  0  0  0  0
    3.9838   -6.3088   18.7145 O   0  0  0  0  0  0  0  0  0  0  0  0
    5.2513   -8.0069   20.0025 C   0  0  2  0  0  0  0  0  0  0  0  0
    5.7792  -11.7103   18.9227 N   0  0  0  0  0  0  0  0  0  0  0  0
    5.9460   -9.2707   19.4078 C   0  0  0  0  0  0  0  0  0  0  0  0
    5.0491  -10.5199   19.4207 C   0  0  0  0  0  0  0  0  0  0  0  0
    4.8416   -8.3570   21.1547 O   0  0  0  0  0  0  0  0  0  0  0  0
  1  2  1  6  0  0  0
  1  3  1  0  0  0  0
  1  8  1  0  0  0  0
  3  4  1  0  0  0  0
  3 32  1  6  0  0  0
  4  5  1  0  0  0  0
  4 33  1  1  0  0  0
  5  6  1  6  0  0  0
  5  7  1  0  0  0  0
  7  8  1  0  0  0  0
  7  9  1  1  0  0  0
  9 10  1  0  0  0  0
 11 12  1  1  0  0  0
 11 13  1  0  0  0  0
 11 19  1  0  0  0  0
 12 34  1  0  0  0  0
 13 14  1  0  0  0  0
 14 15  1  1  0  0  0
 14 16  1  0  0  0  0
 16  2  1  6  0  0  0
 16 17  1  0  0  0  0
 17 18  1  6  0  0  0
 17 19  1  0  0  0  0
 19 20  1  6  0  0  0
 21 20  1  1  0  0  0
 21 22  1  0  0  0  0
 21 29  1  0  0  0  0
 22 23  1  1  0  0  0
 22 24  1  0  0  0  0
 24 25  1  6  0  0  0
 24 26  1  0  0  0  0
 26 27  1  1  0  0  0
 26 28  1  0  0  0  0
 28 29  1  0  0  0  0
 28 30  1  6  0  0  0
 30 31  1  0  0  0  0
 34 35  2  0  0  0  0
 36 34  1  6  0  0  0
 36 38  1  0  0  0  0
 36 40  1  0  0  0  0
 37 39  1  0  0  0  0
 38 39  1  0  0  0  0
M  END
>  <CHROM.1>
-73.44593457,-63.57990857,-59.17358190,-88.25977096,-175.57520818,-76.00097296
-176.18775318,49.34234267,-68.52750941,-176.57866079,0.54831930,-9.12785429
17.03736076,-3.05320320,0.07582685,-1.85180195

>  <Name>
ligand

>  <RI>
0

>  <Rbt.Current_Directory>
/home/itssahil/PROJECTS/Mol_Feturizer/New_Systems/rnas/4P20

>  <Rbt.Executable>
rbdock ($Id: //depot/dev/client3/rdock/2013.1/src/exe/rbdock.cxx#4 $)

>  <Rbt.Library>
libRbt.so (2013.1, Build901 2013/11/27)

>  <Rbt.Parameter_File>
/export/apps/rDock/src/rDock_2013.1_src/data/scripts/dock_solv.prm

>  <Rbt.Receptor>
prm/pocket_docking_4.prm

>  <SCORE>
-9.27518

>  <SCORE.INTER>
-1.39535

>  <SCORE.INTER.CONST>
1

>  <SCORE.INTER.POLAR>
0

>  <SCORE.INTER.ROT>
10

>  <SCORE.INTER.SOLV>
14.2807

>  <SCORE.INTER.VDW>
-15.9571

>  <SCORE.INTER.norm>
-0.0348837

>  <SCORE.INTRA>
-7.87983

>  <SCORE.INTRA.DIHEDRAL>
-24.2288

>  <SCORE.INTRA.DIHEDRAL.0>
28.2802

>  <SCORE.INTRA.POLAR>
0

>  <SCORE.INTRA.POLAR.0>
0

>  <SCORE.INTRA.REPUL>
0

>  <SCORE.INTRA.REPUL.0>
0

>  <SCORE.INTRA.SOLV>
3.0223

>  <SCORE.INTRA.SOLV.lig_0>
-101.981

>  <SCORE.INTRA.VDW>
2.72341

>  <SCORE.INTRA.VDW.0>
-5.72964

>  <SCORE.INTRA.norm>
-0.196996

>  <SCORE.RESTR>
0

>  <SCORE.RESTR.CAVITY>
0

>  <SCORE.RESTR.norm>
0

>  <SCORE.SYSTEM>
0

>  <SCORE.SYSTEM.CONST>
0

>  <SCORE.SYSTEM.DIHEDRAL>
0

>  <SCORE.SYSTEM.SOLV>
0

>  <SCORE.SYSTEM.norm>
0

>  <SCORE.heavy>
40

>  <SCORE.norm>
-0.231879

>  <RMSD>
7.669

$$$$
ligand
 OpenBabel11021811513D
libRbt.so/2013.1/901 2013/11/27
 40 42  0  0  0  0  0  0  0  0999 V2000
    2.8456   -2.2933   22.2645 C   0  0  2  0  0  0  0  0  0  0  0  0
    3.5085   -3.1439   21.3158 O   0  0  0  0  0  0  0  0  0  0  0  0
    2.1824   -1.0642   21.5372 C   0  0  1  0  0  0  0  0  0  0  0  0
    3.2530   -0.1271   20.9061 C   0  0  2  0  0  0  0  0  0  0  0  0
    4.1756    0.3833   22.0579 C   0  0  2  0  0  0  0  0  0  0  0  0
    5.1678    1.2785   21.5114 O   0  0  0  0  0  0  0  0  0  0  0  0
    4.8664   -0.8744   22.7453 C   0  0  2  0  0  0  0  0  0  0  0  0
    3.8083   -1.7940   23.2976 O   0  0  0  0  0  0  0  0  0  0  0  0
    5.7761   -0.4811   23.9011 C   0  0  0  0  0  0  0  0  0  0  0  0
    4.9897    0.0001   25.0803 N   0  0  0  0  0  0  0  0  0  0  0  0
    5.4931   -7.0411   21.7668 C   0  0  2  0  0  0  0  0  0  0  0  0
    5.6777   -8.4467   22.0437 N   0  0  0  0  0  0  0  0  0  0  0  0
    4.9698   -6.3096   23.0682 C   0  0  0  0  0  0  0  0  0  0  0  0
    4.7566   -4.7571   22.7765 C   0  0  2  0  0  0  0  0  0  0  0  0
    4.2807   -4.0684   24.0048 N   0  0  0  0  0  0  0  0  0  0  0  0
    3.7130   -4.5867   21.5769 C   0  0  2  0  0  0  0  0  0  0  0  0
    4.2808   -5.3374   20.2979 C   0  0  2  0  0  0  0  0  0  0  0  0
    3.3561   -5.1876   19.2182 O   0  0  0  0  0  0  0  0  0  0  0  0
    4.4910   -6.8730   20.6025 C   0  0  1  0  0  0  0  0  0  0  0  0
    5.0287   -7.5390   19.4329 O   0  0  0  0  0  0  0  0  0  0  0  0
    4.5218   -7.4333   18.1458 C   0  0  2  0  0  0  0  0  0  0  0  0
    3.1466   -8.1903   18.1165 C   0  0  2  0  0  0  0  0  0  0  0  0
    2.2899   -7.6442   19.0668 O   0  0  0  0  0  0  0  0  0  0  0  0
    3.3283   -9.7522   18.3377 C   0  0  1  0  0  0  0  0  0  0  0  0
    2.0086  -10.4546   18.2936 N   0  0  0  0  0  0  0  0  0  0  0  0
    4.3110  -10.3138   17.2198 C   0  0  2  0  0  0  0  0  0  0  0  0
    4.4974  -11.7268   17.3693 O   0  0  0  0  0  0  0  0  0  0  0  0
    5.6780   -9.5343   17.3317 C   0  0  2  0  0  0  0  0  0  0  0  0
    5.4617   -8.0361   17.1662 O   0  0  0  0  0  0  0  0  0  0  0  0
    6.6597  -10.0014   16.2835 C   0  0  0  0  0  0  0  0  0  0  0  0
    6.9706  -11.4025   16.3983 O   0  0  0  0  0  0  0  0  0  0  0  0
    1.2750   -1.5719   20.5160 O   0  0  0  0  0  0  0  0  0  0  0  0
    2.6216    0.9309   20.2981 O   0  0  0  0  0  0  0  0  0  0  0  0
    4.5168   -9.3020   22.1311 C   0  0  0  0  0  0  0  0  0  0  0  0
    3.3850   -8.8010   22.4013 O   0  0  0  0  0  0  0  0  0  0  0  0
    4.7158  -10.8299   21.8896 C   0  0  2  0  0  0  0  0  0  0  0  0
    7.8175  -10.8214   19.5346 N   0  0  0  0  0  0  0  0  0  0  0  0
    5.5908  -11.0861   20.6238 C   0  0  0  0  0  0  0  0  0  0  0  0
    7.0227  -10.5405   20.7542 C   0  0  0  0  0  0  0  0  0  0  0  0
    3.6201  -11.4383   21.6719 O   0  0  0  0  0  0  0  0  0  0  0  0
  1  2  1  6  0  0  0
  1  3  1  0  0  0  0
  1  8  1  0  0  0  0
  3  4  1  0  0  0  0
  3 32  1  6  0  0  0
  4  5  1  0  0  0  0
  4 33  1  1  0  0  0
  5  6  1  6  0  0  0
  5  7  1  0  0  0  0
  7  8  1  0  0  0  0
  7  9  1  1  0  0  0
  9 10  1  0  0  0  0
 11 12  1  1  0  0  0
 11 13  1  0  0  0  0
 11 19  1  0  0  0  0
 12 34  1  0  0  0  0
 13 14  1  0  0  0  0
 14 15  1  1  0  0  0
 14 16  1  0  0  0  0
 16  2  1  6  0  0  0
 16 17  1  0  0  0  0
 17 18  1  6  0  0  0
 17 19  1  0  0  0  0
 19 20  1  6  0  0  0
 21 20  1  1  0  0  0
 21 22  1  0  0  0  0
 21 29  1  0  0  0  0
 22 23  1  1  0  0  0
 22 24  1  0  0  0  0
 24 25  1  6  0  0  0
 24 26  1  0  0  0  0
 26 27  1  1  0  0  0
 26 28  1  0  0  0  0
 28 29  1  0  0  0  0
 28 30  1  6  0  0  0
 30 31  1  0  0  0  0
 34 35  2  0  0  0  0
 36 34  1  6  0  0  0
 36 38  1  0  0  0  0
 36 40  1  0  0  0  0
 37 39  1  0  0  0  0
 38 39  1  0  0  0  0
M  END
>  <CHROM.1>
-153.92705858,-67.94115756,70.79448783,75.66279637,-169.45154891,-70.31804266
-60.19820717,-46.28021519,63.45047295,179.36166490,4.38765365,-6.14783964
20.54393900,1.98509221,-1.26145296,0.74721526

>  <Name>
ligand

>  <RI>
0

>  <Rbt.Current_Directory>
/home/itssahil/PROJECTS/Mol_Feturizer/New_Systems/rnas/4P20

>  <Rbt.Executable>
rbdock ($Id: //depot/dev/client3/rdock/2013.1/src/exe/rbdock.cxx#4 $)

>  <Rbt.Library>
libRbt.so (2013.1, Build901 2013/11/27)

>  <Rbt.Parameter_File>
/export/apps/rDock/src/rDock_2013.1_src/data/scripts/dock_solv.prm

>  <Rbt.Receptor>
prm/pocket_docking_6.prm

>  <SCORE>
-16.851

>  <SCORE.INTER>
-11.5456

>  <SCORE.INTER.CONST>
1

>  <SCORE.INTER.POLAR>
0

>  <SCORE.INTER.ROT>
10

>  <SCORE.INTER.SOLV>
15.6023

>  <SCORE.INTER.VDW>
-23.1645

>  <SCORE.INTER.norm>
-0.28864

>  <SCORE.INTRA>
-5.3054

>  <SCORE.INTRA.DIHEDRAL>
-22.3905

>  <SCORE.INTRA.DIHEDRAL.0>
28.2802

>  <SCORE.INTRA.POLAR>
0

>  <SCORE.INTRA.POLAR.0>
0

>  <SCORE.INTRA.REPUL>
0

>  <SCORE.INTRA.REPUL.0>
0

>  <SCORE.INTRA.SOLV>
8.31517

>  <SCORE.INTRA.SOLV.lig_0>
-101.981

>  <SCORE.INTRA.VDW>
1.73228

>  <SCORE.INTRA.VDW.0>
-5.72964

>  <SCORE.INTRA.norm>
-0.132635

>  <SCORE.RESTR>
0

>  <SCORE.RESTR.CAVITY>
0

>  <SCORE.RESTR.norm>
0

>  <SCORE.SYSTEM>
0

>  <SCORE.SYSTEM.CONST>
0

>  <SCORE.SYSTEM.DIHEDRAL>
0

>  <SCORE.SYSTEM.SOLV>
0

>  <SCORE.SYSTEM.norm>
0

>  <SCORE.heavy>
40

>  <SCORE.norm>
-0.421275

>  <RMSD>
7.675

$$$$
ligand
 OpenBabel11021811513D
libRbt.so/2013.1/901 2013/11/27
 40 42  0  0  0  0  0  0  0  0999 V2000
   -3.7894   -7.6725   18.3525 C   0  0  2  0  0  0  0  0  0  0  0  0
   -2.9064   -8.1579   17.3289 O   0  0  0  0  0  0  0  0  0  0  0  0
   -4.4080   -8.8715   19.1644 C   0  0  1  0  0  0  0  0  0  0  0  0
   -5.3402   -9.7444   18.2745 C   0  0  2  0  0  0  0  0  0  0  0  0
   -6.4866   -8.8263   17.7442 C   0  0  2  0  0  0  0  0  0  0  0  0
   -7.3878   -9.6106   16.9335 O   0  0  0  0  0  0  0  0  0  0  0  0
   -5.8371   -7.6505   16.8913 C   0  0  2  0  0  0  0  0  0  0  0  0
   -4.8961   -6.8559   17.7593 O   0  0  0  0  0  0  0  0  0  0  0  0
   -6.8777   -6.6833   16.3438 C   0  0  0  0  0  0  0  0  0  0  0  0
   -7.7764   -7.3485   15.3486 N   0  0  0  0  0  0  0  0  0  0  0  0
    1.4346   -8.8477   17.4295 C   0  0  2  0  0  0  0  0  0  0  0  0
    2.7084   -9.4345   17.7751 N   0  0  0  0  0  0  0  0  0  0  0  0
    0.7299   -8.3042   18.7374 C   0  0  0  0  0  0  0  0  0  0  0  0
   -0.6805   -7.6574   18.3721 C   0  0  2  0  0  0  0  0  0  0  0  0
   -1.3338   -7.1326   19.5998 N   0  0  0  0  0  0  0  0  0  0  0  0
   -1.5935   -8.7582   17.6568 C   0  0  2  0  0  0  0  0  0  0  0  0
   -0.8444   -9.2725   16.3544 C   0  0  2  0  0  0  0  0  0  0  0  0
   -1.6549  -10.2549   15.7053 O   0  0  0  0  0  0  0  0  0  0  0  0
    0.5525   -9.9068   16.7307 C   0  0  1  0  0  0  0  0  0  0  0  0
    1.2318  -10.3518   15.5303 O   0  0  0  0  0  0  0  0  0  0  0  0
    0.7786  -11.3444   14.6735 C   0  0  2  0  0  0  0  0  0  0  0  0
    1.3293  -12.7150   15.2059 C   0  0  2  0  0  0  0  0  0  0  0  0
    0.9043  -12.9146   16.5154 O   0  0  0  0  0  0  0  0  0  0  0  0
    2.9113  -12.7974   15.0972 C   0  0  1  0  0  0  0  0  0  0  0  0
    3.4130  -14.1145   15.5976 N   0  0  0  0  0  0  0  0  0  0  0  0
    3.3300  -12.5667   13.5798 C   0  0  2  0  0  0  0  0  0  0  0  0
    4.7527  -12.6447   13.4270 O   0  0  0  0  0  0  0  0  0  0  0  0
    2.7750  -11.1614   13.1259 C   0  0  2  0  0  0  0  0  0  0  0  0
    1.2626  -11.0980   13.2908 O   0  0  0  0  0  0  0  0  0  0  0  0
    3.1178  -10.8800   11.6823 C   0  0  0  0  0  0  0  0  0  0  0  0
    4.5358  -10.7711   11.4587 O   0  0  0  0  0  0  0  0  0  0  0  0
   -3.3153   -9.6700   19.7050 O   0  0  0  0  0  0  0  0  0  0  0  0
   -5.8604  -10.7642   19.0341 O   0  0  0  0  0  0  0  0  0  0  0  0
    3.8573   -8.5729   17.9317 C   0  0  0  0  0  0  0  0  0  0  0  0
    3.8748   -7.4386   17.3678 O   0  0  0  0  0  0  0  0  0  0  0  0
    5.0457   -9.0910   18.7988 C   0  0  2  0  0  0  0  0  0  0  0  0
    5.7495  -10.7923   21.2170 N   0  0  0  0  0  0  0  0  0  0  0  0
    4.8878   -8.6464   20.2857 C   0  0  0  0  0  0  0  0  0  0  0  0
    5.8982   -9.3172   21.2312 C   0  0  0  0  0  0  0  0  0  0  0  0
    6.1671   -8.6225   18.4231 O   0  0  0  0  0  0  0  0  0  0  0  0
  1  2  1  6  0  0  0
  1  3  1  0  0  0  0
  1  8  1  0  0  0  0
  3  4  1  0  0  0  0
  3 32  1  6  0  0  0
  4  5  1  0  0  0  0
  4 33  1  1  0  0  0
  5  6  1  6  0  0  0
  5  7  1  0  0  0  0
  7  8  1  0  0  0  0
  7  9  1  1  0  0  0
  9 10  1  0  0  0  0
 11 12  1  1  0  0  0
 11 13  1  0  0  0  0
 11 19  1  0  0  0  0
 12 34  1  0  0  0  0
 13 14  1  0  0  0  0
 14 15  1  1  0  0  0
 14 16  1  0  0  0  0
 16  2  1  6  0  0  0
 16 17  1  0  0  0  0
 17 18  1  1  0  0  0
 17 19  1  0  0  0  0
 19 20  1  6  0  0  0
 21 20  1  1  0  0  0
 21 22  1  0  0  0  0
 21 29  1  0  0  0  0
 22 23  1  1  0  0  0
 22 24  1  0  0  0  0
 24 25  1  6  0  0  0
 24 26  1  0  0  0  0
 26 27  1  1  0  0  0
 26 28  1  0  0  0  0
 28 29  1  0  0  0  0
 28 30  1  6  0  0  0
 30 31  1  0  0  0  0
 34 35  2  0  0  0  0
 36 34  1  6  0  0  0
 36 38  1  0  0  0  0
 36 40  1  0  0  0  0
 37 39  1  0  0  0  0
 38 39  1  0  0  0  0
M  END
>  <CHROM.1>
-71.03974654,-62.50862868,-65.39047563,-82.85754821,176.79788631,-88.36128628
-64.23185212,-91.74848677,170.46759863,-60.18638381,0.00038363,-9.69346353
16.86845337,-2.91274799,0.14734550,-2.03945315

>  <Name>
ligand

>  <RI>
0

>  <Rbt.Current_Directory>
/home/itssahil/PROJECTS/Mol_Feturizer/New_Systems/rnas/4P20

>  <Rbt.Executable>
rbdock ($Id: //depot/dev/client3/rdock/2013.1/src/exe/rbdock.cxx#4 $)

>  <Rbt.Library>
libRbt.so (2013.1, Build901 2013/11/27)

>  <Rbt.Parameter_File>
/export/apps/rDock/src/rDock_2013.1_src/data/scripts/dock_solv.prm

>  <Rbt.Receptor>
prm/pocket_docking_4.prm

>  <SCORE>
-10.9575

>  <SCORE.INTER>
-3.81087

>  <SCORE.INTER.CONST>
1

>  <SCORE.INTER.POLAR>
0

>  <SCORE.INTER.ROT>
10

>  <SCORE.INTER.SOLV>
12.2852

>  <SCORE.INTER.VDW>
-16.9023

>  <SCORE.INTER.norm>
-0.0952718

>  <SCORE.INTRA>
-7.14663

>  <SCORE.INTRA.DIHEDRAL>
-21.7444

>  <SCORE.INTRA.DIHEDRAL.0>
28.2802

>  <SCORE.INTRA.POLAR>
0

>  <SCORE.INTRA.POLAR.0>
0

>  <SCORE.INTRA.REPUL>
0

>  <SCORE.INTRA.REPUL.0>
0

>  <SCORE.INTRA.SOLV>
2.69385

>  <SCORE.INTRA.SOLV.lig_0>
-101.981

>  <SCORE.INTRA.VDW>
2.37864

>  <SCORE.INTRA.VDW.0>
-5.72964

>  <SCORE.INTRA.norm>
-0.178666

>  <SCORE.RESTR>
0

>  <SCORE.RESTR.CAVITY>
0

>  <SCORE.RESTR.norm>
0

>  <SCORE.SYSTEM>
0

>  <SCORE.SYSTEM.CONST>
0

>  <SCORE.SYSTEM.DIHEDRAL>
0

>  <SCORE.SYSTEM.SOLV>
0

>  <SCORE.SYSTEM.norm>
0

>  <SCORE.heavy>
40

>  <SCORE.norm>
-0.273938

>  <RMSD>
7.682

$$$$
ligand
 OpenBabel11021811513D
libRbt.so/2013.1/901 2013/11/27
 40 42  0  0  0  0  0  0  0  0999 V2000
   -4.6804   -7.7077   18.1796 C   0  0  2  0  0  0  0  0  0  0  0  0
   -3.8800   -8.4321   17.2322 O   0  0  0  0  0  0  0  0  0  0  0  0
   -5.0676   -8.6290   19.3964 C   0  0  1  0  0  0  0  0  0  0  0  0
   -6.0023   -9.7937   18.9574 C   0  0  2  0  0  0  0  0  0  0  0  0
   -7.2942   -9.1620   18.3489 C   0  0  2  0  0  0  0  0  0  0  0  0
   -8.1982  -10.2160   17.9533 O   0  0  0  0  0  0  0  0  0  0  0  0
   -6.8790   -8.2736   17.0960 C   0  0  2  0  0  0  0  0  0  0  0  0
   -5.9300   -7.1894   17.5366 O   0  0  0  0  0  0  0  0  0  0  0  0
   -8.0738   -7.5941   16.4409 C   0  0  0  0  0  0  0  0  0  0  0  0
   -7.6971   -6.9522   15.1422 N   0  0  0  0  0  0  0  0  0  0  0  0
    0.4848   -8.8809   16.9542 C   0  0  2  0  0  0  0  0  0  0  0  0
    1.8321   -9.2827   17.2854 N   0  0  0  0  0  0  0  0  0  0  0  0
   -0.1063   -7.9958   18.1247 C   0  0  0  0  0  0  0  0  0  0  0  0
   -1.5958   -7.5484   17.7754 C   0  0  2  0  0  0  0  0  0  0  0  0
   -2.1437   -6.7033   18.8686 N   0  0  0  0  0  0  0  0  0  0  0  0
   -2.4949   -8.8506   17.5453 C   0  0  2  0  0  0  0  0  0  0  0  0
   -1.8615   -9.7045   16.3656 C   0  0  2  0  0  0  0  0  0  0  0  0
   -2.6608  -10.8697   16.1496 O   0  0  0  0  0  0  0  0  0  0  0  0
   -0.3851  -10.1371   16.7234 C   0  0  1  0  0  0  0  0  0  0  0  0
    0.1854  -10.8970   15.6290 O   0  0  0  0  0  0  0  0  0  0  0  0
    0.2013  -10.5000   14.2996 C   0  0  2  0  0  0  0  0  0  0  0  0
    0.3351  -11.7950   13.4220 C   0  0  2  0  0  0  0  0  0  0  0  0
   -0.7168  -12.6616   13.7007 O   0  0  0  0  0  0  0  0  0  0  0  0
    1.7378  -12.5086   13.6335 C   0  0  1  0  0  0  0  0  0  0  0  0
    1.8488  -13.7315   12.7797 N   0  0  0  0  0  0  0  0  0  0  0  0
    2.8939  -11.4694   13.2946 C   0  0  2  0  0  0  0  0  0  0  0  0
    4.1837  -12.0719   13.4585 O   0  0  0  0  0  0  0  0  0  0  0  0
    2.7170  -10.2149   14.2347 C   0  0  2  0  0  0  0  0  0  0  0  0
    1.3436   -9.5854   14.0443 O   0  0  0  0  0  0  0  0  0  0  0  0
    3.7720   -9.1711   13.9556 C   0  0  0  0  0  0  0  0  0  0  0  0
    3.7662   -8.7271   12.5861 O   0  0  0  0  0  0  0  0  0  0  0  0
   -3.8400   -9.1475   19.9865 O   0  0  0  0  0  0  0  0  0  0  0  0
   -6.3175  -10.5554   20.0566 O   0  0  0  0  0  0  0  0  0  0  0  0
    2.9041   -8.3249   17.1424 C   0  0  0  0  0  0  0  0  0  0  0  0
    2.7687   -7.3417   16.3550 O   0  0  0  0  0  0  0  0  0  0  0  0
    4.2030   -8.5532   17.9750 C   0  0  2  0  0  0  0  0  0  0  0  0
    3.7244   -5.6897   20.5687 N   0  0  0  0  0  0  0  0  0  0  0  0
    4.5326   -7.3042   18.8496 C   0  0  0  0  0  0  0  0  0  0  0  0
    3.4105   -6.9399   19.8362 C   0  0  0  0  0  0  0  0  0  0  0  0
    5.2281   -8.7339   17.2439 O   0  0  0  0  0  0  0  0  0  0  0  0
  1  2  1  6  0  0  0
  1  3  1  0  0  0  0
  1  8  1  0  0  0  0
  3  4  1  0  0  0  0
  3 32  1  6  0  0  0
  4  5  1  0  0  0  0
  4 33  1  1  0  0  0
  5  6  1  6  0  0  0
  5  7  1  0  0  0  0
  7  8  1  0  0  0  0
  7  9  1  1  0  0  0
  9 10  1  0  0  0  0
 11 12  1  1  0  0  0
 11 13  1  0  0  0  0
 11 19  1  0  0  0  0
 12 34  1  0  0  0  0
 13 14  1  0  0  0  0
 14 15  1  1  0  0  0
 14 16  1  0  0  0  0
 16  2  1  6  0  0  0
 16 17  1  0  0  0  0
 17 18  1  1  0  0  0
 17 19  1  0  0  0  0
 19 20  1  6  0  0  0
 21 20  1  1  0  0  0
 21 22  1  0  0  0  0
 21 29  1  0  0  0  0
 22 23  1  1  0  0  0
 22 24  1  0  0  0  0
 24 25  1  6  0  0  0
 24 26  1  0  0  0  0
 26 27  1  1  0  0  0
 26 28  1  0  0  0  0
 28 29  1  0  0  0  0
 28 30  1  6  0  0  0
 30 31  1  0  0  0  0
 34 35  2  0  0  0  0
 36 34  1  6  0  0  0
 36 38  1  0  0  0  0
 36 40  1  0  0  0  0
 37 39  1  0  0  0  0
 38 39  1  0  0  0  0
M  END
>  <CHROM.1>
-69.18750041,-63.15627912,-170.61302594,-77.18938000,-68.83522612,-156.60517656
57.62377694,-124.26169066,59.02799082,-175.62743848,-0.84983709,-9.26092814
16.61490236,-2.86804107,-0.08393792,-2.23747272

>  <Name>
ligand

>  <RI>
0

>  <Rbt.Current_Directory>
/home/itssahil/PROJECTS/Mol_Feturizer/New_Systems/rnas/4P20

>  <Rbt.Executable>
rbdock ($Id: //depot/dev/client3/rdock/2013.1/src/exe/rbdock.cxx#4 $)

>  <Rbt.Library>
libRbt.so (2013.1, Build901 2013/11/27)

>  <Rbt.Parameter_File>
/export/apps/rDock/src/rDock_2013.1_src/data/scripts/dock_solv.prm

>  <Rbt.Receptor>
prm/pocket_docking_4.prm

>  <SCORE>
-11.3797

>  <SCORE.INTER>
-1.81224

>  <SCORE.INTER.CONST>
1

>  <SCORE.INTER.POLAR>
0

>  <SCORE.INTER.ROT>
10

>  <SCORE.INTER.SOLV>
21.0176

>  <SCORE.INTER.VDW>
-18.4807

>  <SCORE.INTER.norm>
-0.045306

>  <SCORE.INTRA>
-9.56749

>  <SCORE.INTRA.DIHEDRAL>
-21.9755

>  <SCORE.INTRA.DIHEDRAL.0>
28.2802

>  <SCORE.INTRA.POLAR>
0

>  <SCORE.INTRA.POLAR.0>
0

>  <SCORE.INTRA.REPUL>
0

>  <SCORE.INTRA.REPUL.0>
0

>  <SCORE.INTRA.SOLV>
1.67581

>  <SCORE.INTRA.SOLV.lig_0>
-101.981

>  <SCORE.INTRA.VDW>
0.582356

>  <SCORE.INTRA.VDW.0>
-5.72964

>  <SCORE.INTRA.norm>
-0.239187

>  <SCORE.RESTR>
0

>  <SCORE.RESTR.CAVITY>
0

>  <SCORE.RESTR.norm>
0

>  <SCORE.SYSTEM>
0

>  <SCORE.SYSTEM.CONST>
0

>  <SCORE.SYSTEM.DIHEDRAL>
0

>  <SCORE.SYSTEM.SOLV>
0

>  <SCORE.SYSTEM.norm>
0

>  <SCORE.heavy>
40

>  <SCORE.norm>
-0.284493

>  <RMSD>
7.689

$$$$
ligand
 OpenBabel11021811513D
libRbt.so/2013.1/901 2013/11/27
 40 42  0  0  0  0  0  0  0  0999 V2000
   -4.2768   -9.4461   17.0425 C   0  0  2  0  0  0  0  0  0  0  0  0
   -3.1276   -8.5931   17.1633 O   0  0  0  0  0  0  0  0  0  0  0  0
   -5.5236   -8.6274   16.5379 C   0  0  1  0  0  0  0  0  0  0  0  0
   -5.9748   -7.5685   17.5857 C   0  0  2  0  0  0  0  0  0  0  0  0
   -6.3454   -8.3278   18.8989 C   0  0  2  0  0  0  0  0  0  0  0  0
   -6.7945   -7.3767   19.8879 O   0  0  0  0  0  0  0  0  0  0  0  0
   -5.0571   -9.1091   19.4102 C   0  0  2  0  0  0  0  0  0  0  0  0
   -4.6064  -10.0866   18.3558 O   0  0  0  0  0  0  0  0  0  0  0  0
   -5.3225   -9.9023   20.6824 C   0  0  0  0  0  0  0  0  0  0  0  0
   -6.3325  -10.9835   20.4555 N   0  0  0  0  0  0  0  0  0  0  0  0
    1.1666   -9.2088   16.4487 C   0  0  2  0  0  0  0  0  0  0  0  0
    2.5009   -9.7469   16.5773 N   0  0  0  0  0  0  0  0  0  0  0  0
    0.7180   -8.5714   17.8254 C   0  0  0  0  0  0  0  0  0  0  0  0
   -0.7558   -7.9771   17.7002 C   0  0  2  0  0  0  0  0  0  0  0  0
   -1.1693   -7.3641   18.9897 N   0  0  0  0  0  0  0  0  0  0  0  0
   -1.7581   -9.1455   17.2677 C   0  0  2  0  0  0  0  0  0  0  0  0
   -1.2659   -9.7527   15.8854 C   0  0  2  0  0  0  0  0  0  0  0  0
   -2.1583  -10.7963   15.4881 O   0  0  0  0  0  0  0  0  0  0  0  0
    0.1965  -10.3339   16.0231 C   0  0  1  0  0  0  0  0  0  0  0  0
    0.6385  -10.8648   14.7489 O   0  0  0  0  0  0  0  0  0  0  0  0
   -0.0734  -11.7586   13.9621 C   0  0  2  0  0  0  0  0  0  0  0  0
    0.0710  -13.1797   14.6136 C   0  0  2  0  0  0  0  0  0  0  0  0
   -0.3943  -13.1447   15.9241 O   0  0  0  0  0  0  0  0  0  0  0  0
    1.5669  -13.7086   14.5498 C   0  0  1  0  0  0  0  0  0  0  0  0
    1.6793  -15.0676   15.1640 N   0  0  0  0  0  0  0  0  0  0  0  0
    2.0351  -13.7293   13.0294 C   0  0  2  0  0  0  0  0  0  0  0  0
    3.3793  -14.2131   12.9175 O   0  0  0  0  0  0  0  0  0  0  0  0
    1.8961  -12.2672   12.4534 C   0  0  2  0  0  0  0  0  0  0  0  0
    0.4617  -11.7712   12.5764 O   0  0  0  0  0  0  0  0  0  0  0  0
    2.3056  -12.2120   11.0009 C   0  0  0  0  0  0  0  0  0  0  0  0
    2.8163  -10.9222   10.6158 O   0  0  0  0  0  0  0  0  0  0  0  0
   -5.1708   -7.9874   15.2770 O   0  0  0  0  0  0  0  0  0  0  0  0
   -7.0695   -6.8947   17.1007 O   0  0  0  0  0  0  0  0  0  0  0  0
    3.6222   -8.8371   16.6196 C   0  0  0  0  0  0  0  0  0  0  0  0
    3.5098   -7.6763   16.1248 O   0  0  0  0  0  0  0  0  0  0  0  0
    4.9438   -9.3374   17.2796 C   0  0  2  0  0  0  0  0  0  0  0  0
    5.8745   -9.9650   21.0076 N   0  0  0  0  0  0  0  0  0  0  0  0
    4.8285   -9.3312   18.8352 C   0  0  0  0  0  0  0  0  0  0  0  0
    6.0684   -9.9080   19.5389 C   0  0  0  0  0  0  0  0  0  0  0  0
    5.9385   -8.5912   17.0113 O   0  0  0  0  0  0  0  0  0  0  0  0
  1  2  1  1  0  0  0
  1  3  1  0  0  0  0
  1  8  1  0  0  0  0
  3  4  1  0  0  0  0
  3 32  1  6  0  0  0
  4  5  1  0  0  0  0
  4 33  1  6  0  0  0
  5  6  1  1  0  0  0
  5  7  1  0  0  0  0
  7  8  1  0  0  0  0
  7  9  1  1  0  0  0
  9 10  1  0  0  0  0
 11 12  1  1  0  0  0
 11 13  1  0  0  0  0
 11 19  1  0  0  0  0
 12 34  1  0  0  0  0
 13 14  1  0  0  0  0
 14 15  1  1  0  0  0
 14 16  1  0  0  0  0
 16  2  1  6  0  0  0
 16 17  1  0  0  0  0
 17 18  1  1  0  0  0
 17 19  1  0  0  0  0
 19 20  1  6  0  0  0
 21 20  1  1  0  0  0
 21 22  1  0  0  0  0
 21 29  1  0  0  0  0
 22 23  1  1  0  0  0
 22 24  1  0  0  0  0
 24 25  1  6  0  0  0
 24 26  1  0  0  0  0
 26 27  1  1  0  0  0
 26 28  1  0  0  0  0
 28 29  1  0  0  0  0
 28 30  1  6  0  0  0
 30 31  1  0  0  0  0
 34 35  2  0  0  0  0
 36 34  1  6  0  0  0
 36 38  1  0  0  0  0
 36 40  1  0  0  0  0
 37 39  1  0  0  0  0
 38 39  1  0  0  0  0
M  END
>  <CHROM.1>
-163.61708282,-167.96248947,63.67109598,-74.42062062,-170.82699581,-76.70693663
-151.67574670,-76.45234606,175.98243498,-176.17458858,-0.44107483,-10.09982056
16.43427814,2.69608055,-0.05460664,0.99689498

>  <Name>
ligand

>  <RI>
0

>  <Rbt.Current_Directory>
/home/itssahil/PROJECTS/Mol_Feturizer/New_Systems/rnas/4P20

>  <Rbt.Executable>
rbdock ($Id: //depot/dev/client3/rdock/2013.1/src/exe/rbdock.cxx#4 $)

>  <Rbt.Library>
libRbt.so (2013.1, Build901 2013/11/27)

>  <Rbt.Parameter_File>
/export/apps/rDock/src/rDock_2013.1_src/data/scripts/dock_solv.prm

>  <Rbt.Receptor>
prm/pocket_docking_6.prm

>  <SCORE>
-14.3643

>  <SCORE.INTER>
-5.93967

>  <SCORE.INTER.CONST>
1

>  <SCORE.INTER.POLAR>
0

>  <SCORE.INTER.ROT>
10

>  <SCORE.INTER.SOLV>
17.5112

>  <SCORE.INTER.VDW>
-20.0635

>  <SCORE.INTER.norm>
-0.148492

>  <SCORE.INTRA>
-8.42462

>  <SCORE.INTRA.DIHEDRAL>
-20.8032

>  <SCORE.INTRA.DIHEDRAL.0>
28.2802

>  <SCORE.INTRA.POLAR>
0

>  <SCORE.INTRA.POLAR.0>
0

>  <SCORE.INTRA.REPUL>
0

>  <SCORE.INTRA.REPUL.0>
0

>  <SCORE.INTRA.SOLV>
-0.959729

>  <SCORE.INTRA.SOLV.lig_0>
-101.981

>  <SCORE.INTRA.VDW>
2.45685

>  <SCORE.INTRA.VDW.0>
-5.72964

>  <SCORE.INTRA.norm>
-0.210615

>  <SCORE.RESTR>
0

>  <SCORE.RESTR.CAVITY>
0

>  <SCORE.RESTR.norm>
0

>  <SCORE.SYSTEM>
0

>  <SCORE.SYSTEM.CONST>
0

>  <SCORE.SYSTEM.DIHEDRAL>
0

>  <SCORE.SYSTEM.SOLV>
0

>  <SCORE.SYSTEM.norm>
0

>  <SCORE.heavy>
40

>  <SCORE.norm>
-0.359107

>  <RMSD>
7.689

$$$$
ligand
 OpenBabel11021811513D
libRbt.so/2013.1/901 2013/11/27
 40 42  0  0  0  0  0  0  0  0999 V2000
   -2.0387   -8.4711   18.6967 C   0  0  2  0  0  0  0  0  0  0  0  0
   -1.7370   -9.6774   17.9779 O   0  0  0  0  0  0  0  0  0  0  0  0
   -2.5373   -8.8041   20.1527 C   0  0  1  0  0  0  0  0  0  0  0  0
   -3.8997   -9.5567   20.1326 C   0  0  2  0  0  0  0  0  0  0  0  0
   -4.9408   -8.6350   19.4221 C   0  0  2  0  0  0  0  0  0  0  0  0
   -6.2264   -9.2920   19.4082 O   0  0  0  0  0  0  0  0  0  0  0  0
   -4.4349   -8.3516   17.9404 C   0  0  2  0  0  0  0  0  0  0  0  0
   -3.0895   -7.6749   17.9858 O   0  0  0  0  0  0  0  0  0  0  0  0
   -5.3772   -7.4398   17.1666 C   0  0  0  0  0  0  0  0  0  0  0  0
   -6.7301   -8.0590   17.0029 N   0  0  0  0  0  0  0  0  0  0  0  0
    1.2065  -10.7110   14.8799 C   0  0  2  0  0  0  0  0  0  0  0  0
    1.9228  -10.6872   13.6258 N   0  0  0  0  0  0  0  0  0  0  0  0
   -0.3153  -11.0519   14.6138 C   0  0  0  0  0  0  0  0  0  0  0  0
   -1.1203  -11.0770   15.9894 C   0  0  2  0  0  0  0  0  0  0  0  0
   -2.5463  -11.4137   15.7392 N   0  0  0  0  0  0  0  0  0  0  0  0
   -0.9792   -9.6547   16.7063 C   0  0  2  0  0  0  0  0  0  0  0  0
    0.5618   -9.3580   16.9497 C   0  0  2  0  0  0  0  0  0  0  0  0
    0.6983   -8.0894   17.5941 O   0  0  0  0  0  0  0  0  0  0  0  0
    1.3474   -9.3402   15.5793 C   0  0  1  0  0  0  0  0  0  0  0  0
    2.7543   -9.0892   15.8203 O   0  0  0  0  0  0  0  0  0  0  0  0
    3.3452   -7.8358   15.8886 C   0  0  2  0  0  0  0  0  0  0  0  0
    4.8964   -8.0372   15.7532 C   0  0  2  0  0  0  0  0  0  0  0  0
    5.1823   -8.6903   14.5586 O   0  0  0  0  0  0  0  0  0  0  0  0
    5.4999   -8.8218   16.9948 C   0  0  1  0  0  0  0  0  0  0  0  0
    6.9789   -8.9915   16.8514 N   0  0  0  0  0  0  0  0  0  0  0  0
    5.1437   -8.0231   18.3238 C   0  0  2  0  0  0  0  0  0  0  0  0
    5.6795   -8.6866   19.4753 O   0  0  0  0  0  0  0  0  0  0  0  0
    3.5740   -7.8898   18.4102 C   0  0  2  0  0  0  0  0  0  0  0  0
    3.0228   -7.1792   17.1815 O   0  0  0  0  0  0  0  0  0  0  0  0
    3.1590   -7.1214   19.6421 C   0  0  0  0  0  0  0  0  0  0  0  0
    3.5279   -7.7879   20.8637 O   0  0  0  0  0  0  0  0  0  0  0  0
   -1.5153   -9.6052   20.8143 O   0  0  0  0  0  0  0  0  0  0  0  0
   -4.2921   -9.8098   21.4247 O   0  0  0  0  0  0  0  0  0  0  0  0
    2.3614  -11.9354   13.0457 C   0  0  0  0  0  0  0  0  0  0  0  0
    2.5194  -12.9519   13.7850 O   0  0  0  0  0  0  0  0  0  0  0  0
    2.6296  -11.9722   11.5097 C   0  0  2  0  0  0  0  0  0  0  0  0
    5.1327   -9.0081   11.1705 N   0  0  0  0  0  0  0  0  0  0  0  0
    3.2408  -10.6242   11.0169 C   0  0  0  0  0  0  0  0  0  0  0  0
    4.6045  -10.3066   11.6530 C   0  0  0  0  0  0  0  0  0  0  0  0
    1.5659  -12.1295   10.8302 O   0  0  0  0  0  0  0  0  0  0  0  0
  1  2  1  6  0  0  0
  1  3  1  0  0  0  0
  1  8  1  0  0  0  0
  3  4  1  0  0  0  0
  3 32  1  6  0  0  0
  4  5  1  0  0  0  0
  4 33  1  1  0  0  0
  5  6  1  6  0  0  0
  5  7  1  0  0  0  0
  7  8  1  0  0  0  0
  7  9  1  1  0  0  0
  9 10  1  0  0  0  0
 11 12  1  6  0  0  0
 11 13  1  0  0  0  0
 11 19  1  0  0  0  0
 12 34  1  0  0  0  0
 13 14  1  0  0  0  0
 14 15  1  6  0  0  0
 14 16  1  0  0  0  0
 16  2  1  1  0  0  0
 16 17  1  0  0  0  0
 17 18  1  6  0  0  0
 17 19  1  0  0  0  0
 19 20  1  1  0  0  0
 21 20  1  1  0  0  0
 21 22  1  0  0  0  0
 21 29  1  0  0  0  0
 22 23  1  6  0  0  0
 22 24  1  0  0  0  0
 24 25  1  6  0  0  0
 24 26  1  0  0  0  0
 26 27  1  1  0  0  0
 26 28  1  0  0  0  0
 28 29  1  0  0  0  0
 28 30  1  1  0  0  0
 30 31  1  0  0  0  0
 34 35  2  0  0  0  0
 36 34  1  1  0  0  0
 36 38  1  0  0  0  0
 36 40  1  0  0  0  0
 37 39  1  0  0  0  0
 38 39  1  0  0  0  0
M  END
>  <CHROM.1>
-166.52841278,-166.26288416,-62.25567867,-81.34665204,151.34239196,-164.17213513
-63.26102143,35.88699970,62.11182696,-179.08700945,0.71490699,-9.33921546
16.60545579,-2.62191399,-0.12678048,-1.97250931

>  <Name>
ligand

>  <RI>
0

>  <Rbt.Current_Directory>
/home/itssahil/PROJECTS/Mol_Feturizer/New_Systems/rnas/4P20

>  <Rbt.Executable>
rbdock ($Id: //depot/dev/client3/rdock/2013.1/src/exe/rbdock.cxx#4 $)

>  <Rbt.Library>
libRbt.so (2013.1, Build901 2013/11/27)

>  <Rbt.Parameter_File>
/export/apps/rDock/src/rDock_2013.1_src/data/scripts/dock_solv.prm

>  <Rbt.Receptor>
prm/pocket_docking_6.prm

>  <SCORE>
-14.4534

>  <SCORE.INTER>
-5.7033

>  <SCORE.INTER.CONST>
1

>  <SCORE.INTER.POLAR>
0

>  <SCORE.INTER.ROT>
10

>  <SCORE.INTER.SOLV>
16.3442

>  <SCORE.INTER.VDW>
-19.5169

>  <SCORE.INTER.norm>
-0.142582

>  <SCORE.INTRA>
-8.75012

>  <SCORE.INTRA.DIHEDRAL>
-20.2181

>  <SCORE.INTRA.DIHEDRAL.0>
28.2802

>  <SCORE.INTRA.POLAR>
0

>  <SCORE.INTRA.POLAR.0>
0

>  <SCORE.INTRA.REPUL>
0

>  <SCORE.INTRA.REPUL.0>
0

>  <SCORE.INTRA.SOLV>
0.495055

>  <SCORE.INTRA.SOLV.lig_0>
-101.981

>  <SCORE.INTRA.VDW>
1.11139

>  <SCORE.INTRA.VDW.0>
-5.72964

>  <SCORE.INTRA.norm>
-0.218753

>  <SCORE.RESTR>
0

>  <SCORE.RESTR.CAVITY>
0

>  <SCORE.RESTR.norm>
0

>  <SCORE.SYSTEM>
0

>  <SCORE.SYSTEM.CONST>
0

>  <SCORE.SYSTEM.DIHEDRAL>
0

>  <SCORE.SYSTEM.SOLV>
0

>  <SCORE.SYSTEM.norm>
0

>  <SCORE.heavy>
40

>  <SCORE.norm>
-0.361335

>  <RMSD>
7.699

$$$$
ligand
 OpenBabel11021811513D
libRbt.so/2013.1/901 2013/11/27
 40 42  0  0  0  0  0  0  0  0999 V2000
   -4.2260   -7.5846   18.2302 C   0  0  2  0  0  0  0  0  0  0  0  0
   -3.4555   -8.3997   17.3330 O   0  0  0  0  0  0  0  0  0  0  0  0
   -5.0488   -8.4838   19.2270 C   0  0  1  0  0  0  0  0  0  0  0  0
   -6.1328   -9.3176   18.4836 C   0  0  2  0  0  0  0  0  0  0  0  0
   -7.0942   -8.3164   17.7683 C   0  0  2  0  0  0  0  0  0  0  0  0
   -8.1308   -9.0559   17.0878 O   0  0  0  0  0  0  0  0  0  0  0  0
   -6.2456   -7.4526   16.7362 C   0  0  2  0  0  0  0  0  0  0  0  0
   -5.1676   -6.7000   17.4723 O   0  0  0  0  0  0  0  0  0  0  0  0
   -7.0941   -6.4263   15.9980 C   0  0  0  0  0  0  0  0  0  0  0  0
   -8.0829   -7.0840   15.0867 N   0  0  0  0  0  0  0  0  0  0  0  0
    0.6370   -9.9967   17.5078 C   0  0  2  0  0  0  0  0  0  0  0  0
    1.7921  -10.7224   17.9829 N   0  0  0  0  0  0  0  0  0  0  0  0
    0.2004   -8.9293   18.5907 C   0  0  0  0  0  0  0  0  0  0  0  0
   -1.0773   -8.1232   18.0821 C   0  0  2  0  0  0  0  0  0  0  0  0
   -1.4762   -7.1096   19.0934 N   0  0  0  0  0  0  0  0  0  0  0  0
   -2.2670   -9.1522   17.7944 C   0  0  2  0  0  0  0  0  0  0  0  0
   -1.7806  -10.2011   16.7058 C   0  0  2  0  0  0  0  0  0  0  0  0
   -2.8393  -11.1237   16.4388 O   0  0  0  0  0  0  0  0  0  0  0  0
   -0.5123  -10.9892   17.2212 C   0  0  1  0  0  0  0  0  0  0  0  0
   -0.0688  -11.9267   16.2087 O   0  0  0  0  0  0  0  0  0  0  0  0
    0.3097  -11.5921   14.9166 C   0  0  2  0  0  0  0  0  0  0  0  0
    0.1464  -12.8770   14.0293 C   0  0  2  0  0  0  0  0  0  0  0  0
   -1.1681  -13.3276   14.0933 O   0  0  0  0  0  0  0  0  0  0  0  0
    1.1657  -14.0190   14.4517 C   0  0  1  0  0  0  0  0  0  0  0  0
    1.0016  -15.2278   13.5864 N   0  0  0  0  0  0  0  0  0  0  0  0
    2.6454  -13.4429   14.3522 C   0  0  2  0  0  0  0  0  0  0  0  0
    3.6062  -14.4433   14.7124 O   0  0  0  0  0  0  0  0  0  0  0  0
    2.7443  -12.1798   15.2923 C   0  0  2  0  0  0  0  0  0  0  0  0
    1.7201  -11.1264   14.8927 O   0  0  0  0  0  0  0  0  0  0  0  0
    4.1218  -11.5637   15.2347 C   0  0  0  0  0  0  0  0  0  0  0  0
    4.4644  -11.0901   13.9189 O   0  0  0  0  0  0  0  0  0  0  0  0
   -4.1180   -9.3578   19.9296 O   0  0  0  0  0  0  0  0  0  0  0  0
   -6.8263  -10.0712   19.3994 O   0  0  0  0  0  0  0  0  0  0  0  0
    3.0794  -10.0667   17.9849 C   0  0  0  0  0  0  0  0  0  0  0  0
    3.2881   -9.0875   17.2086 O   0  0  0  0  0  0  0  0  0  0  0  0
    4.1730  -10.6081   18.9561 C   0  0  2  0  0  0  0  0  0  0  0  0
    6.0277  -10.2359   21.4635 N   0  0  0  0  0  0  0  0  0  0  0  0
    3.7580  -10.3872   20.4436 C   0  0  0  0  0  0  0  0  0  0  0  0
    4.7526  -10.9923   21.4483 C   0  0  0  0  0  0  0  0  0  0  0  0
    5.2867  -10.0081   18.8233 O   0  0  0  0  0  0  0  0  0  0  0  0
  1  2  1  6  0  0  0
  1  3  1  0  0  0  0
  1  8  1  0  0  0  0
  3  4  1  0  0  0  0
  3 32  1  6  0  0  0
  4  5  1  0  0  0  0
  4 33  1  1  0  0  0
  5  6  1  6  0  0  0
  5  7  1  0  0  0  0
  7  8  1  0  0  0  0
  7  9  1  1  0  0  0
  9 10  1  0  0  0  0
 11 12  1  1  0  0  0
 11 13  1  0  0  0  0
 11 19  1  0  0  0  0
 12 34  1  0  0  0  0
 13 14  1  0  0  0  0
 14 15  1  1  0  0  0
 14 16  1  0  0  0  0
 16  2  1  6  0  0  0
 16 17  1  0  0  0  0
 17 18  1  1  0  0  0
 17 19  1  0  0  0  0
 19 20  1  6  0  0  0
 21 20  1  1  0  0  0
 21 22  1  0  0  0  0
 21 29  1  0  0  0  0
 22 23  1  1  0  0  0
 22 24  1  0  0  0  0
 24 25  1  6  0  0  0
 24 26  1  0  0  0  0
 26 27  1  1  0  0  0
 26 28  1  0  0  0  0
 28 29  1  0  0  0  0
 28 30  1  6  0  0  0
 30 31  1  0  0  0  0
 34 35  2  0  0  0  0
 36 34  1  6  0  0  0
 36 38  1  0  0  0  0
 36 40  1  0  0  0  0
 37 39  1  0  0  0  0
 38 39  1  0  0  0  0
M  END
>  <CHROM.1>
-71.53314797,-71.93548406,-66.92948984,-74.26356771,-61.55673326,-157.41603170
61.85777411,-65.73235981,175.87847786,70.20609684,-0.70562644,-10.22901895
17.09163062,-2.88528735,0.24574535,-2.20289278

>  <Name>
ligand

>  <RI>
0

>  <Rbt.Current_Directory>
/home/itssahil/PROJECTS/Mol_Feturizer/New_Systems/rnas/4P20

>  <Rbt.Executable>
rbdock ($Id: //depot/dev/client3/rdock/2013.1/src/exe/rbdock.cxx#4 $)

>  <Rbt.Library>
libRbt.so (2013.1, Build901 2013/11/27)

>  <Rbt.Parameter_File>
/export/apps/rDock/src/rDock_2013.1_src/data/scripts/dock_solv.prm

>  <Rbt.Receptor>
prm/pocket_docking_4.prm

>  <SCORE>
-6.81539

>  <SCORE.INTER>
1.9571

>  <SCORE.INTER.CONST>
1

>  <SCORE.INTER.POLAR>
0

>  <SCORE.INTER.ROT>
10

>  <SCORE.INTER.SOLV>
17.167

>  <SCORE.INTER.VDW>
-14.6843

>  <SCORE.INTER.norm>
0.0489276

>  <SCORE.INTRA>
-8.77249

>  <SCORE.INTRA.DIHEDRAL>
-23.0677

>  <SCORE.INTRA.DIHEDRAL.0>
28.2802

>  <SCORE.INTRA.POLAR>
0

>  <SCORE.INTRA.POLAR.0>
0

>  <SCORE.INTRA.REPUL>
0

>  <SCORE.INTRA.REPUL.0>
0

>  <SCORE.INTRA.SOLV>
3.95853

>  <SCORE.INTRA.SOLV.lig_0>
-101.981

>  <SCORE.INTRA.VDW>
0.782104

>  <SCORE.INTRA.VDW.0>
-5.72964

>  <SCORE.INTRA.norm>
-0.219312

>  <SCORE.RESTR>
0

>  <SCORE.RESTR.CAVITY>
0

>  <SCORE.RESTR.norm>
0

>  <SCORE.SYSTEM>
0

>  <SCORE.SYSTEM.CONST>
0

>  <SCORE.SYSTEM.DIHEDRAL>
0

>  <SCORE.SYSTEM.SOLV>
0

>  <SCORE.SYSTEM.norm>
0

>  <SCORE.heavy>
40

>  <SCORE.norm>
-0.170385

>  <RMSD>
7.707

$$$$
ligand
 OpenBabel11021811513D
libRbt.so/2013.1/901 2013/11/27
 40 42  0  0  0  0  0  0  0  0999 V2000
   -3.7211   -8.0192   18.1329 C   0  0  2  0  0  0  0  0  0  0  0  0
   -2.8899   -8.5765   17.1026 O   0  0  0  0  0  0  0  0  0  0  0  0
   -4.4244   -9.1626   18.9559 C   0  0  1  0  0  0  0  0  0  0  0  0
   -5.4320   -9.9618   18.0791 C   0  0  2  0  0  0  0  0  0  0  0  0
   -6.5073   -8.9574   17.5565 C   0  0  2  0  0  0  0  0  0  0  0  0
   -7.4761   -9.6705   16.7581 O   0  0  0  0  0  0  0  0  0  0  0  0
   -5.7755   -7.8398   16.6923 C   0  0  2  0  0  0  0  0  0  0  0  0
   -4.7656   -7.1194   17.5475 O   0  0  0  0  0  0  0  0  0  0  0  0
   -6.7418   -6.7949   16.1512 C   0  0  0  0  0  0  0  0  0  0  0  0
   -7.7431   -7.4027   15.2192 N   0  0  0  0  0  0  0  0  0  0  0  0
    1.4682   -9.1182   16.8934 C   0  0  2  0  0  0  0  0  0  0  0  0
    2.7918   -9.6076   17.2014 N   0  0  0  0  0  0  0  0  0  0  0  0
    0.8609   -8.3986   18.1646 C   0  0  0  0  0  0  0  0  0  0  0  0
   -0.6029   -7.8569   17.8411 C   0  0  2  0  0  0  0  0  0  0  0  0
   -1.1655   -7.1667   19.0313 N   0  0  0  0  0  0  0  0  0  0  0  0
   -1.5284   -9.0809   17.3915 C   0  0  2  0  0  0  0  0  0  0  0  0
   -0.8777   -9.7696   16.1170 C   0  0  2  0  0  0  0  0  0  0  0  0
   -1.7002  -10.8636   15.7048 O   0  0  0  0  0  0  0  0  0  0  0  0
    0.5732  -10.2977   16.4508 C   0  0  1  0  0  0  0  0  0  0  0  0
    1.1607  -10.9041   15.2727 O   0  0  0  0  0  0  0  0  0  0  0  0
    1.2200  -10.3207   14.0153 C   0  0  2  0  0  0  0  0  0  0  0  0
    1.5873  -11.4499   12.9881 C   0  0  2  0  0  0  0  0  0  0  0  0
    0.6420  -12.4684   13.0524 O   0  0  0  0  0  0  0  0  0  0  0  0
    3.0531  -12.0115   13.2279 C   0  0  1  0  0  0  0  0  0  0  0  0
    3.3865  -13.0760   12.2317 N   0  0  0  0  0  0  0  0  0  0  0  0
    4.0828  -10.8022   13.1365 C   0  0  2  0  0  0  0  0  0  0  0  0
    5.4258  -11.2614   13.3340 O   0  0  0  0  0  0  0  0  0  0  0  0
    3.6738   -9.7269   14.2161 C   0  0  2  0  0  0  0  0  0  0  0  0
    2.2466   -9.2474   13.9886 O   0  0  0  0  0  0  0  0  0  0  0  0
    4.5987   -8.5339   14.1754 C   0  0  0  0  0  0  0  0  0  0  0  0
    4.5374   -7.8254   12.9236 O   0  0  0  0  0  0  0  0  0  0  0  0
   -3.3929  -10.0435   19.4889 O   0  0  0  0  0  0  0  0  0  0  0  0
   -6.0235  -10.9346   18.8481 O   0  0  0  0  0  0  0  0  0  0  0  0
    3.8625   -8.6575   17.3959 C   0  0  0  0  0  0  0  0  0  0  0  0
    3.7751   -7.4988   16.8911 O   0  0  0  0  0  0  0  0  0  0  0  0
    5.1001   -9.1126   18.2286 C   0  0  2  0  0  0  0  0  0  0  0  0
    4.3667   -7.1856   21.5324 N   0  0  0  0  0  0  0  0  0  0  0  0
    4.8756   -8.8530   19.7504 C   0  0  0  0  0  0  0  0  0  0  0  0
    4.6034   -7.3761   20.0813 C   0  0  0  0  0  0  0  0  0  0  0  0
    6.1560   -8.4700   17.9283 O   0  0  0  0  0  0  0  0  0  0  0  0
  1  2  1  6  0  0  0
  1  3  1  0  0  0  0
  1  8  1  0  0  0  0
  3  4  1  0  0  0  0
  3 32  1  6  0  0  0
  4  5  1  0  0  0  0
  4 33  1  1  0  0  0
  5  6  1  6  0  0  0
  5  7  1  0  0  0  0
  7  8  1  0  0  0  0
  7  9  1  1  0  0  0
  9 10  1  0  0  0  0
 11 12  1  1  0  0  0
 11 13  1  0  0  0  0
 11 19  1  0  0  0  0
 12 34  1  0  0  0  0
 13 14  1  0  0  0  0
 14 15  1  1  0  0  0
 14 16  1  0  0  0  0
 16  2  1  6  0  0  0
 16 17  1  0  0  0  0
 17 18  1  1  0  0  0
 17 19  1  0  0  0  0
 19 20  1  6  0  0  0
 21 20  1  1  0  0  0
 21 22  1  0  0  0  0
 21 29  1  0  0  0  0
 22 23  1  1  0  0  0
 22 24  1  0  0  0  0
 24 25  1  6  0  0  0
 24 26  1  0  0  0  0
 26 27  1  1  0  0  0
 26 28  1  0  0  0  0
 28 29  1  0  0  0  0
 28 30  1  6  0  0  0
 30 31  1  0  0  0  0
 34 35  2  0  0  0  0
 36 34  1  6  0  0  0
 36 38  1  0  0  0  0
 36 40  1  0  0  0  0
 37 39  1  0  0  0  0
 38 39  1  0  0  0  0
M  END
>  <CHROM.1>
-81.11728683,-65.40713746,-62.59593686,-69.76113205,-69.61041939,-165.58241964
63.18498840,-87.67328339,-58.56099239,178.71467264,0.07356452,-9.29365999
16.47687245,-2.93454433,-0.00775435,-2.04893259

>  <Name>
ligand

>  <RI>
0

>  <Rbt.Current_Directory>
/home/itssahil/PROJECTS/Mol_Feturizer/New_Systems/rnas/4P20

>  <Rbt.Executable>
rbdock ($Id: //depot/dev/client3/rdock/2013.1/src/exe/rbdock.cxx#4 $)

>  <Rbt.Library>
libRbt.so (2013.1, Build901 2013/11/27)

>  <Rbt.Parameter_File>
/export/apps/rDock/src/rDock_2013.1_src/data/scripts/dock_solv.prm

>  <Rbt.Receptor>
prm/pocket_docking_4.prm

>  <SCORE>
-11.633

>  <SCORE.INTER>
-2.4809

>  <SCORE.INTER.CONST>
1

>  <SCORE.INTER.POLAR>
0

>  <SCORE.INTER.ROT>
10

>  <SCORE.INTER.SOLV>
15.6061

>  <SCORE.INTER.VDW>
-17.1226

>  <SCORE.INTER.norm>
-0.0620225

>  <SCORE.INTRA>
-9.15205

>  <SCORE.INTRA.DIHEDRAL>
-23.038

>  <SCORE.INTRA.DIHEDRAL.0>
28.2802

>  <SCORE.INTRA.POLAR>
0

>  <SCORE.INTRA.POLAR.0>
0

>  <SCORE.INTRA.REPUL>
0

>  <SCORE.INTRA.REPUL.0>
0

>  <SCORE.INTRA.SOLV>
2.41161

>  <SCORE.INTRA.SOLV.lig_0>
-101.981

>  <SCORE.INTRA.VDW>
1.16116

>  <SCORE.INTRA.VDW.0>
-5.72964

>  <SCORE.INTRA.norm>
-0.228801

>  <SCORE.RESTR>
0

>  <SCORE.RESTR.CAVITY>
0

>  <SCORE.RESTR.norm>
0

>  <SCORE.SYSTEM>
0

>  <SCORE.SYSTEM.CONST>
0

>  <SCORE.SYSTEM.DIHEDRAL>
0

>  <SCORE.SYSTEM.SOLV>
0

>  <SCORE.SYSTEM.norm>
0

>  <SCORE.heavy>
40

>  <SCORE.norm>
-0.290824

>  <RMSD>
7.707

$$$$
ligand
 OpenBabel11021811513D
libRbt.so/2013.1/901 2013/11/27
 40 42  0  0  0  0  0  0  0  0999 V2000
   -4.4462   -9.5464   16.8023 C   0  0  2  0  0  0  0  0  0  0  0  0
   -3.2789   -8.7296   16.9847 O   0  0  0  0  0  0  0  0  0  0  0  0
   -5.6762   -8.6651   16.3668 C   0  0  1  0  0  0  0  0  0  0  0  0
   -6.1030   -7.6812   17.4950 C   0  0  2  0  0  0  0  0  0  0  0  0
   -6.4872   -8.5319   18.7467 C   0  0  2  0  0  0  0  0  0  0  0  0
   -6.9143   -7.6509   19.8078 O   0  0  0  0  0  0  0  0  0  0  0  0
   -5.2149   -9.3773   19.1916 C   0  0  2  0  0  0  0  0  0  0  0  0
   -4.7869  -10.2795   18.0633 O   0  0  0  0  0  0  0  0  0  0  0  0
   -5.4947  -10.2608   20.3997 C   0  0  0  0  0  0  0  0  0  0  0  0
   -4.2533  -10.9464   20.8786 N   0  0  0  0  0  0  0  0  0  0  0  0
    1.0465   -9.4011   16.5731 C   0  0  2  0  0  0  0  0  0  0  0  0
    2.3546   -9.9825   16.7662 N   0  0  0  0  0  0  0  0  0  0  0  0
    0.4985   -8.8604   17.9552 C   0  0  0  0  0  0  0  0  0  0  0  0
   -0.9477   -8.2196   17.7587 C   0  0  2  0  0  0  0  0  0  0  0  0
   -1.4541   -7.6974   19.0550 N   0  0  0  0  0  0  0  0  0  0  0  0
   -1.9340   -9.3243   17.1555 C   0  0  2  0  0  0  0  0  0  0  0  0
   -1.3414   -9.8357   15.7738 C   0  0  2  0  0  0  0  0  0  0  0  0
   -2.2185  -10.8216   15.2243 O   0  0  0  0  0  0  0  0  0  0  0  0
    0.0927  -10.4640   15.9828 C   0  0  1  0  0  0  0  0  0  0  0  0
    0.6278  -10.9064   14.7105 O   0  0  0  0  0  0  0  0  0  0  0  0
   -0.0402  -11.7050   13.7936 C   0  0  2  0  0  0  0  0  0  0  0  0
    0.0811  -13.1911   14.2855 C   0  0  2  0  0  0  0  0  0  0  0  0
   -0.4469  -13.3057   15.5674 O   0  0  0  0  0  0  0  0  0  0  0  0
    1.5814  -13.7087   14.2345 C   0  0  1  0  0  0  0  0  0  0  0  0
    1.6722  -15.1288   14.6949 N   0  0  0  0  0  0  0  0  0  0  0  0
    2.1224  -13.5560   12.7462 C   0  0  2  0  0  0  0  0  0  0  0  0
    3.4732  -14.0235   12.6452 O   0  0  0  0  0  0  0  0  0  0  0  0
    2.0026  -12.0379   12.3340 C   0  0  2  0  0  0  0  0  0  0  0  0
    0.5610  -11.5597   12.4430 O   0  0  0  0  0  0  0  0  0  0  0  0
    2.4811  -11.8175   10.9188 C   0  0  0  0  0  0  0  0  0  0  0  0
    1.6119  -12.4148    9.9387 O   0  0  0  0  0  0  0  0  0  0  0  0
   -5.3122   -7.9370   15.1580 O   0  0  0  0  0  0  0  0  0  0  0  0
   -7.1840   -6.9490   17.0672 O   0  0  0  0  0  0  0  0  0  0  0  0
    3.5188   -9.1310   16.6852 C   0  0  0  0  0  0  0  0  0  0  0  0
    3.4574   -8.0404   16.0434 O   0  0  0  0  0  0  0  0  0  0  0  0
    4.8213   -9.6051   17.4001 C   0  0  2  0  0  0  0  0  0  0  0  0
    6.1136  -11.2966   19.5641 N   0  0  0  0  0  0  0  0  0  0  0  0
    4.7619   -9.3005   18.9289 C   0  0  0  0  0  0  0  0  0  0  0  0
    5.9835   -9.8261   19.7013 C   0  0  0  0  0  0  0  0  0  0  0  0
    5.8594   -9.0047   16.9759 O   0  0  0  0  0  0  0  0  0  0  0  0
  1  2  1  1  0  0  0
  1  3  1  0  0  0  0
  1  8  1  0  0  0  0
  3  4  1  0  0  0  0
  3 32  1  6  0  0  0
  4  5  1  0  0  0  0
  4 33  1  6  0  0  0
  5  6  1  1  0  0  0
  5  7  1  0  0  0  0
  7  8  1  0  0  0  0
  7  9  1  1  0  0  0
  9 10  1  0  0  0  0
 11 12  1  1  0  0  0
 11 13  1  0  0  0  0
 11 19  1  0  0  0  0
 12 34  1  0  0  0  0
 13 14  1  0  0  0  0
 14 15  1  1  0  0  0
 14 16  1  0  0  0  0
 16  2  1  6  0  0  0
 16 17  1  0  0  0  0
 17 18  1  1  0  0  0
 17 19  1  0  0  0  0
 19 20  1  6  0  0  0
 21 20  1  1  0  0  0
 21 22  1  0  0  0  0
 21 29  1  0  0  0  0
 22 23  1  1  0  0  0
 22 24  1  0  0  0  0
 24 25  1  6  0  0  0
 24 26  1  0  0  0  0
 26 27  1  1  0  0  0
 26 28  1  0  0  0  0
 28 29  1  0  0  0  0
 28 30  1  6  0  0  0
 30 31  1  0  0  0  0
 34 35  2  0  0  0  0
 36 34  1  6  0  0  0
 36 38  1  0  0  0  0
 36 40  1  0  0  0  0
 37 39  1  0  0  0  0
 38 39  1  0  0  0  0
M  END
>  <CHROM.1>
-168.84431549,-163.30774577,-174.61540797,-87.52356319,-170.04172934,-80.27851611
68.52037390,-80.36489698,176.38676744,-59.78803046,-0.49105292,-10.26447783
16.28673172,2.68406814,-0.10273140,1.05960957

>  <Name>
ligand

>  <RI>
0

>  <Rbt.Current_Directory>
/home/itssahil/PROJECTS/Mol_Feturizer/New_Systems/rnas/4P20

>  <Rbt.Executable>
rbdock ($Id: //depot/dev/client3/rdock/2013.1/src/exe/rbdock.cxx#4 $)

>  <Rbt.Library>
libRbt.so (2013.1, Build901 2013/11/27)

>  <Rbt.Parameter_File>
/export/apps/rDock/src/rDock_2013.1_src/data/scripts/dock_solv.prm

>  <Rbt.Receptor>
prm/pocket_docking_6.prm

>  <SCORE>
-14.9615

>  <SCORE.INTER>
-5.92889

>  <SCORE.INTER.CONST>
1

>  <SCORE.INTER.POLAR>
0

>  <SCORE.INTER.ROT>
10

>  <SCORE.INTER.SOLV>
15.5439

>  <SCORE.INTER.VDW>
-19.4006

>  <SCORE.INTER.norm>
-0.148222

>  <SCORE.INTRA>
-9.0326

>  <SCORE.INTRA.DIHEDRAL>
-21.8895

>  <SCORE.INTRA.DIHEDRAL.0>
28.2802

>  <SCORE.INTRA.POLAR>
0

>  <SCORE.INTRA.POLAR.0>
0

>  <SCORE.INTRA.REPUL>
0

>  <SCORE.INTRA.REPUL.0>
0

>  <SCORE.INTRA.SOLV>
-0.553981

>  <SCORE.INTRA.SOLV.lig_0>
-101.981

>  <SCORE.INTRA.VDW>
2.18912

>  <SCORE.INTRA.VDW.0>
-5.72964

>  <SCORE.INTRA.norm>
-0.225815

>  <SCORE.RESTR>
0

>  <SCORE.RESTR.CAVITY>
0

>  <SCORE.RESTR.norm>
0

>  <SCORE.SYSTEM>
0

>  <SCORE.SYSTEM.CONST>
0

>  <SCORE.SYSTEM.DIHEDRAL>
0

>  <SCORE.SYSTEM.SOLV>
0

>  <SCORE.SYSTEM.norm>
0

>  <SCORE.heavy>
40

>  <SCORE.norm>
-0.374037

>  <RMSD>
7.712

$$$$
ligand
 OpenBabel11021811513D
libRbt.so/2013.1/901 2013/11/27
 40 42  0  0  0  0  0  0  0  0999 V2000
   -4.0556   -8.0755   18.0171 C   0  0  2  0  0  0  0  0  0  0  0  0
   -3.2823   -8.5784   16.9161 O   0  0  0  0  0  0  0  0  0  0  0  0
   -4.7653   -9.2558   18.7802 C   0  0  1  0  0  0  0  0  0  0  0  0
   -5.8309   -9.9556   17.8871 C   0  0  2  0  0  0  0  0  0  0  0  0
   -6.8910   -8.8825   17.4836 C   0  0  2  0  0  0  0  0  0  0  0  0
   -7.9121   -9.5036   16.6735 O   0  0  0  0  0  0  0  0  0  0  0  0
   -6.1551   -7.7256   16.6764 C   0  0  2  0  0  0  0  0  0  0  0  0
   -5.0907   -7.1027   17.5419 O   0  0  0  0  0  0  0  0  0  0  0  0
   -7.1056   -6.6140   16.2530 C   0  0  0  0  0  0  0  0  0  0  0  0
   -8.0817   -7.0884   15.2221 N   0  0  0  0  0  0  0  0  0  0  0  0
    1.0253   -9.3784   16.5495 C   0  0  2  0  0  0  0  0  0  0  0  0
    2.3180   -9.9823   16.7745 N   0  0  0  0  0  0  0  0  0  0  0  0
    0.4892   -8.7562   17.9017 C   0  0  0  0  0  0  0  0  0  0  0  0
   -0.9401   -8.0897   17.6700 C   0  0  2  0  0  0  0  0  0  0  0  0
   -1.4349   -7.4913   18.9375 N   0  0  0  0  0  0  0  0  0  0  0  0
   -1.9532   -9.1977   17.1196 C   0  0  2  0  0  0  0  0  0  0  0  0
   -1.3718   -9.7916   15.7664 C   0  0  2  0  0  0  0  0  0  0  0  0
   -2.2728  -10.7811   15.2640 O   0  0  0  0  0  0  0  0  0  0  0  0
    0.0457  -10.4448   16.0099 C   0  0  1  0  0  0  0  0  0  0  0  0
    0.5712  -10.9629   14.7625 O   0  0  0  0  0  0  0  0  0  0  0  0
   -0.0887  -11.8451   13.9191 C   0  0  2  0  0  0  0  0  0  0  0  0
    0.0295  -13.2782   14.5494 C   0  0  2  0  0  0  0  0  0  0  0  0
   -0.5091  -13.2727   15.8320 O   0  0  0  0  0  0  0  0  0  0  0  0
    1.5305  -13.7962   14.5596 C   0  0  1  0  0  0  0  0  0  0  0  0
    1.6183  -15.1667   15.1520 N   0  0  0  0  0  0  0  0  0  0  0  0
    2.0837  -13.7831   13.0680 C   0  0  2  0  0  0  0  0  0  0  0  0
    3.4357  -14.2560   13.0225 O   0  0  0  0  0  0  0  0  0  0  0  0
    1.9664  -12.3105   12.5141 C   0  0  2  0  0  0  0  0  0  0  0  0
    0.5237  -11.8263   12.5659 O   0  0  0  0  0  0  0  0  0  0  0  0
    2.4566  -12.2234   11.0884 C   0  0  0  0  0  0  0  0  0  0  0  0
    2.7436  -10.8727   10.6808 O   0  0  0  0  0  0  0  0  0  0  0  0
   -3.7445  -10.2053   19.2050 O   0  0  0  0  0  0  0  0  0  0  0  0
   -6.4254  -10.9653   18.6047 O   0  0  0  0  0  0  0  0  0  0  0  0
    3.4079   -9.1535   17.2351 C   0  0  0  0  0  0  0  0  0  0  0  0
    3.3792   -7.9039   17.0285 O   0  0  0  0  0  0  0  0  0  0  0  0
    4.5924   -9.8492   17.9737 C   0  0  2  0  0  0  0  0  0  0  0  0
    4.6900   -7.9325   21.3624 N   0  0  0  0  0  0  0  0  0  0  0  0
    5.1318   -8.9537   19.1315 C   0  0  0  0  0  0  0  0  0  0  0  0
    4.1239   -8.7710   20.2786 C   0  0  0  0  0  0  0  0  0  0  0  0
    5.5907  -10.0556   17.2128 O   0  0  0  0  0  0  0  0  0  0  0  0
  1  2  1  6  0  0  0
  1  3  1  0  0  0  0
  1  8  1  0  0  0  0
  3  4  1  0  0  0  0
  3 32  1  6  0  0  0
  4  5  1  0  0  0  0
  4 33  1  1  0  0  0
  5  6  1  6  0  0  0
  5  7  1  0  0  0  0
  7  8  1  0  0  0  0
  7  9  1  1  0  0  0
  9 10  1  0  0  0  0
 11 12  1  1  0  0  0
 11 13  1  0  0  0  0
 11 19  1  0  0  0  0
 12 34  1  0  0  0  0
 13 14  1  0  0  0  0
 14 15  1  1  0  0  0
 14 16  1  0  0  0  0
 16  2  1  6  0  0  0
 16 17  1  0  0  0  0
 17 18  1  1  0  0  0
 17 19  1  0  0  0  0
 19 20  1  6  0  0  0
 21 20  1  1  0  0  0
 21 22  1  0  0  0  0
 21 29  1  0  0  0  0
 22 23  1  1  0  0  0
 22 24  1  0  0  0  0
 24 25  1  6  0  0  0
 24 26  1  0  0  0  0
 26 27  1  1  0  0  0
 26 28  1  0  0  0  0
 28 29  1  0  0  0  0
 28 30  1  6  0  0  0
 30 31  1  0  0  0  0
 34 35  2  0  0  0  0
 36 34  1  6  0  0  0
 36 38  1  0  0  0  0
 36 40  1  0  0  0  0
 37 39  1  0  0  0  0
 38 39  1  0  0  0  0
M  END
>  <CHROM.1>
-78.42511316,-65.28035207,-67.89205394,-60.58790950,-173.65208635,-77.70907671
-162.58569957,-143.03614723,66.71566958,179.07065515,-0.66572652,-10.11551969
16.30698354,-2.80100358,0.11280442,-2.21071407

>  <Name>
ligand

>  <RI>
0

>  <Rbt.Current_Directory>
/home/itssahil/PROJECTS/Mol_Feturizer/New_Systems/rnas/4P20

>  <Rbt.Executable>
rbdock ($Id: //depot/dev/client3/rdock/2013.1/src/exe/rbdock.cxx#4 $)

>  <Rbt.Library>
libRbt.so (2013.1, Build901 2013/11/27)

>  <Rbt.Parameter_File>
/export/apps/rDock/src/rDock_2013.1_src/data/scripts/dock_solv.prm

>  <Rbt.Receptor>
prm/pocket_docking_4.prm

>  <SCORE>
-13.3127

>  <SCORE.INTER>
-5.58045

>  <SCORE.INTER.CONST>
1

>  <SCORE.INTER.POLAR>
0

>  <SCORE.INTER.ROT>
10

>  <SCORE.INTER.SOLV>
14.6538

>  <SCORE.INTER.VDW>
-18.8716

>  <SCORE.INTER.norm>
-0.139511

>  <SCORE.INTRA>
-7.73224

>  <SCORE.INTRA.DIHEDRAL>
-21.6064

>  <SCORE.INTRA.DIHEDRAL.0>
28.2802

>  <SCORE.INTRA.POLAR>
0

>  <SCORE.INTRA.POLAR.0>
0

>  <SCORE.INTRA.REPUL>
0

>  <SCORE.INTRA.REPUL.0>
0

>  <SCORE.INTRA.SOLV>
0.859534

>  <SCORE.INTRA.SOLV.lig_0>
-101.981

>  <SCORE.INTRA.VDW>
2.64118

>  <SCORE.INTRA.VDW.0>
-5.72964

>  <SCORE.INTRA.norm>
-0.193306

>  <SCORE.RESTR>
0

>  <SCORE.RESTR.CAVITY>
0

>  <SCORE.RESTR.norm>
0

>  <SCORE.SYSTEM>
0

>  <SCORE.SYSTEM.CONST>
0

>  <SCORE.SYSTEM.DIHEDRAL>
0

>  <SCORE.SYSTEM.SOLV>
0

>  <SCORE.SYSTEM.norm>
0

>  <SCORE.heavy>
40

>  <SCORE.norm>
-0.332817

>  <RMSD>
7.719

$$$$
ligand
 OpenBabel11021811513D
libRbt.so/2013.1/901 2013/11/27
 40 42  0  0  0  0  0  0  0  0999 V2000
    4.9777   -4.0909   22.7833 C   0  0  2  0  0  0  0  0  0  0  0  0
    4.3172   -5.3454   22.5531 O   0  0  0  0  0  0  0  0  0  0  0  0
    4.8005   -3.6385   24.2811 C   0  0  1  0  0  0  0  0  0  0  0  0
    3.3123   -3.3230   24.6110 C   0  0  2  0  0  0  0  0  0  0  0  0
    2.8483   -2.1747   23.6602 C   0  0  2  0  0  0  0  0  0  0  0  0
    1.4761   -1.8371   23.9564 O   0  0  0  0  0  0  0  0  0  0  0  0
    2.9955   -2.6744   22.1568 C   0  0  2  0  0  0  0  0  0  0  0  0
    4.4338   -3.0276   21.8795 O   0  0  0  0  0  0  0  0  0  0  0  0
    2.5845   -1.6125   21.1461 C   0  0  0  0  0  0  0  0  0  0  0  0
    1.1555   -1.2054   21.3270 N   0  0  0  0  0  0  0  0  0  0  0  0
    3.8809   -8.2023   19.2399 C   0  0  2  0  0  0  0  0  0  0  0  0
    4.2172   -9.0105   18.0909 N   0  0  0  0  0  0  0  0  0  0  0  0
    4.0895   -6.6734   18.8908 C   0  0  0  0  0  0  0  0  0  0  0  0
    3.7266   -5.7686   20.1520 C   0  0  2  0  0  0  0  0  0  0  0  0
    3.9073   -4.3317   19.8172 N   0  0  0  0  0  0  0  0  0  0  0  0
    4.6486   -6.1949   21.3869 C   0  0  2  0  0  0  0  0  0  0  0  0
    4.4054   -7.7333   21.6965 C   0  0  2  0  0  0  0  0  0  0  0  0
    5.2230   -8.1234   22.8022 O   0  0  0  0  0  0  0  0  0  0  0  0
    4.7649   -8.6171   20.4376 C   0  0  1  0  0  0  0  0  0  0  0  0
    4.5178  -10.0152   20.7293 O   0  0  0  0  0  0  0  0  0  0  0  0
    4.9016  -10.6724   21.8893 C   0  0  2  0  0  0  0  0  0  0  0  0
    4.9153  -12.2111   21.5773 C   0  0  2  0  0  0  0  0  0  0  0  0
    5.7778  -12.4673   20.5164 O   0  0  0  0  0  0  0  0  0  0  0  0
    3.4576  -12.7653   21.2784 C   0  0  1  0  0  0  0  0  0  0  0  0
    3.4921  -14.2337   20.9965 N   0  0  0  0  0  0  0  0  0  0  0  0
    2.5255  -12.4462   22.5276 C   0  0  2  0  0  0  0  0  0  0  0  0
    1.1977  -12.9397   22.3110 O   0  0  0  0  0  0  0  0  0  0  0  0
    2.5327  -10.8856   22.7590 C   0  0  2  0  0  0  0  0  0  0  0  0
    3.9498  -10.3796   22.9915 O   0  0  0  0  0  0  0  0  0  0  0  0
    1.6811  -10.5065   23.9471 C   0  0  0  0  0  0  0  0  0  0  0  0
    2.2205  -10.9852   25.1931 O   0  0  0  0  0  0  0  0  0  0  0  0
    5.3059   -4.6998   25.1426 O   0  0  0  0  0  0  0  0  0  0  0  0
    3.2180   -2.9226   25.9219 O   0  0  0  0  0  0  0  0  0  0  0  0
    5.6054   -9.1550   17.7181 C   0  0  0  0  0  0  0  0  0  0  0  0
    6.4485   -8.2814   18.0799 O   0  0  0  0  0  0  0  0  0  0  0  0
    6.0073  -10.3994   16.8680 C   0  0  2  0  0  0  0  0  0  0  0  0
    4.9636  -14.1400   17.1542 N   0  0  0  0  0  0  0  0  0  0  0  0
    5.3965  -11.7047   17.4651 C   0  0  0  0  0  0  0  0  0  0  0  0
    5.6106  -12.9391   16.5733 C   0  0  0  0  0  0  0  0  0  0  0  0
    7.2643  -10.5932   16.8470 O   0  0  0  0  0  0  0  0  0  0  0  0
  1  2  1  1  0  0  0
  1  3  1  0  0  0  0
  1  8  1  0  0  0  0
  3  4  1  0  0  0  0
  3 32  1  1  0  0  0
  4  5  1  0  0  0  0
  4 33  1  1  0  0  0
  5  6  1  1  0  0  0
  5  7  1  0  0  0  0
  7  8  1  0  0  0  0
  7  9  1  6  0  0  0
  9 10  1  0  0  0  0
 11 12  1  6  0  0  0
 11 13  1  0  0  0  0
 11 19  1  0  0  0  0
 12 34  1  0  0  0  0
 13 14  1  0  0  0  0
 14 15  1  6  0  0  0
 14 16  1  0  0  0  0
 16  2  1  1  0  0  0
 16 17  1  0  0  0  0
 17 18  1  1  0  0  0
 17 19  1  0  0  0  0
 19 20  1  1  0  0  0
 21 20  1  6  0  0  0
 21 22  1  0  0  0  0
 21 29  1  0  0  0  0
 22 23  1  6  0  0  0
 22 24  1  0  0  0  0
 24 25  1  1  0  0  0
 24 26  1  0  0  0  0
 26 27  1  6  0  0  0
 26 28  1  0  0  0  0
 28 29  1  0  0  0  0
 28 30  1  1  0  0  0
 30 31  1  0  0  0  0
 34 35  2  0  0  0  0
 36 34  1  1  0  0  0
 36 38  1  0  0  0  0
 36 40  1  0  0  0  0
 37 39  1  0  0  0  0
 38 39  1  0  0  0  0
M  END
>  <CHROM.1>
-161.30444500,-88.93251209,-60.06742029,72.40467377,-165.74543171,-159.73500777
66.73591294,-47.36020280,172.76463755,-177.56944442,4.07273512,-7.97207337
21.27794293,-1.93459641,-1.17055347,-3.09548922

>  <Name>
ligand

>  <RI>
0

>  <Rbt.Current_Directory>
/home/itssahil/PROJECTS/Mol_Feturizer/New_Systems/rnas/4P20

>  <Rbt.Executable>
rbdock ($Id: //depot/dev/client3/rdock/2013.1/src/exe/rbdock.cxx#4 $)

>  <Rbt.Library>
libRbt.so (2013.1, Build901 2013/11/27)

>  <Rbt.Parameter_File>
/export/apps/rDock/src/rDock_2013.1_src/data/scripts/dock_solv.prm

>  <Rbt.Receptor>
prm/pocket_docking_7.prm

>  <SCORE>
-11.7014

>  <SCORE.INTER>
-6.77763

>  <SCORE.INTER.CONST>
1

>  <SCORE.INTER.POLAR>
0

>  <SCORE.INTER.ROT>
10

>  <SCORE.INTER.SOLV>
15.2831

>  <SCORE.INTER.VDW>
-19.8795

>  <SCORE.INTER.norm>
-0.169441

>  <SCORE.INTRA>
-4.92377

>  <SCORE.INTRA.DIHEDRAL>
-18.9942

>  <SCORE.INTRA.DIHEDRAL.0>
28.2802

>  <SCORE.INTRA.POLAR>
0

>  <SCORE.INTRA.POLAR.0>
0

>  <SCORE.INTRA.REPUL>
0

>  <SCORE.INTRA.REPUL.0>
0

>  <SCORE.INTRA.SOLV>
4.21991

>  <SCORE.INTRA.SOLV.lig_0>
-101.981

>  <SCORE.INTRA.VDW>
2.46338

>  <SCORE.INTRA.VDW.0>
-5.72964

>  <SCORE.INTRA.norm>
-0.123094

>  <SCORE.RESTR>
0

>  <SCORE.RESTR.CAVITY>
0

>  <SCORE.RESTR.norm>
0

>  <SCORE.SYSTEM>
0

>  <SCORE.SYSTEM.CONST>
0

>  <SCORE.SYSTEM.DIHEDRAL>
0

>  <SCORE.SYSTEM.SOLV>
0

>  <SCORE.SYSTEM.norm>
0

>  <SCORE.heavy>
40

>  <SCORE.norm>
-0.292535

>  <RMSD>
7.741

$$$$
ligand
 OpenBabel11021811513D
libRbt.so/2013.1/901 2013/11/27
 40 42  0  0  0  0  0  0  0  0999 V2000
   -3.3310  -11.2969   21.1336 C   0  0  2  0  0  0  0  0  0  0  0  0
   -3.4566  -12.4079   20.2319 O   0  0  0  0  0  0  0  0  0  0  0  0
   -4.2831  -11.4803   22.3742 C   0  0  1  0  0  0  0  0  0  0  0  0
   -5.7820  -11.4326   21.9571 C   0  0  2  0  0  0  0  0  0  0  0  0
   -6.0470  -10.0428   21.2964 C   0  0  2  0  0  0  0  0  0  0  0  0
   -7.4377   -9.9528   20.9192 O   0  0  0  0  0  0  0  0  0  0  0  0
   -5.1054   -9.9029   20.0215 C   0  0  2  0  0  0  0  0  0  0  0  0
   -3.6629  -10.0095   20.4436 O   0  0  0  0  0  0  0  0  0  0  0  0
   -5.2752   -8.5650   19.3149 C   0  0  0  0  0  0  0  0  0  0  0  0
   -4.4511   -8.4939   18.0672 N   0  0  0  0  0  0  0  0  0  0  0  0
   -0.8325  -13.7714   16.9785 C   0  0  2  0  0  0  0  0  0  0  0  0
   -0.1518  -13.8000   15.7048 N   0  0  0  0  0  0  0  0  0  0  0  0
   -2.3967  -13.7983   16.7432 C   0  0  0  0  0  0  0  0  0  0  0  0
   -3.1622  -13.7623   18.1410 C   0  0  2  0  0  0  0  0  0  0  0  0
   -4.6313  -13.8043   17.9187 N   0  0  0  0  0  0  0  0  0  0  0  0
   -2.7357  -12.4442   18.9394 C   0  0  2  0  0  0  0  0  0  0  0  0
   -1.1616  -12.4627   19.1485 C   0  0  2  0  0  0  0  0  0  0  0  0
   -0.7706  -11.2894   19.8653 O   0  0  0  0  0  0  0  0  0  0  0  0
   -0.4165  -12.5025   17.7562 C   0  0  1  0  0  0  0  0  0  0  0  0
    1.0173  -12.5402   17.9648 O   0  0  0  0  0  0  0  0  0  0  0  0
    1.9762  -12.3904   16.9733 C   0  0  2  0  0  0  0  0  0  0  0  0
    3.3844  -12.4673   17.6632 C   0  0  2  0  0  0  0  0  0  0  0  0
    3.5102  -13.6763   18.3397 O   0  0  0  0  0  0  0  0  0  0  0  0
    3.6327  -11.2370   18.6359 C   0  0  1  0  0  0  0  0  0  0  0  0
    4.9834  -11.3235   19.2722 N   0  0  0  0  0  0  0  0  0  0  0  0
    3.4799   -9.8903   17.8027 C   0  0  2  0  0  0  0  0  0  0  0  0
    3.7082   -8.7473   18.6364 O   0  0  0  0  0  0  0  0  0  0  0  0
    2.0349   -9.8661   17.1699 C   0  0  2  0  0  0  0  0  0  0  0  0
    1.8115  -11.0846   16.2845 O   0  0  0  0  0  0  0  0  0  0  0  0
    1.8221   -8.6203   16.3435 C   0  0  0  0  0  0  0  0  0  0  0  0
    0.5160   -8.5698   15.7400 O   0  0  0  0  0  0  0  0  0  0  0  0
   -3.9652  -12.7522   23.0108 O   0  0  0  0  0  0  0  0  0  0  0  0
   -6.5647  -11.5845   23.0760 O   0  0  0  0  0  0  0  0  0  0  0  0
    0.7823  -14.8681   15.4334 C   0  0  0  0  0  0  0  0  0  0  0  0
    1.3241  -15.4898   16.3951 O   0  0  0  0  0  0  0  0  0  0  0  0
    1.0893  -15.2082   13.9426 C   0  0  2  0  0  0  0  0  0  0  0  0
    4.0378  -14.2355   13.4299 N   0  0  0  0  0  0  0  0  0  0  0  0
    1.5758  -13.9434   13.1699 C   0  0  0  0  0  0  0  0  0  0  0  0
    2.8826  -13.3554   13.7280 C   0  0  0  0  0  0  0  0  0  0  0  0
    0.0628  -15.6158   13.3116 O   0  0  0  0  0  0  0  0  0  0  0  0
  1  2  1  6  0  0  0
  1  3  1  0  0  0  0
  1  8  1  0  0  0  0
  3  4  1  0  0  0  0
  3 32  1  6  0  0  0
  4  5  1  0  0  0  0
  4 33  1  1  0  0  0
  5  6  1  6  0  0  0
  5  7  1  0  0  0  0
  7  8  1  0  0  0  0
  7  9  1  1  0  0  0
  9 10  1  0  0  0  0
 11 12  1  6  0  0  0
 11 13  1  0  0  0  0
 11 19  1  0  0  0  0
 12 34  1  0  0  0  0
 13 14  1  0  0  0  0
 14 15  1  6  0  0  0
 14 16  1  0  0  0  0
 16  2  1  1  0  0  0
 16 17  1  0  0  0  0
 17 18  1  6  0  0  0
 17 19  1  0  0  0  0
 19 20  1  1  0  0  0
 21 20  1  1  0  0  0
 21 22  1  0  0  0  0
 21 29  1  0  0  0  0
 22 23  1  1  0  0  0
 22 24  1  0  0  0  0
 24 25  1  6  0  0  0
 24 26  1  0  0  0  0
 26 27  1  1  0  0  0
 26 28  1  0  0  0  0
 28 29  1  0  0  0  0
 28 30  1  6  0  0  0
 30 31  1  0  0  0  0
 34 35  2  0  0  0  0
 36 34  1  1  0  0  0
 36 38  1  0  0  0  0
 36 40  1  0  0  0  0
 37 39  1  0  0  0  0
 38 39  1  0  0  0  0
M  END
>  <CHROM.1>
175.96777315,-176.41871897,-176.04888488,-121.98215259,69.70442439,178.66700499
179.49115728,55.07131339,61.85863749,70.78150700,-0.80974671,-11.95269649
18.10450642,-2.60151175,-0.34453938,-2.43800843

>  <Name>
ligand

>  <RI>
0

>  <Rbt.Current_Directory>
/home/itssahil/PROJECTS/Mol_Feturizer/New_Systems/rnas/4P20

>  <Rbt.Executable>
rbdock ($Id: //depot/dev/client3/rdock/2013.1/src/exe/rbdock.cxx#4 $)

>  <Rbt.Library>
libRbt.so (2013.1, Build901 2013/11/27)

>  <Rbt.Parameter_File>
/export/apps/rDock/src/rDock_2013.1_src/data/scripts/dock_solv.prm

>  <Rbt.Receptor>
prm/pocket_docking_8.prm

>  <SCORE>
-7.95533

>  <SCORE.INTER>
4.56979

>  <SCORE.INTER.CONST>
1

>  <SCORE.INTER.POLAR>
0

>  <SCORE.INTER.ROT>
10

>  <SCORE.INTER.SOLV>
8.47689

>  <SCORE.INTER.VDW>
-10.0458

>  <SCORE.INTER.norm>
0.114245

>  <SCORE.INTRA>
-12.5251

>  <SCORE.INTRA.DIHEDRAL>
-25.1352

>  <SCORE.INTRA.DIHEDRAL.0>
28.2802

>  <SCORE.INTRA.POLAR>
0

>  <SCORE.INTRA.POLAR.0>
0

>  <SCORE.INTRA.REPUL>
0

>  <SCORE.INTRA.REPUL.0>
0

>  <SCORE.INTRA.SOLV>
-0.110322

>  <SCORE.INTRA.SOLV.lig_0>
-101.981

>  <SCORE.INTRA.VDW>
0.0976285

>  <SCORE.INTRA.VDW.0>
-5.72964

>  <SCORE.INTRA.norm>
-0.313128

>  <SCORE.RESTR>
0

>  <SCORE.RESTR.CAVITY>
0

>  <SCORE.RESTR.norm>
0

>  <SCORE.SYSTEM>
0

>  <SCORE.SYSTEM.CONST>
0

>  <SCORE.SYSTEM.DIHEDRAL>
0

>  <SCORE.SYSTEM.SOLV>
0

>  <SCORE.SYSTEM.norm>
0

>  <SCORE.heavy>
40

>  <SCORE.norm>
-0.198883

>  <RMSD>
7.742

$$$$
ligand
 OpenBabel11021811513D
libRbt.so/2013.1/901 2013/11/27
 40 42  0  0  0  0  0  0  0  0999 V2000
   -5.0315   -9.2411   17.1002 C   0  0  2  0  0  0  0  0  0  0  0  0
   -3.9029   -8.3832   17.3310 O   0  0  0  0  0  0  0  0  0  0  0  0
   -6.2932   -8.3962   16.6836 C   0  0  1  0  0  0  0  0  0  0  0  0
   -6.7755   -7.4780   17.8443 C   0  0  2  0  0  0  0  0  0  0  0  0
   -7.1375   -8.3945   19.0557 C   0  0  2  0  0  0  0  0  0  0  0  0
   -7.6148   -7.5763   20.1453 O   0  0  0  0  0  0  0  0  0  0  0  0
   -5.8351   -9.2021   19.4836 C   0  0  2  0  0  0  0  0  0  0  0  0
   -5.3552  -10.0386   18.3260 O   0  0  0  0  0  0  0  0  0  0  0  0
   -6.0909  -10.1450   20.6514 C   0  0  0  0  0  0  0  0  0  0  0  0
   -4.8448  -10.8687   21.0566 N   0  0  0  0  0  0  0  0  0  0  0  0
    0.4224   -9.0277   16.8775 C   0  0  2  0  0  0  0  0  0  0  0  0
    1.7471   -9.5578   17.1027 N   0  0  0  0  0  0  0  0  0  0  0  0
   -0.0983   -8.3263   18.1965 C   0  0  0  0  0  0  0  0  0  0  0  0
   -1.5623   -7.7401   17.9645 C   0  0  2  0  0  0  0  0  0  0  0  0
   -2.0434   -7.0672   19.1995 N   0  0  0  0  0  0  0  0  0  0  0  0
   -2.5418   -8.9287   17.5347 C   0  0  2  0  0  0  0  0  0  0  0  0
   -1.9772   -9.6001   16.2110 C   0  0  2  0  0  0  0  0  0  0  0  0
   -2.8486  -10.6622   15.8163 O   0  0  0  0  0  0  0  0  0  0  0  0
   -0.5252  -10.1726   16.4541 C   0  0  1  0  0  0  0  0  0  0  0  0
   -0.0164  -10.7628   15.2320 O   0  0  0  0  0  0  0  0  0  0  0  0
   -0.6749  -11.7138   14.4660 C   0  0  2  0  0  0  0  0  0  0  0  0
   -0.5880  -13.0807   15.2336 C   0  0  2  0  0  0  0  0  0  0  0  0
   -1.1477  -12.9443   16.4998 O   0  0  0  0  0  0  0  0  0  0  0  0
    0.9049  -13.6145   15.3206 C   0  0  1  0  0  0  0  0  0  0  0  0
    0.9630  -14.9223   16.0439 N   0  0  0  0  0  0  0  0  0  0  0  0
    1.4830  -13.7528   13.8448 C   0  0  2  0  0  0  0  0  0  0  0  0
    2.8285  -14.2453   13.8694 O   0  0  0  0  0  0  0  0  0  0  0  0
    1.3963  -12.3393   13.1495 C   0  0  2  0  0  0  0  0  0  0  0  0
   -0.0399  -11.8338   13.1285 O   0  0  0  0  0  0  0  0  0  0  0  0
    1.9113  -12.3967   11.7311 C   0  0  0  0  0  0  0  0  0  0  0  0
    3.3145  -12.7110   11.6614 O   0  0  0  0  0  0  0  0  0  0  0  0
   -5.9467   -7.6047   15.5099 O   0  0  0  0  0  0  0  0  0  0  0  0
   -7.8820   -6.7759   17.4316 O   0  0  0  0  0  0  0  0  0  0  0  0
    2.8500   -8.6398   17.2701 C   0  0  0  0  0  0  0  0  0  0  0  0
    2.7666   -7.4644   16.8049 O   0  0  0  0  0  0  0  0  0  0  0  0
    4.1162   -9.1498   18.0245 C   0  0  2  0  0  0  0  0  0  0  0  0
    4.1497   -7.9277   20.8640 N   0  0  0  0  0  0  0  0  0  0  0  0
    4.9912   -7.9561   18.5175 C   0  0  0  0  0  0  0  0  0  0  0  0
    4.3208   -7.1286   19.6269 C   0  0  0  0  0  0  0  0  0  0  0  0
    4.8807   -9.8460   17.2837 O   0  0  0  0  0  0  0  0  0  0  0  0
  1  2  1  1  0  0  0
  1  3  1  0  0  0  0
  1  8  1  0  0  0  0
  3  4  1  0  0  0  0
  3 32  1  6  0  0  0
  4  5  1  0  0  0  0
  4 33  1  6  0  0  0
  5  6  1  1  0  0  0
  5  7  1  0  0  0  0
  7  8  1  0  0  0  0
  7  9  1  1  0  0  0
  9 10  1  0  0  0  0
 11 12  1  1  0  0  0
 11 13  1  0  0  0  0
 11 19  1  0  0  0  0
 12 34  1  0  0  0  0
 13 14  1  0  0  0  0
 14 15  1  1  0  0  0
 14 16  1  0  0  0  0
 16  2  1  6  0  0  0
 16 17  1  0  0  0  0
 17 18  1  1  0  0  0
 17 19  1  0  0  0  0
 19 20  1  6  0  0  0
 21 20  1  1  0  0  0
 21 22  1  0  0  0  0
 21 29  1  0  0  0  0
 22 23  1  1  0  0  0
 22 24  1  0  0  0  0
 24 25  1  6  0  0  0
 24 26  1  0  0  0  0
 26 27  1  1  0  0  0
 26 28  1  0  0  0  0
 28 29  1  0  0  0  0
 28 30  1  6  0  0  0
 30 31  1  0  0  0  0
 34 35  2  0  0  0  0
 36 34  1  6  0  0  0
 36 38  1  0  0  0  0
 36 40  1  0  0  0  0
 37 39  1  0  0  0  0
 38 39  1  0  0  0  0
M  END
>  <CHROM.1>
-170.62431293,-172.19159231,-178.64334661,-69.45148222,-172.22362875,-74.18585001
-64.71969530,-161.71723039,67.92080705,65.38769106,-1.10752698,-9.94569968
16.83465634,2.68938281,0.00554770,0.81403156

>  <Name>
ligand

>  <RI>
0

>  <Rbt.Current_Directory>
/home/itssahil/PROJECTS/Mol_Feturizer/New_Systems/rnas/4P20

>  <Rbt.Executable>
rbdock ($Id: //depot/dev/client3/rdock/2013.1/src/exe/rbdock.cxx#4 $)

>  <Rbt.Library>
libRbt.so (2013.1, Build901 2013/11/27)

>  <Rbt.Parameter_File>
/export/apps/rDock/src/rDock_2013.1_src/data/scripts/dock_solv.prm

>  <Rbt.Receptor>
prm/pocket_docking_8.prm

>  <SCORE>
-14.3014

>  <SCORE.INTER>
-4.31951

>  <SCORE.INTER.CONST>
1

>  <SCORE.INTER.POLAR>
0

>  <SCORE.INTER.ROT>
10

>  <SCORE.INTER.SOLV>
14.3179

>  <SCORE.INTER.VDW>
-17.919

>  <SCORE.INTER.norm>
-0.107988

>  <SCORE.INTRA>
-9.98188

>  <SCORE.INTRA.DIHEDRAL>
-24.6634

>  <SCORE.INTRA.DIHEDRAL.0>
28.2802

>  <SCORE.INTRA.POLAR>
0

>  <SCORE.INTRA.POLAR.0>
0

>  <SCORE.INTRA.REPUL>
0

>  <SCORE.INTRA.REPUL.0>
0

>  <SCORE.INTRA.SOLV>
-0.493057

>  <SCORE.INTRA.SOLV.lig_0>
-101.981

>  <SCORE.INTRA.VDW>
2.59637

>  <SCORE.INTRA.VDW.0>
-5.72964

>  <SCORE.INTRA.norm>
-0.249547

>  <SCORE.RESTR>
0

>  <SCORE.RESTR.CAVITY>
0

>  <SCORE.RESTR.norm>
0

>  <SCORE.SYSTEM>
0

>  <SCORE.SYSTEM.CONST>
0

>  <SCORE.SYSTEM.DIHEDRAL>
0

>  <SCORE.SYSTEM.SOLV>
0

>  <SCORE.SYSTEM.norm>
0

>  <SCORE.heavy>
40

>  <SCORE.norm>
-0.357535

>  <RMSD>
7.749

$$$$
ligand
 OpenBabel11021811513D
libRbt.so/2013.1/901 2013/11/27
 40 42  0  0  0  0  0  0  0  0999 V2000
    5.4728   -9.7168   14.4945 C   0  0  2  0  0  0  0  0  0  0  0  0
    4.0682   -9.4838   14.3050 O   0  0  0  0  0  0  0  0  0  0  0  0
    6.2325   -9.6711   13.1160 C   0  0  1  0  0  0  0  0  0  0  0  0
    5.7999  -10.8413   12.1853 C   0  0  2  0  0  0  0  0  0  0  0  0
    6.1304  -12.1791   12.9196 C   0  0  2  0  0  0  0  0  0  0  0  0
    5.7652  -13.2897   12.0724 O   0  0  0  0  0  0  0  0  0  0  0  0
    5.3160  -12.2188   14.2859 C   0  0  2  0  0  0  0  0  0  0  0  0
    5.7104  -11.0451   15.1445 O   0  0  0  0  0  0  0  0  0  0  0  0
    5.5873  -13.4827   15.0903 C   0  0  0  0  0  0  0  0  0  0  0  0
    7.0374  -13.6123   15.4382 N   0  0  0  0  0  0  0  0  0  0  0  0
    0.9078   -8.3363   17.1379 C   0  0  2  0  0  0  0  0  0  0  0  0
   -0.0325   -8.4227   18.2309 N   0  0  0  0  0  0  0  0  0  0  0  0
    0.5915   -9.4665   16.0771 C   0  0  0  0  0  0  0  0  0  0  0  0
    1.6250   -9.3867   14.8661 C   0  0  2  0  0  0  0  0  0  0  0  0
    1.3163  -10.4388   13.8625 N   0  0  0  0  0  0  0  0  0  0  0  0
    3.1116   -9.5470   15.4331 C   0  0  2  0  0  0  0  0  0  0  0  0
    3.3795   -8.3942   16.4919 C   0  0  2  0  0  0  0  0  0  0  0  0
    4.7082   -8.5266   17.0021 O   0  0  0  0  0  0  0  0  0  0  0  0
    2.3462   -8.4829   17.6834 C   0  0  1  0  0  0  0  0  0  0  0  0
    2.5908   -7.4124   18.6293 O   0  0  0  0  0  0  0  0  0  0  0  0
    2.0114   -7.3040   19.8853 C   0  0  2  0  0  0  0  0  0  0  0  0
    2.5115   -5.9584   20.5212 C   0  0  2  0  0  0  0  0  0  0  0  0
    2.1746   -4.8937   19.6918 O   0  0  0  0  0  0  0  0  0  0  0  0
    4.0722   -5.9877   20.8121 C   0  0  1  0  0  0  0  0  0  0  0  0
    4.5246   -4.7023   21.4286 N   0  0  0  0  0  0  0  0  0  0  0  0
    4.3892   -7.2206   21.7665 C   0  0  2  0  0  0  0  0  0  0  0  0
    5.7884   -7.2827   22.0697 O   0  0  0  0  0  0  0  0  0  0  0  0
    3.8929   -8.5357   21.0502 C   0  0  2  0  0  0  0  0  0  0  0  0
    2.4045   -8.4539   20.7396 O   0  0  0  0  0  0  0  0  0  0  0  0
    4.1432   -9.7522   21.9092 C   0  0  0  0  0  0  0  0  0  0  0  0
    5.5427  -10.0658   22.0346 O   0  0  0  0  0  0  0  0  0  0  0  0
    5.9618   -8.3847   12.4868 O   0  0  0  0  0  0  0  0  0  0  0  0
    6.5005  -10.7601   11.0063 O   0  0  0  0  0  0  0  0  0  0  0  0
   -1.3178   -7.7760   18.1022 C   0  0  0  0  0  0  0  0  0  0  0  0
   -1.4603   -6.8153   17.2887 O   0  0  0  0  0  0  0  0  0  0  0  0
   -2.4893   -8.2966   18.9905 C   0  0  2  0  0  0  0  0  0  0  0  0
   -5.1823   -9.0929   20.0142 N   0  0  0  0  0  0  0  0  0  0  0  0
   -3.7830   -7.4566   18.7575 C   0  0  0  0  0  0  0  0  0  0  0  0
   -5.0668   -8.3033   18.7647 C   0  0  0  0  0  0  0  0  0  0  0  0
   -2.2420   -8.1983   20.2344 O   0  0  0  0  0  0  0  0  0  0  0  0
  1  2  1  6  0  0  0
  1  3  1  0  0  0  0
  1  8  1  0  0  0  0
  3  4  1  0  0  0  0
  3 32  1  6  0  0  0
  4  5  1  0  0  0  0
  4 33  1  6  0  0  0
  5  6  1  6  0  0  0
  5  7  1  0  0  0  0
  7  8  1  0  0  0  0
  7  9  1  1  0  0  0
  9 10  1  0  0  0  0
 11 12  1  1  0  0  0
 11 13  1  0  0  0  0
 11 19  1  0  0  0  0
 12 34  1  0  0  0  0
 13 14  1  0  0  0  0
 14 15  1  6  0  0  0
 14 16  1  0  0  0  0
 16  2  1  6  0  0  0
 16 17  1  0  0  0  0
 17 18  1  1  0  0  0
 17 19  1  0  0  0  0
 19 20  1  1  0  0  0
 21 20  1  6  0  0  0
 21 22  1  0  0  0  0
 21 29  1  0  0  0  0
 22 23  1  6  0  0  0
 22 24  1  0  0  0  0
 24 25  1  1  0  0  0
 24 26  1  0  0  0  0
 26 27  1  6  0  0  0
 26 28  1  0  0  0  0
 28 29  1  0  0  0  0
 28 30  1  1  0  0  0
 30 31  1  0  0  0  0
 34 35  2  0  0  0  0
 36 34  1  6  0  0  0
 36 38  1  0  0  0  0
 36 40  1  0  0  0  0
 37 39  1  0  0  0  0
 38 39  1  0  0  0  0
M  END
>  <CHROM.1>
176.59865724,-174.40636182,59.59106238,-84.42712710,70.36454735,-177.23774842
-69.35559752,178.09091166,141.57902337,54.99142910,2.78746791,-8.97957103
17.29909192,-0.88778468,-0.10260871,1.13167449

>  <Name>
ligand

>  <RI>
0

>  <Rbt.Current_Directory>
/home/itssahil/PROJECTS/Mol_Feturizer/New_Systems/rnas/4P20

>  <Rbt.Executable>
rbdock ($Id: //depot/dev/client3/rdock/2013.1/src/exe/rbdock.cxx#4 $)

>  <Rbt.Library>
libRbt.so (2013.1, Build901 2013/11/27)

>  <Rbt.Parameter_File>
/export/apps/rDock/src/rDock_2013.1_src/data/scripts/dock_solv.prm

>  <Rbt.Receptor>
prm/pocket_docking_6.prm

>  <SCORE>
-12.8951

>  <SCORE.INTER>
-3.95206

>  <SCORE.INTER.CONST>
1

>  <SCORE.INTER.POLAR>
0

>  <SCORE.INTER.ROT>
10

>  <SCORE.INTER.SOLV>
19.8646

>  <SCORE.INTER.VDW>
-19.5229

>  <SCORE.INTER.norm>
-0.0988015

>  <SCORE.INTRA>
-8.943

>  <SCORE.INTRA.DIHEDRAL>
-22.2098

>  <SCORE.INTRA.DIHEDRAL.0>
28.2802

>  <SCORE.INTRA.POLAR>
0

>  <SCORE.INTRA.POLAR.0>
0

>  <SCORE.INTRA.REPUL>
0

>  <SCORE.INTRA.REPUL.0>
0

>  <SCORE.INTRA.SOLV>
0.721279

>  <SCORE.INTRA.SOLV.lig_0>
-101.981

>  <SCORE.INTRA.VDW>
1.80126

>  <SCORE.INTRA.VDW.0>
-5.72964

>  <SCORE.INTRA.norm>
-0.223575

>  <SCORE.RESTR>
0

>  <SCORE.RESTR.CAVITY>
0

>  <SCORE.RESTR.norm>
0

>  <SCORE.SYSTEM>
0

>  <SCORE.SYSTEM.CONST>
0

>  <SCORE.SYSTEM.DIHEDRAL>
0

>  <SCORE.SYSTEM.SOLV>
0

>  <SCORE.SYSTEM.norm>
0

>  <SCORE.heavy>
40

>  <SCORE.norm>
-0.322376

>  <RMSD>
7.802

$$$$
ligand
 OpenBabel11021811513D
libRbt.so/2013.1/901 2013/11/27
 40 42  0  0  0  0  0  0  0  0999 V2000
   -3.9595   -8.0677   17.9525 C   0  0  2  0  0  0  0  0  0  0  0  0
   -3.1160   -8.5144   16.8792 O   0  0  0  0  0  0  0  0  0  0  0  0
   -4.7322   -9.2818   18.5916 C   0  0  1  0  0  0  0  0  0  0  0  0
   -5.7393   -9.9121   17.5860 C   0  0  2  0  0  0  0  0  0  0  0  0
   -6.7583   -8.8023   17.1758 C   0  0  2  0  0  0  0  0  0  0  0  0
   -7.7260   -9.3597   16.2608 O   0  0  0  0  0  0  0  0  0  0  0  0
   -5.9567   -7.6093   16.4933 C   0  0  2  0  0  0  0  0  0  0  0  0
   -4.9496   -7.0541   17.4667 O   0  0  0  0  0  0  0  0  0  0  0  0
   -6.8646   -6.4614   16.0734 C   0  0  0  0  0  0  0  0  0  0  0  0
   -7.8809   -6.9042   15.0675 N   0  0  0  0  0  0  0  0  0  0  0  0
    0.9972  -10.0672   16.8860 C   0  0  2  0  0  0  0  0  0  0  0  0
    2.1188  -10.9392   17.1470 N   0  0  0  0  0  0  0  0  0  0  0  0
    0.3765   -9.5787   18.2567 C   0  0  0  0  0  0  0  0  0  0  0  0
   -0.8664   -8.6184   17.9845 C   0  0  2  0  0  0  0  0  0  0  0  0
   -1.4381   -8.1473   19.2732 N   0  0  0  0  0  0  0  0  0  0  0  0
   -1.9583   -9.4049   17.1207 C   0  0  2  0  0  0  0  0  0  0  0  0
   -1.2885   -9.8748   15.7597 C   0  0  2  0  0  0  0  0  0  0  0  0
   -2.2584  -10.5761   14.9782 O   0  0  0  0  0  0  0  0  0  0  0  0
   -0.0566  -10.8217   16.0445 C   0  0  1  0  0  0  0  0  0  0  0  0
    0.5556  -11.2244   14.7941 O   0  0  0  0  0  0  0  0  0  0  0  0
   -0.0748  -11.9397   13.7861 C   0  0  2  0  0  0  0  0  0  0  0  0
    0.0305  -13.4630   14.1516 C   0  0  2  0  0  0  0  0  0  0  0  0
   -0.5464  -13.6877   15.3973 O   0  0  0  0  0  0  0  0  0  0  0  0
    1.5328  -13.9761   14.1139 C   0  0  1  0  0  0  0  0  0  0  0  0
    1.6086  -15.4309   14.4525 N   0  0  0  0  0  0  0  0  0  0  0  0
    2.1305  -13.6955   12.6665 C   0  0  2  0  0  0  0  0  0  0  0  0
    3.4852  -14.1541   12.5776 O   0  0  0  0  0  0  0  0  0  0  0  0
    2.0235  -12.1471   12.3833 C   0  0  2  0  0  0  0  0  0  0  0  0
    0.5778  -11.6784   12.4776 O   0  0  0  0  0  0  0  0  0  0  0  0
    2.5559  -11.8054   11.0121 C   0  0  0  0  0  0  0  0  0  0  0  0
    1.7468  -12.3460    9.9510 O   0  0  0  0  0  0  0  0  0  0  0  0
   -3.7527  -10.2689   19.0277 O   0  0  0  0  0  0  0  0  0  0  0  0
   -6.3921  -10.9547   18.1980 O   0  0  0  0  0  0  0  0  0  0  0  0
    3.3229  -10.3805   17.7169 C   0  0  0  0  0  0  0  0  0  0  0  0
    3.5674   -9.1445   17.5840 O   0  0  0  0  0  0  0  0  0  0  0  0
    4.2852  -11.3432   18.4782 C   0  0  2  0  0  0  0  0  0  0  0  0
    7.7886  -10.3236   17.1166 N   0  0  0  0  0  0  0  0  0  0  0  0
    5.6581  -11.4549   17.7459 C   0  0  0  0  0  0  0  0  0  0  0  0
    6.5025  -10.1730   17.8386 C   0  0  0  0  0  0  0  0  0  0  0  0
    3.8386  -12.5325   18.5424 O   0  0  0  0  0  0  0  0  0  0  0  0
  1  2  1  6  0  0  0
  1  3  1  0  0  0  0
  1  8  1  0  0  0  0
  3  4  1  0  0  0  0
  3 32  1  6  0  0  0
  4  5  1  0  0  0  0
  4 33  1  1  0  0  0
  5  6  1  6  0  0  0
  5  7  1  0  0  0  0
  7  8  1  0  0  0  0
  7  9  1  1  0  0  0
  9 10  1  0  0  0  0
 11 12  1  1  0  0  0
 11 13  1  0  0  0  0
 11 19  1  0  0  0  0
 12 34  1  0  0  0  0
 13 14  1  0  0  0  0
 14 15  1  1  0  0  0
 14 16  1  0  0  0  0
 16  2  1  6  0  0  0
 16 17  1  0  0  0  0
 17 18  1  6  0  0  0
 17 19  1  0  0  0  0
 19 20  1  6  0  0  0
 21 20  1  1  0  0  0
 21 22  1  0  0  0  0
 21 29  1  0  0  0  0
 22 23  1  1  0  0  0
 22 24  1  0  0  0  0
 24 25  1  6  0  0  0
 24 26  1  0  0  0  0
 26 27  1  1  0  0  0
 26 28  1  0  0  0  0
 28 29  1  0  0  0  0
 28 30  1  6  0  0  0
 30 31  1  0  0  0  0
 34 35  2  0  0  0  0
 36 34  1  6  0  0  0
 36 38  1  0  0  0  0
 36 40  1  0  0  0  0
 37 39  1  0  0  0  0
 38 39  1  0  0  0  0
M  END
>  <CHROM.1>
-65.48724745,-66.04955324,-61.02128952,-68.91669292,179.13114113,-84.34787505
66.89579251,115.33352325,70.38983443,-179.38740855,-0.56091852,-10.56826301
16.05255399,-2.79700171,0.22423150,-2.09169605

>  <Name>
ligand

>  <RI>
0

>  <Rbt.Current_Directory>
/home/itssahil/PROJECTS/Mol_Feturizer/New_Systems/rnas/4P20

>  <Rbt.Executable>
rbdock ($Id: //depot/dev/client3/rdock/2013.1/src/exe/rbdock.cxx#4 $)

>  <Rbt.Library>
libRbt.so (2013.1, Build901 2013/11/27)

>  <Rbt.Parameter_File>
/export/apps/rDock/src/rDock_2013.1_src/data/scripts/dock_solv.prm

>  <Rbt.Receptor>
prm/pocket_docking_5.prm

>  <SCORE>
-13.4618

>  <SCORE.INTER>
-5.61903

>  <SCORE.INTER.CONST>
1

>  <SCORE.INTER.POLAR>
0

>  <SCORE.INTER.ROT>
10

>  <SCORE.INTER.SOLV>
15.6899

>  <SCORE.INTER.VDW>
-19.2426

>  <SCORE.INTER.norm>
-0.140476

>  <SCORE.INTRA>
-7.84278

>  <SCORE.INTRA.DIHEDRAL>
-22.3451

>  <SCORE.INTRA.DIHEDRAL.0>
28.2802

>  <SCORE.INTRA.POLAR>
0

>  <SCORE.INTRA.POLAR.0>
0

>  <SCORE.INTRA.REPUL>
0

>  <SCORE.INTRA.REPUL.0>
0

>  <SCORE.INTRA.SOLV>
1.7202

>  <SCORE.INTRA.SOLV.lig_0>
-101.981

>  <SCORE.INTRA.VDW>
2.46965

>  <SCORE.INTRA.VDW.0>
-5.72964

>  <SCORE.INTRA.norm>
-0.19607

>  <SCORE.RESTR>
0

>  <SCORE.RESTR.CAVITY>
0

>  <SCORE.RESTR.norm>
0

>  <SCORE.SYSTEM>
0

>  <SCORE.SYSTEM.CONST>
0

>  <SCORE.SYSTEM.DIHEDRAL>
0

>  <SCORE.SYSTEM.SOLV>
0

>  <SCORE.SYSTEM.norm>
0

>  <SCORE.heavy>
40

>  <SCORE.norm>
-0.336545

>  <RMSD>
7.813

$$$$
ligand
 OpenBabel11021811513D
libRbt.so/2013.1/901 2013/11/27
 40 42  0  0  0  0  0  0  0  0999 V2000
   -2.5644   -9.7775   20.8861 C   0  0  2  0  0  0  0  0  0  0  0  0
   -2.0435  -11.0822   20.5873 O   0  0  0  0  0  0  0  0  0  0  0  0
   -4.1378   -9.7823   20.8254 C   0  0  1  0  0  0  0  0  0  0  0  0
   -4.6538  -10.0495   19.3814 C   0  0  2  0  0  0  0  0  0  0  0  0
   -4.0992   -8.9160   18.4617 C   0  0  2  0  0  0  0  0  0  0  0  0
   -4.5804   -9.1176   17.1154 O   0  0  0  0  0  0  0  0  0  0  0  0
   -2.5095   -8.9628   18.5067 C   0  0  2  0  0  0  0  0  0  0  0  0
   -2.0371   -8.7589   19.9228 O   0  0  0  0  0  0  0  0  0  0  0  0
   -1.8694   -7.8771   17.6525 C   0  0  0  0  0  0  0  0  0  0  0  0
   -2.2914   -6.5104   18.0938 N   0  0  0  0  0  0  0  0  0  0  0  0
    2.3007  -10.4245   20.4292 C   0  0  2  0  0  0  0  0  0  0  0  0
    3.7176  -10.7053   20.4377 N   0  0  0  0  0  0  0  0  0  0  0  0
    1.6608  -10.8897   21.7992 C   0  0  0  0  0  0  0  0  0  0  0  0
    0.0952  -10.5903   21.8028 C   0  0  2  0  0  0  0  0  0  0  0  0
   -0.5015  -11.0129   23.0970 N   0  0  0  0  0  0  0  0  0  0  0  0
   -0.5881  -11.3530   20.5747 C   0  0  2  0  0  0  0  0  0  0  0  0
    0.0874  -10.8546   19.2266 C   0  0  2  0  0  0  0  0  0  0  0  0
   -0.5197  -11.5284   18.1218 O   0  0  0  0  0  0  0  0  0  0  0  0
    1.6384  -11.1538   19.2387 C   0  0  1  0  0  0  0  0  0  0  0  0
    2.2429  -10.6745   18.0117 O   0  0  0  0  0  0  0  0  0  0  0  0
    3.5243  -10.9801   17.5763 C   0  0  2  0  0  0  0  0  0  0  0  0
    3.7073  -10.3335   16.1572 C   0  0  2  0  0  0  0  0  0  0  0  0
    3.4902   -8.9617   16.2350 O   0  0  0  0  0  0  0  0  0  0  0  0
    2.7570  -11.0045   15.0764 C   0  0  1  0  0  0  0  0  0  0  0  0
    2.9564  -10.3828   13.7308 N   0  0  0  0  0  0  0  0  0  0  0  0
    3.0578  -12.5662   15.0334 C   0  0  2  0  0  0  0  0  0  0  0  0
    2.2314  -13.2170   14.0603 O   0  0  0  0  0  0  0  0  0  0  0  0
    2.8206  -13.1515   16.4791 C   0  0  2  0  0  0  0  0  0  0  0  0
    3.7093  -12.4519   17.4986 O   0  0  0  0  0  0  0  0  0  0  0  0
    3.1075  -14.6335   16.5213 C   0  0  0  0  0  0  0  0  0  0  0  0
    2.7257  -15.2383   17.7708 O   0  0  0  0  0  0  0  0  0  0  0  0
   -4.6281  -10.8011   21.7450 O   0  0  0  0  0  0  0  0  0  0  0  0
   -6.0276  -10.0301   19.3845 O   0  0  0  0  0  0  0  0  0  0  0  0
    4.5899   -9.8835   21.2443 C   0  0  0  0  0  0  0  0  0  0  0  0
    4.2281   -8.7144   21.5718 O   0  0  0  0  0  0  0  0  0  0  0  0
    5.9630  -10.4830   21.6776 C   0  0  2  0  0  0  0  0  0  0  0  0
    7.5436  -11.4984   18.2700 N   0  0  0  0  0  0  0  0  0  0  0  0
    6.9650  -10.5052   20.4821 C   0  0  0  0  0  0  0  0  0  0  0  0
    6.4939  -11.3829   19.3105 C   0  0  0  0  0  0  0  0  0  0  0  0
    5.8702  -11.6916   22.0633 O   0  0  0  0  0  0  0  0  0  0  0  0
  1  2  1  6  0  0  0
  1  3  1  0  0  0  0
  1  8  1  0  0  0  0
  3  4  1  0  0  0  0
  3 32  1  1  0  0  0
  4  5  1  0  0  0  0
  4 33  1  1  0  0  0
  5  6  1  6  0  0  0
  5  7  1  0  0  0  0
  7  8  1  0  0  0  0
  7  9  1  6  0  0  0
  9 10  1  0  0  0  0
 11 12  1  1  0  0  0
 11 13  1  0  0  0  0
 11 19  1  0  0  0  0
 12 34  1  0  0  0  0
 13 14  1  0  0  0  0
 14 15  1  1  0  0  0
 14 16  1  0  0  0  0
 16  2  1  6  0  0  0
 16 17  1  0  0  0  0
 17 18  1  6  0  0  0
 17 19  1  0  0  0  0
 19 20  1  6  0  0  0
 21 20  1  6  0  0  0
 21 22  1  0  0  0  0
 21 29  1  0  0  0  0
 22 23  1  1  0  0  0
 22 24  1  0  0  0  0
 24 25  1  6  0  0  0
 24 26  1  0  0  0  0
 26 27  1  6  0  0  0
 26 28  1  0  0  0  0
 28 29  1  0  0  0  0
 28 30  1  6  0  0  0
 30 31  1  0  0  0  0
 34 35  2  0  0  0  0
 36 34  1  6  0  0  0
 36 38  1  0  0  0  0
 36 40  1  0  0  0  0
 37 39  1  0  0  0  0
 38 39  1  0  0  0  0
M  END
>  <CHROM.1>
179.93289411,40.80140586,59.12199818,-73.48556139,72.43078347,175.78643022
-171.88221563,74.84011675,-61.94008544,-173.42360025,1.08272341,-10.71378814
18.88951279,-2.95761880,0.19247512,-1.77295635

>  <Name>
ligand

>  <RI>
0

>  <Rbt.Current_Directory>
/home/itssahil/PROJECTS/Mol_Feturizer/New_Systems/rnas/4P20

>  <Rbt.Executable>
rbdock ($Id: //depot/dev/client3/rdock/2013.1/src/exe/rbdock.cxx#4 $)

>  <Rbt.Library>
libRbt.so (2013.1, Build901 2013/11/27)

>  <Rbt.Parameter_File>
/export/apps/rDock/src/rDock_2013.1_src/data/scripts/dock_solv.prm

>  <Rbt.Receptor>
prm/pocket_docking_5.prm

>  <SCORE>
-4.72925

>  <SCORE.INTER>
6.02748

>  <SCORE.INTER.CONST>
1

>  <SCORE.INTER.POLAR>
0

>  <SCORE.INTER.ROT>
10

>  <SCORE.INTER.SOLV>
12.0535

>  <SCORE.INTER.VDW>
-10.2662

>  <SCORE.INTER.norm>
0.150687

>  <SCORE.INTRA>
-10.7652

>  <SCORE.INTRA.DIHEDRAL>
-24.1602

>  <SCORE.INTRA.DIHEDRAL.0>
28.2802

>  <SCORE.INTRA.POLAR>
0

>  <SCORE.INTRA.POLAR.0>
0

>  <SCORE.INTRA.REPUL>
0

>  <SCORE.INTRA.REPUL.0>
0

>  <SCORE.INTRA.SOLV>
1.02808

>  <SCORE.INTRA.SOLV.lig_0>
-101.981

>  <SCORE.INTRA.VDW>
0.800915

>  <SCORE.INTRA.VDW.0>
-5.72964

>  <SCORE.INTRA.norm>
-0.269129

>  <SCORE.RESTR>
0.00842578

>  <SCORE.RESTR.CAVITY>
0.00842578

>  <SCORE.RESTR.norm>
0.000210645

>  <SCORE.SYSTEM>
0

>  <SCORE.SYSTEM.CONST>
0

>  <SCORE.SYSTEM.DIHEDRAL>
0

>  <SCORE.SYSTEM.SOLV>
0

>  <SCORE.SYSTEM.norm>
0

>  <SCORE.heavy>
40

>  <SCORE.norm>
-0.118231

>  <RMSD>
7.814

$$$$
ligand
 OpenBabel11021811513D
libRbt.so/2013.1/901 2013/11/27
 40 42  0  0  0  0  0  0  0  0999 V2000
    4.3433  -10.3878   14.2328 C   0  0  2  0  0  0  0  0  0  0  0  0
    3.3766   -9.5956   14.9405 O   0  0  0  0  0  0  0  0  0  0  0  0
    5.2905   -9.4688   13.3741 C   0  0  1  0  0  0  0  0  0  0  0  0
    4.5118   -8.7533   12.2319 C   0  0  2  0  0  0  0  0  0  0  0  0
    3.8870   -9.8561   11.3199 C   0  0  2  0  0  0  0  0  0  0  0  0
    3.1767   -9.2273   10.2316 O   0  0  0  0  0  0  0  0  0  0  0  0
    2.9016  -10.7409   12.2018 C   0  0  2  0  0  0  0  0  0  0  0  0
    3.6674  -11.3764   13.3331 O   0  0  0  0  0  0  0  0  0  0  0  0
    2.2535  -11.8638   11.4035 C   0  0  0  0  0  0  0  0  0  0  0  0
    2.9794  -13.1597   11.5887 N   0  0  0  0  0  0  0  0  0  0  0  0
    1.4679  -10.1998   18.8548 C   0  0  2  0  0  0  0  0  0  0  0  0
    0.6228  -10.7660   19.8803 N   0  0  0  0  0  0  0  0  0  0  0  0
    0.5735   -9.6897   17.6538 C   0  0  0  0  0  0  0  0  0  0  0  0
    1.4935   -9.0660   16.5112 C   0  0  2  0  0  0  0  0  0  0  0  0
    0.6505   -8.5724   15.3908 N   0  0  0  0  0  0  0  0  0  0  0  0
    2.5312  -10.1743   16.0092 C   0  0  2  0  0  0  0  0  0  0  0  0
    3.4018  -10.6544   17.2475 C   0  0  2  0  0  0  0  0  0  0  0  0
    4.3357  -11.6432   16.8079 O   0  0  0  0  0  0  0  0  0  0  0  0
    2.4774  -11.2660   18.3729 C   0  0  1  0  0  0  0  0  0  0  0  0
    3.2844  -11.6797   19.5035 O   0  0  0  0  0  0  0  0  0  0  0  0
    4.2693  -12.6563   19.4713 C   0  0  2  0  0  0  0  0  0  0  0  0
    4.4894  -13.1534   20.9442 C   0  0  2  0  0  0  0  0  0  0  0  0
    3.2901  -13.6313   21.4624 O   0  0  0  0  0  0  0  0  0  0  0  0
    5.0992  -12.0137   21.8665 C   0  0  1  0  0  0  0  0  0  0  0  0
    5.3122  -12.5120   23.2605 N   0  0  0  0  0  0  0  0  0  0  0  0
    6.4667  -11.5159   21.2236 C   0  0  2  0  0  0  0  0  0  0  0  0
    7.0648  -10.4925   22.0288 O   0  0  0  0  0  0  0  0  0  0  0  0
    6.1635  -11.0009   19.7635 C   0  0  2  0  0  0  0  0  0  0  0  0
    5.5329  -12.1017   18.9215 O   0  0  0  0  0  0  0  0  0  0  0  0
    7.4240  -10.5284   19.0791 C   0  0  0  0  0  0  0  0  0  0  0  0
    7.1674   -9.9209   17.7993 O   0  0  0  0  0  0  0  0  0  0  0  0
    5.9122   -8.4952   14.2628 O   0  0  0  0  0  0  0  0  0  0  0  0
    5.3860   -7.9776   11.5096 O   0  0  0  0  0  0  0  0  0  0  0  0
    0.8107  -10.3511   21.2512 C   0  0  0  0  0  0  0  0  0  0  0  0
    1.9253   -9.8724   21.6167 O   0  0  0  0  0  0  0  0  0  0  0  0
   -0.3870  -10.5198   22.2358 C   0  0  2  0  0  0  0  0  0  0  0  0
   -3.3510  -11.0593   22.7131 N   0  0  0  0  0  0  0  0  0  0  0  0
   -1.5541   -9.5528   21.8667 C   0  0  0  0  0  0  0  0  0  0  0  0
   -2.7760   -9.6948   22.7896 C   0  0  0  0  0  0  0  0  0  0  0  0
   -0.0784  -10.2344   23.4363 O   0  0  0  0  0  0  0  0  0  0  0  0
  1  2  1  6  0  0  0
  1  3  1  0  0  0  0
  1  8  1  0  0  0  0
  3  4  1  0  0  0  0
  3 32  1  1  0  0  0
  4  5  1  0  0  0  0
  4 33  1  6  0  0  0
  5  6  1  6  0  0  0
  5  7  1  0  0  0  0
  7  8  1  0  0  0  0
  7  9  1  6  0  0  0
  9 10  1  0  0  0  0
 11 12  1  1  0  0  0
 11 13  1  0  0  0  0
 11 19  1  0  0  0  0
 12 34  1  0  0  0  0
 13 14  1  0  0  0  0
 14 15  1  6  0  0  0
 14 16  1  0  0  0  0
 16  2  1  6  0  0  0
 16 17  1  0  0  0  0
 17 18  1  6  0  0  0
 17 19  1  0  0  0  0
 19 20  1  1  0  0  0
 21 20  1  1  0  0  0
 21 22  1  0  0  0  0
 21 29  1  0  0  0  0
 22 23  1  1  0  0  0
 22 24  1  0  0  0  0
 24 25  1  1  0  0  0
 24 26  1  0  0  0  0
 26 27  1  1  0  0  0
 26 28  1  0  0  0  0
 28 29  1  0  0  0  0
 28 30  1  6  0  0  0
 30 31  1  0  0  0  0
 34 35  2  0  0  0  0
 36 34  1  6  0  0  0
 36 38  1  0  0  0  0
 36 40  1  0  0  0  0
 37 39  1  0  0  0  0
 38 39  1  0  0  0  0
M  END
>  <CHROM.1>
-168.45415219,-175.71489859,97.28559910,-130.86398238,177.70099791,-158.98233379
-173.84031979,-67.82225789,178.88157434,-61.28891997,3.17490735,-10.62732673
17.70015248,-1.31984523,-0.16083065,1.72472572

>  <Name>
ligand

>  <RI>
0

>  <Rbt.Current_Directory>
/home/itssahil/PROJECTS/Mol_Feturizer/New_Systems/rnas/4P20

>  <Rbt.Executable>
rbdock ($Id: //depot/dev/client3/rdock/2013.1/src/exe/rbdock.cxx#4 $)

>  <Rbt.Library>
libRbt.so (2013.1, Build901 2013/11/27)

>  <Rbt.Parameter_File>
/export/apps/rDock/src/rDock_2013.1_src/data/scripts/dock_solv.prm

>  <Rbt.Receptor>
prm/pocket_docking_7.prm

>  <SCORE>
-8.55044

>  <SCORE.INTER>
-0.902055

>  <SCORE.INTER.CONST>
1

>  <SCORE.INTER.POLAR>
0

>  <SCORE.INTER.ROT>
10

>  <SCORE.INTER.SOLV>
17.7837

>  <SCORE.INTER.VDW>
-16.7959

>  <SCORE.INTER.norm>
-0.0225514

>  <SCORE.INTRA>
-7.64839

>  <SCORE.INTRA.DIHEDRAL>
-19.7909

>  <SCORE.INTRA.DIHEDRAL.0>
28.2802

>  <SCORE.INTRA.POLAR>
0

>  <SCORE.INTRA.POLAR.0>
0

>  <SCORE.INTRA.REPUL>
0

>  <SCORE.INTRA.REPUL.0>
0

>  <SCORE.INTRA.SOLV>
0.580839

>  <SCORE.INTRA.SOLV.lig_0>
-101.981

>  <SCORE.INTRA.VDW>
1.95665

>  <SCORE.INTRA.VDW.0>
-5.72964

>  <SCORE.INTRA.norm>
-0.19121

>  <SCORE.RESTR>
0

>  <SCORE.RESTR.CAVITY>
0

>  <SCORE.RESTR.norm>
0

>  <SCORE.SYSTEM>
0

>  <SCORE.SYSTEM.CONST>
0

>  <SCORE.SYSTEM.DIHEDRAL>
0

>  <SCORE.SYSTEM.SOLV>
0

>  <SCORE.SYSTEM.norm>
0

>  <SCORE.heavy>
40

>  <SCORE.norm>
-0.213761

>  <RMSD>
7.815

$$$$
ligand
 OpenBabel11021811513D
libRbt.so/2013.1/901 2013/11/27
 40 42  0  0  0  0  0  0  0  0999 V2000
    3.7514   -3.2042   22.9009 C   0  0  2  0  0  0  0  0  0  0  0  0
    4.4131   -3.9446   21.8632 O   0  0  0  0  0  0  0  0  0  0  0  0
    3.3867   -1.7561   22.4015 C   0  0  1  0  0  0  0  0  0  0  0  0
    4.6624   -0.9102   22.1188 C   0  0  2  0  0  0  0  0  0  0  0  0
    5.4734   -0.8148   23.4498 C   0  0  2  0  0  0  0  0  0  0  0  0
    6.6541   -0.0131   23.2310 O   0  0  0  0  0  0  0  0  0  0  0  0
    5.8667   -2.2871   23.9071 C   0  0  2  0  0  0  0  0  0  0  0  0
    4.6172   -3.1021   24.1188 O   0  0  0  0  0  0  0  0  0  0  0  0
    6.6475   -2.3030   25.2142 C   0  0  0  0  0  0  0  0  0  0  0  0
    7.0253   -3.6958   25.6118 N   0  0  0  0  0  0  0  0  0  0  0  0
    5.3462   -8.1992   21.2655 C   0  0  2  0  0  0  0  0  0  0  0  0
    5.1592   -9.6267   21.1479 N   0  0  0  0  0  0  0  0  0  0  0  0
    4.8982   -7.7237   22.7063 C   0  0  0  0  0  0  0  0  0  0  0  0
    5.0944   -6.1483   22.8495 C   0  0  2  0  0  0  0  0  0  0  0  0
    4.6885   -5.7057   24.2092 N   0  0  0  0  0  0  0  0  0  0  0  0
    4.2378   -5.4076   21.7206 C   0  0  2  0  0  0  0  0  0  0  0  0
    4.7222   -5.9183   20.2970 C   0  0  2  0  0  0  0  0  0  0  0  0
    3.9643   -5.2587   19.2802 O   0  0  0  0  0  0  0  0  0  0  0  0
    4.5258   -7.4806   20.1708 C   0  0  1  0  0  0  0  0  0  0  0  0
    4.9916   -7.9333   18.8751 O   0  0  0  0  0  0  0  0  0  0  0  0
    4.5198   -7.4824   17.6508 C   0  0  2  0  0  0  0  0  0  0  0  0
    3.0317   -7.9636   17.5122 C   0  0  2  0  0  0  0  0  0  0  0  0
    2.2804   -7.4784   18.5776 O   0  0  0  0  0  0  0  0  0  0  0  0
    2.9301   -9.5451   17.4117 C   0  0  1  0  0  0  0  0  0  0  0  0
    1.5066   -9.9806   17.2678 N   0  0  0  0  0  0  0  0  0  0  0  0
    3.8038  -10.0338   16.1751 C   0  0  2  0  0  0  0  0  0  0  0  0
    3.7340  -11.4581   16.0339 O   0  0  0  0  0  0  0  0  0  0  0  0
    5.2873   -9.5461   16.3993 C   0  0  2  0  0  0  0  0  0  0  0  0
    5.3431   -8.0312   16.5428 O   0  0  0  0  0  0  0  0  0  0  0  0
    6.1763   -9.9576   15.2501 C   0  0  0  0  0  0  0  0  0  0  0  0
    6.4368  -11.3734   15.2281 O   0  0  0  0  0  0  0  0  0  0  0  0
    2.5721   -1.8783   21.1992 O   0  0  0  0  0  0  0  0  0  0  0  0
    4.2867    0.3431   21.6998 O   0  0  0  0  0  0  0  0  0  0  0  0
    6.1444  -10.5122   21.7243 C   0  0  0  0  0  0  0  0  0  0  0  0
    7.3240  -10.0960   21.9248 O   0  0  0  0  0  0  0  0  0  0  0  0
    5.7030  -11.9666   22.0741 C   0  0  2  0  0  0  0  0  0  0  0  0
    7.2043  -14.5984   24.5198 N   0  0  0  0  0  0  0  0  0  0  0  0
    6.6683  -12.6074   23.1186 C   0  0  0  0  0  0  0  0  0  0  0  0
    6.2207  -14.0033   23.5836 C   0  0  0  0  0  0  0  0  0  0  0  0
    5.7314  -12.7429   21.0668 O   0  0  0  0  0  0  0  0  0  0  0  0
  1  2  1  6  0  0  0
  1  3  1  0  0  0  0
  1  8  1  0  0  0  0
  3  4  1  0  0  0  0
  3 32  1  6  0  0  0
  4  5  1  0  0  0  0
  4 33  1  1  0  0  0
  5  6  1  6  0  0  0
  5  7  1  0  0  0  0
  7  8  1  0  0  0  0
  7  9  1  1  0  0  0
  9 10  1  0  0  0  0
 11 12  1  1  0  0  0
 11 13  1  0  0  0  0
 11 19  1  0  0  0  0
 12 34  1  0  0  0  0
 13 14  1  0  0  0  0
 14 15  1  1  0  0  0
 14 16  1  0  0  0  0
 16  2  1  6  0  0  0
 16 17  1  0  0  0  0
 17 18  1  6  0  0  0
 17 19  1  0  0  0  0
 19 20  1  6  0  0  0
 21 20  1  1  0  0  0
 21 22  1  0  0  0  0
 21 29  1  0  0  0  0
 22 23  1  1  0  0  0
 22 24  1  0  0  0  0
 24 25  1  6  0  0  0
 24 26  1  0  0  0  0
 26 27  1  1  0  0  0
 26 28  1  0  0  0  0
 28 29  1  0  0  0  0
 28 30  1  6  0  0  0
 30 31  1  0  0  0  0
 34 35  2  0  0  0  0
 36 34  1  6  0  0  0
 36 38  1  0  0  0  0
 36 40  1  0  0  0  0
 37 39  1  0  0  0  0
 38 39  1  0  0  0  0
M  END
>  <CHROM.1>
-146.73703768,-75.93374181,-179.05722919,-79.63891283,-178.06768315,-67.03140992
-71.31739745,-159.59940227,175.54831740,177.05282231,4.92703375,-7.04087731
20.77444197,1.63738338,-1.21957918,0.48997077

>  <Name>
ligand

>  <RI>
0

>  <Rbt.Current_Directory>
/home/itssahil/PROJECTS/Mol_Feturizer/New_Systems/rnas/4P20

>  <Rbt.Executable>
rbdock ($Id: //depot/dev/client3/rdock/2013.1/src/exe/rbdock.cxx#4 $)

>  <Rbt.Library>
libRbt.so (2013.1, Build901 2013/11/27)

>  <Rbt.Parameter_File>
/export/apps/rDock/src/rDock_2013.1_src/data/scripts/dock_solv.prm

>  <Rbt.Receptor>
prm/pocket_docking_8.prm

>  <SCORE>
-17.0538

>  <SCORE.INTER>
-10.7016

>  <SCORE.INTER.CONST>
1

>  <SCORE.INTER.POLAR>
0

>  <SCORE.INTER.ROT>
10

>  <SCORE.INTER.SOLV>
19.8982

>  <SCORE.INTER.VDW>
-24.0338

>  <SCORE.INTER.norm>
-0.267539

>  <SCORE.INTRA>
-6.35221

>  <SCORE.INTRA.DIHEDRAL>
-20.539

>  <SCORE.INTRA.DIHEDRAL.0>
28.2802

>  <SCORE.INTRA.POLAR>
0

>  <SCORE.INTRA.POLAR.0>
0

>  <SCORE.INTRA.REPUL>
0

>  <SCORE.INTRA.REPUL.0>
0

>  <SCORE.INTRA.SOLV>
2.32335

>  <SCORE.INTRA.SOLV.lig_0>
-101.981

>  <SCORE.INTRA.VDW>
2.7556

>  <SCORE.INTRA.VDW.0>
-5.72964

>  <SCORE.INTRA.norm>
-0.158805

>  <SCORE.RESTR>
0

>  <SCORE.RESTR.CAVITY>
0

>  <SCORE.RESTR.norm>
0

>  <SCORE.SYSTEM>
0

>  <SCORE.SYSTEM.CONST>
0

>  <SCORE.SYSTEM.DIHEDRAL>
0

>  <SCORE.SYSTEM.SOLV>
0

>  <SCORE.SYSTEM.norm>
0

>  <SCORE.heavy>
40

>  <SCORE.norm>
-0.426345

>  <RMSD>
7.821

$$$$
ligand
 OpenBabel11021811513D
libRbt.so/2013.1/901 2013/11/27
 40 42  0  0  0  0  0  0  0  0999 V2000
    2.3542   -9.7591   13.4462 C   0  0  2  0  0  0  0  0  0  0  0  0
    2.9353   -9.9588   14.7445 O   0  0  0  0  0  0  0  0  0  0  0  0
    2.0926  -11.1410   12.7382 C   0  0  1  0  0  0  0  0  0  0  0  0
    3.4240  -11.8828   12.4220 C   0  0  2  0  0  0  0  0  0  0  0  0
    4.2670  -10.9652   11.4809 C   0  0  2  0  0  0  0  0  0  0  0  0
    5.5014  -11.6342   11.1449 O   0  0  0  0  0  0  0  0  0  0  0  0
    4.5543   -9.5953   12.2376 C   0  0  2  0  0  0  0  0  0  0  0  0
    3.2500   -8.9248   12.5832 O   0  0  0  0  0  0  0  0  0  0  0  0
    5.3579   -8.6183   11.3904 C   0  0  0  0  0  0  0  0  0  0  0  0
    5.7367   -7.3977   12.1696 N   0  0  0  0  0  0  0  0  0  0  0  0
    1.2955   -9.9423   18.8238 C   0  0  2  0  0  0  0  0  0  0  0  0
    0.4659  -10.2867   19.9550 N   0  0  0  0  0  0  0  0  0  0  0  0
    0.3876   -9.4003   17.6471 C   0  0  0  0  0  0  0  0  0  0  0  0
    1.2895   -9.0203   16.3889 C   0  0  2  0  0  0  0  0  0  0  0  0
    0.4366   -8.4959   15.2903 N   0  0  0  0  0  0  0  0  0  0  0  0
    2.1073  -10.3119   15.9198 C   0  0  2  0  0  0  0  0  0  0  0  0
    2.9993  -10.8177   17.1324 C   0  0  2  0  0  0  0  0  0  0  0  0
    3.7376  -11.9706   16.7215 O   0  0  0  0  0  0  0  0  0  0  0  0
    2.0934  -11.1865   18.3727 C   0  0  1  0  0  0  0  0  0  0  0  0
    2.9233  -11.6259   19.4767 O   0  0  0  0  0  0  0  0  0  0  0  0
    4.1692  -11.1076   19.7993 C   0  0  2  0  0  0  0  0  0  0  0  0
    4.6633  -11.8399   21.0972 C   0  0  2  0  0  0  0  0  0  0  0  0
    4.7051  -13.2124   20.8746 O   0  0  0  0  0  0  0  0  0  0  0  0
    3.7573  -11.4896   22.3533 C   0  0  1  0  0  0  0  0  0  0  0  0
    4.2527  -12.1871   23.5801 N   0  0  0  0  0  0  0  0  0  0  0  0
    3.7559   -9.9115   22.5558 C   0  0  2  0  0  0  0  0  0  0  0  0
    2.9595   -9.5446   23.6892 O   0  0  0  0  0  0  0  0  0  0  0  0
    3.2171   -9.2473   21.2300 C   0  0  2  0  0  0  0  0  0  0  0  0
    4.0771   -9.6443   20.0378 O   0  0  0  0  0  0  0  0  0  0  0  0
    3.2059   -7.7413   21.3401 C   0  0  0  0  0  0  0  0  0  0  0  0
    2.7881   -7.0979   20.1218 O   0  0  0  0  0  0  0  0  0  0  0  0
    1.2467  -11.9481   13.6083 O   0  0  0  0  0  0  0  0  0  0  0  0
    3.1380  -13.0718   11.7958 O   0  0  0  0  0  0  0  0  0  0  0  0
   -0.4012   -9.2791   20.5204 C   0  0  0  0  0  0  0  0  0  0  0  0
   -0.1377   -8.0522   20.3462 O   0  0  0  0  0  0  0  0  0  0  0  0
   -1.6402   -9.7575   21.3380 C   0  0  2  0  0  0  0  0  0  0  0  0
   -0.5149  -12.4118   22.4123 N   0  0  0  0  0  0  0  0  0  0  0  0
   -1.2492  -10.0641   22.8168 C   0  0  0  0  0  0  0  0  0  0  0  0
   -0.1095  -11.0886   22.9441 C   0  0  0  0  0  0  0  0  0  0  0  0
   -2.1361  -10.8391   20.8883 O   0  0  0  0  0  0  0  0  0  0  0  0
  1  2  1  1  0  0  0
  1  3  1  0  0  0  0
  1  8  1  0  0  0  0
  3  4  1  0  0  0  0
  3 32  1  1  0  0  0
  4  5  1  0  0  0  0
  4 33  1  6  0  0  0
  5  6  1  1  0  0  0
  5  7  1  0  0  0  0
  7  8  1  0  0  0  0
  7  9  1  6  0  0  0
  9 10  1  0  0  0  0
 11 12  1  1  0  0  0
 11 13  1  0  0  0  0
 11 19  1  0  0  0  0
 12 34  1  0  0  0  0
 13 14  1  0  0  0  0
 14 15  1  6  0  0  0
 14 16  1  0  0  0  0
 16  2  1  6  0  0  0
 16 17  1  0  0  0  0
 17 18  1  6  0  0  0
 17 19  1  0  0  0  0
 19 20  1  1  0  0  0
 21 20  1  1  0  0  0
 21 22  1  0  0  0  0
 21 29  1  0  0  0  0
 22 23  1  6  0  0  0
 22 24  1  0  0  0  0
 24 25  1  1  0  0  0
 24 26  1  0  0  0  0
 26 27  1  1  0  0  0
 26 28  1  0  0  0  0
 28 29  1  0  0  0  0
 28 30  1  1  0  0  0
 30 31  1  0  0  0  0
 34 35  2  0  0  0  0
 36 34  1  6  0  0  0
 36 38  1  0  0  0  0
 36 40  1  0  0  0  0
 37 39  1  0  0  0  0
 38 39  1  0  0  0  0
M  END
>  <CHROM.1>
-80.63849820,-73.75462870,-174.11385139,-56.52953533,-83.43293038,177.55373848
176.84316000,84.15137981,-55.76496124,-63.92668491,2.43609957,-10.32222143
17.82020885,1.33065102,0.25199563,-1.50960984

>  <Name>
ligand

>  <RI>
0

>  <Rbt.Current_Directory>
/home/itssahil/PROJECTS/Mol_Feturizer/New_Systems/rnas/4P20

>  <Rbt.Executable>
rbdock ($Id: //depot/dev/client3/rdock/2013.1/src/exe/rbdock.cxx#4 $)

>  <Rbt.Library>
libRbt.so (2013.1, Build901 2013/11/27)

>  <Rbt.Parameter_File>
/export/apps/rDock/src/rDock_2013.1_src/data/scripts/dock_solv.prm

>  <Rbt.Receptor>
prm/pocket_docking_6.prm

>  <SCORE>
-6.63083

>  <SCORE.INTER>
1.57812

>  <SCORE.INTER.CONST>
1

>  <SCORE.INTER.POLAR>
0

>  <SCORE.INTER.ROT>
10

>  <SCORE.INTER.SOLV>
14.6223

>  <SCORE.INTER.VDW>
-14.0887

>  <SCORE.INTER.norm>
0.039453

>  <SCORE.INTRA>
-8.20895

>  <SCORE.INTRA.DIHEDRAL>
-21.3761

>  <SCORE.INTRA.DIHEDRAL.0>
28.2802

>  <SCORE.INTRA.POLAR>
0

>  <SCORE.INTRA.POLAR.0>
0

>  <SCORE.INTRA.REPUL>
0

>  <SCORE.INTRA.REPUL.0>
0

>  <SCORE.INTRA.SOLV>
4.6415

>  <SCORE.INTRA.SOLV.lig_0>
-101.981

>  <SCORE.INTRA.VDW>
0.158355

>  <SCORE.INTRA.VDW.0>
-5.72964

>  <SCORE.INTRA.norm>
-0.205224

>  <SCORE.RESTR>
0

>  <SCORE.RESTR.CAVITY>
0

>  <SCORE.RESTR.norm>
0

>  <SCORE.SYSTEM>
0

>  <SCORE.SYSTEM.CONST>
0

>  <SCORE.SYSTEM.DIHEDRAL>
0

>  <SCORE.SYSTEM.SOLV>
0

>  <SCORE.SYSTEM.norm>
0

>  <SCORE.heavy>
40

>  <SCORE.norm>
-0.165771

>  <RMSD>
7.826

$$$$
ligand
 OpenBabel11021811513D
libRbt.so/2013.1/901 2013/11/27
 40 42  0  0  0  0  0  0  0  0999 V2000
   -0.1639  -10.9002   19.2443 C   0  0  2  0  0  0  0  0  0  0  0  0
   -0.1439  -11.4654   17.9240 O   0  0  0  0  0  0  0  0  0  0  0  0
   -1.1075  -11.7342   20.1894 C   0  0  1  0  0  0  0  0  0  0  0  0
   -2.5948  -11.6411   19.7398 C   0  0  2  0  0  0  0  0  0  0  0  0
   -3.0104  -10.1366   19.7826 C   0  0  2  0  0  0  0  0  0  0  0  0
   -4.3959  -10.0146   19.3953 O   0  0  0  0  0  0  0  0  0  0  0  0
   -2.0716   -9.3257   18.7863 C   0  0  2  0  0  0  0  0  0  0  0  0
   -0.6335   -9.4783   19.2090 O   0  0  0  0  0  0  0  0  0  0  0  0
   -2.3858   -7.8360   18.7709 C   0  0  0  0  0  0  0  0  0  0  0  0
   -1.5755   -7.1139   17.7401 N   0  0  0  0  0  0  0  0  0  0  0  0
    2.7555  -10.9961   14.6524 C   0  0  2  0  0  0  0  0  0  0  0  0
    3.4986  -10.3872   13.5738 N   0  0  0  0  0  0  0  0  0  0  0  0
    1.2144  -11.0043   14.2949 C   0  0  0  0  0  0  0  0  0  0  0  0
    0.3803  -11.6695   15.4792 C   0  0  2  0  0  0  0  0  0  0  0  0
   -1.0655  -11.6913   15.1346 N   0  0  0  0  0  0  0  0  0  0  0  0
    0.6407  -10.8521   16.8286 C   0  0  2  0  0  0  0  0  0  0  0  0
    2.1972  -10.8714   17.1430 C   0  0  2  0  0  0  0  0  0  0  0  0
    2.4400  -10.1459   18.3504 O   0  0  0  0  0  0  0  0  0  0  0  0
    3.0112  -10.2132   15.9600 C   0  0  1  0  0  0  0  0  0  0  0  0
    4.4300  -10.2575   16.2527 O   0  0  0  0  0  0  0  0  0  0  0  0
    5.0782   -9.4784   17.2002 C   0  0  2  0  0  0  0  0  0  0  0  0
    5.2191   -8.0321   16.6055 C   0  0  2  0  0  0  0  0  0  0  0  0
    3.9613   -7.5326   16.2834 O   0  0  0  0  0  0  0  0  0  0  0  0
    6.1874   -8.0034   15.3474 C   0  0  1  0  0  0  0  0  0  0  0  0
    6.3170   -6.6156   14.8050 N   0  0  0  0  0  0  0  0  0  0  0  0
    7.6047   -8.5804   15.7825 C   0  0  2  0  0  0  0  0  0  0  0  0
    8.5211   -8.5633   14.6810 O   0  0  0  0  0  0  0  0  0  0  0  0
    7.3906  -10.0425   16.3351 C   0  0  2  0  0  0  0  0  0  0  0  0
    6.4183  -10.0412   17.5069 O   0  0  0  0  0  0  0  0  0  0  0  0
    8.6962  -10.6508   16.7887 C   0  0  0  0  0  0  0  0  0  0  0  0
    9.6475  -10.7883   15.7168 O   0  0  0  0  0  0  0  0  0  0  0  0
   -0.6528  -13.1189   20.1838 O   0  0  0  0  0  0  0  0  0  0  0  0
   -3.3719  -12.3741   20.6037 O   0  0  0  0  0  0  0  0  0  0  0  0
    3.5862  -11.0761   12.3070 C   0  0  0  0  0  0  0  0  0  0  0  0
    3.4182  -12.3309   12.2601 O   0  0  0  0  0  0  0  0  0  0  0  0
    3.8942  -10.2283   11.0347 C   0  0  2  0  0  0  0  0  0  0  0  0
    7.7469  -10.6041   10.6280 N   0  0  0  0  0  0  0  0  0  0  0  0
    5.4022   -9.8330   10.9784 C   0  0  0  0  0  0  0  0  0  0  0  0
    6.3404  -11.0390   10.8040 C   0  0  0  0  0  0  0  0  0  0  0  0
    3.2554   -9.1284   11.0124 O   0  0  0  0  0  0  0  0  0  0  0  0
  1  2  1  6  0  0  0
  1  3  1  0  0  0  0
  1  8  1  0  0  0  0
  3  4  1  0  0  0  0
  3 32  1  6  0  0  0
  4  5  1  0  0  0  0
  4 33  1  1  0  0  0
  5  6  1  6  0  0  0
  5  7  1  0  0  0  0
  7  8  1  0  0  0  0
  7  9  1  1  0  0  0
  9 10  1  0  0  0  0
 11 12  1  6  0  0  0
 11 13  1  0  0  0  0
 11 19  1  0  0  0  0
 12 34  1  0  0  0  0
 13 14  1  0  0  0  0
 14 15  1  6  0  0  0
 14 16  1  0  0  0  0
 16  2  1  1  0  0  0
 16 17  1  0  0  0  0
 17 18  1  1  0  0  0
 17 19  1  0  0  0  0
 19 20  1  1  0  0  0
 21 20  1  6  0  0  0
 21 22  1  0  0  0  0
 21 29  1  0  0  0  0
 22 23  1  6  0  0  0
 22 24  1  0  0  0  0
 24 25  1  1  0  0  0
 24 26  1  0  0  0  0
 26 27  1  6  0  0  0
 26 28  1  0  0  0  0
 28 29  1  0  0  0  0
 28 30  1  1  0  0  0
 30 31  1  0  0  0  0
 34 35  2  0  0  0  0
 36 34  1  1  0  0  0
 36 38  1  0  0  0  0
 36 40  1  0  0  0  0
 37 39  1  0  0  0  0
 38 39  1  0  0  0  0
M  END
>  <CHROM.1>
178.46238622,-176.68611571,-174.93282228,-68.37042975,167.75326721,-75.82481244
-62.18605953,76.10439936,65.56352095,174.64569838,2.65558463,-10.15271186
16.15902721,-2.60414806,-0.18782214,-1.71102113

>  <Name>
ligand

>  <RI>
0

>  <Rbt.Current_Directory>
/home/itssahil/PROJECTS/Mol_Feturizer/New_Systems/rnas/4P20

>  <Rbt.Executable>
rbdock ($Id: //depot/dev/client3/rdock/2013.1/src/exe/rbdock.cxx#4 $)

>  <Rbt.Library>
libRbt.so (2013.1, Build901 2013/11/27)

>  <Rbt.Parameter_File>
/export/apps/rDock/src/rDock_2013.1_src/data/scripts/dock_solv.prm

>  <Rbt.Receptor>
prm/pocket_docking_8.prm

>  <SCORE>
-9.79643

>  <SCORE.INTER>
1.83439

>  <SCORE.INTER.CONST>
1

>  <SCORE.INTER.POLAR>
0

>  <SCORE.INTER.ROT>
10

>  <SCORE.INTER.SOLV>
15.7051

>  <SCORE.INTER.VDW>
-14.2788

>  <SCORE.INTER.norm>
0.0458599

>  <SCORE.INTRA>
-11.6308

>  <SCORE.INTRA.DIHEDRAL>
-24.852

>  <SCORE.INTRA.DIHEDRAL.0>
28.2802

>  <SCORE.INTRA.POLAR>
0

>  <SCORE.INTRA.POLAR.0>
0

>  <SCORE.INTRA.REPUL>
0

>  <SCORE.INTRA.REPUL.0>
0

>  <SCORE.INTRA.SOLV>
-1.74568

>  <SCORE.INTRA.SOLV.lig_0>
-101.981

>  <SCORE.INTRA.VDW>
1.668

>  <SCORE.INTRA.VDW.0>
-5.72964

>  <SCORE.INTRA.norm>
-0.290771

>  <SCORE.RESTR>
0

>  <SCORE.RESTR.CAVITY>
0

>  <SCORE.RESTR.norm>
0

>  <SCORE.SYSTEM>
0

>  <SCORE.SYSTEM.CONST>
0

>  <SCORE.SYSTEM.DIHEDRAL>
0

>  <SCORE.SYSTEM.SOLV>
0

>  <SCORE.SYSTEM.norm>
0

>  <SCORE.heavy>
40

>  <SCORE.norm>
-0.244911

>  <RMSD>
7.866

$$$$
ligand
 OpenBabel11021811513D
libRbt.so/2013.1/901 2013/11/27
 40 42  0  0  0  0  0  0  0  0999 V2000
   -3.6822   -8.3532   18.1823 C   0  0  2  0  0  0  0  0  0  0  0  0
   -2.5302   -8.2227   17.3345 O   0  0  0  0  0  0  0  0  0  0  0  0
   -4.0059   -9.8713   18.4468 C   0  0  1  0  0  0  0  0  0  0  0  0
   -4.4401  -10.5996   17.1414 C   0  0  2  0  0  0  0  0  0  0  0  0
   -5.7154   -9.8806   16.5984 C   0  0  2  0  0  0  0  0  0  0  0  0
   -6.1629  -10.5474   15.3984 O   0  0  0  0  0  0  0  0  0  0  0  0
   -5.3486   -8.3619   16.2978 C   0  0  2  0  0  0  0  0  0  0  0  0
   -4.8771   -7.6950   17.5639 O   0  0  0  0  0  0  0  0  0  0  0  0
   -6.5386   -7.5657   15.7798 C   0  0  0  0  0  0  0  0  0  0  0  0
   -7.1345   -8.1982   14.5610 N   0  0  0  0  0  0  0  0  0  0  0  0
    1.7539   -7.9011   18.2690 C   0  0  2  0  0  0  0  0  0  0  0  0
    3.0676   -8.2535   18.7552 N   0  0  0  0  0  0  0  0  0  0  0  0
    0.7228   -7.9208   19.4687 C   0  0  0  0  0  0  0  0  0  0  0  0
   -0.7337   -7.5382   18.9463 C   0  0  2  0  0  0  0  0  0  0  0  0
   -1.6980   -7.5411   20.0775 N   0  0  0  0  0  0  0  0  0  0  0  0
   -1.1727   -8.5738   17.8097 C   0  0  2  0  0  0  0  0  0  0  0  0
   -0.1088   -8.5183   16.6321 C   0  0  2  0  0  0  0  0  0  0  0  0
   -0.4947   -9.4386   15.6087 O   0  0  0  0  0  0  0  0  0  0  0  0
    1.3297   -8.8954   17.1647 C   0  0  1  0  0  0  0  0  0  0  0  0
    2.2918   -8.8198   16.0833 O   0  0  0  0  0  0  0  0  0  0  0  0
    3.4016   -9.6396   15.9384 C   0  0  2  0  0  0  0  0  0  0  0  0
    4.0766   -9.2820   14.5667 C   0  0  2  0  0  0  0  0  0  0  0  0
    4.4123   -7.9322   14.5466 O   0  0  0  0  0  0  0  0  0  0  0  0
    3.1477   -9.6607   13.3358 C   0  0  1  0  0  0  0  0  0  0  0  0
    3.8145   -9.3236   12.0402 N   0  0  0  0  0  0  0  0  0  0  0  0
    2.8058  -11.2125   13.4144 C   0  0  2  0  0  0  0  0  0  0  0  0
    1.9772  -11.6074   12.3140 O   0  0  0  0  0  0  0  0  0  0  0  0
    2.1016  -11.4902   14.7986 C   0  0  2  0  0  0  0  0  0  0  0  0
    2.9974  -11.0689   15.9556 O   0  0  0  0  0  0  0  0  0  0  0  0
    1.7635  -12.9537   14.9546 C   0  0  0  0  0  0  0  0  0  0  0  0
    1.1510  -13.2505   16.2233 O   0  0  0  0  0  0  0  0  0  0  0  0
   -2.8210  -10.4991   19.0177 O   0  0  0  0  0  0  0  0  0  0  0  0
   -4.7215  -11.9126   17.4318 O   0  0  0  0  0  0  0  0  0  0  0  0
    3.7332   -7.3668   19.6813 C   0  0  0  0  0  0  0  0  0  0  0  0
    3.4065   -6.1436   19.7266 O   0  0  0  0  0  0  0  0  0  0  0  0
    4.8462   -7.9666   20.5945 C   0  0  2  0  0  0  0  0  0  0  0  0
    4.4129  -11.0582   20.9402 N   0  0  0  0  0  0  0  0  0  0  0  0
    4.2247   -8.7280   21.8059 C   0  0  0  0  0  0  0  0  0  0  0  0
    3.4737  -10.0070   21.3994 C   0  0  0  0  0  0  0  0  0  0  0  0
    5.5953   -7.0740   21.1046 O   0  0  0  0  0  0  0  0  0  0  0  0
  1  2  1  6  0  0  0
  1  3  1  0  0  0  0
  1  8  1  0  0  0  0
  3  4  1  0  0  0  0
  3 32  1  6  0  0  0
  4  5  1  0  0  0  0
  4 33  1  1  0  0  0
  5  6  1  6  0  0  0
  5  7  1  0  0  0  0
  7  8  1  0  0  0  0
  7  9  1  1  0  0  0
  9 10  1  0  0  0  0
 11 12  1  1  0  0  0
 11 13  1  0  0  0  0
 11 19  1  0  0  0  0
 12 34  1  0  0  0  0
 13 14  1  0  0  0  0
 14 15  1  1  0  0  0
 14 16  1  0  0  0  0
 16  2  1  6  0  0  0
 16 17  1  0  0  0  0
 17 18  1  6  0  0  0
 17 19  1  0  0  0  0
 19 20  1  6  0  0  0
 21 20  1  6  0  0  0
 21 22  1  0  0  0  0
 21 29  1  0  0  0  0
 22 23  1  1  0  0  0
 22 24  1  0  0  0  0
 24 25  1  6  0  0  0
 24 26  1  0  0  0  0
 26 27  1  6  0  0  0
 26 28  1  0  0  0  0
 28 29  1  0  0  0  0
 28 30  1  1  0  0  0
 30 31  1  0  0  0  0
 34 35  2  0  0  0  0
 36 34  1  1  0  0  0
 36 38  1  0  0  0  0
 36 40  1  0  0  0  0
 37 39  1  0  0  0  0
 38 39  1  0  0  0  0
M  END
>  <CHROM.1>
-69.54700190,-67.22605758,-55.87415963,-65.59494564,93.84097133,175.04978663
178.43816740,-79.32047967,67.73744642,70.20331059,0.19588238,-9.29249500
17.13377196,2.99361355,0.02748535,-1.96307179

>  <Name>
ligand

>  <RI>
0

>  <Rbt.Current_Directory>
/home/itssahil/PROJECTS/Mol_Feturizer/New_Systems/rnas/4P20

>  <Rbt.Executable>
rbdock ($Id: //depot/dev/client3/rdock/2013.1/src/exe/rbdock.cxx#4 $)

>  <Rbt.Library>
libRbt.so (2013.1, Build901 2013/11/27)

>  <Rbt.Parameter_File>
/export/apps/rDock/src/rDock_2013.1_src/data/scripts/dock_solv.prm

>  <Rbt.Receptor>
prm/pocket_docking_3.prm

>  <SCORE>
-10.2205

>  <SCORE.INTER>
-2.26665

>  <SCORE.INTER.CONST>
1

>  <SCORE.INTER.POLAR>
0

>  <SCORE.INTER.ROT>
10

>  <SCORE.INTER.SOLV>
17.2583

>  <SCORE.INTER.VDW>
-17.5305

>  <SCORE.INTER.norm>
-0.0566663

>  <SCORE.INTRA>
-7.9614

>  <SCORE.INTRA.DIHEDRAL>
-21.2609

>  <SCORE.INTRA.DIHEDRAL.0>
28.2802

>  <SCORE.INTRA.POLAR>
0

>  <SCORE.INTRA.POLAR.0>
0

>  <SCORE.INTRA.REPUL>
0

>  <SCORE.INTRA.REPUL.0>
0

>  <SCORE.INTRA.SOLV>
2.77462

>  <SCORE.INTRA.SOLV.lig_0>
-101.981

>  <SCORE.INTRA.VDW>
1.28172

>  <SCORE.INTRA.VDW.0>
-5.72964

>  <SCORE.INTRA.norm>
-0.199035

>  <SCORE.RESTR>
0.00752685

>  <SCORE.RESTR.CAVITY>
0.00752685

>  <SCORE.RESTR.norm>
0.000188171

>  <SCORE.SYSTEM>
0

>  <SCORE.SYSTEM.CONST>
0

>  <SCORE.SYSTEM.DIHEDRAL>
0

>  <SCORE.SYSTEM.SOLV>
0

>  <SCORE.SYSTEM.norm>
0

>  <SCORE.heavy>
40

>  <SCORE.norm>
-0.255513

>  <RMSD>
7.879

$$$$
ligand
 OpenBabel11021811513D
libRbt.so/2013.1/901 2013/11/27
 40 42  0  0  0  0  0  0  0  0999 V2000
   -3.2844   -8.3109   18.3326 C   0  0  2  0  0  0  0  0  0  0  0  0
   -2.1596   -8.2164   17.4445 O   0  0  0  0  0  0  0  0  0  0  0  0
   -3.5924   -9.8160   18.6779 C   0  0  1  0  0  0  0  0  0  0  0  0
   -4.0629  -10.6063   17.4221 C   0  0  2  0  0  0  0  0  0  0  0  0
   -5.3578   -9.9181   16.8856 C   0  0  2  0  0  0  0  0  0  0  0  0
   -5.8386  -10.6421   15.7327 O   0  0  0  0  0  0  0  0  0  0  0  0
   -5.0078   -8.4139   16.5029 C   0  0  2  0  0  0  0  0  0  0  0  0
   -4.5010   -7.6866   17.7212 O   0  0  0  0  0  0  0  0  0  0  0  0
   -6.2170   -7.6471   15.9852 C   0  0  0  0  0  0  0  0  0  0  0  0
   -6.8369   -8.3295   14.8059 N   0  0  0  0  0  0  0  0  0  0  0  0
    2.1013   -7.6619   18.3759 C   0  0  2  0  0  0  0  0  0  0  0  0
    3.4364   -7.9479   18.8473 N   0  0  0  0  0  0  0  0  0  0  0  0
    1.0790   -7.7807   19.5774 C   0  0  0  0  0  0  0  0  0  0  0  0
   -0.4006   -7.4723   19.0711 C   0  0  2  0  0  0  0  0  0  0  0  0
   -1.3575   -7.5682   20.2045 N   0  0  0  0  0  0  0  0  0  0  0  0
   -0.7810   -8.4980   17.9048 C   0  0  2  0  0  0  0  0  0  0  0  0
    0.2720   -8.3422   16.7264 C   0  0  2  0  0  0  0  0  0  0  0  0
   -0.0620   -9.2530   15.6766 O   0  0  0  0  0  0  0  0  0  0  0  0
    1.7333   -8.6465   17.2431 C   0  0  1  0  0  0  0  0  0  0  0  0
    2.6839   -8.4796   16.1618 O   0  0  0  0  0  0  0  0  0  0  0  0
    3.9821   -8.9688   16.1525 C   0  0  2  0  0  0  0  0  0  0  0  0
    4.6225   -8.5816   14.7723 C   0  0  2  0  0  0  0  0  0  0  0  0
    4.5782   -7.2012   14.6052 O   0  0  0  0  0  0  0  0  0  0  0  0
    3.9147   -9.3290   13.5632 C   0  0  1  0  0  0  0  0  0  0  0  0
    4.5479   -8.9556   12.2607 N   0  0  0  0  0  0  0  0  0  0  0  0
    4.0043  -10.8978   13.8120 C   0  0  2  0  0  0  0  0  0  0  0  0
    3.3886  -11.6193   12.7378 O   0  0  0  0  0  0  0  0  0  0  0  0
    3.3132  -11.2156   15.1942 C   0  0  2  0  0  0  0  0  0  0  0  0
    3.9824  -10.4444   16.3237 O   0  0  0  0  0  0  0  0  0  0  0  0
    3.3773  -12.6910   15.5095 C   0  0  0  0  0  0  0  0  0  0  0  0
    2.6288  -13.0405   16.6886 O   0  0  0  0  0  0  0  0  0  0  0  0
   -2.3874  -10.4121   19.2408 O   0  0  0  0  0  0  0  0  0  0  0  0
   -4.3288  -11.9052   17.7824 O   0  0  0  0  0  0  0  0  0  0  0  0
    4.0258   -7.0873   19.8467 C   0  0  0  0  0  0  0  0  0  0  0  0
    3.6039   -5.9006   19.9835 O   0  0  0  0  0  0  0  0  0  0  0  0
    5.1783   -7.6682   20.7225 C   0  0  2  0  0  0  0  0  0  0  0  0
    3.1175  -10.0819   22.9785 N   0  0  0  0  0  0  0  0  0  0  0  0
    4.7335   -8.9865   21.4281 C   0  0  0  0  0  0  0  0  0  0  0  0
    3.4582   -8.8237   22.2721 C   0  0  0  0  0  0  0  0  0  0  0  0
    5.5241   -6.8825   21.6612 O   0  0  0  0  0  0  0  0  0  0  0  0
  1  2  1  6  0  0  0
  1  3  1  0  0  0  0
  1  8  1  0  0  0  0
  3  4  1  0  0  0  0
  3 32  1  6  0  0  0
  4  5  1  0  0  0  0
  4 33  1  1  0  0  0
  5  6  1  6  0  0  0
  5  7  1  0  0  0  0
  7  8  1  0  0  0  0
  7  9  1  1  0  0  0
  9 10  1  0  0  0  0
 11 12  1  1  0  0  0
 11 13  1  0  0  0  0
 11 19  1  0  0  0  0
 12 34  1  0  0  0  0
 13 14  1  0  0  0  0
 14 15  1  1  0  0  0
 14 16  1  0  0  0  0
 16  2  1  6  0  0  0
 16 17  1  0  0  0  0
 17 18  1  6  0  0  0
 17 19  1  0  0  0  0
 19 20  1  6  0  0  0
 21 20  1  6  0  0  0
 21 22  1  0  0  0  0
 21 29  1  0  0  0  0
 22 23  1  6  0  0  0
 22 24  1  0  0  0  0
 24 25  1  6  0  0  0
 24 26  1  0  0  0  0
 26 27  1  6  0  0  0
 26 28  1  0  0  0  0
 28 29  1  0  0  0  0
 28 30  1  1  0  0  0
 30 31  1  0  0  0  0
 34 35  2  0  0  0  0
 36 34  1  1  0  0  0
 36 38  1  0  0  0  0
 36 40  1  0  0  0  0
 37 39  1  0  0  0  0
 38 39  1  0  0  0  0
M  END
>  <CHROM.1>
-71.54222738,-60.72383322,-56.57366209,-62.60108049,76.79907036,178.58014630
-173.53191595,-54.89716809,-55.52553351,-176.97524486,0.66750646,-9.07011525
17.40892742,3.04757892,-0.01534144,-1.90381529

>  <Name>
ligand

>  <RI>
0

>  <Rbt.Current_Directory>
/home/itssahil/PROJECTS/Mol_Feturizer/New_Systems/rnas/4P20

>  <Rbt.Executable>
rbdock ($Id: //depot/dev/client3/rdock/2013.1/src/exe/rbdock.cxx#4 $)

>  <Rbt.Library>
libRbt.so (2013.1, Build901 2013/11/27)

>  <Rbt.Parameter_File>
/export/apps/rDock/src/rDock_2013.1_src/data/scripts/dock_solv.prm

>  <Rbt.Receptor>
prm/pocket_docking_4.prm

>  <SCORE>
-12.8165

>  <SCORE.INTER>
-3.4022

>  <SCORE.INTER.CONST>
1

>  <SCORE.INTER.POLAR>
0

>  <SCORE.INTER.ROT>
10

>  <SCORE.INTER.SOLV>
20.1956

>  <SCORE.INTER.VDW>
-19.2667

>  <SCORE.INTER.norm>
-0.0850549

>  <SCORE.INTRA>
-9.41431

>  <SCORE.INTRA.DIHEDRAL>
-25.1687

>  <SCORE.INTRA.DIHEDRAL.0>
28.2802

>  <SCORE.INTRA.POLAR>
0

>  <SCORE.INTRA.POLAR.0>
0

>  <SCORE.INTRA.REPUL>
0

>  <SCORE.INTRA.REPUL.0>
0

>  <SCORE.INTRA.SOLV>
1.58475

>  <SCORE.INTRA.SOLV.lig_0>
-101.981

>  <SCORE.INTRA.VDW>
2.37765

>  <SCORE.INTRA.VDW.0>
-5.72964

>  <SCORE.INTRA.norm>
-0.235358

>  <SCORE.RESTR>
0

>  <SCORE.RESTR.CAVITY>
0

>  <SCORE.RESTR.norm>
0

>  <SCORE.SYSTEM>
0

>  <SCORE.SYSTEM.CONST>
0

>  <SCORE.SYSTEM.DIHEDRAL>
0

>  <SCORE.SYSTEM.SOLV>
0

>  <SCORE.SYSTEM.norm>
0

>  <SCORE.heavy>
40

>  <SCORE.norm>
-0.320413

>  <RMSD>
7.885

$$$$
ligand
 OpenBabel11021811513D
libRbt.so/2013.1/901 2013/11/27
 40 42  0  0  0  0  0  0  0  0999 V2000
   -4.2042   -9.3889   16.9617 C   0  0  2  0  0  0  0  0  0  0  0  0
   -3.1900   -8.3847   17.1231 O   0  0  0  0  0  0  0  0  0  0  0  0
   -5.5246   -8.7544   16.3843 C   0  0  1  0  0  0  0  0  0  0  0  0
   -6.1681   -7.7572   17.3914 C   0  0  2  0  0  0  0  0  0  0  0  0
   -6.4962   -8.5471   18.6978 C   0  0  2  0  0  0  0  0  0  0  0  0
   -7.1199   -7.6569   19.6480 O   0  0  0  0  0  0  0  0  0  0  0  0
   -5.1401   -9.1387   19.2832 C   0  0  2  0  0  0  0  0  0  0  0  0
   -4.5080  -10.0553   18.2682 O   0  0  0  0  0  0  0  0  0  0  0  0
   -5.3575   -9.9480   20.5544 C   0  0  0  0  0  0  0  0  0  0  0  0
   -6.1808  -11.1706   20.2936 N   0  0  0  0  0  0  0  0  0  0  0  0
    1.1302   -8.2736   17.9317 C   0  0  2  0  0  0  0  0  0  0  0  0
    2.4078   -8.5835   18.5299 N   0  0  0  0  0  0  0  0  0  0  0  0
    0.1439   -7.7292   19.0423 C   0  0  0  0  0  0  0  0  0  0  0  0
   -1.2731   -7.3871   18.3974 C   0  0  2  0  0  0  0  0  0  0  0  0
   -2.1933   -6.8602   19.4391 N   0  0  0  0  0  0  0  0  0  0  0  0
   -1.8692   -8.7027   17.7112 C   0  0  2  0  0  0  0  0  0  0  0  0
   -0.8453   -9.2101   16.6085 C   0  0  2  0  0  0  0  0  0  0  0  0
   -1.3712  -10.3846   15.9863 O   0  0  0  0  0  0  0  0  0  0  0  0
    0.5548   -9.5412   17.2607 C   0  0  1  0  0  0  0  0  0  0  0  0
    1.4832   -9.9824   16.2388 O   0  0  0  0  0  0  0  0  0  0  0  0
    2.0723  -11.2371   16.1783 C   0  0  2  0  0  0  0  0  0  0  0  0
    3.2097  -11.1727   15.0978 C   0  0  2  0  0  0  0  0  0  0  0  0
    4.1217  -10.1780   15.4351 O   0  0  0  0  0  0  0  0  0  0  0  0
    2.6253  -10.9447   13.6391 C   0  0  1  0  0  0  0  0  0  0  0  0
    3.7236  -10.8992   12.6250 N   0  0  0  0  0  0  0  0  0  0  0  0
    1.5970  -12.1143   13.3140 C   0  0  2  0  0  0  0  0  0  0  0  0
    1.0498  -11.9599   11.9986 O   0  0  0  0  0  0  0  0  0  0  0  0
    0.4686  -12.0960   14.4164 C   0  0  2  0  0  0  0  0  0  0  0  0
    1.0671  -12.2655   15.8062 O   0  0  0  0  0  0  0  0  0  0  0  0
   -0.5386  -13.1970   14.1843 C   0  0  0  0  0  0  0  0  0  0  0  0
   -1.6094  -13.1829   15.1466 O   0  0  0  0  0  0  0  0  0  0  0  0
   -5.2004   -8.0846   15.1312 O   0  0  0  0  0  0  0  0  0  0  0  0
   -7.3192   -7.2452   16.8432 O   0  0  0  0  0  0  0  0  0  0  0  0
    3.2837   -7.5002   18.9121 C   0  0  0  0  0  0  0  0  0  0  0  0
    3.1615   -6.3670   18.3590 O   0  0  0  0  0  0  0  0  0  0  0  0
    4.3614   -7.7830   20.0035 C   0  0  2  0  0  0  0  0  0  0  0  0
    6.2013  -10.8440   18.4535 N   0  0  0  0  0  0  0  0  0  0  0  0
    5.5223   -8.6530   19.4300 C   0  0  0  0  0  0  0  0  0  0  0  0
    5.0533  -10.0172   18.8970 C   0  0  0  0  0  0  0  0  0  0  0  0
    3.8999   -8.4422   20.9886 O   0  0  0  0  0  0  0  0  0  0  0  0
  1  2  1  1  0  0  0
  1  3  1  0  0  0  0
  1  8  1  0  0  0  0
  3  4  1  0  0  0  0
  3 32  1  6  0  0  0
  4  5  1  0  0  0  0
  4 33  1  6  0  0  0
  5  6  1  1  0  0  0
  5  7  1  0  0  0  0
  7  8  1  0  0  0  0
  7  9  1  1  0  0  0
  9 10  1  0  0  0  0
 11 12  1  1  0  0  0
 11 13  1  0  0  0  0
 11 19  1  0  0  0  0
 12 34  1  0  0  0  0
 13 14  1  0  0  0  0
 14 15  1  1  0  0  0
 14 16  1  0  0  0  0
 16  2  1  6  0  0  0
 16 17  1  0  0  0  0
 17 18  1  1  0  0  0
 17 19  1  0  0  0  0
 19 20  1  6  0  0  0
 21 20  1  6  0  0  0
 21 22  1  0  0  0  0
 21 29  1  0  0  0  0
 22 23  1  1  0  0  0
 22 24  1  0  0  0  0
 24 25  1  6  0  0  0
 24 26  1  0  0  0  0
 26 27  1  6  0  0  0
 26 28  1  0  0  0  0
 28 29  1  0  0  0  0
 28 30  1  6  0  0  0
 30 31  1  0  0  0  0
 34 35  2  0  0  0  0
 36 34  1  6  0  0  0
 36 38  1  0  0  0  0
 36 40  1  0  0  0  0
 37 39  1  0  0  0  0
 38 39  1  0  0  0  0
M  END
>  <CHROM.1>
177.02107742,-152.74852058,64.49825315,-73.93415308,122.80214220,-168.60956762
-178.03459568,73.67447079,-59.61067941,-175.92171849,-0.50630185,-9.54983885
17.14703933,2.93722294,-0.03754353,0.98038806

>  <Name>
ligand

>  <RI>
0

>  <Rbt.Current_Directory>
/home/itssahil/PROJECTS/Mol_Feturizer/New_Systems/rnas/4P20

>  <Rbt.Executable>
rbdock ($Id: //depot/dev/client3/rdock/2013.1/src/exe/rbdock.cxx#4 $)

>  <Rbt.Library>
libRbt.so (2013.1, Build901 2013/11/27)

>  <Rbt.Parameter_File>
/export/apps/rDock/src/rDock_2013.1_src/data/scripts/dock_solv.prm

>  <Rbt.Receptor>
prm/pocket_docking_8.prm

>  <SCORE>
-8.74167

>  <SCORE.INTER>
-1.62436

>  <SCORE.INTER.CONST>
1

>  <SCORE.INTER.POLAR>
0

>  <SCORE.INTER.ROT>
10

>  <SCORE.INTER.SOLV>
14.7551

>  <SCORE.INTER.VDW>
-16.2679

>  <SCORE.INTER.norm>
-0.040609

>  <SCORE.INTRA>
-7.11731

>  <SCORE.INTRA.DIHEDRAL>
-16.0361

>  <SCORE.INTRA.DIHEDRAL.0>
28.2802

>  <SCORE.INTRA.POLAR>
0

>  <SCORE.INTRA.POLAR.0>
0

>  <SCORE.INTRA.REPUL>
0

>  <SCORE.INTRA.REPUL.0>
0

>  <SCORE.INTRA.SOLV>
1.26711

>  <SCORE.INTRA.SOLV.lig_0>
-101.981

>  <SCORE.INTRA.VDW>
0.267175

>  <SCORE.INTRA.VDW.0>
-5.72964

>  <SCORE.INTRA.norm>
-0.177933

>  <SCORE.RESTR>
0

>  <SCORE.RESTR.CAVITY>
0

>  <SCORE.RESTR.norm>
0

>  <SCORE.SYSTEM>
0

>  <SCORE.SYSTEM.CONST>
0

>  <SCORE.SYSTEM.DIHEDRAL>
0

>  <SCORE.SYSTEM.SOLV>
0

>  <SCORE.SYSTEM.norm>
0

>  <SCORE.heavy>
40

>  <SCORE.norm>
-0.218542

>  <RMSD>
7.891

$$$$
ligand
 OpenBabel11021811513D
libRbt.so/2013.1/901 2013/11/27
 40 42  0  0  0  0  0  0  0  0999 V2000
   -3.5031  -10.1411   17.0931 C   0  0  2  0  0  0  0  0  0  0  0  0
   -2.4321   -9.6507   16.2713 O   0  0  0  0  0  0  0  0  0  0  0  0
   -4.7064  -10.6282   16.2020 C   0  0  1  0  0  0  0  0  0  0  0  0
   -5.3622   -9.4459   15.4305 C   0  0  2  0  0  0  0  0  0  0  0  0
   -5.8773   -8.4174   16.4866 C   0  0  2  0  0  0  0  0  0  0  0  0
   -6.5166   -7.3164   15.8058 O   0  0  0  0  0  0  0  0  0  0  0  0
   -4.6360   -7.9089   17.3421 C   0  0  2  0  0  0  0  0  0  0  0  0
   -3.9842   -9.0785   18.0329 O   0  0  0  0  0  0  0  0  0  0  0  0
   -5.0393   -6.9112   18.4193 C   0  0  0  0  0  0  0  0  0  0  0  0
   -3.8484   -6.2051   18.9881 N   0  0  0  0  0  0  0  0  0  0  0  0
    1.6723   -8.2510   16.9957 C   0  0  2  0  0  0  0  0  0  0  0  0
    3.0266   -8.2171   17.4967 N   0  0  0  0  0  0  0  0  0  0  0  0
    0.6589   -8.2673   18.2104 C   0  0  0  0  0  0  0  0  0  0  0  0
   -0.8411   -8.3095   17.6725 C   0  0  2  0  0  0  0  0  0  0  0  0
   -1.7922   -8.3082   18.8148 N   0  0  0  0  0  0  0  0  0  0  0  0
   -1.0353   -9.6082   16.7600 C   0  0  2  0  0  0  0  0  0  0  0  0
    0.0023   -9.5465   15.5594 C   0  0  2  0  0  0  0  0  0  0  0  0
   -0.1661  -10.7021   14.7351 O   0  0  0  0  0  0  0  0  0  0  0  0
    1.4834   -9.5009   16.1068 C   0  0  1  0  0  0  0  0  0  0  0  0
    2.4162   -9.4237   15.0002 O   0  0  0  0  0  0  0  0  0  0  0  0
    3.3883  -10.3680   14.7033 C   0  0  2  0  0  0  0  0  0  0  0  0
    4.5621   -9.6236   13.9733 C   0  0  2  0  0  0  0  0  0  0  0  0
    5.0483   -8.6041   14.7853 O   0  0  0  0  0  0  0  0  0  0  0  0
    4.1150   -9.0643   12.5560 C   0  0  1  0  0  0  0  0  0  0  0  0
    5.2505   -8.3706   11.8733 N   0  0  0  0  0  0  0  0  0  0  0  0
    3.5760  -10.2763   11.6775 C   0  0  2  0  0  0  0  0  0  0  0  0
    3.1707   -9.8234   10.3797 O   0  0  0  0  0  0  0  0  0  0  0  0
    2.3807  -10.9520   12.4544 C   0  0  2  0  0  0  0  0  0  0  0  0
    2.8301  -11.4307   13.8283 O   0  0  0  0  0  0  0  0  0  0  0  0
    1.8277  -12.1294   11.6873 C   0  0  0  0  0  0  0  0  0  0  0  0
    2.7830  -13.1967   11.5426 O   0  0  0  0  0  0  0  0  0  0  0  0
   -4.2100  -11.6369   15.2746 O   0  0  0  0  0  0  0  0  0  0  0  0
   -6.4102   -9.9244   14.6819 O   0  0  0  0  0  0  0  0  0  0  0  0
    3.4540   -7.0844   18.2849 C   0  0  0  0  0  0  0  0  0  0  0  0
    2.8475   -5.9774   18.1764 O   0  0  0  0  0  0  0  0  0  0  0  0
    4.6668   -7.2795   19.2459 C   0  0  2  0  0  0  0  0  0  0  0  0
    5.8738  -10.9155   18.5586 N   0  0  0  0  0  0  0  0  0  0  0  0
    5.5800   -8.4483   18.7626 C   0  0  0  0  0  0  0  0  0  0  0  0
    4.9240   -9.8318   18.9073 C   0  0  0  0  0  0  0  0  0  0  0  0
    4.3113   -7.5941   20.4260 O   0  0  0  0  0  0  0  0  0  0  0  0
  1  2  1  6  0  0  0
  1  3  1  0  0  0  0
  1  8  1  0  0  0  0
  3  4  1  0  0  0  0
  3 32  1  6  0  0  0
  4  5  1  0  0  0  0
  4 33  1  1  0  0  0
  5  6  1  6  0  0  0
  5  7  1  0  0  0  0
  7  8  1  0  0  0  0
  7  9  1  1  0  0  0
  9 10  1  0  0  0  0
 11 12  1  1  0  0  0
 11 13  1  0  0  0  0
 11 19  1  0  0  0  0
 12 34  1  0  0  0  0
 13 14  1  0  0  0  0
 14 15  1  1  0  0  0
 14 16  1  0  0  0  0
 16  2  1  6  0  0  0
 16 17  1  0  0  0  0
 17 18  1  6  0  0  0
 17 19  1  0  0  0  0
 19 20  1  6  0  0  0
 21 20  1  6  0  0  0
 21 22  1  0  0  0  0
 21 29  1  0  0  0  0
 22 23  1  1  0  0  0
 22 24  1  0  0  0  0
 24 25  1  6  0  0  0
 24 26  1  0  0  0  0
 26 27  1  6  0  0  0
 26 28  1  0  0  0  0
 28 29  1  0  0  0  0
 28 30  1  6  0  0  0
 30 31  1  0  0  0  0
 34 35  2  0  0  0  0
 36 34  1  6  0  0  0
 36 38  1  0  0  0  0
 36 40  1  0  0  0  0
 37 39  1  0  0  0  0
 38 39  1  0  0  0  0
M  END
>  <CHROM.1>
-156.74624644,-80.71965862,-166.43356431,-62.25845625,121.51319624,-152.08679294
64.21776053,24.46716021,-69.33294955,-174.56942252,0.46745547,-9.22950083
15.95075120,2.93627607,0.01071371,1.11202685

>  <Name>
ligand

>  <RI>
0

>  <Rbt.Current_Directory>
/home/itssahil/PROJECTS/Mol_Feturizer/New_Systems/rnas/4P20

>  <Rbt.Executable>
rbdock ($Id: //depot/dev/client3/rdock/2013.1/src/exe/rbdock.cxx#4 $)

>  <Rbt.Library>
libRbt.so (2013.1, Build901 2013/11/27)

>  <Rbt.Parameter_File>
/export/apps/rDock/src/rDock_2013.1_src/data/scripts/dock_solv.prm

>  <Rbt.Receptor>
prm/pocket_docking_5.prm

>  <SCORE>
-8.11863

>  <SCORE.INTER>
-6.86572

>  <SCORE.INTER.CONST>
1

>  <SCORE.INTER.POLAR>
0

>  <SCORE.INTER.ROT>
10

>  <SCORE.INTER.SOLV>
21.0878

>  <SCORE.INTER.VDW>
-21.8731

>  <SCORE.INTER.norm>
-0.171643

>  <SCORE.INTRA>
-1.25291

>  <SCORE.INTRA.DIHEDRAL>
-10.6087

>  <SCORE.INTRA.DIHEDRAL.0>
28.2802

>  <SCORE.INTRA.POLAR>
0

>  <SCORE.INTRA.POLAR.0>
0

>  <SCORE.INTRA.REPUL>
0

>  <SCORE.INTRA.REPUL.0>
0

>  <SCORE.INTRA.SOLV>
4.20693

>  <SCORE.INTRA.SOLV.lig_0>
-101.981

>  <SCORE.INTRA.VDW>
1.94799

>  <SCORE.INTRA.VDW.0>
-5.72964

>  <SCORE.INTRA.norm>
-0.0313228

>  <SCORE.RESTR>
0

>  <SCORE.RESTR.CAVITY>
0

>  <SCORE.RESTR.norm>
0

>  <SCORE.SYSTEM>
0

>  <SCORE.SYSTEM.CONST>
0

>  <SCORE.SYSTEM.DIHEDRAL>
0

>  <SCORE.SYSTEM.SOLV>
0

>  <SCORE.SYSTEM.norm>
0

>  <SCORE.heavy>
40

>  <SCORE.norm>
-0.202966

>  <RMSD>
7.895

$$$$
ligand
 OpenBabel11021811513D
libRbt.so/2013.1/901 2013/11/27
 40 42  0  0  0  0  0  0  0  0999 V2000
    4.9804   -8.8731   14.2962 C   0  0  2  0  0  0  0  0  0  0  0  0
    3.5458   -8.9394   14.2753 O   0  0  0  0  0  0  0  0  0  0  0  0
    5.5420   -8.5749   12.8557 C   0  0  1  0  0  0  0  0  0  0  0  0
    5.2542   -9.7490   11.8752 C   0  0  2  0  0  0  0  0  0  0  0  0
    5.9428  -11.0272   12.4498 C   0  0  2  0  0  0  0  0  0  0  0  0
    5.7181  -12.1339   11.5503 O   0  0  0  0  0  0  0  0  0  0  0  0
    5.3255  -11.3306   13.8845 C   0  0  2  0  0  0  0  0  0  0  0  0
    5.5668  -10.1568   14.7978 O   0  0  0  0  0  0  0  0  0  0  0  0
    5.9496  -12.5543   14.5413 C   0  0  0  0  0  0  0  0  0  0  0  0
    5.2734  -12.8892   15.8341 N   0  0  0  0  0  0  0  0  0  0  0  0
    0.6482   -8.1543   17.4873 C   0  0  2  0  0  0  0  0  0  0  0  0
   -0.1251   -8.3391   18.6933 N   0  0  0  0  0  0  0  0  0  0  0  0
    0.3525   -9.3396   16.4822 C   0  0  0  0  0  0  0  0  0  0  0  0
    1.2032   -9.1517   15.1473 C   0  0  2  0  0  0  0  0  0  0  0  0
    0.9118  -10.2573   14.1974 N   0  0  0  0  0  0  0  0  0  0  0  0
    2.7579   -9.1026   15.5179 C   0  0  2  0  0  0  0  0  0  0  0  0
    3.0028   -7.9013   16.5272 C   0  0  2  0  0  0  0  0  0  0  0  0
    4.3914   -7.8467   16.8619 O   0  0  0  0  0  0  0  0  0  0  0  0
    2.1510   -8.0984   17.8429 C   0  0  1  0  0  0  0  0  0  0  0  0
    2.3695   -6.9843   18.7437 O   0  0  0  0  0  0  0  0  0  0  0  0
    1.8346   -6.8668   20.0185 C   0  0  2  0  0  0  0  0  0  0  0  0
    2.3661   -5.5225   20.6312 C   0  0  2  0  0  0  0  0  0  0  0  0
    2.0085   -4.4585   19.8095 O   0  0  0  0  0  0  0  0  0  0  0  0
    3.9357   -5.5622   20.8683 C   0  0  1  0  0  0  0  0  0  0  0  0
    4.4183   -4.2778   21.4635 N   0  0  0  0  0  0  0  0  0  0  0  0
    4.2765   -6.7936   21.8162 C   0  0  2  0  0  0  0  0  0  0  0  0
    5.6847   -6.8649   22.0713 O   0  0  0  0  0  0  0  0  0  0  0  0
    3.7462   -8.1078   21.1229 C   0  0  2  0  0  0  0  0  0  0  0  0
    2.2486   -8.0163   20.8634 O   0  0  0  0  0  0  0  0  0  0  0  0
    4.0171   -9.3228   21.9777 C   0  0  0  0  0  0  0  0  0  0  0  0
    5.4137   -9.6697   22.0241 O   0  0  0  0  0  0  0  0  0  0  0  0
    4.9349   -7.3405   12.3744 O   0  0  0  0  0  0  0  0  0  0  0  0
    5.7751   -9.4419   10.6415 O   0  0  0  0  0  0  0  0  0  0  0  0
   -1.4647   -7.8020   18.7558 C   0  0  0  0  0  0  0  0  0  0  0  0
   -1.7944   -6.8431   17.9963 O   0  0  0  0  0  0  0  0  0  0  0  0
   -2.4583   -8.4355   19.7775 C   0  0  2  0  0  0  0  0  0  0  0  0
   -1.1909  -11.0781   20.8863 N   0  0  0  0  0  0  0  0  0  0  0  0
   -1.7683   -8.6681   21.1571 C   0  0  0  0  0  0  0  0  0  0  0  0
   -0.6450   -9.7172   21.1056 C   0  0  0  0  0  0  0  0  0  0  0  0
   -2.8748   -9.5801   19.4107 O   0  0  0  0  0  0  0  0  0  0  0  0
  1  2  1  6  0  0  0
  1  3  1  0  0  0  0
  1  8  1  0  0  0  0
  3  4  1  0  0  0  0
  3 32  1  6  0  0  0
  4  5  1  0  0  0  0
  4 33  1  6  0  0  0
  5  6  1  6  0  0  0
  5  7  1  0  0  0  0
  7  8  1  0  0  0  0
  7  9  1  1  0  0  0
  9 10  1  0  0  0  0
 11 12  1  1  0  0  0
 11 13  1  0  0  0  0
 11 19  1  0  0  0  0
 12 34  1  0  0  0  0
 13 14  1  0  0  0  0
 14 15  1  6  0  0  0
 14 16  1  0  0  0  0
 16  2  1  6  0  0  0
 16 17  1  0  0  0  0
 17 18  1  1  0  0  0
 17 19  1  0  0  0  0
 19 20  1  1  0  0  0
 21 20  1  6  0  0  0
 21 22  1  0  0  0  0
 21 29  1  0  0  0  0
 22 23  1  6  0  0  0
 22 24  1  0  0  0  0
 24 25  1  1  0  0  0
 24 26  1  0  0  0  0
 26 27  1  6  0  0  0
 26 28  1  0  0  0  0
 28 29  1  0  0  0  0
 28 30  1  1  0  0  0
 30 31  1  0  0  0  0
 34 35  2  0  0  0  0
 36 34  1  6  0  0  0
 36 38  1  0  0  0  0
 36 40  1  0  0  0  0
 37 39  1  0  0  0  0
 38 39  1  0  0  0  0
M  END
>  <CHROM.1>
-175.13552692,-179.53393834,-175.09062436,-87.95052289,63.60876249,178.66547711
-71.07907634,43.85911780,-65.79736677,-69.48868885,2.75957301,-8.64192724
17.45456927,-1.10296950,0.14561775,1.17044057

>  <Name>
ligand

>  <RI>
0

>  <Rbt.Current_Directory>
/home/itssahil/PROJECTS/Mol_Feturizer/New_Systems/rnas/4P20

>  <Rbt.Executable>
rbdock ($Id: //depot/dev/client3/rdock/2013.1/src/exe/rbdock.cxx#4 $)

>  <Rbt.Library>
libRbt.so (2013.1, Build901 2013/11/27)

>  <Rbt.Parameter_File>
/export/apps/rDock/src/rDock_2013.1_src/data/scripts/dock_solv.prm

>  <Rbt.Receptor>
prm/pocket_docking_7.prm

>  <SCORE>
-16.081

>  <SCORE.INTER>
-5.90484

>  <SCORE.INTER.CONST>
1

>  <SCORE.INTER.POLAR>
0

>  <SCORE.INTER.ROT>
10

>  <SCORE.INTER.SOLV>
20.7602

>  <SCORE.INTER.VDW>
-21.1233

>  <SCORE.INTER.norm>
-0.147621

>  <SCORE.INTRA>
-10.1762

>  <SCORE.INTRA.DIHEDRAL>
-25.4963

>  <SCORE.INTRA.DIHEDRAL.0>
28.2802

>  <SCORE.INTRA.POLAR>
0

>  <SCORE.INTRA.POLAR.0>
0

>  <SCORE.INTRA.REPUL>
0

>  <SCORE.INTRA.REPUL.0>
0

>  <SCORE.INTRA.SOLV>
0.980379

>  <SCORE.INTRA.SOLV.lig_0>
-101.981

>  <SCORE.INTRA.VDW>
2.08176

>  <SCORE.INTRA.VDW.0>
-5.72964

>  <SCORE.INTRA.norm>
-0.254404

>  <SCORE.RESTR>
0

>  <SCORE.RESTR.CAVITY>
0

>  <SCORE.RESTR.norm>
0

>  <SCORE.SYSTEM>
0

>  <SCORE.SYSTEM.CONST>
0

>  <SCORE.SYSTEM.DIHEDRAL>
0

>  <SCORE.SYSTEM.SOLV>
0

>  <SCORE.SYSTEM.norm>
0

>  <SCORE.heavy>
40

>  <SCORE.norm>
-0.402025

>  <RMSD>
7.902

$$$$
ligand
 OpenBabel11021811513D
libRbt.so/2013.1/901 2013/11/27
 40 42  0  0  0  0  0  0  0  0999 V2000
   -2.8197  -10.1018   16.4866 C   0  0  2  0  0  0  0  0  0  0  0  0
   -1.8125   -9.1596   16.8874 O   0  0  0  0  0  0  0  0  0  0  0  0
   -4.2579   -9.5399   16.7956 C   0  0  1  0  0  0  0  0  0  0  0  0
   -4.4975   -9.3922   18.3265 C   0  0  2  0  0  0  0  0  0  0  0  0
   -4.3398  -10.8060   18.9704 C   0  0  2  0  0  0  0  0  0  0  0  0
   -4.5816  -10.7115   20.3907 O   0  0  0  0  0  0  0  0  0  0  0  0
   -2.8654  -11.3298   18.6816 C   0  0  2  0  0  0  0  0  0  0  0  0
   -2.6390  -11.4096   17.1942 O   0  0  0  0  0  0  0  0  0  0  0  0
   -2.6168  -12.7182   19.2550 C   0  0  0  0  0  0  0  0  0  0  0  0
   -2.6375  -12.7066   20.7517 N   0  0  0  0  0  0  0  0  0  0  0  0
    2.4565   -8.8330   15.8877 C   0  0  2  0  0  0  0  0  0  0  0  0
    3.8640   -9.1509   15.8237 N   0  0  0  0  0  0  0  0  0  0  0  0
    2.0228   -8.6527   17.3984 C   0  0  0  0  0  0  0  0  0  0  0  0
    0.4694   -8.3060   17.4854 C   0  0  2  0  0  0  0  0  0  0  0  0
    0.0673   -8.1207   18.9044 N   0  0  0  0  0  0  0  0  0  0  0  0
   -0.3699   -9.4790   16.7951 C   0  0  2  0  0  0  0  0  0  0  0  0
    0.1016   -9.6217   15.2854 C   0  0  2  0  0  0  0  0  0  0  0  0
   -0.6460  -10.6661   14.6581 O   0  0  0  0  0  0  0  0  0  0  0  0
    1.6428   -9.9610   15.2143 C   0  0  1  0  0  0  0  0  0  0  0  0
    2.0613  -10.0672   13.8308 O   0  0  0  0  0  0  0  0  0  0  0  0
    3.3189  -10.4664   13.4017 C   0  0  2  0  0  0  0  0  0  0  0  0
    3.2494  -10.6512   11.8441 C   0  0  2  0  0  0  0  0  0  0  0  0
    2.8422   -9.4620   11.2481 O   0  0  0  0  0  0  0  0  0  0  0  0
    2.2969  -11.8539   11.4347 C   0  0  1  0  0  0  0  0  0  0  0  0
    2.2553  -12.0199    9.9489 N   0  0  0  0  0  0  0  0  0  0  0  0
    2.8183  -13.1799   12.1424 C   0  0  2  0  0  0  0  0  0  0  0  0
    1.9963  -14.3004   11.7926 O   0  0  0  0  0  0  0  0  0  0  0  0
    2.8283  -12.9330   13.7005 C   0  0  2  0  0  0  0  0  0  0  0  0
    3.7094  -11.7425   14.0541 O   0  0  0  0  0  0  0  0  0  0  0  0
    3.3335  -14.1476   14.4420 C   0  0  0  0  0  0  0  0  0  0  0  0
    3.3176  -13.9731   15.8710 O   0  0  0  0  0  0  0  0  0  0  0  0
   -4.4005   -8.2540   16.1248 O   0  0  0  0  0  0  0  0  0  0  0  0
   -5.7673   -8.9121   18.5381 O   0  0  0  0  0  0  0  0  0  0  0  0
    4.7870   -8.1502   15.3402 C   0  0  0  0  0  0  0  0  0  0  0  0
    4.3684   -7.2163   14.5935 O   0  0  0  0  0  0  0  0  0  0  0  0
    6.2832   -8.2718   15.7635 C   0  0  2  0  0  0  0  0  0  0  0  0
    7.8045  -10.5698   13.0140 N   0  0  0  0  0  0  0  0  0  0  0  0
    6.9496   -9.5204   15.1075 C   0  0  0  0  0  0  0  0  0  0  0  0
    7.0719   -9.4110   13.5784 C   0  0  0  0  0  0  0  0  0  0  0  0
    6.4262   -8.4319   17.0173 O   0  0  0  0  0  0  0  0  0  0  0  0
  1  2  1  1  0  0  0
  1  3  1  0  0  0  0
  1  8  1  0  0  0  0
  3  4  1  0  0  0  0
  3 32  1  6  0  0  0
  4  5  1  0  0  0  0
  4 33  1  6  0  0  0
  5  6  1  1  0  0  0
  5  7  1  0  0  0  0
  7  8  1  0  0  0  0
  7  9  1  6  0  0  0
  9 10  1  0  0  0  0
 11 12  1  1  0  0  0
 11 13  1  0  0  0  0
 11 19  1  0  0  0  0
 12 34  1  0  0  0  0
 13 14  1  0  0  0  0
 14 15  1  1  0  0  0
 14 16  1  0  0  0  0
 16  2  1  6  0  0  0
 16 17  1  0  0  0  0
 17 18  1  1  0  0  0
 17 19  1  0  0  0  0
 19 20  1  6  0  0  0
 21 20  1  1  0  0  0
 21 22  1  0  0  0  0
 21 29  1  0  0  0  0
 22 23  1  6  0  0  0
 22 24  1  0  0  0  0
 24 25  1  6  0  0  0
 24 26  1  0  0  0  0
 26 27  1  1  0  0  0
 26 28  1  0  0  0  0
 28 29  1  0  0  0  0
 28 30  1  1  0  0  0
 30 31  1  0  0  0  0
 34 35  2  0  0  0  0
 36 34  1  1  0  0  0
 36 38  1  0  0  0  0
 36 40  1  0  0  0  0
 37 39  1  0  0  0  0
 38 39  1  0  0  0  0
M  END
>  <CHROM.1>
175.67477454,-172.89006766,-66.86543386,-107.91334351,65.90340988,171.20110597
-178.20003400,68.05467341,66.60181706,175.55589957,1.07627417,-10.36342840
15.60079729,2.73561924,0.33893103,0.85385575

>  <Name>
ligand

>  <RI>
0

>  <Rbt.Current_Directory>
/home/itssahil/PROJECTS/Mol_Feturizer/New_Systems/rnas/4P20

>  <Rbt.Executable>
rbdock ($Id: //depot/dev/client3/rdock/2013.1/src/exe/rbdock.cxx#4 $)

>  <Rbt.Library>
libRbt.so (2013.1, Build901 2013/11/27)

>  <Rbt.Parameter_File>
/export/apps/rDock/src/rDock_2013.1_src/data/scripts/dock_solv.prm

>  <Rbt.Receptor>
prm/pocket_docking_6.prm

>  <SCORE>
-10.6092

>  <SCORE.INTER>
1.83009

>  <SCORE.INTER.CONST>
1

>  <SCORE.INTER.POLAR>
0

>  <SCORE.INTER.ROT>
10

>  <SCORE.INTER.SOLV>
20.2214

>  <SCORE.INTER.VDW>
-15.7871

>  <SCORE.INTER.norm>
0.0457524

>  <SCORE.INTRA>
-12.4393

>  <SCORE.INTRA.DIHEDRAL>
-25.0167

>  <SCORE.INTRA.DIHEDRAL.0>
28.2802

>  <SCORE.INTRA.POLAR>
0

>  <SCORE.INTRA.POLAR.0>
0

>  <SCORE.INTRA.REPUL>
0

>  <SCORE.INTRA.REPUL.0>
0

>  <SCORE.INTRA.SOLV>
-0.868066

>  <SCORE.INTRA.SOLV.lig_0>
-101.981

>  <SCORE.INTRA.VDW>
0.503029

>  <SCORE.INTRA.VDW.0>
-5.72964

>  <SCORE.INTRA.norm>
-0.310984

>  <SCORE.RESTR>
0

>  <SCORE.RESTR.CAVITY>
0

>  <SCORE.RESTR.norm>
0

>  <SCORE.SYSTEM>
0

>  <SCORE.SYSTEM.CONST>
0

>  <SCORE.SYSTEM.DIHEDRAL>
0

>  <SCORE.SYSTEM.SOLV>
0

>  <SCORE.SYSTEM.norm>
0

>  <SCORE.heavy>
40

>  <SCORE.norm>
-0.265231

>  <RMSD>
7.906

$$$$
ligand
 OpenBabel11021811513D
libRbt.so/2013.1/901 2013/11/27
 40 42  0  0  0  0  0  0  0  0999 V2000
    4.9104  -13.1847   20.4935 C   0  0  2  0  0  0  0  0  0  0  0  0
    5.3734  -12.4389   19.3567 O   0  0  0  0  0  0  0  0  0  0  0  0
    5.7295  -14.5203   20.6504 C   0  0  1  0  0  0  0  0  0  0  0  0
    5.4748  -15.4907   19.4603 C   0  0  2  0  0  0  0  0  0  0  0  0
    3.9477  -15.8151   19.4305 C   0  0  2  0  0  0  0  0  0  0  0  0
    3.6779  -16.7359   18.3517 O   0  0  0  0  0  0  0  0  0  0  0  0
    3.1473  -14.4552   19.2264 C   0  0  2  0  0  0  0  0  0  0  0  0
    3.4548  -13.5119   20.3603 O   0  0  0  0  0  0  0  0  0  0  0  0
    1.6393  -14.6635   19.2038 C   0  0  0  0  0  0  0  0  0  0  0  0
    0.9132  -13.3915   18.8951 N   0  0  0  0  0  0  0  0  0  0  0  0
    3.7881   -8.4164   20.1546 C   0  0  2  0  0  0  0  0  0  0  0  0
    3.5079   -7.0095   19.9860 N   0  0  0  0  0  0  0  0  0  0  0  0
    5.3522   -8.6380   20.2403 C   0  0  0  0  0  0  0  0  0  0  0  0
    5.6773  -10.1880   20.4217 C   0  0  2  0  0  0  0  0  0  0  0  0
    7.1464  -10.3925   20.5186 N   0  0  0  0  0  0  0  0  0  0  0  0
    5.0602  -11.0015   19.1912 C   0  0  2  0  0  0  0  0  0  0  0  0
    3.4934  -10.7461   19.1467 C   0  0  2  0  0  0  0  0  0  0  0  0
    2.9315  -11.4727   18.0515 O   0  0  0  0  0  0  0  0  0  0  0  0
    3.1861   -9.2067   18.9708 C   0  0  1  0  0  0  0  0  0  0  0  0
    1.7534   -8.9884   18.9532 O   0  0  0  0  0  0  0  0  0  0  0  0
    1.1103   -7.9354   18.3187 C   0  0  2  0  0  0  0  0  0  0  0  0
   -0.3739   -7.9118   18.8302 C   0  0  2  0  0  0  0  0  0  0  0  0
   -0.3910   -7.7822   20.2152 O   0  0  0  0  0  0  0  0  0  0  0  0
   -1.1788   -9.1988   18.3643 C   0  0  1  0  0  0  0  0  0  0  0  0
   -2.5921   -9.1499   18.8513 N   0  0  0  0  0  0  0  0  0  0  0  0
   -1.1253   -9.2857   16.7766 C   0  0  2  0  0  0  0  0  0  0  0  0
   -1.8510  -10.4277   16.3047 O   0  0  0  0  0  0  0  0  0  0  0  0
    0.3895   -9.3408   16.3391 C   0  0  2  0  0  0  0  0  0  0  0  0
    1.1436   -8.1186   16.8450 O   0  0  0  0  0  0  0  0  0  0  0  0
    0.5211   -9.4043   14.8361 C   0  0  0  0  0  0  0  0  0  0  0  0
    1.8877   -9.5359   14.4028 O   0  0  0  0  0  0  0  0  0  0  0  0
    7.1437  -14.1813   20.7458 O   0  0  0  0  0  0  0  0  0  0  0  0
    6.2017  -16.6403   19.6546 O   0  0  0  0  0  0  0  0  0  0  0  0
    3.8668   -6.0921   21.0427 C   0  0  0  0  0  0  0  0  0  0  0  0
    4.0019   -6.5190   22.2278 O   0  0  0  0  0  0  0  0  0  0  0  0
    4.0694   -4.5915   20.6692 C   0  0  2  0  0  0  0  0  0  0  0  0
    1.6536   -1.5534   20.9633 N   0  0  0  0  0  0  0  0  0  0  0  0
    2.7371   -3.7939   20.8185 C   0  0  0  0  0  0  0  0  0  0  0  0
    2.9231   -2.2720   20.6989 C   0  0  0  0  0  0  0  0  0  0  0  0
    4.4252   -4.4317   19.4585 O   0  0  0  0  0  0  0  0  0  0  0  0
  1  2  1  6  0  0  0
  1  3  1  0  0  0  0
  1  8  1  0  0  0  0
  3  4  1  0  0  0  0
  3 32  1  6  0  0  0
  4  5  1  0  0  0  0
  4 33  1  1  0  0  0
  5  6  1  6  0  0  0
  5  7  1  0  0  0  0
  7  8  1  0  0  0  0
  7  9  1  1  0  0  0
  9 10  1  0  0  0  0
 11 12  1  6  0  0  0
 11 13  1  0  0  0  0
 11 19  1  0  0  0  0
 12 34  1  0  0  0  0
 13 14  1  0  0  0  0
 14 15  1  6  0  0  0
 14 16  1  0  0  0  0
 16  2  1  1  0  0  0
 16 17  1  0  0  0  0
 17 18  1  6  0  0  0
 17 19  1  0  0  0  0
 19 20  1  1  0  0  0
 21 20  1  1  0  0  0
 21 22  1  0  0  0  0
 21 29  1  0  0  0  0
 22 23  1  1  0  0  0
 22 24  1  0  0  0  0
 24 25  1  6  0  0  0
 24 26  1  0  0  0  0
 26 27  1  1  0  0  0
 26 28  1  0  0  0  0
 28 29  1  0  0  0  0
 28 30  1  6  0  0  0
 30 31  1  0  0  0  0
 34 35  2  0  0  0  0
 36 34  1  6  0  0  0
 36 38  1  0  0  0  0
 36 40  1  0  0  0  0
 37 39  1  0  0  0  0
 38 39  1  0  0  0  0
M  END
>  <CHROM.1>
-162.54560356,60.88225398,-175.16069489,-64.21157786,86.98098806,-167.23224588
-176.53866206,91.03328125,170.13082801,-175.09521062,2.87082737,-9.99293830
19.16432871,-1.25193038,-0.53543342,0.18787530

>  <Name>
ligand

>  <RI>
0

>  <Rbt.Current_Directory>
/home/itssahil/PROJECTS/Mol_Feturizer/New_Systems/rnas/4P20

>  <Rbt.Executable>
rbdock ($Id: //depot/dev/client3/rdock/2013.1/src/exe/rbdock.cxx#4 $)

>  <Rbt.Library>
libRbt.so (2013.1, Build901 2013/11/27)

>  <Rbt.Parameter_File>
/export/apps/rDock/src/rDock_2013.1_src/data/scripts/dock_solv.prm

>  <Rbt.Receptor>
prm/pocket_docking_8.prm

>  <SCORE>
-10.5182

>  <SCORE.INTER>
-1.0593

>  <SCORE.INTER.CONST>
1

>  <SCORE.INTER.POLAR>
0

>  <SCORE.INTER.ROT>
10

>  <SCORE.INTER.SOLV>
14.1627

>  <SCORE.INTER.VDW>
-15.6938

>  <SCORE.INTER.norm>
-0.0264825

>  <SCORE.INTRA>
-9.45894

>  <SCORE.INTRA.DIHEDRAL>
-20.7932

>  <SCORE.INTRA.DIHEDRAL.0>
28.2802

>  <SCORE.INTRA.POLAR>
0

>  <SCORE.INTRA.POLAR.0>
0

>  <SCORE.INTRA.REPUL>
0

>  <SCORE.INTRA.REPUL.0>
0

>  <SCORE.INTRA.SOLV>
0.395756

>  <SCORE.INTRA.SOLV.lig_0>
-101.981

>  <SCORE.INTRA.VDW>
0.739769

>  <SCORE.INTRA.VDW.0>
-5.72964

>  <SCORE.INTRA.norm>
-0.236473

>  <SCORE.RESTR>
0

>  <SCORE.RESTR.CAVITY>
0

>  <SCORE.RESTR.norm>
0

>  <SCORE.SYSTEM>
0

>  <SCORE.SYSTEM.CONST>
0

>  <SCORE.SYSTEM.DIHEDRAL>
0

>  <SCORE.SYSTEM.SOLV>
0

>  <SCORE.SYSTEM.norm>
0

>  <SCORE.heavy>
40

>  <SCORE.norm>
-0.262956

>  <RMSD>
7.912

$$$$
ligand
 OpenBabel11021811513D
libRbt.so/2013.1/901 2013/11/27
 40 42  0  0  0  0  0  0  0  0999 V2000
   -3.6044  -11.2809   17.8815 C   0  0  2  0  0  0  0  0  0  0  0  0
   -2.7622  -11.5861   16.7588 O   0  0  0  0  0  0  0  0  0  0  0  0
   -3.1816  -12.1303   19.1381 C   0  0  1  0  0  0  0  0  0  0  0  0
   -3.4286  -13.6502   18.9106 C   0  0  2  0  0  0  0  0  0  0  0  0
   -4.9530  -13.8476   18.6358 C   0  0  2  0  0  0  0  0  0  0  0  0
   -5.2240  -15.2528   18.4452 O   0  0  0  0  0  0  0  0  0  0  0  0
   -5.3430  -13.0155   17.3369 C   0  0  2  0  0  0  0  0  0  0  0  0
   -5.0414  -11.5564   17.5611 O   0  0  0  0  0  0  0  0  0  0  0  0
   -6.8224  -13.1272   16.9949 C   0  0  0  0  0  0  0  0  0  0  0  0
   -7.1552  -12.3776   15.7427 N   0  0  0  0  0  0  0  0  0  0  0  0
    1.0104   -9.9365   15.2173 C   0  0  2  0  0  0  0  0  0  0  0  0
    2.3827   -9.4869   15.1847 N   0  0  0  0  0  0  0  0  0  0  0  0
    0.2025   -9.0934   16.2847 C   0  0  0  0  0  0  0  0  0  0  0  0
   -1.3139   -9.5819   16.3355 C   0  0  2  0  0  0  0  0  0  0  0  0
   -2.0754   -8.7778   17.3270 N   0  0  0  0  0  0  0  0  0  0  0  0
   -1.3524  -11.1381   16.7013 C   0  0  2  0  0  0  0  0  0  0  0  0
   -0.5288  -11.9391   15.6050 C   0  0  2  0  0  0  0  0  0  0  0  0
   -0.5604  -13.3327   15.9213 O   0  0  0  0  0  0  0  0  0  0  0  0
    0.9700  -11.4422   15.5629 C   0  0  1  0  0  0  0  0  0  0  0  0
    1.7020  -12.1678   14.5439 O   0  0  0  0  0  0  0  0  0  0  0  0
    1.4125  -12.1565   13.1871 C   0  0  2  0  0  0  0  0  0  0  0  0
    2.1883  -13.3524   12.5291 C   0  0  2  0  0  0  0  0  0  0  0  0
    1.8144  -14.5461   13.1378 O   0  0  0  0  0  0  0  0  0  0  0  0
    3.7609  -13.1428   12.5947 C   0  0  1  0  0  0  0  0  0  0  0  0
    4.4792  -14.2862   11.9518 N   0  0  0  0  0  0  0  0  0  0  0  0
    4.1215  -11.7681   11.8795 C   0  0  2  0  0  0  0  0  0  0  0  0
    5.5359  -11.5389   11.9013 O   0  0  0  0  0  0  0  0  0  0  0  0
    3.3363  -10.6128   12.6128 C   0  0  2  0  0  0  0  0  0  0  0  0
    1.8360  -10.8704   12.5763 O   0  0  0  0  0  0  0  0  0  0  0  0
    3.6143   -9.2733   11.9735 C   0  0  0  0  0  0  0  0  0  0  0  0
    4.9995   -8.8913   12.0630 O   0  0  0  0  0  0  0  0  0  0  0  0
   -1.7737  -11.8720   19.4123 O   0  0  0  0  0  0  0  0  0  0  0  0
   -3.0554  -14.3397   20.0388 O   0  0  0  0  0  0  0  0  0  0  0  0
    3.2535   -9.8137   16.2901 C   0  0  0  0  0  0  0  0  0  0  0  0
    2.7571  -10.0808   17.4247 O   0  0  0  0  0  0  0  0  0  0  0  0
    4.7916   -9.8173   16.0315 C   0  0  2  0  0  0  0  0  0  0  0  0
    5.5805  -13.5911   16.5780 N   0  0  0  0  0  0  0  0  0  0  0  0
    5.4538  -11.1017   16.6190 C   0  0  0  0  0  0  0  0  0  0  0  0
    4.9710  -12.3970   15.9450 C   0  0  0  0  0  0  0  0  0  0  0  0
    5.3853   -8.8432   16.5944 O   0  0  0  0  0  0  0  0  0  0  0  0
  1  2  1  6  0  0  0
  1  3  1  0  0  0  0
  1  8  1  0  0  0  0
  3  4  1  0  0  0  0
  3 32  1  6  0  0  0
  4  5  1  0  0  0  0
  4 33  1  1  0  0  0
  5  6  1  6  0  0  0
  5  7  1  0  0  0  0
  7  8  1  0  0  0  0
  7  9  1  1  0  0  0
  9 10  1  0  0  0  0
 11 12  1  1  0  0  0
 11 13  1  0  0  0  0
 11 19  1  0  0  0  0
 12 34  1  0  0  0  0
 13 14  1  0  0  0  0
 14 15  1  1  0  0  0
 14 16  1  0  0  0  0
 16  2  1  6  0  0  0
 16 17  1  0  0  0  0
 17 18  1  1  0  0  0
 17 19  1  0  0  0  0
 19 20  1  6  0  0  0
 21 20  1  1  0  0  0
 21 22  1  0  0  0  0
 21 29  1  0  0  0  0
 22 23  1  1  0  0  0
 22 24  1  0  0  0  0
 24 25  1  6  0  0  0
 24 26  1  0  0  0  0
 26 27  1  1  0  0  0
 26 28  1  0  0  0  0
 28 29  1  0  0  0  0
 28 30  1  6  0  0  0
 30 31  1  0  0  0  0
 34 35  2  0  0  0  0
 36 34  1  1  0  0  0
 36 38  1  0  0  0  0
 36 40  1  0  0  0  0
 37 39  1  0  0  0  0
 38 39  1  0  0  0  0
M  END
>  <CHROM.1>
-72.03038466,-76.70555213,-177.93170145,72.33289523,-58.47435527,-165.02065095
-62.65341762,-132.99828314,63.96132944,-177.39645975,0.44050173,-11.68920311
15.69366412,-2.88714983,-0.40697734,-2.19309875

>  <Name>
ligand

>  <RI>
0

>  <Rbt.Current_Directory>
/home/itssahil/PROJECTS/Mol_Feturizer/New_Systems/rnas/4P20

>  <Rbt.Executable>
rbdock ($Id: //depot/dev/client3/rdock/2013.1/src/exe/rbdock.cxx#4 $)

>  <Rbt.Library>
libRbt.so (2013.1, Build901 2013/11/27)

>  <Rbt.Parameter_File>
/export/apps/rDock/src/rDock_2013.1_src/data/scripts/dock_solv.prm

>  <Rbt.Receptor>
prm/pocket_docking_5.prm

>  <SCORE>
-6.50283

>  <SCORE.INTER>
3.81255

>  <SCORE.INTER.CONST>
1

>  <SCORE.INTER.POLAR>
0

>  <SCORE.INTER.ROT>
10

>  <SCORE.INTER.SOLV>
12.3968

>  <SCORE.INTER.VDW>
-11.8572

>  <SCORE.INTER.norm>
0.0953136

>  <SCORE.INTRA>
-10.3154

>  <SCORE.INTRA.DIHEDRAL>
-22.7049

>  <SCORE.INTRA.DIHEDRAL.0>
28.2802

>  <SCORE.INTRA.POLAR>
0

>  <SCORE.INTRA.POLAR.0>
0

>  <SCORE.INTRA.REPUL>
0

>  <SCORE.INTRA.REPUL.0>
0

>  <SCORE.INTRA.SOLV>
1.65352

>  <SCORE.INTRA.SOLV.lig_0>
-101.981

>  <SCORE.INTRA.VDW>
0.210319

>  <SCORE.INTRA.VDW.0>
-5.72964

>  <SCORE.INTRA.norm>
-0.257884

>  <SCORE.RESTR>
0

>  <SCORE.RESTR.CAVITY>
0

>  <SCORE.RESTR.norm>
0

>  <SCORE.SYSTEM>
0

>  <SCORE.SYSTEM.CONST>
0

>  <SCORE.SYSTEM.DIHEDRAL>
0

>  <SCORE.SYSTEM.SOLV>
0

>  <SCORE.SYSTEM.norm>
0

>  <SCORE.heavy>
40

>  <SCORE.norm>
-0.162571

>  <RMSD>
7.947

$$$$
ligand
 OpenBabel11021811513D
libRbt.so/2013.1/901 2013/11/27
 40 42  0  0  0  0  0  0  0  0999 V2000
   -3.1198   -8.7726   18.0261 C   0  0  2  0  0  0  0  0  0  0  0  0
   -1.9838   -8.4228   17.2197 O   0  0  0  0  0  0  0  0  0  0  0  0
   -3.3429  -10.3313   18.0219 C   0  0  1  0  0  0  0  0  0  0  0  0
   -3.7372  -10.8490   16.6079 C   0  0  2  0  0  0  0  0  0  0  0  0
   -5.0597  -10.1310   16.1911 C   0  0  2  0  0  0  0  0  0  0  0  0
   -5.4705  -10.6074   14.8916 O   0  0  0  0  0  0  0  0  0  0  0  0
   -4.7937   -8.5626   16.1601 C   0  0  2  0  0  0  0  0  0  0  0  0
   -4.3586   -8.0960   17.5251 O   0  0  0  0  0  0  0  0  0  0  0  0
   -6.0359   -7.7676   15.7819 C   0  0  0  0  0  0  0  0  0  0  0  0
   -7.1287   -7.9430   16.7896 N   0  0  0  0  0  0  0  0  0  0  0  0
    2.1617   -7.4278   18.2940 C   0  0  2  0  0  0  0  0  0  0  0  0
    3.5026   -7.5735   18.8109 N   0  0  0  0  0  0  0  0  0  0  0  0
    1.1174   -7.6549   19.4604 C   0  0  0  0  0  0  0  0  0  0  0  0
   -0.3684   -7.5019   18.9037 C   0  0  2  0  0  0  0  0  0  0  0  0
   -1.3479   -7.6993   20.0042 N   0  0  0  0  0  0  0  0  0  0  0  0
   -0.5998   -8.5597   17.7271 C   0  0  2  0  0  0  0  0  0  0  0  0
    0.4705   -8.2926   16.5847 C   0  0  2  0  0  0  0  0  0  0  0  0
    0.2693   -9.2315   15.5258 O   0  0  0  0  0  0  0  0  0  0  0  0
    1.9373   -8.4435   17.1512 C   0  0  1  0  0  0  0  0  0  0  0  0
    2.9013   -8.1763   16.1024 O   0  0  0  0  0  0  0  0  0  0  0  0
    4.2716   -8.3674   16.2049 C   0  0  2  0  0  0  0  0  0  0  0  0
    4.8892   -8.1284   14.7813 C   0  0  2  0  0  0  0  0  0  0  0  0
    4.5671   -6.8495   14.3387 O   0  0  0  0  0  0  0  0  0  0  0  0
    4.4176   -9.2314   13.7410 C   0  0  1  0  0  0  0  0  0  0  0  0
    5.0269   -8.9921   12.3962 N   0  0  0  0  0  0  0  0  0  0  0  0
    4.8189  -10.6651   14.3020 C   0  0  2  0  0  0  0  0  0  0  0  0
    4.4247  -11.6972   13.3895 O   0  0  0  0  0  0  0  0  0  0  0  0
    4.1372  -10.8481   15.7130 C   0  0  2  0  0  0  0  0  0  0  0  0
    4.5704   -9.7460   16.6703 O   0  0  0  0  0  0  0  0  0  0  0  0
    4.4906  -12.1848   16.3202 C   0  0  0  0  0  0  0  0  0  0  0  0
    4.0110  -13.2947   15.5386 O   0  0  0  0  0  0  0  0  0  0  0  0
   -2.1163  -10.9704   18.4815 O   0  0  0  0  0  0  0  0  0  0  0  0
   -3.9312  -12.2079   16.6650 O   0  0  0  0  0  0  0  0  0  0  0  0
    3.9588   -6.6688   19.8406 C   0  0  0  0  0  0  0  0  0  0  0  0
    3.4049   -5.5373   19.9748 O   0  0  0  0  0  0  0  0  0  0  0  0
    5.1363   -7.1336   20.7517 C   0  0  2  0  0  0  0  0  0  0  0  0
    3.4639  -10.2134   22.4502 N   0  0  0  0  0  0  0  0  0  0  0  0
    4.9251   -8.6029   21.2312 C   0  0  0  0  0  0  0  0  0  0  0  0
    3.6168   -8.8048   22.0139 C   0  0  0  0  0  0  0  0  0  0  0  0
    5.2357   -6.4421   21.8147 O   0  0  0  0  0  0  0  0  0  0  0  0
  1  2  1  6  0  0  0
  1  3  1  0  0  0  0
  1  8  1  0  0  0  0
  3  4  1  0  0  0  0
  3 32  1  6  0  0  0
  4  5  1  0  0  0  0
  4 33  1  1  0  0  0
  5  6  1  6  0  0  0
  5  7  1  0  0  0  0
  7  8  1  0  0  0  0
  7  9  1  1  0  0  0
  9 10  1  0  0  0  0
 11 12  1  1  0  0  0
 11 13  1  0  0  0  0
 11 19  1  0  0  0  0
 12 34  1  0  0  0  0
 13 14  1  0  0  0  0
 14 15  1  1  0  0  0
 14 16  1  0  0  0  0
 16  2  1  6  0  0  0
 16 17  1  0  0  0  0
 17 18  1  6  0  0  0
 17 19  1  0  0  0  0
 19 20  1  6  0  0  0
 21 20  1  6  0  0  0
 21 22  1  0  0  0  0
 21 29  1  0  0  0  0
 22 23  1  6  0  0  0
 22 24  1  0  0  0  0
 24 25  1  6  0  0  0
 24 26  1  0  0  0  0
 26 27  1  6  0  0  0
 26 28  1  0  0  0  0
 28 29  1  0  0  0  0
 28 30  1  1  0  0  0
 30 31  1  0  0  0  0
 34 35  2  0  0  0  0
 36 34  1  1  0  0  0
 36 38  1  0  0  0  0
 36 40  1  0  0  0  0
 37 39  1  0  0  0  0
 38 39  1  0  0  0  0
M  END
>  <CHROM.1>
-79.69782078,-67.44726325,62.89653967,-61.80065068,67.90973780,172.76239408
-62.92158022,-45.22316364,-58.55865668,-179.84291612,0.95176608,-8.99074700
17.29076578,3.03643700,-0.02594312,-2.00409609

>  <Name>
ligand

>  <RI>
0

>  <Rbt.Current_Directory>
/home/itssahil/PROJECTS/Mol_Feturizer/New_Systems/rnas/4P20

>  <Rbt.Executable>
rbdock ($Id: //depot/dev/client3/rdock/2013.1/src/exe/rbdock.cxx#4 $)

>  <Rbt.Library>
libRbt.so (2013.1, Build901 2013/11/27)

>  <Rbt.Parameter_File>
/export/apps/rDock/src/rDock_2013.1_src/data/scripts/dock_solv.prm

>  <Rbt.Receptor>
prm/pocket_docking_5.prm

>  <SCORE>
-14.5698

>  <SCORE.INTER>
-5.26861

>  <SCORE.INTER.CONST>
1

>  <SCORE.INTER.POLAR>
0

>  <SCORE.INTER.ROT>
10

>  <SCORE.INTER.SOLV>
16.993

>  <SCORE.INTER.VDW>
-19.4434

>  <SCORE.INTER.norm>
-0.131715

>  <SCORE.INTRA>
-9.30119

>  <SCORE.INTRA.DIHEDRAL>
-24.5715

>  <SCORE.INTRA.DIHEDRAL.0>
28.2802

>  <SCORE.INTRA.POLAR>
0

>  <SCORE.INTRA.POLAR.0>
0

>  <SCORE.INTRA.REPUL>
0

>  <SCORE.INTRA.REPUL.0>
0

>  <SCORE.INTRA.SOLV>
1.43692

>  <SCORE.INTRA.SOLV.lig_0>
-101.981

>  <SCORE.INTRA.VDW>
2.26609

>  <SCORE.INTRA.VDW.0>
-5.72964

>  <SCORE.INTRA.norm>
-0.23253

>  <SCORE.RESTR>
0

>  <SCORE.RESTR.CAVITY>
0

>  <SCORE.RESTR.norm>
0

>  <SCORE.SYSTEM>
0

>  <SCORE.SYSTEM.CONST>
0

>  <SCORE.SYSTEM.DIHEDRAL>
0

>  <SCORE.SYSTEM.SOLV>
0

>  <SCORE.SYSTEM.norm>
0

>  <SCORE.heavy>
40

>  <SCORE.norm>
-0.364245

>  <RMSD>
7.953

$$$$
ligand
 OpenBabel11021811513D
libRbt.so/2013.1/901 2013/11/27
 40 42  0  0  0  0  0  0  0  0999 V2000
    2.9837   -1.4281   22.7733 C   0  0  2  0  0  0  0  0  0  0  0  0
    4.0699   -2.2650   22.3458 O   0  0  0  0  0  0  0  0  0  0  0  0
    3.2328    0.0657   22.3422 C   0  0  1  0  0  0  0  0  0  0  0  0
    4.4625    0.6756   23.0763 C   0  0  2  0  0  0  0  0  0  0  0  0
    4.1775    0.6154   24.6104 C   0  0  2  0  0  0  0  0  0  0  0  0
    5.2892    1.1981   25.3240 O   0  0  0  0  0  0  0  0  0  0  0  0
    3.9745   -0.9069   25.0261 C   0  0  2  0  0  0  0  0  0  0  0  0
    2.8154   -1.4904   24.2604 O   0  0  0  0  0  0  0  0  0  0  0  0
    3.6693   -1.0711   26.5087 C   0  0  0  0  0  0  0  0  0  0  0  0
    4.8004   -0.5844   27.3599 N   0  0  0  0  0  0  0  0  0  0  0  0
    5.0552   -6.5118   21.7768 C   0  0  2  0  0  0  0  0  0  0  0  0
    4.9713   -7.9503   21.8775 N   0  0  0  0  0  0  0  0  0  0  0  0
    5.2220   -5.8890   23.2215 C   0  0  0  0  0  0  0  0  0  0  0  0
    5.3112   -4.3003   23.1268 C   0  0  2  0  0  0  0  0  0  0  0  0
    5.4845   -3.7179   24.4834 N   0  0  0  0  0  0  0  0  0  0  0  0
    3.9892   -3.7413   22.4221 C   0  0  2  0  0  0  0  0  0  0  0  0
    3.8657   -4.3951   20.9802 C   0  0  2  0  0  0  0  0  0  0  0  0
    2.6881   -3.8983   20.3401 O   0  0  0  0  0  0  0  0  0  0  0  0
    3.7824   -5.9688   21.0889 C   0  0  1  0  0  0  0  0  0  0  0  0
    3.6913   -6.5508   19.7647 O   0  0  0  0  0  0  0  0  0  0  0  0
    2.7264   -6.2410   18.8172 C   0  0  2  0  0  0  0  0  0  0  0  0
    1.3489   -6.7666   19.3570 C   0  0  2  0  0  0  0  0  0  0  0  0
    1.0781   -6.1890   20.5932 O   0  0  0  0  0  0  0  0  0  0  0  0
    1.3157   -8.3517   19.4445 C   0  0  1  0  0  0  0  0  0  0  0  0
   -0.0083   -8.8309   19.9486 N   0  0  0  0  0  0  0  0  0  0  0  0
    1.6268   -8.9478   18.0026 C   0  0  2  0  0  0  0  0  0  0  0  0
    1.5956  -10.3803   18.0267 O   0  0  0  0  0  0  0  0  0  0  0  0
    3.0353   -8.4069   17.5416 C   0  0  2  0  0  0  0  0  0  0  0  0
    3.0489   -6.8845   17.5178 O   0  0  0  0  0  0  0  0  0  0  0  0
    3.3916   -8.9169   16.1655 C   0  0  0  0  0  0  0  0  0  0  0  0
    4.6676   -8.4332   15.7066 O   0  0  0  0  0  0  0  0  0  0  0  0
    3.4257    0.0990   20.8980 O   0  0  0  0  0  0  0  0  0  0  0  0
    4.6252    1.9789   22.6734 O   0  0  0  0  0  0  0  0  0  0  0  0
    5.5652   -8.7611   20.8398 C   0  0  0  0  0  0  0  0  0  0  0  0
    5.7525   -8.2700   19.6871 O   0  0  0  0  0  0  0  0  0  0  0  0
    5.9499  -10.2309   21.1920 C   0  0  2  0  0  0  0  0  0  0  0  0
    4.1325  -12.2635   19.7242 N   0  0  0  0  0  0  0  0  0  0  0  0
    4.7307  -10.9999   21.7883 C   0  0  0  0  0  0  0  0  0  0  0  0
    3.6410  -11.3112   20.7487 C   0  0  0  0  0  0  0  0  0  0  0  0
    6.8596  -10.3003   22.0784 O   0  0  0  0  0  0  0  0  0  0  0  0
  1  2  1  1  0  0  0
  1  3  1  0  0  0  0
  1  8  1  0  0  0  0
  3  4  1  0  0  0  0
  3 32  1  6  0  0  0
  4  5  1  0  0  0  0
  4 33  1  6  0  0  0
  5  6  1  1  0  0  0
  5  7  1  0  0  0  0
  7  8  1  0  0  0  0
  7  9  1  1  0  0  0
  9 10  1  0  0  0  0
 11 12  1  1  0  0  0
 11 13  1  0  0  0  0
 11 19  1  0  0  0  0
 12 34  1  0  0  0  0
 13 14  1  0  0  0  0
 14 15  1  1  0  0  0
 14 16  1  0  0  0  0
 16  2  1  6  0  0  0
 16 17  1  0  0  0  0
 17 18  1  1  0  0  0
 17 19  1  0  0  0  0
 19 20  1  6  0  0  0
 21 20  1  1  0  0  0
 21 22  1  0  0  0  0
 21 29  1  0  0  0  0
 22 23  1  1  0  0  0
 22 24  1  0  0  0  0
 24 25  1  6  0  0  0
 24 26  1  0  0  0  0
 26 27  1  1  0  0  0
 26 28  1  0  0  0  0
 28 29  1  0  0  0  0
 28 30  1  6  0  0  0
 30 31  1  0  0  0  0
 34 35  2  0  0  0  0
 36 34  1  1  0  0  0
 36 38  1  0  0  0  0
 36 40  1  0  0  0  0
 37 39  1  0  0  0  0
 38 39  1  0  0  0  0
M  END
>  <CHROM.1>
-169.74535994,-130.86695624,-62.27655916,-144.54494907,-175.91181699,-67.46128136
179.49187734,53.83896129,71.07208844,65.88763833,3.80257161,-5.39065437,21.30937447
1.45207336,-1.01220379,0.40370905

>  <Name>
ligand

>  <RI>
0

>  <Rbt.Current_Directory>
/home/itssahil/PROJECTS/Mol_Feturizer/New_Systems/rnas/4P20

>  <Rbt.Executable>
rbdock ($Id: //depot/dev/client3/rdock/2013.1/src/exe/rbdock.cxx#4 $)

>  <Rbt.Library>
libRbt.so (2013.1, Build901 2013/11/27)

>  <Rbt.Parameter_File>
/export/apps/rDock/src/rDock_2013.1_src/data/scripts/dock_solv.prm

>  <Rbt.Receptor>
prm/pocket_docking_8.prm

>  <SCORE>
-17.831

>  <SCORE.INTER>
-10.6373

>  <SCORE.INTER.CONST>
1

>  <SCORE.INTER.POLAR>
0

>  <SCORE.INTER.ROT>
10

>  <SCORE.INTER.SOLV>
16.8543

>  <SCORE.INTER.VDW>
-22.9763

>  <SCORE.INTER.norm>
-0.265933

>  <SCORE.INTRA>
-7.19369

>  <SCORE.INTRA.DIHEDRAL>
-18.5999

>  <SCORE.INTRA.DIHEDRAL.0>
28.2802

>  <SCORE.INTRA.POLAR>
0

>  <SCORE.INTRA.POLAR.0>
0

>  <SCORE.INTRA.REPUL>
0

>  <SCORE.INTRA.REPUL.0>
0

>  <SCORE.INTRA.SOLV>
4.36788

>  <SCORE.INTRA.SOLV.lig_0>
-101.981

>  <SCORE.INTRA.VDW>
-0.0776721

>  <SCORE.INTRA.VDW.0>
-5.72964

>  <SCORE.INTRA.norm>
-0.179842

>  <SCORE.RESTR>
0

>  <SCORE.RESTR.CAVITY>
0

>  <SCORE.RESTR.norm>
0

>  <SCORE.SYSTEM>
0

>  <SCORE.SYSTEM.CONST>
0

>  <SCORE.SYSTEM.DIHEDRAL>
0

>  <SCORE.SYSTEM.SOLV>
0

>  <SCORE.SYSTEM.norm>
0

>  <SCORE.heavy>
40

>  <SCORE.norm>
-0.445775

>  <RMSD>
7.961

$$$$
ligand
 OpenBabel11021811513D
libRbt.so/2013.1/901 2013/11/27
 40 42  0  0  0  0  0  0  0  0999 V2000
   -4.0858   -8.9230   17.6630 C   0  0  2  0  0  0  0  0  0  0  0  0
   -3.1065   -8.4166   18.5836 O   0  0  0  0  0  0  0  0  0  0  0  0
   -5.4271   -8.1061   17.7765 C   0  0  1  0  0  0  0  0  0  0  0  0
   -6.1043   -8.3079   19.1634 C   0  0  2  0  0  0  0  0  0  0  0  0
   -6.4052   -9.8313   19.3276 C   0  0  2  0  0  0  0  0  0  0  0  0
   -7.0591  -10.0531   20.5956 O   0  0  0  0  0  0  0  0  0  0  0  0
   -5.0298  -10.6277   19.2539 C   0  0  2  0  0  0  0  0  0  0  0  0
   -4.3667  -10.3707   17.9256 O   0  0  0  0  0  0  0  0  0  0  0  0
   -5.2194  -12.1328   19.3843 C   0  0  0  0  0  0  0  0  0  0  0  0
   -3.9080  -12.8545   19.3788 N   0  0  0  0  0  0  0  0  0  0  0  0
    1.2304   -9.1358   18.6500 C   0  0  2  0  0  0  0  0  0  0  0  0
    2.4927   -9.8034   18.8675 N   0  0  0  0  0  0  0  0  0  0  0  0
    0.4755   -8.9685   20.0302 C   0  0  0  0  0  0  0  0  0  0  0  0
   -0.9228   -8.2369   19.8053 C   0  0  2  0  0  0  0  0  0  0  0  0
   -1.6233   -8.0658   21.1051 N   0  0  0  0  0  0  0  0  0  0  0  0
   -1.8044   -9.0925   18.7817 C   0  0  2  0  0  0  0  0  0  0  0  0
   -1.0055   -9.2336   17.4165 C   0  0  2  0  0  0  0  0  0  0  0  0
   -1.7875   -9.9942   16.4929 O   0  0  0  0  0  0  0  0  0  0  0  0
    0.3789   -9.9561   17.6549 C   0  0  1  0  0  0  0  0  0  0  0  0
    1.1040  -10.0581   16.4042 O   0  0  0  0  0  0  0  0  0  0  0  0
    1.4010   -8.9976   15.5604 C   0  0  2  0  0  0  0  0  0  0  0  0
    1.7757   -9.5996   14.1596 C   0  0  2  0  0  0  0  0  0  0  0  0
    0.7215  -10.3724   13.6837 O   0  0  0  0  0  0  0  0  0  0  0  0
    3.1217  -10.4398   14.2196 C   0  0  1  0  0  0  0  0  0  0  0  0
    3.4663  -10.9930   12.8735 N   0  0  0  0  0  0  0  0  0  0  0  0
    4.2844   -9.5005   14.7649 C   0  0  2  0  0  0  0  0  0  0  0  0
    5.5269  -10.2118   14.8254 O   0  0  0  0  0  0  0  0  0  0  0  0
    3.8552   -8.9625   16.1845 C   0  0  2  0  0  0  0  0  0  0  0  0
    2.5363   -8.2063   16.1005 O   0  0  0  0  0  0  0  0  0  0  0  0
    4.9059   -8.0428   16.7596 C   0  0  0  0  0  0  0  0  0  0  0  0
    6.1326   -8.7279   17.0737 O   0  0  0  0  0  0  0  0  0  0  0  0
   -5.1259   -6.6983   17.5497 O   0  0  0  0  0  0  0  0  0  0  0  0
   -7.2722   -7.5854   19.2024 O   0  0  0  0  0  0  0  0  0  0  0  0
    3.5691   -9.0776   19.5011 C   0  0  0  0  0  0  0  0  0  0  0  0
    3.5809   -7.8113   19.4654 O   0  0  0  0  0  0  0  0  0  0  0  0
    4.6889   -9.9019   20.2075 C   0  0  2  0  0  0  0  0  0  0  0  0
    4.2625   -7.3329   21.9540 N   0  0  0  0  0  0  0  0  0  0  0  0
    5.7719   -8.9617   20.8211 C   0  0  0  0  0  0  0  0  0  0  0  0
    5.3421   -8.3289   22.1552 C   0  0  0  0  0  0  0  0  0  0  0  0
    5.3174  -10.6629   19.4050 O   0  0  0  0  0  0  0  0  0  0  0  0
  1  2  1  1  0  0  0
  1  3  1  0  0  0  0
  1  8  1  0  0  0  0
  3  4  1  0  0  0  0
  3 32  1  1  0  0  0
  4  5  1  0  0  0  0
  4 33  1  6  0  0  0
  5  6  1  1  0  0  0
  5  7  1  0  0  0  0
  7  8  1  0  0  0  0
  7  9  1  6  0  0  0
  9 10  1  0  0  0  0
 11 12  1  1  0  0  0
 11 13  1  0  0  0  0
 11 19  1  0  0  0  0
 12 34  1  0  0  0  0
 13 14  1  0  0  0  0
 14 15  1  1  0  0  0
 14 16  1  0  0  0  0
 16  2  1  6  0  0  0
 16 17  1  0  0  0  0
 17 18  1  6  0  0  0
 17 19  1  0  0  0  0
 19 20  1  6  0  0  0
 21 20  1  1  0  0  0
 21 22  1  0  0  0  0
 21 29  1  0  0  0  0
 22 23  1  1  0  0  0
 22 24  1  0  0  0  0
 24 25  1  6  0  0  0
 24 26  1  0  0  0  0
 26 27  1  1  0  0  0
 26 28  1  0  0  0  0
 28 29  1  0  0  0  0
 28 30  1  6  0  0  0
 30 31  1  0  0  0  0
 34 35  2  0  0  0  0
 36 34  1  6  0  0  0
 36 38  1  0  0  0  0
 36 40  1  0  0  0  0
 37 39  1  0  0  0  0
 38 39  1  0  0  0  0
M  END
>  <CHROM.1>
173.58237337,176.98536506,-177.24054592,-72.88779403,-65.93325999,-162.58847704
-66.91847281,179.40790359,78.78717012,-69.69125705,0.13217576,-9.30900110
18.00238323,2.99501662,0.03784008,1.36926893

>  <Name>
ligand

>  <RI>
0

>  <Rbt.Current_Directory>
/home/itssahil/PROJECTS/Mol_Feturizer/New_Systems/rnas/4P20

>  <Rbt.Executable>
rbdock ($Id: //depot/dev/client3/rdock/2013.1/src/exe/rbdock.cxx#4 $)

>  <Rbt.Library>
libRbt.so (2013.1, Build901 2013/11/27)

>  <Rbt.Parameter_File>
/export/apps/rDock/src/rDock_2013.1_src/data/scripts/dock_solv.prm

>  <Rbt.Receptor>
prm/pocket_docking_5.prm

>  <SCORE>
-8.97157

>  <SCORE.INTER>
0.776497

>  <SCORE.INTER.CONST>
1

>  <SCORE.INTER.POLAR>
0

>  <SCORE.INTER.ROT>
10

>  <SCORE.INTER.SOLV>
13.4288

>  <SCORE.INTER.VDW>
-14.2253

>  <SCORE.INTER.norm>
0.0194124

>  <SCORE.INTRA>
-9.74807

>  <SCORE.INTRA.DIHEDRAL>
-23.8445

>  <SCORE.INTRA.DIHEDRAL.0>
28.2802

>  <SCORE.INTRA.POLAR>
0

>  <SCORE.INTRA.POLAR.0>
0

>  <SCORE.INTRA.REPUL>
0

>  <SCORE.INTRA.REPUL.0>
0

>  <SCORE.INTRA.SOLV>
3.24205

>  <SCORE.INTRA.SOLV.lig_0>
-101.981

>  <SCORE.INTRA.VDW>
0.553171

>  <SCORE.INTRA.VDW.0>
-5.72964

>  <SCORE.INTRA.norm>
-0.243702

>  <SCORE.RESTR>
0

>  <SCORE.RESTR.CAVITY>
0

>  <SCORE.RESTR.norm>
0

>  <SCORE.SYSTEM>
0

>  <SCORE.SYSTEM.CONST>
0

>  <SCORE.SYSTEM.DIHEDRAL>
0

>  <SCORE.SYSTEM.SOLV>
0

>  <SCORE.SYSTEM.norm>
0

>  <SCORE.heavy>
40

>  <SCORE.norm>
-0.224289

>  <RMSD>
7.964

$$$$
ligand
 OpenBabel11021811513D
libRbt.so/2013.1/901 2013/11/27
 40 42  0  0  0  0  0  0  0  0999 V2000
   -5.0713   -9.2556   16.6164 C   0  0  2  0  0  0  0  0  0  0  0  0
   -3.9990   -8.4803   17.1751 O   0  0  0  0  0  0  0  0  0  0  0  0
   -6.3702   -8.3779   16.4682 C   0  0  1  0  0  0  0  0  0  0  0  0
   -6.9291   -7.9445   17.8548 C   0  0  2  0  0  0  0  0  0  0  0  0
   -7.2638   -9.2410   18.6581 C   0  0  2  0  0  0  0  0  0  0  0  0
   -7.8106   -8.8763   19.9436 O   0  0  0  0  0  0  0  0  0  0  0  0
   -5.9268  -10.0858   18.8316 C   0  0  2  0  0  0  0  0  0  0  0  0
   -5.3749  -10.4440   17.4761 O   0  0  0  0  0  0  0  0  0  0  0  0
   -6.1529  -11.3870   19.5893 C   0  0  0  0  0  0  0  0  0  0  0  0
   -7.1084  -12.2847   18.8669 N   0  0  0  0  0  0  0  0  0  0  0  0
    0.3309   -9.1756   16.8615 C   0  0  2  0  0  0  0  0  0  0  0  0
    1.6364   -9.7423   17.1086 N   0  0  0  0  0  0  0  0  0  0  0  0
   -0.2337   -8.5447   18.1979 C   0  0  0  0  0  0  0  0  0  0  0  0
   -1.6773   -7.9191   17.9418 C   0  0  2  0  0  0  0  0  0  0  0  0
   -2.1992   -7.3123   19.1944 N   0  0  0  0  0  0  0  0  0  0  0  0
   -2.6565   -9.0618   17.4013 C   0  0  2  0  0  0  0  0  0  0  0  0
   -2.0473   -9.6634   16.0638 C   0  0  2  0  0  0  0  0  0  0  0  0
   -2.9180  -10.6839   15.5703 O   0  0  0  0  0  0  0  0  0  0  0  0
   -0.6160  -10.2758   16.3314 C   0  0  1  0  0  0  0  0  0  0  0  0
   -0.0656  -10.8013   15.0979 O   0  0  0  0  0  0  0  0  0  0  0  0
   -0.6963  -11.7113   14.2618 C   0  0  2  0  0  0  0  0  0  0  0  0
   -0.6890  -13.1032   14.9881 C   0  0  2  0  0  0  0  0  0  0  0  0
   -1.3238  -12.9925   16.2210 O   0  0  0  0  0  0  0  0  0  0  0  0
    0.7829  -13.6764   15.1500 C   0  0  1  0  0  0  0  0  0  0  0  0
    0.7657  -15.0071   15.8323 N   0  0  0  0  0  0  0  0  0  0  0  0
    1.4491  -13.7828   13.7091 C   0  0  2  0  0  0  0  0  0  0  0  0
    2.7788  -14.3091   13.8009 O   0  0  0  0  0  0  0  0  0  0  0  0
    1.4385  -12.3466   13.0564 C   0  0  2  0  0  0  0  0  0  0  0  0
    0.0184  -11.8052   12.9629 O   0  0  0  0  0  0  0  0  0  0  0  0
    2.0400  -12.3724   11.6715 C   0  0  0  0  0  0  0  0  0  0  0  0
    3.4487  -12.6691   11.6827 O   0  0  0  0  0  0  0  0  0  0  0  0
   -6.0446   -7.2123   15.6562 O   0  0  0  0  0  0  0  0  0  0  0  0
   -8.0650   -7.1948   17.6668 O   0  0  0  0  0  0  0  0  0  0  0  0
    2.7679   -8.8567   17.2576 C   0  0  0  0  0  0  0  0  0  0  0  0
    2.7253   -7.6922   16.7605 O   0  0  0  0  0  0  0  0  0  0  0  0
    4.0130   -9.3870   18.0328 C   0  0  2  0  0  0  0  0  0  0  0  0
    4.1906   -7.9849   20.7821 N   0  0  0  0  0  0  0  0  0  0  0  0
    4.9672   -8.2168   18.4246 C   0  0  0  0  0  0  0  0  0  0  0  0
    4.3745   -7.2802   19.4907 C   0  0  0  0  0  0  0  0  0  0  0  0
    4.7212  -10.1821   17.3370 O   0  0  0  0  0  0  0  0  0  0  0  0
  1  2  1  1  0  0  0
  1  3  1  0  0  0  0
  1  8  1  0  0  0  0
  3  4  1  0  0  0  0
  3 32  1  6  0  0  0
  4  5  1  0  0  0  0
  4 33  1  6  0  0  0
  5  6  1  1  0  0  0
  5  7  1  0  0  0  0
  7  8  1  0  0  0  0
  7  9  1  1  0  0  0
  9 10  1  0  0  0  0
 11 12  1  1  0  0  0
 11 13  1  0  0  0  0
 11 19  1  0  0  0  0
 12 34  1  0  0  0  0
 13 14  1  0  0  0  0
 14 15  1  1  0  0  0
 14 16  1  0  0  0  0
 16  2  1  6  0  0  0
 16 17  1  0  0  0  0
 17 18  1  1  0  0  0
 17 19  1  0  0  0  0
 19 20  1  6  0  0  0
 21 20  1  1  0  0  0
 21 22  1  0  0  0  0
 21 29  1  0  0  0  0
 22 23  1  1  0  0  0
 22 24  1  0  0  0  0
 24 25  1  6  0  0  0
 24 26  1  0  0  0  0
 26 27  1  1  0  0  0
 26 28  1  0  0  0  0
 28 29  1  0  0  0  0
 28 30  1  6  0  0  0
 30 31  1  0  0  0  0
 34 35  2  0  0  0  0
 36 34  1  6  0  0  0
 36 38  1  0  0  0  0
 36 40  1  0  0  0  0
 37 39  1  0  0  0  0
 38 39  1  0  0  0  0
M  END
>  <CHROM.1>
-179.08634469,176.43459404,61.39613258,-74.92399814,-173.45538922,-71.70442037
-66.94359990,-165.09491570,68.68820342,65.37602907,-1.23301305,-10.18780597
16.62321506,2.79758546,0.03767283,0.77229846

>  <Name>
ligand

>  <RI>
0

>  <Rbt.Current_Directory>
/home/itssahil/PROJECTS/Mol_Feturizer/New_Systems/rnas/4P20

>  <Rbt.Executable>
rbdock ($Id: //depot/dev/client3/rdock/2013.1/src/exe/rbdock.cxx#4 $)

>  <Rbt.Library>
libRbt.so (2013.1, Build901 2013/11/27)

>  <Rbt.Parameter_File>
/export/apps/rDock/src/rDock_2013.1_src/data/scripts/dock_solv.prm

>  <Rbt.Receptor>
prm/pocket_docking_5.prm

>  <SCORE>
-12.9343

>  <SCORE.INTER>
-3.30944

>  <SCORE.INTER.CONST>
1

>  <SCORE.INTER.POLAR>
0

>  <SCORE.INTER.ROT>
10

>  <SCORE.INTER.SOLV>
13.4047

>  <SCORE.INTER.VDW>
-16.9412

>  <SCORE.INTER.norm>
-0.082736

>  <SCORE.INTRA>
-9.6249

>  <SCORE.INTRA.DIHEDRAL>
-25.5734

>  <SCORE.INTRA.DIHEDRAL.0>
28.2802

>  <SCORE.INTRA.POLAR>
0

>  <SCORE.INTRA.POLAR.0>
0

>  <SCORE.INTRA.REPUL>
0

>  <SCORE.INTRA.REPUL.0>
0

>  <SCORE.INTRA.SOLV>
0.737853

>  <SCORE.INTRA.SOLV.lig_0>
-101.981

>  <SCORE.INTRA.VDW>
2.79285

>  <SCORE.INTRA.VDW.0>
-5.72964

>  <SCORE.INTRA.norm>
-0.240623

>  <SCORE.RESTR>
0

>  <SCORE.RESTR.CAVITY>
0

>  <SCORE.RESTR.norm>
0

>  <SCORE.SYSTEM>
0

>  <SCORE.SYSTEM.CONST>
0

>  <SCORE.SYSTEM.DIHEDRAL>
0

>  <SCORE.SYSTEM.SOLV>
0

>  <SCORE.SYSTEM.norm>
0

>  <SCORE.heavy>
40

>  <SCORE.norm>
-0.323359

>  <RMSD>
7.965

$$$$
ligand
 OpenBabel11021811513D
libRbt.so/2013.1/901 2013/11/27
 40 42  0  0  0  0  0  0  0  0999 V2000
   -3.7273   -9.2906   17.5094 C   0  0  2  0  0  0  0  0  0  0  0  0
   -2.6109   -9.2254   16.6081 O   0  0  0  0  0  0  0  0  0  0  0  0
   -3.8548  -10.7324   18.1295 C   0  0  1  0  0  0  0  0  0  0  0  0
   -4.2097  -11.7919   17.0458 C   0  0  2  0  0  0  0  0  0  0  0  0
   -5.5715  -11.3771   16.4043 C   0  0  2  0  0  0  0  0  0  0  0  0
   -5.9460  -12.3543   15.4096 O   0  0  0  0  0  0  0  0  0  0  0  0
   -5.4017   -9.9381   15.7471 C   0  0  2  0  0  0  0  0  0  0  0  0
   -5.0026   -8.9424   16.8052 O   0  0  0  0  0  0  0  0  0  0  0  0
   -6.6882   -9.4327   15.1087 C   0  0  0  0  0  0  0  0  0  0  0  0
   -7.7806   -9.2795   16.1205 N   0  0  0  0  0  0  0  0  0  0  0  0
    1.5544   -7.9967   17.2945 C   0  0  2  0  0  0  0  0  0  0  0  0
    2.9078   -8.0087   17.7989 N   0  0  0  0  0  0  0  0  0  0  0  0
    0.5390   -7.9190   18.5052 C   0  0  0  0  0  0  0  0  0  0  0  0
   -0.9602   -7.9099   17.9639 C   0  0  2  0  0  0  0  0  0  0  0  0
   -1.9124   -7.8202   19.1018 N   0  0  0  0  0  0  0  0  0  0  0  0
   -1.2146   -9.2312   17.1000 C   0  0  2  0  0  0  0  0  0  0  0  0
   -0.1730   -9.2642   15.9017 C   0  0  2  0  0  0  0  0  0  0  0  0
   -0.3949  -10.4407   15.1207 O   0  0  0  0  0  0  0  0  0  0  0  0
    1.3076   -9.2688   16.4524 C   0  0  1  0  0  0  0  0  0  0  0  0
    2.2451   -9.2778   15.3471 O   0  0  0  0  0  0  0  0  0  0  0  0
    3.3079  -10.1581   15.2041 C   0  0  2  0  0  0  0  0  0  0  0  0
    4.1473   -9.6869   13.9638 C   0  0  2  0  0  0  0  0  0  0  0  0
    4.5710   -8.3757   14.1545 O   0  0  0  0  0  0  0  0  0  0  0  0
    3.3322   -9.8352   12.6091 C   0  0  1  0  0  0  0  0  0  0  0  0
    4.1541   -9.3931   11.4404 N   0  0  0  0  0  0  0  0  0  0  0  0
    2.8828  -11.3529   12.4489 C   0  0  2  0  0  0  0  0  0  0  0  0
    2.1522  -11.5414   11.2307 O   0  0  0  0  0  0  0  0  0  0  0  0
    2.0183  -11.7443   13.7092 C   0  0  2  0  0  0  0  0  0  0  0  0
    2.8112  -11.5421   14.9933 O   0  0  0  0  0  0  0  0  0  0  0  0
    1.5703  -13.1846   13.6373 C   0  0  0  0  0  0  0  0  0  0  0  0
    2.6730  -14.1102   13.6327 O   0  0  0  0  0  0  0  0  0  0  0  0
   -2.5938  -11.0634   18.7809 O   0  0  0  0  0  0  0  0  0  0  0  0
   -4.3206  -13.0246   17.6422 O   0  0  0  0  0  0  0  0  0  0  0  0
    3.3749   -6.8858   18.5786 C   0  0  0  0  0  0  0  0  0  0  0  0
    2.8101   -5.7581   18.4589 O   0  0  0  0  0  0  0  0  0  0  0  0
    4.5774   -7.1173   19.5444 C   0  0  2  0  0  0  0  0  0  0  0  0
    4.0636  -10.7648   20.8088 N   0  0  0  0  0  0  0  0  0  0  0  0
    4.2897   -8.2988   20.5215 C   0  0  0  0  0  0  0  0  0  0  0  0
    4.3426   -9.6769   19.8410 C   0  0  0  0  0  0  0  0  0  0  0  0
    4.8088   -6.1119   20.2885 O   0  0  0  0  0  0  0  0  0  0  0  0
  1  2  1  6  0  0  0
  1  3  1  0  0  0  0
  1  8  1  0  0  0  0
  3  4  1  0  0  0  0
  3 32  1  6  0  0  0
  4  5  1  0  0  0  0
  4 33  1  1  0  0  0
  5  6  1  6  0  0  0
  5  7  1  0  0  0  0
  7  8  1  0  0  0  0
  7  9  1  1  0  0  0
  9 10  1  0  0  0  0
 11 12  1  1  0  0  0
 11 13  1  0  0  0  0
 11 19  1  0  0  0  0
 12 34  1  0  0  0  0
 13 14  1  0  0  0  0
 14 15  1  1  0  0  0
 14 16  1  0  0  0  0
 16  2  1  6  0  0  0
 16 17  1  0  0  0  0
 17 18  1  1  0  0  0
 17 19  1  0  0  0  0
 19 20  1  6  0  0  0
 21 20  1  6  0  0  0
 21 22  1  0  0  0  0
 21 29  1  0  0  0  0
 22 23  1  1  0  0  0
 22 24  1  0  0  0  0
 24 25  1  6  0  0  0
 24 26  1  0  0  0  0
 26 27  1  6  0  0  0
 26 28  1  0  0  0  0
 28 29  1  0  0  0  0
 28 30  1  6  0  0  0
 30 31  1  0  0  0  0
 34 35  2  0  0  0  0
 36 34  1  6  0  0  0
 36 38  1  0  0  0  0
 36 40  1  0  0  0  0
 37 39  1  0  0  0  0
 38 39  1  0  0  0  0
M  END
>  <CHROM.1>
-72.28500570,-64.30444145,61.86022525,-60.48525334,110.62967604,-173.12435015
62.11721681,-54.60441922,72.63715945,179.97802495,0.19501061,-9.75493611
16.40904081,3.05250275,-0.14814307,-2.10312802

>  <Name>
ligand

>  <RI>
0

>  <Rbt.Current_Directory>
/home/itssahil/PROJECTS/Mol_Feturizer/New_Systems/rnas/4P20

>  <Rbt.Executable>
rbdock ($Id: //depot/dev/client3/rdock/2013.1/src/exe/rbdock.cxx#4 $)

>  <Rbt.Library>
libRbt.so (2013.1, Build901 2013/11/27)

>  <Rbt.Parameter_File>
/export/apps/rDock/src/rDock_2013.1_src/data/scripts/dock_solv.prm

>  <Rbt.Receptor>
prm/pocket_docking_3.prm

>  <SCORE>
-9.97997

>  <SCORE.INTER>
-2.6621

>  <SCORE.INTER.CONST>
1

>  <SCORE.INTER.POLAR>
0

>  <SCORE.INTER.ROT>
10

>  <SCORE.INTER.SOLV>
15.094

>  <SCORE.INTER.VDW>
-17.0727

>  <SCORE.INTER.norm>
-0.0665524

>  <SCORE.INTRA>
-7.31787

>  <SCORE.INTRA.DIHEDRAL>
-19.0467

>  <SCORE.INTRA.DIHEDRAL.0>
28.2802

>  <SCORE.INTRA.POLAR>
0

>  <SCORE.INTRA.POLAR.0>
0

>  <SCORE.INTRA.REPUL>
0

>  <SCORE.INTRA.REPUL.0>
0

>  <SCORE.INTRA.SOLV>
1.77931

>  <SCORE.INTRA.SOLV.lig_0>
-101.981

>  <SCORE.INTRA.VDW>
1.3158

>  <SCORE.INTRA.VDW.0>
-5.72964

>  <SCORE.INTRA.norm>
-0.182947

>  <SCORE.RESTR>
0

>  <SCORE.RESTR.CAVITY>
0

>  <SCORE.RESTR.norm>
0

>  <SCORE.SYSTEM>
0

>  <SCORE.SYSTEM.CONST>
0

>  <SCORE.SYSTEM.DIHEDRAL>
0

>  <SCORE.SYSTEM.SOLV>
0

>  <SCORE.SYSTEM.norm>
0

>  <SCORE.heavy>
40

>  <SCORE.norm>
-0.249499

>  <RMSD>
7.978

$$$$
ligand
 OpenBabel11021811513D
libRbt.so/2013.1/901 2013/11/27
 40 42  0  0  0  0  0  0  0  0999 V2000
   -4.0406   -9.6558   15.9144 C   0  0  2  0  0  0  0  0  0  0  0  0
   -3.2698   -8.8728   16.8394 O   0  0  0  0  0  0  0  0  0  0  0  0
   -5.5115   -9.1032   15.8125 C   0  0  1  0  0  0  0  0  0  0  0  0
   -6.2818   -9.2766   17.1539 C   0  0  2  0  0  0  0  0  0  0  0  0
   -6.3189  -10.8018   17.4865 C   0  0  2  0  0  0  0  0  0  0  0  0
   -7.0504  -11.0033   18.7148 O   0  0  0  0  0  0  0  0  0  0  0  0
   -4.8224  -11.3234   17.6278 C   0  0  2  0  0  0  0  0  0  0  0  0
   -4.0818  -11.0924   16.3361 O   0  0  0  0  0  0  0  0  0  0  0  0
   -4.7503  -12.8132   17.9336 C   0  0  0  0  0  0  0  0  0  0  0  0
   -5.4182  -13.6259   16.8687 N   0  0  0  0  0  0  0  0  0  0  0  0
    1.1257   -8.9699   16.8610 C   0  0  2  0  0  0  0  0  0  0  0  0
    2.4740   -9.3260   17.2374 N   0  0  0  0  0  0  0  0  0  0  0  0
    0.3825   -8.3268   18.1007 C   0  0  0  0  0  0  0  0  0  0  0  0
   -1.1096   -7.9327   17.7016 C   0  0  2  0  0  0  0  0  0  0  0  0
   -1.8011   -7.3137   18.8626 N   0  0  0  0  0  0  0  0  0  0  0  0
   -1.8813   -9.2398   17.1987 C   0  0  2  0  0  0  0  0  0  0  0  0
   -1.0979   -9.8477   15.9582 C   0  0  2  0  0  0  0  0  0  0  0  0
   -1.7826  -11.0153   15.4987 O   0  0  0  0  0  0  0  0  0  0  0  0
    0.3793  -10.2297   16.3669 C   0  0  1  0  0  0  0  0  0  0  0  0
    1.0865  -10.7630   15.2197 O   0  0  0  0  0  0  0  0  0  0  0  0
    1.0331  -10.2460   13.9333 C   0  0  2  0  0  0  0  0  0  0  0  0
    1.0958  -11.4565   12.9353 C   0  0  2  0  0  0  0  0  0  0  0  0
    0.0475  -12.3334   13.1948 O   0  0  0  0  0  0  0  0  0  0  0  0
    2.4965  -12.2017   12.9991 C   0  0  1  0  0  0  0  0  0  0  0  0
    2.5389  -13.3423   12.0326 N   0  0  0  0  0  0  0  0  0  0  0  0
    3.6480  -11.1485   12.6893 C   0  0  2  0  0  0  0  0  0  0  0  0
    4.9352  -11.7774   12.7225 O   0  0  0  0  0  0  0  0  0  0  0  0
    3.5452   -9.9836   13.7483 C   0  0  2  0  0  0  0  0  0  0  0  0
    2.1736   -9.3244   13.6961 O   0  0  0  0  0  0  0  0  0  0  0  0
    4.5994   -8.9302   13.5043 C   0  0  0  0  0  0  0  0  0  0  0  0
    4.5411   -7.8538   14.4587 O   0  0  0  0  0  0  0  0  0  0  0  0
   -5.4469   -7.6975   15.4329 O   0  0  0  0  0  0  0  0  0  0  0  0
   -7.5584   -8.7911   17.0048 O   0  0  0  0  0  0  0  0  0  0  0  0
    3.3723   -8.2889   17.6894 C   0  0  0  0  0  0  0  0  0  0  0  0
    3.1615   -7.0848   17.3569 O   0  0  0  0  0  0  0  0  0  0  0  0
    4.5842   -8.7086   18.5769 C   0  0  2  0  0  0  0  0  0  0  0  0
    4.2934   -6.9544   21.1190 N   0  0  0  0  0  0  0  0  0  0  0  0
    4.1091   -9.1692   19.9896 C   0  0  0  0  0  0  0  0  0  0  0  0
    3.3768   -8.0673   20.7736 C   0  0  0  0  0  0  0  0  0  0  0  0
    5.3922   -7.7491   18.7883 O   0  0  0  0  0  0  0  0  0  0  0  0
  1  2  1  1  0  0  0
  1  3  1  0  0  0  0
  1  8  1  0  0  0  0
  3  4  1  0  0  0  0
  3 32  1  1  0  0  0
  4  5  1  0  0  0  0
  4 33  1  6  0  0  0
  5  6  1  1  0  0  0
  5  7  1  0  0  0  0
  7  8  1  0  0  0  0
  7  9  1  6  0  0  0
  9 10  1  0  0  0  0
 11 12  1  1  0  0  0
 11 13  1  0  0  0  0
 11 19  1  0  0  0  0
 12 34  1  0  0  0  0
 13 14  1  0  0  0  0
 14 15  1  1  0  0  0
 14 16  1  0  0  0  0
 16  2  1  6  0  0  0
 16 17  1  0  0  0  0
 17 18  1  1  0  0  0
 17 19  1  0  0  0  0
 19 20  1  6  0  0  0
 21 20  1  1  0  0  0
 21 22  1  0  0  0  0
 21 29  1  0  0  0  0
 22 23  1  1  0  0  0
 22 24  1  0  0  0  0
 24 25  1  6  0  0  0
 24 26  1  0  0  0  0
 26 27  1  1  0  0  0
 26 28  1  0  0  0  0
 28 29  1  0  0  0  0
 28 30  1  6  0  0  0
 30 31  1  0  0  0  0
 34 35  2  0  0  0  0
 36 34  1  6  0  0  0
 36 38  1  0  0  0  0
 36 40  1  0  0  0  0
 37 39  1  0  0  0  0
 38 39  1  0  0  0  0
M  END
>  <CHROM.1>
175.33901672,156.13641514,58.75884141,-60.39683660,-77.14527498,-144.36615839
-179.62542658,-69.74240431,-61.12770319,-66.44467628,-0.20919352,-9.78348133
16.29413822,3.09106684,0.14631388,1.02144677

>  <Name>
ligand

>  <RI>
0

>  <Rbt.Current_Directory>
/home/itssahil/PROJECTS/Mol_Feturizer/New_Systems/rnas/4P20

>  <Rbt.Executable>
rbdock ($Id: //depot/dev/client3/rdock/2013.1/src/exe/rbdock.cxx#4 $)

>  <Rbt.Library>
libRbt.so (2013.1, Build901 2013/11/27)

>  <Rbt.Parameter_File>
/export/apps/rDock/src/rDock_2013.1_src/data/scripts/dock_solv.prm

>  <Rbt.Receptor>
prm/pocket_docking_3.prm

>  <SCORE>
-3.47755

>  <SCORE.INTER>
0.955642

>  <SCORE.INTER.CONST>
1

>  <SCORE.INTER.POLAR>
0

>  <SCORE.INTER.ROT>
10

>  <SCORE.INTER.SOLV>
21.0298

>  <SCORE.INTER.VDW>
-16.6395

>  <SCORE.INTER.norm>
0.0238911

>  <SCORE.INTRA>
-4.69162

>  <SCORE.INTRA.DIHEDRAL>
-18.6173

>  <SCORE.INTRA.DIHEDRAL.0>
28.2802

>  <SCORE.INTRA.POLAR>
0

>  <SCORE.INTRA.POLAR.0>
0

>  <SCORE.INTRA.REPUL>
0

>  <SCORE.INTRA.REPUL.0>
0

>  <SCORE.INTRA.SOLV>
3.07344

>  <SCORE.INTRA.SOLV.lig_0>
-101.981

>  <SCORE.INTRA.VDW>
3.08029

>  <SCORE.INTRA.VDW.0>
-5.72964

>  <SCORE.INTRA.norm>
-0.117291

>  <SCORE.RESTR>
0.258427

>  <SCORE.RESTR.CAVITY>
0.258427

>  <SCORE.RESTR.norm>
0.00646067

>  <SCORE.SYSTEM>
0

>  <SCORE.SYSTEM.CONST>
0

>  <SCORE.SYSTEM.DIHEDRAL>
0

>  <SCORE.SYSTEM.SOLV>
0

>  <SCORE.SYSTEM.norm>
0

>  <SCORE.heavy>
40

>  <SCORE.norm>
-0.0869388

>  <RMSD>
7.982

$$$$
ligand
 OpenBabel11021811513D
libRbt.so/2013.1/901 2013/11/27
 40 42  0  0  0  0  0  0  0  0999 V2000
   -3.4287   -8.7808   18.0114 C   0  0  2  0  0  0  0  0  0  0  0  0
   -2.2869   -8.3591   17.2490 O   0  0  0  0  0  0  0  0  0  0  0  0
   -3.5536  -10.3504   17.9994 C   0  0  1  0  0  0  0  0  0  0  0  0
   -3.8603  -10.8889   16.5715 C   0  0  2  0  0  0  0  0  0  0  0  0
   -5.2082  -10.2542   16.1040 C   0  0  2  0  0  0  0  0  0  0  0  0
   -5.5383  -10.7528   14.7899 O   0  0  0  0  0  0  0  0  0  0  0  0
   -5.0398   -8.6722   16.0825 C   0  0  2  0  0  0  0  0  0  0  0  0
   -4.6873   -8.1820   17.4629 O   0  0  0  0  0  0  0  0  0  0  0  0
   -6.3139   -7.9556   15.6565 C   0  0  0  0  0  0  0  0  0  0  0  0
   -6.1831   -6.4712   15.7978 N   0  0  0  0  0  0  0  0  0  0  0  0
    1.8667   -7.4384   18.3583 C   0  0  2  0  0  0  0  0  0  0  0  0
    3.2026   -7.6104   18.8800 N   0  0  0  0  0  0  0  0  0  0  0  0
    0.8129   -7.6666   19.5161 C   0  0  0  0  0  0  0  0  0  0  0  0
   -0.6675   -7.4846   18.9538 C   0  0  2  0  0  0  0  0  0  0  0  0
   -1.6555   -7.6831   20.0465 N   0  0  0  0  0  0  0  0  0  0  0  0
   -0.9076   -8.5227   17.7615 C   0  0  2  0  0  0  0  0  0  0  0  0
    0.1724   -8.2552   16.6285 C   0  0  2  0  0  0  0  0  0  0  0  0
   -0.0364   -9.1764   15.5557 O   0  0  0  0  0  0  0  0  0  0  0  0
    1.6339   -8.4349   17.2004 C   0  0  1  0  0  0  0  0  0  0  0  0
    2.6071   -8.1671   16.1603 O   0  0  0  0  0  0  0  0  0  0  0  0
    3.9486   -8.5177   16.2078 C   0  0  2  0  0  0  0  0  0  0  0  0
    4.5537   -8.2633   14.7815 C   0  0  2  0  0  0  0  0  0  0  0  0
    4.3694   -6.9316   14.4242 O   0  0  0  0  0  0  0  0  0  0  0  0
    3.9327   -9.2402   13.6945 C   0  0  1  0  0  0  0  0  0  0  0  0
    4.5315   -8.9894   12.3471 N   0  0  0  0  0  0  0  0  0  0  0  0
    4.1808  -10.7417   14.1584 C   0  0  2  0  0  0  0  0  0  0  0  0
    3.6480  -11.6649   13.2006 O   0  0  0  0  0  0  0  0  0  0  0  0
    3.5183  -10.9326   15.5774 C   0  0  2  0  0  0  0  0  0  0  0  0
    4.0989   -9.9472   16.5827 O   0  0  0  0  0  0  0  0  0  0  0  0
    3.7312  -12.3353   16.0945 C   0  0  0  0  0  0  0  0  0  0  0  0
    5.1198  -12.6383   16.3244 O   0  0  0  0  0  0  0  0  0  0  0  0
   -2.3080  -10.9123   18.5060 O   0  0  0  0  0  0  0  0  0  0  0  0
   -3.9710  -12.2574   16.6218 O   0  0  0  0  0  0  0  0  0  0  0  0
    3.8030   -6.5362   19.6367 C   0  0  0  0  0  0  0  0  0  0  0  0
    3.3891   -5.3490   19.4811 O   0  0  0  0  0  0  0  0  0  0  0  0
    4.9567   -6.8941   20.6232 C   0  0  2  0  0  0  0  0  0  0  0  0
    5.4828  -10.7251   20.1616 N   0  0  0  0  0  0  0  0  0  0  0  0
    4.9584   -8.4193   20.9510 C   0  0  0  0  0  0  0  0  0  0  0  0
    5.5329   -9.2841   19.8165 C   0  0  0  0  0  0  0  0  0  0  0  0
    4.8411   -6.3073   21.7459 O   0  0  0  0  0  0  0  0  0  0  0  0
  1  2  1  6  0  0  0
  1  3  1  0  0  0  0
  1  8  1  0  0  0  0
  3  4  1  0  0  0  0
  3 32  1  6  0  0  0
  4  5  1  0  0  0  0
  4 33  1  1  0  0  0
  5  6  1  6  0  0  0
  5  7  1  0  0  0  0
  7  8  1  0  0  0  0
  7  9  1  1  0  0  0
  9 10  1  0  0  0  0
 11 12  1  1  0  0  0
 11 13  1  0  0  0  0
 11 19  1  0  0  0  0
 12 34  1  0  0  0  0
 13 14  1  0  0  0  0
 14 15  1  1  0  0  0
 14 16  1  0  0  0  0
 16  2  1  6  0  0  0
 16 17  1  0  0  0  0
 17 18  1  6  0  0  0
 17 19  1  0  0  0  0
 19 20  1  6  0  0  0
 21 20  1  6  0  0  0
 21 22  1  0  0  0  0
 21 29  1  0  0  0  0
 22 23  1  6  0  0  0
 22 24  1  0  0  0  0
 24 25  1  6  0  0  0
 24 26  1  0  0  0  0
 26 27  1  6  0  0  0
 26 28  1  0  0  0  0
 28 29  1  0  0  0  0
 28 30  1  1  0  0  0
 30 31  1  0  0  0  0
 34 35  2  0  0  0  0
 36 34  1  6  0  0  0
 36 38  1  0  0  0  0
 36 40  1  0  0  0  0
 37 39  1  0  0  0  0
 38 39  1  0  0  0  0
M  END
>  <CHROM.1>
-74.12086999,-71.38408557,173.31007630,-78.70168538,75.65256992,170.16835184
64.12632041,-18.12844578,76.32614298,-178.62293767,0.82792151,-8.97258476
17.12755615,3.03052420,0.01398438,-2.11504559

>  <Name>
ligand

>  <RI>
0

>  <Rbt.Current_Directory>
/home/itssahil/PROJECTS/Mol_Feturizer/New_Systems/rnas/4P20

>  <Rbt.Executable>
rbdock ($Id: //depot/dev/client3/rdock/2013.1/src/exe/rbdock.cxx#4 $)

>  <Rbt.Library>
libRbt.so (2013.1, Build901 2013/11/27)

>  <Rbt.Parameter_File>
/export/apps/rDock/src/rDock_2013.1_src/data/scripts/dock_solv.prm

>  <Rbt.Receptor>
prm/pocket_docking_4.prm

>  <SCORE>
-13.1457

>  <SCORE.INTER>
-3.69359

>  <SCORE.INTER.CONST>
1

>  <SCORE.INTER.POLAR>
0

>  <SCORE.INTER.ROT>
10

>  <SCORE.INTER.SOLV>
21.4134

>  <SCORE.INTER.VDW>
-19.8668

>  <SCORE.INTER.norm>
-0.0923396

>  <SCORE.INTRA>
-9.45216

>  <SCORE.INTRA.DIHEDRAL>
-21.6159

>  <SCORE.INTRA.DIHEDRAL.0>
28.2802

>  <SCORE.INTRA.POLAR>
0

>  <SCORE.INTRA.POLAR.0>
0

>  <SCORE.INTRA.REPUL>
0

>  <SCORE.INTRA.REPUL.0>
0

>  <SCORE.INTRA.SOLV>
0.462218

>  <SCORE.INTRA.SOLV.lig_0>
-101.981

>  <SCORE.INTRA.VDW>
1.12471

>  <SCORE.INTRA.VDW.0>
-5.72964

>  <SCORE.INTRA.norm>
-0.236304

>  <SCORE.RESTR>
0

>  <SCORE.RESTR.CAVITY>
0

>  <SCORE.RESTR.norm>
0

>  <SCORE.SYSTEM>
0

>  <SCORE.SYSTEM.CONST>
0

>  <SCORE.SYSTEM.DIHEDRAL>
0

>  <SCORE.SYSTEM.SOLV>
0

>  <SCORE.SYSTEM.norm>
0

>  <SCORE.heavy>
40

>  <SCORE.norm>
-0.328644

>  <RMSD>
7.982

$$$$
ligand
 OpenBabel11021811513D
libRbt.so/2013.1/901 2013/11/27
 40 42  0  0  0  0  0  0  0  0999 V2000
    3.4718   -1.1291   22.7984 C   0  0  2  0  0  0  0  0  0  0  0  0
    4.1777   -2.0994   22.0090 O   0  0  0  0  0  0  0  0  0  0  0  0
    2.0206   -1.6389   23.1349 C   0  0  1  0  0  0  0  0  0  0  0  0
    1.1453   -1.7601   21.8534 C   0  0  2  0  0  0  0  0  0  0  0  0
    1.0629   -0.3446   21.1992 C   0  0  2  0  0  0  0  0  0  0  0  0
    0.2349   -0.4138   20.0185 O   0  0  0  0  0  0  0  0  0  0  0  0
    2.5370    0.1263   20.8291 C   0  0  2  0  0  0  0  0  0  0  0  0
    3.3793    0.1804   22.0771 O   0  0  0  0  0  0  0  0  0  0  0  0
    2.5659    1.5124   20.1999 C   0  0  0  0  0  0  0  0  0  0  0  0
    2.0104    2.5484   21.1266 N   0  0  0  0  0  0  0  0  0  0  0  0
    4.8833   -6.4378   21.9083 C   0  0  2  0  0  0  0  0  0  0  0  0
    4.6810   -7.8516   22.1245 N   0  0  0  0  0  0  0  0  0  0  0  0
    4.9654   -5.6956   23.3030 C   0  0  0  0  0  0  0  0  0  0  0  0
    5.1839   -4.1325   23.0803 C   0  0  2  0  0  0  0  0  0  0  0  0
    5.2774   -3.4390   24.3917 N   0  0  0  0  0  0  0  0  0  0  0  0
    3.9779   -3.5532   22.2046 C   0  0  2  0  0  0  0  0  0  0  0  0
    3.9361   -4.3289   20.8196 C   0  0  2  0  0  0  0  0  0  0  0  0
    2.8628   -3.8153   20.0274 O   0  0  0  0  0  0  0  0  0  0  0  0
    3.7233   -5.8763   21.0555 C   0  0  1  0  0  0  0  0  0  0  0  0
    3.7085   -6.5719   19.7841 O   0  0  0  0  0  0  0  0  0  0  0  0
    2.7810   -6.3727   18.7717 C   0  0  2  0  0  0  0  0  0  0  0  0
    1.3977   -6.9073   19.2872 C   0  0  2  0  0  0  0  0  0  0  0  0
    1.0472   -6.2471   20.4605 O   0  0  0  0  0  0  0  0  0  0  0  0
    1.4147   -8.4811   19.4975 C   0  0  1  0  0  0  0  0  0  0  0  0
    0.0849   -8.9702   19.9762 N   0  0  0  0  0  0  0  0  0  0  0  0
    1.8161   -9.1741   18.1228 C   0  0  2  0  0  0  0  0  0  0  0  0
    1.8329  -10.6006   18.2579 O   0  0  0  0  0  0  0  0  0  0  0  0
    3.2260   -8.6170   17.6859 C   0  0  2  0  0  0  0  0  0  0  0  0
    3.1885   -7.1015   17.5431 O   0  0  0  0  0  0  0  0  0  0  0  0
    3.6664   -9.2174   16.3721 C   0  0  0  0  0  0  0  0  0  0  0  0
    2.7311   -8.9690   15.3061 O   0  0  0  0  0  0  0  0  0  0  0  0
    2.1326   -2.9275   23.8066 O   0  0  0  0  0  0  0  0  0  0  0  0
   -0.1094   -2.1950   22.2059 O   0  0  0  0  0  0  0  0  0  0  0  0
    5.3837   -8.7960   21.2871 C   0  0  0  0  0  0  0  0  0  0  0  0
    5.7993   -8.4372   20.1454 O   0  0  0  0  0  0  0  0  0  0  0  0
    5.5968  -10.2404   21.8355 C   0  0  2  0  0  0  0  0  0  0  0  0
    6.8580  -12.8818   22.5433 N   0  0  0  0  0  0  0  0  0  0  0  0
    6.4711  -11.0856   20.8584 C   0  0  0  0  0  0  0  0  0  0  0  0
    6.4277  -12.5941   21.1540 C   0  0  0  0  0  0  0  0  0  0  0  0
    4.5065  -10.8844   21.9565 O   0  0  0  0  0  0  0  0  0  0  0  0
  1  2  1  6  0  0  0
  1  3  1  0  0  0  0
  1  8  1  0  0  0  0
  3  4  1  0  0  0  0
  3 32  1  6  0  0  0
  4  5  1  0  0  0  0
  4 33  1  1  0  0  0
  5  6  1  6  0  0  0
  5  7  1  0  0  0  0
  7  8  1  0  0  0  0
  7  9  1  1  0  0  0
  9 10  1  0  0  0  0
 11 12  1  1  0  0  0
 11 13  1  0  0  0  0
 11 19  1  0  0  0  0
 12 34  1  0  0  0  0
 13 14  1  0  0  0  0
 14 15  1  1  0  0  0
 14 16  1  0  0  0  0
 16  2  1  6  0  0  0
 16 17  1  0  0  0  0
 17 18  1  6  0  0  0
 17 19  1  0  0  0  0
 19 20  1  6  0  0  0
 21 20  1  1  0  0  0
 21 22  1  0  0  0  0
 21 29  1  0  0  0  0
 22 23  1  1  0  0  0
 22 24  1  0  0  0  0
 24 25  1  6  0  0  0
 24 26  1  0  0  0  0
 26 27  1  1  0  0  0
 26 28  1  0  0  0  0
 28 29  1  0  0  0  0
 28 30  1  6  0  0  0
 30 31  1  0  0  0  0
 34 35  2  0  0  0  0
 36 34  1  6  0  0  0
 36 38  1  0  0  0  0
 36 40  1  0  0  0  0
 37 39  1  0  0  0  0
 38 39  1  0  0  0  0
M  END
>  <CHROM.1>
-34.73123638,-100.25520182,60.44924111,-139.88139648,177.70898013,-68.16934798
58.13528305,-175.27635097,-165.58430854,-57.32064162,3.27645487,-5.63322572
20.74795887,-1.90597319,0.87376639,-2.69050770

>  <Name>
ligand

>  <RI>
0

>  <Rbt.Current_Directory>
/home/itssahil/PROJECTS/Mol_Feturizer/New_Systems/rnas/4P20

>  <Rbt.Executable>
rbdock ($Id: //depot/dev/client3/rdock/2013.1/src/exe/rbdock.cxx#4 $)

>  <Rbt.Library>
libRbt.so (2013.1, Build901 2013/11/27)

>  <Rbt.Parameter_File>
/export/apps/rDock/src/rDock_2013.1_src/data/scripts/dock_solv.prm

>  <Rbt.Receptor>
prm/pocket_docking_7.prm

>  <SCORE>
-15.8339

>  <SCORE.INTER>
-13.2735

>  <SCORE.INTER.CONST>
1

>  <SCORE.INTER.POLAR>
0

>  <SCORE.INTER.ROT>
10

>  <SCORE.INTER.SOLV>
19.0957

>  <SCORE.INTER.VDW>
-25.4809

>  <SCORE.INTER.norm>
-0.331837

>  <SCORE.INTRA>
-2.56041

>  <SCORE.INTRA.DIHEDRAL>
-17.3024

>  <SCORE.INTRA.DIHEDRAL.0>
28.2802

>  <SCORE.INTRA.POLAR>
0

>  <SCORE.INTRA.POLAR.0>
0

>  <SCORE.INTRA.REPUL>
0

>  <SCORE.INTRA.REPUL.0>
0

>  <SCORE.INTRA.SOLV>
4.25746

>  <SCORE.INTRA.SOLV.lig_0>
-101.981

>  <SCORE.INTRA.VDW>
3.96205

>  <SCORE.INTRA.VDW.0>
-5.72964

>  <SCORE.INTRA.norm>
-0.0640103

>  <SCORE.RESTR>
0

>  <SCORE.RESTR.CAVITY>
0

>  <SCORE.RESTR.norm>
0

>  <SCORE.SYSTEM>
0

>  <SCORE.SYSTEM.CONST>
0

>  <SCORE.SYSTEM.DIHEDRAL>
0

>  <SCORE.SYSTEM.SOLV>
0

>  <SCORE.SYSTEM.norm>
0

>  <SCORE.heavy>
40

>  <SCORE.norm>
-0.395848

>  <RMSD>
7.996

$$$$
ligand
 OpenBabel11021811513D
libRbt.so/2013.1/901 2013/11/27
 40 42  0  0  0  0  0  0  0  0999 V2000
   -3.9651   -7.7245   18.2505 C   0  0  2  0  0  0  0  0  0  0  0  0
   -3.0061   -8.1902   17.2879 O   0  0  0  0  0  0  0  0  0  0  0  0
   -4.6602   -8.9394   18.9718 C   0  0  1  0  0  0  0  0  0  0  0  0
   -5.5252   -9.7734   17.9823 C   0  0  2  0  0  0  0  0  0  0  0  0
   -6.6149   -8.8254   17.3889 C   0  0  2  0  0  0  0  0  0  0  0  0
   -7.4545   -9.5736   16.4836 O   0  0  0  0  0  0  0  0  0  0  0  0
   -5.8858   -7.6329   16.6286 C   0  0  2  0  0  0  0  0  0  0  0  0
   -5.0111   -6.8766   17.5945 O   0  0  0  0  0  0  0  0  0  0  0  0
   -6.8682   -6.6367   16.0281 C   0  0  0  0  0  0  0  0  0  0  0  0
   -7.7607   -7.2862   15.0171 N   0  0  0  0  0  0  0  0  0  0  0  0
    1.3314   -8.8218   17.6291 C   0  0  2  0  0  0  0  0  0  0  0  0
    2.5925   -9.3799   18.0587 N   0  0  0  0  0  0  0  0  0  0  0  0
    0.5563   -8.2407   18.8798 C   0  0  0  0  0  0  0  0  0  0  0  0
   -0.8408   -7.6250   18.4216 C   0  0  2  0  0  0  0  0  0  0  0  0
   -1.5603   -7.0648   19.5954 N   0  0  0  0  0  0  0  0  0  0  0  0
   -1.7050   -8.7620   17.7022 C   0  0  2  0  0  0  0  0  0  0  0  0
   -0.8861   -9.3131   16.4582 C   0  0  2  0  0  0  0  0  0  0  0  0
   -1.6525  -10.3281   15.8058 O   0  0  0  0  0  0  0  0  0  0  0  0
    0.4968   -9.9161   16.9263 C   0  0  1  0  0  0  0  0  0  0  0  0
    1.2402  -10.3952   15.7780 O   0  0  0  0  0  0  0  0  0  0  0  0
    2.3816  -11.1820   15.8330 C   0  0  2  0  0  0  0  0  0  0  0  0
    2.9016  -11.3625   14.3626 C   0  0  2  0  0  0  0  0  0  0  0  0
    3.1474  -10.1162   13.7955 O   0  0  0  0  0  0  0  0  0  0  0  0
    1.8880  -12.2057   13.4777 C   0  0  1  0  0  0  0  0  0  0  0  0
    2.4083  -12.3760   12.0859 N   0  0  0  0  0  0  0  0  0  0  0  0
    1.6544  -13.6161   14.1758 C   0  0  2  0  0  0  0  0  0  0  0  0
    0.7536  -14.4220   13.4060 O   0  0  0  0  0  0  0  0  0  0  0  0
    1.1014  -13.3578   15.6306 C   0  0  2  0  0  0  0  0  0  0  0  0
    2.0725  -12.5044   16.4351 O   0  0  0  0  0  0  0  0  0  0  0  0
    0.8732  -14.6569   16.3660 C   0  0  0  0  0  0  0  0  0  0  0  0
   -0.0960  -15.5005   15.7165 O   0  0  0  0  0  0  0  0  0  0  0  0
   -3.6236   -9.7675   19.5749 O   0  0  0  0  0  0  0  0  0  0  0  0
   -6.1162  -10.8089   18.6651 O   0  0  0  0  0  0  0  0  0  0  0  0
    3.7628   -8.5332   18.0791 C   0  0  0  0  0  0  0  0  0  0  0  0
    3.8048   -7.4998   17.3475 O   0  0  0  0  0  0  0  0  0  0  0  0
    4.9430   -8.9413   19.0135 C   0  0  2  0  0  0  0  0  0  0  0  0
    5.6758  -10.3596   21.5961 N   0  0  0  0  0  0  0  0  0  0  0  0
    4.7523   -8.3506   20.4447 C   0  0  0  0  0  0  0  0  0  0  0  0
    5.7718   -8.8860   21.4640 C   0  0  0  0  0  0  0  0  0  0  0  0
    6.0640   -8.4954   18.6103 O   0  0  0  0  0  0  0  0  0  0  0  0
  1  2  1  6  0  0  0
  1  3  1  0  0  0  0
  1  8  1  0  0  0  0
  3  4  1  0  0  0  0
  3 32  1  6  0  0  0
  4  5  1  0  0  0  0
  4 33  1  1  0  0  0
  5  6  1  6  0  0  0
  5  7  1  0  0  0  0
  7  8  1  0  0  0  0
  7  9  1  1  0  0  0
  9 10  1  0  0  0  0
 11 12  1  1  0  0  0
 11 13  1  0  0  0  0
 11 19  1  0  0  0  0
 12 34  1  0  0  0  0
 13 14  1  0  0  0  0
 14 15  1  1  0  0  0
 14 16  1  0  0  0  0
 16  2  1  6  0  0  0
 16 17  1  0  0  0  0
 17 18  1  1  0  0  0
 17 19  1  0  0  0  0
 19 20  1  6  0  0  0
 21 20  1  6  0  0  0
 21 22  1  0  0  0  0
 21 29  1  0  0  0  0
 22 23  1  6  0  0  0
 22 24  1  0  0  0  0
 24 25  1  6  0  0  0
 24 26  1  0  0  0  0
 26 27  1  6  0  0  0
 26 28  1  0  0  0  0
 28 29  1  0  0  0  0
 28 30  1  1  0  0  0
 30 31  1  0  0  0  0
 34 35  2  0  0  0  0
 36 34  1  6  0  0  0
 36 38  1  0  0  0  0
 36 40  1  0  0  0  0
 37 39  1  0  0  0  0
 38 39  1  0  0  0  0
M  END
>  <CHROM.1>
-73.78287064,-64.83177293,-61.01593749,-90.57354249,71.60391264,-175.70935976
-61.12444406,-87.79768356,171.52478902,-59.86129281,-0.34616208,-9.88249567
17.05933633,-2.99534683,0.15472604,-2.37106574

>  <Name>
ligand

>  <RI>
0

>  <Rbt.Current_Directory>
/home/itssahil/PROJECTS/Mol_Feturizer/New_Systems/rnas/4P20

>  <Rbt.Executable>
rbdock ($Id: //depot/dev/client3/rdock/2013.1/src/exe/rbdock.cxx#4 $)

>  <Rbt.Library>
libRbt.so (2013.1, Build901 2013/11/27)

>  <Rbt.Parameter_File>
/export/apps/rDock/src/rDock_2013.1_src/data/scripts/dock_solv.prm

>  <Rbt.Receptor>
prm/pocket_docking_5.prm

>  <SCORE>
-12.4682

>  <SCORE.INTER>
-3.63462

>  <SCORE.INTER.CONST>
1

>  <SCORE.INTER.POLAR>
0

>  <SCORE.INTER.ROT>
10

>  <SCORE.INTER.SOLV>
16.5242

>  <SCORE.INTER.VDW>
-18.1978

>  <SCORE.INTER.norm>
-0.0908655

>  <SCORE.INTRA>
-8.83362

>  <SCORE.INTRA.DIHEDRAL>
-24.1114

>  <SCORE.INTRA.DIHEDRAL.0>
28.2802

>  <SCORE.INTRA.POLAR>
0

>  <SCORE.INTRA.POLAR.0>
0

>  <SCORE.INTRA.REPUL>
0

>  <SCORE.INTRA.REPUL.0>
0

>  <SCORE.INTRA.SOLV>
2.4305

>  <SCORE.INTRA.SOLV.lig_0>
-101.981

>  <SCORE.INTRA.VDW>
2.00682

>  <SCORE.INTRA.VDW.0>
-5.72964

>  <SCORE.INTRA.norm>
-0.22084

>  <SCORE.RESTR>
0

>  <SCORE.RESTR.CAVITY>
0

>  <SCORE.RESTR.norm>
0

>  <SCORE.SYSTEM>
0

>  <SCORE.SYSTEM.CONST>
0

>  <SCORE.SYSTEM.DIHEDRAL>
0

>  <SCORE.SYSTEM.SOLV>
0

>  <SCORE.SYSTEM.norm>
0

>  <SCORE.heavy>
40

>  <SCORE.norm>
-0.311706

>  <RMSD>
7.997

$$$$
ligand
 OpenBabel11021811513D
libRbt.so/2013.1/901 2013/11/27
 40 42  0  0  0  0  0  0  0  0999 V2000
    2.0029  -12.6745   13.0477 C   0  0  2  0  0  0  0  0  0  0  0  0
    1.2629  -13.7245   13.6902 O   0  0  0  0  0  0  0  0  0  0  0  0
    3.0238  -13.2724   12.0086 C   0  0  1  0  0  0  0  0  0  0  0  0
    4.1316  -14.1097   12.7120 C   0  0  2  0  0  0  0  0  0  0  0  0
    4.8855  -13.1646   13.7003 C   0  0  2  0  0  0  0  0  0  0  0  0
    5.9402  -13.9031   14.3536 O   0  0  0  0  0  0  0  0  0  0  0  0
    3.8404  -12.6108   14.7645 C   0  0  2  0  0  0  0  0  0  0  0  0
    2.7482  -11.8536   14.0546 O   0  0  0  0  0  0  0  0  0  0  0  0
    4.4775  -11.6580   15.7667 C   0  0  0  0  0  0  0  0  0  0  0  0
    5.4673  -12.3618   16.6417 N   0  0  0  0  0  0  0  0  0  0  0  0
   -2.0225  -13.6126   16.6097 C   0  0  2  0  0  0  0  0  0  0  0  0
   -2.7291  -13.3961   17.8508 N   0  0  0  0  0  0  0  0  0  0  0  0
   -0.8438  -14.6415   16.8444 C   0  0  0  0  0  0  0  0  0  0  0  0
   -0.0512  -14.8870   15.4834 C   0  0  2  0  0  0  0  0  0  0  0  0
    1.0455  -15.8663   15.7019 N   0  0  0  0  0  0  0  0  0  0  0  0
    0.5178  -13.4917   14.9481 C   0  0  2  0  0  0  0  0  0  0  0  0
   -0.6996  -12.4955   14.7304 C   0  0  2  0  0  0  0  0  0  0  0  0
   -0.2013  -11.2456   14.2480 O   0  0  0  0  0  0  0  0  0  0  0  0
   -1.4780  -12.2648   16.0854 C   0  0  1  0  0  0  0  0  0  0  0  0
   -2.5973  -11.3708   15.8655 O   0  0  0  0  0  0  0  0  0  0  0  0
   -2.4983  -10.0153   15.5864 C   0  0  2  0  0  0  0  0  0  0  0  0
   -1.7593   -9.3375   16.7945 C   0  0  2  0  0  0  0  0  0  0  0  0
   -0.5141   -9.9307   16.9755 O   0  0  0  0  0  0  0  0  0  0  0  0
   -2.6236   -9.4004   18.1251 C   0  0  1  0  0  0  0  0  0  0  0  0
   -1.9071   -8.7387   19.2589 N   0  0  0  0  0  0  0  0  0  0  0  0
   -4.0278   -8.7035   17.8534 C   0  0  2  0  0  0  0  0  0  0  0  0
   -4.8423   -8.7233   19.0323 O   0  0  0  0  0  0  0  0  0  0  0  0
   -4.7253   -9.4560   16.6549 C   0  0  2  0  0  0  0  0  0  0  0  0
   -3.8484   -9.4212   15.4106 O   0  0  0  0  0  0  0  0  0  0  0  0
   -6.0614   -8.8347   16.3245 C   0  0  0  0  0  0  0  0  0  0  0  0
   -5.9452   -7.4706   15.8787 O   0  0  0  0  0  0  0  0  0  0  0  0
    2.2826  -14.0925   11.0588 O   0  0  0  0  0  0  0  0  0  0  0  0
    4.9986  -14.5949   11.7631 O   0  0  0  0  0  0  0  0  0  0  0  0
   -3.3349  -14.5250   18.5183 C   0  0  0  0  0  0  0  0  0  0  0  0
   -3.6306  -15.5635   17.8557 O   0  0  0  0  0  0  0  0  0  0  0  0
   -3.6061  -14.4083   20.0497 C   0  0  2  0  0  0  0  0  0  0  0  0
   -1.2358  -13.4930   22.9984 N   0  0  0  0  0  0  0  0  0  0  0  0
   -2.2820  -14.1516   20.8335 C   0  0  0  0  0  0  0  0  0  0  0  0
   -2.5069  -13.8524   22.3251 C   0  0  0  0  0  0  0  0  0  0  0  0
   -4.0902  -15.4755   20.5444 O   0  0  0  0  0  0  0  0  0  0  0  0
  1  2  1  1  0  0  0
  1  3  1  0  0  0  0
  1  8  1  0  0  0  0
  3  4  1  0  0  0  0
  3 32  1  6  0  0  0
  4  5  1  0  0  0  0
  4 33  1  6  0  0  0
  5  6  1  1  0  0  0
  5  7  1  0  0  0  0
  7  8  1  0  0  0  0
  7  9  1  1  0  0  0
  9 10  1  0  0  0  0
 11 12  1  1  0  0  0
 11 13  1  0  0  0  0
 11 19  1  0  0  0  0
 12 34  1  0  0  0  0
 13 14  1  0  0  0  0
 14 15  1  1  0  0  0
 14 16  1  0  0  0  0
 16  2  1  6  0  0  0
 16 17  1  0  0  0  0
 17 18  1  1  0  0  0
 17 19  1  0  0  0  0
 19 20  1  6  0  0  0
 21 20  1  1  0  0  0
 21 22  1  0  0  0  0
 21 29  1  0  0  0  0
 22 23  1  1  0  0  0
 22 24  1  0  0  0  0
 24 25  1  1  0  0  0
 24 26  1  0  0  0  0
 26 27  1  1  0  0  0
 26 28  1  0  0  0  0
 28 29  1  0  0  0  0
 28 30  1  6  0  0  0
 30 31  1  0  0  0  0
 34 35  2  0  0  0  0
 36 34  1  6  0  0  0
 36 38  1  0  0  0  0
 36 40  1  0  0  0  0
 37 39  1  0  0  0  0
 38 39  1  0  0  0  0
M  END
>  <CHROM.1>
163.01623244,-173.59898189,-66.12313543,-58.82877435,169.98825034,-60.11594307
62.90044105,-59.40371728,172.77270857,-174.74112407,-0.58675705,-12.30795345
16.29705606,0.18962937,0.60902580,-0.77284325

>  <Name>
ligand

>  <RI>
0

>  <Rbt.Current_Directory>
/home/itssahil/PROJECTS/Mol_Feturizer/New_Systems/rnas/4P20

>  <Rbt.Executable>
rbdock ($Id: //depot/dev/client3/rdock/2013.1/src/exe/rbdock.cxx#4 $)

>  <Rbt.Library>
libRbt.so (2013.1, Build901 2013/11/27)

>  <Rbt.Parameter_File>
/export/apps/rDock/src/rDock_2013.1_src/data/scripts/dock_solv.prm

>  <Rbt.Receptor>
prm/pocket_docking_8.prm

>  <SCORE>
-10.6767

>  <SCORE.INTER>
-0.72054

>  <SCORE.INTER.CONST>
1

>  <SCORE.INTER.POLAR>
0

>  <SCORE.INTER.ROT>
10

>  <SCORE.INTER.SOLV>
15.1412

>  <SCORE.INTER.VDW>
-15.7941

>  <SCORE.INTER.norm>
-0.0180135

>  <SCORE.INTRA>
-9.95615

>  <SCORE.INTRA.DIHEDRAL>
-24.987

>  <SCORE.INTRA.DIHEDRAL.0>
28.2802

>  <SCORE.INTRA.POLAR>
0

>  <SCORE.INTRA.POLAR.0>
0

>  <SCORE.INTRA.REPUL>
0

>  <SCORE.INTRA.REPUL.0>
0

>  <SCORE.INTRA.SOLV>
-0.587596

>  <SCORE.INTRA.SOLV.lig_0>
-101.981

>  <SCORE.INTRA.VDW>
2.83113

>  <SCORE.INTRA.VDW.0>
-5.72964

>  <SCORE.INTRA.norm>
-0.248904

>  <SCORE.RESTR>
0

>  <SCORE.RESTR.CAVITY>
0

>  <SCORE.RESTR.norm>
0

>  <SCORE.SYSTEM>
0

>  <SCORE.SYSTEM.CONST>
0

>  <SCORE.SYSTEM.DIHEDRAL>
0

>  <SCORE.SYSTEM.SOLV>
0

>  <SCORE.SYSTEM.norm>
0

>  <SCORE.heavy>
40

>  <SCORE.norm>
-0.266917

>  <RMSD>
8.010

$$$$
ligand
 OpenBabel11021811513D
libRbt.so/2013.1/901 2013/11/27
 40 42  0  0  0  0  0  0  0  0999 V2000
   -4.1026   -9.0355   17.3586 C   0  0  2  0  0  0  0  0  0  0  0  0
   -2.9058   -9.0979   16.5668 O   0  0  0  0  0  0  0  0  0  0  0  0
   -4.3104  -10.3780   18.1547 C   0  0  1  0  0  0  0  0  0  0  0  0
   -4.5791  -11.5753   17.1970 C   0  0  2  0  0  0  0  0  0  0  0  0
   -5.8682  -11.2486   16.3786 C   0  0  2  0  0  0  0  0  0  0  0  0
   -6.1634  -12.3521   15.4955 O   0  0  0  0  0  0  0  0  0  0  0  0
   -5.6148   -9.9140   15.5503 C   0  0  2  0  0  0  0  0  0  0  0  0
   -5.3007   -8.7836   16.4957 O   0  0  0  0  0  0  0  0  0  0  0  0
   -6.8277   -9.4974   14.7297 C   0  0  0  0  0  0  0  0  0  0  0  0
   -7.9959   -9.1657   15.6049 N   0  0  0  0  0  0  0  0  0  0  0  0
    1.2391   -8.0716   17.6138 C   0  0  2  0  0  0  0  0  0  0  0  0
    2.5361   -8.1387   18.2460 N   0  0  0  0  0  0  0  0  0  0  0  0
    0.1202   -7.8975   18.7186 C   0  0  0  0  0  0  0  0  0  0  0  0
   -1.3183   -7.8267   18.0357 C   0  0  2  0  0  0  0  0  0  0  0  0
   -2.3669   -7.6466   19.0737 N   0  0  0  0  0  0  0  0  0  0  0  0
   -1.5647   -9.1616   17.1906 C   0  0  2  0  0  0  0  0  0  0  0  0
   -0.4183   -9.2920   16.0994 C   0  0  2  0  0  0  0  0  0  0  0  0
   -0.6320  -10.4813   15.3356 O   0  0  0  0  0  0  0  0  0  0  0  0
    1.0010   -9.3570   16.7896 C   0  0  1  0  0  0  0  0  0  0  0  0
    2.0366   -9.4547   15.7803 O   0  0  0  0  0  0  0  0  0  0  0  0
    2.9741  -10.4733   15.6891 C   0  0  2  0  0  0  0  0  0  0  0  0
    3.9999  -10.0718   14.5704 C   0  0  2  0  0  0  0  0  0  0  0  0
    4.5809   -8.8473   14.8840 O   0  0  0  0  0  0  0  0  0  0  0  0
    3.3225  -10.0346   13.1347 C   0  0  1  0  0  0  0  0  0  0  0  0
    4.3193   -9.6626   12.0836 N   0  0  0  0  0  0  0  0  0  0  0  0
    2.6840  -11.4609   12.8360 C   0  0  2  0  0  0  0  0  0  0  0  0
    2.0693  -11.4823   11.5417 O   0  0  0  0  0  0  0  0  0  0  0  0
    1.6425  -11.7808   13.9771 C   0  0  2  0  0  0  0  0  0  0  0  0
    2.3133  -11.7581   15.3438 O   0  0  0  0  0  0  0  0  0  0  0  0
    1.0067  -13.1350   13.7711 C   0  0  0  0  0  0  0  0  0  0  0  0
    1.9658  -14.2085   13.7919 O   0  0  0  0  0  0  0  0  0  0  0  0
   -3.1213  -10.6200   18.9619 O   0  0  0  0  0  0  0  0  0  0  0  0
   -4.7649  -12.7141   17.9428 O   0  0  0  0  0  0  0  0  0  0  0  0
    3.0964   -6.9395   18.8246 C   0  0  0  0  0  0  0  0  0  0  0  0
    2.7057   -5.8040   18.4209 O   0  0  0  0  0  0  0  0  0  0  0  0
    4.1792   -7.1018   19.9353 C   0  0  2  0  0  0  0  0  0  0  0  0
    4.0564   -9.9956   21.0028 N   0  0  0  0  0  0  0  0  0  0  0  0
    3.5372   -7.5727   21.2768 C   0  0  0  0  0  0  0  0  0  0  0  0
    2.9754   -9.0029   21.2126 C   0  0  0  0  0  0  0  0  0  0  0  0
    4.7688   -6.0083   20.2084 O   0  0  0  0  0  0  0  0  0  0  0  0
  1  2  1  6  0  0  0
  1  3  1  0  0  0  0
  1  8  1  0  0  0  0
  3  4  1  0  0  0  0
  3 32  1  6  0  0  0
  4  5  1  0  0  0  0
  4 33  1  1  0  0  0
  5  6  1  6  0  0  0
  5  7  1  0  0  0  0
  7  8  1  0  0  0  0
  7  9  1  1  0  0  0
  9 10  1  0  0  0  0
 11 12  1  1  0  0  0
 11 13  1  0  0  0  0
 11 19  1  0  0  0  0
 12 34  1  0  0  0  0
 13 14  1  0  0  0  0
 14 15  1  1  0  0  0
 14 16  1  0  0  0  0
 16  2  1  6  0  0  0
 16 17  1  0  0  0  0
 17 18  1  1  0  0  0
 17 19  1  0  0  0  0
 19 20  1  6  0  0  0
 21 20  1  6  0  0  0
 21 22  1  0  0  0  0
 21 29  1  0  0  0  0
 22 23  1  1  0  0  0
 22 24  1  0  0  0  0
 24 25  1  6  0  0  0
 24 26  1  0  0  0  0
 26 27  1  6  0  0  0
 26 28  1  0  0  0  0
 28 29  1  0  0  0  0
 28 30  1  6  0  0  0
 30 31  1  0  0  0  0
 34 35  2  0  0  0  0
 36 34  1  6  0  0  0
 36 38  1  0  0  0  0
 36 40  1  0  0  0  0
 37 39  1  0  0  0  0
 38 39  1  0  0  0  0
M  END
>  <CHROM.1>
-66.75209337,-62.60348796,63.49133029,-71.68207977,117.56999732,-172.75203425
60.95601388,-73.56663067,67.51147784,64.92977909,-0.12413474,-9.70280673
16.62859839,2.97206639,-0.10672891,-2.13188204

>  <Name>
ligand

>  <RI>
0

>  <Rbt.Current_Directory>
/home/itssahil/PROJECTS/Mol_Feturizer/New_Systems/rnas/4P20

>  <Rbt.Executable>
rbdock ($Id: //depot/dev/client3/rdock/2013.1/src/exe/rbdock.cxx#4 $)

>  <Rbt.Library>
libRbt.so (2013.1, Build901 2013/11/27)

>  <Rbt.Parameter_File>
/export/apps/rDock/src/rDock_2013.1_src/data/scripts/dock_solv.prm

>  <Rbt.Receptor>
prm/pocket_docking_3.prm

>  <SCORE>
-9.55413

>  <SCORE.INTER>
-3.01649

>  <SCORE.INTER.CONST>
1

>  <SCORE.INTER.POLAR>
0

>  <SCORE.INTER.ROT>
10

>  <SCORE.INTER.SOLV>
14.1289

>  <SCORE.INTER.VDW>
-16.9873

>  <SCORE.INTER.norm>
-0.0754122

>  <SCORE.INTRA>
-6.53765

>  <SCORE.INTRA.DIHEDRAL>
-19.1414

>  <SCORE.INTRA.DIHEDRAL.0>
28.2802

>  <SCORE.INTRA.POLAR>
0

>  <SCORE.INTRA.POLAR.0>
0

>  <SCORE.INTRA.REPUL>
0

>  <SCORE.INTRA.REPUL.0>
0

>  <SCORE.INTRA.SOLV>
3.92589

>  <SCORE.INTRA.SOLV.lig_0>
-101.981

>  <SCORE.INTRA.VDW>
1.07012

>  <SCORE.INTRA.VDW.0>
-5.72964

>  <SCORE.INTRA.norm>
-0.163441

>  <SCORE.RESTR>
0

>  <SCORE.RESTR.CAVITY>
0

>  <SCORE.RESTR.norm>
0

>  <SCORE.SYSTEM>
0

>  <SCORE.SYSTEM.CONST>
0

>  <SCORE.SYSTEM.DIHEDRAL>
0

>  <SCORE.SYSTEM.SOLV>
0

>  <SCORE.SYSTEM.norm>
0

>  <SCORE.heavy>
40

>  <SCORE.norm>
-0.238853

>  <RMSD>
8.012

$$$$
ligand
 OpenBabel11021811513D
libRbt.so/2013.1/901 2013/11/27
 40 42  0  0  0  0  0  0  0  0999 V2000
   -3.4034   -8.6085   18.0142 C   0  0  2  0  0  0  0  0  0  0  0  0
   -2.2228   -8.3448   17.2399 O   0  0  0  0  0  0  0  0  0  0  0  0
   -3.6644  -10.1580   18.1157 C   0  0  1  0  0  0  0  0  0  0  0  0
   -4.0048  -10.7729   16.7269 C   0  0  2  0  0  0  0  0  0  0  0  0
   -5.2884  -10.0610   16.1940 C   0  0  2  0  0  0  0  0  0  0  0  0
   -5.6496  -10.6258   14.9153 O   0  0  0  0  0  0  0  0  0  0  0  0
   -4.9827   -8.5054   16.0588 C   0  0  2  0  0  0  0  0  0  0  0  0
   -4.6005   -7.9459   17.4045 O   0  0  0  0  0  0  0  0  0  0  0  0
   -6.1859   -7.7154   15.5625 C   0  0  0  0  0  0  0  0  0  0  0  0
   -7.3298   -7.7936   16.5248 N   0  0  0  0  0  0  0  0  0  0  0  0
    1.8963   -7.4774   18.5091 C   0  0  2  0  0  0  0  0  0  0  0  0
    3.2085   -7.6664   19.0824 N   0  0  0  0  0  0  0  0  0  0  0  0
    0.7955   -7.6907   19.6252 C   0  0  0  0  0  0  0  0  0  0  0  0
   -0.6595   -7.4899   19.0059 C   0  0  2  0  0  0  0  0  0  0  0  0
   -1.6917   -7.6745   20.0594 N   0  0  0  0  0  0  0  0  0  0  0  0
   -0.8668   -8.5259   17.8056 C   0  0  2  0  0  0  0  0  0  0  0  0
    0.2598   -8.2737   16.7152 C   0  0  2  0  0  0  0  0  0  0  0  0
    0.0807   -9.1931   15.6355 O   0  0  0  0  0  0  0  0  0  0  0  0
    1.6955   -8.4719   17.3435 C   0  0  1  0  0  0  0  0  0  0  0  0
    2.7118   -8.2178   16.3419 O   0  0  0  0  0  0  0  0  0  0  0  0
    4.0801   -8.3343   16.5401 C   0  0  2  0  0  0  0  0  0  0  0  0
    4.7702   -8.2437   15.1328 C   0  0  2  0  0  0  0  0  0  0  0  0
    4.4270   -7.0438   14.5182 O   0  0  0  0  0  0  0  0  0  0  0  0
    4.4014   -9.4851   14.2139 C   0  0  1  0  0  0  0  0  0  0  0  0
    5.0787   -9.3850   12.8842 N   0  0  0  0  0  0  0  0  0  0  0  0
    4.8225  -10.8205   14.9693 C   0  0  2  0  0  0  0  0  0  0  0  0
    4.5209  -11.9726   14.1724 O   0  0  0  0  0  0  0  0  0  0  0  0
    4.0671  -10.8600   16.3538 C   0  0  2  0  0  0  0  0  0  0  0  0
    4.4024   -9.6314   17.1884 O   0  0  0  0  0  0  0  0  0  0  0  0
    4.4341  -12.0958   17.1403 C   0  0  0  0  0  0  0  0  0  0  0  0
    3.7547  -12.1705   18.4074 O   0  0  0  0  0  0  0  0  0  0  0  0
   -2.4768  -10.7860   18.6806 O   0  0  0  0  0  0  0  0  0  0  0  0
   -4.2347  -12.1193   16.8759 O   0  0  0  0  0  0  0  0  0  0  0  0
    3.7469   -6.6460   19.9519 C   0  0  0  0  0  0  0  0  0  0  0  0
    3.3145   -5.4579   19.8710 O   0  0  0  0  0  0  0  0  0  0  0  0
    4.8586   -7.0612   20.9638 C   0  0  2  0  0  0  0  0  0  0  0  0
    3.6152  -10.4676   22.3838 N   0  0  0  0  0  0  0  0  0  0  0  0
    4.3205   -8.1099   21.9857 C   0  0  0  0  0  0  0  0  0  0  0  0
    4.0960   -9.5004   21.3683 C   0  0  0  0  0  0  0  0  0  0  0  0
    5.2707   -6.0846   21.6670 O   0  0  0  0  0  0  0  0  0  0  0  0
  1  2  1  6  0  0  0
  1  3  1  0  0  0  0
  1  8  1  0  0  0  0
  3  4  1  0  0  0  0
  3 32  1  6  0  0  0
  4  5  1  0  0  0  0
  4 33  1  1  0  0  0
  5  6  1  6  0  0  0
  5  7  1  0  0  0  0
  7  8  1  0  0  0  0
  7  9  1  1  0  0  0
  9 10  1  0  0  0  0
 11 12  1  1  0  0  0
 11 13  1  0  0  0  0
 11 19  1  0  0  0  0
 12 34  1  0  0  0  0
 13 14  1  0  0  0  0
 14 15  1  1  0  0  0
 14 16  1  0  0  0  0
 16  2  1  6  0  0  0
 16 17  1  0  0  0  0
 17 18  1  6  0  0  0
 17 19  1  0  0  0  0
 19 20  1  6  0  0  0
 21 20  1  6  0  0  0
 21 22  1  0  0  0  0
 21 29  1  0  0  0  0
 22 23  1  6  0  0  0
 22 24  1  0  0  0  0
 24 25  1  6  0  0  0
 24 26  1  0  0  0  0
 26 27  1  6  0  0  0
 26 28  1  0  0  0  0
 28 29  1  0  0  0  0
 28 30  1  1  0  0  0
 30 31  1  0  0  0  0
 34 35  2  0  0  0  0
 36 34  1  6  0  0  0
 36 38  1  0  0  0  0
 36 40  1  0  0  0  0
 37 39  1  0  0  0  0
 38 39  1  0  0  0  0
M  END
>  <CHROM.1>
-77.12069746,-64.20071027,62.76011857,-73.62315518,61.83215219,169.02853853
-179.56384297,-62.83405820,71.98031553,178.68828178,0.77871977,-8.95694574
17.54131271,2.98845260,0.01150558,-1.99614412

>  <Name>
ligand

>  <RI>
0

>  <Rbt.Current_Directory>
/home/itssahil/PROJECTS/Mol_Feturizer/New_Systems/rnas/4P20

>  <Rbt.Executable>
rbdock ($Id: //depot/dev/client3/rdock/2013.1/src/exe/rbdock.cxx#4 $)

>  <Rbt.Library>
libRbt.so (2013.1, Build901 2013/11/27)

>  <Rbt.Parameter_File>
/export/apps/rDock/src/rDock_2013.1_src/data/scripts/dock_solv.prm

>  <Rbt.Receptor>
prm/pocket_docking_5.prm

>  <SCORE>
-15.3666

>  <SCORE.INTER>
-5.07306

>  <SCORE.INTER.CONST>
1

>  <SCORE.INTER.POLAR>
0

>  <SCORE.INTER.ROT>
10

>  <SCORE.INTER.SOLV>
15.6915

>  <SCORE.INTER.VDW>
-18.8792

>  <SCORE.INTER.norm>
-0.126826

>  <SCORE.INTRA>
-10.2935

>  <SCORE.INTRA.DIHEDRAL>
-24.759

>  <SCORE.INTRA.DIHEDRAL.0>
28.2802

>  <SCORE.INTRA.POLAR>
0

>  <SCORE.INTRA.POLAR.0>
0

>  <SCORE.INTRA.REPUL>
0

>  <SCORE.INTRA.REPUL.0>
0

>  <SCORE.INTRA.SOLV>
1.16024

>  <SCORE.INTRA.SOLV.lig_0>
-101.981

>  <SCORE.INTRA.VDW>
1.50586

>  <SCORE.INTRA.VDW.0>
-5.72964

>  <SCORE.INTRA.norm>
-0.257339

>  <SCORE.RESTR>
0

>  <SCORE.RESTR.CAVITY>
0

>  <SCORE.RESTR.norm>
0

>  <SCORE.SYSTEM>
0

>  <SCORE.SYSTEM.CONST>
0

>  <SCORE.SYSTEM.DIHEDRAL>
0

>  <SCORE.SYSTEM.SOLV>
0

>  <SCORE.SYSTEM.norm>
0

>  <SCORE.heavy>
40

>  <SCORE.norm>
-0.384165

>  <RMSD>
8.015

$$$$
ligand
 OpenBabel11021811513D
libRbt.so/2013.1/901 2013/11/27
 40 42  0  0  0  0  0  0  0  0999 V2000
   -3.0051   -8.3070   17.1836 C   0  0  2  0  0  0  0  0  0  0  0  0
   -2.5632   -9.4457   17.9393 O   0  0  0  0  0  0  0  0  0  0  0  0
   -3.7398   -7.2739   18.1175 C   0  0  1  0  0  0  0  0  0  0  0  0
   -5.0649   -7.8592   18.6870 C   0  0  2  0  0  0  0  0  0  0  0  0
   -5.9852   -8.2158   17.4769 C   0  0  2  0  0  0  0  0  0  0  0  0
   -7.2375   -8.7389   17.9696 O   0  0  0  0  0  0  0  0  0  0  0  0
   -5.2380   -9.2931   16.5755 C   0  0  2  0  0  0  0  0  0  0  0  0
   -3.9326   -8.7237   16.0838 O   0  0  0  0  0  0  0  0  0  0  0  0
   -6.0499   -9.6936   15.3513 C   0  0  0  0  0  0  0  0  0  0  0  0
   -7.3560  -10.3147   15.7371 N   0  0  0  0  0  0  0  0  0  0  0  0
    1.8135   -9.1857   17.6127 C   0  0  2  0  0  0  0  0  0  0  0  0
    3.2076   -9.5448   17.7317 N   0  0  0  0  0  0  0  0  0  0  0  0
    1.1619   -9.1098   19.0523 C   0  0  0  0  0  0  0  0  0  0  0  0
   -0.3791   -8.7189   18.9368 C   0  0  2  0  0  0  0  0  0  0  0  0
   -0.9857   -8.6319   20.2910 N   0  0  0  0  0  0  0  0  0  0  0  0
   -1.1303   -9.8053   18.0354 C   0  0  2  0  0  0  0  0  0  0  0  0
   -0.4406   -9.8451   16.6056 C   0  0  2  0  0  0  0  0  0  0  0  0
   -1.1079  -10.8114   15.7906 O   0  0  0  0  0  0  0  0  0  0  0  0
    1.0861  -10.2295   16.7356 C   0  0  1  0  0  0  0  0  0  0  0  0
    1.7053  -10.2409   15.4252 O   0  0  0  0  0  0  0  0  0  0  0  0
    2.8647  -10.9263   15.0921 C   0  0  2  0  0  0  0  0  0  0  0  0
    3.4747  -10.2326   13.8225 C   0  0  2  0  0  0  0  0  0  0  0  0
    3.7155   -8.8892   14.0919 O   0  0  0  0  0  0  0  0  0  0  0  0
    2.5402  -10.4041   12.5503 C   0  0  1  0  0  0  0  0  0  0  0  0
    3.1456   -9.7473   11.3507 N   0  0  0  0  0  0  0  0  0  0  0  0
    2.3088  -11.9572   12.2942 C   0  0  2  0  0  0  0  0  0  0  0  0
    1.4789  -12.1654   11.1447 O   0  0  0  0  0  0  0  0  0  0  0  0
    1.6644  -12.5779   13.5937 C   0  0  2  0  0  0  0  0  0  0  0  0
    2.5609  -12.3514   14.8034 O   0  0  0  0  0  0  0  0  0  0  0  0
    1.4329  -14.0615   13.4323 C   0  0  0  0  0  0  0  0  0  0  0  0
    0.8303  -14.6597   14.5950 O   0  0  0  0  0  0  0  0  0  0  0  0
   -2.8321   -6.9070   19.1971 O   0  0  0  0  0  0  0  0  0  0  0  0
   -5.6683   -6.9146   19.4815 O   0  0  0  0  0  0  0  0  0  0  0  0
    4.1715   -8.5163   18.0479 C   0  0  0  0  0  0  0  0  0  0  0  0
    3.9040   -7.3040   17.7955 O   0  0  0  0  0  0  0  0  0  0  0  0
    5.5225   -8.9551   18.6919 C   0  0  2  0  0  0  0  0  0  0  0  0
    8.3112  -11.3622   17.4288 N   0  0  0  0  0  0  0  0  0  0  0  0
    6.2572   -9.9973   17.7934 C   0  0  0  0  0  0  0  0  0  0  0  0
    7.6472  -10.3852   18.3247 C   0  0  0  0  0  0  0  0  0  0  0  0
    5.3658   -9.5289   19.8163 O   0  0  0  0  0  0  0  0  0  0  0  0
  1  2  1  1  0  0  0
  1  3  1  0  0  0  0
  1  8  1  0  0  0  0
  3  4  1  0  0  0  0
  3 32  1  1  0  0  0
  4  5  1  0  0  0  0
  4 33  1  1  0  0  0
  5  6  1  1  0  0  0
  5  7  1  0  0  0  0
  7  8  1  0  0  0  0
  7  9  1  6  0  0  0
  9 10  1  0  0  0  0
 11 12  1  1  0  0  0
 11 13  1  0  0  0  0
 11 19  1  0  0  0  0
 12 34  1  0  0  0  0
 13 14  1  0  0  0  0
 14 15  1  1  0  0  0
 14 16  1  0  0  0  0
 16  2  1  6  0  0  0
 16 17  1  0  0  0  0
 17 18  1  6  0  0  0
 17 19  1  0  0  0  0
 19 20  1  6  0  0  0
 21 20  1  6  0  0  0
 21 22  1  0  0  0  0
 21 29  1  0  0  0  0
 22 23  1  1  0  0  0
 22 24  1  0  0  0  0
 24 25  1  6  0  0  0
 24 26  1  0  0  0  0
 26 27  1  6  0  0  0
 26 28  1  0  0  0  0
 28 29  1  0  0  0  0
 28 30  1  6  0  0  0
 30 31  1  0  0  0  0
 34 35  2  0  0  0  0
 36 34  1  6  0  0  0
 36 38  1  0  0  0  0
 36 40  1  0  0  0  0
 37 39  1  0  0  0  0
 38 39  1  0  0  0  0
M  END
>  <CHROM.1>
-119.13190407,70.49919231,-61.07858131,-81.57354762,82.05967440,-157.65076336
-179.30911742,56.52107413,175.53671268,-179.24600610,0.31041637,-9.80324000
16.51369134,-2.89344699,0.08978335,-2.10506164

>  <Name>
ligand

>  <RI>
0

>  <Rbt.Current_Directory>
/home/itssahil/PROJECTS/Mol_Feturizer/New_Systems/rnas/4P20

>  <Rbt.Executable>
rbdock ($Id: //depot/dev/client3/rdock/2013.1/src/exe/rbdock.cxx#4 $)

>  <Rbt.Library>
libRbt.so (2013.1, Build901 2013/11/27)

>  <Rbt.Parameter_File>
/export/apps/rDock/src/rDock_2013.1_src/data/scripts/dock_solv.prm

>  <Rbt.Receptor>
prm/pocket_docking_5.prm

>  <SCORE>
-8.98934

>  <SCORE.INTER>
-3.25005

>  <SCORE.INTER.CONST>
1

>  <SCORE.INTER.POLAR>
0

>  <SCORE.INTER.ROT>
10

>  <SCORE.INTER.SOLV>
16.4112

>  <SCORE.INTER.VDW>
-17.9038

>  <SCORE.INTER.norm>
-0.0812513

>  <SCORE.INTRA>
-5.73929

>  <SCORE.INTRA.DIHEDRAL>
-14.9638

>  <SCORE.INTRA.DIHEDRAL.0>
28.2802

>  <SCORE.INTRA.POLAR>
0

>  <SCORE.INTRA.POLAR.0>
0

>  <SCORE.INTRA.REPUL>
0

>  <SCORE.INTRA.REPUL.0>
0

>  <SCORE.INTRA.SOLV>
1.01111

>  <SCORE.INTRA.SOLV.lig_0>
-101.981

>  <SCORE.INTRA.VDW>
1.23705

>  <SCORE.INTRA.VDW.0>
-5.72964

>  <SCORE.INTRA.norm>
-0.143482

>  <SCORE.RESTR>
0

>  <SCORE.RESTR.CAVITY>
0

>  <SCORE.RESTR.norm>
0

>  <SCORE.SYSTEM>
0

>  <SCORE.SYSTEM.CONST>
0

>  <SCORE.SYSTEM.DIHEDRAL>
0

>  <SCORE.SYSTEM.SOLV>
0

>  <SCORE.SYSTEM.norm>
0

>  <SCORE.heavy>
40

>  <SCORE.norm>
-0.224734

>  <RMSD>
8.021

$$$$
ligand
 OpenBabel11021811513D
libRbt.so/2013.1/901 2013/11/27
 40 42  0  0  0  0  0  0  0  0999 V2000
   -3.7569   -8.0398   17.3762 C   0  0  2  0  0  0  0  0  0  0  0  0
   -3.2048   -8.8588   18.4189 O   0  0  0  0  0  0  0  0  0  0  0  0
   -5.0099   -7.2442   17.9018 C   0  0  1  0  0  0  0  0  0  0  0  0
   -6.1841   -8.2000   18.2632 C   0  0  2  0  0  0  0  0  0  0  0  0
   -6.5699   -8.9877   16.9713 C   0  0  2  0  0  0  0  0  0  0  0  0
   -7.6764   -9.8679   17.2635 O   0  0  0  0  0  0  0  0  0  0  0  0
   -5.3006   -9.8164   16.4881 C   0  0  2  0  0  0  0  0  0  0  0  0
   -4.1608   -8.8742   16.1997 O   0  0  0  0  0  0  0  0  0  0  0  0
   -5.5703  -10.6077   15.2155 C   0  0  0  0  0  0  0  0  0  0  0  0
   -4.3832  -11.4273   14.8160 N   0  0  0  0  0  0  0  0  0  0  0  0
    1.1061   -8.7883   17.5580 C   0  0  2  0  0  0  0  0  0  0  0  0
    2.5082   -9.1303   17.6174 N   0  0  0  0  0  0  0  0  0  0  0  0
    0.6171   -8.3100   18.9845 C   0  0  0  0  0  0  0  0  0  0  0  0
   -0.9310   -7.9334   18.9357 C   0  0  2  0  0  0  0  0  0  0  0  0
   -1.3848   -7.4687   20.2727 N   0  0  0  0  0  0  0  0  0  0  0  0
   -1.7666   -9.2082   18.4524 C   0  0  2  0  0  0  0  0  0  0  0  0
   -1.2390   -9.6499   17.0212 C   0  0  2  0  0  0  0  0  0  0  0  0
   -1.9828  -10.7874   16.5785 O   0  0  0  0  0  0  0  0  0  0  0  0
    0.2964  -10.0160   17.0836 C   0  0  1  0  0  0  0  0  0  0  0  0
    0.7669  -10.3964   15.7665 O   0  0  0  0  0  0  0  0  0  0  0  0
    2.0238  -10.9097   15.4813 C   0  0  2  0  0  0  0  0  0  0  0  0
    2.1575  -10.9898   13.9189 C   0  0  2  0  0  0  0  0  0  0  0  0
    1.9658   -9.7276   13.3663 O   0  0  0  0  0  0  0  0  0  0  0  0
    1.1521  -12.0484   13.2944 C   0  0  1  0  0  0  0  0  0  0  0  0
    1.3049  -12.1174   11.8082 N   0  0  0  0  0  0  0  0  0  0  0  0
    1.4259  -13.4661   13.9624 C   0  0  2  0  0  0  0  0  0  0  0  0
    0.5491  -14.4617   13.4206 O   0  0  0  0  0  0  0  0  0  0  0  0
    1.2402  -13.3177   15.5220 C   0  0  2  0  0  0  0  0  0  0  0  0
    2.1819  -12.2596   16.0808 O   0  0  0  0  0  0  0  0  0  0  0  0
    1.5050  -14.6252   16.2296 C   0  0  0  0  0  0  0  0  0  0  0  0
    1.3432  -14.5276   17.6569 O   0  0  0  0  0  0  0  0  0  0  0  0
   -4.6026   -6.4652   19.0643 O   0  0  0  0  0  0  0  0  0  0  0  0
   -7.2513   -7.4545   18.7024 O   0  0  0  0  0  0  0  0  0  0  0  0
    3.4684   -8.0983   17.9337 C   0  0  0  0  0  0  0  0  0  0  0  0
    3.1757   -6.8826   17.7301 O   0  0  0  0  0  0  0  0  0  0  0  0
    4.8468   -8.5374   18.5165 C   0  0  2  0  0  0  0  0  0  0  0  0
    4.5594   -7.2523   22.1814 N   0  0  0  0  0  0  0  0  0  0  0  0
    5.1810   -7.7450   19.8180 C   0  0  0  0  0  0  0  0  0  0  0  0
    4.2242   -8.0555   20.9812 C   0  0  0  0  0  0  0  0  0  0  0  0
    5.8118   -8.3037   17.7213 O   0  0  0  0  0  0  0  0  0  0  0  0
  1  2  1  1  0  0  0
  1  3  1  0  0  0  0
  1  8  1  0  0  0  0
  3  4  1  0  0  0  0
  3 32  1  1  0  0  0
  4  5  1  0  0  0  0
  4 33  1  6  0  0  0
  5  6  1  1  0  0  0
  5  7  1  0  0  0  0
  7  8  1  0  0  0  0
  7  9  1  6  0  0  0
  9 10  1  0  0  0  0
 11 12  1  1  0  0  0
 11 13  1  0  0  0  0
 11 19  1  0  0  0  0
 12 34  1  0  0  0  0
 13 14  1  0  0  0  0
 14 15  1  1  0  0  0
 14 16  1  0  0  0  0
 16  2  1  6  0  0  0
 16 17  1  0  0  0  0
 17 18  1  1  0  0  0
 17 19  1  0  0  0  0
 19 20  1  6  0  0  0
 21 20  1  6  0  0  0
 21 22  1  0  0  0  0
 21 29  1  0  0  0  0
 22 23  1  6  0  0  0
 22 24  1  0  0  0  0
 24 25  1  6  0  0  0
 24 26  1  0  0  0  0
 26 27  1  6  0  0  0
 26 28  1  0  0  0  0
 28 29  1  0  0  0  0
 28 30  1  1  0  0  0
 30 31  1  0  0  0  0
 34 35  2  0  0  0  0
 36 34  1  6  0  0  0
 36 38  1  0  0  0  0
 36 40  1  0  0  0  0
 37 39  1  0  0  0  0
 38 39  1  0  0  0  0
M  END
>  <CHROM.1>
-151.48597216,75.21415576,-177.38709435,-63.30955706,67.09885319,-172.42807725
-179.93519024,-129.09478530,65.77593652,-178.44480713,-0.46190172,-9.78236934
17.00960831,-3.03096467,0.07830881,-2.35811975

>  <Name>
ligand

>  <RI>
0

>  <Rbt.Current_Directory>
/home/itssahil/PROJECTS/Mol_Feturizer/New_Systems/rnas/4P20

>  <Rbt.Executable>
rbdock ($Id: //depot/dev/client3/rdock/2013.1/src/exe/rbdock.cxx#4 $)

>  <Rbt.Library>
libRbt.so (2013.1, Build901 2013/11/27)

>  <Rbt.Parameter_File>
/export/apps/rDock/src/rDock_2013.1_src/data/scripts/dock_solv.prm

>  <Rbt.Receptor>
prm/pocket_docking_5.prm

>  <SCORE>
-8.77133

>  <SCORE.INTER>
0.28767

>  <SCORE.INTER.CONST>
1

>  <SCORE.INTER.POLAR>
0

>  <SCORE.INTER.ROT>
10

>  <SCORE.INTER.SOLV>
26.0319

>  <SCORE.INTER.VDW>
-18.7522

>  <SCORE.INTER.norm>
0.00719174

>  <SCORE.INTRA>
-9.059

>  <SCORE.INTRA.DIHEDRAL>
-20.8173

>  <SCORE.INTRA.DIHEDRAL.0>
28.2802

>  <SCORE.INTRA.POLAR>
0

>  <SCORE.INTRA.POLAR.0>
0

>  <SCORE.INTRA.REPUL>
0

>  <SCORE.INTRA.REPUL.0>
0

>  <SCORE.INTRA.SOLV>
0.00560727

>  <SCORE.INTRA.SOLV.lig_0>
-101.981

>  <SCORE.INTRA.VDW>
1.34683

>  <SCORE.INTRA.VDW.0>
-5.72964

>  <SCORE.INTRA.norm>
-0.226475

>  <SCORE.RESTR>
0

>  <SCORE.RESTR.CAVITY>
0

>  <SCORE.RESTR.norm>
0

>  <SCORE.SYSTEM>
0

>  <SCORE.SYSTEM.CONST>
0

>  <SCORE.SYSTEM.DIHEDRAL>
0

>  <SCORE.SYSTEM.SOLV>
0

>  <SCORE.SYSTEM.norm>
0

>  <SCORE.heavy>
40

>  <SCORE.norm>
-0.219283

>  <RMSD>
8.021

$$$$
ligand
 OpenBabel11021811513D
libRbt.so/2013.1/901 2013/11/27
 40 42  0  0  0  0  0  0  0  0999 V2000
   -4.7046   -9.2511   17.0444 C   0  0  2  0  0  0  0  0  0  0  0  0
   -3.6123   -8.3311   17.1978 O   0  0  0  0  0  0  0  0  0  0  0  0
   -5.9666   -8.5187   16.4528 C   0  0  1  0  0  0  0  0  0  0  0  0
   -6.5302   -7.4592   17.4441 C   0  0  2  0  0  0  0  0  0  0  0  0
   -6.9265   -8.2025   18.7589 C   0  0  2  0  0  0  0  0  0  0  0  0
   -7.4789   -7.2520   19.6948 O   0  0  0  0  0  0  0  0  0  0  0  0
   -5.6254   -8.8951   19.3582 C   0  0  2  0  0  0  0  0  0  0  0  0
   -5.0666   -9.8735   18.3579 O   0  0  0  0  0  0  0  0  0  0  0  0
   -5.9128   -9.6673   20.6385 C   0  0  0  0  0  0  0  0  0  0  0  0
   -4.6692  -10.2829   21.2000 N   0  0  0  0  0  0  0  0  0  0  0  0
    0.7500   -8.7473   17.5535 C   0  0  2  0  0  0  0  0  0  0  0  0
    2.0369   -9.1764   18.0495 N   0  0  0  0  0  0  0  0  0  0  0  0
   -0.0264   -7.9746   18.6950 C   0  0  0  0  0  0  0  0  0  0  0  0
   -1.4517   -7.4987   18.1633 C   0  0  2  0  0  0  0  0  0  0  0  0
   -2.1730   -6.7587   19.2318 N   0  0  0  0  0  0  0  0  0  0  0  0
   -2.2851   -8.7751   17.6804 C   0  0  2  0  0  0  0  0  0  0  0  0
   -1.4660   -9.5157   16.5391 C   0  0  2  0  0  0  0  0  0  0  0  0
   -2.2050  -10.6569   16.0978 O   0  0  0  0  0  0  0  0  0  0  0  0
   -0.0551   -9.9779   17.0785 C   0  0  1  0  0  0  0  0  0  0  0  0
    0.6874  -10.6328   16.0200 O   0  0  0  0  0  0  0  0  0  0  0  0
    1.8238  -11.4084   16.1989 C   0  0  2  0  0  0  0  0  0  0  0  0
    2.3904  -11.7508   14.7752 C   0  0  2  0  0  0  0  0  0  0  0  0
    2.6586  -10.5751   14.0816 O   0  0  0  0  0  0  0  0  0  0  0  0
    1.4030  -12.6872   13.9570 C   0  0  1  0  0  0  0  0  0  0  0  0
    1.9674  -13.0108   12.6103 N   0  0  0  0  0  0  0  0  0  0  0  0
    1.1423  -14.0115   14.7993 C   0  0  2  0  0  0  0  0  0  0  0  0
    0.2641  -14.8980   14.0948 O   0  0  0  0  0  0  0  0  0  0  0  0
    0.5435  -13.5935   16.1977 C   0  0  2  0  0  0  0  0  0  0  0  0
    1.4910  -12.6558   16.9336 O   0  0  0  0  0  0  0  0  0  0  0  0
    0.2873  -14.8030   17.0649 C   0  0  0  0  0  0  0  0  0  0  0  0
   -0.7507  -15.6524   16.5415 O   0  0  0  0  0  0  0  0  0  0  0  0
   -5.5842   -7.8940   15.1928 O   0  0  0  0  0  0  0  0  0  0  0  0
   -7.6336   -6.8621   16.8840 O   0  0  0  0  0  0  0  0  0  0  0  0
    3.0790   -8.1935   18.2365 C   0  0  0  0  0  0  0  0  0  0  0  0
    3.0397   -7.1041   17.5911 O   0  0  0  0  0  0  0  0  0  0  0  0
    4.2268   -8.5280   19.2381 C   0  0  2  0  0  0  0  0  0  0  0  0
    5.8240   -7.9829   21.8779 N   0  0  0  0  0  0  0  0  0  0  0  0
    3.6984   -8.5510   20.7057 C   0  0  0  0  0  0  0  0  0  0  0  0
    4.7574   -9.0014   21.7259 C   0  0  0  0  0  0  0  0  0  0  0  0
    5.1556   -7.6589   19.2269 O   0  0  0  0  0  0  0  0  0  0  0  0
  1  2  1  1  0  0  0
  1  3  1  0  0  0  0
  1  8  1  0  0  0  0
  3  4  1  0  0  0  0
  3 32  1  6  0  0  0
  4  5  1  0  0  0  0
  4 33  1  6  0  0  0
  5  6  1  1  0  0  0
  5  7  1  0  0  0  0
  7  8  1  0  0  0  0
  7  9  1  1  0  0  0
  9 10  1  0  0  0  0
 11 12  1  1  0  0  0
 11 13  1  0  0  0  0
 11 19  1  0  0  0  0
 12 34  1  0  0  0  0
 13 14  1  0  0  0  0
 14 15  1  1  0  0  0
 14 16  1  0  0  0  0
 16  2  1  6  0  0  0
 16 17  1  0  0  0  0
 17 18  1  1  0  0  0
 17 19  1  0  0  0  0
 19 20  1  6  0  0  0
 21 20  1  6  0  0  0
 21 22  1  0  0  0  0
 21 29  1  0  0  0  0
 22 23  1  6  0  0  0
 22 24  1  0  0  0  0
 24 25  1  6  0  0  0
 24 26  1  0  0  0  0
 26 27  1  6  0  0  0
 26 28  1  0  0  0  0
 28 29  1  0  0  0  0
 28 30  1  1  0  0  0
 30 31  1  0  0  0  0
 34 35  2  0  0  0  0
 36 34  1  6  0  0  0
 36 38  1  0  0  0  0
 36 40  1  0  0  0  0
 37 39  1  0  0  0  0
 38 39  1  0  0  0  0
M  END
>  <CHROM.1>
-177.29044490,-162.78090966,-178.68664267,-73.50823787,74.66325177,-172.66060864
-66.40035344,-68.66332317,174.73568369,69.45532177,-0.84850035,-9.86736716
17.45947787,2.88240108,-0.10407114,0.71579725

>  <Name>
ligand

>  <RI>
0

>  <Rbt.Current_Directory>
/home/itssahil/PROJECTS/Mol_Feturizer/New_Systems/rnas/4P20

>  <Rbt.Executable>
rbdock ($Id: //depot/dev/client3/rdock/2013.1/src/exe/rbdock.cxx#4 $)

>  <Rbt.Library>
libRbt.so (2013.1, Build901 2013/11/27)

>  <Rbt.Parameter_File>
/export/apps/rDock/src/rDock_2013.1_src/data/scripts/dock_solv.prm

>  <Rbt.Receptor>
prm/pocket_docking_6.prm

>  <SCORE>
-10.7502

>  <SCORE.INTER>
-0.212306

>  <SCORE.INTER.CONST>
1

>  <SCORE.INTER.POLAR>
0

>  <SCORE.INTER.ROT>
10

>  <SCORE.INTER.SOLV>
22.216

>  <SCORE.INTER.VDW>
-17.8135

>  <SCORE.INTER.norm>
-0.00530764

>  <SCORE.INTRA>
-10.5379

>  <SCORE.INTRA.DIHEDRAL>
-23.9787

>  <SCORE.INTRA.DIHEDRAL.0>
28.2802

>  <SCORE.INTRA.POLAR>
0

>  <SCORE.INTRA.POLAR.0>
0

>  <SCORE.INTRA.REPUL>
0

>  <SCORE.INTRA.REPUL.0>
0

>  <SCORE.INTRA.SOLV>
-0.305346

>  <SCORE.INTRA.SOLV.lig_0>
-101.981

>  <SCORE.INTRA.VDW>
1.6041

>  <SCORE.INTRA.VDW.0>
-5.72964

>  <SCORE.INTRA.norm>
-0.263448

>  <SCORE.RESTR>
0

>  <SCORE.RESTR.CAVITY>
0

>  <SCORE.RESTR.norm>
0

>  <SCORE.SYSTEM>
0

>  <SCORE.SYSTEM.CONST>
0

>  <SCORE.SYSTEM.DIHEDRAL>
0

>  <SCORE.SYSTEM.SOLV>
0

>  <SCORE.SYSTEM.norm>
0

>  <SCORE.heavy>
40

>  <SCORE.norm>
-0.268756

>  <RMSD>
8.028

$$$$
ligand
 OpenBabel11021811513D
libRbt.so/2013.1/901 2013/11/27
 40 42  0  0  0  0  0  0  0  0999 V2000
   -4.9433   -9.6878   15.7310 C   0  0  2  0  0  0  0  0  0  0  0  0
   -3.9908   -9.1057   16.6349 O   0  0  0  0  0  0  0  0  0  0  0  0
   -6.2518   -8.8142   15.6674 C   0  0  1  0  0  0  0  0  0  0  0  0
   -7.0066   -8.8147   17.0287 C   0  0  2  0  0  0  0  0  0  0  0  0
   -7.3815  -10.2931   17.3633 C   0  0  2  0  0  0  0  0  0  0  0  0
   -8.1078  -10.3292   18.6106 O   0  0  0  0  0  0  0  0  0  0  0  0
   -6.0400  -11.1425   17.4656 C   0  0  2  0  0  0  0  0  0  0  0  0
   -5.2998  -11.0794   16.1548 O   0  0  0  0  0  0  0  0  0  0  0  0
   -6.3012  -12.6112   17.7706 C   0  0  0  0  0  0  0  0  0  0  0  0
   -6.9621  -12.7870   19.1021 N   0  0  0  0  0  0  0  0  0  0  0  0
    0.3367   -9.8642   16.7989 C   0  0  2  0  0  0  0  0  0  0  0  0
    1.5912  -10.5092   17.1098 N   0  0  0  0  0  0  0  0  0  0  0  0
   -0.4111   -9.4864   18.1409 C   0  0  0  0  0  0  0  0  0  0  0  0
   -1.8007   -8.7775   17.8134 C   0  0  2  0  0  0  0  0  0  0  0  0
   -2.4943   -8.4085   19.0753 N   0  0  0  0  0  0  0  0  0  0  0  0
   -2.6967   -9.7623   16.9278 C   0  0  2  0  0  0  0  0  0  0  0  0
   -1.9046  -10.1125   15.5968 C   0  0  2  0  0  0  0  0  0  0  0  0
   -2.6995  -10.9900   14.7960 O   0  0  0  0  0  0  0  0  0  0  0  0
   -0.5287  -10.8103   15.9362 C   0  0  1  0  0  0  0  0  0  0  0  0
    0.1907  -11.1041   14.7128 O   0  0  0  0  0  0  0  0  0  0  0  0
   -0.2928  -11.8711   13.6626 C   0  0  2  0  0  0  0  0  0  0  0  0
   -0.2687  -13.3717   14.1240 C   0  0  2  0  0  0  0  0  0  0  0  0
   -1.0298  -13.5199   15.2789 O   0  0  0  0  0  0  0  0  0  0  0  0
    1.2135  -13.8979   14.3421 C   0  0  1  0  0  0  0  0  0  0  0  0
    1.2137  -15.3314   14.7687 N   0  0  0  0  0  0  0  0  0  0  0  0
    2.0265  -13.7057   12.9881 C   0  0  2  0  0  0  0  0  0  0  0  0
    3.3714  -14.1793   13.1304 O   0  0  0  0  0  0  0  0  0  0  0  0
    1.9887  -12.1754   12.6063 C   0  0  2  0  0  0  0  0  0  0  0  0
    0.5532  -11.6906   12.4551 O   0  0  0  0  0  0  0  0  0  0  0  0
    2.7267  -11.9173   11.3143 C   0  0  0  0  0  0  0  0  0  0  0  0
    2.9262  -10.5145   11.0587 O   0  0  0  0  0  0  0  0  0  0  0  0
   -5.8786   -7.4582   15.2852 O   0  0  0  0  0  0  0  0  0  0  0  0
   -8.1425   -8.0505   16.9128 O   0  0  0  0  0  0  0  0  0  0  0  0
    1.5767  -11.8613   17.6181 C   0  0  0  0  0  0  0  0  0  0  0  0
    0.5374  -12.3083   18.1883 O   0  0  0  0  0  0  0  0  0  0  0  0
    2.8661  -12.7211   17.4427 C   0  0  2  0  0  0  0  0  0  0  0  0
    4.9416  -11.6922   20.5734 N   0  0  0  0  0  0  0  0  0  0  0  0
    4.0405  -12.1467   18.2938 C   0  0  0  0  0  0  0  0  0  0  0  0
    3.7947  -12.2388   19.8091 C   0  0  0  0  0  0  0  0  0  0  0  0
    3.2902  -12.7292   16.2435 O   0  0  0  0  0  0  0  0  0  0  0  0
  1  2  1  1  0  0  0
  1  3  1  0  0  0  0
  1  8  1  0  0  0  0
  3  4  1  0  0  0  0
  3 32  1  1  0  0  0
  4  5  1  0  0  0  0
  4 33  1  6  0  0  0
  5  6  1  1  0  0  0
  5  7  1  0  0  0  0
  7  8  1  0  0  0  0
  7  9  1  6  0  0  0
  9 10  1  0  0  0  0
 11 12  1  1  0  0  0
 11 13  1  0  0  0  0
 11 19  1  0  0  0  0
 12 34  1  0  0  0  0
 13 14  1  0  0  0  0
 14 15  1  1  0  0  0
 14 16  1  0  0  0  0
 16  2  1  6  0  0  0
 16 17  1  0  0  0  0
 17 18  1  6  0  0  0
 17 19  1  0  0  0  0
 19 20  1  6  0  0  0
 21 20  1  1  0  0  0
 21 22  1  0  0  0  0
 21 29  1  0  0  0  0
 22 23  1  1  0  0  0
 22 24  1  0  0  0  0
 24 25  1  6  0  0  0
 24 26  1  0  0  0  0
 26 27  1  1  0  0  0
 26 28  1  0  0  0  0
 28 29  1  0  0  0  0
 28 30  1  6  0  0  0
 30 31  1  0  0  0  0
 34 35  2  0  0  0  0
 36 34  1  6  0  0  0
 36 38  1  0  0  0  0
 36 40  1  0  0  0  0
 37 39  1  0  0  0  0
 38 39  1  0  0  0  0
M  END
>  <CHROM.1>
177.12373202,172.84417782,-62.77723126,72.92657518,-176.88150455,-73.54926837
-169.30915302,66.59084390,65.80979721,179.50748091,-1.29987971,-11.19154831
16.08409451,2.89558143,-0.27120692,1.44209922

>  <Name>
ligand

>  <RI>
0

>  <Rbt.Current_Directory>
/home/itssahil/PROJECTS/Mol_Feturizer/New_Systems/rnas/4P20

>  <Rbt.Executable>
rbdock ($Id: //depot/dev/client3/rdock/2013.1/src/exe/rbdock.cxx#4 $)

>  <Rbt.Library>
libRbt.so (2013.1, Build901 2013/11/27)

>  <Rbt.Parameter_File>
/export/apps/rDock/src/rDock_2013.1_src/data/scripts/dock_solv.prm

>  <Rbt.Receptor>
prm/pocket_docking_4.prm

>  <SCORE>
-11.4692

>  <SCORE.INTER>
-0.849134

>  <SCORE.INTER.CONST>
1

>  <SCORE.INTER.POLAR>
0

>  <SCORE.INTER.ROT>
10

>  <SCORE.INTER.SOLV>
11.0969

>  <SCORE.INTER.VDW>
-14.5317

>  <SCORE.INTER.norm>
-0.0212283

>  <SCORE.INTRA>
-10.628

>  <SCORE.INTRA.DIHEDRAL>
-25.5185

>  <SCORE.INTRA.DIHEDRAL.0>
28.2802

>  <SCORE.INTRA.POLAR>
0

>  <SCORE.INTRA.POLAR.0>
0

>  <SCORE.INTRA.REPUL>
0

>  <SCORE.INTRA.REPUL.0>
0

>  <SCORE.INTRA.SOLV>
1.59544

>  <SCORE.INTRA.SOLV.lig_0>
-101.981

>  <SCORE.INTRA.VDW>
1.33351

>  <SCORE.INTRA.VDW.0>
-5.72964

>  <SCORE.INTRA.norm>
-0.2657

>  <SCORE.RESTR>
0.00789153

>  <SCORE.RESTR.CAVITY>
0.00789153

>  <SCORE.RESTR.norm>
0.000197288

>  <SCORE.SYSTEM>
0

>  <SCORE.SYSTEM.CONST>
0

>  <SCORE.SYSTEM.DIHEDRAL>
0

>  <SCORE.SYSTEM.SOLV>
0

>  <SCORE.SYSTEM.norm>
0

>  <SCORE.heavy>
40

>  <SCORE.norm>
-0.286731

>  <RMSD>
8.029

$$$$
ligand
 OpenBabel11021811513D
libRbt.so/2013.1/901 2013/11/27
 40 42  0  0  0  0  0  0  0  0999 V2000
   -2.3408   -9.7546   16.4605 C   0  0  2  0  0  0  0  0  0  0  0  0
   -1.9929   -8.7818   17.4584 O   0  0  0  0  0  0  0  0  0  0  0  0
   -3.8961   -9.7645   16.2155 C   0  0  1  0  0  0  0  0  0  0  0  0
   -4.6704  -10.2533   17.4742 C   0  0  2  0  0  0  0  0  0  0  0  0
   -4.1836  -11.7010   17.7987 C   0  0  2  0  0  0  0  0  0  0  0  0
   -4.9014  -12.1977   18.9488 O   0  0  0  0  0  0  0  0  0  0  0  0
   -2.6193  -11.6545   18.0856 C   0  0  2  0  0  0  0  0  0  0  0  0
   -1.8980  -11.1246   16.8735 O   0  0  0  0  0  0  0  0  0  0  0  0
   -2.0416  -13.0289   18.3943 C   0  0  0  0  0  0  0  0  0  0  0  0
   -2.4728  -13.5163   19.7423 N   0  0  0  0  0  0  0  0  0  0  0  0
    1.9270   -7.2452   18.7247 C   0  0  2  0  0  0  0  0  0  0  0  0
    3.2402   -7.2053   19.3248 N   0  0  0  0  0  0  0  0  0  0  0  0
    0.8456   -7.5531   19.8377 C   0  0  0  0  0  0  0  0  0  0  0  0
   -0.6095   -7.6051   19.1890 C   0  0  2  0  0  0  0  0  0  0  0  0
   -1.6259   -7.8782   20.2386 N   0  0  0  0  0  0  0  0  0  0  0  0
   -0.6373   -8.7282   18.0511 C   0  0  2  0  0  0  0  0  0  0  0  0
    0.4633   -8.3765   16.9617 C   0  0  2  0  0  0  0  0  0  0  0  0
    0.4437   -9.3733   15.9375 O   0  0  0  0  0  0  0  0  0  0  0  0
    1.8988   -8.3243   17.6189 C   0  0  1  0  0  0  0  0  0  0  0  0
    2.8882   -7.9819   16.6167 O   0  0  0  0  0  0  0  0  0  0  0  0
    3.2433   -8.7762   15.5360 C   0  0  2  0  0  0  0  0  0  0  0  0
    3.8497  -10.1069   16.1074 C   0  0  2  0  0  0  0  0  0  0  0  0
    2.9206  -10.7284   16.9356 O   0  0  0  0  0  0  0  0  0  0  0  0
    5.2183   -9.8513   16.8709 C   0  0  1  0  0  0  0  0  0  0  0  0
    5.7843  -11.1324   17.3956 N   0  0  0  0  0  0  0  0  0  0  0  0
    6.2351   -9.1460   15.8709 C   0  0  2  0  0  0  0  0  0  0  0  0
    7.4941   -8.9051   16.5113 O   0  0  0  0  0  0  0  0  0  0  0  0
    5.5758   -7.8044   15.3664 C   0  0  2  0  0  0  0  0  0  0  0  0
    4.2421   -8.0796   14.6853 O   0  0  0  0  0  0  0  0  0  0  0  0
    6.4787   -7.0856   14.3925 C   0  0  0  0  0  0  0  0  0  0  0  0
    5.8972   -5.8682   13.8898 O   0  0  0  0  0  0  0  0  0  0  0  0
   -4.3099   -8.4166   15.8466 O   0  0  0  0  0  0  0  0  0  0  0  0
   -6.0169  -10.2541   17.2011 O   0  0  0  0  0  0  0  0  0  0  0  0
    3.5589   -6.1363   20.2428 C   0  0  0  0  0  0  0  0  0  0  0  0
    2.9108   -5.0489   20.1919 O   0  0  0  0  0  0  0  0  0  0  0  0
    4.7099   -6.3733   21.2682 C   0  0  2  0  0  0  0  0  0  0  0  0
    5.2718   -9.4065   21.4164 N   0  0  0  0  0  0  0  0  0  0  0  0
    4.2594   -7.3505   22.3976 C   0  0  0  0  0  0  0  0  0  0  0  0
    4.0154   -8.7847   21.8989 C   0  0  0  0  0  0  0  0  0  0  0  0
    5.0620   -5.3065   21.8648 O   0  0  0  0  0  0  0  0  0  0  0  0
  1  2  1  1  0  0  0
  1  3  1  0  0  0  0
  1  8  1  0  0  0  0
  3  4  1  0  0  0  0
  3 32  1  1  0  0  0
  4  5  1  0  0  0  0
  4 33  1  6  0  0  0
  5  6  1  1  0  0  0
  5  7  1  0  0  0  0
  7  8  1  0  0  0  0
  7  9  1  6  0  0  0
  9 10  1  0  0  0  0
 11 12  1  1  0  0  0
 11 13  1  0  0  0  0
 11 19  1  0  0  0  0
 12 34  1  0  0  0  0
 13 14  1  0  0  0  0
 14 15  1  1  0  0  0
 14 16  1  0  0  0  0
 16  2  1  6  0  0  0
 16 17  1  0  0  0  0
 17 18  1  6  0  0  0
 17 19  1  0  0  0  0
 19 20  1  6  0  0  0
 21 20  1  1  0  0  0
 21 22  1  0  0  0  0
 21 29  1  0  0  0  0
 22 23  1  1  0  0  0
 22 24  1  0  0  0  0
 24 25  1  6  0  0  0
 24 26  1  0  0  0  0
 26 27  1  1  0  0  0
 26 28  1  0  0  0  0
 28 29  1  0  0  0  0
 28 30  1  6  0  0  0
 30 31  1  0  0  0  0
 34 35  2  0  0  0  0
 36 34  1  6  0  0  0
 36 38  1  0  0  0  0
 36 40  1  0  0  0  0
 37 39  1  0  0  0  0
 38 39  1  0  0  0  0
M  END
>  <CHROM.1>
169.06064105,-176.29034641,-71.60633275,-67.56946379,173.63759220,-62.27737844
178.83301248,-73.46532372,67.36527991,65.07868061,1.34390744,-8.90663915
17.86930809,-3.03891316,0.30795239,1.27352074

>  <Name>
ligand

>  <RI>
0

>  <Rbt.Current_Directory>
/home/itssahil/PROJECTS/Mol_Feturizer/New_Systems/rnas/4P20

>  <Rbt.Executable>
rbdock ($Id: //depot/dev/client3/rdock/2013.1/src/exe/rbdock.cxx#4 $)

>  <Rbt.Library>
libRbt.so (2013.1, Build901 2013/11/27)

>  <Rbt.Parameter_File>
/export/apps/rDock/src/rDock_2013.1_src/data/scripts/dock_solv.prm

>  <Rbt.Receptor>
prm/pocket_docking_5.prm

>  <SCORE>
-14.784

>  <SCORE.INTER>
-4.39814

>  <SCORE.INTER.CONST>
1

>  <SCORE.INTER.POLAR>
0

>  <SCORE.INTER.ROT>
10

>  <SCORE.INTER.SOLV>
17.5345

>  <SCORE.INTER.VDW>
-19.0436

>  <SCORE.INTER.norm>
-0.109953

>  <SCORE.INTRA>
-10.3905

>  <SCORE.INTRA.DIHEDRAL>
-25.6009

>  <SCORE.INTRA.DIHEDRAL.0>
28.2802

>  <SCORE.INTRA.POLAR>
0

>  <SCORE.INTRA.POLAR.0>
0

>  <SCORE.INTRA.REPUL>
0

>  <SCORE.INTRA.REPUL.0>
0

>  <SCORE.INTRA.SOLV>
0.894851

>  <SCORE.INTRA.SOLV.lig_0>
-101.981

>  <SCORE.INTRA.VDW>
1.96254

>  <SCORE.INTRA.VDW.0>
-5.72964

>  <SCORE.INTRA.norm>
-0.259762

>  <SCORE.RESTR>
0.00467054

>  <SCORE.RESTR.CAVITY>
0.00467054

>  <SCORE.RESTR.norm>
0.000116763

>  <SCORE.SYSTEM>
0

>  <SCORE.SYSTEM.CONST>
0

>  <SCORE.SYSTEM.DIHEDRAL>
0

>  <SCORE.SYSTEM.SOLV>
0

>  <SCORE.SYSTEM.norm>
0

>  <SCORE.heavy>
40

>  <SCORE.norm>
-0.369599

>  <RMSD>
8.029

$$$$
ligand
 OpenBabel11021811513D
libRbt.so/2013.1/901 2013/11/27
 40 42  0  0  0  0  0  0  0  0999 V2000
   -2.6883   -8.7360   18.0732 C   0  0  2  0  0  0  0  0  0  0  0  0
   -2.1793   -9.9060   17.4137 O   0  0  0  0  0  0  0  0  0  0  0  0
   -3.4097   -9.1275   19.4170 C   0  0  1  0  0  0  0  0  0  0  0  0
   -4.6898   -9.9731   19.1537 C   0  0  2  0  0  0  0  0  0  0  0  0
   -5.6534   -9.1147   18.2746 C   0  0  2  0  0  0  0  0  0  0  0  0
   -6.8660   -9.8596   18.0315 O   0  0  0  0  0  0  0  0  0  0  0  0
   -4.9168   -8.7717   16.9067 C   0  0  2  0  0  0  0  0  0  0  0  0
   -3.6524   -8.0034   17.1915 O   0  0  0  0  0  0  0  0  0  0  0  0
   -5.7716   -7.9150   15.9826 C   0  0  0  0  0  0  0  0  0  0  0  0
   -6.2168   -6.6550   16.6569 N   0  0  0  0  0  0  0  0  0  0  0  0
    1.1400  -10.7199   14.6479 C   0  0  2  0  0  0  0  0  0  0  0  0
    1.9965  -10.6222   13.4889 N   0  0  0  0  0  0  0  0  0  0  0  0
   -0.3274  -11.0956   14.1914 C   0  0  0  0  0  0  0  0  0  0  0  0
   -1.2860  -11.2023   15.4605 C   0  0  2  0  0  0  0  0  0  0  0  0
   -2.6605  -11.5714   15.0313 N   0  0  0  0  0  0  0  0  0  0  0  0
   -1.2795   -9.8074   16.2422 C   0  0  2  0  0  0  0  0  0  0  0  0
    0.2112   -9.4744   16.6767 C   0  0  2  0  0  0  0  0  0  0  0  0
    0.2270   -8.2301   17.3801 O   0  0  0  0  0  0  0  0  0  0  0  0
    1.1502   -9.3757   15.4103 C   0  0  1  0  0  0  0  0  0  0  0  0
    2.5097   -9.0923   15.8250 O   0  0  0  0  0  0  0  0  0  0  0  0
    3.0176   -7.8311   16.1010 C   0  0  2  0  0  0  0  0  0  0  0  0
    4.5839   -7.9368   16.0739 C   0  0  2  0  0  0  0  0  0  0  0  0
    5.0008   -8.4133   14.8353 O   0  0  0  0  0  0  0  0  0  0  0  0
    5.1342   -8.8463   17.2535 C   0  0  1  0  0  0  0  0  0  0  0  0
    6.6274   -8.9230   17.2164 N   0  0  0  0  0  0  0  0  0  0  0  0
    4.6281   -8.2466   18.6374 C   0  0  2  0  0  0  0  0  0  0  0  0
    5.1108   -9.0278   19.7375 O   0  0  0  0  0  0  0  0  0  0  0  0
    3.0513   -8.2030   18.6059 C   0  0  2  0  0  0  0  0  0  0  0  0
    2.5565   -7.3658   17.4342 O   0  0  0  0  0  0  0  0  0  0  0  0
    2.4961   -7.6234   19.8850 C   0  0  0  0  0  0  0  0  0  0  0  0
    1.0573   -7.5730   19.8939 O   0  0  0  0  0  0  0  0  0  0  0  0
   -2.4649   -9.8663   20.2450 O   0  0  0  0  0  0  0  0  0  0  0  0
   -5.2838  -10.2748   20.3553 O   0  0  0  0  0  0  0  0  0  0  0  0
    2.4321  -11.8347   12.8355 C   0  0  0  0  0  0  0  0  0  0  0  0
    2.4496  -12.9254   13.4797 O   0  0  0  0  0  0  0  0  0  0  0  0
    2.8735  -11.7414   11.3425 C   0  0  2  0  0  0  0  0  0  0  0  0
    5.1499   -8.5826   11.4207 N   0  0  0  0  0  0  0  0  0  0  0  0
    3.4051  -10.3141   11.0053 C   0  0  0  0  0  0  0  0  0  0  0  0
    4.7048   -9.9587   11.7467 C   0  0  0  0  0  0  0  0  0  0  0  0
    1.9127  -11.9440   10.5339 O   0  0  0  0  0  0  0  0  0  0  0  0
  1  2  1  6  0  0  0
  1  3  1  0  0  0  0
  1  8  1  0  0  0  0
  3  4  1  0  0  0  0
  3 32  1  1  0  0  0
  4  5  1  0  0  0  0
  4 33  1  1  0  0  0
  5  6  1  6  0  0  0
  5  7  1  0  0  0  0
  7  8  1  0  0  0  0
  7  9  1  6  0  0  0
  9 10  1  0  0  0  0
 11 12  1  6  0  0  0
 11 13  1  0  0  0  0
 11 19  1  0  0  0  0
 12 34  1  0  0  0  0
 13 14  1  0  0  0  0
 14 15  1  6  0  0  0
 14 16  1  0  0  0  0
 16  2  1  1  0  0  0
 16 17  1  0  0  0  0
 17 18  1  6  0  0  0
 17 19  1  0  0  0  0
 19 20  1  1  0  0  0
 21 20  1  1  0  0  0
 21 22  1  0  0  0  0
 21 29  1  0  0  0  0
 22 23  1  6  0  0  0
 22 24  1  0  0  0  0
 24 25  1  1  0  0  0
 24 26  1  0  0  0  0
 26 27  1  1  0  0  0
 26 28  1  0  0  0  0
 28 29  1  0  0  0  0
 28 30  1  1  0  0  0
 30 31  1  0  0  0  0
 34 35  2  0  0  0  0
 36 34  1  1  0  0  0
 36 38  1  0  0  0  0
 36 40  1  0  0  0  0
 37 39  1  0  0  0  0
 38 39  1  0  0  0  0
M  END
>  <CHROM.1>
-170.39397659,-161.33676079,55.69150257,-75.06831924,156.16499798,-162.91925863
-179.76995650,27.01548855,65.91828042,-178.53572516,0.33661017,-9.41156928
16.28856877,-2.72852040,-0.10586302,-1.95508421

>  <Name>
ligand

>  <RI>
0

>  <Rbt.Current_Directory>
/home/itssahil/PROJECTS/Mol_Feturizer/New_Systems/rnas/4P20

>  <Rbt.Executable>
rbdock ($Id: //depot/dev/client3/rdock/2013.1/src/exe/rbdock.cxx#4 $)

>  <Rbt.Library>
libRbt.so (2013.1, Build901 2013/11/27)

>  <Rbt.Parameter_File>
/export/apps/rDock/src/rDock_2013.1_src/data/scripts/dock_solv.prm

>  <Rbt.Receptor>
prm/pocket_docking_4.prm

>  <SCORE>
-12.3793

>  <SCORE.INTER>
-3.70026

>  <SCORE.INTER.CONST>
1

>  <SCORE.INTER.POLAR>
0

>  <SCORE.INTER.ROT>
10

>  <SCORE.INTER.SOLV>
20.402

>  <SCORE.INTER.VDW>
-19.5342

>  <SCORE.INTER.norm>
-0.0925066

>  <SCORE.INTRA>
-8.69812

>  <SCORE.INTRA.DIHEDRAL>
-20.3063

>  <SCORE.INTRA.DIHEDRAL.0>
28.2802

>  <SCORE.INTRA.POLAR>
0

>  <SCORE.INTRA.POLAR.0>
0

>  <SCORE.INTRA.REPUL>
0

>  <SCORE.INTRA.REPUL.0>
0

>  <SCORE.INTRA.SOLV>
0.973938

>  <SCORE.INTRA.SOLV.lig_0>
-101.981

>  <SCORE.INTRA.VDW>
0.968071

>  <SCORE.INTRA.VDW.0>
-5.72964

>  <SCORE.INTRA.norm>
-0.217453

>  <SCORE.RESTR>
0.0190355

>  <SCORE.RESTR.CAVITY>
0.0190355

>  <SCORE.RESTR.norm>
0.000475887

>  <SCORE.SYSTEM>
0

>  <SCORE.SYSTEM.CONST>
0

>  <SCORE.SYSTEM.DIHEDRAL>
0

>  <SCORE.SYSTEM.SOLV>
0

>  <SCORE.SYSTEM.norm>
0

>  <SCORE.heavy>
40

>  <SCORE.norm>
-0.309484

>  <RMSD>
8.030

$$$$
ligand
 OpenBabel11021811513D
libRbt.so/2013.1/901 2013/11/27
 40 42  0  0  0  0  0  0  0  0999 V2000
   -3.3053   -9.7516   16.0465 C   0  0  2  0  0  0  0  0  0  0  0  0
   -2.9577   -8.8022   17.0668 O   0  0  0  0  0  0  0  0  0  0  0  0
   -4.8311   -9.6326   15.6761 C   0  0  1  0  0  0  0  0  0  0  0  0
   -5.7430  -10.0424   16.8692 C   0  0  2  0  0  0  0  0  0  0  0  0
   -5.4085  -11.5229   17.2359 C   0  0  2  0  0  0  0  0  0  0  0  0
   -6.2562  -11.9464   18.3252 O   0  0  0  0  0  0  0  0  0  0  0  0
   -3.8741  -11.6057   17.6486 C   0  0  2  0  0  0  0  0  0  0  0  0
   -3.0151  -11.1501   16.4976 O   0  0  0  0  0  0  0  0  0  0  0  0
   -3.4418  -13.0210   18.0068 C   0  0  0  0  0  0  0  0  0  0  0  0
   -3.9245  -13.4154   19.3676 N   0  0  0  0  0  0  0  0  0  0  0  0
    1.0867   -7.4362   18.1186 C   0  0  2  0  0  0  0  0  0  0  0  0
    2.3954   -7.4116   18.7295 N   0  0  0  0  0  0  0  0  0  0  0  0
   -0.0235   -7.4346   19.2457 C   0  0  0  0  0  0  0  0  0  0  0  0
   -1.4744   -7.4665   18.5863 C   0  0  2  0  0  0  0  0  0  0  0  0
   -2.5164   -7.4484   19.6462 N   0  0  0  0  0  0  0  0  0  0  0  0
   -1.6056   -8.7695   17.6687 C   0  0  2  0  0  0  0  0  0  0  0  0
   -0.4720   -8.7258   16.5574 C   0  0  2  0  0  0  0  0  0  0  0  0
   -0.5834   -9.8854   15.7291 O   0  0  0  0  0  0  0  0  0  0  0  0
    0.9593   -8.6903   17.2248 C   0  0  1  0  0  0  0  0  0  0  0  0
    1.9809   -8.6295   16.1985 O   0  0  0  0  0  0  0  0  0  0  0  0
    3.0244   -9.5317   16.0511 C   0  0  2  0  0  0  0  0  0  0  0  0
    3.6508   -9.3010   14.6300 C   0  0  2  0  0  0  0  0  0  0  0  0
    4.0746   -7.9812   14.5127 O   0  0  0  0  0  0  0  0  0  0  0  0
    2.6369   -9.6834   13.4694 C   0  0  1  0  0  0  0  0  0  0  0  0
    3.2576   -9.4680   12.1258 N   0  0  0  0  0  0  0  0  0  0  0  0
    2.1963  -11.2005   13.6576 C   0  0  2  0  0  0  0  0  0  0  0  0
    1.2879  -11.5986   12.6233 O   0  0  0  0  0  0  0  0  0  0  0  0
    1.5468  -11.3489   15.0876 C   0  0  2  0  0  0  0  0  0  0  0  0
    2.5268  -10.9260   16.1736 O   0  0  0  0  0  0  0  0  0  0  0  0
    1.1200  -12.7740   15.3475 C   0  0  0  0  0  0  0  0  0  0  0  0
    2.1801  -13.7217   15.1222 O   0  0  0  0  0  0  0  0  0  0  0  0
   -5.0979   -8.2582   15.2715 O   0  0  0  0  0  0  0  0  0  0  0  0
   -7.0583   -9.9323   16.4878 O   0  0  0  0  0  0  0  0  0  0  0  0
    2.7594   -8.4648   19.6488 C   0  0  0  0  0  0  0  0  0  0  0  0
    1.8541   -9.1226   20.2426 O   0  0  0  0  0  0  0  0  0  0  0  0
    4.2771   -8.7441   19.8751 C   0  0  2  0  0  0  0  0  0  0  0  0
    3.4320   -5.8772   20.9418 N   0  0  0  0  0  0  0  0  0  0  0  0
    4.8152   -7.9450   21.1020 C   0  0  0  0  0  0  0  0  0  0  0  0
    4.8095   -6.4225   20.8856 C   0  0  0  0  0  0  0  0  0  0  0  0
    4.9949   -8.3769   18.8913 O   0  0  0  0  0  0  0  0  0  0  0  0
  1  2  1  1  0  0  0
  1  3  1  0  0  0  0
  1  8  1  0  0  0  0
  3  4  1  0  0  0  0
  3 32  1  1  0  0  0
  4  5  1  0  0  0  0
  4 33  1  6  0  0  0
  5  6  1  1  0  0  0
  5  7  1  0  0  0  0
  7  8  1  0  0  0  0
  7  9  1  6  0  0  0
  9 10  1  0  0  0  0
 11 12  1  1  0  0  0
 11 13  1  0  0  0  0
 11 19  1  0  0  0  0
 12 34  1  0  0  0  0
 13 14  1  0  0  0  0
 14 15  1  1  0  0  0
 14 16  1  0  0  0  0
 16  2  1  6  0  0  0
 16 17  1  0  0  0  0
 17 18  1  6  0  0  0
 17 19  1  0  0  0  0
 19 20  1  6  0  0  0
 21 20  1  6  0  0  0
 21 22  1  0  0  0  0
 21 29  1  0  0  0  0
 22 23  1  6  0  0  0
 22 24  1  0  0  0  0
 24 25  1  6  0  0  0
 24 26  1  0  0  0  0
 26 27  1  6  0  0  0
 26 28  1  0  0  0  0
 28 29  1  0  0  0  0
 28 30  1  1  0  0  0
 30 31  1  0  0  0  0
 34 35  2  0  0  0  0
 36 34  1  6  0  0  0
 36 38  1  0  0  0  0
 36 40  1  0  0  0  0
 37 39  1  0  0  0  0
 38 39  1  0  0  0  0
M  END
>  <CHROM.1>
175.47256754,170.99801904,-76.38913710,57.89367423,116.37122034,165.81561617
52.59376793,93.21878384,-66.44002291,73.34412957,-0.03574616,-9.61048168
17.04056880,-2.93697120,0.18313035,1.04994975

>  <Name>
ligand

>  <RI>
0

>  <Rbt.Current_Directory>
/home/itssahil/PROJECTS/Mol_Feturizer/New_Systems/rnas/4P20

>  <Rbt.Executable>
rbdock ($Id: //depot/dev/client3/rdock/2013.1/src/exe/rbdock.cxx#4 $)

>  <Rbt.Library>
libRbt.so (2013.1, Build901 2013/11/27)

>  <Rbt.Parameter_File>
/export/apps/rDock/src/rDock_2013.1_src/data/scripts/dock_solv.prm

>  <Rbt.Receptor>
prm/pocket_docking_2.prm

>  <SCORE>
-0.177934

>  <SCORE.INTER>
0.747677

>  <SCORE.INTER.CONST>
1

>  <SCORE.INTER.POLAR>
0

>  <SCORE.INTER.ROT>
10

>  <SCORE.INTER.SOLV>
17.8509

>  <SCORE.INTER.VDW>
-15.7185

>  <SCORE.INTER.norm>
0.0186919

>  <SCORE.INTRA>
-3.0297

>  <SCORE.INTRA.DIHEDRAL>
-16.0126

>  <SCORE.INTRA.DIHEDRAL.0>
28.2802

>  <SCORE.INTRA.POLAR>
0

>  <SCORE.INTRA.POLAR.0>
0

>  <SCORE.INTRA.REPUL>
0

>  <SCORE.INTRA.REPUL.0>
0

>  <SCORE.INTRA.SOLV>
4.70868

>  <SCORE.INTRA.SOLV.lig_0>
-101.981

>  <SCORE.INTRA.VDW>
2.62227

>  <SCORE.INTRA.VDW.0>
-5.72964

>  <SCORE.INTRA.norm>
-0.0757426

>  <SCORE.RESTR>
2.10409

>  <SCORE.RESTR.CAVITY>
2.10409

>  <SCORE.RESTR.norm>
0.0526023

>  <SCORE.SYSTEM>
0

>  <SCORE.SYSTEM.CONST>
0

>  <SCORE.SYSTEM.DIHEDRAL>
0

>  <SCORE.SYSTEM.SOLV>
0

>  <SCORE.SYSTEM.norm>
0

>  <SCORE.heavy>
40

>  <SCORE.norm>
-0.00444834

>  <RMSD>
8.034

$$$$
ligand
 OpenBabel11021811513D
libRbt.so/2013.1/901 2013/11/27
 40 42  0  0  0  0  0  0  0  0999 V2000
   -2.4489   -9.9894   19.7955 C   0  0  2  0  0  0  0  0  0  0  0  0
   -2.2124   -8.6184   19.4386 O   0  0  0  0  0  0  0  0  0  0  0  0
   -3.5566  -10.0882   20.9102 C   0  0  1  0  0  0  0  0  0  0  0  0
   -3.0811   -9.4491   22.2475 C   0  0  2  0  0  0  0  0  0  0  0  0
   -1.8028  -10.2161   22.7122 C   0  0  2  0  0  0  0  0  0  0  0  0
   -1.3473   -9.6655   23.9668 O   0  0  0  0  0  0  0  0  0  0  0  0
   -0.6864  -10.0623   21.5890 C   0  0  2  0  0  0  0  0  0  0  0  0
   -1.1921  -10.6363   20.2909 O   0  0  0  0  0  0  0  0  0  0  0  0
    0.6002  -10.7966   21.9408 C   0  0  0  0  0  0  0  0  0  0  0  0
    1.4891  -10.9511   20.7464 N   0  0  0  0  0  0  0  0  0  0  0  0
    1.4757   -8.8288   17.0546 C   0  0  2  0  0  0  0  0  0  0  0  0
    2.5239   -8.4437   16.1383 N   0  0  0  0  0  0  0  0  0  0  0  0
    0.0882   -8.8453   16.2948 C   0  0  0  0  0  0  0  0  0  0  0  0
   -1.0799   -9.2641   17.2952 C   0  0  2  0  0  0  0  0  0  0  0  0
   -2.3803   -9.2951   16.5758 N   0  0  0  0  0  0  0  0  0  0  0  0
   -1.1195   -8.2335   18.5171 C   0  0  2  0  0  0  0  0  0  0  0  0
    0.2920   -8.2520   19.2446 C   0  0  2  0  0  0  0  0  0  0  0  0
    0.2654   -7.3359   20.3416 O   0  0  0  0  0  0  0  0  0  0  0  0
    1.4398   -7.8392   18.2410 C   0  0  1  0  0  0  0  0  0  0  0  0
    2.7227   -7.8814   18.9142 O   0  0  0  0  0  0  0  0  0  0  0  0
    3.8470   -7.1577   18.5437 C   0  0  2  0  0  0  0  0  0  0  0  0
    5.0643   -7.7295   19.3539 C   0  0  2  0  0  0  0  0  0  0  0  0
    5.2036   -9.0891   19.0945 O   0  0  0  0  0  0  0  0  0  0  0  0
    4.9181   -7.4544   20.9109 C   0  0  1  0  0  0  0  0  0  0  0  0
    6.0931   -7.9956   21.6613 N   0  0  0  0  0  0  0  0  0  0  0  0
    4.7684   -5.8870   21.1391 C   0  0  2  0  0  0  0  0  0  0  0  0
    4.6458   -5.5853   22.5346 O   0  0  0  0  0  0  0  0  0  0  0  0
    3.5103   -5.3909   20.3267 C   0  0  2  0  0  0  0  0  0  0  0  0
    3.6595   -5.7156   18.8465 O   0  0  0  0  0  0  0  0  0  0  0  0
    3.3152   -3.9012   20.4793 C   0  0  0  0  0  0  0  0  0  0  0  0
    2.1029   -3.4329   19.8597 O   0  0  0  0  0  0  0  0  0  0  0  0
   -4.7587   -9.4254   20.4207 O   0  0  0  0  0  0  0  0  0  0  0  0
   -4.0779   -9.5741   23.1846 O   0  0  0  0  0  0  0  0  0  0  0  0
    3.4235   -9.4569   15.6372 C   0  0  0  0  0  0  0  0  0  0  0  0
    3.5882  -10.5306   16.2891 O   0  0  0  0  0  0  0  0  0  0  0  0
    4.1672   -9.1740   14.2958 C   0  0  2  0  0  0  0  0  0  0  0  0
    7.1627   -6.8209   15.0840 N   0  0  0  0  0  0  0  0  0  0  0  0
    5.0073   -7.8628   14.3886 C   0  0  0  0  0  0  0  0  0  0  0  0
    6.3153   -8.0338   15.1790 C   0  0  0  0  0  0  0  0  0  0  0  0
    3.3693   -8.9959   13.3213 O   0  0  0  0  0  0  0  0  0  0  0  0
  1  2  1  1  0  0  0
  1  3  1  0  0  0  0
  1  8  1  0  0  0  0
  3  4  1  0  0  0  0
  3 32  1  6  0  0  0
  4  5  1  0  0  0  0
  4 33  1  1  0  0  0
  5  6  1  1  0  0  0
  5  7  1  0  0  0  0
  7  8  1  0  0  0  0
  7  9  1  1  0  0  0
  9 10  1  0  0  0  0
 11 12  1  6  0  0  0
 11 13  1  0  0  0  0
 11 19  1  0  0  0  0
 12 34  1  0  0  0  0
 13 14  1  0  0  0  0
 14 15  1  6  0  0  0
 14 16  1  0  0  0  0
 16  2  1  1  0  0  0
 16 17  1  0  0  0  0
 17 18  1  1  0  0  0
 17 19  1  0  0  0  0
 19 20  1  1  0  0  0
 21 20  1  1  0  0  0
 21 22  1  0  0  0  0
 21 29  1  0  0  0  0
 22 23  1  1  0  0  0
 22 24  1  0  0  0  0
 24 25  1  1  0  0  0
 24 26  1  0  0  0  0
 26 27  1  1  0  0  0
 26 28  1  0  0  0  0
 28 29  1  0  0  0  0
 28 30  1  6  0  0  0
 30 31  1  0  0  0  0
 34 35  2  0  0  0  0
 36 34  1  1  0  0  0
 36 38  1  0  0  0  0
 36 40  1  0  0  0  0
 37 39  1  0  0  0  0
 38 39  1  0  0  0  0
M  END
>  <CHROM.1>
173.44572514,42.60703939,164.84973003,-104.76436407,84.56689675,-168.54506804
-174.29302876,57.58008439,76.64067076,172.26159667,1.51392890,-8.33400901
19.09979909,2.72754711,0.42474892,1.26524674

>  <Name>
ligand

>  <RI>
0

>  <Rbt.Current_Directory>
/home/itssahil/PROJECTS/Mol_Feturizer/New_Systems/rnas/4P20

>  <Rbt.Executable>
rbdock ($Id: //depot/dev/client3/rdock/2013.1/src/exe/rbdock.cxx#4 $)

>  <Rbt.Library>
libRbt.so (2013.1, Build901 2013/11/27)

>  <Rbt.Parameter_File>
/export/apps/rDock/src/rDock_2013.1_src/data/scripts/dock_solv.prm

>  <Rbt.Receptor>
prm/pocket_docking_6.prm

>  <SCORE>
-14.1767

>  <SCORE.INTER>
-4.69759

>  <SCORE.INTER.CONST>
1

>  <SCORE.INTER.POLAR>
0

>  <SCORE.INTER.ROT>
10

>  <SCORE.INTER.SOLV>
26.6161

>  <SCORE.INTER.VDW>
-22.2704

>  <SCORE.INTER.norm>
-0.11744

>  <SCORE.INTRA>
-9.47912

>  <SCORE.INTRA.DIHEDRAL>
-19.5885

>  <SCORE.INTRA.DIHEDRAL.0>
28.2802

>  <SCORE.INTRA.POLAR>
0

>  <SCORE.INTRA.POLAR.0>
0

>  <SCORE.INTRA.REPUL>
0

>  <SCORE.INTRA.REPUL.0>
0

>  <SCORE.INTRA.SOLV>
1.76961

>  <SCORE.INTRA.SOLV.lig_0>
-101.981

>  <SCORE.INTRA.VDW>
-0.569668

>  <SCORE.INTRA.VDW.0>
-5.72964

>  <SCORE.INTRA.norm>
-0.236978

>  <SCORE.RESTR>
0

>  <SCORE.RESTR.CAVITY>
0

>  <SCORE.RESTR.norm>
0

>  <SCORE.SYSTEM>
0

>  <SCORE.SYSTEM.CONST>
0

>  <SCORE.SYSTEM.DIHEDRAL>
0

>  <SCORE.SYSTEM.SOLV>
0

>  <SCORE.SYSTEM.norm>
0

>  <SCORE.heavy>
40

>  <SCORE.norm>
-0.354418

>  <RMSD>
8.055

$$$$
ligand
 OpenBabel11021811513D
libRbt.so/2013.1/901 2013/11/27
 40 42  0  0  0  0  0  0  0  0999 V2000
   -2.4527   -9.8454   16.2541 C   0  0  2  0  0  0  0  0  0  0  0  0
   -2.1161   -8.9020   17.2835 O   0  0  0  0  0  0  0  0  0  0  0  0
   -4.0048   -9.8455   15.9890 C   0  0  1  0  0  0  0  0  0  0  0  0
   -4.7959  -10.3682   17.2234 C   0  0  2  0  0  0  0  0  0  0  0  0
   -4.3156  -11.8255   17.5129 C   0  0  2  0  0  0  0  0  0  0  0  0
   -5.0488  -12.3532   18.6391 O   0  0  0  0  0  0  0  0  0  0  0  0
   -2.7550  -11.7901   17.8210 C   0  0  2  0  0  0  0  0  0  0  0  0
   -2.0174  -11.2274   16.6337 O   0  0  0  0  0  0  0  0  0  0  0  0
   -2.1834  -13.1738   18.0979 C   0  0  0  0  0  0  0  0  0  0  0  0
   -0.7310  -13.1074   18.4538 N   0  0  0  0  0  0  0  0  0  0  0  0
    1.8153   -7.3282   18.4653 C   0  0  2  0  0  0  0  0  0  0  0  0
    3.1362   -7.2720   19.0472 N   0  0  0  0  0  0  0  0  0  0  0  0
    0.7495   -7.6151   19.5986 C   0  0  0  0  0  0  0  0  0  0  0  0
   -0.7138   -7.6849   18.9703 C   0  0  2  0  0  0  0  0  0  0  0  0
   -1.7157   -7.9381   20.0388 N   0  0  0  0  0  0  0  0  0  0  0  0
   -0.7532   -8.8321   17.8571 C   0  0  2  0  0  0  0  0  0  0  0  0
    0.3322   -8.5009   16.7462 C   0  0  2  0  0  0  0  0  0  0  0  0
    0.3022   -9.5195   15.7438 O   0  0  0  0  0  0  0  0  0  0  0  0
    1.7759   -8.4309   17.3833 C   0  0  1  0  0  0  0  0  0  0  0  0
    2.7512   -8.1074   16.3611 O   0  0  0  0  0  0  0  0  0  0  0  0
    4.1277   -8.1160   16.5345 C   0  0  2  0  0  0  0  0  0  0  0  0
    4.7833   -8.0575   15.1091 C   0  0  2  0  0  0  0  0  0  0  0  0
    4.3439   -6.9217   14.4367 O   0  0  0  0  0  0  0  0  0  0  0  0
    4.4871   -9.3721   14.2692 C   0  0  1  0  0  0  0  0  0  0  0  0
    5.1306   -9.3007   12.9210 N   0  0  0  0  0  0  0  0  0  0  0  0
    5.0164  -10.6294   15.0880 C   0  0  2  0  0  0  0  0  0  0  0  0
    4.7830  -11.8435   14.3634 O   0  0  0  0  0  0  0  0  0  0  0  0
    4.2916  -10.6428   16.4892 C   0  0  2  0  0  0  0  0  0  0  0  0
    4.5538   -9.3481   17.2465 O   0  0  0  0  0  0  0  0  0  0  0  0
    4.7605  -11.8029   17.3347 C   0  0  0  0  0  0  0  0  0  0  0  0
    4.3824  -13.0792   16.7862 O   0  0  0  0  0  0  0  0  0  0  0  0
   -4.4117   -8.4869   15.6533 O   0  0  0  0  0  0  0  0  0  0  0  0
   -6.1388  -10.3588   16.9332 O   0  0  0  0  0  0  0  0  0  0  0  0
    3.4712   -6.1702   19.9194 C   0  0  0  0  0  0  0  0  0  0  0  0
    2.8275   -5.0823   19.8348 O   0  0  0  0  0  0  0  0  0  0  0  0
    4.6338   -6.3735   20.9389 C   0  0  2  0  0  0  0  0  0  0  0  0
    5.3043   -9.3979   21.3579 N   0  0  0  0  0  0  0  0  0  0  0  0
    4.1910   -7.2993   22.1138 C   0  0  0  0  0  0  0  0  0  0  0  0
    4.0054   -8.7671   21.6942 C   0  0  0  0  0  0  0  0  0  0  0  0
    5.0017   -5.2857   21.4860 O   0  0  0  0  0  0  0  0  0  0  0  0
  1  2  1  1  0  0  0
  1  3  1  0  0  0  0
  1  8  1  0  0  0  0
  3  4  1  0  0  0  0
  3 32  1  1  0  0  0
  4  5  1  0  0  0  0
  4 33  1  6  0  0  0
  5  6  1  1  0  0  0
  5  7  1  0  0  0  0
  7  8  1  0  0  0  0
  7  9  1  6  0  0  0
  9 10  1  0  0  0  0
 11 12  1  1  0  0  0
 11 13  1  0  0  0  0
 11 19  1  0  0  0  0
 12 34  1  0  0  0  0
 13 14  1  0  0  0  0
 14 15  1  1  0  0  0
 14 16  1  0  0  0  0
 16  2  1  6  0  0  0
 16 17  1  0  0  0  0
 17 18  1  6  0  0  0
 17 19  1  0  0  0  0
 19 20  1  6  0  0  0
 21 20  1  6  0  0  0
 21 22  1  0  0  0  0
 21 29  1  0  0  0  0
 22 23  1  6  0  0  0
 22 24  1  0  0  0  0
 24 25  1  6  0  0  0
 24 26  1  0  0  0  0
 26 27  1  6  0  0  0
 26 28  1  0  0  0  0
 28 29  1  0  0  0  0
 28 30  1  1  0  0  0
 30 31  1  0  0  0  0
 34 35  2  0  0  0  0
 36 34  1  6  0  0  0
 36 38  1  0  0  0  0
 36 40  1  0  0  0  0
 37 39  1  0  0  0  0
 38 39  1  0  0  0  0
M  END
>  <CHROM.1>
171.51521281,179.96811536,-177.06801711,-68.63621658,67.84418835,166.21148814
-66.01515517,-73.71771853,70.56526913,68.75940622,1.15378006,-9.26253705
17.59736865,-2.90018913,0.18324014,0.93915776

>  <Name>
ligand

>  <RI>
0

>  <Rbt.Current_Directory>
/home/itssahil/PROJECTS/Mol_Feturizer/New_Systems/rnas/4P20

>  <Rbt.Executable>
rbdock ($Id: //depot/dev/client3/rdock/2013.1/src/exe/rbdock.cxx#4 $)

>  <Rbt.Library>
libRbt.so (2013.1, Build901 2013/11/27)

>  <Rbt.Parameter_File>
/export/apps/rDock/src/rDock_2013.1_src/data/scripts/dock_solv.prm

>  <Rbt.Receptor>
prm/pocket_docking_5.prm

>  <SCORE>
-13.4187

>  <SCORE.INTER>
-2.26233

>  <SCORE.INTER.CONST>
1

>  <SCORE.INTER.POLAR>
0

>  <SCORE.INTER.ROT>
10

>  <SCORE.INTER.SOLV>
16.2475

>  <SCORE.INTER.VDW>
-17.1907

>  <SCORE.INTER.norm>
-0.0565583

>  <SCORE.INTRA>
-11.1564

>  <SCORE.INTRA.DIHEDRAL>
-24.8364

>  <SCORE.INTRA.DIHEDRAL.0>
28.2802

>  <SCORE.INTRA.POLAR>
0

>  <SCORE.INTRA.POLAR.0>
0

>  <SCORE.INTRA.REPUL>
0

>  <SCORE.INTRA.REPUL.0>
0

>  <SCORE.INTRA.SOLV>
-0.199582

>  <SCORE.INTRA.SOLV.lig_0>
-101.981

>  <SCORE.INTRA.VDW>
1.36159

>  <SCORE.INTRA.VDW.0>
-5.72964

>  <SCORE.INTRA.norm>
-0.27891

>  <SCORE.RESTR>
0

>  <SCORE.RESTR.CAVITY>
0

>  <SCORE.RESTR.norm>
0

>  <SCORE.SYSTEM>
0

>  <SCORE.SYSTEM.CONST>
0

>  <SCORE.SYSTEM.DIHEDRAL>
0

>  <SCORE.SYSTEM.SOLV>
0

>  <SCORE.SYSTEM.norm>
0

>  <SCORE.heavy>
40

>  <SCORE.norm>
-0.335468

>  <RMSD>
8.074

$$$$
ligand
 OpenBabel11021811513D
libRbt.so/2013.1/901 2013/11/27
 40 42  0  0  0  0  0  0  0  0999 V2000
    1.7502  -12.8299   13.2942 C   0  0  2  0  0  0  0  0  0  0  0  0
    1.2826  -13.8746   14.1619 O   0  0  0  0  0  0  0  0  0  0  0  0
    2.8030  -13.3927   12.2674 C   0  0  1  0  0  0  0  0  0  0  0  0
    4.1009  -13.8694   12.9823 C   0  0  2  0  0  0  0  0  0  0  0  0
    4.7079  -12.6419   13.7326 C   0  0  2  0  0  0  0  0  0  0  0  0
    5.9307  -13.0419   14.3879 O   0  0  0  0  0  0  0  0  0  0  0  0
    3.6421  -12.1220   14.7934 C   0  0  2  0  0  0  0  0  0  0  0  0
    2.3754  -11.7207   14.0831 O   0  0  0  0  0  0  0  0  0  0  0  0
    4.1344  -10.9068   15.5675 C   0  0  0  0  0  0  0  0  0  0  0  0
    4.5081   -9.7849   14.6498 N   0  0  0  0  0  0  0  0  0  0  0  0
   -2.1547  -14.0507   16.8976 C   0  0  2  0  0  0  0  0  0  0  0  0
   -2.9993  -13.7737   18.0362 N   0  0  0  0  0  0  0  0  0  0  0  0
   -0.7685  -14.6284   17.3950 C   0  0  0  0  0  0  0  0  0  0  0  0
    0.1769  -14.9347   16.1487 C   0  0  2  0  0  0  0  0  0  0  0  0
    1.4726  -15.4927   16.6169 N   0  0  0  0  0  0  0  0  0  0  0  0
    0.3952  -13.5895   15.3121 C   0  0  2  0  0  0  0  0  0  0  0  0
   -1.0209  -13.0494   14.8380 C   0  0  2  0  0  0  0  0  0  0  0  0
   -0.8359  -11.8482   14.0856 O   0  0  0  0  0  0  0  0  0  0  0  0
   -1.9481  -12.7543   16.0824 C   0  0  1  0  0  0  0  0  0  0  0  0
   -3.2425  -12.2826   15.6323 O   0  0  0  0  0  0  0  0  0  0  0  0
   -3.4826  -11.0605   15.0210 C   0  0  2  0  0  0  0  0  0  0  0  0
   -3.1541   -9.9368   16.0672 C   0  0  2  0  0  0  0  0  0  0  0  0
   -1.8359  -10.0630   16.4931 O   0  0  0  0  0  0  0  0  0  0  0  0
   -4.1592   -9.9630   17.2962 C   0  0  1  0  0  0  0  0  0  0  0  0
   -3.8362   -8.8777   18.2732 N   0  0  0  0  0  0  0  0  0  0  0  0
   -5.6433   -9.8098   16.7435 C   0  0  2  0  0  0  0  0  0  0  0  0
   -6.5899   -9.8148   17.8193 O   0  0  0  0  0  0  0  0  0  0  0  0
   -5.9131  -10.9877   15.7293 C   0  0  2  0  0  0  0  0  0  0  0  0
   -4.9014  -10.9644   14.5915 O   0  0  0  0  0  0  0  0  0  0  0  0
   -7.3026  -10.8967   15.1449 C   0  0  0  0  0  0  0  0  0  0  0  0
   -8.3340  -11.0813   16.1322 O   0  0  0  0  0  0  0  0  0  0  0  0
    2.1853  -14.4904   11.5341 O   0  0  0  0  0  0  0  0  0  0  0  0
    4.9861  -14.3371   12.0413 O   0  0  0  0  0  0  0  0  0  0  0  0
   -3.4553  -14.8736   18.8544 C   0  0  0  0  0  0  0  0  0  0  0  0
   -3.5012  -16.0426   18.3684 O   0  0  0  0  0  0  0  0  0  0  0  0
   -3.8821  -14.5637   20.3221 C   0  0  2  0  0  0  0  0  0  0  0  0
   -0.4663  -13.2924   21.6935 N   0  0  0  0  0  0  0  0  0  0  0  0
   -2.8425  -13.6347   21.0219 C   0  0  0  0  0  0  0  0  0  0  0  0
   -1.4080  -14.1872   20.9789 C   0  0  0  0  0  0  0  0  0  0  0  0
   -3.9430  -15.6081   21.0456 O   0  0  0  0  0  0  0  0  0  0  0  0
  1  2  1  1  0  0  0
  1  3  1  0  0  0  0
  1  8  1  0  0  0  0
  3  4  1  0  0  0  0
  3 32  1  1  0  0  0
  4  5  1  0  0  0  0
  4 33  1  6  0  0  0
  5  6  1  1  0  0  0
  5  7  1  0  0  0  0
  7  8  1  0  0  0  0
  7  9  1  6  0  0  0
  9 10  1  0  0  0  0
 11 12  1  1  0  0  0
 11 13  1  0  0  0  0
 11 19  1  0  0  0  0
 12 34  1  0  0  0  0
 13 14  1  0  0  0  0
 14 15  1  1  0  0  0
 14 16  1  0  0  0  0
 16  2  1  6  0  0  0
 16 17  1  0  0  0  0
 17 18  1  1  0  0  0
 17 19  1  0  0  0  0
 19 20  1  6  0  0  0
 21 20  1  1  0  0  0
 21 22  1  0  0  0  0
 21 29  1  0  0  0  0
 22 23  1  1  0  0  0
 22 24  1  0  0  0  0
 24 25  1  1  0  0  0
 24 26  1  0  0  0  0
 26 27  1  1  0  0  0
 26 28  1  0  0  0  0
 28 29  1  0  0  0  0
 28 30  1  6  0  0  0
 30 31  1  0  0  0  0
 34 35  2  0  0  0  0
 36 34  1  6  0  0  0
 36 38  1  0  0  0  0
 36 40  1  0  0  0  0
 37 39  1  0  0  0  0
 38 39  1  0  0  0  0
M  END
>  <CHROM.1>
173.41182992,-174.58239506,56.68967316,-65.50111255,171.25896708,-64.53684082
-65.10424076,-45.60055083,-54.79321213,-178.15682730,-1.08543681,-12.62689293
16.12951794,0.28726427,0.35884442,-0.96021531

>  <Name>
ligand

>  <RI>
0

>  <Rbt.Current_Directory>
/home/itssahil/PROJECTS/Mol_Feturizer/New_Systems/rnas/4P20

>  <Rbt.Executable>
rbdock ($Id: //depot/dev/client3/rdock/2013.1/src/exe/rbdock.cxx#4 $)

>  <Rbt.Library>
libRbt.so (2013.1, Build901 2013/11/27)

>  <Rbt.Parameter_File>
/export/apps/rDock/src/rDock_2013.1_src/data/scripts/dock_solv.prm

>  <Rbt.Receptor>
prm/pocket_docking_7.prm

>  <SCORE>
-10.0693

>  <SCORE.INTER>
0.404365

>  <SCORE.INTER.CONST>
1

>  <SCORE.INTER.POLAR>
0

>  <SCORE.INTER.ROT>
10

>  <SCORE.INTER.SOLV>
14.3375

>  <SCORE.INTER.VDW>
-14.7762

>  <SCORE.INTER.norm>
0.0101091

>  <SCORE.INTRA>
-10.4737

>  <SCORE.INTRA.DIHEDRAL>
-26.146

>  <SCORE.INTRA.DIHEDRAL.0>
28.2802

>  <SCORE.INTRA.POLAR>
0

>  <SCORE.INTRA.POLAR.0>
0

>  <SCORE.INTRA.REPUL>
0

>  <SCORE.INTRA.REPUL.0>
0

>  <SCORE.INTRA.SOLV>
0.158054

>  <SCORE.INTRA.SOLV.lig_0>
-101.981

>  <SCORE.INTRA.VDW>
2.5203

>  <SCORE.INTRA.VDW.0>
-5.72964

>  <SCORE.INTRA.norm>
-0.261842

>  <SCORE.RESTR>
0

>  <SCORE.RESTR.CAVITY>
0

>  <SCORE.RESTR.norm>
0

>  <SCORE.SYSTEM>
0

>  <SCORE.SYSTEM.CONST>
0

>  <SCORE.SYSTEM.DIHEDRAL>
0

>  <SCORE.SYSTEM.SOLV>
0

>  <SCORE.SYSTEM.norm>
0

>  <SCORE.heavy>
40

>  <SCORE.norm>
-0.251733

>  <RMSD>
8.078

$$$$
ligand
 OpenBabel11021811513D
libRbt.so/2013.1/901 2013/11/27
 40 42  0  0  0  0  0  0  0  0999 V2000
   -1.1381   -8.7728   16.9675 C   0  0  2  0  0  0  0  0  0  0  0  0
    0.0213   -8.6871   17.8110 O   0  0  0  0  0  0  0  0  0  0  0  0
   -2.3808   -8.1027   17.6647 C   0  0  1  0  0  0  0  0  0  0  0  0
   -2.8105   -8.8834   18.9409 C   0  0  2  0  0  0  0  0  0  0  0  0
   -3.1767  -10.3380   18.5069 C   0  0  2  0  0  0  0  0  0  0  0  0
   -3.6061  -11.0861   19.6648 O   0  0  0  0  0  0  0  0  0  0  0  0
   -1.8920  -11.0057   17.8472 C   0  0  2  0  0  0  0  0  0  0  0  0
   -1.4619  -10.2000   16.6488 O   0  0  0  0  0  0  0  0  0  0  0  0
   -2.1536  -12.4276   17.3696 C   0  0  0  0  0  0  0  0  0  0  0  0
   -2.3595  -13.3643   18.5189 N   0  0  0  0  0  0  0  0  0  0  0  0
    4.2260   -9.5541   16.8629 C   0  0  2  0  0  0  0  0  0  0  0  0
    5.4285  -10.3052   16.5869 N   0  0  0  0  0  0  0  0  0  0  0  0
    3.6889   -9.9255   18.3038 C   0  0  0  0  0  0  0  0  0  0  0  0
    2.3582   -9.1072   18.6208 C   0  0  2  0  0  0  0  0  0  0  0  0
    1.8641   -9.4451   19.9814 N   0  0  0  0  0  0  0  0  0  0  0  0
    1.2595   -9.4397   17.5076 C   0  0  2  0  0  0  0  0  0  0  0  0
    1.8448   -9.0522   16.0831 C   0  0  2  0  0  0  0  0  0  0  0  0
    0.8678   -9.3425   15.0809 O   0  0  0  0  0  0  0  0  0  0  0  0
    3.1646   -9.8671   15.7842 C   0  0  1  0  0  0  0  0  0  0  0  0
    3.6970   -9.4869   14.4909 O   0  0  0  0  0  0  0  0  0  0  0  0
    4.7548  -10.1099   13.8445 C   0  0  2  0  0  0  0  0  0  0  0  0
    4.9396   -9.4043   12.4541 C   0  0  2  0  0  0  0  0  0  0  0  0
    5.1651   -8.0448   12.6440 O   0  0  0  0  0  0  0  0  0  0  0  0
    3.6967   -9.6516   11.4973 C   0  0  1  0  0  0  0  0  0  0  0  0
    3.8990   -8.9820   10.1754 N   0  0  0  0  0  0  0  0  0  0  0  0
    3.4967  -11.2197   11.3176 C   0  0  2  0  0  0  0  0  0  0  0  0
    2.3908  -11.4954   10.4489 O   0  0  0  0  0  0  0  0  0  0  0  0
    3.2830  -11.8539   12.7463 C   0  0  2  0  0  0  0  0  0  0  0  0
    4.4685  -11.5550   13.6539 O   0  0  0  0  0  0  0  0  0  0  0  0
    3.1053  -13.3509   12.6575 C   0  0  0  0  0  0  0  0  0  0  0  0
    4.2906  -14.0249   12.1954 O   0  0  0  0  0  0  0  0  0  0  0  0
   -2.0333   -6.7264   17.9948 O   0  0  0  0  0  0  0  0  0  0  0  0
   -3.9026   -8.2646   19.4996 O   0  0  0  0  0  0  0  0  0  0  0  0
    6.7113   -9.6682   16.7758 C   0  0  0  0  0  0  0  0  0  0  0  0
    6.7969   -8.4046   16.7466 O   0  0  0  0  0  0  0  0  0  0  0  0
    7.9537  -10.5826   17.0054 C   0  0  2  0  0  0  0  0  0  0  0  0
    6.9995  -12.2493   19.3910 N   0  0  0  0  0  0  0  0  0  0  0  0
    8.4732  -10.4613   18.4713 C   0  0  0  0  0  0  0  0  0  0  0  0
    7.4151  -10.8323   19.5238 C   0  0  0  0  0  0  0  0  0  0  0  0
    8.9406  -10.2623   16.2695 O   0  0  0  0  0  0  0  0  0  0  0  0
  1  2  1  1  0  0  0
  1  3  1  0  0  0  0
  1  8  1  0  0  0  0
  3  4  1  0  0  0  0
  3 32  1  1  0  0  0
  4  5  1  0  0  0  0
  4 33  1  6  0  0  0
  5  6  1  1  0  0  0
  5  7  1  0  0  0  0
  7  8  1  0  0  0  0
  7  9  1  6  0  0  0
  9 10  1  0  0  0  0
 11 12  1  6  0  0  0
 11 13  1  0  0  0  0
 11 19  1  0  0  0  0
 12 34  1  0  0  0  0
 13 14  1  0  0  0  0
 14 15  1  1  0  0  0
 14 16  1  0  0  0  0
 16  2  1  1  0  0  0
 16 17  1  0  0  0  0
 17 18  1  6  0  0  0
 17 19  1  0  0  0  0
 19 20  1  6  0  0  0
 21 20  1  6  0  0  0
 21 22  1  0  0  0  0
 21 29  1  0  0  0  0
 22 23  1  1  0  0  0
 22 24  1  0  0  0  0
 24 25  1  6  0  0  0
 24 26  1  0  0  0  0
 26 27  1  6  0  0  0
 26 28  1  0  0  0  0
 28 29  1  0  0  0  0
 28 30  1  6  0  0  0
 30 31  1  0  0  0  0
 34 35  2  0  0  0  0
 36 34  1  1  0  0  0
 36 38  1  0  0  0  0
 36 40  1  0  0  0  0
 37 39  1  0  0  0  0
 38 39  1  0  0  0  0
M  END
>  <CHROM.1>
169.12673631,179.08300702,-69.02335828,-98.63175150,67.91340377,177.58364989
65.74090405,-110.22399573,58.56060817,62.52758224,2.43730803,-10.13467050
16.09682641,2.69694445,-0.03037577,1.42769844

>  <Name>
ligand

>  <RI>
0

>  <Rbt.Current_Directory>
/home/itssahil/PROJECTS/Mol_Feturizer/New_Systems/rnas/4P20

>  <Rbt.Executable>
rbdock ($Id: //depot/dev/client3/rdock/2013.1/src/exe/rbdock.cxx#4 $)

>  <Rbt.Library>
libRbt.so (2013.1, Build901 2013/11/27)

>  <Rbt.Parameter_File>
/export/apps/rDock/src/rDock_2013.1_src/data/scripts/dock_solv.prm

>  <Rbt.Receptor>
prm/pocket_docking_8.prm

>  <SCORE>
-11.7925

>  <SCORE.INTER>
-1.60208

>  <SCORE.INTER.CONST>
1

>  <SCORE.INTER.POLAR>
0

>  <SCORE.INTER.ROT>
10

>  <SCORE.INTER.SOLV>
17.2911

>  <SCORE.INTER.VDW>
-17.0984

>  <SCORE.INTER.norm>
-0.040052

>  <SCORE.INTRA>
-10.1904

>  <SCORE.INTRA.DIHEDRAL>
-23.7101

>  <SCORE.INTRA.DIHEDRAL.0>
28.2802

>  <SCORE.INTRA.POLAR>
0

>  <SCORE.INTRA.POLAR.0>
0

>  <SCORE.INTRA.REPUL>
0

>  <SCORE.INTRA.REPUL.0>
0

>  <SCORE.INTRA.SOLV>
1.18563

>  <SCORE.INTRA.SOLV.lig_0>
-101.981

>  <SCORE.INTRA.VDW>
1.07184

>  <SCORE.INTRA.VDW.0>
-5.72964

>  <SCORE.INTRA.norm>
-0.25476

>  <SCORE.RESTR>
0

>  <SCORE.RESTR.CAVITY>
0

>  <SCORE.RESTR.norm>
0

>  <SCORE.SYSTEM>
0

>  <SCORE.SYSTEM.CONST>
0

>  <SCORE.SYSTEM.DIHEDRAL>
0

>  <SCORE.SYSTEM.SOLV>
0

>  <SCORE.SYSTEM.norm>
0

>  <SCORE.heavy>
40

>  <SCORE.norm>
-0.294812

>  <RMSD>
8.083

$$$$
ligand
 OpenBabel11021811513D
libRbt.so/2013.1/901 2013/11/27
 40 42  0  0  0  0  0  0  0  0999 V2000
   -4.4840   -7.7733   18.0363 C   0  0  2  0  0  0  0  0  0  0  0  0
   -3.5129   -8.3583   17.1545 O   0  0  0  0  0  0  0  0  0  0  0  0
   -5.0960   -8.8668   18.9897 C   0  0  1  0  0  0  0  0  0  0  0  0
   -5.9242   -9.9190   18.1959 C   0  0  2  0  0  0  0  0  0  0  0  0
   -7.0761   -9.1616   17.4627 C   0  0  2  0  0  0  0  0  0  0  0  0
   -7.8828  -10.1124   16.7349 O   0  0  0  0  0  0  0  0  0  0  0  0
   -6.4295   -8.0955   16.4744 C   0  0  2  0  0  0  0  0  0  0  0  0
   -5.5874   -7.1234   17.2593 O   0  0  0  0  0  0  0  0  0  0  0  0
   -7.4773   -7.2862   15.7225 C   0  0  0  0  0  0  0  0  0  0  0  0
   -6.8456   -6.2705   14.8225 N   0  0  0  0  0  0  0  0  0  0  0  0
    0.8622   -8.5976   17.5166 C   0  0  2  0  0  0  0  0  0  0  0  0
    2.1648   -8.9818   18.0085 N   0  0  0  0  0  0  0  0  0  0  0  0
    0.0511   -7.8806   18.6701 C   0  0  0  0  0  0  0  0  0  0  0  0
   -1.3917   -7.4547   18.1430 C   0  0  2  0  0  0  0  0  0  0  0  0
   -2.1462   -6.7665   19.2232 N   0  0  0  0  0  0  0  0  0  0  0  0
   -2.1694   -8.7554   17.6328 C   0  0  2  0  0  0  0  0  0  0  0  0
   -1.3170   -9.4387   16.4802 C   0  0  2  0  0  0  0  0  0  0  0  0
   -2.0062  -10.6011   16.0146 O   0  0  0  0  0  0  0  0  0  0  0  0
    0.1108   -9.8515   17.0153 C   0  0  1  0  0  0  0  0  0  0  0  0
    0.8829  -10.4540   15.9468 O   0  0  0  0  0  0  0  0  0  0  0  0
    1.9820  -11.2826   16.1204 C   0  0  2  0  0  0  0  0  0  0  0  0
    2.5769  -11.5816   14.6985 C   0  0  2  0  0  0  0  0  0  0  0  0
    2.9117  -10.3869   14.0692 O   0  0  0  0  0  0  0  0  0  0  0  0
    1.5783  -12.4382   13.8095 C   0  0  1  0  0  0  0  0  0  0  0  0
    2.1694  -12.7219   12.4653 N   0  0  0  0  0  0  0  0  0  0  0  0
    1.2407  -13.7883   14.5805 C   0  0  2  0  0  0  0  0  0  0  0  0
    0.3497  -14.6049   13.8106 O   0  0  0  0  0  0  0  0  0  0  0  0
    0.6173  -13.4114   15.9799 C   0  0  2  0  0  0  0  0  0  0  0  0
    1.5786  -12.5481   16.7856 O   0  0  0  0  0  0  0  0  0  0  0  0
    0.2881  -14.6483   16.7813 C   0  0  0  0  0  0  0  0  0  0  0  0
    1.4550  -15.4249   17.1097 O   0  0  0  0  0  0  0  0  0  0  0  0
   -4.0040   -9.5078   19.7112 O   0  0  0  0  0  0  0  0  0  0  0  0
   -6.4434  -10.8382   19.0752 O   0  0  0  0  0  0  0  0  0  0  0  0
    3.1388   -7.9528   18.2903 C   0  0  0  0  0  0  0  0  0  0  0  0
    3.0418   -6.8229   17.7258 O   0  0  0  0  0  0  0  0  0  0  0  0
    4.2876   -8.2891   19.2902 C   0  0  2  0  0  0  0  0  0  0  0  0
    4.8279   -8.7007   22.2730 N   0  0  0  0  0  0  0  0  0  0  0  0
    4.4538   -7.1576   20.3511 C   0  0  0  0  0  0  0  0  0  0  0  0
    5.3763   -7.5489   21.5176 C   0  0  0  0  0  0  0  0  0  0  0  0
    5.4204   -8.3868   18.7200 O   0  0  0  0  0  0  0  0  0  0  0  0
  1  2  1  6  0  0  0
  1  3  1  0  0  0  0
  1  8  1  0  0  0  0
  3  4  1  0  0  0  0
  3 32  1  6  0  0  0
  4  5  1  0  0  0  0
  4 33  1  1  0  0  0
  5  6  1  6  0  0  0
  5  7  1  0  0  0  0
  7  8  1  0  0  0  0
  7  9  1  1  0  0  0
  9 10  1  0  0  0  0
 11 12  1  1  0  0  0
 11 13  1  0  0  0  0
 11 19  1  0  0  0  0
 12 34  1  0  0  0  0
 13 14  1  0  0  0  0
 14 15  1  1  0  0  0
 14 16  1  0  0  0  0
 16  2  1  6  0  0  0
 16 17  1  0  0  0  0
 17 18  1  1  0  0  0
 17 19  1  0  0  0  0
 19 20  1  6  0  0  0
 21 20  1  6  0  0  0
 21 22  1  0  0  0  0
 21 29  1  0  0  0  0
 22 23  1  6  0  0  0
 22 24  1  0  0  0  0
 24 25  1  6  0  0  0
 24 26  1  0  0  0  0
 26 27  1  6  0  0  0
 26 28  1  0  0  0  0
 28 29  1  0  0  0  0
 28 30  1  1  0  0  0
 30 31  1  0  0  0  0
 34 35  2  0  0  0  0
 36 34  1  6  0  0  0
 36 38  1  0  0  0  0
 36 40  1  0  0  0  0
 37 39  1  0  0  0  0
 38 39  1  0  0  0  0
M  END
>  <CHROM.1>
-74.45609907,-62.66765729,178.74800667,-70.01573642,80.72852724,-174.63753756
63.31632523,-132.13401107,168.85142092,-62.18253514,-0.72386332,-9.77581997
17.20898839,-3.02620677,0.13372077,-2.48072028

>  <Name>
ligand

>  <RI>
0

>  <Rbt.Current_Directory>
/home/itssahil/PROJECTS/Mol_Feturizer/New_Systems/rnas/4P20

>  <Rbt.Executable>
rbdock ($Id: //depot/dev/client3/rdock/2013.1/src/exe/rbdock.cxx#4 $)

>  <Rbt.Library>
libRbt.so (2013.1, Build901 2013/11/27)

>  <Rbt.Parameter_File>
/export/apps/rDock/src/rDock_2013.1_src/data/scripts/dock_solv.prm

>  <Rbt.Receptor>
prm/pocket_docking_5.prm

>  <SCORE>
-11.526

>  <SCORE.INTER>
-2.91846

>  <SCORE.INTER.CONST>
1

>  <SCORE.INTER.POLAR>
0

>  <SCORE.INTER.ROT>
10

>  <SCORE.INTER.SOLV>
21.8306

>  <SCORE.INTER.VDW>
-19.4892

>  <SCORE.INTER.norm>
-0.0729615

>  <SCORE.INTRA>
-8.6075

>  <SCORE.INTRA.DIHEDRAL>
-22.3099

>  <SCORE.INTRA.DIHEDRAL.0>
28.2802

>  <SCORE.INTRA.POLAR>
0

>  <SCORE.INTRA.POLAR.0>
0

>  <SCORE.INTRA.REPUL>
0

>  <SCORE.INTRA.REPUL.0>
0

>  <SCORE.INTRA.SOLV>
1.24088

>  <SCORE.INTRA.SOLV.lig_0>
-101.981

>  <SCORE.INTRA.VDW>
1.92704

>  <SCORE.INTRA.VDW.0>
-5.72964

>  <SCORE.INTRA.norm>
-0.215187

>  <SCORE.RESTR>
0

>  <SCORE.RESTR.CAVITY>
0

>  <SCORE.RESTR.norm>
0

>  <SCORE.SYSTEM>
0

>  <SCORE.SYSTEM.CONST>
0

>  <SCORE.SYSTEM.DIHEDRAL>
0

>  <SCORE.SYSTEM.SOLV>
0

>  <SCORE.SYSTEM.norm>
0

>  <SCORE.heavy>
40

>  <SCORE.norm>
-0.288149

>  <RMSD>
8.087

$$$$
ligand
 OpenBabel11021811513D
libRbt.so/2013.1/901 2013/11/27
 40 42  0  0  0  0  0  0  0  0999 V2000
   -3.1602   -9.9965   15.7263 C   0  0  2  0  0  0  0  0  0  0  0  0
   -2.5063   -9.1847   16.7144 O   0  0  0  0  0  0  0  0  0  0  0  0
   -4.7139   -9.7416   15.7403 C   0  0  1  0  0  0  0  0  0  0  0  0
   -5.3595  -10.2161   17.0748 C   0  0  2  0  0  0  0  0  0  0  0  0
   -5.0798  -11.7455   17.2200 C   0  0  2  0  0  0  0  0  0  0  0  0
   -5.6882  -12.2268   18.4377 O   0  0  0  0  0  0  0  0  0  0  0  0
   -3.5049  -11.9696   17.2481 C   0  0  2  0  0  0  0  0  0  0  0  0
   -2.8970  -11.4505   15.9709 O   0  0  0  0  0  0  0  0  0  0  0  0
   -3.1268  -13.4396   17.3676 C   0  0  0  0  0  0  0  0  0  0  0  0
   -1.6477  -13.6165   17.5147 N   0  0  0  0  0  0  0  0  0  0  0  0
    1.7857   -8.4118   17.2726 C   0  0  2  0  0  0  0  0  0  0  0  0
    3.1662   -8.6218   17.6421 N   0  0  0  0  0  0  0  0  0  0  0  0
    0.8702   -8.5290   18.5575 C   0  0  0  0  0  0  0  0  0  0  0  0
   -0.6581   -8.3041   18.1643 C   0  0  2  0  0  0  0  0  0  0  0  0
   -1.5150   -8.3982   19.3752 N   0  0  0  0  0  0  0  0  0  0  0  0
   -1.0836   -9.3889   17.0692 C   0  0  2  0  0  0  0  0  0  0  0  0
   -0.1373   -9.2326   15.8035 C   0  0  2  0  0  0  0  0  0  0  0  0
   -0.5125  -10.1962   14.8166 O   0  0  0  0  0  0  0  0  0  0  0  0
    1.3734   -9.4538   16.2084 C   0  0  1  0  0  0  0  0  0  0  0  0
    2.2249   -9.2872   15.0474 O   0  0  0  0  0  0  0  0  0  0  0  0
    3.4473   -9.9138   14.8529 C   0  0  2  0  0  0  0  0  0  0  0  0
    4.1008   -9.2860   13.5707 C   0  0  2  0  0  0  0  0  0  0  0  0
    4.2338   -7.9112   13.7370 O   0  0  0  0  0  0  0  0  0  0  0  0
    3.2733   -9.6279   12.2593 C   0  0  1  0  0  0  0  0  0  0  0  0
    3.9195   -9.0313   11.0496 N   0  0  0  0  0  0  0  0  0  0  0  0
    3.1624  -11.2094   12.1253 C   0  0  2  0  0  0  0  0  0  0  0  0
    2.4327  -11.5701   10.9459 O   0  0  0  0  0  0  0  0  0  0  0  0
    2.4679  -11.7646   13.4285 C   0  0  2  0  0  0  0  0  0  0  0  0
    3.2584  -11.3758   14.6704 O   0  0  0  0  0  0  0  0  0  0  0  0
    2.3455  -13.2691   13.3825 C   0  0  0  0  0  0  0  0  0  0  0  0
    1.6945  -13.8097   14.5472 O   0  0  0  0  0  0  0  0  0  0  0  0
   -4.9459   -8.3178   15.5329 O   0  0  0  0  0  0  0  0  0  0  0  0
   -6.7125   -9.9823   17.0274 O   0  0  0  0  0  0  0  0  0  0  0  0
    3.8283   -7.6375   18.4666 C   0  0  0  0  0  0  0  0  0  0  0  0
    3.3935   -6.4480   18.4984 O   0  0  0  0  0  0  0  0  0  0  0  0
    5.0728   -8.0923   19.2893 C   0  0  2  0  0  0  0  0  0  0  0  0
    6.0304  -11.1183   18.7928 N   0  0  0  0  0  0  0  0  0  0  0  0
    4.7692   -9.3994   20.0849 C   0  0  0  0  0  0  0  0  0  0  0  0
    4.6821  -10.6482   19.1916 C   0  0  0  0  0  0  0  0  0  0  0  0
    5.4209   -7.2372   20.1643 O   0  0  0  0  0  0  0  0  0  0  0  0
  1  2  1  1  0  0  0
  1  3  1  0  0  0  0
  1  8  1  0  0  0  0
  3  4  1  0  0  0  0
  3 32  1  1  0  0  0
  4  5  1  0  0  0  0
  4 33  1  6  0  0  0
  5  6  1  1  0  0  0
  5  7  1  0  0  0  0
  7  8  1  0  0  0  0
  7  9  1  6  0  0  0
  9 10  1  0  0  0  0
 11 12  1  1  0  0  0
 11 13  1  0  0  0  0
 11 19  1  0  0  0  0
 12 34  1  0  0  0  0
 13 14  1  0  0  0  0
 14 15  1  1  0  0  0
 14 16  1  0  0  0  0
 16  2  1  6  0  0  0
 16 17  1  0  0  0  0
 17 18  1  6  0  0  0
 17 19  1  0  0  0  0
 19 20  1  6  0  0  0
 21 20  1  6  0  0  0
 21 22  1  0  0  0  0
 21 29  1  0  0  0  0
 22 23  1  1  0  0  0
 22 24  1  0  0  0  0
 24 25  1  6  0  0  0
 24 26  1  0  0  0  0
 26 27  1  6  0  0  0
 26 28  1  0  0  0  0
 28 29  1  0  0  0  0
 28 30  1  6  0  0  0
 30 31  1  0  0  0  0
 34 35  2  0  0  0  0
 36 34  1  1  0  0  0
 36 38  1  0  0  0  0
 36 40  1  0  0  0  0
 37 39  1  0  0  0  0
 38 39  1  0  0  0  0
M  END
>  <CHROM.1>
169.63994890,178.51787017,-174.93351396,-67.89766417,88.70702456,-172.08572031
-178.99613451,-49.42593048,72.60854894,77.06829494,0.56712544,-10.03397356
16.25104172,3.11869267,0.18707751,1.17252616

>  <Name>
ligand

>  <RI>
0

>  <Rbt.Current_Directory>
/home/itssahil/PROJECTS/Mol_Feturizer/New_Systems/rnas/4P20

>  <Rbt.Executable>
rbdock ($Id: //depot/dev/client3/rdock/2013.1/src/exe/rbdock.cxx#4 $)

>  <Rbt.Library>
libRbt.so (2013.1, Build901 2013/11/27)

>  <Rbt.Parameter_File>
/export/apps/rDock/src/rDock_2013.1_src/data/scripts/dock_solv.prm

>  <Rbt.Receptor>
prm/pocket_docking_3.prm

>  <SCORE>
-10.5912

>  <SCORE.INTER>
-0.525537

>  <SCORE.INTER.CONST>
1

>  <SCORE.INTER.POLAR>
0

>  <SCORE.INTER.ROT>
10

>  <SCORE.INTER.SOLV>
16.0476

>  <SCORE.INTER.VDW>
-15.9662

>  <SCORE.INTER.norm>
-0.0131384

>  <SCORE.INTRA>
-10.0656

>  <SCORE.INTRA.DIHEDRAL>
-21.436

>  <SCORE.INTRA.DIHEDRAL.0>
28.2802

>  <SCORE.INTRA.POLAR>
0

>  <SCORE.INTRA.POLAR.0>
0

>  <SCORE.INTRA.REPUL>
0

>  <SCORE.INTRA.REPUL.0>
0

>  <SCORE.INTRA.SOLV>
-1.03774

>  <SCORE.INTRA.SOLV.lig_0>
-101.981

>  <SCORE.INTRA.VDW>
1.17124

>  <SCORE.INTRA.VDW.0>
-5.72964

>  <SCORE.INTRA.norm>
-0.251641

>  <SCORE.RESTR>
0

>  <SCORE.RESTR.CAVITY>
0

>  <SCORE.RESTR.norm>
0

>  <SCORE.SYSTEM>
0

>  <SCORE.SYSTEM.CONST>
0

>  <SCORE.SYSTEM.DIHEDRAL>
0

>  <SCORE.SYSTEM.SOLV>
0

>  <SCORE.SYSTEM.norm>
0

>  <SCORE.heavy>
40

>  <SCORE.norm>
-0.264779

>  <RMSD>
8.089

$$$$
ligand
 OpenBabel11021811513D
libRbt.so/2013.1/901 2013/11/27
 40 42  0  0  0  0  0  0  0  0999 V2000
   -3.3153  -11.1264   15.3381 C   0  0  2  0  0  0  0  0  0  0  0  0
   -2.7995  -10.0917   16.1903 O   0  0  0  0  0  0  0  0  0  0  0  0
   -4.8838  -11.2062   15.4511 C   0  0  1  0  0  0  0  0  0  0  0  0
   -5.3328  -11.6579   16.8714 C   0  0  2  0  0  0  0  0  0  0  0  0
   -4.7177  -13.0682   17.1377 C   0  0  2  0  0  0  0  0  0  0  0  0
   -5.1356  -13.5314   18.4397 O   0  0  0  0  0  0  0  0  0  0  0  0
   -3.1328  -12.9495   17.0619 C   0  0  2  0  0  0  0  0  0  0  0  0
   -2.7270  -12.4562   15.6973 O   0  0  0  0  0  0  0  0  0  0  0  0
   -2.4362  -14.2841   17.2892 C   0  0  0  0  0  0  0  0  0  0  0  0
   -0.9605  -14.1101   17.4697 N   0  0  0  0  0  0  0  0  0  0  0  0
    1.3244   -8.6529   16.6940 C   0  0  2  0  0  0  0  0  0  0  0  0
    2.7103   -8.6185   17.0997 N   0  0  0  0  0  0  0  0  0  0  0  0
    0.4003   -8.7480   17.9745 C   0  0  0  0  0  0  0  0  0  0  0  0
   -1.1333   -8.7917   17.5421 C   0  0  2  0  0  0  0  0  0  0  0  0
   -2.0007   -8.8644   18.7470 N   0  0  0  0  0  0  0  0  0  0  0  0
   -1.3723  -10.0472   16.5811 C   0  0  2  0  0  0  0  0  0  0  0  0
   -0.4238   -9.9071   15.3151 C   0  0  2  0  0  0  0  0  0  0  0  0
   -0.6329  -11.0236   14.4475 O   0  0  0  0  0  0  0  0  0  0  0  0
    1.0916   -9.8608   15.7586 C   0  0  1  0  0  0  0  0  0  0  0  0
    1.9421   -9.7118   14.5945 O   0  0  0  0  0  0  0  0  0  0  0  0
    3.1517  -10.3617   14.3965 C   0  0  2  0  0  0  0  0  0  0  0  0
    3.8407   -9.7062   13.1472 C   0  0  2  0  0  0  0  0  0  0  0  0
    4.0047   -8.3419   13.3637 O   0  0  0  0  0  0  0  0  0  0  0  0
    3.0262   -9.9815   11.8123 C   0  0  1  0  0  0  0  0  0  0  0  0
    3.7060   -9.3596   10.6342 N   0  0  0  0  0  0  0  0  0  0  0  0
    2.8787  -11.5541   11.6210 C   0  0  2  0  0  0  0  0  0  0  0  0
    2.1593  -11.8552   10.4188 O   0  0  0  0  0  0  0  0  0  0  0  0
    2.1500  -12.1367   12.8933 C   0  0  2  0  0  0  0  0  0  0  0  0
    2.9299  -11.8113   14.1599 O   0  0  0  0  0  0  0  0  0  0  0  0
    1.9916  -13.6351   12.7926 C   0  0  0  0  0  0  0  0  0  0  0  0
    1.1788  -14.1804   13.8484 O   0  0  0  0  0  0  0  0  0  0  0  0
   -5.4330   -9.8951   15.1293 O   0  0  0  0  0  0  0  0  0  0  0  0
   -6.7047  -11.7223   16.9095 O   0  0  0  0  0  0  0  0  0  0  0  0
    3.1485   -7.5856   18.0095 C   0  0  0  0  0  0  0  0  0  0  0  0
    2.4898   -6.5073   18.1019 O   0  0  0  0  0  0  0  0  0  0  0  0
    4.4380   -7.8488   18.8465 C   0  0  2  0  0  0  0  0  0  0  0  0
    3.0891  -10.6675   18.7441 N   0  0  0  0  0  0  0  0  0  0  0  0
    4.1445   -8.8148   20.0357 C   0  0  0  0  0  0  0  0  0  0  0  0
    4.2098  -10.3001   19.6425 C   0  0  0  0  0  0  0  0  0  0  0  0
    4.9021   -6.7902   19.3775 O   0  0  0  0  0  0  0  0  0  0  0  0
  1  2  1  1  0  0  0
  1  3  1  0  0  0  0
  1  8  1  0  0  0  0
  3  4  1  0  0  0  0
  3 32  1  1  0  0  0
  4  5  1  0  0  0  0
  4 33  1  6  0  0  0
  5  6  1  1  0  0  0
  5  7  1  0  0  0  0
  7  8  1  0  0  0  0
  7  9  1  6  0  0  0
  9 10  1  0  0  0  0
 11 12  1  1  0  0  0
 11 13  1  0  0  0  0
 11 19  1  0  0  0  0
 12 34  1  0  0  0  0
 13 14  1  0  0  0  0
 14 15  1  1  0  0  0
 14 16  1  0  0  0  0
 16  2  1  6  0  0  0
 16 17  1  0  0  0  0
 17 18  1  6  0  0  0
 17 19  1  0  0  0  0
 19 20  1  6  0  0  0
 21 20  1  6  0  0  0
 21 22  1  0  0  0  0
 21 29  1  0  0  0  0
 22 23  1  1  0  0  0
 22 24  1  0  0  0  0
 24 25  1  6  0  0  0
 24 26  1  0  0  0  0
 26 27  1  6  0  0  0
 26 28  1  0  0  0  0
 28 29  1  0  0  0  0
 28 30  1  6  0  0  0
 30 31  1  0  0  0  0
 34 35  2  0  0  0  0
 36 34  1  1  0  0  0
 36 38  1  0  0  0  0
 36 40  1  0  0  0  0
 37 39  1  0  0  0  0
 38 39  1  0  0  0  0
M  END
>  <CHROM.1>
162.10246326,-179.25302842,-169.30864800,-56.74482589,100.25340504,-169.72018255
-172.36611424,-76.87968320,84.60772911,-68.81242104,0.26992568,-10.55727988
15.87533182,-3.11676132,0.36599222,1.12670737

>  <Name>
ligand

>  <RI>
0

>  <Rbt.Current_Directory>
/home/itssahil/PROJECTS/Mol_Feturizer/New_Systems/rnas/4P20

>  <Rbt.Executable>
rbdock ($Id: //depot/dev/client3/rdock/2013.1/src/exe/rbdock.cxx#4 $)

>  <Rbt.Library>
libRbt.so (2013.1, Build901 2013/11/27)

>  <Rbt.Parameter_File>
/export/apps/rDock/src/rDock_2013.1_src/data/scripts/dock_solv.prm

>  <Rbt.Receptor>
prm/pocket_docking_4.prm

>  <SCORE>
-11.1584

>  <SCORE.INTER>
-4.97084

>  <SCORE.INTER.CONST>
1

>  <SCORE.INTER.POLAR>
0

>  <SCORE.INTER.ROT>
10

>  <SCORE.INTER.SOLV>
17.8803

>  <SCORE.INTER.VDW>
-19.5406

>  <SCORE.INTER.norm>
-0.124271

>  <SCORE.INTRA>
-6.18756

>  <SCORE.INTRA.DIHEDRAL>
-16.9982

>  <SCORE.INTRA.DIHEDRAL.0>
28.2802

>  <SCORE.INTRA.POLAR>
0

>  <SCORE.INTRA.POLAR.0>
0

>  <SCORE.INTRA.REPUL>
0

>  <SCORE.INTRA.REPUL.0>
0

>  <SCORE.INTRA.SOLV>
3.38612

>  <SCORE.INTRA.SOLV.lig_0>
-101.981

>  <SCORE.INTRA.VDW>
0.618491

>  <SCORE.INTRA.VDW.0>
-5.72964

>  <SCORE.INTRA.norm>
-0.154689

>  <SCORE.RESTR>
0

>  <SCORE.RESTR.CAVITY>
0

>  <SCORE.RESTR.norm>
0

>  <SCORE.SYSTEM>
0

>  <SCORE.SYSTEM.CONST>
0

>  <SCORE.SYSTEM.DIHEDRAL>
0

>  <SCORE.SYSTEM.SOLV>
0

>  <SCORE.SYSTEM.norm>
0

>  <SCORE.heavy>
40

>  <SCORE.norm>
-0.27896

>  <RMSD>
8.095

$$$$
ligand
 OpenBabel11021811513D
libRbt.so/2013.1/901 2013/11/27
 40 42  0  0  0  0  0  0  0  0999 V2000
   -4.4791   -9.8085   17.4328 C   0  0  2  0  0  0  0  0  0  0  0  0
   -3.4010   -9.6977   16.4903 O   0  0  0  0  0  0  0  0  0  0  0  0
   -4.6854  -11.3086   17.8644 C   0  0  1  0  0  0  0  0  0  0  0  0
   -5.1640  -12.1865   16.6714 C   0  0  2  0  0  0  0  0  0  0  0  0
   -6.5181  -11.5986   16.1625 C   0  0  2  0  0  0  0  0  0  0  0  0
   -7.0062  -12.4056   15.0694 O   0  0  0  0  0  0  0  0  0  0  0  0
   -6.2714  -10.0989   15.6917 C   0  0  2  0  0  0  0  0  0  0  0  0
   -5.7546   -9.2838   16.8487 O   0  0  0  0  0  0  0  0  0  0  0  0
   -7.5437   -9.4269   15.1938 C   0  0  0  0  0  0  0  0  0  0  0  0
   -7.3202   -7.9764   14.8997 N   0  0  0  0  0  0  0  0  0  0  0  0
    0.9770   -9.3097   16.6012 C   0  0  2  0  0  0  0  0  0  0  0  0
    2.3459   -9.4921   17.0247 N   0  0  0  0  0  0  0  0  0  0  0  0
    0.1368   -8.6786   17.7838 C   0  0  0  0  0  0  0  0  0  0  0  0
   -1.3785   -8.4757   17.3325 C   0  0  2  0  0  0  0  0  0  0  0  0
   -2.1627   -7.8675   18.4391 N   0  0  0  0  0  0  0  0  0  0  0  0
   -1.9906   -9.8876   16.8981 C   0  0  2  0  0  0  0  0  0  0  0  0
   -1.1143  -10.4794   15.7133 C   0  0  2  0  0  0  0  0  0  0  0  0
   -1.6561  -11.7407   15.3150 O   0  0  0  0  0  0  0  0  0  0  0  0
    0.3847  -10.6713   16.1731 C   0  0  1  0  0  0  0  0  0  0  0  0
    1.1748  -11.1918   15.0751 O   0  0  0  0  0  0  0  0  0  0  0  0
    1.2793  -10.6145   13.8179 C   0  0  2  0  0  0  0  0  0  0  0  0
    1.7973  -11.7212   12.8320 C   0  0  2  0  0  0  0  0  0  0  0  0
    0.9255  -12.8052   12.8433 O   0  0  0  0  0  0  0  0  0  0  0  0
    3.2795  -12.1732   13.1788 C   0  0  1  0  0  0  0  0  0  0  0  0
    3.7571  -13.2177   12.2207 N   0  0  0  0  0  0  0  0  0  0  0  0
    4.2235  -10.8930   13.1440 C   0  0  2  0  0  0  0  0  0  0  0  0
    5.5790  -11.2521   13.4389 O   0  0  0  0  0  0  0  0  0  0  0  0
    3.6641   -9.8428   14.1799 C   0  0  2  0  0  0  0  0  0  0  0  0
    2.2254   -9.4697   13.8490 O   0  0  0  0  0  0  0  0  0  0  0  0
    4.5015   -8.5861   14.1886 C   0  0  0  0  0  0  0  0  0  0  0  0
    4.5247   -7.9247   12.9101 O   0  0  0  0  0  0  0  0  0  0  0  0
   -3.4251  -11.8083   18.3993 O   0  0  0  0  0  0  0  0  0  0  0  0
   -5.3394  -13.4780   17.1060 O   0  0  0  0  0  0  0  0  0  0  0  0
    3.2034   -8.3353   17.1409 C   0  0  0  0  0  0  0  0  0  0  0  0
    2.9330   -7.2834   16.4889 O   0  0  0  0  0  0  0  0  0  0  0  0
    4.4470   -8.4395   18.0764 C   0  0  2  0  0  0  0  0  0  0  0  0
    3.4942   -5.6299   20.5986 N   0  0  0  0  0  0  0  0  0  0  0  0
    4.1828   -7.7262   19.4383 C   0  0  0  0  0  0  0  0  0  0  0  0
    3.7950   -6.2461   19.2841 C   0  0  0  0  0  0  0  0  0  0  0  0
    5.4750   -7.8695   17.5901 O   0  0  0  0  0  0  0  0  0  0  0  0
  1  2  1  6  0  0  0
  1  3  1  0  0  0  0
  1  8  1  0  0  0  0
  3  4  1  0  0  0  0
  3 32  1  6  0  0  0
  4  5  1  0  0  0  0
  4 33  1  1  0  0  0
  5  6  1  6  0  0  0
  5  7  1  0  0  0  0
  7  8  1  0  0  0  0
  7  9  1  1  0  0  0
  9 10  1  0  0  0  0
 11 12  1  1  0  0  0
 11 13  1  0  0  0  0
 11 19  1  0  0  0  0
 12 34  1  0  0  0  0
 13 14  1  0  0  0  0
 14 15  1  1  0  0  0
 14 16  1  0  0  0  0
 16  2  1  6  0  0  0
 16 17  1  0  0  0  0
 17 18  1  1  0  0  0
 17 19  1  0  0  0  0
 19 20  1  6  0  0  0
 21 20  1  1  0  0  0
 21 22  1  0  0  0  0
 21 29  1  0  0  0  0
 22 23  1  1  0  0  0
 22 24  1  0  0  0  0
 24 25  1  6  0  0  0
 24 26  1  0  0  0  0
 26 27  1  1  0  0  0
 26 28  1  0  0  0  0
 28 29  1  0  0  0  0
 28 30  1  6  0  0  0
 30 31  1  0  0  0  0
 34 35  2  0  0  0  0
 36 34  1  6  0  0  0
 36 38  1  0  0  0  0
 36 40  1  0  0  0  0
 37 39  1  0  0  0  0
 38 39  1  0  0  0  0
M  END
>  <CHROM.1>
-71.16636526,-90.42605343,173.71792398,-74.04472780,-64.92623036,-160.79194775
60.58341372,-101.76561176,-57.00428490,177.39360419,-0.17423441,-9.93790817
15.96587253,3.09443815,-0.17729196,-2.26130574

>  <Name>
ligand

>  <RI>
0

>  <Rbt.Current_Directory>
/home/itssahil/PROJECTS/Mol_Feturizer/New_Systems/rnas/4P20

>  <Rbt.Executable>
rbdock ($Id: //depot/dev/client3/rdock/2013.1/src/exe/rbdock.cxx#4 $)

>  <Rbt.Library>
libRbt.so (2013.1, Build901 2013/11/27)

>  <Rbt.Parameter_File>
/export/apps/rDock/src/rDock_2013.1_src/data/scripts/dock_solv.prm

>  <Rbt.Receptor>
prm/pocket_docking_3.prm

>  <SCORE>
-7.8818

>  <SCORE.INTER>
0.963346

>  <SCORE.INTER.CONST>
1

>  <SCORE.INTER.POLAR>
0

>  <SCORE.INTER.ROT>
10

>  <SCORE.INTER.SOLV>
17.1366

>  <SCORE.INTER.VDW>
-15.3366

>  <SCORE.INTER.norm>
0.0240837

>  <SCORE.INTRA>
-8.84799

>  <SCORE.INTRA.DIHEDRAL>
-19.7411

>  <SCORE.INTRA.DIHEDRAL.0>
28.2802

>  <SCORE.INTRA.POLAR>
0

>  <SCORE.INTRA.POLAR.0>
0

>  <SCORE.INTRA.REPUL>
0

>  <SCORE.INTRA.REPUL.0>
0

>  <SCORE.INTRA.SOLV>
0.966217

>  <SCORE.INTRA.SOLV.lig_0>
-101.981

>  <SCORE.INTRA.VDW>
0.539467

>  <SCORE.INTRA.VDW.0>
-5.72964

>  <SCORE.INTRA.norm>
-0.2212

>  <SCORE.RESTR>
0.00284267

>  <SCORE.RESTR.CAVITY>
0.00284267

>  <SCORE.RESTR.norm>
7.10667e-05

>  <SCORE.SYSTEM>
0

>  <SCORE.SYSTEM.CONST>
0

>  <SCORE.SYSTEM.DIHEDRAL>
0

>  <SCORE.SYSTEM.SOLV>
0

>  <SCORE.SYSTEM.norm>
0

>  <SCORE.heavy>
40

>  <SCORE.norm>
-0.197045

>  <RMSD>
8.098

$$$$
ligand
 OpenBabel11021811513D
libRbt.so/2013.1/901 2013/11/27
 40 42  0  0  0  0  0  0  0  0999 V2000
    2.7886   -1.4538   23.2887 C   0  0  2  0  0  0  0  0  0  0  0  0
    3.4236   -2.1996   22.2382 O   0  0  0  0  0  0  0  0  0  0  0  0
    1.2294   -1.6717   23.2579 C   0  0  1  0  0  0  0  0  0  0  0  0
    0.5943   -1.0790   21.9663 C   0  0  2  0  0  0  0  0  0  0  0  0
    0.9084    0.4504   21.9415 C   0  0  2  0  0  0  0  0  0  0  0  0
    0.3107    1.0398   20.7669 O   0  0  0  0  0  0  0  0  0  0  0  0
    2.4881    0.6405   21.9278 C   0  0  2  0  0  0  0  0  0  0  0  0
    3.0845    0.0088   23.1588 O   0  0  0  0  0  0  0  0  0  0  0  0
    2.8993    2.1065   21.9237 C   0  0  0  0  0  0  0  0  0  0  0  0
    4.3872    2.2601   21.9801 N   0  0  0  0  0  0  0  0  0  0  0  0
    4.9200   -6.2905   21.6418 C   0  0  2  0  0  0  0  0  0  0  0  0
    4.9940   -7.7316   21.7044 N   0  0  0  0  0  0  0  0  0  0  0  0
    4.9220   -5.6962   23.1079 C   0  0  0  0  0  0  0  0  0  0  0  0
    4.8358   -4.1054   23.0550 C   0  0  2  0  0  0  0  0  0  0  0  0
    4.8544   -3.5479   24.4328 N   0  0  0  0  0  0  0  0  0  0  0  0
    3.5066   -3.6772   22.2759 C   0  0  2  0  0  0  0  0  0  0  0  0
    3.5509   -4.2976   20.8147 C   0  0  2  0  0  0  0  0  0  0  0  0
    2.3678   -3.9170   20.1085 O   0  0  0  0  0  0  0  0  0  0  0  0
    3.6403   -5.8732   20.8825 C   0  0  1  0  0  0  0  0  0  0  0  0
    3.7010   -6.4220   19.5424 O   0  0  0  0  0  0  0  0  0  0  0  0
    2.7045   -6.3093   18.5837 C   0  0  2  0  0  0  0  0  0  0  0  0
    1.4375   -7.0588   19.1296 C   0  0  2  0  0  0  0  0  0  0  0  0
    1.0582   -6.5113   20.3509 O   0  0  0  0  0  0  0  0  0  0  0  0
    1.6850   -8.6224   19.2539 C   0  0  1  0  0  0  0  0  0  0  0  0
    0.4627   -9.3176   19.7632 N   0  0  0  0  0  0  0  0  0  0  0  0
    2.1089   -9.1856   17.8276 C   0  0  2  0  0  0  0  0  0  0  0  0
    2.3319  -10.6000   17.8849 O   0  0  0  0  0  0  0  0  0  0  0  0
    3.4031   -8.4138   17.3602 C   0  0  2  0  0  0  0  0  0  0  0  0
    3.1469   -6.9140   17.3011 O   0  0  0  0  0  0  0  0  0  0  0  0
    3.8557   -8.8828   15.9980 C   0  0  0  0  0  0  0  0  0  0  0  0
    5.1105   -8.3011   15.5984 O   0  0  0  0  0  0  0  0  0  0  0  0
    0.9653   -3.1018   23.3529 O   0  0  0  0  0  0  0  0  0  0  0  0
   -0.7636   -1.2853   21.9981 O   0  0  0  0  0  0  0  0  0  0  0  0
    5.6389   -8.4475   20.6281 C   0  0  0  0  0  0  0  0  0  0  0  0
    5.7366   -7.9106   19.4848 O   0  0  0  0  0  0  0  0  0  0  0  0
    6.1898   -9.8755   20.9280 C   0  0  2  0  0  0  0  0  0  0  0  0
    8.6536  -10.7419   19.1240 N   0  0  0  0  0  0  0  0  0  0  0  0
    6.2136  -10.7480   19.6351 C   0  0  0  0  0  0  0  0  0  0  0  0
    7.3123  -10.3333   18.6422 C   0  0  0  0  0  0  0  0  0  0  0  0
    5.4660  -10.5162   21.7548 O   0  0  0  0  0  0  0  0  0  0  0  0
  1  2  1  6  0  0  0
  1  3  1  0  0  0  0
  1  8  1  0  0  0  0
  3  4  1  0  0  0  0
  3 32  1  6  0  0  0
  4  5  1  0  0  0  0
  4 33  1  1  0  0  0
  5  6  1  6  0  0  0
  5  7  1  0  0  0  0
  7  8  1  0  0  0  0
  7  9  1  1  0  0  0
  9 10  1  0  0  0  0
 11 12  1  1  0  0  0
 11 13  1  0  0  0  0
 11 19  1  0  0  0  0
 12 34  1  0  0  0  0
 13 14  1  0  0  0  0
 14 15  1  1  0  0  0
 14 16  1  0  0  0  0
 16  2  1  6  0  0  0
 16 17  1  0  0  0  0
 17 18  1  6  0  0  0
 17 19  1  0  0  0  0
 19 20  1  6  0  0  0
 21 20  1  1  0  0  0
 21 22  1  0  0  0  0
 21 29  1  0  0  0  0
 22 23  1  1  0  0  0
 22 24  1  0  0  0  0
 24 25  1  6  0  0  0
 24 26  1  0  0  0  0
 26 27  1  1  0  0  0
 26 28  1  0  0  0  0
 28 29  1  0  0  0  0
 28 30  1  6  0  0  0
 30 31  1  0  0  0  0
 34 35  2  0  0  0  0
 36 34  1  6  0  0  0
 36 38  1  0  0  0  0
 36 40  1  0  0  0  0
 37 39  1  0  0  0  0
 38 39  1  0  0  0  0
M  END
>  <CHROM.1>
-70.46425728,-88.51464469,177.14698772,-150.01500428,177.02033185,-63.41944332
-173.97429744,152.80739044,72.33876534,73.40469048,3.38114652,-5.35752572
20.59212190,-1.89461631,0.56616195,-2.59546285

>  <Name>
ligand

>  <RI>
0

>  <Rbt.Current_Directory>
/home/itssahil/PROJECTS/Mol_Feturizer/New_Systems/rnas/4P20

>  <Rbt.Executable>
rbdock ($Id: //depot/dev/client3/rdock/2013.1/src/exe/rbdock.cxx#4 $)

>  <Rbt.Library>
libRbt.so (2013.1, Build901 2013/11/27)

>  <Rbt.Parameter_File>
/export/apps/rDock/src/rDock_2013.1_src/data/scripts/dock_solv.prm

>  <Rbt.Receptor>
prm/pocket_docking_8.prm

>  <SCORE>
-19.2989

>  <SCORE.INTER>
-11.0011

>  <SCORE.INTER.CONST>
1

>  <SCORE.INTER.POLAR>
0

>  <SCORE.INTER.ROT>
10

>  <SCORE.INTER.SOLV>
19.6903

>  <SCORE.INTER.VDW>
-24.1642

>  <SCORE.INTER.norm>
-0.275028

>  <SCORE.INTRA>
-8.29772

>  <SCORE.INTRA.DIHEDRAL>
-20.8928

>  <SCORE.INTRA.DIHEDRAL.0>
28.2802

>  <SCORE.INTRA.POLAR>
0

>  <SCORE.INTRA.POLAR.0>
0

>  <SCORE.INTRA.REPUL>
0

>  <SCORE.INTRA.REPUL.0>
0

>  <SCORE.INTRA.SOLV>
1.90461

>  <SCORE.INTRA.SOLV.lig_0>
-101.981

>  <SCORE.INTRA.VDW>
1.19637

>  <SCORE.INTRA.VDW.0>
-5.72964

>  <SCORE.INTRA.norm>
-0.207443

>  <SCORE.RESTR>
0

>  <SCORE.RESTR.CAVITY>
0

>  <SCORE.RESTR.norm>
0

>  <SCORE.SYSTEM>
0

>  <SCORE.SYSTEM.CONST>
0

>  <SCORE.SYSTEM.DIHEDRAL>
0

>  <SCORE.SYSTEM.SOLV>
0

>  <SCORE.SYSTEM.norm>
0

>  <SCORE.heavy>
40

>  <SCORE.norm>
-0.482471

>  <RMSD>
8.101

$$$$
ligand
 OpenBabel11021811513D
libRbt.so/2013.1/901 2013/11/27
 40 42  0  0  0  0  0  0  0  0999 V2000
   -3.0409   -9.6303   16.1746 C   0  0  2  0  0  0  0  0  0  0  0  0
   -2.6372   -8.7180   17.2079 O   0  0  0  0  0  0  0  0  0  0  0  0
   -4.5766   -9.4720   15.8652 C   0  0  1  0  0  0  0  0  0  0  0  0
   -5.4519   -9.8993   17.0794 C   0  0  2  0  0  0  0  0  0  0  0  0
   -5.1335  -11.3960   17.3908 C   0  0  2  0  0  0  0  0  0  0  0  0
   -5.9487  -11.8352   18.4985 O   0  0  0  0  0  0  0  0  0  0  0  0
   -3.5869  -11.5197   17.7432 C   0  0  2  0  0  0  0  0  0  0  0  0
   -2.7621  -11.0467   16.5744 O   0  0  0  0  0  0  0  0  0  0  0  0
   -3.1699  -12.9527   18.0443 C   0  0  0  0  0  0  0  0  0  0  0  0
   -1.7269  -13.0350   18.4335 N   0  0  0  0  0  0  0  0  0  0  0  0
    1.4094   -7.6845   18.5817 C   0  0  2  0  0  0  0  0  0  0  0  0
    2.6887   -7.7968   19.2429 N   0  0  0  0  0  0  0  0  0  0  0  0
    0.2500   -7.7670   19.6549 C   0  0  0  0  0  0  0  0  0  0  0  0
   -1.1693   -7.6492   18.9389 C   0  0  2  0  0  0  0  0  0  0  0  0
   -2.2569   -7.7103   19.9504 N   0  0  0  0  0  0  0  0  0  0  0  0
   -1.3138   -8.8233   17.8630 C   0  0  2  0  0  0  0  0  0  0  0  0
   -0.1298   -8.6989   16.8120 C   0  0  2  0  0  0  0  0  0  0  0  0
   -0.2524   -9.7426   15.8430 O   0  0  0  0  0  0  0  0  0  0  0  0
    1.2698   -8.8132   17.5354 C   0  0  1  0  0  0  0  0  0  0  0  0
    2.3388   -8.6769   16.5663 O   0  0  0  0  0  0  0  0  0  0  0  0
    3.6642   -9.0271   16.7796 C   0  0  2  0  0  0  0  0  0  0  0  0
    4.4423   -8.7673   15.4409 C   0  0  2  0  0  0  0  0  0  0  0  0
    4.3029   -7.4343   15.0682 O   0  0  0  0  0  0  0  0  0  0  0  0
    3.9628   -9.7405   14.2815 C   0  0  1  0  0  0  0  0  0  0  0  0
    4.7249   -9.4846   13.0203 N   0  0  0  0  0  0  0  0  0  0  0  0
    4.1524  -11.2435   14.7674 C   0  0  2  0  0  0  0  0  0  0  0  0
    3.7442  -12.1635   13.7473 O   0  0  0  0  0  0  0  0  0  0  0  0
    3.3180  -11.4399   16.0919 C   0  0  2  0  0  0  0  0  0  0  0  0
    3.7677  -10.4579   17.1653 O   0  0  0  0  0  0  0  0  0  0  0  0
    3.4659  -12.8444   16.6265 C   0  0  0  0  0  0  0  0  0  0  0  0
    4.8245  -13.1647   16.9794 O   0  0  0  0  0  0  0  0  0  0  0  0
   -4.8309   -8.0815   15.5102 O   0  0  0  0  0  0  0  0  0  0  0  0
   -6.7779   -9.7534   16.7507 O   0  0  0  0  0  0  0  0  0  0  0  0
    3.4558   -6.5985   19.4928 C   0  0  0  0  0  0  0  0  0  0  0  0
    3.2552   -5.5646   18.7887 O   0  0  0  0  0  0  0  0  0  0  0  0
    4.5176   -6.6362   20.6345 C   0  0  2  0  0  0  0  0  0  0  0  0
    6.0112  -10.2179   20.3190 N   0  0  0  0  0  0  0  0  0  0  0  0
    4.8817   -8.1058   21.0105 C   0  0  0  0  0  0  0  0  0  0  0  0
    5.6079   -8.8592   19.8836 C   0  0  0  0  0  0  0  0  0  0  0  0
    4.0977   -6.1058   21.7118 O   0  0  0  0  0  0  0  0  0  0  0  0
  1  2  1  1  0  0  0
  1  3  1  0  0  0  0
  1  8  1  0  0  0  0
  3  4  1  0  0  0  0
  3 32  1  1  0  0  0
  4  5  1  0  0  0  0
  4 33  1  6  0  0  0
  5  6  1  1  0  0  0
  5  7  1  0  0  0  0
  7  8  1  0  0  0  0
  7  9  1  6  0  0  0
  9 10  1  0  0  0  0
 11 12  1  1  0  0  0
 11 13  1  0  0  0  0
 11 19  1  0  0  0  0
 12 34  1  0  0  0  0
 13 14  1  0  0  0  0
 14 15  1  1  0  0  0
 14 16  1  0  0  0  0
 16  2  1  6  0  0  0
 16 17  1  0  0  0  0
 17 18  1  6  0  0  0
 17 19  1  0  0  0  0
 19 20  1  6  0  0  0
 21 20  1  6  0  0  0
 21 22  1  0  0  0  0
 21 29  1  0  0  0  0
 22 23  1  6  0  0  0
 22 24  1  0  0  0  0
 24 25  1  6  0  0  0
 24 26  1  0  0  0  0
 26 27  1  6  0  0  0
 26 28  1  0  0  0  0
 28 29  1  0  0  0  0
 28 30  1  1  0  0  0
 30 31  1  0  0  0  0
 34 35  2  0  0  0  0
 36 34  1  6  0  0  0
 36 38  1  0  0  0  0
 36 40  1  0  0  0  0
 37 39  1  0  0  0  0
 38 39  1  0  0  0  0
M  END
>  <CHROM.1>
168.68740326,178.90721885,-177.40137052,-100.68433401,75.82430830,177.46741152
61.91061588,18.28081549,66.30961165,176.25387124,0.71923590,-9.47483637,17.43481570
-2.99316669,0.06703240,0.83193921

>  <Name>
ligand

>  <RI>
0

>  <Rbt.Current_Directory>
/home/itssahil/PROJECTS/Mol_Feturizer/New_Systems/rnas/4P20

>  <Rbt.Executable>
rbdock ($Id: //depot/dev/client3/rdock/2013.1/src/exe/rbdock.cxx#4 $)

>  <Rbt.Library>
libRbt.so (2013.1, Build901 2013/11/27)

>  <Rbt.Parameter_File>
/export/apps/rDock/src/rDock_2013.1_src/data/scripts/dock_solv.prm

>  <Rbt.Receptor>
prm/pocket_docking_4.prm

>  <SCORE>
-11.5802

>  <SCORE.INTER>
-0.228657

>  <SCORE.INTER.CONST>
1

>  <SCORE.INTER.POLAR>
0

>  <SCORE.INTER.ROT>
10

>  <SCORE.INTER.SOLV>
15.0175

>  <SCORE.INTER.VDW>
-15.4249

>  <SCORE.INTER.norm>
-0.00571642

>  <SCORE.INTRA>
-11.354

>  <SCORE.INTRA.DIHEDRAL>
-23.2039

>  <SCORE.INTRA.DIHEDRAL.0>
28.2802

>  <SCORE.INTRA.POLAR>
0

>  <SCORE.INTRA.POLAR.0>
0

>  <SCORE.INTRA.REPUL>
0

>  <SCORE.INTRA.REPUL.0>
0

>  <SCORE.INTRA.SOLV>
-1.19786

>  <SCORE.INTRA.SOLV.lig_0>
-101.981

>  <SCORE.INTRA.VDW>
0.846885

>  <SCORE.INTRA.VDW.0>
-5.72964

>  <SCORE.INTRA.norm>
-0.28385

>  <SCORE.RESTR>
0.00247464

>  <SCORE.RESTR.CAVITY>
0.00247464

>  <SCORE.RESTR.norm>
6.18659e-05

>  <SCORE.SYSTEM>
0

>  <SCORE.SYSTEM.CONST>
0

>  <SCORE.SYSTEM.DIHEDRAL>
0

>  <SCORE.SYSTEM.SOLV>
0

>  <SCORE.SYSTEM.norm>
0

>  <SCORE.heavy>
40

>  <SCORE.norm>
-0.289504

>  <RMSD>
8.125

$$$$
ligand
 OpenBabel11021811513D
libRbt.so/2013.1/901 2013/11/27
 40 42  0  0  0  0  0  0  0  0999 V2000
    2.7788   -7.8541   16.9114 C   0  0  2  0  0  0  0  0  0  0  0  0
    3.4388   -9.0972   17.1974 O   0  0  0  0  0  0  0  0  0  0  0  0
    2.8979   -6.8697   18.1345 C   0  0  1  0  0  0  0  0  0  0  0  0
    2.1269   -7.4046   19.3765 C   0  0  2  0  0  0  0  0  0  0  0  0
    0.6260   -7.5580   18.9739 C   0  0  2  0  0  0  0  0  0  0  0  0
   -0.1263   -8.0290   20.1126 O   0  0  0  0  0  0  0  0  0  0  0  0
    0.5308   -8.5906   17.7672 C   0  0  2  0  0  0  0  0  0  0  0  0
    1.3313   -8.0781   16.5981 O   0  0  0  0  0  0  0  0  0  0  0  0
   -0.8990   -8.7947   17.2853 C   0  0  0  0  0  0  0  0  0  0  0  0
   -1.7548   -9.4097   18.3484 N   0  0  0  0  0  0  0  0  0  0  0  0
    5.2475  -12.0405   14.4778 C   0  0  2  0  0  0  0  0  0  0  0  0
    5.3566  -13.0906   13.4920 N   0  0  0  0  0  0  0  0  0  0  0  0
    4.4395  -12.5718   15.7299 C   0  0  0  0  0  0  0  0  0  0  0  0
    4.3066  -11.4214   16.8252 C   0  0  2  0  0  0  0  0  0  0  0  0
    3.5616  -11.9273   18.0078 N   0  0  0  0  0  0  0  0  0  0  0  0
    3.5708  -10.1595   16.1748 C   0  0  2  0  0  0  0  0  0  0  0  0
    4.4168   -9.6655   14.9249 C   0  0  2  0  0  0  0  0  0  0  0  0
    3.7686   -8.5346   14.3383 O   0  0  0  0  0  0  0  0  0  0  0  0
    4.5437  -10.8162   13.8501 C   0  0  1  0  0  0  0  0  0  0  0  0
    5.3354  -10.3566   12.7264 O   0  0  0  0  0  0  0  0  0  0  0  0
    4.8477   -9.6466   11.6388 C   0  0  2  0  0  0  0  0  0  0  0  0
    5.9102   -9.7574   10.4881 C   0  0  2  0  0  0  0  0  0  0  0  0
    6.1360  -11.0962   10.1851 O   0  0  0  0  0  0  0  0  0  0  0  0
    7.2643   -9.0174   10.8624 C   0  0  1  0  0  0  0  0  0  0  0  0
    8.2567   -9.1245    9.7485 N   0  0  0  0  0  0  0  0  0  0  0  0
    6.9386   -7.4953   11.1916 C   0  0  2  0  0  0  0  0  0  0  0  0
    8.1346   -6.7794   11.5240 O   0  0  0  0  0  0  0  0  0  0  0  0
    5.8957   -7.4617   12.3749 C   0  0  2  0  0  0  0  0  0  0  0  0
    4.6305   -8.2230   12.0029 O   0  0  0  0  0  0  0  0  0  0  0  0
    5.5211   -6.0430   12.7317 C   0  0  0  0  0  0  0  0  0  0  0  0
    4.9785   -5.3138   11.6151 O   0  0  0  0  0  0  0  0  0  0  0  0
    4.3112   -6.6913   18.4424 O   0  0  0  0  0  0  0  0  0  0  0  0
    2.2536   -6.5037   20.4061 O   0  0  0  0  0  0  0  0  0  0  0  0
    6.6630  -13.4447   12.9873 C   0  0  0  0  0  0  0  0  0  0  0  0
    7.6101  -12.6055   13.0485 O   0  0  0  0  0  0  0  0  0  0  0  0
    6.8482  -14.8672   12.3751 C   0  0  2  0  0  0  0  0  0  0  0  0
    7.9094  -16.2257    9.8211 N   0  0  0  0  0  0  0  0  0  0  0  0
    6.1008  -14.9899   11.0113 C   0  0  0  0  0  0  0  0  0  0  0  0
    6.4820  -16.2528   10.2208 C   0  0  0  0  0  0  0  0  0  0  0  0
    6.3622  -15.7842   13.1105 O   0  0  0  0  0  0  0  0  0  0  0  0
  1  2  1  1  0  0  0
  1  3  1  0  0  0  0
  1  8  1  0  0  0  0
  3  4  1  0  0  0  0
  3 32  1  1  0  0  0
  4  5  1  0  0  0  0
  4 33  1  1  0  0  0
  5  6  1  1  0  0  0
  5  7  1  0  0  0  0
  7  8  1  0  0  0  0
  7  9  1  6  0  0  0
  9 10  1  0  0  0  0
 11 12  1  6  0  0  0
 11 13  1  0  0  0  0
 11 19  1  0  0  0  0
 12 34  1  0  0  0  0
 13 14  1  0  0  0  0
 14 15  1  1  0  0  0
 14 16  1  0  0  0  0
 16  2  1  1  0  0  0
 16 17  1  0  0  0  0
 17 18  1  6  0  0  0
 17 19  1  0  0  0  0
 19 20  1  6  0  0  0
 21 20  1  1  0  0  0
 21 22  1  0  0  0  0
 21 29  1  0  0  0  0
 22 23  1  1  0  0  0
 22 24  1  0  0  0  0
 24 25  1  6  0  0  0
 24 26  1  0  0  0  0
 26 27  1  1  0  0  0
 26 28  1  0  0  0  0
 28 29  1  0  0  0  0
 28 30  1  6  0  0  0
 30 31  1  0  0  0  0
 34 35  2  0  0  0  0
 36 34  1  1  0  0  0
 36 38  1  0  0  0  0
 36 40  1  0  0  0  0
 37 39  1  0  0  0  0
 38 39  1  0  0  0  0
M  END
>  <CHROM.1>
-175.00574942,-178.12049953,-63.86763285,-126.80691279,154.85431869,-162.37201507
57.57597903,70.44506948,167.90829734,-64.38635357,4.46117541,-9.94922048
14.43443981,-2.71563148,-0.94646565,3.07742080

>  <Name>
ligand

>  <RI>
0

>  <Rbt.Current_Directory>
/home/itssahil/PROJECTS/Mol_Feturizer/New_Systems/rnas/4P20

>  <Rbt.Executable>
rbdock ($Id: //depot/dev/client3/rdock/2013.1/src/exe/rbdock.cxx#4 $)

>  <Rbt.Library>
libRbt.so (2013.1, Build901 2013/11/27)

>  <Rbt.Parameter_File>
/export/apps/rDock/src/rDock_2013.1_src/data/scripts/dock_solv.prm

>  <Rbt.Receptor>
prm/pocket_docking_8.prm

>  <SCORE>
-11.5025

>  <SCORE.INTER>
-2.27831

>  <SCORE.INTER.CONST>
1

>  <SCORE.INTER.POLAR>
0

>  <SCORE.INTER.ROT>
10

>  <SCORE.INTER.SOLV>
11.6219

>  <SCORE.INTER.VDW>
-15.6595

>  <SCORE.INTER.norm>
-0.0569576

>  <SCORE.INTRA>
-9.22422

>  <SCORE.INTRA.DIHEDRAL>
-21.2646

>  <SCORE.INTRA.DIHEDRAL.0>
28.2802

>  <SCORE.INTRA.POLAR>
0

>  <SCORE.INTRA.POLAR.0>
0

>  <SCORE.INTRA.REPUL>
0

>  <SCORE.INTRA.REPUL.0>
0

>  <SCORE.INTRA.SOLV>
1.05375

>  <SCORE.INTRA.SOLV.lig_0>
-101.981

>  <SCORE.INTRA.VDW>
0.881198

>  <SCORE.INTRA.VDW.0>
-5.72964

>  <SCORE.INTRA.norm>
-0.230605

>  <SCORE.RESTR>
0

>  <SCORE.RESTR.CAVITY>
0

>  <SCORE.RESTR.norm>
0

>  <SCORE.SYSTEM>
0

>  <SCORE.SYSTEM.CONST>
0

>  <SCORE.SYSTEM.DIHEDRAL>
0

>  <SCORE.SYSTEM.SOLV>
0

>  <SCORE.SYSTEM.norm>
0

>  <SCORE.heavy>
40

>  <SCORE.norm>
-0.287563

>  <RMSD>
8.129

$$$$
ligand
 OpenBabel11021811513D
libRbt.so/2013.1/901 2013/11/27
 40 42  0  0  0  0  0  0  0  0999 V2000
   -3.6207  -10.6474   15.6264 C   0  0  2  0  0  0  0  0  0  0  0  0
   -2.9240   -9.7562   16.5114 O   0  0  0  0  0  0  0  0  0  0  0  0
   -5.1748  -10.4088   15.7108 C   0  0  1  0  0  0  0  0  0  0  0  0
   -5.7365  -10.7877   17.1122 C   0  0  2  0  0  0  0  0  0  0  0  0
   -5.4262  -12.2986   17.3554 C   0  0  2  0  0  0  0  0  0  0  0  0
   -5.9573  -12.6927   18.6388 O   0  0  0  0  0  0  0  0  0  0  0  0
   -3.8490  -12.5031   17.3093 C   0  0  2  0  0  0  0  0  0  0  0  0
   -3.3223  -12.0759   15.9639 O   0  0  0  0  0  0  0  0  0  0  0  0
   -3.4428  -13.9558   17.5168 C   0  0  0  0  0  0  0  0  0  0  0  0
   -3.8415  -14.4498   18.8724 N   0  0  0  0  0  0  0  0  0  0  0  0
    1.3791   -8.8546   16.5361 C   0  0  2  0  0  0  0  0  0  0  0  0
    2.7927   -8.9881   16.8013 N   0  0  0  0  0  0  0  0  0  0  0  0
    0.5885   -8.7818   17.9045 C   0  0  0  0  0  0  0  0  0  0  0  0
   -0.9748   -8.6391   17.6277 C   0  0  2  0  0  0  0  0  0  0  0  0
   -1.7145   -8.5542   18.9142 N   0  0  0  0  0  0  0  0  0  0  0  0
   -1.4699   -9.8858   16.7573 C   0  0  2  0  0  0  0  0  0  0  0  0
   -0.6480   -9.9165   15.3988 C   0  0  2  0  0  0  0  0  0  0  0  0
   -1.0863  -11.0261   14.6115 O   0  0  0  0  0  0  0  0  0  0  0  0
    0.8988  -10.0540   15.6882 C   0  0  1  0  0  0  0  0  0  0  0  0
    1.6357  -10.0595   14.4402 O   0  0  0  0  0  0  0  0  0  0  0  0
    1.4806  -10.9883   13.4213 C   0  0  2  0  0  0  0  0  0  0  0  0
    2.1300  -12.3332   13.9059 C   0  0  2  0  0  0  0  0  0  0  0  0
    1.5281  -12.7449   15.0905 O   0  0  0  0  0  0  0  0  0  0  0  0
    3.7030  -12.2005   14.0774 C   0  0  1  0  0  0  0  0  0  0  0  0
    4.3022  -13.4950   14.5270 N   0  0  0  0  0  0  0  0  0  0  0  0
    4.3287  -11.7333   12.6913 C   0  0  2  0  0  0  0  0  0  0  0  0
    5.7530  -11.6110   12.7913 O   0  0  0  0  0  0  0  0  0  0  0  0
    3.6569  -10.3645   12.2862 C   0  0  2  0  0  0  0  0  0  0  0  0
    2.1453  -10.5140   12.1804 O   0  0  0  0  0  0  0  0  0  0  0  0
    4.1889   -9.8662   10.9637 C   0  0  0  0  0  0  0  0  0  0  0  0
    5.6035   -9.6006   10.9980 O   0  0  0  0  0  0  0  0  0  0  0  0
   -5.4395   -9.0073   15.4109 O   0  0  0  0  0  0  0  0  0  0  0  0
   -7.0934  -10.5725   17.1254 O   0  0  0  0  0  0  0  0  0  0  0  0
    3.4449   -8.0053   17.6353 C   0  0  0  0  0  0  0  0  0  0  0  0
    2.9367   -6.8520   17.7638 O   0  0  0  0  0  0  0  0  0  0  0  0
    4.7706   -8.4160   18.3470 C   0  0  2  0  0  0  0  0  0  0  0  0
    6.1721   -9.5783   20.9743 N   0  0  0  0  0  0  0  0  0  0  0  0
    4.6288   -9.8111   19.0304 C   0  0  0  0  0  0  0  0  0  0  0  0
    5.9261  -10.2947   19.6998 C   0  0  0  0  0  0  0  0  0  0  0  0
    5.0948   -7.6141   19.2797 O   0  0  0  0  0  0  0  0  0  0  0  0
  1  2  1  1  0  0  0
  1  3  1  0  0  0  0
  1  8  1  0  0  0  0
  3  4  1  0  0  0  0
  3 32  1  1  0  0  0
  4  5  1  0  0  0  0
  4 33  1  6  0  0  0
  5  6  1  1  0  0  0
  5  7  1  0  0  0  0
  7  8  1  0  0  0  0
  7  9  1  6  0  0  0
  9 10  1  0  0  0  0
 11 12  1  1  0  0  0
 11 13  1  0  0  0  0
 11 19  1  0  0  0  0
 12 34  1  0  0  0  0
 13 14  1  0  0  0  0
 14 15  1  1  0  0  0
 14 16  1  0  0  0  0
 16  2  1  6  0  0  0
 16 17  1  0  0  0  0
 17 18  1  6  0  0  0
 17 19  1  0  0  0  0
 19 20  1  6  0  0  0
 21 20  1  1  0  0  0
 21 22  1  0  0  0  0
 21 29  1  0  0  0  0
 22 23  1  1  0  0  0
 22 24  1  0  0  0  0
 24 25  1  6  0  0  0
 24 26  1  0  0  0  0
 26 27  1  1  0  0  0
 26 28  1  0  0  0  0
 28 29  1  0  0  0  0
 28 30  1  6  0  0  0
 30 31  1  0  0  0  0
 34 35  2  0  0  0  0
 36 34  1  1  0  0  0
 36 38  1  0  0  0  0
 36 40  1  0  0  0  0
 37 39  1  0  0  0  0
 38 39  1  0  0  0  0
M  END
>  <CHROM.1>
172.04399809,172.65924293,-63.11123058,-55.45391189,179.94195259,-73.12323295
-61.99381477,-46.86480703,177.61101154,75.54345368,0.42021416,-10.49540656
16.06606347,3.00869667,0.19432869,1.23806126

>  <Name>
ligand

>  <RI>
0

>  <Rbt.Current_Directory>
/home/itssahil/PROJECTS/Mol_Feturizer/New_Systems/rnas/4P20

>  <Rbt.Executable>
rbdock ($Id: //depot/dev/client3/rdock/2013.1/src/exe/rbdock.cxx#4 $)

>  <Rbt.Library>
libRbt.so (2013.1, Build901 2013/11/27)

>  <Rbt.Parameter_File>
/export/apps/rDock/src/rDock_2013.1_src/data/scripts/dock_solv.prm

>  <Rbt.Receptor>
prm/pocket_docking_4.prm

>  <SCORE>
-9.72298

>  <SCORE.INTER>
-1.26163

>  <SCORE.INTER.CONST>
1

>  <SCORE.INTER.POLAR>
0

>  <SCORE.INTER.ROT>
10

>  <SCORE.INTER.SOLV>
12.3749

>  <SCORE.INTER.VDW>
-15.2327

>  <SCORE.INTER.norm>
-0.0315409

>  <SCORE.INTRA>
-8.46134

>  <SCORE.INTRA.DIHEDRAL>
-24.9286

>  <SCORE.INTRA.DIHEDRAL.0>
28.2802

>  <SCORE.INTRA.POLAR>
0

>  <SCORE.INTRA.POLAR.0>
0

>  <SCORE.INTRA.REPUL>
0

>  <SCORE.INTRA.REPUL.0>
0

>  <SCORE.INTRA.SOLV>
0.99626

>  <SCORE.INTRA.SOLV.lig_0>
-101.981

>  <SCORE.INTRA.VDW>
3.50485

>  <SCORE.INTRA.VDW.0>
-5.72964

>  <SCORE.INTRA.norm>
-0.211534

>  <SCORE.RESTR>
0

>  <SCORE.RESTR.CAVITY>
0

>  <SCORE.RESTR.norm>
0

>  <SCORE.SYSTEM>
0

>  <SCORE.SYSTEM.CONST>
0

>  <SCORE.SYSTEM.DIHEDRAL>
0

>  <SCORE.SYSTEM.SOLV>
0

>  <SCORE.SYSTEM.norm>
0

>  <SCORE.heavy>
40

>  <SCORE.norm>
-0.243074

>  <RMSD>
8.131

$$$$
ligand
 OpenBabel11021811513D
libRbt.so/2013.1/901 2013/11/27
 40 42  0  0  0  0  0  0  0  0999 V2000
   -3.6765   -9.1526   17.3642 C   0  0  2  0  0  0  0  0  0  0  0  0
   -2.5453   -8.9296   16.5078 O   0  0  0  0  0  0  0  0  0  0  0  0
   -4.2569  -10.6004   17.1493 C   0  0  1  0  0  0  0  0  0  0  0  0
   -4.8522  -10.7719   15.7213 C   0  0  2  0  0  0  0  0  0  0  0  0
   -5.9950   -9.7210   15.5540 C   0  0  2  0  0  0  0  0  0  0  0  0
   -6.5893   -9.8686   14.2465 O   0  0  0  0  0  0  0  0  0  0  0  0
   -5.3731   -8.2673   15.7314 C   0  0  2  0  0  0  0  0  0  0  0  0
   -4.7532   -8.1456   17.0993 O   0  0  0  0  0  0  0  0  0  0  0  0
   -6.4174   -7.1666   15.6053 C   0  0  0  0  0  0  0  0  0  0  0  0
   -7.4894   -7.3048   16.6409 N   0  0  0  0  0  0  0  0  0  0  0  0
    1.8097   -9.0850   17.0907 C   0  0  2  0  0  0  0  0  0  0  0  0
    3.1142   -9.5906   17.4500 N   0  0  0  0  0  0  0  0  0  0  0  0
    0.8810   -9.0593   18.3711 C   0  0  0  0  0  0  0  0  0  0  0  0
   -0.5649   -8.5077   17.9888 C   0  0  2  0  0  0  0  0  0  0  0  0
   -1.4311   -8.4687   19.1961 N   0  0  0  0  0  0  0  0  0  0  0  0
   -1.1982   -9.4377   16.8526 C   0  0  2  0  0  0  0  0  0  0  0  0
   -0.2314   -9.4322   15.5928 C   0  0  2  0  0  0  0  0  0  0  0  0
   -0.7911  -10.2583   14.5694 O   0  0  0  0  0  0  0  0  0  0  0  0
    1.1980   -9.9771   15.9870 C   0  0  1  0  0  0  0  0  0  0  0  0
    2.0735   -9.9459   14.8324 O   0  0  0  0  0  0  0  0  0  0  0  0
    3.2683  -10.6409   14.7129 C   0  0  2  0  0  0  0  0  0  0  0  0
    3.8861  -10.2809   13.3151 C   0  0  2  0  0  0  0  0  0  0  0  0
    4.0654   -8.9046   13.2218 O   0  0  0  0  0  0  0  0  0  0  0  0
    2.9957  -10.8260   12.1187 C   0  0  1  0  0  0  0  0  0  0  0  0
    3.6083  -10.4832   10.7981 N   0  0  0  0  0  0  0  0  0  0  0  0
    2.8337  -12.4004   12.2808 C   0  0  2  0  0  0  0  0  0  0  0  0
    2.0459  -12.9434   11.2141 O   0  0  0  0  0  0  0  0  0  0  0  0
    2.1779  -12.6838   13.6875 C   0  0  2  0  0  0  0  0  0  0  0  0
    3.0299  -12.1040   14.8084 O   0  0  0  0  0  0  0  0  0  0  0  0
    2.0104  -14.1661   13.9224 C   0  0  0  0  0  0  0  0  0  0  0  0
    1.1126  -14.7805   12.9794 O   0  0  0  0  0  0  0  0  0  0  0  0
   -3.1860  -11.5616   17.3803 O   0  0  0  0  0  0  0  0  0  0  0  0
   -5.3538  -12.0446   15.5936 O   0  0  0  0  0  0  0  0  0  0  0  0
    4.2831   -8.8050   17.1284 C   0  0  0  0  0  0  0  0  0  0  0  0
    4.2291   -7.9491   16.1959 O   0  0  0  0  0  0  0  0  0  0  0  0
    5.5814   -9.0556   17.9555 C   0  0  2  0  0  0  0  0  0  0  0  0
    4.4826   -8.4868   21.6482 N   0  0  0  0  0  0  0  0  0  0  0  0
    5.4812   -8.3963   19.3658 C   0  0  0  0  0  0  0  0  0  0  0  0
    4.5277   -9.1383   20.3172 C   0  0  0  0  0  0  0  0  0  0  0  0
    6.6129   -8.5434   17.4155 O   0  0  0  0  0  0  0  0  0  0  0  0
  1  2  1  6  0  0  0
  1  3  1  0  0  0  0
  1  8  1  0  0  0  0
  3  4  1  0  0  0  0
  3 32  1  6  0  0  0
  4  5  1  0  0  0  0
  4 33  1  1  0  0  0
  5  6  1  6  0  0  0
  5  7  1  0  0  0  0
  7  8  1  0  0  0  0
  7  9  1  1  0  0  0
  9 10  1  0  0  0  0
 11 12  1  1  0  0  0
 11 13  1  0  0  0  0
 11 19  1  0  0  0  0
 12 34  1  0  0  0  0
 13 14  1  0  0  0  0
 14 15  1  1  0  0  0
 14 16  1  0  0  0  0
 16  2  1  6  0  0  0
 16 17  1  0  0  0  0
 17 18  1  6  0  0  0
 17 19  1  0  0  0  0
 19 20  1  6  0  0  0
 21 20  1  6  0  0  0
 21 22  1  0  0  0  0
 21 29  1  0  0  0  0
 22 23  1  6  0  0  0
 22 24  1  0  0  0  0
 24 25  1  6  0  0  0
 24 26  1  0  0  0  0
 26 27  1  6  0  0  0
 26 28  1  0  0  0  0
 28 29  1  0  0  0  0
 28 30  1  1  0  0  0
 30 31  1  0  0  0  0
 34 35  2  0  0  0  0
 36 34  1  6  0  0  0
 36 38  1  0  0  0  0
 36 40  1  0  0  0  0
 37 39  1  0  0  0  0
 38 39  1  0  0  0  0
M  END
>  <CHROM.1>
-80.40684520,-76.15616374,60.13545095,-125.97535321,77.02624270,-178.73245918
-63.22117363,-76.61586510,72.91153104,179.13166565,0.25045721,-9.97152226
15.85829418,-3.07727147,0.04528522,-2.12198973

>  <Name>
ligand

>  <RI>
0

>  <Rbt.Current_Directory>
/home/itssahil/PROJECTS/Mol_Feturizer/New_Systems/rnas/4P20

>  <Rbt.Executable>
rbdock ($Id: //depot/dev/client3/rdock/2013.1/src/exe/rbdock.cxx#4 $)

>  <Rbt.Library>
libRbt.so (2013.1, Build901 2013/11/27)

>  <Rbt.Parameter_File>
/export/apps/rDock/src/rDock_2013.1_src/data/scripts/dock_solv.prm

>  <Rbt.Receptor>
prm/pocket_docking_5.prm

>  <SCORE>
-13.5033

>  <SCORE.INTER>
-4.09107

>  <SCORE.INTER.CONST>
1

>  <SCORE.INTER.POLAR>
0

>  <SCORE.INTER.ROT>
10

>  <SCORE.INTER.SOLV>
17.4562

>  <SCORE.INTER.VDW>
-18.8128

>  <SCORE.INTER.norm>
-0.102277

>  <SCORE.INTRA>
-9.41219

>  <SCORE.INTRA.DIHEDRAL>
-20.9879

>  <SCORE.INTRA.DIHEDRAL.0>
28.2802

>  <SCORE.INTRA.POLAR>
0

>  <SCORE.INTRA.POLAR.0>
0

>  <SCORE.INTRA.REPUL>
0

>  <SCORE.INTRA.REPUL.0>
0

>  <SCORE.INTRA.SOLV>
1.54084

>  <SCORE.INTRA.SOLV.lig_0>
-101.981

>  <SCORE.INTRA.VDW>
0.311316

>  <SCORE.INTRA.VDW.0>
-5.72964

>  <SCORE.INTRA.norm>
-0.235305

>  <SCORE.RESTR>
0

>  <SCORE.RESTR.CAVITY>
0

>  <SCORE.RESTR.norm>
0

>  <SCORE.SYSTEM>
0

>  <SCORE.SYSTEM.CONST>
0

>  <SCORE.SYSTEM.DIHEDRAL>
0

>  <SCORE.SYSTEM.SOLV>
0

>  <SCORE.SYSTEM.norm>
0

>  <SCORE.heavy>
40

>  <SCORE.norm>
-0.337582

>  <RMSD>
8.132

$$$$
ligand
 OpenBabel11021811513D
libRbt.so/2013.1/901 2013/11/27
 40 42  0  0  0  0  0  0  0  0999 V2000
   -3.6519   -9.6280   17.1189 C   0  0  2  0  0  0  0  0  0  0  0  0
   -2.6235   -9.4313   16.1357 O   0  0  0  0  0  0  0  0  0  0  0  0
   -4.3994  -10.9919   16.8730 C   0  0  1  0  0  0  0  0  0  0  0  0
   -5.1877  -10.9783   15.5309 C   0  0  2  0  0  0  0  0  0  0  0  0
   -6.2297   -9.8176   15.6039 C   0  0  2  0  0  0  0  0  0  0  0  0
   -6.9990   -9.7914   14.3825 O   0  0  0  0  0  0  0  0  0  0  0  0
   -5.4455   -8.4483   15.8075 C   0  0  2  0  0  0  0  0  0  0  0  0
   -4.6457   -8.5079   17.0830 O   0  0  0  0  0  0  0  0  0  0  0  0
   -6.3799   -7.2507   15.9117 C   0  0  0  0  0  0  0  0  0  0  0  0
   -7.2702   -7.1423   14.7133 N   0  0  0  0  0  0  0  0  0  0  0  0
    1.6727   -8.5825   16.5256 C   0  0  2  0  0  0  0  0  0  0  0  0
    3.0642   -8.7530   16.8737 N   0  0  0  0  0  0  0  0  0  0  0  0
    0.7911   -8.6137   17.8388 C   0  0  0  0  0  0  0  0  0  0  0  0
   -0.7489   -8.4314   17.4698 C   0  0  2  0  0  0  0  0  0  0  0  0
   -1.5742   -8.4445   18.7060 N   0  0  0  0  0  0  0  0  0  0  0  0
   -1.1902   -9.5967   16.4677 C   0  0  2  0  0  0  0  0  0  0  0  0
   -0.2777   -9.5247   15.1700 C   0  0  2  0  0  0  0  0  0  0  0  0
   -0.6673  -10.5609   14.2656 O   0  0  0  0  0  0  0  0  0  0  0  0
    1.2449   -9.7027   15.5508 C   0  0  1  0  0  0  0  0  0  0  0  0
    2.0653   -9.6136   14.3593 O   0  0  0  0  0  0  0  0  0  0  0  0
    3.2759  -10.2638   14.1687 C   0  0  2  0  0  0  0  0  0  0  0  0
    3.9778   -9.6010   12.9304 C   0  0  2  0  0  0  0  0  0  0  0  0
    4.1414   -8.2384   13.1576 O   0  0  0  0  0  0  0  0  0  0  0  0
    3.1759   -9.8664   11.5859 C   0  0  1  0  0  0  0  0  0  0  0  0
    3.8678   -9.2376   10.4186 N   0  0  0  0  0  0  0  0  0  0  0  0
    3.0282  -11.4374   11.3828 C   0  0  2  0  0  0  0  0  0  0  0  0
    2.3201  -11.7296   10.1717 O   0  0  0  0  0  0  0  0  0  0  0  0
    2.2866  -12.0275   12.6440 C   0  0  2  0  0  0  0  0  0  0  0  0
    3.0546  -11.7116   13.9203 O   0  0  0  0  0  0  0  0  0  0  0  0
    2.1271  -13.5250   12.5319 C   0  0  0  0  0  0  0  0  0  0  0  0
    1.4375  -14.0966   13.6589 O   0  0  0  0  0  0  0  0  0  0  0  0
   -3.4111  -12.0630   16.8797 O   0  0  0  0  0  0  0  0  0  0  0  0
   -5.8284  -12.1836   15.3741 O   0  0  0  0  0  0  0  0  0  0  0  0
    3.6717   -7.8304   17.8047 C   0  0  0  0  0  0  0  0  0  0  0  0
    3.1696   -6.6787   17.9675 O   0  0  0  0  0  0  0  0  0  0  0  0
    4.9428   -8.3020   18.5755 C   0  0  2  0  0  0  0  0  0  0  0  0
    4.6675  -12.1817   18.7734 N   0  0  0  0  0  0  0  0  0  0  0  0
    4.7326   -9.7234   19.1828 C   0  0  0  0  0  0  0  0  0  0  0  0
    4.8751  -10.8531   18.1491 C   0  0  0  0  0  0  0  0  0  0  0  0
    5.2240   -7.5508   19.5628 O   0  0  0  0  0  0  0  0  0  0  0  0
  1  2  1  6  0  0  0
  1  3  1  0  0  0  0
  1  8  1  0  0  0  0
  3  4  1  0  0  0  0
  3 32  1  6  0  0  0
  4  5  1  0  0  0  0
  4 33  1  1  0  0  0
  5  6  1  6  0  0  0
  5  7  1  0  0  0  0
  7  8  1  0  0  0  0
  7  9  1  1  0  0  0
  9 10  1  0  0  0  0
 11 12  1  1  0  0  0
 11 13  1  0  0  0  0
 11 19  1  0  0  0  0
 12 34  1  0  0  0  0
 13 14  1  0  0  0  0
 14 15  1  1  0  0  0
 14 16  1  0  0  0  0
 16  2  1  6  0  0  0
 16 17  1  0  0  0  0
 17 18  1  6  0  0  0
 17 19  1  0  0  0  0
 19 20  1  6  0  0  0
 21 20  1  6  0  0  0
 21 22  1  0  0  0  0
 21 29  1  0  0  0  0
 22 23  1  1  0  0  0
 22 24  1  0  0  0  0
 24 25  1  6  0  0  0
 24 26  1  0  0  0  0
 26 27  1  6  0  0  0
 26 28  1  0  0  0  0
 28 29  1  0  0  0  0
 28 30  1  6  0  0  0
 30 31  1  0  0  0  0
 34 35  2  0  0  0  0
 36 34  1  1  0  0  0
 36 38  1  0  0  0  0
 36 40  1  0  0  0  0
 37 39  1  0  0  0  0
 38 39  1  0  0  0  0
M  END
>  <CHROM.1>
-105.52751738,-67.90958819,-56.51614024,-56.88602668,90.09912113,-165.52112215
-179.22099857,-47.69352343,78.15486179,179.97654320,0.13859693,-9.84542701
15.51430428,-3.07136336,0.01295665,-2.01411428

>  <Name>
ligand

>  <RI>
0

>  <Rbt.Current_Directory>
/home/itssahil/PROJECTS/Mol_Feturizer/New_Systems/rnas/4P20

>  <Rbt.Executable>
rbdock ($Id: //depot/dev/client3/rdock/2013.1/src/exe/rbdock.cxx#4 $)

>  <Rbt.Library>
libRbt.so (2013.1, Build901 2013/11/27)

>  <Rbt.Parameter_File>
/export/apps/rDock/src/rDock_2013.1_src/data/scripts/dock_solv.prm

>  <Rbt.Receptor>
prm/pocket_docking_6.prm

>  <SCORE>
-12.4671

>  <SCORE.INTER>
-6.66634

>  <SCORE.INTER.CONST>
1

>  <SCORE.INTER.POLAR>
0

>  <SCORE.INTER.ROT>
10

>  <SCORE.INTER.SOLV>
22.7967

>  <SCORE.INTER.VDW>
-22.3098

>  <SCORE.INTER.norm>
-0.166658

>  <SCORE.INTRA>
-5.80079

>  <SCORE.INTRA.DIHEDRAL>
-15.0608

>  <SCORE.INTRA.DIHEDRAL.0>
28.2802

>  <SCORE.INTRA.POLAR>
0

>  <SCORE.INTRA.POLAR.0>
0

>  <SCORE.INTRA.REPUL>
0

>  <SCORE.INTRA.REPUL.0>
0

>  <SCORE.INTRA.SOLV>
0.304035

>  <SCORE.INTRA.SOLV.lig_0>
-101.981

>  <SCORE.INTRA.VDW>
1.5776

>  <SCORE.INTRA.VDW.0>
-5.72964

>  <SCORE.INTRA.norm>
-0.14502

>  <SCORE.RESTR>
0

>  <SCORE.RESTR.CAVITY>
0

>  <SCORE.RESTR.norm>
0

>  <SCORE.SYSTEM>
0

>  <SCORE.SYSTEM.CONST>
0

>  <SCORE.SYSTEM.DIHEDRAL>
0

>  <SCORE.SYSTEM.SOLV>
0

>  <SCORE.SYSTEM.norm>
0

>  <SCORE.heavy>
40

>  <SCORE.norm>
-0.311678

>  <RMSD>
8.147

$$$$
ligand
 OpenBabel11021811513D
libRbt.so/2013.1/901 2013/11/27
 40 42  0  0  0  0  0  0  0  0999 V2000
    4.2117   -1.2488   23.6731 C   0  0  2  0  0  0  0  0  0  0  0  0
    4.3070   -2.0951   22.5165 O   0  0  0  0  0  0  0  0  0  0  0  0
    2.7719   -1.3344   24.3048 C   0  0  1  0  0  0  0  0  0  0  0  0
    1.6916   -0.7519   23.3474 C   0  0  2  0  0  0  0  0  0  0  0  0
    2.0544    0.7423   23.0752 C   0  0  2  0  0  0  0  0  0  0  0  0
    1.0566    1.3240   22.2089 O   0  0  0  0  0  0  0  0  0  0  0  0
    3.4927    0.7964   22.3970 C   0  0  2  0  0  0  0  0  0  0  0  0
    4.5104    0.1754   23.3183 O   0  0  0  0  0  0  0  0  0  0  0  0
    3.9486    2.2202   22.1086 C   0  0  0  0  0  0  0  0  0  0  0  0
    3.0253    2.9101   21.1535 N   0  0  0  0  0  0  0  0  0  0  0  0
    5.0297   -6.4155   22.1399 C   0  0  2  0  0  0  0  0  0  0  0  0
    4.8264   -7.8410   22.2536 N   0  0  0  0  0  0  0  0  0  0  0  0
    5.0712   -5.7700   23.5837 C   0  0  0  0  0  0  0  0  0  0  0  0
    5.2904   -4.1949   23.4741 C   0  0  2  0  0  0  0  0  0  0  0  0
    5.3456   -3.5923   24.8318 N   0  0  0  0  0  0  0  0  0  0  0  0
    4.1068   -3.5591   22.6070 C   0  0  2  0  0  0  0  0  0  0  0  0
    4.1056   -4.2386   21.1717 C   0  0  2  0  0  0  0  0  0  0  0  0
    3.0526   -3.6738   20.3872 O   0  0  0  0  0  0  0  0  0  0  0  0
    3.8917   -5.7988   21.2958 C   0  0  1  0  0  0  0  0  0  0  0  0
    3.9140   -6.4061   19.9799 O   0  0  0  0  0  0  0  0  0  0  0  0
    2.9908   -6.1695   18.9717 C   0  0  2  0  0  0  0  0  0  0  0  0
    1.5956   -6.6793   19.4802 C   0  0  2  0  0  0  0  0  0  0  0  0
    1.2614   -6.0294   20.6639 O   0  0  0  0  0  0  0  0  0  0  0  0
    1.5757   -8.2561   19.6661 C   0  0  1  0  0  0  0  0  0  0  0  0
    0.2350   -8.7212   20.1385 N   0  0  0  0  0  0  0  0  0  0  0  0
    1.9599   -8.9370   18.2804 C   0  0  2  0  0  0  0  0  0  0  0  0
    1.9432  -10.3654   18.3934 O   0  0  0  0  0  0  0  0  0  0  0  0
    3.3822   -8.4066   17.8508 C   0  0  2  0  0  0  0  0  0  0  0  0
    3.3803   -6.8886   17.7316 O   0  0  0  0  0  0  0  0  0  0  0  0
    3.8076   -8.9967   16.5275 C   0  0  0  0  0  0  0  0  0  0  0  0
    2.9296   -8.6294   15.4472 O   0  0  0  0  0  0  0  0  0  0  0  0
    2.4895   -2.7308   24.6122 O   0  0  0  0  0  0  0  0  0  0  0  0
    0.4610   -0.8401   23.9520 O   0  0  0  0  0  0  0  0  0  0  0  0
    5.4347   -8.7155   21.2779 C   0  0  0  0  0  0  0  0  0  0  0  0
    5.7493   -8.2634   20.1371 O   0  0  0  0  0  0  0  0  0  0  0  0
    5.6749  -10.2031   21.6801 C   0  0  2  0  0  0  0  0  0  0  0  0
    5.1915  -13.2611   21.0861 N   0  0  0  0  0  0  0  0  0  0  0  0
    6.1419  -11.0452   20.4528 C   0  0  0  0  0  0  0  0  0  0  0  0
    6.4395  -12.5133   20.8008 C   0  0  0  0  0  0  0  0  0  0  0  0
    4.6184  -10.7741   22.0994 O   0  0  0  0  0  0  0  0  0  0  0  0
  1  2  1  6  0  0  0
  1  3  1  0  0  0  0
  1  8  1  0  0  0  0
  3  4  1  0  0  0  0
  3 32  1  6  0  0  0
  4  5  1  0  0  0  0
  4 33  1  1  0  0  0
  5  6  1  6  0  0  0
  5  7  1  0  0  0  0
  7  8  1  0  0  0  0
  7  9  1  1  0  0  0
  9 10  1  0  0  0  0
 11 12  1  1  0  0  0
 11 13  1  0  0  0  0
 11 19  1  0  0  0  0
 12 34  1  0  0  0  0
 13 14  1  0  0  0  0
 14 15  1  1  0  0  0
 14 16  1  0  0  0  0
 16  2  1  6  0  0  0
 16 17  1  0  0  0  0
 17 18  1  6  0  0  0
 17 19  1  0  0  0  0
 19 20  1  6  0  0  0
 21 20  1  1  0  0  0
 21 22  1  0  0  0  0
 21 29  1  0  0  0  0
 22 23  1  1  0  0  0
 22 24  1  0  0  0  0
 24 25  1  6  0  0  0
 24 26  1  0  0  0  0
 26 27  1  1  0  0  0
 26 28  1  0  0  0  0
 28 29  1  0  0  0  0
 28 30  1  6  0  0  0
 30 31  1  0  0  0  0
 34 35  2  0  0  0  0
 36 34  1  6  0  0  0
 36 38  1  0  0  0  0
 36 40  1  0  0  0  0
 37 39  1  0  0  0  0
 38 39  1  0  0  0  0
M  END
>  <CHROM.1>
-61.00239114,-66.23085433,-61.45193223,-146.86537372,175.68821808,-63.64771835
62.34838762,171.79106223,178.09638251,71.31379101,3.54992031,-5.37128405
21.20430012,-1.75961754,0.94495872,-2.65840751

>  <Name>
ligand

>  <RI>
0

>  <Rbt.Current_Directory>
/home/itssahil/PROJECTS/Mol_Feturizer/New_Systems/rnas/4P20

>  <Rbt.Executable>
rbdock ($Id: //depot/dev/client3/rdock/2013.1/src/exe/rbdock.cxx#4 $)

>  <Rbt.Library>
libRbt.so (2013.1, Build901 2013/11/27)

>  <Rbt.Parameter_File>
/export/apps/rDock/src/rDock_2013.1_src/data/scripts/dock_solv.prm

>  <Rbt.Receptor>
prm/pocket_docking_8.prm

>  <SCORE>
-18.7121

>  <SCORE.INTER>
-10.8349

>  <SCORE.INTER.CONST>
1

>  <SCORE.INTER.POLAR>
0

>  <SCORE.INTER.ROT>
10

>  <SCORE.INTER.SOLV>
15.9923

>  <SCORE.INTER.VDW>
-22.8207

>  <SCORE.INTER.norm>
-0.270873

>  <SCORE.INTRA>
-7.87713

>  <SCORE.INTRA.DIHEDRAL>
-25.8243

>  <SCORE.INTRA.DIHEDRAL.0>
28.2802

>  <SCORE.INTRA.POLAR>
0

>  <SCORE.INTRA.POLAR.0>
0

>  <SCORE.INTRA.REPUL>
0

>  <SCORE.INTRA.REPUL.0>
0

>  <SCORE.INTRA.SOLV>
4.83865

>  <SCORE.INTRA.SOLV.lig_0>
-101.981

>  <SCORE.INTRA.VDW>
2.61571

>  <SCORE.INTRA.VDW.0>
-5.72964

>  <SCORE.INTRA.norm>
-0.196928

>  <SCORE.RESTR>
0

>  <SCORE.RESTR.CAVITY>
0

>  <SCORE.RESTR.norm>
0

>  <SCORE.SYSTEM>
0

>  <SCORE.SYSTEM.CONST>
0

>  <SCORE.SYSTEM.DIHEDRAL>
0

>  <SCORE.SYSTEM.SOLV>
0

>  <SCORE.SYSTEM.norm>
0

>  <SCORE.heavy>
40

>  <SCORE.norm>
-0.467802

>  <RMSD>
8.147

$$$$
ligand
 OpenBabel11021811513D
libRbt.so/2013.1/901 2013/11/27
 40 42  0  0  0  0  0  0  0  0999 V2000
   -4.7841   -8.7817   17.2253 C   0  0  2  0  0  0  0  0  0  0  0  0
   -3.5586   -8.7503   16.4770 O   0  0  0  0  0  0  0  0  0  0  0  0
   -5.5561  -10.1296   16.9671 C   0  0  1  0  0  0  0  0  0  0  0  0
   -6.0374  -10.2394   15.4909 C   0  0  2  0  0  0  0  0  0  0  0  0
   -6.9867   -9.0319   15.2099 C   0  0  2  0  0  0  0  0  0  0  0  0
   -7.4744   -9.1157   13.8536 O   0  0  0  0  0  0  0  0  0  0  0  0
   -6.1696   -7.6853   15.4346 C   0  0  2  0  0  0  0  0  0  0  0  0
   -5.6661   -7.6296   16.8536 O   0  0  0  0  0  0  0  0  0  0  0  0
   -7.0181   -6.4424   15.2035 C   0  0  0  0  0  0  0  0  0  0  0  0
   -8.0892   -6.3076   16.2405 N   0  0  0  0  0  0  0  0  0  0  0  0
    0.6057  -10.0806   16.9444 C   0  0  2  0  0  0  0  0  0  0  0  0
    1.7384  -10.8783   17.3533 N   0  0  0  0  0  0  0  0  0  0  0  0
   -0.1647   -9.5602   18.2244 C   0  0  0  0  0  0  0  0  0  0  0  0
   -1.4212   -8.6815   17.7885 C   0  0  2  0  0  0  0  0  0  0  0  0
   -2.1344   -8.1797   18.9924 N   0  0  0  0  0  0  0  0  0  0  0  0
   -2.3872   -9.5654   16.8708 C   0  0  2  0  0  0  0  0  0  0  0  0
   -1.5698  -10.0642   15.6039 C   0  0  2  0  0  0  0  0  0  0  0  0
   -2.4264  -10.8528   14.7747 O   0  0  0  0  0  0  0  0  0  0  0  0
   -0.3261  -10.9296   16.0506 C   0  0  1  0  0  0  0  0  0  0  0  0
    0.4204  -11.3591   14.8849 O   0  0  0  0  0  0  0  0  0  0  0  0
   -0.0374  -12.2462   13.9214 C   0  0  2  0  0  0  0  0  0  0  0  0
   -0.3090  -13.6185   14.6343 C   0  0  2  0  0  0  0  0  0  0  0  0
   -1.2270  -13.4388   15.6639 O   0  0  0  0  0  0  0  0  0  0  0  0
    1.0313  -14.2805   15.1695 C   0  0  1  0  0  0  0  0  0  0  0  0
    0.7513  -15.5912   15.8332 N   0  0  0  0  0  0  0  0  0  0  0  0
    2.0327  -14.4628   13.9468 C   0  0  2  0  0  0  0  0  0  0  0  0
    3.2568  -15.0707   14.3778 O   0  0  0  0  0  0  0  0  0  0  0  0
    2.2854  -13.0444   13.3040 C   0  0  2  0  0  0  0  0  0  0  0  0
    0.9756  -12.4158   12.8482 O   0  0  0  0  0  0  0  0  0  0  0  0
    3.2157  -13.1409   12.1183 C   0  0  0  0  0  0  0  0  0  0  0  0
    4.5373  -13.5803   12.4829 O   0  0  0  0  0  0  0  0  0  0  0  0
   -4.6698  -11.2363   17.3042 O   0  0  0  0  0  0  0  0  0  0  0  0
   -6.7131  -11.4242   15.3257 O   0  0  0  0  0  0  0  0  0  0  0  0
    2.7965  -10.2548   18.1138 C   0  0  0  0  0  0  0  0  0  0  0  0
    2.9631   -9.0006   18.0490 O   0  0  0  0  0  0  0  0  0  0  0  0
    3.7037  -11.1719   18.9904 C   0  0  2  0  0  0  0  0  0  0  0  0
    7.5775  -11.5169   19.1913 N   0  0  0  0  0  0  0  0  0  0  0  0
    5.2092  -10.9746   18.6327 C   0  0  0  0  0  0  0  0  0  0  0  0
    6.1629  -11.7029   19.5945 C   0  0  0  0  0  0  0  0  0  0  0  0
    3.4721  -12.4092   18.8073 O   0  0  0  0  0  0  0  0  0  0  0  0
  1  2  1  6  0  0  0
  1  3  1  0  0  0  0
  1  8  1  0  0  0  0
  3  4  1  0  0  0  0
  3 32  1  6  0  0  0
  4  5  1  0  0  0  0
  4 33  1  1  0  0  0
  5  6  1  6  0  0  0
  5  7  1  0  0  0  0
  7  8  1  0  0  0  0
  7  9  1  1  0  0  0
  9 10  1  0  0  0  0
 11 12  1  1  0  0  0
 11 13  1  0  0  0  0
 11 19  1  0  0  0  0
 12 34  1  0  0  0  0
 13 14  1  0  0  0  0
 14 15  1  1  0  0  0
 14 16  1  0  0  0  0
 16  2  1  6  0  0  0
 16 17  1  0  0  0  0
 17 18  1  6  0  0  0
 17 19  1  0  0  0  0
 19 20  1  6  0  0  0
 21 20  1  1  0  0  0
 21 22  1  0  0  0  0
 21 29  1  0  0  0  0
 22 23  1  1  0  0  0
 22 24  1  0  0  0  0
 24 25  1  6  0  0  0
 24 26  1  0  0  0  0
 26 27  1  1  0  0  0
 26 28  1  0  0  0  0
 28 29  1  0  0  0  0
 28 30  1  6  0  0  0
 30 31  1  0  0  0  0
 34 35  2  0  0  0  0
 36 34  1  6  0  0  0
 36 38  1  0  0  0  0
 36 40  1  0  0  0  0
 37 39  1  0  0  0  0
 38 39  1  0  0  0  0
M  END
>  <CHROM.1>
-73.65923918,-94.09291699,67.11195403,-63.05350755,173.26805677,-61.69114090
-64.51940272,124.99447406,171.92916735,178.39851281,-0.80921097,-10.89049208
16.09199444,-2.93598478,0.31510530,-2.28582407

>  <Name>
ligand

>  <RI>
0

>  <Rbt.Current_Directory>
/home/itssahil/PROJECTS/Mol_Feturizer/New_Systems/rnas/4P20

>  <Rbt.Executable>
rbdock ($Id: //depot/dev/client3/rdock/2013.1/src/exe/rbdock.cxx#4 $)

>  <Rbt.Library>
libRbt.so (2013.1, Build901 2013/11/27)

>  <Rbt.Parameter_File>
/export/apps/rDock/src/rDock_2013.1_src/data/scripts/dock_solv.prm

>  <Rbt.Receptor>
prm/pocket_docking_4.prm

>  <SCORE>
-9.74767

>  <SCORE.INTER>
-2.86548

>  <SCORE.INTER.CONST>
1

>  <SCORE.INTER.POLAR>
0

>  <SCORE.INTER.ROT>
10

>  <SCORE.INTER.SOLV>
15.927

>  <SCORE.INTER.VDW>
-17.486

>  <SCORE.INTER.norm>
-0.071637

>  <SCORE.INTRA>
-7.04367

>  <SCORE.INTRA.DIHEDRAL>
-19.8547

>  <SCORE.INTRA.DIHEDRAL.0>
28.2802

>  <SCORE.INTRA.POLAR>
0

>  <SCORE.INTRA.POLAR.0>
0

>  <SCORE.INTRA.REPUL>
0

>  <SCORE.INTRA.REPUL.0>
0

>  <SCORE.INTRA.SOLV>
0.682142

>  <SCORE.INTRA.SOLV.lig_0>
-101.981

>  <SCORE.INTRA.VDW>
2.54261

>  <SCORE.INTRA.VDW.0>
-5.72964

>  <SCORE.INTRA.norm>
-0.176092

>  <SCORE.RESTR>
0.161483

>  <SCORE.RESTR.CAVITY>
0.161483

>  <SCORE.RESTR.norm>
0.00403706

>  <SCORE.SYSTEM>
0

>  <SCORE.SYSTEM.CONST>
0

>  <SCORE.SYSTEM.DIHEDRAL>
0

>  <SCORE.SYSTEM.SOLV>
0

>  <SCORE.SYSTEM.norm>
0

>  <SCORE.heavy>
40

>  <SCORE.norm>
-0.243692

>  <RMSD>
8.159

$$$$
ligand
 OpenBabel11021811513D
libRbt.so/2013.1/901 2013/11/27
 40 42  0  0  0  0  0  0  0  0999 V2000
   -4.9964   -9.9642   15.9231 C   0  0  2  0  0  0  0  0  0  0  0  0
   -4.0282   -9.1712   16.6278 O   0  0  0  0  0  0  0  0  0  0  0  0
   -6.3522   -9.1778   15.7725 C   0  0  1  0  0  0  0  0  0  0  0  0
   -7.0286   -8.9339   17.1531 C   0  0  2  0  0  0  0  0  0  0  0  0
   -7.3028  -10.3283   17.8003 C   0  0  2  0  0  0  0  0  0  0  0  0
   -7.9552  -10.1412   19.0747 O   0  0  0  0  0  0  0  0  0  0  0  0
   -5.9133  -11.0818   17.9819 C   0  0  2  0  0  0  0  0  0  0  0  0
   -5.2521  -11.2547   16.6391 O   0  0  0  0  0  0  0  0  0  0  0  0
   -6.0764  -12.4678   18.5908 C   0  0  0  0  0  0  0  0  0  0  0  0
   -6.8622  -13.3730   17.6943 N   0  0  0  0  0  0  0  0  0  0  0  0
    0.3555   -9.4971   16.5447 C   0  0  2  0  0  0  0  0  0  0  0  0
    1.6862   -9.9846   16.8239 N   0  0  0  0  0  0  0  0  0  0  0  0
   -0.3392   -9.0522   17.8946 C   0  0  0  0  0  0  0  0  0  0  0  0
   -1.8116   -8.5158   17.6028 C   0  0  2  0  0  0  0  0  0  0  0  0
   -2.4567   -8.0829   18.8700 N   0  0  0  0  0  0  0  0  0  0  0  0
   -2.6581   -9.6684   16.8873 C   0  0  2  0  0  0  0  0  0  0  0  0
   -1.9214  -10.0807   15.5423 C   0  0  2  0  0  0  0  0  0  0  0  0
   -2.6730  -11.1086   14.8930 O   0  0  0  0  0  0  0  0  0  0  0  0
   -0.4630  -10.6061   15.8460 C   0  0  1  0  0  0  0  0  0  0  0  0
    0.2025  -10.9581   14.6076 O   0  0  0  0  0  0  0  0  0  0  0  0
   -0.2878  -11.8411   13.6564 C   0  0  2  0  0  0  0  0  0  0  0  0
   -0.0919  -13.2947   14.2165 C   0  0  2  0  0  0  0  0  0  0  0  0
   -0.7459  -13.4191   15.4379 O   0  0  0  0  0  0  0  0  0  0  0  0
    1.4444  -13.6745   14.3469 C   0  0  1  0  0  0  0  0  0  0  0  0
    1.6078  -15.0662   14.8697 N   0  0  0  0  0  0  0  0  0  0  0  0
    2.1306  -13.5170   12.9202 C   0  0  2  0  0  0  0  0  0  0  0  0
    3.5200  -13.8620   12.9830 O   0  0  0  0  0  0  0  0  0  0  0  0
    1.9246  -12.0289   12.4383 C   0  0  2  0  0  0  0  0  0  0  0  0
    0.4435  -11.6814   12.3734 O   0  0  0  0  0  0  0  0  0  0  0  0
    2.5351  -11.8077   11.0749 C   0  0  0  0  0  0  0  0  0  0  0  0
    1.8047  -12.4686   10.0249 O   0  0  0  0  0  0  0  0  0  0  0  0
   -6.0756   -7.9130   15.1032 O   0  0  0  0  0  0  0  0  0  0  0  0
   -8.2092   -8.2578   16.9617 O   0  0  0  0  0  0  0  0  0  0  0  0
    2.7496   -9.6925   15.8907 C   0  0  0  0  0  0  0  0  0  0  0  0
    2.4718   -9.4220   14.6846 O   0  0  0  0  0  0  0  0  0  0  0  0
    4.2162   -9.7297   16.4200 C   0  0  2  0  0  0  0  0  0  0  0  0
    4.2918   -8.6345   19.3078 N   0  0  0  0  0  0  0  0  0  0  0  0
    4.6847   -8.3106   16.8674 C   0  0  0  0  0  0  0  0  0  0  0  0
    3.9632   -7.8012   18.1264 C   0  0  0  0  0  0  0  0  0  0  0  0
    5.0489  -10.0958   15.5309 O   0  0  0  0  0  0  0  0  0  0  0  0
  1  2  1  1  0  0  0
  1  3  1  0  0  0  0
  1  8  1  0  0  0  0
  3  4  1  0  0  0  0
  3 32  1  1  0  0  0
  4  5  1  0  0  0  0
  4 33  1  6  0  0  0
  5  6  1  1  0  0  0
  5  7  1  0  0  0  0
  7  8  1  0  0  0  0
  7  9  1  6  0  0  0
  9 10  1  0  0  0  0
 11 12  1  1  0  0  0
 11 13  1  0  0  0  0
 11 19  1  0  0  0  0
 12 34  1  0  0  0  0
 13 14  1  0  0  0  0
 14 15  1  1  0  0  0
 14 16  1  0  0  0  0
 16  2  1  6  0  0  0
 16 17  1  0  0  0  0
 17 18  1  1  0  0  0
 17 19  1  0  0  0  0
 19 20  1  6  0  0  0
 21 20  1  1  0  0  0
 21 22  1  0  0  0  0
 21 29  1  0  0  0  0
 22 23  1  1  0  0  0
 22 24  1  0  0  0  0
 24 25  1  6  0  0  0
 24 26  1  0  0  0  0
 26 27  1  1  0  0  0
 26 28  1  0  0  0  0
 28 29  1  0  0  0  0
 28 30  1  6  0  0  0
 30 31  1  0  0  0  0
 34 35  2  0  0  0  0
 36 34  1  6  0  0  0
 36 38  1  0  0  0  0
 36 40  1  0  0  0  0
 37 39  1  0  0  0  0
 38 39  1  0  0  0  0
M  END
>  <CHROM.1>
-179.06045452,176.39178979,63.66807472,-142.67085177,-174.67210314,-75.38384439
70.76317913,-93.62227678,68.61663665,65.18596597,-1.12917122,-10.65429772
15.76628999,2.83573341,0.10840476,0.83098460

>  <Name>
ligand

>  <RI>
0

>  <Rbt.Current_Directory>
/home/itssahil/PROJECTS/Mol_Feturizer/New_Systems/rnas/4P20

>  <Rbt.Executable>
rbdock ($Id: //depot/dev/client3/rdock/2013.1/src/exe/rbdock.cxx#4 $)

>  <Rbt.Library>
libRbt.so (2013.1, Build901 2013/11/27)

>  <Rbt.Parameter_File>
/export/apps/rDock/src/rDock_2013.1_src/data/scripts/dock_solv.prm

>  <Rbt.Receptor>
prm/pocket_docking_6.prm

>  <SCORE>
-13.7123

>  <SCORE.INTER>
-3.84272

>  <SCORE.INTER.CONST>
1

>  <SCORE.INTER.POLAR>
0

>  <SCORE.INTER.ROT>
10

>  <SCORE.INTER.SOLV>
13.5803

>  <SCORE.INTER.VDW>
-17.3553

>  <SCORE.INTER.norm>
-0.0960679

>  <SCORE.INTRA>
-9.86956

>  <SCORE.INTRA.DIHEDRAL>
-23.5334

>  <SCORE.INTRA.DIHEDRAL.0>
28.2802

>  <SCORE.INTRA.POLAR>
0

>  <SCORE.INTRA.POLAR.0>
0

>  <SCORE.INTRA.REPUL>
0

>  <SCORE.INTRA.REPUL.0>
0

>  <SCORE.INTRA.SOLV>
1.72336

>  <SCORE.INTRA.SOLV.lig_0>
-101.981

>  <SCORE.INTRA.VDW>
1.03545

>  <SCORE.INTRA.VDW.0>
-5.72964

>  <SCORE.INTRA.norm>
-0.246739

>  <SCORE.RESTR>
0

>  <SCORE.RESTR.CAVITY>
0

>  <SCORE.RESTR.norm>
0

>  <SCORE.SYSTEM>
0

>  <SCORE.SYSTEM.CONST>
0

>  <SCORE.SYSTEM.DIHEDRAL>
0

>  <SCORE.SYSTEM.SOLV>
0

>  <SCORE.SYSTEM.norm>
0

>  <SCORE.heavy>
40

>  <SCORE.norm>
-0.342807

>  <RMSD>
8.168

$$$$
ligand
 OpenBabel11021811513D
libRbt.so/2013.1/901 2013/11/27
 40 42  0  0  0  0  0  0  0  0999 V2000
   -3.6574  -10.5658   15.7216 C   0  0  2  0  0  0  0  0  0  0  0  0
   -3.2242   -9.6768   16.7632 O   0  0  0  0  0  0  0  0  0  0  0  0
   -5.2202  -10.4910   15.5441 C   0  0  1  0  0  0  0  0  0  0  0  0
   -5.9650  -11.0263   16.8017 C   0  0  2  0  0  0  0  0  0  0  0  0
   -5.5340  -12.5122   17.0122 C   0  0  2  0  0  0  0  0  0  0  0  0
   -6.2272  -13.0509   18.1584 O   0  0  0  0  0  0  0  0  0  0  0  0
   -3.9589  -12.5538   17.2334 C   0  0  2  0  0  0  0  0  0  0  0  0
   -3.2631  -11.9781   16.0273 O   0  0  0  0  0  0  0  0  0  0  0  0
   -3.4343  -13.9697   17.4289 C   0  0  0  0  0  0  0  0  0  0  0  0
   -3.9996  -14.5997   18.6634 N   0  0  0  0  0  0  0  0  0  0  0  0
    0.8617   -8.3563   17.7076 C   0  0  2  0  0  0  0  0  0  0  0  0
    2.2115   -8.3800   18.2212 N   0  0  0  0  0  0  0  0  0  0  0  0
   -0.1614   -8.5441   18.8996 C   0  0  0  0  0  0  0  0  0  0  0  0
   -1.6565   -8.5249   18.3472 C   0  0  2  0  0  0  0  0  0  0  0  0
   -2.6169   -8.6849   19.4704 N   0  0  0  0  0  0  0  0  0  0  0  0
   -1.8319   -9.6899   17.2661 C   0  0  2  0  0  0  0  0  0  0  0  0
   -0.7852   -9.4588   16.0944 C   0  0  2  0  0  0  0  0  0  0  0  0
   -0.9367  -10.4939   15.1203 O   0  0  0  0  0  0  0  0  0  0  0  0
    0.6910   -9.4762   16.6566 C   0  0  1  0  0  0  0  0  0  0  0  0
    1.6320   -9.2433   15.5792 O   0  0  0  0  0  0  0  0  0  0  0  0
    1.6866   -9.9606   14.3929 C   0  0  2  0  0  0  0  0  0  0  0  0
    2.1994  -11.4040   14.7373 C   0  0  2  0  0  0  0  0  0  0  0  0
    1.3523  -11.9927   15.6706 O   0  0  0  0  0  0  0  0  0  0  0  0
    3.7007  -11.3889   15.2542 C   0  0  1  0  0  0  0  0  0  0  0  0
    4.1726  -12.7739   15.5643 N   0  0  0  0  0  0  0  0  0  0  0  0
    4.6150  -10.7103   14.1430 C   0  0  2  0  0  0  0  0  0  0  0  0
    5.9862  -10.6844   14.5584 O   0  0  0  0  0  0  0  0  0  0  0  0
    4.0636   -9.2567   13.8747 C   0  0  2  0  0  0  0  0  0  0  0  0
    2.6079   -9.3035   13.4305 O   0  0  0  0  0  0  0  0  0  0  0  0
    4.8731   -8.5540   12.8110 C   0  0  0  0  0  0  0  0  0  0  0  0
    4.6041   -7.1410   12.7505 O   0  0  0  0  0  0  0  0  0  0  0  0
   -5.5848   -9.1049   15.2799 O   0  0  0  0  0  0  0  0  0  0  0  0
   -7.3200  -10.9497   16.5877 O   0  0  0  0  0  0  0  0  0  0  0  0
    3.2167   -7.5584   17.5876 C   0  0  0  0  0  0  0  0  0  0  0  0
    3.0588   -7.1840   16.3876 O   0  0  0  0  0  0  0  0  0  0  0  0
    4.4741   -7.1683   18.4237 C   0  0  2  0  0  0  0  0  0  0  0  0
    6.5721  -10.4493   18.4041 N   0  0  0  0  0  0  0  0  0  0  0  0
    5.2064   -8.4383   18.9569 C   0  0  0  0  0  0  0  0  0  0  0  0
    5.8869   -9.2580   17.8478 C   0  0  0  0  0  0  0  0  0  0  0  0
    4.1829   -6.4869   19.4577 O   0  0  0  0  0  0  0  0  0  0  0  0
  1  2  1  1  0  0  0
  1  3  1  0  0  0  0
  1  8  1  0  0  0  0
  3  4  1  0  0  0  0
  3 32  1  1  0  0  0
  4  5  1  0  0  0  0
  4 33  1  6  0  0  0
  5  6  1  1  0  0  0
  5  7  1  0  0  0  0
  7  8  1  0  0  0  0
  7  9  1  6  0  0  0
  9 10  1  0  0  0  0
 11 12  1  1  0  0  0
 11 13  1  0  0  0  0
 11 19  1  0  0  0  0
 12 34  1  0  0  0  0
 13 14  1  0  0  0  0
 14 15  1  1  0  0  0
 14 16  1  0  0  0  0
 16  2  1  6  0  0  0
 16 17  1  0  0  0  0
 17 18  1  6  0  0  0
 17 19  1  0  0  0  0
 19 20  1  6  0  0  0
 21 20  1  1  0  0  0
 21 22  1  0  0  0  0
 21 29  1  0  0  0  0
 22 23  1  1  0  0  0
 22 24  1  0  0  0  0
 24 25  1  6  0  0  0
 24 26  1  0  0  0  0
 26 27  1  1  0  0  0
 26 28  1  0  0  0  0
 28 29  1  0  0  0  0
 28 30  1  6  0  0  0
 30 31  1  0  0  0  0
 34 35  2  0  0  0  0
 36 34  1  1  0  0  0
 36 38  1  0  0  0  0
 36 40  1  0  0  0  0
 37 39  1  0  0  0  0
 38 39  1  0  0  0  0
M  END
>  <CHROM.1>
171.22527561,176.39032221,-63.08253313,-146.30796902,-173.25491604,-69.49983287
-166.75951226,56.62335862,69.18915010,179.78215984,0.29659684,-10.02033614
16.44538182,-3.07622955,0.26722069,0.95198794

>  <Name>
ligand

>  <RI>
0

>  <Rbt.Current_Directory>
/home/itssahil/PROJECTS/Mol_Feturizer/New_Systems/rnas/4P20

>  <Rbt.Executable>
rbdock ($Id: //depot/dev/client3/rdock/2013.1/src/exe/rbdock.cxx#4 $)

>  <Rbt.Library>
libRbt.so (2013.1, Build901 2013/11/27)

>  <Rbt.Parameter_File>
/export/apps/rDock/src/rDock_2013.1_src/data/scripts/dock_solv.prm

>  <Rbt.Receptor>
prm/pocket_docking_4.prm

>  <SCORE>
-9.53541

>  <SCORE.INTER>
1.42335

>  <SCORE.INTER.CONST>
1

>  <SCORE.INTER.POLAR>
0

>  <SCORE.INTER.ROT>
10

>  <SCORE.INTER.SOLV>
13.4187

>  <SCORE.INTER.VDW>
-13.7907

>  <SCORE.INTER.norm>
0.0355838

>  <SCORE.INTRA>
-10.9588

>  <SCORE.INTRA.DIHEDRAL>
-24.7047

>  <SCORE.INTRA.DIHEDRAL.0>
28.2802

>  <SCORE.INTRA.POLAR>
0

>  <SCORE.INTRA.POLAR.0>
0

>  <SCORE.INTRA.REPUL>
0

>  <SCORE.INTRA.REPUL.0>
0

>  <SCORE.INTRA.SOLV>
0.785648

>  <SCORE.INTRA.SOLV.lig_0>
-101.981

>  <SCORE.INTRA.VDW>
1.00076

>  <SCORE.INTRA.VDW.0>
-5.72964

>  <SCORE.INTRA.norm>
-0.273969

>  <SCORE.RESTR>
0

>  <SCORE.RESTR.CAVITY>
0

>  <SCORE.RESTR.norm>
0

>  <SCORE.SYSTEM>
0

>  <SCORE.SYSTEM.CONST>
0

>  <SCORE.SYSTEM.DIHEDRAL>
0

>  <SCORE.SYSTEM.SOLV>
0

>  <SCORE.SYSTEM.norm>
0

>  <SCORE.heavy>
40

>  <SCORE.norm>
-0.238385

>  <RMSD>
8.169

$$$$
ligand
 OpenBabel11021811513D
libRbt.so/2013.1/901 2013/11/27
 40 42  0  0  0  0  0  0  0  0999 V2000
   -3.7406   -8.8323   17.7316 C   0  0  2  0  0  0  0  0  0  0  0  0
   -2.5420   -8.6561   16.9599 O   0  0  0  0  0  0  0  0  0  0  0  0
   -4.2279  -10.3280   17.6635 C   0  0  1  0  0  0  0  0  0  0  0  0
   -4.6705  -10.7206   16.2237 C   0  0  2  0  0  0  0  0  0  0  0  0
   -5.8394   -9.7711   15.8109 C   0  0  2  0  0  0  0  0  0  0  0  0
   -6.2940  -10.1241   14.4867 O   0  0  0  0  0  0  0  0  0  0  0  0
   -5.3073   -8.2721   15.8449 C   0  0  2  0  0  0  0  0  0  0  0  0
   -4.8321   -7.9351   17.2344 O   0  0  0  0  0  0  0  0  0  0  0  0
   -6.3848   -7.2620   15.4749 C   0  0  0  0  0  0  0  0  0  0  0  0
   -7.5105   -7.2729   16.4615 N   0  0  0  0  0  0  0  0  0  0  0  0
    1.6013   -7.6687   18.0501 C   0  0  2  0  0  0  0  0  0  0  0  0
    2.8991   -7.7619   18.6773 N   0  0  0  0  0  0  0  0  0  0  0  0
    0.4831   -7.5498   19.1629 C   0  0  0  0  0  0  0  0  0  0  0  0
   -0.9564   -7.4509   18.4854 C   0  0  2  0  0  0  0  0  0  0  0  0
   -2.0044   -7.3227   19.5317 N   0  0  0  0  0  0  0  0  0  0  0  0
   -1.2001   -8.7453   17.5787 C   0  0  2  0  0  0  0  0  0  0  0  0
   -0.0545   -8.8212   16.4816 C   0  0  2  0  0  0  0  0  0  0  0  0
   -0.2658   -9.9738   15.6630 O   0  0  0  0  0  0  0  0  0  0  0  0
    1.3658   -8.9146   17.1667 C   0  0  1  0  0  0  0  0  0  0  0  0
    2.4005   -8.9619   16.1530 O   0  0  0  0  0  0  0  0  0  0  0  0
    3.1834  -10.0685   15.8570 C   0  0  2  0  0  0  0  0  0  0  0  0
    4.4348   -9.5607   15.0563 C   0  0  2  0  0  0  0  0  0  0  0  0
    5.1223   -8.6151   15.8102 O   0  0  0  0  0  0  0  0  0  0  0  0
    4.0295   -8.9778   13.6360 C   0  0  1  0  0  0  0  0  0  0  0  0
    5.2366   -8.5119   12.8859 N   0  0  0  0  0  0  0  0  0  0  0  0
    3.2543  -10.1059   12.8250 C   0  0  2  0  0  0  0  0  0  0  0  0
    2.8772   -9.6310   11.5266 O   0  0  0  0  0  0  0  0  0  0  0  0
    1.9955  -10.5407   13.6708 C   0  0  2  0  0  0  0  0  0  0  0  0
    2.4149  -11.0461   15.0445 O   0  0  0  0  0  0  0  0  0  0  0  0
    1.2172  -11.6288   12.9702 C   0  0  0  0  0  0  0  0  0  0  0  0
    2.0075  -12.8067   12.7234 O   0  0  0  0  0  0  0  0  0  0  0  0
   -3.1410  -11.1847   18.1204 O   0  0  0  0  0  0  0  0  0  0  0  0
   -5.0964  -12.0268   16.2251 O   0  0  0  0  0  0  0  0  0  0  0  0
    3.4354   -6.6032   19.3532 C   0  0  0  0  0  0  0  0  0  0  0  0
    3.0225   -5.4464   19.0430 O   0  0  0  0  0  0  0  0  0  0  0  0
    4.5208   -6.8347   20.4491 C   0  0  2  0  0  0  0  0  0  0  0  0
    6.0570   -9.1929   21.8051 N   0  0  0  0  0  0  0  0  0  0  0  0
    4.0010   -7.8056   21.5539 C   0  0  0  0  0  0  0  0  0  0  0  0
    5.1076   -8.2937   22.5037 C   0  0  0  0  0  0  0  0  0  0  0  0
    4.8358   -5.7646   21.0604 O   0  0  0  0  0  0  0  0  0  0  0  0
  1  2  1  6  0  0  0
  1  3  1  0  0  0  0
  1  8  1  0  0  0  0
  3  4  1  0  0  0  0
  3 32  1  6  0  0  0
  4  5  1  0  0  0  0
  4 33  1  1  0  0  0
  5  6  1  6  0  0  0
  5  7  1  0  0  0  0
  7  8  1  0  0  0  0
  7  9  1  1  0  0  0
  9 10  1  0  0  0  0
 11 12  1  1  0  0  0
 11 13  1  0  0  0  0
 11 19  1  0  0  0  0
 12 34  1  0  0  0  0
 13 14  1  0  0  0  0
 14 15  1  1  0  0  0
 14 16  1  0  0  0  0
 16  2  1  6  0  0  0
 16 17  1  0  0  0  0
 17 18  1  1  0  0  0
 17 19  1  0  0  0  0
 19 20  1  6  0  0  0
 21 20  1  6  0  0  0
 21 22  1  0  0  0  0
 21 29  1  0  0  0  0
 22 23  1  1  0  0  0
 22 24  1  0  0  0  0
 24 25  1  6  0  0  0
 24 26  1  0  0  0  0
 26 27  1  6  0  0  0
 26 28  1  0  0  0  0
 28 29  1  0  0  0  0
 28 30  1  6  0  0  0
 30 31  1  0  0  0  0
 34 35  2  0  0  0  0
 36 34  1  6  0  0  0
 36 38  1  0  0  0  0
 36 40  1  0  0  0  0
 37 39  1  0  0  0  0
 38 39  1  0  0  0  0
M  END
>  <CHROM.1>
-94.09553766,-71.95923892,63.37662650,-69.45156961,129.81579725,-162.30972386
58.93733122,-56.18780974,168.45213193,-68.57588424,0.27444086,-8.94951746
16.79664417,2.91330682,-0.02522438,-2.00744385

>  <Name>
ligand

>  <RI>
0

>  <Rbt.Current_Directory>
/home/itssahil/PROJECTS/Mol_Feturizer/New_Systems/rnas/4P20

>  <Rbt.Executable>
rbdock ($Id: //depot/dev/client3/rdock/2013.1/src/exe/rbdock.cxx#4 $)

>  <Rbt.Library>
libRbt.so (2013.1, Build901 2013/11/27)

>  <Rbt.Parameter_File>
/export/apps/rDock/src/rDock_2013.1_src/data/scripts/dock_solv.prm

>  <Rbt.Receptor>
prm/pocket_docking_5.prm

>  <SCORE>
-13.8832

>  <SCORE.INTER>
-9.23381

>  <SCORE.INTER.CONST>
1

>  <SCORE.INTER.POLAR>
0

>  <SCORE.INTER.ROT>
10

>  <SCORE.INTER.SOLV>
22.4935

>  <SCORE.INTER.VDW>
-23.9204

>  <SCORE.INTER.norm>
-0.230845

>  <SCORE.INTRA>
-4.64944

>  <SCORE.INTRA.DIHEDRAL>
-13.3745

>  <SCORE.INTRA.DIHEDRAL.0>
28.2802

>  <SCORE.INTRA.POLAR>
0

>  <SCORE.INTRA.POLAR.0>
0

>  <SCORE.INTRA.REPUL>
0

>  <SCORE.INTRA.REPUL.0>
0

>  <SCORE.INTRA.SOLV>
1.89577

>  <SCORE.INTRA.SOLV.lig_0>
-101.981

>  <SCORE.INTRA.VDW>
1.08992

>  <SCORE.INTRA.VDW.0>
-5.72964

>  <SCORE.INTRA.norm>
-0.116236

>  <SCORE.RESTR>
0

>  <SCORE.RESTR.CAVITY>
0

>  <SCORE.RESTR.norm>
0

>  <SCORE.SYSTEM>
0

>  <SCORE.SYSTEM.CONST>
0

>  <SCORE.SYSTEM.DIHEDRAL>
0

>  <SCORE.SYSTEM.SOLV>
0

>  <SCORE.SYSTEM.norm>
0

>  <SCORE.heavy>
40

>  <SCORE.norm>
-0.347081

>  <RMSD>
8.173

$$$$
ligand
 OpenBabel11021811513D
libRbt.so/2013.1/901 2013/11/27
 40 42  0  0  0  0  0  0  0  0999 V2000
   -4.1861   -8.5955   17.6477 C   0  0  2  0  0  0  0  0  0  0  0  0
   -2.9222   -8.4134   16.9902 O   0  0  0  0  0  0  0  0  0  0  0  0
   -4.6831  -10.0813   17.4905 C   0  0  1  0  0  0  0  0  0  0  0  0
   -5.0014  -10.4240   16.0058 C   0  0  2  0  0  0  0  0  0  0  0  0
   -6.1181   -9.4459   15.5217 C   0  0  2  0  0  0  0  0  0  0  0  0
   -6.4581   -9.7524   14.1524 O   0  0  0  0  0  0  0  0  0  0  0  0
   -5.5736   -7.9564   15.6490 C   0  0  2  0  0  0  0  0  0  0  0  0
   -5.2189   -7.6682   17.0848 O   0  0  0  0  0  0  0  0  0  0  0  0
   -6.6024   -6.9202   15.2175 C   0  0  0  0  0  0  0  0  0  0  0  0
   -7.8274   -6.9712   16.0762 N   0  0  0  0  0  0  0  0  0  0  0  0
    1.0866   -7.5600   18.5813 C   0  0  2  0  0  0  0  0  0  0  0  0
    2.3237   -7.7302   19.3073 N   0  0  0  0  0  0  0  0  0  0  0  0
   -0.1299   -7.6000   19.5920 C   0  0  0  0  0  0  0  0  0  0  0  0
   -1.5036   -7.4181   18.8042 C   0  0  2  0  0  0  0  0  0  0  0  0
   -2.6442   -7.4394   19.7570 N   0  0  0  0  0  0  0  0  0  0  0  0
   -1.6404   -8.5784   17.7125 C   0  0  2  0  0  0  0  0  0  0  0  0
   -0.3989   -8.4977   16.7255 C   0  0  2  0  0  0  0  0  0  0  0  0
   -0.5141   -9.5294   15.7429 O   0  0  0  0  0  0  0  0  0  0  0  0
    0.9548   -8.6754   17.5199 C   0  0  1  0  0  0  0  0  0  0  0  0
    2.0779   -8.5784   16.6089 O   0  0  0  0  0  0  0  0  0  0  0  0
    3.3942   -8.8843   16.9230 C   0  0  2  0  0  0  0  0  0  0  0  0
    4.2438   -8.7135   15.6138 C   0  0  2  0  0  0  0  0  0  0  0  0
    4.1051   -7.4165   15.1302 O   0  0  0  0  0  0  0  0  0  0  0  0
    3.8469   -9.7831   14.5093 C   0  0  1  0  0  0  0  0  0  0  0  0
    4.6761   -9.6105   13.2766 N   0  0  0  0  0  0  0  0  0  0  0  0
    4.0318  -11.2398   15.1217 C   0  0  2  0  0  0  0  0  0  0  0  0
    3.6973  -12.2441   14.1557 O   0  0  0  0  0  0  0  0  0  0  0  0
    3.1259  -11.3496   16.4086 C   0  0  2  0  0  0  0  0  0  0  0  0
    3.4978  -10.2785   17.4251 O   0  0  0  0  0  0  0  0  0  0  0  0
    3.2648  -12.7052   17.0594 C   0  0  0  0  0  0  0  0  0  0  0  0
    2.7617  -13.7722   16.2341 O   0  0  0  0  0  0  0  0  0  0  0  0
   -3.6508  -10.9669   18.0142 O   0  0  0  0  0  0  0  0  0  0  0  0
   -5.4410  -11.7235   15.9291 O   0  0  0  0  0  0  0  0  0  0  0  0
    2.8003   -6.6518   20.1420 C   0  0  0  0  0  0  0  0  0  0  0  0
    2.4186   -5.4651   19.9160 O   0  0  0  0  0  0  0  0  0  0  0  0
    3.7842   -7.0047   21.2996 C   0  0  2  0  0  0  0  0  0  0  0  0
    4.9495   -9.8158   20.5884 N   0  0  0  0  0  0  0  0  0  0  0  0
    5.2027   -7.3406   20.7442 C   0  0  0  0  0  0  0  0  0  0  0  0
    5.2192   -8.5737   19.8252 C   0  0  0  0  0  0  0  0  0  0  0  0
    3.4237   -8.0355   21.9518 O   0  0  0  0  0  0  0  0  0  0  0  0
  1  2  1  6  0  0  0
  1  3  1  0  0  0  0
  1  8  1  0  0  0  0
  3  4  1  0  0  0  0
  3 32  1  6  0  0  0
  4  5  1  0  0  0  0
  4 33  1  1  0  0  0
  5  6  1  6  0  0  0
  5  7  1  0  0  0  0
  7  8  1  0  0  0  0
  7  9  1  1  0  0  0
  9 10  1  0  0  0  0
 11 12  1  1  0  0  0
 11 13  1  0  0  0  0
 11 19  1  0  0  0  0
 12 34  1  0  0  0  0
 13 14  1  0  0  0  0
 14 15  1  1  0  0  0
 14 16  1  0  0  0  0
 16  2  1  6  0  0  0
 16 17  1  0  0  0  0
 17 18  1  6  0  0  0
 17 19  1  0  0  0  0
 19 20  1  6  0  0  0
 21 20  1  6  0  0  0
 21 22  1  0  0  0  0
 21 29  1  0  0  0  0
 22 23  1  6  0  0  0
 22 24  1  0  0  0  0
 24 25  1  6  0  0  0
 24 26  1  0  0  0  0
 26 27  1  6  0  0  0
 26 28  1  0  0  0  0
 28 29  1  0  0  0  0
 28 30  1  1  0  0  0
 30 31  1  0  0  0  0
 34 35  2  0  0  0  0
 36 34  1  6  0  0  0
 36 38  1  0  0  0  0
 36 40  1  0  0  0  0
 37 39  1  0  0  0  0
 38 39  1  0  0  0  0
M  END
>  <CHROM.1>
-92.32525727,-66.85751750,61.74255078,-71.69641832,70.31137983,176.71056496
-65.63538296,73.51838247,-62.44002901,-68.67179743,0.09840622,-9.01728991
17.29109045,3.01900491,0.13368815,-2.24149010

>  <Name>
ligand

>  <RI>
0

>  <Rbt.Current_Directory>
/home/itssahil/PROJECTS/Mol_Feturizer/New_Systems/rnas/4P20

>  <Rbt.Executable>
rbdock ($Id: //depot/dev/client3/rdock/2013.1/src/exe/rbdock.cxx#4 $)

>  <Rbt.Library>
libRbt.so (2013.1, Build901 2013/11/27)

>  <Rbt.Parameter_File>
/export/apps/rDock/src/rDock_2013.1_src/data/scripts/dock_solv.prm

>  <Rbt.Receptor>
prm/pocket_docking_4.prm

>  <SCORE>
-11.6921

>  <SCORE.INTER>
-4.55084

>  <SCORE.INTER.CONST>
1

>  <SCORE.INTER.POLAR>
0

>  <SCORE.INTER.ROT>
10

>  <SCORE.INTER.SOLV>
17.0391

>  <SCORE.INTER.VDW>
-18.9802

>  <SCORE.INTER.norm>
-0.113771

>  <SCORE.INTRA>
-7.14122

>  <SCORE.INTRA.DIHEDRAL>
-21.8974

>  <SCORE.INTRA.DIHEDRAL.0>
28.2802

>  <SCORE.INTRA.POLAR>
0

>  <SCORE.INTRA.POLAR.0>
0

>  <SCORE.INTRA.REPUL>
0

>  <SCORE.INTRA.REPUL.0>
0

>  <SCORE.INTRA.SOLV>
4.9362

>  <SCORE.INTRA.SOLV.lig_0>
-101.981

>  <SCORE.INTRA.VDW>
1.33937

>  <SCORE.INTRA.VDW.0>
-5.72964

>  <SCORE.INTRA.norm>
-0.17853

>  <SCORE.RESTR>
0

>  <SCORE.RESTR.CAVITY>
0

>  <SCORE.RESTR.norm>
0

>  <SCORE.SYSTEM>
0

>  <SCORE.SYSTEM.CONST>
0

>  <SCORE.SYSTEM.DIHEDRAL>
0

>  <SCORE.SYSTEM.SOLV>
0

>  <SCORE.SYSTEM.norm>
0

>  <SCORE.heavy>
40

>  <SCORE.norm>
-0.292301

>  <RMSD>
8.174

$$$$
ligand
 OpenBabel11021811513D
libRbt.so/2013.1/901 2013/11/27
 40 42  0  0  0  0  0  0  0  0999 V2000
    3.7634   -9.8528   13.8204 C   0  0  2  0  0  0  0  0  0  0  0  0
    2.5448   -9.1674   14.1496 O   0  0  0  0  0  0  0  0  0  0  0  0
    4.3455   -9.3235   12.4565 C   0  0  1  0  0  0  0  0  0  0  0  0
    3.4089   -9.6691   11.2623 C   0  0  2  0  0  0  0  0  0  0  0  0
    3.2695  -11.2232   11.2025 C   0  0  2  0  0  0  0  0  0  0  0  0
    2.4258  -11.5826   10.0873 O   0  0  0  0  0  0  0  0  0  0  0  0
    2.6384  -11.7259   12.5738 C   0  0  2  0  0  0  0  0  0  0  0  0
    3.5342  -11.3295   13.7186 O   0  0  0  0  0  0  0  0  0  0  0  0
    2.4797  -13.2394   12.6229 C   0  0  0  0  0  0  0  0  0  0  0  0
    1.8238  -13.6823   13.8933 N   0  0  0  0  0  0  0  0  0  0  0  0
    0.2173   -8.2626   17.7681 C   0  0  2  0  0  0  0  0  0  0  0  0
   -0.4237   -8.4415   19.0501 N   0  0  0  0  0  0  0  0  0  0  0  0
   -0.3808   -9.2945   16.7288 C   0  0  0  0  0  0  0  0  0  0  0  0
    0.3210   -9.1121   15.3092 C   0  0  2  0  0  0  0  0  0  0  0  0
   -0.2537  -10.0712   14.3297 N   0  0  0  0  0  0  0  0  0  0  0  0
    1.8973   -9.3262   15.4713 C   0  0  2  0  0  0  0  0  0  0  0  0
    2.4487   -8.2715   16.5227 C   0  0  2  0  0  0  0  0  0  0  0  0
    3.8588   -8.4524   16.6719 O   0  0  0  0  0  0  0  0  0  0  0  0
    1.7421   -8.4610   17.9227 C   0  0  1  0  0  0  0  0  0  0  0  0
    2.2407   -7.4784   18.8642 O   0  0  0  0  0  0  0  0  0  0  0  0
    1.8377   -7.3576   20.1863 C   0  0  2  0  0  0  0  0  0  0  0  0
    2.4558   -6.0284   20.7486 C   0  0  2  0  0  0  0  0  0  0  0  0
    2.0411   -4.9522   19.9708 O   0  0  0  0  0  0  0  0  0  0  0  0
    4.0400   -6.1021   20.8282 C   0  0  1  0  0  0  0  0  0  0  0  0
    4.6066   -4.8317   21.3776 N   0  0  0  0  0  0  0  0  0  0  0  0
    4.4470   -7.3461   21.7326 C   0  0  2  0  0  0  0  0  0  0  0  0
    5.8718   -7.4482   21.8462 O   0  0  0  0  0  0  0  0  0  0  0  0
    3.8226   -8.6448   21.0902 C   0  0  2  0  0  0  0  0  0  0  0  0
    2.3090   -8.5206   20.9813 O   0  0  0  0  0  0  0  0  0  0  0  0
    4.1512   -9.8704   21.9090 C   0  0  0  0  0  0  0  0  0  0  0  0
    5.5560  -10.1853   21.8990 O   0  0  0  0  0  0  0  0  0  0  0  0
    4.5302   -7.8820   12.5666 O   0  0  0  0  0  0  0  0  0  0  0  0
    3.9696   -9.1966   10.1003 O   0  0  0  0  0  0  0  0  0  0  0  0
   -1.8042   -8.0451   19.2046 C   0  0  0  0  0  0  0  0  0  0  0  0
   -2.3027   -7.1826   18.4218 O   0  0  0  0  0  0  0  0  0  0  0  0
   -2.6294   -8.7054   20.3515 C   0  0  2  0  0  0  0  0  0  0  0  0
   -1.5649  -10.0854   23.8325 N   0  0  0  0  0  0  0  0  0  0  0  0
   -1.7111   -9.0821   21.5550 C   0  0  0  0  0  0  0  0  0  0  0  0
   -2.4866   -9.6410   22.7596 C   0  0  0  0  0  0  0  0  0  0  0  0
   -3.1815   -9.7941   19.9938 O   0  0  0  0  0  0  0  0  0  0  0  0
  1  2  1  6  0  0  0
  1  3  1  0  0  0  0
  1  8  1  0  0  0  0
  3  4  1  0  0  0  0
  3 32  1  1  0  0  0
  4  5  1  0  0  0  0
  4 33  1  6  0  0  0
  5  6  1  6  0  0  0
  5  7  1  0  0  0  0
  7  8  1  0  0  0  0
  7  9  1  6  0  0  0
  9 10  1  0  0  0  0
 11 12  1  1  0  0  0
 11 13  1  0  0  0  0
 11 19  1  0  0  0  0
 12 34  1  0  0  0  0
 13 14  1  0  0  0  0
 14 15  1  6  0  0  0
 14 16  1  0  0  0  0
 16  2  1  6  0  0  0
 16 17  1  0  0  0  0
 17 18  1  1  0  0  0
 17 19  1  0  0  0  0
 19 20  1  1  0  0  0
 21 20  1  6  0  0  0
 21 22  1  0  0  0  0
 21 29  1  0  0  0  0
 22 23  1  6  0  0  0
 22 24  1  0  0  0  0
 24 25  1  1  0  0  0
 24 26  1  0  0  0  0
 26 27  1  6  0  0  0
 26 28  1  0  0  0  0
 28 29  1  0  0  0  0
 28 30  1  1  0  0  0
 30 31  1  0  0  0  0
 34 35  2  0  0  0  0
 36 34  1  6  0  0  0
 36 38  1  0  0  0  0
 36 40  1  0  0  0  0
 37 39  1  0  0  0  0
 38 39  1  0  0  0  0
M  END
>  <CHROM.1>
-170.76490267,-151.28531011,-177.23393952,-70.55781677,60.08333283,-170.83640476
-66.52292454,30.07770451,175.66730138,175.40511164,1.92653245,-8.97024939
17.38019968,-1.37864043,0.26147702,1.25018939

>  <Name>
ligand

>  <RI>
0

>  <Rbt.Current_Directory>
/home/itssahil/PROJECTS/Mol_Feturizer/New_Systems/rnas/4P20

>  <Rbt.Executable>
rbdock ($Id: //depot/dev/client3/rdock/2013.1/src/exe/rbdock.cxx#4 $)

>  <Rbt.Library>
libRbt.so (2013.1, Build901 2013/11/27)

>  <Rbt.Parameter_File>
/export/apps/rDock/src/rDock_2013.1_src/data/scripts/dock_solv.prm

>  <Rbt.Receptor>
prm/pocket_docking_7.prm

>  <SCORE>
-20.2675

>  <SCORE.INTER>
-10.6183

>  <SCORE.INTER.CONST>
1

>  <SCORE.INTER.POLAR>
0

>  <SCORE.INTER.ROT>
10

>  <SCORE.INTER.SOLV>
28.0333

>  <SCORE.INTER.VDW>
-26.69

>  <SCORE.INTER.norm>
-0.265458

>  <SCORE.INTRA>
-9.64913

>  <SCORE.INTRA.DIHEDRAL>
-22.0533

>  <SCORE.INTRA.DIHEDRAL.0>
28.2802

>  <SCORE.INTRA.POLAR>
0

>  <SCORE.INTRA.POLAR.0>
0

>  <SCORE.INTRA.REPUL>
0

>  <SCORE.INTRA.REPUL.0>
0

>  <SCORE.INTRA.SOLV>
-1.24074

>  <SCORE.INTRA.SOLV.lig_0>
-101.981

>  <SCORE.INTRA.VDW>
1.9979

>  <SCORE.INTRA.VDW.0>
-5.72964

>  <SCORE.INTRA.norm>
-0.241228

>  <SCORE.RESTR>
0

>  <SCORE.RESTR.CAVITY>
0

>  <SCORE.RESTR.norm>
0

>  <SCORE.SYSTEM>
0

>  <SCORE.SYSTEM.CONST>
0

>  <SCORE.SYSTEM.DIHEDRAL>
0

>  <SCORE.SYSTEM.SOLV>
0

>  <SCORE.SYSTEM.norm>
0

>  <SCORE.heavy>
40

>  <SCORE.norm>
-0.506686

>  <RMSD>
8.180

$$$$
ligand
 OpenBabel11021811513D
libRbt.so/2013.1/901 2013/11/27
 40 42  0  0  0  0  0  0  0  0999 V2000
   -5.5306   -7.9843   18.7684 C   0  0  2  0  0  0  0  0  0  0  0  0
   -5.4565   -9.3440   18.3114 O   0  0  0  0  0  0  0  0  0  0  0  0
   -6.5811   -7.8482   19.9334 C   0  0  1  0  0  0  0  0  0  0  0  0
   -8.0276   -8.1359   19.4359 C   0  0  2  0  0  0  0  0  0  0  0  0
   -8.3574   -7.1032   18.3121 C   0  0  2  0  0  0  0  0  0  0  0  0
   -9.7051   -7.3242   17.8434 O   0  0  0  0  0  0  0  0  0  0  0  0
   -7.3097   -7.2928   17.1298 C   0  0  2  0  0  0  0  0  0  0  0  0
   -5.9138   -7.0654   17.6494 O   0  0  0  0  0  0  0  0  0  0  0  0
   -7.5355   -6.3122   15.9872 C   0  0  0  0  0  0  0  0  0  0  0  0
   -6.5699   -6.5420   14.8667 N   0  0  0  0  0  0  0  0  0  0  0  0
   -2.2227  -11.7538   16.5606 C   0  0  2  0  0  0  0  0  0  0  0  0
   -1.2017  -12.1891   15.6362 N   0  0  0  0  0  0  0  0  0  0  0  0
   -3.6254  -11.7344   15.8293 C   0  0  0  0  0  0  0  0  0  0  0  0
   -4.7623  -11.2509   16.8366 C   0  0  2  0  0  0  0  0  0  0  0  0
   -6.0820  -11.2490   16.1525 N   0  0  0  0  0  0  0  0  0  0  0  0
   -4.3933   -9.7949   17.3851 C   0  0  2  0  0  0  0  0  0  0  0  0
   -2.9806   -9.8659   18.1071 C   0  0  2  0  0  0  0  0  0  0  0  0
   -2.6434   -8.5690   18.6046 O   0  0  0  0  0  0  0  0  0  0  0  0
   -1.8651  -10.3500   17.0989 C   0  0  1  0  0  0  0  0  0  0  0  0
   -0.5872  -10.4295   17.7779 O   0  0  0  0  0  0  0  0  0  0  0  0
    0.1880   -9.3434   18.1581 C   0  0  2  0  0  0  0  0  0  0  0  0
    0.9365   -8.8268   16.8783 C   0  0  2  0  0  0  0  0  0  0  0  0
    0.0103   -8.4948   15.8949 O   0  0  0  0  0  0  0  0  0  0  0  0
    1.9881   -9.8884   16.3412 C   0  0  1  0  0  0  0  0  0  0  0  0
    2.6978   -9.3714   15.1305 N   0  0  0  0  0  0  0  0  0  0  0  0
    3.0178  -10.2201   17.5077 C   0  0  2  0  0  0  0  0  0  0  0  0
    3.9984  -11.1675   17.0668 O   0  0  0  0  0  0  0  0  0  0  0  0
    2.2011  -10.7643   18.7430 C   0  0  2  0  0  0  0  0  0  0  0  0
    1.1677   -9.7439   19.2004 O   0  0  0  0  0  0  0  0  0  0  0  0
    3.1142  -11.0834   19.9027 C   0  0  0  0  0  0  0  0  0  0  0  0
    2.4059  -11.6141   21.0382 O   0  0  0  0  0  0  0  0  0  0  0  0
   -6.2079   -8.7729   20.9963 O   0  0  0  0  0  0  0  0  0  0  0  0
   -8.9012   -7.9911   20.4864 O   0  0  0  0  0  0  0  0  0  0  0  0
   -0.9771  -13.6047   15.4561 C   0  0  0  0  0  0  0  0  0  0  0  0
   -1.3215  -14.4172   16.3651 O   0  0  0  0  0  0  0  0  0  0  0  0
   -0.3043  -14.0743   14.1298 C   0  0  2  0  0  0  0  0  0  0  0  0
    2.5864  -16.2709   15.5365 N   0  0  0  0  0  0  0  0  0  0  0  0
    0.5949  -15.3258   14.3721 C   0  0  0  0  0  0  0  0  0  0  0  0
    1.7089  -15.0831   15.4042 C   0  0  0  0  0  0  0  0  0  0  0  0
    0.4684  -13.1939   13.6339 O   0  0  0  0  0  0  0  0  0  0  0  0
  1  2  1  6  0  0  0
  1  3  1  0  0  0  0
  1  8  1  0  0  0  0
  3  4  1  0  0  0  0
  3 32  1  1  0  0  0
  4  5  1  0  0  0  0
  4 33  1  1  0  0  0
  5  6  1  6  0  0  0
  5  7  1  0  0  0  0
  7  8  1  0  0  0  0
  7  9  1  6  0  0  0
  9 10  1  0  0  0  0
 11 12  1  6  0  0  0
 11 13  1  0  0  0  0
 11 19  1  0  0  0  0
 12 34  1  0  0  0  0
 13 14  1  0  0  0  0
 14 15  1  6  0  0  0
 14 16  1  0  0  0  0
 16  2  1  1  0  0  0
 16 17  1  0  0  0  0
 17 18  1  6  0  0  0
 17 19  1  0  0  0  0
 19 20  1  1  0  0  0
 21 20  1  6  0  0  0
 21 22  1  0  0  0  0
 21 29  1  0  0  0  0
 22 23  1  6  0  0  0
 22 24  1  0  0  0  0
 24 25  1  6  0  0  0
 24 26  1  0  0  0  0
 26 27  1  6  0  0  0
 26 28  1  0  0  0  0
 28 29  1  0  0  0  0
 28 30  1  1  0  0  0
 30 31  1  0  0  0  0
 34 35  2  0  0  0  0
 36 34  1  1  0  0  0
 36 38  1  0  0  0  0
 36 40  1  0  0  0  0
 37 39  1  0  0  0  0
 38 39  1  0  0  0  0
M  END
>  <CHROM.1>
-169.59940427,-168.27801830,-177.95544364,-85.13159421,166.46865340,-78.63693254
-178.58358854,146.60293773,-58.57207647,-176.42329840,-2.30115235,-10.27134013
17.29565262,-2.68161168,0.19369648,-2.41615120

>  <Name>
ligand

>  <RI>
0

>  <Rbt.Current_Directory>
/home/itssahil/PROJECTS/Mol_Feturizer/New_Systems/rnas/4P20

>  <Rbt.Executable>
rbdock ($Id: //depot/dev/client3/rdock/2013.1/src/exe/rbdock.cxx#4 $)

>  <Rbt.Library>
libRbt.so (2013.1, Build901 2013/11/27)

>  <Rbt.Parameter_File>
/export/apps/rDock/src/rDock_2013.1_src/data/scripts/dock_solv.prm

>  <Rbt.Receptor>
prm/pocket_docking_7.prm

>  <SCORE>
-9.24003

>  <SCORE.INTER>
0.833386

>  <SCORE.INTER.CONST>
1

>  <SCORE.INTER.POLAR>
0

>  <SCORE.INTER.ROT>
10

>  <SCORE.INTER.SOLV>
18.1785

>  <SCORE.INTER.VDW>
-15.7706

>  <SCORE.INTER.norm>
0.0208347

>  <SCORE.INTRA>
-10.0734

>  <SCORE.INTRA.DIHEDRAL>
-22.3416

>  <SCORE.INTRA.DIHEDRAL.0>
28.2802

>  <SCORE.INTRA.POLAR>
0

>  <SCORE.INTRA.POLAR.0>
0

>  <SCORE.INTRA.REPUL>
0

>  <SCORE.INTRA.REPUL.0>
0

>  <SCORE.INTRA.SOLV>
-1.89716

>  <SCORE.INTRA.SOLV.lig_0>
-101.981

>  <SCORE.INTRA.VDW>
2.04594

>  <SCORE.INTRA.VDW.0>
-5.72964

>  <SCORE.INTRA.norm>
-0.251836

>  <SCORE.RESTR>
0

>  <SCORE.RESTR.CAVITY>
0

>  <SCORE.RESTR.norm>
0

>  <SCORE.SYSTEM>
0

>  <SCORE.SYSTEM.CONST>
0

>  <SCORE.SYSTEM.DIHEDRAL>
0

>  <SCORE.SYSTEM.SOLV>
0

>  <SCORE.SYSTEM.norm>
0

>  <SCORE.heavy>
40

>  <SCORE.norm>
-0.231001

>  <RMSD>
8.184

$$$$
ligand
 OpenBabel11021811513D
libRbt.so/2013.1/901 2013/11/27
 40 42  0  0  0  0  0  0  0  0999 V2000
   -3.5479  -10.8985   15.5133 C   0  0  2  0  0  0  0  0  0  0  0  0
   -2.9956   -9.9811   16.4706 O   0  0  0  0  0  0  0  0  0  0  0  0
   -5.1209  -10.8285   15.5229 C   0  0  1  0  0  0  0  0  0  0  0  0
   -5.7075  -11.3291   16.8750 C   0  0  2  0  0  0  0  0  0  0  0  0
   -5.2493  -12.8087   17.0726 C   0  0  2  0  0  0  0  0  0  0  0  0
   -5.7980  -13.3157   18.3081 O   0  0  0  0  0  0  0  0  0  0  0  0
   -3.6589  -12.8441   17.1039 C   0  0  2  0  0  0  0  0  0  0  0  0
   -3.1150  -12.3018   15.8077 O   0  0  0  0  0  0  0  0  0  0  0  0
   -3.1099  -14.2541   17.2735 C   0  0  0  0  0  0  0  0  0  0  0  0
   -3.4895  -14.8359   18.5994 N   0  0  0  0  0  0  0  0  0  0  0  0
    1.1670   -8.5981   16.7697 C   0  0  2  0  0  0  0  0  0  0  0  0
    2.5739   -8.5873   17.0969 N   0  0  0  0  0  0  0  0  0  0  0  0
    0.3156   -8.7106   18.0983 C   0  0  0  0  0  0  0  0  0  0  0  0
   -1.2404   -8.7285   17.7526 C   0  0  2  0  0  0  0  0  0  0  0  0
   -2.0393   -8.8176   19.0029 N   0  0  0  0  0  0  0  0  0  0  0  0
   -1.5482   -9.9605   16.7808 C   0  0  2  0  0  0  0  0  0  0  0  0
   -0.6710   -9.8034   15.4663 C   0  0  2  0  0  0  0  0  0  0  0  0
   -0.9421  -10.8988   14.5889 O   0  0  0  0  0  0  0  0  0  0  0  0
    0.8674   -9.7831   15.8241 C   0  0  1  0  0  0  0  0  0  0  0  0
    1.6526   -9.6183   14.6171 O   0  0  0  0  0  0  0  0  0  0  0  0
    1.7089  -10.5234   13.5671 C   0  0  2  0  0  0  0  0  0  0  0  0
    2.5410  -11.7619   14.0559 C   0  0  2  0  0  0  0  0  0  0  0  0
    1.9487  -12.3070   15.1904 O   0  0  0  0  0  0  0  0  0  0  0  0
    4.0590  -11.3829   14.3269 C   0  0  1  0  0  0  0  0  0  0  0  0
    4.8353  -12.5787   14.7790 N   0  0  0  0  0  0  0  0  0  0  0  0
    4.6770  -10.7723   12.9941 C   0  0  2  0  0  0  0  0  0  0  0  0
    6.0542  -10.4251   13.1843 O   0  0  0  0  0  0  0  0  0  0  0  0
    3.8145   -9.5165   12.5839 C   0  0  2  0  0  0  0  0  0  0  0  0
    2.3560   -9.9045   12.3819 O   0  0  0  0  0  0  0  0  0  0  0  0
    4.3315   -8.8924   11.3097 C   0  0  0  0  0  0  0  0  0  0  0  0
    5.5953   -8.2266   11.4897 O   0  0  0  0  0  0  0  0  0  0  0  0
   -5.5192   -9.4502   15.2667 O   0  0  0  0  0  0  0  0  0  0  0  0
   -7.0786  -11.2585   16.8234 O   0  0  0  0  0  0  0  0  0  0  0  0
    3.0716   -7.5911   18.0171 C   0  0  0  0  0  0  0  0  0  0  0  0
    2.4283   -6.5129   18.1858 O   0  0  0  0  0  0  0  0  0  0  0  0
    4.4041   -7.8930   18.7693 C   0  0  2  0  0  0  0  0  0  0  0  0
    4.3318   -8.4978   21.7888 N   0  0  0  0  0  0  0  0  0  0  0  0
    4.6373   -6.8711   19.9246 C   0  0  0  0  0  0  0  0  0  0  0  0
    3.8630   -7.2170   21.2075 C   0  0  0  0  0  0  0  0  0  0  0  0
    5.4250   -7.7917   18.0172 O   0  0  0  0  0  0  0  0  0  0  0  0
  1  2  1  1  0  0  0
  1  3  1  0  0  0  0
  1  8  1  0  0  0  0
  3  4  1  0  0  0  0
  3 32  1  1  0  0  0
  4  5  1  0  0  0  0
  4 33  1  6  0  0  0
  5  6  1  1  0  0  0
  5  7  1  0  0  0  0
  7  8  1  0  0  0  0
  7  9  1  6  0  0  0
  9 10  1  0  0  0  0
 11 12  1  1  0  0  0
 11 13  1  0  0  0  0
 11 19  1  0  0  0  0
 12 34  1  0  0  0  0
 13 14  1  0  0  0  0
 14 15  1  1  0  0  0
 14 16  1  0  0  0  0
 16  2  1  6  0  0  0
 16 17  1  0  0  0  0
 17 18  1  6  0  0  0
 17 19  1  0  0  0  0
 19 20  1  6  0  0  0
 21 20  1  1  0  0  0
 21 22  1  0  0  0  0
 21 29  1  0  0  0  0
 22 23  1  1  0  0  0
 22 24  1  0  0  0  0
 24 25  1  6  0  0  0
 24 26  1  0  0  0  0
 26 27  1  1  0  0  0
 26 28  1  0  0  0  0
 28 29  1  0  0  0  0
 28 30  1  6  0  0  0
 30 31  1  0  0  0  0
 34 35  2  0  0  0  0
 36 34  1  6  0  0  0
 36 38  1  0  0  0  0
 36 40  1  0  0  0  0
 37 39  1  0  0  0  0
 38 39  1  0  0  0  0
M  END
>  <CHROM.1>
172.58676558,173.74273961,-64.63086913,-55.84155477,176.09568735,-72.37766783
-70.73772084,-168.11618459,81.56160491,64.29429335,0.38567271,-10.15707873
16.18220844,3.12171917,0.33536098,1.17435407

>  <Name>
ligand

>  <RI>
0

>  <Rbt.Current_Directory>
/home/itssahil/PROJECTS/Mol_Feturizer/New_Systems/rnas/4P20

>  <Rbt.Executable>
rbdock ($Id: //depot/dev/client3/rdock/2013.1/src/exe/rbdock.cxx#4 $)

>  <Rbt.Library>
libRbt.so (2013.1, Build901 2013/11/27)

>  <Rbt.Parameter_File>
/export/apps/rDock/src/rDock_2013.1_src/data/scripts/dock_solv.prm

>  <Rbt.Receptor>
prm/pocket_docking_4.prm

>  <SCORE>
-12.5965

>  <SCORE.INTER>
-3.7978

>  <SCORE.INTER.CONST>
1

>  <SCORE.INTER.POLAR>
0

>  <SCORE.INTER.ROT>
10

>  <SCORE.INTER.SOLV>
12.8886

>  <SCORE.INTER.VDW>
-17.0947

>  <SCORE.INTER.norm>
-0.094945

>  <SCORE.INTRA>
-8.80307

>  <SCORE.INTRA.DIHEDRAL>
-24.03

>  <SCORE.INTRA.DIHEDRAL.0>
28.2802

>  <SCORE.INTRA.POLAR>
0

>  <SCORE.INTRA.POLAR.0>
0

>  <SCORE.INTRA.REPUL>
0

>  <SCORE.INTRA.REPUL.0>
0

>  <SCORE.INTRA.SOLV>
0.450589

>  <SCORE.INTRA.SOLV.lig_0>
-101.981

>  <SCORE.INTRA.VDW>
2.98664

>  <SCORE.INTRA.VDW.0>
-5.72964

>  <SCORE.INTRA.norm>
-0.220077

>  <SCORE.RESTR>
0.00438344

>  <SCORE.RESTR.CAVITY>
0.00438344

>  <SCORE.RESTR.norm>
0.000109586

>  <SCORE.SYSTEM>
0

>  <SCORE.SYSTEM.CONST>
0

>  <SCORE.SYSTEM.DIHEDRAL>
0

>  <SCORE.SYSTEM.SOLV>
0

>  <SCORE.SYSTEM.norm>
0

>  <SCORE.heavy>
40

>  <SCORE.norm>
-0.314912

>  <RMSD>
8.186

$$$$
ligand
 OpenBabel11021811513D
libRbt.so/2013.1/901 2013/11/27
 40 42  0  0  0  0  0  0  0  0999 V2000
    1.8455  -10.9808   14.5141 C   0  0  2  0  0  0  0  0  0  0  0  0
    0.4173  -10.8787   14.4012 O   0  0  0  0  0  0  0  0  0  0  0  0
    2.5365  -10.6151   13.1473 C   0  0  1  0  0  0  0  0  0  0  0  0
    2.1921  -11.6503   12.0371 C   0  0  2  0  0  0  0  0  0  0  0  0
    2.6948  -13.0480   12.5189 C   0  0  2  0  0  0  0  0  0  0  0  0
    2.4147  -14.0315   11.4997 O   0  0  0  0  0  0  0  0  0  0  0  0
    1.9484  -13.4120   13.8760 C   0  0  2  0  0  0  0  0  0  0  0  0
    2.2513  -12.3653   14.9166 O   0  0  0  0  0  0  0  0  0  0  0  0
    2.3873  -14.7560   14.4410 C   0  0  0  0  0  0  0  0  0  0  0  0
    3.8453  -14.7600   14.7799 N   0  0  0  0  0  0  0  0  0  0  0  0
   -3.2213  -11.3882   16.8160 C   0  0  2  0  0  0  0  0  0  0  0  0
   -4.0845  -11.7886   17.9027 N   0  0  0  0  0  0  0  0  0  0  0  0
   -2.5726  -12.6709   16.1552 C   0  0  0  0  0  0  0  0  0  0  0  0
   -1.6127  -12.2441   14.9563 C   0  0  2  0  0  0  0  0  0  0  0  0
   -1.0169  -13.4513   14.3260 N   0  0  0  0  0  0  0  0  0  0  0  0
   -0.4791  -11.2642   15.5146 C   0  0  2  0  0  0  0  0  0  0  0  0
   -1.1784   -9.9968   16.1676 C   0  0  2  0  0  0  0  0  0  0  0  0
   -0.1725   -9.1123   16.6666 O   0  0  0  0  0  0  0  0  0  0  0  0
   -2.1291  -10.4346   17.3507 C   0  0  1  0  0  0  0  0  0  0  0  0
   -2.7750   -9.2695   17.9217 O   0  0  0  0  0  0  0  0  0  0  0  0
   -3.2586   -8.1869   17.2014 C   0  0  2  0  0  0  0  0  0  0  0  0
   -3.9698   -7.2239   18.2172 C   0  0  2  0  0  0  0  0  0  0  0  0
   -3.0712   -6.8393   19.2070 O   0  0  0  0  0  0  0  0  0  0  0  0
   -5.2685   -7.8857   18.8470 C   0  0  1  0  0  0  0  0  0  0  0  0
   -5.9366   -6.9476   19.8012 N   0  0  0  0  0  0  0  0  0  0  0  0
   -6.2537   -8.2966   17.6673 C   0  0  2  0  0  0  0  0  0  0  0  0
   -7.4507   -8.8888   18.1869 O   0  0  0  0  0  0  0  0  0  0  0  0
   -5.4858   -9.2877   16.7097 C   0  0  2  0  0  0  0  0  0  0  0  0
   -4.2199   -8.6410   16.1639 O   0  0  0  0  0  0  0  0  0  0  0  0
   -6.3553   -9.7078   15.5487 C   0  0  0  0  0  0  0  0  0  0  0  0
   -6.7669   -8.5961   14.7316 O   0  0  0  0  0  0  0  0  0  0  0  0
    2.1032   -9.2789   12.7587 O   0  0  0  0  0  0  0  0  0  0  0  0
    2.8292  -11.2905   10.8742 O   0  0  0  0  0  0  0  0  0  0  0  0
   -3.4947  -12.3523   19.0949 C   0  0  0  0  0  0  0  0  0  0  0  0
   -2.3481  -12.8881   19.0368 O   0  0  0  0  0  0  0  0  0  0  0  0
   -4.3139  -12.2783   20.4199 C   0  0  2  0  0  0  0  0  0  0  0  0
   -2.4845  -10.4005   22.1393 N   0  0  0  0  0  0  0  0  0  0  0  0
   -4.5718  -10.7969   20.8352 C   0  0  0  0  0  0  0  0  0  0  0  0
   -3.2823   -9.9692   20.9665 C   0  0  0  0  0  0  0  0  0  0  0  0
   -3.7026  -12.8036   21.4040 O   0  0  0  0  0  0  0  0  0  0  0  0
  1  2  1  6  0  0  0
  1  3  1  0  0  0  0
  1  8  1  0  0  0  0
  3  4  1  0  0  0  0
  3 32  1  6  0  0  0
  4  5  1  0  0  0  0
  4 33  1  6  0  0  0
  5  6  1  6  0  0  0
  5  7  1  0  0  0  0
  7  8  1  0  0  0  0
  7  9  1  1  0  0  0
  9 10  1  0  0  0  0
 11 12  1  1  0  0  0
 11 13  1  0  0  0  0
 11 19  1  0  0  0  0
 12 34  1  0  0  0  0
 13 14  1  0  0  0  0
 14 15  1  1  0  0  0
 14 16  1  0  0  0  0
 16  2  1  6  0  0  0
 16 17  1  0  0  0  0
 17 18  1  1  0  0  0
 17 19  1  0  0  0  0
 19 20  1  6  0  0  0
 21 20  1  1  0  0  0
 21 22  1  0  0  0  0
 21 29  1  0  0  0  0
 22 23  1  1  0  0  0
 22 24  1  0  0  0  0
 24 25  1  1  0  0  0
 24 26  1  0  0  0  0
 26 27  1  1  0  0  0
 26 28  1  0  0  0  0
 28 29  1  0  0  0  0
 28 30  1  6  0  0  0
 30 31  1  0  0  0  0
 34 35  2  0  0  0  0
 36 34  1  6  0  0  0
 36 38  1  0  0  0  0
 36 40  1  0  0  0  0
 37 39  1  0  0  0  0
 38 39  1  0  0  0  0
M  END
>  <CHROM.1>
175.47267410,-130.02912213,61.95674823,68.55164748,-80.48072437,175.69092712
60.83522896,-62.10675861,-55.65559007,-69.65079497,-1.83854912,-10.75078161
16.47457497,0.31671737,0.68345157,-0.98458020

>  <Name>
ligand

>  <RI>
0

>  <Rbt.Current_Directory>
/home/itssahil/PROJECTS/Mol_Feturizer/New_Systems/rnas/4P20

>  <Rbt.Executable>
rbdock ($Id: //depot/dev/client3/rdock/2013.1/src/exe/rbdock.cxx#4 $)

>  <Rbt.Library>
libRbt.so (2013.1, Build901 2013/11/27)

>  <Rbt.Parameter_File>
/export/apps/rDock/src/rDock_2013.1_src/data/scripts/dock_solv.prm

>  <Rbt.Receptor>
prm/pocket_docking_8.prm

>  <SCORE>
-6.85654

>  <SCORE.INTER>
-0.878766

>  <SCORE.INTER.CONST>
1

>  <SCORE.INTER.POLAR>
0

>  <SCORE.INTER.ROT>
10

>  <SCORE.INTER.SOLV>
19.3058

>  <SCORE.INTER.VDW>
-17.2878

>  <SCORE.INTER.norm>
-0.0219691

>  <SCORE.INTRA>
-5.97777

>  <SCORE.INTRA.DIHEDRAL>
-18.1838

>  <SCORE.INTRA.DIHEDRAL.0>
28.2802

>  <SCORE.INTRA.POLAR>
0

>  <SCORE.INTRA.POLAR.0>
0

>  <SCORE.INTRA.REPUL>
0

>  <SCORE.INTRA.REPUL.0>
0

>  <SCORE.INTRA.SOLV>
6.6959

>  <SCORE.INTRA.SOLV.lig_0>
-101.981

>  <SCORE.INTRA.VDW>
-0.233814

>  <SCORE.INTRA.VDW.0>
-5.72964

>  <SCORE.INTRA.norm>
-0.149444

>  <SCORE.RESTR>
0

>  <SCORE.RESTR.CAVITY>
0

>  <SCORE.RESTR.norm>
0

>  <SCORE.SYSTEM>
0

>  <SCORE.SYSTEM.CONST>
0

>  <SCORE.SYSTEM.DIHEDRAL>
0

>  <SCORE.SYSTEM.SOLV>
0

>  <SCORE.SYSTEM.norm>
0

>  <SCORE.heavy>
40

>  <SCORE.norm>
-0.171413

>  <RMSD>
8.194

$$$$
ligand
 OpenBabel11021811513D
libRbt.so/2013.1/901 2013/11/27
 40 42  0  0  0  0  0  0  0  0999 V2000
   -0.3828  -14.4745   14.9653 C   0  0  2  0  0  0  0  0  0  0  0  0
   -0.2427  -14.3488   16.3892 O   0  0  0  0  0  0  0  0  0  0  0  0
    0.9402  -15.0409   14.3265 C   0  0  1  0  0  0  0  0  0  0  0  0
    2.1235  -14.0415   14.4809 C   0  0  2  0  0  0  0  0  0  0  0  0
    1.7221  -12.7155   13.7607 C   0  0  2  0  0  0  0  0  0  0  0  0
    2.8097  -11.7713   13.8615 O   0  0  0  0  0  0  0  0  0  0  0  0
    0.4099  -12.1423   14.4543 C   0  0  2  0  0  0  0  0  0  0  0  0
   -0.7038  -13.1510   14.3417 O   0  0  0  0  0  0  0  0  0  0  0  0
   -0.0766  -10.8530   13.8069 C   0  0  0  0  0  0  0  0  0  0  0  0
   -1.2472  -10.2771   14.5408 N   0  0  0  0  0  0  0  0  0  0  0  0
   -4.3468  -13.4234   17.6657 C   0  0  2  0  0  0  0  0  0  0  0  0
   -5.4658  -13.1284   18.5301 N   0  0  0  0  0  0  0  0  0  0  0  0
   -3.7422  -14.8350   18.0458 C   0  0  0  0  0  0  0  0  0  0  0  0
   -2.5023  -15.1725   17.1027 C   0  0  2  0  0  0  0  0  0  0  0  0
   -1.9457  -16.5062   17.4503 N   0  0  0  0  0  0  0  0  0  0  0  0
   -1.3976  -14.0268   17.2576 C   0  0  2  0  0  0  0  0  0  0  0  0
   -2.0514  -12.6332   16.8676 C   0  0  2  0  0  0  0  0  0  0  0  0
   -1.0700  -11.6023   16.9994 O   0  0  0  0  0  0  0  0  0  0  0  0
   -3.2806  -12.3138   17.8070 C   0  0  1  0  0  0  0  0  0  0  0  0
   -3.8784  -11.0500   17.4249 O   0  0  0  0  0  0  0  0  0  0  0  0
   -3.4003   -9.7968   17.7797 C   0  0  2  0  0  0  0  0  0  0  0  0
   -3.6196   -9.6282   19.3252 C   0  0  2  0  0  0  0  0  0  0  0  0
   -2.9695  -10.6524   20.0060 O   0  0  0  0  0  0  0  0  0  0  0  0
   -5.1618   -9.5785   19.7001 C   0  0  1  0  0  0  0  0  0  0  0  0
   -5.3476   -9.4051   21.1740 N   0  0  0  0  0  0  0  0  0  0  0  0
   -5.8433   -8.3873   18.8953 C   0  0  2  0  0  0  0  0  0  0  0  0
   -7.2381   -8.2927   19.2104 O   0  0  0  0  0  0  0  0  0  0  0  0
   -5.6135   -8.6411   17.3552 C   0  0  2  0  0  0  0  0  0  0  0  0
   -4.1271   -8.7345   17.0382 O   0  0  0  0  0  0  0  0  0  0  0  0
   -6.2183   -7.5350   16.5240 C   0  0  0  0  0  0  0  0  0  0  0  0
   -6.0191   -7.7288   15.1113 O   0  0  0  0  0  0  0  0  0  0  0  0
    1.2511  -16.3115   14.9693 O   0  0  0  0  0  0  0  0  0  0  0  0
    3.2449  -14.5794   13.8971 O   0  0  0  0  0  0  0  0  0  0  0  0
   -6.8075  -13.3038   18.0239 C   0  0  0  0  0  0  0  0  0  0  0  0
   -7.0170  -13.2798   16.7747 O   0  0  0  0  0  0  0  0  0  0  0  0
   -7.9563  -13.5131   19.0578 C   0  0  2  0  0  0  0  0  0  0  0  0
  -10.0398  -12.5932   21.1515 N   0  0  0  0  0  0  0  0  0  0  0  0
   -9.0936  -12.4660   18.8486 C   0  0  0  0  0  0  0  0  0  0  0  0
  -10.3393  -12.7421   19.7071 C   0  0  0  0  0  0  0  0  0  0  0  0
   -7.5689  -13.3558   20.2592 O   0  0  0  0  0  0  0  0  0  0  0  0
  1  2  1  1  0  0  0
  1  3  1  0  0  0  0
  1  8  1  0  0  0  0
  3  4  1  0  0  0  0
  3 32  1  1  0  0  0
  4  5  1  0  0  0  0
  4 33  1  6  0  0  0
  5  6  1  1  0  0  0
  5  7  1  0  0  0  0
  7  8  1  0  0  0  0
  7  9  1  6  0  0  0
  9 10  1  0  0  0  0
 11 12  1  1  0  0  0
 11 13  1  0  0  0  0
 11 19  1  0  0  0  0
 12 34  1  0  0  0  0
 13 14  1  0  0  0  0
 14 15  1  1  0  0  0
 14 16  1  0  0  0  0
 16  2  1  6  0  0  0
 16 17  1  0  0  0  0
 17 18  1  1  0  0  0
 17 19  1  0  0  0  0
 19 20  1  6  0  0  0
 21 20  1  6  0  0  0
 21 22  1  0  0  0  0
 21 29  1  0  0  0  0
 22 23  1  1  0  0  0
 22 24  1  0  0  0  0
 24 25  1  1  0  0  0
 24 26  1  0  0  0  0
 26 27  1  6  0  0  0
 26 28  1  0  0  0  0
 28 29  1  0  0  0  0
 28 30  1  6  0  0  0
 30 31  1  0  0  0  0
 34 35  2  0  0  0  0
 36 34  1  6  0  0  0
 36 38  1  0  0  0  0
 36 40  1  0  0  0  0
 37 39  1  0  0  0  0
 38 39  1  0  0  0  0
M  END
>  <CHROM.1>
-171.01285908,60.42006073,-175.59351954,-101.79718541,159.80684160,-68.75547175
179.58258540,125.14248426,171.97515651,65.60543907,-3.33143930,-12.08458609
17.10244394,0.22208971,-0.51636202,3.01294536

>  <Name>
ligand

>  <RI>
0

>  <Rbt.Current_Directory>
/home/itssahil/PROJECTS/Mol_Feturizer/New_Systems/rnas/4P20

>  <Rbt.Executable>
rbdock ($Id: //depot/dev/client3/rdock/2013.1/src/exe/rbdock.cxx#4 $)

>  <Rbt.Library>
libRbt.so (2013.1, Build901 2013/11/27)

>  <Rbt.Parameter_File>
/export/apps/rDock/src/rDock_2013.1_src/data/scripts/dock_solv.prm

>  <Rbt.Receptor>
prm/pocket_docking_7.prm

>  <SCORE>
-8.05135

>  <SCORE.INTER>
0.0613759

>  <SCORE.INTER.CONST>
1

>  <SCORE.INTER.POLAR>
0

>  <SCORE.INTER.ROT>
10

>  <SCORE.INTER.SOLV>
16.7094

>  <SCORE.INTER.VDW>
-15.7956

>  <SCORE.INTER.norm>
0.0015344

>  <SCORE.INTRA>
-8.11272

>  <SCORE.INTRA.DIHEDRAL>
-21.8813

>  <SCORE.INTRA.DIHEDRAL.0>
28.2802

>  <SCORE.INTRA.POLAR>
0

>  <SCORE.INTRA.POLAR.0>
0

>  <SCORE.INTRA.REPUL>
0

>  <SCORE.INTRA.REPUL.0>
0

>  <SCORE.INTRA.SOLV>
3.79295

>  <SCORE.INTRA.SOLV.lig_0>
-101.981

>  <SCORE.INTRA.VDW>
0.931434

>  <SCORE.INTRA.VDW.0>
-5.72964

>  <SCORE.INTRA.norm>
-0.202818

>  <SCORE.RESTR>
0

>  <SCORE.RESTR.CAVITY>
0

>  <SCORE.RESTR.norm>
0

>  <SCORE.SYSTEM>
0

>  <SCORE.SYSTEM.CONST>
0

>  <SCORE.SYSTEM.DIHEDRAL>
0

>  <SCORE.SYSTEM.SOLV>
0

>  <SCORE.SYSTEM.norm>
0

>  <SCORE.heavy>
40

>  <SCORE.norm>
-0.201284

>  <RMSD>
8.195

$$$$
ligand
 OpenBabel11021811513D
libRbt.so/2013.1/901 2013/11/27
 40 42  0  0  0  0  0  0  0  0999 V2000
   -4.1659  -10.7047   17.4176 C   0  0  2  0  0  0  0  0  0  0  0  0
   -3.0178  -10.8964   16.5761 O   0  0  0  0  0  0  0  0  0  0  0  0
   -5.2325  -11.8351   17.1651 C   0  0  1  0  0  0  0  0  0  0  0  0
   -5.8261  -11.7509   15.7286 C   0  0  2  0  0  0  0  0  0  0  0  0
   -6.5018  -10.3516   15.5753 C   0  0  2  0  0  0  0  0  0  0  0  0
   -7.0876  -10.2477   14.2598 O   0  0  0  0  0  0  0  0  0  0  0  0
   -5.3938   -9.2303   15.7908 C   0  0  2  0  0  0  0  0  0  0  0  0
   -4.7946   -9.3686   17.1663 O   0  0  0  0  0  0  0  0  0  0  0  0
   -5.9603   -7.8213   15.6807 C   0  0  0  0  0  0  0  0  0  0  0  0
   -6.9836   -7.5561   16.7405 N   0  0  0  0  0  0  0  0  0  0  0  0
    0.9424   -8.9872   16.5397 C   0  0  2  0  0  0  0  0  0  0  0  0
    2.2541   -8.5731   16.9807 N   0  0  0  0  0  0  0  0  0  0  0  0
   -0.1519   -8.4281   17.5361 C   0  0  0  0  0  0  0  0  0  0  0  0
   -1.6055   -8.8814   17.0646 C   0  0  2  0  0  0  0  0  0  0  0  0
   -2.6336   -8.3416   17.9925 N   0  0  0  0  0  0  0  0  0  0  0  0
   -1.6635  -10.4783   17.0032 C   0  0  2  0  0  0  0  0  0  0  0  0
   -0.5486  -10.9897   15.9946 C   0  0  2  0  0  0  0  0  0  0  0  0
   -0.5949  -12.4168   15.9299 O   0  0  0  0  0  0  0  0  0  0  0  0
    0.8854  -10.5300   16.4717 C   0  0  1  0  0  0  0  0  0  0  0  0
    1.8884  -10.9863   15.5302 O   0  0  0  0  0  0  0  0  0  0  0  0
    2.7943  -12.0122   15.7579 C   0  0  2  0  0  0  0  0  0  0  0  0
    3.8631  -11.9617   14.6089 C   0  0  2  0  0  0  0  0  0  0  0  0
    4.4749  -10.7125   14.5916 O   0  0  0  0  0  0  0  0  0  0  0  0
    3.2269  -12.3087   13.1959 C   0  0  1  0  0  0  0  0  0  0  0  0
    4.2638  -12.2671   12.1189 N   0  0  0  0  0  0  0  0  0  0  0  0
    2.5505  -13.7462   13.2813 C   0  0  2  0  0  0  0  0  0  0  0  0
    1.9714  -14.1116   12.0225 O   0  0  0  0  0  0  0  0  0  0  0  0
    1.4682  -13.7117   14.4286 C   0  0  2  0  0  0  0  0  0  0  0  0
    2.1016  -13.3262   15.7586 O   0  0  0  0  0  0  0  0  0  0  0  0
    0.7944  -15.0543   14.5832 C   0  0  0  0  0  0  0  0  0  0  0  0
   -0.2331  -15.0478   15.5916 O   0  0  0  0  0  0  0  0  0  0  0  0
   -4.5919  -13.1258   17.3835 O   0  0  0  0  0  0  0  0  0  0  0  0
   -6.7567  -12.7488   15.5679 O   0  0  0  0  0  0  0  0  0  0  0  0
    2.7748   -9.0996   18.2211 C   0  0  0  0  0  0  0  0  0  0  0  0
    1.9776   -9.5375   19.1029 O   0  0  0  0  0  0  0  0  0  0  0  0
    4.3214   -9.0992   18.4222 C   0  0  2  0  0  0  0  0  0  0  0  0
    3.0981   -6.6608   19.9177 N   0  0  0  0  0  0  0  0  0  0  0  0
    4.8776   -7.6427   18.4740 C   0  0  0  0  0  0  0  0  0  0  0  0
    4.5532   -6.9147   19.7892 C   0  0  0  0  0  0  0  0  0  0  0  0
    4.9402   -9.6635   17.4647 O   0  0  0  0  0  0  0  0  0  0  0  0
  1  2  1  6  0  0  0
  1  3  1  0  0  0  0
  1  8  1  0  0  0  0
  3  4  1  0  0  0  0
  3 32  1  6  0  0  0
  4  5  1  0  0  0  0
  4 33  1  1  0  0  0
  5  6  1  6  0  0  0
  5  7  1  0  0  0  0
  7  8  1  0  0  0  0
  7  9  1  1  0  0  0
  9 10  1  0  0  0  0
 11 12  1  1  0  0  0
 11 13  1  0  0  0  0
 11 19  1  0  0  0  0
 12 34  1  0  0  0  0
 13 14  1  0  0  0  0
 14 15  1  1  0  0  0
 14 16  1  0  0  0  0
 16  2  1  6  0  0  0
 16 17  1  0  0  0  0
 17 18  1  1  0  0  0
 17 19  1  0  0  0  0
 19 20  1  6  0  0  0
 21 20  1  6  0  0  0
 21 22  1  0  0  0  0
 21 29  1  0  0  0  0
 22 23  1  6  0  0  0
 22 24  1  0  0  0  0
 24 25  1  6  0  0  0
 24 26  1  0  0  0  0
 26 27  1  6  0  0  0
 26 28  1  0  0  0  0
 28 29  1  0  0  0  0
 28 30  1  1  0  0  0
 30 31  1  0  0  0  0
 34 35  2  0  0  0  0
 36 34  1  6  0  0  0
 36 38  1  0  0  0  0
 36 40  1  0  0  0  0
 37 39  1  0  0  0  0
 38 39  1  0  0  0  0
M  END
>  <CHROM.1>
-149.16320685,-68.27171987,62.55301394,66.78123882,132.56468984,-168.48499084
-177.99291755,64.83583219,73.72741045,-67.30746715,-0.36284835,-10.72040032
16.22366158,-3.13566572,0.01186218,-2.48910236

>  <Name>
ligand

>  <RI>
0

>  <Rbt.Current_Directory>
/home/itssahil/PROJECTS/Mol_Feturizer/New_Systems/rnas/4P20

>  <Rbt.Executable>
rbdock ($Id: //depot/dev/client3/rdock/2013.1/src/exe/rbdock.cxx#4 $)

>  <Rbt.Library>
libRbt.so (2013.1, Build901 2013/11/27)

>  <Rbt.Parameter_File>
/export/apps/rDock/src/rDock_2013.1_src/data/scripts/dock_solv.prm

>  <Rbt.Receptor>
prm/pocket_docking_3.prm

>  <SCORE>
-4.9154

>  <SCORE.INTER>
-1.5256

>  <SCORE.INTER.CONST>
1

>  <SCORE.INTER.POLAR>
0

>  <SCORE.INTER.ROT>
10

>  <SCORE.INTER.SOLV>
11.1008

>  <SCORE.INTER.VDW>
-14.984

>  <SCORE.INTER.norm>
-0.0381399

>  <SCORE.INTRA>
-3.41105

>  <SCORE.INTRA.DIHEDRAL>
-15.3627

>  <SCORE.INTRA.DIHEDRAL.0>
28.2802

>  <SCORE.INTRA.POLAR>
0

>  <SCORE.INTRA.POLAR.0>
0

>  <SCORE.INTRA.REPUL>
0

>  <SCORE.INTRA.REPUL.0>
0

>  <SCORE.INTRA.SOLV>
7.14325

>  <SCORE.INTRA.SOLV.lig_0>
-101.981

>  <SCORE.INTRA.VDW>
0.698685

>  <SCORE.INTRA.VDW.0>
-5.72964

>  <SCORE.INTRA.norm>
-0.0852761

>  <SCORE.RESTR>
0.0212433

>  <SCORE.RESTR.CAVITY>
0.0212433

>  <SCORE.RESTR.norm>
0.000531082

>  <SCORE.SYSTEM>
0

>  <SCORE.SYSTEM.CONST>
0

>  <SCORE.SYSTEM.DIHEDRAL>
0

>  <SCORE.SYSTEM.SOLV>
0

>  <SCORE.SYSTEM.norm>
0

>  <SCORE.heavy>
40

>  <SCORE.norm>
-0.122885

>  <RMSD>
8.200

$$$$
ligand
 OpenBabel11021811513D
libRbt.so/2013.1/901 2013/11/27
 40 42  0  0  0  0  0  0  0  0999 V2000
   -3.7363   -8.8674   17.8840 C   0  0  2  0  0  0  0  0  0  0  0  0
   -2.5818   -8.4949   17.1151 O   0  0  0  0  0  0  0  0  0  0  0  0
   -4.2084  -10.3210   17.5052 C   0  0  1  0  0  0  0  0  0  0  0  0
   -4.7206  -10.3917   16.0370 C   0  0  2  0  0  0  0  0  0  0  0  0
   -5.9209   -9.4016   15.9046 C   0  0  2  0  0  0  0  0  0  0  0  0
   -6.4394   -9.4600   14.5585 O   0  0  0  0  0  0  0  0  0  0  0  0
   -5.4059   -7.9361   16.2490 C   0  0  2  0  0  0  0  0  0  0  0  0
   -4.8630   -7.9076   17.6542 O   0  0  0  0  0  0  0  0  0  0  0  0
   -6.5133   -6.8944   16.1676 C   0  0  0  0  0  0  0  0  0  0  0  0
   -7.1350   -6.8583   14.8064 N   0  0  0  0  0  0  0  0  0  0  0  0
    1.5823   -7.5544   18.1669 C   0  0  2  0  0  0  0  0  0  0  0  0
    2.9098   -7.7005   18.7170 N   0  0  0  0  0  0  0  0  0  0  0  0
    0.5145   -7.6402   19.3310 C   0  0  0  0  0  0  0  0  0  0  0  0
   -0.9570   -7.4852   18.7380 C   0  0  2  0  0  0  0  0  0  0  0  0
   -1.9579   -7.5496   19.8351 N   0  0  0  0  0  0  0  0  0  0  0  0
   -1.2107   -8.6346   17.6557 C   0  0  2  0  0  0  0  0  0  0  0  0
   -0.1159   -8.5077   16.5123 C   0  0  2  0  0  0  0  0  0  0  0  0
   -0.3367   -9.5293   15.5373 O   0  0  0  0  0  0  0  0  0  0  0  0
    1.3366   -8.6590   17.1145 C   0  0  1  0  0  0  0  0  0  0  0  0
    2.3238   -8.5200   16.0626 O   0  0  0  0  0  0  0  0  0  0  0  0
    3.6448   -8.9366   16.1423 C   0  0  2  0  0  0  0  0  0  0  0  0
    4.3549   -8.5119   14.8079 C   0  0  2  0  0  0  0  0  0  0  0  0
    4.2457   -7.1359   14.6356 O   0  0  0  0  0  0  0  0  0  0  0  0
    3.7732   -9.2951   13.5550 C   0  0  1  0  0  0  0  0  0  0  0  0
    4.4715   -8.8848   12.2977 N   0  0  0  0  0  0  0  0  0  0  0  0
    3.9323  -10.8570   13.8122 C   0  0  2  0  0  0  0  0  0  0  0  0
    3.4317  -11.6095   12.7002 O   0  0  0  0  0  0  0  0  0  0  0  0
    3.1677  -11.2151   15.1450 C   0  0  2  0  0  0  0  0  0  0  0  0
    3.7151  -10.4102   16.3159 O   0  0  0  0  0  0  0  0  0  0  0  0
    3.2918  -12.6854   15.4667 C   0  0  0  0  0  0  0  0  0  0  0  0
    2.5863  -13.0534   16.6665 O   0  0  0  0  0  0  0  0  0  0  0  0
   -3.0889  -11.2324   17.7052 O   0  0  0  0  0  0  0  0  0  0  0  0
   -5.1301  -11.6747   15.7653 O   0  0  0  0  0  0  0  0  0  0  0  0
    3.5133   -6.5787   19.3983 C   0  0  0  0  0  0  0  0  0  0  0  0
    3.1149   -5.4023   19.1485 O   0  0  0  0  0  0  0  0  0  0  0  0
    4.6510   -6.8732   20.4236 C   0  0  2  0  0  0  0  0  0  0  0  0
    6.1193   -9.3804   21.4889 N   0  0  0  0  0  0  0  0  0  0  0  0
    4.1578   -7.8426   21.5419 C   0  0  0  0  0  0  0  0  0  0  0  0
    5.3054   -8.4815   22.3419 C   0  0  0  0  0  0  0  0  0  0  0  0
    5.0450   -5.8279   21.0320 O   0  0  0  0  0  0  0  0  0  0  0  0
  1  2  1  6  0  0  0
  1  3  1  0  0  0  0
  1  8  1  0  0  0  0
  3  4  1  0  0  0  0
  3 32  1  6  0  0  0
  4  5  1  0  0  0  0
  4 33  1  1  0  0  0
  5  6  1  6  0  0  0
  5  7  1  0  0  0  0
  7  8  1  0  0  0  0
  7  9  1  1  0  0  0
  9 10  1  0  0  0  0
 11 12  1  1  0  0  0
 11 13  1  0  0  0  0
 11 19  1  0  0  0  0
 12 34  1  0  0  0  0
 13 14  1  0  0  0  0
 14 15  1  1  0  0  0
 14 16  1  0  0  0  0
 16  2  1  6  0  0  0
 16 17  1  0  0  0  0
 17 18  1  6  0  0  0
 17 19  1  0  0  0  0
 19 20  1  6  0  0  0
 21 20  1  6  0  0  0
 21 22  1  0  0  0  0
 21 29  1  0  0  0  0
 22 23  1  6  0  0  0
 22 24  1  0  0  0  0
 24 25  1  6  0  0  0
 24 26  1  0  0  0  0
 26 27  1  6  0  0  0
 26 28  1  0  0  0  0
 28 29  1  0  0  0  0
 28 30  1  1  0  0  0
 30 31  1  0  0  0  0
 34 35  2  0  0  0  0
 36 34  1  6  0  0  0
 36 38  1  0  0  0  0
 36 40  1  0  0  0  0
 37 39  1  0  0  0  0
 38 39  1  0  0  0  0
M  END
>  <CHROM.1>
-96.77495338,-74.17089513,-58.43893838,-77.01719609,78.11919113,-176.89630788
-179.01781404,-57.42580441,163.71181143,-65.69393711,0.41029856,-8.87797860
17.02942483,2.96418266,0.05024258,-2.08527940

>  <Name>
ligand

>  <RI>
0

>  <Rbt.Current_Directory>
/home/itssahil/PROJECTS/Mol_Feturizer/New_Systems/rnas/4P20

>  <Rbt.Executable>
rbdock ($Id: //depot/dev/client3/rdock/2013.1/src/exe/rbdock.cxx#4 $)

>  <Rbt.Library>
libRbt.so (2013.1, Build901 2013/11/27)

>  <Rbt.Parameter_File>
/export/apps/rDock/src/rDock_2013.1_src/data/scripts/dock_solv.prm

>  <Rbt.Receptor>
prm/pocket_docking_4.prm

>  <SCORE>
-13.187

>  <SCORE.INTER>
-5.73575

>  <SCORE.INTER.CONST>
1

>  <SCORE.INTER.POLAR>
0

>  <SCORE.INTER.ROT>
10

>  <SCORE.INTER.SOLV>
25.6489

>  <SCORE.INTER.VDW>
-22.6401

>  <SCORE.INTER.norm>
-0.143394

>  <SCORE.INTRA>
-7.45127

>  <SCORE.INTRA.DIHEDRAL>
-18.8687

>  <SCORE.INTRA.DIHEDRAL.0>
28.2802

>  <SCORE.INTRA.POLAR>
0

>  <SCORE.INTRA.POLAR.0>
0

>  <SCORE.INTRA.REPUL>
0

>  <SCORE.INTRA.REPUL.0>
0

>  <SCORE.INTRA.SOLV>
0.994847

>  <SCORE.INTRA.SOLV.lig_0>
-101.981

>  <SCORE.INTRA.VDW>
1.48566

>  <SCORE.INTRA.VDW.0>
-5.72964

>  <SCORE.INTRA.norm>
-0.186282

>  <SCORE.RESTR>
0

>  <SCORE.RESTR.CAVITY>
0

>  <SCORE.RESTR.norm>
0

>  <SCORE.SYSTEM>
0

>  <SCORE.SYSTEM.CONST>
0

>  <SCORE.SYSTEM.DIHEDRAL>
0

>  <SCORE.SYSTEM.SOLV>
0

>  <SCORE.SYSTEM.norm>
0

>  <SCORE.heavy>
40

>  <SCORE.norm>
-0.329675

>  <RMSD>
8.204

$$$$
ligand
 OpenBabel11021811513D
libRbt.so/2013.1/901 2013/11/27
 40 42  0  0  0  0  0  0  0  0999 V2000
   -4.5800   -7.9199   18.3813 C   0  0  2  0  0  0  0  0  0  0  0  0
   -4.1079   -9.2099   17.9619 O   0  0  0  0  0  0  0  0  0  0  0  0
   -5.7717   -8.0706   19.3994 C   0  0  1  0  0  0  0  0  0  0  0  0
   -7.0229   -8.7058   18.7257 C   0  0  2  0  0  0  0  0  0  0  0  0
   -7.4548   -7.7725   17.5507 C   0  0  2  0  0  0  0  0  0  0  0  0
   -8.6316   -8.3187   16.9172 O   0  0  0  0  0  0  0  0  0  0  0  0
   -6.2500   -7.6741   16.5161 C   0  0  2  0  0  0  0  0  0  0  0  0
   -5.0351   -7.1103   17.2062 O   0  0  0  0  0  0  0  0  0  0  0  0
   -6.5666   -6.7648   15.3367 C   0  0  0  0  0  0  0  0  0  0  0  0
   -7.7266   -7.2786   14.5423 N   0  0  0  0  0  0  0  0  0  0  0  0
   -0.0899  -10.4017   16.6332 C   0  0  2  0  0  0  0  0  0  0  0  0
    1.0713  -10.5523   15.7874 N   0  0  0  0  0  0  0  0  0  0  0  0
   -1.3414  -11.0758   15.9387 C   0  0  0  0  0  0  0  0  0  0  0  0
   -2.6328  -10.9132   16.8590 C   0  0  2  0  0  0  0  0  0  0  0  0
   -3.8040  -11.5613   16.2127 N   0  0  0  0  0  0  0  0  0  0  0  0
   -2.9017   -9.3581   17.1164 C   0  0  2  0  0  0  0  0  0  0  0  0
   -1.6201   -8.7281   17.8112 C   0  0  2  0  0  0  0  0  0  0  0  0
   -1.8523   -7.3379   18.0491 O   0  0  0  0  0  0  0  0  0  0  0  0
   -0.3480   -8.9000   16.8906 C   0  0  1  0  0  0  0  0  0  0  0  0
    0.8158   -8.3391   17.5474 O   0  0  0  0  0  0  0  0  0  0  0  0
    1.3380   -8.7690   18.7588 C   0  0  2  0  0  0  0  0  0  0  0  0
    2.2974   -7.6432   19.2853 C   0  0  2  0  0  0  0  0  0  0  0  0
    1.5958   -6.4483   19.4081 O   0  0  0  0  0  0  0  0  0  0  0  0
    3.5697   -7.4681   18.3514 C   0  0  1  0  0  0  0  0  0  0  0  0
    4.4753   -6.4005   18.8777 N   0  0  0  0  0  0  0  0  0  0  0  0
    4.3278   -8.8636   18.2570 C   0  0  2  0  0  0  0  0  0  0  0  0
    5.4948   -8.7541   17.4326 O   0  0  0  0  0  0  0  0  0  0  0  0
    3.3167   -9.9338   17.6902 C   0  0  2  0  0  0  0  0  0  0  0  0
    2.0859  -10.0400   18.5803 O   0  0  0  0  0  0  0  0  0  0  0  0
    3.9625  -11.2953   17.5908 C   0  0  0  0  0  0  0  0  0  0  0  0
    5.0815  -11.3150   16.6851 O   0  0  0  0  0  0  0  0  0  0  0  0
   -5.3176   -8.8874   20.5177 O   0  0  0  0  0  0  0  0  0  0  0  0
   -8.0323   -8.8017   19.6528 O   0  0  0  0  0  0  0  0  0  0  0  0
    1.1671   -9.7625   14.5817 C   0  0  0  0  0  0  0  0  0  0  0  0
    0.1158   -9.3002   14.0469 O   0  0  0  0  0  0  0  0  0  0  0  0
    2.5853   -9.5159   13.9812 C   0  0  2  0  0  0  0  0  0  0  0  0
    2.7225  -11.0573   11.2700 N   0  0  0  0  0  0  0  0  0  0  0  0
    3.3090  -10.8658   13.6854 C   0  0  0  0  0  0  0  0  0  0  0  0
    2.6128  -11.7036   12.5998 C   0  0  0  0  0  0  0  0  0  0  0  0
    3.3526   -8.8886   14.7784 O   0  0  0  0  0  0  0  0  0  0  0  0
  1  2  1  6  0  0  0
  1  3  1  0  0  0  0
  1  8  1  0  0  0  0
  3  4  1  0  0  0  0
  3 32  1  1  0  0  0
  4  5  1  0  0  0  0
  4 33  1  1  0  0  0
  5  6  1  6  0  0  0
  5  7  1  0  0  0  0
  7  8  1  0  0  0  0
  7  9  1  6  0  0  0
  9 10  1  0  0  0  0
 11 12  1  6  0  0  0
 11 13  1  0  0  0  0
 11 19  1  0  0  0  0
 12 34  1  0  0  0  0
 13 14  1  0  0  0  0
 14 15  1  6  0  0  0
 14 16  1  0  0  0  0
 16  2  1  1  0  0  0
 16 17  1  0  0  0  0
 17 18  1  6  0  0  0
 17 19  1  0  0  0  0
 19 20  1  1  0  0  0
 21 20  1  6  0  0  0
 21 22  1  0  0  0  0
 21 29  1  0  0  0  0
 22 23  1  6  0  0  0
 22 24  1  0  0  0  0
 24 25  1  1  0  0  0
 24 26  1  0  0  0  0
 26 27  1  6  0  0  0
 26 28  1  0  0  0  0
 28 29  1  0  0  0  0
 28 30  1  1  0  0  0
 30 31  1  0  0  0  0
 34 35  2  0  0  0  0
 36 34  1  1  0  0  0
 36 38  1  0  0  0  0
 36 40  1  0  0  0  0
 37 39  1  0  0  0  0
 38 39  1  0  0  0  0
M  END
>  <CHROM.1>
-173.46921986,178.74662905,-61.97565149,72.83792713,-58.69914420,-163.54415933
-62.11884024,56.80440328,64.63203452,68.34423544,-0.89955157,-9.03055875
16.95397847,-2.96508823,0.07047628,-1.99414099

>  <Name>
ligand

>  <RI>
0

>  <Rbt.Current_Directory>
/home/itssahil/PROJECTS/Mol_Feturizer/New_Systems/rnas/4P20

>  <Rbt.Executable>
rbdock ($Id: //depot/dev/client3/rdock/2013.1/src/exe/rbdock.cxx#4 $)

>  <Rbt.Library>
libRbt.so (2013.1, Build901 2013/11/27)

>  <Rbt.Parameter_File>
/export/apps/rDock/src/rDock_2013.1_src/data/scripts/dock_solv.prm

>  <Rbt.Receptor>
prm/pocket_docking_5.prm

>  <SCORE>
-10.7353

>  <SCORE.INTER>
0.343064

>  <SCORE.INTER.CONST>
1

>  <SCORE.INTER.POLAR>
0

>  <SCORE.INTER.ROT>
10

>  <SCORE.INTER.SOLV>
19.746

>  <SCORE.INTER.VDW>
-16.6199

>  <SCORE.INTER.norm>
0.00857659

>  <SCORE.INTRA>
-11.0784

>  <SCORE.INTRA.DIHEDRAL>
-25.4786

>  <SCORE.INTRA.DIHEDRAL.0>
28.2802

>  <SCORE.INTRA.POLAR>
0

>  <SCORE.INTRA.POLAR.0>
0

>  <SCORE.INTRA.REPUL>
0

>  <SCORE.INTRA.REPUL.0>
0

>  <SCORE.INTRA.SOLV>
2.75929

>  <SCORE.INTRA.SOLV.lig_0>
-101.981

>  <SCORE.INTRA.VDW>
0.281294

>  <SCORE.INTRA.VDW.0>
-5.72964

>  <SCORE.INTRA.norm>
-0.276959

>  <SCORE.RESTR>
0

>  <SCORE.RESTR.CAVITY>
0

>  <SCORE.RESTR.norm>
0

>  <SCORE.SYSTEM>
0

>  <SCORE.SYSTEM.CONST>
0

>  <SCORE.SYSTEM.DIHEDRAL>
0

>  <SCORE.SYSTEM.SOLV>
0

>  <SCORE.SYSTEM.norm>
0

>  <SCORE.heavy>
40

>  <SCORE.norm>
-0.268382

>  <RMSD>
8.210

$$$$
ligand
 OpenBabel11021811513D
libRbt.so/2013.1/901 2013/11/27
 40 42  0  0  0  0  0  0  0  0999 V2000
    3.2050  -10.4322   13.7794 C   0  0  2  0  0  0  0  0  0  0  0  0
    1.8772  -10.0493   14.1708 O   0  0  0  0  0  0  0  0  0  0  0  0
    3.3267  -10.4834   12.2103 C   0  0  1  0  0  0  0  0  0  0  0  0
    2.4384  -11.6086   11.6040 C   0  0  2  0  0  0  0  0  0  0  0  0
    2.9142  -12.9672   12.2093 C   0  0  2  0  0  0  0  0  0  0  0  0
    2.1271  -14.0396   11.6480 O   0  0  0  0  0  0  0  0  0  0  0  0
    2.7385  -12.9042   13.7894 C   0  0  2  0  0  0  0  0  0  0  0  0
    3.5627  -11.7721   14.3454 O   0  0  0  0  0  0  0  0  0  0  0  0
    3.1967  -14.1821   14.4787 C   0  0  0  0  0  0  0  0  0  0  0  0
    4.6706  -14.3923   14.3234 N   0  0  0  0  0  0  0  0  0  0  0  0
   -0.0041   -8.9869   17.9999 C   0  0  2  0  0  0  0  0  0  0  0  0
   -0.4508   -9.0949   19.3693 N   0  0  0  0  0  0  0  0  0  0  0  0
   -0.6557  -10.1424   17.1379 C   0  0  0  0  0  0  0  0  0  0  0  0
   -0.1677  -10.0390   15.6240 C   0  0  2  0  0  0  0  0  0  0  0  0
   -0.7937  -11.1154   14.8121 N   0  0  0  0  0  0  0  0  0  0  0  0
    1.4278  -10.1343   15.5788 C   0  0  2  0  0  0  0  0  0  0  0  0
    2.0331   -8.9581   16.4575 C   0  0  2  0  0  0  0  0  0  0  0  0
    3.4601   -9.0326   16.4204 O   0  0  0  0  0  0  0  0  0  0  0  0
    1.5382   -9.0707   17.9534 C   0  0  1  0  0  0  0  0  0  0  0  0
    2.0821   -7.9792   18.7365 O   0  0  0  0  0  0  0  0  0  0  0  0
    1.7574   -7.6992   20.0560 C   0  0  2  0  0  0  0  0  0  0  0  0
    2.5068   -6.3789   20.4565 C   0  0  2  0  0  0  0  0  0  0  0  0
    2.1400   -5.3510   19.5939 O   0  0  0  0  0  0  0  0  0  0  0  0
    4.0821   -6.5774   20.4755 C   0  0  1  0  0  0  0  0  0  0  0  0
    4.7749   -5.3124   20.8712 N   0  0  0  0  0  0  0  0  0  0  0  0
    4.4343   -7.7591   21.4809 C   0  0  2  0  0  0  0  0  0  0  0  0
    5.8504   -7.9691   21.5432 O   0  0  0  0  0  0  0  0  0  0  0  0
    3.6771   -9.0561   20.9979 C   0  0  2  0  0  0  0  0  0  0  0  0
    2.1745   -8.8163   20.9419 O   0  0  0  0  0  0  0  0  0  0  0  0
    3.9483  -10.2211   21.9198 C   0  0  0  0  0  0  0  0  0  0  0  0
    3.2822  -11.4272   21.5023 O   0  0  0  0  0  0  0  0  0  0  0  0
    2.9437   -9.1814   11.6790 O   0  0  0  0  0  0  0  0  0  0  0  0
    2.5925  -11.6160   10.2388 O   0  0  0  0  0  0  0  0  0  0  0  0
   -1.6016   -8.3314   19.7931 C   0  0  0  0  0  0  0  0  0  0  0  0
   -1.9360   -7.2899   19.1541 O   0  0  0  0  0  0  0  0  0  0  0  0
   -2.3892   -8.8311   21.0431 C   0  0  2  0  0  0  0  0  0  0  0  0
   -1.2182  -10.7706   24.2108 N   0  0  0  0  0  0  0  0  0  0  0  0
   -1.4584   -9.6292   22.0075 C   0  0  0  0  0  0  0  0  0  0  0  0
   -2.1434  -10.0208   23.3276 C   0  0  0  0  0  0  0  0  0  0  0  0
   -3.3300   -9.6323   20.7414 O   0  0  0  0  0  0  0  0  0  0  0  0
  1  2  1  6  0  0  0
  1  3  1  0  0  0  0
  1  8  1  0  0  0  0
  3  4  1  0  0  0  0
  3 32  1  6  0  0  0
  4  5  1  0  0  0  0
  4 33  1  6  0  0  0
  5  6  1  6  0  0  0
  5  7  1  0  0  0  0
  7  8  1  0  0  0  0
  7  9  1  1  0  0  0
  9 10  1  0  0  0  0
 11 12  1  1  0  0  0
 11 13  1  0  0  0  0
 11 19  1  0  0  0  0
 12 34  1  0  0  0  0
 13 14  1  0  0  0  0
 14 15  1  6  0  0  0
 14 16  1  0  0  0  0
 16  2  1  6  0  0  0
 16 17  1  0  0  0  0
 17 18  1  1  0  0  0
 17 19  1  0  0  0  0
 19 20  1  1  0  0  0
 21 20  1  6  0  0  0
 21 22  1  0  0  0  0
 21 29  1  0  0  0  0
 22 23  1  6  0  0  0
 22 24  1  0  0  0  0
 24 25  1  1  0  0  0
 24 26  1  0  0  0  0
 26 27  1  6  0  0  0
 26 28  1  0  0  0  0
 28 29  1  0  0  0  0
 28 30  1  1  0  0  0
 30 31  1  0  0  0  0
 34 35  2  0  0  0  0
 36 34  1  6  0  0  0
 36 38  1  0  0  0  0
 36 40  1  0  0  0  0
 37 39  1  0  0  0  0
 38 39  1  0  0  0  0
M  END
>  <CHROM.1>
169.98475387,-164.33168082,65.37793360,-93.86953355,53.83334704,-176.14515749
-179.46252117,27.49025922,173.96462108,-179.74513576,1.73210166,-9.73487169
17.59834814,-1.37981612,0.25926026,1.14035750

>  <Name>
ligand

>  <RI>
0

>  <Rbt.Current_Directory>
/home/itssahil/PROJECTS/Mol_Feturizer/New_Systems/rnas/4P20

>  <Rbt.Executable>
rbdock ($Id: //depot/dev/client3/rdock/2013.1/src/exe/rbdock.cxx#4 $)

>  <Rbt.Library>
libRbt.so (2013.1, Build901 2013/11/27)

>  <Rbt.Parameter_File>
/export/apps/rDock/src/rDock_2013.1_src/data/scripts/dock_solv.prm

>  <Rbt.Receptor>
prm/pocket_docking_7.prm

>  <SCORE>
-16.8057

>  <SCORE.INTER>
-6.42036

>  <SCORE.INTER.CONST>
1

>  <SCORE.INTER.POLAR>
0

>  <SCORE.INTER.ROT>
10

>  <SCORE.INTER.SOLV>
21.8676

>  <SCORE.INTER.VDW>
-21.8361

>  <SCORE.INTER.norm>
-0.160509

>  <SCORE.INTRA>
-10.3853

>  <SCORE.INTRA.DIHEDRAL>
-23.687

>  <SCORE.INTRA.DIHEDRAL.0>
28.2802

>  <SCORE.INTRA.POLAR>
0

>  <SCORE.INTRA.POLAR.0>
0

>  <SCORE.INTRA.REPUL>
0

>  <SCORE.INTRA.REPUL.0>
0

>  <SCORE.INTRA.SOLV>
-0.793767

>  <SCORE.INTRA.SOLV.lig_0>
-101.981

>  <SCORE.INTRA.VDW>
1.85508

>  <SCORE.INTRA.VDW.0>
-5.72964

>  <SCORE.INTRA.norm>
-0.259632

>  <SCORE.RESTR>
0

>  <SCORE.RESTR.CAVITY>
0

>  <SCORE.RESTR.norm>
0

>  <SCORE.SYSTEM>
0

>  <SCORE.SYSTEM.CONST>
0

>  <SCORE.SYSTEM.DIHEDRAL>
0

>  <SCORE.SYSTEM.SOLV>
0

>  <SCORE.SYSTEM.norm>
0

>  <SCORE.heavy>
40

>  <SCORE.norm>
-0.420141

>  <RMSD>
8.213

$$$$
ligand
 OpenBabel11021811513D
libRbt.so/2013.1/901 2013/11/27
 40 42  0  0  0  0  0  0  0  0999 V2000
   -4.0092   -8.5660   17.9030 C   0  0  2  0  0  0  0  0  0  0  0  0
   -2.8369   -8.6881   17.0821 O   0  0  0  0  0  0  0  0  0  0  0  0
   -4.3145   -9.9247   18.6379 C   0  0  1  0  0  0  0  0  0  0  0  0
   -4.7010  -11.0461   17.6299 C   0  0  2  0  0  0  0  0  0  0  0  0
   -5.9730  -10.5727   16.8578 C   0  0  2  0  0  0  0  0  0  0  0  0
   -6.3766  -11.6021   15.9295 O   0  0  0  0  0  0  0  0  0  0  0  0
   -5.6236   -9.2240   16.0895 C   0  0  2  0  0  0  0  0  0  0  0  0
   -5.1978   -8.1724   17.0810 O   0  0  0  0  0  0  0  0  0  0  0  0
   -6.8123   -8.6673   15.3179 C   0  0  0  0  0  0  0  0  0  0  0  0
   -7.4053   -9.6951   14.4054 N   0  0  0  0  0  0  0  0  0  0  0  0
    1.3675   -7.7829   17.9951 C   0  0  2  0  0  0  0  0  0  0  0  0
    2.6779   -7.8803   18.5948 N   0  0  0  0  0  0  0  0  0  0  0  0
    0.2853   -7.5438   19.1241 C   0  0  0  0  0  0  0  0  0  0  0  0
   -1.1678   -7.4389   18.4775 C   0  0  2  0  0  0  0  0  0  0  0  0
   -2.1813   -7.1979   19.5378 N   0  0  0  0  0  0  0  0  0  0  0  0
   -1.4825   -8.7840   17.6720 C   0  0  2  0  0  0  0  0  0  0  0  0
   -0.3710   -8.9800   16.5548 C   0  0  2  0  0  0  0  0  0  0  0  0
   -0.6459  -10.1787   15.8262 O   0  0  0  0  0  0  0  0  0  0  0  0
    1.0633   -9.0782   17.2091 C   0  0  1  0  0  0  0  0  0  0  0  0
    2.0674   -9.2357   16.1758 O   0  0  0  0  0  0  0  0  0  0  0  0
    3.3812   -9.6281   16.3873 C   0  0  2  0  0  0  0  0  0  0  0  0
    4.1445   -9.4759   15.0238 C   0  0  2  0  0  0  0  0  0  0  0  0
    4.0523   -8.1612   14.5786 O   0  0  0  0  0  0  0  0  0  0  0  0
    3.6048  -10.4916   13.9291 C   0  0  1  0  0  0  0  0  0  0  0  0
    4.3534  -10.3383   12.6434 N   0  0  0  0  0  0  0  0  0  0  0  0
    3.7423  -11.9717   14.4961 C   0  0  2  0  0  0  0  0  0  0  0  0
    3.2786  -12.9295   13.5363 O   0  0  0  0  0  0  0  0  0  0  0  0
    2.9251  -12.0590   15.8428 C   0  0  2  0  0  0  0  0  0  0  0  0
    3.4338  -11.0382   16.8515 O   0  0  0  0  0  0  0  0  0  0  0  0
    3.0258  -13.4365   16.4535 C   0  0  0  0  0  0  0  0  0  0  0  0
    2.3839  -14.4473   15.6542 O   0  0  0  0  0  0  0  0  0  0  0  0
   -3.1351  -10.3051   19.4051 O   0  0  0  0  0  0  0  0  0  0  0  0
   -4.9681  -12.2014   18.3238 O   0  0  0  0  0  0  0  0  0  0  0  0
    3.3057   -6.6835   19.1051 C   0  0  0  0  0  0  0  0  0  0  0  0
    2.9528   -5.5501   18.6626 O   0  0  0  0  0  0  0  0  0  0  0  0
    4.4119   -6.8461   20.1925 C   0  0  2  0  0  0  0  0  0  0  0  0
    5.1972   -6.2737   23.1852 N   0  0  0  0  0  0  0  0  0  0  0  0
    3.8296   -7.4868   21.4902 C   0  0  0  0  0  0  0  0  0  0  0  0
    4.8606   -7.6046   22.6252 C   0  0  0  0  0  0  0  0  0  0  0  0
    4.9071   -5.7329   20.5579 O   0  0  0  0  0  0  0  0  0  0  0  0
  1  2  1  6  0  0  0
  1  3  1  0  0  0  0
  1  8  1  0  0  0  0
  3  4  1  0  0  0  0
  3 32  1  6  0  0  0
  4  5  1  0  0  0  0
  4 33  1  1  0  0  0
  5  6  1  6  0  0  0
  5  7  1  0  0  0  0
  7  8  1  0  0  0  0
  7  9  1  1  0  0  0
  9 10  1  0  0  0  0
 11 12  1  1  0  0  0
 11 13  1  0  0  0  0
 11 19  1  0  0  0  0
 12 34  1  0  0  0  0
 13 14  1  0  0  0  0
 14 15  1  1  0  0  0
 14 16  1  0  0  0  0
 16  2  1  6  0  0  0
 16 17  1  0  0  0  0
 17 18  1  1  0  0  0
 17 19  1  0  0  0  0
 19 20  1  6  0  0  0
 21 20  1  6  0  0  0
 21 22  1  0  0  0  0
 21 29  1  0  0  0  0
 22 23  1  6  0  0  0
 22 24  1  0  0  0  0
 24 25  1  6  0  0  0
 24 26  1  0  0  0  0
 26 27  1  6  0  0  0
 26 28  1  0  0  0  0
 28 29  1  0  0  0  0
 28 30  1  1  0  0  0
 30 31  1  0  0  0  0
 34 35  2  0  0  0  0
 36 34  1  6  0  0  0
 36 38  1  0  0  0  0
 36 40  1  0  0  0  0
 37 39  1  0  0  0  0
 38 39  1  0  0  0  0
M  END
>  <CHROM.1>
-71.80601870,-62.63454225,-53.14132110,-72.90069108,74.23063424,-172.54241349
-66.45977879,-62.87768383,-177.00721546,70.74829691,0.19184855,-9.35220683
17.31161949,2.92190655,-0.01580683,-2.26871876

>  <Name>
ligand

>  <RI>
0

>  <Rbt.Current_Directory>
/home/itssahil/PROJECTS/Mol_Feturizer/New_Systems/rnas/4P20

>  <Rbt.Executable>
rbdock ($Id: //depot/dev/client3/rdock/2013.1/src/exe/rbdock.cxx#4 $)

>  <Rbt.Library>
libRbt.so (2013.1, Build901 2013/11/27)

>  <Rbt.Parameter_File>
/export/apps/rDock/src/rDock_2013.1_src/data/scripts/dock_solv.prm

>  <Rbt.Receptor>
prm/pocket_docking_3.prm

>  <SCORE>
-9.20495

>  <SCORE.INTER>
-1.26038

>  <SCORE.INTER.CONST>
1

>  <SCORE.INTER.POLAR>
0

>  <SCORE.INTER.ROT>
10

>  <SCORE.INTER.SOLV>
20.7104

>  <SCORE.INTER.VDW>
-18.0104

>  <SCORE.INTER.norm>
-0.0315096

>  <SCORE.INTRA>
-7.94457

>  <SCORE.INTRA.DIHEDRAL>
-24.6249

>  <SCORE.INTRA.DIHEDRAL.0>
28.2802

>  <SCORE.INTRA.POLAR>
0

>  <SCORE.INTRA.POLAR.0>
0

>  <SCORE.INTRA.REPUL>
0

>  <SCORE.INTRA.REPUL.0>
0

>  <SCORE.INTRA.SOLV>
3.2231

>  <SCORE.INTRA.SOLV.lig_0>
-101.981

>  <SCORE.INTRA.VDW>
2.75631

>  <SCORE.INTRA.VDW.0>
-5.72964

>  <SCORE.INTRA.norm>
-0.198614

>  <SCORE.RESTR>
0

>  <SCORE.RESTR.CAVITY>
0

>  <SCORE.RESTR.norm>
0

>  <SCORE.SYSTEM>
0

>  <SCORE.SYSTEM.CONST>
0

>  <SCORE.SYSTEM.DIHEDRAL>
0

>  <SCORE.SYSTEM.SOLV>
0

>  <SCORE.SYSTEM.norm>
0

>  <SCORE.heavy>
40

>  <SCORE.norm>
-0.230124

>  <RMSD>
8.215

$$$$
ligand
 OpenBabel11021811513D
libRbt.so/2013.1/901 2013/11/27
 40 42  0  0  0  0  0  0  0  0999 V2000
   -4.1708   -9.8164   17.0694 C   0  0  2  0  0  0  0  0  0  0  0  0
   -3.0734   -9.7935   16.1430 O   0  0  0  0  0  0  0  0  0  0  0  0
   -4.2074  -11.1829   17.8508 C   0  0  1  0  0  0  0  0  0  0  0  0
   -4.5180  -12.3766   16.9015 C   0  0  2  0  0  0  0  0  0  0  0  0
   -5.9105  -12.1124   16.2462 C   0  0  2  0  0  0  0  0  0  0  0  0
   -6.2440  -13.2154   15.3763 O   0  0  0  0  0  0  0  0  0  0  0  0
   -5.8320  -10.7504   15.4274 C   0  0  2  0  0  0  0  0  0  0  0  0
   -5.4741   -9.6205   16.3576 O   0  0  0  0  0  0  0  0  0  0  0  0
   -7.1544  -10.3919   14.7634 C   0  0  0  0  0  0  0  0  0  0  0  0
   -8.2629  -10.2923   15.7644 N   0  0  0  0  0  0  0  0  0  0  0  0
    1.0674   -8.4100   16.6617 C   0  0  2  0  0  0  0  0  0  0  0  0
    2.4300   -8.3521   17.1377 N   0  0  0  0  0  0  0  0  0  0  0  0
    0.0734   -8.2807   17.8856 C   0  0  0  0  0  0  0  0  0  0  0  0
   -1.4355   -8.3478   17.3761 C   0  0  2  0  0  0  0  0  0  0  0  0
   -2.3681   -8.2097   18.5253 N   0  0  0  0  0  0  0  0  0  0  0  0
   -1.6685   -9.7292   16.6052 C   0  0  2  0  0  0  0  0  0  0  0  0
   -0.6492   -9.8123   15.3902 C   0  0  2  0  0  0  0  0  0  0  0  0
   -0.8523  -11.0429   14.6920 O   0  0  0  0  0  0  0  0  0  0  0  0
    0.8410   -9.7406   15.9092 C   0  0  1  0  0  0  0  0  0  0  0  0
    1.7573   -9.7965   14.7877 O   0  0  0  0  0  0  0  0  0  0  0  0
    3.0065  -10.4000   14.8020 C   0  0  2  0  0  0  0  0  0  0  0  0
    3.6857  -10.1118   13.4161 C   0  0  2  0  0  0  0  0  0  0  0  0
    3.7662   -8.7385   13.2094 O   0  0  0  0  0  0  0  0  0  0  0  0
    2.9196  -10.8276   12.2235 C   0  0  1  0  0  0  0  0  0  0  0  0
    3.5900  -10.5504   10.9156 N   0  0  0  0  0  0  0  0  0  0  0  0
    2.8669  -12.3903   12.5175 C   0  0  2  0  0  0  0  0  0  0  0  0
    2.1942  -13.0846   11.4597 O   0  0  0  0  0  0  0  0  0  0  0  0
    2.1434  -12.6047   13.9030 C   0  0  2  0  0  0  0  0  0  0  0  0
    2.8737  -11.8641   15.0151 O   0  0  0  0  0  0  0  0  0  0  0  0
    2.0734  -14.0702   14.2606 C   0  0  0  0  0  0  0  0  0  0  0  0
    3.3726  -14.6536   14.4716 O   0  0  0  0  0  0  0  0  0  0  0  0
   -2.9202  -11.3684   18.5086 O   0  0  0  0  0  0  0  0  0  0  0  0
   -4.5503  -13.5376   17.6354 O   0  0  0  0  0  0  0  0  0  0  0  0
    2.9331   -9.4318   17.9550 C   0  0  0  0  0  0  0  0  0  0  0  0
    2.1239  -10.1632   18.5994 O   0  0  0  0  0  0  0  0  0  0  0  0
    4.4768   -9.6471   18.0108 C   0  0  2  0  0  0  0  0  0  0  0  0
    5.0252   -7.7432   21.3495 N   0  0  0  0  0  0  0  0  0  0  0  0
    5.1383   -8.6825   19.0430 C   0  0  0  0  0  0  0  0  0  0  0  0
    4.6005   -8.8608   20.4727 C   0  0  0  0  0  0  0  0  0  0  0  0
    5.0468   -9.3973   16.9014 O   0  0  0  0  0  0  0  0  0  0  0  0
  1  2  1  6  0  0  0
  1  3  1  0  0  0  0
  1  8  1  0  0  0  0
  3  4  1  0  0  0  0
  3 32  1  6  0  0  0
  4  5  1  0  0  0  0
  4 33  1  1  0  0  0
  5  6  1  6  0  0  0
  5  7  1  0  0  0  0
  7  8  1  0  0  0  0
  7  9  1  1  0  0  0
  9 10  1  0  0  0  0
 11 12  1  1  0  0  0
 11 13  1  0  0  0  0
 11 19  1  0  0  0  0
 12 34  1  0  0  0  0
 13 14  1  0  0  0  0
 14 15  1  1  0  0  0
 14 16  1  0  0  0  0
 16  2  1  6  0  0  0
 16 17  1  0  0  0  0
 17 18  1  1  0  0  0
 17 19  1  0  0  0  0
 19 20  1  6  0  0  0
 21 20  1  6  0  0  0
 21 22  1  0  0  0  0
 21 29  1  0  0  0  0
 22 23  1  6  0  0  0
 22 24  1  0  0  0  0
 24 25  1  6  0  0  0
 24 26  1  0  0  0  0
 26 27  1  6  0  0  0
 26 28  1  0  0  0  0
 28 29  1  0  0  0  0
 28 30  1  1  0  0  0
 30 31  1  0  0  0  0
 34 35  2  0  0  0  0
 36 34  1  6  0  0  0
 36 38  1  0  0  0  0
 36 40  1  0  0  0  0
 37 39  1  0  0  0  0
 38 39  1  0  0  0  0
M  END
>  <CHROM.1>
-69.46225901,-63.66902473,57.27835454,67.14990394,94.01265895,-175.37461773
64.56056689,82.49846243,59.26217035,-167.44621710,-0.03591233,-10.52275052
16.02422961,3.12977321,-0.11070818,-2.09033439

>  <Name>
ligand

>  <RI>
0

>  <Rbt.Current_Directory>
/home/itssahil/PROJECTS/Mol_Feturizer/New_Systems/rnas/4P20

>  <Rbt.Executable>
rbdock ($Id: //depot/dev/client3/rdock/2013.1/src/exe/rbdock.cxx#4 $)

>  <Rbt.Library>
libRbt.so (2013.1, Build901 2013/11/27)

>  <Rbt.Parameter_File>
/export/apps/rDock/src/rDock_2013.1_src/data/scripts/dock_solv.prm

>  <Rbt.Receptor>
prm/pocket_docking_3.prm

>  <SCORE>
-7.81197

>  <SCORE.INTER>
0.104843

>  <SCORE.INTER.CONST>
1

>  <SCORE.INTER.POLAR>
0

>  <SCORE.INTER.ROT>
10

>  <SCORE.INTER.SOLV>
16.4964

>  <SCORE.INTER.VDW>
-15.6956

>  <SCORE.INTER.norm>
0.00262109

>  <SCORE.INTRA>
-7.92604

>  <SCORE.INTRA.DIHEDRAL>
-21.2648

>  <SCORE.INTRA.DIHEDRAL.0>
28.2802

>  <SCORE.INTRA.POLAR>
0

>  <SCORE.INTRA.POLAR.0>
0

>  <SCORE.INTRA.REPUL>
0

>  <SCORE.INTRA.REPUL.0>
0

>  <SCORE.INTRA.SOLV>
3.2867

>  <SCORE.INTRA.SOLV.lig_0>
-101.981

>  <SCORE.INTRA.VDW>
1.06303

>  <SCORE.INTRA.VDW.0>
-5.72964

>  <SCORE.INTRA.norm>
-0.198151

>  <SCORE.RESTR>
0.00922565

>  <SCORE.RESTR.CAVITY>
0.00922565

>  <SCORE.RESTR.norm>
0.000230641

>  <SCORE.SYSTEM>
0

>  <SCORE.SYSTEM.CONST>
0

>  <SCORE.SYSTEM.DIHEDRAL>
0

>  <SCORE.SYSTEM.SOLV>
0

>  <SCORE.SYSTEM.norm>
0

>  <SCORE.heavy>
40

>  <SCORE.norm>
-0.195299

>  <RMSD>
8.218

$$$$
ligand
 OpenBabel11021811513D
libRbt.so/2013.1/901 2013/11/27
 40 42  0  0  0  0  0  0  0  0999 V2000
   -3.2252   -9.9455   15.8253 C   0  0  2  0  0  0  0  0  0  0  0  0
   -2.5046   -8.9949   16.6254 O   0  0  0  0  0  0  0  0  0  0  0  0
   -4.7711   -9.6505   15.8731 C   0  0  1  0  0  0  0  0  0  0  0  0
   -5.3522   -9.8731   17.2999 C   0  0  2  0  0  0  0  0  0  0  0  0
   -5.0924  -11.3622   17.6914 C   0  0  2  0  0  0  0  0  0  0  0  0
   -5.6428  -11.6124   19.0025 O   0  0  0  0  0  0  0  0  0  0  0  0
   -3.5224  -11.6203   17.6787 C   0  0  2  0  0  0  0  0  0  0  0  0
   -2.9751  -11.3431   16.3026 O   0  0  0  0  0  0  0  0  0  0  0  0
   -3.1647  -13.0580   18.0298 C   0  0  0  0  0  0  0  0  0  0  0  0
   -3.5720  -14.0062   16.9456 N   0  0  0  0  0  0  0  0  0  0  0  0
    1.7934   -8.3296   17.2693 C   0  0  2  0  0  0  0  0  0  0  0  0
    3.1561   -8.5650   17.6862 N   0  0  0  0  0  0  0  0  0  0  0  0
    0.8407   -8.3610   18.5319 C   0  0  0  0  0  0  0  0  0  0  0  0
   -0.6686   -8.1074   18.0865 C   0  0  2  0  0  0  0  0  0  0  0  0
   -1.5601   -8.1209   19.2759 N   0  0  0  0  0  0  0  0  0  0  0  0
   -1.0991   -9.2265   17.0286 C   0  0  2  0  0  0  0  0  0  0  0  0
   -0.1150   -9.1560   15.7843 C   0  0  2  0  0  0  0  0  0  0  0  0
   -0.4942  -10.1508   14.8305 O   0  0  0  0  0  0  0  0  0  0  0  0
    1.3766   -9.4049   16.2407 C   0  0  1  0  0  0  0  0  0  0  0  0
    2.2636   -9.3166   15.0979 O   0  0  0  0  0  0  0  0  0  0  0  0
    3.4535  -10.0147   14.9503 C   0  0  2  0  0  0  0  0  0  0  0  0
    4.3033   -9.2733   13.8580 C   0  0  2  0  0  0  0  0  0  0  0  0
    4.5114   -7.9525   14.2419 O   0  0  0  0  0  0  0  0  0  0  0  0
    3.6226   -9.3541   12.4257 C   0  0  1  0  0  0  0  0  0  0  0  0
    4.4541   -8.6530   11.3991 N   0  0  0  0  0  0  0  0  0  0  0  0
    3.4178  -10.8852   12.0450 C   0  0  2  0  0  0  0  0  0  0  0  0
    2.8162  -11.0117   10.7506 O   0  0  0  0  0  0  0  0  0  0  0  0
    2.5298  -11.5544   13.1642 C   0  0  2  0  0  0  0  0  0  0  0  0
    3.1858  -11.4145   14.5312 O   0  0  0  0  0  0  0  0  0  0  0  0
    2.3082  -13.0210   12.8803 C   0  0  0  0  0  0  0  0  0  0  0  0
    3.5310  -13.7808   12.8938 O   0  0  0  0  0  0  0  0  0  0  0  0
   -4.9886   -8.2773   15.4362 O   0  0  0  0  0  0  0  0  0  0  0  0
   -6.7014   -9.6147   17.2807 O   0  0  0  0  0  0  0  0  0  0  0  0
    3.7455   -7.6956   18.6782 C   0  0  0  0  0  0  0  0  0  0  0  0
    3.2787   -6.5306   18.8510 O   0  0  0  0  0  0  0  0  0  0  0  0
    4.9536   -8.2400   19.5007 C   0  0  2  0  0  0  0  0  0  0  0  0
    4.6251   -6.5132   22.9752 N   0  0  0  0  0  0  0  0  0  0  0  0
    5.2802   -7.3001   20.7021 C   0  0  0  0  0  0  0  0  0  0  0  0
    4.2337   -7.3658   21.8271 C   0  0  0  0  0  0  0  0  0  0  0  0
    6.0247   -8.2994   18.8172 O   0  0  0  0  0  0  0  0  0  0  0  0
  1  2  1  1  0  0  0
  1  3  1  0  0  0  0
  1  8  1  0  0  0  0
  3  4  1  0  0  0  0
  3 32  1  1  0  0  0
  4  5  1  0  0  0  0
  4 33  1  6  0  0  0
  5  6  1  1  0  0  0
  5  7  1  0  0  0  0
  7  8  1  0  0  0  0
  7  9  1  6  0  0  0
  9 10  1  0  0  0  0
 11 12  1  1  0  0  0
 11 13  1  0  0  0  0
 11 19  1  0  0  0  0
 12 34  1  0  0  0  0
 13 14  1  0  0  0  0
 14 15  1  1  0  0  0
 14 16  1  0  0  0  0
 16  2  1  6  0  0  0
 16 17  1  0  0  0  0
 17 18  1  6  0  0  0
 17 19  1  0  0  0  0
 19 20  1  6  0  0  0
 21 20  1  6  0  0  0
 21 22  1  0  0  0  0
 21 29  1  0  0  0  0
 22 23  1  1  0  0  0
 22 24  1  0  0  0  0
 24 25  1  6  0  0  0
 24 26  1  0  0  0  0
 26 27  1  6  0  0  0
 26 28  1  0  0  0  0
 28 29  1  0  0  0  0
 28 30  1  6  0  0  0
 30 31  1  0  0  0  0
 34 35  2  0  0  0  0
 36 34  1  6  0  0  0
 36 38  1  0  0  0  0
 36 40  1  0  0  0  0
 37 39  1  0  0  0  0
 38 39  1  0  0  0  0
M  END
>  <CHROM.1>
164.69014281,-171.34461957,69.50976602,-56.68512916,90.46195242,-160.77585132
63.26664513,-168.73254073,71.79859660,176.91087175,0.59012392,-9.68767975
16.43279471,-3.13982313,0.21879330,1.13456266

>  <Name>
ligand

>  <RI>
0

>  <Rbt.Current_Directory>
/home/itssahil/PROJECTS/Mol_Feturizer/New_Systems/rnas/4P20

>  <Rbt.Executable>
rbdock ($Id: //depot/dev/client3/rdock/2013.1/src/exe/rbdock.cxx#4 $)

>  <Rbt.Library>
libRbt.so (2013.1, Build901 2013/11/27)

>  <Rbt.Parameter_File>
/export/apps/rDock/src/rDock_2013.1_src/data/scripts/dock_solv.prm

>  <Rbt.Receptor>
prm/pocket_docking_3.prm

>  <SCORE>
-10.3285

>  <SCORE.INTER>
-1.83563

>  <SCORE.INTER.CONST>
1

>  <SCORE.INTER.POLAR>
0

>  <SCORE.INTER.ROT>
10

>  <SCORE.INTER.SOLV>
22.4606

>  <SCORE.INTER.VDW>
-18.9773

>  <SCORE.INTER.norm>
-0.0458906

>  <SCORE.INTRA>
-8.49283

>  <SCORE.INTRA.DIHEDRAL>
-19.6228

>  <SCORE.INTRA.DIHEDRAL.0>
28.2802

>  <SCORE.INTRA.POLAR>
0

>  <SCORE.INTRA.POLAR.0>
0

>  <SCORE.INTRA.REPUL>
0

>  <SCORE.INTRA.REPUL.0>
0

>  <SCORE.INTRA.SOLV>
-0.795684

>  <SCORE.INTRA.SOLV.lig_0>
-101.981

>  <SCORE.INTRA.VDW>
1.71643

>  <SCORE.INTRA.VDW.0>
-5.72964

>  <SCORE.INTRA.norm>
-0.212321

>  <SCORE.RESTR>
0

>  <SCORE.RESTR.CAVITY>
0

>  <SCORE.RESTR.norm>
0

>  <SCORE.SYSTEM>
0

>  <SCORE.SYSTEM.CONST>
0

>  <SCORE.SYSTEM.DIHEDRAL>
0

>  <SCORE.SYSTEM.SOLV>
0

>  <SCORE.SYSTEM.norm>
0

>  <SCORE.heavy>
40

>  <SCORE.norm>
-0.258211

>  <RMSD>
8.225

$$$$
ligand
 OpenBabel11021811513D
libRbt.so/2013.1/901 2013/11/27
 40 42  0  0  0  0  0  0  0  0999 V2000
   -4.0544   -9.4016   17.1621 C   0  0  2  0  0  0  0  0  0  0  0  0
   -2.9261   -9.1440   16.3114 O   0  0  0  0  0  0  0  0  0  0  0  0
   -4.5767  -10.8730   16.9586 C   0  0  1  0  0  0  0  0  0  0  0  0
   -5.1541  -11.0824   15.5283 C   0  0  2  0  0  0  0  0  0  0  0  0
   -6.3354  -10.0784   15.3414 C   0  0  2  0  0  0  0  0  0  0  0  0
   -6.9135  -10.2626   14.0313 O   0  0  0  0  0  0  0  0  0  0  0  0
   -5.7714   -8.5999   15.5076 C   0  0  2  0  0  0  0  0  0  0  0  0
   -5.1671   -8.4399   16.8785 O   0  0  0  0  0  0  0  0  0  0  0  0
   -6.8566   -7.5418   15.3622 C   0  0  0  0  0  0  0  0  0  0  0  0
   -6.3438   -6.1779   15.7050 N   0  0  0  0  0  0  0  0  0  0  0  0
    1.4310   -9.4351   16.8220 C   0  0  2  0  0  0  0  0  0  0  0  0
    2.7274   -9.9913   17.1326 N   0  0  0  0  0  0  0  0  0  0  0  0
    0.5197   -9.4628   18.1149 C   0  0  0  0  0  0  0  0  0  0  0  0
   -0.9172   -8.8561   17.7861 C   0  0  2  0  0  0  0  0  0  0  0  0
   -1.7666   -8.8677   19.0059 N   0  0  0  0  0  0  0  0  0  0  0  0
   -1.5874   -9.7028   16.6068 C   0  0  2  0  0  0  0  0  0  0  0  0
   -0.6370   -9.6460   15.3358 C   0  0  2  0  0  0  0  0  0  0  0  0
   -1.2297  -10.3974   14.2740 O   0  0  0  0  0  0  0  0  0  0  0  0
    0.7837  -10.2464   15.6770 C   0  0  1  0  0  0  0  0  0  0  0  0
    1.6448  -10.1681   14.5138 O   0  0  0  0  0  0  0  0  0  0  0  0
    2.8618  -10.8188   14.3717 C   0  0  2  0  0  0  0  0  0  0  0  0
    3.6154  -10.1524   13.1662 C   0  0  2  0  0  0  0  0  0  0  0  0
    3.7705   -8.7907   13.4047 O   0  0  0  0  0  0  0  0  0  0  0  0
    2.8701  -10.4123   11.7884 C   0  0  1  0  0  0  0  0  0  0  0  0
    3.6107   -9.7802   10.6532 N   0  0  0  0  0  0  0  0  0  0  0  0
    2.7297  -11.9825   11.5739 C   0  0  2  0  0  0  0  0  0  0  0  0
    2.0726  -12.2699   10.3333 O   0  0  0  0  0  0  0  0  0  0  0  0
    1.9356  -12.5763   12.8010 C   0  0  2  0  0  0  0  0  0  0  0  0
    2.6499  -12.2654   14.1093 O   0  0  0  0  0  0  0  0  0  0  0  0
    1.7798  -14.0732   12.6771 C   0  0  0  0  0  0  0  0  0  0  0  0
    0.9533  -14.6339   13.7141 O   0  0  0  0  0  0  0  0  0  0  0  0
   -3.4713  -11.7895   17.2077 O   0  0  0  0  0  0  0  0  0  0  0  0
   -5.6051  -12.3748   15.4107 O   0  0  0  0  0  0  0  0  0  0  0  0
    2.8304  -11.3989   17.4405 C   0  0  0  0  0  0  0  0  0  0  0  0
    1.8136  -12.0274   17.8603 O   0  0  0  0  0  0  0  0  0  0  0  0
    4.2145  -12.0901   17.2432 C   0  0  2  0  0  0  0  0  0  0  0  0
    7.7361  -11.2444   18.6724 N   0  0  0  0  0  0  0  0  0  0  0  0
    5.3420  -11.3030   17.9800 C   0  0  0  0  0  0  0  0  0  0  0  0
    6.7181  -11.9833   17.8878 C   0  0  0  0  0  0  0  0  0  0  0  0
    4.5724  -12.1307   16.0232 O   0  0  0  0  0  0  0  0  0  0  0  0
  1  2  1  6  0  0  0
  1  3  1  0  0  0  0
  1  8  1  0  0  0  0
  3  4  1  0  0  0  0
  3 32  1  6  0  0  0
  4  5  1  0  0  0  0
  4 33  1  1  0  0  0
  5  6  1  6  0  0  0
  5  7  1  0  0  0  0
  7  8  1  0  0  0  0
  7  9  1  1  0  0  0
  9 10  1  0  0  0  0
 11 12  1  1  0  0  0
 11 13  1  0  0  0  0
 11 19  1  0  0  0  0
 12 34  1  0  0  0  0
 13 14  1  0  0  0  0
 14 15  1  1  0  0  0
 14 16  1  0  0  0  0
 16  2  1  6  0  0  0
 16 17  1  0  0  0  0
 17 18  1  6  0  0  0
 17 19  1  0  0  0  0
 19 20  1  6  0  0  0
 21 20  1  6  0  0  0
 21 22  1  0  0  0  0
 21 29  1  0  0  0  0
 22 23  1  1  0  0  0
 22 24  1  0  0  0  0
 24 25  1  6  0  0  0
 24 26  1  0  0  0  0
 26 27  1  6  0  0  0
 26 28  1  0  0  0  0
 28 29  1  0  0  0  0
 28 30  1  6  0  0  0
 30 31  1  0  0  0  0
 34 35  2  0  0  0  0
 36 34  1  6  0  0  0
 36 38  1  0  0  0  0
 36 40  1  0  0  0  0
 37 39  1  0  0  0  0
 38 39  1  0  0  0  0
M  END
>  <CHROM.1>
-74.61931074,-76.80565547,172.25267174,67.72050111,72.79992498,-164.65549414
-174.56047802,52.08058352,176.68057465,-176.43780560,-0.02543512,-10.59012119
15.43477061,-3.01123792,0.19074410,-1.82012211

>  <Name>
ligand

>  <RI>
0

>  <Rbt.Current_Directory>
/home/itssahil/PROJECTS/Mol_Feturizer/New_Systems/rnas/4P20

>  <Rbt.Executable>
rbdock ($Id: //depot/dev/client3/rdock/2013.1/src/exe/rbdock.cxx#4 $)

>  <Rbt.Library>
libRbt.so (2013.1, Build901 2013/11/27)

>  <Rbt.Parameter_File>
/export/apps/rDock/src/rDock_2013.1_src/data/scripts/dock_solv.prm

>  <Rbt.Receptor>
prm/pocket_docking_6.prm

>  <SCORE>
-9.75251

>  <SCORE.INTER>
-0.922065

>  <SCORE.INTER.CONST>
1

>  <SCORE.INTER.POLAR>
0

>  <SCORE.INTER.ROT>
10

>  <SCORE.INTER.SOLV>
22.8632

>  <SCORE.INTER.VDW>
-18.5024

>  <SCORE.INTER.norm>
-0.0230516

>  <SCORE.INTRA>
-8.83045

>  <SCORE.INTRA.DIHEDRAL>
-22.7433

>  <SCORE.INTRA.DIHEDRAL.0>
28.2802

>  <SCORE.INTRA.POLAR>
0

>  <SCORE.INTRA.POLAR.0>
0

>  <SCORE.INTRA.REPUL>
0

>  <SCORE.INTRA.REPUL.0>
0

>  <SCORE.INTRA.SOLV>
1.02665

>  <SCORE.INTRA.SOLV.lig_0>
-101.981

>  <SCORE.INTRA.VDW>
2.02786

>  <SCORE.INTRA.VDW.0>
-5.72964

>  <SCORE.INTRA.norm>
-0.220761

>  <SCORE.RESTR>
0

>  <SCORE.RESTR.CAVITY>
0

>  <SCORE.RESTR.norm>
0

>  <SCORE.SYSTEM>
0

>  <SCORE.SYSTEM.CONST>
0

>  <SCORE.SYSTEM.DIHEDRAL>
0

>  <SCORE.SYSTEM.SOLV>
0

>  <SCORE.SYSTEM.norm>
0

>  <SCORE.heavy>
40

>  <SCORE.norm>
-0.243813

>  <RMSD>
8.227

$$$$
ligand
 OpenBabel11021811513D
libRbt.so/2013.1/901 2013/11/27
 40 42  0  0  0  0  0  0  0  0999 V2000
   -6.2190   -8.1517   15.9472 C   0  0  2  0  0  0  0  0  0  0  0  0
   -5.1463   -7.5496   16.6886 O   0  0  0  0  0  0  0  0  0  0  0  0
   -7.2499   -7.0579   15.4780 C   0  0  1  0  0  0  0  0  0  0  0  0
   -7.9775   -6.4013   16.6872 C   0  0  2  0  0  0  0  0  0  0  0  0
   -8.7300   -7.5311   17.4591 C   0  0  2  0  0  0  0  0  0  0  0  0
   -9.4395   -6.9531   18.5758 O   0  0  0  0  0  0  0  0  0  0  0  0
   -7.6609   -8.5978   17.9597 C   0  0  2  0  0  0  0  0  0  0  0  0
   -6.9308   -9.1767   16.7756 O   0  0  0  0  0  0  0  0  0  0  0  0
   -8.3012   -9.7571   18.7109 C   0  0  0  0  0  0  0  0  0  0  0  0
   -7.2727  -10.7230   19.2110 N   0  0  0  0  0  0  0  0  0  0  0  0
   -1.1989   -9.2579   17.5999 C   0  0  2  0  0  0  0  0  0  0  0  0
   -0.1785  -10.0483   18.2482 N   0  0  0  0  0  0  0  0  0  0  0  0
   -1.8509   -8.2708   18.6503 C   0  0  0  0  0  0  0  0  0  0  0  0
   -2.9833   -7.3945   17.9499 C   0  0  2  0  0  0  0  0  0  0  0  0
   -3.5834   -6.4562   18.9343 N   0  0  0  0  0  0  0  0  0  0  0  0
   -4.0904   -8.3666   17.3285 C   0  0  2  0  0  0  0  0  0  0  0  0
   -3.3885   -9.3359   16.2847 C   0  0  2  0  0  0  0  0  0  0  0  0
   -4.3714  -10.2070   15.7204 O   0  0  0  0  0  0  0  0  0  0  0  0
   -2.2666  -10.1947   16.9912 C   0  0  1  0  0  0  0  0  0  0  0  0
   -1.6222  -11.0581   16.0218 O   0  0  0  0  0  0  0  0  0  0  0  0
   -2.2394  -12.0933   15.3345 C   0  0  2  0  0  0  0  0  0  0  0  0
   -2.6931  -13.1590   16.3944 C   0  0  2  0  0  0  0  0  0  0  0  0
   -3.5402  -12.5650   17.3243 O   0  0  0  0  0  0  0  0  0  0  0  0
   -1.4522  -13.8480   17.1066 C   0  0  1  0  0  0  0  0  0  0  0  0
   -1.9064  -14.8674   18.1022 N   0  0  0  0  0  0  0  0  0  0  0  0
   -0.5292  -14.5102   15.9928 C   0  0  2  0  0  0  0  0  0  0  0  0
    0.6017  -15.1582   16.5884 O   0  0  0  0  0  0  0  0  0  0  0  0
   -0.0850  -13.3786   14.9873 C   0  0  2  0  0  0  0  0  0  0  0  0
   -1.2982  -12.7043   14.3611 O   0  0  0  0  0  0  0  0  0  0  0  0
    0.7820  -13.9382   13.8847 C   0  0  0  0  0  0  0  0  0  0  0  0
    1.2326  -12.9270   12.9644 O   0  0  0  0  0  0  0  0  0  0  0  0
   -6.5315   -6.0550   14.7020 O   0  0  0  0  0  0  0  0  0  0  0  0
   -8.8708   -5.4674   16.2209 O   0  0  0  0  0  0  0  0  0  0  0  0
    1.0692   -9.4184   18.6133 C   0  0  0  0  0  0  0  0  0  0  0  0
    1.4434   -8.3679   18.0122 O   0  0  0  0  0  0  0  0  0  0  0  0
    1.9147  -10.0759   19.7470 C   0  0  2  0  0  0  0  0  0  0  0  0
   -0.7333  -10.6970   22.5344 N   0  0  0  0  0  0  0  0  0  0  0  0
    1.1867   -9.9658   21.1223 C   0  0  0  0  0  0  0  0  0  0  0  0
   -0.0858  -10.8253   21.2068 C   0  0  0  0  0  0  0  0  0  0  0  0
    3.0393   -9.5053   19.9133 O   0  0  0  0  0  0  0  0  0  0  0  0
  1  2  1  1  0  0  0
  1  3  1  0  0  0  0
  1  8  1  0  0  0  0
  3  4  1  0  0  0  0
  3 32  1  1  0  0  0
  4  5  1  0  0  0  0
  4 33  1  6  0  0  0
  5  6  1  1  0  0  0
  5  7  1  0  0  0  0
  7  8  1  0  0  0  0
  7  9  1  6  0  0  0
  9 10  1  0  0  0  0
 11 12  1  1  0  0  0
 11 13  1  0  0  0  0
 11 19  1  0  0  0  0
 12 34  1  0  0  0  0
 13 14  1  0  0  0  0
 14 15  1  1  0  0  0
 14 16  1  0  0  0  0
 16  2  1  6  0  0  0
 16 17  1  0  0  0  0
 17 18  1  1  0  0  0
 17 19  1  0  0  0  0
 19 20  1  6  0  0  0
 21 20  1  1  0  0  0
 21 22  1  0  0  0  0
 21 29  1  0  0  0  0
 22 23  1  1  0  0  0
 22 24  1  0  0  0  0
 24 25  1  1  0  0  0
 24 26  1  0  0  0  0
 26 27  1  1  0  0  0
 26 28  1  0  0  0  0
 28 29  1  0  0  0  0
 28 30  1  6  0  0  0
 30 31  1  0  0  0  0
 34 35  2  0  0  0  0
 36 34  1  6  0  0  0
 36 38  1  0  0  0  0
 36 40  1  0  0  0  0
 37 39  1  0  0  0  0
 38 39  1  0  0  0  0
M  END
>  <CHROM.1>
175.56227145,174.73363308,-178.09801385,-72.61948865,175.39881511,-63.32063235
-178.62983606,-67.39609040,68.49357411,179.46196500,-2.98644054,-10.04485942
17.27834301,2.77771416,-0.41273690,0.77302731

>  <Name>
ligand

>  <RI>
0

>  <Rbt.Current_Directory>
/home/itssahil/PROJECTS/Mol_Feturizer/New_Systems/rnas/4P20

>  <Rbt.Executable>
rbdock ($Id: //depot/dev/client3/rdock/2013.1/src/exe/rbdock.cxx#4 $)

>  <Rbt.Library>
libRbt.so (2013.1, Build901 2013/11/27)

>  <Rbt.Parameter_File>
/export/apps/rDock/src/rDock_2013.1_src/data/scripts/dock_solv.prm

>  <Rbt.Receptor>
prm/pocket_docking_6.prm

>  <SCORE>
-14.7209

>  <SCORE.INTER>
-2.74929

>  <SCORE.INTER.CONST>
1

>  <SCORE.INTER.POLAR>
0

>  <SCORE.INTER.ROT>
10

>  <SCORE.INTER.SOLV>
17.5041

>  <SCORE.INTER.VDW>
-17.9342

>  <SCORE.INTER.norm>
-0.0687324

>  <SCORE.INTRA>
-11.9716

>  <SCORE.INTRA.DIHEDRAL>
-26.6176

>  <SCORE.INTRA.DIHEDRAL.0>
28.2802

>  <SCORE.INTRA.POLAR>
0

>  <SCORE.INTRA.POLAR.0>
0

>  <SCORE.INTRA.REPUL>
0

>  <SCORE.INTRA.REPUL.0>
0

>  <SCORE.INTRA.SOLV>
-1.9019

>  <SCORE.INTRA.SOLV.lig_0>
-101.981

>  <SCORE.INTRA.VDW>
2.28814

>  <SCORE.INTRA.VDW.0>
-5.72964

>  <SCORE.INTRA.norm>
-0.299291

>  <SCORE.RESTR>
0

>  <SCORE.RESTR.CAVITY>
0

>  <SCORE.RESTR.norm>
0

>  <SCORE.SYSTEM>
0

>  <SCORE.SYSTEM.CONST>
0

>  <SCORE.SYSTEM.DIHEDRAL>
0

>  <SCORE.SYSTEM.SOLV>
0

>  <SCORE.SYSTEM.norm>
0

>  <SCORE.heavy>
40

>  <SCORE.norm>
-0.368023

>  <RMSD>
8.228

$$$$
ligand
 OpenBabel11021811513D
libRbt.so/2013.1/901 2013/11/27
 40 42  0  0  0  0  0  0  0  0999 V2000
   -4.7702  -10.0069   17.5140 C   0  0  2  0  0  0  0  0  0  0  0  0
   -3.8220   -8.9303   17.4459 O   0  0  0  0  0  0  0  0  0  0  0  0
   -5.2699  -10.3968   16.0726 C   0  0  1  0  0  0  0  0  0  0  0  0
   -6.0865   -9.2440   15.4189 C   0  0  2  0  0  0  0  0  0  0  0  0
   -7.3158   -8.9533   16.3368 C   0  0  2  0  0  0  0  0  0  0  0  0
   -8.1125   -7.9038   15.7467 O   0  0  0  0  0  0  0  0  0  0  0  0
   -6.7822   -8.5190   17.7715 C   0  0  2  0  0  0  0  0  0  0  0  0
   -5.9481   -9.6281   18.3582 O   0  0  0  0  0  0  0  0  0  0  0  0
   -7.9114   -8.2315   18.7515 C   0  0  0  0  0  0  0  0  0  0  0  0
   -8.6902   -7.0172   18.3519 N   0  0  0  0  0  0  0  0  0  0  0  0
    0.4353   -8.4694   18.4423 C   0  0  2  0  0  0  0  0  0  0  0  0
    1.6610   -8.4918   19.2062 N   0  0  0  0  0  0  0  0  0  0  0  0
   -0.6087   -7.5106   19.1449 C   0  0  0  0  0  0  0  0  0  0  0  0
   -1.9693   -7.4793   18.3152 C   0  0  2  0  0  0  0  0  0  0  0  0
   -2.9432   -6.5653   18.9676 N   0  0  0  0  0  0  0  0  0  0  0  0
   -2.5528   -8.9642   18.2072 C   0  0  2  0  0  0  0  0  0  0  0  0
   -1.4709   -9.8859   17.4989 C   0  0  2  0  0  0  0  0  0  0  0  0
   -1.9850  -11.2155   17.3942 O   0  0  0  0  0  0  0  0  0  0  0  0
   -0.1273   -9.9043   18.3293 C   0  0  1  0  0  0  0  0  0  0  0  0
    0.8557  -10.7322   17.6592 O   0  0  0  0  0  0  0  0  0  0  0  0
    1.8235  -10.2735   16.7773 C   0  0  2  0  0  0  0  0  0  0  0  0
    1.1155   -9.9915   15.4046 C   0  0  2  0  0  0  0  0  0  0  0  0
    0.0890   -9.0704   15.5864 O   0  0  0  0  0  0  0  0  0  0  0  0
    0.5766  -11.3261   14.7337 C   0  0  1  0  0  0  0  0  0  0  0  0
   -0.0824  -11.0362   13.4228 N   0  0  0  0  0  0  0  0  0  0  0  0
    1.7958  -12.3314   14.5493 C   0  0  2  0  0  0  0  0  0  0  0  0
    1.3615  -13.5504   13.9336 O   0  0  0  0  0  0  0  0  0  0  0  0
    2.4337  -12.5944   15.9681 C   0  0  2  0  0  0  0  0  0  0  0  0
    2.8930  -11.2899   16.6051 O   0  0  0  0  0  0  0  0  0  0  0  0
    3.6158  -13.5290   15.8698 C   0  0  0  0  0  0  0  0  0  0  0  0
    4.2173  -13.8010   17.1492 O   0  0  0  0  0  0  0  0  0  0  0  0
   -4.1070  -10.7301   15.2598 O   0  0  0  0  0  0  0  0  0  0  0  0
   -6.5067   -9.6417   14.1728 O   0  0  0  0  0  0  0  0  0  0  0  0
    2.5662   -7.3700   19.1115 C   0  0  0  0  0  0  0  0  0  0  0  0
    2.5306   -6.6167   18.0935 O   0  0  0  0  0  0  0  0  0  0  0  0
    3.5664   -7.1378   20.2855 C   0  0  2  0  0  0  0  0  0  0  0  0
    5.0975   -7.8775   22.8526 N   0  0  0  0  0  0  0  0  0  0  0  0
    4.4879   -8.3801   20.4882 C   0  0  0  0  0  0  0  0  0  0  0  0
    5.6269   -8.1347   21.4919 C   0  0  0  0  0  0  0  0  0  0  0  0
    2.9806   -6.9658   21.4014 O   0  0  0  0  0  0  0  0  0  0  0  0
  1  2  1  6  0  0  0
  1  3  1  0  0  0  0
  1  8  1  0  0  0  0
  3  4  1  0  0  0  0
  3 32  1  6  0  0  0
  4  5  1  0  0  0  0
  4 33  1  6  0  0  0
  5  6  1  6  0  0  0
  5  7  1  0  0  0  0
  7  8  1  0  0  0  0
  7  9  1  1  0  0  0
  9 10  1  0  0  0  0
 11 12  1  1  0  0  0
 11 13  1  0  0  0  0
 11 19  1  0  0  0  0
 12 34  1  0  0  0  0
 13 14  1  0  0  0  0
 14 15  1  1  0  0  0
 14 16  1  0  0  0  0
 16  2  1  6  0  0  0
 16 17  1  0  0  0  0
 17 18  1  1  0  0  0
 17 19  1  0  0  0  0
 19 20  1  6  0  0  0
 21 20  1  1  0  0  0
 21 22  1  0  0  0  0
 21 29  1  0  0  0  0
 22 23  1  1  0  0  0
 22 24  1  0  0  0  0
 24 25  1  6  0  0  0
 24 26  1  0  0  0  0
 26 27  1  1  0  0  0
 26 28  1  0  0  0  0
 28 29  1  0  0  0  0
 28 30  1  6  0  0  0
 30 31  1  0  0  0  0
 34 35  2  0  0  0  0
 36 34  1  6  0  0  0
 36 38  1  0  0  0  0
 36 40  1  0  0  0  0
 37 39  1  0  0  0  0
 38 39  1  0  0  0  0
M  END
>  <CHROM.1>
-133.90186214,-161.36603507,-67.08521268,-76.65012819,-25.58979589,-76.78035191
-179.50909149,59.04151964,171.59905092,64.18147790,-0.94043627,-9.51697659
17.43164590,3.06146196,0.18971367,-2.31402879

>  <Name>
ligand

>  <RI>
0

>  <Rbt.Current_Directory>
/home/itssahil/PROJECTS/Mol_Feturizer/New_Systems/rnas/4P20

>  <Rbt.Executable>
rbdock ($Id: //depot/dev/client3/rdock/2013.1/src/exe/rbdock.cxx#4 $)

>  <Rbt.Library>
libRbt.so (2013.1, Build901 2013/11/27)

>  <Rbt.Parameter_File>
/export/apps/rDock/src/rDock_2013.1_src/data/scripts/dock_solv.prm

>  <Rbt.Receptor>
prm/pocket_docking_6.prm

>  <SCORE>
-0.992112

>  <SCORE.INTER>
1.74709

>  <SCORE.INTER.CONST>
1

>  <SCORE.INTER.POLAR>
0

>  <SCORE.INTER.ROT>
10

>  <SCORE.INTER.SOLV>
24.7401

>  <SCORE.INTER.VDW>
-17.3486

>  <SCORE.INTER.norm>
0.0436772

>  <SCORE.INTRA>
-2.7392

>  <SCORE.INTRA.DIHEDRAL>
-13.1636

>  <SCORE.INTRA.DIHEDRAL.0>
28.2802

>  <SCORE.INTRA.POLAR>
0

>  <SCORE.INTRA.POLAR.0>
0

>  <SCORE.INTRA.REPUL>
0

>  <SCORE.INTRA.REPUL.0>
0

>  <SCORE.INTRA.SOLV>
1.97558

>  <SCORE.INTRA.SOLV.lig_0>
-101.981

>  <SCORE.INTRA.VDW>
2.85481

>  <SCORE.INTRA.VDW.0>
-5.72964

>  <SCORE.INTRA.norm>
-0.06848

>  <SCORE.RESTR>
0

>  <SCORE.RESTR.CAVITY>
0

>  <SCORE.RESTR.norm>
0

>  <SCORE.SYSTEM>
0

>  <SCORE.SYSTEM.CONST>
0

>  <SCORE.SYSTEM.DIHEDRAL>
0

>  <SCORE.SYSTEM.SOLV>
0

>  <SCORE.SYSTEM.norm>
0

>  <SCORE.heavy>
40

>  <SCORE.norm>
-0.0248028

>  <RMSD>
8.257

$$$$
ligand
 OpenBabel11021811513D
libRbt.so/2013.1/901 2013/11/27
 40 42  0  0  0  0  0  0  0  0999 V2000
   -4.0288   -9.3829   18.0298 C   0  0  2  0  0  0  0  0  0  0  0  0
   -2.6381   -9.6575   17.7985 O   0  0  0  0  0  0  0  0  0  0  0  0
   -4.5289  -10.1153   19.3308 C   0  0  1  0  0  0  0  0  0  0  0  0
   -4.4944  -11.6627   19.1652 C   0  0  2  0  0  0  0  0  0  0  0  0
   -5.4248  -12.0329   17.9671 C   0  0  2  0  0  0  0  0  0  0  0  0
   -5.4376  -13.4670   17.8001 O   0  0  0  0  0  0  0  0  0  0  0  0
   -4.8712  -11.3165   16.6588 C   0  0  2  0  0  0  0  0  0  0  0  0
   -4.8608   -9.8240   16.8650 O   0  0  0  0  0  0  0  0  0  0  0  0
   -5.7267  -11.6005   15.4317 C   0  0  0  0  0  0  0  0  0  0  0  0
   -7.1155  -11.0665   15.5944 N   0  0  0  0  0  0  0  0  0  0  0  0
    0.9752   -7.7698   19.4448 C   0  0  2  0  0  0  0  0  0  0  0  0
    1.9751   -7.3561   20.4016 N   0  0  0  0  0  0  0  0  0  0  0  0
   -0.4345   -7.1903   19.8685 C   0  0  0  0  0  0  0  0  0  0  0  0
   -1.5500   -7.6429   18.8237 C   0  0  2  0  0  0  0  0  0  0  0  0
   -2.8708   -7.0840   19.2142 N   0  0  0  0  0  0  0  0  0  0  0  0
   -1.5937   -9.2402   18.7611 C   0  0  2  0  0  0  0  0  0  0  0  0
   -0.1595   -9.7722   18.3346 C   0  0  2  0  0  0  0  0  0  0  0  0
   -0.1893  -11.2000   18.2721 O   0  0  0  0  0  0  0  0  0  0  0  0
    0.9359   -9.3131   19.3760 C   0  0  1  0  0  0  0  0  0  0  0  0
    2.2408   -9.7885   18.9616 O   0  0  0  0  0  0  0  0  0  0  0  0
    2.5860  -11.1185   18.7694 C   0  0  2  0  0  0  0  0  0  0  0  0
    4.1356  -11.2405   18.9900 C   0  0  2  0  0  0  0  0  0  0  0  0
    4.4652  -10.7892   20.2640 O   0  0  0  0  0  0  0  0  0  0  0  0
    4.9535  -10.4596   17.8753 C   0  0  1  0  0  0  0  0  0  0  0  0
    6.4259  -10.5993   18.0971 N   0  0  0  0  0  0  0  0  0  0  0  0
    4.5356  -11.0245   16.4478 C   0  0  2  0  0  0  0  0  0  0  0  0
    5.2585  -10.3581   15.4053 O   0  0  0  0  0  0  0  0  0  0  0  0
    2.9778  -10.8376   16.2831 C   0  0  2  0  0  0  0  0  0  0  0  0
    2.2261  -11.5553   17.3960 O   0  0  0  0  0  0  0  0  0  0  0  0
    2.5020  -11.3720   14.9533 C   0  0  0  0  0  0  0  0  0  0  0  0
    3.0315  -10.6343   13.8361 O   0  0  0  0  0  0  0  0  0  0  0  0
   -3.6865   -9.6969   20.4440 O   0  0  0  0  0  0  0  0  0  0  0  0
   -4.9512  -12.2484   20.3210 O   0  0  0  0  0  0  0  0  0  0  0  0
    3.0752   -6.5336   19.9541 C   0  0  0  0  0  0  0  0  0  0  0  0
    3.4087   -6.5392   18.7320 O   0  0  0  0  0  0  0  0  0  0  0  0
    3.8172   -5.6657   21.0165 C   0  0  2  0  0  0  0  0  0  0  0  0
    1.8276   -2.3193   21.0116 N   0  0  0  0  0  0  0  0  0  0  0  0
    3.5081   -4.1501   20.8144 C   0  0  0  0  0  0  0  0  0  0  0  0
    2.0480   -3.7809   21.1258 C   0  0  0  0  0  0  0  0  0  0  0  0
    5.0826   -5.7665   20.9343 O   0  0  0  0  0  0  0  0  0  0  0  0
  1  2  1  6  0  0  0
  1  3  1  0  0  0  0
  1  8  1  0  0  0  0
  3  4  1  0  0  0  0
  3 32  1  1  0  0  0
  4  5  1  0  0  0  0
  4 33  1  1  0  0  0
  5  6  1  6  0  0  0
  5  7  1  0  0  0  0
  7  8  1  0  0  0  0
  7  9  1  6  0  0  0
  9 10  1  0  0  0  0
 11 12  1  1  0  0  0
 11 13  1  0  0  0  0
 11 19  1  0  0  0  0
 12 34  1  0  0  0  0
 13 14  1  0  0  0  0
 14 15  1  1  0  0  0
 14 16  1  0  0  0  0
 16  2  1  6  0  0  0
 16 17  1  0  0  0  0
 17 18  1  1  0  0  0
 17 19  1  0  0  0  0
 19 20  1  6  0  0  0
 21 20  1  6  0  0  0
 21 22  1  0  0  0  0
 21 29  1  0  0  0  0
 22 23  1  1  0  0  0
 22 24  1  0  0  0  0
 24 25  1  1  0  0  0
 24 26  1  0  0  0  0
 26 27  1  6  0  0  0
 26 28  1  0  0  0  0
 28 29  1  0  0  0  0
 28 30  1  6  0  0  0
 30 31  1  0  0  0  0
 34 35  2  0  0  0  0
 36 34  1  6  0  0  0
 36 38  1  0  0  0  0
 36 40  1  0  0  0  0
 37 39  1  0  0  0  0
 38 39  1  0  0  0  0
M  END
>  <CHROM.1>
-62.62714736,-64.85506761,62.83101104,-118.30379273,-179.04550256,-154.11984994
-65.19377278,-109.45167283,67.96795535,176.00862682,0.18919600,-9.35852973
18.45369517,2.76116331,-0.08252521,-2.55212262

>  <Name>
ligand

>  <RI>
0

>  <Rbt.Current_Directory>
/home/itssahil/PROJECTS/Mol_Feturizer/New_Systems/rnas/4P20

>  <Rbt.Executable>
rbdock ($Id: //depot/dev/client3/rdock/2013.1/src/exe/rbdock.cxx#4 $)

>  <Rbt.Library>
libRbt.so (2013.1, Build901 2013/11/27)

>  <Rbt.Parameter_File>
/export/apps/rDock/src/rDock_2013.1_src/data/scripts/dock_solv.prm

>  <Rbt.Receptor>
prm/pocket_docking_4.prm

>  <SCORE>
-5.39155

>  <SCORE.INTER>
2.35201

>  <SCORE.INTER.CONST>
1

>  <SCORE.INTER.POLAR>
0

>  <SCORE.INTER.ROT>
10

>  <SCORE.INTER.SOLV>
14.6297

>  <SCORE.INTER.VDW>
-13.5752

>  <SCORE.INTER.norm>
0.0588003

>  <SCORE.INTRA>
-7.74356

>  <SCORE.INTRA.DIHEDRAL>
-21.3595

>  <SCORE.INTRA.DIHEDRAL.0>
28.2802

>  <SCORE.INTRA.POLAR>
0

>  <SCORE.INTRA.POLAR.0>
0

>  <SCORE.INTRA.REPUL>
0

>  <SCORE.INTRA.REPUL.0>
0

>  <SCORE.INTRA.SOLV>
2.06157

>  <SCORE.INTRA.SOLV.lig_0>
-101.981

>  <SCORE.INTRA.VDW>
1.9054

>  <SCORE.INTRA.VDW.0>
-5.72964

>  <SCORE.INTRA.norm>
-0.193589

>  <SCORE.RESTR>
0

>  <SCORE.RESTR.CAVITY>
0

>  <SCORE.RESTR.norm>
0

>  <SCORE.SYSTEM>
0

>  <SCORE.SYSTEM.CONST>
0

>  <SCORE.SYSTEM.DIHEDRAL>
0

>  <SCORE.SYSTEM.SOLV>
0

>  <SCORE.SYSTEM.norm>
0

>  <SCORE.heavy>
40

>  <SCORE.norm>
-0.134789

>  <RMSD>
8.258

$$$$
ligand
 OpenBabel11021811513D
libRbt.so/2013.1/901 2013/11/27
 40 42  0  0  0  0  0  0  0  0999 V2000
   -2.9778  -11.1914   16.1178 C   0  0  2  0  0  0  0  0  0  0  0  0
   -2.9989  -10.0881   17.0371 O   0  0  0  0  0  0  0  0  0  0  0  0
   -4.4356  -11.5360   15.6327 C   0  0  1  0  0  0  0  0  0  0  0  0
   -5.3178  -12.0635   16.8016 C   0  0  2  0  0  0  0  0  0  0  0  0
   -4.6375  -13.3505   17.3665 C   0  0  2  0  0  0  0  0  0  0  0  0
   -5.4443  -13.8835   18.4387 O   0  0  0  0  0  0  0  0  0  0  0  0
   -3.1853  -12.9649   17.8898 C   0  0  2  0  0  0  0  0  0  0  0  0
   -2.3703  -12.4041   16.7534 O   0  0  0  0  0  0  0  0  0  0  0  0
   -2.4279  -14.1634   18.4450 C   0  0  0  0  0  0  0  0  0  0  0  0
   -3.0729  -14.6938   19.6872 N   0  0  0  0  0  0  0  0  0  0  0  0
    0.3780   -7.5802   18.3163 C   0  0  2  0  0  0  0  0  0  0  0  0
    1.5599   -7.1555   19.0300 N   0  0  0  0  0  0  0  0  0  0  0  0
   -0.7960   -7.8405   19.3443 C   0  0  0  0  0  0  0  0  0  0  0  0
   -2.1067   -8.3150   18.5712 C   0  0  2  0  0  0  0  0  0  0  0  0
   -3.2135   -8.5433   19.5368 N   0  0  0  0  0  0  0  0  0  0  0  0
   -1.7770   -9.6437   17.7449 C   0  0  2  0  0  0  0  0  0  0  0  0
   -0.5949   -9.3326   16.7312 C   0  0  2  0  0  0  0  0  0  0  0  0
   -0.2951  -10.5141   15.9847 O   0  0  0  0  0  0  0  0  0  0  0  0
    0.6954   -8.8599   17.5104 C   0  0  1  0  0  0  0  0  0  0  0  0
    1.7572   -8.5602   16.5705 O   0  0  0  0  0  0  0  0  0  0  0  0
    2.3296   -9.4677   15.6910 C   0  0  2  0  0  0  0  0  0  0  0  0
    3.1562  -10.4945   16.5440 C   0  0  2  0  0  0  0  0  0  0  0  0
    2.3233  -11.1126   17.4710 O   0  0  0  0  0  0  0  0  0  0  0  0
    4.3967   -9.8056   17.2568 C   0  0  1  0  0  0  0  0  0  0  0  0
    5.1765  -10.8031   18.0529 N   0  0  0  0  0  0  0  0  0  0  0  0
    5.3088   -9.1244   16.1454 C   0  0  2  0  0  0  0  0  0  0  0  0
    6.4525   -8.4980   16.7395 O   0  0  0  0  0  0  0  0  0  0  0  0
    4.4243   -8.0846   15.3546 C   0  0  2  0  0  0  0  0  0  0  0  0
    3.2169   -8.7678   14.7269 O   0  0  0  0  0  0  0  0  0  0  0  0
    5.2208   -7.4089   14.2640 C   0  0  0  0  0  0  0  0  0  0  0  0
    6.3277   -6.6440   14.7765 O   0  0  0  0  0  0  0  0  0  0  0  0
   -5.0189  -10.3354   15.0476 O   0  0  0  0  0  0  0  0  0  0  0  0
   -6.5704  -12.3593   16.3210 O   0  0  0  0  0  0  0  0  0  0  0  0
    2.2333   -8.0977   19.8935 C   0  0  0  0  0  0  0  0  0  0  0  0
    1.5971   -9.0881   20.3619 O   0  0  0  0  0  0  0  0  0  0  0  0
    3.7374   -7.8439   20.2188 C   0  0  2  0  0  0  0  0  0  0  0  0
    6.1304   -9.0137   21.7984 N   0  0  0  0  0  0  0  0  0  0  0  0
    3.9708   -7.7690   21.7594 C   0  0  0  0  0  0  0  0  0  0  0  0
    5.4585   -7.7392   22.1480 C   0  0  0  0  0  0  0  0  0  0  0  0
    4.1578   -6.7349   19.7589 O   0  0  0  0  0  0  0  0  0  0  0  0
  1  2  1  1  0  0  0
  1  3  1  0  0  0  0
  1  8  1  0  0  0  0
  3  4  1  0  0  0  0
  3 32  1  1  0  0  0
  4  5  1  0  0  0  0
  4 33  1  6  0  0  0
  5  6  1  1  0  0  0
  5  7  1  0  0  0  0
  7  8  1  0  0  0  0
  7  9  1  6  0  0  0
  9 10  1  0  0  0  0
 11 12  1  1  0  0  0
 11 13  1  0  0  0  0
 11 19  1  0  0  0  0
 12 34  1  0  0  0  0
 13 14  1  0  0  0  0
 14 15  1  1  0  0  0
 14 16  1  0  0  0  0
 16  2  1  6  0  0  0
 16 17  1  0  0  0  0
 17 18  1  1  0  0  0
 17 19  1  0  0  0  0
 19 20  1  6  0  0  0
 21 20  1  1  0  0  0
 21 22  1  0  0  0  0
 21 29  1  0  0  0  0
 22 23  1  1  0  0  0
 22 24  1  0  0  0  0
 24 25  1  6  0  0  0
 24 26  1  0  0  0  0
 26 27  1  1  0  0  0
 26 28  1  0  0  0  0
 28 29  1  0  0  0  0
 28 30  1  6  0  0  0
 30 31  1  0  0  0  0
 34 35  2  0  0  0  0
 36 34  1  1  0  0  0
 36 38  1  0  0  0  0
 36 40  1  0  0  0  0
 37 39  1  0  0  0  0
 38 39  1  0  0  0  0
M  END
>  <CHROM.1>
174.05062984,174.37789017,-66.18296104,67.75001033,178.71501049,-69.26185664
-62.38692375,123.98182932,171.04762408,-65.91239191,0.56558993,-9.80339938
17.66934052,-3.04345561,0.40881351,1.52690617

>  <Name>
ligand

>  <RI>
0

>  <Rbt.Current_Directory>
/home/itssahil/PROJECTS/Mol_Feturizer/New_Systems/rnas/4P20

>  <Rbt.Executable>
rbdock ($Id: //depot/dev/client3/rdock/2013.1/src/exe/rbdock.cxx#4 $)

>  <Rbt.Library>
libRbt.so (2013.1, Build901 2013/11/27)

>  <Rbt.Parameter_File>
/export/apps/rDock/src/rDock_2013.1_src/data/scripts/dock_solv.prm

>  <Rbt.Receptor>
prm/pocket_docking_6.prm

>  <SCORE>
-10.4073

>  <SCORE.INTER>
-1.40588

>  <SCORE.INTER.CONST>
1

>  <SCORE.INTER.POLAR>
0

>  <SCORE.INTER.ROT>
10

>  <SCORE.INTER.SOLV>
19.9696

>  <SCORE.INTER.VDW>
-17.8605

>  <SCORE.INTER.norm>
-0.0351471

>  <SCORE.INTRA>
-9.00144

>  <SCORE.INTRA.DIHEDRAL>
-24.4592

>  <SCORE.INTRA.DIHEDRAL.0>
28.2802

>  <SCORE.INTRA.POLAR>
0

>  <SCORE.INTRA.POLAR.0>
0

>  <SCORE.INTRA.REPUL>
0

>  <SCORE.INTRA.REPUL.0>
0

>  <SCORE.INTRA.SOLV>
2.29331

>  <SCORE.INTRA.SOLV.lig_0>
-101.981

>  <SCORE.INTRA.VDW>
2.08148

>  <SCORE.INTRA.VDW.0>
-5.72964

>  <SCORE.INTRA.norm>
-0.225036

>  <SCORE.RESTR>
0

>  <SCORE.RESTR.CAVITY>
0

>  <SCORE.RESTR.norm>
0

>  <SCORE.SYSTEM>
0

>  <SCORE.SYSTEM.CONST>
0

>  <SCORE.SYSTEM.DIHEDRAL>
0

>  <SCORE.SYSTEM.SOLV>
0

>  <SCORE.SYSTEM.norm>
0

>  <SCORE.heavy>
40

>  <SCORE.norm>
-0.260183

>  <RMSD>
8.277

$$$$
ligand
 OpenBabel11021811513D
libRbt.so/2013.1/901 2013/11/27
 40 42  0  0  0  0  0  0  0  0999 V2000
   -0.7161  -10.7819   17.9557 C   0  0  2  0  0  0  0  0  0  0  0  0
    0.7170  -10.8556   18.0185 O   0  0  0  0  0  0  0  0  0  0  0  0
   -1.1709   -9.4750   17.2044 C   0  0  1  0  0  0  0  0  0  0  0  0
   -0.7830   -8.1940   17.9990 C   0  0  2  0  0  0  0  0  0  0  0  0
   -1.4863   -8.2676   19.3911 C   0  0  2  0  0  0  0  0  0  0  0  0
   -1.1690   -7.0796   20.1479 O   0  0  0  0  0  0  0  0  0  0  0  0
   -0.9754   -9.5718   20.1458 C   0  0  2  0  0  0  0  0  0  0  0  0
   -1.3117  -10.7930   19.3299 O   0  0  0  0  0  0  0  0  0  0  0  0
   -1.6220   -9.7456   21.5132 C   0  0  0  0  0  0  0  0  0  0  0  0
   -1.0305  -10.9016   22.2579 N   0  0  0  0  0  0  0  0  0  0  0  0
    3.7173  -12.3530   15.1749 C   0  0  2  0  0  0  0  0  0  0  0  0
    4.5002  -12.4777   13.9674 N   0  0  0  0  0  0  0  0  0  0  0  0
    2.1874  -12.5750   14.8389 C   0  0  0  0  0  0  0  0  0  0  0  0
    1.3095  -12.4356   16.1621 C   0  0  2  0  0  0  0  0  0  0  0  0
   -0.1257  -12.6607   15.8476 N   0  0  0  0  0  0  0  0  0  0  0  0
    1.5420  -10.9862   16.7962 C   0  0  2  0  0  0  0  0  0  0  0  0
    3.0882  -10.8114   17.1134 C   0  0  2  0  0  0  0  0  0  0  0  0
    3.3059   -9.5193   17.6845 O   0  0  0  0  0  0  0  0  0  0  0  0
    3.9458  -10.9560   15.7947 C   0  0  1  0  0  0  0  0  0  0  0  0
    5.3546  -10.8149   16.1043 O   0  0  0  0  0  0  0  0  0  0  0  0
    5.9224   -9.7509   16.7900 C   0  0  2  0  0  0  0  0  0  0  0  0
    7.3899   -9.5768   16.2596 C   0  0  2  0  0  0  0  0  0  0  0  0
    7.3701   -9.3673   14.8845 O   0  0  0  0  0  0  0  0  0  0  0  0
    8.3049  -10.8182   16.6377 C   0  0  1  0  0  0  0  0  0  0  0  0
    9.7001  -10.6261   16.1343 N   0  0  0  0  0  0  0  0  0  0  0  0
    8.2889  -10.9998   18.2182 C   0  0  2  0  0  0  0  0  0  0  0  0
    9.1134  -12.1037   18.6121 O   0  0  0  0  0  0  0  0  0  0  0  0
    6.7921  -11.2035   18.6735 C   0  0  2  0  0  0  0  0  0  0  0  0
    5.9322  -10.0201   18.2508 O   0  0  0  0  0  0  0  0  0  0  0  0
    6.6948  -11.3634   20.1719 C   0  0  0  0  0  0  0  0  0  0  0  0
    7.0967  -10.1788   20.8847 O   0  0  0  0  0  0  0  0  0  0  0  0
   -0.5550   -9.4688   15.8835 O   0  0  0  0  0  0  0  0  0  0  0  0
   -1.2134   -7.0882   17.3064 O   0  0  0  0  0  0  0  0  0  0  0  0
    4.9460  -13.7880   13.5536 C   0  0  0  0  0  0  0  0  0  0  0  0
    5.0452  -14.7180   14.4082 O   0  0  0  0  0  0  0  0  0  0  0  0
    5.2956  -13.9986   12.0483 C   0  0  2  0  0  0  0  0  0  0  0  0
    6.9836  -16.9741   10.1872 N   0  0  0  0  0  0  0  0  0  0  0  0
    5.9831  -15.3805   11.8225 C   0  0  0  0  0  0  0  0  0  0  0  0
    6.3229  -15.6566   10.3483 C   0  0  0  0  0  0  0  0  0  0  0  0
    6.1210  -13.1349   11.6115 O   0  0  0  0  0  0  0  0  0  0  0  0
  1  2  1  1  0  0  0
  1  3  1  0  0  0  0
  1  8  1  0  0  0  0
  3  4  1  0  0  0  0
  3 32  1  6  0  0  0
  4  5  1  0  0  0  0
  4 33  1  6  0  0  0
  5  6  1  1  0  0  0
  5  7  1  0  0  0  0
  7  8  1  0  0  0  0
  7  9  1  1  0  0  0
  9 10  1  0  0  0  0
 11 12  1  6  0  0  0
 11 13  1  0  0  0  0
 11 19  1  0  0  0  0
 12 34  1  0  0  0  0
 13 14  1  0  0  0  0
 14 15  1  6  0  0  0
 14 16  1  0  0  0  0
 16  2  1  1  0  0  0
 16 17  1  0  0  0  0
 17 18  1  6  0  0  0
 17 19  1  0  0  0  0
 19 20  1  1  0  0  0
 21 20  1  6  0  0  0
 21 22  1  0  0  0  0
 21 29  1  0  0  0  0
 22 23  1  6  0  0  0
 22 24  1  0  0  0  0
 24 25  1  1  0  0  0
 24 26  1  0  0  0  0
 26 27  1  6  0  0  0
 26 28  1  0  0  0  0
 28 29  1  0  0  0  0
 28 30  1  1  0  0  0
 30 31  1  0  0  0  0
 34 35  2  0  0  0  0
 36 34  1  1  0  0  0
 36 38  1  0  0  0  0
 36 40  1  0  0  0  0
 37 39  1  0  0  0  0
 38 39  1  0  0  0  0
M  END
>  <CHROM.1>
-64.41441640,-69.10927650,-174.48112559,-86.38917146,-173.37051801,-149.91074630
64.69254554,170.34152575,178.71382594,179.52294123,3.52570021,-11.15721668
16.67706534,2.41959483,-0.06170110,1.00559786

>  <Name>
ligand

>  <RI>
0

>  <Rbt.Current_Directory>
/home/itssahil/PROJECTS/Mol_Feturizer/New_Systems/rnas/4P20

>  <Rbt.Executable>
rbdock ($Id: //depot/dev/client3/rdock/2013.1/src/exe/rbdock.cxx#4 $)

>  <Rbt.Library>
libRbt.so (2013.1, Build901 2013/11/27)

>  <Rbt.Parameter_File>
/export/apps/rDock/src/rDock_2013.1_src/data/scripts/dock_solv.prm

>  <Rbt.Receptor>
prm/pocket_docking_8.prm

>  <SCORE>
-7.08237

>  <SCORE.INTER>
0.905661

>  <SCORE.INTER.CONST>
1

>  <SCORE.INTER.POLAR>
0

>  <SCORE.INTER.ROT>
10

>  <SCORE.INTER.SOLV>
15.3958

>  <SCORE.INTER.VDW>
-14.7948

>  <SCORE.INTER.norm>
0.0226415

>  <SCORE.INTRA>
-7.99748

>  <SCORE.INTRA.DIHEDRAL>
-22.3425

>  <SCORE.INTRA.DIHEDRAL.0>
28.2802

>  <SCORE.INTRA.POLAR>
0

>  <SCORE.INTRA.POLAR.0>
0

>  <SCORE.INTRA.REPUL>
0

>  <SCORE.INTRA.REPUL.0>
0

>  <SCORE.INTRA.SOLV>
0.145548

>  <SCORE.INTRA.SOLV.lig_0>
-101.981

>  <SCORE.INTRA.VDW>
3.10097

>  <SCORE.INTRA.VDW.0>
-5.72964

>  <SCORE.INTRA.norm>
-0.199937

>  <SCORE.RESTR>
0.00945001

>  <SCORE.RESTR.CAVITY>
0.00945001

>  <SCORE.RESTR.norm>
0.00023625

>  <SCORE.SYSTEM>
0

>  <SCORE.SYSTEM.CONST>
0

>  <SCORE.SYSTEM.DIHEDRAL>
0

>  <SCORE.SYSTEM.SOLV>
0

>  <SCORE.SYSTEM.norm>
0

>  <SCORE.heavy>
40

>  <SCORE.norm>
-0.177059

>  <RMSD>
8.281

$$$$
ligand
 OpenBabel11021811513D
libRbt.so/2013.1/901 2013/11/27
 40 42  0  0  0  0  0  0  0  0999 V2000
   -4.2422  -10.1505   16.0753 C   0  0  2  0  0  0  0  0  0  0  0  0
   -3.9928   -8.9199   16.7727 O   0  0  0  0  0  0  0  0  0  0  0  0
   -5.7297  -10.2043   15.5618 C   0  0  1  0  0  0  0  0  0  0  0  0
   -6.7415  -10.2534   16.7436 C   0  0  2  0  0  0  0  0  0  0  0  0
   -6.4316  -11.5344   17.5811 C   0  0  2  0  0  0  0  0  0  0  0  0
   -7.3701  -11.6266   18.6743 O   0  0  0  0  0  0  0  0  0  0  0  0
   -4.9395  -11.4329   18.1241 C   0  0  2  0  0  0  0  0  0  0  0  0
   -3.9845  -11.3288   16.9634 O   0  0  0  0  0  0  0  0  0  0  0  0
   -4.5319  -12.6512   18.9412 C   0  0  0  0  0  0  0  0  0  0  0  0
   -3.1920  -12.4608   19.5809 N   0  0  0  0  0  0  0  0  0  0  0  0
   -0.3776   -7.5068   18.8374 C   0  0  2  0  0  0  0  0  0  0  0  0
    0.6576   -7.3936   19.8384 N   0  0  0  0  0  0  0  0  0  0  0  0
   -1.7845   -7.2044   19.4945 C   0  0  0  0  0  0  0  0  0  0  0  0
   -2.9384   -7.3303   18.4020 C   0  0  2  0  0  0  0  0  0  0  0  0
   -4.2577   -7.0298   19.0173 N   0  0  0  0  0  0  0  0  0  0  0  0
   -2.9130   -8.8026   17.7787 C   0  0  2  0  0  0  0  0  0  0  0  0
   -1.4841   -9.0581   17.1348 C   0  0  2  0  0  0  0  0  0  0  0  0
   -1.4526  -10.3713   16.5711 O   0  0  0  0  0  0  0  0  0  0  0  0
   -0.3507   -8.9263   18.2272 C   0  0  1  0  0  0  0  0  0  0  0  0
    0.9475   -9.1414   17.6198 O   0  0  0  0  0  0  0  0  0  0  0  0
    1.4855  -10.3780   17.2939 C   0  0  2  0  0  0  0  0  0  0  0  0
    2.9993  -10.3586   17.7099 C   0  0  2  0  0  0  0  0  0  0  0  0
    3.1093  -10.0774   19.0678 O   0  0  0  0  0  0  0  0  0  0  0  0
    3.8367   -9.3269   16.8406 C   0  0  1  0  0  0  0  0  0  0  0  0
    5.2767   -9.3337   17.2445 N   0  0  0  0  0  0  0  0  0  0  0  0
    3.6736   -9.7056   15.3040 C   0  0  2  0  0  0  0  0  0  0  0  0
    4.4238   -8.8082   14.4762 O   0  0  0  0  0  0  0  0  0  0  0  0
    2.1364   -9.6711   14.9507 C   0  0  2  0  0  0  0  0  0  0  0  0
    1.3559  -10.6330   15.8362 O   0  0  0  0  0  0  0  0  0  0  0  0
    1.9003  -10.0416   13.5059 C   0  0  0  0  0  0  0  0  0  0  0  0
    2.5850   -9.1680   12.5890 O   0  0  0  0  0  0  0  0  0  0  0  0
   -5.9682   -9.0336   14.7271 O   0  0  0  0  0  0  0  0  0  0  0  0
   -8.0183  -10.3119   16.2397 O   0  0  0  0  0  0  0  0  0  0  0  0
    1.8629   -6.6635   19.5205 C   0  0  0  0  0  0  0  0  0  0  0  0
    2.2067   -6.5127   18.3106 O   0  0  0  0  0  0  0  0  0  0  0  0
    2.7021   -6.0894   20.7032 C   0  0  2  0  0  0  0  0  0  0  0  0
    1.6411   -3.2701   21.5037 N   0  0  0  0  0  0  0  0  0  0  0  0
    3.3126   -4.7023   20.3333 C   0  0  0  0  0  0  0  0  0  0  0  0
    2.2579   -3.5917   20.1944 C   0  0  0  0  0  0  0  0  0  0  0  0
    3.6946   -6.8264   21.0028 O   0  0  0  0  0  0  0  0  0  0  0  0
  1  2  1  1  0  0  0
  1  3  1  0  0  0  0
  1  8  1  0  0  0  0
  3  4  1  0  0  0  0
  3 32  1  1  0  0  0
  4  5  1  0  0  0  0
  4 33  1  6  0  0  0
  5  6  1  1  0  0  0
  5  7  1  0  0  0  0
  7  8  1  0  0  0  0
  7  9  1  6  0  0  0
  9 10  1  0  0  0  0
 11 12  1  1  0  0  0
 11 13  1  0  0  0  0
 11 19  1  0  0  0  0
 12 34  1  0  0  0  0
 13 14  1  0  0  0  0
 14 15  1  1  0  0  0
 14 16  1  0  0  0  0
 16  2  1  6  0  0  0
 16 17  1  0  0  0  0
 17 18  1  1  0  0  0
 17 19  1  0  0  0  0
 19 20  1  6  0  0  0
 21 20  1  6  0  0  0
 21 22  1  0  0  0  0
 21 29  1  0  0  0  0
 22 23  1  1  0  0  0
 22 24  1  0  0  0  0
 24 25  1  1  0  0  0
 24 26  1  0  0  0  0
 26 27  1  6  0  0  0
 26 28  1  0  0  0  0
 28 29  1  0  0  0  0
 28 30  1  6  0  0  0
 30 31  1  0  0  0  0
 34 35  2  0  0  0  0
 36 34  1  6  0  0  0
 36 38  1  0  0  0  0
 36 40  1  0  0  0  0
 37 39  1  0  0  0  0
 38 39  1  0  0  0  0
M  END
>  <CHROM.1>
156.13904380,-177.90025925,-172.96480649,-134.20200442,161.72666759,-137.85359545
-58.69460457,-143.17919212,68.58704247,67.87397886,-0.72218151,-8.96302190
17.59793556,-2.83950492,0.18786069,0.85830478

>  <Name>
ligand

>  <RI>
0

>  <Rbt.Current_Directory>
/home/itssahil/PROJECTS/Mol_Feturizer/New_Systems/rnas/4P20

>  <Rbt.Executable>
rbdock ($Id: //depot/dev/client3/rdock/2013.1/src/exe/rbdock.cxx#4 $)

>  <Rbt.Library>
libRbt.so (2013.1, Build901 2013/11/27)

>  <Rbt.Parameter_File>
/export/apps/rDock/src/rDock_2013.1_src/data/scripts/dock_solv.prm

>  <Rbt.Receptor>
prm/pocket_docking_7.prm

>  <SCORE>
-8.77778

>  <SCORE.INTER>
-2.27692

>  <SCORE.INTER.CONST>
1

>  <SCORE.INTER.POLAR>
0

>  <SCORE.INTER.ROT>
10

>  <SCORE.INTER.SOLV>
17.1096

>  <SCORE.INTER.VDW>
-17.4878

>  <SCORE.INTER.norm>
-0.056923

>  <SCORE.INTRA>
-6.50086

>  <SCORE.INTRA.DIHEDRAL>
-14.8897

>  <SCORE.INTRA.DIHEDRAL.0>
28.2802

>  <SCORE.INTRA.POLAR>
0

>  <SCORE.INTRA.POLAR.0>
0

>  <SCORE.INTRA.REPUL>
0

>  <SCORE.INTRA.REPUL.0>
0

>  <SCORE.INTRA.SOLV>
0.79639

>  <SCORE.INTRA.SOLV.lig_0>
-101.981

>  <SCORE.INTRA.VDW>
0.545795

>  <SCORE.INTRA.VDW.0>
-5.72964

>  <SCORE.INTRA.norm>
-0.162522

>  <SCORE.RESTR>
0

>  <SCORE.RESTR.CAVITY>
0

>  <SCORE.RESTR.norm>
0

>  <SCORE.SYSTEM>
0

>  <SCORE.SYSTEM.CONST>
0

>  <SCORE.SYSTEM.DIHEDRAL>
0

>  <SCORE.SYSTEM.SOLV>
0

>  <SCORE.SYSTEM.norm>
0

>  <SCORE.heavy>
40

>  <SCORE.norm>
-0.219445

>  <RMSD>
8.299

$$$$
ligand
 OpenBabel11021811513D
libRbt.so/2013.1/901 2013/11/27
 40 42  0  0  0  0  0  0  0  0999 V2000
   -3.7981   -9.4203   17.0953 C   0  0  2  0  0  0  0  0  0  0  0  0
   -2.7122   -9.2507   16.1706 O   0  0  0  0  0  0  0  0  0  0  0  0
   -4.4798  -10.8258   16.8970 C   0  0  1  0  0  0  0  0  0  0  0  0
   -5.1745  -10.9338   15.5082 C   0  0  2  0  0  0  0  0  0  0  0  0
   -6.2582   -9.8122   15.4309 C   0  0  2  0  0  0  0  0  0  0  0  0
   -6.9427   -9.8987   14.1627 O   0  0  0  0  0  0  0  0  0  0  0  0
   -5.5372   -8.4028   15.5892 C   0  0  2  0  0  0  0  0  0  0  0  0
   -4.8250   -8.3447   16.9156 O   0  0  0  0  0  0  0  0  0  0  0  0
   -6.5171   -7.2382   15.5473 C   0  0  0  0  0  0  0  0  0  0  0  0
   -7.5099   -7.3148   16.6650 N   0  0  0  0  0  0  0  0  0  0  0  0
    1.6194   -8.8255   16.7922 C   0  0  2  0  0  0  0  0  0  0  0  0
    2.9730   -9.1457   17.1817 N   0  0  0  0  0  0  0  0  0  0  0  0
    0.6787   -8.8678   18.0634 C   0  0  0  0  0  0  0  0  0  0  0  0
   -0.8206   -8.5210   17.6480 C   0  0  2  0  0  0  0  0  0  0  0  0
   -1.6999   -8.5450   18.8462 N   0  0  0  0  0  0  0  0  0  0  0  0
   -1.3159   -9.5685   16.5461 C   0  0  2  0  0  0  0  0  0  0  0  0
   -0.3417   -9.4896   15.2945 C   0  0  2  0  0  0  0  0  0  0  0  0
   -0.7787  -10.4204   14.3016 O   0  0  0  0  0  0  0  0  0  0  0  0
    1.1402   -9.8314   15.7214 C   0  0  1  0  0  0  0  0  0  0  0  0
    2.0193   -9.7346   14.5731 O   0  0  0  0  0  0  0  0  0  0  0  0
    3.1918  -10.4552   14.3976 C   0  0  2  0  0  0  0  0  0  0  0  0
    3.9407   -9.8440   13.1604 C   0  0  2  0  0  0  0  0  0  0  0  0
    4.1811   -8.4914   13.3786 O   0  0  0  0  0  0  0  0  0  0  0  0
    3.1355  -10.0733   11.8112 C   0  0  1  0  0  0  0  0  0  0  0  0
    3.8720   -9.4950   10.6450 N   0  0  0  0  0  0  0  0  0  0  0  0
    2.8987  -11.6348   11.6187 C   0  0  2  0  0  0  0  0  0  0  0  0
    2.1846  -11.8953   10.4040 O   0  0  0  0  0  0  0  0  0  0  0  0
    2.1141  -12.1709   12.8781 C   0  0  2  0  0  0  0  0  0  0  0  0
    2.8889  -11.8897   14.1584 O   0  0  0  0  0  0  0  0  0  0  0  0
    1.8692  -13.6575   12.7759 C   0  0  0  0  0  0  0  0  0  0  0  0
    1.1054  -14.1725   13.8823 O   0  0  0  0  0  0  0  0  0  0  0  0
   -3.4581  -11.8547   17.0439 O   0  0  0  0  0  0  0  0  0  0  0  0
   -5.7613  -12.1709   15.3945 O   0  0  0  0  0  0  0  0  0  0  0  0
    3.7255   -8.1848   17.9545 C   0  0  0  0  0  0  0  0  0  0  0  0
    3.4069   -6.9592   17.9174 O   0  0  0  0  0  0  0  0  0  0  0  0
    4.9197   -8.7100   18.8093 C   0  0  2  0  0  0  0  0  0  0  0  0
    4.5747   -6.4039   21.9286 N   0  0  0  0  0  0  0  0  0  0  0  0
    4.7682   -8.2833   20.3022 C   0  0  0  0  0  0  0  0  0  0  0  0
    4.7428   -6.7583   20.4988 C   0  0  0  0  0  0  0  0  0  0  0  0
    6.0379   -8.2341   18.4336 O   0  0  0  0  0  0  0  0  0  0  0  0
  1  2  1  6  0  0  0
  1  3  1  0  0  0  0
  1  8  1  0  0  0  0
  3  4  1  0  0  0  0
  3 32  1  6  0  0  0
  4  5  1  0  0  0  0
  4 33  1  1  0  0  0
  5  6  1  6  0  0  0
  5  7  1  0  0  0  0
  7  8  1  0  0  0  0
  7  9  1  1  0  0  0
  9 10  1  0  0  0  0
 11 12  1  1  0  0  0
 11 13  1  0  0  0  0
 11 19  1  0  0  0  0
 12 34  1  0  0  0  0
 13 14  1  0  0  0  0
 14 15  1  1  0  0  0
 14 16  1  0  0  0  0
 16  2  1  6  0  0  0
 16 17  1  0  0  0  0
 17 18  1  6  0  0  0
 17 19  1  0  0  0  0
 19 20  1  6  0  0  0
 21 20  1  6  0  0  0
 21 22  1  0  0  0  0
 21 29  1  0  0  0  0
 22 23  1  1  0  0  0
 22 24  1  0  0  0  0
 24 25  1  6  0  0  0
 24 26  1  0  0  0  0
 26 27  1  6  0  0  0
 26 28  1  0  0  0  0
 28 29  1  0  0  0  0
 28 30  1  6  0  0  0
 30 31  1  0  0  0  0
 34 35  2  0  0  0  0
 36 34  1  6  0  0  0
 36 38  1  0  0  0  0
 36 40  1  0  0  0  0
 37 39  1  0  0  0  0
 38 39  1  0  0  0  0
M  END
>  <CHROM.1>
-94.61967950,-67.87262388,61.31930097,-71.27622112,88.53722520,-169.76187793
-177.54609726,-125.20386517,-60.83482231,179.03787310,0.08605968,-9.66879844
15.78402084,3.07778784,-0.02214569,-2.09249510

>  <Name>
ligand

>  <RI>
0

>  <Rbt.Current_Directory>
/home/itssahil/PROJECTS/Mol_Feturizer/New_Systems/rnas/4P20

>  <Rbt.Executable>
rbdock ($Id: //depot/dev/client3/rdock/2013.1/src/exe/rbdock.cxx#4 $)

>  <Rbt.Library>
libRbt.so (2013.1, Build901 2013/11/27)

>  <Rbt.Parameter_File>
/export/apps/rDock/src/rDock_2013.1_src/data/scripts/dock_solv.prm

>  <Rbt.Receptor>
prm/pocket_docking_4.prm

>  <SCORE>
-14.8748

>  <SCORE.INTER>
-8.63126

>  <SCORE.INTER.CONST>
1

>  <SCORE.INTER.POLAR>
0

>  <SCORE.INTER.ROT>
10

>  <SCORE.INTER.SOLV>
21.9513

>  <SCORE.INTER.VDW>
-23.3379

>  <SCORE.INTER.norm>
-0.215782

>  <SCORE.INTRA>
-6.24354

>  <SCORE.INTRA.DIHEDRAL>
-17.1111

>  <SCORE.INTRA.DIHEDRAL.0>
28.2802

>  <SCORE.INTRA.POLAR>
0

>  <SCORE.INTRA.POLAR.0>
0

>  <SCORE.INTRA.REPUL>
0

>  <SCORE.INTRA.REPUL.0>
0

>  <SCORE.INTRA.SOLV>
0.626046

>  <SCORE.INTRA.SOLV.lig_0>
-101.981

>  <SCORE.INTRA.VDW>
1.99898

>  <SCORE.INTRA.VDW.0>
-5.72964

>  <SCORE.INTRA.norm>
-0.156088

>  <SCORE.RESTR>
0

>  <SCORE.RESTR.CAVITY>
0

>  <SCORE.RESTR.norm>
0

>  <SCORE.SYSTEM>
0

>  <SCORE.SYSTEM.CONST>
0

>  <SCORE.SYSTEM.DIHEDRAL>
0

>  <SCORE.SYSTEM.SOLV>
0

>  <SCORE.SYSTEM.norm>
0

>  <SCORE.heavy>
40

>  <SCORE.norm>
-0.37187

>  <RMSD>
8.307

$$$$
ligand
 OpenBabel11021811513D
libRbt.so/2013.1/901 2013/11/27
 40 42  0  0  0  0  0  0  0  0999 V2000
   -3.0198  -10.2701   15.5474 C   0  0  2  0  0  0  0  0  0  0  0  0
   -2.2541   -9.4613   16.4544 O   0  0  0  0  0  0  0  0  0  0  0  0
   -4.5605  -10.0045   15.7345 C   0  0  1  0  0  0  0  0  0  0  0  0
   -5.0560  -10.4726   17.1339 C   0  0  2  0  0  0  0  0  0  0  0  0
   -4.7721  -12.0036   17.2504 C   0  0  2  0  0  0  0  0  0  0  0  0
   -5.2436  -12.4789   18.5296 O   0  0  0  0  0  0  0  0  0  0  0  0
   -3.2053  -12.2385   17.1028 C   0  0  2  0  0  0  0  0  0  0  0  0
   -2.7406  -11.7255   15.7645 O   0  0  0  0  0  0  0  0  0  0  0  0
   -2.8260  -13.7109   17.1826 C   0  0  0  0  0  0  0  0  0  0  0  0
   -1.3407  -13.8965   17.1844 N   0  0  0  0  0  0  0  0  0  0  0  0
    2.0824   -8.7674   16.6605 C   0  0  2  0  0  0  0  0  0  0  0  0
    3.4863   -9.0095   16.8993 N   0  0  0  0  0  0  0  0  0  0  0  0
    1.2810   -8.9203   18.0159 C   0  0  0  0  0  0  0  0  0  0  0  0
   -0.2719   -8.6605   17.7670 C   0  0  2  0  0  0  0  0  0  0  0  0
   -1.0211   -8.7884   19.0444 N   0  0  0  0  0  0  0  0  0  0  0  0
   -0.8094   -9.6976   16.6751 C   0  0  2  0  0  0  0  0  0  0  0  0
    0.0250   -9.5066   15.3375 C   0  0  2  0  0  0  0  0  0  0  0  0
   -0.4509  -10.4275   14.3532 O   0  0  0  0  0  0  0  0  0  0  0  0
    1.5615   -9.7630   15.5997 C   0  0  1  0  0  0  0  0  0  0  0  0
    2.3109   -9.5644   14.3751 O   0  0  0  0  0  0  0  0  0  0  0  0
    3.5453  -10.1297   14.0897 C   0  0  2  0  0  0  0  0  0  0  0  0
    4.0989   -9.4275   12.7991 C   0  0  2  0  0  0  0  0  0  0  0  0
    4.1840   -8.0553   13.0113 O   0  0  0  0  0  0  0  0  0  0  0  0
    3.2137   -9.7568   11.5226 C   0  0  1  0  0  0  0  0  0  0  0  0
    3.7654   -9.0888   10.3035 N   0  0  0  0  0  0  0  0  0  0  0  0
    3.1610  -11.3356   11.3333 C   0  0  2  0  0  0  0  0  0  0  0  0
    2.3816  -11.6843   10.1824 O   0  0  0  0  0  0  0  0  0  0  0  0
    2.5646  -11.9679   12.6499 C   0  0  2  0  0  0  0  0  0  0  0  0
    3.4071  -11.5909   13.8610 O   0  0  0  0  0  0  0  0  0  0  0  0
    2.5022  -13.4736   12.5520 C   0  0  0  0  0  0  0  0  0  0  0  0
    3.7998  -14.0740   12.3834 O   0  0  0  0  0  0  0  0  0  0  0  0
   -4.8048   -8.5794   15.5511 O   0  0  0  0  0  0  0  0  0  0  0  0
   -6.4042  -10.2295   17.2375 O   0  0  0  0  0  0  0  0  0  0  0  0
    4.2222   -8.0936   17.7399 C   0  0  0  0  0  0  0  0  0  0  0  0
    3.8025   -6.9087   17.8978 O   0  0  0  0  0  0  0  0  0  0  0  0
    5.5248   -8.6142   18.4215 C   0  0  2  0  0  0  0  0  0  0  0  0
    7.7564   -9.3745   15.3217 N   0  0  0  0  0  0  0  0  0  0  0  0
    6.3993   -9.4207   17.4124 C   0  0  0  0  0  0  0  0  0  0  0  0
    6.9402   -8.5629   16.2562 C   0  0  0  0  0  0  0  0  0  0  0  0
    5.2892   -9.4160   19.3805 O   0  0  0  0  0  0  0  0  0  0  0  0
  1  2  1  1  0  0  0
  1  3  1  0  0  0  0
  1  8  1  0  0  0  0
  3  4  1  0  0  0  0
  3 32  1  1  0  0  0
  4  5  1  0  0  0  0
  4 33  1  6  0  0  0
  5  6  1  1  0  0  0
  5  7  1  0  0  0  0
  7  8  1  0  0  0  0
  7  9  1  6  0  0  0
  9 10  1  0  0  0  0
 11 12  1  1  0  0  0
 11 13  1  0  0  0  0
 11 19  1  0  0  0  0
 12 34  1  0  0  0  0
 13 14  1  0  0  0  0
 14 15  1  1  0  0  0
 14 16  1  0  0  0  0
 16  2  1  6  0  0  0
 16 17  1  0  0  0  0
 17 18  1  6  0  0  0
 17 19  1  0  0  0  0
 19 20  1  6  0  0  0
 21 20  1  6  0  0  0
 21 22  1  0  0  0  0
 21 29  1  0  0  0  0
 22 23  1  1  0  0  0
 22 24  1  0  0  0  0
 24 25  1  6  0  0  0
 24 26  1  0  0  0  0
 26 27  1  6  0  0  0
 26 28  1  0  0  0  0
 28 29  1  0  0  0  0
 28 30  1  6  0  0  0
 30 31  1  0  0  0  0
 34 35  2  0  0  0  0
 36 34  1  6  0  0  0
 36 38  1  0  0  0  0
 36 40  1  0  0  0  0
 37 39  1  0  0  0  0
 38 39  1  0  0  0  0
M  END
>  <CHROM.1>
168.00729883,-178.35627860,-174.08277880,-65.52877115,84.09089284,-169.14462437
61.47669955,44.72402263,65.00132900,-179.64791529,0.93926654,-10.24248079
15.54964359,2.96382706,0.23827989,1.14622008

>  <Name>
ligand

>  <RI>
0

>  <Rbt.Current_Directory>
/home/itssahil/PROJECTS/Mol_Feturizer/New_Systems/rnas/4P20

>  <Rbt.Executable>
rbdock ($Id: //depot/dev/client3/rdock/2013.1/src/exe/rbdock.cxx#4 $)

>  <Rbt.Library>
libRbt.so (2013.1, Build901 2013/11/27)

>  <Rbt.Parameter_File>
/export/apps/rDock/src/rDock_2013.1_src/data/scripts/dock_solv.prm

>  <Rbt.Receptor>
prm/pocket_docking_8.prm

>  <SCORE>
-15.3639

>  <SCORE.INTER>
-3.91892

>  <SCORE.INTER.CONST>
1

>  <SCORE.INTER.POLAR>
0

>  <SCORE.INTER.ROT>
10

>  <SCORE.INTER.SOLV>
19.6561

>  <SCORE.INTER.VDW>
-19.4313

>  <SCORE.INTER.norm>
-0.0979729

>  <SCORE.INTRA>
-11.445

>  <SCORE.INTRA.DIHEDRAL>
-23.1987

>  <SCORE.INTRA.DIHEDRAL.0>
28.2802

>  <SCORE.INTRA.POLAR>
0

>  <SCORE.INTRA.POLAR.0>
0

>  <SCORE.INTRA.REPUL>
0

>  <SCORE.INTRA.REPUL.0>
0

>  <SCORE.INTRA.SOLV>
-1.57173

>  <SCORE.INTRA.SOLV.lig_0>
-101.981

>  <SCORE.INTRA.VDW>
0.940192

>  <SCORE.INTRA.VDW.0>
-5.72964

>  <SCORE.INTRA.norm>
-0.286126

>  <SCORE.RESTR>
0

>  <SCORE.RESTR.CAVITY>
0

>  <SCORE.RESTR.norm>
0

>  <SCORE.SYSTEM>
0

>  <SCORE.SYSTEM.CONST>
0

>  <SCORE.SYSTEM.DIHEDRAL>
0

>  <SCORE.SYSTEM.SOLV>
0

>  <SCORE.SYSTEM.norm>
0

>  <SCORE.heavy>
40

>  <SCORE.norm>
-0.384098

>  <RMSD>
8.313

$$$$
ligand
 OpenBabel11021811513D
libRbt.so/2013.1/901 2013/11/27
 40 42  0  0  0  0  0  0  0  0999 V2000
   -2.8089  -14.0349   17.9552 C   0  0  2  0  0  0  0  0  0  0  0  0
   -2.6682  -13.4378   16.6564 O   0  0  0  0  0  0  0  0  0  0  0  0
   -4.3287  -14.2620   18.2984 C   0  0  1  0  0  0  0  0  0  0  0  0
   -5.0905  -12.9123   18.4427 C   0  0  2  0  0  0  0  0  0  0  0  0
   -4.4106  -12.1039   19.5926 C   0  0  2  0  0  0  0  0  0  0  0  0
   -5.1094  -10.8533   19.7725 O   0  0  0  0  0  0  0  0  0  0  0  0
   -2.8899  -11.8502   19.1997 C   0  0  2  0  0  0  0  0  0  0  0  0
   -2.1892  -13.1705   19.0099 O   0  0  0  0  0  0  0  0  0  0  0  0
   -2.1304  -11.0820   20.2727 C   0  0  0  0  0  0  0  0  0  0  0  0
   -0.7387  -10.7520   19.8313 N   0  0  0  0  0  0  0  0  0  0  0  0
    0.8447  -13.1167   14.0321 C   0  0  2  0  0  0  0  0  0  0  0  0
    2.1268  -12.6841   13.5267 N   0  0  0  0  0  0  0  0  0  0  0  0
   -0.1284  -11.8740   14.1401 C   0  0  0  0  0  0  0  0  0  0  0  0
   -1.5471  -12.3355   14.7016 C   0  0  2  0  0  0  0  0  0  0  0  0
   -2.4652  -11.1697   14.7868 N   0  0  0  0  0  0  0  0  0  0  0  0
   -1.3479  -13.0205   16.1327 C   0  0  2  0  0  0  0  0  0  0  0  0
   -0.3651  -14.2575   15.9725 C   0  0  2  0  0  0  0  0  0  0  0  0
   -0.1835  -14.8793   17.2468 O   0  0  0  0  0  0  0  0  0  0  0  0
    1.0345  -13.7864   15.4119 C   0  0  1  0  0  0  0  0  0  0  0  0
    1.9120  -14.9288   15.2519 O   0  0  0  0  0  0  0  0  0  0  0  0
    3.2516  -14.8675   14.8964 C   0  0  2  0  0  0  0  0  0  0  0  0
    3.9546  -16.1427   15.4839 C   0  0  2  0  0  0  0  0  0  0  0  0
    3.3321  -17.2877   14.9976 O   0  0  0  0  0  0  0  0  0  0  0  0
    3.9706  -16.1286   17.0716 C   0  0  1  0  0  0  0  0  0  0  0  0
    4.6551  -17.3448   17.6094 N   0  0  0  0  0  0  0  0  0  0  0  0
    4.6979  -14.8012   17.5617 C   0  0  2  0  0  0  0  0  0  0  0  0
    4.7494  -14.7478   18.9928 O   0  0  0  0  0  0  0  0  0  0  0  0
    3.9195  -13.5660   16.9637 C   0  0  2  0  0  0  0  0  0  0  0  0
    3.8784  -13.6368   15.4433 O   0  0  0  0  0  0  0  0  0  0  0  0
    4.5669  -12.2641   17.3715 C   0  0  0  0  0  0  0  0  0  0  0  0
    3.8918  -11.1138   16.8294 O   0  0  0  0  0  0  0  0  0  0  0  0
   -4.9190  -15.0772   17.2444 O   0  0  0  0  0  0  0  0  0  0  0  0
   -6.4040  -13.1689   18.7536 O   0  0  0  0  0  0  0  0  0  0  0  0
    2.1956  -12.0793   12.2166 C   0  0  0  0  0  0  0  0  0  0  0  0
    1.2858  -12.3137   11.3667 O   0  0  0  0  0  0  0  0  0  0  0  0
    3.4111  -11.1539   11.9026 C   0  0  2  0  0  0  0  0  0  0  0  0
    5.7035   -9.4133   12.8659 N   0  0  0  0  0  0  0  0  0  0  0  0
    3.2504   -9.7660   12.5964 C   0  0  0  0  0  0  0  0  0  0  0  0
    4.4422   -8.8245   12.3555 C   0  0  0  0  0  0  0  0  0  0  0  0
    3.5258  -10.9000   10.6614 O   0  0  0  0  0  0  0  0  0  0  0  0
  1  2  1  6  0  0  0
  1  3  1  0  0  0  0
  1  8  1  0  0  0  0
  3  4  1  0  0  0  0
  3 32  1  6  0  0  0
  4  5  1  0  0  0  0
  4 33  1  1  0  0  0
  5  6  1  6  0  0  0
  5  7  1  0  0  0  0
  7  8  1  0  0  0  0
  7  9  1  1  0  0  0
  9 10  1  0  0  0  0
 11 12  1  1  0  0  0
 11 13  1  0  0  0  0
 11 19  1  0  0  0  0
 12 34  1  0  0  0  0
 13 14  1  0  0  0  0
 14 15  1  1  0  0  0
 14 16  1  0  0  0  0
 16  2  1  6  0  0  0
 16 17  1  0  0  0  0
 17 18  1  1  0  0  0
 17 19  1  0  0  0  0
 19 20  1  6  0  0  0
 21 20  1  1  0  0  0
 21 22  1  0  0  0  0
 21 29  1  0  0  0  0
 22 23  1  1  0  0  0
 22 24  1  0  0  0  0
 24 25  1  6  0  0  0
 24 26  1  0  0  0  0
 26 27  1  1  0  0  0
 26 28  1  0  0  0  0
 28 29  1  0  0  0  0
 28 30  1  6  0  0  0
 30 31  1  0  0  0  0
 34 35  2  0  0  0  0
 36 34  1  6  0  0  0
 36 38  1  0  0  0  0
 36 40  1  0  0  0  0
 37 39  1  0  0  0  0
 38 39  1  0  0  0  0
M  END
>  <CHROM.1>
175.13949986,-177.37095812,-175.05158330,-60.97211323,66.16368707,153.44078909
179.27827982,-75.72252479,178.29051214,-59.77989081,0.60543154,-13.03504033
16.09897694,-2.74480452,0.34415033,-0.85040686

>  <Name>
ligand

>  <RI>
0

>  <Rbt.Current_Directory>
/home/itssahil/PROJECTS/Mol_Feturizer/New_Systems/rnas/4P20

>  <Rbt.Executable>
rbdock ($Id: //depot/dev/client3/rdock/2013.1/src/exe/rbdock.cxx#4 $)

>  <Rbt.Library>
libRbt.so (2013.1, Build901 2013/11/27)

>  <Rbt.Parameter_File>
/export/apps/rDock/src/rDock_2013.1_src/data/scripts/dock_solv.prm

>  <Rbt.Receptor>
prm/pocket_docking_8.prm

>  <SCORE>
-10.0356

>  <SCORE.INTER>
0.0454623

>  <SCORE.INTER.CONST>
1

>  <SCORE.INTER.POLAR>
0

>  <SCORE.INTER.ROT>
10

>  <SCORE.INTER.SOLV>
11.532

>  <SCORE.INTER.VDW>
-14.0804

>  <SCORE.INTER.norm>
0.00113656

>  <SCORE.INTRA>
-10.081

>  <SCORE.INTRA.DIHEDRAL>
-23.805

>  <SCORE.INTRA.DIHEDRAL.0>
28.2802

>  <SCORE.INTRA.POLAR>
0

>  <SCORE.INTRA.POLAR.0>
0

>  <SCORE.INTRA.REPUL>
0

>  <SCORE.INTRA.REPUL.0>
0

>  <SCORE.INTRA.SOLV>
-0.69151

>  <SCORE.INTRA.SOLV.lig_0>
-101.981

>  <SCORE.INTRA.VDW>
2.16724

>  <SCORE.INTRA.VDW.0>
-5.72964

>  <SCORE.INTRA.norm>
-0.252026

>  <SCORE.RESTR>
0

>  <SCORE.RESTR.CAVITY>
0

>  <SCORE.RESTR.norm>
0

>  <SCORE.SYSTEM>
0

>  <SCORE.SYSTEM.CONST>
0

>  <SCORE.SYSTEM.DIHEDRAL>
0

>  <SCORE.SYSTEM.SOLV>
0

>  <SCORE.SYSTEM.norm>
0

>  <SCORE.heavy>
40

>  <SCORE.norm>
-0.250889

>  <RMSD>
8.324

$$$$
ligand
 OpenBabel11021811513D
libRbt.so/2013.1/901 2013/11/27
 40 42  0  0  0  0  0  0  0  0999 V2000
   -0.9534  -11.3104   16.1701 C   0  0  2  0  0  0  0  0  0  0  0  0
   -1.0356  -11.0739   14.7558 O   0  0  0  0  0  0  0  0  0  0  0  0
   -2.2667  -10.8245   16.8901 C   0  0  1  0  0  0  0  0  0  0  0  0
   -2.4323   -9.2796   16.7965 C   0  0  2  0  0  0  0  0  0  0  0  0
   -1.1897   -8.6266   17.4804 C   0  0  2  0  0  0  0  0  0  0  0  0
   -1.3222   -7.1896   17.4352 O   0  0  0  0  0  0  0  0  0  0  0  0
    0.1178   -9.0983   16.7063 C   0  0  2  0  0  0  0  0  0  0  0  0
    0.2249  -10.6002   16.7623 O   0  0  0  0  0  0  0  0  0  0  0  0
    1.3926   -8.5281   17.3128 C   0  0  0  0  0  0  0  0  0  0  0  0
    2.6104   -9.0168   16.5925 N   0  0  0  0  0  0  0  0  0  0  0  0
    2.7809  -12.6857   13.2841 C   0  0  2  0  0  0  0  0  0  0  0  0
    3.7961  -13.1468   12.3659 N   0  0  0  0  0  0  0  0  0  0  0  0
    1.4795  -13.5705   13.1222 C   0  0  0  0  0  0  0  0  0  0  0  0
    0.3476  -13.0700   14.1267 C   0  0  2  0  0  0  0  0  0  0  0  0
   -0.8686  -13.9127   13.9849 N   0  0  0  0  0  0  0  0  0  0  0  0
    0.0237  -11.5327   13.8290 C   0  0  2  0  0  0  0  0  0  0  0  0
    1.3576  -10.6886   14.0024 C   0  0  2  0  0  0  0  0  0  0  0  0
    1.0774   -9.3113   13.7418 O   0  0  0  0  0  0  0  0  0  0  0  0
    2.4711  -11.1978   13.0043 C   0  0  1  0  0  0  0  0  0  0  0  0
    3.6875  -10.4319   13.1896 O   0  0  0  0  0  0  0  0  0  0  0  0
    3.8859   -9.1263   12.7640 C   0  0  2  0  0  0  0  0  0  0  0  0
    4.3509   -9.1840   11.2655 C   0  0  2  0  0  0  0  0  0  0  0  0
    3.3954   -9.8475   10.5027 O   0  0  0  0  0  0  0  0  0  0  0  0
    5.7778   -9.8646   11.1165 C   0  0  1  0  0  0  0  0  0  0  0  0
    6.2066   -9.8977    9.6841 N   0  0  0  0  0  0  0  0  0  0  0  0
    6.8219   -9.0582   12.0058 C   0  0  2  0  0  0  0  0  0  0  0  0
    8.1321   -9.6278   11.8946 O   0  0  0  0  0  0  0  0  0  0  0  0
    6.3092   -9.0718   13.4978 C   0  0  2  0  0  0  0  0  0  0  0  0
    4.9187   -8.4595   13.5977 O   0  0  0  0  0  0  0  0  0  0  0  0
    7.2435   -8.3045   14.4026 C   0  0  0  0  0  0  0  0  0  0  0  0
    6.8282   -8.3301   15.7809 O   0  0  0  0  0  0  0  0  0  0  0  0
   -3.4020  -11.5028   16.2776 O   0  0  0  0  0  0  0  0  0  0  0  0
   -3.5834   -8.9108   17.4496 O   0  0  0  0  0  0  0  0  0  0  0  0
    5.1630  -13.2434   12.8234 C   0  0  0  0  0  0  0  0  0  0  0  0
    5.5463  -12.5498   13.8117 O   0  0  0  0  0  0  0  0  0  0  0  0
    6.1210  -14.2104   12.0621 C   0  0  2  0  0  0  0  0  0  0  0  0
    6.6036  -17.0022   14.7334 N   0  0  0  0  0  0  0  0  0  0  0  0
    6.8415  -15.1769   13.0522 C   0  0  0  0  0  0  0  0  0  0  0  0
    5.8821  -16.1492   13.7589 C   0  0  0  0  0  0  0  0  0  0  0  0
    7.0525  -13.5966   11.4509 O   0  0  0  0  0  0  0  0  0  0  0  0
  1  2  1  6  0  0  0
  1  3  1  0  0  0  0
  1  8  1  0  0  0  0
  3  4  1  0  0  0  0
  3 32  1  6  0  0  0
  4  5  1  0  0  0  0
  4 33  1  1  0  0  0
  5  6  1  6  0  0  0
  5  7  1  0  0  0  0
  7  8  1  0  0  0  0
  7  9  1  1  0  0  0
  9 10  1  0  0  0  0
 11 12  1  6  0  0  0
 11 13  1  0  0  0  0
 11 19  1  0  0  0  0
 12 34  1  0  0  0  0
 13 14  1  0  0  0  0
 14 15  1  6  0  0  0
 14 16  1  0  0  0  0
 16  2  1  1  0  0  0
 16 17  1  0  0  0  0
 17 18  1  6  0  0  0
 17 19  1  0  0  0  0
 19 20  1  1  0  0  0
 21 20  1  1  0  0  0
 21 22  1  0  0  0  0
 21 29  1  0  0  0  0
 22 23  1  6  0  0  0
 22 24  1  0  0  0  0
 24 25  1  6  0  0  0
 24 26  1  0  0  0  0
 26 27  1  1  0  0  0
 26 28  1  0  0  0  0
 28 29  1  0  0  0  0
 28 30  1  1  0  0  0
 30 31  1  0  0  0  0
 34 35  2  0  0  0  0
 36 34  1  1  0  0  0
 36 38  1  0  0  0  0
 36 40  1  0  0  0  0
 37 39  1  0  0  0  0
 38 39  1  0  0  0  0
M  END
>  <CHROM.1>
-175.23420917,49.34326757,178.36969541,-137.86027927,165.57398981,-85.09355021
-178.22056580,-128.34048844,65.40067769,-177.36655253,2.77956468,-10.92016061
14.10460938,2.84818827,0.43735809,0.16314944

>  <Name>
ligand

>  <RI>
0

>  <Rbt.Current_Directory>
/home/itssahil/PROJECTS/Mol_Feturizer/New_Systems/rnas/4P20

>  <Rbt.Executable>
rbdock ($Id: //depot/dev/client3/rdock/2013.1/src/exe/rbdock.cxx#4 $)

>  <Rbt.Library>
libRbt.so (2013.1, Build901 2013/11/27)

>  <Rbt.Parameter_File>
/export/apps/rDock/src/rDock_2013.1_src/data/scripts/dock_solv.prm

>  <Rbt.Receptor>
prm/pocket_docking_8.prm

>  <SCORE>
-12.2366

>  <SCORE.INTER>
-2.68358

>  <SCORE.INTER.CONST>
1

>  <SCORE.INTER.POLAR>
0

>  <SCORE.INTER.ROT>
10

>  <SCORE.INTER.SOLV>
17.6158

>  <SCORE.INTER.VDW>
-17.9276

>  <SCORE.INTER.norm>
-0.0670894

>  <SCORE.INTRA>
-9.55305

>  <SCORE.INTRA.DIHEDRAL>
-20.4607

>  <SCORE.INTRA.DIHEDRAL.0>
28.2802

>  <SCORE.INTRA.POLAR>
0

>  <SCORE.INTRA.POLAR.0>
0

>  <SCORE.INTRA.REPUL>
0

>  <SCORE.INTRA.REPUL.0>
0

>  <SCORE.INTRA.SOLV>
2.76357

>  <SCORE.INTRA.SOLV.lig_0>
-101.981

>  <SCORE.INTRA.VDW>
-0.704488

>  <SCORE.INTRA.VDW.0>
-5.72964

>  <SCORE.INTRA.norm>
-0.238826

>  <SCORE.RESTR>
0

>  <SCORE.RESTR.CAVITY>
0

>  <SCORE.RESTR.norm>
0

>  <SCORE.SYSTEM>
0

>  <SCORE.SYSTEM.CONST>
0

>  <SCORE.SYSTEM.DIHEDRAL>
0

>  <SCORE.SYSTEM.SOLV>
0

>  <SCORE.SYSTEM.norm>
0

>  <SCORE.heavy>
40

>  <SCORE.norm>
-0.305916

>  <RMSD>
8.326

$$$$
ligand
 OpenBabel11021811513D
libRbt.so/2013.1/901 2013/11/27
 40 42  0  0  0  0  0  0  0  0999 V2000
   -4.1299  -10.3405   15.8465 C   0  0  2  0  0  0  0  0  0  0  0  0
   -3.6788  -10.6722   17.1692 O   0  0  0  0  0  0  0  0  0  0  0  0
   -5.0103   -9.0354   15.8728 C   0  0  1  0  0  0  0  0  0  0  0  0
   -6.3370   -9.2559   16.6565 C   0  0  2  0  0  0  0  0  0  0  0  0
   -7.1236  -10.4023   15.9454 C   0  0  2  0  0  0  0  0  0  0  0  0
   -8.3754  -10.6172   16.6319 O   0  0  0  0  0  0  0  0  0  0  0  0
   -6.2305  -11.7188   15.9728 C   0  0  2  0  0  0  0  0  0  0  0  0
   -4.9290  -11.4625   15.2582 O   0  0  0  0  0  0  0  0  0  0  0  0
   -6.9051  -12.8959   15.2818 C   0  0  0  0  0  0  0  0  0  0  0  0
   -8.1681  -13.2930   15.9802 N   0  0  0  0  0  0  0  0  0  0  0  0
    0.6633  -10.0174   16.9514 C   0  0  2  0  0  0  0  0  0  0  0  0
    2.0623  -10.0603   17.3081 N   0  0  0  0  0  0  0  0  0  0  0  0
   -0.1511   -9.2817   18.0909 C   0  0  0  0  0  0  0  0  0  0  0  0
   -1.6989   -9.2309   17.7133 C   0  0  2  0  0  0  0  0  0  0  0  0
   -2.4601   -8.5249   18.7771 N   0  0  0  0  0  0  0  0  0  0  0  0
   -2.2387  -10.7221   17.5087 C   0  0  2  0  0  0  0  0  0  0  0  0
   -1.3911  -11.4171   16.3596 C   0  0  2  0  0  0  0  0  0  0  0  0
   -1.8690  -12.7504   16.1665 O   0  0  0  0  0  0  0  0  0  0  0  0
    0.1402  -11.4568   16.7452 C   0  0  1  0  0  0  0  0  0  0  0  0
    0.9019  -12.0746   15.6781 O   0  0  0  0  0  0  0  0  0  0  0  0
    0.5177  -12.1289   14.3461 C   0  0  2  0  0  0  0  0  0  0  0  0
    1.2715  -13.3379   13.6864 C   0  0  2  0  0  0  0  0  0  0  0  0
    0.9674  -14.5103   14.3708 O   0  0  0  0  0  0  0  0  0  0  0  0
    2.8398  -13.0960   13.6311 C   0  0  1  0  0  0  0  0  0  0  0  0
    3.5362  -14.2531   12.9884 N   0  0  0  0  0  0  0  0  0  0  0  0
    3.1192  -11.7478   12.8339 C   0  0  2  0  0  0  0  0  0  0  0  0
    4.5263  -11.4913   12.7453 O   0  0  0  0  0  0  0  0  0  0  0  0
    2.3623  -10.5762   13.5710 C   0  0  2  0  0  0  0  0  0  0  0  0
    0.8691  -10.8634   13.6521 O   0  0  0  0  0  0  0  0  0  0  0  0
    2.5653   -9.2613   12.8567 C   0  0  0  0  0  0  0  0  0  0  0  0
    3.9378   -8.8267   12.8716 O   0  0  0  0  0  0  0  0  0  0  0  0
   -4.2259   -7.9663   16.4775 O   0  0  0  0  0  0  0  0  0  0  0  0
   -7.0690   -8.0934   16.6367 O   0  0  0  0  0  0  0  0  0  0  0  0
    2.7780   -8.8183   17.4876 C   0  0  0  0  0  0  0  0  0  0  0  0
    2.3523   -7.7610   16.9346 O   0  0  0  0  0  0  0  0  0  0  0  0
    4.0672   -8.8388   18.3652 C   0  0  2  0  0  0  0  0  0  0  0  0
    6.0314  -10.1094   20.3111 N   0  0  0  0  0  0  0  0  0  0  0  0
    3.7382   -9.2575   19.8314 C   0  0  0  0  0  0  0  0  0  0  0  0
    4.9561   -9.1971   20.7685 C   0  0  0  0  0  0  0  0  0  0  0  0
    4.6167   -7.6952   18.4554 O   0  0  0  0  0  0  0  0  0  0  0  0
  1  2  1  1  0  0  0
  1  3  1  0  0  0  0
  1  8  1  0  0  0  0
  3  4  1  0  0  0  0
  3 32  1  1  0  0  0
  4  5  1  0  0  0  0
  4 33  1  6  0  0  0
  5  6  1  1  0  0  0
  5  7  1  0  0  0  0
  7  8  1  0  0  0  0
  7  9  1  6  0  0  0
  9 10  1  0  0  0  0
 11 12  1  1  0  0  0
 11 13  1  0  0  0  0
 11 19  1  0  0  0  0
 12 34  1  0  0  0  0
 13 14  1  0  0  0  0
 14 15  1  1  0  0  0
 14 16  1  0  0  0  0
 16  2  1  6  0  0  0
 16 17  1  0  0  0  0
 17 18  1  1  0  0  0
 17 19  1  0  0  0  0
 19 20  1  6  0  0  0
 21 20  1  1  0  0  0
 21 22  1  0  0  0  0
 21 29  1  0  0  0  0
 22 23  1  1  0  0  0
 22 24  1  0  0  0  0
 24 25  1  6  0  0  0
 24 26  1  0  0  0  0
 26 27  1  1  0  0  0
 26 28  1  0  0  0  0
 28 29  1  0  0  0  0
 28 30  1  6  0  0  0
 30 31  1  0  0  0  0
 34 35  2  0  0  0  0
 36 34  1  6  0  0  0
 36 38  1  0  0  0  0
 36 40  1  0  0  0  0
 37 39  1  0  0  0  0
 38 39  1  0  0  0  0
M  END
>  <CHROM.1>
-118.77237356,78.34133432,-63.24948992,-61.24183217,-95.54824571,-156.95151776
-64.68395769,-62.10180259,-175.83656108,-60.55060334,-0.58917907,-10.56594404
16.10128520,3.12191369,-0.03416783,-2.22324077

>  <Name>
ligand

>  <RI>
0

>  <Rbt.Current_Directory>
/home/itssahil/PROJECTS/Mol_Feturizer/New_Systems/rnas/4P20

>  <Rbt.Executable>
rbdock ($Id: //depot/dev/client3/rdock/2013.1/src/exe/rbdock.cxx#4 $)

>  <Rbt.Library>
libRbt.so (2013.1, Build901 2013/11/27)

>  <Rbt.Parameter_File>
/export/apps/rDock/src/rDock_2013.1_src/data/scripts/dock_solv.prm

>  <Rbt.Receptor>
prm/pocket_docking_2.prm

>  <SCORE>
4.6633

>  <SCORE.INTER>
5.15086

>  <SCORE.INTER.CONST>
1

>  <SCORE.INTER.POLAR>
0

>  <SCORE.INTER.ROT>
10

>  <SCORE.INTER.SOLV>
13.5053

>  <SCORE.INTER.VDW>
-11.3345

>  <SCORE.INTER.norm>
0.128771

>  <SCORE.INTRA>
-2.17308

>  <SCORE.INTRA.DIHEDRAL>
-11.614

>  <SCORE.INTRA.DIHEDRAL.0>
28.2802

>  <SCORE.INTRA.POLAR>
0

>  <SCORE.INTRA.POLAR.0>
0

>  <SCORE.INTRA.REPUL>
0

>  <SCORE.INTRA.REPUL.0>
0

>  <SCORE.INTRA.SOLV>
2.46664

>  <SCORE.INTRA.SOLV.lig_0>
-101.981

>  <SCORE.INTRA.VDW>
2.40059

>  <SCORE.INTRA.VDW.0>
-5.72964

>  <SCORE.INTRA.norm>
-0.054327

>  <SCORE.RESTR>
1.68553

>  <SCORE.RESTR.CAVITY>
1.68553

>  <SCORE.RESTR.norm>
0.0421382

>  <SCORE.SYSTEM>
0

>  <SCORE.SYSTEM.CONST>
0

>  <SCORE.SYSTEM.DIHEDRAL>
0

>  <SCORE.SYSTEM.SOLV>
0

>  <SCORE.SYSTEM.norm>
0

>  <SCORE.heavy>
40

>  <SCORE.norm>
0.116583

>  <RMSD>
8.340

$$$$
ligand
 OpenBabel11021811513D
libRbt.so/2013.1/901 2013/11/27
 40 42  0  0  0  0  0  0  0  0999 V2000
   -4.7042   -9.2779   17.1204 C   0  0  2  0  0  0  0  0  0  0  0  0
   -3.5095   -9.1215   16.3386 O   0  0  0  0  0  0  0  0  0  0  0  0
   -5.2636  -10.7439   16.9897 C   0  0  1  0  0  0  0  0  0  0  0  0
   -5.7444  -11.0457   15.5404 C   0  0  2  0  0  0  0  0  0  0  0  0
   -6.8722  -10.0235   15.1918 C   0  0  2  0  0  0  0  0  0  0  0  0
   -7.3616  -10.2909   13.8601 O   0  0  0  0  0  0  0  0  0  0  0  0
   -6.2685   -8.5546   15.2879 C   0  0  2  0  0  0  0  0  0  0  0  0
   -5.7584   -8.3074   16.6839 O   0  0  0  0  0  0  0  0  0  0  0  0
   -7.3015   -7.4782   14.9836 C   0  0  0  0  0  0  0  0  0  0  0  0
   -6.7183   -6.1054   15.1096 N   0  0  0  0  0  0  0  0  0  0  0  0
    0.7956   -8.9699   17.2179 C   0  0  2  0  0  0  0  0  0  0  0  0
    2.0833   -9.3307   17.7638 N   0  0  0  0  0  0  0  0  0  0  0  0
   -0.2221   -8.6978   18.3981 C   0  0  0  0  0  0  0  0  0  0  0  0
   -1.6503   -8.3028   17.8106 C   0  0  2  0  0  0  0  0  0  0  0  0
   -2.6008   -8.0315   18.9207 N   0  0  0  0  0  0  0  0  0  0  0  0
   -2.1782   -9.4863   16.8737 C   0  0  2  0  0  0  0  0  0  0  0  0
   -1.1248   -9.7219   15.7090 C   0  0  2  0  0  0  0  0  0  0  0  0
   -1.5899  -10.7763   14.8633 O   0  0  0  0  0  0  0  0  0  0  0  0
    0.2860  -10.1083   16.3055 C   0  0  1  0  0  0  0  0  0  0  0  0
    1.2403  -10.2993   15.2316 O   0  0  0  0  0  0  0  0  0  0  0  0
    2.3929  -11.0675   15.3101 C   0  0  2  0  0  0  0  0  0  0  0  0
    3.3060  -10.6740   14.0950 C   0  0  2  0  0  0  0  0  0  0  0  0
    3.5779   -9.3103   14.1345 O   0  0  0  0  0  0  0  0  0  0  0  0
    2.6535  -11.0891   12.7081 C   0  0  1  0  0  0  0  0  0  0  0  0
    3.5447  -10.7167   11.5661 N   0  0  0  0  0  0  0  0  0  0  0  0
    2.3733  -12.6551   12.7257 C   0  0  2  0  0  0  0  0  0  0  0  0
    1.7942  -13.0823   11.4865 O   0  0  0  0  0  0  0  0  0  0  0  0
    1.4255  -12.9701   13.9469 C   0  0  2  0  0  0  0  0  0  0  0  0
    2.0580  -12.5137   15.2546 O   0  0  0  0  0  0  0  0  0  0  0  0
    1.1298  -14.4480   14.0408 C   0  0  0  0  0  0  0  0  0  0  0  0
    2.2713  -15.2176   14.4621 O   0  0  0  0  0  0  0  0  0  0  0  0
   -4.2126  -11.6718   17.3881 O   0  0  0  0  0  0  0  0  0  0  0  0
   -6.2323  -12.3290   15.4871 O   0  0  0  0  0  0  0  0  0  0  0  0
    3.0513   -8.2899   18.0221 C   0  0  0  0  0  0  0  0  0  0  0  0
    2.9723   -7.1887   17.4008 O   0  0  0  0  0  0  0  0  0  0  0  0
    4.1714   -8.5780   19.0685 C   0  0  2  0  0  0  0  0  0  0  0  0
    5.4735   -7.9084   21.8756 N   0  0  0  0  0  0  0  0  0  0  0  0
    3.5706   -8.7436   20.4986 C   0  0  0  0  0  0  0  0  0  0  0  0
    4.6250   -9.0838   21.5651 C   0  0  0  0  0  0  0  0  0  0  0  0
    5.0105   -7.6266   19.1625 O   0  0  0  0  0  0  0  0  0  0  0  0
  1  2  1  6  0  0  0
  1  3  1  0  0  0  0
  1  8  1  0  0  0  0
  3  4  1  0  0  0  0
  3 32  1  6  0  0  0
  4  5  1  0  0  0  0
  4 33  1  1  0  0  0
  5  6  1  6  0  0  0
  5  7  1  0  0  0  0
  7  8  1  0  0  0  0
  7  9  1  1  0  0  0
  9 10  1  0  0  0  0
 11 12  1  1  0  0  0
 11 13  1  0  0  0  0
 11 19  1  0  0  0  0
 12 34  1  0  0  0  0
 13 14  1  0  0  0  0
 14 15  1  1  0  0  0
 14 16  1  0  0  0  0
 16  2  1  6  0  0  0
 16 17  1  0  0  0  0
 17 18  1  6  0  0  0
 17 19  1  0  0  0  0
 19 20  1  6  0  0  0
 21 20  1  6  0  0  0
 21 22  1  0  0  0  0
 21 29  1  0  0  0  0
 22 23  1  6  0  0  0
 22 24  1  0  0  0  0
 24 25  1  6  0  0  0
 24 26  1  0  0  0  0
 26 27  1  6  0  0  0
 26 28  1  0  0  0  0
 28 29  1  0  0  0  0
 28 30  1  1  0  0  0
 30 31  1  0  0  0  0
 34 35  2  0  0  0  0
 36 34  1  6  0  0  0
 36 38  1  0  0  0  0
 36 40  1  0  0  0  0
 37 39  1  0  0  0  0
 38 39  1  0  0  0  0
M  END
>  <CHROM.1>
-85.36452392,-80.35522731,178.74806284,-90.80045430,83.84747679,-164.41318109
70.82762004,-65.79542566,177.77203768,72.61933807,-0.49690764,-10.02340142
16.13611999,3.04612425,0.12087086,-2.22530083

>  <Name>
ligand

>  <RI>
0

>  <Rbt.Current_Directory>
/home/itssahil/PROJECTS/Mol_Feturizer/New_Systems/rnas/4P20

>  <Rbt.Executable>
rbdock ($Id: //depot/dev/client3/rdock/2013.1/src/exe/rbdock.cxx#4 $)

>  <Rbt.Library>
libRbt.so (2013.1, Build901 2013/11/27)

>  <Rbt.Parameter_File>
/export/apps/rDock/src/rDock_2013.1_src/data/scripts/dock_solv.prm

>  <Rbt.Receptor>
prm/pocket_docking_5.prm

>  <SCORE>
-8.97866

>  <SCORE.INTER>
-1.83472

>  <SCORE.INTER.CONST>
1

>  <SCORE.INTER.POLAR>
0

>  <SCORE.INTER.ROT>
10

>  <SCORE.INTER.SOLV>
24.8014

>  <SCORE.INTER.VDW>
-19.7569

>  <SCORE.INTER.norm>
-0.045868

>  <SCORE.INTRA>
-7.14394

>  <SCORE.INTRA.DIHEDRAL>
-17.5918

>  <SCORE.INTRA.DIHEDRAL.0>
28.2802

>  <SCORE.INTRA.POLAR>
0

>  <SCORE.INTRA.POLAR.0>
0

>  <SCORE.INTRA.REPUL>
0

>  <SCORE.INTRA.REPUL.0>
0

>  <SCORE.INTRA.SOLV>
0.958566

>  <SCORE.INTRA.SOLV.lig_0>
-101.981

>  <SCORE.INTRA.VDW>
1.17266

>  <SCORE.INTRA.VDW.0>
-5.72964

>  <SCORE.INTRA.norm>
-0.178598

>  <SCORE.RESTR>
0

>  <SCORE.RESTR.CAVITY>
0

>  <SCORE.RESTR.norm>
0

>  <SCORE.SYSTEM>
0

>  <SCORE.SYSTEM.CONST>
0

>  <SCORE.SYSTEM.DIHEDRAL>
0

>  <SCORE.SYSTEM.SOLV>
0

>  <SCORE.SYSTEM.norm>
0

>  <SCORE.heavy>
40

>  <SCORE.norm>
-0.224466

>  <RMSD>
8.348

$$$$
ligand
 OpenBabel11021811513D
libRbt.so/2013.1/901 2013/11/27
 40 42  0  0  0  0  0  0  0  0999 V2000
   -6.2117   -9.5479   17.7465 C   0  0  2  0  0  0  0  0  0  0  0  0
   -4.9658   -9.5504   17.0319 O   0  0  0  0  0  0  0  0  0  0  0  0
   -6.2294  -10.6879   18.8325 C   0  0  1  0  0  0  0  0  0  0  0  0
   -6.1963  -12.1006   18.1796 C   0  0  2  0  0  0  0  0  0  0  0  0
   -7.4555  -12.2307   17.2654 C   0  0  2  0  0  0  0  0  0  0  0  0
   -7.4716  -13.5421   16.6616 O   0  0  0  0  0  0  0  0  0  0  0  0
   -7.3892  -11.0964   16.1516 C   0  0  2  0  0  0  0  0  0  0  0  0
   -7.3646   -9.7414   16.8100 O   0  0  0  0  0  0  0  0  0  0  0  0
   -8.5903  -11.1262   15.2163 C   0  0  0  0  0  0  0  0  0  0  0  0
   -8.4761  -10.0904   14.1418 N   0  0  0  0  0  0  0  0  0  0  0  0
   -1.0770   -7.6256   17.7404 C   0  0  2  0  0  0  0  0  0  0  0  0
    0.1500   -7.2470   18.4018 N   0  0  0  0  0  0  0  0  0  0  0  0
   -2.3129   -7.1661   18.6145 C   0  0  0  0  0  0  0  0  0  0  0  0
   -3.6754   -7.5816   17.8991 C   0  0  2  0  0  0  0  0  0  0  0  0
   -4.8357   -7.1346   18.7136 N   0  0  0  0  0  0  0  0  0  0  0  0
   -3.6946   -9.1663   17.6862 C   0  0  2  0  0  0  0  0  0  0  0  0
   -2.4375   -9.5771   16.8072 C   0  0  2  0  0  0  0  0  0  0  0  0
   -2.4478  -10.9925   16.6080 O   0  0  0  0  0  0  0  0  0  0  0  0
   -1.0954   -9.1559   17.5260 C   0  0  1  0  0  0  0  0  0  0  0  0
    0.0405   -9.5186   16.7020 O   0  0  0  0  0  0  0  0  0  0  0  0
    0.4841   -8.8136   15.5925 C   0  0  2  0  0  0  0  0  0  0  0  0
    0.6988   -9.8480   14.4310 C   0  0  2  0  0  0  0  0  0  0  0  0
   -0.4890  -10.5282   14.1829 O   0  0  0  0  0  0  0  0  0  0  0  0
    1.8820  -10.8574   14.7513 C   0  0  1  0  0  0  0  0  0  0  0  0
    2.0773  -11.8249   13.6275 N   0  0  0  0  0  0  0  0  0  0  0  0
    3.2075  -10.0194   15.0193 C   0  0  2  0  0  0  0  0  0  0  0  0
    4.3110  -10.8891   15.3013 O   0  0  0  0  0  0  0  0  0  0  0  0
    2.9290   -9.0303   16.2164 C   0  0  2  0  0  0  0  0  0  0  0  0
    1.7572   -8.1117   15.8979 O   0  0  0  0  0  0  0  0  0  0  0  0
    4.1421   -8.1827   16.5171 C   0  0  0  0  0  0  0  0  0  0  0  0
    5.2531   -8.9562   17.0071 O   0  0  0  0  0  0  0  0  0  0  0  0
   -5.0829  -10.4996   19.7123 O   0  0  0  0  0  0  0  0  0  0  0  0
   -6.2262  -13.0535   19.1689 O   0  0  0  0  0  0  0  0  0  0  0  0
    0.4764   -7.8517   19.6725 C   0  0  0  0  0  0  0  0  0  0  0  0
   -0.4451   -8.3382   20.3931 O   0  0  0  0  0  0  0  0  0  0  0  0
    1.9739   -7.8727   20.1079 C   0  0  2  0  0  0  0  0  0  0  0  0
    3.0145   -5.1003   21.0915 N   0  0  0  0  0  0  0  0  0  0  0  0
    2.8041   -6.8251   19.3038 C   0  0  0  0  0  0  0  0  0  0  0  0
    2.5180   -5.3729   19.7213 C   0  0  0  0  0  0  0  0  0  0  0  0
    2.5338   -8.9925   19.8830 O   0  0  0  0  0  0  0  0  0  0  0  0
  1  2  1  6  0  0  0
  1  3  1  0  0  0  0
  1  8  1  0  0  0  0
  3  4  1  0  0  0  0
  3 32  1  1  0  0  0
  4  5  1  0  0  0  0
  4 33  1  1  0  0  0
  5  6  1  6  0  0  0
  5  7  1  0  0  0  0
  7  8  1  0  0  0  0
  7  9  1  6  0  0  0
  9 10  1  0  0  0  0
 11 12  1  1  0  0  0
 11 13  1  0  0  0  0
 11 19  1  0  0  0  0
 12 34  1  0  0  0  0
 13 14  1  0  0  0  0
 14 15  1  1  0  0  0
 14 16  1  0  0  0  0
 16  2  1  6  0  0  0
 16 17  1  0  0  0  0
 17 18  1  1  0  0  0
 17 19  1  0  0  0  0
 19 20  1  6  0  0  0
 21 20  1  1  0  0  0
 21 22  1  0  0  0  0
 21 29  1  0  0  0  0
 22 23  1  1  0  0  0
 22 24  1  0  0  0  0
 24 25  1  6  0  0  0
 24 26  1  0  0  0  0
 26 27  1  1  0  0  0
 26 28  1  0  0  0  0
 28 29  1  0  0  0  0
 28 30  1  6  0  0  0
 30 31  1  0  0  0  0
 34 35  2  0  0  0  0
 36 34  1  6  0  0  0
 36 38  1  0  0  0  0
 36 40  1  0  0  0  0
 37 39  1  0  0  0  0
 38 39  1  0  0  0  0
M  END
>  <CHROM.1>
-68.52530078,-73.49622031,-177.48258549,64.84998420,-41.50782333,-131.80867064
-65.68080942,18.61758294,72.55928731,68.21034684,-1.58919813,-9.42988214
17.31005451,2.95153456,-0.19026946,-2.21633827

>  <Name>
ligand

>  <RI>
0

>  <Rbt.Current_Directory>
/home/itssahil/PROJECTS/Mol_Feturizer/New_Systems/rnas/4P20

>  <Rbt.Executable>
rbdock ($Id: //depot/dev/client3/rdock/2013.1/src/exe/rbdock.cxx#4 $)

>  <Rbt.Library>
libRbt.so (2013.1, Build901 2013/11/27)

>  <Rbt.Parameter_File>
/export/apps/rDock/src/rDock_2013.1_src/data/scripts/dock_solv.prm

>  <Rbt.Receptor>
prm/pocket_docking_4.prm

>  <SCORE>
-7.05991

>  <SCORE.INTER>
-1.92087

>  <SCORE.INTER.CONST>
1

>  <SCORE.INTER.POLAR>
0

>  <SCORE.INTER.ROT>
10

>  <SCORE.INTER.SOLV>
15.3154

>  <SCORE.INTER.VDW>
-16.6524

>  <SCORE.INTER.norm>
-0.0480218

>  <SCORE.INTRA>
-5.13904

>  <SCORE.INTRA.DIHEDRAL>
-15.9387

>  <SCORE.INTRA.DIHEDRAL.0>
28.2802

>  <SCORE.INTRA.POLAR>
0

>  <SCORE.INTRA.POLAR.0>
0

>  <SCORE.INTRA.REPUL>
0

>  <SCORE.INTRA.REPUL.0>
0

>  <SCORE.INTRA.SOLV>
2.82472

>  <SCORE.INTRA.SOLV.lig_0>
-101.981

>  <SCORE.INTRA.VDW>
1.41796

>  <SCORE.INTRA.VDW.0>
-5.72964

>  <SCORE.INTRA.norm>
-0.128476

>  <SCORE.RESTR>
0

>  <SCORE.RESTR.CAVITY>
0

>  <SCORE.RESTR.norm>
0

>  <SCORE.SYSTEM>
0

>  <SCORE.SYSTEM.CONST>
0

>  <SCORE.SYSTEM.DIHEDRAL>
0

>  <SCORE.SYSTEM.SOLV>
0

>  <SCORE.SYSTEM.norm>
0

>  <SCORE.heavy>
40

>  <SCORE.norm>
-0.176498

>  <RMSD>
8.360

$$$$
ligand
 OpenBabel11021811513D
libRbt.so/2013.1/901 2013/11/27
 40 42  0  0  0  0  0  0  0  0999 V2000
    2.2600  -12.0962   14.5766 C   0  0  2  0  0  0  0  0  0  0  0  0
    1.4000  -13.1105   15.1194 O   0  0  0  0  0  0  0  0  0  0  0  0
    1.9790  -11.8959   13.0403 C   0  0  1  0  0  0  0  0  0  0  0  0
    2.3598  -13.1622   12.2192 C   0  0  2  0  0  0  0  0  0  0  0  0
    3.8818  -13.4319   12.4409 C   0  0  2  0  0  0  0  0  0  0  0  0
    4.2771  -14.5877   11.6713 O   0  0  0  0  0  0  0  0  0  0  0  0
    4.1299  -13.6748   13.9936 C   0  0  2  0  0  0  0  0  0  0  0  0
    3.7005  -12.4578   14.7712 O   0  0  0  0  0  0  0  0  0  0  0  0
    5.5958  -13.9281   14.3176 C   0  0  0  0  0  0  0  0  0  0  0  0
    5.7501  -14.7567   15.5547 N   0  0  0  0  0  0  0  0  0  0  0  0
    0.9053  -11.8181   19.2925 C   0  0  2  0  0  0  0  0  0  0  0  0
    0.5011  -11.8318   20.6792 N   0  0  0  0  0  0  0  0  0  0  0  0
   -0.3765  -11.8759   18.3671 C   0  0  0  0  0  0  0  0  0  0  0  0
    0.0542  -11.8664   16.8324 C   0  0  2  0  0  0  0  0  0  0  0  0
   -1.1518  -11.9041   15.9643 N   0  0  0  0  0  0  0  0  0  0  0  0
    1.0108  -13.1157   16.5477 C   0  0  2  0  0  0  0  0  0  0  0  0
    2.2782  -13.0136   17.4991 C   0  0  2  0  0  0  0  0  0  0  0  0
    3.1419  -14.1248   17.2494 O   0  0  0  0  0  0  0  0  0  0  0  0
    1.8364  -13.0200   19.0157 C   0  0  1  0  0  0  0  0  0  0  0  0
    3.0018  -12.9052   19.8696 O   0  0  0  0  0  0  0  0  0  0  0  0
    4.0975  -13.7561   19.8498 C   0  0  2  0  0  0  0  0  0  0  0  0
    4.5710  -13.9504   21.3341 C   0  0  2  0  0  0  0  0  0  0  0  0
    3.5245  -14.4565   22.0982 O   0  0  0  0  0  0  0  0  0  0  0  0
    5.1347  -12.6019   21.9548 C   0  0  1  0  0  0  0  0  0  0  0  0
    5.5912  -12.8123   23.3634 N   0  0  0  0  0  0  0  0  0  0  0  0
    6.3277  -12.0802   21.0405 C   0  0  2  0  0  0  0  0  0  0  0  0
    6.8804  -10.8678   21.5679 O   0  0  0  0  0  0  0  0  0  0  0  0
    5.7718  -11.8753   19.5784 C   0  0  2  0  0  0  0  0  0  0  0  0
    5.1928  -13.1736   19.0327 O   0  0  0  0  0  0  0  0  0  0  0  0
    6.8577  -11.3978   18.6439 C   0  0  0  0  0  0  0  0  0  0  0  0
    7.3718  -10.1024   19.0049 O   0  0  0  0  0  0  0  0  0  0  0  0
    0.5670  -11.5770   12.8713 O   0  0  0  0  0  0  0  0  0  0  0  0
    2.1069  -12.9281   10.8893 O   0  0  0  0  0  0  0  0  0  0  0  0
   -0.1456  -10.6643   21.2320 C   0  0  0  0  0  0  0  0  0  0  0  0
    0.0270   -9.5328   20.6890 O   0  0  0  0  0  0  0  0  0  0  0  0
   -1.0377  -10.8542   22.4972 C   0  0  2  0  0  0  0  0  0  0  0  0
   -3.9323  -10.9077   23.6033 N   0  0  0  0  0  0  0  0  0  0  0  0
   -1.9896   -9.6347   22.6976 C   0  0  0  0  0  0  0  0  0  0  0  0
   -2.9680   -9.8138   23.8706 C   0  0  0  0  0  0  0  0  0  0  0  0
   -0.3574  -10.9318   23.5692 O   0  0  0  0  0  0  0  0  0  0  0  0
  1  2  1  6  0  0  0
  1  3  1  0  0  0  0
  1  8  1  0  0  0  0
  3  4  1  0  0  0  0
  3 32  1  1  0  0  0
  4  5  1  0  0  0  0
  4 33  1  6  0  0  0
  5  6  1  6  0  0  0
  5  7  1  0  0  0  0
  7  8  1  0  0  0  0
  7  9  1  6  0  0  0
  9 10  1  0  0  0  0
 11 12  1  1  0  0  0
 11 13  1  0  0  0  0
 11 19  1  0  0  0  0
 12 34  1  0  0  0  0
 13 14  1  0  0  0  0
 14 15  1  6  0  0  0
 14 16  1  0  0  0  0
 16  2  1  6  0  0  0
 16 17  1  0  0  0  0
 17 18  1  1  0  0  0
 17 19  1  0  0  0  0
 19 20  1  1  0  0  0
 21 20  1  1  0  0  0
 21 22  1  0  0  0  0
 21 29  1  0  0  0  0
 22 23  1  1  0  0  0
 22 24  1  0  0  0  0
 24 25  1  1  0  0  0
 24 26  1  0  0  0  0
 26 27  1  1  0  0  0
 26 28  1  0  0  0  0
 28 29  1  0  0  0  0
 28 30  1  6  0  0  0
 30 31  1  0  0  0  0
 34 35  2  0  0  0  0
 36 34  1  6  0  0  0
 36 38  1  0  0  0  0
 36 40  1  0  0  0  0
 37 39  1  0  0  0  0
 38 39  1  0  0  0  0
M  END
>  <CHROM.1>
-153.04318869,68.31279736,-153.13143954,-70.75752872,-175.97940847,-142.31932704
-63.72156970,-162.41613643,175.66809427,-66.14816576,2.53177619,-12.31139075
18.18744011,1.26611776,0.20553101,-1.72683489

>  <Name>
ligand

>  <RI>
0

>  <Rbt.Current_Directory>
/home/itssahil/PROJECTS/Mol_Feturizer/New_Systems/rnas/4P20

>  <Rbt.Executable>
rbdock ($Id: //depot/dev/client3/rdock/2013.1/src/exe/rbdock.cxx#4 $)

>  <Rbt.Library>
libRbt.so (2013.1, Build901 2013/11/27)

>  <Rbt.Parameter_File>
/export/apps/rDock/src/rDock_2013.1_src/data/scripts/dock_solv.prm

>  <Rbt.Receptor>
prm/pocket_docking_7.prm

>  <SCORE>
-3.79711

>  <SCORE.INTER>
1.50455

>  <SCORE.INTER.CONST>
1

>  <SCORE.INTER.POLAR>
0

>  <SCORE.INTER.ROT>
10

>  <SCORE.INTER.SOLV>
9.44957

>  <SCORE.INTER.VDW>
-12.4135

>  <SCORE.INTER.norm>
0.0376138

>  <SCORE.INTRA>
-5.30166

>  <SCORE.INTRA.DIHEDRAL>
-16.1165

>  <SCORE.INTRA.DIHEDRAL.0>
28.2802

>  <SCORE.INTRA.POLAR>
0

>  <SCORE.INTRA.POLAR.0>
0

>  <SCORE.INTRA.REPUL>
0.0038865

>  <SCORE.INTRA.REPUL.0>
0

>  <SCORE.INTRA.SOLV>
1.53933

>  <SCORE.INTRA.SOLV.lig_0>
-101.981

>  <SCORE.INTRA.VDW>
1.9675

>  <SCORE.INTRA.VDW.0>
-5.72964

>  <SCORE.INTRA.norm>
-0.132541

>  <SCORE.RESTR>
0

>  <SCORE.RESTR.CAVITY>
0

>  <SCORE.RESTR.norm>
0

>  <SCORE.SYSTEM>
0

>  <SCORE.SYSTEM.CONST>
0

>  <SCORE.SYSTEM.DIHEDRAL>
0

>  <SCORE.SYSTEM.SOLV>
0

>  <SCORE.SYSTEM.norm>
0

>  <SCORE.heavy>
40

>  <SCORE.norm>
-0.0949277

>  <RMSD>
8.370

$$$$
ligand
 OpenBabel11021811513D
libRbt.so/2013.1/901 2013/11/27
 40 42  0  0  0  0  0  0  0  0999 V2000
   -5.4070   -8.5368   17.0058 C   0  0  2  0  0  0  0  0  0  0  0  0
   -4.0453   -8.7086   16.5825 O   0  0  0  0  0  0  0  0  0  0  0  0
   -5.8516   -9.7261   17.9371 C   0  0  1  0  0  0  0  0  0  0  0  0
   -5.8870  -11.0762   17.1634 C   0  0  2  0  0  0  0  0  0  0  0  0
   -6.9048  -10.9240   15.9890 C   0  0  2  0  0  0  0  0  0  0  0  0
   -6.9832  -12.1694   15.2629 O   0  0  0  0  0  0  0  0  0  0  0  0
   -6.4080   -9.7470   15.0406 C   0  0  2  0  0  0  0  0  0  0  0  0
   -6.3274   -8.4639   15.8263 O   0  0  0  0  0  0  0  0  0  0  0  0
   -7.3497   -9.5049   13.8690 C   0  0  0  0  0  0  0  0  0  0  0  0
   -8.7181   -9.1165   14.3348 N   0  0  0  0  0  0  0  0  0  0  0  0
   -0.2061   -7.8290   18.5360 C   0  0  2  0  0  0  0  0  0  0  0  0
    0.8649   -7.8683   19.5044 N   0  0  0  0  0  0  0  0  0  0  0  0
   -1.5359   -7.3366   19.2374 C   0  0  0  0  0  0  0  0  0  0  0  0
   -2.7290   -7.2927   18.1812 C   0  0  2  0  0  0  0  0  0  0  0  0
   -3.9737   -6.8142   18.8380 N   0  0  0  0  0  0  0  0  0  0  0  0
   -2.9295   -8.7501   17.5545 C   0  0  2  0  0  0  0  0  0  0  0  0
   -1.5709   -9.1993   16.8658 C   0  0  2  0  0  0  0  0  0  0  0  0
   -1.7411  -10.5003   16.2988 O   0  0  0  0  0  0  0  0  0  0  0  0
   -0.3973   -9.2344   17.9225 C   0  0  1  0  0  0  0  0  0  0  0  0
    0.8387   -9.6254   17.2744 O   0  0  0  0  0  0  0  0  0  0  0  0
    1.5856   -8.8249   16.4223 C   0  0  2  0  0  0  0  0  0  0  0  0
    1.3113   -9.3126   14.9553 C   0  0  2  0  0  0  0  0  0  0  0  0
   -0.0514   -9.2427   14.6846 O   0  0  0  0  0  0  0  0  0  0  0  0
    1.8714  -10.7774   14.7063 C   0  0  1  0  0  0  0  0  0  0  0  0
    1.6107  -11.2168   13.3006 N   0  0  0  0  0  0  0  0  0  0  0  0
    3.4295  -10.7882   15.0275 C   0  0  2  0  0  0  0  0  0  0  0  0
    3.9861  -12.0897   14.8048 O   0  0  0  0  0  0  0  0  0  0  0  0
    3.6255  -10.3226   16.5221 C   0  0  2  0  0  0  0  0  0  0  0  0
    3.0325   -8.9370   16.7394 O   0  0  0  0  0  0  0  0  0  0  0  0
    5.0883  -10.2882   16.8954 C   0  0  0  0  0  0  0  0  0  0  0  0
    5.3003   -9.9788   18.2853 O   0  0  0  0  0  0  0  0  0  0  0  0
   -4.9250   -9.7992   19.0597 O   0  0  0  0  0  0  0  0  0  0  0  0
   -6.2920  -12.0731   18.0177 O   0  0  0  0  0  0  0  0  0  0  0  0
    1.9030   -6.8656   19.4422 C   0  0  0  0  0  0  0  0  0  0  0  0
    2.1276   -6.2590   18.3528 O   0  0  0  0  0  0  0  0  0  0  0  0
    2.7166   -6.5754   20.7408 C   0  0  2  0  0  0  0  0  0  0  0  0
    5.2162   -8.3902   20.5714 N   0  0  0  0  0  0  0  0  0  0  0  0
    4.1731   -6.1325   20.4002 C   0  0  0  0  0  0  0  0  0  0  0  0
    4.9886   -7.2232   19.6858 C   0  0  0  0  0  0  0  0  0  0  0  0
    2.8400   -7.6022   21.4814 O   0  0  0  0  0  0  0  0  0  0  0  0
  1  2  1  6  0  0  0
  1  3  1  0  0  0  0
  1  8  1  0  0  0  0
  3  4  1  0  0  0  0
  3 32  1  1  0  0  0
  4  5  1  0  0  0  0
  4 33  1  1  0  0  0
  5  6  1  6  0  0  0
  5  7  1  0  0  0  0
  7  8  1  0  0  0  0
  7  9  1  6  0  0  0
  9 10  1  0  0  0  0
 11 12  1  1  0  0  0
 11 13  1  0  0  0  0
 11 19  1  0  0  0  0
 12 34  1  0  0  0  0
 13 14  1  0  0  0  0
 14 15  1  1  0  0  0
 14 16  1  0  0  0  0
 16  2  1  6  0  0  0
 16 17  1  0  0  0  0
 17 18  1  1  0  0  0
 17 19  1  0  0  0  0
 19 20  1  6  0  0  0
 21 20  1  1  0  0  0
 21 22  1  0  0  0  0
 21 29  1  0  0  0  0
 22 23  1  1  0  0  0
 22 24  1  0  0  0  0
 24 25  1  6  0  0  0
 24 26  1  0  0  0  0
 26 27  1  1  0  0  0
 26 28  1  0  0  0  0
 28 29  1  0  0  0  0
 28 30  1  6  0  0  0
 30 31  1  0  0  0  0
 34 35  2  0  0  0  0
 36 34  1  6  0  0  0
 36 38  1  0  0  0  0
 36 40  1  0  0  0  0
 37 39  1  0  0  0  0
 38 39  1  0  0  0  0
M  END
>  <CHROM.1>
-61.43542401,-69.88414873,60.75577598,-107.28612352,-46.67041661,-103.28463978
-174.99465000,149.34259879,-63.43036949,-65.60283299,-0.83905756,-9.15463407
17.22958040,2.90178765,0.02048977,-2.19974608

>  <Name>
ligand

>  <RI>
0

>  <Rbt.Current_Directory>
/home/itssahil/PROJECTS/Mol_Feturizer/New_Systems/rnas/4P20

>  <Rbt.Executable>
rbdock ($Id: //depot/dev/client3/rdock/2013.1/src/exe/rbdock.cxx#4 $)

>  <Rbt.Library>
libRbt.so (2013.1, Build901 2013/11/27)

>  <Rbt.Parameter_File>
/export/apps/rDock/src/rDock_2013.1_src/data/scripts/dock_solv.prm

>  <Rbt.Receptor>
prm/pocket_docking_6.prm

>  <SCORE>
-6.17395

>  <SCORE.INTER>
-3.22717

>  <SCORE.INTER.CONST>
1

>  <SCORE.INTER.POLAR>
0

>  <SCORE.INTER.ROT>
10

>  <SCORE.INTER.SOLV>
18.7904

>  <SCORE.INTER.VDW>
-18.6816

>  <SCORE.INTER.norm>
-0.0806793

>  <SCORE.INTRA>
-2.94678

>  <SCORE.INTRA.DIHEDRAL>
-18.0545

>  <SCORE.INTRA.DIHEDRAL.0>
28.2802

>  <SCORE.INTRA.POLAR>
0

>  <SCORE.INTRA.POLAR.0>
0

>  <SCORE.INTRA.REPUL>
0

>  <SCORE.INTRA.REPUL.0>
0

>  <SCORE.INTRA.SOLV>
7.15198

>  <SCORE.INTRA.SOLV.lig_0>
-101.981

>  <SCORE.INTRA.VDW>
2.50446

>  <SCORE.INTRA.VDW.0>
-5.72964

>  <SCORE.INTRA.norm>
-0.0736695

>  <SCORE.RESTR>
0

>  <SCORE.RESTR.CAVITY>
0

>  <SCORE.RESTR.norm>
0

>  <SCORE.SYSTEM>
0

>  <SCORE.SYSTEM.CONST>
0

>  <SCORE.SYSTEM.DIHEDRAL>
0

>  <SCORE.SYSTEM.SOLV>
0

>  <SCORE.SYSTEM.norm>
0

>  <SCORE.heavy>
40

>  <SCORE.norm>
-0.154349

>  <RMSD>
8.379

$$$$
ligand
 OpenBabel11021811513D
libRbt.so/2013.1/901 2013/11/27
 40 42  0  0  0  0  0  0  0  0999 V2000
   -3.3709  -10.4891   15.6191 C   0  0  2  0  0  0  0  0  0  0  0  0
   -2.6135   -9.6777   16.5308 O   0  0  0  0  0  0  0  0  0  0  0  0
   -4.9061  -10.1557   15.7254 C   0  0  1  0  0  0  0  0  0  0  0  0
   -5.4823  -10.5505   17.1164 C   0  0  2  0  0  0  0  0  0  0  0  0
   -5.2675  -12.0861   17.3008 C   0  0  2  0  0  0  0  0  0  0  0  0
   -5.8149  -12.4937   18.5732 O   0  0  0  0  0  0  0  0  0  0  0  0
   -3.7068  -12.3884   17.2340 C   0  0  2  0  0  0  0  0  0  0  0  0
   -3.1621  -11.9453   15.9010 O   0  0  0  0  0  0  0  0  0  0  0  0
   -3.3927  -13.8707   17.3842 C   0  0  0  0  0  0  0  0  0  0  0  0
   -1.9184  -14.1139   17.4727 N   0  0  0  0  0  0  0  0  0  0  0  0
    1.7286   -9.0324   16.7738 C   0  0  2  0  0  0  0  0  0  0  0  0
    3.1258   -9.2842   17.0399 N   0  0  0  0  0  0  0  0  0  0  0  0
    0.9071   -9.1298   18.1223 C   0  0  0  0  0  0  0  0  0  0  0  0
   -0.6388   -8.8588   17.8434 C   0  0  2  0  0  0  0  0  0  0  0  0
   -1.4067   -8.9344   19.1138 N   0  0  0  0  0  0  0  0  0  0  0  0
   -1.1752   -9.9249   16.7792 C   0  0  2  0  0  0  0  0  0  0  0  0
   -0.3204   -9.7893   15.4477 C   0  0  2  0  0  0  0  0  0  0  0  0
   -0.7952  -10.7363   14.4880 O   0  0  0  0  0  0  0  0  0  0  0  0
    1.2089  -10.0562   15.7395 C   0  0  1  0  0  0  0  0  0  0  0  0
    1.9772   -9.9082   14.5195 O   0  0  0  0  0  0  0  0  0  0  0  0
    3.1916  -10.5254   14.2566 C   0  0  2  0  0  0  0  0  0  0  0  0
    3.8184   -9.8189   13.0024 C   0  0  2  0  0  0  0  0  0  0  0  0
    3.9623   -8.4582   13.2534 O   0  0  0  0  0  0  0  0  0  0  0  0
    2.9591  -10.0728   11.6915 C   0  0  1  0  0  0  0  0  0  0  0  0
    3.5802   -9.4021   10.5078 N   0  0  0  0  0  0  0  0  0  0  0  0
    2.8370  -11.6419   11.4589 C   0  0  2  0  0  0  0  0  0  0  0  0
    2.0784  -11.9235   10.2762 O   0  0  0  0  0  0  0  0  0  0  0  0
    2.1700  -12.2773   12.7397 C   0  0  2  0  0  0  0  0  0  0  0  0
    2.9909  -11.9720   13.9852 O   0  0  0  0  0  0  0  0  0  0  0  0
    2.0388  -13.7752   12.6001 C   0  0  0  0  0  0  0  0  0  0  0  0
    1.3577  -14.3799   13.7151 O   0  0  0  0  0  0  0  0  0  0  0  0
   -5.0827   -8.7300   15.4798 O   0  0  0  0  0  0  0  0  0  0  0  0
   -6.8227  -10.2504   17.1490 O   0  0  0  0  0  0  0  0  0  0  0  0
    4.1037   -8.2984   16.6414 C   0  0  0  0  0  0  0  0  0  0  0  0
    3.8279   -7.4756   15.7184 O   0  0  0  0  0  0  0  0  0  0  0  0
    5.4797   -8.2967   17.3757 C   0  0  2  0  0  0  0  0  0  0  0  0
    7.7196  -10.5635   15.1390 N   0  0  0  0  0  0  0  0  0  0  0  0
    6.3478   -9.5168   16.9383 C   0  0  0  0  0  0  0  0  0  0  0  0
    6.8248   -9.4312   15.4788 C   0  0  0  0  0  0  0  0  0  0  0  0
    5.3616   -8.4010   18.6379 O   0  0  0  0  0  0  0  0  0  0  0  0
  1  2  1  1  0  0  0
  1  3  1  0  0  0  0
  1  8  1  0  0  0  0
  3  4  1  0  0  0  0
  3 32  1  1  0  0  0
  4  5  1  0  0  0  0
  4 33  1  6  0  0  0
  5  6  1  1  0  0  0
  5  7  1  0  0  0  0
  7  8  1  0  0  0  0
  7  9  1  6  0  0  0
  9 10  1  0  0  0  0
 11 12  1  1  0  0  0
 11 13  1  0  0  0  0
 11 19  1  0  0  0  0
 12 34  1  0  0  0  0
 13 14  1  0  0  0  0
 14 15  1  1  0  0  0
 14 16  1  0  0  0  0
 16  2  1  6  0  0  0
 16 17  1  0  0  0  0
 17 18  1  6  0  0  0
 17 19  1  0  0  0  0
 19 20  1  6  0  0  0
 21 20  1  6  0  0  0
 21 22  1  0  0  0  0
 21 29  1  0  0  0  0
 22 23  1  1  0  0  0
 22 24  1  0  0  0  0
 24 25  1  6  0  0  0
 24 26  1  0  0  0  0
 26 27  1  6  0  0  0
 26 28  1  0  0  0  0
 28 29  1  0  0  0  0
 28 30  1  6  0  0  0
 30 31  1  0  0  0  0
 34 35  2  0  0  0  0
 36 34  1  6  0  0  0
 36 38  1  0  0  0  0
 36 40  1  0  0  0  0
 37 39  1  0  0  0  0
 38 39  1  0  0  0  0
M  END
>  <CHROM.1>
170.84218055,-179.68907161,-173.60224190,-124.47009277,85.83067983,-166.34182007
-176.34679258,72.55816681,68.48088150,176.13046827,0.56346608,-10.47727203
15.50689313,2.98544755,0.25852894,1.05752958

>  <Name>
ligand

>  <RI>
0

>  <Rbt.Current_Directory>
/home/itssahil/PROJECTS/Mol_Feturizer/New_Systems/rnas/4P20

>  <Rbt.Executable>
rbdock ($Id: //depot/dev/client3/rdock/2013.1/src/exe/rbdock.cxx#4 $)

>  <Rbt.Library>
libRbt.so (2013.1, Build901 2013/11/27)

>  <Rbt.Parameter_File>
/export/apps/rDock/src/rDock_2013.1_src/data/scripts/dock_solv.prm

>  <Rbt.Receptor>
prm/pocket_docking_6.prm

>  <SCORE>
-14.4068

>  <SCORE.INTER>
-2.94928

>  <SCORE.INTER.CONST>
1

>  <SCORE.INTER.POLAR>
0

>  <SCORE.INTER.ROT>
10

>  <SCORE.INTER.SOLV>
18.2034

>  <SCORE.INTER.VDW>
-18.3007

>  <SCORE.INTER.norm>
-0.073732

>  <SCORE.INTRA>
-11.4575

>  <SCORE.INTRA.DIHEDRAL>
-21.496

>  <SCORE.INTRA.DIHEDRAL.0>
28.2802

>  <SCORE.INTRA.POLAR>
0

>  <SCORE.INTRA.POLAR.0>
0

>  <SCORE.INTRA.REPUL>
0

>  <SCORE.INTRA.REPUL.0>
0

>  <SCORE.INTRA.SOLV>
-1.05819

>  <SCORE.INTRA.SOLV.lig_0>
-101.981

>  <SCORE.INTRA.VDW>
-0.180395

>  <SCORE.INTRA.VDW.0>
-5.72964

>  <SCORE.INTRA.norm>
-0.286438

>  <SCORE.RESTR>
0

>  <SCORE.RESTR.CAVITY>
0

>  <SCORE.RESTR.norm>
0

>  <SCORE.SYSTEM>
0

>  <SCORE.SYSTEM.CONST>
0

>  <SCORE.SYSTEM.DIHEDRAL>
0

>  <SCORE.SYSTEM.SOLV>
0

>  <SCORE.SYSTEM.norm>
0

>  <SCORE.heavy>
40

>  <SCORE.norm>
-0.36017

>  <RMSD>
8.381

$$$$
ligand
 OpenBabel11021811513D
libRbt.so/2013.1/901 2013/11/27
 40 42  0  0  0  0  0  0  0  0999 V2000
   -2.7860  -14.7244   19.2418 C   0  0  2  0  0  0  0  0  0  0  0  0
   -2.9108  -14.0200   17.9964 O   0  0  0  0  0  0  0  0  0  0  0  0
   -4.2035  -14.9791   19.8784 C   0  0  1  0  0  0  0  0  0  0  0  0
   -4.8931  -13.6460   20.2910 C   0  0  2  0  0  0  0  0  0  0  0  0
   -3.9718  -12.9378   21.3341 C   0  0  2  0  0  0  0  0  0  0  0  0
   -4.5941  -11.7065   21.7599 O   0  0  0  0  0  0  0  0  0  0  0  0
   -2.5634  -12.6526   20.6511 C   0  0  2  0  0  0  0  0  0  0  0  0
   -1.9426  -13.9525   20.2094 O   0  0  0  0  0  0  0  0  0  0  0  0
   -1.5812  -11.9780   21.5990 C   0  0  0  0  0  0  0  0  0  0  0  0
   -1.2340  -12.8652   22.7535 N   0  0  0  0  0  0  0  0  0  0  0  0
    0.1279  -13.5875   14.8486 C   0  0  2  0  0  0  0  0  0  0  0  0
    1.2787  -13.0893   14.1317 N   0  0  0  0  0  0  0  0  0  0  0  0
   -0.9181  -12.4177   15.0486 C   0  0  0  0  0  0  0  0  0  0  0  0
   -2.1926  -12.9516   15.8432 C   0  0  2  0  0  0  0  0  0  0  0  0
   -3.1816  -11.8554   16.0158 N   0  0  0  0  0  0  0  0  0  0  0  0
   -1.7239  -13.5352   17.2562 C   0  0  2  0  0  0  0  0  0  0  0  0
   -0.6765  -14.7018   17.0029 C   0  0  2  0  0  0  0  0  0  0  0  0
   -0.2540  -15.2329   18.2609 O   0  0  0  0  0  0  0  0  0  0  0  0
    0.5785  -14.1596   16.2116 C   0  0  1  0  0  0  0  0  0  0  0  0
    1.5142  -15.2398   15.9704 O   0  0  0  0  0  0  0  0  0  0  0  0
    2.8238  -15.0853   15.5395 C   0  0  2  0  0  0  0  0  0  0  0  0
    3.5672  -16.4450   15.7915 C   0  0  2  0  0  0  0  0  0  0  0  0
    2.9093  -17.4709   15.1207 O   0  0  0  0  0  0  0  0  0  0  0  0
    3.7010  -16.7658   17.3408 C   0  0  1  0  0  0  0  0  0  0  0  0
    4.4224  -18.0578   17.5582 N   0  0  0  0  0  0  0  0  0  0  0  0
    4.4639  -15.5609   18.0462 C   0  0  2  0  0  0  0  0  0  0  0  0
    4.6215  -15.8097   19.4486 O   0  0  0  0  0  0  0  0  0  0  0  0
    3.6445  -14.2391   17.7810 C   0  0  2  0  0  0  0  0  0  0  0  0
    3.4906  -13.9884   16.2870 O   0  0  0  0  0  0  0  0  0  0  0  0
    4.3216  -13.0430   18.4065 C   0  0  0  0  0  0  0  0  0  0  0  0
    5.6757  -12.8688   17.9498 O   0  0  0  0  0  0  0  0  0  0  0  0
   -5.0171  -15.7021   18.9093 O   0  0  0  0  0  0  0  0  0  0  0  0
   -6.1162  -13.9273   20.8501 O   0  0  0  0  0  0  0  0  0  0  0  0
    1.6618  -13.7258   12.8927 C   0  0  0  0  0  0  0  0  0  0  0  0
    1.3071  -14.9200   12.6627 O   0  0  0  0  0  0  0  0  0  0  0  0
    2.5138  -12.8998   11.8806 C   0  0  2  0  0  0  0  0  0  0  0  0
    4.6941  -10.7528   11.5221 N   0  0  0  0  0  0  0  0  0  0  0  0
    2.3584  -11.3691   12.1382 C   0  0  0  0  0  0  0  0  0  0  0  0
    3.2598  -10.5068   11.2387 C   0  0  0  0  0  0  0  0  0  0  0  0
    2.1510  -13.0781   10.6745 O   0  0  0  0  0  0  0  0  0  0  0  0
  1  2  1  6  0  0  0
  1  3  1  0  0  0  0
  1  8  1  0  0  0  0
  3  4  1  0  0  0  0
  3 32  1  6  0  0  0
  4  5  1  0  0  0  0
  4 33  1  1  0  0  0
  5  6  1  6  0  0  0
  5  7  1  0  0  0  0
  7  8  1  0  0  0  0
  7  9  1  1  0  0  0
  9 10  1  0  0  0  0
 11 12  1  1  0  0  0
 11 13  1  0  0  0  0
 11 19  1  0  0  0  0
 12 34  1  0  0  0  0
 13 14  1  0  0  0  0
 14 15  1  1  0  0  0
 14 16  1  0  0  0  0
 16  2  1  6  0  0  0
 16 17  1  0  0  0  0
 17 18  1  1  0  0  0
 17 19  1  0  0  0  0
 19 20  1  6  0  0  0
 21 20  1  1  0  0  0
 21 22  1  0  0  0  0
 21 29  1  0  0  0  0
 22 23  1  6  0  0  0
 22 24  1  0  0  0  0
 24 25  1  6  0  0  0
 24 26  1  0  0  0  0
 26 27  1  1  0  0  0
 26 28  1  0  0  0  0
 28 29  1  0  0  0  0
 28 30  1  1  0  0  0
 30 31  1  0  0  0  0
 34 35  2  0  0  0  0
 36 34  1  1  0  0  0
 36 38  1  0  0  0  0
 36 40  1  0  0  0  0
 37 39  1  0  0  0  0
 38 39  1  0  0  0  0
M  END
>  <CHROM.1>
173.81605869,173.45781984,64.29024300,-122.87119565,73.21357680,164.71079951
56.61697345,-21.44642432,175.60347188,-64.34239384,0.35310632,-13.92537975
16.97919515,2.45709542,-0.31367910,1.91014818

>  <Name>
ligand

>  <RI>
0

>  <Rbt.Current_Directory>
/home/itssahil/PROJECTS/Mol_Feturizer/New_Systems/rnas/4P20

>  <Rbt.Executable>
rbdock ($Id: //depot/dev/client3/rdock/2013.1/src/exe/rbdock.cxx#4 $)

>  <Rbt.Library>
libRbt.so (2013.1, Build901 2013/11/27)

>  <Rbt.Parameter_File>
/export/apps/rDock/src/rDock_2013.1_src/data/scripts/dock_solv.prm

>  <Rbt.Receptor>
prm/pocket_docking_7.prm

>  <SCORE>
-10.921

>  <SCORE.INTER>
-1.83912

>  <SCORE.INTER.CONST>
1

>  <SCORE.INTER.POLAR>
0

>  <SCORE.INTER.ROT>
10

>  <SCORE.INTER.SOLV>
14.0245

>  <SCORE.INTER.VDW>
-16.1676

>  <SCORE.INTER.norm>
-0.045978

>  <SCORE.INTRA>
-9.08191

>  <SCORE.INTRA.DIHEDRAL>
-22.5143

>  <SCORE.INTRA.DIHEDRAL.0>
28.2802

>  <SCORE.INTRA.POLAR>
0

>  <SCORE.INTRA.POLAR.0>
0

>  <SCORE.INTRA.REPUL>
0

>  <SCORE.INTRA.REPUL.0>
0

>  <SCORE.INTRA.SOLV>
0.956246

>  <SCORE.INTRA.SOLV.lig_0>
-101.981

>  <SCORE.INTRA.VDW>
1.6971

>  <SCORE.INTRA.VDW.0>
-5.72964

>  <SCORE.INTRA.norm>
-0.227048

>  <SCORE.RESTR>
0

>  <SCORE.RESTR.CAVITY>
0

>  <SCORE.RESTR.norm>
0

>  <SCORE.SYSTEM>
0

>  <SCORE.SYSTEM.CONST>
0

>  <SCORE.SYSTEM.DIHEDRAL>
0

>  <SCORE.SYSTEM.SOLV>
0

>  <SCORE.SYSTEM.norm>
0

>  <SCORE.heavy>
40

>  <SCORE.norm>
-0.273026

>  <RMSD>
8.382

$$$$
ligand
 OpenBabel11021811513D
libRbt.so/2013.1/901 2013/11/27
 40 42  0  0  0  0  0  0  0  0999 V2000
    2.5328  -12.1561   14.4922 C   0  0  2  0  0  0  0  0  0  0  0  0
    2.2793  -13.1877   15.4589 O   0  0  0  0  0  0  0  0  0  0  0  0
    2.0936  -12.6244   13.0545 C   0  0  1  0  0  0  0  0  0  0  0  0
    2.9661  -13.8096   12.5475 C   0  0  2  0  0  0  0  0  0  0  0  0
    4.4497  -13.3241   12.5080 C   0  0  2  0  0  0  0  0  0  0  0  0
    5.2870  -14.3926   12.0163 O   0  0  0  0  0  0  0  0  0  0  0  0
    4.8806  -12.8999   13.9797 C   0  0  2  0  0  0  0  0  0  0  0  0
    3.9854  -11.7914   14.4695 O   0  0  0  0  0  0  0  0  0  0  0  0
    6.3137  -12.3896   14.0438 C   0  0  0  0  0  0  0  0  0  0  0  0
    6.7161  -12.0558   15.4463 N   0  0  0  0  0  0  0  0  0  0  0  0
    1.6162  -10.9018   19.1554 C   0  0  2  0  0  0  0  0  0  0  0  0
    1.3906  -10.6165   20.5533 N   0  0  0  0  0  0  0  0  0  0  0  0
    0.4310  -11.7893   18.5983 C   0  0  0  0  0  0  0  0  0  0  0  0
    0.6688  -12.1165   17.0565 C   0  0  2  0  0  0  0  0  0  0  0  0
   -0.4538  -12.9365   16.5305 N   0  0  0  0  0  0  0  0  0  0  0  0
    2.0665  -12.8753   16.8902 C   0  0  2  0  0  0  0  0  0  0  0  0
    3.2207  -11.9475   17.4636 C   0  0  2  0  0  0  0  0  0  0  0  0
    4.4756  -12.6159   17.3160 O   0  0  0  0  0  0  0  0  0  0  0  0
    2.9702  -11.6282   18.9902 C   0  0  1  0  0  0  0  0  0  0  0  0
    4.0200  -10.7643   19.4925 O   0  0  0  0  0  0  0  0  0  0  0  0
    4.5675   -9.6875   18.8102 C   0  0  2  0  0  0  0  0  0  0  0  0
    5.6141   -9.0078   19.7630 C   0  0  2  0  0  0  0  0  0  0  0  0
    6.5776   -9.9373   20.1409 O   0  0  0  0  0  0  0  0  0  0  0  0
    4.9189   -8.3537   21.0320 C   0  0  1  0  0  0  0  0  0  0  0  0
    5.9316   -7.7018   21.9188 N   0  0  0  0  0  0  0  0  0  0  0  0
    3.8357   -7.3007   20.5329 C   0  0  2  0  0  0  0  0  0  0  0  0
    3.1874   -6.6716   21.6452 O   0  0  0  0  0  0  0  0  0  0  0  0
    2.8021   -8.0587   19.6130 C   0  0  2  0  0  0  0  0  0  0  0  0
    3.5074   -8.7170   18.4349 O   0  0  0  0  0  0  0  0  0  0  0  0
    1.7495   -7.1148   19.0826 C   0  0  0  0  0  0  0  0  0  0  0  0
    0.8130   -7.7641   18.2027 O   0  0  0  0  0  0  0  0  0  0  0  0
    0.6876  -13.0046   13.1067 O   0  0  0  0  0  0  0  0  0  0  0  0
    2.5492  -14.1679   11.2883 O   0  0  0  0  0  0  0  0  0  0  0  0
    0.1418  -10.0094   20.9518 C   0  0  0  0  0  0  0  0  0  0  0  0
   -0.5343   -9.3488   20.1082 O   0  0  0  0  0  0  0  0  0  0  0  0
   -0.3212  -10.1944   22.4296 C   0  0  2  0  0  0  0  0  0  0  0  0
    0.6041  -11.5256   25.0683 N   0  0  0  0  0  0  0  0  0  0  0  0
   -0.4149  -11.7068   22.8004 C   0  0  0  0  0  0  0  0  0  0  0  0
   -0.5946  -11.9530   24.3077 C   0  0  0  0  0  0  0  0  0  0  0  0
   -1.4830   -9.7218   22.6419 O   0  0  0  0  0  0  0  0  0  0  0  0
  1  2  1  1  0  0  0
  1  3  1  0  0  0  0
  1  8  1  0  0  0  0
  3  4  1  0  0  0  0
  3 32  1  1  0  0  0
  4  5  1  0  0  0  0
  4 33  1  6  0  0  0
  5  6  1  1  0  0  0
  5  7  1  0  0  0  0
  7  8  1  0  0  0  0
  7  9  1  6  0  0  0
  9 10  1  0  0  0  0
 11 12  1  1  0  0  0
 11 13  1  0  0  0  0
 11 19  1  0  0  0  0
 12 34  1  0  0  0  0
 13 14  1  0  0  0  0
 14 15  1  1  0  0  0
 14 16  1  0  0  0  0
 16  2  1  6  0  0  0
 16 17  1  0  0  0  0
 17 18  1  1  0  0  0
 17 19  1  0  0  0  0
 19 20  1  6  0  0  0
 21 20  1  1  0  0  0
 21 22  1  0  0  0  0
 21 29  1  0  0  0  0
 22 23  1  1  0  0  0
 22 24  1  0  0  0  0
 24 25  1  1  0  0  0
 24 26  1  0  0  0  0
 26 27  1  1  0  0  0
 26 28  1  0  0  0  0
 28 29  1  0  0  0  0
 28 30  1  6  0  0  0
 30 31  1  0  0  0  0
 34 35  2  0  0  0  0
 36 34  1  6  0  0  0
 36 38  1  0  0  0  0
 36 40  1  0  0  0  0
 37 39  1  0  0  0  0
 38 39  1  0  0  0  0
M  END
>  <CHROM.1>
-154.78223708,69.05677212,-177.41234756,-54.64024026,-78.82252982,177.26423340
178.09492988,-56.31115472,168.64401925,-65.92681426,2.65172351,-10.96842720
18.02070405,1.32494047,-0.38692462,-2.07943257

>  <Name>
ligand

>  <RI>
0

>  <Rbt.Current_Directory>
/home/itssahil/PROJECTS/Mol_Feturizer/New_Systems/rnas/4P20

>  <Rbt.Executable>
rbdock ($Id: //depot/dev/client3/rdock/2013.1/src/exe/rbdock.cxx#4 $)

>  <Rbt.Library>
libRbt.so (2013.1, Build901 2013/11/27)

>  <Rbt.Parameter_File>
/export/apps/rDock/src/rDock_2013.1_src/data/scripts/dock_solv.prm

>  <Rbt.Receptor>
prm/pocket_docking_8.prm

>  <SCORE>
-6.2925

>  <SCORE.INTER>
2.75845

>  <SCORE.INTER.CONST>
1

>  <SCORE.INTER.POLAR>
0

>  <SCORE.INTER.ROT>
10

>  <SCORE.INTER.SOLV>
15.3568

>  <SCORE.INTER.VDW>
-13.5466

>  <SCORE.INTER.norm>
0.0689612

>  <SCORE.INTRA>
-9.05095

>  <SCORE.INTRA.DIHEDRAL>
-22.054

>  <SCORE.INTRA.DIHEDRAL.0>
28.2802

>  <SCORE.INTRA.POLAR>
0

>  <SCORE.INTRA.POLAR.0>
0

>  <SCORE.INTRA.REPUL>
0

>  <SCORE.INTRA.REPUL.0>
0

>  <SCORE.INTRA.SOLV>
3.18981

>  <SCORE.INTRA.SOLV.lig_0>
-101.981

>  <SCORE.INTRA.VDW>
0.381163

>  <SCORE.INTRA.VDW.0>
-5.72964

>  <SCORE.INTRA.norm>
-0.226274

>  <SCORE.RESTR>
0

>  <SCORE.RESTR.CAVITY>
0

>  <SCORE.RESTR.norm>
0

>  <SCORE.SYSTEM>
0

>  <SCORE.SYSTEM.CONST>
0

>  <SCORE.SYSTEM.DIHEDRAL>
0

>  <SCORE.SYSTEM.SOLV>
0

>  <SCORE.SYSTEM.norm>
0

>  <SCORE.heavy>
40

>  <SCORE.norm>
-0.157313

>  <RMSD>
8.385

$$$$
ligand
 OpenBabel11021811513D
libRbt.so/2013.1/901 2013/11/27
 40 42  0  0  0  0  0  0  0  0999 V2000
   -5.5100   -9.2280   16.9108 C   0  0  2  0  0  0  0  0  0  0  0  0
   -4.3214   -9.1237   16.1113 O   0  0  0  0  0  0  0  0  0  0  0  0
   -5.9886  -10.7256   16.9985 C   0  0  1  0  0  0  0  0  0  0  0  0
   -6.4447  -11.2626   15.6106 C   0  0  2  0  0  0  0  0  0  0  0  0
   -7.6243  -10.3655   15.1186 C   0  0  2  0  0  0  0  0  0  0  0  0
   -8.0914  -10.8517   13.8419 O   0  0  0  0  0  0  0  0  0  0  0  0
   -7.1014   -8.8678   14.9961 C   0  0  2  0  0  0  0  0  0  0  0  0
   -6.6128   -8.3909   16.3393 O   0  0  0  0  0  0  0  0  0  0  0  0
   -8.1895   -7.9055   14.5397 C   0  0  0  0  0  0  0  0  0  0  0  0
   -9.3241   -7.8561   15.5148 N   0  0  0  0  0  0  0  0  0  0  0  0
    0.0149   -9.5483   16.6997 C   0  0  2  0  0  0  0  0  0  0  0  0
    1.2755  -10.0591   17.1860 N   0  0  0  0  0  0  0  0  0  0  0  0
   -0.8644   -9.0594   17.9205 C   0  0  0  0  0  0  0  0  0  0  0  0
   -2.2619   -8.4969   17.3993 C   0  0  2  0  0  0  0  0  0  0  0  0
   -3.0801   -8.0229   18.5462 N   0  0  0  0  0  0  0  0  0  0  0  0
   -3.0192   -9.6454   16.5844 C   0  0  2  0  0  0  0  0  0  0  0  0
   -2.0983  -10.1025   15.3741 C   0  0  2  0  0  0  0  0  0  0  0  0
   -2.7687  -11.1272   14.6366 O   0  0  0  0  0  0  0  0  0  0  0  0
   -0.7162  -10.6535   15.9047 C   0  0  1  0  0  0  0  0  0  0  0  0
    0.1199  -11.0465   14.7879 O   0  0  0  0  0  0  0  0  0  0  0  0
   -0.2665  -11.8862   13.7533 C   0  0  2  0  0  0  0  0  0  0  0  0
   -0.0976  -13.3638   14.2565 C   0  0  2  0  0  0  0  0  0  0  0  0
   -0.8580  -13.5582   15.4050 O   0  0  0  0  0  0  0  0  0  0  0  0
    1.4267  -13.7304   14.5087 C   0  0  1  0  0  0  0  0  0  0  0  0
    1.5656  -15.1446   14.9749 N   0  0  0  0  0  0  0  0  0  0  0  0
    2.2374  -13.4920   13.1606 C   0  0  2  0  0  0  0  0  0  0  0  0
    3.6210  -13.8223   13.3337 O   0  0  0  0  0  0  0  0  0  0  0  0
    2.0506  -11.9842   12.7359 C   0  0  2  0  0  0  0  0  0  0  0  0
    0.5759  -11.6523   12.5524 O   0  0  0  0  0  0  0  0  0  0  0  0
    2.7790  -11.6864   11.4470 C   0  0  0  0  0  0  0  0  0  0  0  0
    4.2104  -11.7024   11.6008 O   0  0  0  0  0  0  0  0  0  0  0  0
   -4.8911  -11.5265   17.5260 O   0  0  0  0  0  0  0  0  0  0  0  0
   -6.8622  -12.5644   15.7477 O   0  0  0  0  0  0  0  0  0  0  0  0
    2.4923   -9.3559   16.8517 C   0  0  0  0  0  0  0  0  0  0  0  0
    2.5251   -8.6045   15.8322 O   0  0  0  0  0  0  0  0  0  0  0  0
    3.7322   -9.5626   17.7750 C   0  0  2  0  0  0  0  0  0  0  0  0
    4.5164   -8.2412   21.3531 N   0  0  0  0  0  0  0  0  0  0  0  0
    3.5904   -8.7402   19.0930 C   0  0  0  0  0  0  0  0  0  0  0  0
    4.7230   -9.0047   20.0991 C   0  0  0  0  0  0  0  0  0  0  0  0
    4.8139   -9.1602   17.2402 O   0  0  0  0  0  0  0  0  0  0  0  0
  1  2  1  6  0  0  0
  1  3  1  0  0  0  0
  1  8  1  0  0  0  0
  3  4  1  0  0  0  0
  3 32  1  6  0  0  0
  4  5  1  0  0  0  0
  4 33  1  1  0  0  0
  5  6  1  6  0  0  0
  5  7  1  0  0  0  0
  7  8  1  0  0  0  0
  7  9  1  1  0  0  0
  9 10  1  0  0  0  0
 11 12  1  1  0  0  0
 11 13  1  0  0  0  0
 11 19  1  0  0  0  0
 12 34  1  0  0  0  0
 13 14  1  0  0  0  0
 14 15  1  1  0  0  0
 14 16  1  0  0  0  0
 16  2  1  6  0  0  0
 16 17  1  0  0  0  0
 17 18  1  1  0  0  0
 17 19  1  0  0  0  0
 19 20  1  6  0  0  0
 21 20  1  1  0  0  0
 21 22  1  0  0  0  0
 21 29  1  0  0  0  0
 22 23  1  1  0  0  0
 22 24  1  0  0  0  0
 24 25  1  6  0  0  0
 24 26  1  0  0  0  0
 26 27  1  1  0  0  0
 26 28  1  0  0  0  0
 28 29  1  0  0  0  0
 28 30  1  6  0  0  0
 30 31  1  0  0  0  0
 34 35  2  0  0  0  0
 36 34  1  6  0  0  0
 36 38  1  0  0  0  0
 36 40  1  0  0  0  0
 37 39  1  0  0  0  0
 38 39  1  0  0  0  0
M  END
>  <CHROM.1>
-70.18954240,-89.24230420,61.57786088,-113.91864104,-171.24794688,-82.36080442
-69.83484832,-77.18192865,174.73071796,-177.82856180,-1.26838781,-10.54615335
15.72586350,-3.07850334,0.10028933,-2.23885689

>  <Name>
ligand

>  <RI>
0

>  <Rbt.Current_Directory>
/home/itssahil/PROJECTS/Mol_Feturizer/New_Systems/rnas/4P20

>  <Rbt.Executable>
rbdock ($Id: //depot/dev/client3/rdock/2013.1/src/exe/rbdock.cxx#4 $)

>  <Rbt.Library>
libRbt.so (2013.1, Build901 2013/11/27)

>  <Rbt.Parameter_File>
/export/apps/rDock/src/rDock_2013.1_src/data/scripts/dock_solv.prm

>  <Rbt.Receptor>
prm/pocket_docking_5.prm

>  <SCORE>
-11.335

>  <SCORE.INTER>
-4.11478

>  <SCORE.INTER.CONST>
1

>  <SCORE.INTER.POLAR>
0

>  <SCORE.INTER.ROT>
10

>  <SCORE.INTER.SOLV>
11.993

>  <SCORE.INTER.VDW>
-17.0075

>  <SCORE.INTER.norm>
-0.10287

>  <SCORE.INTRA>
-7.22018

>  <SCORE.INTRA.DIHEDRAL>
-18.9965

>  <SCORE.INTRA.DIHEDRAL.0>
28.2802

>  <SCORE.INTRA.POLAR>
0

>  <SCORE.INTRA.POLAR.0>
0

>  <SCORE.INTRA.REPUL>
0

>  <SCORE.INTRA.REPUL.0>
0

>  <SCORE.INTRA.SOLV>
0.725666

>  <SCORE.INTRA.SOLV.lig_0>
-101.981

>  <SCORE.INTRA.VDW>
1.91526

>  <SCORE.INTRA.VDW.0>
-5.72964

>  <SCORE.INTRA.norm>
-0.180504

>  <SCORE.RESTR>
0

>  <SCORE.RESTR.CAVITY>
0

>  <SCORE.RESTR.norm>
0

>  <SCORE.SYSTEM>
0

>  <SCORE.SYSTEM.CONST>
0

>  <SCORE.SYSTEM.DIHEDRAL>
0

>  <SCORE.SYSTEM.SOLV>
0

>  <SCORE.SYSTEM.norm>
0

>  <SCORE.heavy>
40

>  <SCORE.norm>
-0.283374

>  <RMSD>
8.397

$$$$
ligand
 OpenBabel11021811513D
libRbt.so/2013.1/901 2013/11/27
 40 42  0  0  0  0  0  0  0  0999 V2000
   -5.7659   -9.6834   16.9446 C   0  0  2  0  0  0  0  0  0  0  0  0
   -4.5980   -9.5892   16.1140 O   0  0  0  0  0  0  0  0  0  0  0  0
   -6.0241  -11.1775   17.3695 C   0  0  1  0  0  0  0  0  0  0  0  0
   -6.3861  -12.0663   16.1440 C   0  0  2  0  0  0  0  0  0  0  0  0
   -7.6785  -11.4771   15.4954 C   0  0  2  0  0  0  0  0  0  0  0  0
   -8.0597  -12.2939   14.3675 O   0  0  0  0  0  0  0  0  0  0  0  0
   -7.3762   -9.9842   15.0356 C   0  0  2  0  0  0  0  0  0  0  0  0
   -6.9730   -9.1587   16.2297 O   0  0  0  0  0  0  0  0  0  0  0  0
   -8.5878   -9.3112   14.4051 C   0  0  0  0  0  0  0  0  0  0  0  0
   -9.7886   -9.3962   15.2948 N   0  0  0  0  0  0  0  0  0  0  0  0
   -0.2518   -9.6402   16.7759 C   0  0  2  0  0  0  0  0  0  0  0  0
    1.0406  -10.0473   17.2762 N   0  0  0  0  0  0  0  0  0  0  0  0
   -1.1919   -9.2560   17.9889 C   0  0  0  0  0  0  0  0  0  0  0  0
   -2.6246   -8.8089   17.4521 C   0  0  2  0  0  0  0  0  0  0  0  0
   -3.5012   -8.4325   18.5920 N   0  0  0  0  0  0  0  0  0  0  0  0
   -3.2629  -10.0032   16.6016 C   0  0  2  0  0  0  0  0  0  0  0  0
   -2.2844  -10.3523   15.4005 C   0  0  2  0  0  0  0  0  0  0  0  0
   -2.8484  -11.4171   14.6315 O   0  0  0  0  0  0  0  0  0  0  0  0
   -0.8681  -10.7894   15.9467 C   0  0  1  0  0  0  0  0  0  0  0  0
    0.0185  -11.0841   14.8388 O   0  0  0  0  0  0  0  0  0  0  0  0
   -0.2787  -11.9238   13.7751 C   0  0  2  0  0  0  0  0  0  0  0  0
   -0.0580  -13.3998   14.2630 C   0  0  2  0  0  0  0  0  0  0  0  0
   -0.8578  -13.6517   15.3729 O   0  0  0  0  0  0  0  0  0  0  0  0
    1.4702  -13.6945   14.5782 C   0  0  1  0  0  0  0  0  0  0  0  0
    1.6594  -15.1080   15.0287 N   0  0  0  0  0  0  0  0  0  0  0  0
    2.3268  -13.3927   13.2719 C   0  0  2  0  0  0  0  0  0  0  0  0
    3.7163  -13.6568   13.5023 O   0  0  0  0  0  0  0  0  0  0  0  0
    2.0833  -11.8888   12.8621 C   0  0  2  0  0  0  0  0  0  0  0  0
    0.6033  -11.6276   12.6172 O   0  0  0  0  0  0  0  0  0  0  0  0
    2.8522  -11.5328   11.6121 C   0  0  0  0  0  0  0  0  0  0  0  0
    2.2261  -12.0286   10.4142 O   0  0  0  0  0  0  0  0  0  0  0  0
   -4.8271  -11.6777   18.0336 O   0  0  0  0  0  0  0  0  0  0  0  0
   -6.6125  -13.3518   16.5727 O   0  0  0  0  0  0  0  0  0  0  0  0
    1.9291   -9.0457   17.8187 C   0  0  0  0  0  0  0  0  0  0  0  0
    1.7950   -7.8334   17.4761 O   0  0  0  0  0  0  0  0  0  0  0  0
    3.0349   -9.5129   18.8145 C   0  0  2  0  0  0  0  0  0  0  0  0
    4.3303   -8.9527   16.0473 N   0  0  0  0  0  0  0  0  0  0  0  0
    4.1158  -10.3704   18.0867 C   0  0  0  0  0  0  0  0  0  0  0  0
    5.0566   -9.5375   17.2000 C   0  0  0  0  0  0  0  0  0  0  0  0
    2.5786  -10.2579   19.7390 O   0  0  0  0  0  0  0  0  0  0  0  0
  1  2  1  6  0  0  0
  1  3  1  0  0  0  0
  1  8  1  0  0  0  0
  3  4  1  0  0  0  0
  3 32  1  6  0  0  0
  4  5  1  0  0  0  0
  4 33  1  1  0  0  0
  5  6  1  6  0  0  0
  5  7  1  0  0  0  0
  7  8  1  0  0  0  0
  7  9  1  1  0  0  0
  9 10  1  0  0  0  0
 11 12  1  1  0  0  0
 11 13  1  0  0  0  0
 11 19  1  0  0  0  0
 12 34  1  0  0  0  0
 13 14  1  0  0  0  0
 14 15  1  1  0  0  0
 14 16  1  0  0  0  0
 16  2  1  6  0  0  0
 16 17  1  0  0  0  0
 17 18  1  1  0  0  0
 17 19  1  0  0  0  0
 19 20  1  6  0  0  0
 21 20  1  1  0  0  0
 21 22  1  0  0  0  0
 21 29  1  0  0  0  0
 22 23  1  1  0  0  0
 22 24  1  0  0  0  0
 24 25  1  6  0  0  0
 24 26  1  0  0  0  0
 26 27  1  1  0  0  0
 26 28  1  0  0  0  0
 28 29  1  0  0  0  0
 28 30  1  6  0  0  0
 30 31  1  0  0  0  0
 34 35  2  0  0  0  0
 36 34  1  6  0  0  0
 36 38  1  0  0  0  0
 36 40  1  0  0  0  0
 37 39  1  0  0  0  0
 38 39  1  0  0  0  0
M  END
>  <CHROM.1>
-60.63965544,-82.49523246,52.90745661,-72.11517074,-170.61312901,-80.07439439
77.61552459,68.84621976,73.87892551,-66.84386062,-1.50637466,-10.93143276
15.72776027,-3.05662286,0.01699460,-2.19886486

>  <Name>
ligand

>  <RI>
0

>  <Rbt.Current_Directory>
/home/itssahil/PROJECTS/Mol_Feturizer/New_Systems/rnas/4P20

>  <Rbt.Executable>
rbdock ($Id: //depot/dev/client3/rdock/2013.1/src/exe/rbdock.cxx#4 $)

>  <Rbt.Library>
libRbt.so (2013.1, Build901 2013/11/27)

>  <Rbt.Parameter_File>
/export/apps/rDock/src/rDock_2013.1_src/data/scripts/dock_solv.prm

>  <Rbt.Receptor>
prm/pocket_docking_4.prm

>  <SCORE>
-7.58417

>  <SCORE.INTER>
-1.55204

>  <SCORE.INTER.CONST>
1

>  <SCORE.INTER.POLAR>
0

>  <SCORE.INTER.ROT>
10

>  <SCORE.INTER.SOLV>
11.6485

>  <SCORE.INTER.VDW>
-15.1842

>  <SCORE.INTER.norm>
-0.038801

>  <SCORE.INTRA>
-6.04746

>  <SCORE.INTRA.DIHEDRAL>
-20.7487

>  <SCORE.INTRA.DIHEDRAL.0>
28.2802

>  <SCORE.INTRA.POLAR>
0

>  <SCORE.INTRA.POLAR.0>
0

>  <SCORE.INTRA.REPUL>
0

>  <SCORE.INTRA.REPUL.0>
0

>  <SCORE.INTRA.SOLV>
4.82182

>  <SCORE.INTRA.SOLV.lig_0>
-101.981

>  <SCORE.INTRA.VDW>
1.91597

>  <SCORE.INTRA.VDW.0>
-5.72964

>  <SCORE.INTRA.norm>
-0.151186

>  <SCORE.RESTR>
0.0153206

>  <SCORE.RESTR.CAVITY>
0.0153206

>  <SCORE.RESTR.norm>
0.000383014

>  <SCORE.SYSTEM>
0

>  <SCORE.SYSTEM.CONST>
0

>  <SCORE.SYSTEM.DIHEDRAL>
0

>  <SCORE.SYSTEM.SOLV>
0

>  <SCORE.SYSTEM.norm>
0

>  <SCORE.heavy>
40

>  <SCORE.norm>
-0.189604

>  <RMSD>
8.418

$$$$
ligand
 OpenBabel11021811513D
libRbt.so/2013.1/901 2013/11/27
 40 42  0  0  0  0  0  0  0  0999 V2000
   -2.4808   -9.1980   19.7639 C   0  0  2  0  0  0  0  0  0  0  0  0
   -1.7941   -9.7821   18.6457 O   0  0  0  0  0  0  0  0  0  0  0  0
   -3.4451  -10.2485   20.4317 C   0  0  1  0  0  0  0  0  0  0  0  0
   -4.6036  -10.6517   19.4735 C   0  0  2  0  0  0  0  0  0  0  0  0
   -5.4034   -9.3568   19.1243 C   0  0  2  0  0  0  0  0  0  0  0  0
   -6.5047   -9.6977   18.2552 O   0  0  0  0  0  0  0  0  0  0  0  0
   -4.4170   -8.3319   18.4114 C   0  0  2  0  0  0  0  0  0  0  0  0
   -3.2748   -8.0018   19.3369 O   0  0  0  0  0  0  0  0  0  0  0  0
   -5.1010   -7.0213   18.0472 C   0  0  0  0  0  0  0  0  0  0  0  0
   -6.1894   -7.2304   17.0411 N   0  0  0  0  0  0  0  0  0  0  0  0
    2.0450   -8.9246   16.6822 C   0  0  2  0  0  0  0  0  0  0  0  0
    3.0717   -8.2067   15.9632 N   0  0  0  0  0  0  0  0  0  0  0  0
    0.7496   -9.0391   15.7813 C   0  0  0  0  0  0  0  0  0  0  0  0
   -0.3949   -9.8254   16.5640 C   0  0  2  0  0  0  0  0  0  0  0  0
   -1.6055   -9.9464   15.7100 N   0  0  0  0  0  0  0  0  0  0  0  0
   -0.7232   -9.0558   17.9266 C   0  0  2  0  0  0  0  0  0  0  0  0
    0.6048   -8.9653   18.7927 C   0  0  2  0  0  0  0  0  0  0  0  0
    0.3207   -8.2817   20.0155 O   0  0  0  0  0  0  0  0  0  0  0  0
    1.7309   -8.1876   18.0036 C   0  0  1  0  0  0  0  0  0  0  0  0
    2.9416   -8.1321   18.7984 O   0  0  0  0  0  0  0  0  0  0  0  0
    4.0532   -7.3524   18.5131 C   0  0  2  0  0  0  0  0  0  0  0  0
    5.2393   -7.8805   19.3959 C   0  0  2  0  0  0  0  0  0  0  0  0
    5.4585   -9.2282   19.1298 O   0  0  0  0  0  0  0  0  0  0  0  0
    4.9774   -7.6363   20.9429 C   0  0  1  0  0  0  0  0  0  0  0  0
    6.1239   -8.1350   21.7637 N   0  0  0  0  0  0  0  0  0  0  0  0
    4.7402   -6.0810   21.1798 C   0  0  2  0  0  0  0  0  0  0  0  0
    4.5114   -5.8068   22.5676 O   0  0  0  0  0  0  0  0  0  0  0  0
    3.5171   -5.6303   20.2910 C   0  0  2  0  0  0  0  0  0  0  0  0
    3.7792   -5.9251   18.8203 O   0  0  0  0  0  0  0  0  0  0  0  0
    3.2433   -4.1536   20.4486 C   0  0  0  0  0  0  0  0  0  0  0  0
    2.0096   -3.7476   19.8274 O   0  0  0  0  0  0  0  0  0  0  0  0
   -2.6587  -11.4158   20.8098 O   0  0  0  0  0  0  0  0  0  0  0  0
   -5.4182  -11.5569   20.1096 O   0  0  0  0  0  0  0  0  0  0  0  0
    3.8374   -8.9021   14.9547 C   0  0  0  0  0  0  0  0  0  0  0  0
    3.9329  -10.1647   14.9963 O   0  0  0  0  0  0  0  0  0  0  0  0
    4.5273   -8.0503   13.8452 C   0  0  2  0  0  0  0  0  0  0  0  0
    3.0038  -10.3538   12.3951 N   0  0  0  0  0  0  0  0  0  0  0  0
    5.0479   -8.9570   12.6875 C   0  0  0  0  0  0  0  0  0  0  0  0
    3.9370   -9.4148   11.7276 C   0  0  0  0  0  0  0  0  0  0  0  0
    5.5502   -7.4261   14.2718 O   0  0  0  0  0  0  0  0  0  0  0  0
  1  2  1  6  0  0  0
  1  3  1  0  0  0  0
  1  8  1  0  0  0  0
  3  4  1  0  0  0  0
  3 32  1  6  0  0  0
  4  5  1  0  0  0  0
  4 33  1  1  0  0  0
  5  6  1  6  0  0  0
  5  7  1  0  0  0  0
  7  8  1  0  0  0  0
  7  9  1  1  0  0  0
  9 10  1  0  0  0  0
 11 12  1  6  0  0  0
 11 13  1  0  0  0  0
 11 19  1  0  0  0  0
 12 34  1  0  0  0  0
 13 14  1  0  0  0  0
 14 15  1  6  0  0  0
 14 16  1  0  0  0  0
 16  2  1  1  0  0  0
 16 17  1  0  0  0  0
 17 18  1  1  0  0  0
 17 19  1  0  0  0  0
 19 20  1  1  0  0  0
 21 20  1  1  0  0  0
 21 22  1  0  0  0  0
 21 29  1  0  0  0  0
 22 23  1  1  0  0  0
 22 24  1  0  0  0  0
 24 25  1  1  0  0  0
 24 26  1  0  0  0  0
 26 27  1  1  0  0  0
 26 28  1  0  0  0  0
 28 29  1  0  0  0  0
 28 30  1  6  0  0  0
 30 31  1  0  0  0  0
 34 35  2  0  0  0  0
 36 34  1  1  0  0  0
 36 38  1  0  0  0  0
 36 40  1  0  0  0  0
 37 39  1  0  0  0  0
 38 39  1  0  0  0  0
M  END
>  <CHROM.1>
-173.50485306,-167.63252540,-63.72665127,-78.76416126,70.82292666,-165.29082094
-170.54747215,-168.03512747,77.91055040,-68.10910999,0.86139997,-8.39391807
18.06683137,-3.04799734,-0.23874406,-1.91964910

>  <Name>
ligand

>  <RI>
0

>  <Rbt.Current_Directory>
/home/itssahil/PROJECTS/Mol_Feturizer/New_Systems/rnas/4P20

>  <Rbt.Executable>
rbdock ($Id: //depot/dev/client3/rdock/2013.1/src/exe/rbdock.cxx#4 $)

>  <Rbt.Library>
libRbt.so (2013.1, Build901 2013/11/27)

>  <Rbt.Parameter_File>
/export/apps/rDock/src/rDock_2013.1_src/data/scripts/dock_solv.prm

>  <Rbt.Receptor>
prm/pocket_docking_4.prm

>  <SCORE>
-14.7596

>  <SCORE.INTER>
-5.79562

>  <SCORE.INTER.CONST>
1

>  <SCORE.INTER.POLAR>
0

>  <SCORE.INTER.ROT>
10

>  <SCORE.INTER.SOLV>
23.1861

>  <SCORE.INTER.VDW>
-21.8591

>  <SCORE.INTER.norm>
-0.144891

>  <SCORE.INTRA>
-8.96402

>  <SCORE.INTRA.DIHEDRAL>
-22.8697

>  <SCORE.INTRA.DIHEDRAL.0>
28.2802

>  <SCORE.INTRA.POLAR>
0

>  <SCORE.INTRA.POLAR.0>
0

>  <SCORE.INTRA.REPUL>
0

>  <SCORE.INTRA.REPUL.0>
0

>  <SCORE.INTRA.SOLV>
1.91031

>  <SCORE.INTRA.SOLV.lig_0>
-101.981

>  <SCORE.INTRA.VDW>
1.51568

>  <SCORE.INTRA.VDW.0>
-5.72964

>  <SCORE.INTRA.norm>
-0.2241

>  <SCORE.RESTR>
0

>  <SCORE.RESTR.CAVITY>
0

>  <SCORE.RESTR.norm>
0

>  <SCORE.SYSTEM>
0

>  <SCORE.SYSTEM.CONST>
0

>  <SCORE.SYSTEM.DIHEDRAL>
0

>  <SCORE.SYSTEM.SOLV>
0

>  <SCORE.SYSTEM.norm>
0

>  <SCORE.heavy>
40

>  <SCORE.norm>
-0.368991

>  <RMSD>
8.435

$$$$
ligand
 OpenBabel11021811513D
libRbt.so/2013.1/901 2013/11/27
 40 42  0  0  0  0  0  0  0  0999 V2000
   -5.2769  -10.5942   15.4503 C   0  0  2  0  0  0  0  0  0  0  0  0
   -4.4732   -9.7532   16.2927 O   0  0  0  0  0  0  0  0  0  0  0  0
   -6.7095   -9.9716   15.2515 C   0  0  1  0  0  0  0  0  0  0  0  0
   -7.5086   -9.9374   16.5868 C   0  0  2  0  0  0  0  0  0  0  0  0
   -7.6441  -11.4070   17.0969 C   0  0  2  0  0  0  0  0  0  0  0  0
   -8.4046  -11.4163   18.3241 O   0  0  0  0  0  0  0  0  0  0  0  0
   -6.1847  -11.9956   17.3318 C   0  0  2  0  0  0  0  0  0  0  0  0
   -5.4125  -11.9651   16.0384 O   0  0  0  0  0  0  0  0  0  0  0  0
   -6.2087  -13.4398   17.8136 C   0  0  0  0  0  0  0  0  0  0  0  0
   -4.8311  -13.9415   18.1152 N   0  0  0  0  0  0  0  0  0  0  0  0
   -0.0874   -9.6794   16.5915 C   0  0  2  0  0  0  0  0  0  0  0  0
    1.2530  -10.0465   16.9853 N   0  0  0  0  0  0  0  0  0  0  0  0
   -0.9341   -9.3106   17.8759 C   0  0  0  0  0  0  0  0  0  0  0  0
   -2.4183   -8.9076   17.4572 C   0  0  2  0  0  0  0  0  0  0  0  0
   -3.2077   -8.5455   18.6636 N   0  0  0  0  0  0  0  0  0  0  0  0
   -3.0912  -10.1262   16.6703 C   0  0  2  0  0  0  0  0  0  0  0  0
   -2.2062  -10.4587   15.3944 C   0  0  2  0  0  0  0  0  0  0  0  0
   -2.8019  -11.5452   14.6817 O   0  0  0  0  0  0  0  0  0  0  0  0
   -0.7379  -10.8522   15.8237 C   0  0  1  0  0  0  0  0  0  0  0  0
    0.0618  -11.1321   14.6478 O   0  0  0  0  0  0  0  0  0  0  0  0
   -0.2614  -12.0485   13.6576 C   0  0  2  0  0  0  0  0  0  0  0  0
    0.0348  -13.4817   14.2261 C   0  0  2  0  0  0  0  0  0  0  0  0
   -0.6972  -13.6848   15.3915 O   0  0  0  0  0  0  0  0  0  0  0  0
    1.5864  -13.7080   14.4764 C   0  0  1  0  0  0  0  0  0  0  0  0
    1.8470  -15.0824   15.0055 N   0  0  0  0  0  0  0  0  0  0  0  0
    2.3632  -13.4664   13.1091 C   0  0  2  0  0  0  0  0  0  0  0  0
    3.7710  -13.6719   13.2805 O   0  0  0  0  0  0  0  0  0  0  0  0
    2.0474  -12.0008   12.6178 C   0  0  2  0  0  0  0  0  0  0  0  0
    0.5486  -11.8019   12.4371 O   0  0  0  0  0  0  0  0  0  0  0  0
    2.7376  -11.7041   11.3079 C   0  0  0  0  0  0  0  0  0  0  0  0
    4.1628  -11.5587   11.4509 O   0  0  0  0  0  0  0  0  0  0  0  0
   -6.5532   -8.6278   14.7095 O   0  0  0  0  0  0  0  0  0  0  0  0
   -8.7507   -9.3984   16.3532 O   0  0  0  0  0  0  0  0  0  0  0  0
    2.2677   -9.0208   17.0579 C   0  0  0  0  0  0  0  0  0  0  0  0
    2.1308   -7.9519   16.3919 O   0  0  0  0  0  0  0  0  0  0  0  0
    3.5088   -9.2845   17.9649 C   0  0  2  0  0  0  0  0  0  0  0  0
    3.6854   -7.1168   20.1933 N   0  0  0  0  0  0  0  0  0  0  0  0
    4.4460   -8.0382   18.0053 C   0  0  0  0  0  0  0  0  0  0  0  0
    3.8301   -6.8383   18.7443 C   0  0  0  0  0  0  0  0  0  0  0  0
    4.2336  -10.2388   17.5381 O   0  0  0  0  0  0  0  0  0  0  0  0
  1  2  1  1  0  0  0
  1  3  1  0  0  0  0
  1  8  1  0  0  0  0
  3  4  1  0  0  0  0
  3 32  1  1  0  0  0
  4  5  1  0  0  0  0
  4 33  1  6  0  0  0
  5  6  1  1  0  0  0
  5  7  1  0  0  0  0
  7  8  1  0  0  0  0
  7  9  1  6  0  0  0
  9 10  1  0  0  0  0
 11 12  1  1  0  0  0
 11 13  1  0  0  0  0
 11 19  1  0  0  0  0
 12 34  1  0  0  0  0
 13 14  1  0  0  0  0
 14 15  1  1  0  0  0
 14 16  1  0  0  0  0
 16  2  1  6  0  0  0
 16 17  1  0  0  0  0
 17 18  1  1  0  0  0
 17 19  1  0  0  0  0
 19 20  1  6  0  0  0
 21 20  1  1  0  0  0
 21 22  1  0  0  0  0
 21 29  1  0  0  0  0
 22 23  1  1  0  0  0
 22 24  1  0  0  0  0
 24 25  1  6  0  0  0
 24 26  1  0  0  0  0
 26 27  1  1  0  0  0
 26 28  1  0  0  0  0
 28 29  1  0  0  0  0
 28 30  1  6  0  0  0
 30 31  1  0  0  0  0
 34 35  2  0  0  0  0
 36 34  1  6  0  0  0
 36 38  1  0  0  0  0
 36 40  1  0  0  0  0
 37 39  1  0  0  0  0
 38 39  1  0  0  0  0
M  END
>  <CHROM.1>
178.31092809,173.21155846,-176.17474542,-90.50971773,-174.71183104,-76.08137519
-71.37697417,-175.90415046,68.61930833,67.58332775,-1.25809528,-10.84853496
15.89704396,3.03687411,0.10975012,0.79720236

>  <Name>
ligand

>  <RI>
0

>  <Rbt.Current_Directory>
/home/itssahil/PROJECTS/Mol_Feturizer/New_Systems/rnas/4P20

>  <Rbt.Executable>
rbdock ($Id: //depot/dev/client3/rdock/2013.1/src/exe/rbdock.cxx#4 $)

>  <Rbt.Library>
libRbt.so (2013.1, Build901 2013/11/27)

>  <Rbt.Parameter_File>
/export/apps/rDock/src/rDock_2013.1_src/data/scripts/dock_solv.prm

>  <Rbt.Receptor>
prm/pocket_docking_5.prm

>  <SCORE>
-13.2207

>  <SCORE.INTER>
-3.46027

>  <SCORE.INTER.CONST>
1

>  <SCORE.INTER.POLAR>
0

>  <SCORE.INTER.ROT>
10

>  <SCORE.INTER.SOLV>
11.987

>  <SCORE.INTER.VDW>
-16.5692

>  <SCORE.INTER.norm>
-0.0865067

>  <SCORE.INTRA>
-9.76041

>  <SCORE.INTRA.DIHEDRAL>
-24.2819

>  <SCORE.INTRA.DIHEDRAL.0>
28.2802

>  <SCORE.INTRA.POLAR>
0

>  <SCORE.INTRA.POLAR.0>
0

>  <SCORE.INTRA.REPUL>
0

>  <SCORE.INTRA.REPUL.0>
0

>  <SCORE.INTRA.SOLV>
-0.547199

>  <SCORE.INTRA.SOLV.lig_0>
-101.981

>  <SCORE.INTRA.VDW>
2.65414

>  <SCORE.INTRA.VDW.0>
-5.72964

>  <SCORE.INTRA.norm>
-0.24401

>  <SCORE.RESTR>
0

>  <SCORE.RESTR.CAVITY>
0

>  <SCORE.RESTR.norm>
0

>  <SCORE.SYSTEM>
0

>  <SCORE.SYSTEM.CONST>
0

>  <SCORE.SYSTEM.DIHEDRAL>
0

>  <SCORE.SYSTEM.SOLV>
0

>  <SCORE.SYSTEM.norm>
0

>  <SCORE.heavy>
40

>  <SCORE.norm>
-0.330517

>  <RMSD>
8.435

$$$$
ligand
 OpenBabel11021811513D
libRbt.so/2013.1/901 2013/11/27
 40 42  0  0  0  0  0  0  0  0999 V2000
    0.0668  -14.2036   13.9772 C   0  0  2  0  0  0  0  0  0  0  0  0
   -0.4664  -13.7092   15.2158 O   0  0  0  0  0  0  0  0  0  0  0  0
    1.0037  -15.4430   14.2333 C   0  0  1  0  0  0  0  0  0  0  0  0
    2.2767  -15.0421   15.0342 C   0  0  2  0  0  0  0  0  0  0  0  0
    3.0455  -13.9702   14.1984 C   0  0  2  0  0  0  0  0  0  0  0  0
    4.2491  -13.5928   14.9008 O   0  0  0  0  0  0  0  0  0  0  0  0
    2.0928  -12.7125   13.9932 C   0  0  2  0  0  0  0  0  0  0  0  0
    0.8430  -13.1375   13.2670 O   0  0  0  0  0  0  0  0  0  0  0  0
    2.7474  -11.6133   13.1678 C   0  0  0  0  0  0  0  0  0  0  0  0
    3.9161  -11.0108   13.8832 N   0  0  0  0  0  0  0  0  0  0  0  0
   -3.4077  -10.7156   16.5262 C   0  0  2  0  0  0  0  0  0  0  0  0
   -4.5976   -9.8968   16.5401 N   0  0  0  0  0  0  0  0  0  0  0  0
   -2.5861  -10.4328   15.2042 C   0  0  0  0  0  0  0  0  0  0  0  0
   -1.2714  -11.3336   15.1724 C   0  0  2  0  0  0  0  0  0  0  0  0
   -0.4922  -11.0546   13.9376 N   0  0  0  0  0  0  0  0  0  0  0  0
   -1.6887  -12.8749   15.2569 C   0  0  2  0  0  0  0  0  0  0  0  0
   -2.5101  -13.1071   16.5961 C   0  0  2  0  0  0  0  0  0  0  0  0
   -2.8847  -14.4838   16.6827 O   0  0  0  0  0  0  0  0  0  0  0  0
   -3.8071  -12.2057   16.6157 C   0  0  1  0  0  0  0  0  0  0  0  0
   -4.5338  -12.4137   17.8524 O   0  0  0  0  0  0  0  0  0  0  0  0
   -5.3373  -13.5086   18.1360 C   0  0  2  0  0  0  0  0  0  0  0  0
   -6.6178  -13.4006   17.2339 C   0  0  2  0  0  0  0  0  0  0  0  0
   -6.2455  -13.3530   15.8944 O   0  0  0  0  0  0  0  0  0  0  0  0
   -7.5116  -12.1480   17.6258 C   0  0  1  0  0  0  0  0  0  0  0  0
   -8.7310  -12.0715   16.7633 N   0  0  0  0  0  0  0  0  0  0  0  0
   -7.9064  -12.2652   19.1626 C   0  0  2  0  0  0  0  0  0  0  0  0
   -8.7269  -11.1607   19.5628 O   0  0  0  0  0  0  0  0  0  0  0  0
   -6.5756  -12.3339   20.0071 C   0  0  2  0  0  0  0  0  0  0  0  0
   -5.7187  -13.5149   19.5717 O   0  0  0  0  0  0  0  0  0  0  0  0
   -6.8718  -12.4670   21.4819 C   0  0  0  0  0  0  0  0  0  0  0  0
   -7.5369  -11.3100   22.0220 O   0  0  0  0  0  0  0  0  0  0  0  0
    0.2389  -16.4538   14.9527 O   0  0  0  0  0  0  0  0  0  0  0  0
    3.0613  -16.1550   15.2173 O   0  0  0  0  0  0  0  0  0  0  0  0
   -4.4884   -8.5085   16.9244 C   0  0  0  0  0  0  0  0  0  0  0  0
   -3.5138   -8.1282   17.6389 O   0  0  0  0  0  0  0  0  0  0  0  0
   -5.5980   -7.5267   16.4374 C   0  0  2  0  0  0  0  0  0  0  0  0
   -9.3790   -7.2666   17.3333 N   0  0  0  0  0  0  0  0  0  0  0  0
   -6.9763   -7.8799   17.0769 C   0  0  0  0  0  0  0  0  0  0  0  0
   -8.0980   -6.9055   16.6801 C   0  0  0  0  0  0  0  0  0  0  0  0
   -5.7844   -7.5825   15.1804 O   0  0  0  0  0  0  0  0  0  0  0  0
  1  2  1  1  0  0  0
  1  3  1  0  0  0  0
  1  8  1  0  0  0  0
  3  4  1  0  0  0  0
  3 32  1  1  0  0  0
  4  5  1  0  0  0  0
  4 33  1  6  0  0  0
  5  6  1  1  0  0  0
  5  7  1  0  0  0  0
  7  8  1  0  0  0  0
  7  9  1  6  0  0  0
  9 10  1  0  0  0  0
 11 12  1  6  0  0  0
 11 13  1  0  0  0  0
 11 19  1  0  0  0  0
 12 34  1  0  0  0  0
 13 14  1  0  0  0  0
 14 15  1  6  0  0  0
 14 16  1  0  0  0  0
 16  2  1  1  0  0  0
 16 17  1  0  0  0  0
 17 18  1  6  0  0  0
 17 19  1  0  0  0  0
 19 20  1  1  0  0  0
 21 20  1  1  0  0  0
 21 22  1  0  0  0  0
 21 29  1  0  0  0  0
 22 23  1  6  0  0  0
 22 24  1  0  0  0  0
 24 25  1  6  0  0  0
 24 26  1  0  0  0  0
 26 27  1  1  0  0  0
 26 28  1  0  0  0  0
 28 29  1  0  0  0  0
 28 30  1  1  0  0  0
 30 31  1  0  0  0  0
 34 35  2  0  0  0  0
 36 34  1  1  0  0  0
 36 38  1  0  0  0  0
 36 40  1  0  0  0  0
 37 39  1  0  0  0  0
 38 39  1  0  0  0  0
M  END
>  <CHROM.1>
-159.35544193,-91.29659832,-65.83916212,-79.44533404,162.75943277,-70.09312814
-65.01273771,65.43764878,177.46868883,-178.85437215,-3.15122944,-11.94813083
16.44724956,0.16415313,-0.48931490,2.77022564

>  <Name>
ligand

>  <RI>
0

>  <Rbt.Current_Directory>
/home/itssahil/PROJECTS/Mol_Feturizer/New_Systems/rnas/4P20

>  <Rbt.Executable>
rbdock ($Id: //depot/dev/client3/rdock/2013.1/src/exe/rbdock.cxx#4 $)

>  <Rbt.Library>
libRbt.so (2013.1, Build901 2013/11/27)

>  <Rbt.Parameter_File>
/export/apps/rDock/src/rDock_2013.1_src/data/scripts/dock_solv.prm

>  <Rbt.Receptor>
prm/pocket_docking_8.prm

>  <SCORE>
-9.90258

>  <SCORE.INTER>
-3.07031

>  <SCORE.INTER.CONST>
1

>  <SCORE.INTER.POLAR>
0

>  <SCORE.INTER.ROT>
10

>  <SCORE.INTER.SOLV>
13.0265

>  <SCORE.INTER.VDW>
-16.6557

>  <SCORE.INTER.norm>
-0.0767578

>  <SCORE.INTRA>
-6.83226

>  <SCORE.INTRA.DIHEDRAL>
-19.2934

>  <SCORE.INTRA.DIHEDRAL.0>
28.2802

>  <SCORE.INTRA.POLAR>
0

>  <SCORE.INTRA.POLAR.0>
0

>  <SCORE.INTRA.REPUL>
0

>  <SCORE.INTRA.REPUL.0>
0

>  <SCORE.INTRA.SOLV>
2.56177

>  <SCORE.INTRA.SOLV.lig_0>
-101.981

>  <SCORE.INTRA.VDW>
1.53356

>  <SCORE.INTRA.VDW.0>
-5.72964

>  <SCORE.INTRA.norm>
-0.170807

>  <SCORE.RESTR>
0

>  <SCORE.RESTR.CAVITY>
0

>  <SCORE.RESTR.norm>
0

>  <SCORE.SYSTEM>
0

>  <SCORE.SYSTEM.CONST>
0

>  <SCORE.SYSTEM.DIHEDRAL>
0

>  <SCORE.SYSTEM.SOLV>
0

>  <SCORE.SYSTEM.norm>
0

>  <SCORE.heavy>
40

>  <SCORE.norm>
-0.247564

>  <RMSD>
8.454

$$$$
ligand
 OpenBabel11021811513D
libRbt.so/2013.1/901 2013/11/27
 40 42  0  0  0  0  0  0  0  0999 V2000
   -5.0085   -9.0457   17.4776 C   0  0  2  0  0  0  0  0  0  0  0  0
   -3.6690   -8.8390   17.0022 O   0  0  0  0  0  0  0  0  0  0  0  0
   -5.5344  -10.4672   17.0507 C   0  0  1  0  0  0  0  0  0  0  0  0
   -5.6834  -10.5816   15.5055 C   0  0  2  0  0  0  0  0  0  0  0  0
   -6.6990   -9.4889   15.0442 C   0  0  2  0  0  0  0  0  0  0  0  0
   -6.8822   -9.5826   13.6151 O   0  0  0  0  0  0  0  0  0  0  0  0
   -6.1222   -8.0621   15.4478 C   0  0  2  0  0  0  0  0  0  0  0  0
   -5.9331   -7.9965   16.9411 O   0  0  0  0  0  0  0  0  0  0  0  0
   -7.0548   -6.9239   15.0566 C   0  0  0  0  0  0  0  0  0  0  0  0
   -8.3451   -6.9860   15.8128 N   0  0  0  0  0  0  0  0  0  0  0  0
    0.0399   -8.4107   19.3239 C   0  0  2  0  0  0  0  0  0  0  0  0
    1.1745   -8.7600   20.1467 N   0  0  0  0  0  0  0  0  0  0  0  0
   -1.2984   -8.7408   20.1003 C   0  0  0  0  0  0  0  0  0  0  0  0
   -2.5604   -8.3648   19.2021 C   0  0  2  0  0  0  0  0  0  0  0  0
   -3.8169   -8.6602   19.9394 N   0  0  0  0  0  0  0  0  0  0  0  0
   -2.4900   -9.1817   17.8293 C   0  0  2  0  0  0  0  0  0  0  0  0
   -1.1322   -8.8188   17.0901 C   0  0  2  0  0  0  0  0  0  0  0  0
   -1.0615   -9.5417   15.8590 O   0  0  0  0  0  0  0  0  0  0  0  0
    0.1090   -9.1927   17.9928 C   0  0  1  0  0  0  0  0  0  0  0  0
    1.3386   -8.8363   17.3133 O   0  0  0  0  0  0  0  0  0  0  0  0
    1.7930   -9.3994   16.1295 C   0  0  2  0  0  0  0  0  0  0  0  0
    2.0222  -10.9302   16.3926 C   0  0  2  0  0  0  0  0  0  0  0  0
    0.8384  -11.5131   16.8332 O   0  0  0  0  0  0  0  0  0  0  0  0
    3.2036  -11.1812   17.4235 C   0  0  1  0  0  0  0  0  0  0  0  0
    3.4129  -12.6447   17.6497 N   0  0  0  0  0  0  0  0  0  0  0  0
    4.5247  -10.4965   16.8603 C   0  0  2  0  0  0  0  0  0  0  0  0
    5.6266  -10.7067   17.7519 O   0  0  0  0  0  0  0  0  0  0  0  0
    4.2314   -8.9601   16.6542 C   0  0  2  0  0  0  0  0  0  0  0  0
    3.0614   -8.7556   15.7014 O   0  0  0  0  0  0  0  0  0  0  0  0
    5.4396   -8.2438   16.0996 C   0  0  0  0  0  0  0  0  0  0  0  0
    6.5830   -8.3261   16.9707 O   0  0  0  0  0  0  0  0  0  0  0  0
   -4.6042  -11.4695   17.5547 O   0  0  0  0  0  0  0  0  0  0  0  0
   -6.1556  -11.8330   15.1913 O   0  0  0  0  0  0  0  0  0  0  0  0
    2.3512   -7.9227   20.1095 C   0  0  0  0  0  0  0  0  0  0  0  0
    2.5703   -7.1896   19.0998 O   0  0  0  0  0  0  0  0  0  0  0  0
    3.3165   -7.9653   21.3338 C   0  0  2  0  0  0  0  0  0  0  0  0
    4.6590   -6.1709   23.4287 N   0  0  0  0  0  0  0  0  0  0  0  0
    4.5580   -7.0506   21.0983 C   0  0  0  0  0  0  0  0  0  0  0  0
    5.4193   -6.8588   22.3578 C   0  0  0  0  0  0  0  0  0  0  0  0
    3.7883   -9.1275   21.5455 O   0  0  0  0  0  0  0  0  0  0  0  0
  1  2  1  6  0  0  0
  1  3  1  0  0  0  0
  1  8  1  0  0  0  0
  3  4  1  0  0  0  0
  3 32  1  6  0  0  0
  4  5  1  0  0  0  0
  4 33  1  1  0  0  0
  5  6  1  6  0  0  0
  5  7  1  0  0  0  0
  7  8  1  0  0  0  0
  7  9  1  1  0  0  0
  9 10  1  0  0  0  0
 11 12  1  1  0  0  0
 11 13  1  0  0  0  0
 11 19  1  0  0  0  0
 12 34  1  0  0  0  0
 13 14  1  0  0  0  0
 14 15  1  1  0  0  0
 14 16  1  0  0  0  0
 16  2  1  6  0  0  0
 16 17  1  0  0  0  0
 17 18  1  6  0  0  0
 17 19  1  0  0  0  0
 19 20  1  6  0  0  0
 21 20  1  1  0  0  0
 21 22  1  0  0  0  0
 21 29  1  0  0  0  0
 22 23  1  1  0  0  0
 22 24  1  0  0  0  0
 24 25  1  6  0  0  0
 24 26  1  0  0  0  0
 26 27  1  1  0  0  0
 26 28  1  0  0  0  0
 28 29  1  0  0  0  0
 28 30  1  6  0  0  0
 30 31  1  0  0  0  0
 34 35  2  0  0  0  0
 36 34  1  6  0  0  0
 36 38  1  0  0  0  0
 36 40  1  0  0  0  0
 37 39  1  0  0  0  0
 38 39  1  0  0  0  0
M  END
>  <CHROM.1>
-91.72799163,-58.30517814,65.05700877,-143.24834650,175.58778178,-61.75811283
-60.63702203,177.58321277,169.98815748,-63.03665761,-0.34068126,-9.09520260
17.72009965,2.86152709,0.11371875,-2.10536015

>  <Name>
ligand

>  <RI>
0

>  <Rbt.Current_Directory>
/home/itssahil/PROJECTS/Mol_Feturizer/New_Systems/rnas/4P20

>  <Rbt.Executable>
rbdock ($Id: //depot/dev/client3/rdock/2013.1/src/exe/rbdock.cxx#4 $)

>  <Rbt.Library>
libRbt.so (2013.1, Build901 2013/11/27)

>  <Rbt.Parameter_File>
/export/apps/rDock/src/rDock_2013.1_src/data/scripts/dock_solv.prm

>  <Rbt.Receptor>
prm/pocket_docking_5.prm

>  <SCORE>
-9.28258

>  <SCORE.INTER>
-2.37676

>  <SCORE.INTER.CONST>
1

>  <SCORE.INTER.POLAR>
0

>  <SCORE.INTER.ROT>
10

>  <SCORE.INTER.SOLV>
17.8685

>  <SCORE.INTER.VDW>
-17.8073

>  <SCORE.INTER.norm>
-0.0594191

>  <SCORE.INTRA>
-6.90582

>  <SCORE.INTRA.DIHEDRAL>
-22.1231

>  <SCORE.INTRA.DIHEDRAL.0>
28.2802

>  <SCORE.INTRA.POLAR>
0

>  <SCORE.INTRA.POLAR.0>
0

>  <SCORE.INTRA.REPUL>
0

>  <SCORE.INTRA.REPUL.0>
0

>  <SCORE.INTRA.SOLV>
3.6056

>  <SCORE.INTRA.SOLV.lig_0>
-101.981

>  <SCORE.INTRA.VDW>
2.35293

>  <SCORE.INTRA.VDW.0>
-5.72964

>  <SCORE.INTRA.norm>
-0.172645

>  <SCORE.RESTR>
0

>  <SCORE.RESTR.CAVITY>
0

>  <SCORE.RESTR.norm>
0

>  <SCORE.SYSTEM>
0

>  <SCORE.SYSTEM.CONST>
0

>  <SCORE.SYSTEM.DIHEDRAL>
0

>  <SCORE.SYSTEM.SOLV>
0

>  <SCORE.SYSTEM.norm>
0

>  <SCORE.heavy>
40

>  <SCORE.norm>
-0.232064

>  <RMSD>
8.463

$$$$
ligand
 OpenBabel11021811513D
libRbt.so/2013.1/901 2013/11/27
 40 42  0  0  0  0  0  0  0  0999 V2000
   -4.0488  -10.1846   15.9176 C   0  0  2  0  0  0  0  0  0  0  0  0
   -3.5167  -10.4702   17.2208 O   0  0  0  0  0  0  0  0  0  0  0  0
   -5.0431   -8.9653   15.9806 C   0  0  1  0  0  0  0  0  0  0  0  0
   -6.3116   -9.3041   16.8166 C   0  0  2  0  0  0  0  0  0  0  0  0
   -7.0180  -10.5193   16.1365 C   0  0  2  0  0  0  0  0  0  0  0  0
   -8.2164  -10.8460   16.8724 O   0  0  0  0  0  0  0  0  0  0  0  0
   -6.0079  -11.7487   16.1266 C   0  0  2  0  0  0  0  0  0  0  0  0
   -4.7650  -11.3764   15.3607 O   0  0  0  0  0  0  0  0  0  0  0  0
   -6.5993  -12.9843   15.4619 C   0  0  0  0  0  0  0  0  0  0  0  0
   -7.8883  -13.3907   16.1052 N   0  0  0  0  0  0  0  0  0  0  0  0
    0.2399   -8.1877   17.3101 C   0  0  2  0  0  0  0  0  0  0  0  0
    1.5468   -7.7400   17.7320 N   0  0  0  0  0  0  0  0  0  0  0  0
   -0.7978   -7.9726   18.4847 C   0  0  0  0  0  0  0  0  0  0  0  0
   -2.2451   -8.4670   18.0352 C   0  0  2  0  0  0  0  0  0  0  0  0
   -3.2221   -8.2490   19.1341 N   0  0  0  0  0  0  0  0  0  0  0  0
   -2.1691  -10.0112   17.6269 C   0  0  2  0  0  0  0  0  0  0  0  0
   -1.1164  -10.1751   16.4493 C   0  0  2  0  0  0  0  0  0  0  0  0
   -1.0440  -11.5525   16.0744 O   0  0  0  0  0  0  0  0  0  0  0  0
    0.3113   -9.6779   16.9072 C   0  0  1  0  0  0  0  0  0  0  0  0
    1.2549   -9.8145   15.8155 O   0  0  0  0  0  0  0  0  0  0  0  0
    2.4242  -10.5603   15.8547 C   0  0  2  0  0  0  0  0  0  0  0  0
    3.5732   -9.6678   15.2645 C   0  0  2  0  0  0  0  0  0  0  0  0
    3.6750   -8.4892   15.9964 O   0  0  0  0  0  0  0  0  0  0  0  0
    3.3529   -9.3674   13.7209 C   0  0  1  0  0  0  0  0  0  0  0  0
    4.4641   -8.5272   13.1766 N   0  0  0  0  0  0  0  0  0  0  0  0
    3.2502  -10.7511   12.9425 C   0  0  2  0  0  0  0  0  0  0  0  0
    3.0633  -10.5326   11.5386 O   0  0  0  0  0  0  0  0  0  0  0  0
    2.0577  -11.5762   13.5640 C   0  0  2  0  0  0  0  0  0  0  0  0
    2.2750  -11.8025   15.0540 O   0  0  0  0  0  0  0  0  0  0  0  0
    1.9109  -12.9175   12.8859 C   0  0  0  0  0  0  0  0  0  0  0  0
    0.8216  -13.6936   13.4188 O   0  0  0  0  0  0  0  0  0  0  0  0
   -4.3360   -7.8274   16.5545 O   0  0  0  0  0  0  0  0  0  0  0  0
   -7.1470   -8.2134   16.8276 O   0  0  0  0  0  0  0  0  0  0  0  0
    2.2053   -8.4264   18.8192 C   0  0  0  0  0  0  0  0  0  0  0  0
    1.5183   -9.0828   19.6572 O   0  0  0  0  0  0  0  0  0  0  0  0
    3.7584   -8.3209   18.9152 C   0  0  2  0  0  0  0  0  0  0  0  0
    4.5557   -7.6652   22.6642 N   0  0  0  0  0  0  0  0  0  0  0  0
    4.2479   -8.5935   20.3711 C   0  0  0  0  0  0  0  0  0  0  0  0
    3.8945   -7.4636   21.3527 C   0  0  0  0  0  0  0  0  0  0  0  0
    4.1895   -7.1598   18.6255 O   0  0  0  0  0  0  0  0  0  0  0  0
  1  2  1  1  0  0  0
  1  3  1  0  0  0  0
  1  8  1  0  0  0  0
  3  4  1  0  0  0  0
  3 32  1  1  0  0  0
  4  5  1  0  0  0  0
  4 33  1  6  0  0  0
  5  6  1  1  0  0  0
  5  7  1  0  0  0  0
  7  8  1  0  0  0  0
  7  9  1  6  0  0  0
  9 10  1  0  0  0  0
 11 12  1  1  0  0  0
 11 13  1  0  0  0  0
 11 19  1  0  0  0  0
 12 34  1  0  0  0  0
 13 14  1  0  0  0  0
 14 15  1  1  0  0  0
 14 16  1  0  0  0  0
 16  2  1  6  0  0  0
 16 17  1  0  0  0  0
 17 18  1  1  0  0  0
 17 19  1  0  0  0  0
 19 20  1  6  0  0  0
 21 20  1  6  0  0  0
 21 22  1  0  0  0  0
 21 29  1  0  0  0  0
 22 23  1  1  0  0  0
 22 24  1  0  0  0  0
 24 25  1  6  0  0  0
 24 26  1  0  0  0  0
 26 27  1  6  0  0  0
 26 28  1  0  0  0  0
 28 29  1  0  0  0  0
 28 30  1  6  0  0  0
 30 31  1  0  0  0  0
 34 35  2  0  0  0  0
 36 34  1  1  0  0  0
 36 38  1  0  0  0  0
 36 40  1  0  0  0  0
 37 39  1  0  0  0  0
 38 39  1  0  0  0  0
M  END
>  <CHROM.1>
-100.06263196,79.32629232,-56.01533342,64.29337659,118.27177008,-133.14984603
-179.39455891,157.24350402,-70.84744501,-171.21778247,-0.58875369,-9.82259004
16.55233327,-2.99703129,0.11105360,1.04041697

>  <Name>
ligand

>  <RI>
0

>  <Rbt.Current_Directory>
/home/itssahil/PROJECTS/Mol_Feturizer/New_Systems/rnas/4P20

>  <Rbt.Executable>
rbdock ($Id: //depot/dev/client3/rdock/2013.1/src/exe/rbdock.cxx#4 $)

>  <Rbt.Library>
libRbt.so (2013.1, Build901 2013/11/27)

>  <Rbt.Parameter_File>
/export/apps/rDock/src/rDock_2013.1_src/data/scripts/dock_solv.prm

>  <Rbt.Receptor>
prm/pocket_docking_2.prm

>  <SCORE>
5.52681

>  <SCORE.INTER>
1.85621

>  <SCORE.INTER.CONST>
1

>  <SCORE.INTER.POLAR>
0

>  <SCORE.INTER.ROT>
10

>  <SCORE.INTER.SOLV>
18.4619

>  <SCORE.INTER.VDW>
-15.1832

>  <SCORE.INTER.norm>
0.0464054

>  <SCORE.INTRA>
1.85654

>  <SCORE.INTRA.DIHEDRAL>
-5.51637

>  <SCORE.INTRA.DIHEDRAL.0>
28.2802

>  <SCORE.INTRA.POLAR>
0

>  <SCORE.INTRA.POLAR.0>
0

>  <SCORE.INTRA.REPUL>
0

>  <SCORE.INTRA.REPUL.0>
0

>  <SCORE.INTRA.SOLV>
3.58983

>  <SCORE.INTRA.SOLV.lig_0>
-101.981

>  <SCORE.INTRA.VDW>
2.81981

>  <SCORE.INTRA.VDW.0>
-5.72964

>  <SCORE.INTRA.norm>
0.0464135

>  <SCORE.RESTR>
1.81405

>  <SCORE.RESTR.CAVITY>
1.81405

>  <SCORE.RESTR.norm>
0.0453513

>  <SCORE.SYSTEM>
0

>  <SCORE.SYSTEM.CONST>
0

>  <SCORE.SYSTEM.DIHEDRAL>
0

>  <SCORE.SYSTEM.SOLV>
0

>  <SCORE.SYSTEM.norm>
0

>  <SCORE.heavy>
40

>  <SCORE.norm>
0.13817

>  <RMSD>
8.469

$$$$
ligand
 OpenBabel11021811513D
libRbt.so/2013.1/901 2013/11/27
 40 42  0  0  0  0  0  0  0  0999 V2000
   -1.2818  -11.4759   16.7521 C   0  0  2  0  0  0  0  0  0  0  0  0
   -1.3689  -10.1918   17.3896 O   0  0  0  0  0  0  0  0  0  0  0  0
   -2.5346  -11.7228   15.8307 C   0  0  1  0  0  0  0  0  0  0  0  0
   -3.8455  -11.8270   16.6635 C   0  0  2  0  0  0  0  0  0  0  0  0
   -3.6837  -13.0215   17.6562 C   0  0  2  0  0  0  0  0  0  0  0  0
   -4.8945  -13.1647   18.4295 O   0  0  0  0  0  0  0  0  0  0  0  0
   -2.4399  -12.7252   18.6031 C   0  0  2  0  0  0  0  0  0  0  0  0
   -1.1943  -12.5719   17.7693 O   0  0  0  0  0  0  0  0  0  0  0  0
   -2.1851  -13.8476   19.5999 C   0  0  0  0  0  0  0  0  0  0  0  0
   -3.3391  -14.0230   20.5369 N   0  0  0  0  0  0  0  0  0  0  0  0
    1.8114   -7.4670   18.7281 C   0  0  2  0  0  0  0  0  0  0  0  0
    2.8977   -6.9306   19.5146 N   0  0  0  0  0  0  0  0  0  0  0  0
    0.5279   -7.6284   19.6389 C   0  0  0  0  0  0  0  0  0  0  0  0
   -0.6790   -8.2245   18.7850 C   0  0  2  0  0  0  0  0  0  0  0  0
   -1.8886   -8.3601   19.6382 N   0  0  0  0  0  0  0  0  0  0  0  0
   -0.2423   -9.6356   18.1726 C   0  0  2  0  0  0  0  0  0  0  0  0
    1.0470   -9.4218   17.2705 C   0  0  2  0  0  0  0  0  0  0  0  0
    1.4433  -10.6779   16.7149 O   0  0  0  0  0  0  0  0  0  0  0  0
    2.2329   -8.8273   18.1281 C   0  0  1  0  0  0  0  0  0  0  0  0
    3.3943   -8.6188   17.2864 O   0  0  0  0  0  0  0  0  0  0  0  0
    4.4913   -7.8348   17.6133 C   0  0  2  0  0  0  0  0  0  0  0  0
    5.4928   -7.8974   16.4058 C   0  0  2  0  0  0  0  0  0  0  0  0
    4.8590   -7.4602   15.2473 O   0  0  0  0  0  0  0  0  0  0  0  0
    6.0963   -9.3537   16.2150 C   0  0  1  0  0  0  0  0  0  0  0  0
    7.0562   -9.3879   15.0685 N   0  0  0  0  0  0  0  0  0  0  0  0
    6.8088   -9.7909   17.5686 C   0  0  2  0  0  0  0  0  0  0  0  0
    7.3827  -11.0980   17.4425 O   0  0  0  0  0  0  0  0  0  0  0  0
    5.7381   -9.7377   18.7260 C   0  0  2  0  0  0  0  0  0  0  0  0
    5.1425   -8.3417   18.8485 O   0  0  0  0  0  0  0  0  0  0  0  0
    6.3490  -10.1226   20.0524 C   0  0  0  0  0  0  0  0  0  0  0  0
    5.3991  -10.0858   21.1336 O   0  0  0  0  0  0  0  0  0  0  0  0
   -2.6191  -10.6296   14.8707 O   0  0  0  0  0  0  0  0  0  0  0  0
   -4.9007  -12.0544   15.8136 O   0  0  0  0  0  0  0  0  0  0  0  0
    2.8589   -5.5409   19.9071 C   0  0  0  0  0  0  0  0  0  0  0  0
    2.1633   -4.7179   19.2408 O   0  0  0  0  0  0  0  0  0  0  0  0
    3.6944   -5.1101   21.1516 C   0  0  2  0  0  0  0  0  0  0  0  0
    1.2218   -3.3330   21.3886 N   0  0  0  0  0  0  0  0  0  0  0  0
    3.7033   -3.5581   21.3085 C   0  0  0  0  0  0  0  0  0  0  0  0
    2.4914   -3.0189   22.0868 C   0  0  0  0  0  0  0  0  0  0  0  0
    4.9174   -5.4478   21.0614 O   0  0  0  0  0  0  0  0  0  0  0  0
  1  2  1  1  0  0  0
  1  3  1  0  0  0  0
  1  8  1  0  0  0  0
  3  4  1  0  0  0  0
  3 32  1  6  0  0  0
  4  5  1  0  0  0  0
  4 33  1  6  0  0  0
  5  6  1  1  0  0  0
  5  7  1  0  0  0  0
  7  8  1  0  0  0  0
  7  9  1  1  0  0  0
  9 10  1  0  0  0  0
 11 12  1  1  0  0  0
 11 13  1  0  0  0  0
 11 19  1  0  0  0  0
 12 34  1  0  0  0  0
 13 14  1  0  0  0  0
 14 15  1  1  0  0  0
 14 16  1  0  0  0  0
 16  2  1  6  0  0  0
 16 17  1  0  0  0  0
 17 18  1  1  0  0  0
 17 19  1  0  0  0  0
 19 20  1  6  0  0  0
 21 20  1  6  0  0  0
 21 22  1  0  0  0  0
 21 29  1  0  0  0  0
 22 23  1  6  0  0  0
 22 24  1  0  0  0  0
 24 25  1  6  0  0  0
 24 26  1  0  0  0  0
 26 27  1  6  0  0  0
 26 28  1  0  0  0  0
 28 29  1  0  0  0  0
 28 30  1  1  0  0  0
 30 31  1  0  0  0  0
 34 35  2  0  0  0  0
 36 34  1  6  0  0  0
 36 38  1  0  0  0  0
 36 40  1  0  0  0  0
 37 39  1  0  0  0  0
 38 39  1  0  0  0  0
M  END
>  <CHROM.1>
-172.07243814,-178.11191711,-62.80008994,-72.90413454,43.99560186,-179.71033721
-179.97171590,171.81305808,85.79053050,-61.68186320,1.55070537,-9.14301657
18.34190841,-2.56116895,0.17288254,0.54567318

>  <Name>
ligand

>  <RI>
0

>  <Rbt.Current_Directory>
/home/itssahil/PROJECTS/Mol_Feturizer/New_Systems/rnas/4P20

>  <Rbt.Executable>
rbdock ($Id: //depot/dev/client3/rdock/2013.1/src/exe/rbdock.cxx#4 $)

>  <Rbt.Library>
libRbt.so (2013.1, Build901 2013/11/27)

>  <Rbt.Parameter_File>
/export/apps/rDock/src/rDock_2013.1_src/data/scripts/dock_solv.prm

>  <Rbt.Receptor>
prm/pocket_docking_5.prm

>  <SCORE>
-9.87624

>  <SCORE.INTER>
-1.90381

>  <SCORE.INTER.CONST>
1

>  <SCORE.INTER.POLAR>
0

>  <SCORE.INTER.ROT>
10

>  <SCORE.INTER.SOLV>
15.9797

>  <SCORE.INTER.VDW>
-16.8625

>  <SCORE.INTER.norm>
-0.0475953

>  <SCORE.INTRA>
-7.97826

>  <SCORE.INTRA.DIHEDRAL>
-23.7195

>  <SCORE.INTRA.DIHEDRAL.0>
28.2802

>  <SCORE.INTRA.POLAR>
0

>  <SCORE.INTRA.POLAR.0>
0

>  <SCORE.INTRA.REPUL>
0

>  <SCORE.INTRA.REPUL.0>
0

>  <SCORE.INTRA.SOLV>
1.89934

>  <SCORE.INTRA.SOLV.lig_0>
-101.981

>  <SCORE.INTRA.VDW>
2.93184

>  <SCORE.INTRA.VDW.0>
-5.72964

>  <SCORE.INTRA.norm>
-0.199456

>  <SCORE.RESTR>
0.00582939

>  <SCORE.RESTR.CAVITY>
0.00582939

>  <SCORE.RESTR.norm>
0.000145735

>  <SCORE.SYSTEM>
0

>  <SCORE.SYSTEM.CONST>
0

>  <SCORE.SYSTEM.DIHEDRAL>
0

>  <SCORE.SYSTEM.SOLV>
0

>  <SCORE.SYSTEM.norm>
0

>  <SCORE.heavy>
40

>  <SCORE.norm>
-0.246906

>  <RMSD>
8.486

$$$$
ligand
 OpenBabel11021811513D
libRbt.so/2013.1/901 2013/11/27
 40 42  0  0  0  0  0  0  0  0999 V2000
    4.7132  -13.7235   17.3196 C   0  0  2  0  0  0  0  0  0  0  0  0
    5.0397  -13.9311   18.7028 O   0  0  0  0  0  0  0  0  0  0  0  0
    5.3007  -14.8837   16.4318 C   0  0  1  0  0  0  0  0  0  0  0  0
    6.8572  -14.8748   16.4355 C   0  0  2  0  0  0  0  0  0  0  0  0
    7.3255  -13.4965   15.8703 C   0  0  2  0  0  0  0  0  0  0  0  0
    8.7684  -13.4624   15.8347 O   0  0  0  0  0  0  0  0  0  0  0  0
    6.7559  -12.3463   16.8105 C   0  0  2  0  0  0  0  0  0  0  0  0
    5.2508  -12.4119   16.8355 O   0  0  0  0  0  0  0  0  0  0  0  0
    7.1429  -10.9545   16.3295 C   0  0  0  0  0  0  0  0  0  0  0  0
    8.6266  -10.7578   16.3526 N   0  0  0  0  0  0  0  0  0  0  0  0
    2.9926  -12.0418   22.1042 C   0  0  2  0  0  0  0  0  0  0  0  0
    2.6665  -11.0728   23.1246 N   0  0  0  0  0  0  0  0  0  0  0  0
    4.4792  -12.5436   22.3067 C   0  0  0  0  0  0  0  0  0  0  0  0
    4.8554  -13.6108   21.1841 C   0  0  2  0  0  0  0  0  0  0  0  0
    6.2468  -14.0935   21.3856 N   0  0  0  0  0  0  0  0  0  0  0  0
    4.6788  -12.9412   19.7428 C   0  0  2  0  0  0  0  0  0  0  0  0
    3.1753  -12.4537   19.5889 C   0  0  2  0  0  0  0  0  0  0  0  0
    3.0062  -11.8566   18.3012 O   0  0  0  0  0  0  0  0  0  0  0  0
    2.8153  -11.4002   20.7096 C   0  0  1  0  0  0  0  0  0  0  0  0
    1.4350  -10.9814   20.5680 O   0  0  0  0  0  0  0  0  0  0  0  0
    0.8839   -9.8350   21.1221 C   0  0  2  0  0  0  0  0  0  0  0  0
   -0.6129   -9.7574   20.6544 C   0  0  2  0  0  0  0  0  0  0  0  0
   -1.2874  -10.9091   21.0465 O   0  0  0  0  0  0  0  0  0  0  0  0
   -0.7301   -9.5292   19.0873 C   0  0  1  0  0  0  0  0  0  0  0  0
   -2.1626   -9.4459   18.6657 N   0  0  0  0  0  0  0  0  0  0  0  0
    0.0549   -8.1989   18.7064 C   0  0  2  0  0  0  0  0  0  0  0  0
   -0.0326   -7.9416   17.2994 O   0  0  0  0  0  0  0  0  0  0  0  0
    1.5530   -8.3625   19.1732 C   0  0  2  0  0  0  0  0  0  0  0  0
    1.6270   -8.6308   20.6703 O   0  0  0  0  0  0  0  0  0  0  0  0
    2.3596   -7.1245   18.8617 C   0  0  0  0  0  0  0  0  0  0  0  0
    1.9328   -5.9775   19.6200 O   0  0  0  0  0  0  0  0  0  0  0  0
    4.7911  -16.1512   16.9396 O   0  0  0  0  0  0  0  0  0  0  0  0
    7.3142  -15.8960   15.6381 O   0  0  0  0  0  0  0  0  0  0  0  0
    1.4328  -11.2199   23.8618 C   0  0  0  0  0  0  0  0  0  0  0  0
    0.4744  -11.8789   23.3597 O   0  0  0  0  0  0  0  0  0  0  0  0
    1.3353  -10.5440   25.2640 C   0  0  2  0  0  0  0  0  0  0  0  0
    3.5825  -12.9229   27.3743 N   0  0  0  0  0  0  0  0  0  0  0  0
    1.7601  -11.5340   26.3921 C   0  0  0  0  0  0  0  0  0  0  0  0
    3.2429  -11.9356   26.3217 C   0  0  0  0  0  0  0  0  0  0  0  0
    0.1491  -10.1886   25.5551 O   0  0  0  0  0  0  0  0  0  0  0  0
  1  2  1  1  0  0  0
  1  3  1  0  0  0  0
  1  8  1  0  0  0  0
  3  4  1  0  0  0  0
  3 32  1  1  0  0  0
  4  5  1  0  0  0  0
  4 33  1  6  0  0  0
  5  6  1  1  0  0  0
  5  7  1  0  0  0  0
  7  8  1  0  0  0  0
  7  9  1  6  0  0  0
  9 10  1  0  0  0  0
 11 12  1  1  0  0  0
 11 13  1  0  0  0  0
 11 19  1  0  0  0  0
 12 34  1  0  0  0  0
 13 14  1  0  0  0  0
 14 15  1  1  0  0  0
 14 16  1  0  0  0  0
 16  2  1  6  0  0  0
 16 17  1  0  0  0  0
 17 18  1  6  0  0  0
 17 19  1  0  0  0  0
 19 20  1  6  0  0  0
 21 20  1  6  0  0  0
 21 22  1  0  0  0  0
 21 29  1  0  0  0  0
 22 23  1  6  0  0  0
 22 24  1  0  0  0  0
 24 25  1  1  0  0  0
 24 26  1  0  0  0  0
 26 27  1  6  0  0  0
 26 28  1  0  0  0  0
 28 29  1  0  0  0  0
 28 30  1  1  0  0  0
 30 31  1  0  0  0  0
 34 35  2  0  0  0  0
 36 34  1  6  0  0  0
 36 38  1  0  0  0  0
 36 40  1  0  0  0  0
 37 39  1  0  0  0  0
 38 39  1  0  0  0  0
M  END
>  <CHROM.1>
176.16587874,166.49019110,-62.89325699,-131.17402397,78.42225061,177.49889462
66.15737789,-92.32716058,65.46278189,-177.40436380,3.23836987,-11.54129896
20.00830391,-0.55593369,-0.73481357,1.88621664

>  <Name>
ligand

>  <RI>
0

>  <Rbt.Current_Directory>
/home/itssahil/PROJECTS/Mol_Feturizer/New_Systems/rnas/4P20

>  <Rbt.Executable>
rbdock ($Id: //depot/dev/client3/rdock/2013.1/src/exe/rbdock.cxx#4 $)

>  <Rbt.Library>
libRbt.so (2013.1, Build901 2013/11/27)

>  <Rbt.Parameter_File>
/export/apps/rDock/src/rDock_2013.1_src/data/scripts/dock_solv.prm

>  <Rbt.Receptor>
prm/pocket_docking_8.prm

>  <SCORE>
-5.94579

>  <SCORE.INTER>
4.3682

>  <SCORE.INTER.CONST>
1

>  <SCORE.INTER.POLAR>
0

>  <SCORE.INTER.ROT>
10

>  <SCORE.INTER.SOLV>
9.37101

>  <SCORE.INTER.VDW>
-10.4782

>  <SCORE.INTER.norm>
0.109205

>  <SCORE.INTRA>
-10.314

>  <SCORE.INTRA.DIHEDRAL>
-22.6309

>  <SCORE.INTRA.DIHEDRAL.0>
28.2802

>  <SCORE.INTRA.POLAR>
0

>  <SCORE.INTRA.POLAR.0>
0

>  <SCORE.INTRA.REPUL>
0

>  <SCORE.INTRA.REPUL.0>
0

>  <SCORE.INTRA.SOLV>
-0.0722799

>  <SCORE.INTRA.SOLV.lig_0>
-101.981

>  <SCORE.INTRA.VDW>
1.03762

>  <SCORE.INTRA.VDW.0>
-5.72964

>  <SCORE.INTRA.norm>
-0.25785

>  <SCORE.RESTR>
0

>  <SCORE.RESTR.CAVITY>
0

>  <SCORE.RESTR.norm>
0

>  <SCORE.SYSTEM>
0

>  <SCORE.SYSTEM.CONST>
0

>  <SCORE.SYSTEM.DIHEDRAL>
0

>  <SCORE.SYSTEM.SOLV>
0

>  <SCORE.SYSTEM.norm>
0

>  <SCORE.heavy>
40

>  <SCORE.norm>
-0.148645

>  <RMSD>
8.486

$$$$
ligand
 OpenBabel11021811513D
libRbt.so/2013.1/901 2013/11/27
 40 42  0  0  0  0  0  0  0  0999 V2000
   -2.0125  -12.3878   18.1092 C   0  0  2  0  0  0  0  0  0  0  0  0
   -1.4832  -12.4324   19.4437 O   0  0  0  0  0  0  0  0  0  0  0  0
   -3.3242  -13.2526   18.0045 C   0  0  1  0  0  0  0  0  0  0  0  0
   -3.0305  -14.7658   18.2206 C   0  0  2  0  0  0  0  0  0  0  0  0
   -2.0194  -15.2153   17.1188 C   0  0  2  0  0  0  0  0  0  0  0  0
   -1.7431  -16.6240   17.2728 O   0  0  0  0  0  0  0  0  0  0  0  0
   -0.6884  -14.3577   17.2759 C   0  0  2  0  0  0  0  0  0  0  0  0
   -1.0083  -12.8937   17.1197 O   0  0  0  0  0  0  0  0  0  0  0  0
    0.3591  -14.7091   16.2283 C   0  0  0  0  0  0  0  0  0  0  0  0
   -0.0618  -14.2690   14.8610 N   0  0  0  0  0  0  0  0  0  0  0  0
    1.4588   -9.1653   19.4192 C   0  0  2  0  0  0  0  0  0  0  0  0
    2.5112   -8.2826   19.8661 N   0  0  0  0  0  0  0  0  0  0  0  0
    0.2239   -9.0568   20.4022 C   0  0  0  0  0  0  0  0  0  0  0  0
   -0.9446  -10.0298   19.9241 C   0  0  2  0  0  0  0  0  0  0  0  0
   -2.1102   -9.9145   20.8393 N   0  0  0  0  0  0  0  0  0  0  0  0
   -0.3927  -11.5299   19.8771 C   0  0  2  0  0  0  0  0  0  0  0  0
    0.8432  -11.5865   18.8815 C   0  0  2  0  0  0  0  0  0  0  0  0
    1.3417  -12.9252   18.8297 O   0  0  0  0  0  0  0  0  0  0  0  0
    1.9911  -10.6151   19.3650 C   0  0  1  0  0  0  0  0  0  0  0  0
    3.1020  -10.6627   18.4353 O   0  0  0  0  0  0  0  0  0  0  0  0
    3.9189  -11.7628   18.2175 C   0  0  2  0  0  0  0  0  0  0  0  0
    4.9443  -11.8317   19.4044 C   0  0  2  0  0  0  0  0  0  0  0  0
    4.2591  -11.9150   20.6122 O   0  0  0  0  0  0  0  0  0  0  0  0
    5.9418  -10.5963   19.3946 C   0  0  1  0  0  0  0  0  0  0  0  0
    6.9168  -10.6884   20.5250 N   0  0  0  0  0  0  0  0  0  0  0  0
    6.6947  -10.5610   17.9935 C   0  0  2  0  0  0  0  0  0  0  0  0
    7.6190   -9.4673   17.9399 O   0  0  0  0  0  0  0  0  0  0  0  0
    5.6076  -10.4568   16.8549 C   0  0  2  0  0  0  0  0  0  0  0  0
    4.6373  -11.6283   16.9243 O   0  0  0  0  0  0  0  0  0  0  0  0
    6.2494  -10.4387   15.4881 C   0  0  0  0  0  0  0  0  0  0  0  0
    6.9522   -9.2111   15.2202 O   0  0  0  0  0  0  0  0  0  0  0  0
   -4.2741  -12.7649   18.9964 O   0  0  0  0  0  0  0  0  0  0  0  0
   -4.2036  -15.4718   18.1063 O   0  0  0  0  0  0  0  0  0  0  0  0
    2.8127   -7.1024   19.0895 C   0  0  0  0  0  0  0  0  0  0  0  0
    2.5023   -7.0605   17.8619 O   0  0  0  0  0  0  0  0  0  0  0  0
    3.5236   -5.9161   19.8104 C   0  0  2  0  0  0  0  0  0  0  0  0
    2.0926   -2.7076   21.4884 N   0  0  0  0  0  0  0  0  0  0  0  0
    2.4969   -4.8153   20.2198 C   0  0  0  0  0  0  0  0  0  0  0  0
    3.1224   -3.6767   21.0429 C   0  0  0  0  0  0  0  0  0  0  0  0
    4.3712   -5.3278   19.0664 O   0  0  0  0  0  0  0  0  0  0  0  0
  1  2  1  1  0  0  0
  1  3  1  0  0  0  0
  1  8  1  0  0  0  0
  3  4  1  0  0  0  0
  3 32  1  1  0  0  0
  4  5  1  0  0  0  0
  4 33  1  6  0  0  0
  5  6  1  1  0  0  0
  5  7  1  0  0  0  0
  7  8  1  0  0  0  0
  7  9  1  6  0  0  0
  9 10  1  0  0  0  0
 11 12  1  1  0  0  0
 11 13  1  0  0  0  0
 11 19  1  0  0  0  0
 12 34  1  0  0  0  0
 13 14  1  0  0  0  0
 14 15  1  1  0  0  0
 14 16  1  0  0  0  0
 16  2  1  6  0  0  0
 16 17  1  0  0  0  0
 17 18  1  1  0  0  0
 17 19  1  0  0  0  0
 19 20  1  6  0  0  0
 21 20  1  1  0  0  0
 21 22  1  0  0  0  0
 21 29  1  0  0  0  0
 22 23  1  1  0  0  0
 22 24  1  0  0  0  0
 24 25  1  1  0  0  0
 24 26  1  0  0  0  0
 26 27  1  1  0  0  0
 26 28  1  0  0  0  0
 28 29  1  0  0  0  0
 28 30  1  6  0  0  0
 30 31  1  0  0  0  0
 34 35  2  0  0  0  0
 36 34  1  6  0  0  0
 36 38  1  0  0  0  0
 36 40  1  0  0  0  0
 37 39  1  0  0  0  0
 38 39  1  0  0  0  0
M  END
>  <CHROM.1>
-169.41679565,68.10299589,69.01802778,-109.76244382,173.42853888,-78.38654634
-70.63491981,-99.09573319,174.99400415,-175.98081290,1.73377413,-10.72439378
18.57074480,2.38254004,-0.22859052,-2.73360122

>  <Name>
ligand

>  <RI>
0

>  <Rbt.Current_Directory>
/home/itssahil/PROJECTS/Mol_Feturizer/New_Systems/rnas/4P20

>  <Rbt.Executable>
rbdock ($Id: //depot/dev/client3/rdock/2013.1/src/exe/rbdock.cxx#4 $)

>  <Rbt.Library>
libRbt.so (2013.1, Build901 2013/11/27)

>  <Rbt.Parameter_File>
/export/apps/rDock/src/rDock_2013.1_src/data/scripts/dock_solv.prm

>  <Rbt.Receptor>
prm/pocket_docking_5.prm

>  <SCORE>
-7.55205

>  <SCORE.INTER>
1.74453

>  <SCORE.INTER.CONST>
1

>  <SCORE.INTER.POLAR>
0

>  <SCORE.INTER.ROT>
10

>  <SCORE.INTER.SOLV>
15.2273

>  <SCORE.INTER.VDW>
-14.1794

>  <SCORE.INTER.norm>
0.0436133

>  <SCORE.INTRA>
-9.30777

>  <SCORE.INTRA.DIHEDRAL>
-21.7035

>  <SCORE.INTRA.DIHEDRAL.0>
28.2802

>  <SCORE.INTRA.POLAR>
0

>  <SCORE.INTRA.POLAR.0>
0

>  <SCORE.INTRA.REPUL>
0

>  <SCORE.INTRA.REPUL.0>
0

>  <SCORE.INTRA.SOLV>
0.234642

>  <SCORE.INTRA.SOLV.lig_0>
-101.981

>  <SCORE.INTRA.VDW>
1.42666

>  <SCORE.INTRA.VDW.0>
-5.72964

>  <SCORE.INTRA.norm>
-0.232694

>  <SCORE.RESTR>
0.0111882

>  <SCORE.RESTR.CAVITY>
0.0111882

>  <SCORE.RESTR.norm>
0.000279704

>  <SCORE.SYSTEM>
0

>  <SCORE.SYSTEM.CONST>
0

>  <SCORE.SYSTEM.DIHEDRAL>
0

>  <SCORE.SYSTEM.SOLV>
0

>  <SCORE.SYSTEM.norm>
0

>  <SCORE.heavy>
40

>  <SCORE.norm>
-0.188801

>  <RMSD>
8.492

$$$$
ligand
 OpenBabel11021811513D
libRbt.so/2013.1/901 2013/11/27
 40 42  0  0  0  0  0  0  0  0999 V2000
    6.2426  -10.2577   13.5595 C   0  0  2  0  0  0  0  0  0  0  0  0
    6.4381   -8.9297   14.0706 O   0  0  0  0  0  0  0  0  0  0  0  0
    6.7970  -10.3728   12.0903 C   0  0  1  0  0  0  0  0  0  0  0  0
    5.9840   -9.4875   11.1012 C   0  0  2  0  0  0  0  0  0  0  0  0
    4.5003   -9.9728   11.1390 C   0  0  2  0  0  0  0  0  0  0  0  0
    3.7195   -9.1888   10.2116 O   0  0  0  0  0  0  0  0  0  0  0  0
    3.9524   -9.8038   12.6232 C   0  0  2  0  0  0  0  0  0  0  0  0
    4.7905  -10.6247   13.5686 O   0  0  0  0  0  0  0  0  0  0  0  0
    2.5108  -10.2715   12.7697 C   0  0  0  0  0  0  0  0  0  0  0  0
    2.3771  -11.7361   12.4910 N   0  0  0  0  0  0  0  0  0  0  0  0
    5.0567   -9.3017   18.2279 C   0  0  2  0  0  0  0  0  0  0  0  0
    4.7326   -8.9404   19.5883 N   0  0  0  0  0  0  0  0  0  0  0  0
    6.5975   -9.0551   17.9676 C   0  0  0  0  0  0  0  0  0  0  0  0
    6.9696   -9.4452   16.4675 C   0  0  2  0  0  0  0  0  0  0  0  0
    8.4207   -9.2285   16.2295 N   0  0  0  0  0  0  0  0  0  0  0  0
    6.0823   -8.5733   15.4627 C   0  0  2  0  0  0  0  0  0  0  0  0
    4.5485   -8.8534   15.7640 C   0  0  2  0  0  0  0  0  0  0  0  0
    3.7466   -8.0808   14.8677 O   0  0  0  0  0  0  0  0  0  0  0  0
    4.1952   -8.4664   17.2542 C   0  0  1  0  0  0  0  0  0  0  0  0
    2.7982   -8.7474   17.5190 O   0  0  0  0  0  0  0  0  0  0  0  0
    1.7240   -8.0719   16.9582 C   0  0  2  0  0  0  0  0  0  0  0  0
    0.6371   -7.9011   18.0783 C   0  0  2  0  0  0  0  0  0  0  0  0
    1.1821   -7.2182   19.1607 O   0  0  0  0  0  0  0  0  0  0  0  0
    0.0290   -9.2974   18.5279 C   0  0  1  0  0  0  0  0  0  0  0  0
   -1.0120   -9.1106   19.5854 N   0  0  0  0  0  0  0  0  0  0  0  0
   -0.5802  -10.0227   17.2497 C   0  0  2  0  0  0  0  0  0  0  0  0
   -1.1547  -11.2859   17.6069 O   0  0  0  0  0  0  0  0  0  0  0  0
    0.5721  -10.1908   16.1853 C   0  0  2  0  0  0  0  0  0  0  0  0
    1.1676   -8.8394   15.8145 O   0  0  0  0  0  0  0  0  0  0  0  0
    0.0619  -10.8572   14.9298 C   0  0  0  0  0  0  0  0  0  0  0  0
   -0.9269  -10.0672   14.2437 O   0  0  0  0  0  0  0  0  0  0  0  0
    8.2007   -9.9808   12.0988 O   0  0  0  0  0  0  0  0  0  0  0  0
    6.5009   -9.6356    9.8368 O   0  0  0  0  0  0  0  0  0  0  0  0
    5.5058   -9.5097   20.6677 C   0  0  0  0  0  0  0  0  0  0  0  0
    6.1297  -10.5978   20.4891 O   0  0  0  0  0  0  0  0  0  0  0  0
    5.5324   -8.7473   22.0280 C   0  0  2  0  0  0  0  0  0  0  0  0
    2.2009   -9.9985   23.6050 N   0  0  0  0  0  0  0  0  0  0  0  0
    4.1110   -8.6985   22.6688 C   0  0  0  0  0  0  0  0  0  0  0  0
    3.4935  -10.0903   22.8848 C   0  0  0  0  0  0  0  0  0  0  0  0
    5.8882   -7.5326   21.9019 O   0  0  0  0  0  0  0  0  0  0  0  0
  1  2  1  6  0  0  0
  1  3  1  0  0  0  0
  1  8  1  0  0  0  0
  3  4  1  0  0  0  0
  3 32  1  1  0  0  0
  4  5  1  0  0  0  0
  4 33  1  6  0  0  0
  5  6  1  6  0  0  0
  5  7  1  0  0  0  0
  7  8  1  0  0  0  0
  7  9  1  6  0  0  0
  9 10  1  0  0  0  0
 11 12  1  1  0  0  0
 11 13  1  0  0  0  0
 11 19  1  0  0  0  0
 12 34  1  0  0  0  0
 13 14  1  0  0  0  0
 14 15  1  6  0  0  0
 14 16  1  0  0  0  0
 16  2  1  6  0  0  0
 16 17  1  0  0  0  0
 17 18  1  6  0  0  0
 17 19  1  0  0  0  0
 19 20  1  1  0  0  0
 21 20  1  1  0  0  0
 21 22  1  0  0  0  0
 21 29  1  0  0  0  0
 22 23  1  1  0  0  0
 22 24  1  0  0  0  0
 24 25  1  1  0  0  0
 24 26  1  0  0  0  0
 26 27  1  1  0  0  0
 26 28  1  0  0  0  0
 28 29  1  0  0  0  0
 28 30  1  6  0  0  0
 30 31  1  0  0  0  0
 34 35  2  0  0  0  0
 36 34  1  6  0  0  0
 36 38  1  0  0  0  0
 36 40  1  0  0  0  0
 37 39  1  0  0  0  0
 38 39  1  0  0  0  0
M  END
>  <CHROM.1>
-176.13933735,62.12825877,63.18835836,-52.72239728,171.89442476,-140.75707787
63.92643789,64.07724030,56.90653664,174.88211290,3.73210242,-9.42179024,16.39758251
-1.32416126,0.06811553,1.47115767

>  <Name>
ligand

>  <RI>
0

>  <Rbt.Current_Directory>
/home/itssahil/PROJECTS/Mol_Feturizer/New_Systems/rnas/4P20

>  <Rbt.Executable>
rbdock ($Id: //depot/dev/client3/rdock/2013.1/src/exe/rbdock.cxx#4 $)

>  <Rbt.Library>
libRbt.so (2013.1, Build901 2013/11/27)

>  <Rbt.Parameter_File>
/export/apps/rDock/src/rDock_2013.1_src/data/scripts/dock_solv.prm

>  <Rbt.Receptor>
prm/pocket_docking_7.prm

>  <SCORE>
-12.4712

>  <SCORE.INTER>
-3.83012

>  <SCORE.INTER.CONST>
1

>  <SCORE.INTER.POLAR>
0

>  <SCORE.INTER.ROT>
10

>  <SCORE.INTER.SOLV>
20.3583

>  <SCORE.INTER.VDW>
-19.6062

>  <SCORE.INTER.norm>
-0.0957529

>  <SCORE.INTRA>
-8.64106

>  <SCORE.INTRA.DIHEDRAL>
-21.4754

>  <SCORE.INTRA.DIHEDRAL.0>
28.2802

>  <SCORE.INTRA.POLAR>
0

>  <SCORE.INTRA.POLAR.0>
0

>  <SCORE.INTRA.REPUL>
0

>  <SCORE.INTRA.REPUL.0>
0

>  <SCORE.INTRA.SOLV>
1.79067

>  <SCORE.INTRA.SOLV.lig_0>
-101.981

>  <SCORE.INTRA.VDW>
1.20132

>  <SCORE.INTRA.VDW.0>
-5.72964

>  <SCORE.INTRA.norm>
-0.216027

>  <SCORE.RESTR>
0

>  <SCORE.RESTR.CAVITY>
0

>  <SCORE.RESTR.norm>
0

>  <SCORE.SYSTEM>
0

>  <SCORE.SYSTEM.CONST>
0

>  <SCORE.SYSTEM.DIHEDRAL>
0

>  <SCORE.SYSTEM.SOLV>
0

>  <SCORE.SYSTEM.norm>
0

>  <SCORE.heavy>
40

>  <SCORE.norm>
-0.31178

>  <RMSD>
8.497

$$$$
ligand
 OpenBabel11021811513D
libRbt.so/2013.1/901 2013/11/27
 40 42  0  0  0  0  0  0  0  0999 V2000
   -6.1345   -9.6507   17.5620 C   0  0  2  0  0  0  0  0  0  0  0  0
   -4.8886   -9.6763   16.8479 O   0  0  0  0  0  0  0  0  0  0  0  0
   -6.1134  -10.6843   18.7496 C   0  0  1  0  0  0  0  0  0  0  0  0
   -6.0302  -12.1497   18.2312 C   0  0  2  0  0  0  0  0  0  0  0  0
   -7.2831  -12.4085   17.3360 C   0  0  2  0  0  0  0  0  0  0  0  0
   -7.2526  -13.7702   16.8572 O   0  0  0  0  0  0  0  0  0  0  0  0
   -7.2554  -11.3815   16.1211 C   0  0  2  0  0  0  0  0  0  0  0  0
   -7.2789   -9.9709   16.6501 O   0  0  0  0  0  0  0  0  0  0  0  0
   -8.4537  -11.5404   15.1953 C   0  0  0  0  0  0  0  0  0  0  0  0
   -9.7419  -11.2917   15.9161 N   0  0  0  0  0  0  0  0  0  0  0  0
   -1.0788   -7.6016   17.5630 C   0  0  2  0  0  0  0  0  0  0  0  0
    0.1482   -7.2011   18.2115 N   0  0  0  0  0  0  0  0  0  0  0  0
   -2.3080   -7.2586   18.4981 C   0  0  0  0  0  0  0  0  0  0  0  0
   -3.6700   -7.6995   17.7971 C   0  0  2  0  0  0  0  0  0  0  0  0
   -4.8249   -7.3616   18.6698 N   0  0  0  0  0  0  0  0  0  0  0  0
   -3.6180   -9.2676   17.4884 C   0  0  2  0  0  0  0  0  0  0  0  0
   -2.3702   -9.5607   16.5509 C   0  0  2  0  0  0  0  0  0  0  0  0
   -2.3171  -10.9604   16.2659 O   0  0  0  0  0  0  0  0  0  0  0  0
   -1.0287   -9.1153   17.2560 C   0  0  1  0  0  0  0  0  0  0  0  0
    0.0974   -9.3699   16.3798 O   0  0  0  0  0  0  0  0  0  0  0  0
    1.0116  -10.4029   16.5282 C   0  0  2  0  0  0  0  0  0  0  0  0
    2.2227  -10.1019   15.5755 C   0  0  2  0  0  0  0  0  0  0  0  0
    2.7715   -8.8632   15.8912 O   0  0  0  0  0  0  0  0  0  0  0  0
    1.8012  -10.1698   14.0461 C   0  0  1  0  0  0  0  0  0  0  0  0
    2.9715   -9.8925   13.1570 N   0  0  0  0  0  0  0  0  0  0  0  0
    1.1883  -11.6078   13.7503 C   0  0  2  0  0  0  0  0  0  0  0  0
    0.8031  -11.7237   12.3749 O   0  0  0  0  0  0  0  0  0  0  0  0
   -0.0401  -11.8256   14.7160 C   0  0  2  0  0  0  0  0  0  0  0  0
    0.3881  -11.7034   16.1722 O   0  0  0  0  0  0  0  0  0  0  0  0
   -0.6644  -13.1846   14.5064 C   0  0  0  0  0  0  0  0  0  0  0  0
   -1.7468  -13.4459   15.4191 O   0  0  0  0  0  0  0  0  0  0  0  0
   -4.9751  -10.3747   19.6055 O   0  0  0  0  0  0  0  0  0  0  0  0
   -6.0276  -13.0066   19.3052 O   0  0  0  0  0  0  0  0  0  0  0  0
    0.5504   -7.8726   19.4257 C   0  0  0  0  0  0  0  0  0  0  0  0
   -0.3180   -8.4587   20.1380 O   0  0  0  0  0  0  0  0  0  0  0  0
    2.0610   -7.8394   19.8123 C   0  0  2  0  0  0  0  0  0  0  0  0
    2.6462   -4.0749   20.6140 N   0  0  0  0  0  0  0  0  0  0  0  0
    2.6351   -6.3935   19.6981 C   0  0  0  0  0  0  0  0  0  0  0  0
    2.0004   -5.4072   20.6927 C   0  0  0  0  0  0  0  0  0  0  0  0
    2.7799   -8.5506   19.0407 O   0  0  0  0  0  0  0  0  0  0  0  0
  1  2  1  6  0  0  0
  1  3  1  0  0  0  0
  1  8  1  0  0  0  0
  3  4  1  0  0  0  0
  3 32  1  1  0  0  0
  4  5  1  0  0  0  0
  4 33  1  1  0  0  0
  5  6  1  6  0  0  0
  5  7  1  0  0  0  0
  7  8  1  0  0  0  0
  7  9  1  6  0  0  0
  9 10  1  0  0  0  0
 11 12  1  1  0  0  0
 11 13  1  0  0  0  0
 11 19  1  0  0  0  0
 12 34  1  0  0  0  0
 13 14  1  0  0  0  0
 14 15  1  1  0  0  0
 14 16  1  0  0  0  0
 16  2  1  6  0  0  0
 16 17  1  0  0  0  0
 17 18  1  1  0  0  0
 17 19  1  0  0  0  0
 19 20  1  6  0  0  0
 21 20  1  6  0  0  0
 21 22  1  0  0  0  0
 21 29  1  0  0  0  0
 22 23  1  1  0  0  0
 22 24  1  0  0  0  0
 24 25  1  6  0  0  0
 24 26  1  0  0  0  0
 26 27  1  6  0  0  0
 26 28  1  0  0  0  0
 28 29  1  0  0  0  0
 28 30  1  1  0  0  0
 30 31  1  0  0  0  0
 34 35  2  0  0  0  0
 36 34  1  6  0  0  0
 36 38  1  0  0  0  0
 36 40  1  0  0  0  0
 37 39  1  0  0  0  0
 38 39  1  0  0  0  0
M  END
>  <CHROM.1>
-64.66087289,-67.12838977,61.03339192,65.48755032,134.88462418,-167.13814438
176.99967208,47.48818694,64.64543066,175.84890801,-1.99201786,-9.86240440
17.11023722,2.85185866,-0.22845645,-2.31989123

>  <Name>
ligand

>  <RI>
0

>  <Rbt.Current_Directory>
/home/itssahil/PROJECTS/Mol_Feturizer/New_Systems/rnas/4P20

>  <Rbt.Executable>
rbdock ($Id: //depot/dev/client3/rdock/2013.1/src/exe/rbdock.cxx#4 $)

>  <Rbt.Library>
libRbt.so (2013.1, Build901 2013/11/27)

>  <Rbt.Parameter_File>
/export/apps/rDock/src/rDock_2013.1_src/data/scripts/dock_solv.prm

>  <Rbt.Receptor>
prm/pocket_docking_5.prm

>  <SCORE>
-9.1614

>  <SCORE.INTER>
-2.24609

>  <SCORE.INTER.CONST>
1

>  <SCORE.INTER.POLAR>
0

>  <SCORE.INTER.ROT>
10

>  <SCORE.INTER.SOLV>
16.8385

>  <SCORE.INTER.VDW>
-17.3769

>  <SCORE.INTER.norm>
-0.0561523

>  <SCORE.INTRA>
-6.91531

>  <SCORE.INTRA.DIHEDRAL>
-19.7943

>  <SCORE.INTRA.DIHEDRAL.0>
28.2802

>  <SCORE.INTRA.POLAR>
0

>  <SCORE.INTRA.POLAR.0>
0

>  <SCORE.INTRA.REPUL>
0

>  <SCORE.INTRA.REPUL.0>
0

>  <SCORE.INTRA.SOLV>
3.51705

>  <SCORE.INTRA.SOLV.lig_0>
-101.981

>  <SCORE.INTRA.VDW>
1.22331

>  <SCORE.INTRA.VDW.0>
-5.72964

>  <SCORE.INTRA.norm>
-0.172883

>  <SCORE.RESTR>
0

>  <SCORE.RESTR.CAVITY>
0

>  <SCORE.RESTR.norm>
0

>  <SCORE.SYSTEM>
0

>  <SCORE.SYSTEM.CONST>
0

>  <SCORE.SYSTEM.DIHEDRAL>
0

>  <SCORE.SYSTEM.SOLV>
0

>  <SCORE.SYSTEM.norm>
0

>  <SCORE.heavy>
40

>  <SCORE.norm>
-0.229035

>  <RMSD>
8.499

$$$$
ligand
 OpenBabel11021811513D
libRbt.so/2013.1/901 2013/11/27
 40 42  0  0  0  0  0  0  0  0999 V2000
   -5.2744   -7.9630   17.6164 C   0  0  2  0  0  0  0  0  0  0  0  0
   -4.7555   -9.2433   17.2234 O   0  0  0  0  0  0  0  0  0  0  0  0
   -6.0481   -8.0749   18.9832 C   0  0  1  0  0  0  0  0  0  0  0  0
   -7.3275   -8.9508   18.8463 C   0  0  2  0  0  0  0  0  0  0  0  0
   -8.2490   -8.2816   17.7779 C   0  0  2  0  0  0  0  0  0  0  0  0
   -9.4605   -9.0552   17.6430 O   0  0  0  0  0  0  0  0  0  0  0  0
   -7.4597   -8.2221   16.3976 C   0  0  2  0  0  0  0  0  0  0  0  0
   -6.1976   -7.4175   16.5706 O   0  0  0  0  0  0  0  0  0  0  0  0
   -8.2707   -7.5641   15.2897 C   0  0  0  0  0  0  0  0  0  0  0  0
   -7.7895   -7.9805   13.9349 N   0  0  0  0  0  0  0  0  0  0  0  0
   -0.6275  -10.5284   16.4241 C   0  0  2  0  0  0  0  0  0  0  0  0
    0.6480  -10.6627   15.7598 N   0  0  0  0  0  0  0  0  0  0  0  0
   -1.7767  -11.0601   15.4757 C   0  0  0  0  0  0  0  0  0  0  0  0
   -3.1922  -10.9136   16.1940 C   0  0  2  0  0  0  0  0  0  0  0  0
   -4.2689  -11.4288   15.3082 N   0  0  0  0  0  0  0  0  0  0  0  0
   -3.4355   -9.3778   16.5668 C   0  0  2  0  0  0  0  0  0  0  0  0
   -2.2585   -8.8916   17.5156 C   0  0  2  0  0  0  0  0  0  0  0  0
   -2.4691   -7.5199   17.8577 O   0  0  0  0  0  0  0  0  0  0  0  0
   -0.8624   -9.0462   16.7929 C   0  0  1  0  0  0  0  0  0  0  0  0
    0.2019   -8.6184   17.6789 O   0  0  0  0  0  0  0  0  0  0  0  0
    0.5033   -9.1918   18.9057 C   0  0  2  0  0  0  0  0  0  0  0  0
    1.3358   -8.1429   19.7252 C   0  0  2  0  0  0  0  0  0  0  0  0
    0.6065   -6.9658   19.8586 O   0  0  0  0  0  0  0  0  0  0  0  0
    2.7529   -7.8680   19.0638 C   0  0  1  0  0  0  0  0  0  0  0  0
    3.5335   -6.8764   19.8665 N   0  0  0  0  0  0  0  0  0  0  0  0
    3.5356   -9.2480   18.9449 C   0  0  2  0  0  0  0  0  0  0  0  0
    4.8303   -9.0503   18.3635 O   0  0  0  0  0  0  0  0  0  0  0  0
    2.6586  -10.2366   18.0831 C   0  0  2  0  0  0  0  0  0  0  0  0
    1.2891  -10.4383   18.7175 O   0  0  0  0  0  0  0  0  0  0  0  0
    3.3312  -11.5815   17.9431 C   0  0  0  0  0  0  0  0  0  0  0  0
    2.5857  -12.4922   17.1139 O   0  0  0  0  0  0  0  0  0  0  0  0
   -5.1423   -8.6370   19.9770 O   0  0  0  0  0  0  0  0  0  0  0  0
   -7.9678   -9.0037   20.0607 O   0  0  0  0  0  0  0  0  0  0  0  0
    0.9386   -9.8191   14.6237 C   0  0  0  0  0  0  0  0  0  0  0  0
   -0.0118   -9.3108   13.9579 O   0  0  0  0  0  0  0  0  0  0  0  0
    2.4354   -9.5736   14.2605 C   0  0  2  0  0  0  0  0  0  0  0  0
    3.1423  -12.7106   12.0639 N   0  0  0  0  0  0  0  0  0  0  0  0
    3.1129  -10.8885   13.7650 C   0  0  0  0  0  0  0  0  0  0  0  0
    2.4884  -11.4450   12.4745 C   0  0  0  0  0  0  0  0  0  0  0  0
    3.1257   -9.1930   15.2588 O   0  0  0  0  0  0  0  0  0  0  0  0
  1  2  1  6  0  0  0
  1  3  1  0  0  0  0
  1  8  1  0  0  0  0
  3  4  1  0  0  0  0
  3 32  1  1  0  0  0
  4  5  1  0  0  0  0
  4 33  1  1  0  0  0
  5  6  1  6  0  0  0
  5  7  1  0  0  0  0
  7  8  1  0  0  0  0
  7  9  1  6  0  0  0
  9 10  1  0  0  0  0
 11 12  1  6  0  0  0
 11 13  1  0  0  0  0
 11 19  1  0  0  0  0
 12 34  1  0  0  0  0
 13 14  1  0  0  0  0
 14 15  1  6  0  0  0
 14 16  1  0  0  0  0
 16  2  1  1  0  0  0
 16 17  1  0  0  0  0
 17 18  1  6  0  0  0
 17 19  1  0  0  0  0
 19 20  1  1  0  0  0
 21 20  1  6  0  0  0
 21 22  1  0  0  0  0
 21 29  1  0  0  0  0
 22 23  1  6  0  0  0
 22 24  1  0  0  0  0
 24 25  1  1  0  0  0
 24 26  1  0  0  0  0
 26 27  1  6  0  0  0
 26 28  1  0  0  0  0
 28 29  1  0  0  0  0
 28 30  1  1  0  0  0
 30 31  1  0  0  0  0
 34 35  2  0  0  0  0
 36 34  1  1  0  0  0
 36 38  1  0  0  0  0
 36 40  1  0  0  0  0
 37 39  1  0  0  0  0
 38 39  1  0  0  0  0
M  END
>  <CHROM.1>
-142.49235164,-177.08970273,-157.46498721,69.29865553,-58.70749690,-160.12134265
-177.49619336,66.97560751,62.74620951,-178.55241404,-1.50364860,-9.32827792
16.99549663,-3.00520374,0.10605104,-1.98393126

>  <Name>
ligand

>  <RI>
0

>  <Rbt.Current_Directory>
/home/itssahil/PROJECTS/Mol_Feturizer/New_Systems/rnas/4P20

>  <Rbt.Executable>
rbdock ($Id: //depot/dev/client3/rdock/2013.1/src/exe/rbdock.cxx#4 $)

>  <Rbt.Library>
libRbt.so (2013.1, Build901 2013/11/27)

>  <Rbt.Parameter_File>
/export/apps/rDock/src/rDock_2013.1_src/data/scripts/dock_solv.prm

>  <Rbt.Receptor>
prm/pocket_docking_5.prm

>  <SCORE>
-7.34991

>  <SCORE.INTER>
1.89634

>  <SCORE.INTER.CONST>
1

>  <SCORE.INTER.POLAR>
0

>  <SCORE.INTER.ROT>
10

>  <SCORE.INTER.SOLV>
14.9741

>  <SCORE.INTER.VDW>
-13.9938

>  <SCORE.INTER.norm>
0.0474086

>  <SCORE.INTRA>
-9.24626

>  <SCORE.INTRA.DIHEDRAL>
-18.8358

>  <SCORE.INTRA.DIHEDRAL.0>
28.2802

>  <SCORE.INTRA.POLAR>
0

>  <SCORE.INTRA.POLAR.0>
0

>  <SCORE.INTRA.REPUL>
0

>  <SCORE.INTRA.REPUL.0>
0

>  <SCORE.INTRA.SOLV>
0.23204

>  <SCORE.INTRA.SOLV.lig_0>
-101.981

>  <SCORE.INTRA.VDW>
0.0555995

>  <SCORE.INTRA.VDW.0>
-5.72964

>  <SCORE.INTRA.norm>
-0.231156

>  <SCORE.RESTR>
0

>  <SCORE.RESTR.CAVITY>
0

>  <SCORE.RESTR.norm>
0

>  <SCORE.SYSTEM>
0

>  <SCORE.SYSTEM.CONST>
0

>  <SCORE.SYSTEM.DIHEDRAL>
0

>  <SCORE.SYSTEM.SOLV>
0

>  <SCORE.SYSTEM.norm>
0

>  <SCORE.heavy>
40

>  <SCORE.norm>
-0.183748

>  <RMSD>
8.504

$$$$
ligand
 OpenBabel11021811513D
libRbt.so/2013.1/901 2013/11/27
 40 42  0  0  0  0  0  0  0  0999 V2000
   -0.8146  -10.0606   15.8527 C   0  0  2  0  0  0  0  0  0  0  0  0
   -0.5843  -10.6599   17.1376 O   0  0  0  0  0  0  0  0  0  0  0  0
   -1.7313  -10.9849   14.9669 C   0  0  1  0  0  0  0  0  0  0  0  0
   -1.0215  -12.3242   14.6130 C   0  0  2  0  0  0  0  0  0  0  0  0
    0.2834  -11.9772   13.8287 C   0  0  2  0  0  0  0  0  0  0  0  0
    0.9565  -13.2002   13.4604 O   0  0  0  0  0  0  0  0  0  0  0  0
    1.2095  -11.0813   14.7622 C   0  0  2  0  0  0  0  0  0  0  0  0
    0.4788   -9.8182   15.1374 O   0  0  0  0  0  0  0  0  0  0  0  0
    2.5057  -10.6710   14.0769 C   0  0  0  0  0  0  0  0  0  0  0  0
    2.2487   -9.7716   12.9082 N   0  0  0  0  0  0  0  0  0  0  0  0
    2.5627   -8.1033   18.8375 C   0  0  2  0  0  0  0  0  0  0  0  0
    3.4804   -7.5372   19.7987 N   0  0  0  0  0  0  0  0  0  0  0  0
    1.0769   -7.9014   19.3418 C   0  0  0  0  0  0  0  0  0  0  0  0
    0.0521   -8.5258   18.2927 C   0  0  2  0  0  0  0  0  0  0  0  0
   -1.3440   -8.3207   18.7601 N   0  0  0  0  0  0  0  0  0  0  0  0
    0.3760  -10.0803   18.1037 C   0  0  2  0  0  0  0  0  0  0  0  0
    1.8745  -10.2303   17.5997 C   0  0  2  0  0  0  0  0  0  0  0  0
    2.1727  -11.6172   17.4240 O   0  0  0  0  0  0  0  0  0  0  0  0
    2.8781   -9.6040   18.6465 C   0  0  1  0  0  0  0  0  0  0  0  0
    4.2384   -9.7302   18.1624 O   0  0  0  0  0  0  0  0  0  0  0  0
    4.8106  -10.8954   17.6729 C   0  0  2  0  0  0  0  0  0  0  0  0
    5.1066  -11.8278   18.9010 C   0  0  2  0  0  0  0  0  0  0  0  0
    3.9286  -12.0721   19.5995 O   0  0  0  0  0  0  0  0  0  0  0  0
    6.2209  -11.2148   19.8519 C   0  0  1  0  0  0  0  0  0  0  0  0
    6.4959  -12.1239   21.0072 N   0  0  0  0  0  0  0  0  0  0  0  0
    7.5388  -10.9647   18.9965 C   0  0  2  0  0  0  0  0  0  0  0  0
    8.5818  -10.4220   19.8157 O   0  0  0  0  0  0  0  0  0  0  0  0
    7.1744   -9.9960   17.8058 C   0  0  2  0  0  0  0  0  0  0  0  0
    6.0684  -10.5901   16.9441 O   0  0  0  0  0  0  0  0  0  0  0  0
    8.3775   -9.7272   16.9337 C   0  0  0  0  0  0  0  0  0  0  0  0
    8.0995   -8.7905   15.8763 O   0  0  0  0  0  0  0  0  0  0  0  0
   -2.9693  -11.2340   15.6946 O   0  0  0  0  0  0  0  0  0  0  0  0
   -1.8586  -13.0834   13.8316 O   0  0  0  0  0  0  0  0  0  0  0  0
    3.4428   -6.1151   20.0500 C   0  0  0  0  0  0  0  0  0  0  0  0
    2.9636   -5.3339   19.1753 O   0  0  0  0  0  0  0  0  0  0  0  0
    4.0088   -5.5986   21.4084 C   0  0  2  0  0  0  0  0  0  0  0  0
    4.0338   -2.0359   22.9752 N   0  0  0  0  0  0  0  0  0  0  0  0
    3.8941   -4.0460   21.5072 C   0  0  0  0  0  0  0  0  0  0  0  0
    4.2868   -3.4942   22.8879 C   0  0  0  0  0  0  0  0  0  0  0  0
    5.2461   -5.8560   21.5533 O   0  0  0  0  0  0  0  0  0  0  0  0
  1  2  1  1  0  0  0
  1  3  1  0  0  0  0
  1  8  1  0  0  0  0
  3  4  1  0  0  0  0
  3 32  1  1  0  0  0
  4  5  1  0  0  0  0
  4 33  1  6  0  0  0
  5  6  1  1  0  0  0
  5  7  1  0  0  0  0
  7  8  1  0  0  0  0
  7  9  1  6  0  0  0
  9 10  1  0  0  0  0
 11 12  1  1  0  0  0
 11 13  1  0  0  0  0
 11 19  1  0  0  0  0
 12 34  1  0  0  0  0
 13 14  1  0  0  0  0
 14 15  1  1  0  0  0
 14 16  1  0  0  0  0
 16  2  1  6  0  0  0
 16 17  1  0  0  0  0
 17 18  1  1  0  0  0
 17 19  1  0  0  0  0
 19 20  1  6  0  0  0
 21 20  1  1  0  0  0
 21 22  1  0  0  0  0
 21 29  1  0  0  0  0
 22 23  1  1  0  0  0
 22 24  1  0  0  0  0
 24 25  1  1  0  0  0
 24 26  1  0  0  0  0
 26 27  1  1  0  0  0
 26 28  1  0  0  0  0
 28 29  1  0  0  0  0
 28 30  1  6  0  0  0
 30 31  1  0  0  0  0
 34 35  2  0  0  0  0
 36 34  1  6  0  0  0
 36 38  1  0  0  0  0
 36 40  1  0  0  0  0
 37 39  1  0  0  0  0
 38 39  1  0  0  0  0
M  END
>  <CHROM.1>
172.47569782,51.27673704,65.20004563,-63.49535989,-169.14570727,-74.62270173
-176.93123421,179.76283818,173.37861363,-174.35244278,2.91578829,-9.46415299
17.82798648,2.23906908,0.24541187,-2.45752246

>  <Name>
ligand

>  <RI>
0

>  <Rbt.Current_Directory>
/home/itssahil/PROJECTS/Mol_Feturizer/New_Systems/rnas/4P20

>  <Rbt.Executable>
rbdock ($Id: //depot/dev/client3/rdock/2013.1/src/exe/rbdock.cxx#4 $)

>  <Rbt.Library>
libRbt.so (2013.1, Build901 2013/11/27)

>  <Rbt.Parameter_File>
/export/apps/rDock/src/rDock_2013.1_src/data/scripts/dock_solv.prm

>  <Rbt.Receptor>
prm/pocket_docking_6.prm

>  <SCORE>
-11.3021

>  <SCORE.INTER>
-2.01483

>  <SCORE.INTER.CONST>
1

>  <SCORE.INTER.POLAR>
0

>  <SCORE.INTER.ROT>
10

>  <SCORE.INTER.SOLV>
19.1268

>  <SCORE.INTER.VDW>
-17.9855

>  <SCORE.INTER.norm>
-0.0503708

>  <SCORE.INTRA>
-9.28724

>  <SCORE.INTRA.DIHEDRAL>
-24.8219

>  <SCORE.INTRA.DIHEDRAL.0>
28.2802

>  <SCORE.INTRA.POLAR>
0

>  <SCORE.INTRA.POLAR.0>
0

>  <SCORE.INTRA.REPUL>
0

>  <SCORE.INTRA.REPUL.0>
0

>  <SCORE.INTRA.SOLV>
0.158672

>  <SCORE.INTRA.SOLV.lig_0>
-101.981

>  <SCORE.INTRA.VDW>
3.04437

>  <SCORE.INTRA.VDW.0>
-5.72964

>  <SCORE.INTRA.norm>
-0.232181

>  <SCORE.RESTR>
0

>  <SCORE.RESTR.CAVITY>
0

>  <SCORE.RESTR.norm>
0

>  <SCORE.SYSTEM>
0

>  <SCORE.SYSTEM.CONST>
0

>  <SCORE.SYSTEM.DIHEDRAL>
0

>  <SCORE.SYSTEM.SOLV>
0

>  <SCORE.SYSTEM.norm>
0

>  <SCORE.heavy>
40

>  <SCORE.norm>
-0.282552

>  <RMSD>
8.509

$$$$
ligand
 OpenBabel11021811513D
libRbt.so/2013.1/901 2013/11/27
 40 42  0  0  0  0  0  0  0  0999 V2000
   -4.5295  -10.5601   15.5239 C   0  0  2  0  0  0  0  0  0  0  0  0
   -3.8013   -9.6049   16.3114 O   0  0  0  0  0  0  0  0  0  0  0  0
   -6.0346  -10.1220   15.3745 C   0  0  1  0  0  0  0  0  0  0  0  0
   -6.7766  -10.1489   16.7426 C   0  0  2  0  0  0  0  0  0  0  0  0
   -6.7098  -11.6096   17.2904 C   0  0  2  0  0  0  0  0  0  0  0  0
   -7.4126  -11.6780   18.5497 O   0  0  0  0  0  0  0  0  0  0  0  0
   -5.1809  -12.0098   17.4738 C   0  0  2  0  0  0  0  0  0  0  0  0
   -4.4718  -11.9207   16.1474 O   0  0  0  0  0  0  0  0  0  0  0  0
   -5.0078  -13.4324   17.9879 C   0  0  0  0  0  0  0  0  0  0  0  0
   -5.6057  -13.6013   19.3497 N   0  0  0  0  0  0  0  0  0  0  0  0
    0.5234   -9.1535   16.9620 C   0  0  2  0  0  0  0  0  0  0  0  0
    1.8594   -9.4210   17.4416 N   0  0  0  0  0  0  0  0  0  0  0  0
   -0.4476   -8.9398   18.1925 C   0  0  0  0  0  0  0  0  0  0  0  0
   -1.9280   -8.6481   17.6786 C   0  0  2  0  0  0  0  0  0  0  0  0
   -2.8357   -8.4313   18.8356 N   0  0  0  0  0  0  0  0  0  0  0  0
   -2.4221   -9.8735   16.7779 C   0  0  2  0  0  0  0  0  0  0  0  0
   -1.4172  -10.0483   15.5608 C   0  0  2  0  0  0  0  0  0  0  0  0
   -1.8527  -11.1397   14.7470 O   0  0  0  0  0  0  0  0  0  0  0  0
    0.0457  -10.3325   16.0845 C   0  0  1  0  0  0  0  0  0  0  0  0
    0.9536  -10.4686   14.9630 O   0  0  0  0  0  0  0  0  0  0  0  0
    2.1750  -11.1259   14.9950 C   0  0  2  0  0  0  0  0  0  0  0  0
    3.0601  -10.5337   13.8413 C   0  0  2  0  0  0  0  0  0  0  0  0
    3.1963   -9.1599   14.0122 O   0  0  0  0  0  0  0  0  0  0  0  0
    2.4687  -10.8778   12.4084 C   0  0  1  0  0  0  0  0  0  0  0  0
    3.3330  -10.3155   11.3250 N   0  0  0  0  0  0  0  0  0  0  0  0
    2.3433  -12.4582   12.2754 C   0  0  2  0  0  0  0  0  0  0  0  0
    1.8243  -12.8212   10.9900 O   0  0  0  0  0  0  0  0  0  0  0  0
    1.4159  -12.9766   13.4418 C   0  0  2  0  0  0  0  0  0  0  0  0
    1.9844  -12.5860   14.7993 O   0  0  0  0  0  0  0  0  0  0  0  0
    1.2657  -14.4784   13.3926 C   0  0  0  0  0  0  0  0  0  0  0  0
    0.3631  -14.9799   14.3959 O   0  0  0  0  0  0  0  0  0  0  0  0
   -6.0666   -8.7844   14.7967 O   0  0  0  0  0  0  0  0  0  0  0  0
   -8.0839   -9.7716   16.5520 O   0  0  0  0  0  0  0  0  0  0  0  0
    2.5354   -8.4163   18.2293 C   0  0  0  0  0  0  0  0  0  0  0  0
    2.1842   -7.2026   18.1367 O   0  0  0  0  0  0  0  0  0  0  0  0
    3.6899   -8.8804   19.1695 C   0  0  2  0  0  0  0  0  0  0  0  0
    6.0411   -9.1346   20.9548 N   0  0  0  0  0  0  0  0  0  0  0  0
    4.2672   -7.6792   19.9803 C   0  0  0  0  0  0  0  0  0  0  0  0
    5.0137   -8.1086   21.2544 C   0  0  0  0  0  0  0  0  0  0  0  0
    4.6782   -9.3630   18.5305 O   0  0  0  0  0  0  0  0  0  0  0  0
  1  2  1  1  0  0  0
  1  3  1  0  0  0  0
  1  8  1  0  0  0  0
  3  4  1  0  0  0  0
  3 32  1  1  0  0  0
  4  5  1  0  0  0  0
  4 33  1  6  0  0  0
  5  6  1  1  0  0  0
  5  7  1  0  0  0  0
  7  8  1  0  0  0  0
  7  9  1  6  0  0  0
  9 10  1  0  0  0  0
 11 12  1  1  0  0  0
 11 13  1  0  0  0  0
 11 19  1  0  0  0  0
 12 34  1  0  0  0  0
 13 14  1  0  0  0  0
 14 15  1  1  0  0  0
 14 16  1  0  0  0  0
 16  2  1  6  0  0  0
 16 17  1  0  0  0  0
 17 18  1  6  0  0  0
 17 19  1  0  0  0  0
 19 20  1  6  0  0  0
 21 20  1  6  0  0  0
 21 22  1  0  0  0  0
 21 29  1  0  0  0  0
 22 23  1  1  0  0  0
 22 24  1  0  0  0  0
 24 25  1  6  0  0  0
 24 26  1  0  0  0  0
 26 27  1  6  0  0  0
 26 28  1  0  0  0  0
 28 29  1  0  0  0  0
 28 30  1  1  0  0  0
 30 31  1  0  0  0  0
 34 35  2  0  0  0  0
 36 34  1  6  0  0  0
 36 38  1  0  0  0  0
 36 40  1  0  0  0  0
 37 39  1  0  0  0  0
 38 39  1  0  0  0  0
M  END
>  <CHROM.1>
170.59687474,-177.41623430,-62.90554774,-61.50646213,82.03139770,-156.29255549
-176.61758526,-177.83918205,158.93926397,52.21304974,-0.65800231,-10.53506368
16.26519187,-3.11349663,0.12287127,1.05864850

>  <Name>
ligand

>  <RI>
0

>  <Rbt.Current_Directory>
/home/itssahil/PROJECTS/Mol_Feturizer/New_Systems/rnas/4P20

>  <Rbt.Executable>
rbdock ($Id: //depot/dev/client3/rdock/2013.1/src/exe/rbdock.cxx#4 $)

>  <Rbt.Library>
libRbt.so (2013.1, Build901 2013/11/27)

>  <Rbt.Parameter_File>
/export/apps/rDock/src/rDock_2013.1_src/data/scripts/dock_solv.prm

>  <Rbt.Receptor>
prm/pocket_docking_4.prm

>  <SCORE>
-10.5646

>  <SCORE.INTER>
-2.7891

>  <SCORE.INTER.CONST>
1

>  <SCORE.INTER.POLAR>
0

>  <SCORE.INTER.ROT>
10

>  <SCORE.INTER.SOLV>
16.6893

>  <SCORE.INTER.VDW>
-17.6892

>  <SCORE.INTER.norm>
-0.0697276

>  <SCORE.INTRA>
-7.77681

>  <SCORE.INTRA.DIHEDRAL>
-20.7002

>  <SCORE.INTRA.DIHEDRAL.0>
28.2802

>  <SCORE.INTRA.POLAR>
0

>  <SCORE.INTRA.POLAR.0>
0

>  <SCORE.INTRA.REPUL>
0

>  <SCORE.INTRA.REPUL.0>
0

>  <SCORE.INTRA.SOLV>
0.567692

>  <SCORE.INTRA.SOLV.lig_0>
-101.981

>  <SCORE.INTRA.VDW>
2.28946

>  <SCORE.INTRA.VDW.0>
-5.72964

>  <SCORE.INTRA.norm>
-0.19442

>  <SCORE.RESTR>
0.00132673

>  <SCORE.RESTR.CAVITY>
0.00132673

>  <SCORE.RESTR.norm>
3.31683e-05

>  <SCORE.SYSTEM>
0

>  <SCORE.SYSTEM.CONST>
0

>  <SCORE.SYSTEM.DIHEDRAL>
0

>  <SCORE.SYSTEM.SOLV>
0

>  <SCORE.SYSTEM.norm>
0

>  <SCORE.heavy>
40

>  <SCORE.norm>
-0.264115

>  <RMSD>
8.514

$$$$
ligand
 OpenBabel11021811513D
libRbt.so/2013.1/901 2013/11/27
 40 42  0  0  0  0  0  0  0  0999 V2000
    6.2757  -10.8684   11.7816 C   0  0  2  0  0  0  0  0  0  0  0  0
    4.8890  -10.9483   11.4159 O   0  0  0  0  0  0  0  0  0  0  0  0
    7.1662  -10.5770   10.5161 C   0  0  1  0  0  0  0  0  0  0  0  0
    7.1317  -11.7618    9.5072 C   0  0  2  0  0  0  0  0  0  0  0  0
    7.6702  -13.0288   10.2441 C   0  0  2  0  0  0  0  0  0  0  0  0
    7.6769  -14.1449    9.3283 O   0  0  0  0  0  0  0  0  0  0  0  0
    6.7271  -13.3260   11.4906 C   0  0  2  0  0  0  0  0  0  0  0  0
    6.7327  -12.1425   12.4230 O   0  0  0  0  0  0  0  0  0  0  0  0
    7.1829  -14.5383   12.2910 C   0  0  0  0  0  0  0  0  0  0  0  0
    8.5282  -14.3153   12.9083 N   0  0  0  0  0  0  0  0  0  0  0  0
    1.3515  -10.8488   14.0247 C   0  0  2  0  0  0  0  0  0  0  0  0
    0.3390  -11.2880   14.9566 N   0  0  0  0  0  0  0  0  0  0  0  0
    1.3015  -11.7499   12.7254 C   0  0  0  0  0  0  0  0  0  0  0  0
    2.4174  -11.2798   11.6887 C   0  0  2  0  0  0  0  0  0  0  0  0
    2.3582  -12.1168   10.4618 N   0  0  0  0  0  0  0  0  0  0  0  0
    3.8539  -11.3747   12.3846 C   0  0  2  0  0  0  0  0  0  0  0  0
    3.8532  -10.4573   13.6808 C   0  0  2  0  0  0  0  0  0  0  0  0
    5.1353  -10.5325   14.3084 O   0  0  0  0  0  0  0  0  0  0  0  0
    2.7406  -10.9318   14.6968 C   0  0  1  0  0  0  0  0  0  0  0  0
    2.7390  -10.0722   15.8638 O   0  0  0  0  0  0  0  0  0  0  0  0
    2.0163  -10.2992   17.0261 C   0  0  2  0  0  0  0  0  0  0  0  0
    2.3417   -9.1286   18.0204 C   0  0  2  0  0  0  0  0  0  0  0  0
    2.0226   -7.9097   17.4309 O   0  0  0  0  0  0  0  0  0  0  0  0
    3.8580   -9.1588   18.4910 C   0  0  1  0  0  0  0  0  0  0  0  0
    4.1428   -8.0438   19.4463 N   0  0  0  0  0  0  0  0  0  0  0  0
    4.1558  -10.5719   19.1586 C   0  0  2  0  0  0  0  0  0  0  0  0
    5.5129  -10.6442   19.6129 O   0  0  0  0  0  0  0  0  0  0  0  0
    3.8408  -11.6933   18.0945 C   0  0  2  0  0  0  0  0  0  0  0  0
    2.3946  -11.6042   17.6265 O   0  0  0  0  0  0  0  0  0  0  0  0
    4.0820  -13.0703   18.6657 C   0  0  0  0  0  0  0  0  0  0  0  0
    3.2203  -13.3687   19.7798 O   0  0  0  0  0  0  0  0  0  0  0  0
    6.6845   -9.3523    9.8899 O   0  0  0  0  0  0  0  0  0  0  0  0
    7.9327  -11.4601    8.4325 O   0  0  0  0  0  0  0  0  0  0  0  0
   -1.0366  -10.9128   14.7249 C   0  0  0  0  0  0  0  0  0  0  0  0
   -1.3009   -9.8953   14.0178 O   0  0  0  0  0  0  0  0  0  0  0  0
   -2.1517  -11.7904   15.3720 C   0  0  2  0  0  0  0  0  0  0  0  0
   -3.5212  -11.9369   19.0143 N   0  0  0  0  0  0  0  0  0  0  0  0
   -2.2767  -11.4982   16.8992 C   0  0  0  0  0  0  0  0  0  0  0  0
   -3.4049  -12.2916   17.5795 C   0  0  0  0  0  0  0  0  0  0  0  0
   -1.9073  -13.0357   15.2851 O   0  0  0  0  0  0  0  0  0  0  0  0
  1  2  1  6  0  0  0
  1  3  1  0  0  0  0
  1  8  1  0  0  0  0
  3  4  1  0  0  0  0
  3 32  1  6  0  0  0
  4  5  1  0  0  0  0
  4 33  1  6  0  0  0
  5  6  1  6  0  0  0
  5  7  1  0  0  0  0
  7  8  1  0  0  0  0
  7  9  1  1  0  0  0
  9 10  1  0  0  0  0
 11 12  1  1  0  0  0
 11 13  1  0  0  0  0
 11 19  1  0  0  0  0
 12 34  1  0  0  0  0
 13 14  1  0  0  0  0
 14 15  1  6  0  0  0
 14 16  1  0  0  0  0
 16  2  1  6  0  0  0
 16 17  1  0  0  0  0
 17 18  1  1  0  0  0
 17 19  1  0  0  0  0
 19 20  1  1  0  0  0
 21 20  1  6  0  0  0
 21 22  1  0  0  0  0
 21 29  1  0  0  0  0
 22 23  1  6  0  0  0
 22 24  1  0  0  0  0
 24 25  1  1  0  0  0
 24 26  1  0  0  0  0
 26 27  1  6  0  0  0
 26 28  1  0  0  0  0
 28 29  1  0  0  0  0
 28 30  1  1  0  0  0
 30 31  1  0  0  0  0
 34 35  2  0  0  0  0
 36 34  1  1  0  0  0
 36 38  1  0  0  0  0
 36 40  1  0  0  0  0
 37 39  1  0  0  0  0
 38 39  1  0  0  0  0
M  END
>  <CHROM.1>
172.47067718,176.97281017,63.87987343,-77.65900625,68.89524119,178.97137096
62.70089962,75.99503518,177.45757080,-177.56260351,3.34433394,-11.35027064
14.52989473,-0.80625971,0.00157705,1.41438773

>  <Name>
ligand

>  <RI>
0

>  <Rbt.Current_Directory>
/home/itssahil/PROJECTS/Mol_Feturizer/New_Systems/rnas/4P20

>  <Rbt.Executable>
rbdock ($Id: //depot/dev/client3/rdock/2013.1/src/exe/rbdock.cxx#4 $)

>  <Rbt.Library>
libRbt.so (2013.1, Build901 2013/11/27)

>  <Rbt.Parameter_File>
/export/apps/rDock/src/rDock_2013.1_src/data/scripts/dock_solv.prm

>  <Rbt.Receptor>
prm/pocket_docking_8.prm

>  <SCORE>
-8.81464

>  <SCORE.INTER>
2.83442

>  <SCORE.INTER.CONST>
1

>  <SCORE.INTER.POLAR>
0

>  <SCORE.INTER.ROT>
10

>  <SCORE.INTER.SOLV>
15.4736

>  <SCORE.INTER.VDW>
-13.5349

>  <SCORE.INTER.norm>
0.0708604

>  <SCORE.INTRA>
-11.6491

>  <SCORE.INTRA.DIHEDRAL>
-26.1019

>  <SCORE.INTRA.DIHEDRAL.0>
28.2802

>  <SCORE.INTRA.POLAR>
0

>  <SCORE.INTRA.POLAR.0>
0

>  <SCORE.INTRA.REPUL>
0

>  <SCORE.INTRA.REPUL.0>
0

>  <SCORE.INTRA.SOLV>
-0.978506

>  <SCORE.INTRA.SOLV.lig_0>
-101.981

>  <SCORE.INTRA.VDW>
1.89113

>  <SCORE.INTRA.VDW.0>
-5.72964

>  <SCORE.INTRA.norm>
-0.291227

>  <SCORE.RESTR>
0

>  <SCORE.RESTR.CAVITY>
0

>  <SCORE.RESTR.norm>
0

>  <SCORE.SYSTEM>
0

>  <SCORE.SYSTEM.CONST>
0

>  <SCORE.SYSTEM.DIHEDRAL>
0

>  <SCORE.SYSTEM.SOLV>
0

>  <SCORE.SYSTEM.norm>
0

>  <SCORE.heavy>
40

>  <SCORE.norm>
-0.220366

>  <RMSD>
8.529

$$$$
ligand
 OpenBabel11021811513D
libRbt.so/2013.1/901 2013/11/27
 40 42  0  0  0  0  0  0  0  0999 V2000
   -2.4646   -9.1017   19.8016 C   0  0  2  0  0  0  0  0  0  0  0  0
   -1.8566   -9.7729   18.6868 O   0  0  0  0  0  0  0  0  0  0  0  0
   -3.0787  -10.1450   20.8083 C   0  0  1  0  0  0  0  0  0  0  0  0
   -4.2661  -10.9242   20.1712 C   0  0  2  0  0  0  0  0  0  0  0  0
   -5.3570   -9.8817   19.7694 C   0  0  2  0  0  0  0  0  0  0  0  0
   -6.4878  -10.5731   19.1970 O   0  0  0  0  0  0  0  0  0  0  0  0
   -4.7233   -8.8683   18.7192 C   0  0  2  0  0  0  0  0  0  0  0  0
   -3.5419   -8.1691   19.3400 O   0  0  0  0  0  0  0  0  0  0  0  0
   -5.7079   -7.7939   18.2780 C   0  0  0  0  0  0  0  0  0  0  0  0
   -6.2325   -7.0167   19.4447 N   0  0  0  0  0  0  0  0  0  0  0  0
    1.9825   -9.2466   16.6097 C   0  0  2  0  0  0  0  0  0  0  0  0
    3.0324   -8.6298   15.8327 N   0  0  0  0  0  0  0  0  0  0  0  0
    0.6642   -9.3380   15.7399 C   0  0  0  0  0  0  0  0  0  0  0  0
   -0.5057  -10.0128   16.5866 C   0  0  2  0  0  0  0  0  0  0  0  0
   -1.7387  -10.1128   15.7625 N   0  0  0  0  0  0  0  0  0  0  0  0
   -0.7621   -9.1502   17.9084 C   0  0  2  0  0  0  0  0  0  0  0  0
    0.5867   -9.0865   18.7442 C   0  0  2  0  0  0  0  0  0  0  0  0
    0.3666   -8.3202   19.9306 O   0  0  0  0  0  0  0  0  0  0  0  0
    1.7375   -8.4198   17.8920 C   0  0  1  0  0  0  0  0  0  0  0  0
    2.9658   -8.3883   18.6608 O   0  0  0  0  0  0  0  0  0  0  0  0
    4.0726   -7.6029   18.3724 C   0  0  2  0  0  0  0  0  0  0  0  0
    5.2452   -8.0808   19.3007 C   0  0  2  0  0  0  0  0  0  0  0  0
    5.4895   -9.4338   19.0893 O   0  0  0  0  0  0  0  0  0  0  0  0
    4.9439   -7.7844   20.8313 C   0  0  1  0  0  0  0  0  0  0  0  0
    6.0780   -8.2356   21.6957 N   0  0  0  0  0  0  0  0  0  0  0  0
    4.6793   -6.2253   21.0055 C   0  0  2  0  0  0  0  0  0  0  0  0
    4.4145   -5.9042   22.3767 O   0  0  0  0  0  0  0  0  0  0  0  0
    3.4710   -5.8256   20.0733 C   0  0  2  0  0  0  0  0  0  0  0  0
    3.7714   -6.1697   18.6207 O   0  0  0  0  0  0  0  0  0  0  0  0
    3.1727   -4.3484   20.1703 C   0  0  0  0  0  0  0  0  0  0  0  0
    4.3008   -3.5288   19.8119 O   0  0  0  0  0  0  0  0  0  0  0  0
   -2.0222  -11.0610   21.2192 O   0  0  0  0  0  0  0  0  0  0  0  0
   -4.7700  -11.8084   21.0942 O   0  0  0  0  0  0  0  0  0  0  0  0
    3.8183   -9.4506   14.9407 C   0  0  0  0  0  0  0  0  0  0  0  0
    3.9035  -10.6981   15.1443 O   0  0  0  0  0  0  0  0  0  0  0  0
    4.5423   -8.7490   13.7507 C   0  0  2  0  0  0  0  0  0  0  0  0
    7.4602   -8.5363   14.5651 N   0  0  0  0  0  0  0  0  0  0  0  0
    5.2482   -7.4395   14.2201 C   0  0  0  0  0  0  0  0  0  0  0  0
    6.4143   -7.6919   15.1905 C   0  0  0  0  0  0  0  0  0  0  0  0
    3.7393   -8.3895   12.8320 O   0  0  0  0  0  0  0  0  0  0  0  0
  1  2  1  6  0  0  0
  1  3  1  0  0  0  0
  1  8  1  0  0  0  0
  3  4  1  0  0  0  0
  3 32  1  6  0  0  0
  4  5  1  0  0  0  0
  4 33  1  1  0  0  0
  5  6  1  6  0  0  0
  5  7  1  0  0  0  0
  7  8  1  0  0  0  0
  7  9  1  1  0  0  0
  9 10  1  0  0  0  0
 11 12  1  6  0  0  0
 11 13  1  0  0  0  0
 11 19  1  0  0  0  0
 12 34  1  0  0  0  0
 13 14  1  0  0  0  0
 14 15  1  6  0  0  0
 14 16  1  0  0  0  0
 16  2  1  1  0  0  0
 16 17  1  0  0  0  0
 17 18  1  1  0  0  0
 17 19  1  0  0  0  0
 19 20  1  1  0  0  0
 21 20  1  1  0  0  0
 21 22  1  0  0  0  0
 21 29  1  0  0  0  0
 22 23  1  1  0  0  0
 22 24  1  0  0  0  0
 24 25  1  1  0  0  0
 24 26  1  0  0  0  0
 26 27  1  1  0  0  0
 26 28  1  0  0  0  0
 28 29  1  0  0  0  0
 28 30  1  6  0  0  0
 30 31  1  0  0  0  0
 34 35  2  0  0  0  0
 36 34  1  1  0  0  0
 36 38  1  0  0  0  0
 36 40  1  0  0  0  0
 37 39  1  0  0  0  0
 38 39  1  0  0  0  0
M  END
>  <CHROM.1>
-154.40739503,-169.14428926,57.30859213,-84.34847163,76.58383194,-169.89261195
58.59345812,44.93121434,66.29408340,59.93521300,1.05466981,-8.49499209,18.33145147
-3.01420306,-0.28000095,-1.94707006

>  <Name>
ligand

>  <RI>
0

>  <Rbt.Current_Directory>
/home/itssahil/PROJECTS/Mol_Feturizer/New_Systems/rnas/4P20

>  <Rbt.Executable>
rbdock ($Id: //depot/dev/client3/rdock/2013.1/src/exe/rbdock.cxx#4 $)

>  <Rbt.Library>
libRbt.so (2013.1, Build901 2013/11/27)

>  <Rbt.Parameter_File>
/export/apps/rDock/src/rDock_2013.1_src/data/scripts/dock_solv.prm

>  <Rbt.Receptor>
prm/pocket_docking_5.prm

>  <SCORE>
-12.4984

>  <SCORE.INTER>
-2.79095

>  <SCORE.INTER.CONST>
1

>  <SCORE.INTER.POLAR>
0

>  <SCORE.INTER.ROT>
10

>  <SCORE.INTER.SOLV>
22.6612

>  <SCORE.INTER.VDW>
-19.681

>  <SCORE.INTER.norm>
-0.0697737

>  <SCORE.INTRA>
-9.70748

>  <SCORE.INTRA.DIHEDRAL>
-21.5254

>  <SCORE.INTRA.DIHEDRAL.0>
28.2802

>  <SCORE.INTRA.POLAR>
0

>  <SCORE.INTRA.POLAR.0>
0

>  <SCORE.INTRA.REPUL>
0

>  <SCORE.INTRA.REPUL.0>
0

>  <SCORE.INTRA.SOLV>
0.912446

>  <SCORE.INTRA.SOLV.lig_0>
-101.981

>  <SCORE.INTRA.VDW>
0.598984

>  <SCORE.INTRA.VDW.0>
-5.72964

>  <SCORE.INTRA.norm>
-0.242687

>  <SCORE.RESTR>
0

>  <SCORE.RESTR.CAVITY>
0

>  <SCORE.RESTR.norm>
0

>  <SCORE.SYSTEM>
0

>  <SCORE.SYSTEM.CONST>
0

>  <SCORE.SYSTEM.DIHEDRAL>
0

>  <SCORE.SYSTEM.SOLV>
0

>  <SCORE.SYSTEM.norm>
0

>  <SCORE.heavy>
40

>  <SCORE.norm>
-0.312461

>  <RMSD>
8.535

$$$$
ligand
 OpenBabel11021811513D
libRbt.so/2013.1/901 2013/11/27
 40 42  0  0  0  0  0  0  0  0999 V2000
   -0.5158  -11.4629   15.3266 C   0  0  2  0  0  0  0  0  0  0  0  0
    0.0232  -11.6521   16.6444 O   0  0  0  0  0  0  0  0  0  0  0  0
   -0.9995  -12.8349   14.7240 C   0  0  1  0  0  0  0  0  0  0  0  0
    0.1926  -13.8068   14.4849 C   0  0  2  0  0  0  0  0  0  0  0  0
    1.1757  -13.1160   13.4876 C   0  0  2  0  0  0  0  0  0  0  0  0
    2.2842  -14.0021   13.2217 O   0  0  0  0  0  0  0  0  0  0  0  0
    1.6828  -11.7563   14.1399 C   0  0  2  0  0  0  0  0  0  0  0  0
    0.5057  -10.8567   14.4142 O   0  0  0  0  0  0  0  0  0  0  0  0
    2.6368  -10.9934   13.2311 C   0  0  0  0  0  0  0  0  0  0  0  0
    3.8831  -11.7770   12.9606 N   0  0  0  0  0  0  0  0  0  0  0  0
    2.1483   -7.8936   17.4733 C   0  0  2  0  0  0  0  0  0  0  0  0
    2.7561   -6.8123   18.2135 N   0  0  0  0  0  0  0  0  0  0  0  0
    0.6101   -7.9816   17.8322 C   0  0  0  0  0  0  0  0  0  0  0  0
   -0.0738   -9.1745   17.0258 C   0  0  2  0  0  0  0  0  0  0  0  0
   -1.5223   -9.2454   17.3517 N   0  0  0  0  0  0  0  0  0  0  0  0
    0.6676  -10.5447   17.3861 C   0  0  2  0  0  0  0  0  0  0  0  0
    2.2043  -10.4060   17.0103 C   0  0  2  0  0  0  0  0  0  0  0  0
    2.8755  -11.6281   17.3253 O   0  0  0  0  0  0  0  0  0  0  0  0
    2.8677   -9.2184   17.8131 C   0  0  1  0  0  0  0  0  0  0  0  0
    4.2634   -9.0919   17.4436 O   0  0  0  0  0  0  0  0  0  0  0  0
    5.2182   -8.3744   18.1497 C   0  0  2  0  0  0  0  0  0  0  0  0
    6.6171   -8.6989   17.5151 C   0  0  2  0  0  0  0  0  0  0  0  0
    6.6061   -8.3725   16.1629 O   0  0  0  0  0  0  0  0  0  0  0  0
    7.0270  -10.2171   17.7356 C   0  0  1  0  0  0  0  0  0  0  0  0
    8.3670  -10.5009   17.1348 N   0  0  0  0  0  0  0  0  0  0  0  0
    7.0256  -10.5232   19.2968 C   0  0  2  0  0  0  0  0  0  0  0  0
    7.4030  -11.8823   19.5493 O   0  0  0  0  0  0  0  0  0  0  0  0
    5.5846  -10.2087   19.8570 C   0  0  2  0  0  0  0  0  0  0  0  0
    5.2021   -8.7604   19.5841 O   0  0  0  0  0  0  0  0  0  0  0  0
    5.5115  -10.4577   21.3447 C   0  0  0  0  0  0  0  0  0  0  0  0
    6.4024   -9.6109   22.0945 O   0  0  0  0  0  0  0  0  0  0  0  0
   -1.9674  -13.4219   15.6420 O   0  0  0  0  0  0  0  0  0  0  0  0
   -0.2837  -14.9786   13.9486 O   0  0  0  0  0  0  0  0  0  0  0  0
    2.7095   -6.8384   19.6571 C   0  0  0  0  0  0  0  0  0  0  0  0
    1.8129   -7.5127   20.2458 O   0  0  0  0  0  0  0  0  0  0  0  0
    3.7811   -6.0164   20.4372 C   0  0  2  0  0  0  0  0  0  0  0  0
    2.6290   -3.4307   21.8429 N   0  0  0  0  0  0  0  0  0  0  0  0
    3.8140   -4.5354   19.9482 C   0  0  0  0  0  0  0  0  0  0  0  0
    2.5858   -3.7221   20.3899 C   0  0  0  0  0  0  0  0  0  0  0  0
    4.9611   -6.4571   20.2601 O   0  0  0  0  0  0  0  0  0  0  0  0
  1  2  1  1  0  0  0
  1  3  1  0  0  0  0
  1  8  1  0  0  0  0
  3  4  1  0  0  0  0
  3 32  1  1  0  0  0
  4  5  1  0  0  0  0
  4 33  1  6  0  0  0
  5  6  1  1  0  0  0
  5  7  1  0  0  0  0
  7  8  1  0  0  0  0
  7  9  1  6  0  0  0
  9 10  1  0  0  0  0
 11 12  1  1  0  0  0
 11 13  1  0  0  0  0
 11 19  1  0  0  0  0
 12 34  1  0  0  0  0
 13 14  1  0  0  0  0
 14 15  1  1  0  0  0
 14 16  1  0  0  0  0
 16  2  1  6  0  0  0
 16 17  1  0  0  0  0
 17 18  1  1  0  0  0
 17 19  1  0  0  0  0
 19 20  1  6  0  0  0
 21 20  1  6  0  0  0
 21 22  1  0  0  0  0
 21 29  1  0  0  0  0
 22 23  1  6  0  0  0
 22 24  1  0  0  0  0
 24 25  1  1  0  0  0
 24 26  1  0  0  0  0
 26 27  1  6  0  0  0
 26 28  1  0  0  0  0
 28 29  1  0  0  0  0
 28 30  1  1  0  0  0
 30 31  1  0  0  0  0
 34 35  2  0  0  0  0
 36 34  1  6  0  0  0
 36 38  1  0  0  0  0
 36 40  1  0  0  0  0
 37 39  1  0  0  0  0
 38 39  1  0  0  0  0
M  END
>  <CHROM.1>
174.06217132,34.32397762,-62.49434973,59.25235780,75.44337569,171.30708923
62.10607344,52.81046931,71.80499705,72.10481029,2.97804861,-9.75554251,17.46164063
2.09377055,0.23414175,-2.48881479

>  <Name>
ligand

>  <RI>
0

>  <Rbt.Current_Directory>
/home/itssahil/PROJECTS/Mol_Feturizer/New_Systems/rnas/4P20

>  <Rbt.Executable>
rbdock ($Id: //depot/dev/client3/rdock/2013.1/src/exe/rbdock.cxx#4 $)

>  <Rbt.Library>
libRbt.so (2013.1, Build901 2013/11/27)

>  <Rbt.Parameter_File>
/export/apps/rDock/src/rDock_2013.1_src/data/scripts/dock_solv.prm

>  <Rbt.Receptor>
prm/pocket_docking_5.prm

>  <SCORE>
-16.4872

>  <SCORE.INTER>
-9.1546

>  <SCORE.INTER.CONST>
1

>  <SCORE.INTER.POLAR>
0

>  <SCORE.INTER.ROT>
10

>  <SCORE.INTER.SOLV>
16.3108

>  <SCORE.INTER.VDW>
-21.8067

>  <SCORE.INTER.norm>
-0.228865

>  <SCORE.INTRA>
-7.5008

>  <SCORE.INTRA.DIHEDRAL>
-21.9174

>  <SCORE.INTRA.DIHEDRAL.0>
28.2802

>  <SCORE.INTRA.POLAR>
0

>  <SCORE.INTRA.POLAR.0>
0

>  <SCORE.INTRA.REPUL>
0

>  <SCORE.INTRA.REPUL.0>
0

>  <SCORE.INTRA.SOLV>
3.24069

>  <SCORE.INTRA.SOLV.lig_0>
-101.981

>  <SCORE.INTRA.VDW>
1.83752

>  <SCORE.INTRA.VDW.0>
-5.72964

>  <SCORE.INTRA.norm>
-0.18752

>  <SCORE.RESTR>
0.168175

>  <SCORE.RESTR.CAVITY>
0.168175

>  <SCORE.RESTR.norm>
0.00420437

>  <SCORE.SYSTEM>
0

>  <SCORE.SYSTEM.CONST>
0

>  <SCORE.SYSTEM.DIHEDRAL>
0

>  <SCORE.SYSTEM.SOLV>
0

>  <SCORE.SYSTEM.norm>
0

>  <SCORE.heavy>
40

>  <SCORE.norm>
-0.412181

>  <RMSD>
8.568

$$$$
ligand
 OpenBabel11021811513D
libRbt.so/2013.1/901 2013/11/27
 40 42  0  0  0  0  0  0  0  0999 V2000
   -4.4029  -10.4612   16.3241 C   0  0  2  0  0  0  0  0  0  0  0  0
   -4.5638   -9.8462   17.6121 O   0  0  0  0  0  0  0  0  0  0  0  0
   -5.7315  -10.3480   15.4866 C   0  0  1  0  0  0  0  0  0  0  0  0
   -6.8860  -11.1691   16.1315 C   0  0  2  0  0  0  0  0  0  0  0  0
   -6.4315  -12.6618   16.1906 C   0  0  2  0  0  0  0  0  0  0  0  0
   -7.4911  -13.4595   16.7611 O   0  0  0  0  0  0  0  0  0  0  0  0
   -5.1145  -12.7531   17.0786 C   0  0  2  0  0  0  0  0  0  0  0  0
   -4.0306  -11.9052   16.4650 O   0  0  0  0  0  0  0  0  0  0  0  0
   -4.5775  -14.1741   17.1814 C   0  0  0  0  0  0  0  0  0  0  0  0
   -3.5449  -14.2948   18.2583 N   0  0  0  0  0  0  0  0  0  0  0  0
   -0.6419   -8.0523   18.4668 C   0  0  2  0  0  0  0  0  0  0  0  0
    0.4673   -7.5055   19.2132 N   0  0  0  0  0  0  0  0  0  0  0  0
   -1.9384   -7.1865   18.7352 C   0  0  0  0  0  0  0  0  0  0  0  0
   -3.1732   -7.7812   17.9212 C   0  0  2  0  0  0  0  0  0  0  0  0
   -4.3866   -6.9570   18.1616 N   0  0  0  0  0  0  0  0  0  0  0  0
   -3.4096   -9.3002   18.3614 C   0  0  2  0  0  0  0  0  0  0  0  0
   -2.0835  -10.1255   18.0747 C   0  0  2  0  0  0  0  0  0  0  0  0
   -2.2862  -11.4865   18.4616 O   0  0  0  0  0  0  0  0  0  0  0  0
   -0.8681   -9.5230   18.8841 C   0  0  1  0  0  0  0  0  0  0  0  0
    0.3376  -10.2737   18.5955 O   0  0  0  0  0  0  0  0  0  0  0  0
    0.5385  -11.6138   18.8933 C   0  0  2  0  0  0  0  0  0  0  0  0
    2.0874  -11.8705   18.8918 C   0  0  2  0  0  0  0  0  0  0  0  0
    2.7036  -11.0281   19.8115 O   0  0  0  0  0  0  0  0  0  0  0  0
    2.7132  -11.6941   17.4431 C   0  0  1  0  0  0  0  0  0  0  0  0
    4.1857  -11.9552   17.4622 N   0  0  0  0  0  0  0  0  0  0  0  0
    1.9711  -12.6851   16.4439 C   0  0  2  0  0  0  0  0  0  0  0  0
    2.5107  -12.5724   15.1211 O   0  0  0  0  0  0  0  0  0  0  0  0
    0.4304  -12.3469   16.4715 C   0  0  2  0  0  0  0  0  0  0  0  0
   -0.1267  -12.4758   17.8828 O   0  0  0  0  0  0  0  0  0  0  0  0
   -0.3460  -13.2648   15.5577 C   0  0  0  0  0  0  0  0  0  0  0  0
    0.0211  -13.1124   14.1740 O   0  0  0  0  0  0  0  0  0  0  0  0
   -6.0924   -8.9393   15.3894 O   0  0  0  0  0  0  0  0  0  0  0  0
   -8.0131  -11.0452   15.3556 O   0  0  0  0  0  0  0  0  0  0  0  0
    1.7176   -7.2610   18.5319 C   0  0  0  0  0  0  0  0  0  0  0  0
    1.9893   -7.8941   17.4688 O   0  0  0  0  0  0  0  0  0  0  0  0
    2.6938   -6.2141   19.1513 C   0  0  2  0  0  0  0  0  0  0  0  0
    4.6944   -8.4595   21.6249 N   0  0  0  0  0  0  0  0  0  0  0  0
    3.2935   -6.7354   20.4937 C   0  0  0  0  0  0  0  0  0  0  0  0
    4.2004   -7.9648   20.3175 C   0  0  0  0  0  0  0  0  0  0  0  0
    2.1172   -5.1181   19.4416 O   0  0  0  0  0  0  0  0  0  0  0  0
  1  2  1  1  0  0  0
  1  3  1  0  0  0  0
  1  8  1  0  0  0  0
  3  4  1  0  0  0  0
  3 32  1  1  0  0  0
  4  5  1  0  0  0  0
  4 33  1  6  0  0  0
  5  6  1  1  0  0  0
  5  7  1  0  0  0  0
  7  8  1  0  0  0  0
  7  9  1  6  0  0  0
  9 10  1  0  0  0  0
 11 12  1  1  0  0  0
 11 13  1  0  0  0  0
 11 19  1  0  0  0  0
 12 34  1  0  0  0  0
 13 14  1  0  0  0  0
 14 15  1  1  0  0  0
 14 16  1  0  0  0  0
 16  2  1  6  0  0  0
 16 17  1  0  0  0  0
 17 18  1  1  0  0  0
 17 19  1  0  0  0  0
 19 20  1  6  0  0  0
 21 20  1  6  0  0  0
 21 22  1  0  0  0  0
 21 29  1  0  0  0  0
 22 23  1  1  0  0  0
 22 24  1  0  0  0  0
 24 25  1  1  0  0  0
 24 26  1  0  0  0  0
 26 27  1  6  0  0  0
 26 28  1  0  0  0  0
 28 29  1  0  0  0  0
 28 30  1  6  0  0  0
 30 31  1  0  0  0  0
 34 35  2  0  0  0  0
 36 34  1  1  0  0  0
 36 38  1  0  0  0  0
 36 40  1  0  0  0  0
 37 39  1  0  0  0  0
 38 39  1  0  0  0  0
M  END
>  <CHROM.1>
-153.94725348,88.02365789,-166.81662214,-130.42249124,176.66143394,-160.10855814
-63.58614067,68.87766865,65.59053689,-177.36735274,-1.20672807,-10.35975282
17.68309601,2.73836576,0.17430007,-2.77831328

>  <Name>
ligand

>  <RI>
0

>  <Rbt.Current_Directory>
/home/itssahil/PROJECTS/Mol_Feturizer/New_Systems/rnas/4P20

>  <Rbt.Executable>
rbdock ($Id: //depot/dev/client3/rdock/2013.1/src/exe/rbdock.cxx#4 $)

>  <Rbt.Library>
libRbt.so (2013.1, Build901 2013/11/27)

>  <Rbt.Parameter_File>
/export/apps/rDock/src/rDock_2013.1_src/data/scripts/dock_solv.prm

>  <Rbt.Receptor>
prm/pocket_docking_6.prm

>  <SCORE>
-8.55796

>  <SCORE.INTER>
-1.3226

>  <SCORE.INTER.CONST>
1

>  <SCORE.INTER.POLAR>
0

>  <SCORE.INTER.ROT>
10

>  <SCORE.INTER.SOLV>
13.848

>  <SCORE.INTER.VDW>
-15.7644

>  <SCORE.INTER.norm>
-0.0330649

>  <SCORE.INTRA>
-7.23536

>  <SCORE.INTRA.DIHEDRAL>
-17.5539

>  <SCORE.INTRA.DIHEDRAL.0>
28.2802

>  <SCORE.INTRA.POLAR>
0

>  <SCORE.INTRA.POLAR.0>
0

>  <SCORE.INTRA.REPUL>
0.0131336

>  <SCORE.INTRA.REPUL.0>
0

>  <SCORE.INTRA.SOLV>
1.80928

>  <SCORE.INTRA.SOLV.lig_0>
-101.981

>  <SCORE.INTRA.VDW>
0.5713

>  <SCORE.INTRA.VDW.0>
-5.72964

>  <SCORE.INTRA.norm>
-0.180884

>  <SCORE.RESTR>
0

>  <SCORE.RESTR.CAVITY>
0

>  <SCORE.RESTR.norm>
0

>  <SCORE.SYSTEM>
0

>  <SCORE.SYSTEM.CONST>
0

>  <SCORE.SYSTEM.DIHEDRAL>
0

>  <SCORE.SYSTEM.SOLV>
0

>  <SCORE.SYSTEM.norm>
0

>  <SCORE.heavy>
40

>  <SCORE.norm>
-0.213949

>  <RMSD>
8.578

$$$$
ligand
 OpenBabel11021811513D
libRbt.so/2013.1/901 2013/11/27
 40 42  0  0  0  0  0  0  0  0999 V2000
   -5.4048  -10.8305   15.3446 C   0  0  2  0  0  0  0  0  0  0  0  0
   -4.6454   -9.9699   16.2081 O   0  0  0  0  0  0  0  0  0  0  0  0
   -6.8526  -10.2532   15.1215 C   0  0  1  0  0  0  0  0  0  0  0  0
   -7.6785  -10.2542   16.4409 C   0  0  2  0  0  0  0  0  0  0  0  0
   -7.7761  -11.7310   16.9388 C   0  0  2  0  0  0  0  0  0  0  0  0
   -8.5598  -11.7736   18.1506 O   0  0  0  0  0  0  0  0  0  0  0  0
   -6.3033  -12.2738   17.1987 C   0  0  2  0  0  0  0  0  0  0  0  0
   -5.5073  -12.2091   15.9211 O   0  0  0  0  0  0  0  0  0  0  0  0
   -6.2898  -13.7213   17.6706 C   0  0  0  0  0  0  0  0  0  0  0  0
   -6.9432  -13.8691   19.0092 N   0  0  0  0  0  0  0  0  0  0  0  0
   -0.2735   -9.7593   16.6235 C   0  0  2  0  0  0  0  0  0  0  0  0
    1.0675  -10.0893   17.0468 N   0  0  0  0  0  0  0  0  0  0  0  0
   -1.1648   -9.4390   17.8908 C   0  0  0  0  0  0  0  0  0  0  0  0
   -2.6501   -9.0774   17.4393 C   0  0  2  0  0  0  0  0  0  0  0  0
   -3.4818   -8.7607   18.6299 N   0  0  0  0  0  0  0  0  0  0  0  0
   -3.2621  -10.3042   16.6163 C   0  0  2  0  0  0  0  0  0  0  0  0
   -2.3341  -10.5871   15.3591 C   0  0  2  0  0  0  0  0  0  0  0  0
   -2.8753  -11.6806   14.6143 O   0  0  0  0  0  0  0  0  0  0  0  0
   -0.8652  -10.9399   15.8209 C   0  0  1  0  0  0  0  0  0  0  0  0
   -0.0267  -11.1746   14.6623 O   0  0  0  0  0  0  0  0  0  0  0  0
   -0.2881  -12.0932   13.6559 C   0  0  2  0  0  0  0  0  0  0  0  0
    0.0312  -13.5210   14.2256 C   0  0  2  0  0  0  0  0  0  0  0  0
   -0.7340  -13.7540   15.3637 O   0  0  0  0  0  0  0  0  0  0  0  0
    1.5794  -13.7027   14.5280 C   0  0  1  0  0  0  0  0  0  0  0  0
    1.8628  -15.0725   15.0574 N   0  0  0  0  0  0  0  0  0  0  0  0
    2.3951  -13.4284   13.1899 C   0  0  2  0  0  0  0  0  0  0  0  0
    3.8017  -13.5931   13.4086 O   0  0  0  0  0  0  0  0  0  0  0  0
    2.0526  -11.9694   12.6969 C   0  0  2  0  0  0  0  0  0  0  0  0
    0.5557  -11.8138   12.4657 O   0  0  0  0  0  0  0  0  0  0  0  0
    2.7783  -11.6429   11.4135 C   0  0  0  0  0  0  0  0  0  0  0  0
    4.2046  -11.5547   11.5883 O   0  0  0  0  0  0  0  0  0  0  0  0
   -6.7294   -8.9012   14.5913 O   0  0  0  0  0  0  0  0  0  0  0  0
   -8.9325   -9.7541   16.1862 O   0  0  0  0  0  0  0  0  0  0  0  0
    1.8927   -9.0562   17.6286 C   0  0  0  0  0  0  0  0  0  0  0  0
    1.6458   -7.8388   17.3798 O   0  0  0  0  0  0  0  0  0  0  0  0
    3.0733   -9.4961   18.5480 C   0  0  2  0  0  0  0  0  0  0  0  0
    6.6058  -10.8952   17.6954 N   0  0  0  0  0  0  0  0  0  0  0  0
    4.2517  -10.0748   17.7054 C   0  0  0  0  0  0  0  0  0  0  0  0
    5.4942  -10.4092   18.5476 C   0  0  0  0  0  0  0  0  0  0  0  0
    2.7468  -10.4239   19.3545 O   0  0  0  0  0  0  0  0  0  0  0  0
  1  2  1  1  0  0  0
  1  3  1  0  0  0  0
  1  8  1  0  0  0  0
  3  4  1  0  0  0  0
  3 32  1  1  0  0  0
  4  5  1  0  0  0  0
  4 33  1  6  0  0  0
  5  6  1  1  0  0  0
  5  7  1  0  0  0  0
  7  8  1  0  0  0  0
  7  9  1  6  0  0  0
  9 10  1  0  0  0  0
 11 12  1  1  0  0  0
 11 13  1  0  0  0  0
 11 19  1  0  0  0  0
 12 34  1  0  0  0  0
 13 14  1  0  0  0  0
 14 15  1  1  0  0  0
 14 16  1  0  0  0  0
 16  2  1  6  0  0  0
 16 17  1  0  0  0  0
 17 18  1  1  0  0  0
 17 19  1  0  0  0  0
 19 20  1  6  0  0  0
 21 20  1  1  0  0  0
 21 22  1  0  0  0  0
 21 29  1  0  0  0  0
 22 23  1  1  0  0  0
 22 24  1  0  0  0  0
 24 25  1  6  0  0  0
 24 26  1  0  0  0  0
 26 27  1  1  0  0  0
 26 28  1  0  0  0  0
 28 29  1  0  0  0  0
 28 30  1  6  0  0  0
 30 31  1  0  0  0  0
 34 35  2  0  0  0  0
 36 34  1  6  0  0  0
 36 38  1  0  0  0  0
 36 40  1  0  0  0  0
 37 39  1  0  0  0  0
 38 39  1  0  0  0  0
M  END
>  <CHROM.1>
177.99020518,173.95718883,-64.85791577,-68.06805784,-175.31588228,-75.19384367
-67.02135685,74.61137915,174.85195790,-177.34831832,-1.35340991,-11.19409889
15.92602274,3.01459066,0.04020048,1.00856472

>  <Name>
ligand

>  <RI>
0

>  <Rbt.Current_Directory>
/home/itssahil/PROJECTS/Mol_Feturizer/New_Systems/rnas/4P20

>  <Rbt.Executable>
rbdock ($Id: //depot/dev/client3/rdock/2013.1/src/exe/rbdock.cxx#4 $)

>  <Rbt.Library>
libRbt.so (2013.1, Build901 2013/11/27)

>  <Rbt.Parameter_File>
/export/apps/rDock/src/rDock_2013.1_src/data/scripts/dock_solv.prm

>  <Rbt.Receptor>
prm/pocket_docking_6.prm

>  <SCORE>
-11.4252

>  <SCORE.INTER>
-1.13689

>  <SCORE.INTER.CONST>
1

>  <SCORE.INTER.POLAR>
0

>  <SCORE.INTER.ROT>
10

>  <SCORE.INTER.SOLV>
9.63791

>  <SCORE.INTER.VDW>
-14.2372

>  <SCORE.INTER.norm>
-0.0284223

>  <SCORE.INTRA>
-10.2883

>  <SCORE.INTRA.DIHEDRAL>
-25.4072

>  <SCORE.INTRA.DIHEDRAL.0>
28.2802

>  <SCORE.INTRA.POLAR>
0

>  <SCORE.INTRA.POLAR.0>
0

>  <SCORE.INTRA.REPUL>
0

>  <SCORE.INTRA.REPUL.0>
0

>  <SCORE.INTRA.SOLV>
-0.84562

>  <SCORE.INTRA.SOLV.lig_0>
-101.981

>  <SCORE.INTRA.VDW>
2.83809

>  <SCORE.INTRA.VDW.0>
-5.72964

>  <SCORE.INTRA.norm>
-0.257208

>  <SCORE.RESTR>
0

>  <SCORE.RESTR.CAVITY>
0

>  <SCORE.RESTR.norm>
0

>  <SCORE.SYSTEM>
0

>  <SCORE.SYSTEM.CONST>
0

>  <SCORE.SYSTEM.DIHEDRAL>
0

>  <SCORE.SYSTEM.SOLV>
0

>  <SCORE.SYSTEM.norm>
0

>  <SCORE.heavy>
40

>  <SCORE.norm>
-0.285631

>  <RMSD>
8.596

$$$$
ligand
 OpenBabel11021811513D
libRbt.so/2013.1/901 2013/11/27
 40 42  0  0  0  0  0  0  0  0999 V2000
    6.9063   -7.4713   13.6990 C   0  0  2  0  0  0  0  0  0  0  0  0
    5.5973   -8.0604   13.6490 O   0  0  0  0  0  0  0  0  0  0  0  0
    6.9974   -6.2408   12.7207 C   0  0  1  0  0  0  0  0  0  0  0  0
    6.8616   -6.6809   11.2338 C   0  0  2  0  0  0  0  0  0  0  0  0
    8.0220   -7.6795   10.9264 C   0  0  2  0  0  0  0  0  0  0  0  0
    7.9427   -8.0900    9.5444 O   0  0  0  0  0  0  0  0  0  0  0  0
    7.8796   -8.9321   11.8971 C   0  0  2  0  0  0  0  0  0  0  0  0
    7.9569   -8.4731   13.3301 O   0  0  0  0  0  0  0  0  0  0  0  0
    8.9830   -9.9603   11.6884 C   0  0  0  0  0  0  0  0  0  0  0  0
    8.8226  -11.1324   12.6055 N   0  0  0  0  0  0  0  0  0  0  0  0
    3.2902  -10.1709   16.7398 C   0  0  2  0  0  0  0  0  0  0  0  0
    2.8849  -11.2070   17.6611 N   0  0  0  0  0  0  0  0  0  0  0  0
    3.2570  -10.7343   15.2619 C   0  0  0  0  0  0  0  0  0  0  0  0
    3.7069   -9.6026   14.2334 C   0  0  2  0  0  0  0  0  0  0  0  0
    3.6594  -10.1286   12.8439 N   0  0  0  0  0  0  0  0  0  0  0  0
    5.1779   -9.1032   14.6125 C   0  0  2  0  0  0  0  0  0  0  0  0
    5.1598   -8.5502   16.1011 C   0  0  2  0  0  0  0  0  0  0  0  0
    6.4704   -8.0975   16.4483 O   0  0  0  0  0  0  0  0  0  0  0  0
    4.7085   -9.6804   17.1082 C   0  0  1  0  0  0  0  0  0  0  0  0
    4.6771   -9.1543   18.4584 O   0  0  0  0  0  0  0  0  0  0  0  0
    5.7914   -8.8660   19.2329 C   0  0  2  0  0  0  0  0  0  0  0  0
    6.2366  -10.1986   19.9337 C   0  0  2  0  0  0  0  0  0  0  0  0
    6.4997  -11.1692   18.9725 O   0  0  0  0  0  0  0  0  0  0  0  0
    5.1543  -10.7052   20.9794 C   0  0  1  0  0  0  0  0  0  0  0  0
    5.6037  -11.9676   21.6436 N   0  0  0  0  0  0  0  0  0  0  0  0
    4.9037   -9.5554   22.0501 C   0  0  2  0  0  0  0  0  0  0  0  0
    3.9406   -9.9706   23.0266 O   0  0  0  0  0  0  0  0  0  0  0  0
    4.4276   -8.2634   21.2800 C   0  0  2  0  0  0  0  0  0  0  0  0
    5.4641   -7.8344   20.2504 O   0  0  0  0  0  0  0  0  0  0  0  0
    4.1880   -7.1173   22.2338 C   0  0  0  0  0  0  0  0  0  0  0  0
    5.3789   -6.7241   22.9408 O   0  0  0  0  0  0  0  0  0  0  0  0
    5.9474   -5.2947   13.0764 O   0  0  0  0  0  0  0  0  0  0  0  0
    6.9607   -5.5734   10.4268 O   0  0  0  0  0  0  0  0  0  0  0  0
    1.5221  -11.6846   17.6229 C   0  0  0  0  0  0  0  0  0  0  0  0
    0.6109  -10.9494   17.1389 O   0  0  0  0  0  0  0  0  0  0  0  0
    1.2304  -13.1062   18.1944 C   0  0  2  0  0  0  0  0  0  0  0  0
    3.0307  -15.1631   16.7300 N   0  0  0  0  0  0  0  0  0  0  0  0
    0.8056  -14.0882   17.0592 C   0  0  0  0  0  0  0  0  0  0  0  0
    1.9415  -14.4030   16.0713 C   0  0  0  0  0  0  0  0  0  0  0  0
    0.2668  -13.1122   19.0247 O   0  0  0  0  0  0  0  0  0  0  0  0
  1  2  1  6  0  0  0
  1  3  1  0  0  0  0
  1  8  1  0  0  0  0
  3  4  1  0  0  0  0
  3 32  1  1  0  0  0
  4  5  1  0  0  0  0
  4 33  1  6  0  0  0
  5  6  1  6  0  0  0
  5  7  1  0  0  0  0
  7  8  1  0  0  0  0
  7  9  1  6  0  0  0
  9 10  1  0  0  0  0
 11 12  1  1  0  0  0
 11 13  1  0  0  0  0
 11 19  1  0  0  0  0
 12 34  1  0  0  0  0
 13 14  1  0  0  0  0
 14 15  1  6  0  0  0
 14 16  1  0  0  0  0
 16  2  1  6  0  0  0
 16 17  1  0  0  0  0
 17 18  1  1  0  0  0
 17 19  1  0  0  0  0
 19 20  1  1  0  0  0
 21 20  1  1  0  0  0
 21 22  1  0  0  0  0
 21 29  1  0  0  0  0
 22 23  1  6  0  0  0
 22 24  1  0  0  0  0
 24 25  1  1  0  0  0
 24 26  1  0  0  0  0
 26 27  1  1  0  0  0
 26 28  1  0  0  0  0
 28 29  1  0  0  0  0
 28 30  1  1  0  0  0
 30 31  1  0  0  0  0
 34 35  2  0  0  0  0
 36 34  1  6  0  0  0
 36 38  1  0  0  0  0
 36 40  1  0  0  0  0
 37 39  1  0  0  0  0
 38 39  1  0  0  0  0
M  END
>  <CHROM.1>
-170.77930954,-176.80848575,-179.61669915,-66.81549316,166.61395770,-84.67554042
61.90534639,-112.56722777,67.48872156,66.32911057,4.98236553,-9.58723532
16.47440490,-0.93400221,0.87839693,1.38314555

>  <Name>
ligand

>  <RI>
0

>  <Rbt.Current_Directory>
/home/itssahil/PROJECTS/Mol_Feturizer/New_Systems/rnas/4P20

>  <Rbt.Executable>
rbdock ($Id: //depot/dev/client3/rdock/2013.1/src/exe/rbdock.cxx#4 $)

>  <Rbt.Library>
libRbt.so (2013.1, Build901 2013/11/27)

>  <Rbt.Parameter_File>
/export/apps/rDock/src/rDock_2013.1_src/data/scripts/dock_solv.prm

>  <Rbt.Receptor>
prm/pocket_docking_7.prm

>  <SCORE>
-9.47246

>  <SCORE.INTER>
0.157475

>  <SCORE.INTER.CONST>
1

>  <SCORE.INTER.POLAR>
0

>  <SCORE.INTER.ROT>
10

>  <SCORE.INTER.SOLV>
8.82964

>  <SCORE.INTER.VDW>
-13.1049

>  <SCORE.INTER.norm>
0.00393687

>  <SCORE.INTRA>
-9.62994

>  <SCORE.INTRA.DIHEDRAL>
-21.5611

>  <SCORE.INTRA.DIHEDRAL.0>
28.2802

>  <SCORE.INTRA.POLAR>
0

>  <SCORE.INTRA.POLAR.0>
0

>  <SCORE.INTRA.REPUL>
0

>  <SCORE.INTRA.REPUL.0>
0

>  <SCORE.INTRA.SOLV>
-0.525998

>  <SCORE.INTRA.SOLV.lig_0>
-101.981

>  <SCORE.INTRA.VDW>
1.4136

>  <SCORE.INTRA.VDW.0>
-5.72964

>  <SCORE.INTRA.norm>
-0.240748

>  <SCORE.RESTR>
0

>  <SCORE.RESTR.CAVITY>
0

>  <SCORE.RESTR.norm>
0

>  <SCORE.SYSTEM>
0

>  <SCORE.SYSTEM.CONST>
0

>  <SCORE.SYSTEM.DIHEDRAL>
0

>  <SCORE.SYSTEM.SOLV>
0

>  <SCORE.SYSTEM.norm>
0

>  <SCORE.heavy>
40

>  <SCORE.norm>
-0.236812

>  <RMSD>
8.599

$$$$
ligand
 OpenBabel11021811513D
libRbt.so/2013.1/901 2013/11/27
 40 42  0  0  0  0  0  0  0  0999 V2000
   -5.8092   -9.6158   16.8044 C   0  0  2  0  0  0  0  0  0  0  0  0
   -4.5994   -9.5139   16.0371 O   0  0  0  0  0  0  0  0  0  0  0  0
   -6.1939  -11.1253   17.0338 C   0  0  1  0  0  0  0  0  0  0  0  0
   -6.5601  -11.8320   15.6961 C   0  0  2  0  0  0  0  0  0  0  0  0
   -7.7746  -11.0722   15.0747 C   0  0  2  0  0  0  0  0  0  0  0  0
   -8.1593  -11.7178   13.8419 O   0  0  0  0  0  0  0  0  0  0  0  0
   -7.3444   -9.5631   14.8122 C   0  0  2  0  0  0  0  0  0  0  0  0
   -6.9402   -8.9186   16.1128 O   0  0  0  0  0  0  0  0  0  0  0  0
   -8.4731   -8.7288   14.2223 C   0  0  0  0  0  0  0  0  0  0  0  0
   -8.9485   -9.2906   12.9188 N   0  0  0  0  0  0  0  0  0  0  0  0
   -0.3945   -8.7591   17.0761 C   0  0  2  0  0  0  0  0  0  0  0  0
    0.8938   -8.9045   17.7130 N   0  0  0  0  0  0  0  0  0  0  0  0
   -1.5001   -8.4869   18.1744 C   0  0  0  0  0  0  0  0  0  0  0  0
   -2.9293   -8.3289   17.4864 C   0  0  2  0  0  0  0  0  0  0  0  0
   -3.9643   -8.0569   18.5180 N   0  0  0  0  0  0  0  0  0  0  0  0
   -3.2668   -9.6591   16.6656 C   0  0  2  0  0  0  0  0  0  0  0  0
   -2.1307   -9.8894   15.5801 C   0  0  2  0  0  0  0  0  0  0  0  0
   -2.4256  -11.0750   14.8381 O   0  0  0  0  0  0  0  0  0  0  0  0
   -0.7204  -10.0400   16.2754 C   0  0  1  0  0  0  0  0  0  0  0  0
    0.3073  -10.2284   15.2709 O   0  0  0  0  0  0  0  0  0  0  0  0
    0.3678  -11.2850   14.3737 C   0  0  2  0  0  0  0  0  0  0  0  0
    1.1136  -12.4680   15.0873 C   0  0  2  0  0  0  0  0  0  0  0  0
    0.4427  -12.8080   16.2575 O   0  0  0  0  0  0  0  0  0  0  0  0
    2.6342  -12.1160   15.3794 C   0  0  1  0  0  0  0  0  0  0  0  0
    3.3283  -13.2600   16.0473 N   0  0  0  0  0  0  0  0  0  0  0  0
    3.3434  -11.7426   14.0050 C   0  0  2  0  0  0  0  0  0  0  0  0
    4.7257  -11.4284   14.2145 O   0  0  0  0  0  0  0  0  0  0  0  0
    2.5643  -10.5293   13.3647 C   0  0  2  0  0  0  0  0  0  0  0  0
    1.0994  -10.8822   13.1453 O   0  0  0  0  0  0  0  0  0  0  0  0
    3.1706  -10.1295   12.0407 C   0  0  0  0  0  0  0  0  0  0  0  0
    3.0511  -11.1587   11.0411 O   0  0  0  0  0  0  0  0  0  0  0  0
   -5.0689  -11.7914   17.6778 O   0  0  0  0  0  0  0  0  0  0  0  0
   -6.8985  -13.1380   15.9560 O   0  0  0  0  0  0  0  0  0  0  0  0
    2.0691   -8.4029   17.0392 C   0  0  0  0  0  0  0  0  0  0  0  0
    2.0572   -8.2524   15.7813 O   0  0  0  0  0  0  0  0  0  0  0  0
    3.3215   -8.0693   17.9068 C   0  0  2  0  0  0  0  0  0  0  0  0
    4.2993   -7.3055   20.7345 N   0  0  0  0  0  0  0  0  0  0  0  0
    3.1648   -6.6825   18.6038 C   0  0  0  0  0  0  0  0  0  0  0  0
    4.3029   -6.3651   19.5882 C   0  0  0  0  0  0  0  0  0  0  0  0
    4.3865   -7.9824   17.2167 O   0  0  0  0  0  0  0  0  0  0  0  0
  1  2  1  6  0  0  0
  1  3  1  0  0  0  0
  1  8  1  0  0  0  0
  3  4  1  0  0  0  0
  3 32  1  6  0  0  0
  4  5  1  0  0  0  0
  4 33  1  1  0  0  0
  5  6  1  6  0  0  0
  5  7  1  0  0  0  0
  7  8  1  0  0  0  0
  7  9  1  1  0  0  0
  9 10  1  0  0  0  0
 11 12  1  1  0  0  0
 11 13  1  0  0  0  0
 11 19  1  0  0  0  0
 12 34  1  0  0  0  0
 13 14  1  0  0  0  0
 14 15  1  1  0  0  0
 14 16  1  0  0  0  0
 16  2  1  6  0  0  0
 16 17  1  0  0  0  0
 17 18  1  1  0  0  0
 17 19  1  0  0  0  0
 19 20  1  6  0  0  0
 21 20  1  1  0  0  0
 21 22  1  0  0  0  0
 21 29  1  0  0  0  0
 22 23  1  1  0  0  0
 22 24  1  0  0  0  0
 24 25  1  6  0  0  0
 24 26  1  0  0  0  0
 26 27  1  1  0  0  0
 26 28  1  0  0  0  0
 28 29  1  0  0  0  0
 28 30  1  6  0  0  0
 30 31  1  0  0  0  0
 34 35  2  0  0  0  0
 36 34  1  6  0  0  0
 36 38  1  0  0  0  0
 36 40  1  0  0  0  0
 37 39  1  0  0  0  0
 38 39  1  0  0  0  0
M  END
>  <CHROM.1>
-81.31119628,-74.98229793,-59.27831511,-144.43665744,178.85866180,-86.02370714
64.78710507,-79.59057031,173.98113716,-65.04214262,-1.23728493,-10.04073177
15.85702790,3.03501010,-0.02481236,-2.22256761

>  <Name>
ligand

>  <RI>
0

>  <Rbt.Current_Directory>
/home/itssahil/PROJECTS/Mol_Feturizer/New_Systems/rnas/4P20

>  <Rbt.Executable>
rbdock ($Id: //depot/dev/client3/rdock/2013.1/src/exe/rbdock.cxx#4 $)

>  <Rbt.Library>
libRbt.so (2013.1, Build901 2013/11/27)

>  <Rbt.Parameter_File>
/export/apps/rDock/src/rDock_2013.1_src/data/scripts/dock_solv.prm

>  <Rbt.Receptor>
prm/pocket_docking_5.prm

>  <SCORE>
-9.78965

>  <SCORE.INTER>
-2.24766

>  <SCORE.INTER.CONST>
1

>  <SCORE.INTER.POLAR>
0

>  <SCORE.INTER.ROT>
10

>  <SCORE.INTER.SOLV>
14.4927

>  <SCORE.INTER.VDW>
-16.596

>  <SCORE.INTER.norm>
-0.0561916

>  <SCORE.INTRA>
-7.54199

>  <SCORE.INTRA.DIHEDRAL>
-20.0531

>  <SCORE.INTRA.DIHEDRAL.0>
28.2802

>  <SCORE.INTRA.POLAR>
0

>  <SCORE.INTRA.POLAR.0>
0

>  <SCORE.INTRA.REPUL>
0

>  <SCORE.INTRA.REPUL.0>
0

>  <SCORE.INTRA.SOLV>
2.78654

>  <SCORE.INTRA.SOLV.lig_0>
-101.981

>  <SCORE.INTRA.VDW>
1.09128

>  <SCORE.INTRA.VDW.0>
-5.72964

>  <SCORE.INTRA.norm>
-0.18855

>  <SCORE.RESTR>
0

>  <SCORE.RESTR.CAVITY>
0

>  <SCORE.RESTR.norm>
0

>  <SCORE.SYSTEM>
0

>  <SCORE.SYSTEM.CONST>
0

>  <SCORE.SYSTEM.DIHEDRAL>
0

>  <SCORE.SYSTEM.SOLV>
0

>  <SCORE.SYSTEM.norm>
0

>  <SCORE.heavy>
40

>  <SCORE.norm>
-0.244741

>  <RMSD>
8.603

$$$$
ligand
 OpenBabel11021811513D
libRbt.so/2013.1/901 2013/11/27
 40 42  0  0  0  0  0  0  0  0999 V2000
   -5.6809  -10.9803   15.2368 C   0  0  2  0  0  0  0  0  0  0  0  0
   -4.9770   -9.9760   15.9845 O   0  0  0  0  0  0  0  0  0  0  0  0
   -7.1386  -10.4945   14.8931 C   0  0  1  0  0  0  0  0  0  0  0  0
   -8.0053  -10.3330   16.1759 C   0  0  2  0  0  0  0  0  0  0  0  0
   -8.0714  -11.7239   16.8825 C   0  0  2  0  0  0  0  0  0  0  0  0
   -8.8911  -11.6178   18.0662 O   0  0  0  0  0  0  0  0  0  0  0  0
   -6.5908  -12.1694   17.2583 C   0  0  2  0  0  0  0  0  0  0  0  0
   -5.7574  -12.2629   16.0066 O   0  0  0  0  0  0  0  0  0  0  0  0
   -6.5460  -13.5311   17.9378 C   0  0  0  0  0  0  0  0  0  0  0  0
   -5.1630  -13.8697   18.3996 N   0  0  0  0  0  0  0  0  0  0  0  0
   -0.6330   -9.5188   16.4849 C   0  0  2  0  0  0  0  0  0  0  0  0
    0.7064   -9.7327   16.9816 N   0  0  0  0  0  0  0  0  0  0  0  0
   -1.5765   -9.0832   17.6778 C   0  0  0  0  0  0  0  0  0  0  0  0
   -3.0604   -8.8479   17.1454 C   0  0  2  0  0  0  0  0  0  0  0  0
   -3.9418   -8.4228   18.2642 N   0  0  0  0  0  0  0  0  0  0  0  0
   -3.5948  -10.1941   16.4678 C   0  0  2  0  0  0  0  0  0  0  0  0
   -2.6164  -10.5899   15.2812 C   0  0  2  0  0  0  0  0  0  0  0  0
   -3.0880  -11.7910   14.6663 O   0  0  0  0  0  0  0  0  0  0  0  0
   -1.1496  -10.8158   15.8223 C   0  0  1  0  0  0  0  0  0  0  0  0
   -0.2657  -11.1554   14.7251 O   0  0  0  0  0  0  0  0  0  0  0  0
   -0.4497  -12.2115   13.8444 C   0  0  2  0  0  0  0  0  0  0  0  0
   -0.2492  -13.5416   14.6542 C   0  0  2  0  0  0  0  0  0  0  0  0
   -1.1431  -13.5818   15.7194 O   0  0  0  0  0  0  0  0  0  0  0  0
    1.2484  -13.7071   15.1554 C   0  0  1  0  0  0  0  0  0  0  0  0
    1.4198  -14.9853   15.9128 N   0  0  0  0  0  0  0  0  0  0  0  0
    2.2159  -13.6579   13.8933 C   0  0  2  0  0  0  0  0  0  0  0  0
    3.5828  -13.8164   14.2935 O   0  0  0  0  0  0  0  0  0  0  0  0
    1.9852  -12.2847   13.1515 C   0  0  2  0  0  0  0  0  0  0  0  0
    0.5296  -12.1353   12.7301 O   0  0  0  0  0  0  0  0  0  0  0  0
    2.8592  -12.1738   11.9251 C   0  0  0  0  0  0  0  0  0  0  0  0
    2.7180  -10.9077   11.2544 O   0  0  0  0  0  0  0  0  0  0  0  0
   -7.0421   -9.2307   14.1736 O   0  0  0  0  0  0  0  0  0  0  0  0
   -9.2660   -9.9211   15.8175 O   0  0  0  0  0  0  0  0  0  0  0  0
    1.8287   -9.3245   16.1687 C   0  0  0  0  0  0  0  0  0  0  0  0
    1.6869   -9.2028   14.9157 O   0  0  0  0  0  0  0  0  0  0  0  0
    3.1878   -9.0529   16.8840 C   0  0  2  0  0  0  0  0  0  0  0  0
    3.9900   -7.1529   20.1808 N   0  0  0  0  0  0  0  0  0  0  0  0
    3.0001   -8.0805   18.0893 C   0  0  0  0  0  0  0  0  0  0  0  0
    4.2699   -7.9165   18.9413 C   0  0  0  0  0  0  0  0  0  0  0  0
    4.0374   -8.4888   16.1238 O   0  0  0  0  0  0  0  0  0  0  0  0
  1  2  1  1  0  0  0
  1  3  1  0  0  0  0
  1  8  1  0  0  0  0
  3  4  1  0  0  0  0
  3 32  1  1  0  0  0
  4  5  1  0  0  0  0
  4 33  1  6  0  0  0
  5  6  1  1  0  0  0
  5  7  1  0  0  0  0
  7  8  1  0  0  0  0
  7  9  1  6  0  0  0
  9 10  1  0  0  0  0
 11 12  1  1  0  0  0
 11 13  1  0  0  0  0
 11 19  1  0  0  0  0
 12 34  1  0  0  0  0
 13 14  1  0  0  0  0
 14 15  1  1  0  0  0
 14 16  1  0  0  0  0
 16  2  1  6  0  0  0
 16 17  1  0  0  0  0
 17 18  1  1  0  0  0
 17 19  1  0  0  0  0
 19 20  1  6  0  0  0
 21 20  1  1  0  0  0
 21 22  1  0  0  0  0
 21 29  1  0  0  0  0
 22 23  1  1  0  0  0
 22 24  1  0  0  0  0
 24 25  1  6  0  0  0
 24 26  1  0  0  0  0
 26 27  1  1  0  0  0
 26 28  1  0  0  0  0
 28 29  1  0  0  0  0
 28 30  1  6  0  0  0
 30 31  1  0  0  0  0
 34 35  2  0  0  0  0
 36 34  1  6  0  0  0
 36 38  1  0  0  0  0
 36 40  1  0  0  0  0
 37 39  1  0  0  0  0
 38 39  1  0  0  0  0
M  END
>  <CHROM.1>
178.31283407,175.06867775,-174.51575419,-141.78425653,-176.01366619,-68.29022552
-177.45886707,-50.96064475,172.63989197,-171.41896372,-1.65409245,-10.96502153
15.82068701,3.10752892,0.11337149,0.73567560

>  <Name>
ligand

>  <RI>
0

>  <Rbt.Current_Directory>
/home/itssahil/PROJECTS/Mol_Feturizer/New_Systems/rnas/4P20

>  <Rbt.Executable>
rbdock ($Id: //depot/dev/client3/rdock/2013.1/src/exe/rbdock.cxx#4 $)

>  <Rbt.Library>
libRbt.so (2013.1, Build901 2013/11/27)

>  <Rbt.Parameter_File>
/export/apps/rDock/src/rDock_2013.1_src/data/scripts/dock_solv.prm

>  <Rbt.Receptor>
prm/pocket_docking_6.prm

>  <SCORE>
-13.9971

>  <SCORE.INTER>
-2.62488

>  <SCORE.INTER.CONST>
1

>  <SCORE.INTER.POLAR>
0

>  <SCORE.INTER.ROT>
10

>  <SCORE.INTER.SOLV>
11.946

>  <SCORE.INTER.VDW>
-15.9986

>  <SCORE.INTER.norm>
-0.0656221

>  <SCORE.INTRA>
-11.3722

>  <SCORE.INTRA.DIHEDRAL>
-25.3696

>  <SCORE.INTRA.DIHEDRAL.0>
28.2802

>  <SCORE.INTRA.POLAR>
0

>  <SCORE.INTRA.POLAR.0>
0

>  <SCORE.INTRA.REPUL>
0

>  <SCORE.INTRA.REPUL.0>
0

>  <SCORE.INTRA.SOLV>
-1.53152

>  <SCORE.INTRA.SOLV.lig_0>
-101.981

>  <SCORE.INTRA.VDW>
2.07833

>  <SCORE.INTRA.VDW.0>
-5.72964

>  <SCORE.INTRA.norm>
-0.284306

>  <SCORE.RESTR>
0

>  <SCORE.RESTR.CAVITY>
0

>  <SCORE.RESTR.norm>
0

>  <SCORE.SYSTEM>
0

>  <SCORE.SYSTEM.CONST>
0

>  <SCORE.SYSTEM.DIHEDRAL>
0

>  <SCORE.SYSTEM.SOLV>
0

>  <SCORE.SYSTEM.norm>
0

>  <SCORE.heavy>
40

>  <SCORE.norm>
-0.349928

>  <RMSD>
8.635

$$$$
ligand
 OpenBabel11021811513D
libRbt.so/2013.1/901 2013/11/27
 40 42  0  0  0  0  0  0  0  0999 V2000
   -1.2461  -11.2294   16.7107 C   0  0  2  0  0  0  0  0  0  0  0  0
   -1.2889   -9.9355   17.3327 O   0  0  0  0  0  0  0  0  0  0  0  0
   -2.4804  -11.4243   15.7527 C   0  0  1  0  0  0  0  0  0  0  0  0
   -3.8201  -11.4541   16.5446 C   0  0  2  0  0  0  0  0  0  0  0  0
   -3.7490  -12.6440   17.5533 C   0  0  2  0  0  0  0  0  0  0  0  0
   -4.9888  -12.7184   18.2894 O   0  0  0  0  0  0  0  0  0  0  0  0
   -2.5219  -12.3991   18.5361 C   0  0  2  0  0  0  0  0  0  0  0  0
   -1.2450  -12.3169   17.7406 O   0  0  0  0  0  0  0  0  0  0  0  0
   -2.3545  -13.5214   19.5512 C   0  0  0  0  0  0  0  0  0  0  0  0
   -1.2996  -13.1955   20.5620 N   0  0  0  0  0  0  0  0  0  0  0  0
    1.9184   -7.2646   18.7146 C   0  0  2  0  0  0  0  0  0  0  0  0
    3.0216   -6.7602   19.4989 N   0  0  0  0  0  0  0  0  0  0  0  0
    0.6557   -7.4666   19.6460 C   0  0  0  0  0  0  0  0  0  0  0  0
   -0.5695   -8.0280   18.7947 C   0  0  2  0  0  0  0  0  0  0  0  0
   -1.7597   -8.2017   19.6679 N   0  0  0  0  0  0  0  0  0  0  0  0
   -0.1455   -9.4111   18.1134 C   0  0  2  0  0  0  0  0  0  0  0  0
    1.1233   -9.1571   17.1927 C   0  0  2  0  0  0  0  0  0  0  0  0
    1.5080  -10.3878   16.5758 O   0  0  0  0  0  0  0  0  0  0  0  0
    2.3275   -8.5975   18.0483 C   0  0  1  0  0  0  0  0  0  0  0  0
    3.4697   -8.3515   17.1907 O   0  0  0  0  0  0  0  0  0  0  0  0
    4.6398   -7.7136   17.5766 C   0  0  2  0  0  0  0  0  0  0  0  0
    5.6628   -7.8476   16.3931 C   0  0  2  0  0  0  0  0  0  0  0  0
    5.1185   -7.2964   15.2377 O   0  0  0  0  0  0  0  0  0  0  0  0
    6.0993   -9.3562   16.1587 C   0  0  1  0  0  0  0  0  0  0  0  0
    7.0824   -9.4592   15.0363 N   0  0  0  0  0  0  0  0  0  0  0  0
    6.7159   -9.9238   17.5110 C   0  0  2  0  0  0  0  0  0  0  0  0
    7.1383  -11.2832   17.3464 O   0  0  0  0  0  0  0  0  0  0  0  0
    5.6246   -9.7893   18.6423 C   0  0  2  0  0  0  0  0  0  0  0  0
    5.1910   -8.3389   18.8061 O   0  0  0  0  0  0  0  0  0  0  0  0
    6.1473  -10.2921   19.9668 C   0  0  0  0  0  0  0  0  0  0  0  0
    6.4982  -11.6880   19.9323 O   0  0  0  0  0  0  0  0  0  0  0  0
   -2.4804  -10.3390   14.7799 O   0  0  0  0  0  0  0  0  0  0  0  0
   -4.8584  -11.6384   15.6640 O   0  0  0  0  0  0  0  0  0  0  0  0
    2.9032   -5.4616   20.1206 C   0  0  0  0  0  0  0  0  0  0  0  0
    2.0867   -4.6126   19.6542 O   0  0  0  0  0  0  0  0  0  0  0  0
    3.8060   -5.1585   21.3557 C   0  0  2  0  0  0  0  0  0  0  0  0
    5.5439   -3.8357   23.4614 N   0  0  0  0  0  0  0  0  0  0  0  0
    3.7981   -3.6354   21.6931 C   0  0  0  0  0  0  0  0  0  0  0  0
    4.1838   -3.3339   23.1510 C   0  0  0  0  0  0  0  0  0  0  0  0
    5.0268   -5.4537   21.1545 O   0  0  0  0  0  0  0  0  0  0  0  0
  1  2  1  1  0  0  0
  1  3  1  0  0  0  0
  1  8  1  0  0  0  0
  3  4  1  0  0  0  0
  3 32  1  6  0  0  0
  4  5  1  0  0  0  0
  4 33  1  6  0  0  0
  5  6  1  1  0  0  0
  5  7  1  0  0  0  0
  7  8  1  0  0  0  0
  7  9  1  1  0  0  0
  9 10  1  0  0  0  0
 11 12  1  1  0  0  0
 11 13  1  0  0  0  0
 11 19  1  0  0  0  0
 12 34  1  0  0  0  0
 13 14  1  0  0  0  0
 14 15  1  1  0  0  0
 14 16  1  0  0  0  0
 16  2  1  6  0  0  0
 16 17  1  0  0  0  0
 17 18  1  1  0  0  0
 17 19  1  0  0  0  0
 19 20  1  6  0  0  0
 21 20  1  6  0  0  0
 21 22  1  0  0  0  0
 21 29  1  0  0  0  0
 22 23  1  6  0  0  0
 22 24  1  0  0  0  0
 24 25  1  6  0  0  0
 24 26  1  0  0  0  0
 26 27  1  6  0  0  0
 26 28  1  0  0  0  0
 28 29  1  0  0  0  0
 28 30  1  1  0  0  0
 30 31  1  0  0  0  0
 34 35  2  0  0  0  0
 36 34  1  6  0  0  0
 36 38  1  0  0  0  0
 36 40  1  0  0  0  0
 37 39  1  0  0  0  0
 38 39  1  0  0  0  0
M  END
>  <CHROM.1>
-170.30187766,-174.05796908,-173.36630355,-63.61655864,51.96988787,172.31417005
-61.69186330,166.87049586,157.51567323,59.62131361,1.80975924,-9.04784548
18.37144210,-2.56603722,0.14870377,0.65524353

>  <Name>
ligand

>  <RI>
0

>  <Rbt.Current_Directory>
/home/itssahil/PROJECTS/Mol_Feturizer/New_Systems/rnas/4P20

>  <Rbt.Executable>
rbdock ($Id: //depot/dev/client3/rdock/2013.1/src/exe/rbdock.cxx#4 $)

>  <Rbt.Library>
libRbt.so (2013.1, Build901 2013/11/27)

>  <Rbt.Parameter_File>
/export/apps/rDock/src/rDock_2013.1_src/data/scripts/dock_solv.prm

>  <Rbt.Receptor>
prm/pocket_docking_5.prm

>  <SCORE>
-9.92114

>  <SCORE.INTER>
-0.691601

>  <SCORE.INTER.CONST>
1

>  <SCORE.INTER.POLAR>
0

>  <SCORE.INTER.ROT>
10

>  <SCORE.INTER.SOLV>
17.134

>  <SCORE.INTER.VDW>
-16.4391

>  <SCORE.INTER.norm>
-0.01729

>  <SCORE.INTRA>
-9.24205

>  <SCORE.INTRA.DIHEDRAL>
-24.2801

>  <SCORE.INTRA.DIHEDRAL.0>
28.2802

>  <SCORE.INTRA.POLAR>
0

>  <SCORE.INTRA.POLAR.0>
0

>  <SCORE.INTRA.REPUL>
0

>  <SCORE.INTRA.REPUL.0>
0

>  <SCORE.INTRA.SOLV>
-0.182098

>  <SCORE.INTRA.SOLV.lig_0>
-101.981

>  <SCORE.INTRA.VDW>
2.98906

>  <SCORE.INTRA.VDW.0>
-5.72964

>  <SCORE.INTRA.norm>
-0.231051

>  <SCORE.RESTR>
0.0125139

>  <SCORE.RESTR.CAVITY>
0.0125139

>  <SCORE.RESTR.norm>
0.000312847

>  <SCORE.SYSTEM>
0

>  <SCORE.SYSTEM.CONST>
0

>  <SCORE.SYSTEM.DIHEDRAL>
0

>  <SCORE.SYSTEM.SOLV>
0

>  <SCORE.SYSTEM.norm>
0

>  <SCORE.heavy>
40

>  <SCORE.norm>
-0.248028

>  <RMSD>
8.639

$$$$
ligand
 OpenBabel11021811513D
libRbt.so/2013.1/901 2013/11/27
 40 42  0  0  0  0  0  0  0  0999 V2000
   -5.7020   -8.1568   16.9236 C   0  0  2  0  0  0  0  0  0  0  0  0
   -4.3392   -8.4308   16.5621 O   0  0  0  0  0  0  0  0  0  0  0  0
   -6.2725   -9.3023   17.8410 C   0  0  1  0  0  0  0  0  0  0  0  0
   -6.3722  -10.6532   17.0742 C   0  0  2  0  0  0  0  0  0  0  0  0
   -7.3238  -10.4379   15.8550 C   0  0  2  0  0  0  0  0  0  0  0  0
   -7.4608  -11.6808   15.1332 O   0  0  0  0  0  0  0  0  0  0  0  0
   -6.7014   -9.3086   14.9229 C   0  0  2  0  0  0  0  0  0  0  0  0
   -6.5619   -8.0278   15.7040 O   0  0  0  0  0  0  0  0  0  0  0  0
   -7.5706   -9.0093   13.7092 C   0  0  0  0  0  0  0  0  0  0  0  0
   -8.9007   -8.4517   14.1098 N   0  0  0  0  0  0  0  0  0  0  0  0
   -0.5738   -7.6965   18.7099 C   0  0  2  0  0  0  0  0  0  0  0  0
    0.4511   -7.7882   19.7236 N   0  0  0  0  0  0  0  0  0  0  0  0
   -1.9229   -7.1933   19.3653 C   0  0  0  0  0  0  0  0  0  0  0  0
   -3.0657   -7.0917   18.2587 C   0  0  2  0  0  0  0  0  0  0  0  0
   -4.3280   -6.6031   18.8731 N   0  0  0  0  0  0  0  0  0  0  0  0
   -3.2696   -8.5257   17.5813 C   0  0  2  0  0  0  0  0  0  0  0  0
   -1.8915   -8.9868   16.9410 C   0  0  2  0  0  0  0  0  0  0  0  0
   -2.0646  -10.2670   16.3292 O   0  0  0  0  0  0  0  0  0  0  0  0
   -0.7680   -9.0792   18.0476 C   0  0  1  0  0  0  0  0  0  0  0  0
    0.4872   -9.4805   17.4441 O   0  0  0  0  0  0  0  0  0  0  0  0
    0.7507  -10.7271   16.8951 C   0  0  2  0  0  0  0  0  0  0  0  0
    0.8443  -11.7540   18.0791 C   0  0  2  0  0  0  0  0  0  0  0  0
   -0.3404  -11.7390   18.8082 O   0  0  0  0  0  0  0  0  0  0  0  0
    2.0961  -11.4655   19.0125 C   0  0  1  0  0  0  0  0  0  0  0  0
    2.1732  -12.4619   20.1253 N   0  0  0  0  0  0  0  0  0  0  0  0
    3.4141  -11.5018   18.1222 C   0  0  2  0  0  0  0  0  0  0  0  0
    4.5767  -11.2591   18.9240 O   0  0  0  0  0  0  0  0  0  0  0  0
    3.2638  -10.4249   16.9791 C   0  0  2  0  0  0  0  0  0  0  0  0
    2.0268  -10.7007   16.1351 O   0  0  0  0  0  0  0  0  0  0  0  0
    4.4745  -10.4149   16.0766 C   0  0  0  0  0  0  0  0  0  0  0  0
    4.4125   -9.3829   15.0747 O   0  0  0  0  0  0  0  0  0  0  0  0
   -5.4038   -9.4324   19.0040 O   0  0  0  0  0  0  0  0  0  0  0  0
   -6.8859  -11.6103   17.9154 O   0  0  0  0  0  0  0  0  0  0  0  0
    1.7106   -7.1138   19.5095 C   0  0  0  0  0  0  0  0  0  0  0  0
    2.0831   -6.8356   18.3310 O   0  0  0  0  0  0  0  0  0  0  0  0
    2.5704   -6.7583   20.7612 C   0  0  2  0  0  0  0  0  0  0  0  0
    5.1035   -6.5655   22.4619 N   0  0  0  0  0  0  0  0  0  0  0  0
    3.8936   -6.0443   20.3455 C   0  0  0  0  0  0  0  0  0  0  0  0
    4.6826   -5.4831   21.5403 C   0  0  0  0  0  0  0  0  0  0  0  0
    2.9328   -7.7875   21.4151 O   0  0  0  0  0  0  0  0  0  0  0  0
  1  2  1  6  0  0  0
  1  3  1  0  0  0  0
  1  8  1  0  0  0  0
  3  4  1  0  0  0  0
  3 32  1  1  0  0  0
  4  5  1  0  0  0  0
  4 33  1  1  0  0  0
  5  6  1  6  0  0  0
  5  7  1  0  0  0  0
  7  8  1  0  0  0  0
  7  9  1  6  0  0  0
  9 10  1  0  0  0  0
 11 12  1  1  0  0  0
 11 13  1  0  0  0  0
 11 19  1  0  0  0  0
 12 34  1  0  0  0  0
 13 14  1  0  0  0  0
 14 15  1  1  0  0  0
 14 16  1  0  0  0  0
 16  2  1  6  0  0  0
 16 17  1  0  0  0  0
 17 18  1  1  0  0  0
 17 19  1  0  0  0  0
 19 20  1  6  0  0  0
 21 20  1  1  0  0  0
 21 22  1  0  0  0  0
 21 29  1  0  0  0  0
 22 23  1  1  0  0  0
 22 24  1  0  0  0  0
 24 25  1  1  0  0  0
 24 26  1  0  0  0  0
 26 27  1  1  0  0  0
 26 28  1  0  0  0  0
 28 29  1  0  0  0  0
 28 30  1  6  0  0  0
 30 31  1  0  0  0  0
 34 35  2  0  0  0  0
 36 34  1  6  0  0  0
 36 38  1  0  0  0  0
 36 40  1  0  0  0  0
 37 39  1  0  0  0  0
 38 39  1  0  0  0  0
M  END
>  <CHROM.1>
-62.30261835,-65.96700332,63.69680795,-126.84076200,171.94998989,-70.87266165
-176.09485303,179.69775830,171.40372617,61.98170235,-1.14123655,-9.16529875
17.84739751,2.90526175,0.20869645,-2.50816959

>  <Name>
ligand

>  <RI>
0

>  <Rbt.Current_Directory>
/home/itssahil/PROJECTS/Mol_Feturizer/New_Systems/rnas/4P20

>  <Rbt.Executable>
rbdock ($Id: //depot/dev/client3/rdock/2013.1/src/exe/rbdock.cxx#4 $)

>  <Rbt.Library>
libRbt.so (2013.1, Build901 2013/11/27)

>  <Rbt.Parameter_File>
/export/apps/rDock/src/rDock_2013.1_src/data/scripts/dock_solv.prm

>  <Rbt.Receptor>
prm/pocket_docking_8.prm

>  <SCORE>
-9.91054

>  <SCORE.INTER>
-1.92808

>  <SCORE.INTER.CONST>
1

>  <SCORE.INTER.POLAR>
0

>  <SCORE.INTER.ROT>
10

>  <SCORE.INTER.SOLV>
18.7492

>  <SCORE.INTER.VDW>
-17.8018

>  <SCORE.INTER.norm>
-0.0482021

>  <SCORE.INTRA>
-7.98246

>  <SCORE.INTRA.DIHEDRAL>
-24.8325

>  <SCORE.INTRA.DIHEDRAL.0>
28.2802

>  <SCORE.INTRA.POLAR>
0

>  <SCORE.INTRA.POLAR.0>
0

>  <SCORE.INTRA.REPUL>
0

>  <SCORE.INTRA.REPUL.0>
0

>  <SCORE.INTRA.SOLV>
3.96063

>  <SCORE.INTRA.SOLV.lig_0>
-101.981

>  <SCORE.INTRA.VDW>
2.45349

>  <SCORE.INTRA.VDW.0>
-5.72964

>  <SCORE.INTRA.norm>
-0.199561

>  <SCORE.RESTR>
0

>  <SCORE.RESTR.CAVITY>
0

>  <SCORE.RESTR.norm>
0

>  <SCORE.SYSTEM>
0

>  <SCORE.SYSTEM.CONST>
0

>  <SCORE.SYSTEM.DIHEDRAL>
0

>  <SCORE.SYSTEM.SOLV>
0

>  <SCORE.SYSTEM.norm>
0

>  <SCORE.heavy>
40

>  <SCORE.norm>
-0.247764

>  <RMSD>
8.645

$$$$
ligand
 OpenBabel11021811513D
libRbt.so/2013.1/901 2013/11/27
 40 42  0  0  0  0  0  0  0  0999 V2000
   -5.7484  -10.9675   15.2602 C   0  0  2  0  0  0  0  0  0  0  0  0
   -5.0637   -9.9542   16.0135 O   0  0  0  0  0  0  0  0  0  0  0  0
   -7.2034  -10.4935   14.8893 C   0  0  1  0  0  0  0  0  0  0  0  0
   -8.0923  -10.3304   16.1566 C   0  0  2  0  0  0  0  0  0  0  0  0
   -8.1610  -11.7176   16.8702 C   0  0  2  0  0  0  0  0  0  0  0  0
   -9.0011  -11.6100   18.0395 O   0  0  0  0  0  0  0  0  0  0  0  0
   -6.6841  -12.1509   17.2732 C   0  0  2  0  0  0  0  0  0  0  0  0
   -5.8293  -12.2461   16.0361 O   0  0  0  0  0  0  0  0  0  0  0  0
   -6.6416  -13.5083   17.9615 C   0  0  0  0  0  0  0  0  0  0  0  0
   -5.2649  -13.8335   18.4510 N   0  0  0  0  0  0  0  0  0  0  0  0
   -0.7278   -9.4167   16.5044 C   0  0  2  0  0  0  0  0  0  0  0  0
    0.6166   -9.6066   16.9974 N   0  0  0  0  0  0  0  0  0  0  0  0
   -1.6764   -9.0014   17.7005 C   0  0  0  0  0  0  0  0  0  0  0  0
   -3.1658   -8.7929   17.1722 C   0  0  2  0  0  0  0  0  0  0  0  0
   -4.0522   -8.3868   18.2941 N   0  0  0  0  0  0  0  0  0  0  0  0
   -3.6765  -10.1474   16.4929 C   0  0  2  0  0  0  0  0  0  0  0  0
   -2.6938  -10.5222   15.3031 C   0  0  2  0  0  0  0  0  0  0  0  0
   -3.1443  -11.7306   14.6867 O   0  0  0  0  0  0  0  0  0  0  0  0
   -1.2217  -10.7217   15.8402 C   0  0  1  0  0  0  0  0  0  0  0  0
   -0.3343  -11.0423   14.7400 O   0  0  0  0  0  0  0  0  0  0  0  0
   -0.5282  -12.0678   13.8258 C   0  0  2  0  0  0  0  0  0  0  0  0
   -0.2185  -13.4201   14.5608 C   0  0  2  0  0  0  0  0  0  0  0  0
   -1.0395  -13.5466   15.6767 O   0  0  0  0  0  0  0  0  0  0  0  0
    1.3140  -13.5371   14.9598 C   0  0  1  0  0  0  0  0  0  0  0  0
    1.5892  -14.8368   15.6468 N   0  0  0  0  0  0  0  0  0  0  0  0
    2.1955  -13.3899   13.6435 C   0  0  2  0  0  0  0  0  0  0  0  0
    3.5908  -13.5017   13.9503 O   0  0  0  0  0  0  0  0  0  0  0  0
    1.8580  -11.9988   12.9802 C   0  0  2  0  0  0  0  0  0  0  0  0
    0.3733  -11.8993   12.6573 O   0  0  0  0  0  0  0  0  0  0  0  0
    2.6458  -11.7958   11.7080 C   0  0  0  0  0  0  0  0  0  0  0  0
    4.0644  -11.7141   11.9396 O   0  0  0  0  0  0  0  0  0  0  0  0
   -7.1032   -9.2334   14.1640 O   0  0  0  0  0  0  0  0  0  0  0  0
   -9.3496   -9.9290   15.7748 O   0  0  0  0  0  0  0  0  0  0  0  0
    1.7293   -9.1848   16.1783 C   0  0  0  0  0  0  0  0  0  0  0  0
    1.5812   -9.0721   14.9251 O   0  0  0  0  0  0  0  0  0  0  0  0
    3.0864   -8.8877   16.8872 C   0  0  2  0  0  0  0  0  0  0  0  0
    3.9067   -6.7214   20.0121 N   0  0  0  0  0  0  0  0  0  0  0  0
    2.9088   -7.8165   18.0071 C   0  0  0  0  0  0  0  0  0  0  0  0
    4.1759   -7.6053   18.8527 C   0  0  0  0  0  0  0  0  0  0  0  0
    3.9581   -8.4073   16.0951 O   0  0  0  0  0  0  0  0  0  0  0  0
  1  2  1  1  0  0  0
  1  3  1  0  0  0  0
  1  8  1  0  0  0  0
  3  4  1  0  0  0  0
  3 32  1  1  0  0  0
  4  5  1  0  0  0  0
  4 33  1  6  0  0  0
  5  6  1  1  0  0  0
  5  7  1  0  0  0  0
  7  8  1  0  0  0  0
  7  9  1  6  0  0  0
  9 10  1  0  0  0  0
 11 12  1  1  0  0  0
 11 13  1  0  0  0  0
 11 19  1  0  0  0  0
 12 34  1  0  0  0  0
 13 14  1  0  0  0  0
 14 15  1  1  0  0  0
 14 16  1  0  0  0  0
 16  2  1  6  0  0  0
 16 17  1  0  0  0  0
 17 18  1  1  0  0  0
 17 19  1  0  0  0  0
 19 20  1  6  0  0  0
 21 20  1  1  0  0  0
 21 22  1  0  0  0  0
 21 29  1  0  0  0  0
 22 23  1  1  0  0  0
 22 24  1  0  0  0  0
 24 25  1  6  0  0  0
 24 26  1  0  0  0  0
 26 27  1  1  0  0  0
 26 28  1  0  0  0  0
 28 29  1  0  0  0  0
 28 30  1  6  0  0  0
 30 31  1  0  0  0  0
 34 35  2  0  0  0  0
 36 34  1  6  0  0  0
 36 38  1  0  0  0  0
 36 40  1  0  0  0  0
 37 39  1  0  0  0  0
 38 39  1  0  0  0  0
M  END
>  <CHROM.1>
179.81435373,174.78725677,-174.38472919,-142.24664322,-173.33774035,-73.74959975
-64.68251844,-55.95911686,173.09761294,-172.25804034,-1.68428937,-10.87539272
15.79639566,3.10620300,0.12888687,0.71936551

>  <Name>
ligand

>  <RI>
0

>  <Rbt.Current_Directory>
/home/itssahil/PROJECTS/Mol_Feturizer/New_Systems/rnas/4P20

>  <Rbt.Executable>
rbdock ($Id: //depot/dev/client3/rdock/2013.1/src/exe/rbdock.cxx#4 $)

>  <Rbt.Library>
libRbt.so (2013.1, Build901 2013/11/27)

>  <Rbt.Parameter_File>
/export/apps/rDock/src/rDock_2013.1_src/data/scripts/dock_solv.prm

>  <Rbt.Receptor>
prm/pocket_docking_6.prm

>  <SCORE>
-13.7235

>  <SCORE.INTER>
-2.72792

>  <SCORE.INTER.CONST>
1

>  <SCORE.INTER.POLAR>
0

>  <SCORE.INTER.ROT>
10

>  <SCORE.INTER.SOLV>
12.3606

>  <SCORE.INTER.VDW>
-16.2055

>  <SCORE.INTER.norm>
-0.0681981

>  <SCORE.INTRA>
-10.9956

>  <SCORE.INTRA.DIHEDRAL>
-24.7763

>  <SCORE.INTRA.DIHEDRAL.0>
28.2802

>  <SCORE.INTRA.POLAR>
0

>  <SCORE.INTRA.POLAR.0>
0

>  <SCORE.INTRA.REPUL>
0

>  <SCORE.INTRA.REPUL.0>
0

>  <SCORE.INTRA.SOLV>
-1.30066

>  <SCORE.INTRA.SOLV.lig_0>
-101.981

>  <SCORE.INTRA.VDW>
2.04288

>  <SCORE.INTRA.VDW.0>
-5.72964

>  <SCORE.INTRA.norm>
-0.27489

>  <SCORE.RESTR>
0

>  <SCORE.RESTR.CAVITY>
0

>  <SCORE.RESTR.norm>
0

>  <SCORE.SYSTEM>
0

>  <SCORE.SYSTEM.CONST>
0

>  <SCORE.SYSTEM.DIHEDRAL>
0

>  <SCORE.SYSTEM.SOLV>
0

>  <SCORE.SYSTEM.norm>
0

>  <SCORE.heavy>
40

>  <SCORE.norm>
-0.343088

>  <RMSD>
8.657

$$$$
ligand
 OpenBabel11021811513D
libRbt.so/2013.1/901 2013/11/27
 40 42  0  0  0  0  0  0  0  0999 V2000
   -5.1057  -10.8957   15.3014 C   0  0  2  0  0  0  0  0  0  0  0  0
   -4.3765   -9.8642   15.9849 O   0  0  0  0  0  0  0  0  0  0  0  0
   -6.6092  -10.4723   15.1028 C   0  0  1  0  0  0  0  0  0  0  0  0
   -7.3543  -10.3521   16.4642 C   0  0  2  0  0  0  0  0  0  0  0  0
   -7.2925  -11.7467   17.1640 C   0  0  2  0  0  0  0  0  0  0  0  0
   -7.9981  -11.6794   18.4218 O   0  0  0  0  0  0  0  0  0  0  0  0
   -5.7650  -12.1288   17.3925 C   0  0  2  0  0  0  0  0  0  0  0  0
   -5.0529  -12.1827   16.0658 O   0  0  0  0  0  0  0  0  0  0  0  0
   -5.5968  -13.4894   18.0550 C   0  0  0  0  0  0  0  0  0  0  0  0
   -6.0582  -13.4682   19.4788 N   0  0  0  0  0  0  0  0  0  0  0  0
   -0.0607   -9.5520   16.7636 C   0  0  2  0  0  0  0  0  0  0  0  0
    1.2328   -9.7967   17.3580 N   0  0  0  0  0  0  0  0  0  0  0  0
   -1.0634   -9.0346   17.8725 C   0  0  0  0  0  0  0  0  0  0  0  0
   -2.4978   -8.7646   17.2318 C   0  0  2  0  0  0  0  0  0  0  0  0
   -3.4341   -8.2629   18.2716 N   0  0  0  0  0  0  0  0  0  0  0  0
   -3.0396  -10.1152   16.5691 C   0  0  2  0  0  0  0  0  0  0  0  0
   -2.0009  -10.5939   15.4673 C   0  0  2  0  0  0  0  0  0  0  0  0
   -2.4785  -11.7995   14.8660 O   0  0  0  0  0  0  0  0  0  0  0  0
   -0.5838  -10.8536   16.1152 C   0  0  1  0  0  0  0  0  0  0  0  0
    0.3569  -11.2691   15.0939 O   0  0  0  0  0  0  0  0  0  0  0  0
    1.5523  -11.9336   15.3273 C   0  0  2  0  0  0  0  0  0  0  0  0
    2.2540  -12.1442   13.9386 C   0  0  2  0  0  0  0  0  0  0  0  0
    2.4472  -10.9138   13.3190 O   0  0  0  0  0  0  0  0  0  0  0  0
    1.4326  -13.1333   13.0067 C   0  0  1  0  0  0  0  0  0  0  0  0
    2.1246  -13.3294   11.6954 N   0  0  0  0  0  0  0  0  0  0  0  0
    1.2515  -14.5181   13.7687 C   0  0  2  0  0  0  0  0  0  0  0  0
    0.5248  -15.4523   12.9607 O   0  0  0  0  0  0  0  0  0  0  0  0
    0.5117  -14.2343   15.1329 C   0  0  2  0  0  0  0  0  0  0  0  0
    1.2994  -13.2439   15.9798 O   0  0  0  0  0  0  0  0  0  0  0  0
    0.3213  -15.5059   15.9249 C   0  0  0  0  0  0  0  0  0  0  0  0
   -0.3419  -15.2831   17.1833 O   0  0  0  0  0  0  0  0  0  0  0  0
   -6.6364   -9.2035   14.3862 O   0  0  0  0  0  0  0  0  0  0  0  0
   -8.6601   -9.9940   16.2315 O   0  0  0  0  0  0  0  0  0  0  0  0
    2.2548   -8.7809   17.2547 C   0  0  0  0  0  0  0  0  0  0  0  0
    2.1962   -7.9214   16.3259 O   0  0  0  0  0  0  0  0  0  0  0  0
    3.4058   -8.7936   18.3071 C   0  0  2  0  0  0  0  0  0  0  0  0
    6.2923  -11.3387   18.8853 N   0  0  0  0  0  0  0  0  0  0  0  0
    4.2125  -10.1270   18.2366 C   0  0  0  0  0  0  0  0  0  0  0  0
    5.4853  -10.1136   19.0996 C   0  0  0  0  0  0  0  0  0  0  0  0
    2.9774   -8.7206   19.5026 O   0  0  0  0  0  0  0  0  0  0  0  0
  1  2  1  1  0  0  0
  1  3  1  0  0  0  0
  1  8  1  0  0  0  0
  3  4  1  0  0  0  0
  3 32  1  1  0  0  0
  4  5  1  0  0  0  0
  4 33  1  6  0  0  0
  5  6  1  1  0  0  0
  5  7  1  0  0  0  0
  7  8  1  0  0  0  0
  7  9  1  6  0  0  0
  9 10  1  0  0  0  0
 11 12  1  1  0  0  0
 11 13  1  0  0  0  0
 11 19  1  0  0  0  0
 12 34  1  0  0  0  0
 13 14  1  0  0  0  0
 14 15  1  1  0  0  0
 14 16  1  0  0  0  0
 16  2  1  6  0  0  0
 16 17  1  0  0  0  0
 17 18  1  1  0  0  0
 17 19  1  0  0  0  0
 19 20  1  6  0  0  0
 21 20  1  6  0  0  0
 21 22  1  0  0  0  0
 21 29  1  0  0  0  0
 22 23  1  6  0  0  0
 22 24  1  0  0  0  0
 24 25  1  6  0  0  0
 24 26  1  0  0  0  0
 26 27  1  6  0  0  0
 26 28  1  0  0  0  0
 28 29  1  0  0  0  0
 28 30  1  1  0  0  0
 30 31  1  0  0  0  0
 34 35  2  0  0  0  0
 36 34  1  6  0  0  0
 36 38  1  0  0  0  0
 36 40  1  0  0  0  0
 37 39  1  0  0  0  0
 38 39  1  0  0  0  0
M  END
>  <CHROM.1>
165.96436104,179.09450721,-69.32001025,-97.40947720,79.40165730,-178.54236936
179.51611092,61.03789414,171.32502333,-173.76135005,-1.27490944,-11.28762486
16.27867781,3.11231473,0.01338743,0.66822352

>  <Name>
ligand

>  <RI>
0

>  <Rbt.Current_Directory>
/home/itssahil/PROJECTS/Mol_Feturizer/New_Systems/rnas/4P20

>  <Rbt.Executable>
rbdock ($Id: //depot/dev/client3/rdock/2013.1/src/exe/rbdock.cxx#4 $)

>  <Rbt.Library>
libRbt.so (2013.1, Build901 2013/11/27)

>  <Rbt.Parameter_File>
/export/apps/rDock/src/rDock_2013.1_src/data/scripts/dock_solv.prm

>  <Rbt.Receptor>
prm/pocket_docking_4.prm

>  <SCORE>
-9.8428

>  <SCORE.INTER>
1.33509

>  <SCORE.INTER.CONST>
1

>  <SCORE.INTER.POLAR>
0

>  <SCORE.INTER.ROT>
10

>  <SCORE.INTER.SOLV>
14.7606

>  <SCORE.INTER.VDW>
-14.2968

>  <SCORE.INTER.norm>
0.0333774

>  <SCORE.INTRA>
-11.1779

>  <SCORE.INTRA.DIHEDRAL>
-23.2684

>  <SCORE.INTRA.DIHEDRAL.0>
28.2802

>  <SCORE.INTRA.POLAR>
0

>  <SCORE.INTRA.POLAR.0>
0

>  <SCORE.INTRA.REPUL>
0

>  <SCORE.INTRA.REPUL.0>
0

>  <SCORE.INTRA.SOLV>
-1.57631

>  <SCORE.INTRA.SOLV.lig_0>
-101.981

>  <SCORE.INTRA.VDW>
1.24447

>  <SCORE.INTRA.VDW.0>
-5.72964

>  <SCORE.INTRA.norm>
-0.279447

>  <SCORE.RESTR>
0

>  <SCORE.RESTR.CAVITY>
0

>  <SCORE.RESTR.norm>
0

>  <SCORE.SYSTEM>
0

>  <SCORE.SYSTEM.CONST>
0

>  <SCORE.SYSTEM.DIHEDRAL>
0

>  <SCORE.SYSTEM.SOLV>
0

>  <SCORE.SYSTEM.norm>
0

>  <SCORE.heavy>
40

>  <SCORE.norm>
-0.24607

>  <RMSD>
8.664

$$$$
ligand
 OpenBabel11021811513D
libRbt.so/2013.1/901 2013/11/27
 40 42  0  0  0  0  0  0  0  0999 V2000
   -5.7535  -10.9867   15.1698 C   0  0  2  0  0  0  0  0  0  0  0  0
   -5.0765   -9.9645   15.9180 O   0  0  0  0  0  0  0  0  0  0  0  0
   -7.2114  -10.5249   14.7950 C   0  0  1  0  0  0  0  0  0  0  0  0
   -8.1026  -10.3608   16.0605 C   0  0  2  0  0  0  0  0  0  0  0  0
   -8.1624  -11.7444   16.7819 C   0  0  2  0  0  0  0  0  0  0  0  0
   -9.0042  -11.6360   17.9498 O   0  0  0  0  0  0  0  0  0  0  0  0
   -6.6829  -12.1651   17.1886 C   0  0  2  0  0  0  0  0  0  0  0  0
   -5.8263  -12.2615   15.9529 O   0  0  0  0  0  0  0  0  0  0  0  0
   -6.6316  -13.5184   17.8846 C   0  0  0  0  0  0  0  0  0  0  0  0
   -5.2509  -13.8361   18.3676 N   0  0  0  0  0  0  0  0  0  0  0  0
   -0.7422   -9.4654   16.4606 C   0  0  2  0  0  0  0  0  0  0  0  0
    0.5914   -9.6543   16.9824 N   0  0  0  0  0  0  0  0  0  0  0  0
   -1.7042   -8.9940   17.6248 C   0  0  0  0  0  0  0  0  0  0  0  0
   -3.1819   -8.7859   17.0646 C   0  0  2  0  0  0  0  0  0  0  0  0
   -4.0808   -8.3272   18.1560 N   0  0  0  0  0  0  0  0  0  0  0  0
   -3.6999  -10.1578   16.4271 C   0  0  2  0  0  0  0  0  0  0  0  0
   -2.7034  -10.5889   15.2683 C   0  0  2  0  0  0  0  0  0  0  0  0
   -3.1603  -11.8132   14.6892 O   0  0  0  0  0  0  0  0  0  0  0  0
   -1.2430  -10.7875   15.8366 C   0  0  1  0  0  0  0  0  0  0  0  0
   -0.3424  -11.1599   14.7638 O   0  0  0  0  0  0  0  0  0  0  0  0
   -0.5328  -12.2190   13.8881 C   0  0  2  0  0  0  0  0  0  0  0  0
   -0.3599  -13.5465   14.7083 C   0  0  2  0  0  0  0  0  0  0  0  0
   -1.2648  -13.5668   15.7646 O   0  0  0  0  0  0  0  0  0  0  0  0
    1.1301  -13.7303   15.2256 C   0  0  1  0  0  0  0  0  0  0  0  0
    1.2753  -15.0059   15.9929 N   0  0  0  0  0  0  0  0  0  0  0  0
    2.1108  -13.7033   13.9732 C   0  0  2  0  0  0  0  0  0  0  0  0
    3.4711  -13.8790   14.3881 O   0  0  0  0  0  0  0  0  0  0  0  0
    1.9075  -12.3319   13.2203 C   0  0  2  0  0  0  0  0  0  0  0  0
    0.4586  -12.1642   12.7832 O   0  0  0  0  0  0  0  0  0  0  0  0
    2.7954  -12.2416   12.0021 C   0  0  0  0  0  0  0  0  0  0  0  0
    2.6346  -11.0020   11.2877 O   0  0  0  0  0  0  0  0  0  0  0  0
   -7.1192   -9.2682   14.0627 O   0  0  0  0  0  0  0  0  0  0  0  0
   -9.3623   -9.9703   15.6753 O   0  0  0  0  0  0  0  0  0  0  0  0
    1.7210   -9.2291   16.1887 C   0  0  0  0  0  0  0  0  0  0  0  0
    1.6002   -9.1140   14.9329 O   0  0  0  0  0  0  0  0  0  0  0  0
    3.0619   -8.9315   16.9277 C   0  0  2  0  0  0  0  0  0  0  0  0
    3.8002   -6.7869   20.0897 N   0  0  0  0  0  0  0  0  0  0  0  0
    2.8560   -7.8712   18.0532 C   0  0  0  0  0  0  0  0  0  0  0  0
    4.0920   -7.6889   18.9499 C   0  0  0  0  0  0  0  0  0  0  0  0
    3.9470   -8.4397   16.1577 O   0  0  0  0  0  0  0  0  0  0  0  0
  1  2  1  1  0  0  0
  1  3  1  0  0  0  0
  1  8  1  0  0  0  0
  3  4  1  0  0  0  0
  3 32  1  1  0  0  0
  4  5  1  0  0  0  0
  4 33  1  6  0  0  0
  5  6  1  1  0  0  0
  5  7  1  0  0  0  0
  7  8  1  0  0  0  0
  7  9  1  6  0  0  0
  9 10  1  0  0  0  0
 11 12  1  1  0  0  0
 11 13  1  0  0  0  0
 11 19  1  0  0  0  0
 12 34  1  0  0  0  0
 13 14  1  0  0  0  0
 14 15  1  1  0  0  0
 14 16  1  0  0  0  0
 16  2  1  6  0  0  0
 16 17  1  0  0  0  0
 17 18  1  1  0  0  0
 17 19  1  0  0  0  0
 19 20  1  6  0  0  0
 21 20  1  1  0  0  0
 21 22  1  0  0  0  0
 21 29  1  0  0  0  0
 22 23  1  1  0  0  0
 22 24  1  0  0  0  0
 24 25  1  6  0  0  0
 24 26  1  0  0  0  0
 26 27  1  1  0  0  0
 26 28  1  0  0  0  0
 28 29  1  0  0  0  0
 28 30  1  6  0  0  0
 30 31  1  0  0  0  0
 34 35  2  0  0  0  0
 36 34  1  6  0  0  0
 36 38  1  0  0  0  0
 36 40  1  0  0  0  0
 37 39  1  0  0  0  0
 38 39  1  0  0  0  0
M  END
>  <CHROM.1>
178.35296683,173.61790165,-174.83692953,-139.84438377,-173.60839443,-69.32678152
179.89969055,-55.51131571,171.53483017,-173.72320753,-1.75650525,-10.93988519
15.80637723,3.13027605,0.11015251,0.68950012

>  <Name>
ligand

>  <RI>
0

>  <Rbt.Current_Directory>
/home/itssahil/PROJECTS/Mol_Feturizer/New_Systems/rnas/4P20

>  <Rbt.Executable>
rbdock ($Id: //depot/dev/client3/rdock/2013.1/src/exe/rbdock.cxx#4 $)

>  <Rbt.Library>
libRbt.so (2013.1, Build901 2013/11/27)

>  <Rbt.Parameter_File>
/export/apps/rDock/src/rDock_2013.1_src/data/scripts/dock_solv.prm

>  <Rbt.Receptor>
prm/pocket_docking_4.prm

>  <SCORE>
-14.1562

>  <SCORE.INTER>
-2.93151

>  <SCORE.INTER.CONST>
1

>  <SCORE.INTER.POLAR>
0

>  <SCORE.INTER.ROT>
10

>  <SCORE.INTER.SOLV>
12.636

>  <SCORE.INTER.VDW>
-16.433

>  <SCORE.INTER.norm>
-0.0732878

>  <SCORE.INTRA>
-11.2247

>  <SCORE.INTRA.DIHEDRAL>
-25.2011

>  <SCORE.INTRA.DIHEDRAL.0>
28.2802

>  <SCORE.INTRA.POLAR>
0

>  <SCORE.INTRA.POLAR.0>
0

>  <SCORE.INTRA.REPUL>
0

>  <SCORE.INTRA.REPUL.0>
0

>  <SCORE.INTRA.SOLV>
-1.58944

>  <SCORE.INTRA.SOLV.lig_0>
-101.981

>  <SCORE.INTRA.VDW>
2.17051

>  <SCORE.INTRA.VDW.0>
-5.72964

>  <SCORE.INTRA.norm>
-0.280618

>  <SCORE.RESTR>
0

>  <SCORE.RESTR.CAVITY>
0

>  <SCORE.RESTR.norm>
0

>  <SCORE.SYSTEM>
0

>  <SCORE.SYSTEM.CONST>
0

>  <SCORE.SYSTEM.DIHEDRAL>
0

>  <SCORE.SYSTEM.SOLV>
0

>  <SCORE.SYSTEM.norm>
0

>  <SCORE.heavy>
40

>  <SCORE.norm>
-0.353906

>  <RMSD>
8.676

$$$$
ligand
 OpenBabel11021811513D
libRbt.so/2013.1/901 2013/11/27
 40 42  0  0  0  0  0  0  0  0999 V2000
   -5.8434  -10.8914   15.0392 C   0  0  2  0  0  0  0  0  0  0  0  0
   -5.2694   -9.8410   15.8331 O   0  0  0  0  0  0  0  0  0  0  0  0
   -7.2532  -10.4600   14.4861 C   0  0  1  0  0  0  0  0  0  0  0  0
   -8.2869  -10.2768   15.6353 C   0  0  2  0  0  0  0  0  0  0  0  0
   -8.4143  -11.6425   16.3816 C   0  0  2  0  0  0  0  0  0  0  0  0
   -9.3871  -11.5168   17.4410 O   0  0  0  0  0  0  0  0  0  0  0  0
   -6.9873  -12.0317   16.9678 C   0  0  2  0  0  0  0  0  0  0  0  0
   -5.9921  -12.1469   15.8423 O   0  0  0  0  0  0  0  0  0  0  0  0
   -7.0019  -13.3661   17.7008 C   0  0  0  0  0  0  0  0  0  0  0  0
   -5.6968  -13.6322   18.3839 N   0  0  0  0  0  0  0  0  0  0  0  0
   -1.1026   -9.2698   17.1145 C   0  0  2  0  0  0  0  0  0  0  0  0
    0.1301   -9.4514   17.8450 N   0  0  0  0  0  0  0  0  0  0  0  0
   -2.2586   -8.8704   18.1180 C   0  0  0  0  0  0  0  0  0  0  0  0
   -3.6276   -8.6711   17.3262 C   0  0  2  0  0  0  0  0  0  0  0  0
   -4.7088   -8.2799   18.2682 N   0  0  0  0  0  0  0  0  0  0  0  0
   -3.9920  -10.0255   16.5582 C   0  0  2  0  0  0  0  0  0  0  0  0
   -2.8040  -10.3842   15.5673 C   0  0  2  0  0  0  0  0  0  0  0  0
   -3.1221  -11.5924   14.8728 O   0  0  0  0  0  0  0  0  0  0  0  0
   -1.4537  -10.5746   16.3646 C   0  0  1  0  0  0  0  0  0  0  0  0
   -0.3763  -10.8805   15.4446 O   0  0  0  0  0  0  0  0  0  0  0  0
    0.0775  -10.0446   14.4346 C   0  0  2  0  0  0  0  0  0  0  0  0
    0.9752  -10.9058   13.4768 C   0  0  2  0  0  0  0  0  0  0  0  0
    0.2398  -11.9783   12.9826 O   0  0  0  0  0  0  0  0  0  0  0  0
    2.3000  -11.4022   14.1979 C   0  0  1  0  0  0  0  0  0  0  0  0
    3.1454  -12.2093   13.2648 N   0  0  0  0  0  0  0  0  0  0  0  0
    3.0945  -10.1321   14.7335 C   0  0  2  0  0  0  0  0  0  0  0  0
    4.3087  -10.5283   15.3832 O   0  0  0  0  0  0  0  0  0  0  0  0
    2.1465   -9.3373   15.7124 C   0  0  2  0  0  0  0  0  0  0  0  0
    0.8642   -8.9209   15.0046 O   0  0  0  0  0  0  0  0  0  0  0  0
    2.8285   -8.1010   16.2480 C   0  0  0  0  0  0  0  0  0  0  0  0
    3.9756   -8.4075   17.0622 O   0  0  0  0  0  0  0  0  0  0  0  0
   -7.0909   -9.2210   13.7361 O   0  0  0  0  0  0  0  0  0  0  0  0
   -9.4977   -9.9142   15.0967 O   0  0  0  0  0  0  0  0  0  0  0  0
    0.6786   -8.3364   18.5819 C   0  0  0  0  0  0  0  0  0  0  0  0
    0.3652   -7.1525   18.2577 O   0  0  0  0  0  0  0  0  0  0  0  0
    1.6525   -8.6479   19.7596 C   0  0  2  0  0  0  0  0  0  0  0  0
    3.2382  -10.7769   21.2914 N   0  0  0  0  0  0  0  0  0  0  0  0
    1.0520   -9.7295   20.7098 C   0  0  0  0  0  0  0  0  0  0  0  0
    2.0110  -10.1486   21.8366 C   0  0  0  0  0  0  0  0  0  0  0  0
    1.8704   -7.6341   20.4964 O   0  0  0  0  0  0  0  0  0  0  0  0
  1  2  1  1  0  0  0
  1  3  1  0  0  0  0
  1  8  1  0  0  0  0
  3  4  1  0  0  0  0
  3 32  1  1  0  0  0
  4  5  1  0  0  0  0
  4 33  1  6  0  0  0
  5  6  1  1  0  0  0
  5  7  1  0  0  0  0
  7  8  1  0  0  0  0
  7  9  1  6  0  0  0
  9 10  1  0  0  0  0
 11 12  1  1  0  0  0
 11 13  1  0  0  0  0
 11 19  1  0  0  0  0
 12 34  1  0  0  0  0
 13 14  1  0  0  0  0
 14 15  1  1  0  0  0
 14 16  1  0  0  0  0
 16  2  1  6  0  0  0
 16 17  1  0  0  0  0
 17 18  1  1  0  0  0
 17 19  1  0  0  0  0
 19 20  1  6  0  0  0
 21 20  1  1  0  0  0
 21 22  1  0  0  0  0
 21 29  1  0  0  0  0
 22 23  1  1  0  0  0
 22 24  1  0  0  0  0
 24 25  1  6  0  0  0
 24 26  1  0  0  0  0
 26 27  1  1  0  0  0
 26 28  1  0  0  0  0
 28 29  1  0  0  0  0
 28 30  1  6  0  0  0
 30 31  1  0  0  0  0
 34 35  2  0  0  0  0
 36 34  1  6  0  0  0
 36 38  1  0  0  0  0
 36 40  1  0  0  0  0
 37 39  1  0  0  0  0
 38 39  1  0  0  0  0
M  END
>  <CHROM.1>
175.23564904,179.39489500,-173.07757295,-60.70636502,-57.71736056,-165.73755617
-64.18448147,-49.28408293,175.99100405,-62.75386683,-1.88906175,-10.17746095
16.57140326,-2.98948421,0.11185837,1.30563200

>  <Name>
ligand

>  <RI>
0

>  <Rbt.Current_Directory>
/home/itssahil/PROJECTS/Mol_Feturizer/New_Systems/rnas/4P20

>  <Rbt.Executable>
rbdock ($Id: //depot/dev/client3/rdock/2013.1/src/exe/rbdock.cxx#4 $)

>  <Rbt.Library>
libRbt.so (2013.1, Build901 2013/11/27)

>  <Rbt.Parameter_File>
/export/apps/rDock/src/rDock_2013.1_src/data/scripts/dock_solv.prm

>  <Rbt.Receptor>
prm/pocket_docking_4.prm

>  <SCORE>
-10.2005

>  <SCORE.INTER>
0.965675

>  <SCORE.INTER.CONST>
1

>  <SCORE.INTER.POLAR>
0

>  <SCORE.INTER.ROT>
10

>  <SCORE.INTER.SOLV>
12.6936

>  <SCORE.INTER.VDW>
-13.8541

>  <SCORE.INTER.norm>
0.0241419

>  <SCORE.INTRA>
-11.1663

>  <SCORE.INTRA.DIHEDRAL>
-25.9101

>  <SCORE.INTRA.DIHEDRAL.0>
28.2802

>  <SCORE.INTRA.POLAR>
0

>  <SCORE.INTRA.POLAR.0>
0

>  <SCORE.INTRA.REPUL>
0

>  <SCORE.INTRA.REPUL.0>
0

>  <SCORE.INTRA.SOLV>
0.832708

>  <SCORE.INTRA.SOLV.lig_0>
-101.981

>  <SCORE.INTRA.VDW>
1.37246

>  <SCORE.INTRA.VDW.0>
-5.72964

>  <SCORE.INTRA.norm>
-0.279156

>  <SCORE.RESTR>
4.69892e-05

>  <SCORE.RESTR.CAVITY>
4.69892e-05

>  <SCORE.RESTR.norm>
1.17473e-06

>  <SCORE.SYSTEM>
0

>  <SCORE.SYSTEM.CONST>
0

>  <SCORE.SYSTEM.DIHEDRAL>
0

>  <SCORE.SYSTEM.SOLV>
0

>  <SCORE.SYSTEM.norm>
0

>  <SCORE.heavy>
40

>  <SCORE.norm>
-0.255013

>  <RMSD>
8.691

$$$$
ligand
 OpenBabel11021811513D
libRbt.so/2013.1/901 2013/11/27
 40 42  0  0  0  0  0  0  0  0999 V2000
   -6.2236  -10.6325   17.0924 C   0  0  2  0  0  0  0  0  0  0  0  0
   -5.8317   -9.2865   17.4046 O   0  0  0  0  0  0  0  0  0  0  0  0
   -7.6682  -10.6575   16.4664 C   0  0  1  0  0  0  0  0  0  0  0  0
   -8.7450  -10.2025   17.4941 C   0  0  2  0  0  0  0  0  0  0  0  0
   -8.6854  -11.1815   18.7092 C   0  0  2  0  0  0  0  0  0  0  0  0
   -9.6913  -10.8043   19.6738 O   0  0  0  0  0  0  0  0  0  0  0  0
   -7.2309  -11.1029   19.3491 C   0  0  2  0  0  0  0  0  0  0  0  0
   -6.2029  -11.4924   18.3187 O   0  0  0  0  0  0  0  0  0  0  0  0
   -7.0641  -12.0418   20.5360 C   0  0  0  0  0  0  0  0  0  0  0  0
   -7.9968  -11.6879   21.6520 N   0  0  0  0  0  0  0  0  0  0  0  0
   -1.8048   -7.5390   17.6512 C   0  0  2  0  0  0  0  0  0  0  0  0
   -0.4900   -7.2249   18.1600 N   0  0  0  0  0  0  0  0  0  0  0  0
   -2.9017   -7.0462   18.6792 C   0  0  0  0  0  0  0  0  0  0  0  0
   -4.3591   -7.3905   18.1330 C   0  0  2  0  0  0  0  0  0  0  0  0
   -5.3890   -6.9122   19.0922 N   0  0  0  0  0  0  0  0  0  0  0  0
   -4.4737   -8.9685   17.9010 C   0  0  2  0  0  0  0  0  0  0  0  0
   -3.3542   -9.4134   16.8663 C   0  0  2  0  0  0  0  0  0  0  0  0
   -3.4508  -10.8230   16.6493 O   0  0  0  0  0  0  0  0  0  0  0  0
   -1.9163   -9.0626   17.4183 C   0  0  1  0  0  0  0  0  0  0  0  0
   -0.9082   -9.4556   16.4541 O   0  0  0  0  0  0  0  0  0  0  0  0
    0.4502   -9.5660   16.7138 C   0  0  2  0  0  0  0  0  0  0  0  0
    1.1354  -10.1216   15.4150 C   0  0  2  0  0  0  0  0  0  0  0  0
    0.8707   -9.2731   14.3450 O   0  0  0  0  0  0  0  0  0  0  0  0
    0.6766  -11.6079   15.0958 C   0  0  1  0  0  0  0  0  0  0  0  0
    1.3502  -12.1215   13.8631 N   0  0  0  0  0  0  0  0  0  0  0  0
    1.0107  -12.5248   16.3523 C   0  0  2  0  0  0  0  0  0  0  0  0
    0.6258  -13.8833   16.1077 O   0  0  0  0  0  0  0  0  0  0  0  0
    0.2637  -11.9283   17.6074 C   0  0  2  0  0  0  0  0  0  0  0  0
    0.6877  -10.4869   17.8549 O   0  0  0  0  0  0  0  0  0  0  0  0
    0.5509  -12.7385   18.8490 C   0  0  0  0  0  0  0  0  0  0  0  0
    0.0485  -14.0849   18.7627 O   0  0  0  0  0  0  0  0  0  0  0  0
   -7.6743   -9.7904   15.2951 O   0  0  0  0  0  0  0  0  0  0  0  0
   -9.9831  -10.2555   16.9008 O   0  0  0  0  0  0  0  0  0  0  0  0
   -0.0175   -7.9015   19.3458 C   0  0  0  0  0  0  0  0  0  0  0  0
   -0.8503   -8.4015   20.1590 O   0  0  0  0  0  0  0  0  0  0  0  0
    1.5230   -7.9814   19.5758 C   0  0  2  0  0  0  0  0  0  0  0  0
    3.6705  -10.2834   21.8678 N   0  0  0  0  0  0  0  0  0  0  0  0
    1.8772   -9.1028   20.6008 C   0  0  0  0  0  0  0  0  0  0  0  0
    3.3884   -9.2444   20.8485 C   0  0  0  0  0  0  0  0  0  0  0  0
    2.0011   -6.9103   20.0679 O   0  0  0  0  0  0  0  0  0  0  0  0
  1  2  1  1  0  0  0
  1  3  1  0  0  0  0
  1  8  1  0  0  0  0
  3  4  1  0  0  0  0
  3 32  1  6  0  0  0
  4  5  1  0  0  0  0
  4 33  1  6  0  0  0
  5  6  1  1  0  0  0
  5  7  1  0  0  0  0
  7  8  1  0  0  0  0
  7  9  1  1  0  0  0
  9 10  1  0  0  0  0
 11 12  1  1  0  0  0
 11 13  1  0  0  0  0
 11 19  1  0  0  0  0
 12 34  1  0  0  0  0
 13 14  1  0  0  0  0
 14 15  1  1  0  0  0
 14 16  1  0  0  0  0
 16  2  1  6  0  0  0
 16 17  1  0  0  0  0
 17 18  1  1  0  0  0
 17 19  1  0  0  0  0
 19 20  1  6  0  0  0
 21 20  1  6  0  0  0
 21 22  1  0  0  0  0
 21 29  1  0  0  0  0
 22 23  1  6  0  0  0
 22 24  1  0  0  0  0
 24 25  1  6  0  0  0
 24 26  1  0  0  0  0
 26 27  1  6  0  0  0
 26 28  1  0  0  0  0
 28 29  1  0  0  0  0
 28 30  1  1  0  0  0
 30 31  1  0  0  0  0
 34 35  2  0  0  0  0
 36 34  1  1  0  0  0
 36 38  1  0  0  0  0
 36 40  1  0  0  0  0
 37 39  1  0  0  0  0
 38 39  1  0  0  0  0
M  END
>  <CHROM.1>
-174.86572198,179.32942225,-62.34356097,66.92982738,74.72353692,175.75840447
-64.11795234,-161.53612021,178.98081343,177.73179258,-2.58818525,-10.05285826
17.97567998,-3.12132760,0.03305733,0.86105160

>  <Name>
ligand

>  <RI>
0

>  <Rbt.Current_Directory>
/home/itssahil/PROJECTS/Mol_Feturizer/New_Systems/rnas/4P20

>  <Rbt.Executable>
rbdock ($Id: //depot/dev/client3/rdock/2013.1/src/exe/rbdock.cxx#4 $)

>  <Rbt.Library>
libRbt.so (2013.1, Build901 2013/11/27)

>  <Rbt.Parameter_File>
/export/apps/rDock/src/rDock_2013.1_src/data/scripts/dock_solv.prm

>  <Rbt.Receptor>
prm/pocket_docking_6.prm

>  <SCORE>
-7.93898

>  <SCORE.INTER>
2.98963

>  <SCORE.INTER.CONST>
1

>  <SCORE.INTER.POLAR>
0

>  <SCORE.INTER.ROT>
10

>  <SCORE.INTER.SOLV>
11.9512

>  <SCORE.INTER.VDW>
-12.2573

>  <SCORE.INTER.norm>
0.0747406

>  <SCORE.INTRA>
-10.9286

>  <SCORE.INTRA.DIHEDRAL>
-25.7182

>  <SCORE.INTRA.DIHEDRAL.0>
28.2802

>  <SCORE.INTRA.POLAR>
0

>  <SCORE.INTRA.POLAR.0>
0

>  <SCORE.INTRA.REPUL>
0

>  <SCORE.INTRA.REPUL.0>
0

>  <SCORE.INTRA.SOLV>
0.0198997

>  <SCORE.INTRA.SOLV.lig_0>
-101.981

>  <SCORE.INTRA.VDW>
1.92055

>  <SCORE.INTRA.VDW.0>
-5.72964

>  <SCORE.INTRA.norm>
-0.273215

>  <SCORE.RESTR>
0

>  <SCORE.RESTR.CAVITY>
0

>  <SCORE.RESTR.norm>
0

>  <SCORE.SYSTEM>
0

>  <SCORE.SYSTEM.CONST>
0

>  <SCORE.SYSTEM.DIHEDRAL>
0

>  <SCORE.SYSTEM.SOLV>
0

>  <SCORE.SYSTEM.norm>
0

>  <SCORE.heavy>
40

>  <SCORE.norm>
-0.198475

>  <RMSD>
8.698

$$$$
ligand
 OpenBabel11021811513D
libRbt.so/2013.1/901 2013/11/27
 40 42  0  0  0  0  0  0  0  0999 V2000
   -4.6592  -10.1492   19.4021 C   0  0  2  0  0  0  0  0  0  0  0  0
   -3.4921   -9.7401   20.1324 O   0  0  0  0  0  0  0  0  0  0  0  0
   -4.9678   -9.1347   18.2380 C   0  0  1  0  0  0  0  0  0  0  0  0
   -5.3657   -7.7347   18.7898 C   0  0  2  0  0  0  0  0  0  0  0  0
   -6.6393   -7.9174   19.6745 C   0  0  2  0  0  0  0  0  0  0  0  0
   -7.0534   -6.6314   20.1837 O   0  0  0  0  0  0  0  0  0  0  0  0
   -6.2869   -8.9105   20.8666 C   0  0  2  0  0  0  0  0  0  0  0  0
   -5.8501  -10.2392   20.3061 O   0  0  0  0  0  0  0  0  0  0  0  0
   -7.4767   -9.1709   21.7802 C   0  0  0  0  0  0  0  0  0  0  0  0
   -7.0977  -10.0323   22.9442 N   0  0  0  0  0  0  0  0  0  0  0  0
    0.7527  -10.8836   20.0702 C   0  0  2  0  0  0  0  0  0  0  0  0
    2.0745  -11.1691   19.5626 N   0  0  0  0  0  0  0  0  0  0  0  0
   -0.2963  -11.8526   19.3896 C   0  0  0  0  0  0  0  0  0  0  0  0
   -1.7617  -11.5459   19.9368 C   0  0  2  0  0  0  0  0  0  0  0  0
   -2.7437  -12.4681   19.3086 N   0  0  0  0  0  0  0  0  0  0  0  0
   -2.1265  -10.0189   19.6333 C   0  0  2  0  0  0  0  0  0  0  0  0
   -1.0469   -9.0887   20.3340 C   0  0  2  0  0  0  0  0  0  0  0  0
   -1.3667   -7.7204   20.0715 O   0  0  0  0  0  0  0  0  0  0  0  0
    0.4000   -9.4062   19.7856 C   0  0  1  0  0  0  0  0  0  0  0  0
    1.3751   -8.5643   20.4496 O   0  0  0  0  0  0  0  0  0  0  0  0
    1.6722   -7.2542   20.1028 C   0  0  2  0  0  0  0  0  0  0  0  0
    2.1213   -7.2545   18.5983 C   0  0  2  0  0  0  0  0  0  0  0  0
    1.1116   -7.7931   17.8073 O   0  0  0  0  0  0  0  0  0  0  0  0
    3.4895   -8.0333   18.3913 C   0  0  1  0  0  0  0  0  0  0  0  0
    3.9047   -8.0105   16.9546 N   0  0  0  0  0  0  0  0  0  0  0  0
    4.5994   -7.3673   19.3163 C   0  0  2  0  0  0  0  0  0  0  0  0
    5.8602   -8.0290   19.1551 O   0  0  0  0  0  0  0  0  0  0  0  0
    4.0972   -7.4339   20.8104 C   0  0  2  0  0  0  0  0  0  0  0  0
    2.7596   -6.7227   20.9639 O   0  0  0  0  0  0  0  0  0  0  0  0
    5.0948   -6.7992   21.7499 C   0  0  0  0  0  0  0  0  0  0  0  0
    4.6921   -6.8855   23.1294 O   0  0  0  0  0  0  0  0  0  0  0  0
   -3.7863   -9.0381   17.3901 O   0  0  0  0  0  0  0  0  0  0  0  0
   -5.6352   -6.8963   17.7353 O   0  0  0  0  0  0  0  0  0  0  0  0
    3.2106  -11.0177   20.4421 C   0  0  0  0  0  0  0  0  0  0  0  0
    3.1284  -10.2556   21.4508 O   0  0  0  0  0  0  0  0  0  0  0  0
    4.5099  -11.8094   20.0993 C   0  0  2  0  0  0  0  0  0  0  0  0
    5.8008  -13.9547   18.2819 N   0  0  0  0  0  0  0  0  0  0  0  0
    4.2538  -13.3477   20.1401 C   0  0  0  0  0  0  0  0  0  0  0  0
    5.4745  -14.1786   19.7107 C   0  0  0  0  0  0  0  0  0  0  0  0
    5.4459  -11.6003   20.9349 O   0  0  0  0  0  0  0  0  0  0  0  0
  1  2  1  1  0  0  0
  1  3  1  0  0  0  0
  1  8  1  0  0  0  0
  3  4  1  0  0  0  0
  3 32  1  6  0  0  0
  4  5  1  0  0  0  0
  4 33  1  6  0  0  0
  5  6  1  1  0  0  0
  5  7  1  0  0  0  0
  7  8  1  0  0  0  0
  7  9  1  1  0  0  0
  9 10  1  0  0  0  0
 11 12  1  6  0  0  0
 11 13  1  0  0  0  0
 11 19  1  0  0  0  0
 12 34  1  0  0  0  0
 13 14  1  0  0  0  0
 14 15  1  6  0  0  0
 14 16  1  0  0  0  0
 16  2  1  1  0  0  0
 16 17  1  0  0  0  0
 17 18  1  6  0  0  0
 17 19  1  0  0  0  0
 19 20  1  1  0  0  0
 21 20  1  1  0  0  0
 21 22  1  0  0  0  0
 21 29  1  0  0  0  0
 22 23  1  6  0  0  0
 22 24  1  0  0  0  0
 24 25  1  6  0  0  0
 24 26  1  0  0  0  0
 26 27  1  1  0  0  0
 26 28  1  0  0  0  0
 28 29  1  0  0  0  0
 28 30  1  1  0  0  0
 30 31  1  0  0  0  0
 34 35  2  0  0  0  0
 36 34  1  1  0  0  0
 36 38  1  0  0  0  0
 36 40  1  0  0  0  0
 37 39  1  0  0  0  0
 38 39  1  0  0  0  0
M  END
>  <CHROM.1>
-80.49525215,-78.44602241,-176.14736004,-146.26298955,157.80342304,-57.30091419
-177.85471928,-62.24871026,175.82829396,-65.62248640,-0.04632338,-9.36494319
19.86062337,3.03924053,-0.00999610,0.01960111

>  <Name>
ligand

>  <RI>
0

>  <Rbt.Current_Directory>
/home/itssahil/PROJECTS/Mol_Feturizer/New_Systems/rnas/4P20

>  <Rbt.Executable>
rbdock ($Id: //depot/dev/client3/rdock/2013.1/src/exe/rbdock.cxx#4 $)

>  <Rbt.Library>
libRbt.so (2013.1, Build901 2013/11/27)

>  <Rbt.Parameter_File>
/export/apps/rDock/src/rDock_2013.1_src/data/scripts/dock_solv.prm

>  <Rbt.Receptor>
prm/pocket_docking_7.prm

>  <SCORE>
-8.17096

>  <SCORE.INTER>
0.316313

>  <SCORE.INTER.CONST>
1

>  <SCORE.INTER.POLAR>
0

>  <SCORE.INTER.ROT>
10

>  <SCORE.INTER.SOLV>
12.0381

>  <SCORE.INTER.VDW>
-14.0685

>  <SCORE.INTER.norm>
0.00790784

>  <SCORE.INTRA>
-8.48728

>  <SCORE.INTRA.DIHEDRAL>
-20.8463

>  <SCORE.INTRA.DIHEDRAL.0>
28.2802

>  <SCORE.INTRA.POLAR>
0

>  <SCORE.INTRA.POLAR.0>
0

>  <SCORE.INTRA.REPUL>
0

>  <SCORE.INTRA.REPUL.0>
0

>  <SCORE.INTRA.SOLV>
2.18493

>  <SCORE.INTRA.SOLV.lig_0>
-101.981

>  <SCORE.INTRA.VDW>
0.843394

>  <SCORE.INTRA.VDW.0>
-5.72964

>  <SCORE.INTRA.norm>
-0.212182

>  <SCORE.RESTR>
0

>  <SCORE.RESTR.CAVITY>
0

>  <SCORE.RESTR.norm>
0

>  <SCORE.SYSTEM>
0

>  <SCORE.SYSTEM.CONST>
0

>  <SCORE.SYSTEM.DIHEDRAL>
0

>  <SCORE.SYSTEM.SOLV>
0

>  <SCORE.SYSTEM.norm>
0

>  <SCORE.heavy>
40

>  <SCORE.norm>
-0.204274

>  <RMSD>
8.717

$$$$
ligand
 OpenBabel11021811513D
libRbt.so/2013.1/901 2013/11/27
 40 42  0  0  0  0  0  0  0  0999 V2000
   -2.9170  -14.2844   17.7934 C   0  0  2  0  0  0  0  0  0  0  0  0
   -2.6350  -13.6018   16.5615 O   0  0  0  0  0  0  0  0  0  0  0  0
   -4.4676  -14.3184   18.0651 C   0  0  1  0  0  0  0  0  0  0  0  0
   -5.0368  -12.8906   18.3107 C   0  0  2  0  0  0  0  0  0  0  0  0
   -4.3021  -12.2937   19.5525 C   0  0  2  0  0  0  0  0  0  0  0  0
   -4.8245  -10.9759   19.8264 O   0  0  0  0  0  0  0  0  0  0  0  0
   -2.7446  -12.2293   19.2340 C   0  0  2  0  0  0  0  0  0  0  0  0
   -2.2296  -13.6152   18.9437 O   0  0  0  0  0  0  0  0  0  0  0  0
   -1.9333  -11.6768   20.3979 C   0  0  0  0  0  0  0  0  0  0  0  0
   -0.4928  -11.5027   20.0303 N   0  0  0  0  0  0  0  0  0  0  0  0
    1.0764  -13.5483   14.2051 C   0  0  2  0  0  0  0  0  0  0  0  0
    2.4252  -13.2225   13.8037 N   0  0  0  0  0  0  0  0  0  0  0  0
    0.2102  -12.2263   14.2722 C   0  0  0  0  0  0  0  0  0  0  0  0
   -1.2809  -12.5697   14.7191 C   0  0  2  0  0  0  0  0  0  0  0  0
   -2.0976  -11.3287   14.7657 N   0  0  0  0  0  0  0  0  0  0  0  0
   -1.2483  -13.2943   16.1441 C   0  0  2  0  0  0  0  0  0  0  0  0
   -0.3680  -14.6107   16.0258 C   0  0  2  0  0  0  0  0  0  0  0  0
   -0.3358  -15.2681   17.2947 O   0  0  0  0  0  0  0  0  0  0  0  0
    1.1049  -14.2559   15.5787 C   0  0  1  0  0  0  0  0  0  0  0  0
    1.8887  -15.4688   15.4552 O   0  0  0  0  0  0  0  0  0  0  0  0
    3.2622  -15.5202   15.2661 C   0  0  2  0  0  0  0  0  0  0  0  0
    3.7429  -16.9549   15.6853 C   0  0  2  0  0  0  0  0  0  0  0  0
    3.0711  -17.9133   14.9332 O   0  0  0  0  0  0  0  0  0  0  0  0
    3.5528  -17.2096   17.2410 C   0  0  1  0  0  0  0  0  0  0  0  0
    4.0281  -18.5760   17.6203 N   0  0  0  0  0  0  0  0  0  0  0  0
    4.3467  -16.0870   18.0414 C   0  0  2  0  0  0  0  0  0  0  0  0
    4.2163  -16.2815   19.4551 O   0  0  0  0  0  0  0  0  0  0  0  0
    3.7889  -14.6800   17.5965 C   0  0  2  0  0  0  0  0  0  0  0  0
    3.9394  -14.4889   16.0934 O   0  0  0  0  0  0  0  0  0  0  0  0
    4.5121  -13.5583   18.3030 C   0  0  0  0  0  0  0  0  0  0  0  0
    4.0213  -12.2576   17.9287 O   0  0  0  0  0  0  0  0  0  0  0  0
   -5.1190  -14.9434   16.9209 O   0  0  0  0  0  0  0  0  0  0  0  0
   -6.3860  -12.9807   18.5541 O   0  0  0  0  0  0  0  0  0  0  0  0
    2.6922  -12.9351   12.4133 C   0  0  0  0  0  0  0  0  0  0  0  0
    1.9105  -13.3744   11.5184 O   0  0  0  0  0  0  0  0  0  0  0  0
    3.9559  -12.0868   12.0729 C   0  0  2  0  0  0  0  0  0  0  0  0
    6.7604  -14.7105   12.7195 N   0  0  0  0  0  0  0  0  0  0  0  0
    5.2418  -12.7340   12.6739 C   0  0  0  0  0  0  0  0  0  0  0  0
    5.5256  -14.1430   12.1268 C   0  0  0  0  0  0  0  0  0  0  0  0
    3.9062  -10.9146   12.5643 O   0  0  0  0  0  0  0  0  0  0  0  0
  1  2  1  6  0  0  0
  1  3  1  0  0  0  0
  1  8  1  0  0  0  0
  3  4  1  0  0  0  0
  3 32  1  6  0  0  0
  4  5  1  0  0  0  0
  4 33  1  1  0  0  0
  5  6  1  6  0  0  0
  5  7  1  0  0  0  0
  7  8  1  0  0  0  0
  7  9  1  1  0  0  0
  9 10  1  0  0  0  0
 11 12  1  1  0  0  0
 11 13  1  0  0  0  0
 11 19  1  0  0  0  0
 12 34  1  0  0  0  0
 13 14  1  0  0  0  0
 14 15  1  1  0  0  0
 14 16  1  0  0  0  0
 16  2  1  6  0  0  0
 16 17  1  0  0  0  0
 17 18  1  1  0  0  0
 17 19  1  0  0  0  0
 19 20  1  6  0  0  0
 21 20  1  1  0  0  0
 21 22  1  0  0  0  0
 21 29  1  0  0  0  0
 22 23  1  6  0  0  0
 22 24  1  0  0  0  0
 24 25  1  1  0  0  0
 24 26  1  0  0  0  0
 26 27  1  1  0  0  0
 26 28  1  0  0  0  0
 28 29  1  0  0  0  0
 28 30  1  1  0  0  0
 30 31  1  0  0  0  0
 34 35  2  0  0  0  0
 36 34  1  1  0  0  0
 36 38  1  0  0  0  0
 36 40  1  0  0  0  0
 37 39  1  0  0  0  0
 38 39  1  0  0  0  0
M  END
>  <CHROM.1>
173.00062130,178.54133920,-174.54562345,-76.92674743,69.62922521,160.52412638
-179.54104971,55.39684464,61.24110005,179.58650917,0.74965022,-13.88881925
16.28800812,-2.84574606,0.39636755,-1.05759824

>  <Name>
ligand

>  <RI>
0

>  <Rbt.Current_Directory>
/home/itssahil/PROJECTS/Mol_Feturizer/New_Systems/rnas/4P20

>  <Rbt.Executable>
rbdock ($Id: //depot/dev/client3/rdock/2013.1/src/exe/rbdock.cxx#4 $)

>  <Rbt.Library>
libRbt.so (2013.1, Build901 2013/11/27)

>  <Rbt.Parameter_File>
/export/apps/rDock/src/rDock_2013.1_src/data/scripts/dock_solv.prm

>  <Rbt.Receptor>
prm/pocket_docking_7.prm

>  <SCORE>
-11.7815

>  <SCORE.INTER>
0.453448

>  <SCORE.INTER.CONST>
1

>  <SCORE.INTER.POLAR>
0

>  <SCORE.INTER.ROT>
10

>  <SCORE.INTER.SOLV>
13.8633

>  <SCORE.INTER.VDW>
-14.5855

>  <SCORE.INTER.norm>
0.0113362

>  <SCORE.INTRA>
-12.2366

>  <SCORE.INTRA.DIHEDRAL>
-24.6889

>  <SCORE.INTRA.DIHEDRAL.0>
28.2802

>  <SCORE.INTRA.POLAR>
0

>  <SCORE.INTRA.POLAR.0>
0

>  <SCORE.INTRA.REPUL>
0

>  <SCORE.INTRA.REPUL.0>
0

>  <SCORE.INTRA.SOLV>
-1.88323

>  <SCORE.INTRA.SOLV.lig_0>
-101.981

>  <SCORE.INTRA.VDW>
1.04951

>  <SCORE.INTRA.VDW.0>
-5.72964

>  <SCORE.INTRA.norm>
-0.305914

>  <SCORE.RESTR>
0.00159559

>  <SCORE.RESTR.CAVITY>
0.00159559

>  <SCORE.RESTR.norm>
3.98897e-05

>  <SCORE.SYSTEM>
0

>  <SCORE.SYSTEM.CONST>
0

>  <SCORE.SYSTEM.DIHEDRAL>
0

>  <SCORE.SYSTEM.SOLV>
0

>  <SCORE.SYSTEM.norm>
0

>  <SCORE.heavy>
40

>  <SCORE.norm>
-0.294538

>  <RMSD>
8.729

$$$$
ligand
 OpenBabel11021811503D
libRbt.so/2013.1/901 2013/11/27
 40 42  0  0  0  0  0  0  0  0999 V2000
    1.9132    1.3432   21.5358 C   0  0  2  0  0  0  0  0  0  0  0  0
    2.6409    0.1429   21.8403 O   0  0  0  0  0  0  0  0  0  0  0  0
    0.3709    1.1303   21.7708 C   0  0  1  0  0  0  0  0  0  0  0  0
   -0.2218    0.0921   20.7740 C   0  0  2  0  0  0  0  0  0  0  0  0
    0.0165    0.6322   19.3284 C   0  0  2  0  0  0  0  0  0  0  0  0
   -0.5451   -0.2956   18.3753 O   0  0  0  0  0  0  0  0  0  0  0  0
    1.5831    0.7952   19.1029 C   0  0  2  0  0  0  0  0  0  0  0  0
    2.1424    1.7604   20.1156 O   0  0  0  0  0  0  0  0  0  0  0  0
    1.9202    1.3388   17.7212 C   0  0  0  0  0  0  0  0  0  0  0  0
    0.8560    1.0029   16.7237 N   0  0  0  0  0  0  0  0  0  0  0  0
    2.2244   -4.2308   21.6758 C   0  0  2  0  0  0  0  0  0  0  0  0
    1.6349   -5.5312   21.4569 N   0  0  0  0  0  0  0  0  0  0  0  0
    1.3683   -3.4343   22.7414 C   0  0  0  0  0  0  0  0  0  0  0  0
    2.0045   -1.9940   22.9900 C   0  0  2  0  0  0  0  0  0  0  0  0
    1.2084   -1.2533   24.0035 N   0  0  0  0  0  0  0  0  0  0  0  0
    2.0601   -1.1982   21.6042 C   0  0  2  0  0  0  0  0  0  0  0  0
    2.9264   -2.0365   20.5703 C   0  0  2  0  0  0  0  0  0  0  0  0
    2.9853   -1.3310   19.3285 O   0  0  0  0  0  0  0  0  0  0  0  0
    2.2869   -3.4619   20.3368 C   0  0  1  0  0  0  0  0  0  0  0  0
    3.1000   -4.2212   19.4079 O   0  0  0  0  0  0  0  0  0  0  0  0
    4.4490   -4.5032   19.5678 C   0  0  2  0  0  0  0  0  0  0  0  0
    4.6263   -6.0569   19.4273 C   0  0  2  0  0  0  0  0  0  0  0  0
    4.1435   -6.4745   18.1913 O   0  0  0  0  0  0  0  0  0  0  0  0
    3.9200   -6.8408   20.6139 C   0  0  1  0  0  0  0  0  0  0  0  0
    4.1118   -8.3168   20.4673 N   0  0  0  0  0  0  0  0  0  0  0  0
    4.5182   -6.3222   21.9939 C   0  0  2  0  0  0  0  0  0  0  0  0
    3.9197   -7.0110   23.0988 O   0  0  0  0  0  0  0  0  0  0  0  0
    4.2738   -4.7660   22.0806 C   0  0  2  0  0  0  0  0  0  0  0  0
    4.9197   -4.0504   20.9019 O   0  0  0  0  0  0  0  0  0  0  0  0
    4.8357   -4.1962   23.3612 C   0  0  0  0  0  0  0  0  0  0  0  0
    4.5001   -4.9877   24.5161 O   0  0  0  0  0  0  0  0  0  0  0  0
    0.1737    0.6943   23.1474 O   0  0  0  0  0  0  0  0  0  0  0  0
   -1.5675   -0.0446   21.0150 O   0  0  0  0  0  0  0  0  0  0  0  0
    0.2089   -5.6276   21.2468 C   0  0  0  0  0  0  0  0  0  0  0  0
   -0.5533   -4.7089   21.6710 O   0  0  0  0  0  0  0  0  0  0  0  0
   -0.3356   -6.8833   20.4989 C   0  0  2  0  0  0  0  0  0  0  0  0
    1.9305   -7.5775   17.5069 N   0  0  0  0  0  0  0  0  0  0  0  0
    0.8083   -7.6167   19.7326 C   0  0  0  0  0  0  0  0  0  0  0  0
    1.4644   -6.7496   18.6450 C   0  0  0  0  0  0  0  0  0  0  0  0
   -1.2010   -6.5896   19.6141 O   0  0  0  0  0  0  0  0  0  0  0  0
  1  2  1  6  0  0  0
  1  3  1  0  0  0  0
  1  8  1  0  0  0  0
  3  4  1  0  0  0  0
  3 32  1  1  0  0  0
  4  5  1  0  0  0  0
  4 33  1  1  0  0  0
  5  6  1  6  0  0  0
  5  7  1  0  0  0  0
  7  8  1  0  0  0  0
  7  9  1  6  0  0  0
  9 10  1  0  0  0  0
 11 12  1  6  0  0  0
 11 13  1  0  0  0  0
 11 19  1  0  0  0  0
 12 34  1  0  0  0  0
 13 14  1  0  0  0  0
 14 15  1  1  0  0  0
 14 16  1  0  0  0  0
 16  2  1  1  0  0  0
 16 17  1  0  0  0  0
 17 18  1  6  0  0  0
 17 19  1  0  0  0  0
 19 20  1  6  0  0  0
 21 20  1  1  0  0  0
 21 22  1  0  0  0  0
 21 29  1  0  0  0  0
 22 23  1  6  0  0  0
 22 24  1  0  0  0  0
 24 25  1  6  0  0  0
 24 26  1  0  0  0  0
 26 27  1  1  0  0  0
 26 28  1  0  0  0  0
 28 29  1  0  0  0  0
 28 30  1  1  0  0  0
 30 31  1  0  0  0  0
 34 35  2  0  0  0  0
 36 34  1  6  0  0  0
 36 38  1  0  0  0  0
 36 40  1  0  0  0  0
 37 39  1  0  0  0  0
 38 39  1  0  0  0  0
M  END
>  <CHROM.1>
33.14591915,-120.69873350,-26.44206016,46.73748768,-63.51644979,126.72638611
-45.62759485,-17.10232069,-61.80735773,-148.11508750,2.03353527,-3.22189698
20.71811595,-2.10150832,0.97993483,-2.72820550

>  <Name>
ligand

>  <RI>
0

>  <Rbt.Current_Directory>
/home/itssahil/PROJECTS/Mol_Feturizer/New_Systems/rnas/4P20

>  <Rbt.Executable>
rbdock ($Id: //depot/dev/client3/rdock/2013.1/src/exe/rbdock.cxx#4 $)

>  <Rbt.Library>
libRbt.so (2013.1, Build901 2013/11/27)

>  <Rbt.Parameter_File>
/export/apps/rDock/src/rDock_2013.1_src/data/scripts/dock_solv.prm

>  <Rbt.Receptor>
prm/blind_docking_100.prm

>  <SCORE>
102.744

>  <SCORE.INTER>
57.6215

>  <SCORE.INTER.CONST>
1

>  <SCORE.INTER.POLAR>
0

>  <SCORE.INTER.ROT>
10

>  <SCORE.INTER.SOLV>
33.432

>  <SCORE.INTER.VDW>
17.0037

>  <SCORE.INTER.norm>
1.44054

>  <SCORE.INTRA>
30.3615

>  <SCORE.INTRA.DIHEDRAL>
-1.83491

>  <SCORE.INTRA.DIHEDRAL.0>
28.2802

>  <SCORE.INTRA.POLAR>
0

>  <SCORE.INTRA.POLAR.0>
0

>  <SCORE.INTRA.REPUL>
0

>  <SCORE.INTRA.REPUL.0>
0

>  <SCORE.INTRA.SOLV>
13.4831

>  <SCORE.INTRA.SOLV.lig_0>
-101.981

>  <SCORE.INTRA.VDW>
24.5374

>  <SCORE.INTRA.VDW.0>
-5.72964

>  <SCORE.INTRA.norm>
0.759037

>  <SCORE.RESTR>
14.7607

>  <SCORE.RESTR.CAVITY>
14.7607

>  <SCORE.RESTR.norm>
0.369019

>  <SCORE.SYSTEM>
0

>  <SCORE.SYSTEM.CONST>
0

>  <SCORE.SYSTEM.DIHEDRAL>
0

>  <SCORE.SYSTEM.SOLV>
0

>  <SCORE.SYSTEM.norm>
0

>  <SCORE.heavy>
40

>  <SCORE.norm>
2.56859

>  <RMSD>
8.750

$$$$
ligand
 OpenBabel11021811513D
libRbt.so/2013.1/901 2013/11/27
 40 42  0  0  0  0  0  0  0  0999 V2000
    0.2480  -12.4080   17.3033 C   0  0  2  0  0  0  0  0  0  0  0  0
    1.2005  -12.6966   18.3389 O   0  0  0  0  0  0  0  0  0  0  0  0
   -1.2202  -12.6488   17.8187 C   0  0  1  0  0  0  0  0  0  0  0  0
   -1.4778  -14.1519   18.1305 C   0  0  2  0  0  0  0  0  0  0  0  0
   -1.2487  -14.9564   16.8119 C   0  0  2  0  0  0  0  0  0  0  0  0
   -1.5047  -16.3558   17.0579 O   0  0  0  0  0  0  0  0  0  0  0  0
    0.2536  -14.7313   16.3386 C   0  0  2  0  0  0  0  0  0  0  0  0
    0.4940  -13.2634   16.0986 O   0  0  0  0  0  0  0  0  0  0  0  0
    0.5726  -15.4628   15.0419 C   0  0  0  0  0  0  0  0  0  0  0  0
    1.9802  -15.2096   14.6000 N   0  0  0  0  0  0  0  0  0  0  0  0
    3.2589   -8.8437   18.8371 C   0  0  2  0  0  0  0  0  0  0  0  0
    4.1893   -7.8554   19.3310 N   0  0  0  0  0  0  0  0  0  0  0  0
    2.3757   -9.3836   20.0334 C   0  0  0  0  0  0  0  0  0  0  0  0
    1.3464  -10.4796   19.5040 C   0  0  2  0  0  0  0  0  0  0  0  0
    0.5063  -10.9739   20.6262 N   0  0  0  0  0  0  0  0  0  0  0  0
    2.1583  -11.6751   18.8194 C   0  0  2  0  0  0  0  0  0  0  0  0
    3.0281  -11.0839   17.6295 C   0  0  2  0  0  0  0  0  0  0  0  0
    3.7552  -12.1463   17.0084 O   0  0  0  0  0  0  0  0  0  0  0  0
    4.0400   -9.9969   18.1677 C   0  0  1  0  0  0  0  0  0  0  0  0
    4.8108   -9.4527   17.0676 O   0  0  0  0  0  0  0  0  0  0  0  0
    5.7966   -8.4831   17.1813 C   0  0  2  0  0  0  0  0  0  0  0  0
    6.3362   -8.1870   15.7369 C   0  0  2  0  0  0  0  0  0  0  0  0
    5.2878   -7.7792   14.9186 O   0  0  0  0  0  0  0  0  0  0  0  0
    7.0908   -9.4409   15.1206 C   0  0  1  0  0  0  0  0  0  0  0  0
    7.6070   -9.1332   13.7510 N   0  0  0  0  0  0  0  0  0  0  0  0
    8.2768   -9.8523   16.0980 C   0  0  2  0  0  0  0  0  0  0  0  0
    8.9988  -10.9754   15.5775 O   0  0  0  0  0  0  0  0  0  0  0  0
    7.6581  -10.1676   17.5146 C   0  0  2  0  0  0  0  0  0  0  0  0
    6.8989   -8.9629   18.0538 O   0  0  0  0  0  0  0  0  0  0  0  0
    8.7316  -10.5482   18.5062 C   0  0  0  0  0  0  0  0  0  0  0  0
    9.4145  -11.7636   18.1470 O   0  0  0  0  0  0  0  0  0  0  0  0
   -1.4272  -11.8325   19.0082 O   0  0  0  0  0  0  0  0  0  0  0  0
   -2.7729  -14.3055   18.5625 O   0  0  0  0  0  0  0  0  0  0  0  0
    3.6747   -6.6321   19.9017 C   0  0  0  0  0  0  0  0  0  0  0  0
    2.5140   -6.2316   19.5897 O   0  0  0  0  0  0  0  0  0  0  0  0
    4.5905   -5.8451   20.8888 C   0  0  2  0  0  0  0  0  0  0  0  0
    4.7557   -8.9829   21.7115 N   0  0  0  0  0  0  0  0  0  0  0  0
    4.6586   -6.5565   22.2755 C   0  0  0  0  0  0  0  0  0  0  0  0
    5.5145   -7.8342   22.2617 C   0  0  0  0  0  0  0  0  0  0  0  0
    4.1576   -4.6738   21.1308 O   0  0  0  0  0  0  0  0  0  0  0  0
  1  2  1  1  0  0  0
  1  3  1  0  0  0  0
  1  8  1  0  0  0  0
  3  4  1  0  0  0  0
  3 32  1  1  0  0  0
  4  5  1  0  0  0  0
  4 33  1  6  0  0  0
  5  6  1  1  0  0  0
  5  7  1  0  0  0  0
  7  8  1  0  0  0  0
  7  9  1  6  0  0  0
  9 10  1  0  0  0  0
 11 12  1  1  0  0  0
 11 13  1  0  0  0  0
 11 19  1  0  0  0  0
 12 34  1  0  0  0  0
 13 14  1  0  0  0  0
 14 15  1  1  0  0  0
 14 16  1  0  0  0  0
 16  2  1  6  0  0  0
 16 17  1  0  0  0  0
 17 18  1  1  0  0  0
 17 19  1  0  0  0  0
 19 20  1  6  0  0  0
 21 20  1  6  0  0  0
 21 22  1  0  0  0  0
 21 29  1  0  0  0  0
 22 23  1  6  0  0  0
 22 24  1  0  0  0  0
 24 25  1  6  0  0  0
 24 26  1  0  0  0  0
 26 27  1  6  0  0  0
 26 28  1  0  0  0  0
 28 29  1  0  0  0  0
 28 30  1  1  0  0  0
 30 31  1  0  0  0  0
 34 35  2  0  0  0  0
 36 34  1  6  0  0  0
 36 38  1  0  0  0  0
 36 40  1  0  0  0  0
 37 39  1  0  0  0  0
 38 39  1  0  0  0  0
M  END
>  <CHROM.1>
-121.64075100,64.27246966,178.63817647,-63.25456062,60.47091037,-179.00522681
-63.72856361,-74.66953847,73.77947265,-80.45215783,3.41133859,-10.56707500
18.00447176,2.55291353,-0.40659632,-2.42543802

>  <Name>
ligand

>  <RI>
0

>  <Rbt.Current_Directory>
/home/itssahil/PROJECTS/Mol_Feturizer/New_Systems/rnas/4P20

>  <Rbt.Executable>
rbdock ($Id: //depot/dev/client3/rdock/2013.1/src/exe/rbdock.cxx#4 $)

>  <Rbt.Library>
libRbt.so (2013.1, Build901 2013/11/27)

>  <Rbt.Parameter_File>
/export/apps/rDock/src/rDock_2013.1_src/data/scripts/dock_solv.prm

>  <Rbt.Receptor>
prm/pocket_docking_7.prm

>  <SCORE>
-13.6215

>  <SCORE.INTER>
-9.21875

>  <SCORE.INTER.CONST>
1

>  <SCORE.INTER.POLAR>
0

>  <SCORE.INTER.ROT>
10

>  <SCORE.INTER.SOLV>
10.6046

>  <SCORE.INTER.VDW>
-19.9474

>  <SCORE.INTER.norm>
-0.230469

>  <SCORE.INTRA>
-4.40272

>  <SCORE.INTRA.DIHEDRAL>
-17.8331

>  <SCORE.INTRA.DIHEDRAL.0>
28.2802

>  <SCORE.INTRA.POLAR>
0

>  <SCORE.INTRA.POLAR.0>
0

>  <SCORE.INTRA.REPUL>
0

>  <SCORE.INTRA.REPUL.0>
0

>  <SCORE.INTRA.SOLV>
5.90256

>  <SCORE.INTRA.SOLV.lig_0>
-101.981

>  <SCORE.INTRA.VDW>
1.56255

>  <SCORE.INTRA.VDW.0>
-5.72964

>  <SCORE.INTRA.norm>
-0.110068

>  <SCORE.RESTR>
0

>  <SCORE.RESTR.CAVITY>
0

>  <SCORE.RESTR.norm>
0

>  <SCORE.SYSTEM>
0

>  <SCORE.SYSTEM.CONST>
0

>  <SCORE.SYSTEM.DIHEDRAL>
0

>  <SCORE.SYSTEM.SOLV>
0

>  <SCORE.SYSTEM.norm>
0

>  <SCORE.heavy>
40

>  <SCORE.norm>
-0.340537

>  <RMSD>
8.756

$$$$
ligand
 OpenBabel11021811513D
libRbt.so/2013.1/901 2013/11/27
 40 42  0  0  0  0  0  0  0  0999 V2000
   -2.9343  -11.3538   17.9334 C   0  0  2  0  0  0  0  0  0  0  0  0
   -2.3806  -10.0480   17.7065 O   0  0  0  0  0  0  0  0  0  0  0  0
   -3.2904  -12.0494   16.5665 C   0  0  1  0  0  0  0  0  0  0  0  0
   -4.4362  -11.3007   15.8251 C   0  0  2  0  0  0  0  0  0  0  0  0
   -5.6892  -11.3083   16.7569 C   0  0  2  0  0  0  0  0  0  0  0  0
   -6.7828  -10.6431   16.0891 O   0  0  0  0  0  0  0  0  0  0  0  0
   -5.3151  -10.5610   18.1108 C   0  0  2  0  0  0  0  0  0  0  0  0
   -4.1670  -11.2709   18.7802 O   0  0  0  0  0  0  0  0  0  0  0  0
   -6.4719  -10.5325   19.1004 C   0  0  0  0  0  0  0  0  0  0  0  0
   -6.9327  -11.9138   19.4470 N   0  0  0  0  0  0  0  0  0  0  0  0
    0.6591   -7.4402   19.5202 C   0  0  2  0  0  0  0  0  0  0  0  0
    1.4480   -6.7728   20.5295 N   0  0  0  0  0  0  0  0  0  0  0  0
   -0.8648   -7.0547   19.6990 C   0  0  0  0  0  0  0  0  0  0  0  0
   -1.7492   -7.7882   18.5942 C   0  0  2  0  0  0  0  0  0  0  0  0
   -3.1784   -7.4120   18.7533 N   0  0  0  0  0  0  0  0  0  0  0  0
   -1.5494   -9.3692   18.7263 C   0  0  2  0  0  0  0  0  0  0  0  0
   -0.0082   -9.7046   18.5418 C   0  0  2  0  0  0  0  0  0  0  0  0
    0.1804  -11.1170   18.6545 O   0  0  0  0  0  0  0  0  0  0  0  0
    0.8561   -8.9683   19.6400 C   0  0  1  0  0  0  0  0  0  0  0  0
    2.2607   -9.2677   19.4450 O   0  0  0  0  0  0  0  0  0  0  0  0
    3.1866   -8.4209   18.8529 C   0  0  2  0  0  0  0  0  0  0  0  0
    4.2251   -9.3172   18.0892 C   0  0  2  0  0  0  0  0  0  0  0  0
    3.5644  -10.1103   17.1567 O   0  0  0  0  0  0  0  0  0  0  0  0
    5.0870  -10.2020   19.0871 C   0  0  1  0  0  0  0  0  0  0  0  0
    6.0773  -11.0377   18.3402 N   0  0  0  0  0  0  0  0  0  0  0  0
    5.8182   -9.2381   20.1203 C   0  0  2  0  0  0  0  0  0  0  0  0
    6.6218   -9.9909   21.0374 O   0  0  0  0  0  0  0  0  0  0  0  0
    4.7151   -8.3974   20.8721 C   0  0  2  0  0  0  0  0  0  0  0  0
    3.8742   -7.6012   19.8834 O   0  0  0  0  0  0  0  0  0  0  0  0
    5.3380   -7.4403   21.8602 C   0  0  0  0  0  0  0  0  0  0  0  0
    4.3651   -6.8161   22.7185 O   0  0  0  0  0  0  0  0  0  0  0  0
   -2.0862  -12.0905   15.7466 O   0  0  0  0  0  0  0  0  0  0  0  0
   -4.7136  -11.9555   14.6495 O   0  0  0  0  0  0  0  0  0  0  0  0
    2.1606   -5.5664   20.1774 C   0  0  0  0  0  0  0  0  0  0  0  0
    2.4565   -5.3410   18.9664 O   0  0  0  0  0  0  0  0  0  0  0  0
    2.5435   -4.5832   21.3260 C   0  0  2  0  0  0  0  0  0  0  0  0
    0.0116   -1.7683   22.2384 N   0  0  0  0  0  0  0  0  0  0  0  0
    1.7329   -3.2548   21.2176 C   0  0  0  0  0  0  0  0  0  0  0  0
    0.7609   -3.0386   22.3895 C   0  0  0  0  0  0  0  0  0  0  0  0
    3.7669   -4.2369   21.2869 O   0  0  0  0  0  0  0  0  0  0  0  0
  1  2  1  6  0  0  0
  1  3  1  0  0  0  0
  1  8  1  0  0  0  0
  3  4  1  0  0  0  0
  3 32  1  6  0  0  0
  4  5  1  0  0  0  0
  4 33  1  6  0  0  0
  5  6  1  6  0  0  0
  5  7  1  0  0  0  0
  7  8  1  0  0  0  0
  7  9  1  1  0  0  0
  9 10  1  0  0  0  0
 11 12  1  1  0  0  0
 11 13  1  0  0  0  0
 11 19  1  0  0  0  0
 12 34  1  0  0  0  0
 13 14  1  0  0  0  0
 14 15  1  1  0  0  0
 14 16  1  0  0  0  0
 16  2  1  6  0  0  0
 16 17  1  0  0  0  0
 17 18  1  1  0  0  0
 17 19  1  0  0  0  0
 19 20  1  6  0  0  0
 21 20  1  1  0  0  0
 21 22  1  0  0  0  0
 21 29  1  0  0  0  0
 22 23  1  6  0  0  0
 22 24  1  0  0  0  0
 24 25  1  6  0  0  0
 24 26  1  0  0  0  0
 26 27  1  1  0  0  0
 26 28  1  0  0  0  0
 28 29  1  0  0  0  0
 28 30  1  1  0  0  0
 30 31  1  0  0  0  0
 34 35  2  0  0  0  0
 36 34  1  6  0  0  0
 36 38  1  0  0  0  0
 36 40  1  0  0  0  0
 37 39  1  0  0  0  0
 38 39  1  0  0  0  0
M  END
>  <CHROM.1>
-158.80832376,-149.37373964,58.45413786,-99.56194336,-18.22461010,-146.72277284
-170.41940567,-111.62798808,114.30994814,-179.77505873,0.23884879,-8.67540746
19.09782932,-2.58782414,-0.12405370,0.48545487

>  <Name>
ligand

>  <RI>
0

>  <Rbt.Current_Directory>
/home/itssahil/PROJECTS/Mol_Feturizer/New_Systems/rnas/4P20

>  <Rbt.Executable>
rbdock ($Id: //depot/dev/client3/rdock/2013.1/src/exe/rbdock.cxx#4 $)

>  <Rbt.Library>
libRbt.so (2013.1, Build901 2013/11/27)

>  <Rbt.Parameter_File>
/export/apps/rDock/src/rDock_2013.1_src/data/scripts/dock_solv.prm

>  <Rbt.Receptor>
prm/pocket_docking_3.prm

>  <SCORE>
-0.10594

>  <SCORE.INTER>
-0.713676

>  <SCORE.INTER.CONST>
1

>  <SCORE.INTER.POLAR>
0

>  <SCORE.INTER.ROT>
10

>  <SCORE.INTER.SOLV>
17.331

>  <SCORE.INTER.VDW>
-16.5194

>  <SCORE.INTER.norm>
-0.0178419

>  <SCORE.INTRA>
-0.219364

>  <SCORE.INTRA.DIHEDRAL>
-4.06387

>  <SCORE.INTRA.DIHEDRAL.0>
28.2802

>  <SCORE.INTRA.POLAR>
0

>  <SCORE.INTRA.POLAR.0>
0

>  <SCORE.INTRA.REPUL>
0

>  <SCORE.INTRA.REPUL.0>
0

>  <SCORE.INTRA.SOLV>
1.82534

>  <SCORE.INTRA.SOLV.lig_0>
-101.981

>  <SCORE.INTRA.VDW>
0.8999

>  <SCORE.INTRA.VDW.0>
-5.72964

>  <SCORE.INTRA.norm>
-0.00548411

>  <SCORE.RESTR>
0.8271

>  <SCORE.RESTR.CAVITY>
0.8271

>  <SCORE.RESTR.norm>
0.0206775

>  <SCORE.SYSTEM>
0

>  <SCORE.SYSTEM.CONST>
0

>  <SCORE.SYSTEM.DIHEDRAL>
0

>  <SCORE.SYSTEM.SOLV>
0

>  <SCORE.SYSTEM.norm>
0

>  <SCORE.heavy>
40

>  <SCORE.norm>
-0.00264851

>  <RMSD>
8.775

$$$$
ligand
 OpenBabel11021811513D
libRbt.so/2013.1/901 2013/11/27
 40 42  0  0  0  0  0  0  0  0999 V2000
    1.2875  -11.1707   14.6897 C   0  0  2  0  0  0  0  0  0  0  0  0
    1.6940  -12.4246   15.2601 O   0  0  0  0  0  0  0  0  0  0  0  0
    0.6896  -11.3857   13.2490 C   0  0  1  0  0  0  0  0  0  0  0  0
    1.7700  -11.8969   12.2518 C   0  0  2  0  0  0  0  0  0  0  0  0
    2.9051  -10.8263   12.1917 C   0  0  2  0  0  0  0  0  0  0  0  0
    3.9152  -11.2562   11.2539 O   0  0  0  0  0  0  0  0  0  0  0  0
    3.5207  -10.6619   13.6496 C   0  0  2  0  0  0  0  0  0  0  0  0
    2.4437  -10.2222   14.6071 O   0  0  0  0  0  0  0  0  0  0  0  0
    4.6289   -9.6191   13.7008 C   0  0  0  0  0  0  0  0  0  0  0  0
    5.3336   -9.6302   15.0214 N   0  0  0  0  0  0  0  0  0  0  0  0
    2.3936  -11.3917   19.4760 C   0  0  2  0  0  0  0  0  0  0  0  0
    2.6323  -11.5521   20.8915 N   0  0  0  0  0  0  0  0  0  0  0  0
    1.0233  -12.0810   19.0889 C   0  0  0  0  0  0  0  0  0  0  0  0
    0.7484  -11.9163   17.5275 C   0  0  2  0  0  0  0  0  0  0  0  0
   -0.5473  -12.5502   17.1685 N   0  0  0  0  0  0  0  0  0  0  0  0
    1.9576  -12.5691   16.7097 C   0  0  2  0  0  0  0  0  0  0  0  0
    3.3070  -11.8469   17.1332 C   0  0  2  0  0  0  0  0  0  0  0  0
    4.3942  -12.4213   16.4043 O   0  0  0  0  0  0  0  0  0  0  0  0
    3.5644  -12.0147   18.6827 C   0  0  1  0  0  0  0  0  0  0  0  0
    4.7875  -11.3328   19.0564 O   0  0  0  0  0  0  0  0  0  0  0  0
    5.6042  -11.6779   20.1235 C   0  0  2  0  0  0  0  0  0  0  0  0
    6.8977  -10.7924   20.0335 C   0  0  2  0  0  0  0  0  0  0  0  0
    6.5471   -9.4464   20.0519 O   0  0  0  0  0  0  0  0  0  0  0  0
    7.7638  -11.1423   18.7495 C   0  0  1  0  0  0  0  0  0  0  0  0
    8.9961  -10.2968   18.6902 N   0  0  0  0  0  0  0  0  0  0  0  0
    8.1347  -12.6888   18.7915 C   0  0  2  0  0  0  0  0  0  0  0  0
    8.9300  -13.0524   17.6562 O   0  0  0  0  0  0  0  0  0  0  0  0
    6.7913  -13.5142   18.8456 C   0  0  2  0  0  0  0  0  0  0  0  0
    5.9616  -13.1183   20.0595 O   0  0  0  0  0  0  0  0  0  0  0  0
    7.0649  -14.9980   18.9080 C   0  0  0  0  0  0  0  0  0  0  0  0
    5.8612  -15.7872   18.8738 O   0  0  0  0  0  0  0  0  0  0  0  0
   -0.4116  -12.3352   13.3476 O   0  0  0  0  0  0  0  0  0  0  0  0
    1.1985  -12.0544   11.0123 O   0  0  0  0  0  0  0  0  0  0  0  0
    3.1352  -10.4294   21.6489 C   0  0  0  0  0  0  0  0  0  0  0  0
    3.7600   -9.5000   21.0566 O   0  0  0  0  0  0  0  0  0  0  0  0
    2.8855  -10.4166   23.1883 C   0  0  2  0  0  0  0  0  0  0  0  0
    4.5283  -13.8351   24.0707 N   0  0  0  0  0  0  0  0  0  0  0  0
    3.0531  -11.8446   23.7933 C   0  0  0  0  0  0  0  0  0  0  0  0
    4.4381  -12.4582   23.5282 C   0  0  0  0  0  0  0  0  0  0  0  0
    1.7027  -10.0584   23.4899 O   0  0  0  0  0  0  0  0  0  0  0  0
  1  2  1  6  0  0  0
  1  3  1  0  0  0  0
  1  8  1  0  0  0  0
  3  4  1  0  0  0  0
  3 32  1  1  0  0  0
  4  5  1  0  0  0  0
  4 33  1  6  0  0  0
  5  6  1  6  0  0  0
  5  7  1  0  0  0  0
  7  8  1  0  0  0  0
  7  9  1  6  0  0  0
  9 10  1  0  0  0  0
 11 12  1  1  0  0  0
 11 13  1  0  0  0  0
 11 19  1  0  0  0  0
 12 34  1  0  0  0  0
 13 14  1  0  0  0  0
 14 15  1  6  0  0  0
 14 16  1  0  0  0  0
 16  2  1  6  0  0  0
 16 17  1  0  0  0  0
 17 18  1  6  0  0  0
 17 19  1  0  0  0  0
 19 20  1  1  0  0  0
 21 20  1  6  0  0  0
 21 22  1  0  0  0  0
 21 29  1  0  0  0  0
 22 23  1  6  0  0  0
 22 24  1  0  0  0  0
 24 25  1  1  0  0  0
 24 26  1  0  0  0  0
 26 27  1  6  0  0  0
 26 28  1  0  0  0  0
 28 29  1  0  0  0  0
 28 30  1  1  0  0  0
 30 31  1  0  0  0  0
 34 35  2  0  0  0  0
 36 34  1  6  0  0  0
 36 38  1  0  0  0  0
 36 40  1  0  0  0  0
 37 39  1  0  0  0  0
 38 39  1  0  0  0  0
M  END
>  <CHROM.1>
-163.89298420,48.00549363,-171.21205729,-137.35353708,87.62467245,172.74092558
-176.33846136,39.31562450,57.63549785,-177.54936316,3.88933847,-11.71531328
17.81848416,1.90345091,0.09400772,-1.55576898

>  <Name>
ligand

>  <RI>
0

>  <Rbt.Current_Directory>
/home/itssahil/PROJECTS/Mol_Feturizer/New_Systems/rnas/4P20

>  <Rbt.Executable>
rbdock ($Id: //depot/dev/client3/rdock/2013.1/src/exe/rbdock.cxx#4 $)

>  <Rbt.Library>
libRbt.so (2013.1, Build901 2013/11/27)

>  <Rbt.Parameter_File>
/export/apps/rDock/src/rDock_2013.1_src/data/scripts/dock_solv.prm

>  <Rbt.Receptor>
prm/pocket_docking_7.prm

>  <SCORE>
-8.48404

>  <SCORE.INTER>
1.5093

>  <SCORE.INTER.CONST>
1

>  <SCORE.INTER.POLAR>
0

>  <SCORE.INTER.ROT>
10

>  <SCORE.INTER.SOLV>
13.7531

>  <SCORE.INTER.VDW>
-13.8448

>  <SCORE.INTER.norm>
0.0377326

>  <SCORE.INTRA>
-9.99334

>  <SCORE.INTRA.DIHEDRAL>
-20.3858

>  <SCORE.INTRA.DIHEDRAL.0>
28.2802

>  <SCORE.INTRA.POLAR>
0

>  <SCORE.INTRA.POLAR.0>
0

>  <SCORE.INTRA.REPUL>
0.0232072

>  <SCORE.INTRA.REPUL.0>
0

>  <SCORE.INTRA.SOLV>
1.56851

>  <SCORE.INTRA.SOLV.lig_0>
-101.981

>  <SCORE.INTRA.VDW>
-0.700756

>  <SCORE.INTRA.VDW.0>
-5.72964

>  <SCORE.INTRA.norm>
-0.249834

>  <SCORE.RESTR>
0

>  <SCORE.RESTR.CAVITY>
0

>  <SCORE.RESTR.norm>
0

>  <SCORE.SYSTEM>
0

>  <SCORE.SYSTEM.CONST>
0

>  <SCORE.SYSTEM.DIHEDRAL>
0

>  <SCORE.SYSTEM.SOLV>
0

>  <SCORE.SYSTEM.norm>
0

>  <SCORE.heavy>
40

>  <SCORE.norm>
-0.212101

>  <RMSD>
8.776

$$$$
ligand
 OpenBabel11021811513D
libRbt.so/2013.1/901 2013/11/27
 40 42  0  0  0  0  0  0  0  0999 V2000
    5.3910   -8.4840   12.2491 C   0  0  2  0  0  0  0  0  0  0  0  0
    6.1105   -8.9284   13.4100 O   0  0  0  0  0  0  0  0  0  0  0  0
    6.1077   -8.9697   10.9339 C   0  0  1  0  0  0  0  0  0  0  0  0
    7.5042   -8.3034   10.7640 C   0  0  2  0  0  0  0  0  0  0  0  0
    7.2885   -6.7582   10.7009 C   0  0  2  0  0  0  0  0  0  0  0  0
    8.5639   -6.1070   10.5170 O   0  0  0  0  0  0  0  0  0  0  0  0
    6.6047   -6.2888   12.0587 C   0  0  2  0  0  0  0  0  0  0  0  0
    5.2821   -6.9903   12.2282 O   0  0  0  0  0  0  0  0  0  0  0  0
    6.3326   -4.7910   12.0876 C   0  0  0  0  0  0  0  0  0  0  0  0
    7.5976   -4.0001   11.9652 N   0  0  0  0  0  0  0  0  0  0  0  0
    5.1505   -9.5314   17.6579 C   0  0  2  0  0  0  0  0  0  0  0  0
    4.6711   -9.2603   18.9932 N   0  0  0  0  0  0  0  0  0  0  0  0
    6.2889   -8.4983   17.2844 C   0  0  0  0  0  0  0  0  0  0  0  0
    6.8250   -8.7823   15.8104 C   0  0  2  0  0  0  0  0  0  0  0  0
    7.9058   -7.8212   15.4672 N   0  0  0  0  0  0  0  0  0  0  0  0
    5.6075   -8.6754   14.7792 C   0  0  2  0  0  0  0  0  0  0  0  0
    4.4935   -9.7275   15.1962 C   0  0  2  0  0  0  0  0  0  0  0  0
    3.4017   -9.6422   14.2775 O   0  0  0  0  0  0  0  0  0  0  0  0
    3.9747   -9.4367   16.6596 C   0  0  1  0  0  0  0  0  0  0  0  0
    2.9746  -10.4173   17.0325 O   0  0  0  0  0  0  0  0  0  0  0  0
    1.7508  -10.5938   16.4032 C   0  0  2  0  0  0  0  0  0  0  0  0
    0.8385   -9.3777   16.7956 C   0  0  2  0  0  0  0  0  0  0  0  0
    1.4561   -8.1883   16.4228 O   0  0  0  0  0  0  0  0  0  0  0  0
    0.4858   -9.3803   18.3439 C   0  0  1  0  0  0  0  0  0  0  0  0
   -0.3932   -8.2218   18.6931 N   0  0  0  0  0  0  0  0  0  0  0  0
   -0.2200  -10.7603   18.7028 C   0  0  2  0  0  0  0  0  0  0  0  0
   -0.5707  -10.8063   20.0915 O   0  0  0  0  0  0  0  0  0  0  0  0
    0.7647  -11.9303   18.3151 C   0  0  2  0  0  0  0  0  0  0  0  0
    1.1230  -11.8685   16.8365 O   0  0  0  0  0  0  0  0  0  0  0  0
    0.1523  -13.2788   18.6100 C   0  0  0  0  0  0  0  0  0  0  0  0
   -1.0303  -13.5349   17.8297 O   0  0  0  0  0  0  0  0  0  0  0  0
    6.2321  -10.4207   10.9898 O   0  0  0  0  0  0  0  0  0  0  0  0
    8.0770   -8.7518    9.5984 O   0  0  0  0  0  0  0  0  0  0  0  0
    5.5987   -9.3307   20.0985 C   0  0  0  0  0  0  0  0  0  0  0  0
    6.6553  -10.0212   19.9903 O   0  0  0  0  0  0  0  0  0  0  0  0
    5.2469   -8.5435   21.3981 C   0  0  2  0  0  0  0  0  0  0  0  0
    4.4328   -4.7851   21.9972 N   0  0  0  0  0  0  0  0  0  0  0  0
    5.0533   -7.0253   21.0965 C   0  0  0  0  0  0  0  0  0  0  0  0
    4.7417   -6.1914   22.3505 C   0  0  0  0  0  0  0  0  0  0  0  0
    6.1711   -8.5997   22.2703 O   0  0  0  0  0  0  0  0  0  0  0  0
  1  2  1  1  0  0  0
  1  3  1  0  0  0  0
  1  8  1  0  0  0  0
  3  4  1  0  0  0  0
  3 32  1  1  0  0  0
  4  5  1  0  0  0  0
  4 33  1  6  0  0  0
  5  6  1  1  0  0  0
  5  7  1  0  0  0  0
  7  8  1  0  0  0  0
  7  9  1  6  0  0  0
  9 10  1  0  0  0  0
 11 12  1  1  0  0  0
 11 13  1  0  0  0  0
 11 19  1  0  0  0  0
 12 34  1  0  0  0  0
 13 14  1  0  0  0  0
 14 15  1  6  0  0  0
 14 16  1  0  0  0  0
 16  2  1  6  0  0  0
 16 17  1  0  0  0  0
 17 18  1  6  0  0  0
 17 19  1  0  0  0  0
 19 20  1  1  0  0  0
 21 20  1  1  0  0  0
 21 22  1  0  0  0  0
 21 29  1  0  0  0  0
 22 23  1  1  0  0  0
 22 24  1  0  0  0  0
 24 25  1  6  0  0  0
 24 26  1  0  0  0  0
 26 27  1  1  0  0  0
 26 28  1  0  0  0  0
 28 29  1  0  0  0  0
 28 30  1  6  0  0  0
 30 31  1  0  0  0  0
 34 35  2  0  0  0  0
 36 34  1  6  0  0  0
 36 38  1  0  0  0  0
 36 40  1  0  0  0  0
 37 39  1  0  0  0  0
 38 39  1  0  0  0  0
M  END
>  <CHROM.1>
-176.34544676,-159.15960936,-60.90610916,-60.01489366,177.23575355,-72.61286842
63.25891252,-57.55502651,-178.42707761,-174.30394290,4.35719887,-8.84960193
16.14941935,0.87007788,-0.64646157,-1.72936739

>  <Name>
ligand

>  <RI>
0

>  <Rbt.Current_Directory>
/home/itssahil/PROJECTS/Mol_Feturizer/New_Systems/rnas/4P20

>  <Rbt.Executable>
rbdock ($Id: //depot/dev/client3/rdock/2013.1/src/exe/rbdock.cxx#4 $)

>  <Rbt.Library>
libRbt.so (2013.1, Build901 2013/11/27)

>  <Rbt.Parameter_File>
/export/apps/rDock/src/rDock_2013.1_src/data/scripts/dock_solv.prm

>  <Rbt.Receptor>
prm/pocket_docking_8.prm

>  <SCORE>
-11.7996

>  <SCORE.INTER>
-1.95058

>  <SCORE.INTER.CONST>
1

>  <SCORE.INTER.POLAR>
0

>  <SCORE.INTER.ROT>
10

>  <SCORE.INTER.SOLV>
15.6063

>  <SCORE.INTER.VDW>
-16.7692

>  <SCORE.INTER.norm>
-0.0487646

>  <SCORE.INTRA>
-9.849

>  <SCORE.INTRA.DIHEDRAL>
-24.4785

>  <SCORE.INTRA.DIHEDRAL.0>
28.2802

>  <SCORE.INTRA.POLAR>
0

>  <SCORE.INTRA.POLAR.0>
0

>  <SCORE.INTRA.REPUL>
0

>  <SCORE.INTRA.REPUL.0>
0

>  <SCORE.INTRA.SOLV>
-0.417209

>  <SCORE.INTRA.SOLV.lig_0>
-101.981

>  <SCORE.INTRA.VDW>
2.59887

>  <SCORE.INTRA.VDW.0>
-5.72964

>  <SCORE.INTRA.norm>
-0.246225

>  <SCORE.RESTR>
0

>  <SCORE.RESTR.CAVITY>
0

>  <SCORE.RESTR.norm>
0

>  <SCORE.SYSTEM>
0

>  <SCORE.SYSTEM.CONST>
0

>  <SCORE.SYSTEM.DIHEDRAL>
0

>  <SCORE.SYSTEM.SOLV>
0

>  <SCORE.SYSTEM.norm>
0

>  <SCORE.heavy>
40

>  <SCORE.norm>
-0.294989

>  <RMSD>
8.781

$$$$
ligand
 OpenBabel11021811513D
libRbt.so/2013.1/901 2013/11/27
 40 42  0  0  0  0  0  0  0  0999 V2000
   -0.9507  -15.2969   17.6391 C   0  0  2  0  0  0  0  0  0  0  0  0
   -1.1118  -14.7494   16.3210 O   0  0  0  0  0  0  0  0  0  0  0  0
   -2.2535  -16.0610   18.0843 C   0  0  1  0  0  0  0  0  0  0  0  0
   -3.4589  -15.0897   18.2471 C   0  0  2  0  0  0  0  0  0  0  0  0
   -3.0755  -14.0348   19.3327 C   0  0  2  0  0  0  0  0  0  0  0  0
   -4.1834  -13.1301   19.5293 O   0  0  0  0  0  0  0  0  0  0  0  0
   -1.7843  -13.2481   18.8373 C   0  0  2  0  0  0  0  0  0  0  0  0
   -0.6489  -14.2171   18.6323 O   0  0  0  0  0  0  0  0  0  0  0  0
   -1.3160  -12.2041   19.8418 C   0  0  0  0  0  0  0  0  0  0  0  0
   -0.1975  -11.3752   19.2920 N   0  0  0  0  0  0  0  0  0  0  0  0
    1.6799  -13.1173   13.3424 C   0  0  2  0  0  0  0  0  0  0  0  0
    2.6857  -12.2696   12.7456 N   0  0  0  0  0  0  0  0  0  0  0  0
    0.4292  -12.2423   13.7583 C   0  0  0  0  0  0  0  0  0  0  0  0
   -0.6882  -13.1642   14.4233 C   0  0  2  0  0  0  0  0  0  0  0  0
   -1.8692  -12.3433   14.7985 N   0  0  0  0  0  0  0  0  0  0  0  0
   -0.0687  -13.9028   15.6991 C   0  0  2  0  0  0  0  0  0  0  0  0
    1.1809  -14.7641   15.2316 C   0  0  2  0  0  0  0  0  0  0  0  0
    1.7399  -15.4317   16.3652 O   0  0  0  0  0  0  0  0  0  0  0  0
    2.2777  -13.8388   14.5712 C   0  0  1  0  0  0  0  0  0  0  0  0
    3.4012  -14.6420   14.1315 O   0  0  0  0  0  0  0  0  0  0  0  0
    4.2242  -15.3914   14.9597 C   0  0  2  0  0  0  0  0  0  0  0  0
    5.1319  -14.3881   15.7563 C   0  0  2  0  0  0  0  0  0  0  0  0
    4.3347  -13.4992   16.4700 O   0  0  0  0  0  0  0  0  0  0  0  0
    6.1379  -13.6164   14.8004 C   0  0  1  0  0  0  0  0  0  0  0  0
    7.0006  -12.6762   15.5806 N   0  0  0  0  0  0  0  0  0  0  0  0
    7.0204  -14.6858   14.0201 C   0  0  2  0  0  0  0  0  0  0  0  0
    7.9563  -14.0362   13.1508 O   0  0  0  0  0  0  0  0  0  0  0  0
    6.0470  -15.6338   13.2183 C   0  0  2  0  0  0  0  0  0  0  0  0
    5.0632  -16.3183   14.1574 O   0  0  0  0  0  0  0  0  0  0  0  0
    6.8155  -16.6930   12.4646 C   0  0  0  0  0  0  0  0  0  0  0  0
    7.4431  -17.6509   13.3370 O   0  0  0  0  0  0  0  0  0  0  0  0
   -2.5467  -17.0842   17.0888 O   0  0  0  0  0  0  0  0  0  0  0  0
   -4.5614  -15.8051   18.6475 O   0  0  0  0  0  0  0  0  0  0  0  0
    2.4916  -11.7966   11.3945 C   0  0  0  0  0  0  0  0  0  0  0  0
    1.7280  -12.4325   10.6087 O   0  0  0  0  0  0  0  0  0  0  0  0
    3.2491  -10.5053   10.9571 C   0  0  2  0  0  0  0  0  0  0  0  0
    5.0076   -9.5449   13.3394 N   0  0  0  0  0  0  0  0  0  0  0  0
    4.7901  -10.6764   11.1287 C   0  0  0  0  0  0  0  0  0  0  0  0
    5.2270  -10.8094   12.5972 C   0  0  0  0  0  0  0  0  0  0  0  0
    2.9406   -9.4934   11.6635 O   0  0  0  0  0  0  0  0  0  0  0  0
  1  2  1  6  0  0  0
  1  3  1  0  0  0  0
  1  8  1  0  0  0  0
  3  4  1  0  0  0  0
  3 32  1  6  0  0  0
  4  5  1  0  0  0  0
  4 33  1  1  0  0  0
  5  6  1  6  0  0  0
  5  7  1  0  0  0  0
  7  8  1  0  0  0  0
  7  9  1  1  0  0  0
  9 10  1  0  0  0  0
 11 12  1  1  0  0  0
 11 13  1  0  0  0  0
 11 19  1  0  0  0  0
 12 34  1  0  0  0  0
 13 14  1  0  0  0  0
 14 15  1  1  0  0  0
 14 16  1  0  0  0  0
 16  2  1  6  0  0  0
 16 17  1  0  0  0  0
 17 18  1  1  0  0  0
 17 19  1  0  0  0  0
 19 20  1  6  0  0  0
 21 20  1  6  0  0  0
 21 22  1  0  0  0  0
 21 29  1  0  0  0  0
 22 23  1  6  0  0  0
 22 24  1  0  0  0  0
 24 25  1  1  0  0  0
 24 26  1  0  0  0  0
 26 27  1  6  0  0  0
 26 28  1  0  0  0  0
 28 29  1  0  0  0  0
 28 30  1  1  0  0  0
 30 31  1  0  0  0  0
 34 35  2  0  0  0  0
 36 34  1  1  0  0  0
 36 38  1  0  0  0  0
 36 40  1  0  0  0  0
 37 39  1  0  0  0  0
 38 39  1  0  0  0  0
M  END
>  <CHROM.1>
175.74512637,-165.88628773,-173.66899030,-75.69583403,177.25139967,-72.52828074
68.40816505,57.84621482,-66.43570619,-67.48334533,1.92883036,-13.72633851
15.16639575,-2.73273058,0.43050786,-0.63441865

>  <Name>
ligand

>  <RI>
0

>  <Rbt.Current_Directory>
/home/itssahil/PROJECTS/Mol_Feturizer/New_Systems/rnas/4P20

>  <Rbt.Executable>
rbdock ($Id: //depot/dev/client3/rdock/2013.1/src/exe/rbdock.cxx#4 $)

>  <Rbt.Library>
libRbt.so (2013.1, Build901 2013/11/27)

>  <Rbt.Parameter_File>
/export/apps/rDock/src/rDock_2013.1_src/data/scripts/dock_solv.prm

>  <Rbt.Receptor>
prm/pocket_docking_7.prm

>  <SCORE>
-15.8515

>  <SCORE.INTER>
-6.42781

>  <SCORE.INTER.CONST>
1

>  <SCORE.INTER.POLAR>
0

>  <SCORE.INTER.ROT>
10

>  <SCORE.INTER.SOLV>
14.1823

>  <SCORE.INTER.VDW>
-19.2793

>  <SCORE.INTER.norm>
-0.160695

>  <SCORE.INTRA>
-9.42372

>  <SCORE.INTRA.DIHEDRAL>
-24.6909

>  <SCORE.INTRA.DIHEDRAL.0>
28.2802

>  <SCORE.INTRA.POLAR>
0

>  <SCORE.INTRA.POLAR.0>
0

>  <SCORE.INTRA.REPUL>
0

>  <SCORE.INTRA.REPUL.0>
0

>  <SCORE.INTRA.SOLV>
2.42553

>  <SCORE.INTRA.SOLV.lig_0>
-101.981

>  <SCORE.INTRA.VDW>
1.70895

>  <SCORE.INTRA.VDW.0>
-5.72964

>  <SCORE.INTRA.norm>
-0.235593

>  <SCORE.RESTR>
0

>  <SCORE.RESTR.CAVITY>
0

>  <SCORE.RESTR.norm>
0

>  <SCORE.SYSTEM>
0

>  <SCORE.SYSTEM.CONST>
0

>  <SCORE.SYSTEM.DIHEDRAL>
0

>  <SCORE.SYSTEM.SOLV>
0

>  <SCORE.SYSTEM.norm>
0

>  <SCORE.heavy>
40

>  <SCORE.norm>
-0.396288

>  <RMSD>
8.794

$$$$
ligand
 OpenBabel11021811513D
libRbt.so/2013.1/901 2013/11/27
 40 42  0  0  0  0  0  0  0  0999 V2000
    6.2480   -4.7002   24.4360 C   0  0  2  0  0  0  0  0  0  0  0  0
    5.7819   -4.5940   23.0816 O   0  0  0  0  0  0  0  0  0  0  0  0
    5.2220   -4.0357   25.4285 C   0  0  1  0  0  0  0  0  0  0  0  0
    5.1239   -2.4983   25.2053 C   0  0  2  0  0  0  0  0  0  0  0  0
    6.5441   -1.8930   25.4397 C   0  0  2  0  0  0  0  0  0  0  0  0
    6.4853   -0.4608   25.2661 O   0  0  0  0  0  0  0  0  0  0  0  0
    7.5500   -2.5481   24.3955 C   0  0  2  0  0  0  0  0  0  0  0  0
    7.5839   -4.0413   24.5939 O   0  0  0  0  0  0  0  0  0  0  0  0
    8.9744   -2.0351   24.5568 C   0  0  0  0  0  0  0  0  0  0  0  0
    9.1303   -0.6586   23.9897 N   0  0  0  0  0  0  0  0  0  0  0  0
    2.3030   -5.5975   20.5876 C   0  0  2  0  0  0  0  0  0  0  0  0
    0.9948   -6.0831   20.2144 N   0  0  0  0  0  0  0  0  0  0  0  0
    3.1504   -6.7816   21.2061 C   0  0  0  0  0  0  0  0  0  0  0  0
    4.5963   -6.2593   21.6276 C   0  0  2  0  0  0  0  0  0  0  0  0
    5.3968   -7.3767   22.1934 N   0  0  0  0  0  0  0  0  0  0  0  0
    4.4375   -5.0692   22.6837 C   0  0  2  0  0  0  0  0  0  0  0  0
    3.5808   -3.9093   22.0184 C   0  0  2  0  0  0  0  0  0  0  0  0
    3.4363   -2.8384   22.9541 O   0  0  0  0  0  0  0  0  0  0  0  0
    2.1530   -4.4418   21.6024 C   0  0  1  0  0  0  0  0  0  0  0  0
    1.3921   -3.3776   20.9784 O   0  0  0  0  0  0  0  0  0  0  0  0
    1.7325   -2.7346   19.7971 C   0  0  2  0  0  0  0  0  0  0  0  0
    3.1580   -2.1071   19.9952 C   0  0  2  0  0  0  0  0  0  0  0  0
    4.0669   -3.1044   20.3331 O   0  0  0  0  0  0  0  0  0  0  0  0
    3.1469   -0.9488   21.0814 C   0  0  1  0  0  0  0  0  0  0  0  0
    4.5107   -0.3573   21.2450 N   0  0  0  0  0  0  0  0  0  0  0  0
    2.0949    0.1580   20.6347 C   0  0  2  0  0  0  0  0  0  0  0  0
    2.0571    1.2348   21.5794 O   0  0  0  0  0  0  0  0  0  0  0  0
    0.6851   -0.5352   20.4898 C   0  0  2  0  0  0  0  0  0  0  0  0
    0.7429   -1.6731   19.4797 O   0  0  0  0  0  0  0  0  0  0  0  0
   -0.3661    0.4542   20.0466 C   0  0  0  0  0  0  0  0  0  0  0  0
   -0.5024    1.5641   20.9533 O   0  0  0  0  0  0  0  0  0  0  0  0
    3.9234   -4.6686   25.2358 O   0  0  0  0  0  0  0  0  0  0  0  0
    4.2277   -1.9704   26.1029 O   0  0  0  0  0  0  0  0  0  0  0  0
    0.8731   -6.9645   19.0763 C   0  0  0  0  0  0  0  0  0  0  0  0
    1.7689   -6.9631   18.1805 O   0  0  0  0  0  0  0  0  0  0  0  0
   -0.3806   -7.8892   18.9999 C   0  0  2  0  0  0  0  0  0  0  0  0
   -3.3903   -7.8086   18.0847 N   0  0  0  0  0  0  0  0  0  0  0  0
   -0.9580   -7.9288   17.5513 C   0  0  0  0  0  0  0  0  0  0  0  0
   -2.3244   -8.6287   17.4606 C   0  0  0  0  0  0  0  0  0  0  0  0
   -1.3361   -7.4809   19.7336 O   0  0  0  0  0  0  0  0  0  0  0  0
  1  2  1  6  0  0  0
  1  3  1  0  0  0  0
  1  8  1  0  0  0  0
  3  4  1  0  0  0  0
  3 32  1  6  0  0  0
  4  5  1  0  0  0  0
  4 33  1  1  0  0  0
  5  6  1  6  0  0  0
  5  7  1  0  0  0  0
  7  8  1  0  0  0  0
  7  9  1  1  0  0  0
  9 10  1  0  0  0  0
 11 12  1  1  0  0  0
 11 13  1  0  0  0  0
 11 19  1  0  0  0  0
 12 34  1  0  0  0  0
 13 14  1  0  0  0  0
 14 15  1  1  0  0  0
 14 16  1  0  0  0  0
 16  2  1  6  0  0  0
 16 17  1  0  0  0  0
 17 18  1  1  0  0  0
 17 19  1  0  0  0  0
 19 20  1  6  0  0  0
 21 20  1  1  0  0  0
 21 22  1  0  0  0  0
 21 29  1  0  0  0  0
 22 23  1  1  0  0  0
 22 24  1  0  0  0  0
 24 25  1  6  0  0  0
 24 26  1  0  0  0  0
 26 27  1  1  0  0  0
 26 28  1  0  0  0  0
 28 29  1  0  0  0  0
 28 30  1  6  0  0  0
 30 31  1  0  0  0  0
 34 35  2  0  0  0  0
 36 34  1  6  0  0  0
 36 38  1  0  0  0  0
 36 40  1  0  0  0  0
 37 39  1  0  0  0  0
 38 39  1  0  0  0  0
M  END
>  <CHROM.1>
-53.75486994,-116.91911237,-76.20523795,-71.18925894,-57.14890223,-58.09734876
-58.34510729,137.73872697,-170.27377582,70.77059808,3.08572152,-3.65090944
21.73154183,-0.51479801,0.63291324,-3.03905824

>  <Name>
ligand

>  <RI>
0

>  <Rbt.Current_Directory>
/home/itssahil/PROJECTS/Mol_Feturizer/New_Systems/rnas/4P20

>  <Rbt.Executable>
rbdock ($Id: //depot/dev/client3/rdock/2013.1/src/exe/rbdock.cxx#4 $)

>  <Rbt.Library>
libRbt.so (2013.1, Build901 2013/11/27)

>  <Rbt.Parameter_File>
/export/apps/rDock/src/rDock_2013.1_src/data/scripts/dock_solv.prm

>  <Rbt.Receptor>
prm/blind_docking_60.prm

>  <SCORE>
36.9108

>  <SCORE.INTER>
5.4087

>  <SCORE.INTER.CONST>
1

>  <SCORE.INTER.POLAR>
0

>  <SCORE.INTER.ROT>
10

>  <SCORE.INTER.SOLV>
29.3873

>  <SCORE.INTER.VDW>
-16.4566

>  <SCORE.INTER.norm>
0.135218

>  <SCORE.INTRA>
15.1783

>  <SCORE.INTRA.DIHEDRAL>
-16.9956

>  <SCORE.INTRA.DIHEDRAL.0>
28.2802

>  <SCORE.INTRA.POLAR>
0

>  <SCORE.INTRA.POLAR.0>
0

>  <SCORE.INTRA.REPUL>
0

>  <SCORE.INTRA.REPUL.0>
0

>  <SCORE.INTRA.SOLV>
4.97494

>  <SCORE.INTRA.SOLV.lig_0>
-101.981

>  <SCORE.INTRA.VDW>
21.1886

>  <SCORE.INTRA.VDW.0>
-5.72964

>  <SCORE.INTRA.norm>
0.379458

>  <SCORE.RESTR>
16.3238

>  <SCORE.RESTR.CAVITY>
16.3238

>  <SCORE.RESTR.norm>
0.408095

>  <SCORE.SYSTEM>
0

>  <SCORE.SYSTEM.CONST>
0

>  <SCORE.SYSTEM.DIHEDRAL>
0

>  <SCORE.SYSTEM.SOLV>
0

>  <SCORE.SYSTEM.norm>
0

>  <SCORE.heavy>
40

>  <SCORE.norm>
0.92277

>  <RMSD>
8.821

$$$$
ligand
 OpenBabel11021811503D
libRbt.so/2013.1/901 2013/11/27
 40 42  0  0  0  0  0  0  0  0999 V2000
    6.3873   -3.7756   24.7141 C   0  0  2  0  0  0  0  0  0  0  0  0
    6.2250   -4.4521   23.4576 O   0  0  0  0  0  0  0  0  0  0  0  0
    5.2983   -4.2547   25.7456 C   0  0  1  0  0  0  0  0  0  0  0  0
    3.8660   -3.8390   25.2999 C   0  0  2  0  0  0  0  0  0  0  0  0
    3.8351   -2.2815   25.1936 C   0  0  2  0  0  0  0  0  0  0  0  0
    2.5105   -1.8573   24.8062 O   0  0  0  0  0  0  0  0  0  0  0  0
    4.9121   -1.8284   24.1136 C   0  0  2  0  0  0  0  0  0  0  0  0
    6.2812   -2.2918   24.5390 O   0  0  0  0  0  0  0  0  0  0  0  0
    4.9739   -0.3159   23.9502 C   0  0  0  0  0  0  0  0  0  0  0  0
    3.9538    0.1732   22.9700 N   0  0  0  0  0  0  0  0  0  0  0  0
    3.0611   -5.3356   20.5354 C   0  0  2  0  0  0  0  0  0  0  0  0
    1.7491   -5.6060   19.9950 N   0  0  0  0  0  0  0  0  0  0  0  0
    3.4362   -6.4481   21.5959 C   0  0  0  0  0  0  0  0  0  0  0  0
    4.8808   -6.1602   22.2051 C   0  0  2  0  0  0  0  0  0  0  0  0
    5.2384   -7.2153   23.1891 N   0  0  0  0  0  0  0  0  0  0  0  0
    4.8857   -4.7119   22.8829 C   0  0  2  0  0  0  0  0  0  0  0  0
    4.5028   -3.6334   21.7820 C   0  0  2  0  0  0  0  0  0  0  0  0
    4.5081   -2.3340   22.3777 O   0  0  0  0  0  0  0  0  0  0  0  0
    3.0716   -3.9332   21.1845 C   0  0  1  0  0  0  0  0  0  0  0  0
    2.7463   -2.9532   20.1674 O   0  0  0  0  0  0  0  0  0  0  0  0
    1.4750   -2.4658   19.9009 C   0  0  2  0  0  0  0  0  0  0  0  0
    1.5674   -0.8987   19.8694 C   0  0  2  0  0  0  0  0  0  0  0  0
    2.4953   -0.5025   18.9117 O   0  0  0  0  0  0  0  0  0  0  0  0
    1.9242   -0.3001   21.2962 C   0  0  1  0  0  0  0  0  0  0  0  0
    1.9947    1.1930   21.2463 N   0  0  0  0  0  0  0  0  0  0  0  0
    0.8261   -0.7846   22.3406 C   0  0  2  0  0  0  0  0  0  0  0  0
    1.0977   -0.2582   23.6455 O   0  0  0  0  0  0  0  0  0  0  0  0
    0.8141   -2.3622   22.3435 C   0  0  2  0  0  0  0  0  0  0  0  0
    0.5200   -2.9036   20.9511 O   0  0  0  0  0  0  0  0  0  0  0  0
   -0.2231   -2.8979   23.3015 C   0  0  0  0  0  0  0  0  0  0  0  0
   -0.4728   -4.3043   23.1209 O   0  0  0  0  0  0  0  0  0  0  0  0
    5.3978   -5.7028   25.8764 O   0  0  0  0  0  0  0  0  0  0  0  0
    2.9605   -4.2699   26.2391 O   0  0  0  0  0  0  0  0  0  0  0  0
    1.4930   -6.8912   19.3872 C   0  0  0  0  0  0  0  0  0  0  0  0
    2.4580   -7.5794   18.9399 O   0  0  0  0  0  0  0  0  0  0  0  0
    0.0134   -7.3776   19.3041 C   0  0  2  0  0  0  0  0  0  0  0  0
   -2.0671   -9.2850   17.9718 N   0  0  0  0  0  0  0  0  0  0  0  0
   -0.5018   -7.3497   17.8319 C   0  0  0  0  0  0  0  0  0  0  0  0
   -1.9541   -7.8344   17.6871 C   0  0  0  0  0  0  0  0  0  0  0  0
   -0.7848   -6.6319   19.9558 O   0  0  0  0  0  0  0  0  0  0  0  0
  1  2  1  6  0  0  0
  1  3  1  0  0  0  0
  1  8  1  0  0  0  0
  3  4  1  0  0  0  0
  3 32  1  6  0  0  0
  4  5  1  0  0  0  0
  4 33  1  1  0  0  0
  5  6  1  6  0  0  0
  5  7  1  0  0  0  0
  7  8  1  0  0  0  0
  7  9  1  1  0  0  0
  9 10  1  0  0  0  0
 11 12  1  1  0  0  0
 11 13  1  0  0  0  0
 11 19  1  0  0  0  0
 12 34  1  0  0  0  0
 13 14  1  0  0  0  0
 14 15  1  1  0  0  0
 14 16  1  0  0  0  0
 16  2  1  6  0  0  0
 16 17  1  0  0  0  0
 17 18  1  1  0  0  0
 17 19  1  0  0  0  0
 19 20  1  6  0  0  0
 21 20  1  1  0  0  0
 21 22  1  0  0  0  0
 21 29  1  0  0  0  0
 22 23  1  6  0  0  0
 22 24  1  0  0  0  0
 24 25  1  6  0  0  0
 24 26  1  0  0  0  0
 26 27  1  1  0  0  0
 26 28  1  0  0  0  0
 28 29  1  0  0  0  0
 28 30  1  1  0  0  0
 30 31  1  0  0  0  0
 34 35  2  0  0  0  0
 36 34  1  6  0  0  0
 36 38  1  0  0  0  0
 36 40  1  0  0  0  0
 37 39  1  0  0  0  0
 38 39  1  0  0  0  0
M  END
>  <CHROM.1>
40.14747985,-141.13618367,-85.69513992,-55.75075620,93.59145608,130.16442128
167.08437527,109.25543495,179.39284165,-68.29071321,2.62767823,-3.80085283
22.04215314,-0.71717557,0.75950247,-2.95678722

>  <Name>
ligand

>  <RI>
0

>  <Rbt.Current_Directory>
/home/itssahil/PROJECTS/Mol_Feturizer/New_Systems/rnas/4P20

>  <Rbt.Executable>
rbdock ($Id: //depot/dev/client3/rdock/2013.1/src/exe/rbdock.cxx#4 $)

>  <Rbt.Library>
libRbt.so (2013.1, Build901 2013/11/27)

>  <Rbt.Parameter_File>
/export/apps/rDock/src/rDock_2013.1_src/data/scripts/dock_solv.prm

>  <Rbt.Receptor>
prm/blind_docking_60.prm

>  <SCORE>
45.511

>  <SCORE.INTER>
7.55016

>  <SCORE.INTER.CONST>
1

>  <SCORE.INTER.POLAR>
0

>  <SCORE.INTER.ROT>
10

>  <SCORE.INTER.SOLV>
27.9199

>  <SCORE.INTER.VDW>
-14.5399

>  <SCORE.INTER.norm>
0.188754

>  <SCORE.INTRA>
23.39

>  <SCORE.INTRA.DIHEDRAL>
-5.08523

>  <SCORE.INTRA.DIHEDRAL.0>
28.2802

>  <SCORE.INTRA.POLAR>
0

>  <SCORE.INTRA.POLAR.0>
0

>  <SCORE.INTRA.REPUL>
0.12419

>  <SCORE.INTRA.REPUL.0>
0

>  <SCORE.INTRA.SOLV>
12.0214

>  <SCORE.INTRA.SOLV.lig_0>
-101.981

>  <SCORE.INTRA.VDW>
19.3009

>  <SCORE.INTRA.VDW.0>
-5.72964

>  <SCORE.INTRA.norm>
0.58475

>  <SCORE.RESTR>
14.5708

>  <SCORE.RESTR.CAVITY>
14.5708

>  <SCORE.RESTR.norm>
0.36427

>  <SCORE.SYSTEM>
0

>  <SCORE.SYSTEM.CONST>
0

>  <SCORE.SYSTEM.DIHEDRAL>
0

>  <SCORE.SYSTEM.SOLV>
0

>  <SCORE.SYSTEM.norm>
0

>  <SCORE.heavy>
40

>  <SCORE.norm>
1.13777

>  <RMSD>
8.845

$$$$
ligand
 OpenBabel11021811513D
libRbt.so/2013.1/901 2013/11/27
 40 42  0  0  0  0  0  0  0  0999 V2000
    7.1982   -8.6697   13.6182 C   0  0  2  0  0  0  0  0  0  0  0  0
    5.7732   -8.8490   13.6017 O   0  0  0  0  0  0  0  0  0  0  0  0
    7.6592   -7.7861   12.3991 C   0  0  1  0  0  0  0  0  0  0  0  0
    7.4066   -8.5065   11.0426 C   0  0  2  0  0  0  0  0  0  0  0  0
    8.2166   -9.8414   11.0558 C   0  0  2  0  0  0  0  0  0  0  0  0
    8.0262  -10.5259    9.7989 O   0  0  0  0  0  0  0  0  0  0  0  0
    7.7001  -10.7325   12.2686 C   0  0  2  0  0  0  0  0  0  0  0  0
    7.9028   -9.9904   13.5641 O   0  0  0  0  0  0  0  0  0  0  0  0
    8.4462  -12.0550   12.3801 C   0  0  0  0  0  0  0  0  0  0  0  0
    8.1651  -12.9450   11.2098 N   0  0  0  0  0  0  0  0  0  0  0  0
    2.8974   -9.6215   16.8364 C   0  0  2  0  0  0  0  0  0  0  0  0
    2.2044  -10.3081   17.9016 N   0  0  0  0  0  0  0  0  0  0  0  0
    2.7600  -10.4496   15.4955 C   0  0  0  0  0  0  0  0  0  0  0  0
    3.5247   -9.7060   14.3109 C   0  0  2  0  0  0  0  0  0  0  0  0
    3.3807  -10.4770   13.0483 N   0  0  0  0  0  0  0  0  0  0  0  0
    5.0635   -9.5296   14.7084 C   0  0  2  0  0  0  0  0  0  0  0  0
    5.1484   -8.6961   16.0574 C   0  0  2  0  0  0  0  0  0  0  0  0
    6.5212   -8.5297   16.4193 O   0  0  0  0  0  0  0  0  0  0  0  0
    4.3835   -9.4423   17.2207 C   0  0  1  0  0  0  0  0  0  0  0  0
    4.4525   -8.6592   18.4384 O   0  0  0  0  0  0  0  0  0  0  0  0
    5.6173   -8.3379   19.1203 C   0  0  2  0  0  0  0  0  0  0  0  0
    6.0818   -9.6234   19.8928 C   0  0  2  0  0  0  0  0  0  0  0  0
    6.2685  -10.6690   18.9944 O   0  0  0  0  0  0  0  0  0  0  0  0
    5.0574  -10.0262   21.0373 C   0  0  1  0  0  0  0  0  0  0  0  0
    5.5252  -11.2446   21.7678 N   0  0  0  0  0  0  0  0  0  0  0  0
    4.8930   -8.7940   22.0301 C   0  0  2  0  0  0  0  0  0  0  0  0
    3.9849   -9.1135   23.0916 O   0  0  0  0  0  0  0  0  0  0  0  0
    4.3926   -7.5534   21.1937 C   0  0  2  0  0  0  0  0  0  0  0  0
    5.3709   -7.2258   20.0738 O   0  0  0  0  0  0  0  0  0  0  0  0
    4.2319   -6.3340   22.0697 C   0  0  0  0  0  0  0  0  0  0  0  0
    5.4653   -5.9313   22.6937 O   0  0  0  0  0  0  0  0  0  0  0  0
    6.9386   -6.5205   12.4529 O   0  0  0  0  0  0  0  0  0  0  0  0
    7.8374   -7.6988   10.0180 O   0  0  0  0  0  0  0  0  0  0  0  0
    2.7743  -11.5212   18.4406 C   0  0  0  0  0  0  0  0  0  0  0  0
    3.5833  -12.2011   17.7418 O   0  0  0  0  0  0  0  0  0  0  0  0
    2.3554  -11.9474   19.8812 C   0  0  2  0  0  0  0  0  0  0  0  0
    0.2645  -12.5971   22.1188 N   0  0  0  0  0  0  0  0  0  0  0  0
    1.1962  -12.9906   19.8402 C   0  0  0  0  0  0  0  0  0  0  0  0
    0.8782  -13.6001   21.2158 C   0  0  0  0  0  0  0  0  0  0  0  0
    1.9107  -10.9749   20.5700 O   0  0  0  0  0  0  0  0  0  0  0  0
  1  2  1  6  0  0  0
  1  3  1  0  0  0  0
  1  8  1  0  0  0  0
  3  4  1  0  0  0  0
  3 32  1  6  0  0  0
  4  5  1  0  0  0  0
  4 33  1  6  0  0  0
  5  6  1  6  0  0  0
  5  7  1  0  0  0  0
  7  8  1  0  0  0  0
  7  9  1  1  0  0  0
  9 10  1  0  0  0  0
 11 12  1  1  0  0  0
 11 13  1  0  0  0  0
 11 19  1  0  0  0  0
 12 34  1  0  0  0  0
 13 14  1  0  0  0  0
 14 15  1  6  0  0  0
 14 16  1  0  0  0  0
 16  2  1  6  0  0  0
 16 17  1  0  0  0  0
 17 18  1  1  0  0  0
 17 19  1  0  0  0  0
 19 20  1  1  0  0  0
 21 20  1  1  0  0  0
 21 22  1  0  0  0  0
 21 29  1  0  0  0  0
 22 23  1  6  0  0  0
 22 24  1  0  0  0  0
 24 25  1  1  0  0  0
 24 26  1  0  0  0  0
 26 27  1  1  0  0  0
 26 28  1  0  0  0  0
 28 29  1  0  0  0  0
 28 30  1  1  0  0  0
 30 31  1  0  0  0  0
 34 35  2  0  0  0  0
 36 34  1  6  0  0  0
 36 38  1  0  0  0  0
 36 40  1  0  0  0  0
 37 39  1  0  0  0  0
 38 39  1  0  0  0  0
M  END
>  <CHROM.1>
-173.98387195,-173.85922740,-66.48965290,72.24219015,177.23845606,-75.97109087
60.69663616,96.33091783,171.64202825,69.20385881,5.06194372,-9.72748979,16.89103735
-0.91651515,0.87505729,1.08886309

>  <Name>
ligand

>  <RI>
0

>  <Rbt.Current_Directory>
/home/itssahil/PROJECTS/Mol_Feturizer/New_Systems/rnas/4P20

>  <Rbt.Executable>
rbdock ($Id: //depot/dev/client3/rdock/2013.1/src/exe/rbdock.cxx#4 $)

>  <Rbt.Library>
libRbt.so (2013.1, Build901 2013/11/27)

>  <Rbt.Parameter_File>
/export/apps/rDock/src/rDock_2013.1_src/data/scripts/dock_solv.prm

>  <Rbt.Receptor>
prm/pocket_docking_8.prm

>  <SCORE>
-7.98346

>  <SCORE.INTER>
1.13921

>  <SCORE.INTER.CONST>
1

>  <SCORE.INTER.POLAR>
0

>  <SCORE.INTER.ROT>
10

>  <SCORE.INTER.SOLV>
7.66561

>  <SCORE.INTER.VDW>
-12.0624

>  <SCORE.INTER.norm>
0.0284804

>  <SCORE.INTRA>
-9.12268

>  <SCORE.INTRA.DIHEDRAL>
-23.9402

>  <SCORE.INTRA.DIHEDRAL.0>
28.2802

>  <SCORE.INTRA.POLAR>
0

>  <SCORE.INTRA.POLAR.0>
0

>  <SCORE.INTRA.REPUL>
0

>  <SCORE.INTRA.REPUL.0>
0

>  <SCORE.INTRA.SOLV>
3.60505

>  <SCORE.INTRA.SOLV.lig_0>
-101.981

>  <SCORE.INTRA.VDW>
1.04487

>  <SCORE.INTRA.VDW.0>
-5.72964

>  <SCORE.INTRA.norm>
-0.228067

>  <SCORE.RESTR>
0

>  <SCORE.RESTR.CAVITY>
0

>  <SCORE.RESTR.norm>
0

>  <SCORE.SYSTEM>
0

>  <SCORE.SYSTEM.CONST>
0

>  <SCORE.SYSTEM.DIHEDRAL>
0

>  <SCORE.SYSTEM.SOLV>
0

>  <SCORE.SYSTEM.norm>
0

>  <SCORE.heavy>
40

>  <SCORE.norm>
-0.199587

>  <RMSD>
8.898

$$$$
ligand
 OpenBabel11021811513D
libRbt.so/2013.1/901 2013/11/27
 40 42  0  0  0  0  0  0  0  0999 V2000
    6.1956   -4.8990   24.8269 C   0  0  2  0  0  0  0  0  0  0  0  0
    6.0623   -5.0588   23.4057 O   0  0  0  0  0  0  0  0  0  0  0  0
    4.8115   -4.5177   25.4735 C   0  0  1  0  0  0  0  0  0  0  0  0
    4.3264   -3.1159   25.0015 C   0  0  2  0  0  0  0  0  0  0  0  0
    5.4067   -2.0717   25.4267 C   0  0  2  0  0  0  0  0  0  0  0  0
    4.9767   -0.7527   25.0269 O   0  0  0  0  0  0  0  0  0  0  0  0
    6.7821   -2.4549   24.7245 C   0  0  2  0  0  0  0  0  0  0  0  0
    7.2009   -3.8374   25.1525 O   0  0  0  0  0  0  0  0  0  0  0  0
    7.9110   -1.5024   25.0941 C   0  0  0  0  0  0  0  0  0  0  0  0
    9.2117   -1.9310   24.4898 N   0  0  0  0  0  0  0  0  0  0  0  0
    2.9861   -5.5695   20.3063 C   0  0  2  0  0  0  0  0  0  0  0  0
    1.6866   -5.7317   19.6970 N   0  0  0  0  0  0  0  0  0  0  0  0
    3.2588   -6.7706   21.2991 C   0  0  0  0  0  0  0  0  0  0  0  0
    4.6886   -6.6027   21.9834 C   0  0  2  0  0  0  0  0  0  0  0  0
    4.9501   -7.7406   22.9034 N   0  0  0  0  0  0  0  0  0  0  0  0
    4.7374   -5.2068   22.7620 C   0  0  2  0  0  0  0  0  0  0  0  0
    4.4569   -4.0362   21.7261 C   0  0  2  0  0  0  0  0  0  0  0  0
    4.5022   -2.7831   22.4123 O   0  0  0  0  0  0  0  0  0  0  0  0
    3.0394   -4.2176   21.0531 C   0  0  1  0  0  0  0  0  0  0  0  0
    2.8078   -3.1540   20.0961 O   0  0  0  0  0  0  0  0  0  0  0  0
    1.6450   -2.4039   19.9966 C   0  0  2  0  0  0  0  0  0  0  0  0
    1.9971   -0.9304   20.4087 C   0  0  2  0  0  0  0  0  0  0  0  0
    3.0102   -0.4433   19.5892 O   0  0  0  0  0  0  0  0  0  0  0  0
    2.3991   -0.8265   21.9413 C   0  0  1  0  0  0  0  0  0  0  0  0
    2.7181    0.5861   22.3151 N   0  0  0  0  0  0  0  0  0  0  0  0
    1.2006   -1.3926   22.8214 C   0  0  2  0  0  0  0  0  0  0  0  0
    1.5108   -1.3083   24.2179 O   0  0  0  0  0  0  0  0  0  0  0  0
    0.9269   -2.8817   22.3778 C   0  0  2  0  0  0  0  0  0  0  0  0
    0.5951   -2.9517   20.8934 O   0  0  0  0  0  0  0  0  0  0  0  0
   -0.2170   -3.4821   23.1596 C   0  0  0  0  0  0  0  0  0  0  0  0
   -1.4816   -2.8636   22.8580 O   0  0  0  0  0  0  0  0  0  0  0  0
    3.8416   -5.5457   25.1177 O   0  0  0  0  0  0  0  0  0  0  0  0
    3.1252   -2.8300   25.6041 O   0  0  0  0  0  0  0  0  0  0  0  0
    1.5379   -6.6606   18.6006 C   0  0  0  0  0  0  0  0  0  0  0  0
    2.5481   -6.9831   17.9076 O   0  0  0  0  0  0  0  0  0  0  0  0
    0.1142   -7.2288   18.3132 C   0  0  2  0  0  0  0  0  0  0  0  0
   -2.6091   -8.5824   18.5311 N   0  0  0  0  0  0  0  0  0  0  0  0
   -0.6592   -7.4962   19.6413 C   0  0  0  0  0  0  0  0  0  0  0  0
   -2.1866   -7.5095   19.4631 C   0  0  0  0  0  0  0  0  0  0  0  0
    0.1460   -8.3480   17.7094 O   0  0  0  0  0  0  0  0  0  0  0  0
  1  2  1  6  0  0  0
  1  3  1  0  0  0  0
  1  8  1  0  0  0  0
  3  4  1  0  0  0  0
  3 32  1  6  0  0  0
  4  5  1  0  0  0  0
  4 33  1  1  0  0  0
  5  6  1  6  0  0  0
  5  7  1  0  0  0  0
  7  8  1  0  0  0  0
  7  9  1  1  0  0  0
  9 10  1  0  0  0  0
 11 12  1  1  0  0  0
 11 13  1  0  0  0  0
 11 19  1  0  0  0  0
 12 34  1  0  0  0  0
 13 14  1  0  0  0  0
 14 15  1  1  0  0  0
 14 16  1  0  0  0  0
 16  2  1  6  0  0  0
 16 17  1  0  0  0  0
 17 18  1  1  0  0  0
 17 19  1  0  0  0  0
 19 20  1  6  0  0  0
 21 20  1  1  0  0  0
 21 22  1  0  0  0  0
 21 29  1  0  0  0  0
 22 23  1  6  0  0  0
 22 24  1  0  0  0  0
 24 25  1  1  0  0  0
 24 26  1  0  0  0  0
 26 27  1  1  0  0  0
 26 28  1  0  0  0  0
 28 29  1  0  0  0  0
 28 30  1  1  0  0  0
 30 31  1  0  0  0  0
 34 35  2  0  0  0  0
 36 34  1  1  0  0  0
 36 38  1  0  0  0  0
 36 40  1  0  0  0  0
 37 39  1  0  0  0  0
 38 39  1  0  0  0  0
M  END
>  <CHROM.1>
-15.42424527,-120.67256877,176.49806678,-79.05762560,106.97661845,113.13887004
67.17404105,-37.73280251,157.03111521,61.15703908,2.99492190,-4.03285952
22.12010080,-0.70909691,0.54207536,-2.76716782

>  <Name>
ligand

>  <RI>
0

>  <Rbt.Current_Directory>
/home/itssahil/PROJECTS/Mol_Feturizer/New_Systems/rnas/4P20

>  <Rbt.Executable>
rbdock ($Id: //depot/dev/client3/rdock/2013.1/src/exe/rbdock.cxx#4 $)

>  <Rbt.Library>
libRbt.so (2013.1, Build901 2013/11/27)

>  <Rbt.Parameter_File>
/export/apps/rDock/src/rDock_2013.1_src/data/scripts/dock_solv.prm

>  <Rbt.Receptor>
prm/blind_docking_60.prm

>  <SCORE>
19.1393

>  <SCORE.INTER>
2.03078

>  <SCORE.INTER.CONST>
1

>  <SCORE.INTER.POLAR>
0

>  <SCORE.INTER.ROT>
10

>  <SCORE.INTER.SOLV>
26.4392

>  <SCORE.INTER.VDW>
-17.7259

>  <SCORE.INTER.norm>
0.0507695

>  <SCORE.INTRA>
6.59094

>  <SCORE.INTRA.DIHEDRAL>
1.84842

>  <SCORE.INTRA.DIHEDRAL.0>
28.2802

>  <SCORE.INTRA.POLAR>
0

>  <SCORE.INTRA.POLAR.0>
0

>  <SCORE.INTRA.REPUL>
0

>  <SCORE.INTRA.REPUL.0>
0

>  <SCORE.INTRA.SOLV>
5.1005

>  <SCORE.INTRA.SOLV.lig_0>
-101.981

>  <SCORE.INTRA.VDW>
3.11648

>  <SCORE.INTRA.VDW.0>
-5.72964

>  <SCORE.INTRA.norm>
0.164774

>  <SCORE.RESTR>
10.5175

>  <SCORE.RESTR.CAVITY>
10.5175

>  <SCORE.RESTR.norm>
0.262938

>  <SCORE.SYSTEM>
0

>  <SCORE.SYSTEM.CONST>
0

>  <SCORE.SYSTEM.DIHEDRAL>
0

>  <SCORE.SYSTEM.SOLV>
0

>  <SCORE.SYSTEM.norm>
0

>  <SCORE.heavy>
40

>  <SCORE.norm>
0.478481

>  <RMSD>
8.899

$$$$
ligand
 OpenBabel11021811513D
libRbt.so/2013.1/901 2013/11/27
 40 42  0  0  0  0  0  0  0  0999 V2000
   -3.9478   -8.3159   17.0553 C   0  0  2  0  0  0  0  0  0  0  0  0
   -3.9012   -8.8336   18.3943 O   0  0  0  0  0  0  0  0  0  0  0  0
   -5.4322   -8.0015   16.6346 C   0  0  1  0  0  0  0  0  0  0  0  0
   -6.2883   -9.2984   16.5449 C   0  0  2  0  0  0  0  0  0  0  0  0
   -5.6293  -10.2295   15.4785 C   0  0  2  0  0  0  0  0  0  0  0  0
   -6.4137  -11.4348   15.3496 O   0  0  0  0  0  0  0  0  0  0  0  0
   -4.1478  -10.5671   15.9505 C   0  0  2  0  0  0  0  0  0  0  0  0
   -3.3566   -9.2919   16.0850 O   0  0  0  0  0  0  0  0  0  0  0  0
   -3.4094  -11.4588   14.9618 C   0  0  0  0  0  0  0  0  0  0  0  0
   -2.0656  -11.8626   15.4831 N   0  0  0  0  0  0  0  0  0  0  0  0
   -0.5669   -9.4229   21.1989 C   0  0  2  0  0  0  0  0  0  0  0  0
    0.6510   -9.9508   21.7682 N   0  0  0  0  0  0  0  0  0  0  0  0
   -1.6214  -10.5901   21.0297 C   0  0  0  0  0  0  0  0  0  0  0  0
   -2.9703  -10.0230   20.3973 C   0  0  2  0  0  0  0  0  0  0  0  0
   -3.9656  -11.1177   20.2543 N   0  0  0  0  0  0  0  0  0  0  0  0
   -2.6450   -9.3491   18.9842 C   0  0  2  0  0  0  0  0  0  0  0  0
   -1.5841   -8.1885   19.2059 C   0  0  2  0  0  0  0  0  0  0  0  0
   -1.2894   -7.5769   17.9480 O   0  0  0  0  0  0  0  0  0  0  0  0
   -0.2549   -8.7638   19.8364 C   0  0  1  0  0  0  0  0  0  0  0  0
    0.6942   -7.6897   20.0517 O   0  0  0  0  0  0  0  0  0  0  0  0
    1.3476   -6.9843   19.0514 C   0  0  2  0  0  0  0  0  0  0  0  0
    2.4547   -7.9252   18.4564 C   0  0  2  0  0  0  0  0  0  0  0  0
    1.8707   -9.0949   17.9810 O   0  0  0  0  0  0  0  0  0  0  0  0
    3.5923   -8.2422   19.5179 C   0  0  1  0  0  0  0  0  0  0  0  0
    4.6419   -9.1288   18.9269 N   0  0  0  0  0  0  0  0  0  0  0  0
    4.2208   -6.8682   20.0162 C   0  0  2  0  0  0  0  0  0  0  0  0
    5.2648   -7.1022   20.9694 O   0  0  0  0  0  0  0  0  0  0  0  0
    3.0612   -5.9926   20.6306 C   0  0  2  0  0  0  0  0  0  0  0  0
    1.9635   -5.7505   19.6034 O   0  0  0  0  0  0  0  0  0  0  0  0
    3.5806   -4.6579   21.1093 C   0  0  0  0  0  0  0  0  0  0  0  0
    4.0431   -3.8224   20.0319 O   0  0  0  0  0  0  0  0  0  0  0  0
   -5.9977   -7.0767   17.6087 O   0  0  0  0  0  0  0  0  0  0  0  0
   -7.5660   -8.9677   16.1632 O   0  0  0  0  0  0  0  0  0  0  0  0
    0.6421  -10.4118   23.1373 C   0  0  0  0  0  0  0  0  0  0  0  0
   -0.2336   -9.9761   23.9424 O   0  0  0  0  0  0  0  0  0  0  0  0
    1.7337  -11.4387   23.5690 C   0  0  2  0  0  0  0  0  0  0  0  0
    3.9229  -13.3235   22.5456 N   0  0  0  0  0  0  0  0  0  0  0  0
    1.5045  -12.8200   22.8811 C   0  0  0  0  0  0  0  0  0  0  0  0
    2.6499  -13.8171   23.1234 C   0  0  0  0  0  0  0  0  0  0  0  0
    1.7160  -11.6764   24.8185 O   0  0  0  0  0  0  0  0  0  0  0  0
  1  2  1  1  0  0  0
  1  3  1  0  0  0  0
  1  8  1  0  0  0  0
  3  4  1  0  0  0  0
  3 32  1  1  0  0  0
  4  5  1  0  0  0  0
  4 33  1  6  0  0  0
  5  6  1  1  0  0  0
  5  7  1  0  0  0  0
  7  8  1  0  0  0  0
  7  9  1  6  0  0  0
  9 10  1  0  0  0  0
 11 12  1  6  0  0  0
 11 13  1  0  0  0  0
 11 19  1  0  0  0  0
 12 34  1  0  0  0  0
 13 14  1  0  0  0  0
 14 15  1  6  0  0  0
 14 16  1  0  0  0  0
 16  2  1  1  0  0  0
 16 17  1  0  0  0  0
 17 18  1  6  0  0  0
 17 19  1  0  0  0  0
 19 20  1  1  0  0  0
 21 20  1  1  0  0  0
 21 22  1  0  0  0  0
 21 29  1  0  0  0  0
 22 23  1  1  0  0  0
 22 24  1  0  0  0  0
 24 25  1  6  0  0  0
 24 26  1  0  0  0  0
 26 27  1  1  0  0  0
 26 28  1  0  0  0  0
 28 29  1  0  0  0  0
 28 30  1  6  0  0  0
 30 31  1  0  0  0  0
 34 35  2  0  0  0  0
 36 34  1  1  0  0  0
 36 38  1  0  0  0  0
 36 40  1  0  0  0  0
 37 39  1  0  0  0  0
 38 39  1  0  0  0  0
M  END
>  <CHROM.1>
173.22682594,-172.54137507,-174.89855992,-68.61742231,170.91637027,-74.16501537
66.35498675,-68.52459274,172.48601898,-62.73518460,-0.60353323,-9.14599775
19.40651926,-2.90831419,0.50448161,2.51243830

>  <Name>
ligand

>  <RI>
0

>  <Rbt.Current_Directory>
/home/itssahil/PROJECTS/Mol_Feturizer/New_Systems/rnas/4P20

>  <Rbt.Executable>
rbdock ($Id: //depot/dev/client3/rdock/2013.1/src/exe/rbdock.cxx#4 $)

>  <Rbt.Library>
libRbt.so (2013.1, Build901 2013/11/27)

>  <Rbt.Parameter_File>
/export/apps/rDock/src/rDock_2013.1_src/data/scripts/dock_solv.prm

>  <Rbt.Receptor>
prm/pocket_docking_7.prm

>  <SCORE>
-14.758

>  <SCORE.INTER>
-3.99315

>  <SCORE.INTER.CONST>
1

>  <SCORE.INTER.POLAR>
0

>  <SCORE.INTER.ROT>
10

>  <SCORE.INTER.SOLV>
15.7614

>  <SCORE.INTER.VDW>
-18.1826

>  <SCORE.INTER.norm>
-0.0998288

>  <SCORE.INTRA>
-10.7649

>  <SCORE.INTRA.DIHEDRAL>
-25.0078

>  <SCORE.INTRA.DIHEDRAL.0>
28.2802

>  <SCORE.INTRA.POLAR>
0

>  <SCORE.INTRA.POLAR.0>
0

>  <SCORE.INTRA.REPUL>
0

>  <SCORE.INTRA.REPUL.0>
0

>  <SCORE.INTRA.SOLV>
-0.497491

>  <SCORE.INTRA.SOLV.lig_0>
-101.981

>  <SCORE.INTRA.VDW>
1.98774

>  <SCORE.INTRA.VDW.0>
-5.72964

>  <SCORE.INTRA.norm>
-0.269122

>  <SCORE.RESTR>
0

>  <SCORE.RESTR.CAVITY>
0

>  <SCORE.RESTR.norm>
0

>  <SCORE.SYSTEM>
0

>  <SCORE.SYSTEM.CONST>
0

>  <SCORE.SYSTEM.DIHEDRAL>
0

>  <SCORE.SYSTEM.SOLV>
0

>  <SCORE.SYSTEM.norm>
0

>  <SCORE.heavy>
40

>  <SCORE.norm>
-0.368951

>  <RMSD>
8.900

$$$$
ligand
 OpenBabel11021811513D
libRbt.so/2013.1/901 2013/11/27
 40 42  0  0  0  0  0  0  0  0999 V2000
   -2.5900   -8.2675   19.3608 C   0  0  2  0  0  0  0  0  0  0  0  0
   -1.7264   -8.9590   18.4447 O   0  0  0  0  0  0  0  0  0  0  0  0
   -3.3210   -9.2887   20.3106 C   0  0  1  0  0  0  0  0  0  0  0  0
   -4.3005  -10.2046   19.5204 C   0  0  2  0  0  0  0  0  0  0  0  0
   -5.3572   -9.2855   18.8297 C   0  0  2  0  0  0  0  0  0  0  0  0
   -6.3004  -10.1051   18.1065 O   0  0  0  0  0  0  0  0  0  0  0  0
   -4.5963   -8.2954   17.8436 C   0  0  2  0  0  0  0  0  0  0  0  0
   -3.6138   -7.4605   18.6233 O   0  0  0  0  0  0  0  0  0  0  0  0
   -5.5432   -7.3384   17.1324 C   0  0  0  0  0  0  0  0  0  0  0  0
   -6.5380   -8.0742   16.2901 N   0  0  0  0  0  0  0  0  0  0  0  0
    2.4662   -8.2488   17.3278 C   0  0  2  0  0  0  0  0  0  0  0  0
    3.6288   -7.6147   16.7511 N   0  0  0  0  0  0  0  0  0  0  0  0
    1.4332   -8.6018   16.1827 C   0  0  0  0  0  0  0  0  0  0  0  0
    0.1416   -9.2984   16.8050 C   0  0  2  0  0  0  0  0  0  0  0  0
   -0.8206   -9.6443   15.7261 N   0  0  0  0  0  0  0  0  0  0  0  0
   -0.5210   -8.3140   17.8769 C   0  0  2  0  0  0  0  0  0  0  0  0
    0.5524   -7.9889   19.0011 C   0  0  2  0  0  0  0  0  0  0  0  0
   -0.0319   -7.1119   19.9668 O   0  0  0  0  0  0  0  0  0  0  0  0
    1.8278   -7.3031   18.3700 C   0  0  1  0  0  0  0  0  0  0  0  0
    2.8055   -7.0322   19.4051 O   0  0  0  0  0  0  0  0  0  0  0  0
    4.0486   -6.4506   19.2018 C   0  0  2  0  0  0  0  0  0  0  0  0
    5.0436   -7.0904   20.2341 C   0  0  2  0  0  0  0  0  0  0  0  0
    5.0733   -8.4707   20.0638 O   0  0  0  0  0  0  0  0  0  0  0  0
    4.6715   -6.7046   21.7289 C   0  0  1  0  0  0  0  0  0  0  0  0
    5.6384   -7.3136   22.6938 N   0  0  0  0  0  0  0  0  0  0  0  0
    4.6596   -5.1189   21.8575 C   0  0  2  0  0  0  0  0  0  0  0  0
    4.3406   -4.7193   23.1962 O   0  0  0  0  0  0  0  0  0  0  0  0
    3.6167   -4.5503   20.8192 C   0  0  2  0  0  0  0  0  0  0  0  0
    3.9735   -4.9807   19.4029 O   0  0  0  0  0  0  0  0  0  0  0  0
    3.5644   -3.0419   20.8692 C   0  0  0  0  0  0  0  0  0  0  0  0
    2.5385   -2.4929   20.0214 O   0  0  0  0  0  0  0  0  0  0  0  0
   -2.3084  -10.0842   20.9932 O   0  0  0  0  0  0  0  0  0  0  0  0
   -4.9179  -11.0639   20.3968 O   0  0  0  0  0  0  0  0  0  0  0  0
    4.7095   -8.4415   16.2659 C   0  0  0  0  0  0  0  0  0  0  0  0
    4.8526   -9.6175   16.7148 O   0  0  0  0  0  0  0  0  0  0  0  0
    5.6698   -7.8348   15.1971 C   0  0  2  0  0  0  0  0  0  0  0  0
    5.1922   -9.7721   12.7907 N   0  0  0  0  0  0  0  0  0  0  0  0
    4.9104   -7.5410   13.8665 C   0  0  0  0  0  0  0  0  0  0  0  0
    4.2081   -8.7778   13.2817 C   0  0  0  0  0  0  0  0  0  0  0  0
    6.6132   -8.6270   14.8800 O   0  0  0  0  0  0  0  0  0  0  0  0
  1  2  1  6  0  0  0
  1  3  1  0  0  0  0
  1  8  1  0  0  0  0
  3  4  1  0  0  0  0
  3 32  1  6  0  0  0
  4  5  1  0  0  0  0
  4 33  1  1  0  0  0
  5  6  1  6  0  0  0
  5  7  1  0  0  0  0
  7  8  1  0  0  0  0
  7  9  1  1  0  0  0
  9 10  1  0  0  0  0
 11 12  1  6  0  0  0
 11 13  1  0  0  0  0
 11 19  1  0  0  0  0
 12 34  1  0  0  0  0
 13 14  1  0  0  0  0
 14 15  1  6  0  0  0
 14 16  1  0  0  0  0
 16  2  1  1  0  0  0
 16 17  1  0  0  0  0
 17 18  1  1  0  0  0
 17 19  1  0  0  0  0
 19 20  1  1  0  0  0
 21 20  1  1  0  0  0
 21 22  1  0  0  0  0
 21 29  1  0  0  0  0
 22 23  1  1  0  0  0
 22 24  1  0  0  0  0
 24 25  1  1  0  0  0
 24 26  1  0  0  0  0
 26 27  1  1  0  0  0
 26 28  1  0  0  0  0
 28 29  1  0  0  0  0
 28 30  1  6  0  0  0
 30 31  1  0  0  0  0
 34 35  2  0  0  0  0
 36 34  1  1  0  0  0
 36 38  1  0  0  0  0
 36 40  1  0  0  0  0
 37 39  1  0  0  0  0
 38 39  1  0  0  0  0
M  END
>  <CHROM.1>
-152.58529360,-175.08633379,-61.06879797,-86.89823329,59.22887394,-146.25903003
-174.77238014,-64.65842670,-56.38090542,-68.76324092,1.07906483,-7.77479977
18.43718780,3.04627322,-0.22198537,-2.03972615

>  <Name>
ligand

>  <RI>
0

>  <Rbt.Current_Directory>
/home/itssahil/PROJECTS/Mol_Feturizer/New_Systems/rnas/4P20

>  <Rbt.Executable>
rbdock ($Id: //depot/dev/client3/rdock/2013.1/src/exe/rbdock.cxx#4 $)

>  <Rbt.Library>
libRbt.so (2013.1, Build901 2013/11/27)

>  <Rbt.Parameter_File>
/export/apps/rDock/src/rDock_2013.1_src/data/scripts/dock_solv.prm

>  <Rbt.Receptor>
prm/pocket_docking_5.prm

>  <SCORE>
-14.7846

>  <SCORE.INTER>
-8.22187

>  <SCORE.INTER.CONST>
1

>  <SCORE.INTER.POLAR>
0

>  <SCORE.INTER.ROT>
10

>  <SCORE.INTER.SOLV>
21.9969

>  <SCORE.INTER.VDW>
-23.0802

>  <SCORE.INTER.norm>
-0.205547

>  <SCORE.INTRA>
-6.56277

>  <SCORE.INTRA.DIHEDRAL>
-18.9682

>  <SCORE.INTRA.DIHEDRAL.0>
28.2802

>  <SCORE.INTRA.POLAR>
0

>  <SCORE.INTRA.POLAR.0>
0

>  <SCORE.INTRA.REPUL>
0

>  <SCORE.INTRA.REPUL.0>
0

>  <SCORE.INTRA.SOLV>
1.95871

>  <SCORE.INTRA.SOLV.lig_0>
-101.981

>  <SCORE.INTRA.VDW>
1.94195

>  <SCORE.INTRA.VDW.0>
-5.72964

>  <SCORE.INTRA.norm>
-0.164069

>  <SCORE.RESTR>
0

>  <SCORE.RESTR.CAVITY>
0

>  <SCORE.RESTR.norm>
0

>  <SCORE.SYSTEM>
0

>  <SCORE.SYSTEM.CONST>
0

>  <SCORE.SYSTEM.DIHEDRAL>
0

>  <SCORE.SYSTEM.SOLV>
0

>  <SCORE.SYSTEM.norm>
0

>  <SCORE.heavy>
40

>  <SCORE.norm>
-0.369616

>  <RMSD>
8.904

$$$$
ligand
 OpenBabel11021811513D
libRbt.so/2013.1/901 2013/11/27
 40 42  0  0  0  0  0  0  0  0999 V2000
   -3.8716   -8.0587   17.6778 C   0  0  2  0  0  0  0  0  0  0  0  0
   -3.6008   -8.8319   18.8575 O   0  0  0  0  0  0  0  0  0  0  0  0
   -5.1558   -7.1705   17.8806 C   0  0  1  0  0  0  0  0  0  0  0  0
   -6.4358   -8.0426   18.0363 C   0  0  2  0  0  0  0  0  0  0  0  0
   -6.5903   -8.8952   16.7372 C   0  0  2  0  0  0  0  0  0  0  0  0
   -7.7850   -9.6999   16.8356 O   0  0  0  0  0  0  0  0  0  0  0  0
   -5.3010   -9.8144   16.5811 C   0  0  2  0  0  0  0  0  0  0  0  0
   -4.0708   -8.9493   16.4900 O   0  0  0  0  0  0  0  0  0  0  0  0
   -5.3464  -10.6748   15.3258 C   0  0  0  0  0  0  0  0  0  0  0  0
   -6.4188  -11.7156   15.4113 N   0  0  0  0  0  0  0  0  0  0  0  0
    0.1394   -9.5914   21.0403 C   0  0  2  0  0  0  0  0  0  0  0  0
    1.4615  -10.0928   21.3349 N   0  0  0  0  0  0  0  0  0  0  0  0
   -0.8431  -10.8055   20.7883 C   0  0  0  0  0  0  0  0  0  0  0  0
   -2.3064  -10.2672   20.4569 C   0  0  2  0  0  0  0  0  0  0  0  0
   -3.2318  -11.4094   20.2365 N   0  0  0  0  0  0  0  0  0  0  0  0
   -2.2388   -9.3212   19.1694 C   0  0  2  0  0  0  0  0  0  0  0  0
   -1.2418   -8.1223   19.4705 C   0  0  2  0  0  0  0  0  0  0  0  0
   -1.1774   -7.2683   18.3261 O   0  0  0  0  0  0  0  0  0  0  0  0
    0.2024   -8.6703   19.8011 C   0  0  1  0  0  0  0  0  0  0  0  0
    1.0941   -7.5659   20.0937 O   0  0  0  0  0  0  0  0  0  0  0  0
    1.7662   -6.8054   19.1477 C   0  0  2  0  0  0  0  0  0  0  0  0
    2.9782   -7.6589   18.6304 C   0  0  2  0  0  0  0  0  0  0  0  0
    2.5156   -8.8621   18.1074 O   0  0  0  0  0  0  0  0  0  0  0  0
    4.0554   -7.9053   19.7707 C   0  0  1  0  0  0  0  0  0  0  0  0
    5.2060   -8.7088   19.2535 N   0  0  0  0  0  0  0  0  0  0  0  0
    4.5460   -6.4954   20.3209 C   0  0  2  0  0  0  0  0  0  0  0  0
    5.5321   -6.6646   21.3468 O   0  0  0  0  0  0  0  0  0  0  0  0
    3.2850   -5.7109   20.8534 C   0  0  2  0  0  0  0  0  0  0  0  0
    2.2504   -5.5367   19.7499 O   0  0  0  0  0  0  0  0  0  0  0  0
    3.6714   -4.3478   21.3759 C   0  0  0  0  0  0  0  0  0  0  0  0
    4.1968   -3.4870   20.3483 O   0  0  0  0  0  0  0  0  0  0  0  0
   -4.9539   -6.3363   19.0584 O   0  0  0  0  0  0  0  0  0  0  0  0
   -7.5236   -7.2190   18.1970 O   0  0  0  0  0  0  0  0  0  0  0  0
    1.7395  -10.6005   22.6585 C   0  0  0  0  0  0  0  0  0  0  0  0
    1.0294  -10.2255   23.6384 O   0  0  0  0  0  0  0  0  0  0  0  0
    2.9253  -11.6002   22.8229 C   0  0  2  0  0  0  0  0  0  0  0  0
    2.2136  -14.2269   20.0376 N   0  0  0  0  0  0  0  0  0  0  0  0
    2.5955  -12.9721   22.1576 C   0  0  0  0  0  0  0  0  0  0  0  0
    2.4726  -12.8913   20.6268 C   0  0  0  0  0  0  0  0  0  0  0  0
    3.1760  -11.8669   24.0411 O   0  0  0  0  0  0  0  0  0  0  0  0
  1  2  1  1  0  0  0
  1  3  1  0  0  0  0
  1  8  1  0  0  0  0
  3  4  1  0  0  0  0
  3 32  1  1  0  0  0
  4  5  1  0  0  0  0
  4 33  1  6  0  0  0
  5  6  1  1  0  0  0
  5  7  1  0  0  0  0
  7  8  1  0  0  0  0
  7  9  1  6  0  0  0
  9 10  1  0  0  0  0
 11 12  1  6  0  0  0
 11 13  1  0  0  0  0
 11 19  1  0  0  0  0
 12 34  1  0  0  0  0
 13 14  1  0  0  0  0
 14 15  1  6  0  0  0
 14 16  1  0  0  0  0
 16  2  1  1  0  0  0
 16 17  1  0  0  0  0
 17 18  1  6  0  0  0
 17 19  1  0  0  0  0
 19 20  1  1  0  0  0
 21 20  1  1  0  0  0
 21 22  1  0  0  0  0
 21 29  1  0  0  0  0
 22 23  1  1  0  0  0
 22 24  1  0  0  0  0
 24 25  1  6  0  0  0
 24 26  1  0  0  0  0
 26 27  1  1  0  0  0
 26 28  1  0  0  0  0
 28 29  1  0  0  0  0
 28 30  1  6  0  0  0
 30 31  1  0  0  0  0
 34 35  2  0  0  0  0
 36 34  1  1  0  0  0
 36 38  1  0  0  0  0
 36 40  1  0  0  0  0
 37 39  1  0  0  0  0
 38 39  1  0  0  0  0
M  END
>  <CHROM.1>
-155.48617414,-174.17790252,-67.76151815,-78.34581422,156.52915161,-76.65968084
64.17282653,-69.42424901,66.58111956,177.70020646,-0.48481204,-8.83998078
19.56722374,-3.10448416,0.39107338,2.86198479

>  <Name>
ligand

>  <RI>
0

>  <Rbt.Current_Directory>
/home/itssahil/PROJECTS/Mol_Feturizer/New_Systems/rnas/4P20

>  <Rbt.Executable>
rbdock ($Id: //depot/dev/client3/rdock/2013.1/src/exe/rbdock.cxx#4 $)

>  <Rbt.Library>
libRbt.so (2013.1, Build901 2013/11/27)

>  <Rbt.Parameter_File>
/export/apps/rDock/src/rDock_2013.1_src/data/scripts/dock_solv.prm

>  <Rbt.Receptor>
prm/pocket_docking_7.prm

>  <SCORE>
-13.5676

>  <SCORE.INTER>
-4.14407

>  <SCORE.INTER.CONST>
1

>  <SCORE.INTER.POLAR>
0

>  <SCORE.INTER.ROT>
10

>  <SCORE.INTER.SOLV>
17.8137

>  <SCORE.INTER.VDW>
-18.9673

>  <SCORE.INTER.norm>
-0.103602

>  <SCORE.INTRA>
-9.42355

>  <SCORE.INTRA.DIHEDRAL>
-20.2429

>  <SCORE.INTRA.DIHEDRAL.0>
28.2802

>  <SCORE.INTRA.POLAR>
0

>  <SCORE.INTRA.POLAR.0>
0

>  <SCORE.INTRA.REPUL>
0

>  <SCORE.INTRA.REPUL.0>
0

>  <SCORE.INTRA.SOLV>
-0.831516

>  <SCORE.INTRA.SOLV.lig_0>
-101.981

>  <SCORE.INTRA.VDW>
1.11369

>  <SCORE.INTRA.VDW.0>
-5.72964

>  <SCORE.INTRA.norm>
-0.235589

>  <SCORE.RESTR>
0

>  <SCORE.RESTR.CAVITY>
0

>  <SCORE.RESTR.norm>
0

>  <SCORE.SYSTEM>
0

>  <SCORE.SYSTEM.CONST>
0

>  <SCORE.SYSTEM.DIHEDRAL>
0

>  <SCORE.SYSTEM.SOLV>
0

>  <SCORE.SYSTEM.norm>
0

>  <SCORE.heavy>
40

>  <SCORE.norm>
-0.33919

>  <RMSD>
8.914

$$$$
ligand
 OpenBabel11021811513D
libRbt.so/2013.1/901 2013/11/27
 40 42  0  0  0  0  0  0  0  0999 V2000
    6.3200   -2.8292   23.6695 C   0  0  2  0  0  0  0  0  0  0  0  0
    6.0768   -4.1311   23.1137 O   0  0  0  0  0  0  0  0  0  0  0  0
    7.6640   -2.8196   24.4898 C   0  0  1  0  0  0  0  0  0  0  0  0
    7.5731   -3.7323   25.7475 C   0  0  2  0  0  0  0  0  0  0  0  0
    6.4117   -3.1942   26.6417 C   0  0  2  0  0  0  0  0  0  0  0  0
    6.3148   -4.0034   27.8335 O   0  0  0  0  0  0  0  0  0  0  0  0
    5.0602   -3.2570   25.8045 C   0  0  2  0  0  0  0  0  0  0  0  0
    5.1935   -2.4120   24.5642 O   0  0  0  0  0  0  0  0  0  0  0  0
    3.8643   -2.7316   26.5868 C   0  0  0  0  0  0  0  0  0  0  0  0
    2.6770   -3.6323   26.4465 N   0  0  0  0  0  0  0  0  0  0  0  0
    2.9383   -5.3253   20.2758 C   0  0  2  0  0  0  0  0  0  0  0  0
    1.6421   -5.7108   19.7682 N   0  0  0  0  0  0  0  0  0  0  0  0
    3.4218   -6.3819   21.3494 C   0  0  0  0  0  0  0  0  0  0  0  0
    4.8501   -5.9669   21.9227 C   0  0  2  0  0  0  0  0  0  0  0  0
    5.3101   -6.9694   22.9191 N   0  0  0  0  0  0  0  0  0  0  0  0
    4.7518   -4.5091   22.5723 C   0  0  2  0  0  0  0  0  0  0  0  0
    4.2624   -3.4877   21.4590 C   0  0  2  0  0  0  0  0  0  0  0  0
    4.1749   -2.1800   22.0294 O   0  0  0  0  0  0  0  0  0  0  0  0
    2.8487   -3.9133   20.8974 C   0  0  1  0  0  0  0  0  0  0  0  0
    2.4263   -2.9838   19.8686 O   0  0  0  0  0  0  0  0  0  0  0  0
    1.2718   -2.2153   19.9071 C   0  0  2  0  0  0  0  0  0  0  0  0
    1.6918   -0.7515   20.2891 C   0  0  2  0  0  0  0  0  0  0  0  0
    2.6139   -0.2715   19.3647 O   0  0  0  0  0  0  0  0  0  0  0  0
    2.2654   -0.6692   21.7675 C   0  0  1  0  0  0  0  0  0  0  0  0
    2.6472    0.7345   22.1146 N   0  0  0  0  0  0  0  0  0  0  0  0
    1.1648   -1.2261   22.7724 C   0  0  2  0  0  0  0  0  0  0  0  0
    1.6316   -1.1605   24.1256 O   0  0  0  0  0  0  0  0  0  0  0  0
    0.8189   -2.7063   22.3500 C   0  0  2  0  0  0  0  0  0  0  0  0
    0.3209   -2.7564   20.9120 O   0  0  0  0  0  0  0  0  0  0  0  0
   -0.2392   -3.2973   23.2508 C   0  0  0  0  0  0  0  0  0  0  0  0
   -1.4810   -2.5705   23.2009 O   0  0  0  0  0  0  0  0  0  0  0  0
    8.7399   -3.2590   23.6104 O   0  0  0  0  0  0  0  0  0  0  0  0
    8.7642   -3.6764   26.4300 O   0  0  0  0  0  0  0  0  0  0  0  0
    1.4917   -7.0028   19.1396 C   0  0  0  0  0  0  0  0  0  0  0  0
    2.5039   -7.5856   18.6489 O   0  0  0  0  0  0  0  0  0  0  0  0
    0.0639   -7.6283   19.0891 C   0  0  2  0  0  0  0  0  0  0  0  0
   -2.9247   -7.8328   18.2450 N   0  0  0  0  0  0  0  0  0  0  0  0
   -0.5194   -7.5728   17.6433 C   0  0  0  0  0  0  0  0  0  0  0  0
   -1.7986   -8.4089   17.4715 C   0  0  0  0  0  0  0  0  0  0  0  0
   -0.7717   -7.0013   19.8149 O   0  0  0  0  0  0  0  0  0  0  0  0
  1  2  1  1  0  0  0
  1  3  1  0  0  0  0
  1  8  1  0  0  0  0
  3  4  1  0  0  0  0
  3 32  1  6  0  0  0
  4  5  1  0  0  0  0
  4 33  1  1  0  0  0
  5  6  1  1  0  0  0
  5  7  1  0  0  0  0
  7  8  1  0  0  0  0
  7  9  1  1  0  0  0
  9 10  1  0  0  0  0
 11 12  1  1  0  0  0
 11 13  1  0  0  0  0
 11 19  1  0  0  0  0
 12 34  1  0  0  0  0
 13 14  1  0  0  0  0
 14 15  1  1  0  0  0
 14 16  1  0  0  0  0
 16  2  1  6  0  0  0
 16 17  1  0  0  0  0
 17 18  1  1  0  0  0
 17 19  1  0  0  0  0
 19 20  1  6  0  0  0
 21 20  1  1  0  0  0
 21 22  1  0  0  0  0
 21 29  1  0  0  0  0
 22 23  1  6  0  0  0
 22 24  1  0  0  0  0
 24 25  1  1  0  0  0
 24 26  1  0  0  0  0
 26 27  1  1  0  0  0
 26 28  1  0  0  0  0
 28 29  1  0  0  0  0
 28 30  1  1  0  0  0
 30 31  1  0  0  0  0
 34 35  2  0  0  0  0
 36 34  1  6  0  0  0
 36 38  1  0  0  0  0
 36 40  1  0  0  0  0
 37 39  1  0  0  0  0
 38 39  1  0  0  0  0
M  END
>  <CHROM.1>
165.48847296,175.22316792,-134.86923991,-58.34658906,119.58695552,102.88069771
61.17489026,107.10784607,168.90943667,67.41579494,3.06066404,-3.90544951
22.22271652,-0.60904307,0.57471758,-2.68883875

>  <Name>
ligand

>  <RI>
0

>  <Rbt.Current_Directory>
/home/itssahil/PROJECTS/Mol_Feturizer/New_Systems/rnas/4P20

>  <Rbt.Executable>
rbdock ($Id: //depot/dev/client3/rdock/2013.1/src/exe/rbdock.cxx#4 $)

>  <Rbt.Library>
libRbt.so (2013.1, Build901 2013/11/27)

>  <Rbt.Parameter_File>
/export/apps/rDock/src/rDock_2013.1_src/data/scripts/dock_solv.prm

>  <Rbt.Receptor>
prm/blind_docking_60.prm

>  <SCORE>
19.1005

>  <SCORE.INTER>
5.04117

>  <SCORE.INTER.CONST>
1

>  <SCORE.INTER.POLAR>
0

>  <SCORE.INTER.ROT>
10

>  <SCORE.INTER.SOLV>
36.0985

>  <SCORE.INTER.VDW>
-18.9387

>  <SCORE.INTER.norm>
0.126029

>  <SCORE.INTRA>
2.62763

>  <SCORE.INTRA.DIHEDRAL>
-6.67621

>  <SCORE.INTRA.DIHEDRAL.0>
28.2802

>  <SCORE.INTRA.POLAR>
0

>  <SCORE.INTRA.POLAR.0>
0

>  <SCORE.INTRA.REPUL>
0

>  <SCORE.INTRA.REPUL.0>
0

>  <SCORE.INTRA.SOLV>
2.64446

>  <SCORE.INTRA.SOLV.lig_0>
-101.981

>  <SCORE.INTRA.VDW>
4.64351

>  <SCORE.INTRA.VDW.0>
-5.72964

>  <SCORE.INTRA.norm>
0.0656909

>  <SCORE.RESTR>
11.4317

>  <SCORE.RESTR.CAVITY>
11.4317

>  <SCORE.RESTR.norm>
0.285791

>  <SCORE.SYSTEM>
0

>  <SCORE.SYSTEM.CONST>
0

>  <SCORE.SYSTEM.DIHEDRAL>
0

>  <SCORE.SYSTEM.SOLV>
0

>  <SCORE.SYSTEM.norm>
0

>  <SCORE.heavy>
40

>  <SCORE.norm>
0.477512

>  <RMSD>
8.917

$$$$
ligand
 OpenBabel11021811513D
libRbt.so/2013.1/901 2013/11/27
 40 42  0  0  0  0  0  0  0  0999 V2000
    3.1540  -13.8252   15.8849 C   0  0  2  0  0  0  0  0  0  0  0  0
    4.1363  -13.1601   16.6947 O   0  0  0  0  0  0  0  0  0  0  0  0
    3.6674  -15.2486   15.4491 C   0  0  1  0  0  0  0  0  0  0  0  0
    4.8994  -15.1474   14.5031 C   0  0  2  0  0  0  0  0  0  0  0  0
    4.4628  -14.3403   13.2396 C   0  0  2  0  0  0  0  0  0  0  0  0
    5.5765  -14.2486   12.3254 O   0  0  0  0  0  0  0  0  0  0  0  0
    3.9918  -12.8932   13.7037 C   0  0  2  0  0  0  0  0  0  0  0  0
    2.8364  -13.0202   14.6624 O   0  0  0  0  0  0  0  0  0  0  0  0
    3.5246  -12.0304   12.5395 C   0  0  0  0  0  0  0  0  0  0  0  0
    2.2956  -12.5935   11.8967 N   0  0  0  0  0  0  0  0  0  0  0  0
    3.7250  -10.0705   19.7955 C   0  0  2  0  0  0  0  0  0  0  0  0
    3.4648   -8.7890   20.4091 N   0  0  0  0  0  0  0  0  0  0  0  0
    4.8940   -9.9240   18.7396 C   0  0  0  0  0  0  0  0  0  0  0  0
    5.1894  -11.3305   18.0500 C   0  0  2  0  0  0  0  0  0  0  0  0
    6.2989  -11.1946   17.0702 N   0  0  0  0  0  0  0  0  0  0  0  0
    3.8559  -11.8594   17.3437 C   0  0  2  0  0  0  0  0  0  0  0  0
    2.7152  -11.9877   18.4410 C   0  0  2  0  0  0  0  0  0  0  0  0
    1.5192  -12.4639   17.8197 O   0  0  0  0  0  0  0  0  0  0  0  0
    2.4359  -10.5884   19.1185 C   0  0  1  0  0  0  0  0  0  0  0  0
    1.4083  -10.7267   20.1312 O   0  0  0  0  0  0  0  0  0  0  0  0
    1.0046   -9.7282   21.0058 C   0  0  2  0  0  0  0  0  0  0  0  0
   -0.0884  -10.3422   21.9510 C   0  0  2  0  0  0  0  0  0  0  0  0
    0.4335  -11.4466   22.6166 O   0  0  0  0  0  0  0  0  0  0  0  0
   -1.4092  -10.7228   21.1561 C   0  0  1  0  0  0  0  0  0  0  0  0
   -2.4406  -11.2937   22.0766 N   0  0  0  0  0  0  0  0  0  0  0  0
   -1.9562   -9.4203   20.4244 C   0  0  2  0  0  0  0  0  0  0  0  0
   -3.1589   -9.7100   19.7011 O   0  0  0  0  0  0  0  0  0  0  0  0
   -0.8219   -8.8811   19.4696 C   0  0  2  0  0  0  0  0  0  0  0  0
    0.4461   -8.5746   20.2550 O   0  0  0  0  0  0  0  0  0  0  0  0
   -1.2631   -7.6277   18.7521 C   0  0  0  0  0  0  0  0  0  0  0  0
   -2.3581   -7.8614   17.8471 O   0  0  0  0  0  0  0  0  0  0  0  0
    4.0007  -16.0025   16.6510 O   0  0  0  0  0  0  0  0  0  0  0  0
    5.2962  -16.4132   14.1454 O   0  0  0  0  0  0  0  0  0  0  0  0
    3.9787   -8.5294   21.7340 C   0  0  0  0  0  0  0  0  0  0  0  0
    4.2498   -9.4976   22.5048 O   0  0  0  0  0  0  0  0  0  0  0  0
    4.1741   -7.0427   22.1629 C   0  0  2  0  0  0  0  0  0  0  0  0
    3.3444   -6.3345   19.1443 N   0  0  0  0  0  0  0  0  0  0  0  0
    4.9338   -6.2391   21.0626 C   0  0  0  0  0  0  0  0  0  0  0  0
    3.9986   -5.4459   20.1345 C   0  0  0  0  0  0  0  0  0  0  0  0
    4.8793   -6.9249   23.2150 O   0  0  0  0  0  0  0  0  0  0  0  0
  1  2  1  6  0  0  0
  1  3  1  0  0  0  0
  1  8  1  0  0  0  0
  3  4  1  0  0  0  0
  3 32  1  1  0  0  0
  4  5  1  0  0  0  0
  4 33  1  6  0  0  0
  5  6  1  6  0  0  0
  5  7  1  0  0  0  0
  7  8  1  0  0  0  0
  7  9  1  6  0  0  0
  9 10  1  0  0  0  0
 11 12  1  6  0  0  0
 11 13  1  0  0  0  0
 11 19  1  0  0  0  0
 12 34  1  0  0  0  0
 13 14  1  0  0  0  0
 14 15  1  6  0  0  0
 14 16  1  0  0  0  0
 16  2  1  1  0  0  0
 16 17  1  0  0  0  0
 17 18  1  6  0  0  0
 17 19  1  0  0  0  0
 19 20  1  1  0  0  0
 21 20  1  6  0  0  0
 21 22  1  0  0  0  0
 21 29  1  0  0  0  0
 22 23  1  6  0  0  0
 22 24  1  0  0  0  0
 24 25  1  1  0  0  0
 24 26  1  0  0  0  0
 26 27  1  6  0  0  0
 26 28  1  0  0  0  0
 28 29  1  0  0  0  0
 28 30  1  1  0  0  0
 30 31  1  0  0  0  0
 34 35  2  0  0  0  0
 36 34  1  6  0  0  0
 36 38  1  0  0  0  0
 36 40  1  0  0  0  0
 37 39  1  0  0  0  0
 38 39  1  0  0  0  0
M  END
>  <CHROM.1>
-174.11919965,-174.71570713,64.85481585,-101.93354488,53.69971472,-177.99084742
-65.16024828,-48.31237277,97.23423140,-76.79105981,2.51723113,-10.85936053
18.33722060,1.23542859,-0.12279048,-2.29961329

>  <Name>
ligand

>  <RI>
0

>  <Rbt.Current_Directory>
/home/itssahil/PROJECTS/Mol_Feturizer/New_Systems/rnas/4P20

>  <Rbt.Executable>
rbdock ($Id: //depot/dev/client3/rdock/2013.1/src/exe/rbdock.cxx#4 $)

>  <Rbt.Library>
libRbt.so (2013.1, Build901 2013/11/27)

>  <Rbt.Parameter_File>
/export/apps/rDock/src/rDock_2013.1_src/data/scripts/dock_solv.prm

>  <Rbt.Receptor>
prm/pocket_docking_7.prm

>  <SCORE>
-9.85036

>  <SCORE.INTER>
-2.19628

>  <SCORE.INTER.CONST>
1

>  <SCORE.INTER.POLAR>
0

>  <SCORE.INTER.ROT>
10

>  <SCORE.INTER.SOLV>
12.0615

>  <SCORE.INTER.VDW>
-15.7514

>  <SCORE.INTER.norm>
-0.054907

>  <SCORE.INTRA>
-7.65408

>  <SCORE.INTRA.DIHEDRAL>
-21.1737

>  <SCORE.INTRA.DIHEDRAL.0>
28.2802

>  <SCORE.INTRA.POLAR>
0

>  <SCORE.INTRA.POLAR.0>
0

>  <SCORE.INTRA.REPUL>
0

>  <SCORE.INTRA.REPUL.0>
0

>  <SCORE.INTRA.SOLV>
3.49458

>  <SCORE.INTRA.SOLV.lig_0>
-101.981

>  <SCORE.INTRA.VDW>
1.18549

>  <SCORE.INTRA.VDW.0>
-5.72964

>  <SCORE.INTRA.norm>
-0.191352

>  <SCORE.RESTR>
0

>  <SCORE.RESTR.CAVITY>
0

>  <SCORE.RESTR.norm>
0

>  <SCORE.SYSTEM>
0

>  <SCORE.SYSTEM.CONST>
0

>  <SCORE.SYSTEM.DIHEDRAL>
0

>  <SCORE.SYSTEM.SOLV>
0

>  <SCORE.SYSTEM.norm>
0

>  <SCORE.heavy>
40

>  <SCORE.norm>
-0.246259

>  <RMSD>
8.922

$$$$
ligand
 OpenBabel11021811503D
libRbt.so/2013.1/901 2013/11/27
 40 42  0  0  0  0  0  0  0  0999 V2000
    6.2982   -4.6736   24.6333 C   0  0  2  0  0  0  0  0  0  0  0  0
    6.0349   -4.6737   23.2213 O   0  0  0  0  0  0  0  0  0  0  0  0
    5.0837   -4.0567   25.4230 C   0  0  1  0  0  0  0  0  0  0  0  0
    4.8963   -2.5465   25.0957 C   0  0  2  0  0  0  0  0  0  0  0  0
    6.2111   -1.8067   25.4986 C   0  0  2  0  0  0  0  0  0  0  0  0
    6.0635   -0.3954   25.2324 O   0  0  0  0  0  0  0  0  0  0  0  0
    7.4129   -2.4186   24.6543 C   0  0  2  0  0  0  0  0  0  0  0  0
    7.5371   -3.8917   24.9451 O   0  0  0  0  0  0  0  0  0  0  0  0
    8.7503   -1.7737   24.9913 C   0  0  0  0  0  0  0  0  0  0  0  0
    9.8521   -2.3129   24.1335 N   0  0  0  0  0  0  0  0  0  0  0  0
    2.7758   -5.5315   20.3978 C   0  0  2  0  0  0  0  0  0  0  0  0
    1.4436   -5.7747   19.8954 N   0  0  0  0  0  0  0  0  0  0  0  0
    3.1429   -6.6285   21.4769 C   0  0  0  0  0  0  0  0  0  0  0  0
    4.6099   -6.3701   22.0445 C   0  0  2  0  0  0  0  0  0  0  0  0
    4.9595   -7.4112   23.0462 N   0  0  0  0  0  0  0  0  0  0  0  0
    4.6748   -4.9064   22.6851 C   0  0  2  0  0  0  0  0  0  0  0  0
    4.2978   -3.8441   21.5666 C   0  0  2  0  0  0  0  0  0  0  0  0
    4.3567   -2.5312   22.1289 O   0  0  0  0  0  0  0  0  0  0  0  0
    2.8442   -4.1145   21.0107 C   0  0  1  0  0  0  0  0  0  0  0  0
    2.5239   -3.1503   19.9771 O   0  0  0  0  0  0  0  0  0  0  0  0
    1.4327   -2.2935   19.9899 C   0  0  2  0  0  0  0  0  0  0  0  0
    1.9484   -0.8792   20.4359 C   0  0  2  0  0  0  0  0  0  0  0  0
    2.9465   -0.4485   19.5680 O   0  0  0  0  0  0  0  0  0  0  0  0
    2.4586   -0.8847   21.9396 C   0  0  1  0  0  0  0  0  0  0  0  0
    2.9331    0.4738   22.3473 N   0  0  0  0  0  0  0  0  0  0  0  0
    1.2729   -1.3800   22.8777 C   0  0  2  0  0  0  0  0  0  0  0  0
    1.6812   -1.3901   24.2513 O   0  0  0  0  0  0  0  0  0  0  0  0
    0.8317   -2.8154   22.3941 C   0  0  2  0  0  0  0  0  0  0  0  0
    0.3974   -2.7850   20.9350 O   0  0  0  0  0  0  0  0  0  0  0  0
   -0.3096   -3.3453   23.2291 C   0  0  0  0  0  0  0  0  0  0  0  0
   -1.4985   -2.5406   23.1202 O   0  0  0  0  0  0  0  0  0  0  0  0
    3.8847   -4.8112   25.0806 O   0  0  0  0  0  0  0  0  0  0  0  0
    3.8350   -2.0585   25.8190 O   0  0  0  0  0  0  0  0  0  0  0  0
    1.1840   -6.9890   19.1571 C   0  0  0  0  0  0  0  0  0  0  0  0
    2.1391   -7.5948   18.5862 O   0  0  0  0  0  0  0  0  0  0  0  0
   -0.2869   -7.5034   19.0918 C   0  0  2  0  0  0  0  0  0  0  0  0
   -2.2820   -9.4353   17.9790 N   0  0  0  0  0  0  0  0  0  0  0  0
   -0.8398   -7.4312   17.6349 C   0  0  0  0  0  0  0  0  0  0  0  0
   -2.2456   -8.0370   17.4877 C   0  0  0  0  0  0  0  0  0  0  0  0
   -1.0835   -6.8000   19.7909 O   0  0  0  0  0  0  0  0  0  0  0  0
  1  2  1  6  0  0  0
  1  3  1  0  0  0  0
  1  8  1  0  0  0  0
  3  4  1  0  0  0  0
  3 32  1  6  0  0  0
  4  5  1  0  0  0  0
  4 33  1  1  0  0  0
  5  6  1  6  0  0  0
  5  7  1  0  0  0  0
  7  8  1  0  0  0  0
  7  9  1  1  0  0  0
  9 10  1  0  0  0  0
 11 12  1  1  0  0  0
 11 13  1  0  0  0  0
 11 19  1  0  0  0  0
 12 34  1  0  0  0  0
 13 14  1  0  0  0  0
 14 15  1  1  0  0  0
 14 16  1  0  0  0  0
 16  2  1  6  0  0  0
 16 17  1  0  0  0  0
 17 18  1  1  0  0  0
 17 19  1  0  0  0  0
 19 20  1  6  0  0  0
 21 20  1  1  0  0  0
 21 22  1  0  0  0  0
 21 29  1  0  0  0  0
 22 23  1  6  0  0  0
 22 24  1  0  0  0  0
 24 25  1  1  0  0  0
 24 26  1  0  0  0  0
 26 27  1  1  0  0  0
 26 28  1  0  0  0  0
 28 29  1  0  0  0  0
 28 30  1  1  0  0  0
 30 31  1  0  0  0  0
 34 35  2  0  0  0  0
 36 34  1  6  0  0  0
 36 38  1  0  0  0  0
 36 40  1  0  0  0  0
 37 39  1  0  0  0  0
 38 39  1  0  0  0  0
M  END
>  <CHROM.1>
-35.37933975,-106.61974884,-176.93191153,-64.50163473,117.02808146,101.13637877
62.75003314,113.91508352,175.11349039,-55.28643774,3.04372145,-3.91714621
22.11263995,-0.67270220,0.49068859,-2.76665616

>  <Name>
ligand

>  <RI>
0

>  <Rbt.Current_Directory>
/home/itssahil/PROJECTS/Mol_Feturizer/New_Systems/rnas/4P20

>  <Rbt.Executable>
rbdock ($Id: //depot/dev/client3/rdock/2013.1/src/exe/rbdock.cxx#4 $)

>  <Rbt.Library>
libRbt.so (2013.1, Build901 2013/11/27)

>  <Rbt.Parameter_File>
/export/apps/rDock/src/rDock_2013.1_src/data/scripts/dock_solv.prm

>  <Rbt.Receptor>
prm/blind_docking_60.prm

>  <SCORE>
19.0224

>  <SCORE.INTER>
3.21376

>  <SCORE.INTER.CONST>
1

>  <SCORE.INTER.POLAR>
0

>  <SCORE.INTER.ROT>
10

>  <SCORE.INTER.SOLV>
25.9822

>  <SCORE.INTER.VDW>
-16.7849

>  <SCORE.INTER.norm>
0.0803439

>  <SCORE.INTRA>
4.70855

>  <SCORE.INTRA.DIHEDRAL>
-3.90999

>  <SCORE.INTRA.DIHEDRAL.0>
28.2802

>  <SCORE.INTRA.POLAR>
0

>  <SCORE.INTRA.POLAR.0>
0

>  <SCORE.INTRA.REPUL>
0

>  <SCORE.INTRA.REPUL.0>
0

>  <SCORE.INTRA.SOLV>
4.09073

>  <SCORE.INTRA.SOLV.lig_0>
-101.981

>  <SCORE.INTRA.VDW>
4.61818

>  <SCORE.INTRA.VDW.0>
-5.72964

>  <SCORE.INTRA.norm>
0.117714

>  <SCORE.RESTR>
11.1

>  <SCORE.RESTR.CAVITY>
11.1

>  <SCORE.RESTR.norm>
0.277501

>  <SCORE.SYSTEM>
0

>  <SCORE.SYSTEM.CONST>
0

>  <SCORE.SYSTEM.DIHEDRAL>
0

>  <SCORE.SYSTEM.SOLV>
0

>  <SCORE.SYSTEM.norm>
0

>  <SCORE.heavy>
40

>  <SCORE.norm>
0.475559

>  <RMSD>
8.925

$$$$
ligand
 OpenBabel11021811513D
libRbt.so/2013.1/901 2013/11/27
 40 42  0  0  0  0  0  0  0  0999 V2000
   -0.0860  -14.2760   16.1620 C   0  0  2  0  0  0  0  0  0  0  0  0
    0.0758  -12.8906   16.5046 O   0  0  0  0  0  0  0  0  0  0  0  0
   -1.3356  -14.8866   16.9002 C   0  0  1  0  0  0  0  0  0  0  0  0
   -1.1276  -14.9232   18.4423 C   0  0  2  0  0  0  0  0  0  0  0  0
    0.1304  -15.8021   18.7311 C   0  0  2  0  0  0  0  0  0  0  0  0
    0.3391  -15.8799   20.1576 O   0  0  0  0  0  0  0  0  0  0  0  0
    1.3848  -15.1386   18.0116 C   0  0  2  0  0  0  0  0  0  0  0  0
    1.1353  -15.0623   16.5277 O   0  0  0  0  0  0  0  0  0  0  0  0
    2.6650  -15.9366   18.2175 C   0  0  0  0  0  0  0  0  0  0  0  0
    3.0478  -15.9982   19.6633 N   0  0  0  0  0  0  0  0  0  0  0  0
    3.2046  -11.5833   13.7061 C   0  0  2  0  0  0  0  0  0  0  0  0
    4.1346  -10.7198   13.0163 N   0  0  0  0  0  0  0  0  0  0  0  0
    1.7290  -11.0588   13.4815 C   0  0  0  0  0  0  0  0  0  0  0  0
    0.6909  -11.9998   14.2415 C   0  0  2  0  0  0  0  0  0  0  0  0
   -0.6961  -11.5151   14.0160 N   0  0  0  0  0  0  0  0  0  0  0  0
    1.0483  -12.0249   15.7999 C   0  0  2  0  0  0  0  0  0  0  0  0
    2.5352  -12.5552   15.9726 C   0  0  2  0  0  0  0  0  0  0  0  0
    2.8631  -12.5850   17.3636 O   0  0  0  0  0  0  0  0  0  0  0  0
    3.5520  -11.6161   15.2115 C   0  0  1  0  0  0  0  0  0  0  0  0
    4.9008  -12.1251   15.3613 O   0  0  0  0  0  0  0  0  0  0  0  0
    6.0577  -11.4488   15.0020 C   0  0  2  0  0  0  0  0  0  0  0  0
    7.2773  -12.2968   15.5106 C   0  0  2  0  0  0  0  0  0  0  0  0
    7.2218  -13.5742   14.9625 O   0  0  0  0  0  0  0  0  0  0  0  0
    7.3351  -12.3548   17.0964 C   0  0  1  0  0  0  0  0  0  0  0  0
    8.5102  -13.1561   17.5588 N   0  0  0  0  0  0  0  0  0  0  0  0
    7.4021  -10.8678   17.6581 C   0  0  2  0  0  0  0  0  0  0  0  0
    7.4690  -10.8671   19.0895 O   0  0  0  0  0  0  0  0  0  0  0  0
    6.1329  -10.0889   17.1372 C   0  0  2  0  0  0  0  0  0  0  0  0
    6.0804  -10.0961   15.6155 O   0  0  0  0  0  0  0  0  0  0  0  0
    6.1375   -8.6566   17.6158 C   0  0  0  0  0  0  0  0  0  0  0  0
    5.9143   -8.5435   19.0335 O   0  0  0  0  0  0  0  0  0  0  0  0
   -2.5054  -14.0881   16.5564 O   0  0  0  0  0  0  0  0  0  0  0  0
   -2.2389  -15.4748   19.0325 O   0  0  0  0  0  0  0  0  0  0  0  0
    3.9060  -10.4147   11.6229 C   0  0  0  0  0  0  0  0  0  0  0  0
    3.2050  -11.1966   10.9142 O   0  0  0  0  0  0  0  0  0  0  0  0
    4.5487   -9.1166   11.0447 C   0  0  2  0  0  0  0  0  0  0  0  0
    6.9837   -7.2090   11.2675 N   0  0  0  0  0  0  0  0  0  0  0  0
    4.8330   -8.0819   12.1771 C   0  0  0  0  0  0  0  0  0  0  0  0
    5.6098   -6.8469   11.6909 C   0  0  0  0  0  0  0  0  0  0  0  0
    3.7861   -8.5165   10.2223 O   0  0  0  0  0  0  0  0  0  0  0  0
  1  2  1  1  0  0  0
  1  3  1  0  0  0  0
  1  8  1  0  0  0  0
  3  4  1  0  0  0  0
  3 32  1  1  0  0  0
  4  5  1  0  0  0  0
  4 33  1  1  0  0  0
  5  6  1  1  0  0  0
  5  7  1  0  0  0  0
  7  8  1  0  0  0  0
  7  9  1  6  0  0  0
  9 10  1  0  0  0  0
 11 12  1  6  0  0  0
 11 13  1  0  0  0  0
 11 19  1  0  0  0  0
 12 34  1  0  0  0  0
 13 14  1  0  0  0  0
 14 15  1  1  0  0  0
 14 16  1  0  0  0  0
 16  2  1  1  0  0  0
 16 17  1  0  0  0  0
 17 18  1  1  0  0  0
 17 19  1  0  0  0  0
 19 20  1  6  0  0  0
 21 20  1  1  0  0  0
 21 22  1  0  0  0  0
 21 29  1  0  0  0  0
 22 23  1  6  0  0  0
 22 24  1  0  0  0  0
 24 25  1  6  0  0  0
 24 26  1  0  0  0  0
 26 27  1  1  0  0  0
 26 28  1  0  0  0  0
 28 29  1  0  0  0  0
 28 30  1  6  0  0  0
 30 31  1  0  0  0  0
 34 35  2  0  0  0  0
 36 34  1  1  0  0  0
 36 38  1  0  0  0  0
 36 40  1  0  0  0  0
 37 39  1  0  0  0  0
 38 39  1  0  0  0  0
M  END
>  <CHROM.1>
-170.80308717,59.07366995,-62.78147914,-51.16814062,70.47722591,172.87283150
-69.51533550,-23.52036688,173.54804476,-66.34743606,3.33451855,-12.04309907
15.73739193,2.31517134,0.36295904,2.14432163

>  <Name>
ligand

>  <RI>
0

>  <Rbt.Current_Directory>
/home/itssahil/PROJECTS/Mol_Feturizer/New_Systems/rnas/4P20

>  <Rbt.Executable>
rbdock ($Id: //depot/dev/client3/rdock/2013.1/src/exe/rbdock.cxx#4 $)

>  <Rbt.Library>
libRbt.so (2013.1, Build901 2013/11/27)

>  <Rbt.Parameter_File>
/export/apps/rDock/src/rDock_2013.1_src/data/scripts/dock_solv.prm

>  <Rbt.Receptor>
prm/pocket_docking_8.prm

>  <SCORE>
-9.24693

>  <SCORE.INTER>
-0.00866178

>  <SCORE.INTER.CONST>
1

>  <SCORE.INTER.POLAR>
0

>  <SCORE.INTER.ROT>
10

>  <SCORE.INTER.SOLV>
14.3196

>  <SCORE.INTER.VDW>
-15.0456

>  <SCORE.INTER.norm>
-0.000216544

>  <SCORE.INTRA>
-9.23827

>  <SCORE.INTRA.DIHEDRAL>
-24.4596

>  <SCORE.INTRA.DIHEDRAL.0>
28.2802

>  <SCORE.INTRA.POLAR>
0

>  <SCORE.INTRA.POLAR.0>
0

>  <SCORE.INTRA.REPUL>
0

>  <SCORE.INTRA.REPUL.0>
0

>  <SCORE.INTRA.SOLV>
1.38903

>  <SCORE.INTRA.SOLV.lig_0>
-101.981

>  <SCORE.INTRA.VDW>
2.297

>  <SCORE.INTRA.VDW.0>
-5.72964

>  <SCORE.INTRA.norm>
-0.230957

>  <SCORE.RESTR>
0

>  <SCORE.RESTR.CAVITY>
0

>  <SCORE.RESTR.norm>
0

>  <SCORE.SYSTEM>
0

>  <SCORE.SYSTEM.CONST>
0

>  <SCORE.SYSTEM.DIHEDRAL>
0

>  <SCORE.SYSTEM.SOLV>
0

>  <SCORE.SYSTEM.norm>
0

>  <SCORE.heavy>
40

>  <SCORE.norm>
-0.231173

>  <RMSD>
8.938

$$$$
ligand
 OpenBabel11021811513D
libRbt.so/2013.1/901 2013/11/27
 40 42  0  0  0  0  0  0  0  0999 V2000
    1.7419  -10.7566   14.1253 C   0  0  2  0  0  0  0  0  0  0  0  0
    2.5159  -11.6552   14.9354 O   0  0  0  0  0  0  0  0  0  0  0  0
    1.3009  -11.4583   12.7865 C   0  0  1  0  0  0  0  0  0  0  0  0
    2.5249  -11.7875   11.8831 C   0  0  2  0  0  0  0  0  0  0  0  0
    3.2478  -10.4430   11.5544 C   0  0  2  0  0  0  0  0  0  0  0  0
    4.3767  -10.7078   10.6941 O   0  0  0  0  0  0  0  0  0  0  0  0
    3.7215   -9.7783   12.9201 C   0  0  2  0  0  0  0  0  0  0  0  0
    2.5255   -9.5222   13.7999 O   0  0  0  0  0  0  0  0  0  0  0  0
    4.4238   -8.4444   12.7069 C   0  0  0  0  0  0  0  0  0  0  0  0
    4.9440   -7.8851   13.9943 N   0  0  0  0  0  0  0  0  0  0  0  0
    3.4763  -11.8133   19.2229 C   0  0  2  0  0  0  0  0  0  0  0  0
    3.9880  -11.4195   20.5150 N   0  0  0  0  0  0  0  0  0  0  0  0
    4.6663  -11.8896   18.1833 C   0  0  0  0  0  0  0  0  0  0  0  0
    4.1158  -12.3187   16.7502 C   0  0  2  0  0  0  0  0  0  0  0  0
    5.2374  -12.4059   15.7786 N   0  0  0  0  0  0  0  0  0  0  0  0
    3.0170  -11.2603   16.2713 C   0  0  2  0  0  0  0  0  0  0  0  0
    1.8480  -11.2191   17.3453 C   0  0  2  0  0  0  0  0  0  0  0  0
    0.8581  -10.2778   16.9240 O   0  0  0  0  0  0  0  0  0  0  0  0
    2.4082  -10.7966   18.7606 C   0  0  1  0  0  0  0  0  0  0  0  0
    1.3336  -10.7842   19.7330 O   0  0  0  0  0  0  0  0  0  0  0  0
    0.9952   -9.7079   20.5405 C   0  0  2  0  0  0  0  0  0  0  0  0
    0.0275  -10.2409   21.6562 C   0  0  2  0  0  0  0  0  0  0  0  0
    0.6501  -11.2600   22.3697 O   0  0  0  0  0  0  0  0  0  0  0  0
   -1.3582  -10.7271   21.0521 C   0  0  1  0  0  0  0  0  0  0  0  0
   -2.2684  -11.2186   22.1324 N   0  0  0  0  0  0  0  0  0  0  0  0
   -2.0186   -9.5184   20.2559 C   0  0  2  0  0  0  0  0  0  0  0  0
   -3.2819   -9.9046   19.7007 O   0  0  0  0  0  0  0  0  0  0  0  0
   -1.0087   -9.0600   19.1339 C   0  0  2  0  0  0  0  0  0  0  0  0
    0.3257   -8.6495   19.7417 O   0  0  0  0  0  0  0  0  0  0  0  0
   -1.5610   -7.8967   18.3452 C   0  0  0  0  0  0  0  0  0  0  0  0
   -1.9642   -6.7980   19.1837 O   0  0  0  0  0  0  0  0  0  0  0  0
    0.5690  -12.6721   13.1257 O   0  0  0  0  0  0  0  0  0  0  0  0
    2.0826  -12.3848   10.7275 O   0  0  0  0  0  0  0  0  0  0  0  0
    5.0321  -12.2095   21.1256 C   0  0  0  0  0  0  0  0  0  0  0  0
    5.1866  -13.4197   20.7845 O   0  0  0  0  0  0  0  0  0  0  0  0
    5.9328  -11.5246   22.1989 C   0  0  2  0  0  0  0  0  0  0  0  0
    5.0283   -8.6253   22.3413 N   0  0  0  0  0  0  0  0  0  0  0  0
    6.7033  -10.3123   21.5905 C   0  0  0  0  0  0  0  0  0  0  0  0
    5.7822   -9.1518   21.1783 C   0  0  0  0  0  0  0  0  0  0  0  0
    6.8310  -12.3023   22.6534 O   0  0  0  0  0  0  0  0  0  0  0  0
  1  2  1  1  0  0  0
  1  3  1  0  0  0  0
  1  8  1  0  0  0  0
  3  4  1  0  0  0  0
  3 32  1  1  0  0  0
  4  5  1  0  0  0  0
  4 33  1  6  0  0  0
  5  6  1  6  0  0  0
  5  7  1  0  0  0  0
  7  8  1  0  0  0  0
  7  9  1  6  0  0  0
  9 10  1  0  0  0  0
 11 12  1  1  0  0  0
 11 13  1  0  0  0  0
 11 19  1  0  0  0  0
 12 34  1  0  0  0  0
 13 14  1  0  0  0  0
 14 15  1  6  0  0  0
 14 16  1  0  0  0  0
 16  2  1  6  0  0  0
 16 17  1  0  0  0  0
 17 18  1  6  0  0  0
 17 19  1  0  0  0  0
 19 20  1  1  0  0  0
 21 20  1  6  0  0  0
 21 22  1  0  0  0  0
 21 29  1  0  0  0  0
 22 23  1  6  0  0  0
 22 24  1  0  0  0  0
 24 25  1  1  0  0  0
 24 26  1  0  0  0  0
 26 27  1  6  0  0  0
 26 28  1  0  0  0  0
 28 29  1  0  0  0  0
 28 30  1  1  0  0  0
 30 31  1  0  0  0  0
 34 35  2  0  0  0  0
 36 34  1  6  0  0  0
 36 38  1  0  0  0  0
 36 40  1  0  0  0  0
 37 39  1  0  0  0  0
 38 39  1  0  0  0  0
M  END
>  <CHROM.1>
-177.87227609,-166.38783477,-176.02623784,-56.52829678,114.53264837,-166.59253303
53.53421459,-60.96290320,66.61052800,60.29428857,2.32312338,-10.60328596
17.69752300,1.45550361,0.25210196,-1.58351125

>  <Name>
ligand

>  <RI>
0

>  <Rbt.Current_Directory>
/home/itssahil/PROJECTS/Mol_Feturizer/New_Systems/rnas/4P20

>  <Rbt.Executable>
rbdock ($Id: //depot/dev/client3/rdock/2013.1/src/exe/rbdock.cxx#4 $)

>  <Rbt.Library>
libRbt.so (2013.1, Build901 2013/11/27)

>  <Rbt.Parameter_File>
/export/apps/rDock/src/rDock_2013.1_src/data/scripts/dock_solv.prm

>  <Rbt.Receptor>
prm/pocket_docking_7.prm

>  <SCORE>
-11.6829

>  <SCORE.INTER>
-3.80333

>  <SCORE.INTER.CONST>
1

>  <SCORE.INTER.POLAR>
0

>  <SCORE.INTER.ROT>
10

>  <SCORE.INTER.SOLV>
16.0157

>  <SCORE.INTER.VDW>
-18.1408

>  <SCORE.INTER.norm>
-0.0950834

>  <SCORE.INTRA>
-7.87952

>  <SCORE.INTRA.DIHEDRAL>
-18.2947

>  <SCORE.INTRA.DIHEDRAL.0>
28.2802

>  <SCORE.INTRA.POLAR>
0

>  <SCORE.INTRA.POLAR.0>
0

>  <SCORE.INTRA.REPUL>
0

>  <SCORE.INTRA.REPUL.0>
0

>  <SCORE.INTRA.SOLV>
0.494423

>  <SCORE.INTRA.SOLV.lig_0>
-101.981

>  <SCORE.INTRA.VDW>
1.02061

>  <SCORE.INTRA.VDW.0>
-5.72964

>  <SCORE.INTRA.norm>
-0.196988

>  <SCORE.RESTR>
0

>  <SCORE.RESTR.CAVITY>
0

>  <SCORE.RESTR.norm>
0

>  <SCORE.SYSTEM>
0

>  <SCORE.SYSTEM.CONST>
0

>  <SCORE.SYSTEM.DIHEDRAL>
0

>  <SCORE.SYSTEM.SOLV>
0

>  <SCORE.SYSTEM.norm>
0

>  <SCORE.heavy>
40

>  <SCORE.norm>
-0.292071

>  <RMSD>
8.952

$$$$
ligand
 OpenBabel11021811513D
libRbt.so/2013.1/901 2013/11/27
 40 42  0  0  0  0  0  0  0  0999 V2000
   -6.2585   -9.8406   16.6569 C   0  0  2  0  0  0  0  0  0  0  0  0
   -4.9924   -9.6657   17.3123 O   0  0  0  0  0  0  0  0  0  0  0  0
   -6.7137   -8.5011   15.9656 C   0  0  1  0  0  0  0  0  0  0  0  0
   -7.0058   -7.3873   17.0130 C   0  0  2  0  0  0  0  0  0  0  0  0
   -8.1427   -7.9036   17.9506 C   0  0  2  0  0  0  0  0  0  0  0  0
   -8.4588   -6.8830   18.9217 O   0  0  0  0  0  0  0  0  0  0  0  0
   -7.6397   -9.2311   18.6692 C   0  0  2  0  0  0  0  0  0  0  0  0
   -7.3092  -10.2735   17.6327 O   0  0  0  0  0  0  0  0  0  0  0  0
   -8.6907   -9.8273   19.5954 C   0  0  0  0  0  0  0  0  0  0  0  0
   -9.9295  -10.2095   18.8471 N   0  0  0  0  0  0  0  0  0  0  0  0
   -0.9360  -10.6753   15.9499 C   0  0  2  0  0  0  0  0  0  0  0  0
    0.2885  -10.6352   15.1848 N   0  0  0  0  0  0  0  0  0  0  0  0
   -2.1515  -10.9890   14.9872 C   0  0  0  0  0  0  0  0  0  0  0  0
   -3.5117  -11.0316   15.8173 C   0  0  2  0  0  0  0  0  0  0  0  0
   -4.6505  -11.3427   14.9140 N   0  0  0  0  0  0  0  0  0  0  0  0
   -3.7231   -9.6269   16.5515 C   0  0  2  0  0  0  0  0  0  0  0  0
   -2.4799   -9.3573   17.5021 C   0  0  2  0  0  0  0  0  0  0  0  0
   -2.6614   -8.1047   18.1663 O   0  0  0  0  0  0  0  0  0  0  0  0
   -1.1394   -9.3217   16.6672 C   0  0  1  0  0  0  0  0  0  0  0  0
   -0.0133   -9.0959   17.5513 O   0  0  0  0  0  0  0  0  0  0  0  0
    0.0856   -8.0676   18.4774 C   0  0  2  0  0  0  0  0  0  0  0  0
    1.6043   -7.9038   18.8404 C   0  0  2  0  0  0  0  0  0  0  0  0
    2.3374   -7.6462   17.6865 O   0  0  0  0  0  0  0  0  0  0  0  0
    2.1681   -9.1752   19.6065 C   0  0  1  0  0  0  0  0  0  0  0  0
    3.6115   -8.9929   19.9534 N   0  0  0  0  0  0  0  0  0  0  0  0
    1.2928   -9.4114   20.9139 C   0  0  2  0  0  0  0  0  0  0  0  0
    1.7719  -10.5442   21.6493 O   0  0  0  0  0  0  0  0  0  0  0  0
   -0.2093   -9.6016   20.4708 C   0  0  2  0  0  0  0  0  0  0  0  0
   -0.7026   -8.3877   19.6952 O   0  0  0  0  0  0  0  0  0  0  0  0
   -1.1081   -9.8117   21.6661 C   0  0  0  0  0  0  0  0  0  0  0  0
   -2.4850  -10.0140   21.2975 O   0  0  0  0  0  0  0  0  0  0  0  0
   -5.6642   -8.0814   15.0456 O   0  0  0  0  0  0  0  0  0  0  0  0
   -7.4097   -6.2493   16.3577 O   0  0  0  0  0  0  0  0  0  0  0  0
    1.0430  -11.8541   15.0057 C   0  0  0  0  0  0  0  0  0  0  0  0
    0.9039  -12.8070   15.8289 O   0  0  0  0  0  0  0  0  0  0  0  0
    2.0146  -11.9391   13.7887 C   0  0  2  0  0  0  0  0  0  0  0  0
    3.0430  -11.0111   11.1062 N   0  0  0  0  0  0  0  0  0  0  0  0
    1.2234  -12.0596   12.4496 C   0  0  0  0  0  0  0  0  0  0  0  0
    2.1326  -12.1763   11.2148 C   0  0  0  0  0  0  0  0  0  0  0  0
    2.7648  -12.9655   13.8314 O   0  0  0  0  0  0  0  0  0  0  0  0
  1  2  1  1  0  0  0
  1  3  1  0  0  0  0
  1  8  1  0  0  0  0
  3  4  1  0  0  0  0
  3 32  1  6  0  0  0
  4  5  1  0  0  0  0
  4 33  1  6  0  0  0
  5  6  1  1  0  0  0
  5  7  1  0  0  0  0
  7  8  1  0  0  0  0
  7  9  1  1  0  0  0
  9 10  1  0  0  0  0
 11 12  1  6  0  0  0
 11 13  1  0  0  0  0
 11 19  1  0  0  0  0
 12 34  1  0  0  0  0
 13 14  1  0  0  0  0
 14 15  1  6  0  0  0
 14 16  1  0  0  0  0
 16  2  1  1  0  0  0
 16 17  1  0  0  0  0
 17 18  1  6  0  0  0
 17 19  1  0  0  0  0
 19 20  1  1  0  0  0
 21 20  1  6  0  0  0
 21 22  1  0  0  0  0
 21 29  1  0  0  0  0
 22 23  1  6  0  0  0
 22 24  1  0  0  0  0
 24 25  1  1  0  0  0
 24 26  1  0  0  0  0
 26 27  1  6  0  0  0
 26 28  1  0  0  0  0
 28 29  1  0  0  0  0
 28 30  1  1  0  0  0
 30 31  1  0  0  0  0
 34 35  2  0  0  0  0
 36 34  1  1  0  0  0
 36 38  1  0  0  0  0
 36 40  1  0  0  0  0
 37 39  1  0  0  0  0
 38 39  1  0  0  0  0
M  END
>  <CHROM.1>
-76.61688687,-62.54727840,61.10823935,-89.74451092,-171.95892552,-160.81846569
-178.91492942,-71.56137001,-178.81428349,-58.11098072,-2.20619524,-9.69946018
17.19253553,2.87169352,-0.14302129,1.25111029

>  <Name>
ligand

>  <RI>
0

>  <Rbt.Current_Directory>
/home/itssahil/PROJECTS/Mol_Feturizer/New_Systems/rnas/4P20

>  <Rbt.Executable>
rbdock ($Id: //depot/dev/client3/rdock/2013.1/src/exe/rbdock.cxx#4 $)

>  <Rbt.Library>
libRbt.so (2013.1, Build901 2013/11/27)

>  <Rbt.Parameter_File>
/export/apps/rDock/src/rDock_2013.1_src/data/scripts/dock_solv.prm

>  <Rbt.Receptor>
prm/pocket_docking_6.prm

>  <SCORE>
-7.52132

>  <SCORE.INTER>
-0.177343

>  <SCORE.INTER.CONST>
1

>  <SCORE.INTER.POLAR>
0

>  <SCORE.INTER.ROT>
10

>  <SCORE.INTER.SOLV>
15.6256

>  <SCORE.INTER.VDW>
-15.5934

>  <SCORE.INTER.norm>
-0.00443356

>  <SCORE.INTRA>
-7.35134

>  <SCORE.INTRA.DIHEDRAL>
-23.406

>  <SCORE.INTRA.DIHEDRAL.0>
28.2802

>  <SCORE.INTRA.POLAR>
0

>  <SCORE.INTRA.POLAR.0>
0

>  <SCORE.INTRA.REPUL>
0

>  <SCORE.INTRA.REPUL.0>
0

>  <SCORE.INTRA.SOLV>
2.85652

>  <SCORE.INTRA.SOLV.lig_0>
-101.981

>  <SCORE.INTRA.VDW>
2.9234

>  <SCORE.INTRA.VDW.0>
-5.72964

>  <SCORE.INTRA.norm>
-0.183784

>  <SCORE.RESTR>
0.00736216

>  <SCORE.RESTR.CAVITY>
0.00736216

>  <SCORE.RESTR.norm>
0.000184054

>  <SCORE.SYSTEM>
0

>  <SCORE.SYSTEM.CONST>
0

>  <SCORE.SYSTEM.DIHEDRAL>
0

>  <SCORE.SYSTEM.SOLV>
0

>  <SCORE.SYSTEM.norm>
0

>  <SCORE.heavy>
40

>  <SCORE.norm>
-0.188033

>  <RMSD>
8.964

$$$$
ligand
 OpenBabel11021811513D
libRbt.so/2013.1/901 2013/11/27
 40 42  0  0  0  0  0  0  0  0999 V2000
    4.7028  -10.9598   14.2074 C   0  0  2  0  0  0  0  0  0  0  0  0
    3.6036  -10.5974   15.0579 O   0  0  0  0  0  0  0  0  0  0  0  0
    4.8627   -9.9200   13.0359 C   0  0  1  0  0  0  0  0  0  0  0  0
    3.6411   -9.9521   12.0718 C   0  0  2  0  0  0  0  0  0  0  0  0
    3.5407  -11.3937   11.4804 C   0  0  2  0  0  0  0  0  0  0  0  0
    2.4307  -11.4537   10.5589 O   0  0  0  0  0  0  0  0  0  0  0  0
    3.3349  -12.4178   12.6805 C   0  0  2  0  0  0  0  0  0  0  0  0
    4.5020  -12.3269   13.6291 O   0  0  0  0  0  0  0  0  0  0  0  0
    3.2452  -13.8619   12.2064 C   0  0  0  0  0  0  0  0  0  0  0  0
    4.6027  -14.4598   12.0055 N   0  0  0  0  0  0  0  0  0  0  0  0
    3.7372   -8.7358   19.0386 C   0  0  2  0  0  0  0  0  0  0  0  0
    3.8995   -7.7295   20.0621 N   0  0  0  0  0  0  0  0  0  0  0  0
    5.0938   -8.9044   18.2424 C   0  0  0  0  0  0  0  0  0  0  0  0
    4.9285  -10.0093   17.1053 C   0  0  2  0  0  0  0  0  0  0  0  0
    6.2087  -10.1782   16.3690 N   0  0  0  0  0  0  0  0  0  0  0  0
    3.7471   -9.5752   16.1190 C   0  0  2  0  0  0  0  0  0  0  0  0
    2.4113   -9.4176   16.9632 C   0  0  2  0  0  0  0  0  0  0  0  0
    1.3477   -9.0330   16.0892 O   0  0  0  0  0  0  0  0  0  0  0  0
    2.5907   -8.3232   18.0881 C   0  0  1  0  0  0  0  0  0  0  0  0
    1.3709   -8.2065   18.8621 O   0  0  0  0  0  0  0  0  0  0  0  0
    0.1854   -7.6446   18.4109 C   0  0  2  0  0  0  0  0  0  0  0  0
   -0.7225   -7.3872   19.6657 C   0  0  2  0  0  0  0  0  0  0  0  0
   -0.0566   -6.5611   20.5653 O   0  0  0  0  0  0  0  0  0  0  0  0
   -1.1717   -8.7442   20.3571 C   0  0  1  0  0  0  0  0  0  0  0  0
   -2.0450   -8.4765   21.5413 N   0  0  0  0  0  0  0  0  0  0  0  0
   -1.9290   -9.6378   19.2804 C   0  0  2  0  0  0  0  0  0  0  0  0
   -2.3671  -10.8724   19.8612 O   0  0  0  0  0  0  0  0  0  0  0  0
   -0.9480   -9.8835   18.0694 C   0  0  2  0  0  0  0  0  0  0  0  0
   -0.4964   -8.5621   17.4623 O   0  0  0  0  0  0  0  0  0  0  0  0
   -1.6075  -10.7119   16.9927 C   0  0  0  0  0  0  0  0  0  0  0  0
   -1.8902  -12.0570   17.4211 O   0  0  0  0  0  0  0  0  0  0  0  0
    5.0243   -8.5944   13.6195 O   0  0  0  0  0  0  0  0  0  0  0  0
    3.8388   -9.0378   11.0655 O   0  0  0  0  0  0  0  0  0  0  0  0
    3.7345   -8.1057   21.4470 C   0  0  0  0  0  0  0  0  0  0  0  0
    3.0508   -9.1302   21.7437 O   0  0  0  0  0  0  0  0  0  0  0  0
    4.4135   -7.2140   22.5317 C   0  0  2  0  0  0  0  0  0  0  0  0
    4.5315   -3.3573   22.9173 N   0  0  0  0  0  0  0  0  0  0  0  0
    4.3977   -5.7122   22.1101 C   0  0  0  0  0  0  0  0  0  0  0  0
    4.8873   -4.7648   23.2182 C   0  0  0  0  0  0  0  0  0  0  0  0
    5.6398   -7.5032   22.7062 O   0  0  0  0  0  0  0  0  0  0  0  0
  1  2  1  6  0  0  0
  1  3  1  0  0  0  0
  1  8  1  0  0  0  0
  3  4  1  0  0  0  0
  3 32  1  1  0  0  0
  4  5  1  0  0  0  0
  4 33  1  6  0  0  0
  5  6  1  6  0  0  0
  5  7  1  0  0  0  0
  7  8  1  0  0  0  0
  7  9  1  6  0  0  0
  9 10  1  0  0  0  0
 11 12  1  1  0  0  0
 11 13  1  0  0  0  0
 11 19  1  0  0  0  0
 12 34  1  0  0  0  0
 13 14  1  0  0  0  0
 14 15  1  6  0  0  0
 14 16  1  0  0  0  0
 16  2  1  6  0  0  0
 16 17  1  0  0  0  0
 17 18  1  6  0  0  0
 17 19  1  0  0  0  0
 19 20  1  1  0  0  0
 21 20  1  1  0  0  0
 21 22  1  0  0  0  0
 21 29  1  0  0  0  0
 22 23  1  1  0  0  0
 22 24  1  0  0  0  0
 24 25  1  1  0  0  0
 24 26  1  0  0  0  0
 26 27  1  1  0  0  0
 26 28  1  0  0  0  0
 28 29  1  0  0  0  0
 28 30  1  6  0  0  0
 30 31  1  0  0  0  0
 34 35  2  0  0  0  0
 36 34  1  6  0  0  0
 36 38  1  0  0  0  0
 36 40  1  0  0  0  0
 37 39  1  0  0  0  0
 38 39  1  0  0  0  0
M  END
>  <CHROM.1>
-81.56242013,-56.87349111,83.17261890,-118.28233246,168.64415526,-165.34077571
-66.39215390,34.95376403,172.49859145,-165.27086019,2.48433381,-9.29609817
17.34755018,-1.42141108,0.24527135,1.07590336

>  <Name>
ligand

>  <RI>
0

>  <Rbt.Current_Directory>
/home/itssahil/PROJECTS/Mol_Feturizer/New_Systems/rnas/4P20

>  <Rbt.Executable>
rbdock ($Id: //depot/dev/client3/rdock/2013.1/src/exe/rbdock.cxx#4 $)

>  <Rbt.Library>
libRbt.so (2013.1, Build901 2013/11/27)

>  <Rbt.Parameter_File>
/export/apps/rDock/src/rDock_2013.1_src/data/scripts/dock_solv.prm

>  <Rbt.Receptor>
prm/pocket_docking_3.prm

>  <SCORE>
-8.73424

>  <SCORE.INTER>
-4.647

>  <SCORE.INTER.CONST>
1

>  <SCORE.INTER.POLAR>
0

>  <SCORE.INTER.ROT>
10

>  <SCORE.INTER.SOLV>
22.6948

>  <SCORE.INTER.VDW>
-20.9296

>  <SCORE.INTER.norm>
-0.116175

>  <SCORE.INTRA>
-5.4705

>  <SCORE.INTRA.DIHEDRAL>
-19.0815

>  <SCORE.INTRA.DIHEDRAL.0>
28.2802

>  <SCORE.INTRA.POLAR>
0

>  <SCORE.INTRA.POLAR.0>
0

>  <SCORE.INTRA.REPUL>
0

>  <SCORE.INTRA.REPUL.0>
0

>  <SCORE.INTRA.SOLV>
1.66058

>  <SCORE.INTRA.SOLV.lig_0>
-101.981

>  <SCORE.INTRA.VDW>
3.23995

>  <SCORE.INTRA.VDW.0>
-5.72964

>  <SCORE.INTRA.norm>
-0.136762

>  <SCORE.RESTR>
1.38325

>  <SCORE.RESTR.CAVITY>
1.38325

>  <SCORE.RESTR.norm>
0.0345813

>  <SCORE.SYSTEM>
0

>  <SCORE.SYSTEM.CONST>
0

>  <SCORE.SYSTEM.DIHEDRAL>
0

>  <SCORE.SYSTEM.SOLV>
0

>  <SCORE.SYSTEM.norm>
0

>  <SCORE.heavy>
40

>  <SCORE.norm>
-0.218356

>  <RMSD>
8.987

$$$$
ligand
 OpenBabel11021811513D
libRbt.so/2013.1/901 2013/11/27
 40 42  0  0  0  0  0  0  0  0999 V2000
   -1.1174  -11.3887   16.0631 C   0  0  2  0  0  0  0  0  0  0  0  0
   -0.9840   -9.9796   15.8191 O   0  0  0  0  0  0  0  0  0  0  0  0
   -2.6286  -11.8237   15.9841 C   0  0  1  0  0  0  0  0  0  0  0  0
   -3.4688  -11.1833   17.1272 C   0  0  2  0  0  0  0  0  0  0  0  0
   -2.8600  -11.6551   18.4855 C   0  0  2  0  0  0  0  0  0  0  0  0
   -3.6323  -11.0995   19.5715 O   0  0  0  0  0  0  0  0  0  0  0  0
   -1.3483  -11.1641   18.5580 C   0  0  2  0  0  0  0  0  0  0  0  0
   -0.5699  -11.7513   17.4093 O   0  0  0  0  0  0  0  0  0  0  0  0
   -0.6562  -11.5945   19.8441 C   0  0  0  0  0  0  0  0  0  0  0  0
    0.7799  -11.1728   19.8630 N   0  0  0  0  0  0  0  0  0  0  0  0
    3.2688   -9.2498   16.6626 C   0  0  2  0  0  0  0  0  0  0  0  0
    4.5447   -8.5754   16.7228 N   0  0  0  0  0  0  0  0  0  0  0  0
    2.8159   -9.3919   15.1534 C   0  0  0  0  0  0  0  0  0  0  0  0
    1.4059  -10.1307   15.0712 C   0  0  2  0  0  0  0  0  0  0  0  0
    0.9897  -10.2780   13.6519 N   0  0  0  0  0  0  0  0  0  0  0  0
    0.3268   -9.2971   15.9066 C   0  0  2  0  0  0  0  0  0  0  0  0
    0.8260   -9.1809   17.4097 C   0  0  2  0  0  0  0  0  0  0  0  0
   -0.1344   -8.4401   18.1660 O   0  0  0  0  0  0  0  0  0  0  0  0
    2.2253   -8.4509   17.4756 C   0  0  1  0  0  0  0  0  0  0  0  0
    2.6762   -8.3717   18.8508 O   0  0  0  0  0  0  0  0  0  0  0  0
    1.9830   -7.7652   19.8883 C   0  0  2  0  0  0  0  0  0  0  0  0
    2.3881   -6.2484   19.9035 C   0  0  2  0  0  0  0  0  0  0  0  0
    2.0999   -5.6733   18.6701 O   0  0  0  0  0  0  0  0  0  0  0  0
    3.9164   -6.0499   20.2861 C   0  0  1  0  0  0  0  0  0  0  0  0
    4.2774   -4.5987   20.3069 N   0  0  0  0  0  0  0  0  0  0  0  0
    4.1780   -6.7231   21.7037 C   0  0  2  0  0  0  0  0  0  0  0  0
    5.5451   -6.5590   22.1005 O   0  0  0  0  0  0  0  0  0  0  0  0
    3.7830   -8.2472   21.6035 C   0  0  2  0  0  0  0  0  0  0  0  0
    2.3271   -8.4025   21.1853 O   0  0  0  0  0  0  0  0  0  0  0  0
    3.9863   -8.9513   22.9238 C   0  0  0  0  0  0  0  0  0  0  0  0
    3.6433  -10.3484   22.8674 O   0  0  0  0  0  0  0  0  0  0  0  0
   -3.1496  -11.4331   14.6802 O   0  0  0  0  0  0  0  0  0  0  0  0
   -4.7717  -11.6053   17.0177 O   0  0  0  0  0  0  0  0  0  0  0  0
    5.6021   -9.1468   17.5242 C   0  0  0  0  0  0  0  0  0  0  0  0
    5.3161   -9.9335   18.4752 O   0  0  0  0  0  0  0  0  0  0  0  0
    7.0722   -8.7574   17.1783 C   0  0  2  0  0  0  0  0  0  0  0  0
    7.1983  -10.0648   13.5121 N   0  0  0  0  0  0  0  0  0  0  0  0
    7.3032   -8.7629   15.6355 C   0  0  0  0  0  0  0  0  0  0  0  0
    6.9932  -10.1188   14.9794 C   0  0  0  0  0  0  0  0  0  0  0  0
    7.9207   -9.5792   17.6500 O   0  0  0  0  0  0  0  0  0  0  0  0
  1  2  1  1  0  0  0
  1  3  1  0  0  0  0
  1  8  1  0  0  0  0
  3  4  1  0  0  0  0
  3 32  1  6  0  0  0
  4  5  1  0  0  0  0
  4 33  1  6  0  0  0
  5  6  1  1  0  0  0
  5  7  1  0  0  0  0
  7  8  1  0  0  0  0
  7  9  1  1  0  0  0
  9 10  1  0  0  0  0
 11 12  1  6  0  0  0
 11 13  1  0  0  0  0
 11 19  1  0  0  0  0
 12 34  1  0  0  0  0
 13 14  1  0  0  0  0
 14 15  1  6  0  0  0
 14 16  1  0  0  0  0
 16  2  1  1  0  0  0
 16 17  1  0  0  0  0
 17 18  1  1  0  0  0
 17 19  1  0  0  0  0
 19 20  1  1  0  0  0
 21 20  1  6  0  0  0
 21 22  1  0  0  0  0
 21 29  1  0  0  0  0
 22 23  1  6  0  0  0
 22 24  1  0  0  0  0
 24 25  1  1  0  0  0
 24 26  1  0  0  0  0
 26 27  1  6  0  0  0
 26 28  1  0  0  0  0
 28 29  1  0  0  0  0
 28 30  1  1  0  0  0
 30 31  1  0  0  0  0
 34 35  2  0  0  0  0
 36 34  1  6  0  0  0
 36 38  1  0  0  0  0
 36 40  1  0  0  0  0
 37 39  1  0  0  0  0
 38 39  1  0  0  0  0
M  END
>  <CHROM.1>
176.66971805,48.71023187,177.53368097,-131.02523686,-178.00020194,-87.68327051
-179.63263519,-42.69131241,-57.79997864,178.72594621,1.97636092,-9.33946063
18.07552168,-2.80308267,0.27872842,1.22588827

>  <Name>
ligand

>  <RI>
0

>  <Rbt.Current_Directory>
/home/itssahil/PROJECTS/Mol_Feturizer/New_Systems/rnas/4P20

>  <Rbt.Executable>
rbdock ($Id: //depot/dev/client3/rdock/2013.1/src/exe/rbdock.cxx#4 $)

>  <Rbt.Library>
libRbt.so (2013.1, Build901 2013/11/27)

>  <Rbt.Parameter_File>
/export/apps/rDock/src/rDock_2013.1_src/data/scripts/dock_solv.prm

>  <Rbt.Receptor>
prm/pocket_docking_6.prm

>  <SCORE>
-9.05742

>  <SCORE.INTER>
-0.267658

>  <SCORE.INTER.CONST>
1

>  <SCORE.INTER.POLAR>
0

>  <SCORE.INTER.ROT>
10

>  <SCORE.INTER.SOLV>
19.9611

>  <SCORE.INTER.VDW>
-17.0988

>  <SCORE.INTER.norm>
-0.00669145

>  <SCORE.INTRA>
-8.78976

>  <SCORE.INTRA.DIHEDRAL>
-22.1434

>  <SCORE.INTRA.DIHEDRAL.0>
28.2802

>  <SCORE.INTRA.POLAR>
0

>  <SCORE.INTRA.POLAR.0>
0

>  <SCORE.INTRA.REPUL>
0

>  <SCORE.INTRA.REPUL.0>
0

>  <SCORE.INTRA.SOLV>
3.54292

>  <SCORE.INTRA.SOLV.lig_0>
-101.981

>  <SCORE.INTRA.VDW>
0.510484

>  <SCORE.INTRA.VDW.0>
-5.72964

>  <SCORE.INTRA.norm>
-0.219744

>  <SCORE.RESTR>
0

>  <SCORE.RESTR.CAVITY>
0

>  <SCORE.RESTR.norm>
0

>  <SCORE.SYSTEM>
0

>  <SCORE.SYSTEM.CONST>
0

>  <SCORE.SYSTEM.DIHEDRAL>
0

>  <SCORE.SYSTEM.SOLV>
0

>  <SCORE.SYSTEM.norm>
0

>  <SCORE.heavy>
40

>  <SCORE.norm>
-0.226436

>  <RMSD>
8.988

$$$$
ligand
 OpenBabel11021811513D
libRbt.so/2013.1/901 2013/11/27
 40 42  0  0  0  0  0  0  0  0999 V2000
   -4.2119   -7.8810   18.3921 C   0  0  2  0  0  0  0  0  0  0  0  0
   -3.8952   -8.7017   19.5276 O   0  0  0  0  0  0  0  0  0  0  0  0
   -5.6973   -7.3658   18.4783 C   0  0  1  0  0  0  0  0  0  0  0  0
   -6.7164   -8.5371   18.3663 C   0  0  2  0  0  0  0  0  0  0  0  0
   -6.4857   -9.2373   16.9899 C   0  0  2  0  0  0  0  0  0  0  0  0
   -7.4337  -10.3159   16.8400 O   0  0  0  0  0  0  0  0  0  0  0  0
   -4.9931   -9.7868   16.9478 C   0  0  2  0  0  0  0  0  0  0  0  0
   -4.0275   -8.6423   17.1154 O   0  0  0  0  0  0  0  0  0  0  0  0
   -4.6610  -10.4732   15.6299 C   0  0  0  0  0  0  0  0  0  0  0  0
   -5.4825  -11.7086   15.4314 N   0  0  0  0  0  0  0  0  0  0  0  0
   -0.0265   -9.7829   21.3145 C   0  0  2  0  0  0  0  0  0  0  0  0
    1.2719  -10.3958   21.4731 N   0  0  0  0  0  0  0  0  0  0  0  0
   -1.1292  -10.9084   21.1728 C   0  0  0  0  0  0  0  0  0  0  0  0
   -2.5680  -10.2467   20.9920 C   0  0  2  0  0  0  0  0  0  0  0  0
   -3.6048  -11.3055   20.8755 N   0  0  0  0  0  0  0  0  0  0  0  0
   -2.5547   -9.3058   19.6992 C   0  0  2  0  0  0  0  0  0  0  0  0
   -1.4338   -8.1969   19.8883 C   0  0  2  0  0  0  0  0  0  0  0  0
   -1.4165   -7.3478   18.7385 O   0  0  0  0  0  0  0  0  0  0  0  0
   -0.0147   -8.8666   20.0702 C   0  0  1  0  0  0  0  0  0  0  0  0
    0.9931   -7.8428   20.2624 O   0  0  0  0  0  0  0  0  0  0  0  0
    1.3774   -6.9075   19.3125 C   0  0  2  0  0  0  0  0  0  0  0  0
    2.0276   -7.6895   18.1163 C   0  0  2  0  0  0  0  0  0  0  0  0
    1.1185   -8.6124   17.6095 O   0  0  0  0  0  0  0  0  0  0  0  0
    3.3851   -8.3953   18.5414 C   0  0  1  0  0  0  0  0  0  0  0  0
    3.9932   -9.1232   17.3850 N   0  0  0  0  0  0  0  0  0  0  0  0
    4.3794   -7.2887   19.1054 C   0  0  2  0  0  0  0  0  0  0  0  0
    5.6280   -7.8760   19.4918 O   0  0  0  0  0  0  0  0  0  0  0  0
    3.6758   -6.5712   20.3216 C   0  0  2  0  0  0  0  0  0  0  0  0
    2.3538   -5.9497   19.8921 O   0  0  0  0  0  0  0  0  0  0  0  0
    4.5559   -5.4885   20.8993 C   0  0  0  0  0  0  0  0  0  0  0  0
    4.0080   -4.9069   22.0970 O   0  0  0  0  0  0  0  0  0  0  0  0
   -5.8632   -6.6569   19.7408 O   0  0  0  0  0  0  0  0  0  0  0  0
   -7.9919   -8.0308   18.4346 O   0  0  0  0  0  0  0  0  0  0  0  0
    1.7319  -10.7289   22.8014 C   0  0  0  0  0  0  0  0  0  0  0  0
    1.2489  -10.1246   23.8047 O   0  0  0  0  0  0  0  0  0  0  0  0
    2.8248  -11.8329   22.9401 C   0  0  2  0  0  0  0  0  0  0  0  0
    6.5156  -11.9646   21.7041 N   0  0  0  0  0  0  0  0  0  0  0  0
    4.1345  -11.4182   22.2011 C   0  0  0  0  0  0  0  0  0  0  0  0
    5.2987  -12.3960   22.4330 C   0  0  0  0  0  0  0  0  0  0  0  0
    2.4752  -12.9372   22.4143 O   0  0  0  0  0  0  0  0  0  0  0  0
  1  2  1  1  0  0  0
  1  3  1  0  0  0  0
  1  8  1  0  0  0  0
  3  4  1  0  0  0  0
  3 32  1  1  0  0  0
  4  5  1  0  0  0  0
  4 33  1  6  0  0  0
  5  6  1  1  0  0  0
  5  7  1  0  0  0  0
  7  8  1  0  0  0  0
  7  9  1  6  0  0  0
  9 10  1  0  0  0  0
 11 12  1  6  0  0  0
 11 13  1  0  0  0  0
 11 19  1  0  0  0  0
 12 34  1  0  0  0  0
 13 14  1  0  0  0  0
 14 15  1  6  0  0  0
 14 16  1  0  0  0  0
 16  2  1  1  0  0  0
 16 17  1  0  0  0  0
 17 18  1  6  0  0  0
 17 19  1  0  0  0  0
 19 20  1  1  0  0  0
 21 20  1  1  0  0  0
 21 22  1  0  0  0  0
 21 29  1  0  0  0  0
 22 23  1  1  0  0  0
 22 24  1  0  0  0  0
 24 25  1  6  0  0  0
 24 26  1  0  0  0  0
 26 27  1  1  0  0  0
 26 28  1  0  0  0  0
 28 29  1  0  0  0  0
 28 30  1  6  0  0  0
 30 31  1  0  0  0  0
 34 35  2  0  0  0  0
 36 34  1  6  0  0  0
 36 38  1  0  0  0  0
 36 40  1  0  0  0  0
 37 39  1  0  0  0  0
 38 39  1  0  0  0  0
M  END
>  <CHROM.1>
-179.46724783,-175.52802519,-64.71041465,-88.47122301,174.07619220,-64.20718262
-173.86743571,61.22943902,173.63241735,179.60480680,-0.44512136,-9.01607363
19.68521442,-2.98693534,0.28395433,2.65532085

>  <Name>
ligand

>  <RI>
0

>  <Rbt.Current_Directory>
/home/itssahil/PROJECTS/Mol_Feturizer/New_Systems/rnas/4P20

>  <Rbt.Executable>
rbdock ($Id: //depot/dev/client3/rdock/2013.1/src/exe/rbdock.cxx#4 $)

>  <Rbt.Library>
libRbt.so (2013.1, Build901 2013/11/27)

>  <Rbt.Parameter_File>
/export/apps/rDock/src/rDock_2013.1_src/data/scripts/dock_solv.prm

>  <Rbt.Receptor>
prm/pocket_docking_7.prm

>  <SCORE>
-13.7796

>  <SCORE.INTER>
-2.42229

>  <SCORE.INTER.CONST>
1

>  <SCORE.INTER.POLAR>
0

>  <SCORE.INTER.ROT>
10

>  <SCORE.INTER.SOLV>
18.3614

>  <SCORE.INTER.VDW>
-18.002

>  <SCORE.INTER.norm>
-0.0605573

>  <SCORE.INTRA>
-11.3573

>  <SCORE.INTRA.DIHEDRAL>
-26.1833

>  <SCORE.INTRA.DIHEDRAL.0>
28.2802

>  <SCORE.INTRA.POLAR>
0

>  <SCORE.INTRA.POLAR.0>
0

>  <SCORE.INTRA.REPUL>
0

>  <SCORE.INTRA.REPUL.0>
0

>  <SCORE.INTRA.SOLV>
-1.04842

>  <SCORE.INTRA.SOLV.lig_0>
-101.981

>  <SCORE.INTRA.VDW>
2.25852

>  <SCORE.INTRA.VDW.0>
-5.72964

>  <SCORE.INTRA.norm>
-0.283933

>  <SCORE.RESTR>
0

>  <SCORE.RESTR.CAVITY>
0

>  <SCORE.RESTR.norm>
0

>  <SCORE.SYSTEM>
0

>  <SCORE.SYSTEM.CONST>
0

>  <SCORE.SYSTEM.DIHEDRAL>
0

>  <SCORE.SYSTEM.SOLV>
0

>  <SCORE.SYSTEM.norm>
0

>  <SCORE.heavy>
40

>  <SCORE.norm>
-0.34449

>  <RMSD>
8.992

$$$$
ligand
 OpenBabel11021811513D
libRbt.so/2013.1/901 2013/11/27
 40 42  0  0  0  0  0  0  0  0999 V2000
   -2.4144   -8.2652   19.7020 C   0  0  2  0  0  0  0  0  0  0  0  0
   -1.5766   -8.9245   18.7395 O   0  0  0  0  0  0  0  0  0  0  0  0
   -3.1955   -9.3204   20.5712 C   0  0  1  0  0  0  0  0  0  0  0  0
   -4.2097  -10.1307   19.7124 C   0  0  2  0  0  0  0  0  0  0  0  0
   -5.2205   -9.1169   19.0889 C   0  0  2  0  0  0  0  0  0  0  0  0
   -6.1946   -9.8379   18.3042 O   0  0  0  0  0  0  0  0  0  0  0  0
   -4.4107   -8.0912   18.1813 C   0  0  2  0  0  0  0  0  0  0  0  0
   -3.3971   -7.3610   19.0237 O   0  0  0  0  0  0  0  0  0  0  0  0
   -5.3101   -7.0430   17.5406 C   0  0  0  0  0  0  0  0  0  0  0  0
   -6.3074   -7.6663   16.6146 N   0  0  0  0  0  0  0  0  0  0  0  0
    2.5912   -8.1763   17.5565 C   0  0  2  0  0  0  0  0  0  0  0  0
    3.7410   -7.5244   16.9739 N   0  0  0  0  0  0  0  0  0  0  0  0
    1.5352   -8.4989   16.4235 C   0  0  0  0  0  0  0  0  0  0  0  0
    0.2574   -9.2148   17.0526 C   0  0  2  0  0  0  0  0  0  0  0  0
   -0.7265   -9.5319   15.9846 N   0  0  0  0  0  0  0  0  0  0  0  0
   -0.3839   -8.2618   18.1651 C   0  0  2  0  0  0  0  0  0  0  0  0
    0.7122   -7.9666   19.2756 C   0  0  2  0  0  0  0  0  0  0  0  0
    0.1470   -7.1178   20.2773 O   0  0  0  0  0  0  0  0  0  0  0  0
    1.9735   -7.2612   18.6378 C   0  0  1  0  0  0  0  0  0  0  0  0
    2.9721   -7.0178   19.6596 O   0  0  0  0  0  0  0  0  0  0  0  0
    4.1602   -6.3265   19.4714 C   0  0  2  0  0  0  0  0  0  0  0  0
    5.0645   -6.5916   20.7272 C   0  0  2  0  0  0  0  0  0  0  0  0
    5.2689   -7.9593   20.8780 O   0  0  0  0  0  0  0  0  0  0  0  0
    4.4464   -5.9551   22.0442 C   0  0  1  0  0  0  0  0  0  0  0  0
    5.3292   -6.2085   23.2246 N   0  0  0  0  0  0  0  0  0  0  0  0
    4.2431   -4.3949   21.8085 C   0  0  2  0  0  0  0  0  0  0  0  0
    3.6975   -3.7706   22.9773 O   0  0  0  0  0  0  0  0  0  0  0  0
    3.3002   -4.2065   20.5577 C   0  0  2  0  0  0  0  0  0  0  0  0
    3.8971   -4.8718   19.3250 O   0  0  0  0  0  0  0  0  0  0  0  0
    3.0764   -2.7432   20.2589 C   0  0  0  0  0  0  0  0  0  0  0  0
    2.3510   -2.0673   21.3027 O   0  0  0  0  0  0  0  0  0  0  0  0
   -2.2232  -10.2086   21.1956 O   0  0  0  0  0  0  0  0  0  0  0  0
   -4.8697  -11.0244   20.5207 O   0  0  0  0  0  0  0  0  0  0  0  0
    4.6465   -8.2990   16.1572 C   0  0  0  0  0  0  0  0  0  0  0  0
    4.7022   -9.5568   16.2986 O   0  0  0  0  0  0  0  0  0  0  0  0
    5.5327   -7.5364   15.1250 C   0  0  2  0  0  0  0  0  0  0  0  0
    4.4899   -9.2221   11.7752 N   0  0  0  0  0  0  0  0  0  0  0  0
    4.9623   -7.6858   13.6808 C   0  0  0  0  0  0  0  0  0  0  0  0
    4.9201   -9.1432   13.1918 C   0  0  0  0  0  0  0  0  0  0  0  0
    6.7196   -7.9903   15.0683 O   0  0  0  0  0  0  0  0  0  0  0  0
  1  2  1  6  0  0  0
  1  3  1  0  0  0  0
  1  8  1  0  0  0  0
  3  4  1  0  0  0  0
  3 32  1  6  0  0  0
  4  5  1  0  0  0  0
  4 33  1  1  0  0  0
  5  6  1  6  0  0  0
  5  7  1  0  0  0  0
  7  8  1  0  0  0  0
  7  9  1  1  0  0  0
  9 10  1  0  0  0  0
 11 12  1  6  0  0  0
 11 13  1  0  0  0  0
 11 19  1  0  0  0  0
 12 34  1  0  0  0  0
 13 14  1  0  0  0  0
 14 15  1  6  0  0  0
 14 16  1  0  0  0  0
 16  2  1  1  0  0  0
 16 17  1  0  0  0  0
 17 18  1  1  0  0  0
 17 19  1  0  0  0  0
 19 20  1  1  0  0  0
 21 20  1  1  0  0  0
 21 22  1  0  0  0  0
 21 29  1  0  0  0  0
 22 23  1  1  0  0  0
 22 24  1  0  0  0  0
 24 25  1  1  0  0  0
 24 26  1  0  0  0  0
 26 27  1  1  0  0  0
 26 28  1  0  0  0  0
 28 29  1  0  0  0  0
 28 30  1  6  0  0  0
 30 31  1  0  0  0  0
 34 35  2  0  0  0  0
 36 34  1  1  0  0  0
 36 38  1  0  0  0  0
 36 40  1  0  0  0  0
 37 39  1  0  0  0  0
 38 39  1  0  0  0  0
M  END
>  <CHROM.1>
-156.22406428,-175.70514061,-62.60625009,-71.75771044,65.12018396,-167.10927474
-65.47661944,-102.45056772,-61.43593854,-174.77004611,1.09412474,-7.54793207
18.60908487,3.06623940,-0.26196903,-2.07541940

>  <Name>
ligand

>  <RI>
0

>  <Rbt.Current_Directory>
/home/itssahil/PROJECTS/Mol_Feturizer/New_Systems/rnas/4P20

>  <Rbt.Executable>
rbdock ($Id: //depot/dev/client3/rdock/2013.1/src/exe/rbdock.cxx#4 $)

>  <Rbt.Library>
libRbt.so (2013.1, Build901 2013/11/27)

>  <Rbt.Parameter_File>
/export/apps/rDock/src/rDock_2013.1_src/data/scripts/dock_solv.prm

>  <Rbt.Receptor>
prm/pocket_docking_6.prm

>  <SCORE>
-16.824

>  <SCORE.INTER>
-7.6056

>  <SCORE.INTER.CONST>
1

>  <SCORE.INTER.POLAR>
0

>  <SCORE.INTER.ROT>
10

>  <SCORE.INTER.SOLV>
22.759

>  <SCORE.INTER.VDW>
-22.9234

>  <SCORE.INTER.norm>
-0.19014

>  <SCORE.INTRA>
-9.21841

>  <SCORE.INTRA.DIHEDRAL>
-22.3364

>  <SCORE.INTRA.DIHEDRAL.0>
28.2802

>  <SCORE.INTRA.POLAR>
0

>  <SCORE.INTRA.POLAR.0>
0

>  <SCORE.INTRA.REPUL>
0

>  <SCORE.INTRA.REPUL.0>
0

>  <SCORE.INTRA.SOLV>
-0.910308

>  <SCORE.INTRA.SOLV.lig_0>
-101.981

>  <SCORE.INTRA.VDW>
2.40496

>  <SCORE.INTRA.VDW.0>
-5.72964

>  <SCORE.INTRA.norm>
-0.23046

>  <SCORE.RESTR>
0

>  <SCORE.RESTR.CAVITY>
0

>  <SCORE.RESTR.norm>
0

>  <SCORE.SYSTEM>
0

>  <SCORE.SYSTEM.CONST>
0

>  <SCORE.SYSTEM.DIHEDRAL>
0

>  <SCORE.SYSTEM.SOLV>
0

>  <SCORE.SYSTEM.norm>
0

>  <SCORE.heavy>
40

>  <SCORE.norm>
-0.4206

>  <RMSD>
8.994

$$$$
ligand
 OpenBabel11021811503D
libRbt.so/2013.1/901 2013/11/27
 40 42  0  0  0  0  0  0  0  0999 V2000
    6.3295   -4.7925   24.4157 C   0  0  2  0  0  0  0  0  0  0  0  0
    5.9141   -4.7945   23.0407 O   0  0  0  0  0  0  0  0  0  0  0  0
    5.1800   -4.2424   25.3406 C   0  0  1  0  0  0  0  0  0  0  0  0
    4.8856   -2.7407   25.0554 C   0  0  2  0  0  0  0  0  0  0  0  0
    6.1993   -1.9402   25.3229 C   0  0  2  0  0  0  0  0  0  0  0  0
    5.9558   -0.5358   25.0928 O   0  0  0  0  0  0  0  0  0  0  0  0
    7.3299   -2.4854   24.3452 C   0  0  2  0  0  0  0  0  0  0  0  0
    7.5559   -3.9529   24.6014 O   0  0  0  0  0  0  0  0  0  0  0  0
    8.6635   -1.7781   24.5434 C   0  0  0  0  0  0  0  0  0  0  0  0
    9.7017   -2.2857   23.5920 N   0  0  0  0  0  0  0  0  0  0  0  0
    2.3863   -5.6172   20.5492 C   0  0  2  0  0  0  0  0  0  0  0  0
    1.0312   -5.9605   20.1855 N   0  0  0  0  0  0  0  0  0  0  0  0
    3.0416   -6.8183   21.3434 C   0  0  0  0  0  0  0  0  0  0  0  0
    4.5370   -6.4518   21.7560 C   0  0  2  0  0  0  0  0  0  0  0  0
    5.1567   -7.5876   22.4877 N   0  0  0  0  0  0  0  0  0  0  0  0
    4.5252   -5.1259   22.6497 C   0  0  2  0  0  0  0  0  0  0  0  0
    3.8583   -3.9532   21.8119 C   0  0  2  0  0  0  0  0  0  0  0  0
    3.8465   -2.7617   22.6014 O   0  0  0  0  0  0  0  0  0  0  0  0
    2.3792   -4.3315   21.4065 C   0  0  1  0  0  0  0  0  0  0  0  0
    1.7925   -3.2609   20.6254 O   0  0  0  0  0  0  0  0  0  0  0  0
    0.6824   -2.5147   20.9938 C   0  0  2  0  0  0  0  0  0  0  0  0
    0.6532   -1.2331   20.0872 C   0  0  2  0  0  0  0  0  0  0  0  0
    0.6163   -1.6066   18.7477 O   0  0  0  0  0  0  0  0  0  0  0  0
    1.8839   -0.2740   20.3819 C   0  0  1  0  0  0  0  0  0  0  0  0
    1.8297    0.9451   19.5172 N   0  0  0  0  0  0  0  0  0  0  0  0
    1.8656    0.1188   21.9235 C   0  0  2  0  0  0  0  0  0  0  0  0
    2.9534    0.9971   22.2378 O   0  0  0  0  0  0  0  0  0  0  0  0
    1.9321   -1.2112   22.7695 C   0  0  2  0  0  0  0  0  0  0  0  0
    0.7673   -2.1298   22.4260 O   0  0  0  0  0  0  0  0  0  0  0  0
    1.8983   -0.9178   24.2504 C   0  0  0  0  0  0  0  0  0  0  0  0
    0.6561   -0.3239   24.6713 O   0  0  0  0  0  0  0  0  0  0  0  0
    3.9885   -5.0523   25.1205 O   0  0  0  0  0  0  0  0  0  0  0  0
    3.8873   -2.3112   25.8960 O   0  0  0  0  0  0  0  0  0  0  0  0
    0.8107   -6.8908   19.1025 C   0  0  0  0  0  0  0  0  0  0  0  0
    1.7074   -7.0568   18.2231 O   0  0  0  0  0  0  0  0  0  0  0  0
   -0.5472   -7.6569   19.0631 C   0  0  2  0  0  0  0  0  0  0  0  0
   -3.3401   -8.6349   18.5053 N   0  0  0  0  0  0  0  0  0  0  0  0
   -1.4081   -7.2054   17.8431 C   0  0  0  0  0  0  0  0  0  0  0  0
   -2.9213   -7.2687   18.1102 C   0  0  0  0  0  0  0  0  0  0  0  0
   -1.2673   -7.4307   20.0871 O   0  0  0  0  0  0  0  0  0  0  0  0
  1  2  1  6  0  0  0
  1  3  1  0  0  0  0
  1  8  1  0  0  0  0
  3  4  1  0  0  0  0
  3 32  1  6  0  0  0
  4  5  1  0  0  0  0
  4 33  1  1  0  0  0
  5  6  1  6  0  0  0
  5  7  1  0  0  0  0
  7  8  1  0  0  0  0
  7  9  1  1  0  0  0
  9 10  1  0  0  0  0
 11 12  1  1  0  0  0
 11 13  1  0  0  0  0
 11 19  1  0  0  0  0
 12 34  1  0  0  0  0
 13 14  1  0  0  0  0
 14 15  1  1  0  0  0
 14 16  1  0  0  0  0
 16  2  1  6  0  0  0
 16 17  1  0  0  0  0
 17 18  1  1  0  0  0
 17 19  1  0  0  0  0
 19 20  1  6  0  0  0
 21 20  1  6  0  0  0
 21 22  1  0  0  0  0
 21 29  1  0  0  0  0
 22 23  1  6  0  0  0
 22 24  1  0  0  0  0
 24 25  1  6  0  0  0
 24 26  1  0  0  0  0
 26 27  1  6  0  0  0
 26 28  1  0  0  0  0
 28 29  1  0  0  0  0
 28 30  1  1  0  0  0
 30 31  1  0  0  0  0
 34 35  2  0  0  0  0
 36 34  1  1  0  0  0
 36 38  1  0  0  0  0
 36 40  1  0  0  0  0
 37 39  1  0  0  0  0
 38 39  1  0  0  0  0
M  END
>  <CHROM.1>
-37.07233830,-116.80304793,-178.68896844,-75.12428999,122.43214222,163.95066035
64.76045577,112.56158665,-148.46523943,-57.31864336,2.91877639,-3.69609301
22.04350712,-0.57563964,0.57175373,-2.92362710

>  <Name>
ligand

>  <RI>
0

>  <Rbt.Current_Directory>
/home/itssahil/PROJECTS/Mol_Feturizer/New_Systems/rnas/4P20

>  <Rbt.Executable>
rbdock ($Id: //depot/dev/client3/rdock/2013.1/src/exe/rbdock.cxx#4 $)

>  <Rbt.Library>
libRbt.so (2013.1, Build901 2013/11/27)

>  <Rbt.Parameter_File>
/export/apps/rDock/src/rDock_2013.1_src/data/scripts/dock_solv.prm

>  <Rbt.Receptor>
prm/blind_docking_60.prm

>  <SCORE>
26.8359

>  <SCORE.INTER>
7.10605

>  <SCORE.INTER.CONST>
1

>  <SCORE.INTER.POLAR>
0

>  <SCORE.INTER.ROT>
10

>  <SCORE.INTER.SOLV>
28.5554

>  <SCORE.INTER.VDW>
-15.0478

>  <SCORE.INTER.norm>
0.177651

>  <SCORE.INTRA>
5.81179

>  <SCORE.INTRA.DIHEDRAL>
-5.01328

>  <SCORE.INTRA.DIHEDRAL.0>
28.2802

>  <SCORE.INTRA.POLAR>
0

>  <SCORE.INTRA.POLAR.0>
0

>  <SCORE.INTRA.REPUL>
0

>  <SCORE.INTRA.REPUL.0>
0

>  <SCORE.INTRA.SOLV>
2.74699

>  <SCORE.INTRA.SOLV.lig_0>
-101.981

>  <SCORE.INTRA.VDW>
6.94493

>  <SCORE.INTRA.VDW.0>
-5.72964

>  <SCORE.INTRA.norm>
0.145295

>  <SCORE.RESTR>
13.9181

>  <SCORE.RESTR.CAVITY>
13.9181

>  <SCORE.RESTR.norm>
0.347952

>  <SCORE.SYSTEM>
0

>  <SCORE.SYSTEM.CONST>
0

>  <SCORE.SYSTEM.DIHEDRAL>
0

>  <SCORE.SYSTEM.SOLV>
0

>  <SCORE.SYSTEM.norm>
0

>  <SCORE.heavy>
40

>  <SCORE.norm>
0.670898

>  <RMSD>
9.001

$$$$
ligand
 OpenBabel11021811503D
libRbt.so/2013.1/901 2013/11/27
 40 42  0  0  0  0  0  0  0  0999 V2000
    6.1293   -4.4702   24.6016 C   0  0  2  0  0  0  0  0  0  0  0  0
    5.9976   -4.7646   23.2019 O   0  0  0  0  0  0  0  0  0  0  0  0
    5.0924   -3.3674   25.0353 C   0  0  1  0  0  0  0  0  0  0  0  0
    5.3926   -2.0004   24.3541 C   0  0  2  0  0  0  0  0  0  0  0  0
    6.8295   -1.5627   24.7807 C   0  0  2  0  0  0  0  0  0  0  0  0
    7.1329   -0.2823   24.1865 O   0  0  0  0  0  0  0  0  0  0  0  0
    7.8604   -2.6715   24.2914 C   0  0  2  0  0  0  0  0  0  0  0  0
    7.5143   -3.9966   24.9194 O   0  0  0  0  0  0  0  0  0  0  0  0
    9.2961   -2.3451   24.6793 C   0  0  0  0  0  0  0  0  0  0  0  0
    9.5921   -2.7570   26.0875 N   0  0  0  0  0  0  0  0  0  0  0  0
    2.9182   -5.5249   20.1574 C   0  0  2  0  0  0  0  0  0  0  0  0
    1.6231   -5.7776   19.5699 N   0  0  0  0  0  0  0  0  0  0  0  0
    3.2753   -6.6859   21.1709 C   0  0  0  0  0  0  0  0  0  0  0  0
    4.7011   -6.4181   21.8314 C   0  0  2  0  0  0  0  0  0  0  0  0
    5.0422   -7.5183   22.7710 N   0  0  0  0  0  0  0  0  0  0  0  0
    4.6759   -5.0054   22.5801 C   0  0  2  0  0  0  0  0  0  0  0  0
    4.3124   -3.8762   21.5243 C   0  0  2  0  0  0  0  0  0  0  0  0
    4.2911   -2.6081   22.1836 O   0  0  0  0  0  0  0  0  0  0  0  0
    2.8998   -4.1564   20.8752 C   0  0  1  0  0  0  0  0  0  0  0  0
    2.5925   -3.1294   19.8997 O   0  0  0  0  0  0  0  0  0  0  0  0
    1.4718   -2.3120   19.9218 C   0  0  2  0  0  0  0  0  0  0  0  0
    1.9418   -0.8784   20.3569 C   0  0  2  0  0  0  0  0  0  0  0  0
    2.9141   -0.4159   19.4762 O   0  0  0  0  0  0  0  0  0  0  0  0
    2.4686   -0.8597   21.8547 C   0  0  1  0  0  0  0  0  0  0  0  0
    2.8990    0.5164   22.2521 N   0  0  0  0  0  0  0  0  0  0  0  0
    1.3119   -1.3931   22.8080 C   0  0  2  0  0  0  0  0  0  0  0  0
    1.7356   -1.3832   24.1769 O   0  0  0  0  0  0  0  0  0  0  0  0
    0.9166   -2.8452   22.3346 C   0  0  2  0  0  0  0  0  0  0  0  0
    0.4653   -2.8362   20.8804 O   0  0  0  0  0  0  0  0  0  0  0  0
   -0.1957   -3.4120   23.1843 C   0  0  0  0  0  0  0  0  0  0  0  0
   -1.4458   -2.7234   22.9952 O   0  0  0  0  0  0  0  0  0  0  0  0
    3.7560   -3.8340   24.6881 O   0  0  0  0  0  0  0  0  0  0  0  0
    4.4685   -1.0755   24.7764 O   0  0  0  0  0  0  0  0  0  0  0  0
    1.5135   -6.7498   18.5070 C   0  0  0  0  0  0  0  0  0  0  0  0
    2.5325   -7.0407   17.8127 O   0  0  0  0  0  0  0  0  0  0  0  0
    0.1198   -7.4034   18.2563 C   0  0  2  0  0  0  0  0  0  0  0  0
   -2.8692   -6.6322   18.4693 N   0  0  0  0  0  0  0  0  0  0  0  0
   -0.7503   -7.3775   19.5508 C   0  0  0  0  0  0  0  0  0  0  0  0
   -2.2339   -7.6893   19.2922 C   0  0  0  0  0  0  0  0  0  0  0  0
    0.2054   -8.6302   17.9310 O   0  0  0  0  0  0  0  0  0  0  0  0
  1  2  1  6  0  0  0
  1  3  1  0  0  0  0
  1  8  1  0  0  0  0
  3  4  1  0  0  0  0
  3 32  1  6  0  0  0
  4  5  1  0  0  0  0
  4 33  1  1  0  0  0
  5  6  1  6  0  0  0
  5  7  1  0  0  0  0
  7  8  1  0  0  0  0
  7  9  1  1  0  0  0
  9 10  1  0  0  0  0
 11 12  1  1  0  0  0
 11 13  1  0  0  0  0
 11 19  1  0  0  0  0
 12 34  1  0  0  0  0
 13 14  1  0  0  0  0
 14 15  1  1  0  0  0
 14 16  1  0  0  0  0
 16  2  1  6  0  0  0
 16 17  1  0  0  0  0
 17 18  1  1  0  0  0
 17 19  1  0  0  0  0
 19 20  1  6  0  0  0
 21 20  1  1  0  0  0
 21 22  1  0  0  0  0
 21 29  1  0  0  0  0
 22 23  1  6  0  0  0
 22 24  1  0  0  0  0
 24 25  1  1  0  0  0
 24 26  1  0  0  0  0
 26 27  1  1  0  0  0
 26 28  1  0  0  0  0
 28 29  1  0  0  0  0
 28 30  1  1  0  0  0
 30 31  1  0  0  0  0
 34 35  2  0  0  0  0
 36 34  1  1  0  0  0
 36 38  1  0  0  0  0
 36 40  1  0  0  0  0
 37 39  1  0  0  0  0
 38 39  1  0  0  0  0
M  END
>  <CHROM.1>
-47.07989568,-125.27619473,82.63268020,-78.25811660,117.33459357,106.67001262
67.96158924,-25.12461585,166.08688666,-65.66209337,3.20374581,-3.82370565
21.96624714,-0.64610697,0.45551392,-2.74089845

>  <Name>
ligand

>  <RI>
0

>  <Rbt.Current_Directory>
/home/itssahil/PROJECTS/Mol_Feturizer/New_Systems/rnas/4P20

>  <Rbt.Executable>
rbdock ($Id: //depot/dev/client3/rdock/2013.1/src/exe/rbdock.cxx#4 $)

>  <Rbt.Library>
libRbt.so (2013.1, Build901 2013/11/27)

>  <Rbt.Parameter_File>
/export/apps/rDock/src/rDock_2013.1_src/data/scripts/dock_solv.prm

>  <Rbt.Receptor>
prm/blind_docking_60.prm

>  <SCORE>
17.9623

>  <SCORE.INTER>
-0.877936

>  <SCORE.INTER.CONST>
1

>  <SCORE.INTER.POLAR>
0

>  <SCORE.INTER.ROT>
10

>  <SCORE.INTER.SOLV>
30.1892

>  <SCORE.INTER.VDW>
-20.915

>  <SCORE.INTER.norm>
-0.0219484

>  <SCORE.INTRA>
6.4532

>  <SCORE.INTRA.DIHEDRAL>
-2.12782

>  <SCORE.INTRA.DIHEDRAL.0>
28.2802

>  <SCORE.INTRA.POLAR>
0

>  <SCORE.INTRA.POLAR.0>
0

>  <SCORE.INTRA.REPUL>
0

>  <SCORE.INTRA.REPUL.0>
0

>  <SCORE.INTRA.SOLV>
5.32193

>  <SCORE.INTRA.SOLV.lig_0>
-101.981

>  <SCORE.INTRA.VDW>
4.85614

>  <SCORE.INTRA.VDW.0>
-5.72964

>  <SCORE.INTRA.norm>
0.16133

>  <SCORE.RESTR>
12.3871

>  <SCORE.RESTR.CAVITY>
12.3871

>  <SCORE.RESTR.norm>
0.309677

>  <SCORE.SYSTEM>
0

>  <SCORE.SYSTEM.CONST>
0

>  <SCORE.SYSTEM.DIHEDRAL>
0

>  <SCORE.SYSTEM.SOLV>
0

>  <SCORE.SYSTEM.norm>
0

>  <SCORE.heavy>
40

>  <SCORE.norm>
0.449058

>  <RMSD>
9.002

$$$$
ligand
 OpenBabel11021811513D
libRbt.so/2013.1/901 2013/11/27
 40 42  0  0  0  0  0  0  0  0999 V2000
   -2.4493  -11.3563   18.1543 C   0  0  2  0  0  0  0  0  0  0  0  0
   -1.4673  -10.3153   18.0317 O   0  0  0  0  0  0  0  0  0  0  0  0
   -3.1854  -11.5876   16.7817 C   0  0  1  0  0  0  0  0  0  0  0  0
   -4.0309  -10.3473   16.3699 C   0  0  2  0  0  0  0  0  0  0  0  0
   -5.0866  -10.0981   17.4930 C   0  0  2  0  0  0  0  0  0  0  0  0
   -5.9082   -8.9672   17.1313 O   0  0  0  0  0  0  0  0  0  0  0  0
   -4.3158   -9.8232   18.8575 C   0  0  2  0  0  0  0  0  0  0  0  0
   -3.4610  -11.0144   19.2047 O   0  0  0  0  0  0  0  0  0  0  0  0
   -5.2634   -9.5870   20.0256 C   0  0  0  0  0  0  0  0  0  0  0  0
   -6.0840  -10.8032   20.3222 N   0  0  0  0  0  0  0  0  0  0  0  0
    2.1793   -9.4176   20.3178 C   0  0  2  0  0  0  0  0  0  0  0  0
    3.0316   -9.0426   21.4220 N   0  0  0  0  0  0  0  0  0  0  0  0
    1.1890   -8.2293   19.9862 C   0  0  0  0  0  0  0  0  0  0  0  0
    0.2380   -8.6307   18.7716 C   0  0  2  0  0  0  0  0  0  0  0  0
   -0.6806   -7.5070   18.4507 N   0  0  0  0  0  0  0  0  0  0  0  0
   -0.5768   -9.9515   19.1570 C   0  0  2  0  0  0  0  0  0  0  0  0
    0.4581  -11.1114   19.4819 C   0  0  2  0  0  0  0  0  0  0  0  0
   -0.2611  -12.2983   19.8241 O   0  0  0  0  0  0  0  0  0  0  0  0
    1.3961  -10.6985   20.6839 C   0  0  1  0  0  0  0  0  0  0  0  0
    2.3475  -11.7581   20.9539 O   0  0  0  0  0  0  0  0  0  0  0  0
    3.2820  -12.2459   20.0518 C   0  0  2  0  0  0  0  0  0  0  0  0
    3.7929  -13.6251   20.6011 C   0  0  2  0  0  0  0  0  0  0  0  0
    2.7175  -14.4919   20.7663 O   0  0  0  0  0  0  0  0  0  0  0  0
    4.6069  -13.4563   21.9540 C   0  0  1  0  0  0  0  0  0  0  0  0
    5.0944  -14.7794   22.4524 N   0  0  0  0  0  0  0  0  0  0  0  0
    5.8212  -12.4611   21.6967 C   0  0  2  0  0  0  0  0  0  0  0  0
    6.5967  -12.2855   22.8889 O   0  0  0  0  0  0  0  0  0  0  0  0
    5.2321  -11.0911   21.1820 C   0  0  2  0  0  0  0  0  0  0  0  0
    4.4154  -11.2958   19.9133 O   0  0  0  0  0  0  0  0  0  0  0  0
    6.3326  -10.0974   20.8955 C   0  0  0  0  0  0  0  0  0  0  0  0
    7.1248   -9.7946   22.0589 O   0  0  0  0  0  0  0  0  0  0  0  0
   -2.1812  -11.8866   15.7687 O   0  0  0  0  0  0  0  0  0  0  0  0
   -4.6589  -10.6081   15.1760 O   0  0  0  0  0  0  0  0  0  0  0  0
    3.8981   -7.8954   21.2801 C   0  0  0  0  0  0  0  0  0  0  0  0
    4.2390   -7.5033   20.1247 O   0  0  0  0  0  0  0  0  0  0  0  0
    4.3861   -7.1839   22.5794 C   0  0  2  0  0  0  0  0  0  0  0  0
    4.3279   -4.4407   24.2234 N   0  0  0  0  0  0  0  0  0  0  0  0
    5.0237   -5.7984   22.2518 C   0  0  0  0  0  0  0  0  0  0  0  0
    5.4818   -5.0293   23.5022 C   0  0  0  0  0  0  0  0  0  0  0  0
    5.2930   -7.8385   23.1854 O   0  0  0  0  0  0  0  0  0  0  0  0
  1  2  1  6  0  0  0
  1  3  1  0  0  0  0
  1  8  1  0  0  0  0
  3  4  1  0  0  0  0
  3 32  1  6  0  0  0
  4  5  1  0  0  0  0
  4 33  1  6  0  0  0
  5  6  1  6  0  0  0
  5  7  1  0  0  0  0
  7  8  1  0  0  0  0
  7  9  1  1  0  0  0
  9 10  1  0  0  0  0
 11 12  1  1  0  0  0
 11 13  1  0  0  0  0
 11 19  1  0  0  0  0
 12 34  1  0  0  0  0
 13 14  1  0  0  0  0
 14 15  1  1  0  0  0
 14 16  1  0  0  0  0
 16  2  1  6  0  0  0
 16 17  1  0  0  0  0
 17 18  1  1  0  0  0
 17 19  1  0  0  0  0
 19 20  1  6  0  0  0
 21 20  1  1  0  0  0
 21 22  1  0  0  0  0
 21 29  1  0  0  0  0
 22 23  1  1  0  0  0
 22 24  1  0  0  0  0
 24 25  1  6  0  0  0
 24 26  1  0  0  0  0
 26 27  1  1  0  0  0
 26 28  1  0  0  0  0
 28 29  1  0  0  0  0
 28 30  1  6  0  0  0
 30 31  1  0  0  0  0
 34 35  2  0  0  0  0
 36 34  1  6  0  0  0
 36 38  1  0  0  0  0
 36 40  1  0  0  0  0
 37 39  1  0  0  0  0
 38 39  1  0  0  0  0
M  END
>  <CHROM.1>
-176.39477281,-171.73238140,63.99276369,-60.65241281,-59.95385539,-163.76269408
-60.32158158,-166.85417087,178.08993593,-75.74688773,1.22295225,-10.17603834
20.08641579,-2.98190217,-0.41939344,0.19440526

>  <Name>
ligand

>  <RI>
0

>  <Rbt.Current_Directory>
/home/itssahil/PROJECTS/Mol_Feturizer/New_Systems/rnas/4P20

>  <Rbt.Executable>
rbdock ($Id: //depot/dev/client3/rdock/2013.1/src/exe/rbdock.cxx#4 $)

>  <Rbt.Library>
libRbt.so (2013.1, Build901 2013/11/27)

>  <Rbt.Parameter_File>
/export/apps/rDock/src/rDock_2013.1_src/data/scripts/dock_solv.prm

>  <Rbt.Receptor>
prm/pocket_docking_8.prm

>  <SCORE>
-11.4262

>  <SCORE.INTER>
-1.43009

>  <SCORE.INTER.CONST>
1

>  <SCORE.INTER.POLAR>
0

>  <SCORE.INTER.ROT>
10

>  <SCORE.INTER.SOLV>
16.0071

>  <SCORE.INTER.VDW>
-16.5557

>  <SCORE.INTER.norm>
-0.0357522

>  <SCORE.INTRA>
-10.0027

>  <SCORE.INTRA.DIHEDRAL>
-24.686

>  <SCORE.INTRA.DIHEDRAL.0>
28.2802

>  <SCORE.INTRA.POLAR>
0

>  <SCORE.INTRA.POLAR.0>
0

>  <SCORE.INTRA.REPUL>
0

>  <SCORE.INTRA.REPUL.0>
0

>  <SCORE.INTRA.SOLV>
2.132

>  <SCORE.INTRA.SOLV.lig_0>
-101.981

>  <SCORE.INTRA.VDW>
1.27428

>  <SCORE.INTRA.VDW.0>
-5.72964

>  <SCORE.INTRA.norm>
-0.250068

>  <SCORE.RESTR>
0.00663822

>  <SCORE.RESTR.CAVITY>
0.00663822

>  <SCORE.RESTR.norm>
0.000165956

>  <SCORE.SYSTEM>
0

>  <SCORE.SYSTEM.CONST>
0

>  <SCORE.SYSTEM.DIHEDRAL>
0

>  <SCORE.SYSTEM.SOLV>
0

>  <SCORE.SYSTEM.norm>
0

>  <SCORE.heavy>
40

>  <SCORE.norm>
-0.285654

>  <RMSD>
9.015

$$$$
ligand
 OpenBabel11021811503D
libRbt.so/2013.1/901 2013/11/27
 40 42  0  0  0  0  0  0  0  0999 V2000
    7.3092   -5.6012   14.2532 C   0  0  2  0  0  0  0  0  0  0  0  0
    6.9889   -5.5143   12.8557 O   0  0  0  0  0  0  0  0  0  0  0  0
    8.8645   -5.4907   14.4728 C   0  0  1  0  0  0  0  0  0  0  0  0
    9.6167   -6.7073   13.8589 C   0  0  2  0  0  0  0  0  0  0  0  0
    9.0813   -7.9977   14.5562 C   0  0  2  0  0  0  0  0  0  0  0  0
    9.7774   -9.1473   14.0285 O   0  0  0  0  0  0  0  0  0  0  0  0
    7.5181   -8.1079   14.2809 C   0  0  2  0  0  0  0  0  0  0  0  0
    6.8200   -6.8925   14.8335 O   0  0  0  0  0  0  0  0  0  0  0  0
    6.8943   -9.3303   14.9403 C   0  0  0  0  0  0  0  0  0  0  0  0
    6.8733   -9.1999   16.4313 N   0  0  0  0  0  0  0  0  0  0  0  0
    5.2365   -9.4375   11.9243 C   0  0  2  0  0  0  0  0  0  0  0  0
    4.4554  -10.4510   11.2541 N   0  0  0  0  0  0  0  0  0  0  0  0
    4.2792   -8.2929   12.4498 C   0  0  0  0  0  0  0  0  0  0  0  0
    5.1283   -7.1639   13.1882 C   0  0  2  0  0  0  0  0  0  0  0  0
    4.2257   -6.0975   13.6957 N   0  0  0  0  0  0  0  0  0  0  0  0
    6.2096   -6.5703   12.1707 C   0  0  2  0  0  0  0  0  0  0  0  0
    7.1427   -7.7544   11.6716 C   0  0  2  0  0  0  0  0  0  0  0  0
    8.1158   -7.2329   10.7637 O   0  0  0  0  0  0  0  0  0  0  0  0
    6.2880   -8.8672   10.9459 C   0  0  1  0  0  0  0  0  0  0  0  0
    7.1506   -9.9494   10.5154 O   0  0  0  0  0  0  0  0  0  0  0  0
    8.3724   -9.7955    9.8763 C   0  0  2  0  0  0  0  0  0  0  0  0
    8.1158   -9.9169    8.3321 C   0  0  2  0  0  0  0  0  0  0  0  0
    7.1884   -8.9596    7.9338 O   0  0  0  0  0  0  0  0  0  0  0  0
    7.6435  -11.3774    7.9257 C   0  0  1  0  0  0  0  0  0  0  0  0
    7.4172  -11.4741    6.4505 N   0  0  0  0  0  0  0  0  0  0  0  0
    8.7461  -12.4203    8.4031 C   0  0  2  0  0  0  0  0  0  0  0  0
    8.3708  -13.7566    8.0467 O   0  0  0  0  0  0  0  0  0  0  0  0
    8.9249  -12.2655    9.9629 C   0  0  2  0  0  0  0  0  0  0  0  0
    9.3276  -10.8418   10.3228 O   0  0  0  0  0  0  0  0  0  0  0  0
    9.9757  -13.2144   10.4882 C   0  0  0  0  0  0  0  0  0  0  0  0
   11.2275  -13.1017    9.7859 O   0  0  0  0  0  0  0  0  0  0  0  0
    9.3238   -4.2443   13.8731 O   0  0  0  0  0  0  0  0  0  0  0  0
   10.9637   -6.5657   14.0898 O   0  0  0  0  0  0  0  0  0  0  0  0
    3.3821  -11.0976   11.9729 C   0  0  0  0  0  0  0  0  0  0  0  0
    3.3961  -11.1190   13.2395 O   0  0  0  0  0  0  0  0  0  0  0  0
    2.2386  -11.7555   11.1409 C   0  0  2  0  0  0  0  0  0  0  0  0
    1.0401  -14.6191   12.9809 N   0  0  0  0  0  0  0  0  0  0  0  0
    2.2833  -13.3101   11.2616 C   0  0  0  0  0  0  0  0  0  0  0  0
    2.2526  -13.8079   12.7163 C   0  0  0  0  0  0  0  0  0  0  0  0
    2.3347  -11.5102    9.8964 O   0  0  0  0  0  0  0  0  0  0  0  0
  1  2  1  6  0  0  0
  1  3  1  0  0  0  0
  1  8  1  0  0  0  0
  3  4  1  0  0  0  0
  3 32  1  6  0  0  0
  4  5  1  0  0  0  0
  4 33  1  1  0  0  0
  5  6  1  6  0  0  0
  5  7  1  0  0  0  0
  7  8  1  0  0  0  0
  7  9  1  1  0  0  0
  9 10  1  0  0  0  0
 11 12  1  6  0  0  0
 11 13  1  0  0  0  0
 11 19  1  0  0  0  0
 12 34  1  0  0  0  0
 13 14  1  0  0  0  0
 14 15  1  6  0  0  0
 14 16  1  0  0  0  0
 16  2  1  1  0  0  0
 16 17  1  0  0  0  0
 17 18  1  6  0  0  0
 17 19  1  0  0  0  0
 19 20  1  1  0  0  0
 21 20  1  1  0  0  0
 21 22  1  0  0  0  0
 21 29  1  0  0  0  0
 22 23  1  1  0  0  0
 22 24  1  0  0  0  0
 24 25  1  6  0  0  0
 24 26  1  0  0  0  0
 26 27  1  1  0  0  0
 26 28  1  0  0  0  0
 28 29  1  0  0  0  0
 28 30  1  6  0  0  0
 30 31  1  0  0  0  0
 34 35  2  0  0  0  0
 36 34  1  1  0  0  0
 36 38  1  0  0  0  0
 36 40  1  0  0  0  0
 37 39  1  0  0  0  0
 38 39  1  0  0  0  0
M  END
>  <CHROM.1>
124.38383688,34.67059215,69.18192253,-56.63403868,-165.25112012,-95.81395311
53.18113867,111.00248232,54.75341567,117.28409528,6.80561495,-9.52076209
11.78623808,1.15155284,0.35255162,0.72397917

>  <Name>
ligand

>  <RI>
0

>  <Rbt.Current_Directory>
/home/itssahil/PROJECTS/Mol_Feturizer/New_Systems/rnas/4P20

>  <Rbt.Executable>
rbdock ($Id: //depot/dev/client3/rdock/2013.1/src/exe/rbdock.cxx#4 $)

>  <Rbt.Library>
libRbt.so (2013.1, Build901 2013/11/27)

>  <Rbt.Parameter_File>
/export/apps/rDock/src/rDock_2013.1_src/data/scripts/dock_solv.prm

>  <Rbt.Receptor>
prm/blind_docking_20.prm

>  <SCORE>
33.7535

>  <SCORE.INTER>
5.24038

>  <SCORE.INTER.CONST>
1

>  <SCORE.INTER.POLAR>
0

>  <SCORE.INTER.ROT>
10

>  <SCORE.INTER.SOLV>
29.8643

>  <SCORE.INTER.VDW>
-16.7278

>  <SCORE.INTER.norm>
0.13101

>  <SCORE.INTRA>
10.2518

>  <SCORE.INTRA.DIHEDRAL>
-4.30806

>  <SCORE.INTRA.DIHEDRAL.0>
28.2802

>  <SCORE.INTRA.POLAR>
0

>  <SCORE.INTRA.POLAR.0>
0

>  <SCORE.INTRA.REPUL>
0.0275475

>  <SCORE.INTRA.REPUL.0>
0

>  <SCORE.INTRA.SOLV>
3.34264

>  <SCORE.INTRA.SOLV.lig_0>
-101.981

>  <SCORE.INTRA.VDW>
10.5967

>  <SCORE.INTRA.VDW.0>
-5.72964

>  <SCORE.INTRA.norm>
0.256294

>  <SCORE.RESTR>
18.2614

>  <SCORE.RESTR.CAVITY>
18.2614

>  <SCORE.RESTR.norm>
0.456535

>  <SCORE.SYSTEM>
0

>  <SCORE.SYSTEM.CONST>
0

>  <SCORE.SYSTEM.DIHEDRAL>
0

>  <SCORE.SYSTEM.SOLV>
0

>  <SCORE.SYSTEM.norm>
0

>  <SCORE.heavy>
40

>  <SCORE.norm>
0.843838

>  <RMSD>
9.024

$$$$
ligand
 OpenBabel11021811513D
libRbt.so/2013.1/901 2013/11/27
 40 42  0  0  0  0  0  0  0  0999 V2000
   -6.2462   -9.3642   19.6169 C   0  0  2  0  0  0  0  0  0  0  0  0
   -5.1489   -8.8105   18.8738 O   0  0  0  0  0  0  0  0  0  0  0  0
   -7.5052   -9.5498   18.6897 C   0  0  1  0  0  0  0  0  0  0  0  0
   -8.0616   -8.1810   18.1998 C   0  0  2  0  0  0  0  0  0  0  0  0
   -8.4599   -7.3515   19.4614 C   0  0  2  0  0  0  0  0  0  0  0  0
   -9.0058   -6.0820   19.0431 O   0  0  0  0  0  0  0  0  0  0  0  0
   -7.1616   -7.1410   20.3568 C   0  0  2  0  0  0  0  0  0  0  0  0
   -6.6095   -8.4805   20.7704 O   0  0  0  0  0  0  0  0  0  0  0  0
   -7.4511   -6.3556   21.6286 C   0  0  0  0  0  0  0  0  0  0  0  0
   -8.4563   -7.0548   22.4896 N   0  0  0  0  0  0  0  0  0  0  0  0
   -0.7956   -8.6201   19.4591 C   0  0  2  0  0  0  0  0  0  0  0  0
    0.4802   -8.3517   20.0809 N   0  0  0  0  0  0  0  0  0  0  0  0
   -1.5881   -7.2640   19.2703 C   0  0  0  0  0  0  0  0  0  0  0  0
   -3.0015   -7.5452   18.5890 C   0  0  2  0  0  0  0  0  0  0  0  0
   -3.7378   -6.2682   18.3972 N   0  0  0  0  0  0  0  0  0  0  0  0
   -3.8326   -8.5602   19.5033 C   0  0  2  0  0  0  0  0  0  0  0  0
   -2.9972   -9.9011   19.6641 C   0  0  2  0  0  0  0  0  0  0  0  0
   -3.7340  -10.8170   20.4774 O   0  0  0  0  0  0  0  0  0  0  0  0
   -1.5983   -9.6071   20.3364 C   0  0  1  0  0  0  0  0  0  0  0  0
   -0.8405  -10.8367   20.4568 O   0  0  0  0  0  0  0  0  0  0  0  0
   -1.1796  -11.9118   21.2654 C   0  0  2  0  0  0  0  0  0  0  0  0
    0.1304  -12.7363   21.5284 C   0  0  2  0  0  0  0  0  0  0  0  0
    1.0902  -11.9178   22.1149 O   0  0  0  0  0  0  0  0  0  0  0  0
    0.6825  -13.4062   20.1988 C   0  0  1  0  0  0  0  0  0  0  0  0
    1.9224  -14.1961   20.4741 N   0  0  0  0  0  0  0  0  0  0  0  0
   -0.4571  -14.3298   19.5829 C   0  0  2  0  0  0  0  0  0  0  0  0
   -0.0015  -14.9692   18.3841 O   0  0  0  0  0  0  0  0  0  0  0  0
   -1.7252  -13.4306   19.3136 C   0  0  2  0  0  0  0  0  0  0  0  0
   -2.1977  -12.7630   20.5980 O   0  0  0  0  0  0  0  0  0  0  0  0
   -2.8613  -14.2464   18.7444 C   0  0  0  0  0  0  0  0  0  0  0  0
   -2.5568  -14.7955   17.4488 O   0  0  0  0  0  0  0  0  0  0  0  0
   -7.1215  -10.3850   17.5587 O   0  0  0  0  0  0  0  0  0  0  0  0
   -9.1627   -8.4011   17.4082 O   0  0  0  0  0  0  0  0  0  0  0  0
    1.5099   -7.6926   19.3113 C   0  0  0  0  0  0  0  0  0  0  0  0
    1.4807   -7.7454   18.0458 O   0  0  0  0  0  0  0  0  0  0  0  0
    2.6321   -6.9382   20.0883 C   0  0  2  0  0  0  0  0  0  0  0  0
    4.5201   -6.1695   22.3870 N   0  0  0  0  0  0  0  0  0  0  0  0
    3.4641   -7.9242   20.9654 C   0  0  0  0  0  0  0  0  0  0  0  0
    4.7783   -7.3162   21.4833 C   0  0  0  0  0  0  0  0  0  0  0  0
    2.1705   -6.0726   20.8981 O   0  0  0  0  0  0  0  0  0  0  0  0
  1  2  1  6  0  0  0
  1  3  1  0  0  0  0
  1  8  1  0  0  0  0
  3  4  1  0  0  0  0
  3 32  1  6  0  0  0
  4  5  1  0  0  0  0
  4 33  1  6  0  0  0
  5  6  1  6  0  0  0
  5  7  1  0  0  0  0
  7  8  1  0  0  0  0
  7  9  1  1  0  0  0
  9 10  1  0  0  0  0
 11 12  1  1  0  0  0
 11 13  1  0  0  0  0
 11 19  1  0  0  0  0
 12 34  1  0  0  0  0
 13 14  1  0  0  0  0
 14 15  1  1  0  0  0
 14 16  1  0  0  0  0
 16  2  1  6  0  0  0
 16 17  1  0  0  0  0
 17 18  1  1  0  0  0
 17 19  1  0  0  0  0
 19 20  1  6  0  0  0
 21 20  1  6  0  0  0
 21 22  1  0  0  0  0
 21 29  1  0  0  0  0
 22 23  1  6  0  0  0
 22 24  1  0  0  0  0
 24 25  1  1  0  0  0
 24 26  1  0  0  0  0
 26 27  1  6  0  0  0
 26 28  1  0  0  0  0
 28 29  1  0  0  0  0
 28 30  1  1  0  0  0
 30 31  1  0  0  0  0
 34 35  2  0  0  0  0
 36 34  1  1  0  0  0
 36 38  1  0  0  0  0
 36 40  1  0  0  0  0
 37 39  1  0  0  0  0
 38 39  1  0  0  0  0
M  END
>  <CHROM.1>
-178.76080157,-162.24608147,60.21439494,-71.62287831,173.82098373,-158.06115323
-64.28382105,62.93798839,166.06301558,63.48783223,-2.49550162,-9.61082183
19.81349344,2.94033188,-0.14902179,0.13146439

>  <Name>
ligand

>  <RI>
0

>  <Rbt.Current_Directory>
/home/itssahil/PROJECTS/Mol_Feturizer/New_Systems/rnas/4P20

>  <Rbt.Executable>
rbdock ($Id: //depot/dev/client3/rdock/2013.1/src/exe/rbdock.cxx#4 $)

>  <Rbt.Library>
libRbt.so (2013.1, Build901 2013/11/27)

>  <Rbt.Parameter_File>
/export/apps/rDock/src/rDock_2013.1_src/data/scripts/dock_solv.prm

>  <Rbt.Receptor>
prm/pocket_docking_8.prm

>  <SCORE>
-8.80411

>  <SCORE.INTER>
-0.0416498

>  <SCORE.INTER.CONST>
1

>  <SCORE.INTER.POLAR>
0

>  <SCORE.INTER.ROT>
10

>  <SCORE.INTER.SOLV>
18.0956

>  <SCORE.INTER.VDW>
-16.3263

>  <SCORE.INTER.norm>
-0.00104125

>  <SCORE.INTRA>
-8.76246

>  <SCORE.INTRA.DIHEDRAL>
-22.8052

>  <SCORE.INTRA.DIHEDRAL.0>
28.2802

>  <SCORE.INTRA.POLAR>
0

>  <SCORE.INTRA.POLAR.0>
0

>  <SCORE.INTRA.REPUL>
0

>  <SCORE.INTRA.REPUL.0>
0

>  <SCORE.INTRA.SOLV>
1.42286

>  <SCORE.INTRA.SOLV.lig_0>
-101.981

>  <SCORE.INTRA.VDW>
1.92869

>  <SCORE.INTRA.VDW.0>
-5.72964

>  <SCORE.INTRA.norm>
-0.219061

>  <SCORE.RESTR>
0

>  <SCORE.RESTR.CAVITY>
0

>  <SCORE.RESTR.norm>
0

>  <SCORE.SYSTEM>
0

>  <SCORE.SYSTEM.CONST>
0

>  <SCORE.SYSTEM.DIHEDRAL>
0

>  <SCORE.SYSTEM.SOLV>
0

>  <SCORE.SYSTEM.norm>
0

>  <SCORE.heavy>
40

>  <SCORE.norm>
-0.220103

>  <RMSD>
9.025

$$$$
ligand
 OpenBabel11021811513D
libRbt.so/2013.1/901 2013/11/27
 40 42  0  0  0  0  0  0  0  0999 V2000
    7.2697   -9.2882   11.0208 C   0  0  2  0  0  0  0  0  0  0  0  0
    5.8945   -8.9660   10.7599 O   0  0  0  0  0  0  0  0  0  0  0  0
    7.9916   -9.7461    9.6985 C   0  0  1  0  0  0  0  0  0  0  0  0
    7.4076  -11.0857    9.1624 C   0  0  2  0  0  0  0  0  0  0  0  0
    7.6094  -12.1684   10.2694 C   0  0  2  0  0  0  0  0  0  0  0  0
    7.1013  -13.4339    9.7953 O   0  0  0  0  0  0  0  0  0  0  0  0
    6.8335  -11.7022   11.5779 C   0  0  2  0  0  0  0  0  0  0  0  0
    7.3779  -10.3768   12.0439 O   0  0  0  0  0  0  0  0  0  0  0  0
    6.9864  -12.6871   12.7289 C   0  0  0  0  0  0  0  0  0  0  0  0
    8.4157  -12.8183   13.1538 N   0  0  0  0  0  0  0  0  0  0  0  0
    4.1308   -8.6034   14.7708 C   0  0  2  0  0  0  0  0  0  0  0  0
    3.2221   -8.2151   15.8244 N   0  0  0  0  0  0  0  0  0  0  0  0
    4.7508   -7.3101   14.1032 C   0  0  0  0  0  0  0  0  0  0  0  0
    5.7529   -7.7231   12.9344 C   0  0  2  0  0  0  0  0  0  0  0  0
    6.3470   -6.5073   12.3192 N   0  0  0  0  0  0  0  0  0  0  0  0
    4.9641   -8.5935   11.8495 C   0  0  2  0  0  0  0  0  0  0  0  0
    4.3608   -9.8756   12.5666 C   0  0  2  0  0  0  0  0  0  0  0  0
    3.6564  -10.6627   11.6035 O   0  0  0  0  0  0  0  0  0  0  0  0
    3.3734   -9.4517   13.7244 C   0  0  1  0  0  0  0  0  0  0  0  0
    2.8482  -10.6317   14.3818 O   0  0  0  0  0  0  0  0  0  0  0  0
    1.8110  -11.4205   13.9054 C   0  0  2  0  0  0  0  0  0  0  0  0
    0.4644  -10.6997   14.2692 C   0  0  2  0  0  0  0  0  0  0  0  0
    0.4518   -9.4227   13.7174 O   0  0  0  0  0  0  0  0  0  0  0  0
    0.2278  -10.6490   15.8385 C   0  0  1  0  0  0  0  0  0  0  0  0
   -1.0651   -9.9701   16.1618 N   0  0  0  0  0  0  0  0  0  0  0  0
    0.2484  -12.1357   16.4047 C   0  0  2  0  0  0  0  0  0  0  0  0
    0.0256  -12.1443   17.8202 O   0  0  0  0  0  0  0  0  0  0  0  0
    1.6386  -12.7828   16.0334 C   0  0  2  0  0  0  0  0  0  0  0  0
    1.8565  -12.7691   14.5264 O   0  0  0  0  0  0  0  0  0  0  0  0
    1.7246  -14.2087   16.5231 C   0  0  0  0  0  0  0  0  0  0  0  0
    0.7517  -15.0694   15.9023 O   0  0  0  0  0  0  0  0  0  0  0  0
    7.8466   -8.6872    8.7077 O   0  0  0  0  0  0  0  0  0  0  0  0
    8.0802  -11.4433    8.0190 O   0  0  0  0  0  0  0  0  0  0  0  0
    3.7634   -7.7408   17.0770 C   0  0  0  0  0  0  0  0  0  0  0  0
    4.9411   -8.0621   17.4156 O   0  0  0  0  0  0  0  0  0  0  0  0
    2.8542   -6.8437   17.9721 C   0  0  2  0  0  0  0  0  0  0  0  0
    3.7282   -4.5539   20.9979 N   0  0  0  0  0  0  0  0  0  0  0  0
    3.6644   -6.2347   19.1579 C   0  0  0  0  0  0  0  0  0  0  0  0
    2.8949   -5.1457   19.9239 C   0  0  0  0  0  0  0  0  0  0  0  0
    1.9030   -7.4938   18.5112 O   0  0  0  0  0  0  0  0  0  0  0  0
  1  2  1  6  0  0  0
  1  3  1  0  0  0  0
  1  8  1  0  0  0  0
  3  4  1  0  0  0  0
  3 32  1  6  0  0  0
  4  5  1  0  0  0  0
  4 33  1  6  0  0  0
  5  6  1  6  0  0  0
  5  7  1  0  0  0  0
  7  8  1  0  0  0  0
  7  9  1  1  0  0  0
  9 10  1  0  0  0  0
 11 12  1  1  0  0  0
 11 13  1  0  0  0  0
 11 19  1  0  0  0  0
 12 34  1  0  0  0  0
 13 14  1  0  0  0  0
 14 15  1  6  0  0  0
 14 16  1  0  0  0  0
 16  2  1  6  0  0  0
 16 17  1  0  0  0  0
 17 18  1  6  0  0  0
 17 19  1  0  0  0  0
 19 20  1  1  0  0  0
 21 20  1  1  0  0  0
 21 22  1  0  0  0  0
 21 29  1  0  0  0  0
 22 23  1  1  0  0  0
 22 24  1  0  0  0  0
 24 25  1  6  0  0  0
 24 26  1  0  0  0  0
 26 27  1  1  0  0  0
 26 28  1  0  0  0  0
 28 29  1  0  0  0  0
 28 30  1  6  0  0  0
 30 31  1  0  0  0  0
 34 35  2  0  0  0  0
 36 34  1  1  0  0  0
 36 38  1  0  0  0  0
 36 40  1  0  0  0  0
 37 39  1  0  0  0  0
 38 39  1  0  0  0  0
M  END
>  <CHROM.1>
175.85334722,36.78796811,62.36040634,-75.12416295,160.07585793,-80.25842473
63.17429053,-170.71595973,169.51852905,-177.29271467,4.09945211,-9.96915264
14.05784089,-0.68382392,0.72729785,0.63251780

>  <Name>
ligand

>  <RI>
0

>  <Rbt.Current_Directory>
/home/itssahil/PROJECTS/Mol_Feturizer/New_Systems/rnas/4P20

>  <Rbt.Executable>
rbdock ($Id: //depot/dev/client3/rdock/2013.1/src/exe/rbdock.cxx#4 $)

>  <Rbt.Library>
libRbt.so (2013.1, Build901 2013/11/27)

>  <Rbt.Parameter_File>
/export/apps/rDock/src/rDock_2013.1_src/data/scripts/dock_solv.prm

>  <Rbt.Receptor>
prm/pocket_docking_8.prm

>  <SCORE>
-11.0636

>  <SCORE.INTER>
-2.5535

>  <SCORE.INTER.CONST>
1

>  <SCORE.INTER.POLAR>
0

>  <SCORE.INTER.ROT>
10

>  <SCORE.INTER.SOLV>
14.6534

>  <SCORE.INTER.VDW>
-16.8535

>  <SCORE.INTER.norm>
-0.0638375

>  <SCORE.INTRA>
-8.51006

>  <SCORE.INTRA.DIHEDRAL>
-20.6503

>  <SCORE.INTRA.DIHEDRAL.0>
28.2802

>  <SCORE.INTRA.POLAR>
0

>  <SCORE.INTRA.POLAR.0>
0

>  <SCORE.INTRA.REPUL>
0

>  <SCORE.INTRA.REPUL.0>
0

>  <SCORE.INTRA.SOLV>
0.43014

>  <SCORE.INTRA.SOLV.lig_0>
-101.981

>  <SCORE.INTRA.VDW>
1.6

>  <SCORE.INTRA.VDW.0>
-5.72964

>  <SCORE.INTRA.norm>
-0.212752

>  <SCORE.RESTR>
0

>  <SCORE.RESTR.CAVITY>
0

>  <SCORE.RESTR.norm>
0

>  <SCORE.SYSTEM>
0

>  <SCORE.SYSTEM.CONST>
0

>  <SCORE.SYSTEM.DIHEDRAL>
0

>  <SCORE.SYSTEM.SOLV>
0

>  <SCORE.SYSTEM.norm>
0

>  <SCORE.heavy>
40

>  <SCORE.norm>
-0.276589

>  <RMSD>
9.034

$$$$
ligand
 OpenBabel11021811503D
libRbt.so/2013.1/901 2013/11/27
 40 42  0  0  0  0  0  0  0  0999 V2000
    6.5398   -4.4892   24.1605 C   0  0  2  0  0  0  0  0  0  0  0  0
    5.9922   -3.9279   22.9572 O   0  0  0  0  0  0  0  0  0  0  0  0
    5.5704   -4.2443   25.3769 C   0  0  1  0  0  0  0  0  0  0  0  0
    5.4475   -2.7297   25.7145 C   0  0  2  0  0  0  0  0  0  0  0  0
    6.8746   -2.2052   26.0702 C   0  0  2  0  0  0  0  0  0  0  0  0
    6.7947   -0.8055   26.4149 O   0  0  0  0  0  0  0  0  0  0  0  0
    7.8207   -2.4238   24.8098 C   0  0  2  0  0  0  0  0  0  0  0  0
    7.8777   -3.8902   24.4681 O   0  0  0  0  0  0  0  0  0  0  0  0
    9.2484   -1.9600   25.0645 C   0  0  0  0  0  0  0  0  0  0  0  0
   10.1679   -2.3799   23.9606 N   0  0  0  0  0  0  0  0  0  0  0  0
    2.7749   -5.2153   20.2513 C   0  0  2  0  0  0  0  0  0  0  0  0
    1.4618   -5.6031   19.7912 N   0  0  0  0  0  0  0  0  0  0  0  0
    3.2613   -6.2206   21.3719 C   0  0  0  0  0  0  0  0  0  0  0  0
    4.7083   -5.8023   21.8934 C   0  0  2  0  0  0  0  0  0  0  0  0
    5.1706   -6.7573   22.9344 N   0  0  0  0  0  0  0  0  0  0  0  0
    4.6497   -4.3094   22.4634 C   0  0  2  0  0  0  0  0  0  0  0  0
    4.1560   -3.3414   21.3054 C   0  0  2  0  0  0  0  0  0  0  0  0
    4.1039   -2.0029   21.8044 O   0  0  0  0  0  0  0  0  0  0  0  0
    2.7236   -3.7700   20.7958 C   0  0  1  0  0  0  0  0  0  0  0  0
    2.2969   -2.8903   19.7258 O   0  0  0  0  0  0  0  0  0  0  0  0
    1.1726   -2.0779   19.7557 C   0  0  2  0  0  0  0  0  0  0  0  0
    1.6592   -0.6082   20.0171 C   0  0  2  0  0  0  0  0  0  0  0  0
    2.5579   -0.2280   19.0256 O   0  0  0  0  0  0  0  0  0  0  0  0
    2.2968   -0.4461   21.4623 C   0  0  1  0  0  0  0  0  0  0  0  0
    2.7416    0.9628   21.6947 N   0  0  0  0  0  0  0  0  0  0  0  0
    1.2205   -0.8906   22.5464 C   0  0  2  0  0  0  0  0  0  0  0  0
    1.7456   -0.7498   23.8722 O   0  0  0  0  0  0  0  0  0  0  0  0
    0.8058   -2.3822   22.2430 C   0  0  2  0  0  0  0  0  0  0  0  0
    0.2464   -2.5122   20.8328 O   0  0  0  0  0  0  0  0  0  0  0  0
   -0.2337   -2.8695   23.2241 C   0  0  0  0  0  0  0  0  0  0  0  0
    0.3445   -3.5410   24.3588 O   0  0  0  0  0  0  0  0  0  0  0  0
    4.2674   -4.8058   25.0439 O   0  0  0  0  0  0  0  0  0  0  0  0
    4.6030   -2.5757   26.7872 O   0  0  0  0  0  0  0  0  0  0  0  0
    1.2929   -6.8914   19.1597 C   0  0  0  0  0  0  0  0  0  0  0  0
    2.2879   -7.4662   18.6263 O   0  0  0  0  0  0  0  0  0  0  0  0
   -0.1332   -7.5230   19.1596 C   0  0  2  0  0  0  0  0  0  0  0  0
   -3.2038   -7.8016   18.1359 N   0  0  0  0  0  0  0  0  0  0  0  0
   -0.7652   -7.4751   17.7342 C   0  0  0  0  0  0  0  0  0  0  0  0
   -1.9748   -8.4112   17.5739 C   0  0  0  0  0  0  0  0  0  0  0  0
   -0.9464   -6.8969   19.9111 O   0  0  0  0  0  0  0  0  0  0  0  0
  1  2  1  6  0  0  0
  1  3  1  0  0  0  0
  1  8  1  0  0  0  0
  3  4  1  0  0  0  0
  3 32  1  6  0  0  0
  4  5  1  0  0  0  0
  4 33  1  1  0  0  0
  5  6  1  6  0  0  0
  5  7  1  0  0  0  0
  7  8  1  0  0  0  0
  7  9  1  1  0  0  0
  9 10  1  0  0  0  0
 11 12  1  1  0  0  0
 11 13  1  0  0  0  0
 11 19  1  0  0  0  0
 12 34  1  0  0  0  0
 13 14  1  0  0  0  0
 14 15  1  1  0  0  0
 14 16  1  0  0  0  0
 16  2  1  6  0  0  0
 16 17  1  0  0  0  0
 17 18  1  1  0  0  0
 17 19  1  0  0  0  0
 19 20  1  6  0  0  0
 21 20  1  1  0  0  0
 21 22  1  0  0  0  0
 21 29  1  0  0  0  0
 22 23  1  6  0  0  0
 22 24  1  0  0  0  0
 24 25  1  1  0  0  0
 24 26  1  0  0  0  0
 26 27  1  1  0  0  0
 26 28  1  0  0  0  0
 28 29  1  0  0  0  0
 28 30  1  1  0  0  0
 30 31  1  0  0  0  0
 34 35  2  0  0  0  0
 36 34  1  6  0  0  0
 36 38  1  0  0  0  0
 36 40  1  0  0  0  0
 37 39  1  0  0  0  0
 38 39  1  0  0  0  0
M  END
>  <CHROM.1>
-56.06624071,-71.80455562,170.50023409,-62.27924307,121.01265341,103.39370556
-92.95821932,107.77112570,163.92250035,80.52385515,3.18694648,-3.73361344
22.08833396,-0.55233809,0.56940592,-2.85180952

>  <Name>
ligand

>  <RI>
0

>  <Rbt.Current_Directory>
/home/itssahil/PROJECTS/Mol_Feturizer/New_Systems/rnas/4P20

>  <Rbt.Executable>
rbdock ($Id: //depot/dev/client3/rdock/2013.1/src/exe/rbdock.cxx#4 $)

>  <Rbt.Library>
libRbt.so (2013.1, Build901 2013/11/27)

>  <Rbt.Parameter_File>
/export/apps/rDock/src/rDock_2013.1_src/data/scripts/dock_solv.prm

>  <Rbt.Receptor>
prm/blind_docking_60.prm

>  <SCORE>
46.2434

>  <SCORE.INTER>
29.8094

>  <SCORE.INTER.CONST>
1

>  <SCORE.INTER.POLAR>
0

>  <SCORE.INTER.ROT>
10

>  <SCORE.INTER.SOLV>
28.6678

>  <SCORE.INTER.VDW>
0.0503226

>  <SCORE.INTER.norm>
0.745235

>  <SCORE.INTRA>
5.07133

>  <SCORE.INTRA.DIHEDRAL>
-6.45767

>  <SCORE.INTRA.DIHEDRAL.0>
28.2802

>  <SCORE.INTRA.POLAR>
0

>  <SCORE.INTRA.POLAR.0>
0

>  <SCORE.INTRA.REPUL>
0.0584289

>  <SCORE.INTRA.REPUL.0>
0

>  <SCORE.INTRA.SOLV>
4.04499

>  <SCORE.INTRA.SOLV.lig_0>
-101.981

>  <SCORE.INTRA.VDW>
5.98553

>  <SCORE.INTRA.VDW.0>
-5.72964

>  <SCORE.INTRA.norm>
0.126783

>  <SCORE.RESTR>
11.3627

>  <SCORE.RESTR.CAVITY>
11.3627

>  <SCORE.RESTR.norm>
0.284067

>  <SCORE.SYSTEM>
0

>  <SCORE.SYSTEM.CONST>
0

>  <SCORE.SYSTEM.DIHEDRAL>
0

>  <SCORE.SYSTEM.SOLV>
0

>  <SCORE.SYSTEM.norm>
0

>  <SCORE.heavy>
40

>  <SCORE.norm>
1.15609

>  <RMSD>
9.044

$$$$
ligand
 OpenBabel11021811513D
libRbt.so/2013.1/901 2013/11/27
 40 42  0  0  0  0  0  0  0  0999 V2000
   -6.2284   -7.9524   15.5535 C   0  0  2  0  0  0  0  0  0  0  0  0
   -6.0805   -7.9219   16.9818 O   0  0  0  0  0  0  0  0  0  0  0  0
   -7.4310   -7.0418   15.1018 C   0  0  1  0  0  0  0  0  0  0  0  0
   -8.7924   -7.5972   15.6127 C   0  0  2  0  0  0  0  0  0  0  0  0
   -8.9723   -9.0311   15.0212 C   0  0  2  0  0  0  0  0  0  0  0  0
  -10.2403   -9.5687   15.4544 O   0  0  0  0  0  0  0  0  0  0  0  0
   -7.7696   -9.9405   15.5292 C   0  0  2  0  0  0  0  0  0  0  0  0
   -6.4609   -9.3512   15.0708 O   0  0  0  0  0  0  0  0  0  0  0  0
   -7.8435  -11.3615   14.9876 C   0  0  0  0  0  0  0  0  0  0  0  0
   -9.0248  -12.0984   15.5370 N   0  0  0  0  0  0  0  0  0  0  0  0
   -2.6313   -9.2495   19.3631 C   0  0  2  0  0  0  0  0  0  0  0  0
   -1.7176  -10.1270   20.0571 N   0  0  0  0  0  0  0  0  0  0  0  0
   -4.0759   -9.3838   19.9939 C   0  0  0  0  0  0  0  0  0  0  0  0
   -5.0972   -8.4240   19.2345 C   0  0  2  0  0  0  0  0  0  0  0  0
   -6.4503   -8.5392   19.8390 N   0  0  0  0  0  0  0  0  0  0  0  0
   -5.1229   -8.8074   17.6823 C   0  0  2  0  0  0  0  0  0  0  0  0
   -3.6541   -8.6590   17.0970 C   0  0  2  0  0  0  0  0  0  0  0  0
   -3.6673   -8.9961   15.7080 O   0  0  0  0  0  0  0  0  0  0  0  0
   -2.6526   -9.6121   17.8611 C   0  0  1  0  0  0  0  0  0  0  0  0
   -1.3141   -9.4495   17.3296 O   0  0  0  0  0  0  0  0  0  0  0  0
   -0.2305  -10.2652   17.6219 C   0  0  2  0  0  0  0  0  0  0  0  0
    1.0068   -9.7071   16.8328 C   0  0  2  0  0  0  0  0  0  0  0  0
    1.2329   -8.3820   17.1908 O   0  0  0  0  0  0  0  0  0  0  0  0
    0.8200   -9.8534   15.2628 C   0  0  1  0  0  0  0  0  0  0  0  0
    2.0142   -9.3277   14.5318 N   0  0  0  0  0  0  0  0  0  0  0  0
    0.5713  -11.3871   14.9204 C   0  0  2  0  0  0  0  0  0  0  0  0
    0.4090  -11.5736   13.5089 O   0  0  0  0  0  0  0  0  0  0  0  0
   -0.7020  -11.8676   15.7183 C   0  0  2  0  0  0  0  0  0  0  0  0
   -0.5104  -11.6663   17.2154 O   0  0  0  0  0  0  0  0  0  0  0  0
   -0.9901  -13.3270   15.4580 C   0  0  0  0  0  0  0  0  0  0  0  0
   -1.2885  -13.5968   14.0756 O   0  0  0  0  0  0  0  0  0  0  0  0
   -7.2006   -5.6950   15.6087 O   0  0  0  0  0  0  0  0  0  0  0  0
   -9.8040   -6.7740   15.1805 O   0  0  0  0  0  0  0  0  0  0  0  0
   -1.4325   -9.8805   21.4517 C   0  0  0  0  0  0  0  0  0  0  0  0
   -1.6026   -8.7212   21.9335 O   0  0  0  0  0  0  0  0  0  0  0  0
   -0.9145  -11.0732   22.3129 C   0  0  2  0  0  0  0  0  0  0  0  0
    2.9250  -10.8900   21.6871 N   0  0  0  0  0  0  0  0  0  0  0  0
    0.5158  -11.5058   21.8650 C   0  0  0  0  0  0  0  0  0  0  0  0
    1.5822  -10.4251   22.1100 C   0  0  0  0  0  0  0  0  0  0  0  0
   -1.6356  -12.1141   22.1924 O   0  0  0  0  0  0  0  0  0  0  0  0
  1  2  1  1  0  0  0
  1  3  1  0  0  0  0
  1  8  1  0  0  0  0
  3  4  1  0  0  0  0
  3 32  1  1  0  0  0
  4  5  1  0  0  0  0
  4 33  1  6  0  0  0
  5  6  1  1  0  0  0
  5  7  1  0  0  0  0
  7  8  1  0  0  0  0
  7  9  1  6  0  0  0
  9 10  1  0  0  0  0
 11 12  1  1  0  0  0
 11 13  1  0  0  0  0
 11 19  1  0  0  0  0
 12 34  1  0  0  0  0
 13 14  1  0  0  0  0
 14 15  1  1  0  0  0
 14 16  1  0  0  0  0
 16  2  1  6  0  0  0
 16 17  1  0  0  0  0
 17 18  1  6  0  0  0
 17 19  1  0  0  0  0
 19 20  1  6  0  0  0
 21 20  1  6  0  0  0
 21 22  1  0  0  0  0
 21 29  1  0  0  0  0
 22 23  1  6  0  0  0
 22 24  1  0  0  0  0
 24 25  1  6  0  0  0
 24 26  1  0  0  0  0
 26 27  1  6  0  0  0
 26 28  1  0  0  0  0
 28 29  1  0  0  0  0
 28 30  1  1  0  0  0
 30 31  1  0  0  0  0
 34 35  2  0  0  0  0
 36 34  1  6  0  0  0
 36 38  1  0  0  0  0
 36 40  1  0  0  0  0
 37 39  1  0  0  0  0
 38 39  1  0  0  0  0
M  END
>  <CHROM.1>
173.04436116,174.36120565,-66.77974284,-64.67919961,70.28169295,-179.60691819
-62.23432264,67.84333906,65.13703174,179.17475753,-3.27820298,-9.77730743
17.36115706,-2.81455255,-0.29355929,1.41731888

>  <Name>
ligand

>  <RI>
0

>  <Rbt.Current_Directory>
/home/itssahil/PROJECTS/Mol_Feturizer/New_Systems/rnas/4P20

>  <Rbt.Executable>
rbdock ($Id: //depot/dev/client3/rdock/2013.1/src/exe/rbdock.cxx#4 $)

>  <Rbt.Library>
libRbt.so (2013.1, Build901 2013/11/27)

>  <Rbt.Parameter_File>
/export/apps/rDock/src/rDock_2013.1_src/data/scripts/dock_solv.prm

>  <Rbt.Receptor>
prm/pocket_docking_7.prm

>  <SCORE>
-11.0516

>  <SCORE.INTER>
0.684728

>  <SCORE.INTER.CONST>
1

>  <SCORE.INTER.POLAR>
0

>  <SCORE.INTER.ROT>
10

>  <SCORE.INTER.SOLV>
14.7166

>  <SCORE.INTER.VDW>
-14.7157

>  <SCORE.INTER.norm>
0.0171182

>  <SCORE.INTRA>
-11.7364

>  <SCORE.INTRA.DIHEDRAL>
-26.1973

>  <SCORE.INTRA.DIHEDRAL.0>
28.2802

>  <SCORE.INTRA.POLAR>
0

>  <SCORE.INTRA.POLAR.0>
0

>  <SCORE.INTRA.REPUL>
0

>  <SCORE.INTRA.REPUL.0>
0

>  <SCORE.INTRA.SOLV>
-1.08396

>  <SCORE.INTRA.SOLV.lig_0>
-101.981

>  <SCORE.INTRA.VDW>
1.90424

>  <SCORE.INTRA.VDW.0>
-5.72964

>  <SCORE.INTRA.norm>
-0.293409

>  <SCORE.RESTR>
0

>  <SCORE.RESTR.CAVITY>
0

>  <SCORE.RESTR.norm>
0

>  <SCORE.SYSTEM>
0

>  <SCORE.SYSTEM.CONST>
0

>  <SCORE.SYSTEM.DIHEDRAL>
0

>  <SCORE.SYSTEM.SOLV>
0

>  <SCORE.SYSTEM.norm>
0

>  <SCORE.heavy>
40

>  <SCORE.norm>
-0.276291

>  <RMSD>
9.049

$$$$
ligand
 OpenBabel11021811513D
libRbt.so/2013.1/901 2013/11/27
 40 42  0  0  0  0  0  0  0  0999 V2000
    4.2708  -11.3114   14.0813 C   0  0  2  0  0  0  0  0  0  0  0  0
    3.9143  -11.8244   15.3746 O   0  0  0  0  0  0  0  0  0  0  0  0
    2.9819  -10.9160   13.2679 C   0  0  1  0  0  0  0  0  0  0  0  0
    2.1142  -12.1631   12.9294 C   0  0  2  0  0  0  0  0  0  0  0  0
    2.9912  -13.1349   12.0781 C   0  0  2  0  0  0  0  0  0  0  0  0
    2.2082  -14.2947   11.7228 O   0  0  0  0  0  0  0  0  0  0  0  0
    4.2618  -13.5529   12.9396 C   0  0  2  0  0  0  0  0  0  0  0  0
    5.0537  -12.3237   13.3029 O   0  0  0  0  0  0  0  0  0  0  0  0
    5.1957  -14.4895   12.1854 C   0  0  0  0  0  0  0  0  0  0  0  0
    6.3614  -14.9005   13.0295 N   0  0  0  0  0  0  0  0  0  0  0  0
    3.8149  -10.1192   19.4259 C   0  0  2  0  0  0  0  0  0  0  0  0
    3.5058   -9.2200   20.5132 N   0  0  0  0  0  0  0  0  0  0  0  0
    4.6059   -9.3372   18.3009 C   0  0  0  0  0  0  0  0  0  0  0  0
    4.9501  -10.3163   17.0911 C   0  0  2  0  0  0  0  0  0  0  0  0
    5.7076   -9.5840   16.0425 N   0  0  0  0  0  0  0  0  0  0  0  0
    3.5923  -10.9244   16.5051 C   0  0  2  0  0  0  0  0  0  0  0  0
    2.8360  -11.6958   17.6691 C   0  0  2  0  0  0  0  0  0  0  0  0
    1.6218  -12.2467   17.1539 O   0  0  0  0  0  0  0  0  0  0  0  0
    2.5051  -10.7150   18.8622 C   0  0  1  0  0  0  0  0  0  0  0  0
    1.8344  -11.4383   19.9241 O   0  0  0  0  0  0  0  0  0  0  0  0
    0.5143  -11.8641   19.8949 C   0  0  2  0  0  0  0  0  0  0  0  0
    0.0717  -12.1311   21.3775 C   0  0  2  0  0  0  0  0  0  0  0  0
    0.2356  -10.9739   22.1318 O   0  0  0  0  0  0  0  0  0  0  0  0
    0.8615  -13.3505   22.0184 C   0  0  1  0  0  0  0  0  0  0  0  0
    0.4158  -13.5951   23.4249 N   0  0  0  0  0  0  0  0  0  0  0  0
    0.6294  -14.6389   21.1143 C   0  0  2  0  0  0  0  0  0  0  0  0
    1.3140  -15.7735   21.6600 O   0  0  0  0  0  0  0  0  0  0  0  0
    1.1271  -14.3096   19.6539 C   0  0  2  0  0  0  0  0  0  0  0  0
    0.3866  -13.1052   19.0886 O   0  0  0  0  0  0  0  0  0  0  0  0
    0.9191  -15.4850   18.7288 C   0  0  0  0  0  0  0  0  0  0  0  0
   -0.4703  -15.8256   18.5665 O   0  0  0  0  0  0  0  0  0  0  0  0
    2.2198   -9.9561   14.0565 O   0  0  0  0  0  0  0  0  0  0  0  0
    1.0134  -11.7629   12.2111 O   0  0  0  0  0  0  0  0  0  0  0  0
    4.5278   -8.9254   21.4908 C   0  0  0  0  0  0  0  0  0  0  0  0
    5.4869   -9.7351   21.6621 O   0  0  0  0  0  0  0  0  0  0  0  0
    4.3971   -7.6032   22.3077 C   0  0  2  0  0  0  0  0  0  0  0  0
    3.4408   -4.9402   19.6321 N   0  0  0  0  0  0  0  0  0  0  0  0
    4.5188   -6.3572   21.3770 C   0  0  0  0  0  0  0  0  0  0  0  0
    3.2972   -6.1589   20.4642 C   0  0  0  0  0  0  0  0  0  0  0  0
    5.3189   -7.4694   23.1739 O   0  0  0  0  0  0  0  0  0  0  0  0
  1  2  1  1  0  0  0
  1  3  1  0  0  0  0
  1  8  1  0  0  0  0
  3  4  1  0  0  0  0
  3 32  1  1  0  0  0
  4  5  1  0  0  0  0
  4 33  1  6  0  0  0
  5  6  1  1  0  0  0
  5  7  1  0  0  0  0
  7  8  1  0  0  0  0
  7  9  1  6  0  0  0
  9 10  1  0  0  0  0
 11 12  1  1  0  0  0
 11 13  1  0  0  0  0
 11 19  1  0  0  0  0
 12 34  1  0  0  0  0
 13 14  1  0  0  0  0
 14 15  1  6  0  0  0
 14 16  1  0  0  0  0
 16  2  1  6  0  0  0
 16 17  1  0  0  0  0
 17 18  1  6  0  0  0
 17 19  1  0  0  0  0
 19 20  1  1  0  0  0
 21 20  1  1  0  0  0
 21 22  1  0  0  0  0
 21 29  1  0  0  0  0
 22 23  1  1  0  0  0
 22 24  1  0  0  0  0
 24 25  1  1  0  0  0
 24 26  1  0  0  0  0
 26 27  1  1  0  0  0
 26 28  1  0  0  0  0
 28 29  1  0  0  0  0
 28 30  1  6  0  0  0
 30 31  1  0  0  0  0
 34 35  2  0  0  0  0
 36 34  1  6  0  0  0
 36 38  1  0  0  0  0
 36 40  1  0  0  0  0
 37 39  1  0  0  0  0
 38 39  1  0  0  0  0
M  END
>  <CHROM.1>
-81.29004259,-76.50819113,-178.32285510,-80.52986709,165.45211276,-160.44991867
63.12266549,-64.65047712,71.19286167,178.16506890,2.84003817,-11.48820793
17.89779837,-1.44337327,0.99975222,1.10684675

>  <Name>
ligand

>  <RI>
0

>  <Rbt.Current_Directory>
/home/itssahil/PROJECTS/Mol_Feturizer/New_Systems/rnas/4P20

>  <Rbt.Executable>
rbdock ($Id: //depot/dev/client3/rdock/2013.1/src/exe/rbdock.cxx#4 $)

>  <Rbt.Library>
libRbt.so (2013.1, Build901 2013/11/27)

>  <Rbt.Parameter_File>
/export/apps/rDock/src/rDock_2013.1_src/data/scripts/dock_solv.prm

>  <Rbt.Receptor>
prm/pocket_docking_8.prm

>  <SCORE>
-10.9642

>  <SCORE.INTER>
-1.97855

>  <SCORE.INTER.CONST>
1

>  <SCORE.INTER.POLAR>
0

>  <SCORE.INTER.ROT>
10

>  <SCORE.INTER.SOLV>
12.7042

>  <SCORE.INTER.VDW>
-15.8204

>  <SCORE.INTER.norm>
-0.0494637

>  <SCORE.INTRA>
-8.98564

>  <SCORE.INTRA.DIHEDRAL>
-20.646

>  <SCORE.INTRA.DIHEDRAL.0>
28.2802

>  <SCORE.INTRA.POLAR>
0

>  <SCORE.INTRA.POLAR.0>
0

>  <SCORE.INTRA.REPUL>
0

>  <SCORE.INTRA.REPUL.0>
0

>  <SCORE.INTRA.SOLV>
-0.349023

>  <SCORE.INTRA.SOLV.lig_0>
-101.981

>  <SCORE.INTRA.VDW>
1.51186

>  <SCORE.INTRA.VDW.0>
-5.72964

>  <SCORE.INTRA.norm>
-0.224641

>  <SCORE.RESTR>
0

>  <SCORE.RESTR.CAVITY>
0

>  <SCORE.RESTR.norm>
0

>  <SCORE.SYSTEM>
0

>  <SCORE.SYSTEM.CONST>
0

>  <SCORE.SYSTEM.DIHEDRAL>
0

>  <SCORE.SYSTEM.SOLV>
0

>  <SCORE.SYSTEM.norm>
0

>  <SCORE.heavy>
40

>  <SCORE.norm>
-0.274105

>  <RMSD>
9.050

$$$$
ligand
 OpenBabel11021811503D
libRbt.so/2013.1/901 2013/11/27
 40 42  0  0  0  0  0  0  0  0999 V2000
    6.2606   -2.8655   23.6429 C   0  0  2  0  0  0  0  0  0  0  0  0
    6.0637   -4.1676   23.0697 O   0  0  0  0  0  0  0  0  0  0  0  0
    7.5771   -2.8336   24.5060 C   0  0  1  0  0  0  0  0  0  0  0  0
    7.4661   -3.7585   25.7531 C   0  0  2  0  0  0  0  0  0  0  0  0
    6.2652   -3.2531   26.6137 C   0  0  2  0  0  0  0  0  0  0  0  0
    6.1481   -4.0741   27.7955 O   0  0  0  0  0  0  0  0  0  0  0  0
    4.9428   -3.3381   25.7330 C   0  0  2  0  0  0  0  0  0  0  0  0
    5.0972   -2.4801   24.5041 O   0  0  0  0  0  0  0  0  0  0  0  0
    3.7114   -2.8452   26.4805 C   0  0  0  0  0  0  0  0  0  0  0  0
    3.7287   -1.3578   26.6479 N   0  0  0  0  0  0  0  0  0  0  0  0
    2.6375   -5.4940   20.6549 C   0  0  2  0  0  0  0  0  0  0  0  0
    1.3242   -5.9944   20.3213 N   0  0  0  0  0  0  0  0  0  0  0  0
    3.4112   -6.5718   21.5166 C   0  0  0  0  0  0  0  0  0  0  0  0
    4.8618   -6.0313   21.8969 C   0  0  2  0  0  0  0  0  0  0  0  0
    5.5935   -7.0517   22.6925 N   0  0  0  0  0  0  0  0  0  0  0  0
    4.7156   -4.6612   22.7083 C   0  0  2  0  0  0  0  0  0  0  0  0
    3.9333   -3.6155   21.8048 C   0  0  2  0  0  0  0  0  0  0  0  0
    3.8007   -2.3853   22.5204 O   0  0  0  0  0  0  0  0  0  0  0  0
    2.5001   -4.1656   21.4325 C   0  0  1  0  0  0  0  0  0  0  0  0
    1.8078   -3.2097   20.5913 O   0  0  0  0  0  0  0  0  0  0  0  0
    0.6485   -2.5300   20.9359 C   0  0  2  0  0  0  0  0  0  0  0  0
    0.5675   -1.2474   20.0340 C   0  0  2  0  0  0  0  0  0  0  0  0
    0.5838   -1.6153   18.6925 O   0  0  0  0  0  0  0  0  0  0  0  0
    1.7341   -0.2213   20.3617 C   0  0  1  0  0  0  0  0  0  0  0  0
    1.6308    0.9973   19.5008 N   0  0  0  0  0  0  0  0  0  0  0  0
    1.6569    0.1617   21.9040 C   0  0  2  0  0  0  0  0  0  0  0  0
    2.6850    1.0990   22.2476 O   0  0  0  0  0  0  0  0  0  0  0  0
    1.7792   -1.1667   22.7461 C   0  0  2  0  0  0  0  0  0  0  0  0
    0.6773   -2.1484   22.3712 O   0  0  0  0  0  0  0  0  0  0  0  0
    1.6937   -0.8836   24.2269 C   0  0  0  0  0  0  0  0  0  0  0  0
    0.4022   -0.3865   24.6242 O   0  0  0  0  0  0  0  0  0  0  0  0
    8.6900   -3.2424   23.6583 O   0  0  0  0  0  0  0  0  0  0  0  0
    8.6333   -3.6826   26.4740 O   0  0  0  0  0  0  0  0  0  0  0  0
    1.1828   -6.9030   19.2071 C   0  0  0  0  0  0  0  0  0  0  0  0
    2.0594   -6.9186   18.2926 O   0  0  0  0  0  0  0  0  0  0  0  0
   -0.0674   -7.8351   19.1793 C   0  0  2  0  0  0  0  0  0  0  0  0
   -3.6541   -7.2655   17.7907 N   0  0  0  0  0  0  0  0  0  0  0  0
   -1.2296   -7.1866   18.3655 C   0  0  0  0  0  0  0  0  0  0  0  0
   -2.5237   -8.0171   18.3869 C   0  0  0  0  0  0  0  0  0  0  0  0
   -0.5449   -8.0491   20.3387 O   0  0  0  0  0  0  0  0  0  0  0  0
  1  2  1  1  0  0  0
  1  3  1  0  0  0  0
  1  8  1  0  0  0  0
  3  4  1  0  0  0  0
  3 32  1  6  0  0  0
  4  5  1  0  0  0  0
  4 33  1  1  0  0  0
  5  6  1  1  0  0  0
  5  7  1  0  0  0  0
  7  8  1  0  0  0  0
  7  9  1  1  0  0  0
  9 10  1  0  0  0  0
 11 12  1  1  0  0  0
 11 13  1  0  0  0  0
 11 19  1  0  0  0  0
 12 34  1  0  0  0  0
 13 14  1  0  0  0  0
 14 15  1  1  0  0  0
 14 16  1  0  0  0  0
 16  2  1  6  0  0  0
 16 17  1  0  0  0  0
 17 18  1  1  0  0  0
 17 19  1  0  0  0  0
 19 20  1  6  0  0  0
 21 20  1  6  0  0  0
 21 22  1  0  0  0  0
 21 29  1  0  0  0  0
 22 23  1  6  0  0  0
 22 24  1  0  0  0  0
 24 25  1  6  0  0  0
 24 26  1  0  0  0  0
 26 27  1  1  0  0  0
 26 28  1  0  0  0  0
 28 29  1  0  0  0  0
 28 30  1  1  0  0  0
 30 31  1  0  0  0  0
 34 35  2  0  0  0  0
 36 34  1  1  0  0  0
 36 38  1  0  0  0  0
 36 40  1  0  0  0  0
 37 39  1  0  0  0  0
 38 39  1  0  0  0  0
M  END
>  <CHROM.1>
154.19081122,171.34688631,72.01269837,-81.43251509,124.38032446,158.29336052
65.80814732,93.20564881,-175.93913045,170.87756146,2.97630073,-3.65621834
22.28012402,-0.51151165,0.65783702,-2.84669830

>  <Name>
ligand

>  <RI>
0

>  <Rbt.Current_Directory>
/home/itssahil/PROJECTS/Mol_Feturizer/New_Systems/rnas/4P20

>  <Rbt.Executable>
rbdock ($Id: //depot/dev/client3/rdock/2013.1/src/exe/rbdock.cxx#4 $)

>  <Rbt.Library>
libRbt.so (2013.1, Build901 2013/11/27)

>  <Rbt.Parameter_File>
/export/apps/rDock/src/rDock_2013.1_src/data/scripts/dock_solv.prm

>  <Rbt.Receptor>
prm/blind_docking_60.prm

>  <SCORE>
26.4108

>  <SCORE.INTER>
9.0357

>  <SCORE.INTER.CONST>
1

>  <SCORE.INTER.POLAR>
0

>  <SCORE.INTER.ROT>
10

>  <SCORE.INTER.SOLV>
33.2841

>  <SCORE.INTER.VDW>
-15.3376

>  <SCORE.INTER.norm>
0.225892

>  <SCORE.INTRA>
1.35984

>  <SCORE.INTRA.DIHEDRAL>
-12.7868

>  <SCORE.INTRA.DIHEDRAL.0>
28.2802

>  <SCORE.INTRA.POLAR>
0

>  <SCORE.INTRA.POLAR.0>
0

>  <SCORE.INTRA.REPUL>
0

>  <SCORE.INTRA.REPUL.0>
0

>  <SCORE.INTRA.SOLV>
1.64138

>  <SCORE.INTRA.SOLV.lig_0>
-101.981

>  <SCORE.INTRA.VDW>
6.93257

>  <SCORE.INTRA.VDW.0>
-5.72964

>  <SCORE.INTRA.norm>
0.033996

>  <SCORE.RESTR>
16.0153

>  <SCORE.RESTR.CAVITY>
16.0153

>  <SCORE.RESTR.norm>
0.400382

>  <SCORE.SYSTEM>
0

>  <SCORE.SYSTEM.CONST>
0

>  <SCORE.SYSTEM.DIHEDRAL>
0

>  <SCORE.SYSTEM.SOLV>
0

>  <SCORE.SYSTEM.norm>
0

>  <SCORE.heavy>
40

>  <SCORE.norm>
0.66027

>  <RMSD>
9.054

$$$$
ligand
 OpenBabel11021811513D
libRbt.so/2013.1/901 2013/11/27
 40 42  0  0  0  0  0  0  0  0999 V2000
   -2.5715  -10.9221   17.8292 C   0  0  2  0  0  0  0  0  0  0  0  0
   -1.7027  -10.9524   16.6858 O   0  0  0  0  0  0  0  0  0  0  0  0
   -3.5539  -12.1525   17.8110 C   0  0  1  0  0  0  0  0  0  0  0  0
   -4.5423  -12.0776   16.6108 C   0  0  2  0  0  0  0  0  0  0  0  0
   -5.3625  -10.7565   16.7529 C   0  0  2  0  0  0  0  0  0  0  0  0
   -6.3104  -10.6660   15.6677 O   0  0  0  0  0  0  0  0  0  0  0  0
   -4.3505   -9.5291   16.7234 C   0  0  2  0  0  0  0  0  0  0  0  0
   -3.3692   -9.6548   17.8598 O   0  0  0  0  0  0  0  0  0  0  0  0
   -5.0551   -8.1882   16.8766 C   0  0  0  0  0  0  0  0  0  0  0  0
   -6.0564   -7.9657   15.7864 N   0  0  0  0  0  0  0  0  0  0  0  0
    2.3194   -9.2359   16.2318 C   0  0  2  0  0  0  0  0  0  0  0  0
    3.3640   -8.2570   16.0393 N   0  0  0  0  0  0  0  0  0  0  0  0
    1.3570   -9.2368   14.9762 C   0  0  0  0  0  0  0  0  0  0  0  0
    0.1953  -10.3097   15.1765 C   0  0  2  0  0  0  0  0  0  0  0  0
   -0.6985  -10.3208   13.9888 N   0  0  0  0  0  0  0  0  0  0  0  0
   -0.6177   -9.9610   16.5086 C   0  0  2  0  0  0  0  0  0  0  0  0
    0.3892   -9.9708   17.7366 C   0  0  2  0  0  0  0  0  0  0  0  0
   -0.3292   -9.6637   18.9336 O   0  0  0  0  0  0  0  0  0  0  0  0
    1.5366   -8.9064   17.5229 C   0  0  1  0  0  0  0  0  0  0  0  0
    2.4578   -8.9425   18.6412 O   0  0  0  0  0  0  0  0  0  0  0  0
    2.1126   -8.7503   19.9712 C   0  0  2  0  0  0  0  0  0  0  0  0
    1.6257   -7.2653   20.1224 C   0  0  2  0  0  0  0  0  0  0  0  0
    0.5582   -7.0314   19.2617 O   0  0  0  0  0  0  0  0  0  0  0  0
    2.8031   -6.2300   19.8708 C   0  0  1  0  0  0  0  0  0  0  0  0
    2.3209   -4.8235   20.0321 N   0  0  0  0  0  0  0  0  0  0  0  0
    3.9859   -6.5474   20.8865 C   0  0  2  0  0  0  0  0  0  0  0  0
    5.0709   -5.6287   20.7072 O   0  0  0  0  0  0  0  0  0  0  0  0
    4.4453   -8.0387   20.6540 C   0  0  2  0  0  0  0  0  0  0  0  0
    3.2817   -9.0006   20.8527 O   0  0  0  0  0  0  0  0  0  0  0  0
    5.5577   -8.4207   21.6010 C   0  0  0  0  0  0  0  0  0  0  0  0
    6.0108   -9.7737   21.4095 O   0  0  0  0  0  0  0  0  0  0  0  0
   -2.7585  -13.3722   17.7487 O   0  0  0  0  0  0  0  0  0  0  0  0
   -5.3810  -13.1650   16.6511 O   0  0  0  0  0  0  0  0  0  0  0  0
    4.1945   -8.3413   14.8603 C   0  0  0  0  0  0  0  0  0  0  0  0
    4.3166   -9.4471   14.2542 O   0  0  0  0  0  0  0  0  0  0  0  0
    4.9191   -7.0451   14.3835 C   0  0  2  0  0  0  0  0  0  0  0  0
    5.9326   -5.8295   10.8253 N   0  0  0  0  0  0  0  0  0  0  0  0
    5.1561   -7.0725   12.8419 C   0  0  0  0  0  0  0  0  0  0  0  0
    5.6911   -5.7424   12.2855 C   0  0  0  0  0  0  0  0  0  0  0  0
    6.0735   -6.9107   14.9007 O   0  0  0  0  0  0  0  0  0  0  0  0
  1  2  1  6  0  0  0
  1  3  1  0  0  0  0
  1  8  1  0  0  0  0
  3  4  1  0  0  0  0
  3 32  1  6  0  0  0
  4  5  1  0  0  0  0
  4 33  1  1  0  0  0
  5  6  1  6  0  0  0
  5  7  1  0  0  0  0
  7  8  1  0  0  0  0
  7  9  1  1  0  0  0
  9 10  1  0  0  0  0
 11 12  1  6  0  0  0
 11 13  1  0  0  0  0
 11 19  1  0  0  0  0
 12 34  1  0  0  0  0
 13 14  1  0  0  0  0
 14 15  1  6  0  0  0
 14 16  1  0  0  0  0
 16  2  1  1  0  0  0
 16 17  1  0  0  0  0
 17 18  1  1  0  0  0
 17 19  1  0  0  0  0
 19 20  1  1  0  0  0
 21 20  1  6  0  0  0
 21 22  1  0  0  0  0
 21 29  1  0  0  0  0
 22 23  1  6  0  0  0
 22 24  1  0  0  0  0
 24 25  1  1  0  0  0
 24 26  1  0  0  0  0
 26 27  1  6  0  0  0
 26 28  1  0  0  0  0
 28 29  1  0  0  0  0
 28 30  1  1  0  0  0
 30 31  1  0  0  0  0
 34 35  2  0  0  0  0
 36 34  1  1  0  0  0
 36 38  1  0  0  0  0
 36 40  1  0  0  0  0
 37 39  1  0  0  0  0
 38 39  1  0  0  0  0
M  END
>  <CHROM.1>
-175.66294537,177.61890012,-59.34937762,-56.05046874,-177.32016355,-65.71407902
-179.50134180,-151.82009643,172.09477639,178.54608504,0.82117617,-8.92497961
17.23806881,3.10012000,-0.37978975,-1.55051272

>  <Name>
ligand

>  <RI>
0

>  <Rbt.Current_Directory>
/home/itssahil/PROJECTS/Mol_Feturizer/New_Systems/rnas/4P20

>  <Rbt.Executable>
rbdock ($Id: //depot/dev/client3/rdock/2013.1/src/exe/rbdock.cxx#4 $)

>  <Rbt.Library>
libRbt.so (2013.1, Build901 2013/11/27)

>  <Rbt.Parameter_File>
/export/apps/rDock/src/rDock_2013.1_src/data/scripts/dock_solv.prm

>  <Rbt.Receptor>
prm/pocket_docking_6.prm

>  <SCORE>
-11.1159

>  <SCORE.INTER>
-1.32956

>  <SCORE.INTER.CONST>
1

>  <SCORE.INTER.POLAR>
0

>  <SCORE.INTER.ROT>
10

>  <SCORE.INTER.SOLV>
25.8423

>  <SCORE.INTER.VDW>
-19.7671

>  <SCORE.INTER.norm>
-0.0332389

>  <SCORE.INTRA>
-9.78631

>  <SCORE.INTRA.DIHEDRAL>
-26.1437

>  <SCORE.INTRA.DIHEDRAL.0>
28.2802

>  <SCORE.INTRA.POLAR>
0

>  <SCORE.INTRA.POLAR.0>
0

>  <SCORE.INTRA.REPUL>
0

>  <SCORE.INTRA.REPUL.0>
0

>  <SCORE.INTRA.SOLV>
-1.00268

>  <SCORE.INTRA.SOLV.lig_0>
-101.981

>  <SCORE.INTRA.VDW>
3.78689

>  <SCORE.INTRA.VDW.0>
-5.72964

>  <SCORE.INTRA.norm>
-0.244658

>  <SCORE.RESTR>
0

>  <SCORE.RESTR.CAVITY>
0

>  <SCORE.RESTR.norm>
0

>  <SCORE.SYSTEM>
0

>  <SCORE.SYSTEM.CONST>
0

>  <SCORE.SYSTEM.DIHEDRAL>
0

>  <SCORE.SYSTEM.SOLV>
0

>  <SCORE.SYSTEM.norm>
0

>  <SCORE.heavy>
40

>  <SCORE.norm>
-0.277897

>  <RMSD>
9.061

$$$$
ligand
 OpenBabel11021811513D
libRbt.so/2013.1/901 2013/11/27
 40 42  0  0  0  0  0  0  0  0999 V2000
    0.6964  -13.3917   17.7407 C   0  0  2  0  0  0  0  0  0  0  0  0
    0.8916  -12.8325   16.4322 O   0  0  0  0  0  0  0  0  0  0  0  0
    0.2560  -14.9000   17.6382 C   0  0  1  0  0  0  0  0  0  0  0  0
   -1.1460  -15.0429   16.9773 C   0  0  2  0  0  0  0  0  0  0  0  0
   -2.1688  -14.2590   17.8591 C   0  0  2  0  0  0  0  0  0  0  0  0
   -3.4885  -14.3916   17.2888 O   0  0  0  0  0  0  0  0  0  0  0  0
   -1.7253  -12.7318   17.9087 C   0  0  2  0  0  0  0  0  0  0  0  0
   -0.3432  -12.6251   18.4991 O   0  0  0  0  0  0  0  0  0  0  0  0
   -2.6533  -11.8823   18.7661 C   0  0  0  0  0  0  0  0  0  0  0  0
   -2.2733  -10.4352   18.7198 N   0  0  0  0  0  0  0  0  0  0  0  0
    3.6470   -9.7178   15.0052 C   0  0  2  0  0  0  0  0  0  0  0  0
    4.2428   -8.4159   14.8144 N   0  0  0  0  0  0  0  0  0  0  0  0
    2.1552   -9.6993   14.4791 C   0  0  0  0  0  0  0  0  0  0  0  0
    1.4824  -11.1293   14.6876 C   0  0  2  0  0  0  0  0  0  0  0  0
    0.0862  -11.1148   14.1778 N   0  0  0  0  0  0  0  0  0  0  0  0
    1.5271  -11.5092   16.2402 C   0  0  2  0  0  0  0  0  0  0  0  0
    3.0409  -11.5128   16.7200 C   0  0  2  0  0  0  0  0  0  0  0  0
    3.0917  -11.8553   18.1069 O   0  0  0  0  0  0  0  0  0  0  0  0
    3.6957  -10.0916   16.5038 C   0  0  1  0  0  0  0  0  0  0  0  0
    5.0817  -10.1175   16.9267 O   0  0  0  0  0  0  0  0  0  0  0  0
    5.8001   -9.0237   17.3875 C   0  0  2  0  0  0  0  0  0  0  0  0
    7.2857   -9.4878   17.5942 C   0  0  2  0  0  0  0  0  0  0  0  0
    7.7926   -9.9854   16.3981 O   0  0  0  0  0  0  0  0  0  0  0  0
    7.4124  -10.5580   18.7605 C   0  0  1  0  0  0  0  0  0  0  0  0
    8.8359  -10.9766   18.9485 N   0  0  0  0  0  0  0  0  0  0  0  0
    6.8222   -9.9273   20.0965 C   0  0  2  0  0  0  0  0  0  0  0  0
    6.9259  -10.8531   21.1853 O   0  0  0  0  0  0  0  0  0  0  0  0
    5.3229   -9.5181   19.8251 C   0  0  2  0  0  0  0  0  0  0  0  0
    5.2321   -8.5315   18.6688 O   0  0  0  0  0  0  0  0  0  0  0  0
    4.6988   -8.8904   21.0486 C   0  0  0  0  0  0  0  0  0  0  0  0
    5.4025   -7.7146   21.4904 O   0  0  0  0  0  0  0  0  0  0  0  0
    1.2640  -15.6197   16.8702 O   0  0  0  0  0  0  0  0  0  0  0  0
   -1.4844  -16.3734   16.9251 O   0  0  0  0  0  0  0  0  0  0  0  0
    5.5220   -8.3214   14.1497 C   0  0  0  0  0  0  0  0  0  0  0  0
    6.2978   -9.3228   14.1324 O   0  0  0  0  0  0  0  0  0  0  0  0
    5.8968   -6.9650   13.4772 C   0  0  2  0  0  0  0  0  0  0  0  0
    6.6096   -5.1040   11.0044 N   0  0  0  0  0  0  0  0  0  0  0  0
    5.1499   -6.7898   12.1189 C   0  0  0  0  0  0  0  0  0  0  0  0
    5.2549   -5.3662   11.5468 C   0  0  0  0  0  0  0  0  0  0  0  0
    7.1345   -6.8834   13.1953 O   0  0  0  0  0  0  0  0  0  0  0  0
  1  2  1  6  0  0  0
  1  3  1  0  0  0  0
  1  8  1  0  0  0  0
  3  4  1  0  0  0  0
  3 32  1  6  0  0  0
  4  5  1  0  0  0  0
  4 33  1  1  0  0  0
  5  6  1  6  0  0  0
  5  7  1  0  0  0  0
  7  8  1  0  0  0  0
  7  9  1  1  0  0  0
  9 10  1  0  0  0  0
 11 12  1  1  0  0  0
 11 13  1  0  0  0  0
 11 19  1  0  0  0  0
 12 34  1  0  0  0  0
 13 14  1  0  0  0  0
 14 15  1  1  0  0  0
 14 16  1  0  0  0  0
 16  2  1  6  0  0  0
 16 17  1  0  0  0  0
 17 18  1  1  0  0  0
 17 19  1  0  0  0  0
 19 20  1  6  0  0  0
 21 20  1  1  0  0  0
 21 22  1  0  0  0  0
 21 29  1  0  0  0  0
 22 23  1  6  0  0  0
 22 24  1  0  0  0  0
 24 25  1  1  0  0  0
 24 26  1  0  0  0  0
 26 27  1  1  0  0  0
 26 28  1  0  0  0  0
 28 29  1  0  0  0  0
 28 30  1  1  0  0  0
 30 31  1  0  0  0  0
 34 35  2  0  0  0  0
 36 34  1  6  0  0  0
 36 38  1  0  0  0  0
 36 40  1  0  0  0  0
 37 39  1  0  0  0  0
 38 39  1  0  0  0  0
M  END
>  <CHROM.1>
-169.36608147,-175.31872348,-175.98097646,-129.02954601,87.35009945,-174.57693612
58.85570261,-77.14313809,168.46707715,73.56334899,3.23668894,-10.61933502
16.78487436,-2.67074819,-0.51828336,-1.12601086

>  <Name>
ligand

>  <RI>
0

>  <Rbt.Current_Directory>
/home/itssahil/PROJECTS/Mol_Feturizer/New_Systems/rnas/4P20

>  <Rbt.Executable>
rbdock ($Id: //depot/dev/client3/rdock/2013.1/src/exe/rbdock.cxx#4 $)

>  <Rbt.Library>
libRbt.so (2013.1, Build901 2013/11/27)

>  <Rbt.Parameter_File>
/export/apps/rDock/src/rDock_2013.1_src/data/scripts/dock_solv.prm

>  <Rbt.Receptor>
prm/pocket_docking_6.prm

>  <SCORE>
-11.0531

>  <SCORE.INTER>
-1.22161

>  <SCORE.INTER.CONST>
1

>  <SCORE.INTER.POLAR>
0

>  <SCORE.INTER.ROT>
10

>  <SCORE.INTER.SOLV>
15.3706

>  <SCORE.INTER.VDW>
-16.2046

>  <SCORE.INTER.norm>
-0.0305404

>  <SCORE.INTRA>
-9.84106

>  <SCORE.INTRA.DIHEDRAL>
-20.9342

>  <SCORE.INTRA.DIHEDRAL.0>
28.2802

>  <SCORE.INTRA.POLAR>
0

>  <SCORE.INTRA.POLAR.0>
0

>  <SCORE.INTRA.REPUL>
0

>  <SCORE.INTRA.REPUL.0>
0

>  <SCORE.INTRA.SOLV>
0.298541

>  <SCORE.INTRA.SOLV.lig_0>
-101.981

>  <SCORE.INTRA.VDW>
0.476774

>  <SCORE.INTRA.VDW.0>
-5.72964

>  <SCORE.INTRA.norm>
-0.246026

>  <SCORE.RESTR>
0.00960966

>  <SCORE.RESTR.CAVITY>
0.00960966

>  <SCORE.RESTR.norm>
0.000240242

>  <SCORE.SYSTEM>
0

>  <SCORE.SYSTEM.CONST>
0

>  <SCORE.SYSTEM.DIHEDRAL>
0

>  <SCORE.SYSTEM.SOLV>
0

>  <SCORE.SYSTEM.norm>
0

>  <SCORE.heavy>
40

>  <SCORE.norm>
-0.276327

>  <RMSD>
9.066

$$$$
ligand
 OpenBabel11021811503D
libRbt.so/2013.1/901 2013/11/27
 40 42  0  0  0  0  0  0  0  0999 V2000
    6.5676   -4.4721   24.0127 C   0  0  2  0  0  0  0  0  0  0  0  0
    5.8722   -3.7983   22.9518 O   0  0  0  0  0  0  0  0  0  0  0  0
    5.9744   -4.0611   25.4121 C   0  0  1  0  0  0  0  0  0  0  0  0
    6.2264   -2.5563   25.7206 C   0  0  2  0  0  0  0  0  0  0  0  0
    7.7704   -2.3234   25.7191 C   0  0  2  0  0  0  0  0  0  0  0  0
    8.0430   -0.9397   26.0283 O   0  0  0  0  0  0  0  0  0  0  0  0
    8.3362   -2.7034   24.2814 C   0  0  2  0  0  0  0  0  0  0  0  0
    8.0296   -4.1480   23.9826 O   0  0  0  0  0  0  0  0  0  0  0  0
    9.8455   -2.5287   24.1835 C   0  0  0  0  0  0  0  0  0  0  0  0
   10.2435   -1.0936   24.3341 N   0  0  0  0  0  0  0  0  0  0  0  0
    2.7809   -5.2939   20.2064 C   0  0  2  0  0  0  0  0  0  0  0  0
    1.5076   -5.7853   19.7337 N   0  0  0  0  0  0  0  0  0  0  0  0
    3.3571   -6.2823   21.2990 C   0  0  0  0  0  0  0  0  0  0  0  0
    4.7611   -5.7502   21.8341 C   0  0  2  0  0  0  0  0  0  0  0  0
    5.3087   -6.6885   22.8486 N   0  0  0  0  0  0  0  0  0  0  0  0
    4.5690   -4.2852   22.4456 C   0  0  2  0  0  0  0  0  0  0  0  0
    3.9889   -3.3335   21.3144 C   0  0  2  0  0  0  0  0  0  0  0  0
    3.8170   -2.0197   21.8506 O   0  0  0  0  0  0  0  0  0  0  0  0
    2.6003   -3.8749   20.7910 C   0  0  1  0  0  0  0  0  0  0  0  0
    2.0950   -3.0076   19.7455 O   0  0  0  0  0  0  0  0  0  0  0  0
    1.1523   -2.0049   19.9211 C   0  0  2  0  0  0  0  0  0  0  0  0
    1.9086   -0.7323   20.4442 C   0  0  2  0  0  0  0  0  0  0  0  0
    2.9004   -0.3704   19.5383 O   0  0  0  0  0  0  0  0  0  0  0  0
    2.5121   -0.9597   21.8952 C   0  0  1  0  0  0  0  0  0  0  0  0
    3.2167    0.2677   22.3787 N   0  0  0  0  0  0  0  0  0  0  0  0
    1.3303   -1.3644   22.8804 C   0  0  2  0  0  0  0  0  0  0  0  0
    1.8237   -1.5686   24.2102 O   0  0  0  0  0  0  0  0  0  0  0  0
    0.6415   -2.6650   22.3122 C   0  0  2  0  0  0  0  0  0  0  0  0
    0.1197   -2.4287   20.9013 O   0  0  0  0  0  0  0  0  0  0  0  0
   -0.5089   -3.1002   23.1884 C   0  0  0  0  0  0  0  0  0  0  0  0
   -1.6393   -2.2126   23.1032 O   0  0  0  0  0  0  0  0  0  0  0  0
    4.5469   -4.3546   25.4081 O   0  0  0  0  0  0  0  0  0  0  0  0
    5.7013   -2.2567   26.9544 O   0  0  0  0  0  0  0  0  0  0  0  0
    1.4839   -6.7456   18.6547 C   0  0  0  0  0  0  0  0  0  0  0  0
    2.4673   -6.8235   17.8598 O   0  0  0  0  0  0  0  0  0  0  0  0
    0.2241   -7.6540   18.5133 C   0  0  2  0  0  0  0  0  0  0  0  0
   -2.7205   -8.5363   18.4535 N   0  0  0  0  0  0  0  0  0  0  0  0
   -0.8864   -7.2302   19.5237 C   0  0  0  0  0  0  0  0  0  0  0  0
   -2.2917   -7.1892   18.9003 C   0  0  0  0  0  0  0  0  0  0  0  0
    0.4688   -8.8751   18.7726 O   0  0  0  0  0  0  0  0  0  0  0  0
  1  2  1  6  0  0  0
  1  3  1  0  0  0  0
  1  8  1  0  0  0  0
  3  4  1  0  0  0  0
  3 32  1  6  0  0  0
  4  5  1  0  0  0  0
  4 33  1  1  0  0  0
  5  6  1  6  0  0  0
  5  7  1  0  0  0  0
  7  8  1  0  0  0  0
  7  9  1  1  0  0  0
  9 10  1  0  0  0  0
 11 12  1  1  0  0  0
 11 13  1  0  0  0  0
 11 19  1  0  0  0  0
 12 34  1  0  0  0  0
 13 14  1  0  0  0  0
 14 15  1  1  0  0  0
 14 16  1  0  0  0  0
 16  2  1  6  0  0  0
 16 17  1  0  0  0  0
 17 18  1  1  0  0  0
 17 19  1  0  0  0  0
 19 20  1  6  0  0  0
 21 20  1  1  0  0  0
 21 22  1  0  0  0  0
 21 29  1  0  0  0  0
 22 23  1  6  0  0  0
 22 24  1  0  0  0  0
 24 25  1  1  0  0  0
 24 26  1  0  0  0  0
 26 27  1  1  0  0  0
 26 28  1  0  0  0  0
 28 29  1  0  0  0  0
 28 30  1  1  0  0  0
 30 31  1  0  0  0  0
 34 35  2  0  0  0  0
 36 34  1  1  0  0  0
 36 38  1  0  0  0  0
 36 40  1  0  0  0  0
 37 39  1  0  0  0  0
 38 39  1  0  0  0  0
M  END
>  <CHROM.1>
-80.88163021,-62.10250341,-64.77937280,-86.12080294,141.72436326,82.83866613
70.75022708,6.16923258,136.08436385,63.70462926,3.34886036,-3.77238335,22.08213581
-0.60198547,0.41947205,-2.70766579

>  <Name>
ligand

>  <RI>
0

>  <Rbt.Current_Directory>
/home/itssahil/PROJECTS/Mol_Feturizer/New_Systems/rnas/4P20

>  <Rbt.Executable>
rbdock ($Id: //depot/dev/client3/rdock/2013.1/src/exe/rbdock.cxx#4 $)

>  <Rbt.Library>
libRbt.so (2013.1, Build901 2013/11/27)

>  <Rbt.Parameter_File>
/export/apps/rDock/src/rDock_2013.1_src/data/scripts/dock_solv.prm

>  <Rbt.Receptor>
prm/blind_docking_60.prm

>  <SCORE>
30.1565

>  <SCORE.INTER>
0.952816

>  <SCORE.INTER.CONST>
1

>  <SCORE.INTER.POLAR>
0

>  <SCORE.INTER.ROT>
10

>  <SCORE.INTER.SOLV>
27.2221

>  <SCORE.INTER.VDW>
-18.7055

>  <SCORE.INTER.norm>
0.0238204

>  <SCORE.INTRA>
18.4358

>  <SCORE.INTRA.DIHEDRAL>
-11.2065

>  <SCORE.INTRA.DIHEDRAL.0>
28.2802

>  <SCORE.INTRA.POLAR>
0

>  <SCORE.INTRA.POLAR.0>
0

>  <SCORE.INTRA.REPUL>
0.00340744

>  <SCORE.INTRA.REPUL.0>
0

>  <SCORE.INTRA.SOLV>
6.18837

>  <SCORE.INTRA.SOLV.lig_0>
-101.981

>  <SCORE.INTRA.VDW>
20.9278

>  <SCORE.INTRA.VDW.0>
-5.72964

>  <SCORE.INTRA.norm>
0.460894

>  <SCORE.RESTR>
10.7679

>  <SCORE.RESTR.CAVITY>
10.7679

>  <SCORE.RESTR.norm>
0.269198

>  <SCORE.SYSTEM>
0

>  <SCORE.SYSTEM.CONST>
0

>  <SCORE.SYSTEM.DIHEDRAL>
0

>  <SCORE.SYSTEM.SOLV>
0

>  <SCORE.SYSTEM.norm>
0

>  <SCORE.heavy>
40

>  <SCORE.norm>
0.753912

>  <RMSD>
9.085

$$$$
ligand
 OpenBabel11021811513D
libRbt.so/2013.1/901 2013/11/27
 40 42  0  0  0  0  0  0  0  0999 V2000
   -2.1221  -11.2902   17.4722 C   0  0  2  0  0  0  0  0  0  0  0  0
   -2.4010  -10.9055   18.8276 O   0  0  0  0  0  0  0  0  0  0  0  0
   -3.3517  -12.0505   16.8482 C   0  0  1  0  0  0  0  0  0  0  0  0
   -3.6037  -13.4117   17.5599 C   0  0  2  0  0  0  0  0  0  0  0  0
   -2.3156  -14.2789   17.3959 C   0  0  2  0  0  0  0  0  0  0  0  0
   -2.5232  -15.5625   18.0234 O   0  0  0  0  0  0  0  0  0  0  0  0
   -1.0996  -13.5085   18.0736 C   0  0  2  0  0  0  0  0  0  0  0  0
   -0.9125  -12.1710   17.4056 O   0  0  0  0  0  0  0  0  0  0  0  0
    0.2144  -14.2676   17.9485 C   0  0  0  0  0  0  0  0  0  0  0  0
    0.5820  -14.4977   16.5158 N   0  0  0  0  0  0  0  0  0  0  0  0
    0.8787   -8.1146   19.7133 C   0  0  2  0  0  0  0  0  0  0  0  0
    1.7086   -7.1815   20.4391 N   0  0  0  0  0  0  0  0  0  0  0  0
   -0.5887   -7.5355   19.5935 C   0  0  0  0  0  0  0  0  0  0  0  0
   -1.5182   -8.5575   18.7983 C   0  0  2  0  0  0  0  0  0  0  0  0
   -2.8923   -8.0046   18.6724 N   0  0  0  0  0  0  0  0  0  0  0  0
   -1.5280   -9.9622   19.5623 C   0  0  2  0  0  0  0  0  0  0  0  0
   -0.0369  -10.4997   19.6584 C   0  0  2  0  0  0  0  0  0  0  0  0
   -0.0355  -11.7578   20.3369 O   0  0  0  0  0  0  0  0  0  0  0  0
    0.8733   -9.4758   20.4448 C   0  0  1  0  0  0  0  0  0  0  0  0
    2.2342   -9.9708   20.5054 O   0  0  0  0  0  0  0  0  0  0  0  0
    3.2492   -9.4333   21.2836 C   0  0  2  0  0  0  0  0  0  0  0  0
    4.5428  -10.2849   21.0261 C   0  0  2  0  0  0  0  0  0  0  0  0
    4.8533  -10.2684   19.6701 O   0  0  0  0  0  0  0  0  0  0  0  0
    4.3862  -11.7719   21.5607 C   0  0  1  0  0  0  0  0  0  0  0  0
    5.6331  -12.5610   21.3167 N   0  0  0  0  0  0  0  0  0  0  0  0
    4.0380  -11.7210   23.1123 C   0  0  2  0  0  0  0  0  0  0  0  0
    3.8990  -13.0434   23.6463 O   0  0  0  0  0  0  0  0  0  0  0  0
    2.7137  -10.8822   23.2906 C   0  0  2  0  0  0  0  0  0  0  0  0
    2.8809   -9.4796   22.7220 O   0  0  0  0  0  0  0  0  0  0  0  0
    2.3294  -10.7727   24.7469 C   0  0  0  0  0  0  0  0  0  0  0  0
    2.0530  -12.0521   25.3466 O   0  0  0  0  0  0  0  0  0  0  0  0
   -4.5229  -11.1894   16.9525 O   0  0  0  0  0  0  0  0  0  0  0  0
   -4.6758  -14.0357   16.9691 O   0  0  0  0  0  0  0  0  0  0  0  0
    2.1738   -5.9893   19.7689 C   0  0  0  0  0  0  0  0  0  0  0  0
    2.2419   -5.9643   18.5041 O   0  0  0  0  0  0  0  0  0  0  0  0
    2.5826   -4.7689   20.6499 C   0  0  2  0  0  0  0  0  0  0  0  0
    2.1785   -1.7660   21.5591 N   0  0  0  0  0  0  0  0  0  0  0  0
    1.3282   -4.0934   21.2851 C   0  0  0  0  0  0  0  0  0  0  0  0
    1.6787   -2.9664   22.2712 C   0  0  0  0  0  0  0  0  0  0  0  0
    3.1577   -3.8525   19.9809 O   0  0  0  0  0  0  0  0  0  0  0  0
  1  2  1  1  0  0  0
  1  3  1  0  0  0  0
  1  8  1  0  0  0  0
  3  4  1  0  0  0  0
  3 32  1  1  0  0  0
  4  5  1  0  0  0  0
  4 33  1  6  0  0  0
  5  6  1  1  0  0  0
  5  7  1  0  0  0  0
  7  8  1  0  0  0  0
  7  9  1  6  0  0  0
  9 10  1  0  0  0  0
 11 12  1  1  0  0  0
 11 13  1  0  0  0  0
 11 19  1  0  0  0  0
 12 34  1  0  0  0  0
 13 14  1  0  0  0  0
 14 15  1  1  0  0  0
 14 16  1  0  0  0  0
 16  2  1  6  0  0  0
 16 17  1  0  0  0  0
 17 18  1  1  0  0  0
 17 19  1  0  0  0  0
 19 20  1  6  0  0  0
 21 20  1  6  0  0  0
 21 22  1  0  0  0  0
 21 29  1  0  0  0  0
 22 23  1  6  0  0  0
 22 24  1  0  0  0  0
 24 25  1  1  0  0  0
 24 26  1  0  0  0  0
 26 27  1  6  0  0  0
 26 28  1  0  0  0  0
 28 29  1  0  0  0  0
 28 30  1  1  0  0  0
 30 31  1  0  0  0  0
 34 35  2  0  0  0  0
 36 34  1  6  0  0  0
 36 38  1  0  0  0  0
 36 40  1  0  0  0  0
 37 39  1  0  0  0  0
 38 39  1  0  0  0  0
M  END
>  <CHROM.1>
-168.25552004,61.18163769,59.57466952,-75.90181063,70.22815570,-179.79491632
-62.01180087,-71.76950399,174.51224613,72.37852579,0.69797657,-10.02980971
19.98993303,2.33052037,0.65486301,3.12316693

>  <Name>
ligand

>  <RI>
0

>  <Rbt.Current_Directory>
/home/itssahil/PROJECTS/Mol_Feturizer/New_Systems/rnas/4P20

>  <Rbt.Executable>
rbdock ($Id: //depot/dev/client3/rdock/2013.1/src/exe/rbdock.cxx#4 $)

>  <Rbt.Library>
libRbt.so (2013.1, Build901 2013/11/27)

>  <Rbt.Parameter_File>
/export/apps/rDock/src/rDock_2013.1_src/data/scripts/dock_solv.prm

>  <Rbt.Receptor>
prm/pocket_docking_7.prm

>  <SCORE>
-13.693

>  <SCORE.INTER>
-3.49651

>  <SCORE.INTER.CONST>
1

>  <SCORE.INTER.POLAR>
0

>  <SCORE.INTER.ROT>
10

>  <SCORE.INTER.SOLV>
13.6648

>  <SCORE.INTER.VDW>
-17.1526

>  <SCORE.INTER.norm>
-0.0874129

>  <SCORE.INTRA>
-10.1965

>  <SCORE.INTRA.DIHEDRAL>
-25.2624

>  <SCORE.INTRA.DIHEDRAL.0>
28.2802

>  <SCORE.INTRA.POLAR>
0

>  <SCORE.INTRA.POLAR.0>
0

>  <SCORE.INTRA.REPUL>
0

>  <SCORE.INTRA.REPUL.0>
0

>  <SCORE.INTRA.SOLV>
1.92484

>  <SCORE.INTRA.SOLV.lig_0>
-101.981

>  <SCORE.INTRA.VDW>
1.47228

>  <SCORE.INTRA.VDW.0>
-5.72964

>  <SCORE.INTRA.norm>
-0.254913

>  <SCORE.RESTR>
0

>  <SCORE.RESTR.CAVITY>
0

>  <SCORE.RESTR.norm>
0

>  <SCORE.SYSTEM>
0

>  <SCORE.SYSTEM.CONST>
0

>  <SCORE.SYSTEM.DIHEDRAL>
0

>  <SCORE.SYSTEM.SOLV>
0

>  <SCORE.SYSTEM.norm>
0

>  <SCORE.heavy>
40

>  <SCORE.norm>
-0.342325

>  <RMSD>
9.085

$$$$
ligand
 OpenBabel11021811513D
libRbt.so/2013.1/901 2013/11/27
 40 42  0  0  0  0  0  0  0  0999 V2000
   -3.8547   -8.0560   17.6984 C   0  0  2  0  0  0  0  0  0  0  0  0
   -3.5828   -8.8308   18.8768 O   0  0  0  0  0  0  0  0  0  0  0  0
   -5.1538   -7.1880   17.8939 C   0  0  1  0  0  0  0  0  0  0  0  0
   -6.4219   -8.0798   18.0340 C   0  0  2  0  0  0  0  0  0  0  0  0
   -6.5522   -8.9283   16.7296 C   0  0  2  0  0  0  0  0  0  0  0  0
   -7.7356   -9.7511   16.8135 O   0  0  0  0  0  0  0  0  0  0  0  0
   -5.2480   -9.8274   16.5807 C   0  0  2  0  0  0  0  0  0  0  0  0
   -4.0300   -8.9437   16.5047 O   0  0  0  0  0  0  0  0  0  0  0  0
   -5.2694  -10.6823   15.3210 C   0  0  0  0  0  0  0  0  0  0  0  0
   -6.3510  -11.7156   15.3763 N   0  0  0  0  0  0  0  0  0  0  0  0
    0.1510   -9.5945   21.0689 C   0  0  2  0  0  0  0  0  0  0  0  0
    1.4746  -10.0918   21.3641 N   0  0  0  0  0  0  0  0  0  0  0  0
   -0.8232  -10.8112   20.7979 C   0  0  0  0  0  0  0  0  0  0  0  0
   -2.2880  -10.2773   20.4657 C   0  0  2  0  0  0  0  0  0  0  0  0
   -3.2058  -11.4221   20.2275 N   0  0  0  0  0  0  0  0  0  0  0  0
   -2.2196   -9.3160   19.1897 C   0  0  2  0  0  0  0  0  0  0  0  0
   -1.2310   -8.1151   19.5096 C   0  0  2  0  0  0  0  0  0  0  0  0
   -1.1660   -7.2473   18.3756 O   0  0  0  0  0  0  0  0  0  0  0  0
    0.2147   -8.6586   19.8408 C   0  0  1  0  0  0  0  0  0  0  0  0
    1.0987   -7.5526   20.1507 O   0  0  0  0  0  0  0  0  0  0  0  0
    1.7831   -6.7872   19.2176 C   0  0  2  0  0  0  0  0  0  0  0  0
    2.9751   -7.6552   18.6783 C   0  0  2  0  0  0  0  0  0  0  0  0
    2.4856   -8.8376   18.1329 O   0  0  0  0  0  0  0  0  0  0  0  0
    4.0511   -7.9471   19.8090 C   0  0  1  0  0  0  0  0  0  0  0  0
    5.1827   -8.7637   19.2710 N   0  0  0  0  0  0  0  0  0  0  0  0
    4.5729   -6.5591   20.3856 C   0  0  2  0  0  0  0  0  0  0  0  0
    5.5590   -6.7697   21.4039 O   0  0  0  0  0  0  0  0  0  0  0  0
    3.3306   -5.7596   20.9389 C   0  0  2  0  0  0  0  0  0  0  0  0
    2.2959   -5.5414   19.8433 O   0  0  0  0  0  0  0  0  0  0  0  0
    3.7472   -4.4156   21.4873 C   0  0  0  0  0  0  0  0  0  0  0  0
    4.2040   -3.5141   20.4620 O   0  0  0  0  0  0  0  0  0  0  0  0
   -4.9748   -6.3566   19.0774 O   0  0  0  0  0  0  0  0  0  0  0  0
   -7.5233   -7.2733   18.1888 O   0  0  0  0  0  0  0  0  0  0  0  0
    1.7669  -10.5553   22.7008 C   0  0  0  0  0  0  0  0  0  0  0  0
    1.0708  -10.1438   23.6759 O   0  0  0  0  0  0  0  0  0  0  0  0
    2.9503  -11.5544   22.8845 C   0  0  2  0  0  0  0  0  0  0  0  0
    4.3412  -14.2626   23.4365 N   0  0  0  0  0  0  0  0  0  0  0  0
    2.6360  -12.9236   22.2061 C   0  0  0  0  0  0  0  0  0  0  0  0
    3.8633  -13.8438   22.0970 C   0  0  0  0  0  0  0  0  0  0  0  0
    3.1765  -11.8266   24.1063 O   0  0  0  0  0  0  0  0  0  0  0  0
  1  2  1  1  0  0  0
  1  3  1  0  0  0  0
  1  8  1  0  0  0  0
  3  4  1  0  0  0  0
  3 32  1  1  0  0  0
  4  5  1  0  0  0  0
  4 33  1  6  0  0  0
  5  6  1  1  0  0  0
  5  7  1  0  0  0  0
  7  8  1  0  0  0  0
  7  9  1  6  0  0  0
  9 10  1  0  0  0  0
 11 12  1  6  0  0  0
 11 13  1  0  0  0  0
 11 19  1  0  0  0  0
 12 34  1  0  0  0  0
 13 14  1  0  0  0  0
 14 15  1  6  0  0  0
 14 16  1  0  0  0  0
 16  2  1  1  0  0  0
 16 17  1  0  0  0  0
 17 18  1  6  0  0  0
 17 19  1  0  0  0  0
 19 20  1  1  0  0  0
 21 20  1  1  0  0  0
 21 22  1  0  0  0  0
 21 29  1  0  0  0  0
 22 23  1  1  0  0  0
 22 24  1  0  0  0  0
 24 25  1  6  0  0  0
 24 26  1  0  0  0  0
 26 27  1  1  0  0  0
 26 28  1  0  0  0  0
 28 29  1  0  0  0  0
 28 30  1  6  0  0  0
 30 31  1  0  0  0  0
 34 35  2  0  0  0  0
 36 34  1  1  0  0  0
 36 38  1  0  0  0  0
 36 40  1  0  0  0  0
 37 39  1  0  0  0  0
 38 39  1  0  0  0  0
M  END
>  <CHROM.1>
-156.27901706,-173.58594662,-66.22595290,-81.21226019,155.73405679,-74.65466933
68.03386811,-66.48827477,168.02178805,65.64743770,-0.37773969,-8.87194059
19.71905196,-3.01181350,0.39952323,2.79561209

>  <Name>
ligand

>  <RI>
0

>  <Rbt.Current_Directory>
/home/itssahil/PROJECTS/Mol_Feturizer/New_Systems/rnas/4P20

>  <Rbt.Executable>
rbdock ($Id: //depot/dev/client3/rdock/2013.1/src/exe/rbdock.cxx#4 $)

>  <Rbt.Library>
libRbt.so (2013.1, Build901 2013/11/27)

>  <Rbt.Parameter_File>
/export/apps/rDock/src/rDock_2013.1_src/data/scripts/dock_solv.prm

>  <Rbt.Receptor>
prm/pocket_docking_7.prm

>  <SCORE>
-12.1895

>  <SCORE.INTER>
-4.18928

>  <SCORE.INTER.CONST>
1

>  <SCORE.INTER.POLAR>
0

>  <SCORE.INTER.ROT>
10

>  <SCORE.INTER.SOLV>
17.83

>  <SCORE.INTER.VDW>
-19.0028

>  <SCORE.INTER.norm>
-0.104732

>  <SCORE.INTRA>
-8.00018

>  <SCORE.INTRA.DIHEDRAL>
-19.9147

>  <SCORE.INTRA.DIHEDRAL.0>
28.2802

>  <SCORE.INTRA.POLAR>
0

>  <SCORE.INTRA.POLAR.0>
0

>  <SCORE.INTRA.REPUL>
0

>  <SCORE.INTRA.REPUL.0>
0

>  <SCORE.INTRA.SOLV>
0.878231

>  <SCORE.INTRA.SOLV.lig_0>
-101.981

>  <SCORE.INTRA.VDW>
1.51805

>  <SCORE.INTRA.VDW.0>
-5.72964

>  <SCORE.INTRA.norm>
-0.200004

>  <SCORE.RESTR>
0

>  <SCORE.RESTR.CAVITY>
0

>  <SCORE.RESTR.norm>
0

>  <SCORE.SYSTEM>
0

>  <SCORE.SYSTEM.CONST>
0

>  <SCORE.SYSTEM.DIHEDRAL>
0

>  <SCORE.SYSTEM.SOLV>
0

>  <SCORE.SYSTEM.norm>
0

>  <SCORE.heavy>
40

>  <SCORE.norm>
-0.304736

>  <RMSD>
9.109

$$$$
ligand
 OpenBabel11021811503D
libRbt.so/2013.1/901 2013/11/27
 40 42  0  0  0  0  0  0  0  0999 V2000
    6.2265   -4.7599   24.7722 C   0  0  2  0  0  0  0  0  0  0  0  0
    5.9504   -4.7203   23.3632 O   0  0  0  0  0  0  0  0  0  0  0  0
    4.9804   -4.2602   25.5948 C   0  0  1  0  0  0  0  0  0  0  0  0
    4.6877   -2.7542   25.3316 C   0  0  2  0  0  0  0  0  0  0  0  0
    5.9529   -1.9434   25.7561 C   0  0  2  0  0  0  0  0  0  0  0  0
    5.7072   -0.5357   25.5495 O   0  0  0  0  0  0  0  0  0  0  0  0
    7.1854   -2.4367   24.8791 C   0  0  2  0  0  0  0  0  0  0  0  0
    7.4123   -3.9086   25.1078 O   0  0  0  0  0  0  0  0  0  0  0  0
    8.4791   -1.7163   25.2336 C   0  0  0  0  0  0  0  0  0  0  0  0
    9.6072   -2.1447   24.3479 N   0  0  0  0  0  0  0  0  0  0  0  0
    2.7385   -5.6017   20.4933 C   0  0  2  0  0  0  0  0  0  0  0  0
    1.4532   -6.0128   19.9782 N   0  0  0  0  0  0  0  0  0  0  0  0
    3.4116   -6.8097   21.2617 C   0  0  0  0  0  0  0  0  0  0  0  0
    4.8300   -6.3694   21.8405 C   0  0  2  0  0  0  0  0  0  0  0  0
    5.4682   -7.5103   22.5480 N   0  0  0  0  0  0  0  0  0  0  0  0
    4.6331   -5.1197   22.8186 C   0  0  2  0  0  0  0  0  0  0  0  0
    3.9547   -3.9375   22.0037 C   0  0  2  0  0  0  0  0  0  0  0  0
    3.7778   -2.8137   22.8690 O   0  0  0  0  0  0  0  0  0  0  0  0
    2.5527   -4.3890   21.4329 C   0  0  1  0  0  0  0  0  0  0  0  0
    1.9569   -3.3069   20.6749 O   0  0  0  0  0  0  0  0  0  0  0  0
    0.7911   -2.6362   21.0154 C   0  0  2  0  0  0  0  0  0  0  0  0
    0.6661   -1.3939   20.0635 C   0  0  2  0  0  0  0  0  0  0  0  0
    0.6630   -1.8167   18.7382 O   0  0  0  0  0  0  0  0  0  0  0  0
    1.8179   -0.3325   20.3245 C   0  0  1  0  0  0  0  0  0  0  0  0
    1.6726    0.8471   19.4167 N   0  0  0  0  0  0  0  0  0  0  0  0
    1.7637    0.1125   21.8510 C   0  0  2  0  0  0  0  0  0  0  0  0
    2.7792    1.0830   22.1345 O   0  0  0  0  0  0  0  0  0  0  0  0
    1.9298   -1.1773   22.7442 C   0  0  2  0  0  0  0  0  0  0  0  0
    0.8408   -2.1949   22.4330 O   0  0  0  0  0  0  0  0  0  0  0  0
    1.8681   -0.8347   24.2137 C   0  0  0  0  0  0  0  0  0  0  0  0
    0.5681   -0.3700   24.6220 O   0  0  0  0  0  0  0  0  0  0  0  0
    3.8322   -5.0801   25.2295 O   0  0  0  0  0  0  0  0  0  0  0  0
    3.6026   -2.3697   26.0815 O   0  0  0  0  0  0  0  0  0  0  0  0
    1.3986   -6.7458   18.7345 C   0  0  0  0  0  0  0  0  0  0  0  0
    2.3527   -6.6519   17.9063 O   0  0  0  0  0  0  0  0  0  0  0  0
    0.1429   -7.6299   18.4627 C   0  0  2  0  0  0  0  0  0  0  0  0
   -2.7645   -7.7957   17.7187 N   0  0  0  0  0  0  0  0  0  0  0  0
   -1.0274   -7.2477   19.4207 C   0  0  0  0  0  0  0  0  0  0  0  0
   -2.3310   -8.0065   19.1207 C   0  0  0  0  0  0  0  0  0  0  0  0
    0.3597   -8.8660   18.6703 O   0  0  0  0  0  0  0  0  0  0  0  0
  1  2  1  6  0  0  0
  1  3  1  0  0  0  0
  1  8  1  0  0  0  0
  3  4  1  0  0  0  0
  3 32  1  6  0  0  0
  4  5  1  0  0  0  0
  4 33  1  1  0  0  0
  5  6  1  6  0  0  0
  5  7  1  0  0  0  0
  7  8  1  0  0  0  0
  7  9  1  1  0  0  0
  9 10  1  0  0  0  0
 11 12  1  1  0  0  0
 11 13  1  0  0  0  0
 11 19  1  0  0  0  0
 12 34  1  0  0  0  0
 13 14  1  0  0  0  0
 14 15  1  1  0  0  0
 14 16  1  0  0  0  0
 16  2  1  6  0  0  0
 16 17  1  0  0  0  0
 17 18  1  1  0  0  0
 17 19  1  0  0  0  0
 19 20  1  6  0  0  0
 21 20  1  6  0  0  0
 21 22  1  0  0  0  0
 21 29  1  0  0  0  0
 22 23  1  6  0  0  0
 22 24  1  0  0  0  0
 24 25  1  6  0  0  0
 24 26  1  0  0  0  0
 26 27  1  6  0  0  0
 26 28  1  0  0  0  0
 28 29  1  0  0  0  0
 28 30  1  1  0  0  0
 30 31  1  0  0  0  0
 34 35  2  0  0  0  0
 36 34  1  1  0  0  0
 36 38  1  0  0  0  0
 36 40  1  0  0  0  0
 37 39  1  0  0  0  0
 38 39  1  0  0  0  0
M  END
>  <CHROM.1>
-39.97371699,-118.46900903,-177.00013565,-81.94870975,125.20987273,170.16556354
66.87643046,16.20432707,175.19388644,-56.73194778,3.04298301,-3.72766226
22.14172049,-0.66097613,0.63811360,-2.84945394

>  <Name>
ligand

>  <RI>
0

>  <Rbt.Current_Directory>
/home/itssahil/PROJECTS/Mol_Feturizer/New_Systems/rnas/4P20

>  <Rbt.Executable>
rbdock ($Id: //depot/dev/client3/rdock/2013.1/src/exe/rbdock.cxx#4 $)

>  <Rbt.Library>
libRbt.so (2013.1, Build901 2013/11/27)

>  <Rbt.Parameter_File>
/export/apps/rDock/src/rDock_2013.1_src/data/scripts/dock_solv.prm

>  <Rbt.Receptor>
prm/blind_docking_60.prm

>  <SCORE>
23.6361

>  <SCORE.INTER>
6.50079

>  <SCORE.INTER.CONST>
1

>  <SCORE.INTER.POLAR>
0

>  <SCORE.INTER.ROT>
10

>  <SCORE.INTER.SOLV>
28.2003

>  <SCORE.INTER.VDW>
-15.3329

>  <SCORE.INTER.norm>
0.16252

>  <SCORE.INTRA>
2.0391

>  <SCORE.INTRA.DIHEDRAL>
-8.8835

>  <SCORE.INTRA.DIHEDRAL.0>
28.2802

>  <SCORE.INTRA.POLAR>
0

>  <SCORE.INTRA.POLAR.0>
0

>  <SCORE.INTRA.REPUL>
0

>  <SCORE.INTRA.REPUL.0>
0

>  <SCORE.INTRA.SOLV>
2.07043

>  <SCORE.INTRA.SOLV.lig_0>
-101.981

>  <SCORE.INTRA.VDW>
5.44564

>  <SCORE.INTRA.VDW.0>
-5.72964

>  <SCORE.INTRA.norm>
0.0509776

>  <SCORE.RESTR>
15.0962

>  <SCORE.RESTR.CAVITY>
15.0962

>  <SCORE.RESTR.norm>
0.377404

>  <SCORE.SYSTEM>
0

>  <SCORE.SYSTEM.CONST>
0

>  <SCORE.SYSTEM.DIHEDRAL>
0

>  <SCORE.SYSTEM.SOLV>
0

>  <SCORE.SYSTEM.norm>
0

>  <SCORE.heavy>
40

>  <SCORE.norm>
0.590902

>  <RMSD>
9.112

$$$$
ligand
 OpenBabel11021811503D
libRbt.so/2013.1/901 2013/11/27
 40 42  0  0  0  0  0  0  0  0999 V2000
    2.5752    0.2440   19.8841 C   0  0  2  0  0  0  0  0  0  0  0  0
    1.8196   -0.3024   20.9767 O   0  0  0  0  0  0  0  0  0  0  0  0
    2.7279    1.8032   20.0416 C   0  0  1  0  0  0  0  0  0  0  0  0
    1.3553    2.5274   19.9225 C   0  0  2  0  0  0  0  0  0  0  0  0
    0.7663    2.2000   18.5139 C   0  0  2  0  0  0  0  0  0  0  0  0
   -0.4987    2.8782   18.3578 O   0  0  0  0  0  0  0  0  0  0  0  0
    0.5807    0.6240   18.3989 C   0  0  2  0  0  0  0  0  0  0  0  0
    1.9134   -0.0567   18.5745 O   0  0  0  0  0  0  0  0  0  0  0  0
    0.0272    0.1988   17.0458 C   0  0  0  0  0  0  0  0  0  0  0  0
   -1.0268    1.1448   16.5612 N   0  0  0  0  0  0  0  0  0  0  0  0
    3.2123   -4.4442   21.4620 C   0  0  2  0  0  0  0  0  0  0  0  0
    3.5880   -5.6842   22.1005 N   0  0  0  0  0  0  0  0  0  0  0  0
    4.1349   -3.2743   21.9939 C   0  0  0  0  0  0  0  0  0  0  0  0
    3.7286   -1.8974   21.3012 C   0  0  2  0  0  0  0  0  0  0  0  0
    4.6071   -0.8024   21.7897 N   0  0  0  0  0  0  0  0  0  0  0  0
    2.1910   -1.5871   21.6117 C   0  0  2  0  0  0  0  0  0  0  0  0
    1.3084   -2.7874   21.0619 C   0  0  2  0  0  0  0  0  0  0  0  0
   -0.0692   -2.5174   21.3315 O   0  0  0  0  0  0  0  0  0  0  0  0
    1.7244   -4.1452   21.7536 C   0  0  1  0  0  0  0  0  0  0  0  0
    0.9247   -5.2329   21.2262 O   0  0  0  0  0  0  0  0  0  0  0  0
    0.7399   -5.5129   19.8799 C   0  0  2  0  0  0  0  0  0  0  0  0
    0.2477   -6.9998   19.7704 C   0  0  2  0  0  0  0  0  0  0  0  0
   -0.9205   -7.1630   20.5079 O   0  0  0  0  0  0  0  0  0  0  0  0
    1.3666   -8.0271   20.2332 C   0  0  1  0  0  0  0  0  0  0  0  0
    0.8816   -9.4365   20.1090 N   0  0  0  0  0  0  0  0  0  0  0  0
    2.6694   -7.7925   19.3507 C   0  0  2  0  0  0  0  0  0  0  0  0
    3.7076   -8.7075   19.7227 O   0  0  0  0  0  0  0  0  0  0  0  0
    3.1246   -6.2934   19.5369 C   0  0  2  0  0  0  0  0  0  0  0  0
    2.0117   -5.3359   19.1331 O   0  0  0  0  0  0  0  0  0  0  0  0
    4.3506   -5.9889   18.7094 C   0  0  0  0  0  0  0  0  0  0  0  0
    4.7330   -4.6024   18.7717 O   0  0  0  0  0  0  0  0  0  0  0  0
    3.3436    2.0744   21.3344 O   0  0  0  0  0  0  0  0  0  0  0  0
    1.5487    3.8812   20.0543 O   0  0  0  0  0  0  0  0  0  0  0  0
    4.9258   -6.1943   21.9078 C   0  0  0  0  0  0  0  0  0  0  0  0
    5.5949   -5.8382   20.8927 O   0  0  0  0  0  0  0  0  0  0  0  0
    5.4916   -7.1811   22.9747 C   0  0  2  0  0  0  0  0  0  0  0  0
    6.4508   -9.9301   22.0618 N   0  0  0  0  0  0  0  0  0  0  0  0
    4.6521   -8.4951   23.0211 C   0  0  0  0  0  0  0  0  0  0  0  0
    5.0381   -9.5019   21.9245 C   0  0  0  0  0  0  0  0  0  0  0  0
    5.4436   -6.7076   24.1544 O   0  0  0  0  0  0  0  0  0  0  0  0
  1  2  1  1  0  0  0
  1  3  1  0  0  0  0
  1  8  1  0  0  0  0
  3  4  1  0  0  0  0
  3 32  1  1  0  0  0
  4  5  1  0  0  0  0
  4 33  1  6  0  0  0
  5  6  1  1  0  0  0
  5  7  1  0  0  0  0
  7  8  1  0  0  0  0
  7  9  1  6  0  0  0
  9 10  1  0  0  0  0
 11 12  1  1  0  0  0
 11 13  1  0  0  0  0
 11 19  1  0  0  0  0
 12 34  1  0  0  0  0
 13 14  1  0  0  0  0
 14 15  1  1  0  0  0
 14 16  1  0  0  0  0
 16  2  1  6  0  0  0
 16 17  1  0  0  0  0
 17 18  1  1  0  0  0
 17 19  1  0  0  0  0
 19 20  1  6  0  0  0
 21 20  1  1  0  0  0
 21 22  1  0  0  0  0
 21 29  1  0  0  0  0
 22 23  1  1  0  0  0
 22 24  1  0  0  0  0
 24 25  1  6  0  0  0
 24 26  1  0  0  0  0
 26 27  1  1  0  0  0
 26 28  1  0  0  0  0
 28 29  1  0  0  0  0
 28 30  1  6  0  0  0
 30 31  1  0  0  0  0
 34 35  2  0  0  0  0
 36 34  1  6  0  0  0
 36 38  1  0  0  0  0
 36 40  1  0  0  0  0
 37 39  1  0  0  0  0
 38 39  1  0  0  0  0
M  END
>  <CHROM.1>
-139.67793017,21.10894956,-39.68516622,-61.25027110,-69.00196232,160.86945934
175.39541149,63.15985502,81.68385771,61.39928889,2.51653629,-3.59481750,20.44367163
-1.89546577,0.59514272,3.11867645

>  <Name>
ligand

>  <RI>
0

>  <Rbt.Current_Directory>
/home/itssahil/PROJECTS/Mol_Feturizer/New_Systems/rnas/4P20

>  <Rbt.Executable>
rbdock ($Id: //depot/dev/client3/rdock/2013.1/src/exe/rbdock.cxx#4 $)

>  <Rbt.Library>
libRbt.so (2013.1, Build901 2013/11/27)

>  <Rbt.Parameter_File>
/export/apps/rDock/src/rDock_2013.1_src/data/scripts/dock_solv.prm

>  <Rbt.Receptor>
prm/blind_docking_100.prm

>  <SCORE>
77.8395

>  <SCORE.INTER>
49.0845

>  <SCORE.INTER.CONST>
1

>  <SCORE.INTER.POLAR>
0

>  <SCORE.INTER.ROT>
10

>  <SCORE.INTER.SOLV>
26.72

>  <SCORE.INTER.VDW>
13.5497

>  <SCORE.INTER.norm>
1.22711

>  <SCORE.INTRA>
6.00507

>  <SCORE.INTRA.DIHEDRAL>
-11.8269

>  <SCORE.INTRA.DIHEDRAL.0>
28.2802

>  <SCORE.INTRA.POLAR>
0

>  <SCORE.INTRA.POLAR.0>
0

>  <SCORE.INTRA.REPUL>
0

>  <SCORE.INTRA.REPUL.0>
0

>  <SCORE.INTRA.SOLV>
6.86105

>  <SCORE.INTRA.SOLV.lig_0>
-101.981

>  <SCORE.INTRA.VDW>
8.48801

>  <SCORE.INTRA.VDW.0>
-5.72964

>  <SCORE.INTRA.norm>
0.150127

>  <SCORE.RESTR>
22.7499

>  <SCORE.RESTR.CAVITY>
22.7499

>  <SCORE.RESTR.norm>
0.568748

>  <SCORE.SYSTEM>
0

>  <SCORE.SYSTEM.CONST>
0

>  <SCORE.SYSTEM.DIHEDRAL>
0

>  <SCORE.SYSTEM.SOLV>
0

>  <SCORE.SYSTEM.norm>
0

>  <SCORE.heavy>
40

>  <SCORE.norm>
1.94599

>  <RMSD>
9.119

$$$$
ligand
 OpenBabel11021811513D
libRbt.so/2013.1/901 2013/11/27
 40 42  0  0  0  0  0  0  0  0999 V2000
   -0.4480  -12.0573   16.7315 C   0  0  2  0  0  0  0  0  0  0  0  0
   -0.5810  -10.6467   16.4960 O   0  0  0  0  0  0  0  0  0  0  0  0
   -1.8233  -12.7890   16.5029 C   0  0  1  0  0  0  0  0  0  0  0  0
   -2.8857  -12.3513   17.5530 C   0  0  2  0  0  0  0  0  0  0  0  0
   -2.3315  -12.7116   18.9676 C   0  0  2  0  0  0  0  0  0  0  0  0
   -3.3047  -12.3423   19.9681 O   0  0  0  0  0  0  0  0  0  0  0  0
   -0.9664  -11.9249   19.1896 C   0  0  2  0  0  0  0  0  0  0  0  0
    0.0255  -12.3229   18.1275 O   0  0  0  0  0  0  0  0  0  0  0  0
   -0.3322  -12.2265   20.5406 C   0  0  0  0  0  0  0  0  0  0  0  0
    0.9056  -11.4141   20.7603 N   0  0  0  0  0  0  0  0  0  0  0  0
    3.5966   -9.3748   15.9861 C   0  0  2  0  0  0  0  0  0  0  0  0
    4.7353   -8.5216   15.7378 N   0  0  0  0  0  0  0  0  0  0  0  0
    2.6530   -9.3809   14.7164 C   0  0  0  0  0  0  0  0  0  0  0  0
    1.3882  -10.3153   14.9775 C   0  0  2  0  0  0  0  0  0  0  0  0
    0.5112  -10.3329   13.7775 N   0  0  0  0  0  0  0  0  0  0  0  0
    0.5991   -9.7838   16.2627 C   0  0  2  0  0  0  0  0  0  0  0  0
    1.5862   -9.7949   17.5067 C   0  0  2  0  0  0  0  0  0  0  0  0
    0.8885   -9.3246   18.6622 O   0  0  0  0  0  0  0  0  0  0  0  0
    2.8360   -8.8686   17.2325 C   0  0  1  0  0  0  0  0  0  0  0  0
    3.7365   -8.9061   18.3676 O   0  0  0  0  0  0  0  0  0  0  0  0
    4.9363   -8.2160   18.4626 C   0  0  2  0  0  0  0  0  0  0  0  0
    5.7025   -8.7718   19.7153 C   0  0  2  0  0  0  0  0  0  0  0  0
    5.8926  -10.1430   19.5788 O   0  0  0  0  0  0  0  0  0  0  0  0
    4.9464   -8.4292   21.0690 C   0  0  1  0  0  0  0  0  0  0  0  0
    5.6991   -8.9564   22.2490 N   0  0  0  0  0  0  0  0  0  0  0  0
    4.7659   -6.8515   21.1661 C   0  0  2  0  0  0  0  0  0  0  0  0
    4.0977   -6.4896   22.3810 O   0  0  0  0  0  0  0  0  0  0  0  0
    3.9610   -6.3708   19.8972 C   0  0  2  0  0  0  0  0  0  0  0  0
    4.6871   -6.7597   18.6165 O   0  0  0  0  0  0  0  0  0  0  0  0
    3.7671   -4.8732   19.9094 C   0  0  0  0  0  0  0  0  0  0  0  0
    2.9814   -4.4235   21.0288 O   0  0  0  0  0  0  0  0  0  0  0  0
   -2.2809  -12.4913   15.1515 O   0  0  0  0  0  0  0  0  0  0  0  0
   -4.0578  -13.0275   17.3149 O   0  0  0  0  0  0  0  0  0  0  0  0
    5.9835   -9.1211   15.3260 C   0  0  0  0  0  0  0  0  0  0  0  0
    6.2170  -10.3367   15.5957 O   0  0  0  0  0  0  0  0  0  0  0  0
    7.0054   -8.2263   14.5595 C   0  0  2  0  0  0  0  0  0  0  0  0
    8.2609   -7.6100   11.8336 N   0  0  0  0  0  0  0  0  0  0  0  0
    8.0701   -9.0981   13.8246 C   0  0  0  0  0  0  0  0  0  0  0  0
    9.0099   -8.2788   12.9243 C   0  0  0  0  0  0  0  0  0  0  0  0
    7.6679   -7.4653   15.3341 O   0  0  0  0  0  0  0  0  0  0  0  0
  1  2  1  1  0  0  0
  1  3  1  0  0  0  0
  1  8  1  0  0  0  0
  3  4  1  0  0  0  0
  3 32  1  6  0  0  0
  4  5  1  0  0  0  0
  4 33  1  6  0  0  0
  5  6  1  1  0  0  0
  5  7  1  0  0  0  0
  7  8  1  0  0  0  0
  7  9  1  1  0  0  0
  9 10  1  0  0  0  0
 11 12  1  6  0  0  0
 11 13  1  0  0  0  0
 11 19  1  0  0  0  0
 12 34  1  0  0  0  0
 13 14  1  0  0  0  0
 14 15  1  6  0  0  0
 14 16  1  0  0  0  0
 16  2  1  1  0  0  0
 16 17  1  0  0  0  0
 17 18  1  1  0  0  0
 17 19  1  0  0  0  0
 19 20  1  1  0  0  0
 21 20  1  1  0  0  0
 21 22  1  0  0  0  0
 21 29  1  0  0  0  0
 22 23  1  6  0  0  0
 22 24  1  0  0  0  0
 24 25  1  1  0  0  0
 24 26  1  0  0  0  0
 26 27  1  1  0  0  0
 26 28  1  0  0  0  0
 28 29  1  0  0  0  0
 28 30  1  1  0  0  0
 30 31  1  0  0  0  0
 34 35  2  0  0  0  0
 36 34  1  1  0  0  0
 36 38  1  0  0  0  0
 36 40  1  0  0  0  0
 37 39  1  0  0  0  0
 38 39  1  0  0  0  0
M  END
>  <CHROM.1>
-162.41991789,59.25550917,-176.58591525,-98.56078581,59.65808678,-168.79500124
-62.94951630,-162.82413179,173.55203809,-62.63707788,2.67726951,-9.52970140
17.62798605,-3.11768506,0.49519215,1.23133701

>  <Name>
ligand

>  <RI>
0

>  <Rbt.Current_Directory>
/home/itssahil/PROJECTS/Mol_Feturizer/New_Systems/rnas/4P20

>  <Rbt.Executable>
rbdock ($Id: //depot/dev/client3/rdock/2013.1/src/exe/rbdock.cxx#4 $)

>  <Rbt.Library>
libRbt.so (2013.1, Build901 2013/11/27)

>  <Rbt.Parameter_File>
/export/apps/rDock/src/rDock_2013.1_src/data/scripts/dock_solv.prm

>  <Rbt.Receptor>
prm/pocket_docking_7.prm

>  <SCORE>
-8.26014

>  <SCORE.INTER>
1.05393

>  <SCORE.INTER.CONST>
1

>  <SCORE.INTER.POLAR>
0

>  <SCORE.INTER.ROT>
10

>  <SCORE.INTER.SOLV>
15.6862

>  <SCORE.INTER.VDW>
-14.7928

>  <SCORE.INTER.norm>
0.0263483

>  <SCORE.INTRA>
-9.31407

>  <SCORE.INTRA.DIHEDRAL>
-24.0122

>  <SCORE.INTRA.DIHEDRAL.0>
28.2802

>  <SCORE.INTRA.POLAR>
0

>  <SCORE.INTRA.POLAR.0>
0

>  <SCORE.INTRA.REPUL>
0

>  <SCORE.INTRA.REPUL.0>
0

>  <SCORE.INTRA.SOLV>
2.29953

>  <SCORE.INTRA.SOLV.lig_0>
-101.981

>  <SCORE.INTRA.VDW>
1.54228

>  <SCORE.INTRA.VDW.0>
-5.72964

>  <SCORE.INTRA.norm>
-0.232852

>  <SCORE.RESTR>
0

>  <SCORE.RESTR.CAVITY>
0

>  <SCORE.RESTR.norm>
0

>  <SCORE.SYSTEM>
0

>  <SCORE.SYSTEM.CONST>
0

>  <SCORE.SYSTEM.DIHEDRAL>
0

>  <SCORE.SYSTEM.SOLV>
0

>  <SCORE.SYSTEM.norm>
0

>  <SCORE.heavy>
40

>  <SCORE.norm>
-0.206503

>  <RMSD>
9.134

$$$$
ligand
 OpenBabel11021811503D
libRbt.so/2013.1/901 2013/11/27
 40 42  0  0  0  0  0  0  0  0999 V2000
    6.6627   -4.3995   24.0015 C   0  0  2  0  0  0  0  0  0  0  0  0
    5.9791   -3.6875   22.9581 O   0  0  0  0  0  0  0  0  0  0  0  0
    5.9884   -4.1194   25.3966 C   0  0  1  0  0  0  0  0  0  0  0  0
    6.1463   -2.6298   25.8196 C   0  0  2  0  0  0  0  0  0  0  0  0
    7.6743   -2.3203   25.9066 C   0  0  2  0  0  0  0  0  0  0  0  0
    7.8593   -0.9503   26.3229 O   0  0  0  0  0  0  0  0  0  0  0  0
    8.3213   -2.5682   24.4743 C   0  0  2  0  0  0  0  0  0  0  0  0
    8.1053   -4.0014   24.0626 O   0  0  0  0  0  0  0  0  0  0  0  0
    9.8220   -2.3116   24.4597 C   0  0  0  0  0  0  0  0  0  0  0  0
   10.5856   -3.4856   24.9880 N   0  0  0  0  0  0  0  0  0  0  0  0
    2.8109   -5.0896   20.2513 C   0  0  2  0  0  0  0  0  0  0  0  0
    1.5133   -5.5264   19.7911 N   0  0  0  0  0  0  0  0  0  0  0  0
    3.3371   -6.0790   21.3680 C   0  0  0  0  0  0  0  0  0  0  0  0
    4.7674   -5.6067   21.8894 C   0  0  2  0  0  0  0  0  0  0  0  0
    5.2675   -6.5465   22.9268 N   0  0  0  0  0  0  0  0  0  0  0  0
    4.6518   -4.1191   22.4644 C   0  0  2  0  0  0  0  0  0  0  0  0
    4.1198   -3.1671   21.3101 C   0  0  2  0  0  0  0  0  0  0  0  0
    4.0165   -1.8333   21.8135 O   0  0  0  0  0  0  0  0  0  0  0  0
    2.7044   -3.6491   20.8005 C   0  0  1  0  0  0  0  0  0  0  0  0
    2.2428   -2.7831   19.7339 O   0  0  0  0  0  0  0  0  0  0  0  0
    1.0806   -2.0258   19.7619 C   0  0  2  0  0  0  0  0  0  0  0  0
    1.4971   -0.5308   20.0000 C   0  0  2  0  0  0  0  0  0  0  0  0
    2.3691   -0.1211   18.9966 O   0  0  0  0  0  0  0  0  0  0  0  0
    2.1365   -0.3185   21.4379 C   0  0  1  0  0  0  0  0  0  0  0  0
    2.5141    1.1133   21.6482 N   0  0  0  0  0  0  0  0  0  0  0  0
    1.0909   -0.7999   22.5362 C   0  0  2  0  0  0  0  0  0  0  0  0
    1.6182   -0.6159   23.8559 O   0  0  0  0  0  0  0  0  0  0  0  0
    0.7469   -2.3138   22.2558 C   0  0  2  0  0  0  0  0  0  0  0  0
    0.1844   -2.4899   20.8519 O   0  0  0  0  0  0  0  0  0  0  0  0
   -0.2605   -2.8376   23.2514 C   0  0  0  0  0  0  0  0  0  0  0  0
    0.3500   -3.5881   24.3176 O   0  0  0  0  0  0  0  0  0  0  0  0
    4.5800   -4.4831   25.3053 O   0  0  0  0  0  0  0  0  0  0  0  0
    5.5530   -2.4455   27.0450 O   0  0  0  0  0  0  0  0  0  0  0  0
    1.4010   -6.7985   19.1158 C   0  0  0  0  0  0  0  0  0  0  0  0
    2.4169   -7.3035   18.5520 O   0  0  0  0  0  0  0  0  0  0  0  0
    0.0083   -7.5005   19.1079 C   0  0  2  0  0  0  0  0  0  0  0  0
   -2.0128   -9.4579   17.9922 N   0  0  0  0  0  0  0  0  0  0  0  0
   -0.6726   -7.3748   17.7101 C   0  0  0  0  0  0  0  0  0  0  0  0
   -2.0697   -8.0153   17.6548 C   0  0  0  0  0  0  0  0  0  0  0  0
   -0.8089   -6.9770   19.9303 O   0  0  0  0  0  0  0  0  0  0  0  0
  1  2  1  6  0  0  0
  1  3  1  0  0  0  0
  1  8  1  0  0  0  0
  3  4  1  0  0  0  0
  3 32  1  6  0  0  0
  4  5  1  0  0  0  0
  4 33  1  1  0  0  0
  5  6  1  6  0  0  0
  5  7  1  0  0  0  0
  7  8  1  0  0  0  0
  7  9  1  1  0  0  0
  9 10  1  0  0  0  0
 11 12  1  1  0  0  0
 11 13  1  0  0  0  0
 11 19  1  0  0  0  0
 12 34  1  0  0  0  0
 13 14  1  0  0  0  0
 14 15  1  1  0  0  0
 14 16  1  0  0  0  0
 16  2  1  6  0  0  0
 16 17  1  0  0  0  0
 17 18  1  1  0  0  0
 17 19  1  0  0  0  0
 19 20  1  6  0  0  0
 21 20  1  1  0  0  0
 21 22  1  0  0  0  0
 21 29  1  0  0  0  0
 22 23  1  6  0  0  0
 22 24  1  0  0  0  0
 24 25  1  1  0  0  0
 24 26  1  0  0  0  0
 26 27  1  1  0  0  0
 26 28  1  0  0  0  0
 28 29  1  0  0  0  0
 28 30  1  1  0  0  0
 30 31  1  0  0  0  0
 34 35  2  0  0  0  0
 36 34  1  6  0  0  0
 36 38  1  0  0  0  0
 36 40  1  0  0  0  0
 37 39  1  0  0  0  0
 38 39  1  0  0  0  0
M  END
>  <CHROM.1>
-73.89750152,-59.74949912,81.37345410,-64.31999291,120.28744853,104.82088217
-99.14365603,105.05145222,-178.34537172,-58.90333964,3.35533644,-3.72278182
22.07857175,-0.52282086,0.55053559,-2.83480290

>  <Name>
ligand

>  <RI>
0

>  <Rbt.Current_Directory>
/home/itssahil/PROJECTS/Mol_Feturizer/New_Systems/rnas/4P20

>  <Rbt.Executable>
rbdock ($Id: //depot/dev/client3/rdock/2013.1/src/exe/rbdock.cxx#4 $)

>  <Rbt.Library>
libRbt.so (2013.1, Build901 2013/11/27)

>  <Rbt.Parameter_File>
/export/apps/rDock/src/rDock_2013.1_src/data/scripts/dock_solv.prm

>  <Rbt.Receptor>
prm/blind_docking_60.prm

>  <SCORE>
46.9123

>  <SCORE.INTER>
30.1976

>  <SCORE.INTER.CONST>
1

>  <SCORE.INTER.POLAR>
0

>  <SCORE.INTER.ROT>
10

>  <SCORE.INTER.SOLV>
26.0378

>  <SCORE.INTER.VDW>
1.18581

>  <SCORE.INTER.norm>
0.75494

>  <SCORE.INTRA>
4.55823

>  <SCORE.INTRA.DIHEDRAL>
-6.46676

>  <SCORE.INTRA.DIHEDRAL.0>
28.2802

>  <SCORE.INTRA.POLAR>
0

>  <SCORE.INTRA.POLAR.0>
0

>  <SCORE.INTRA.REPUL>
0

>  <SCORE.INTRA.REPUL.0>
0

>  <SCORE.INTRA.SOLV>
4.67471

>  <SCORE.INTRA.SOLV.lig_0>
-101.981

>  <SCORE.INTRA.VDW>
5.45425

>  <SCORE.INTRA.VDW.0>
-5.72964

>  <SCORE.INTRA.norm>
0.113956

>  <SCORE.RESTR>
12.1565

>  <SCORE.RESTR.CAVITY>
12.1565

>  <SCORE.RESTR.norm>
0.303911

>  <SCORE.SYSTEM>
0

>  <SCORE.SYSTEM.CONST>
0

>  <SCORE.SYSTEM.DIHEDRAL>
0

>  <SCORE.SYSTEM.SOLV>
0

>  <SCORE.SYSTEM.norm>
0

>  <SCORE.heavy>
40

>  <SCORE.norm>
1.17281

>  <RMSD>
9.139

$$$$
ligand
 OpenBabel11021811513D
libRbt.so/2013.1/901 2013/11/27
 40 42  0  0  0  0  0  0  0  0999 V2000
   -8.3016   -7.7383   17.5477 C   0  0  2  0  0  0  0  0  0  0  0  0
   -7.1827   -6.9290   17.1527 O   0  0  0  0  0  0  0  0  0  0  0  0
   -9.5816   -6.8467   17.7619 C   0  0  1  0  0  0  0  0  0  0  0  0
   -9.4055   -5.8722   18.9628 C   0  0  2  0  0  0  0  0  0  0  0  0
   -9.1495   -6.7336   20.2398 C   0  0  2  0  0  0  0  0  0  0  0  0
   -9.0068   -5.8613   21.3814 O   0  0  0  0  0  0  0  0  0  0  0  0
   -7.8276   -7.5897   20.0137 C   0  0  2  0  0  0  0  0  0  0  0  0
   -8.0019   -8.4824   18.8126 O   0  0  0  0  0  0  0  0  0  0  0  0
   -7.5012   -8.4839   21.2020 C   0  0  0  0  0  0  0  0  0  0  0  0
   -6.2769   -9.3075   20.9503 N   0  0  0  0  0  0  0  0  0  0  0  0
   -3.8497   -9.7946   17.0520 C   0  0  2  0  0  0  0  0  0  0  0  0
   -2.5603  -10.3670   16.7419 N   0  0  0  0  0  0  0  0  0  0  0  0
   -4.6412   -9.5155   15.7109 C   0  0  0  0  0  0  0  0  0  0  0  0
   -6.0656   -8.8787   16.0371 C   0  0  2  0  0  0  0  0  0  0  0  0
   -6.8144   -8.6324   14.7770 N   0  0  0  0  0  0  0  0  0  0  0  0
   -5.8588   -7.5239   16.8610 C   0  0  2  0  0  0  0  0  0  0  0  0
   -5.0606   -7.8552   18.1933 C   0  0  2  0  0  0  0  0  0  0  0  0
   -4.8738   -6.6501   18.9391 O   0  0  0  0  0  0  0  0  0  0  0  0
   -3.6537   -8.4890   17.8551 C   0  0  1  0  0  0  0  0  0  0  0  0
   -2.9473   -8.8045   19.0807 O   0  0  0  0  0  0  0  0  0  0  0  0
   -2.1785   -7.9134   19.8154 C   0  0  2  0  0  0  0  0  0  0  0  0
   -0.8430   -7.6783   19.0241 C   0  0  2  0  0  0  0  0  0  0  0  0
   -1.1305   -7.2001   17.7498 O   0  0  0  0  0  0  0  0  0  0  0  0
    0.0423   -8.9948   18.9568 C   0  0  1  0  0  0  0  0  0  0  0  0
    1.3140   -8.7453   18.2103 N   0  0  0  0  0  0  0  0  0  0  0  0
    0.3389   -9.4853   20.4409 C   0  0  2  0  0  0  0  0  0  0  0  0
    1.1485  -10.6676   20.4338 O   0  0  0  0  0  0  0  0  0  0  0  0
   -1.0427   -9.7337   21.1608 C   0  0  2  0  0  0  0  0  0  0  0  0
   -1.8874   -8.4668   21.1628 O   0  0  0  0  0  0  0  0  0  0  0  0
   -0.8408  -10.1845   22.5879 C   0  0  0  0  0  0  0  0  0  0  0  0
   -2.0820  -10.3663   23.2944 O   0  0  0  0  0  0  0  0  0  0  0  0
   -9.8359   -6.1081   16.5315 O   0  0  0  0  0  0  0  0  0  0  0  0
  -10.5525   -5.1305   19.1114 O   0  0  0  0  0  0  0  0  0  0  0  0
   -2.5041  -11.6476   16.0757 C   0  0  0  0  0  0  0  0  0  0  0  0
   -3.4878  -12.4420   16.1552 O   0  0  0  0  0  0  0  0  0  0  0  0
   -1.2099  -12.0006   15.2802 C   0  0  2  0  0  0  0  0  0  0  0  0
    1.7203  -11.3704   14.5996 N   0  0  0  0  0  0  0  0  0  0  0  0
   -0.6954  -10.7674   14.4750 C   0  0  0  0  0  0  0  0  0  0  0  0
    0.5953  -11.0508   13.6884 C   0  0  0  0  0  0  0  0  0  0  0  0
   -1.4002  -12.9136   14.4151 O   0  0  0  0  0  0  0  0  0  0  0  0
  1  2  1  1  0  0  0
  1  3  1  0  0  0  0
  1  8  1  0  0  0  0
  3  4  1  0  0  0  0
  3 32  1  6  0  0  0
  4  5  1  0  0  0  0
  4 33  1  1  0  0  0
  5  6  1  1  0  0  0
  5  7  1  0  0  0  0
  7  8  1  0  0  0  0
  7  9  1  1  0  0  0
  9 10  1  0  0  0  0
 11 12  1  6  0  0  0
 11 13  1  0  0  0  0
 11 19  1  0  0  0  0
 12 34  1  0  0  0  0
 13 14  1  0  0  0  0
 14 15  1  6  0  0  0
 14 16  1  0  0  0  0
 16  2  1  1  0  0  0
 16 17  1  0  0  0  0
 17 18  1  6  0  0  0
 17 19  1  0  0  0  0
 19 20  1  1  0  0  0
 21 20  1  6  0  0  0
 21 22  1  0  0  0  0
 21 29  1  0  0  0  0
 22 23  1  6  0  0  0
 22 24  1  0  0  0  0
 24 25  1  1  0  0  0
 24 26  1  0  0  0  0
 26 27  1  6  0  0  0
 26 28  1  0  0  0  0
 28 29  1  0  0  0  0
 28 30  1  1  0  0  0
 30 31  1  0  0  0  0
 34 35  2  0  0  0  0
 36 34  1  6  0  0  0
 36 38  1  0  0  0  0
 36 40  1  0  0  0  0
 37 39  1  0  0  0  0
 38 39  1  0  0  0  0
M  END
>  <CHROM.1>
-178.80596409,40.98318312,178.36528919,-62.75161777,155.60119060,-73.74054191
177.51827489,-41.54398881,179.00971905,-63.61676659,-4.09682518,-8.81832558
18.23799018,2.88274111,-0.36310270,1.29914864

>  <Name>
ligand

>  <RI>
0

>  <Rbt.Current_Directory>
/home/itssahil/PROJECTS/Mol_Feturizer/New_Systems/rnas/4P20

>  <Rbt.Executable>
rbdock ($Id: //depot/dev/client3/rdock/2013.1/src/exe/rbdock.cxx#4 $)

>  <Rbt.Library>
libRbt.so (2013.1, Build901 2013/11/27)

>  <Rbt.Parameter_File>
/export/apps/rDock/src/rDock_2013.1_src/data/scripts/dock_solv.prm

>  <Rbt.Receptor>
prm/pocket_docking_8.prm

>  <SCORE>
-12.5922

>  <SCORE.INTER>
-4.17089

>  <SCORE.INTER.CONST>
1

>  <SCORE.INTER.POLAR>
0

>  <SCORE.INTER.ROT>
10

>  <SCORE.INTER.SOLV>
15.3756

>  <SCORE.INTER.VDW>
-18.1725

>  <SCORE.INTER.norm>
-0.104272

>  <SCORE.INTRA>
-8.42752

>  <SCORE.INTRA.DIHEDRAL>
-21.9063

>  <SCORE.INTRA.DIHEDRAL.0>
28.2802

>  <SCORE.INTRA.POLAR>
0

>  <SCORE.INTRA.POLAR.0>
0

>  <SCORE.INTRA.REPUL>
0

>  <SCORE.INTRA.REPUL.0>
0

>  <SCORE.INTRA.SOLV>
2.43306

>  <SCORE.INTRA.SOLV.lig_0>
-101.981

>  <SCORE.INTRA.VDW>
1.30911

>  <SCORE.INTRA.VDW.0>
-5.72964

>  <SCORE.INTRA.norm>
-0.210688

>  <SCORE.RESTR>
0.00621107

>  <SCORE.RESTR.CAVITY>
0.00621107

>  <SCORE.RESTR.norm>
0.000155277

>  <SCORE.SYSTEM>
0

>  <SCORE.SYSTEM.CONST>
0

>  <SCORE.SYSTEM.DIHEDRAL>
0

>  <SCORE.SYSTEM.SOLV>
0

>  <SCORE.SYSTEM.norm>
0

>  <SCORE.heavy>
40

>  <SCORE.norm>
-0.314805

>  <RMSD>
9.146

$$$$
ligand
 OpenBabel11021811513D
libRbt.so/2013.1/901 2013/11/27
 40 42  0  0  0  0  0  0  0  0999 V2000
    4.5368  -16.9659   15.0262 C   0  0  2  0  0  0  0  0  0  0  0  0
    4.7317  -16.7894   16.4382 O   0  0  0  0  0  0  0  0  0  0  0  0
    5.3696  -18.1950   14.5016 C   0  0  1  0  0  0  0  0  0  0  0  0
    6.9007  -17.9412   14.6207 C   0  0  2  0  0  0  0  0  0  0  0  0
    7.2404  -16.6781   13.7678 C   0  0  2  0  0  0  0  0  0  0  0  0
    8.6607  -16.4272   13.8341 O   0  0  0  0  0  0  0  0  0  0  0  0
    6.4207  -15.4435   14.3469 C   0  0  2  0  0  0  0  0  0  0  0  0
    4.9446  -15.7369   14.2734 O   0  0  0  0  0  0  0  0  0  0  0  0
    6.6691  -14.1603   13.5658 C   0  0  0  0  0  0  0  0  0  0  0  0
    6.2208  -14.2872   12.1433 N   0  0  0  0  0  0  0  0  0  0  0  0
    2.1290  -14.8913   19.4303 C   0  0  2  0  0  0  0  0  0  0  0  0
    1.4403  -13.8613   20.1728 N   0  0  0  0  0  0  0  0  0  0  0  0
    3.6915  -14.6732   19.5474 C   0  0  0  0  0  0  0  0  0  0  0  0
    4.4654  -15.8005   18.7283 C   0  0  2  0  0  0  0  0  0  0  0  0
    5.9335  -15.6038   18.8529 N   0  0  0  0  0  0  0  0  0  0  0  0
    4.0030  -15.7489   17.1985 C   0  0  2  0  0  0  0  0  0  0  0  0
    2.4318  -15.9706   17.1339 C   0  0  2  0  0  0  0  0  0  0  0  0
    2.0089  -15.9299   15.7691 O   0  0  0  0  0  0  0  0  0  0  0  0
    1.6784  -14.8494   17.9527 C   0  0  1  0  0  0  0  0  0  0  0  0
    0.2481  -15.0778   17.9013 O   0  0  0  0  0  0  0  0  0  0  0  0
   -0.5096  -15.1614   16.7421 C   0  0  2  0  0  0  0  0  0  0  0  0
   -0.4519  -13.7590   16.0384 C   0  0  2  0  0  0  0  0  0  0  0  0
    0.8717  -13.4180   15.7795 O   0  0  0  0  0  0  0  0  0  0  0  0
   -1.1757  -12.6374   16.8983 C   0  0  1  0  0  0  0  0  0  0  0  0
   -1.1199  -11.3136   16.2044 N   0  0  0  0  0  0  0  0  0  0  0  0
   -2.6811  -13.0842   17.1540 C   0  0  2  0  0  0  0  0  0  0  0  0
   -3.3827  -12.0953   17.9178 O   0  0  0  0  0  0  0  0  0  0  0  0
   -2.6603  -14.4785   17.8919 C   0  0  2  0  0  0  0  0  0  0  0  0
   -1.9152  -15.5174   17.0648 O   0  0  0  0  0  0  0  0  0  0  0  0
   -4.0612  -14.9790   18.1517 C   0  0  0  0  0  0  0  0  0  0  0  0
   -4.8614  -15.0372   16.9562 O   0  0  0  0  0  0  0  0  0  0  0  0
    4.9808  -19.3719   15.2684 O   0  0  0  0  0  0  0  0  0  0  0  0
    7.5763  -19.0363   14.1390 O   0  0  0  0  0  0  0  0  0  0  0  0
    1.4344  -12.5115   19.6580 C   0  0  0  0  0  0  0  0  0  0  0  0
    2.3413  -12.1402   18.8551 O   0  0  0  0  0  0  0  0  0  0  0  0
    0.2945  -11.5562   20.1273 C   0  0  2  0  0  0  0  0  0  0  0  0
   -0.1717   -7.7126   19.7077 N   0  0  0  0  0  0  0  0  0  0  0  0
    0.6240  -10.0744   19.7677 C   0  0  0  0  0  0  0  0  0  0  0  0
   -0.5197   -9.1003   20.0966 C   0  0  0  0  0  0  0  0  0  0  0  0
    0.1321  -11.5697   21.3888 O   0  0  0  0  0  0  0  0  0  0  0  0
  1  2  1  1  0  0  0
  1  3  1  0  0  0  0
  1  8  1  0  0  0  0
  3  4  1  0  0  0  0
  3 32  1  1  0  0  0
  4  5  1  0  0  0  0
  4 33  1  6  0  0  0
  5  6  1  1  0  0  0
  5  7  1  0  0  0  0
  7  8  1  0  0  0  0
  7  9  1  6  0  0  0
  9 10  1  0  0  0  0
 11 12  1  1  0  0  0
 11 13  1  0  0  0  0
 11 19  1  0  0  0  0
 12 34  1  0  0  0  0
 13 14  1  0  0  0  0
 14 15  1  6  0  0  0
 14 16  1  0  0  0  0
 16  2  1  6  0  0  0
 16 17  1  0  0  0  0
 17 18  1  6  0  0  0
 17 19  1  0  0  0  0
 19 20  1  1  0  0  0
 21 20  1  1  0  0  0
 21 22  1  0  0  0  0
 21 29  1  0  0  0  0
 22 23  1  1  0  0  0
 22 24  1  0  0  0  0
 24 25  1  6  0  0  0
 24 26  1  0  0  0  0
 26 27  1  1  0  0  0
 26 28  1  0  0  0  0
 28 29  1  0  0  0  0
 28 30  1  6  0  0  0
 30 31  1  0  0  0  0
 34 35  2  0  0  0  0
 36 34  1  1  0  0  0
 36 38  1  0  0  0  0
 36 40  1  0  0  0  0
 37 39  1  0  0  0  0
 38 39  1  0  0  0  0
M  END
>  <CHROM.1>
-176.53895309,-178.96075094,62.40284811,71.56370433,-177.46923714,-64.51015363
54.50716222,166.16711934,174.98962505,-178.64127861,2.10276092,-14.51085902
17.00458050,0.66183501,-0.05190553,-2.49734915

>  <Name>
ligand

>  <RI>
0

>  <Rbt.Current_Directory>
/home/itssahil/PROJECTS/Mol_Feturizer/New_Systems/rnas/4P20

>  <Rbt.Executable>
rbdock ($Id: //depot/dev/client3/rdock/2013.1/src/exe/rbdock.cxx#4 $)

>  <Rbt.Library>
libRbt.so (2013.1, Build901 2013/11/27)

>  <Rbt.Parameter_File>
/export/apps/rDock/src/rDock_2013.1_src/data/scripts/dock_solv.prm

>  <Rbt.Receptor>
prm/pocket_docking_8.prm

>  <SCORE>
-6.07196

>  <SCORE.INTER>
4.05346

>  <SCORE.INTER.CONST>
1

>  <SCORE.INTER.POLAR>
0

>  <SCORE.INTER.ROT>
10

>  <SCORE.INTER.SOLV>
8.75655

>  <SCORE.INTER.VDW>
-10.4832

>  <SCORE.INTER.norm>
0.101336

>  <SCORE.INTRA>
-10.1256

>  <SCORE.INTRA.DIHEDRAL>
-26.7296

>  <SCORE.INTRA.DIHEDRAL.0>
28.2802

>  <SCORE.INTRA.POLAR>
0

>  <SCORE.INTRA.POLAR.0>
0

>  <SCORE.INTRA.REPUL>
0

>  <SCORE.INTRA.REPUL.0>
0

>  <SCORE.INTRA.SOLV>
1.42153

>  <SCORE.INTRA.SOLV.lig_0>
-101.981

>  <SCORE.INTRA.VDW>
2.52841

>  <SCORE.INTRA.VDW.0>
-5.72964

>  <SCORE.INTRA.norm>
-0.25314

>  <SCORE.RESTR>
0.000195795

>  <SCORE.RESTR.CAVITY>
0.000195795

>  <SCORE.RESTR.norm>
4.89488e-06

>  <SCORE.SYSTEM>
0

>  <SCORE.SYSTEM.CONST>
0

>  <SCORE.SYSTEM.DIHEDRAL>
0

>  <SCORE.SYSTEM.SOLV>
0

>  <SCORE.SYSTEM.norm>
0

>  <SCORE.heavy>
40

>  <SCORE.norm>
-0.151799

>  <RMSD>
9.162

$$$$
ligand
 OpenBabel11021811513D
libRbt.so/2013.1/901 2013/11/27
 40 42  0  0  0  0  0  0  0  0999 V2000
   -0.1774   -9.8949   16.1559 C   0  0  2  0  0  0  0  0  0  0  0  0
   -0.5582  -10.1151   17.5232 O   0  0  0  0  0  0  0  0  0  0  0  0
   -1.1632  -10.6397   15.1798 C   0  0  1  0  0  0  0  0  0  0  0  0
   -1.0611  -12.1853   15.3332 C   0  0  2  0  0  0  0  0  0  0  0  0
    0.4088  -12.5988   15.0067 C   0  0  2  0  0  0  0  0  0  0  0  0
    0.5345  -14.0331   15.1139 O   0  0  0  0  0  0  0  0  0  0  0  0
    1.3784  -11.8680   16.0349 C   0  0  2  0  0  0  0  0  0  0  0  0
    1.2194  -10.3752   15.9070 O   0  0  0  0  0  0  0  0  0  0  0  0
    2.8449  -12.1925   15.7855 C   0  0  0  0  0  0  0  0  0  0  0  0
    3.1349  -13.6420   16.0212 N   0  0  0  0  0  0  0  0  0  0  0  0
    2.3563   -7.6825   19.7410 C   0  0  2  0  0  0  0  0  0  0  0  0
    2.9934   -6.9927   20.8385 N   0  0  0  0  0  0  0  0  0  0  0  0
    0.9027   -7.0981   19.5210 C   0  0  0  0  0  0  0  0  0  0  0  0
    0.1847   -7.8535   18.3149 C   0  0  2  0  0  0  0  0  0  0  0  0
   -1.1746   -7.2921   18.0990 N   0  0  0  0  0  0  0  0  0  0  0  0
    0.1192   -9.4179   18.6398 C   0  0  2  0  0  0  0  0  0  0  0  0
    1.5980   -9.9557   18.8535 C   0  0  2  0  0  0  0  0  0  0  0  0
    1.5503  -11.3551   19.1409 O   0  0  0  0  0  0  0  0  0  0  0  0
    2.2984   -9.1959   20.0482 C   0  0  1  0  0  0  0  0  0  0  0  0
    3.6529   -9.6833   20.2164 O   0  0  0  0  0  0  0  0  0  0  0  0
    4.4904   -9.3740   21.2784 C   0  0  2  0  0  0  0  0  0  0  0  0
    5.7607  -10.2891   21.1597 C   0  0  2  0  0  0  0  0  0  0  0  0
    6.3737  -10.0836   19.9280 O   0  0  0  0  0  0  0  0  0  0  0  0
    5.4058  -11.8217   21.3755 C   0  0  1  0  0  0  0  0  0  0  0  0
    6.6309  -12.6732   21.2707 N   0  0  0  0  0  0  0  0  0  0  0  0
    4.7150  -11.9889   22.7989 C   0  0  2  0  0  0  0  0  0  0  0  0
    4.3862  -13.3614   23.0469 O   0  0  0  0  0  0  0  0  0  0  0  0
    3.4324  -11.0709   22.8325 C   0  0  2  0  0  0  0  0  0  0  0  0
    3.8008   -9.6167   22.5715 O   0  0  0  0  0  0  0  0  0  0  0  0
    2.7315  -11.1618   24.1670 C   0  0  0  0  0  0  0  0  0  0  0  0
    1.5274  -10.3742   24.2173 O   0  0  0  0  0  0  0  0  0  0  0  0
   -2.5180  -10.1819   15.4607 O   0  0  0  0  0  0  0  0  0  0  0  0
   -1.9301  -12.7825   14.4525 O   0  0  0  0  0  0  0  0  0  0  0  0
    4.2768   -6.3659   20.6217 C   0  0  0  0  0  0  0  0  0  0  0  0
    5.0206   -6.7652   19.6771 O   0  0  0  0  0  0  0  0  0  0  0  0
    4.6961   -5.2099   21.5810 C   0  0  2  0  0  0  0  0  0  0  0  0
    5.4444   -5.1738   25.4020 N   0  0  0  0  0  0  0  0  0  0  0  0
    4.8747   -5.7320   23.0401 C   0  0  0  0  0  0  0  0  0  0  0  0
    5.3585   -4.6484   24.0183 C   0  0  0  0  0  0  0  0  0  0  0  0
    3.8184   -4.2922   21.6554 O   0  0  0  0  0  0  0  0  0  0  0  0
  1  2  1  1  0  0  0
  1  3  1  0  0  0  0
  1  8  1  0  0  0  0
  3  4  1  0  0  0  0
  3 32  1  1  0  0  0
  4  5  1  0  0  0  0
  4 33  1  6  0  0  0
  5  6  1  1  0  0  0
  5  7  1  0  0  0  0
  7  8  1  0  0  0  0
  7  9  1  6  0  0  0
  9 10  1  0  0  0  0
 11 12  1  1  0  0  0
 11 13  1  0  0  0  0
 11 19  1  0  0  0  0
 12 34  1  0  0  0  0
 13 14  1  0  0  0  0
 14 15  1  1  0  0  0
 14 16  1  0  0  0  0
 16  2  1  6  0  0  0
 16 17  1  0  0  0  0
 17 18  1  1  0  0  0
 17 19  1  0  0  0  0
 19 20  1  6  0  0  0
 21 20  1  6  0  0  0
 21 22  1  0  0  0  0
 21 29  1  0  0  0  0
 22 23  1  6  0  0  0
 22 24  1  0  0  0  0
 24 25  1  1  0  0  0
 24 26  1  0  0  0  0
 26 27  1  6  0  0  0
 26 28  1  0  0  0  0
 28 29  1  0  0  0  0
 28 30  1  1  0  0  0
 30 31  1  0  0  0  0
 34 35  2  0  0  0  0
 36 34  1  6  0  0  0
 36 38  1  0  0  0  0
 36 40  1  0  0  0  0
 37 39  1  0  0  0  0
 38 39  1  0  0  0  0
M  END
>  <CHROM.1>
-173.77339762,49.24684066,-64.80944700,-125.01027166,69.40455901,171.44042497
-177.84617361,64.78168286,177.05192063,177.01731934,2.46756261,-9.70184133
19.54362500,2.44942392,0.83890779,-2.81872768

>  <Name>
ligand

>  <RI>
0

>  <Rbt.Current_Directory>
/home/itssahil/PROJECTS/Mol_Feturizer/New_Systems/rnas/4P20

>  <Rbt.Executable>
rbdock ($Id: //depot/dev/client3/rdock/2013.1/src/exe/rbdock.cxx#4 $)

>  <Rbt.Library>
libRbt.so (2013.1, Build901 2013/11/27)

>  <Rbt.Parameter_File>
/export/apps/rDock/src/rDock_2013.1_src/data/scripts/dock_solv.prm

>  <Rbt.Receptor>
prm/pocket_docking_6.prm

>  <SCORE>
-17.0029

>  <SCORE.INTER>
-5.62289

>  <SCORE.INTER.CONST>
1

>  <SCORE.INTER.POLAR>
0

>  <SCORE.INTER.ROT>
10

>  <SCORE.INTER.SOLV>
22.1403

>  <SCORE.INTER.VDW>
-21.3954

>  <SCORE.INTER.norm>
-0.140572

>  <SCORE.INTRA>
-11.38

>  <SCORE.INTRA.DIHEDRAL>
-24.5592

>  <SCORE.INTRA.DIHEDRAL.0>
28.2802

>  <SCORE.INTRA.POLAR>
0

>  <SCORE.INTRA.POLAR.0>
0

>  <SCORE.INTRA.REPUL>
0

>  <SCORE.INTRA.REPUL.0>
0

>  <SCORE.INTRA.SOLV>
0.583543

>  <SCORE.INTRA.SOLV.lig_0>
-101.981

>  <SCORE.INTRA.VDW>
0.607844

>  <SCORE.INTRA.VDW.0>
-5.72964

>  <SCORE.INTRA.norm>
-0.284499

>  <SCORE.RESTR>
0

>  <SCORE.RESTR.CAVITY>
0

>  <SCORE.RESTR.norm>
0

>  <SCORE.SYSTEM>
0

>  <SCORE.SYSTEM.CONST>
0

>  <SCORE.SYSTEM.DIHEDRAL>
0

>  <SCORE.SYSTEM.SOLV>
0

>  <SCORE.SYSTEM.norm>
0

>  <SCORE.heavy>
40

>  <SCORE.norm>
-0.425071

>  <RMSD>
9.164

$$$$
ligand
 OpenBabel11021811503D
libRbt.so/2013.1/901 2013/11/27
 40 42  0  0  0  0  0  0  0  0999 V2000
    6.6692   -2.9835   24.0829 C   0  0  2  0  0  0  0  0  0  0  0  0
    6.4789   -4.2433   23.4197 O   0  0  0  0  0  0  0  0  0  0  0  0
    8.1783   -2.5406   24.0077 C   0  0  1  0  0  0  0  0  0  0  0  0
    9.0988   -3.5072   24.8085 C   0  0  2  0  0  0  0  0  0  0  0  0
    8.6236   -3.4921   26.2959 C   0  0  2  0  0  0  0  0  0  0  0  0
    9.4736   -4.3603   27.0758 O   0  0  0  0  0  0  0  0  0  0  0  0
    7.1120   -3.9859   26.3473 C   0  0  2  0  0  0  0  0  0  0  0  0
    6.2512   -3.0679   25.5188 O   0  0  0  0  0  0  0  0  0  0  0  0
    6.5464   -3.9875   27.7609 C   0  0  0  0  0  0  0  0  0  0  0  0
    5.9934   -2.6473   28.1331 N   0  0  0  0  0  0  0  0  0  0  0  0
    2.7010   -5.1713   21.3713 C   0  0  2  0  0  0  0  0  0  0  0  0
    1.3897   -5.7255   21.1268 N   0  0  0  0  0  0  0  0  0  0  0  0
    3.7360   -6.3445   21.6061 C   0  0  0  0  0  0  0  0  0  0  0  0
    5.1880   -5.7477   21.8822 C   0  0  2  0  0  0  0  0  0  0  0  0
    6.1624   -6.8515   22.0863 N   0  0  0  0  0  0  0  0  0  0  0  0
    5.1268   -4.7870   23.1591 C   0  0  2  0  0  0  0  0  0  0  0  0
    4.0763   -3.6303   22.8759 C   0  0  2  0  0  0  0  0  0  0  0  0
    4.0171   -2.7634   24.0109 O   0  0  0  0  0  0  0  0  0  0  0  0
    2.6437   -4.2360   22.6001 C   0  0  1  0  0  0  0  0  0  0  0  0
    1.7020   -3.1697   22.3231 O   0  0  0  0  0  0  0  0  0  0  0  0
    0.7744   -3.1668   21.2914 C   0  0  2  0  0  0  0  0  0  0  0  0
    1.4222   -2.4122   20.0765 C   0  0  2  0  0  0  0  0  0  0  0  0
    2.6107   -3.0382   19.7148 O   0  0  0  0  0  0  0  0  0  0  0  0
    1.6574   -0.8744   20.3947 C   0  0  1  0  0  0  0  0  0  0  0  0
    2.2629   -0.1728   19.2208 N   0  0  0  0  0  0  0  0  0  0  0  0
    0.2643   -0.2184   20.7948 C   0  0  2  0  0  0  0  0  0  0  0  0
    0.4221    1.1771   21.0798 O   0  0  0  0  0  0  0  0  0  0  0  0
   -0.3080   -1.0024   22.0385 C   0  0  2  0  0  0  0  0  0  0  0  0
   -0.4731   -2.4815   21.7165 O   0  0  0  0  0  0  0  0  0  0  0  0
   -1.6456   -0.4465   22.4653 C   0  0  0  0  0  0  0  0  0  0  0  0
   -2.2699   -1.2315   23.4982 O   0  0  0  0  0  0  0  0  0  0  0  0
    8.5729   -2.4963   22.6054 O   0  0  0  0  0  0  0  0  0  0  0  0
   10.3975   -3.0677   24.7195 O   0  0  0  0  0  0  0  0  0  0  0  0
    1.1403   -6.4119   19.8803 C   0  0  0  0  0  0  0  0  0  0  0  0
    1.8632   -6.1641   18.8699 O   0  0  0  0  0  0  0  0  0  0  0  0
   -0.0314   -7.4402   19.8349 C   0  0  2  0  0  0  0  0  0  0  0  0
   -2.4393   -8.5274   16.9907 N   0  0  0  0  0  0  0  0  0  0  0  0
   -0.6905   -7.4739   18.4214 C   0  0  0  0  0  0  0  0  0  0  0  0
   -2.0106   -8.2619   18.3849 C   0  0  0  0  0  0  0  0  0  0  0  0
   -0.9720   -7.1472   20.6395 O   0  0  0  0  0  0  0  0  0  0  0  0
  1  2  1  1  0  0  0
  1  3  1  0  0  0  0
  1  8  1  0  0  0  0
  3  4  1  0  0  0  0
  3 32  1  6  0  0  0
  4  5  1  0  0  0  0
  4 33  1  1  0  0  0
  5  6  1  1  0  0  0
  5  7  1  0  0  0  0
  7  8  1  0  0  0  0
  7  9  1  1  0  0  0
  9 10  1  0  0  0  0
 11 12  1  1  0  0  0
 11 13  1  0  0  0  0
 11 19  1  0  0  0  0
 12 34  1  0  0  0  0
 13 14  1  0  0  0  0
 14 15  1  1  0  0  0
 14 16  1  0  0  0  0
 16  2  1  6  0  0  0
 16 17  1  0  0  0  0
 17 18  1  1  0  0  0
 17 19  1  0  0  0  0
 19 20  1  6  0  0  0
 21 20  1  1  0  0  0
 21 22  1  0  0  0  0
 21 29  1  0  0  0  0
 22 23  1  1  0  0  0
 22 24  1  0  0  0  0
 24 25  1  6  0  0  0
 24 26  1  0  0  0  0
 26 27  1  1  0  0  0
 26 28  1  0  0  0  0
 28 29  1  0  0  0  0
 28 30  1  6  0  0  0
 30 31  1  0  0  0  0
 34 35  2  0  0  0  0
 36 34  1  6  0  0  0
 36 38  1  0  0  0  0
 36 40  1  0  0  0  0
 37 39  1  0  0  0  0
 38 39  1  0  0  0  0
M  END
>  <CHROM.1>
-170.36435085,153.36357751,86.02601628,-70.61224806,14.61939453,-94.39962746
173.32428502,147.69449151,-169.00610428,-167.20819142,3.30028065,-3.82684416
22.34599456,0.33181467,-0.49945928,0.39305544

>  <Name>
ligand

>  <RI>
0

>  <Rbt.Current_Directory>
/home/itssahil/PROJECTS/Mol_Feturizer/New_Systems/rnas/4P20

>  <Rbt.Executable>
rbdock ($Id: //depot/dev/client3/rdock/2013.1/src/exe/rbdock.cxx#4 $)

>  <Rbt.Library>
libRbt.so (2013.1, Build901 2013/11/27)

>  <Rbt.Parameter_File>
/export/apps/rDock/src/rDock_2013.1_src/data/scripts/dock_solv.prm

>  <Rbt.Receptor>
prm/blind_docking_60.prm

>  <SCORE>
53.288

>  <SCORE.INTER>
34.933

>  <SCORE.INTER.CONST>
1

>  <SCORE.INTER.POLAR>
0

>  <SCORE.INTER.ROT>
10

>  <SCORE.INTER.SOLV>
37.4355

>  <SCORE.INTER.VDW>
0.543467

>  <SCORE.INTER.norm>
0.873324

>  <SCORE.INTRA>
1.34096

>  <SCORE.INTRA.DIHEDRAL>
-9.16286

>  <SCORE.INTRA.DIHEDRAL.0>
28.2802

>  <SCORE.INTRA.POLAR>
0

>  <SCORE.INTRA.POLAR.0>
0

>  <SCORE.INTRA.REPUL>
0

>  <SCORE.INTRA.REPUL.0>
0

>  <SCORE.INTRA.SOLV>
-0.131814

>  <SCORE.INTRA.SOLV.lig_0>
-101.981

>  <SCORE.INTRA.VDW>
5.9883

>  <SCORE.INTRA.VDW.0>
-5.72964

>  <SCORE.INTRA.norm>
0.0335241

>  <SCORE.RESTR>
17.0141

>  <SCORE.RESTR.CAVITY>
17.0141

>  <SCORE.RESTR.norm>
0.425352

>  <SCORE.SYSTEM>
0

>  <SCORE.SYSTEM.CONST>
0

>  <SCORE.SYSTEM.DIHEDRAL>
0

>  <SCORE.SYSTEM.SOLV>
0

>  <SCORE.SYSTEM.norm>
0

>  <SCORE.heavy>
40

>  <SCORE.norm>
1.3322

>  <RMSD>
9.169

$$$$
ligand
 OpenBabel11021811513D
libRbt.so/2013.1/901 2013/11/27
 40 42  0  0  0  0  0  0  0  0999 V2000
   -2.6981  -11.9944   15.8813 C   0  0  2  0  0  0  0  0  0  0  0  0
   -1.9697  -11.1028   16.7401 O   0  0  0  0  0  0  0  0  0  0  0  0
   -4.2025  -12.0947   16.3353 C   0  0  1  0  0  0  0  0  0  0  0  0
   -4.3342  -12.7622   17.7353 C   0  0  2  0  0  0  0  0  0  0  0  0
   -3.7215  -14.1951   17.6377 C   0  0  2  0  0  0  0  0  0  0  0  0
   -3.8501  -14.8555   18.9151 O   0  0  0  0  0  0  0  0  0  0  0  0
   -2.1916  -14.0620   17.2217 C   0  0  2  0  0  0  0  0  0  0  0  0
   -2.0879  -13.3622   15.8913 O   0  0  0  0  0  0  0  0  0  0  0  0
   -1.5058  -15.4139   17.0795 C   0  0  0  0  0  0  0  0  0  0  0  0
   -0.0347  -15.2624   16.8481 N   0  0  0  0  0  0  0  0  0  0  0  0
    1.9780   -9.3407   15.9398 C   0  0  2  0  0  0  0  0  0  0  0  0
    2.9872   -8.4593   15.4004 N   0  0  0  0  0  0  0  0  0  0  0  0
    1.2292  -10.0752   14.7554 C   0  0  0  0  0  0  0  0  0  0  0  0
    0.1082  -11.0487   15.3355 C   0  0  2  0  0  0  0  0  0  0  0  0
   -0.5832  -11.7503   14.2223 N   0  0  0  0  0  0  0  0  0  0  0  0
   -0.9237  -10.1980   16.2121 C   0  0  2  0  0  0  0  0  0  0  0  0
   -0.1261   -9.4806   17.3831 C   0  0  2  0  0  0  0  0  0  0  0  0
   -1.0411   -8.7200   18.1753 O   0  0  0  0  0  0  0  0  0  0  0  0
    0.9834   -8.5228   16.7942 C   0  0  1  0  0  0  0  0  0  0  0  0
    1.7154   -7.8925   17.8747 O   0  0  0  0  0  0  0  0  0  0  0  0
    1.1462   -7.3324   19.0093 C   0  0  2  0  0  0  0  0  0  0  0  0
    2.1871   -6.3220   19.6098 C   0  0  2  0  0  0  0  0  0  0  0  0
    2.5144   -5.3634   18.6563 O   0  0  0  0  0  0  0  0  0  0  0  0
    3.4846   -7.0621   20.1483 C   0  0  1  0  0  0  0  0  0  0  0  0
    4.4563   -6.0832   20.7267 N   0  0  0  0  0  0  0  0  0  0  0  0
    3.0434   -8.1374   21.2347 C   0  0  2  0  0  0  0  0  0  0  0  0
    4.1843   -8.8256   21.7621 O   0  0  0  0  0  0  0  0  0  0  0  0
    2.0290   -9.1353   20.5533 C   0  0  2  0  0  0  0  0  0  0  0  0
    0.8219   -8.3880   20.0029 O   0  0  0  0  0  0  0  0  0  0  0  0
    1.5482  -10.1783   21.5339 C   0  0  0  0  0  0  0  0  0  0  0  0
    2.6143  -11.0101   22.0282 O   0  0  0  0  0  0  0  0  0  0  0  0
   -4.7667  -10.7510   16.3494 O   0  0  0  0  0  0  0  0  0  0  0  0
   -5.6635  -12.8353   18.0748 O   0  0  0  0  0  0  0  0  0  0  0  0
    4.2767   -8.3912   16.0482 C   0  0  0  0  0  0  0  0  0  0  0  0
    4.3880   -8.7250   17.2652 O   0  0  0  0  0  0  0  0  0  0  0  0
    5.4919   -7.8961   15.2053 C   0  0  2  0  0  0  0  0  0  0  0  0
    5.1609   -7.0653   12.1886 N   0  0  0  0  0  0  0  0  0  0  0  0
    5.6807   -8.7729   13.9289 C   0  0  0  0  0  0  0  0  0  0  0  0
    4.7545   -8.3670   12.7703 C   0  0  0  0  0  0  0  0  0  0  0  0
    6.5927   -7.9781   15.8375 O   0  0  0  0  0  0  0  0  0  0  0  0
  1  2  1  1  0  0  0
  1  3  1  0  0  0  0
  1  8  1  0  0  0  0
  3  4  1  0  0  0  0
  3 32  1  1  0  0  0
  4  5  1  0  0  0  0
  4 33  1  6  0  0  0
  5  6  1  1  0  0  0
  5  7  1  0  0  0  0
  7  8  1  0  0  0  0
  7  9  1  6  0  0  0
  9 10  1  0  0  0  0
 11 12  1  6  0  0  0
 11 13  1  0  0  0  0
 11 19  1  0  0  0  0
 12 34  1  0  0  0  0
 13 14  1  0  0  0  0
 14 15  1  6  0  0  0
 14 16  1  0  0  0  0
 16  2  1  1  0  0  0
 16 17  1  0  0  0  0
 17 18  1  6  0  0  0
 17 19  1  0  0  0  0
 19 20  1  1  0  0  0
 21 20  1  6  0  0  0
 21 22  1  0  0  0  0
 21 29  1  0  0  0  0
 22 23  1  6  0  0  0
 22 24  1  0  0  0  0
 24 25  1  1  0  0  0
 24 26  1  0  0  0  0
 26 27  1  6  0  0  0
 26 28  1  0  0  0  0
 28 29  1  0  0  0  0
 28 30  1  1  0  0  0
 30 31  1  0  0  0  0
 34 35  2  0  0  0  0
 36 34  1  1  0  0  0
 36 38  1  0  0  0  0
 36 40  1  0  0  0  0
 37 39  1  0  0  0  0
 38 39  1  0  0  0  0
M  END
>  <CHROM.1>
-142.51049895,-51.41328427,-173.25854828,-138.55698450,-164.69407471,-158.89944846
-62.41057692,-56.70234689,81.96805010,70.74122932,0.82333675,-9.98640012
17.42074723,-2.99094589,0.62211617,1.35824996

>  <Name>
ligand

>  <RI>
0

>  <Rbt.Current_Directory>
/home/itssahil/PROJECTS/Mol_Feturizer/New_Systems/rnas/4P20

>  <Rbt.Executable>
rbdock ($Id: //depot/dev/client3/rdock/2013.1/src/exe/rbdock.cxx#4 $)

>  <Rbt.Library>
libRbt.so (2013.1, Build901 2013/11/27)

>  <Rbt.Parameter_File>
/export/apps/rDock/src/rDock_2013.1_src/data/scripts/dock_solv.prm

>  <Rbt.Receptor>
prm/pocket_docking_5.prm

>  <SCORE>
-4.47682

>  <SCORE.INTER>
0.344683

>  <SCORE.INTER.CONST>
1

>  <SCORE.INTER.POLAR>
0

>  <SCORE.INTER.ROT>
10

>  <SCORE.INTER.SOLV>
20.9168

>  <SCORE.INTER.VDW>
-17.0092

>  <SCORE.INTER.norm>
0.00861707

>  <SCORE.INTRA>
-4.8215

>  <SCORE.INTRA.DIHEDRAL>
-15.9979

>  <SCORE.INTRA.DIHEDRAL.0>
28.2802

>  <SCORE.INTRA.POLAR>
0

>  <SCORE.INTRA.POLAR.0>
0

>  <SCORE.INTRA.REPUL>
0

>  <SCORE.INTRA.REPUL.0>
0

>  <SCORE.INTRA.SOLV>
2.16662

>  <SCORE.INTRA.SOLV.lig_0>
-101.981

>  <SCORE.INTRA.VDW>
2.09415

>  <SCORE.INTRA.VDW.0>
-5.72964

>  <SCORE.INTRA.norm>
-0.120538

>  <SCORE.RESTR>
0

>  <SCORE.RESTR.CAVITY>
0

>  <SCORE.RESTR.norm>
0

>  <SCORE.SYSTEM>
0

>  <SCORE.SYSTEM.CONST>
0

>  <SCORE.SYSTEM.DIHEDRAL>
0

>  <SCORE.SYSTEM.SOLV>
0

>  <SCORE.SYSTEM.norm>
0

>  <SCORE.heavy>
40

>  <SCORE.norm>
-0.11192

>  <RMSD>
9.178

$$$$
ligand
 OpenBabel11021811513D
libRbt.so/2013.1/901 2013/11/27
 40 42  0  0  0  0  0  0  0  0999 V2000
   -6.6033  -10.3066   14.7600 C   0  0  2  0  0  0  0  0  0  0  0  0
   -6.3656   -9.2598   15.7144 O   0  0  0  0  0  0  0  0  0  0  0  0
   -7.9347  -10.0377   13.9634 C   0  0  1  0  0  0  0  0  0  0  0  0
   -9.1818  -10.1124   14.8918 C   0  0  2  0  0  0  0  0  0  0  0  0
   -9.2256  -11.5440   15.5140 C   0  0  2  0  0  0  0  0  0  0  0  0
  -10.3875  -11.6583   16.3633 O   0  0  0  0  0  0  0  0  0  0  0  0
   -7.8905  -11.7718   16.3489 C   0  0  2  0  0  0  0  0  0  0  0  0
   -6.6962  -11.6379   15.4401 O   0  0  0  0  0  0  0  0  0  0  0  0
   -7.8275  -13.1548   16.9826 C   0  0  0  0  0  0  0  0  0  0  0  0
   -6.6394  -13.2935   17.8825 N   0  0  0  0  0  0  0  0  0  0  0  0
   -2.5184   -8.2225   17.5727 C   0  0  2  0  0  0  0  0  0  0  0  0
   -1.3982   -8.2555   18.4839 N   0  0  0  0  0  0  0  0  0  0  0  0
   -3.8468   -7.9221   18.3778 C   0  0  0  0  0  0  0  0  0  0  0  0
   -5.0935   -7.8874   17.3852 C   0  0  2  0  0  0  0  0  0  0  0  0
   -6.3383   -7.5887   18.1408 N   0  0  0  0  0  0  0  0  0  0  0  0
   -5.2003   -9.2911   16.6269 C   0  0  2  0  0  0  0  0  0  0  0  0
   -3.8464   -9.5474   15.8374 C   0  0  2  0  0  0  0  0  0  0  0  0
   -3.9335  -10.7991   15.1527 O   0  0  0  0  0  0  0  0  0  0  0  0
   -2.6198   -9.5752   16.8323 C   0  0  1  0  0  0  0  0  0  0  0  0
   -1.3907   -9.7889   16.0944 O   0  0  0  0  0  0  0  0  0  0  0  0
   -1.1068  -10.9001   15.3138 C   0  0  2  0  0  0  0  0  0  0  0  0
   -0.5911  -12.0312   16.2729 C   0  0  2  0  0  0  0  0  0  0  0  0
   -1.5525  -12.2995   17.2418 O   0  0  0  0  0  0  0  0  0  0  0  0
    0.8015  -11.6531   16.9356 C   0  0  1  0  0  0  0  0  0  0  0  0
    1.2799  -12.7485   17.8345 N   0  0  0  0  0  0  0  0  0  0  0  0
    1.8543  -11.3644   15.7783 C   0  0  2  0  0  0  0  0  0  0  0  0
    3.1351  -11.0300   16.3272 O   0  0  0  0  0  0  0  0  0  0  0  0
    1.2875  -10.1986   14.8790 C   0  0  2  0  0  0  0  0  0  0  0  0
   -0.0707  -10.5725   14.3011 O   0  0  0  0  0  0  0  0  0  0  0  0
    2.2281   -9.8808   13.7412 C   0  0  0  0  0  0  0  0  0  0  0  0
    3.4968   -9.3727   14.1941 O   0  0  0  0  0  0  0  0  0  0  0  0
   -7.8360   -8.7255   13.3370 O   0  0  0  0  0  0  0  0  0  0  0  0
  -10.3121   -9.8835   14.1451 O   0  0  0  0  0  0  0  0  0  0  0  0
   -0.0933   -7.8623   18.0046 C   0  0  0  0  0  0  0  0  0  0  0  0
    0.1647   -7.9169   16.7654 O   0  0  0  0  0  0  0  0  0  0  0  0
    0.9570   -7.3856   19.0544 C   0  0  2  0  0  0  0  0  0  0  0  0
    3.8210   -7.1285   20.2623 N   0  0  0  0  0  0  0  0  0  0  0  0
    2.2423   -6.8466   18.3536 C   0  0  0  0  0  0  0  0  0  0  0  0
    3.2173   -6.1550   19.3210 C   0  0  0  0  0  0  0  0  0  0  0  0
    1.3545   -8.3268   19.8120 O   0  0  0  0  0  0  0  0  0  0  0  0
  1  2  1  1  0  0  0
  1  3  1  0  0  0  0
  1  8  1  0  0  0  0
  3  4  1  0  0  0  0
  3 32  1  1  0  0  0
  4  5  1  0  0  0  0
  4 33  1  6  0  0  0
  5  6  1  1  0  0  0
  5  7  1  0  0  0  0
  7  8  1  0  0  0  0
  7  9  1  6  0  0  0
  9 10  1  0  0  0  0
 11 12  1  1  0  0  0
 11 13  1  0  0  0  0
 11 19  1  0  0  0  0
 12 34  1  0  0  0  0
 13 14  1  0  0  0  0
 14 15  1  1  0  0  0
 14 16  1  0  0  0  0
 16  2  1  6  0  0  0
 16 17  1  0  0  0  0
 17 18  1  1  0  0  0
 17 19  1  0  0  0  0
 19 20  1  6  0  0  0
 21 20  1  1  0  0  0
 21 22  1  0  0  0  0
 21 29  1  0  0  0  0
 22 23  1  1  0  0  0
 22 24  1  0  0  0  0
 24 25  1  6  0  0  0
 24 26  1  0  0  0  0
 26 27  1  1  0  0  0
 26 28  1  0  0  0  0
 28 29  1  0  0  0  0
 28 30  1  6  0  0  0
 30 31  1  0  0  0  0
 34 35  2  0  0  0  0
 36 34  1  6  0  0  0
 36 38  1  0  0  0  0
 36 40  1  0  0  0  0
 37 39  1  0  0  0  0
 38 39  1  0  0  0  0
M  END
>  <CHROM.1>
177.99712257,170.93516378,-173.76674382,-149.93977577,179.56385376,-82.61869201
-64.18397136,-173.43032045,170.67946864,68.07306358,-2.76909888,-9.85917365
16.47757254,-2.91068318,-0.03352170,0.68123681

>  <Name>
ligand

>  <RI>
0

>  <Rbt.Current_Directory>
/home/itssahil/PROJECTS/Mol_Feturizer/New_Systems/rnas/4P20

>  <Rbt.Executable>
rbdock ($Id: //depot/dev/client3/rdock/2013.1/src/exe/rbdock.cxx#4 $)

>  <Rbt.Library>
libRbt.so (2013.1, Build901 2013/11/27)

>  <Rbt.Parameter_File>
/export/apps/rDock/src/rDock_2013.1_src/data/scripts/dock_solv.prm

>  <Rbt.Receptor>
prm/pocket_docking_5.prm

>  <SCORE>
-12.25

>  <SCORE.INTER>
-3.0685

>  <SCORE.INTER.CONST>
1

>  <SCORE.INTER.POLAR>
0

>  <SCORE.INTER.ROT>
10

>  <SCORE.INTER.SOLV>
11.598

>  <SCORE.INTER.VDW>
-16.1783

>  <SCORE.INTER.norm>
-0.0767124

>  <SCORE.INTRA>
-9.18151

>  <SCORE.INTRA.DIHEDRAL>
-23.3973

>  <SCORE.INTRA.DIHEDRAL.0>
28.2802

>  <SCORE.INTRA.POLAR>
0

>  <SCORE.INTRA.POLAR.0>
0

>  <SCORE.INTRA.REPUL>
0

>  <SCORE.INTRA.REPUL.0>
0

>  <SCORE.INTRA.SOLV>
0.879812

>  <SCORE.INTRA.SOLV.lig_0>
-101.981

>  <SCORE.INTRA.VDW>
2.07721

>  <SCORE.INTRA.VDW.0>
-5.72964

>  <SCORE.INTRA.norm>
-0.229538

>  <SCORE.RESTR>
0

>  <SCORE.RESTR.CAVITY>
0

>  <SCORE.RESTR.norm>
0

>  <SCORE.SYSTEM>
0

>  <SCORE.SYSTEM.CONST>
0

>  <SCORE.SYSTEM.DIHEDRAL>
0

>  <SCORE.SYSTEM.SOLV>
0

>  <SCORE.SYSTEM.norm>
0

>  <SCORE.heavy>
40

>  <SCORE.norm>
-0.30625

>  <RMSD>
9.179

$$$$
ligand
 OpenBabel11021811513D
libRbt.so/2013.1/901 2013/11/27
 40 42  0  0  0  0  0  0  0  0999 V2000
    0.2509  -14.2040   15.7759 C   0  0  2  0  0  0  0  0  0  0  0  0
    1.4715  -14.2194   16.5327 O   0  0  0  0  0  0  0  0  0  0  0  0
    0.4591  -14.8925   14.3752 C   0  0  1  0  0  0  0  0  0  0  0  0
    1.4428  -14.0832   13.4806 C   0  0  2  0  0  0  0  0  0  0  0  0
    0.8371  -12.6584   13.2773 C   0  0  2  0  0  0  0  0  0  0  0  0
    1.7129  -11.8859   12.4284 O   0  0  0  0  0  0  0  0  0  0  0  0
    0.6795  -11.9695   14.7028 C   0  0  2  0  0  0  0  0  0  0  0  0
   -0.2310  -12.8010   15.5688 O   0  0  0  0  0  0  0  0  0  0  0  0
    0.0743  -10.5753   14.6133 C   0  0  0  0  0  0  0  0  0  0  0  0
    1.0161   -9.6077   13.9674 N   0  0  0  0  0  0  0  0  0  0  0  0
    3.0734  -11.7029   19.7624 C   0  0  2  0  0  0  0  0  0  0  0  0
    3.5451  -10.5318   20.4641 N   0  0  0  0  0  0  0  0  0  0  0  0
    3.9778  -11.9573   18.4896 C   0  0  0  0  0  0  0  0  0  0  0  0
    3.4659  -13.2450   17.7017 C   0  0  2  0  0  0  0  0  0  0  0  0
    4.3267  -13.4922   16.5154 N   0  0  0  0  0  0  0  0  0  0  0  0
    1.9406  -13.0268   17.2739 C   0  0  2  0  0  0  0  0  0  0  0  0
    1.0762  -12.7743   18.5820 C   0  0  2  0  0  0  0  0  0  0  0  0
   -0.2904  -12.5818   18.2101 O   0  0  0  0  0  0  0  0  0  0  0  0
    1.5969  -11.4986   19.3544 C   0  0  1  0  0  0  0  0  0  0  0  0
    0.8118  -11.2943   20.5554 O   0  0  0  0  0  0  0  0  0  0  0  0
    0.8484  -10.1607   21.3544 C   0  0  2  0  0  0  0  0  0  0  0  0
   -0.0935  -10.4191   22.5837 C   0  0  2  0  0  0  0  0  0  0  0  0
    0.3253  -11.5575   23.2646 O   0  0  0  0  0  0  0  0  0  0  0  0
   -1.6151  -10.5395   22.1459 C   0  0  1  0  0  0  0  0  0  0  0  0
   -2.4952  -10.7727   23.3324 N   0  0  0  0  0  0  0  0  0  0  0  0
   -2.0313   -9.2086   21.3798 C   0  0  2  0  0  0  0  0  0  0  0  0
   -3.4045   -9.2633   20.9741 O   0  0  0  0  0  0  0  0  0  0  0  0
   -1.0684   -9.0333   20.1425 C   0  0  2  0  0  0  0  0  0  0  0  0
    0.3851   -8.9728   20.5922 O   0  0  0  0  0  0  0  0  0  0  0  0
   -1.3913   -7.7739   19.3743 C   0  0  0  0  0  0  0  0  0  0  0  0
   -0.5667   -7.6086   18.2057 O   0  0  0  0  0  0  0  0  0  0  0  0
    0.9580  -16.2434   14.5990 O   0  0  0  0  0  0  0  0  0  0  0  0
    1.5772  -14.7201   12.2707 O   0  0  0  0  0  0  0  0  0  0  0  0
    4.6039  -10.6765   21.4362 C   0  0  0  0  0  0  0  0  0  0  0  0
    4.8076  -11.8014   21.9821 O   0  0  0  0  0  0  0  0  0  0  0  0
    5.4585   -9.4174   21.7779 C   0  0  2  0  0  0  0  0  0  0  0  0
    4.4370   -5.7313   22.5097 N   0  0  0  0  0  0  0  0  0  0  0  0
    4.5519   -8.1629   21.9724 C   0  0  0  0  0  0  0  0  0  0  0  0
    5.3377   -6.8995   22.3612 C   0  0  0  0  0  0  0  0  0  0  0  0
    6.2687   -9.1079   20.8474 O   0  0  0  0  0  0  0  0  0  0  0  0
  1  2  1  6  0  0  0
  1  3  1  0  0  0  0
  1  8  1  0  0  0  0
  3  4  1  0  0  0  0
  3 32  1  1  0  0  0
  4  5  1  0  0  0  0
  4 33  1  6  0  0  0
  5  6  1  6  0  0  0
  5  7  1  0  0  0  0
  7  8  1  0  0  0  0
  7  9  1  6  0  0  0
  9 10  1  0  0  0  0
 11 12  1  6  0  0  0
 11 13  1  0  0  0  0
 11 19  1  0  0  0  0
 12 34  1  0  0  0  0
 13 14  1  0  0  0  0
 14 15  1  6  0  0  0
 14 16  1  0  0  0  0
 16  2  1  1  0  0  0
 16 17  1  0  0  0  0
 17 18  1  6  0  0  0
 17 19  1  0  0  0  0
 19 20  1  1  0  0  0
 21 20  1  6  0  0  0
 21 22  1  0  0  0  0
 21 29  1  0  0  0  0
 22 23  1  6  0  0  0
 22 24  1  0  0  0  0
 24 25  1  1  0  0  0
 24 26  1  0  0  0  0
 26 27  1  6  0  0  0
 26 28  1  0  0  0  0
 28 29  1  0  0  0  0
 28 30  1  1  0  0  0
 30 31  1  0  0  0  0
 34 35  2  0  0  0  0
 36 34  1  6  0  0  0
 36 38  1  0  0  0  0
 36 40  1  0  0  0  0
 37 39  1  0  0  0  0
 38 39  1  0  0  0  0
M  END
>  <CHROM.1>
135.78434664,-166.29785984,-68.86065483,-86.10296439,70.93504254,-176.54425619
-177.65178931,44.32128622,177.94742193,178.94925822,1.43667504,-11.18450034
18.59496188,1.67380565,0.03430171,-2.10308887

>  <Name>
ligand

>  <RI>
0

>  <Rbt.Current_Directory>
/home/itssahil/PROJECTS/Mol_Feturizer/New_Systems/rnas/4P20

>  <Rbt.Executable>
rbdock ($Id: //depot/dev/client3/rdock/2013.1/src/exe/rbdock.cxx#4 $)

>  <Rbt.Library>
libRbt.so (2013.1, Build901 2013/11/27)

>  <Rbt.Parameter_File>
/export/apps/rDock/src/rDock_2013.1_src/data/scripts/dock_solv.prm

>  <Rbt.Receptor>
prm/pocket_docking_7.prm

>  <SCORE>
-13.3423

>  <SCORE.INTER>
-5.18217

>  <SCORE.INTER.CONST>
1

>  <SCORE.INTER.POLAR>
0

>  <SCORE.INTER.ROT>
10

>  <SCORE.INTER.SOLV>
18.9408

>  <SCORE.INTER.VDW>
-20.0351

>  <SCORE.INTER.norm>
-0.129554

>  <SCORE.INTRA>
-8.16011

>  <SCORE.INTRA.DIHEDRAL>
-18.8537

>  <SCORE.INTRA.DIHEDRAL.0>
28.2802

>  <SCORE.INTRA.POLAR>
0

>  <SCORE.INTRA.POLAR.0>
0

>  <SCORE.INTRA.REPUL>
0

>  <SCORE.INTRA.REPUL.0>
0

>  <SCORE.INTRA.SOLV>
-0.803958

>  <SCORE.INTRA.SOLV.lig_0>
-101.981

>  <SCORE.INTRA.VDW>
1.66871

>  <SCORE.INTRA.VDW.0>
-5.72964

>  <SCORE.INTRA.norm>
-0.204003

>  <SCORE.RESTR>
0

>  <SCORE.RESTR.CAVITY>
0

>  <SCORE.RESTR.norm>
0

>  <SCORE.SYSTEM>
0

>  <SCORE.SYSTEM.CONST>
0

>  <SCORE.SYSTEM.DIHEDRAL>
0

>  <SCORE.SYSTEM.SOLV>
0

>  <SCORE.SYSTEM.norm>
0

>  <SCORE.heavy>
40

>  <SCORE.norm>
-0.333557

>  <RMSD>
9.204

$$$$
ligand
 OpenBabel11021811513D
libRbt.so/2013.1/901 2013/11/27
 40 42  0  0  0  0  0  0  0  0999 V2000
   -1.4319  -13.2497   16.7116 C   0  0  2  0  0  0  0  0  0  0  0  0
   -2.7612  -13.3212   16.1724 O   0  0  0  0  0  0  0  0  0  0  0  0
   -0.8362  -11.8040   16.5261 C   0  0  1  0  0  0  0  0  0  0  0  0
   -0.6294  -11.4591   15.0224 C   0  0  2  0  0  0  0  0  0  0  0  0
    0.3578  -12.5113   14.4253 C   0  0  2  0  0  0  0  0  0  0  0  0
    0.5939  -12.2063   13.0340 O   0  0  0  0  0  0  0  0  0  0  0  0
   -0.2882  -13.9565   14.5855 C   0  0  2  0  0  0  0  0  0  0  0  0
   -0.5312  -14.2433   16.0445 O   0  0  0  0  0  0  0  0  0  0  0  0
    0.6120  -15.0607   14.0483 C   0  0  0  0  0  0  0  0  0  0  0  0
    1.8765  -15.1736   14.8413 N   0  0  0  0  0  0  0  0  0  0  0  0
   -6.8647  -12.1677   17.2497 C   0  0  2  0  0  0  0  0  0  0  0  0
   -7.9550  -11.4610   17.8808 N   0  0  0  0  0  0  0  0  0  0  0  0
   -5.9580  -12.8403   18.3580 C   0  0  0  0  0  0  0  0  0  0  0  0
   -4.7467  -13.6206   17.6763 C   0  0  2  0  0  0  0  0  0  0  0  0
   -3.9053  -14.2657   18.7181 N   0  0  0  0  0  0  0  0  0  0  0  0
   -3.8917  -12.5961   16.7951 C   0  0  2  0  0  0  0  0  0  0  0  0
   -4.8435  -11.9478   15.7016 C   0  0  2  0  0  0  0  0  0  0  0  0
   -4.0870  -11.0326   14.9058 O   0  0  0  0  0  0  0  0  0  0  0  0
   -6.0408  -11.1819   16.3909 C   0  0  1  0  0  0  0  0  0  0  0  0
   -6.9107  -10.6144   15.3800 O   0  0  0  0  0  0  0  0  0  0  0  0
   -6.5485   -9.6318   14.4701 C   0  0  2  0  0  0  0  0  0  0  0  0
   -6.5931   -8.2536   15.2210 C   0  0  2  0  0  0  0  0  0  0  0  0
   -5.7436   -8.2914   16.3220 O   0  0  0  0  0  0  0  0  0  0  0  0
   -8.0713   -7.8632   15.6499 C   0  0  1  0  0  0  0  0  0  0  0  0
   -8.0923   -6.5427   16.3518 N   0  0  0  0  0  0  0  0  0  0  0  0
   -8.9874   -7.8327   14.3496 C   0  0  2  0  0  0  0  0  0  0  0  0
  -10.3333   -7.4713   14.6837 O   0  0  0  0  0  0  0  0  0  0  0  0
   -8.9214   -9.2547   13.6695 C   0  0  2  0  0  0  0  0  0  0  0  0
   -7.4857   -9.6201   13.3176 O   0  0  0  0  0  0  0  0  0  0  0  0
   -9.7550   -9.2965   12.4110 C   0  0  0  0  0  0  0  0  0  0  0  0
   -9.7449  -10.5907   11.7802 O   0  0  0  0  0  0  0  0  0  0  0  0
   -1.7432  -10.8514   17.1537 O   0  0  0  0  0  0  0  0  0  0  0  0
   -0.0978  -10.1963   14.9202 O   0  0  0  0  0  0  0  0  0  0  0  0
   -9.0946  -12.2111   18.3556 C   0  0  0  0  0  0  0  0  0  0  0  0
   -9.3500  -13.3487   17.8601 O   0  0  0  0  0  0  0  0  0  0  0  0
   -9.9759  -11.5715   19.4722 C   0  0  2  0  0  0  0  0  0  0  0  0
   -9.0154  -12.7899   22.1449 N   0  0  0  0  0  0  0  0  0  0  0  0
  -10.6995  -12.6701   20.3106 C   0  0  0  0  0  0  0  0  0  0  0  0
   -9.7323  -13.5648   21.1039 C   0  0  0  0  0  0  0  0  0  0  0  0
  -10.9036  -10.8378   19.0041 O   0  0  0  0  0  0  0  0  0  0  0  0
  1  2  1  6  0  0  0
  1  3  1  0  0  0  0
  1  8  1  0  0  0  0
  3  4  1  0  0  0  0
  3 32  1  6  0  0  0
  4  5  1  0  0  0  0
  4 33  1  1  0  0  0
  5  6  1  6  0  0  0
  5  7  1  0  0  0  0
  7  8  1  0  0  0  0
  7  9  1  1  0  0  0
  9 10  1  0  0  0  0
 11 12  1  1  0  0  0
 11 13  1  0  0  0  0
 11 19  1  0  0  0  0
 12 34  1  0  0  0  0
 13 14  1  0  0  0  0
 14 15  1  1  0  0  0
 14 16  1  0  0  0  0
 16  2  1  6  0  0  0
 16 17  1  0  0  0  0
 17 18  1  1  0  0  0
 17 19  1  0  0  0  0
 19 20  1  6  0  0  0
 21 20  1  1  0  0  0
 21 22  1  0  0  0  0
 21 29  1  0  0  0  0
 22 23  1  1  0  0  0
 22 24  1  0  0  0  0
 24 25  1  6  0  0  0
 24 26  1  0  0  0  0
 26 27  1  1  0  0  0
 26 28  1  0  0  0  0
 28 29  1  0  0  0  0
 28 30  1  6  0  0  0
 30 31  1  0  0  0  0
 34 35  2  0  0  0  0
 36 34  1  6  0  0  0
 36 38  1  0  0  0  0
 36 40  1  0  0  0  0
 37 39  1  0  0  0  0
 38 39  1  0  0  0  0
M  END
>  <CHROM.1>
-68.22568522,-100.65169817,65.08752739,-78.72280951,176.12630990,-79.14109155
-178.56342382,-153.85388486,64.72738611,65.27452794,-5.47464223,-11.41850777
16.19178116,0.02866571,-0.34383555,2.23185696

>  <Name>
ligand

>  <RI>
0

>  <Rbt.Current_Directory>
/home/itssahil/PROJECTS/Mol_Feturizer/New_Systems/rnas/4P20

>  <Rbt.Executable>
rbdock ($Id: //depot/dev/client3/rdock/2013.1/src/exe/rbdock.cxx#4 $)

>  <Rbt.Library>
libRbt.so (2013.1, Build901 2013/11/27)

>  <Rbt.Parameter_File>
/export/apps/rDock/src/rDock_2013.1_src/data/scripts/dock_solv.prm

>  <Rbt.Receptor>
prm/pocket_docking_8.prm

>  <SCORE>
-9.46275

>  <SCORE.INTER>
-2.43228

>  <SCORE.INTER.CONST>
1

>  <SCORE.INTER.POLAR>
0

>  <SCORE.INTER.ROT>
10

>  <SCORE.INTER.SOLV>
12.0649

>  <SCORE.INTER.VDW>
-15.9098

>  <SCORE.INTER.norm>
-0.0608071

>  <SCORE.INTRA>
-7.03046

>  <SCORE.INTRA.DIHEDRAL>
-18.6754

>  <SCORE.INTRA.DIHEDRAL.0>
28.2802

>  <SCORE.INTRA.POLAR>
0

>  <SCORE.INTRA.POLAR.0>
0

>  <SCORE.INTRA.REPUL>
0

>  <SCORE.INTRA.REPUL.0>
0

>  <SCORE.INTRA.SOLV>
1.42197

>  <SCORE.INTRA.SOLV.lig_0>
-101.981

>  <SCORE.INTRA.VDW>
1.59626

>  <SCORE.INTRA.VDW.0>
-5.72964

>  <SCORE.INTRA.norm>
-0.175762

>  <SCORE.RESTR>
0

>  <SCORE.RESTR.CAVITY>
0

>  <SCORE.RESTR.norm>
0

>  <SCORE.SYSTEM>
0

>  <SCORE.SYSTEM.CONST>
0

>  <SCORE.SYSTEM.DIHEDRAL>
0

>  <SCORE.SYSTEM.SOLV>
0

>  <SCORE.SYSTEM.norm>
0

>  <SCORE.heavy>
40

>  <SCORE.norm>
-0.236569

>  <RMSD>
9.208

$$$$
ligand
 OpenBabel11021811513D
libRbt.so/2013.1/901 2013/11/27
 40 42  0  0  0  0  0  0  0  0999 V2000
   -1.4847  -13.0241   16.9391 C   0  0  2  0  0  0  0  0  0  0  0  0
   -1.0918  -11.9679   17.8296 O   0  0  0  0  0  0  0  0  0  0  0  0
   -2.1961  -12.4367   15.6631 C   0  0  1  0  0  0  0  0  0  0  0  0
   -3.5478  -11.7547   16.0248 C   0  0  2  0  0  0  0  0  0  0  0  0
   -4.4636  -12.8349   16.6825 C   0  0  2  0  0  0  0  0  0  0  0  0
   -5.7393  -12.2426   17.0084 O   0  0  0  0  0  0  0  0  0  0  0  0
   -3.7417  -13.3784   17.9920 C   0  0  2  0  0  0  0  0  0  0  0  0
   -2.4113  -13.9818   17.6230 O   0  0  0  0  0  0  0  0  0  0  0  0
   -4.5505  -14.4574   18.6989 C   0  0  0  0  0  0  0  0  0  0  0  0
   -3.9462  -14.8210   20.0193 N   0  0  0  0  0  0  0  0  0  0  0  0
    1.8405  -11.8943   21.1047 C   0  0  2  0  0  0  0  0  0  0  0  0
    2.4542  -12.1653   22.3838 N   0  0  0  0  0  0  0  0  0  0  0  0
    0.4479  -11.1774   21.3270 C   0  0  0  0  0  0  0  0  0  0  0  0
   -0.2441  -10.8760   19.9231 C   0  0  2  0  0  0  0  0  0  0  0  0
   -1.5448  -10.1878   20.1333 N   0  0  0  0  0  0  0  0  0  0  0  0
   -0.4388  -12.2497   19.1280 C   0  0  2  0  0  0  0  0  0  0  0  0
    0.9827  -12.9300   18.9318 C   0  0  2  0  0  0  0  0  0  0  0  0
    0.8196  -14.1578   18.2181 O   0  0  0  0  0  0  0  0  0  0  0  0
    1.6581  -13.2190   20.3302 C   0  0  1  0  0  0  0  0  0  0  0  0
    2.9622  -13.8201   20.1334 O   0  0  0  0  0  0  0  0  0  0  0  0
    3.9886  -13.2784   19.3733 C   0  0  2  0  0  0  0  0  0  0  0  0
    4.9035  -14.4641   18.9021 C   0  0  2  0  0  0  0  0  0  0  0  0
    4.1463  -15.3850   18.1853 O   0  0  0  0  0  0  0  0  0  0  0  0
    5.6455  -15.1576   20.1228 C   0  0  1  0  0  0  0  0  0  0  0  0
    6.5203  -16.2751   19.6506 N   0  0  0  0  0  0  0  0  0  0  0  0
    6.4945  -14.0558   20.8950 C   0  0  2  0  0  0  0  0  0  0  0  0
    7.1955  -14.6368   22.0016 O   0  0  0  0  0  0  0  0  0  0  0  0
    5.5084  -12.9183   21.3668 C   0  0  2  0  0  0  0  0  0  0  0  0
    4.7760  -12.3099   20.1786 O   0  0  0  0  0  0  0  0  0  0  0  0
    6.2492  -11.8213   22.0937 C   0  0  0  0  0  0  0  0  0  0  0  0
    6.9230  -12.2938   23.2750 O   0  0  0  0  0  0  0  0  0  0  0  0
   -1.2908  -11.4847   15.0320 O   0  0  0  0  0  0  0  0  0  0  0  0
   -4.1291  -11.2730   14.8769 O   0  0  0  0  0  0  0  0  0  0  0  0
    3.0334  -11.0715   23.1288 C   0  0  0  0  0  0  0  0  0  0  0  0
    3.3948  -10.0191   22.5231 O   0  0  0  0  0  0  0  0  0  0  0  0
    3.1944  -11.2426   24.6707 C   0  0  2  0  0  0  0  0  0  0  0  0
    4.1050  -15.0146   24.9954 N   0  0  0  0  0  0  0  0  0  0  0  0
    4.0192  -12.5232   25.0074 C   0  0  0  0  0  0  0  0  0  0  0  0
    3.3133  -13.8262   24.5966 C   0  0  0  0  0  0  0  0  0  0  0  0
    2.0803  -11.3919   25.2661 O   0  0  0  0  0  0  0  0  0  0  0  0
  1  2  1  1  0  0  0
  1  3  1  0  0  0  0
  1  8  1  0  0  0  0
  3  4  1  0  0  0  0
  3 32  1  1  0  0  0
  4  5  1  0  0  0  0
  4 33  1  6  0  0  0
  5  6  1  1  0  0  0
  5  7  1  0  0  0  0
  7  8  1  0  0  0  0
  7  9  1  6  0  0  0
  9 10  1  0  0  0  0
 11 12  1  1  0  0  0
 11 13  1  0  0  0  0
 11 19  1  0  0  0  0
 12 34  1  0  0  0  0
 13 14  1  0  0  0  0
 14 15  1  1  0  0  0
 14 16  1  0  0  0  0
 16  2  1  6  0  0  0
 16 17  1  0  0  0  0
 17 18  1  1  0  0  0
 17 19  1  0  0  0  0
 19 20  1  6  0  0  0
 21 20  1  1  0  0  0
 21 22  1  0  0  0  0
 21 29  1  0  0  0  0
 22 23  1  1  0  0  0
 22 24  1  0  0  0  0
 24 25  1  6  0  0  0
 24 26  1  0  0  0  0
 26 27  1  1  0  0  0
 26 28  1  0  0  0  0
 28 29  1  0  0  0  0
 28 30  1  6  0  0  0
 30 31  1  0  0  0  0
 34 35  2  0  0  0  0
 36 34  1  6  0  0  0
 36 38  1  0  0  0  0
 36 40  1  0  0  0  0
 37 39  1  0  0  0  0
 38 39  1  0  0  0  0
M  END
>  <CHROM.1>
178.04821615,-175.33368063,-172.31390993,-74.16507468,-64.67992832,-154.85632276
-60.52769555,55.62525617,-65.18340791,-177.26153686,1.39580475,-12.84920272
20.03776484,-2.63894219,-0.29797320,1.19921601

>  <Name>
ligand

>  <RI>
0

>  <Rbt.Current_Directory>
/home/itssahil/PROJECTS/Mol_Feturizer/New_Systems/rnas/4P20

>  <Rbt.Executable>
rbdock ($Id: //depot/dev/client3/rdock/2013.1/src/exe/rbdock.cxx#4 $)

>  <Rbt.Library>
libRbt.so (2013.1, Build901 2013/11/27)

>  <Rbt.Parameter_File>
/export/apps/rDock/src/rDock_2013.1_src/data/scripts/dock_solv.prm

>  <Rbt.Receptor>
prm/pocket_docking_8.prm

>  <SCORE>
-7.14747

>  <SCORE.INTER>
4.44961

>  <SCORE.INTER.CONST>
1

>  <SCORE.INTER.POLAR>
0

>  <SCORE.INTER.ROT>
10

>  <SCORE.INTER.SOLV>
9.37655

>  <SCORE.INTER.VDW>
-10.4258

>  <SCORE.INTER.norm>
0.11124

>  <SCORE.INTRA>
-11.5971

>  <SCORE.INTRA.DIHEDRAL>
-24.0143

>  <SCORE.INTRA.DIHEDRAL.0>
28.2802

>  <SCORE.INTRA.POLAR>
0

>  <SCORE.INTRA.POLAR.0>
0

>  <SCORE.INTRA.REPUL>
0

>  <SCORE.INTRA.REPUL.0>
0

>  <SCORE.INTRA.SOLV>
0.1457

>  <SCORE.INTRA.SOLV.lig_0>
-101.981

>  <SCORE.INTRA.VDW>
0.337236

>  <SCORE.INTRA.VDW.0>
-5.72964

>  <SCORE.INTRA.norm>
-0.289927

>  <SCORE.RESTR>
0

>  <SCORE.RESTR.CAVITY>
0

>  <SCORE.RESTR.norm>
0

>  <SCORE.SYSTEM>
0

>  <SCORE.SYSTEM.CONST>
0

>  <SCORE.SYSTEM.DIHEDRAL>
0

>  <SCORE.SYSTEM.SOLV>
0

>  <SCORE.SYSTEM.norm>
0

>  <SCORE.heavy>
40

>  <SCORE.norm>
-0.178687

>  <RMSD>
9.359

$$$$
ligand
 OpenBabel11021811513D
libRbt.so/2013.1/901 2013/11/27
 40 42  0  0  0  0  0  0  0  0999 V2000
    7.0600   -9.8073   13.1695 C   0  0  2  0  0  0  0  0  0  0  0  0
    5.6631   -9.8422   13.5020 O   0  0  0  0  0  0  0  0  0  0  0  0
    7.2582   -9.8342   11.6077 C   0  0  1  0  0  0  0  0  0  0  0  0
    6.7796  -11.1820   10.9934 C   0  0  2  0  0  0  0  0  0  0  0  0
    7.6187  -12.3258   11.6461 C   0  0  2  0  0  0  0  0  0  0  0  0
    7.2186  -13.5920   11.0795 O   0  0  0  0  0  0  0  0  0  0  0  0
    7.3650  -12.3039   13.2167 C   0  0  2  0  0  0  0  0  0  0  0  0
    7.7826  -10.9695   13.7782 O   0  0  0  0  0  0  0  0  0  0  0  0
    8.1593  -13.3754   13.9509 C   0  0  0  0  0  0  0  0  0  0  0  0
    9.6330  -13.1938   13.7617 N   0  0  0  0  0  0  0  0  0  0  0  0
    5.7191   -9.5048   17.8853 C   0  0  2  0  0  0  0  0  0  0  0  0
    5.2450   -9.3595   19.2419 N   0  0  0  0  0  0  0  0  0  0  0  0
    5.3005   -8.2351   17.0395 C   0  0  0  0  0  0  0  0  0  0  0  0
    5.8131   -8.3834   15.5374 C   0  0  2  0  0  0  0  0  0  0  0  0
    5.4332   -7.1823   14.7484 N   0  0  0  0  0  0  0  0  0  0  0  0
    5.1943   -9.7132   14.9003 C   0  0  2  0  0  0  0  0  0  0  0  0
    5.6402  -10.9556   15.7832 C   0  0  2  0  0  0  0  0  0  0  0  0
    5.0947  -12.1505   15.2192 O   0  0  0  0  0  0  0  0  0  0  0  0
    5.1293  -10.7934   17.2691 C   0  0  1  0  0  0  0  0  0  0  0  0
    5.5619  -11.9241   18.0658 O   0  0  0  0  0  0  0  0  0  0  0  0
    5.2595  -13.2525   17.8036 C   0  0  2  0  0  0  0  0  0  0  0  0
    3.7240  -13.4478   18.0664 C   0  0  2  0  0  0  0  0  0  0  0  0
    2.9960  -12.5737   17.2657 O   0  0  0  0  0  0  0  0  0  0  0  0
    3.3594  -13.2596   19.6003 C   0  0  1  0  0  0  0  0  0  0  0  0
    1.8954  -13.4621   19.8299 N   0  0  0  0  0  0  0  0  0  0  0  0
    4.2188  -14.2879   20.4578 C   0  0  2  0  0  0  0  0  0  0  0  0
    3.9152  -14.1657   21.8529 O   0  0  0  0  0  0  0  0  0  0  0  0
    5.7451  -14.0107   20.1708 C   0  0  2  0  0  0  0  0  0  0  0  0
    6.0503  -14.1491   18.6854 O   0  0  0  0  0  0  0  0  0  0  0  0
    6.6268  -14.9666   20.9384 C   0  0  0  0  0  0  0  0  0  0  0  0
    8.0279  -14.7615   20.6782 O   0  0  0  0  0  0  0  0  0  0  0  0
    6.5215   -8.7154   11.0336 O   0  0  0  0  0  0  0  0  0  0  0  0
    6.9868  -11.1554    9.6355 O   0  0  0  0  0  0  0  0  0  0  0  0
    6.1177   -9.7285   20.3324 C   0  0  0  0  0  0  0  0  0  0  0  0
    7.0625  -10.5485   20.1325 O   0  0  0  0  0  0  0  0  0  0  0  0
    5.8478   -9.0928   21.7308 C   0  0  2  0  0  0  0  0  0  0  0  0
    2.5214  -10.7912   22.8331 N   0  0  0  0  0  0  0  0  0  0  0  0
    4.3486   -9.2461   22.1341 C   0  0  0  0  0  0  0  0  0  0  0  0
    3.9376  -10.7033   22.4032 C   0  0  0  0  0  0  0  0  0  0  0  0
    6.0775   -7.8419   21.7529 O   0  0  0  0  0  0  0  0  0  0  0  0
  1  2  1  6  0  0  0
  1  3  1  0  0  0  0
  1  8  1  0  0  0  0
  3  4  1  0  0  0  0
  3 32  1  6  0  0  0
  4  5  1  0  0  0  0
  4 33  1  6  0  0  0
  5  6  1  6  0  0  0
  5  7  1  0  0  0  0
  7  8  1  0  0  0  0
  7  9  1  1  0  0  0
  9 10  1  0  0  0  0
 11 12  1  1  0  0  0
 11 13  1  0  0  0  0
 11 19  1  0  0  0  0
 12 34  1  0  0  0  0
 13 14  1  0  0  0  0
 14 15  1  6  0  0  0
 14 16  1  0  0  0  0
 16  2  1  6  0  0  0
 16 17  1  0  0  0  0
 17 18  1  6  0  0  0
 17 19  1  0  0  0  0
 19 20  1  1  0  0  0
 21 20  1  1  0  0  0
 21 22  1  0  0  0  0
 21 29  1  0  0  0  0
 22 23  1  6  0  0  0
 22 24  1  0  0  0  0
 24 25  1  6  0  0  0
 24 26  1  0  0  0  0
 26 27  1  1  0  0  0
 26 28  1  0  0  0  0
 28 29  1  0  0  0  0
 28 30  1  1  0  0  0
 30 31  1  0  0  0  0
 34 35  2  0  0  0  0
 36 34  1  6  0  0  0
 36 38  1  0  0  0  0
 36 40  1  0  0  0  0
 37 39  1  0  0  0  0
 38 39  1  0  0  0  0
M  END
>  <CHROM.1>
-174.82867033,53.79337324,60.67215702,-137.35688278,-178.32607067,-69.17778044
178.74370863,50.22078523,67.76238845,177.79080568,5.76167640,-11.39111189
16.97410632,0.45591310,1.28818120,-0.37525340

>  <Name>
ligand

>  <RI>
0

>  <Rbt.Current_Directory>
/home/itssahil/PROJECTS/Mol_Feturizer/New_Systems/rnas/4P20

>  <Rbt.Executable>
rbdock ($Id: //depot/dev/client3/rdock/2013.1/src/exe/rbdock.cxx#4 $)

>  <Rbt.Library>
libRbt.so (2013.1, Build901 2013/11/27)

>  <Rbt.Parameter_File>
/export/apps/rDock/src/rDock_2013.1_src/data/scripts/dock_solv.prm

>  <Rbt.Receptor>
prm/pocket_docking_8.prm

>  <SCORE>
-8.69962

>  <SCORE.INTER>
2.88909

>  <SCORE.INTER.CONST>
1

>  <SCORE.INTER.POLAR>
0

>  <SCORE.INTER.ROT>
10

>  <SCORE.INTER.SOLV>
9.91301

>  <SCORE.INTER.VDW>
-11.6449

>  <SCORE.INTER.norm>
0.0722273

>  <SCORE.INTRA>
-11.5887

>  <SCORE.INTRA.DIHEDRAL>
-25.4205

>  <SCORE.INTRA.DIHEDRAL.0>
28.2802

>  <SCORE.INTRA.POLAR>
0

>  <SCORE.INTRA.POLAR.0>
0

>  <SCORE.INTRA.REPUL>
0

>  <SCORE.INTRA.REPUL.0>
0

>  <SCORE.INTRA.SOLV>
2.61979

>  <SCORE.INTRA.SOLV.lig_0>
-101.981

>  <SCORE.INTRA.VDW>
-0.188371

>  <SCORE.INTRA.VDW.0>
-5.72964

>  <SCORE.INTRA.norm>
-0.289718

>  <SCORE.RESTR>
0

>  <SCORE.RESTR.CAVITY>
0

>  <SCORE.RESTR.norm>
0

>  <SCORE.SYSTEM>
0

>  <SCORE.SYSTEM.CONST>
0

>  <SCORE.SYSTEM.DIHEDRAL>
0

>  <SCORE.SYSTEM.SOLV>
0

>  <SCORE.SYSTEM.norm>
0

>  <SCORE.heavy>
40

>  <SCORE.norm>
-0.21749

>  <RMSD>
9.373

$$$$
ligand
 OpenBabel11021811513D
libRbt.so/2013.1/901 2013/11/27
 40 42  0  0  0  0  0  0  0  0999 V2000
   -6.9691  -10.2701   14.5768 C   0  0  2  0  0  0  0  0  0  0  0  0
   -6.7384   -9.2125   15.5209 O   0  0  0  0  0  0  0  0  0  0  0  0
   -8.2232   -9.9484   13.6806 C   0  0  1  0  0  0  0  0  0  0  0  0
   -9.5348   -9.9267   14.5185 C   0  0  2  0  0  0  0  0  0  0  0  0
   -9.7057  -11.3357   15.1694 C   0  0  2  0  0  0  0  0  0  0  0  0
  -10.9292  -11.3606   15.9356 O   0  0  0  0  0  0  0  0  0  0  0  0
   -8.4483  -11.6156   16.1032 C   0  0  2  0  0  0  0  0  0  0  0  0
   -7.1872  -11.5746   15.2797 O   0  0  0  0  0  0  0  0  0  0  0  0
   -8.5109  -12.9819   16.7721 C   0  0  0  0  0  0  0  0  0  0  0  0
   -9.6742  -13.0825   17.7087 N   0  0  0  0  0  0  0  0  0  0  0  0
   -2.9356   -8.2689   17.5155 C   0  0  2  0  0  0  0  0  0  0  0  0
   -1.8566   -8.3187   18.4745 N   0  0  0  0  0  0  0  0  0  0  0  0
   -4.2840   -7.8973   18.2548 C   0  0  0  0  0  0  0  0  0  0  0  0
   -5.4858   -7.8433   17.2090 C   0  0  2  0  0  0  0  0  0  0  0  0
   -6.7488   -7.4779   17.9025 N   0  0  0  0  0  0  0  0  0  0  0  0
   -5.6145   -9.2622   16.4832 C   0  0  2  0  0  0  0  0  0  0  0  0
   -4.2395   -9.5902   15.7594 C   0  0  2  0  0  0  0  0  0  0  0  0
   -4.3457  -10.8560   15.1039 O   0  0  0  0  0  0  0  0  0  0  0  0
   -3.0576   -9.6365   16.8064 C   0  0  1  0  0  0  0  0  0  0  0  0
   -1.8078   -9.9159   16.1277 O   0  0  0  0  0  0  0  0  0  0  0  0
   -1.5151  -11.0810   15.4337 C   0  0  2  0  0  0  0  0  0  0  0  0
   -1.2988  -12.2196   16.4929 C   0  0  2  0  0  0  0  0  0  0  0  0
   -2.4367  -12.3483   17.2826 O   0  0  0  0  0  0  0  0  0  0  0  0
   -0.0093  -11.9603   17.3826 C   0  0  1  0  0  0  0  0  0  0  0  0
    0.1848  -13.0620   18.3753 N   0  0  0  0  0  0  0  0  0  0  0  0
    1.2530  -11.8282   16.4232 C   0  0  2  0  0  0  0  0  0  0  0  0
    2.4479  -11.6055   17.1822 O   0  0  0  0  0  0  0  0  0  0  0  0
    0.9800  -10.6475   15.4131 C   0  0  2  0  0  0  0  0  0  0  0  0
   -0.2900  -10.9027   14.6128 O   0  0  0  0  0  0  0  0  0  0  0  0
    2.1322  -10.4742   14.4524 C   0  0  0  0  0  0  0  0  0  0  0  0
    1.9088   -9.4166   13.5014 O   0  0  0  0  0  0  0  0  0  0  0  0
   -8.0042   -8.6617   13.0321 O   0  0  0  0  0  0  0  0  0  0  0  0
  -10.5944   -9.6549   13.6873 O   0  0  0  0  0  0  0  0  0  0  0  0
   -0.5413   -7.8766   18.0729 C   0  0  0  0  0  0  0  0  0  0  0  0
   -0.2270   -7.8701   16.8456 O   0  0  0  0  0  0  0  0  0  0  0  0
    0.4497   -7.4250   19.1893 C   0  0  2  0  0  0  0  0  0  0  0  0
    3.3823   -9.3333   20.8957 N   0  0  0  0  0  0  0  0  0  0  0  0
    1.3354   -8.6175   19.6659 C   0  0  0  0  0  0  0  0  0  0  0  0
    2.5066   -8.1841   20.5633 C   0  0  0  0  0  0  0  0  0  0  0  0
   -0.1454   -7.0077   20.2332 O   0  0  0  0  0  0  0  0  0  0  0  0
  1  2  1  1  0  0  0
  1  3  1  0  0  0  0
  1  8  1  0  0  0  0
  3  4  1  0  0  0  0
  3 32  1  1  0  0  0
  4  5  1  0  0  0  0
  4 33  1  6  0  0  0
  5  6  1  1  0  0  0
  5  7  1  0  0  0  0
  7  8  1  0  0  0  0
  7  9  1  6  0  0  0
  9 10  1  0  0  0  0
 11 12  1  1  0  0  0
 11 13  1  0  0  0  0
 11 19  1  0  0  0  0
 12 34  1  0  0  0  0
 13 14  1  0  0  0  0
 14 15  1  1  0  0  0
 14 16  1  0  0  0  0
 16  2  1  6  0  0  0
 16 17  1  0  0  0  0
 17 18  1  1  0  0  0
 17 19  1  0  0  0  0
 19 20  1  6  0  0  0
 21 20  1  1  0  0  0
 21 22  1  0  0  0  0
 21 29  1  0  0  0  0
 22 23  1  1  0  0  0
 22 24  1  0  0  0  0
 24 25  1  1  0  0  0
 24 26  1  0  0  0  0
 26 27  1  1  0  0  0
 26 28  1  0  0  0  0
 28 29  1  0  0  0  0
 28 30  1  6  0  0  0
 30 31  1  0  0  0  0
 34 35  2  0  0  0  0
 36 34  1  6  0  0  0
 36 38  1  0  0  0  0
 36 40  1  0  0  0  0
 37 39  1  0  0  0  0
 38 39  1  0  0  0  0
M  END
>  <CHROM.1>
-179.77781498,170.40030291,-64.05784250,-144.61038085,176.83243514,-72.72925999
179.12655399,92.11573649,168.93835186,-175.21242855,-3.37682850,-10.01738144
16.55896971,-2.90053075,-0.10398843,0.82795176

>  <Name>
ligand

>  <RI>
0

>  <Rbt.Current_Directory>
/home/itssahil/PROJECTS/Mol_Feturizer/New_Systems/rnas/4P20

>  <Rbt.Executable>
rbdock ($Id: //depot/dev/client3/rdock/2013.1/src/exe/rbdock.cxx#4 $)

>  <Rbt.Library>
libRbt.so (2013.1, Build901 2013/11/27)

>  <Rbt.Parameter_File>
/export/apps/rDock/src/rDock_2013.1_src/data/scripts/dock_solv.prm

>  <Rbt.Receptor>
prm/pocket_docking_6.prm

>  <SCORE>
-11.4306

>  <SCORE.INTER>
-0.597946

>  <SCORE.INTER.CONST>
1

>  <SCORE.INTER.POLAR>
0

>  <SCORE.INTER.ROT>
10

>  <SCORE.INTER.SOLV>
12.2955

>  <SCORE.INTER.VDW>
-14.7638

>  <SCORE.INTER.norm>
-0.0149486

>  <SCORE.INTRA>
-10.8326

>  <SCORE.INTRA.DIHEDRAL>
-23.9331

>  <SCORE.INTRA.DIHEDRAL.0>
28.2802

>  <SCORE.INTRA.POLAR>
0

>  <SCORE.INTRA.POLAR.0>
0

>  <SCORE.INTRA.REPUL>
0

>  <SCORE.INTRA.REPUL.0>
0

>  <SCORE.INTRA.SOLV>
-0.271656

>  <SCORE.INTRA.SOLV.lig_0>
-101.981

>  <SCORE.INTRA.VDW>
1.26977

>  <SCORE.INTRA.VDW.0>
-5.72964

>  <SCORE.INTRA.norm>
-0.270816

>  <SCORE.RESTR>
0

>  <SCORE.RESTR.CAVITY>
0

>  <SCORE.RESTR.norm>
0

>  <SCORE.SYSTEM>
0

>  <SCORE.SYSTEM.CONST>
0

>  <SCORE.SYSTEM.DIHEDRAL>
0

>  <SCORE.SYSTEM.SOLV>
0

>  <SCORE.SYSTEM.norm>
0

>  <SCORE.heavy>
40

>  <SCORE.norm>
-0.285764

>  <RMSD>
9.408

$$$$
ligand
 OpenBabel11021811503D
libRbt.so/2013.1/901 2013/11/27
 40 42  0  0  0  0  0  0  0  0999 V2000
    9.0250   -6.0422   13.0346 C   0  0  2  0  0  0  0  0  0  0  0  0
    8.9480   -7.4648   13.2168 O   0  0  0  0  0  0  0  0  0  0  0  0
    7.8979   -5.3164   13.8605 C   0  0  1  0  0  0  0  0  0  0  0  0
    6.4795   -5.6677   13.3243 C   0  0  2  0  0  0  0  0  0  0  0  0
    6.4095   -5.2118   11.8325 C   0  0  2  0  0  0  0  0  0  0  0  0
    5.0953   -5.4993   11.3083 O   0  0  0  0  0  0  0  0  0  0  0  0
    7.5279   -5.9928   11.0136 C   0  0  2  0  0  0  0  0  0  0  0  0
    8.8857   -5.6813   11.5876 O   0  0  0  0  0  0  0  0  0  0  0  0
    7.5547   -5.6007    9.5426 C   0  0  0  0  0  0  0  0  0  0  0  0
    8.7772   -6.1251    8.8562 N   0  0  0  0  0  0  0  0  0  0  0  0
    6.0472  -10.7547   12.9135 C   0  0  2  0  0  0  0  0  0  0  0  0
    4.8498  -11.4807   12.5589 N   0  0  0  0  0  0  0  0  0  0  0  0
    5.6618   -9.4914   13.7843 C   0  0  0  0  0  0  0  0  0  0  0  0
    6.9738   -8.6769   14.1796 C   0  0  2  0  0  0  0  0  0  0  0  0
    6.6114   -7.4995   15.0114 N   0  0  0  0  0  0  0  0  0  0  0  0
    7.7362   -8.2306   12.8468 C   0  0  2  0  0  0  0  0  0  0  0  0
    8.0991   -9.5297   12.0086 C   0  0  2  0  0  0  0  0  0  0  0  0
    8.7848   -9.1411   10.8161 O   0  0  0  0  0  0  0  0  0  0  0  0
    6.7908  -10.3286   11.6276 C   0  0  1  0  0  0  0  0  0  0  0  0
    7.1404  -11.5211   10.8818 O   0  0  0  0  0  0  0  0  0  0  0  0
    6.9219  -11.7114    9.5250 C   0  0  2  0  0  0  0  0  0  0  0  0
    7.5412  -13.1011    9.1375 C   0  0  2  0  0  0  0  0  0  0  0  0
    6.9640  -14.1038    9.9100 O   0  0  0  0  0  0  0  0  0  0  0  0
    9.1224  -13.1034    9.2827 C   0  0  1  0  0  0  0  0  0  0  0  0
    9.6921  -14.4314    8.8971 N   0  0  0  0  0  0  0  0  0  0  0  0
    9.7188  -11.9414    8.3742 C   0  0  2  0  0  0  0  0  0  0  0  0
   11.1488  -11.9105    8.4612 O   0  0  0  0  0  0  0  0  0  0  0  0
    9.0804  -10.5766    8.8417 C   0  0  2  0  0  0  0  0  0  0  0  0
    7.5621  -10.6258    8.7386 O   0  0  0  0  0  0  0  0  0  0  0  0
    9.5863   -9.4238    8.0075 C   0  0  0  0  0  0  0  0  0  0  0  0
    8.6434   -8.3387    7.9290 O   0  0  0  0  0  0  0  0  0  0  0  0
    8.0319   -5.7063   15.2584 O   0  0  0  0  0  0  0  0  0  0  0  0
    5.5389   -4.9998   14.0705 O   0  0  0  0  0  0  0  0  0  0  0  0
    3.7006  -10.7464   12.0823 C   0  0  0  0  0  0  0  0  0  0  0  0
    3.5707   -9.5209   12.3759 O   0  0  0  0  0  0  0  0  0  0  0  0
    2.6523  -11.5119   11.2177 C   0  0  2  0  0  0  0  0  0  0  0  0
    1.6780  -12.5090   13.6582 N   0  0  0  0  0  0  0  0  0  0  0  0
    2.7380  -13.0494   11.4675 C   0  0  0  0  0  0  0  0  0  0  0  0
    1.8123  -13.5343   12.5957 C   0  0  0  0  0  0  0  0  0  0  0  0
    2.8431  -11.3612    9.9691 O   0  0  0  0  0  0  0  0  0  0  0  0
  1  2  1  6  0  0  0
  1  3  1  0  0  0  0
  1  8  1  0  0  0  0
  3  4  1  0  0  0  0
  3 32  1  1  0  0  0
  4  5  1  0  0  0  0
  4 33  1  1  0  0  0
  5  6  1  6  0  0  0
  5  7  1  0  0  0  0
  7  8  1  0  0  0  0
  7  9  1  6  0  0  0
  9 10  1  0  0  0  0
 11 12  1  6  0  0  0
 11 13  1  0  0  0  0
 11 19  1  0  0  0  0
 12 34  1  0  0  0  0
 13 14  1  0  0  0  0
 14 15  1  6  0  0  0
 14 16  1  0  0  0  0
 16  2  1  1  0  0  0
 16 17  1  0  0  0  0
 17 18  1  6  0  0  0
 17 19  1  0  0  0  0
 19 20  1  1  0  0  0
 21 20  1  1  0  0  0
 21 22  1  0  0  0  0
 21 29  1  0  0  0  0
 22 23  1  1  0  0  0
 22 24  1  0  0  0  0
 24 25  1  6  0  0  0
 24 26  1  0  0  0  0
 26 27  1  1  0  0  0
 26 28  1  0  0  0  0
 28 29  1  0  0  0  0
 28 30  1  6  0  0  0
 30 31  1  0  0  0  0
 34 35  2  0  0  0  0
 36 34  1  1  0  0  0
 36 38  1  0  0  0  0
 36 40  1  0  0  0  0
 37 39  1  0  0  0  0
 38 39  1  0  0  0  0
M  END
>  <CHROM.1>
59.81340410,-107.10145227,168.32469598,45.23613937,131.89579570,176.38059880
152.27805063,21.99219924,90.74308861,-33.38678997,6.85669913,-9.41399533
11.33443936,-1.39709607,-0.55412068,-2.67046019

>  <Name>
ligand

>  <RI>
0

>  <Rbt.Current_Directory>
/home/itssahil/PROJECTS/Mol_Feturizer/New_Systems/rnas/4P20

>  <Rbt.Executable>
rbdock ($Id: //depot/dev/client3/rdock/2013.1/src/exe/rbdock.cxx#4 $)

>  <Rbt.Library>
libRbt.so (2013.1, Build901 2013/11/27)

>  <Rbt.Parameter_File>
/export/apps/rDock/src/rDock_2013.1_src/data/scripts/dock_solv.prm

>  <Rbt.Receptor>
prm/blind_docking_20.prm

>  <SCORE>
51.6661

>  <SCORE.INTER>
11.8608

>  <SCORE.INTER.CONST>
1

>  <SCORE.INTER.POLAR>
0

>  <SCORE.INTER.ROT>
10

>  <SCORE.INTER.SOLV>
16.8764

>  <SCORE.INTER.VDW>
-7.98492

>  <SCORE.INTER.norm>
0.29652

>  <SCORE.INTRA>
15.4743

>  <SCORE.INTRA.DIHEDRAL>
-5.44627

>  <SCORE.INTRA.DIHEDRAL.0>
28.2802

>  <SCORE.INTRA.POLAR>
0

>  <SCORE.INTRA.POLAR.0>
0

>  <SCORE.INTRA.REPUL>
0

>  <SCORE.INTRA.REPUL.0>
0

>  <SCORE.INTRA.SOLV>
11.7629

>  <SCORE.INTRA.SOLV.lig_0>
-101.981

>  <SCORE.INTRA.VDW>
12.316

>  <SCORE.INTRA.VDW.0>
-5.72964

>  <SCORE.INTRA.norm>
0.386858

>  <SCORE.RESTR>
24.331

>  <SCORE.RESTR.CAVITY>
24.331

>  <SCORE.RESTR.norm>
0.608274

>  <SCORE.SYSTEM>
0

>  <SCORE.SYSTEM.CONST>
0

>  <SCORE.SYSTEM.DIHEDRAL>
0

>  <SCORE.SYSTEM.SOLV>
0

>  <SCORE.SYSTEM.norm>
0

>  <SCORE.heavy>
40

>  <SCORE.norm>
1.29165

>  <RMSD>
9.481

$$$$
ligand
 OpenBabel11021811513D
libRbt.so/2013.1/901 2013/11/27
 40 42  0  0  0  0  0  0  0  0999 V2000
    8.2742   -1.8858   26.1983 C   0  0  2  0  0  0  0  0  0  0  0  0
    7.0697   -2.6682   26.1920 O   0  0  0  0  0  0  0  0  0  0  0  0
    8.4147   -1.0748   24.8560 C   0  0  1  0  0  0  0  0  0  0  0  0
    8.6101   -2.0195   23.6345 C   0  0  2  0  0  0  0  0  0  0  0  0
    9.9087   -2.8511   23.8804 C   0  0  2  0  0  0  0  0  0  0  0  0
   10.1363   -3.7227   22.7521 O   0  0  0  0  0  0  0  0  0  0  0  0
    9.7221   -3.6939   25.2170 C   0  0  2  0  0  0  0  0  0  0  0  0
    9.4776   -2.7602   26.3740 O   0  0  0  0  0  0  0  0  0  0  0  0
   10.9495   -4.5282   25.5569 C   0  0  0  0  0  0  0  0  0  0  0  0
   12.2147   -3.7578   25.3410 N   0  0  0  0  0  0  0  0  0  0  0  0
    3.7466   -3.7638   23.5300 C   0  0  2  0  0  0  0  0  0  0  0  0
    2.8517   -3.7432   22.3964 N   0  0  0  0  0  0  0  0  0  0  0  0
    3.6791   -2.3740   24.2828 C   0  0  0  0  0  0  0  0  0  0  0  0
    4.6659   -2.3800   25.5346 C   0  0  2  0  0  0  0  0  0  0  0  0
    4.5890   -1.0795   26.2504 N   0  0  0  0  0  0  0  0  0  0  0  0
    6.1540   -2.6744   25.0288 C   0  0  2  0  0  0  0  0  0  0  0  0
    6.1694   -4.0750   24.2804 C   0  0  2  0  0  0  0  0  0  0  0  0
    7.4971   -4.3492   23.8274 O   0  0  0  0  0  0  0  0  0  0  0  0
    5.1846   -4.0560   23.0455 C   0  0  1  0  0  0  0  0  0  0  0  0
    5.1946   -5.3469   22.3865 O   0  0  0  0  0  0  0  0  0  0  0  0
    4.1379   -6.2457   22.3673 C   0  0  2  0  0  0  0  0  0  0  0  0
    4.7292   -7.6621   22.0366 C   0  0  2  0  0  0  0  0  0  0  0  0
    5.6923   -8.0010   22.9814 O   0  0  0  0  0  0  0  0  0  0  0  0
    5.3222   -7.7248   20.5649 C   0  0  1  0  0  0  0  0  0  0  0  0
    5.8681   -9.0849   20.2667 N   0  0  0  0  0  0  0  0  0  0  0  0
    4.1735   -7.3331   19.5361 C   0  0  2  0  0  0  0  0  0  0  0  0
    4.6573   -7.3875   18.1883 O   0  0  0  0  0  0  0  0  0  0  0  0
    3.6537   -5.8905   19.9070 C   0  0  2  0  0  0  0  0  0  0  0  0
    3.1399   -5.8523   21.3399 O   0  0  0  0  0  0  0  0  0  0  0  0
    2.5422   -5.4565   18.9813 C   0  0  0  0  0  0  0  0  0  0  0  0
    1.3790   -6.2995   19.0759 O   0  0  0  0  0  0  0  0  0  0  0  0
    7.2204   -0.2562   24.6889 O   0  0  0  0  0  0  0  0  0  0  0  0
    8.7393   -1.2612   22.4961 O   0  0  0  0  0  0  0  0  0  0  0  0
    1.5135   -3.2271   22.5693 C   0  0  0  0  0  0  0  0  0  0  0  0
    0.9896   -3.2106   23.7227 O   0  0  0  0  0  0  0  0  0  0  0  0
    0.7613   -2.7101   21.3047 C   0  0  2  0  0  0  0  0  0  0  0  0
    1.9878    0.1132   20.1527 N   0  0  0  0  0  0  0  0  0  0  0  0
    1.7635   -2.3696   20.1588 C   0  0  0  0  0  0  0  0  0  0  0  0
    2.6648   -1.1651   20.4777 C   0  0  0  0  0  0  0  0  0  0  0  0
    0.1187   -1.6342   21.5225 O   0  0  0  0  0  0  0  0  0  0  0  0
  1  2  1  6  0  0  0
  1  3  1  0  0  0  0
  1  8  1  0  0  0  0
  3  4  1  0  0  0  0
  3 32  1  6  0  0  0
  4  5  1  0  0  0  0
  4 33  1  6  0  0  0
  5  6  1  6  0  0  0
  5  7  1  0  0  0  0
  7  8  1  0  0  0  0
  7  9  1  1  0  0  0
  9 10  1  0  0  0  0
 11 12  1  6  0  0  0
 11 13  1  0  0  0  0
 11 19  1  0  0  0  0
 12 34  1  0  0  0  0
 13 14  1  0  0  0  0
 14 15  1  6  0  0  0
 14 16  1  0  0  0  0
 16  2  1  1  0  0  0
 16 17  1  0  0  0  0
 17 18  1  6  0  0  0
 17 19  1  0  0  0  0
 19 20  1  1  0  0  0
 21 20  1  6  0  0  0
 21 22  1  0  0  0  0
 21 29  1  0  0  0  0
 22 23  1  1  0  0  0
 22 24  1  0  0  0  0
 24 25  1  6  0  0  0
 24 26  1  0  0  0  0
 26 27  1  6  0  0  0
 26 28  1  0  0  0  0
 28 29  1  0  0  0  0
 28 30  1  6  0  0  0
 30 31  1  0  0  0  0
 34 35  2  0  0  0  0
 36 34  1  1  0  0  0
 36 38  1  0  0  0  0
 36 40  1  0  0  0  0
 37 39  1  0  0  0  0
 38 39  1  0  0  0  0
M  END
>  <CHROM.1>
1.12717291,-129.10275114,42.48626918,-45.99142867,-8.47953272,-159.31304570
62.79992928,-20.51846673,-67.17571873,-84.14445077,5.39403572,-3.88986184
22.80929262,0.51820449,-0.39382011,0.54728979

>  <Name>
ligand

>  <RI>
0

>  <Rbt.Current_Directory>
/home/itssahil/PROJECTS/Mol_Feturizer/New_Systems/rnas/4P20

>  <Rbt.Executable>
rbdock ($Id: //depot/dev/client3/rdock/2013.1/src/exe/rbdock.cxx#4 $)

>  <Rbt.Library>
libRbt.so (2013.1, Build901 2013/11/27)

>  <Rbt.Parameter_File>
/export/apps/rDock/src/rDock_2013.1_src/data/scripts/dock_solv.prm

>  <Rbt.Receptor>
prm/blind_docking_60.prm

>  <SCORE>
28.455

>  <SCORE.INTER>
1.04003

>  <SCORE.INTER.CONST>
1

>  <SCORE.INTER.POLAR>
0

>  <SCORE.INTER.ROT>
10

>  <SCORE.INTER.SOLV>
24.0422

>  <SCORE.INTER.VDW>
-17.5874

>  <SCORE.INTER.norm>
0.0260008

>  <SCORE.INTRA>
10.7512

>  <SCORE.INTRA.DIHEDRAL>
-0.163179

>  <SCORE.INTRA.DIHEDRAL.0>
28.2802

>  <SCORE.INTRA.POLAR>
0

>  <SCORE.INTRA.POLAR.0>
0

>  <SCORE.INTRA.REPUL>
0

>  <SCORE.INTRA.REPUL.0>
0

>  <SCORE.INTRA.SOLV>
5.78325

>  <SCORE.INTRA.SOLV.lig_0>
-101.981

>  <SCORE.INTRA.VDW>
7.94118

>  <SCORE.INTRA.VDW.0>
-5.72964

>  <SCORE.INTRA.norm>
0.26878

>  <SCORE.RESTR>
16.6637

>  <SCORE.RESTR.CAVITY>
16.6637

>  <SCORE.RESTR.norm>
0.416593

>  <SCORE.SYSTEM>
0

>  <SCORE.SYSTEM.CONST>
0

>  <SCORE.SYSTEM.DIHEDRAL>
0

>  <SCORE.SYSTEM.SOLV>
0

>  <SCORE.SYSTEM.norm>
0

>  <SCORE.heavy>
40

>  <SCORE.norm>
0.711374

>  <RMSD>
9.620

$$$$
ligand
 OpenBabel11021811513D
libRbt.so/2013.1/901 2013/11/27
 40 42  0  0  0  0  0  0  0  0999 V2000
    7.7705   -2.8585   26.3594 C   0  0  2  0  0  0  0  0  0  0  0  0
    6.7602   -3.6075   25.6656 O   0  0  0  0  0  0  0  0  0  0  0  0
    8.0468   -1.4917   25.6280 C   0  0  1  0  0  0  0  0  0  0  0  0
    8.6717   -1.7127   24.2197 C   0  0  2  0  0  0  0  0  0  0  0  0
   10.0162   -2.4830   24.4123 C   0  0  2  0  0  0  0  0  0  0  0  0
   10.6384   -2.6833   23.1250 O   0  0  0  0  0  0  0  0  0  0  0  0
    9.7027   -3.8773   25.1117 C   0  0  2  0  0  0  0  0  0  0  0  0
    9.0467   -3.6376   26.4468 O   0  0  0  0  0  0  0  0  0  0  0  0
   10.9592   -4.6996   25.3630 C   0  0  0  0  0  0  0  0  0  0  0  0
   11.7058   -4.9645   24.0930 N   0  0  0  0  0  0  0  0  0  0  0  0
    2.6498   -2.9445   24.2533 C   0  0  2  0  0  0  0  0  0  0  0  0
    1.4992   -2.2789   23.6879 N   0  0  0  0  0  0  0  0  0  0  0  0
    3.1397   -2.1573   25.5350 C   0  0  0  0  0  0  0  0  0  0  0  0
    4.4131   -2.8779   26.1677 C   0  0  2  0  0  0  0  0  0  0  0  0
    4.8621   -2.1463   27.3812 N   0  0  0  0  0  0  0  0  0  0  0  0
    5.5753   -2.9479   25.0717 C   0  0  2  0  0  0  0  0  0  0  0  0
    5.0357   -3.7437   23.8078 C   0  0  2  0  0  0  0  0  0  0  0  0
    6.0695   -3.8151   22.8231 O   0  0  0  0  0  0  0  0  0  0  0  0
    3.7723   -3.0210   23.1940 C   0  0  1  0  0  0  0  0  0  0  0  0
    3.2800   -3.7703   22.0552 O   0  0  0  0  0  0  0  0  0  0  0  0
    4.0534   -4.2153   20.9929 C   0  0  2  0  0  0  0  0  0  0  0  0
    3.0748   -4.7557   19.8904 C   0  0  2  0  0  0  0  0  0  0  0  0
    2.1908   -3.7499   19.5137 O   0  0  0  0  0  0  0  0  0  0  0  0
    2.2963   -6.0515   20.3766 C   0  0  1  0  0  0  0  0  0  0  0  0
    1.3800   -6.5562   19.3077 N   0  0  0  0  0  0  0  0  0  0  0  0
    3.3604   -7.1610   20.7864 C   0  0  2  0  0  0  0  0  0  0  0  0
    2.7048   -8.3586   21.2216 O   0  0  0  0  0  0  0  0  0  0  0  0
    4.2829   -6.5620   21.9174 C   0  0  2  0  0  0  0  0  0  0  0  0
    4.9742   -5.2933   21.4364 O   0  0  0  0  0  0  0  0  0  0  0  0
    5.3361   -7.5559   22.3455 C   0  0  0  0  0  0  0  0  0  0  0  0
    4.7758   -8.7226   22.9761 O   0  0  0  0  0  0  0  0  0  0  0  0
    6.7876   -0.7651   25.5253 O   0  0  0  0  0  0  0  0  0  0  0  0
    8.9027   -0.4915   23.6341 O   0  0  0  0  0  0  0  0  0  0  0  0
    0.6135   -3.0239   22.8233 C   0  0  0  0  0  0  0  0  0  0  0  0
    1.0396   -4.0556   22.2242 O   0  0  0  0  0  0  0  0  0  0  0  0
   -0.8504   -2.5109   22.6611 C   0  0  2  0  0  0  0  0  0  0  0  0
   -3.1776   -0.7165   23.0494 N   0  0  0  0  0  0  0  0  0  0  0  0
   -0.8723   -1.0353   22.1555 C   0  0  0  0  0  0  0  0  0  0  0  0
   -1.8185   -0.1304   22.9623 C   0  0  0  0  0  0  0  0  0  0  0  0
   -1.4909   -2.5012   23.7600 O   0  0  0  0  0  0  0  0  0  0  0  0
  1  2  1  6  0  0  0
  1  3  1  0  0  0  0
  1  8  1  0  0  0  0
  3  4  1  0  0  0  0
  3 32  1  6  0  0  0
  4  5  1  0  0  0  0
  4 33  1  1  0  0  0
  5  6  1  6  0  0  0
  5  7  1  0  0  0  0
  7  8  1  0  0  0  0
  7  9  1  1  0  0  0
  9 10  1  0  0  0  0
 11 12  1  6  0  0  0
 11 13  1  0  0  0  0
 11 19  1  0  0  0  0
 12 34  1  0  0  0  0
 13 14  1  0  0  0  0
 14 15  1  1  0  0  0
 14 16  1  0  0  0  0
 16  2  1  1  0  0  0
 16 17  1  0  0  0  0
 17 18  1  6  0  0  0
 17 19  1  0  0  0  0
 19 20  1  6  0  0  0
 21 20  1  1  0  0  0
 21 22  1  0  0  0  0
 21 29  1  0  0  0  0
 22 23  1  1  0  0  0
 22 24  1  0  0  0  0
 24 25  1  6  0  0  0
 24 26  1  0  0  0  0
 26 27  1  1  0  0  0
 26 28  1  0  0  0  0
 28 29  1  0  0  0  0
 28 30  1  6  0  0  0
 30 31  1  0  0  0  0
 34 35  2  0  0  0  0
 36 34  1  1  0  0  0
 36 38  1  0  0  0  0
 36 40  1  0  0  0  0
 37 39  1  0  0  0  0
 38 39  1  0  0  0  0
M  END
>  <CHROM.1>
-39.27237116,-89.01547229,-57.87476004,-158.95417621,-170.08987211,-170.51101600
-65.20922257,56.71166110,-132.09271036,-52.33048100,4.55047806,-3.66301272
23.33776014,0.18447883,-0.24241763,0.61917640

>  <Name>
ligand

>  <RI>
0

>  <Rbt.Current_Directory>
/home/itssahil/PROJECTS/Mol_Feturizer/New_Systems/rnas/4P20

>  <Rbt.Executable>
rbdock ($Id: //depot/dev/client3/rdock/2013.1/src/exe/rbdock.cxx#4 $)

>  <Rbt.Library>
libRbt.so (2013.1, Build901 2013/11/27)

>  <Rbt.Parameter_File>
/export/apps/rDock/src/rDock_2013.1_src/data/scripts/dock_solv.prm

>  <Rbt.Receptor>
prm/blind_docking_60.prm

>  <SCORE>
20.9513

>  <SCORE.INTER>
-1.14934

>  <SCORE.INTER.CONST>
1

>  <SCORE.INTER.POLAR>
0

>  <SCORE.INTER.ROT>
10

>  <SCORE.INTER.SOLV>
31.7927

>  <SCORE.INTER.VDW>
-21.6305

>  <SCORE.INTER.norm>
-0.0287334

>  <SCORE.INTRA>
5.76177

>  <SCORE.INTRA.DIHEDRAL>
-15.9446

>  <SCORE.INTRA.DIHEDRAL.0>
28.2802

>  <SCORE.INTRA.POLAR>
0

>  <SCORE.INTRA.POLAR.0>
0

>  <SCORE.INTRA.REPUL>
0

>  <SCORE.INTRA.REPUL.0>
0

>  <SCORE.INTRA.SOLV>
6.10591

>  <SCORE.INTRA.SOLV.lig_0>
-101.981

>  <SCORE.INTRA.VDW>
10.6811

>  <SCORE.INTRA.VDW.0>
-5.72964

>  <SCORE.INTRA.norm>
0.144044

>  <SCORE.RESTR>
16.3389

>  <SCORE.RESTR.CAVITY>
16.3389

>  <SCORE.RESTR.norm>
0.408473

>  <SCORE.SYSTEM>
0

>  <SCORE.SYSTEM.CONST>
0

>  <SCORE.SYSTEM.DIHEDRAL>
0

>  <SCORE.SYSTEM.SOLV>
0

>  <SCORE.SYSTEM.norm>
0

>  <SCORE.heavy>
40

>  <SCORE.norm>
0.523783

>  <RMSD>
9.678

$$$$
ligand
 OpenBabel11021811513D
libRbt.so/2013.1/901 2013/11/27
 40 42  0  0  0  0  0  0  0  0999 V2000
   -7.7112  -10.1999   14.4452 C   0  0  2  0  0  0  0  0  0  0  0  0
   -7.1606   -9.1291   15.2283 O   0  0  0  0  0  0  0  0  0  0  0  0
   -8.7742   -9.6483   13.4229 C   0  0  1  0  0  0  0  0  0  0  0  0
  -10.0192   -9.0636   14.1517 C   0  0  2  0  0  0  0  0  0  0  0  0
  -10.6555  -10.2106   14.9989 C   0  0  2  0  0  0  0  0  0  0  0  0
  -11.8314   -9.7098   15.6705 O   0  0  0  0  0  0  0  0  0  0  0  0
   -9.5761  -10.7180   16.0520 C   0  0  2  0  0  0  0  0  0  0  0  0
   -8.3585  -11.2256   15.3240 O   0  0  0  0  0  0  0  0  0  0  0  0
  -10.0965  -11.8570   16.9180 C   0  0  0  0  0  0  0  0  0  0  0  0
  -10.4225  -13.0662   16.0981 N   0  0  0  0  0  0  0  0  0  0  0  0
   -3.2431   -8.8964   17.2104 C   0  0  2  0  0  0  0  0  0  0  0  0
   -2.1978   -9.1192   18.1821 N   0  0  0  0  0  0  0  0  0  0  0  0
   -4.4831   -8.2114   17.9146 C   0  0  0  0  0  0  0  0  0  0  0  0
   -5.6476   -7.9635   16.8548 C   0  0  2  0  0  0  0  0  0  0  0  0
   -6.8054   -7.3049   17.5146 N   0  0  0  0  0  0  0  0  0  0  0  0
   -6.0714   -9.3611   16.2037 C   0  0  2  0  0  0  0  0  0  0  0  0
   -4.7963  -10.0082   15.5129 C   0  0  2  0  0  0  0  0  0  0  0  0
   -5.1660  -11.2572   14.9242 O   0  0  0  0  0  0  0  0  0  0  0  0
   -3.6496  -10.2444   16.5734 C   0  0  1  0  0  0  0  0  0  0  0  0
   -2.4866  -10.8154   15.9237 O   0  0  0  0  0  0  0  0  0  0  0  0
   -2.4426  -12.0556   15.3034 C   0  0  2  0  0  0  0  0  0  0  0  0
   -2.3178  -13.1424   16.4297 C   0  0  2  0  0  0  0  0  0  0  0  0
   -3.3892  -13.0311   17.3100 O   0  0  0  0  0  0  0  0  0  0  0  0
   -0.9316  -13.0400   17.1972 C   0  0  1  0  0  0  0  0  0  0  0  0
   -0.8287  -14.0911   18.2562 N   0  0  0  0  0  0  0  0  0  0  0  0
    0.2480  -13.1794   16.1387 C   0  0  2  0  0  0  0  0  0  0  0  0
    1.5242  -13.1061   16.7863 O   0  0  0  0  0  0  0  0  0  0  0  0
    0.0784  -12.0387   15.0622 C   0  0  2  0  0  0  0  0  0  0  0  0
   -1.2804  -12.1345   14.3817 O   0  0  0  0  0  0  0  0  0  0  0  0
    1.1560  -12.1196   14.0074 C   0  0  0  0  0  0  0  0  0  0  0  0
    2.4682  -11.8420   14.5308 O   0  0  0  0  0  0  0  0  0  0  0  0
   -8.1329   -8.6303   12.6004 O   0  0  0  0  0  0  0  0  0  0  0  0
  -10.9162   -8.6101   13.2150 O   0  0  0  0  0  0  0  0  0  0  0  0
   -1.2728   -8.0486   18.4739 C   0  0  0  0  0  0  0  0  0  0  0  0
   -1.0887   -7.1269   17.6245 O   0  0  0  0  0  0  0  0  0  0  0  0
   -0.5269   -8.0813   19.8433 C   0  0  2  0  0  0  0  0  0  0  0  0
    2.4049   -8.7568   18.9840 N   0  0  0  0  0  0  0  0  0  0  0  0
    0.7117   -7.1330   19.8274 C   0  0  0  0  0  0  0  0  0  0  0  0
    1.7203   -7.4692   18.7163 C   0  0  0  0  0  0  0  0  0  0  0  0
   -0.0667   -9.2336   20.1232 O   0  0  0  0  0  0  0  0  0  0  0  0
  1  2  1  1  0  0  0
  1  3  1  0  0  0  0
  1  8  1  0  0  0  0
  3  4  1  0  0  0  0
  3 32  1  1  0  0  0
  4  5  1  0  0  0  0
  4 33  1  6  0  0  0
  5  6  1  1  0  0  0
  5  7  1  0  0  0  0
  7  8  1  0  0  0  0
  7  9  1  6  0  0  0
  9 10  1  0  0  0  0
 11 12  1  1  0  0  0
 11 13  1  0  0  0  0
 11 19  1  0  0  0  0
 12 34  1  0  0  0  0
 13 14  1  0  0  0  0
 14 15  1  1  0  0  0
 14 16  1  0  0  0  0
 16  2  1  6  0  0  0
 16 17  1  0  0  0  0
 17 18  1  1  0  0  0
 17 19  1  0  0  0  0
 19 20  1  6  0  0  0
 21 20  1  1  0  0  0
 21 22  1  0  0  0  0
 21 29  1  0  0  0  0
 22 23  1  1  0  0  0
 22 24  1  0  0  0  0
 24 25  1  1  0  0  0
 24 26  1  0  0  0  0
 26 27  1  1  0  0  0
 26 28  1  0  0  0  0
 28 29  1  0  0  0  0
 28 30  1  6  0  0  0
 30 31  1  0  0  0  0
 34 35  2  0  0  0  0
 36 34  1  6  0  0  0
 36 38  1  0  0  0  0
 36 40  1  0  0  0  0
 37 39  1  0  0  0  0
 38 39  1  0  0  0  0
M  END
>  <CHROM.1>
-175.83666899,177.51798695,62.74855643,-85.04796437,176.36078031,-78.22390889
-66.27769073,163.04230430,-57.75476414,-69.03819185,-4.05210628,-10.28167994
16.32069749,-3.06344688,-0.23170147,0.53641993

>  <Name>
ligand

>  <RI>
0

>  <Rbt.Current_Directory>
/home/itssahil/PROJECTS/Mol_Feturizer/New_Systems/rnas/4P20

>  <Rbt.Executable>
rbdock ($Id: //depot/dev/client3/rdock/2013.1/src/exe/rbdock.cxx#4 $)

>  <Rbt.Library>
libRbt.so (2013.1, Build901 2013/11/27)

>  <Rbt.Parameter_File>
/export/apps/rDock/src/rDock_2013.1_src/data/scripts/dock_solv.prm

>  <Rbt.Receptor>
prm/pocket_docking_6.prm

>  <SCORE>
-9.10504

>  <SCORE.INTER>
-0.744969

>  <SCORE.INTER.CONST>
1

>  <SCORE.INTER.POLAR>
0

>  <SCORE.INTER.ROT>
10

>  <SCORE.INTER.SOLV>
10.9161

>  <SCORE.INTER.VDW>
-14.402

>  <SCORE.INTER.norm>
-0.0186242

>  <SCORE.INTRA>
-8.36007

>  <SCORE.INTRA.DIHEDRAL>
-24.5313

>  <SCORE.INTRA.DIHEDRAL.0>
28.2802

>  <SCORE.INTRA.POLAR>
0

>  <SCORE.INTRA.POLAR.0>
0

>  <SCORE.INTRA.REPUL>
0

>  <SCORE.INTRA.REPUL.0>
0

>  <SCORE.INTRA.SOLV>
2.00041

>  <SCORE.INTRA.SOLV.lig_0>
-101.981

>  <SCORE.INTRA.VDW>
2.90538

>  <SCORE.INTRA.VDW.0>
-5.72964

>  <SCORE.INTRA.norm>
-0.209002

>  <SCORE.RESTR>
0

>  <SCORE.RESTR.CAVITY>
0

>  <SCORE.RESTR.norm>
0

>  <SCORE.SYSTEM>
0

>  <SCORE.SYSTEM.CONST>
0

>  <SCORE.SYSTEM.DIHEDRAL>
0

>  <SCORE.SYSTEM.SOLV>
0

>  <SCORE.SYSTEM.norm>
0

>  <SCORE.heavy>
40

>  <SCORE.norm>
-0.227626

>  <RMSD>
9.701

$$$$
ligand
 OpenBabel11021811503D
libRbt.so/2013.1/901 2013/11/27
 40 42  0  0  0  0  0  0  0  0999 V2000
    7.8003   -2.9907   26.4661 C   0  0  2  0  0  0  0  0  0  0  0  0
    6.7817   -3.7099   25.7532 O   0  0  0  0  0  0  0  0  0  0  0  0
    7.9558   -1.5337   25.8897 C   0  0  1  0  0  0  0  0  0  0  0  0
    8.4892   -1.5508   24.4275 C   0  0  2  0  0  0  0  0  0  0  0  0
    9.8807   -2.2594   24.4380 C   0  0  2  0  0  0  0  0  0  0  0  0
   10.4190   -2.2705   23.0984 O   0  0  0  0  0  0  0  0  0  0  0  0
    9.6872   -3.7421   24.9818 C   0  0  2  0  0  0  0  0  0  0  0  0
    9.1167   -3.6996   26.3756 O   0  0  0  0  0  0  0  0  0  0  0  0
   10.9977   -4.5143   25.0497 C   0  0  0  0  0  0  0  0  0  0  0  0
   10.8006   -5.8819   25.6254 N   0  0  0  0  0  0  0  0  0  0  0  0
    2.7233   -2.9173   24.2596 C   0  0  2  0  0  0  0  0  0  0  0  0
    1.6074   -2.2176   23.6667 N   0  0  0  0  0  0  0  0  0  0  0  0
    3.2179   -2.1342   25.5421 C   0  0  0  0  0  0  0  0  0  0  0  0
    4.4534   -2.8926   26.2050 C   0  0  2  0  0  0  0  0  0  0  0  0
    4.9063   -2.1644   27.4192 N   0  0  0  0  0  0  0  0  0  0  0  0
    5.6318   -3.0153   25.1312 C   0  0  2  0  0  0  0  0  0  0  0  0
    5.0870   -3.8050   23.8657 C   0  0  2  0  0  0  0  0  0  0  0  0
    6.1350   -3.9233   22.9008 O   0  0  0  0  0  0  0  0  0  0  0  0
    3.8612   -3.0447   23.2217 C   0  0  1  0  0  0  0  0  0  0  0  0
    3.3630   -3.7883   22.0818 O   0  0  0  0  0  0  0  0  0  0  0  0
    4.1443   -4.3099   21.0608 C   0  0  2  0  0  0  0  0  0  0  0  0
    3.1727   -4.8617   19.9578 C   0  0  2  0  0  0  0  0  0  0  0  0
    2.3384   -3.8408   19.5140 O   0  0  0  0  0  0  0  0  0  0  0  0
    2.3321   -6.1035   20.4800 C   0  0  1  0  0  0  0  0  0  0  0  0
    1.4233   -6.6207   19.4106 N   0  0  0  0  0  0  0  0  0  0  0  0
    3.3414   -7.2332   20.9662 C   0  0  2  0  0  0  0  0  0  0  0  0
    2.6288   -8.3842   21.4363 O   0  0  0  0  0  0  0  0  0  0  0  0
    4.2586   -6.6195   22.0936 C   0  0  2  0  0  0  0  0  0  0  0  0
    5.0108   -5.4011   21.5756 O   0  0  0  0  0  0  0  0  0  0  0  0
    5.2611   -7.6325   22.5927 C   0  0  0  0  0  0  0  0  0  0  0  0
    6.1453   -8.0971   21.5559 O   0  0  0  0  0  0  0  0  0  0  0  0
    6.6580   -0.8740   25.9574 O   0  0  0  0  0  0  0  0  0  0  0  0
    8.6172   -0.2578   23.9809 O   0  0  0  0  0  0  0  0  0  0  0  0
    0.6973   -2.9458   22.8133 C   0  0  0  0  0  0  0  0  0  0  0  0
    1.0831   -4.0102   22.2447 O   0  0  0  0  0  0  0  0  0  0  0  0
   -0.7416   -2.3745   22.6243 C   0  0  2  0  0  0  0  0  0  0  0  0
    1.5982   -0.7307   21.0679 N   0  0  0  0  0  0  0  0  0  0  0  0
   -0.6969   -0.9375   22.0189 C   0  0  0  0  0  0  0  0  0  0  0  0
    0.1560   -0.8418   20.7428 C   0  0  0  0  0  0  0  0  0  0  0  0
   -1.3711   -2.2587   23.7236 O   0  0  0  0  0  0  0  0  0  0  0  0
  1  2  1  6  0  0  0
  1  3  1  0  0  0  0
  1  8  1  0  0  0  0
  3  4  1  0  0  0  0
  3 32  1  6  0  0  0
  4  5  1  0  0  0  0
  4 33  1  1  0  0  0
  5  6  1  6  0  0  0
  5  7  1  0  0  0  0
  7  8  1  0  0  0  0
  7  9  1  1  0  0  0
  9 10  1  0  0  0  0
 11 12  1  6  0  0  0
 11 13  1  0  0  0  0
 11 19  1  0  0  0  0
 12 34  1  0  0  0  0
 13 14  1  0  0  0  0
 14 15  1  1  0  0  0
 14 16  1  0  0  0  0
 16  2  1  1  0  0  0
 16 17  1  0  0  0  0
 17 18  1  6  0  0  0
 17 19  1  0  0  0  0
 19 20  1  6  0  0  0
 21 20  1  1  0  0  0
 21 22  1  0  0  0  0
 21 29  1  0  0  0  0
 22 23  1  1  0  0  0
 22 24  1  0  0  0  0
 24 25  1  6  0  0  0
 24 26  1  0  0  0  0
 26 27  1  1  0  0  0
 26 28  1  0  0  0  0
 28 29  1  0  0  0  0
 28 30  1  6  0  0  0
 30 31  1  0  0  0  0
 34 35  2  0  0  0  0
 36 34  1  1  0  0  0
 36 38  1  0  0  0  0
 36 40  1  0  0  0  0
 37 39  1  0  0  0  0
 38 39  1  0  0  0  0
M  END
>  <CHROM.1>
-29.21055425,-88.55610462,177.25439848,-157.82692632,-167.82459401,-172.62957702
60.57160144,59.33989587,51.84660452,-81.17634355,4.74631369,-3.67128333,23.29186636
0.29499024,-0.33075318,0.57551048

>  <Name>
ligand

>  <RI>
0

>  <Rbt.Current_Directory>
/home/itssahil/PROJECTS/Mol_Feturizer/New_Systems/rnas/4P20

>  <Rbt.Executable>
rbdock ($Id: //depot/dev/client3/rdock/2013.1/src/exe/rbdock.cxx#4 $)

>  <Rbt.Library>
libRbt.so (2013.1, Build901 2013/11/27)

>  <Rbt.Parameter_File>
/export/apps/rDock/src/rDock_2013.1_src/data/scripts/dock_solv.prm

>  <Rbt.Receptor>
prm/blind_docking_60.prm

>  <SCORE>
16.0091

>  <SCORE.INTER>
-2.90882

>  <SCORE.INTER.CONST>
1

>  <SCORE.INTER.POLAR>
0

>  <SCORE.INTER.ROT>
10

>  <SCORE.INTER.SOLV>
30.2187

>  <SCORE.INTER.VDW>
-22.2788

>  <SCORE.INTER.norm>
-0.0727204

>  <SCORE.INTRA>
2.91877

>  <SCORE.INTRA.DIHEDRAL>
-17.2616

>  <SCORE.INTRA.DIHEDRAL.0>
28.2802

>  <SCORE.INTRA.POLAR>
0

>  <SCORE.INTRA.POLAR.0>
0

>  <SCORE.INTRA.REPUL>
0

>  <SCORE.INTRA.REPUL.0>
0

>  <SCORE.INTRA.SOLV>
8.54185

>  <SCORE.INTRA.SOLV.lig_0>
-101.981

>  <SCORE.INTRA.VDW>
7.27866

>  <SCORE.INTRA.VDW.0>
-5.72964

>  <SCORE.INTRA.norm>
0.0729692

>  <SCORE.RESTR>
15.9991

>  <SCORE.RESTR.CAVITY>
15.9991

>  <SCORE.RESTR.norm>
0.399978

>  <SCORE.SYSTEM>
0

>  <SCORE.SYSTEM.CONST>
0

>  <SCORE.SYSTEM.DIHEDRAL>
0

>  <SCORE.SYSTEM.SOLV>
0

>  <SCORE.SYSTEM.norm>
0

>  <SCORE.heavy>
40

>  <SCORE.norm>
0.400227

>  <RMSD>
9.721

$$$$
ligand
 OpenBabel11021811503D
libRbt.so/2013.1/901 2013/11/27
 40 42  0  0  0  0  0  0  0  0999 V2000
    0.0721    1.3307   21.1608 C   0  0  2  0  0  0  0  0  0  0  0  0
   -0.5158    0.0252   21.2752 O   0  0  0  0  0  0  0  0  0  0  0  0
   -0.3269    1.9996   19.7923 C   0  0  1  0  0  0  0  0  0  0  0  0
    0.2772    1.2298   18.5818 C   0  0  2  0  0  0  0  0  0  0  0  0
    1.8309    1.2447   18.7370 C   0  0  2  0  0  0  0  0  0  0  0  0
    2.4277    0.5599   17.6148 O   0  0  0  0  0  0  0  0  0  0  0  0
    2.2078    0.5240   20.1045 C   0  0  2  0  0  0  0  0  0  0  0  0
    1.5649    1.2538   21.2552 O   0  0  0  0  0  0  0  0  0  0  0  0
    3.7088    0.5046   20.3593 C   0  0  0  0  0  0  0  0  0  0  0  0
    4.0610   -0.3984   21.5000 N   0  0  0  0  0  0  0  0  0  0  0  0
    2.6816   -2.6085   22.7483 C   0  0  2  0  0  0  0  0  0  0  0  0
    3.3380   -3.6774   23.4644 N   0  0  0  0  0  0  0  0  0  0  0  0
    1.9734   -1.6384   23.7780 C   0  0  0  0  0  0  0  0  0  0  0  0
    1.2400   -0.4553   23.0014 C   0  0  2  0  0  0  0  0  0  0  0  0
    0.5890    0.4642   23.9711 N   0  0  0  0  0  0  0  0  0  0  0  0
    0.1715   -1.0762   21.9866 C   0  0  2  0  0  0  0  0  0  0  0  0
    0.9286   -2.0409   20.9777 C   0  0  2  0  0  0  0  0  0  0  0  0
   -0.0182   -2.5984   20.0634 O   0  0  0  0  0  0  0  0  0  0  0  0
    1.6537   -3.2055   21.7608 C   0  0  1  0  0  0  0  0  0  0  0  0
    2.3566   -4.0641   20.8284 O   0  0  0  0  0  0  0  0  0  0  0  0
    2.7581   -5.3672   21.0844 C   0  0  2  0  0  0  0  0  0  0  0  0
    3.5243   -5.8831   19.8147 C   0  0  2  0  0  0  0  0  0  0  0  0
    4.5999   -5.0440   19.5425 O   0  0  0  0  0  0  0  0  0  0  0  0
    2.5632   -6.0103   18.5571 C   0  0  1  0  0  0  0  0  0  0  0  0
    3.3099   -6.5146   17.3634 N   0  0  0  0  0  0  0  0  0  0  0  0
    1.3614   -6.9835   18.9312 C   0  0  2  0  0  0  0  0  0  0  0  0
    0.4700   -7.1415   17.8204 O   0  0  0  0  0  0  0  0  0  0  0  0
    0.6195   -6.3860   20.1887 C   0  0  2  0  0  0  0  0  0  0  0  0
    1.5801   -6.2291   21.3597 O   0  0  0  0  0  0  0  0  0  0  0  0
   -0.5270   -7.2707   20.6169 C   0  0  0  0  0  0  0  0  0  0  0  0
   -1.5279   -7.4181   19.5925 O   0  0  0  0  0  0  0  0  0  0  0  0
   -1.7813    2.0350   19.7071 O   0  0  0  0  0  0  0  0  0  0  0  0
   -0.0908    1.8618   17.4186 O   0  0  0  0  0  0  0  0  0  0  0  0
    4.6146   -4.1587   22.9891 C   0  0  0  0  0  0  0  0  0  0  0  0
    4.9406   -3.9863   21.7771 O   0  0  0  0  0  0  0  0  0  0  0  0
    5.5458   -4.8856   24.0074 C   0  0  2  0  0  0  0  0  0  0  0  0
    4.6666   -8.3031   22.4550 N   0  0  0  0  0  0  0  0  0  0  0  0
    5.3271   -6.4294   23.9609 C   0  0  0  0  0  0  0  0  0  0  0  0
    5.3850   -7.0089   22.5376 C   0  0  0  0  0  0  0  0  0  0  0  0
    5.3138   -4.5474   25.2115 O   0  0  0  0  0  0  0  0  0  0  0  0
  1  2  1  6  0  0  0
  1  3  1  0  0  0  0
  1  8  1  0  0  0  0
  3  4  1  0  0  0  0
  3 32  1  6  0  0  0
  4  5  1  0  0  0  0
  4 33  1  6  0  0  0
  5  6  1  6  0  0  0
  5  7  1  0  0  0  0
  7  8  1  0  0  0  0
  7  9  1  1  0  0  0
  9 10  1  0  0  0  0
 11 12  1  1  0  0  0
 11 13  1  0  0  0  0
 11 19  1  0  0  0  0
 12 34  1  0  0  0  0
 13 14  1  0  0  0  0
 14 15  1  1  0  0  0
 14 16  1  0  0  0  0
 16  2  1  6  0  0  0
 16 17  1  0  0  0  0
 17 18  1  6  0  0  0
 17 19  1  0  0  0  0
 19 20  1  6  0  0  0
 21 20  1  6  0  0  0
 21 22  1  0  0  0  0
 21 29  1  0  0  0  0
 22 23  1  6  0  0  0
 22 24  1  0  0  0  0
 24 25  1  6  0  0  0
 24 26  1  0  0  0  0
 26 27  1  6  0  0  0
 26 28  1  0  0  0  0
 28 29  1  0  0  0  0
 28 30  1  1  0  0  0
 30 31  1  0  0  0  0
 34 35  2  0  0  0  0
 36 34  1  6  0  0  0
 36 38  1  0  0  0  0
 36 40  1  0  0  0  0
 37 39  1  0  0  0  0
 38 39  1  0  0  0  0
M  END
>  <CHROM.1>
146.79332252,21.85073299,-168.96251952,-142.25871508,80.25177178,-177.94535935
-60.89157986,93.33242108,50.31748020,-157.38935779,2.04693706,-2.95761522
20.91592686,-2.11166831,0.84550908,-2.89015854

>  <Name>
ligand

>  <RI>
0

>  <Rbt.Current_Directory>
/home/itssahil/PROJECTS/Mol_Feturizer/New_Systems/rnas/4P20

>  <Rbt.Executable>
rbdock ($Id: //depot/dev/client3/rdock/2013.1/src/exe/rbdock.cxx#4 $)

>  <Rbt.Library>
libRbt.so (2013.1, Build901 2013/11/27)

>  <Rbt.Parameter_File>
/export/apps/rDock/src/rDock_2013.1_src/data/scripts/dock_solv.prm

>  <Rbt.Receptor>
prm/blind_docking_100.prm

>  <SCORE>
79.5756

>  <SCORE.INTER>
58.764

>  <SCORE.INTER.CONST>
1

>  <SCORE.INTER.POLAR>
0

>  <SCORE.INTER.ROT>
10

>  <SCORE.INTER.SOLV>
31.0889

>  <SCORE.INTER.VDW>
18.5463

>  <SCORE.INTER.norm>
1.4691

>  <SCORE.INTRA>
2.63735

>  <SCORE.INTRA.DIHEDRAL>
-12.021

>  <SCORE.INTRA.DIHEDRAL.0>
28.2802

>  <SCORE.INTRA.POLAR>
0

>  <SCORE.INTRA.POLAR.0>
0

>  <SCORE.INTRA.REPUL>
0

>  <SCORE.INTRA.REPUL.0>
0

>  <SCORE.INTRA.SOLV>
9.35137

>  <SCORE.INTRA.SOLV.lig_0>
-101.981

>  <SCORE.INTRA.VDW>
3.97218

>  <SCORE.INTRA.VDW.0>
-5.72964

>  <SCORE.INTRA.norm>
0.0659337

>  <SCORE.RESTR>
18.1743

>  <SCORE.RESTR.CAVITY>
18.1743

>  <SCORE.RESTR.norm>
0.454356

>  <SCORE.SYSTEM>
0

>  <SCORE.SYSTEM.CONST>
0

>  <SCORE.SYSTEM.DIHEDRAL>
0

>  <SCORE.SYSTEM.SOLV>
0

>  <SCORE.SYSTEM.norm>
0

>  <SCORE.heavy>
40

>  <SCORE.norm>
1.98939

>  <RMSD>
9.731

$$$$
ligand
 OpenBabel11021811503D
libRbt.so/2013.1/901 2013/11/27
 40 42  0  0  0  0  0  0  0  0999 V2000
    7.9173   -2.6558   23.6509 C   0  0  2  0  0  0  0  0  0  0  0  0
    7.1772   -1.4968   24.0657 O   0  0  0  0  0  0  0  0  0  0  0  0
    8.1764   -3.6140   24.8732 C   0  0  1  0  0  0  0  0  0  0  0  0
    9.1106   -2.9543   25.9292 C   0  0  2  0  0  0  0  0  0  0  0  0
   10.4657   -2.6269   25.2258 C   0  0  2  0  0  0  0  0  0  0  0  0
   11.3687   -2.0357   26.1847 O   0  0  0  0  0  0  0  0  0  0  0  0
   10.1806   -1.6234   24.0245 C   0  0  2  0  0  0  0  0  0  0  0  0
    9.2298   -2.2626   23.0459 O   0  0  0  0  0  0  0  0  0  0  0  0
   11.4441   -1.2567   23.2582 C   0  0  0  0  0  0  0  0  0  0  0  0
   12.5576   -0.8771   24.1838 N   0  0  0  0  0  0  0  0  0  0  0  0
    2.9867   -2.8209   24.1911 C   0  0  2  0  0  0  0  0  0  0  0  0
    1.5436   -2.7650   24.1595 N   0  0  0  0  0  0  0  0  0  0  0  0
    3.5255   -1.9200   25.3746 C   0  0  0  0  0  0  0  0  0  0  0  0
    5.1181   -1.9680   25.4190 C   0  0  2  0  0  0  0  0  0  0  0  0
    5.6220   -1.1342   26.5417 N   0  0  0  0  0  0  0  0  0  0  0  0
    5.6980   -1.4618   24.0174 C   0  0  2  0  0  0  0  0  0  0  0  0
    5.1287   -2.3939   22.8646 C   0  0  2  0  0  0  0  0  0  0  0  0
    5.6447   -1.9516   21.6072 O   0  0  0  0  0  0  0  0  0  0  0  0
    3.5503   -2.3398   22.8350 C   0  0  1  0  0  0  0  0  0  0  0  0
    3.0462   -3.2111   21.7922 O   0  0  0  0  0  0  0  0  0  0  0  0
    3.7845   -3.6873   20.7184 C   0  0  2  0  0  0  0  0  0  0  0  0
    2.7971   -4.4570   19.7710 C   0  0  2  0  0  0  0  0  0  0  0  0
    1.7723   -3.6061   19.3699 O   0  0  0  0  0  0  0  0  0  0  0  0
    2.2196   -5.7663   20.4592 C   0  0  1  0  0  0  0  0  0  0  0  0
    1.2921   -6.4901   19.5358 N   0  0  0  0  0  0  0  0  0  0  0  0
    3.4376   -6.6957   20.8880 C   0  0  2  0  0  0  0  0  0  0  0  0
    2.9661   -7.9003   21.5045 O   0  0  0  0  0  0  0  0  0  0  0  0
    4.3646   -5.8710   21.8625 C   0  0  2  0  0  0  0  0  0  0  0  0
    4.8595   -4.5976   21.1901 O   0  0  0  0  0  0  0  0  0  0  0  0
    5.5593   -6.6854   22.2982 C   0  0  0  0  0  0  0  0  0  0  0  0
    5.1926   -7.8310   23.0892 O   0  0  0  0  0  0  0  0  0  0  0  0
    6.8901   -3.9579   25.4658 O   0  0  0  0  0  0  0  0  0  0  0  0
    9.3122   -3.8358   26.9636 O   0  0  0  0  0  0  0  0  0  0  0  0
    0.8980   -1.5159   23.8281 C   0  0  0  0  0  0  0  0  0  0  0  0
    1.5176   -0.4235   23.9948 O   0  0  0  0  0  0  0  0  0  0  0  0
   -0.5595   -1.5715   23.2758 C   0  0  2  0  0  0  0  0  0  0  0  0
    0.1478   -4.9217   21.4820 N   0  0  0  0  0  0  0  0  0  0  0  0
   -0.7076   -2.6936   22.2022 C   0  0  0  0  0  0  0  0  0  0  0  0
   -0.1142   -4.0412   22.6457 C   0  0  0  0  0  0  0  0  0  0  0  0
   -0.9029   -0.4959   22.6901 O   0  0  0  0  0  0  0  0  0  0  0  0
  1  2  1  1  0  0  0
  1  3  1  0  0  0  0
  1  8  1  0  0  0  0
  3  4  1  0  0  0  0
  3 32  1  1  0  0  0
  4  5  1  0  0  0  0
  4 33  1  1  0  0  0
  5  6  1  1  0  0  0
  5  7  1  0  0  0  0
  7  8  1  0  0  0  0
  7  9  1  6  0  0  0
  9 10  1  0  0  0  0
 11 12  1  6  0  0  0
 11 13  1  0  0  0  0
 11 19  1  0  0  0  0
 12 34  1  0  0  0  0
 13 14  1  0  0  0  0
 14 15  1  1  0  0  0
 14 16  1  0  0  0  0
 16  2  1  1  0  0  0
 16 17  1  0  0  0  0
 17 18  1  6  0  0  0
 17 19  1  0  0  0  0
 19 20  1  6  0  0  0
 21 20  1  1  0  0  0
 21 22  1  0  0  0  0
 21 29  1  0  0  0  0
 22 23  1  1  0  0  0
 22 24  1  0  0  0  0
 24 25  1  6  0  0  0
 24 26  1  0  0  0  0
 26 27  1  1  0  0  0
 26 28  1  0  0  0  0
 28 29  1  0  0  0  0
 28 30  1  6  0  0  0
 30 31  1  0  0  0  0
 34 35  2  0  0  0  0
 36 34  1  6  0  0  0
 36 38  1  0  0  0  0
 36 40  1  0  0  0  0
 37 39  1  0  0  0  0
 38 39  1  0  0  0  0
M  END
>  <CHROM.1>
-91.41736619,90.95679268,-47.45563865,66.33779344,-138.88258994,-173.90157274
-64.83451432,-44.43009301,48.08232441,-160.56230032,4.87493586,-3.27017716
23.16015727,-0.33959521,0.19822483,-2.56154483

>  <Name>
ligand

>  <RI>
0

>  <Rbt.Current_Directory>
/home/itssahil/PROJECTS/Mol_Feturizer/New_Systems/rnas/4P20

>  <Rbt.Executable>
rbdock ($Id: //depot/dev/client3/rdock/2013.1/src/exe/rbdock.cxx#4 $)

>  <Rbt.Library>
libRbt.so (2013.1, Build901 2013/11/27)

>  <Rbt.Parameter_File>
/export/apps/rDock/src/rDock_2013.1_src/data/scripts/dock_solv.prm

>  <Rbt.Receptor>
prm/blind_docking_60.prm

>  <SCORE>
55.6353

>  <SCORE.INTER>
33.4929

>  <SCORE.INTER.CONST>
1

>  <SCORE.INTER.POLAR>
0

>  <SCORE.INTER.ROT>
10

>  <SCORE.INTER.SOLV>
33.6738

>  <SCORE.INTER.VDW>
0.837344

>  <SCORE.INTER.norm>
0.837323

>  <SCORE.INTRA>
7.9936

>  <SCORE.INTRA.DIHEDRAL>
-11.3267

>  <SCORE.INTRA.DIHEDRAL.0>
28.2802

>  <SCORE.INTRA.POLAR>
0

>  <SCORE.INTRA.POLAR.0>
0

>  <SCORE.INTRA.REPUL>
0

>  <SCORE.INTRA.REPUL.0>
0

>  <SCORE.INTRA.SOLV>
11.1279

>  <SCORE.INTRA.SOLV.lig_0>
-101.981

>  <SCORE.INTRA.VDW>
8.09301

>  <SCORE.INTRA.VDW.0>
-5.72964

>  <SCORE.INTRA.norm>
0.19984

>  <SCORE.RESTR>
14.1488

>  <SCORE.RESTR.CAVITY>
14.1488

>  <SCORE.RESTR.norm>
0.353719

>  <SCORE.SYSTEM>
0

>  <SCORE.SYSTEM.CONST>
0

>  <SCORE.SYSTEM.DIHEDRAL>
0

>  <SCORE.SYSTEM.SOLV>
0

>  <SCORE.SYSTEM.norm>
0

>  <SCORE.heavy>
40

>  <SCORE.norm>
1.39088

>  <RMSD>
9.738

$$$$
ligand
 OpenBabel11021811503D
libRbt.so/2013.1/901 2013/11/27
 40 42  0  0  0  0  0  0  0  0999 V2000
    5.2149   -6.8324   20.8447 C   0  0  2  0  0  0  0  0  0  0  0  0
    4.0991   -6.2191   20.1801 O   0  0  0  0  0  0  0  0  0  0  0  0
    4.7300   -8.0159   21.7632 C   0  0  1  0  0  0  0  0  0  0  0  0
    3.8520   -7.5027   22.9416 C   0  0  2  0  0  0  0  0  0  0  0  0
    4.7173   -6.5106   23.7814 C   0  0  2  0  0  0  0  0  0  0  0  0
    3.9412   -6.0330   24.9013 O   0  0  0  0  0  0  0  0  0  0  0  0
    5.1556   -5.3038   22.8417 C   0  0  2  0  0  0  0  0  0  0  0  0
    5.9548   -5.8323   21.6789 O   0  0  0  0  0  0  0  0  0  0  0  0
    6.0253   -4.2859   23.5666 C   0  0  0  0  0  0  0  0  0  0  0  0
    5.2350   -3.5001   24.5658 N   0  0  0  0  0  0  0  0  0  0  0  0
    0.7555   -3.4923   21.0258 C   0  0  2  0  0  0  0  0  0  0  0  0
   -0.2419   -2.7562   21.7673 N   0  0  0  0  0  0  0  0  0  0  0  0
    0.5294   -5.0445   21.2315 C   0  0  0  0  0  0  0  0  0  0  0  0
    1.6266   -5.8705   20.4223 C   0  0  2  0  0  0  0  0  0  0  0  0
    1.4027   -7.3288   20.6034 N   0  0  0  0  0  0  0  0  0  0  0  0
    3.0828   -5.4423   20.9253 C   0  0  2  0  0  0  0  0  0  0  0  0
    3.2602   -3.8803   20.7001 C   0  0  2  0  0  0  0  0  0  0  0  0
    4.5613   -3.4881   21.1436 O   0  0  0  0  0  0  0  0  0  0  0  0
    2.1645   -3.0750   21.5040 C   0  0  1  0  0  0  0  0  0  0  0  0
    2.3271   -1.6537   21.2714 O   0  0  0  0  0  0  0  0  0  0  0  0
    3.1764   -1.0868   20.3322 C   0  0  2  0  0  0  0  0  0  0  0  0
    3.9126    0.1141   21.0258 C   0  0  2  0  0  0  0  0  0  0  0  0
    4.5966   -0.3401   22.1487 O   0  0  0  0  0  0  0  0  0  0  0  0
    2.9075    1.2849   21.4008 C   0  0  1  0  0  0  0  0  0  0  0  0
    3.6308    2.4226   22.0482 N   0  0  0  0  0  0  0  0  0  0  0  0
    2.1640    1.7610   20.0772 C   0  0  2  0  0  0  0  0  0  0  0  0
    1.2521    2.8291   20.3620 O   0  0  0  0  0  0  0  0  0  0  0  0
    1.4211    0.5152   19.4567 C   0  0  2  0  0  0  0  0  0  0  0  0
    2.4051   -0.6074   19.1567 O   0  0  0  0  0  0  0  0  0  0  0  0
    0.7055    0.8872   18.1800 C   0  0  0  0  0  0  0  0  0  0  0  0
    0.0435   -0.2346   17.5667 O   0  0  0  0  0  0  0  0  0  0  0  0
    3.9860   -8.9597   20.9388 O   0  0  0  0  0  0  0  0  0  0  0  0
    3.4687   -8.5717   23.7149 O   0  0  0  0  0  0  0  0  0  0  0  0
   -0.0658   -2.5755   23.1897 C   0  0  0  0  0  0  0  0  0  0  0  0
    0.6647   -3.3803   23.8407 O   0  0  0  0  0  0  0  0  0  0  0  0
   -0.8005   -1.3799   23.8702 C   0  0  2  0  0  0  0  0  0  0  0  0
   -1.8958    0.6984   20.7664 N   0  0  0  0  0  0  0  0  0  0  0  0
   -1.7355   -0.6494   22.8575 C   0  0  0  0  0  0  0  0  0  0  0  0
   -0.9874   -0.0843   21.6384 C   0  0  0  0  0  0  0  0  0  0  0  0
    0.0021   -0.4882   24.2931 O   0  0  0  0  0  0  0  0  0  0  0  0
  1  2  1  1  0  0  0
  1  3  1  0  0  0  0
  1  8  1  0  0  0  0
  3  4  1  0  0  0  0
  3 32  1  6  0  0  0
  4  5  1  0  0  0  0
  4 33  1  1  0  0  0
  5  6  1  1  0  0  0
  5  7  1  0  0  0  0
  7  8  1  0  0  0  0
  7  9  1  1  0  0  0
  9 10  1  0  0  0  0
 11 12  1  1  0  0  0
 11 13  1  0  0  0  0
 11 19  1  0  0  0  0
 12 34  1  0  0  0  0
 13 14  1  0  0  0  0
 14 15  1  1  0  0  0
 14 16  1  0  0  0  0
 16  2  1  6  0  0  0
 16 17  1  0  0  0  0
 17 18  1  1  0  0  0
 17 19  1  0  0  0  0
 19 20  1  6  0  0  0
 21 20  1  1  0  0  0
 21 22  1  0  0  0  0
 21 29  1  0  0  0  0
 22 23  1  1  0  0  0
 22 24  1  0  0  0  0
 24 25  1  6  0  0  0
 24 26  1  0  0  0  0
 26 27  1  1  0  0  0
 26 28  1  0  0  0  0
 28 29  1  0  0  0  0
 28 30  1  6  0  0  0
 30 31  1  0  0  0  0
 34 35  2  0  0  0  0
 36 34  1  6  0  0  0
 36 38  1  0  0  0  0
 36 40  1  0  0  0  0
 37 39  1  0  0  0  0
 38 39  1  0  0  0  0
M  END
>  <CHROM.1>
68.26924498,-134.84331240,-70.82498984,79.50558088,-110.86495047,-135.80467598
178.51766309,5.46496223,-59.53395634,-175.13077905,2.44492360,-3.00141959
21.61338672,-1.16303268,0.04007231,-0.21911697

>  <Name>
ligand

>  <RI>
0

>  <Rbt.Current_Directory>
/home/itssahil/PROJECTS/Mol_Feturizer/New_Systems/rnas/4P20

>  <Rbt.Executable>
rbdock ($Id: //depot/dev/client3/rdock/2013.1/src/exe/rbdock.cxx#4 $)

>  <Rbt.Library>
libRbt.so (2013.1, Build901 2013/11/27)

>  <Rbt.Parameter_File>
/export/apps/rDock/src/rDock_2013.1_src/data/scripts/dock_solv.prm

>  <Rbt.Receptor>
prm/blind_docking_100.prm

>  <SCORE>
59.5964

>  <SCORE.INTER>
39.6276

>  <SCORE.INTER.CONST>
1

>  <SCORE.INTER.POLAR>
0

>  <SCORE.INTER.ROT>
10

>  <SCORE.INTER.SOLV>
29.8802

>  <SCORE.INTER.VDW>
6.19165

>  <SCORE.INTER.norm>
0.990689

>  <SCORE.INTRA>
5.38994

>  <SCORE.INTRA.DIHEDRAL>
-5.72031

>  <SCORE.INTRA.DIHEDRAL.0>
28.2802

>  <SCORE.INTRA.POLAR>
0

>  <SCORE.INTRA.POLAR.0>
0

>  <SCORE.INTRA.REPUL>
0

>  <SCORE.INTRA.REPUL.0>
0

>  <SCORE.INTRA.SOLV>
7.89753

>  <SCORE.INTRA.SOLV.lig_0>
-101.981

>  <SCORE.INTRA.VDW>
4.30133

>  <SCORE.INTRA.VDW.0>
-5.72964

>  <SCORE.INTRA.norm>
0.134748

>  <SCORE.RESTR>
14.5789

>  <SCORE.RESTR.CAVITY>
14.5789

>  <SCORE.RESTR.norm>
0.364471

>  <SCORE.SYSTEM>
0

>  <SCORE.SYSTEM.CONST>
0

>  <SCORE.SYSTEM.DIHEDRAL>
0

>  <SCORE.SYSTEM.SOLV>
0

>  <SCORE.SYSTEM.norm>
0

>  <SCORE.heavy>
40

>  <SCORE.norm>
1.48991

>  <RMSD>
9.847

$$$$
ligand
 OpenBabel11021811503D
libRbt.so/2013.1/901 2013/11/27
 40 42  0  0  0  0  0  0  0  0999 V2000
    7.2321   -2.7185   24.8563 C   0  0  2  0  0  0  0  0  0  0  0  0
    6.4590   -2.2682   23.7326 O   0  0  0  0  0  0  0  0  0  0  0  0
    7.8728   -1.4954   25.6133 C   0  0  1  0  0  0  0  0  0  0  0  0
    8.9234   -0.7622   24.7292 C   0  0  2  0  0  0  0  0  0  0  0  0
   10.0384   -1.7925   24.3638 C   0  0  2  0  0  0  0  0  0  0  0  0
   11.0465   -1.1387   23.5632 O   0  0  0  0  0  0  0  0  0  0  0  0
    9.3714   -2.9940   23.5619 C   0  0  2  0  0  0  0  0  0  0  0  0
    8.3190   -3.6507   24.4171 O   0  0  0  0  0  0  0  0  0  0  0  0
   10.3790   -4.0680   23.1752 C   0  0  0  0  0  0  0  0  0  0  0  0
   11.1560   -4.5456   24.3621 N   0  0  0  0  0  0  0  0  0  0  0  0
    3.6477   -4.6497   21.3337 C   0  0  2  0  0  0  0  0  0  0  0  0
    2.4394   -5.3403   20.9471 N   0  0  0  0  0  0  0  0  0  0  0  0
    4.2097   -5.2759   22.6733 C   0  0  0  0  0  0  0  0  0  0  0  0
    5.5417   -4.5201   23.1154 C   0  0  2  0  0  0  0  0  0  0  0  0
    6.0774   -5.1205   24.3653 N   0  0  0  0  0  0  0  0  0  0  0  0
    5.2229   -2.9655   23.3112 C   0  0  2  0  0  0  0  0  0  0  0  0
    4.6616   -2.3848   21.9439 C   0  0  2  0  0  0  0  0  0  0  0  0
    4.3770   -0.9936   22.1077 O   0  0  0  0  0  0  0  0  0  0  0  0
    3.3448   -3.1453   21.5161 C   0  0  1  0  0  0  0  0  0  0  0  0
    2.8575   -2.6182   20.2570 O   0  0  0  0  0  0  0  0  0  0  0  0
    1.5308   -2.3357   19.9656 C   0  0  2  0  0  0  0  0  0  0  0  0
    1.3425   -0.7813   20.0829 C   0  0  2  0  0  0  0  0  0  0  0  0
    2.2209   -0.1357   19.2188 O   0  0  0  0  0  0  0  0  0  0  0  0
    1.5309   -0.2754   21.5762 C   0  0  1  0  0  0  0  0  0  0  0  0
    1.3351    1.2046   21.6671 N   0  0  0  0  0  0  0  0  0  0  0  0
    0.4976   -1.0457   22.5089 C   0  0  2  0  0  0  0  0  0  0  0  0
    0.6198   -0.6132   23.8696 O   0  0  0  0  0  0  0  0  0  0  0  0
    0.7679   -2.5935   22.3668 C   0  0  2  0  0  0  0  0  0  0  0  0
    0.6296   -3.0360   20.9164 O   0  0  0  0  0  0  0  0  0  0  0  0
   -0.1930   -3.3949   23.2123 C   0  0  0  0  0  0  0  0  0  0  0  0
   -1.5699   -3.0597   22.9581 O   0  0  0  0  0  0  0  0  0  0  0  0
    6.8022   -0.5865   26.0028 O   0  0  0  0  0  0  0  0  0  0  0  0
    9.4576    0.2844   25.4412 O   0  0  0  0  0  0  0  0  0  0  0  0
    2.4498   -6.1570   19.7555 C   0  0  0  0  0  0  0  0  0  0  0  0
    3.3080   -5.9377   18.8498 O   0  0  0  0  0  0  0  0  0  0  0  0
    1.3817   -7.2872   19.6356 C   0  0  2  0  0  0  0  0  0  0  0  0
   -1.5359   -7.9371   18.8015 N   0  0  0  0  0  0  0  0  0  0  0  0
    0.8112   -7.3649   18.1858 C   0  0  0  0  0  0  0  0  0  0  0  0
   -0.3411   -8.3729   18.0394 C   0  0  0  0  0  0  0  0  0  0  0  0
    0.3734   -7.0899   20.3856 O   0  0  0  0  0  0  0  0  0  0  0  0
  1  2  1  6  0  0  0
  1  3  1  0  0  0  0
  1  8  1  0  0  0  0
  3  4  1  0  0  0  0
  3 32  1  6  0  0  0
  4  5  1  0  0  0  0
  4 33  1  1  0  0  0
  5  6  1  6  0  0  0
  5  7  1  0  0  0  0
  7  8  1  0  0  0  0
  7  9  1  1  0  0  0
  9 10  1  0  0  0  0
 11 12  1  1  0  0  0
 11 13  1  0  0  0  0
 11 19  1  0  0  0  0
 12 34  1  0  0  0  0
 13 14  1  0  0  0  0
 14 15  1  1  0  0  0
 14 16  1  0  0  0  0
 16  2  1  6  0  0  0
 16 17  1  0  0  0  0
 17 18  1  1  0  0  0
 17 19  1  0  0  0  0
 19 20  1  6  0  0  0
 21 20  1  1  0  0  0
 21 22  1  0  0  0  0
 21 29  1  0  0  0  0
 22 23  1  6  0  0  0
 22 24  1  0  0  0  0
 24 25  1  6  0  0  0
 24 26  1  0  0  0  0
 26 27  1  1  0  0  0
 26 28  1  0  0  0  0
 28 29  1  0  0  0  0
 28 30  1  1  0  0  0
 30 31  1  0  0  0  0
 34 35  2  0  0  0  0
 36 34  1  6  0  0  0
 36 38  1  0  0  0  0
 36 40  1  0  0  0  0
 37 39  1  0  0  0  0
 38 39  1  0  0  0  0
M  END
>  <CHROM.1>
-145.64346777,-52.73013933,53.00377279,-112.08462827,103.25067251,101.99372568
53.15105432,139.19089611,-174.58196583,66.54896746,4.11320619,-3.19251062
22.19500238,-0.44601427,0.32363932,-2.74597551

>  <Name>
ligand

>  <RI>
0

>  <Rbt.Current_Directory>
/home/itssahil/PROJECTS/Mol_Feturizer/New_Systems/rnas/4P20

>  <Rbt.Executable>
rbdock ($Id: //depot/dev/client3/rdock/2013.1/src/exe/rbdock.cxx#4 $)

>  <Rbt.Library>
libRbt.so (2013.1, Build901 2013/11/27)

>  <Rbt.Parameter_File>
/export/apps/rDock/src/rDock_2013.1_src/data/scripts/dock_solv.prm

>  <Rbt.Receptor>
prm/blind_docking_60.prm

>  <SCORE>
27.1886

>  <SCORE.INTER>
11.3439

>  <SCORE.INTER.CONST>
1

>  <SCORE.INTER.POLAR>
0

>  <SCORE.INTER.ROT>
10

>  <SCORE.INTER.SOLV>
28.3767

>  <SCORE.INTER.VDW>
-12.163

>  <SCORE.INTER.norm>
0.283597

>  <SCORE.INTRA>
1.51367

>  <SCORE.INTRA.DIHEDRAL>
-8.17311

>  <SCORE.INTRA.DIHEDRAL.0>
28.2802

>  <SCORE.INTRA.POLAR>
0

>  <SCORE.INTRA.POLAR.0>
0

>  <SCORE.INTRA.REPUL>
0

>  <SCORE.INTRA.REPUL.0>
0

>  <SCORE.INTRA.SOLV>
5.28433

>  <SCORE.INTRA.SOLV.lig_0>
-101.981

>  <SCORE.INTRA.VDW>
2.95806

>  <SCORE.INTRA.VDW.0>
-5.72964

>  <SCORE.INTRA.norm>
0.0378419

>  <SCORE.RESTR>
14.331

>  <SCORE.RESTR.CAVITY>
14.331

>  <SCORE.RESTR.norm>
0.358275

>  <SCORE.SYSTEM>
0

>  <SCORE.SYSTEM.CONST>
0

>  <SCORE.SYSTEM.DIHEDRAL>
0

>  <SCORE.SYSTEM.SOLV>
0

>  <SCORE.SYSTEM.norm>
0

>  <SCORE.heavy>
40

>  <SCORE.norm>
0.679714

>  <RMSD>
9.858

$$$$
ligand
 OpenBabel11021811503D
libRbt.so/2013.1/901 2013/11/27
 40 42  0  0  0  0  0  0  0  0999 V2000
    6.4835   -4.6167   12.8879 C   0  0  2  0  0  0  0  0  0  0  0  0
    6.2965   -5.2988   11.6378 O   0  0  0  0  0  0  0  0  0  0  0  0
    8.0168   -4.4182   13.1865 C   0  0  1  0  0  0  0  0  0  0  0  0
    8.7364   -5.7798   13.4127 C   0  0  2  0  0  0  0  0  0  0  0  0
    8.0540   -6.4811   14.6295 C   0  0  2  0  0  0  0  0  0  0  0  0
    8.7146   -7.7391   14.8854 O   0  0  0  0  0  0  0  0  0  0  0  0
    6.5179   -6.7095   14.2834 C   0  0  2  0  0  0  0  0  0  0  0  0
    5.8575   -5.3825   14.0126 O   0  0  0  0  0  0  0  0  0  0  0  0
    5.7557   -7.3734   15.4220 C   0  0  0  0  0  0  0  0  0  0  0  0
    6.4767   -8.5803   15.9359 N   0  0  0  0  0  0  0  0  0  0  0  0
    6.3766   -9.3561    9.9461 C   0  0  2  0  0  0  0  0  0  0  0  0
    6.6426  -10.7704    9.8224 N   0  0  0  0  0  0  0  0  0  0  0  0
    7.7432   -8.5701   10.0779 C   0  0  0  0  0  0  0  0  0  0  0  0
    7.4653   -7.0070   10.2203 C   0  0  2  0  0  0  0  0  0  0  0  0
    8.7508   -6.2685   10.3274 N   0  0  0  0  0  0  0  0  0  0  0  0
    6.5435   -6.7521   11.5018 C   0  0  2  0  0  0  0  0  0  0  0  0
    5.1887   -7.5610   11.3233 C   0  0  2  0  0  0  0  0  0  0  0  0
    4.3556   -7.3364   12.4629 O   0  0  0  0  0  0  0  0  0  0  0  0
    5.4793   -9.1070   11.1794 C   0  0  1  0  0  0  0  0  0  0  0  0
    4.2354   -9.8280   10.9964 O   0  0  0  0  0  0  0  0  0  0  0  0
    3.2833  -10.0475   11.9814 C   0  0  2  0  0  0  0  0  0  0  0  0
    4.0486  -10.3448   13.3197 C   0  0  2  0  0  0  0  0  0  0  0  0
    4.8885   -9.2791   13.6266 O   0  0  0  0  0  0  0  0  0  0  0  0
    4.8569  -11.7096   13.2464 C   0  0  1  0  0  0  0  0  0  0  0  0
    5.5674  -11.9791   14.5345 N   0  0  0  0  0  0  0  0  0  0  0  0
    3.8419  -12.8843   12.8983 C   0  0  2  0  0  0  0  0  0  0  0  0
    4.5234  -14.1431   12.8333 O   0  0  0  0  0  0  0  0  0  0  0  0
    3.1383  -12.5353   11.5300 C   0  0  2  0  0  0  0  0  0  0  0  0
    2.4162  -11.1977   11.6185 O   0  0  0  0  0  0  0  0  0  0  0  0
    2.1406  -13.6006   11.1424 C   0  0  0  0  0  0  0  0  0  0  0  0
    1.3698  -14.0741   12.2624 O   0  0  0  0  0  0  0  0  0  0  0  0
    8.6118   -3.7003   12.0664 O   0  0  0  0  0  0  0  0  0  0  0  0
   10.0637   -5.5473   13.6807 O   0  0  0  0  0  0  0  0  0  0  0  0
    7.2620  -11.2638    8.6141 C   0  0  0  0  0  0  0  0  0  0  0  0
    7.1726  -10.5941    7.5424 O   0  0  0  0  0  0  0  0  0  0  0  0
    8.0207  -12.6245    8.6858 C   0  0  2  0  0  0  0  0  0  0  0  0
   10.2174  -12.0023   11.8303 N   0  0  0  0  0  0  0  0  0  0  0  0
    9.3029  -12.5034    9.5660 C   0  0  0  0  0  0  0  0  0  0  0  0
    8.9987  -12.3628   11.0669 C   0  0  0  0  0  0  0  0  0  0  0  0
    8.4283  -13.0188    7.5472 O   0  0  0  0  0  0  0  0  0  0  0  0
  1  2  1  6  0  0  0
  1  3  1  0  0  0  0
  1  8  1  0  0  0  0
  3  4  1  0  0  0  0
  3 32  1  6  0  0  0
  4  5  1  0  0  0  0
  4 33  1  1  0  0  0
  5  6  1  6  0  0  0
  5  7  1  0  0  0  0
  7  8  1  0  0  0  0
  7  9  1  1  0  0  0
  9 10  1  0  0  0  0
 11 12  1  1  0  0  0
 11 13  1  0  0  0  0
 11 19  1  0  0  0  0
 12 34  1  0  0  0  0
 13 14  1  0  0  0  0
 14 15  1  1  0  0  0
 14 16  1  0  0  0  0
 16  2  1  6  0  0  0
 16 17  1  0  0  0  0
 17 18  1  1  0  0  0
 17 19  1  0  0  0  0
 19 20  1  6  0  0  0
 21 20  1  6  0  0  0
 21 22  1  0  0  0  0
 21 29  1  0  0  0  0
 22 23  1  6  0  0  0
 22 24  1  0  0  0  0
 24 25  1  1  0  0  0
 24 26  1  0  0  0  0
 26 27  1  6  0  0  0
 26 28  1  0  0  0  0
 28 29  1  0  0  0  0
 28 30  1  1  0  0  0
 30 31  1  0  0  0  0
 34 35  2  0  0  0  0
 36 34  1  6  0  0  0
 36 38  1  0  0  0  0
 36 40  1  0  0  0  0
 37 39  1  0  0  0  0
 38 39  1  0  0  0  0
M  END
>  <CHROM.1>
75.03968676,-130.90918598,-48.90333126,-69.15041285,167.70320883,-38.91415320
41.10959155,-67.66064321,71.46298173,-169.52140994,6.28369735,-9.25839745
11.94944414,1.09324700,0.61447995,0.57145195

>  <Name>
ligand

>  <RI>
0

>  <Rbt.Current_Directory>
/home/itssahil/PROJECTS/Mol_Feturizer/New_Systems/rnas/4P20

>  <Rbt.Executable>
rbdock ($Id: //depot/dev/client3/rdock/2013.1/src/exe/rbdock.cxx#4 $)

>  <Rbt.Library>
libRbt.so (2013.1, Build901 2013/11/27)

>  <Rbt.Parameter_File>
/export/apps/rDock/src/rDock_2013.1_src/data/scripts/dock_solv.prm

>  <Rbt.Receptor>
prm/blind_docking_20.prm

>  <SCORE>
32.7515

>  <SCORE.INTER>
4.91006

>  <SCORE.INTER.CONST>
1

>  <SCORE.INTER.POLAR>
0

>  <SCORE.INTER.ROT>
10

>  <SCORE.INTER.SOLV>
18.1591

>  <SCORE.INTER.VDW>
-13.0463

>  <SCORE.INTER.norm>
0.122751

>  <SCORE.INTRA>
2.33692

>  <SCORE.INTRA.DIHEDRAL>
-14.4894

>  <SCORE.INTRA.DIHEDRAL.0>
28.2802

>  <SCORE.INTRA.POLAR>
0

>  <SCORE.INTRA.POLAR.0>
0

>  <SCORE.INTRA.REPUL>
0

>  <SCORE.INTRA.REPUL.0>
0

>  <SCORE.INTRA.SOLV>
7.44192

>  <SCORE.INTRA.SOLV.lig_0>
-101.981

>  <SCORE.INTRA.VDW>
5.86066

>  <SCORE.INTRA.VDW.0>
-5.72964

>  <SCORE.INTRA.norm>
0.0584231

>  <SCORE.RESTR>
25.5045

>  <SCORE.RESTR.CAVITY>
25.5045

>  <SCORE.RESTR.norm>
0.637612

>  <SCORE.SYSTEM>
0

>  <SCORE.SYSTEM.CONST>
0

>  <SCORE.SYSTEM.DIHEDRAL>
0

>  <SCORE.SYSTEM.SOLV>
0

>  <SCORE.SYSTEM.norm>
0

>  <SCORE.heavy>
40

>  <SCORE.norm>
0.818786

>  <RMSD>
9.879

$$$$
ligand
 OpenBabel11021811503D
libRbt.so/2013.1/901 2013/11/27
 40 42  0  0  0  0  0  0  0  0999 V2000
    8.0068   -2.9502   26.7566 C   0  0  2  0  0  0  0  0  0  0  0  0
    6.8737   -3.6637   26.2369 O   0  0  0  0  0  0  0  0  0  0  0  0
    8.0211   -1.4691   26.2222 C   0  0  1  0  0  0  0  0  0  0  0  0
    8.2442   -1.4187   24.6825 C   0  0  2  0  0  0  0  0  0  0  0  0
    9.6178   -2.0966   24.3793 C   0  0  2  0  0  0  0  0  0  0  0  0
    9.8706   -2.0447   22.9588 O   0  0  0  0  0  0  0  0  0  0  0  0
    9.5599   -3.6029   24.8885 C   0  0  2  0  0  0  0  0  0  0  0  0
    9.2862   -3.6261   26.3699 O   0  0  0  0  0  0  0  0  0  0  0  0
   10.8669   -4.3482   24.6553 C   0  0  0  0  0  0  0  0  0  0  0  0
   12.0477   -3.5353   25.0860 N   0  0  0  0  0  0  0  0  0  0  0  0
    2.9618   -2.8717   24.3931 C   0  0  2  0  0  0  0  0  0  0  0  0
    1.9021   -2.1722   23.7046 N   0  0  0  0  0  0  0  0  0  0  0  0
    3.3420   -2.0884   25.7139 C   0  0  0  0  0  0  0  0  0  0  0  0
    4.5146   -2.8465   26.4828 C   0  0  2  0  0  0  0  0  0  0  0  0
    4.8594   -2.1180   27.7318 N   0  0  0  0  0  0  0  0  0  0  0  0
    5.7827   -2.9693   25.5164 C   0  0  2  0  0  0  0  0  0  0  0  0
    5.3510   -3.7593   24.2081 C   0  0  2  0  0  0  0  0  0  0  0  0
    6.4795   -3.8777   23.3389 O   0  0  0  0  0  0  0  0  0  0  0  0
    4.1863   -2.9992   23.4591 C   0  0  1  0  0  0  0  0  0  0  0  0
    3.7900   -3.7431   22.2800 O   0  0  0  0  0  0  0  0  0  0  0  0
    4.6575   -4.2594   21.3283 C   0  0  2  0  0  0  0  0  0  0  0  0
    3.9174   -4.2196   19.9441 C   0  0  2  0  0  0  0  0  0  0  0  0
    3.5336   -2.9143   19.6545 O   0  0  0  0  0  0  0  0  0  0  0  0
    2.6720   -5.2043   19.9127 C   0  0  1  0  0  0  0  0  0  0  0  0
    1.9899   -5.1600   18.5824 N   0  0  0  0  0  0  0  0  0  0  0  0
    3.1777   -6.6755   20.2457 C   0  0  2  0  0  0  0  0  0  0  0  0
    2.0888   -7.6066   20.2168 O   0  0  0  0  0  0  0  0  0  0  0  0
    3.8769   -6.6457   21.6596 C   0  0  2  0  0  0  0  0  0  0  0  0
    5.0332   -5.6551   21.6707 O   0  0  0  0  0  0  0  0  0  0  0  0
    4.4031   -8.0100   22.0367 C   0  0  0  0  0  0  0  0  0  0  0  0
    5.1449   -7.9982   23.2705 O   0  0  0  0  0  0  0  0  0  0  0  0
    6.7558   -0.8410   26.5807 O   0  0  0  0  0  0  0  0  0  0  0  0
    8.2604   -0.1071   24.2737 O   0  0  0  0  0  0  0  0  0  0  0  0
    1.0685   -2.9014   22.7770 C   0  0  0  0  0  0  0  0  0  0  0  0
    1.5010   -3.9672   22.2460 O   0  0  0  0  0  0  0  0  0  0  0  0
   -0.3480   -2.3291   22.4631 C   0  0  2  0  0  0  0  0  0  0  0  0
    0.9321   -0.0980   19.5538 N   0  0  0  0  0  0  0  0  0  0  0  0
   -0.2552   -1.1046   21.5011 C   0  0  0  0  0  0  0  0  0  0  0  0
    0.6436   -1.3584   20.2793 C   0  0  0  0  0  0  0  0  0  0  0  0
   -0.9437   -1.8988   23.5014 O   0  0  0  0  0  0  0  0  0  0  0  0
  1  2  1  6  0  0  0
  1  3  1  0  0  0  0
  1  8  1  0  0  0  0
  3  4  1  0  0  0  0
  3 32  1  6  0  0  0
  4  5  1  0  0  0  0
  4 33  1  1  0  0  0
  5  6  1  6  0  0  0
  5  7  1  0  0  0  0
  7  8  1  0  0  0  0
  7  9  1  1  0  0  0
  9 10  1  0  0  0  0
 11 12  1  6  0  0  0
 11 13  1  0  0  0  0
 11 19  1  0  0  0  0
 12 34  1  0  0  0  0
 13 14  1  0  0  0  0
 14 15  1  1  0  0  0
 14 16  1  0  0  0  0
 16  2  1  1  0  0  0
 16 17  1  0  0  0  0
 17 18  1  6  0  0  0
 17 19  1  0  0  0  0
 19 20  1  6  0  0  0
 21 20  1  1  0  0  0
 21 22  1  0  0  0  0
 21 29  1  0  0  0  0
 22 23  1  1  0  0  0
 22 24  1  0  0  0  0
 24 25  1  6  0  0  0
 24 26  1  0  0  0  0
 26 27  1  1  0  0  0
 26 28  1  0  0  0  0
 28 29  1  0  0  0  0
 28 30  1  6  0  0  0
 30 31  1  0  0  0  0
 34 35  2  0  0  0  0
 36 34  1  1  0  0  0
 36 38  1  0  0  0  0
 36 40  1  0  0  0  0
 37 39  1  0  0  0  0
 38 39  1  0  0  0  0
M  END
>  <CHROM.1>
-10.35209593,-104.21442882,46.49374413,-157.69364709,-168.14564066,-147.90885955
175.16333242,75.81751331,48.08410923,-167.99765846,4.85979619,-3.44000198
23.26370527,0.41716488,-0.35980032,0.67756635

>  <Name>
ligand

>  <RI>
0

>  <Rbt.Current_Directory>
/home/itssahil/PROJECTS/Mol_Feturizer/New_Systems/rnas/4P20

>  <Rbt.Executable>
rbdock ($Id: //depot/dev/client3/rdock/2013.1/src/exe/rbdock.cxx#4 $)

>  <Rbt.Library>
libRbt.so (2013.1, Build901 2013/11/27)

>  <Rbt.Parameter_File>
/export/apps/rDock/src/rDock_2013.1_src/data/scripts/dock_solv.prm

>  <Rbt.Receptor>
prm/blind_docking_60.prm

>  <SCORE>
21.1305

>  <SCORE.INTER>
3.16555

>  <SCORE.INTER.CONST>
1

>  <SCORE.INTER.POLAR>
0

>  <SCORE.INTER.ROT>
10

>  <SCORE.INTER.SOLV>
30.394

>  <SCORE.INTER.VDW>
-18.2876

>  <SCORE.INTER.norm>
0.0791388

>  <SCORE.INTRA>
3.6094

>  <SCORE.INTRA.DIHEDRAL>
-7.71816

>  <SCORE.INTRA.DIHEDRAL.0>
28.2802

>  <SCORE.INTRA.POLAR>
0

>  <SCORE.INTRA.POLAR.0>
0

>  <SCORE.INTRA.REPUL>
0

>  <SCORE.INTRA.REPUL.0>
0

>  <SCORE.INTRA.SOLV>
5.26454

>  <SCORE.INTRA.SOLV.lig_0>
-101.981

>  <SCORE.INTRA.VDW>
4.83621

>  <SCORE.INTRA.VDW.0>
-5.72964

>  <SCORE.INTRA.norm>
0.090235

>  <SCORE.RESTR>
14.3555

>  <SCORE.RESTR.CAVITY>
14.3555

>  <SCORE.RESTR.norm>
0.358888

>  <SCORE.SYSTEM>
0

>  <SCORE.SYSTEM.CONST>
0

>  <SCORE.SYSTEM.DIHEDRAL>
0

>  <SCORE.SYSTEM.SOLV>
0

>  <SCORE.SYSTEM.norm>
0

>  <SCORE.heavy>
40

>  <SCORE.norm>
0.528261

>  <RMSD>
9.914

$$$$
ligand
 OpenBabel11021811513D
libRbt.so/2013.1/901 2013/11/27
 40 42  0  0  0  0  0  0  0  0999 V2000
   -6.7902   -8.0314   16.7124 C   0  0  2  0  0  0  0  0  0  0  0  0
   -6.2590   -7.6943   18.0036 O   0  0  0  0  0  0  0  0  0  0  0  0
   -7.4490   -6.7702   16.0381 C   0  0  1  0  0  0  0  0  0  0  0  0
   -8.7035   -6.2906   16.8250 C   0  0  2  0  0  0  0  0  0  0  0  0
   -9.7296   -7.4675   16.8457 C   0  0  2  0  0  0  0  0  0  0  0  0
  -10.9199   -7.0485   17.5471 O   0  0  0  0  0  0  0  0  0  0  0  0
   -9.0545   -8.7122   17.5712 C   0  0  2  0  0  0  0  0  0  0  0  0
   -7.8119   -9.1210   16.8236 O   0  0  0  0  0  0  0  0  0  0  0  0
   -9.9733   -9.9251   17.6247 C   0  0  0  0  0  0  0  0  0  0  0  0
   -9.3152  -11.0835   18.3070 N   0  0  0  0  0  0  0  0  0  0  0  0
   -3.9212  -11.2738   19.0288 C   0  0  2  0  0  0  0  0  0  0  0  0
   -3.0608  -12.1675   19.7687 N   0  0  0  0  0  0  0  0  0  0  0  0
   -3.1425   -9.9347   18.7077 C   0  0  0  0  0  0  0  0  0  0  0  0
   -4.0818   -8.9357   17.8948 C   0  0  2  0  0  0  0  0  0  0  0  0
   -3.3433   -7.6847   17.5797 N   0  0  0  0  0  0  0  0  0  0  0  0
   -5.3942   -8.6310   18.7561 C   0  0  2  0  0  0  0  0  0  0  0  0
   -6.1377  -10.0024   19.0532 C   0  0  2  0  0  0  0  0  0  0  0  0
   -7.3151   -9.7400   19.8200 O   0  0  0  0  0  0  0  0  0  0  0  0
   -5.1944  -10.9835   19.8551 C   0  0  1  0  0  0  0  0  0  0  0  0
   -5.8797  -12.2369   20.0998 O   0  0  0  0  0  0  0  0  0  0  0  0
   -6.5982  -12.9558   19.1554 C   0  0  2  0  0  0  0  0  0  0  0  0
   -7.4158  -14.0557   19.9214 C   0  0  2  0  0  0  0  0  0  0  0  0
   -8.2413  -13.4542   20.8658 O   0  0  0  0  0  0  0  0  0  0  0  0
   -6.4656  -15.1353   20.5944 C   0  0  1  0  0  0  0  0  0  0  0  0
   -7.2647  -16.1794   21.3073 N   0  0  0  0  0  0  0  0  0  0  0  0
   -5.5549  -15.7870   19.4643 C   0  0  2  0  0  0  0  0  0  0  0  0
   -4.6856  -16.7806   20.0215 O   0  0  0  0  0  0  0  0  0  0  0  0
   -4.7402  -14.6317   18.7640 C   0  0  2  0  0  0  0  0  0  0  0  0
   -5.6792  -13.5880   18.1744 O   0  0  0  0  0  0  0  0  0  0  0  0
   -3.8635  -15.1740   17.6605 C   0  0  0  0  0  0  0  0  0  0  0  0
   -3.1783  -14.1368   16.9343 O   0  0  0  0  0  0  0  0  0  0  0  0
   -6.4482   -5.7130   15.9693 O   0  0  0  0  0  0  0  0  0  0  0  0
   -9.2435   -5.1997   16.1878 O   0  0  0  0  0  0  0  0  0  0  0  0
   -1.7380  -12.4475   19.2601 C   0  0  0  0  0  0  0  0  0  0  0  0
   -1.4925  -12.2944   18.0267 O   0  0  0  0  0  0  0  0  0  0  0  0
   -0.6562  -12.9390   20.2704 C   0  0  2  0  0  0  0  0  0  0  0  0
    1.7443   -9.8737   20.3617 N   0  0  0  0  0  0  0  0  0  0  0  0
    0.6548  -12.1045   20.1349 C   0  0  0  0  0  0  0  0  0  0  0  0
    0.4689  -10.6191   20.4874 C   0  0  0  0  0  0  0  0  0  0  0  0
   -0.3105  -14.1465   20.0693 O   0  0  0  0  0  0  0  0  0  0  0  0
  1  2  1  1  0  0  0
  1  3  1  0  0  0  0
  1  8  1  0  0  0  0
  3  4  1  0  0  0  0
  3 32  1  1  0  0  0
  4  5  1  0  0  0  0
  4 33  1  6  0  0  0
  5  6  1  1  0  0  0
  5  7  1  0  0  0  0
  7  8  1  0  0  0  0
  7  9  1  6  0  0  0
  9 10  1  0  0  0  0
 11 12  1  1  0  0  0
 11 13  1  0  0  0  0
 11 19  1  0  0  0  0
 12 34  1  0  0  0  0
 13 14  1  0  0  0  0
 14 15  1  1  0  0  0
 14 16  1  0  0  0  0
 16  2  1  6  0  0  0
 16 17  1  0  0  0  0
 17 18  1  1  0  0  0
 17 19  1  0  0  0  0
 19 20  1  6  0  0  0
 21 20  1  1  0  0  0
 21 22  1  0  0  0  0
 21 29  1  0  0  0  0
 22 23  1  1  0  0  0
 22 24  1  0  0  0  0
 24 25  1  6  0  0  0
 24 26  1  0  0  0  0
 26 27  1  1  0  0  0
 26 28  1  0  0  0  0
 28 29  1  0  0  0  0
 28 30  1  6  0  0  0
 30 31  1  0  0  0  0
 34 35  2  0  0  0  0
 36 34  1  6  0  0  0
 36 38  1  0  0  0  0
 36 40  1  0  0  0  0
 37 39  1  0  0  0  0
 38 39  1  0  0  0  0
M  END
>  <CHROM.1>
-169.80120116,60.48577377,179.80594704,-50.84985378,-73.62930654,-167.81045652
175.75233523,-129.85975432,63.61161929,179.21362530,-5.37325339,-11.01786766
18.64923123,-2.30607961,0.09436120,2.83488232

>  <Name>
ligand

>  <RI>
0

>  <Rbt.Current_Directory>
/home/itssahil/PROJECTS/Mol_Feturizer/New_Systems/rnas/4P20

>  <Rbt.Executable>
rbdock ($Id: //depot/dev/client3/rdock/2013.1/src/exe/rbdock.cxx#4 $)

>  <Rbt.Library>
libRbt.so (2013.1, Build901 2013/11/27)

>  <Rbt.Parameter_File>
/export/apps/rDock/src/rDock_2013.1_src/data/scripts/dock_solv.prm

>  <Rbt.Receptor>
prm/pocket_docking_8.prm

>  <SCORE>
-4.58083

>  <SCORE.INTER>
5.16943

>  <SCORE.INTER.CONST>
1

>  <SCORE.INTER.POLAR>
0

>  <SCORE.INTER.ROT>
10

>  <SCORE.INTER.SOLV>
11.3041

>  <SCORE.INTER.VDW>
-10.5884

>  <SCORE.INTER.norm>
0.129236

>  <SCORE.INTRA>
-9.75025

>  <SCORE.INTRA.DIHEDRAL>
-23.6483

>  <SCORE.INTRA.DIHEDRAL.0>
28.2802

>  <SCORE.INTRA.POLAR>
0

>  <SCORE.INTRA.POLAR.0>
0

>  <SCORE.INTRA.REPUL>
0

>  <SCORE.INTRA.REPUL.0>
0

>  <SCORE.INTRA.SOLV>
4.33757

>  <SCORE.INTRA.SOLV.lig_0>
-101.981

>  <SCORE.INTRA.VDW>
-0.0949066

>  <SCORE.INTRA.VDW.0>
-5.72964

>  <SCORE.INTRA.norm>
-0.243756

>  <SCORE.RESTR>
0

>  <SCORE.RESTR.CAVITY>
0

>  <SCORE.RESTR.norm>
0

>  <SCORE.SYSTEM>
0

>  <SCORE.SYSTEM.CONST>
0

>  <SCORE.SYSTEM.DIHEDRAL>
0

>  <SCORE.SYSTEM.SOLV>
0

>  <SCORE.SYSTEM.norm>
0

>  <SCORE.heavy>
40

>  <SCORE.norm>
-0.114521

>  <RMSD>
9.960

$$$$
ligand
 OpenBabel11021811503D
libRbt.so/2013.1/901 2013/11/27
 40 42  0  0  0  0  0  0  0  0999 V2000
    5.1111   -6.7920   20.7664 C   0  0  2  0  0  0  0  0  0  0  0  0
    3.9628   -6.1722   20.1662 O   0  0  0  0  0  0  0  0  0  0  0  0
    4.6752   -7.9979   21.6802 C   0  0  1  0  0  0  0  0  0  0  0  0
    3.8486   -7.5158   22.9078 C   0  0  2  0  0  0  0  0  0  0  0  0
    4.7453   -6.5359   23.7288 C   0  0  2  0  0  0  0  0  0  0  0  0
    4.0180   -6.0874   24.8927 O   0  0  0  0  0  0  0  0  0  0  0  0
    5.1335   -5.3065   22.7964 C   0  0  2  0  0  0  0  0  0  0  0  0
    5.8822   -5.8049   21.5876 O   0  0  0  0  0  0  0  0  0  0  0  0
    6.0294   -4.2984   23.5031 C   0  0  0  0  0  0  0  0  0  0  0  0
    5.3323   -3.6639   24.6658 N   0  0  0  0  0  0  0  0  0  0  0  0
    0.7969   -3.2965   21.1848 C   0  0  2  0  0  0  0  0  0  0  0  0
   -0.1371   -2.5292   21.9755 N   0  0  0  0  0  0  0  0  0  0  0  0
    0.4940   -4.8396   21.3577 C   0  0  0  0  0  0  0  0  0  0  0  0
    1.5208   -5.7001   20.4939 C   0  0  2  0  0  0  0  0  0  0  0  0
    1.2245   -7.1489   20.6445 N   0  0  0  0  0  0  0  0  0  0  0  0
    3.0122   -5.3633   20.9623 C   0  0  2  0  0  0  0  0  0  0  0  0
    3.2664   -3.8074   20.7717 C   0  0  2  0  0  0  0  0  0  0  0  0
    4.5992   -3.4967   21.1845 O   0  0  0  0  0  0  0  0  0  0  0  0
    2.2398   -2.9675   21.6296 C   0  0  1  0  0  0  0  0  0  0  0  0
    2.4715   -1.5510   21.4285 O   0  0  0  0  0  0  0  0  0  0  0  0
    3.0387   -0.9838   20.2965 C   0  0  2  0  0  0  0  0  0  0  0  0
    3.5358    0.4533   20.6871 C   0  0  2  0  0  0  0  0  0  0  0  0
    4.4384    0.3670   21.7421 O   0  0  0  0  0  0  0  0  0  0  0  0
    2.3268    1.4189   21.0439 C   0  0  1  0  0  0  0  0  0  0  0  0
    2.8215    2.7845   21.4005 N   0  0  0  0  0  0  0  0  0  0  0  0
    1.3378    1.4777   19.7991 C   0  0  2  0  0  0  0  0  0  0  0  0
    0.2328    2.3496   20.0678 O   0  0  0  0  0  0  0  0  0  0  0  0
    0.8538    0.0088   19.4873 C   0  0  2  0  0  0  0  0  0  0  0  0
    2.0397   -0.9021   19.2002 O   0  0  0  0  0  0  0  0  0  0  0  0
   -0.0774   -0.0179   18.2987 C   0  0  0  0  0  0  0  0  0  0  0  0
   -1.2222    0.8381   18.4702 O   0  0  0  0  0  0  0  0  0  0  0  0
    3.9001   -8.9290   20.8701 O   0  0  0  0  0  0  0  0  0  0  0  0
    3.5068   -8.6035   23.6745 O   0  0  0  0  0  0  0  0  0  0  0  0
    0.2612   -2.0790   23.2891 C   0  0  0  0  0  0  0  0  0  0  0  0
    1.1853   -2.6849   23.9087 O   0  0  0  0  0  0  0  0  0  0  0  0
   -0.4821   -0.8494   23.8959 C   0  0  2  0  0  0  0  0  0  0  0  0
   -3.0596    1.0178   23.4006 N   0  0  0  0  0  0  0  0  0  0  0  0
   -2.0054   -1.1428   24.0603 C   0  0  0  0  0  0  0  0  0  0  0  0
   -2.8135    0.0811   24.5231 C   0  0  0  0  0  0  0  0  0  0  0  0
   -0.4144    0.1801   23.1520 O   0  0  0  0  0  0  0  0  0  0  0  0
  1  2  1  1  0  0  0
  1  3  1  0  0  0  0
  1  8  1  0  0  0  0
  3  4  1  0  0  0  0
  3 32  1  6  0  0  0
  4  5  1  0  0  0  0
  4 33  1  1  0  0  0
  5  6  1  1  0  0  0
  5  7  1  0  0  0  0
  7  8  1  0  0  0  0
  7  9  1  1  0  0  0
  9 10  1  0  0  0  0
 11 12  1  1  0  0  0
 11 13  1  0  0  0  0
 11 19  1  0  0  0  0
 12 34  1  0  0  0  0
 13 14  1  0  0  0  0
 14 15  1  1  0  0  0
 14 16  1  0  0  0  0
 16  2  1  6  0  0  0
 16 17  1  0  0  0  0
 17 18  1  1  0  0  0
 17 19  1  0  0  0  0
 19 20  1  6  0  0  0
 21 20  1  1  0  0  0
 21 22  1  0  0  0  0
 21 29  1  0  0  0  0
 22 23  1  1  0  0  0
 22 24  1  0  0  0  0
 24 25  1  6  0  0  0
 24 26  1  0  0  0  0
 26 27  1  1  0  0  0
 26 28  1  0  0  0  0
 28 29  1  0  0  0  0
 28 30  1  6  0  0  0
 30 31  1  0  0  0  0
 34 35  2  0  0  0  0
 36 34  1  6  0  0  0
 36 38  1  0  0  0  0
 36 40  1  0  0  0  0
 37 39  1  0  0  0  0
 38 39  1  0  0  0  0
M  END
>  <CHROM.1>
71.27915595,-138.85007242,-63.59576150,96.63315751,-93.74114825,-161.24250737
-56.67099180,61.02490108,-174.25461113,77.89207620,2.20145125,-2.90198123
21.73649672,-0.98554150,0.49211760,-0.42936928

>  <Name>
ligand

>  <RI>
0

>  <Rbt.Current_Directory>
/home/itssahil/PROJECTS/Mol_Feturizer/New_Systems/rnas/4P20

>  <Rbt.Executable>
rbdock ($Id: //depot/dev/client3/rdock/2013.1/src/exe/rbdock.cxx#4 $)

>  <Rbt.Library>
libRbt.so (2013.1, Build901 2013/11/27)

>  <Rbt.Parameter_File>
/export/apps/rDock/src/rDock_2013.1_src/data/scripts/dock_solv.prm

>  <Rbt.Receptor>
prm/blind_docking_100.prm

>  <SCORE>
48.0222

>  <SCORE.INTER>
26.0769

>  <SCORE.INTER.CONST>
1

>  <SCORE.INTER.POLAR>
0

>  <SCORE.INTER.ROT>
10

>  <SCORE.INTER.SOLV>
25.1914

>  <SCORE.INTER.VDW>
-1.2792

>  <SCORE.INTER.norm>
0.651922

>  <SCORE.INTRA>
3.59952

>  <SCORE.INTRA.DIHEDRAL>
-13.2356

>  <SCORE.INTRA.DIHEDRAL.0>
28.2802

>  <SCORE.INTRA.POLAR>
0

>  <SCORE.INTRA.POLAR.0>
0

>  <SCORE.INTRA.REPUL>
0

>  <SCORE.INTRA.REPUL.0>
0

>  <SCORE.INTRA.SOLV>
6.43435

>  <SCORE.INTRA.SOLV.lig_0>
-101.981

>  <SCORE.INTRA.VDW>
7.00015

>  <SCORE.INTRA.VDW.0>
-5.72964

>  <SCORE.INTRA.norm>
0.0899881

>  <SCORE.RESTR>
18.3458

>  <SCORE.RESTR.CAVITY>
18.3458

>  <SCORE.RESTR.norm>
0.458644

>  <SCORE.SYSTEM>
0

>  <SCORE.SYSTEM.CONST>
0

>  <SCORE.SYSTEM.DIHEDRAL>
0

>  <SCORE.SYSTEM.SOLV>
0

>  <SCORE.SYSTEM.norm>
0

>  <SCORE.heavy>
40

>  <SCORE.norm>
1.20055

>  <RMSD>
9.977

$$$$
ligand
 OpenBabel11021811503D
libRbt.so/2013.1/901 2013/11/27
 40 42  0  0  0  0  0  0  0  0999 V2000
    0.6138   -0.4296   18.7875 C   0  0  2  0  0  0  0  0  0  0  0  0
    1.9990   -0.6401   19.1036 O   0  0  0  0  0  0  0  0  0  0  0  0
    0.3186    1.1040   18.5864 C   0  0  1  0  0  0  0  0  0  0  0  0
    0.5068    1.9012   19.9101 C   0  0  2  0  0  0  0  0  0  0  0  0
   -0.4838    1.3125   20.9638 C   0  0  2  0  0  0  0  0  0  0  0  0
   -0.3549    2.0469   22.2002 O   0  0  0  0  0  0  0  0  0  0  0  0
   -0.1346   -0.2246   21.1804 C   0  0  2  0  0  0  0  0  0  0  0  0
   -0.2686   -0.9630   19.8739 O   0  0  0  0  0  0  0  0  0  0  0  0
   -1.0631   -0.8984   22.1814 C   0  0  0  0  0  0  0  0  0  0  0  0
   -0.7176   -2.3432   22.3655 N   0  0  0  0  0  0  0  0  0  0  0  0
    4.5223   -2.4324   22.2261 C   0  0  2  0  0  0  0  0  0  0  0  0
    4.9209   -2.9759   23.5037 N   0  0  0  0  0  0  0  0  0  0  0  0
    4.0450   -0.9358   22.4133 C   0  0  0  0  0  0  0  0  0  0  0  0
    3.5970   -0.3237   21.0114 C   0  0  2  0  0  0  0  0  0  0  0  0
    3.1644    1.0876   21.1864 N   0  0  0  0  0  0  0  0  0  0  0  0
    2.4204   -1.2174   20.4000 C   0  0  2  0  0  0  0  0  0  0  0  0
    2.9466   -2.7065   20.2331 C   0  0  2  0  0  0  0  0  0  0  0  0
    1.9024   -3.5131   19.6833 O   0  0  0  0  0  0  0  0  0  0  0  0
    3.3906   -3.2986   21.6287 C   0  0  1  0  0  0  0  0  0  0  0  0
    3.8872   -4.6492   21.4561 O   0  0  0  0  0  0  0  0  0  0  0  0
    3.1121   -5.7994   21.4915 C   0  0  2  0  0  0  0  0  0  0  0  0
    4.0173   -6.9619   22.0341 C   0  0  2  0  0  0  0  0  0  0  0  0
    4.5149   -6.6230   23.2881 O   0  0  0  0  0  0  0  0  0  0  0  0
    5.1927   -7.3138   21.0262 C   0  0  1  0  0  0  0  0  0  0  0  0
    6.0341   -8.4308   21.5563 N   0  0  0  0  0  0  0  0  0  0  0  0
    4.5586   -7.6961   19.6180 C   0  0  2  0  0  0  0  0  0  0  0  0
    5.5822   -8.0354   18.6743 O   0  0  0  0  0  0  0  0  0  0  0  0
    3.6948   -6.4732   19.1208 C   0  0  2  0  0  0  0  0  0  0  0  0
    2.6103   -6.1296   20.1329 O   0  0  0  0  0  0  0  0  0  0  0  0
    3.0416   -6.7713   17.7922 C   0  0  0  0  0  0  0  0  0  0  0  0
    3.9258   -7.4438   16.8765 O   0  0  0  0  0  0  0  0  0  0  0  0
    1.2090    1.6092   17.5491 O   0  0  0  0  0  0  0  0  0  0  0  0
    0.2250    3.2261   19.6804 O   0  0  0  0  0  0  0  0  0  0  0  0
    3.9143   -3.5529   24.3644 C   0  0  0  0  0  0  0  0  0  0  0  0
    2.7018   -3.2105   24.2322 O   0  0  0  0  0  0  0  0  0  0  0  0
    4.3767   -4.5847   25.4387 C   0  0  2  0  0  0  0  0  0  0  0  0
    2.4985   -2.2591   26.4818 N   0  0  0  0  0  0  0  0  0  0  0  0
    4.2483   -3.9907   26.8754 C   0  0  0  0  0  0  0  0  0  0  0  0
    2.8265   -3.5088   27.2090 C   0  0  0  0  0  0  0  0  0  0  0  0
    5.6010   -4.9064   25.3141 O   0  0  0  0  0  0  0  0  0  0  0  0
  1  2  1  1  0  0  0
  1  3  1  0  0  0  0
  1  8  1  0  0  0  0
  3  4  1  0  0  0  0
  3 32  1  6  0  0  0
  4  5  1  0  0  0  0
  4 33  1  6  0  0  0
  5  6  1  1  0  0  0
  5  7  1  0  0  0  0
  7  8  1  0  0  0  0
  7  9  1  1  0  0  0
  9 10  1  0  0  0  0
 11 12  1  1  0  0  0
 11 13  1  0  0  0  0
 11 19  1  0  0  0  0
 12 34  1  0  0  0  0
 13 14  1  0  0  0  0
 14 15  1  1  0  0  0
 14 16  1  0  0  0  0
 16  2  1  6  0  0  0
 16 17  1  0  0  0  0
 17 18  1  1  0  0  0
 17 19  1  0  0  0  0
 19 20  1  6  0  0  0
 21 20  1  6  0  0  0
 21 22  1  0  0  0  0
 21 29  1  0  0  0  0
 22 23  1  1  0  0  0
 22 24  1  0  0  0  0
 24 25  1  1  0  0  0
 24 26  1  0  0  0  0
 26 27  1  6  0  0  0
 26 28  1  0  0  0  0
 28 29  1  0  0  0  0
 28 30  1  6  0  0  0
 30 31  1  0  0  0  0
 34 35  2  0  0  0  0
 36 34  1  6  0  0  0
 36 38  1  0  0  0  0
 36 40  1  0  0  0  0
 37 39  1  0  0  0  0
 38 39  1  0  0  0  0
M  END
>  <CHROM.1>
116.90119159,-132.20760029,179.84596631,85.46503537,151.56938888,-149.80219009
-42.18939724,110.31130354,56.49529071,-72.62144532,2.71823970,-2.97813507
21.41027558,2.99064011,-1.07915781,1.22648710

>  <Name>
ligand

>  <RI>
0

>  <Rbt.Current_Directory>
/home/itssahil/PROJECTS/Mol_Feturizer/New_Systems/rnas/4P20

>  <Rbt.Executable>
rbdock ($Id: //depot/dev/client3/rdock/2013.1/src/exe/rbdock.cxx#4 $)

>  <Rbt.Library>
libRbt.so (2013.1, Build901 2013/11/27)

>  <Rbt.Parameter_File>
/export/apps/rDock/src/rDock_2013.1_src/data/scripts/dock_solv.prm

>  <Rbt.Receptor>
prm/blind_docking_100.prm

>  <SCORE>
27.4737

>  <SCORE.INTER>
-0.711416

>  <SCORE.INTER.CONST>
1

>  <SCORE.INTER.POLAR>
0

>  <SCORE.INTER.ROT>
10

>  <SCORE.INTER.SOLV>
26.7853

>  <SCORE.INTER.VDW>
-19.6694

>  <SCORE.INTER.norm>
-0.0177854

>  <SCORE.INTRA>
5.57698

>  <SCORE.INTRA.DIHEDRAL>
-3.17749

>  <SCORE.INTRA.DIHEDRAL.0>
28.2802

>  <SCORE.INTRA.POLAR>
0

>  <SCORE.INTRA.POLAR.0>
0

>  <SCORE.INTRA.REPUL>
0

>  <SCORE.INTRA.REPUL.0>
0

>  <SCORE.INTRA.SOLV>
9.13712

>  <SCORE.INTRA.SOLV.lig_0>
-101.981

>  <SCORE.INTRA.VDW>
2.59717

>  <SCORE.INTRA.VDW.0>
-5.72964

>  <SCORE.INTRA.norm>
0.139425

>  <SCORE.RESTR>
22.6081

>  <SCORE.RESTR.CAVITY>
22.6081

>  <SCORE.RESTR.norm>
0.565203

>  <SCORE.SYSTEM>
0

>  <SCORE.SYSTEM.CONST>
0

>  <SCORE.SYSTEM.DIHEDRAL>
0

>  <SCORE.SYSTEM.SOLV>
0

>  <SCORE.SYSTEM.norm>
0

>  <SCORE.heavy>
40

>  <SCORE.norm>
0.686842

>  <RMSD>
10.007

$$$$
ligand
 OpenBabel11021811503D
libRbt.so/2013.1/901 2013/11/27
 40 42  0  0  0  0  0  0  0  0999 V2000
    5.0119   -6.4692   19.8323 C   0  0  2  0  0  0  0  0  0  0  0  0
    3.8079   -5.7838   19.4534 O   0  0  0  0  0  0  0  0  0  0  0  0
    4.7230   -7.9958   20.0877 C   0  0  1  0  0  0  0  0  0  0  0  0
    3.7926   -8.2039   21.3181 C   0  0  2  0  0  0  0  0  0  0  0  0
    4.5088   -7.5925   22.5637 C   0  0  2  0  0  0  0  0  0  0  0  0
    3.6838   -7.7910   23.7319 O   0  0  0  0  0  0  0  0  0  0  0  0
    4.7478   -6.0422   22.2973 C   0  0  2  0  0  0  0  0  0  0  0  0
    5.6028   -5.8657   21.0693 O   0  0  0  0  0  0  0  0  0  0  0  0
    5.4631   -5.3552   23.4525 C   0  0  0  0  0  0  0  0  0  0  0  0
    4.5105   -4.9833   24.5456 N   0  0  0  0  0  0  0  0  0  0  0  0
    0.7895   -3.0472   21.1060 C   0  0  2  0  0  0  0  0  0  0  0  0
    0.0384   -2.2761   22.0690 N   0  0  0  0  0  0  0  0  0  0  0  0
    0.6838   -4.5852   21.4612 C   0  0  0  0  0  0  0  0  0  0  0  0
    1.5125   -5.4493   20.4089 C   0  0  2  0  0  0  0  0  0  0  0  0
    1.3986   -6.8952   20.7345 N   0  0  0  0  0  0  0  0  0  0  0  0
    3.0386   -4.9720   20.4234 C   0  0  2  0  0  0  0  0  0  0  0  0
    3.0917   -3.4261   20.0637 C   0  0  2  0  0  0  0  0  0  0  0  0
    4.4531   -2.9904   20.0703 O   0  0  0  0  0  0  0  0  0  0  0  0
    2.2635   -2.5830   21.1117 C   0  0  1  0  0  0  0  0  0  0  0  0
    2.3046   -1.1781   20.7577 O   0  0  0  0  0  0  0  0  0  0  0  0
    1.3645   -0.2289   21.1319 C   0  0  2  0  0  0  0  0  0  0  0  0
    0.5001    0.1044   19.8643 C   0  0  2  0  0  0  0  0  0  0  0  0
   -0.0894   -1.0585   19.3792 O   0  0  0  0  0  0  0  0  0  0  0  0
    1.3571    0.8258   18.7389 C   0  0  1  0  0  0  0  0  0  0  0  0
    0.5122    1.1452   17.5468 N   0  0  0  0  0  0  0  0  0  0  0  0
    1.9973    2.1459   19.3543 C   0  0  2  0  0  0  0  0  0  0  0  0
    2.7727    2.8419   18.3705 O   0  0  0  0  0  0  0  0  0  0  0  0
    2.8761    1.7315   20.5973 C   0  0  2  0  0  0  0  0  0  0  0  0
    2.0358    0.9976   21.6335 O   0  0  0  0  0  0  0  0  0  0  0  0
    3.5033    2.9406   21.2493 C   0  0  0  0  0  0  0  0  0  0  0  0
    2.5546    3.7236   21.9973 O   0  0  0  0  0  0  0  0  0  0  0  0
    4.1196   -8.5548   18.8846 O   0  0  0  0  0  0  0  0  0  0  0  0
    3.5849   -9.5496   21.5017 O   0  0  0  0  0  0  0  0  0  0  0  0
    0.6320   -1.9913   23.3549 C   0  0  0  0  0  0  0  0  0  0  0  0
    1.5552   -2.7356   23.8006 O   0  0  0  0  0  0  0  0  0  0  0  0
    0.0953   -0.7620   24.1506 C   0  0  2  0  0  0  0  0  0  0  0  0
   -1.8403   -0.1017   22.0043 N   0  0  0  0  0  0  0  0  0  0  0  0
   -1.4493   -0.8556   24.3481 C   0  0  0  0  0  0  0  0  0  0  0  0
   -2.2161   -1.0967   23.0371 C   0  0  0  0  0  0  0  0  0  0  0  0
    0.2924    0.3385   23.5439 O   0  0  0  0  0  0  0  0  0  0  0  0
  1  2  1  1  0  0  0
  1  3  1  0  0  0  0
  1  8  1  0  0  0  0
  3  4  1  0  0  0  0
  3 32  1  6  0  0  0
  4  5  1  0  0  0  0
  4 33  1  1  0  0  0
  5  6  1  1  0  0  0
  5  7  1  0  0  0  0
  7  8  1  0  0  0  0
  7  9  1  1  0  0  0
  9 10  1  0  0  0  0
 11 12  1  1  0  0  0
 11 13  1  0  0  0  0
 11 19  1  0  0  0  0
 12 34  1  0  0  0  0
 13 14  1  0  0  0  0
 14 15  1  1  0  0  0
 14 16  1  0  0  0  0
 16  2  1  6  0  0  0
 16 17  1  0  0  0  0
 17 18  1  1  0  0  0
 17 19  1  0  0  0  0
 19 20  1  6  0  0  0
 21 20  1  6  0  0  0
 21 22  1  0  0  0  0
 21 29  1  0  0  0  0
 22 23  1  6  0  0  0
 22 24  1  0  0  0  0
 24 25  1  6  0  0  0
 24 26  1  0  0  0  0
 26 27  1  6  0  0  0
 26 28  1  0  0  0  0
 28 29  1  0  0  0  0
 28 30  1  1  0  0  0
 30 31  1  0  0  0  0
 34 35  2  0  0  0  0
 36 34  1  6  0  0  0
 36 38  1  0  0  0  0
 36 40  1  0  0  0  0
 37 39  1  0  0  0  0
 38 39  1  0  0  0  0
M  END
>  <CHROM.1>
100.52701225,-127.39588226,-82.20316901,80.00966180,36.34923494,-105.92833827
73.79616412,54.96610752,-51.96371121,-52.38525542,2.26144613,-2.83448147
21.27353494,-1.06702274,0.82155946,-0.42572979

>  <Name>
ligand

>  <RI>
0

>  <Rbt.Current_Directory>
/home/itssahil/PROJECTS/Mol_Feturizer/New_Systems/rnas/4P20

>  <Rbt.Executable>
rbdock ($Id: //depot/dev/client3/rdock/2013.1/src/exe/rbdock.cxx#4 $)

>  <Rbt.Library>
libRbt.so (2013.1, Build901 2013/11/27)

>  <Rbt.Parameter_File>
/export/apps/rDock/src/rDock_2013.1_src/data/scripts/dock_solv.prm

>  <Rbt.Receptor>
prm/blind_docking_100.prm

>  <SCORE>
37.2275

>  <SCORE.INTER>
9.30745

>  <SCORE.INTER.CONST>
1

>  <SCORE.INTER.POLAR>
0

>  <SCORE.INTER.ROT>
10

>  <SCORE.INTER.SOLV>
29.5745

>  <SCORE.INTER.VDW>
-13.9199

>  <SCORE.INTER.norm>
0.232686

>  <SCORE.INTRA>
10.3897

>  <SCORE.INTRA.DIHEDRAL>
-3.3445

>  <SCORE.INTRA.DIHEDRAL.0>
28.2802

>  <SCORE.INTRA.POLAR>
0

>  <SCORE.INTRA.POLAR.0>
0

>  <SCORE.INTRA.REPUL>
0.149422

>  <SCORE.INTRA.REPUL.0>
0

>  <SCORE.INTRA.SOLV>
13.0843

>  <SCORE.INTRA.SOLV.lig_0>
-101.981

>  <SCORE.INTRA.VDW>
4.7727

>  <SCORE.INTRA.VDW.0>
-5.72964

>  <SCORE.INTRA.norm>
0.259743

>  <SCORE.RESTR>
17.5303

>  <SCORE.RESTR.CAVITY>
17.5303

>  <SCORE.RESTR.norm>
0.438257

>  <SCORE.SYSTEM>
0

>  <SCORE.SYSTEM.CONST>
0

>  <SCORE.SYSTEM.DIHEDRAL>
0

>  <SCORE.SYSTEM.SOLV>
0

>  <SCORE.SYSTEM.norm>
0

>  <SCORE.heavy>
40

>  <SCORE.norm>
0.930687

>  <RMSD>
10.009

$$$$
ligand
 OpenBabel11021811503D
libRbt.so/2013.1/901 2013/11/27
 40 42  0  0  0  0  0  0  0  0999 V2000
    4.9964   -6.3542   19.8232 C   0  0  2  0  0  0  0  0  0  0  0  0
    3.7866   -5.6649   19.4709 O   0  0  0  0  0  0  0  0  0  0  0  0
    4.7183   -7.8901   20.0306 C   0  0  1  0  0  0  0  0  0  0  0  0
    3.7940   -8.1435   21.2572 C   0  0  2  0  0  0  0  0  0  0  0  0
    4.5112   -7.5676   22.5191 C   0  0  2  0  0  0  0  0  0  0  0  0
    3.6920   -7.8086   23.6833 O   0  0  0  0  0  0  0  0  0  0  0  0
    4.7393   -6.0080   22.3015 C   0  0  2  0  0  0  0  0  0  0  0  0
    5.5883   -5.7868   21.0767 O   0  0  0  0  0  0  0  0  0  0  0  0
    5.4546   -5.3537   23.4755 C   0  0  0  0  0  0  0  0  0  0  0  0
    4.4999   -4.9990   24.5724 N   0  0  0  0  0  0  0  0  0  0  0  0
    0.6920   -3.0965   21.2476 C   0  0  2  0  0  0  0  0  0  0  0  0
   -0.0787   -2.3910   22.2449 N   0  0  0  0  0  0  0  0  0  0  0  0
    0.6351   -4.6508   21.5366 C   0  0  0  0  0  0  0  0  0  0  0  0
    1.4859   -5.4429   20.4459 C   0  0  2  0  0  0  0  0  0  0  0  0
    1.4178   -6.9042   20.7094 N   0  0  0  0  0  0  0  0  0  0  0  0
    2.9965   -4.9196   20.4769 C   0  0  2  0  0  0  0  0  0  0  0  0
    3.0006   -3.3588   20.1839 C   0  0  2  0  0  0  0  0  0  0  0  0
    4.3480   -2.8819   20.2056 O   0  0  0  0  0  0  0  0  0  0  0  0
    2.1510   -2.5875   21.2693 C   0  0  1  0  0  0  0  0  0  0  0  0
    2.1474   -1.1681   20.9760 O   0  0  0  0  0  0  0  0  0  0  0  0
    2.9713   -0.5375   20.0549 C   0  0  2  0  0  0  0  0  0  0  0  0
    3.4999    0.7825   20.7207 C   0  0  2  0  0  0  0  0  0  0  0  0
    4.1672    0.4774   21.9026 O   0  0  0  0  0  0  0  0  0  0  0  0
    2.3291    1.8245   20.9754 C   0  0  1  0  0  0  0  0  0  0  0  0
    2.8562    3.0781   21.5980 N   0  0  0  0  0  0  0  0  0  0  0  0
    1.6124    2.1339   19.5892 C   0  0  2  0  0  0  0  0  0  0  0  0
    0.5528    3.0825   19.7647 O   0  0  0  0  0  0  0  0  0  0  0  0
    1.0785    0.7720   18.9983 C   0  0  2  0  0  0  0  0  0  0  0  0
    2.2175   -0.2216   18.8145 O   0  0  0  0  0  0  0  0  0  0  0  0
    0.4001    0.9842   17.6659 C   0  0  0  0  0  0  0  0  0  0  0  0
    0.0404   -0.2522   17.0220 O   0  0  0  0  0  0  0  0  0  0  0  0
    4.1138   -8.4142   18.8125 O   0  0  0  0  0  0  0  0  0  0  0  0
    3.5956   -9.4956   21.3984 O   0  0  0  0  0  0  0  0  0  0  0  0
    0.5909   -1.8902   23.4229 C   0  0  0  0  0  0  0  0  0  0  0  0
    1.6830   -2.4128   23.7961 O   0  0  0  0  0  0  0  0  0  0  0  0
   -0.0766   -0.7121   24.1969 C   0  0  2  0  0  0  0  0  0  0  0  0
   -3.7703   -0.9630   23.0184 N   0  0  0  0  0  0  0  0  0  0  0  0
   -1.4229   -0.2958   23.5277 C   0  0  0  0  0  0  0  0  0  0  0  0
   -2.4281   -1.4540   23.4128 C   0  0  0  0  0  0  0  0  0  0  0  0
    0.6387    0.3397   24.2001 O   0  0  0  0  0  0  0  0  0  0  0  0
  1  2  1  1  0  0  0
  1  3  1  0  0  0  0
  1  8  1  0  0  0  0
  3  4  1  0  0  0  0
  3 32  1  6  0  0  0
  4  5  1  0  0  0  0
  4 33  1  1  0  0  0
  5  6  1  1  0  0  0
  5  7  1  0  0  0  0
  7  8  1  0  0  0  0
  7  9  1  1  0  0  0
  9 10  1  0  0  0  0
 11 12  1  1  0  0  0
 11 13  1  0  0  0  0
 11 19  1  0  0  0  0
 12 34  1  0  0  0  0
 13 14  1  0  0  0  0
 14 15  1  1  0  0  0
 14 16  1  0  0  0  0
 16  2  1  6  0  0  0
 16 17  1  0  0  0  0
 17 18  1  1  0  0  0
 17 19  1  0  0  0  0
 19 20  1  6  0  0  0
 21 20  1  1  0  0  0
 21 22  1  0  0  0  0
 21 29  1  0  0  0  0
 22 23  1  1  0  0  0
 22 24  1  0  0  0  0
 24 25  1  6  0  0  0
 24 26  1  0  0  0  0
 26 27  1  1  0  0  0
 26 28  1  0  0  0  0
 28 29  1  0  0  0  0
 28 30  1  6  0  0  0
 30 31  1  0  0  0  0
 34 35  2  0  0  0  0
 36 34  1  6  0  0  0
 36 38  1  0  0  0  0
 36 40  1  0  0  0  0
 37 39  1  0  0  0  0
 38 39  1  0  0  0  0
M  END
>  <CHROM.1>
98.86136160,-125.93247631,-83.30664371,93.20094380,-131.97702972,-136.32611349
173.10789284,1.02642295,56.95675924,169.04809677,2.24733693,-2.90776962,21.24460331
-0.97144201,0.82407430,-0.51036361

>  <Name>
ligand

>  <RI>
0

>  <Rbt.Current_Directory>
/home/itssahil/PROJECTS/Mol_Feturizer/New_Systems/rnas/4P20

>  <Rbt.Executable>
rbdock ($Id: //depot/dev/client3/rdock/2013.1/src/exe/rbdock.cxx#4 $)

>  <Rbt.Library>
libRbt.so (2013.1, Build901 2013/11/27)

>  <Rbt.Parameter_File>
/export/apps/rDock/src/rDock_2013.1_src/data/scripts/dock_solv.prm

>  <Rbt.Receptor>
prm/blind_docking_100.prm

>  <SCORE>
32.6875

>  <SCORE.INTER>
5.82346

>  <SCORE.INTER.CONST>
1

>  <SCORE.INTER.POLAR>
0

>  <SCORE.INTER.ROT>
10

>  <SCORE.INTER.SOLV>
27.1125

>  <SCORE.INTER.VDW>
-15.4219

>  <SCORE.INTER.norm>
0.145586

>  <SCORE.INTRA>
9.16202

>  <SCORE.INTRA.DIHEDRAL>
1.96652

>  <SCORE.INTRA.DIHEDRAL.0>
28.2802

>  <SCORE.INTRA.POLAR>
0

>  <SCORE.INTRA.POLAR.0>
0

>  <SCORE.INTRA.REPUL>
0

>  <SCORE.INTRA.REPUL.0>
0

>  <SCORE.INTRA.SOLV>
4.83754

>  <SCORE.INTRA.SOLV.lig_0>
-101.981

>  <SCORE.INTRA.VDW>
5.75999

>  <SCORE.INTRA.VDW.0>
-5.72964

>  <SCORE.INTRA.norm>
0.22905

>  <SCORE.RESTR>
17.702

>  <SCORE.RESTR.CAVITY>
17.702

>  <SCORE.RESTR.norm>
0.442551

>  <SCORE.SYSTEM>
0

>  <SCORE.SYSTEM.CONST>
0

>  <SCORE.SYSTEM.DIHEDRAL>
0

>  <SCORE.SYSTEM.SOLV>
0

>  <SCORE.SYSTEM.norm>
0

>  <SCORE.heavy>
40

>  <SCORE.norm>
0.817187

>  <RMSD>
10.015

$$$$
ligand
 OpenBabel11021811503D
libRbt.so/2013.1/901 2013/11/27
 40 42  0  0  0  0  0  0  0  0999 V2000
    8.6249   -2.5280   26.0486 C   0  0  2  0  0  0  0  0  0  0  0  0
    7.4896   -3.4077   26.0445 O   0  0  0  0  0  0  0  0  0  0  0  0
    9.1146   -2.2490   24.5783 C   0  0  1  0  0  0  0  0  0  0  0  0
    9.6663   -3.5393   23.9047 C   0  0  2  0  0  0  0  0  0  0  0  0
   10.8646   -4.0495   24.7662 C   0  0  2  0  0  0  0  0  0  0  0  0
   11.4194   -5.2341   24.1551 O   0  0  0  0  0  0  0  0  0  0  0  0
   10.3330   -4.3657   26.2321 C   0  0  2  0  0  0  0  0  0  0  0  0
    9.7524   -3.1155   26.8405 O   0  0  0  0  0  0  0  0  0  0  0  0
   11.4368   -4.8535   27.1604 C   0  0  0  0  0  0  0  0  0  0  0  0
   12.6407   -3.9663   27.0966 N   0  0  0  0  0  0  0  0  0  0  0  0
    3.2419   -3.4828   24.9123 C   0  0  2  0  0  0  0  0  0  0  0  0
    1.9480   -3.0231   24.4640 N   0  0  0  0  0  0  0  0  0  0  0  0
    3.6559   -2.7013   26.2240 C   0  0  0  0  0  0  0  0  0  0  0  0
    5.0853   -3.1949   26.7283 C   0  0  2  0  0  0  0  0  0  0  0  0
    5.4653   -2.4715   27.9700 N   0  0  0  0  0  0  0  0  0  0  0  0
    6.1613   -2.9588   25.5693 C   0  0  2  0  0  0  0  0  0  0  0  0
    5.7017   -3.7596   24.2772 C   0  0  2  0  0  0  0  0  0  0  0  0
    6.6598   -3.5579   23.2358 O   0  0  0  0  0  0  0  0  0  0  0  0
    4.2829   -3.2633   23.7914 C   0  0  1  0  0  0  0  0  0  0  0  0
    3.8690   -4.0177   22.6251 O   0  0  0  0  0  0  0  0  0  0  0  0
    4.7097   -4.4498   21.6095 C   0  0  2  0  0  0  0  0  0  0  0  0
    3.8271   -4.6778   20.3312 C   0  0  2  0  0  0  0  0  0  0  0  0
    3.1650   -3.4995   20.0018 O   0  0  0  0  0  0  0  0  0  0  0  0
    2.8035   -5.8757   20.5271 C   0  0  1  0  0  0  0  0  0  0  0  0
    1.9825   -6.0834   19.2944 N   0  0  0  0  0  0  0  0  0  0  0  0
    3.6217   -7.1895   20.8955 C   0  0  2  0  0  0  0  0  0  0  0  0
    2.7403   -8.3057   21.0704 O   0  0  0  0  0  0  0  0  0  0  0  0
    4.4541   -6.8983   22.2037 C   0  0  2  0  0  0  0  0  0  0  0  0
    5.3876   -5.7130   21.9985 O   0  0  0  0  0  0  0  0  0  0  0  0
    5.2763   -8.0995   22.6055 C   0  0  0  0  0  0  0  0  0  0  0  0
    4.4654   -9.2376   22.9520 O   0  0  0  0  0  0  0  0  0  0  0  0
    7.9948   -1.7088   23.8179 O   0  0  0  0  0  0  0  0  0  0  0  0
   10.0896   -3.2363   22.6332 O   0  0  0  0  0  0  0  0  0  0  0  0
    1.8437   -1.7252   23.8384 C   0  0  0  0  0  0  0  0  0  0  0  0
    2.7259   -0.8446   24.0649 O   0  0  0  0  0  0  0  0  0  0  0  0
    0.6253   -1.4624   22.9009 C   0  0  2  0  0  0  0  0  0  0  0  0
    0.2760   -5.0786   21.5123 N   0  0  0  0  0  0  0  0  0  0  0  0
   -0.0507   -2.8022   22.4747 C   0  0  0  0  0  0  0  0  0  0  0  0
    0.8989   -3.7497   21.7227 C   0  0  0  0  0  0  0  0  0  0  0  0
    0.9575   -0.8908   21.8142 O   0  0  0  0  0  0  0  0  0  0  0  0
  1  2  1  6  0  0  0
  1  3  1  0  0  0  0
  1  8  1  0  0  0  0
  3  4  1  0  0  0  0
  3 32  1  6  0  0  0
  4  5  1  0  0  0  0
  4 33  1  6  0  0  0
  5  6  1  6  0  0  0
  5  7  1  0  0  0  0
  7  8  1  0  0  0  0
  7  9  1  1  0  0  0
  9 10  1  0  0  0  0
 11 12  1  6  0  0  0
 11 13  1  0  0  0  0
 11 19  1  0  0  0  0
 12 34  1  0  0  0  0
 13 14  1  0  0  0  0
 14 15  1  1  0  0  0
 14 16  1  0  0  0  0
 16  2  1  1  0  0  0
 16 17  1  0  0  0  0
 17 18  1  6  0  0  0
 17 19  1  0  0  0  0
 19 20  1  6  0  0  0
 21 20  1  1  0  0  0
 21 22  1  0  0  0  0
 21 29  1  0  0  0  0
 22 23  1  1  0  0  0
 22 24  1  0  0  0  0
 24 25  1  6  0  0  0
 24 26  1  0  0  0  0
 26 27  1  1  0  0  0
 26 28  1  0  0  0  0
 28 29  1  0  0  0  0
 28 30  1  6  0  0  0
 30 31  1  0  0  0  0
 34 35  2  0  0  0  0
 36 34  1  1  0  0  0
 36 38  1  0  0  0  0
 36 40  1  0  0  0  0
 37 39  1  0  0  0  0
 38 39  1  0  0  0  0
M  END
>  <CHROM.1>
-71.04486316,-123.92276050,48.74423962,73.93748894,-156.83983003,-157.21713792
-63.56268664,-16.86253727,-59.61780234,171.79323784,5.40392930,-4.04210359
23.59888790,0.31975714,-0.32885080,0.63645805

>  <Name>
ligand

>  <RI>
0

>  <Rbt.Current_Directory>
/home/itssahil/PROJECTS/Mol_Feturizer/New_Systems/rnas/4P20

>  <Rbt.Executable>
rbdock ($Id: //depot/dev/client3/rdock/2013.1/src/exe/rbdock.cxx#4 $)

>  <Rbt.Library>
libRbt.so (2013.1, Build901 2013/11/27)

>  <Rbt.Parameter_File>
/export/apps/rDock/src/rDock_2013.1_src/data/scripts/dock_solv.prm

>  <Rbt.Receptor>
prm/blind_docking_60.prm

>  <SCORE>
22.0682

>  <SCORE.INTER>
5.26843

>  <SCORE.INTER.CONST>
1

>  <SCORE.INTER.POLAR>
0

>  <SCORE.INTER.ROT>
10

>  <SCORE.INTER.SOLV>
30.6969

>  <SCORE.INTER.VDW>
-16.9867

>  <SCORE.INTER.norm>
0.131711

>  <SCORE.INTRA>
2.05422

>  <SCORE.INTRA.DIHEDRAL>
-12.8956

>  <SCORE.INTRA.DIHEDRAL.0>
28.2802

>  <SCORE.INTRA.POLAR>
0

>  <SCORE.INTRA.POLAR.0>
0

>  <SCORE.INTRA.REPUL>
0

>  <SCORE.INTRA.REPUL.0>
0

>  <SCORE.INTRA.SOLV>
8.47651

>  <SCORE.INTRA.SOLV.lig_0>
-101.981

>  <SCORE.INTRA.VDW>
4.26377

>  <SCORE.INTRA.VDW.0>
-5.72964

>  <SCORE.INTRA.norm>
0.0513555

>  <SCORE.RESTR>
14.7455

>  <SCORE.RESTR.CAVITY>
14.7455

>  <SCORE.RESTR.norm>
0.368638

>  <SCORE.SYSTEM>
0

>  <SCORE.SYSTEM.CONST>
0

>  <SCORE.SYSTEM.DIHEDRAL>
0

>  <SCORE.SYSTEM.SOLV>
0

>  <SCORE.SYSTEM.norm>
0

>  <SCORE.heavy>
40

>  <SCORE.norm>
0.551704

>  <RMSD>
10.019

$$$$
ligand
 OpenBabel11021811503D
libRbt.so/2013.1/901 2013/11/27
 40 42  0  0  0  0  0  0  0  0999 V2000
    5.0562   -6.2548   19.9191 C   0  0  2  0  0  0  0  0  0  0  0  0
    3.8365   -5.5950   19.5453 O   0  0  0  0  0  0  0  0  0  0  0  0
    4.8482   -7.8147   19.9722 C   0  0  1  0  0  0  0  0  0  0  0  0
    3.8615   -8.2220   21.1051 C   0  0  2  0  0  0  0  0  0  0  0  0
    4.4634   -7.7291   22.4590 C   0  0  2  0  0  0  0  0  0  0  0  0
    3.5848   -8.1134   23.5382 O   0  0  0  0  0  0  0  0  0  0  0  0
    4.6209   -6.1471   22.3944 C   0  0  2  0  0  0  0  0  0  0  0  0
    5.5344   -5.7755   21.2552 O   0  0  0  0  0  0  0  0  0  0  0  0
    5.2226   -5.5683   23.6676 C   0  0  0  0  0  0  0  0  0  0  0  0
    5.2462   -4.0720   23.6335 N   0  0  0  0  0  0  0  0  0  0  0  0
    0.6981   -3.0257   21.2419 C   0  0  2  0  0  0  0  0  0  0  0  0
   -0.0844   -2.3022   22.2169 N   0  0  0  0  0  0  0  0  0  0  0  0
    0.6686   -4.5707   21.5807 C   0  0  0  0  0  0  0  0  0  0  0  0
    1.5326   -5.3823   20.5151 C   0  0  2  0  0  0  0  0  0  0  0  0
    1.4904   -6.8354   20.8253 N   0  0  0  0  0  0  0  0  0  0  0  0
    3.0339   -4.8319   20.5277 C   0  0  2  0  0  0  0  0  0  0  0  0
    3.0104   -3.2815   20.1848 C   0  0  2  0  0  0  0  0  0  0  0  0
    4.3492   -2.7805   20.1898 O   0  0  0  0  0  0  0  0  0  0  0  0
    2.1479   -2.4907   21.2459 C   0  0  1  0  0  0  0  0  0  0  0  0
    2.1192   -1.0818   20.9072 O   0  0  0  0  0  0  0  0  0  0  0  0
    3.0098   -0.4432   20.0563 C   0  0  2  0  0  0  0  0  0  0  0  0
    3.4692    0.8819   20.7620 C   0  0  2  0  0  0  0  0  0  0  0  0
    4.0402    0.5833   21.9949 O   0  0  0  0  0  0  0  0  0  0  0  0
    2.2715    1.9125   20.9189 C   0  0  1  0  0  0  0  0  0  0  0  0
    2.7335    3.1712   21.5815 N   0  0  0  0  0  0  0  0  0  0  0  0
    1.6679    2.2148   19.4783 C   0  0  2  0  0  0  0  0  0  0  0  0
    0.5883    3.1531   19.5654 O   0  0  0  0  0  0  0  0  0  0  0  0
    1.1975    0.8477   18.8467 C   0  0  2  0  0  0  0  0  0  0  0  0
    2.3573   -0.1348   18.7579 O   0  0  0  0  0  0  0  0  0  0  0  0
    0.6286    1.0533   17.4630 C   0  0  0  0  0  0  0  0  0  0  0  0
   -0.0893   -0.0976   16.9805 O   0  0  0  0  0  0  0  0  0  0  0  0
    4.3529   -8.2547   18.6741 O   0  0  0  0  0  0  0  0  0  0  0  0
    3.7274   -9.5893   21.1139 O   0  0  0  0  0  0  0  0  0  0  0  0
    0.5662   -1.8014   23.4055 C   0  0  0  0  0  0  0  0  0  0  0  0
    1.6427   -2.3358   23.8063 O   0  0  0  0  0  0  0  0  0  0  0  0
   -0.1018   -0.6085   24.1560 C   0  0  2  0  0  0  0  0  0  0  0  0
   -3.7777   -1.6073   23.3678 N   0  0  0  0  0  0  0  0  0  0  0  0
   -1.6225   -0.8723   24.3826 C   0  0  0  0  0  0  0  0  0  0  0  0
   -2.3853   -1.1844   23.0842 C   0  0  0  0  0  0  0  0  0  0  0  0
   -0.0417    0.4791   23.4990 O   0  0  0  0  0  0  0  0  0  0  0  0
  1  2  1  1  0  0  0
  1  3  1  0  0  0  0
  1  8  1  0  0  0  0
  3  4  1  0  0  0  0
  3 32  1  6  0  0  0
  4  5  1  0  0  0  0
  4 33  1  1  0  0  0
  5  6  1  1  0  0  0
  5  7  1  0  0  0  0
  7  8  1  0  0  0  0
  7  9  1  1  0  0  0
  9 10  1  0  0  0  0
 11 12  1  1  0  0  0
 11 13  1  0  0  0  0
 11 19  1  0  0  0  0
 12 34  1  0  0  0  0
 13 14  1  0  0  0  0
 14 15  1  1  0  0  0
 14 16  1  0  0  0  0
 16  2  1  6  0  0  0
 16 17  1  0  0  0  0
 17 18  1  1  0  0  0
 17 19  1  0  0  0  0
 19 20  1  6  0  0  0
 21 20  1  1  0  0  0
 21 22  1  0  0  0  0
 21 29  1  0  0  0  0
 22 23  1  1  0  0  0
 22 24  1  0  0  0  0
 24 25  1  6  0  0  0
 24 26  1  0  0  0  0
 26 27  1  1  0  0  0
 26 28  1  0  0  0  0
 28 29  1  0  0  0  0
 28 30  1  6  0  0  0
 30 31  1  0  0  0  0
 34 35  2  0  0  0  0
 36 34  1  6  0  0  0
 36 38  1  0  0  0  0
 36 40  1  0  0  0  0
 37 39  1  0  0  0  0
 38 39  1  0  0  0  0
M  END
>  <CHROM.1>
106.94184236,-125.73987981,-174.84053378,90.59063816,-138.16107043,-133.51370090
-166.40466203,48.58438023,-55.11662361,172.26442558,2.25107955,-2.86650723
21.20177862,-1.01205610,0.75948586,-0.45171047

>  <Name>
ligand

>  <RI>
0

>  <Rbt.Current_Directory>
/home/itssahil/PROJECTS/Mol_Feturizer/New_Systems/rnas/4P20

>  <Rbt.Executable>
rbdock ($Id: //depot/dev/client3/rdock/2013.1/src/exe/rbdock.cxx#4 $)

>  <Rbt.Library>
libRbt.so (2013.1, Build901 2013/11/27)

>  <Rbt.Parameter_File>
/export/apps/rDock/src/rDock_2013.1_src/data/scripts/dock_solv.prm

>  <Rbt.Receptor>
prm/blind_docking_100.prm

>  <SCORE>
27.9966

>  <SCORE.INTER>
2.05323

>  <SCORE.INTER.CONST>
1

>  <SCORE.INTER.POLAR>
0

>  <SCORE.INTER.ROT>
10

>  <SCORE.INTER.SOLV>
25.4724

>  <SCORE.INTER.VDW>
-17.3887

>  <SCORE.INTER.norm>
0.0513307

>  <SCORE.INTRA>
8.07975

>  <SCORE.INTRA.DIHEDRAL>
-0.208285

>  <SCORE.INTRA.DIHEDRAL.0>
28.2802

>  <SCORE.INTRA.POLAR>
0

>  <SCORE.INTRA.POLAR.0>
0

>  <SCORE.INTRA.REPUL>
0

>  <SCORE.INTRA.REPUL.0>
0

>  <SCORE.INTRA.SOLV>
5.6836

>  <SCORE.INTRA.SOLV.lig_0>
-101.981

>  <SCORE.INTRA.VDW>
5.3421

>  <SCORE.INTRA.VDW.0>
-5.72964

>  <SCORE.INTRA.norm>
0.201994

>  <SCORE.RESTR>
17.8637

>  <SCORE.RESTR.CAVITY>
17.8637

>  <SCORE.RESTR.norm>
0.446591

>  <SCORE.SYSTEM>
0

>  <SCORE.SYSTEM.CONST>
0

>  <SCORE.SYSTEM.DIHEDRAL>
0

>  <SCORE.SYSTEM.SOLV>
0

>  <SCORE.SYSTEM.norm>
0

>  <SCORE.heavy>
40

>  <SCORE.norm>
0.699916

>  <RMSD>
10.024

$$$$
ligand
 OpenBabel11021811513D
libRbt.so/2013.1/901 2013/11/27
 40 42  0  0  0  0  0  0  0  0999 V2000
   -8.3373  -11.1937   15.9540 C   0  0  2  0  0  0  0  0  0  0  0  0
   -7.5195  -12.1303   15.2349 O   0  0  0  0  0  0  0  0  0  0  0  0
   -9.6778  -10.9173   15.1756 C   0  0  1  0  0  0  0  0  0  0  0  0
   -9.4149  -10.1946   13.8222 C   0  0  2  0  0  0  0  0  0  0  0  0
   -8.7052   -8.8399   14.1374 C   0  0  2  0  0  0  0  0  0  0  0  0
   -8.4684   -8.1285   12.9036 O   0  0  0  0  0  0  0  0  0  0  0  0
   -7.3343   -9.1504   14.8830 C   0  0  2  0  0  0  0  0  0  0  0  0
   -7.6114   -9.8999   16.1604 O   0  0  0  0  0  0  0  0  0  0  0  0
   -6.5722   -7.8854   15.2536 C   0  0  0  0  0  0  0  0  0  0  0  0
   -7.4061   -6.9668   16.0911 N   0  0  0  0  0  0  0  0  0  0  0  0
   -4.3111  -13.0059   18.1106 C   0  0  2  0  0  0  0  0  0  0  0  0
   -3.1585  -13.6398   18.7073 N   0  0  0  0  0  0  0  0  0  0  0  0
   -5.4644  -14.0726   17.9242 C   0  0  0  0  0  0  0  0  0  0  0  0
   -6.7425  -13.3882   17.2616 C   0  0  2  0  0  0  0  0  0  0  0  0
   -7.8309  -14.3880   17.1023 N   0  0  0  0  0  0  0  0  0  0  0  0
   -6.3282  -12.7552   15.8529 C   0  0  2  0  0  0  0  0  0  0  0  0
   -5.1700  -11.6953   16.0921 C   0  0  2  0  0  0  0  0  0  0  0  0
   -4.7950  -11.1206   14.8381 O   0  0  0  0  0  0  0  0  0  0  0  0
   -3.9123  -12.3861   16.7524 C   0  0  1  0  0  0  0  0  0  0  0  0
   -2.8733  -11.4022   16.9831 O   0  0  0  0  0  0  0  0  0  0  0  0
   -2.5753  -10.3386   16.1436 C   0  0  2  0  0  0  0  0  0  0  0  0
   -1.1186   -9.8621   16.4844 C   0  0  2  0  0  0  0  0  0  0  0  0
   -0.2301  -10.9212   16.3291 O   0  0  0  0  0  0  0  0  0  0  0  0
   -1.0263   -9.2451   17.9445 C   0  0  1  0  0  0  0  0  0  0  0  0
    0.3656   -8.7868   18.2434 N   0  0  0  0  0  0  0  0  0  0  0  0
   -2.0594   -8.0402   18.0543 C   0  0  2  0  0  0  0  0  0  0  0  0
   -2.0047   -7.4398   19.3543 O   0  0  0  0  0  0  0  0  0  0  0  0
   -3.4999   -8.5985   17.7345 C   0  0  2  0  0  0  0  0  0  0  0  0
   -3.5407   -9.2285   16.3488 O   0  0  0  0  0  0  0  0  0  0  0  0
   -4.5366   -7.5023   17.7998 C   0  0  0  0  0  0  0  0  0  0  0  0
   -4.6186   -6.8916   19.1010 O   0  0  0  0  0  0  0  0  0  0  0  0
  -10.3513  -12.1913   14.9575 O   0  0  0  0  0  0  0  0  0  0  0  0
  -10.6152   -9.9679   13.1934 O   0  0  0  0  0  0  0  0  0  0  0  0
   -2.4752  -14.6819   17.9765 C   0  0  0  0  0  0  0  0  0  0  0  0
   -3.0907  -15.3263   17.0760 O   0  0  0  0  0  0  0  0  0  0  0  0
   -0.9870  -14.9735   18.3406 C   0  0  2  0  0  0  0  0  0  0  0  0
    2.1721  -12.6976   18.2573 N   0  0  0  0  0  0  0  0  0  0  0  0
   -0.0899  -13.7276   18.0642 C   0  0  0  0  0  0  0  0  0  0  0  0
    1.3655  -13.9123   18.5256 C   0  0  0  0  0  0  0  0  0  0  0  0
   -0.4866  -15.9119   17.6427 O   0  0  0  0  0  0  0  0  0  0  0  0
  1  2  1  6  0  0  0
  1  3  1  0  0  0  0
  1  8  1  0  0  0  0
  3  4  1  0  0  0  0
  3 32  1  6  0  0  0
  4  5  1  0  0  0  0
  4 33  1  1  0  0  0
  5  6  1  6  0  0  0
  5  7  1  0  0  0  0
  7  8  1  0  0  0  0
  7  9  1  1  0  0  0
  9 10  1  0  0  0  0
 11 12  1  6  0  0  0
 11 13  1  0  0  0  0
 11 19  1  0  0  0  0
 12 34  1  0  0  0  0
 13 14  1  0  0  0  0
 14 15  1  6  0  0  0
 14 16  1  0  0  0  0
 16  2  1  1  0  0  0
 16 17  1  0  0  0  0
 17 18  1  6  0  0  0
 17 19  1  0  0  0  0
 19 20  1  1  0  0  0
 21 20  1  1  0  0  0
 21 22  1  0  0  0  0
 21 29  1  0  0  0  0
 22 23  1  1  0  0  0
 22 24  1  0  0  0  0
 24 25  1  6  0  0  0
 24 26  1  0  0  0  0
 26 27  1  1  0  0  0
 26 28  1  0  0  0  0
 28 29  1  0  0  0  0
 28 30  1  6  0  0  0
 30 31  1  0  0  0  0
 34 35  2  0  0  0  0
 36 34  1  6  0  0  0
 36 38  1  0  0  0  0
 36 40  1  0  0  0  0
 37 39  1  0  0  0  0
 38 39  1  0  0  0  0
M  END
>  <CHROM.1>
-168.52292121,51.44790886,56.17302836,63.83052465,-156.81394685,-160.11657877
-60.71346620,-62.41217887,174.69283217,-179.28279405,-4.54340900,-11.06495882
16.64967229,2.84922899,-0.36729788,-0.02814441

>  <Name>
ligand

>  <RI>
0

>  <Rbt.Current_Directory>
/home/itssahil/PROJECTS/Mol_Feturizer/New_Systems/rnas/4P20

>  <Rbt.Executable>
rbdock ($Id: //depot/dev/client3/rdock/2013.1/src/exe/rbdock.cxx#4 $)

>  <Rbt.Library>
libRbt.so (2013.1, Build901 2013/11/27)

>  <Rbt.Parameter_File>
/export/apps/rDock/src/rDock_2013.1_src/data/scripts/dock_solv.prm

>  <Rbt.Receptor>
prm/pocket_docking_5.prm

>  <SCORE>
-8.5389

>  <SCORE.INTER>
-1.00783

>  <SCORE.INTER.CONST>
1

>  <SCORE.INTER.POLAR>
0

>  <SCORE.INTER.ROT>
10

>  <SCORE.INTER.SOLV>
14.4083

>  <SCORE.INTER.VDW>
-15.7413

>  <SCORE.INTER.norm>
-0.0251957

>  <SCORE.INTRA>
-7.53113

>  <SCORE.INTRA.DIHEDRAL>
-22.1749

>  <SCORE.INTRA.DIHEDRAL.0>
28.2802

>  <SCORE.INTRA.POLAR>
0

>  <SCORE.INTRA.POLAR.0>
0

>  <SCORE.INTRA.REPUL>
0

>  <SCORE.INTRA.REPUL.0>
0

>  <SCORE.INTRA.SOLV>
3.37459

>  <SCORE.INTRA.SOLV.lig_0>
-101.981

>  <SCORE.INTRA.VDW>
1.86903

>  <SCORE.INTRA.VDW.0>
-5.72964

>  <SCORE.INTRA.norm>
-0.188278

>  <SCORE.RESTR>
5.65636e-05

>  <SCORE.RESTR.CAVITY>
5.65636e-05

>  <SCORE.RESTR.norm>
1.41409e-06

>  <SCORE.SYSTEM>
0

>  <SCORE.SYSTEM.CONST>
0

>  <SCORE.SYSTEM.DIHEDRAL>
0

>  <SCORE.SYSTEM.SOLV>
0

>  <SCORE.SYSTEM.norm>
0

>  <SCORE.heavy>
40

>  <SCORE.norm>
-0.213473

>  <RMSD>
10.028

$$$$
ligand
 OpenBabel11021811503D
libRbt.so/2013.1/901 2013/11/27
 40 42  0  0  0  0  0  0  0  0999 V2000
    4.9505   -6.4549   19.7474 C   0  0  2  0  0  0  0  0  0  0  0  0
    3.7268   -5.7832   19.4089 O   0  0  0  0  0  0  0  0  0  0  0  0
    4.6937   -7.9915   19.9758 C   0  0  1  0  0  0  0  0  0  0  0  0
    3.7938   -8.2423   21.2208 C   0  0  2  0  0  0  0  0  0  0  0  0
    4.5258   -7.6447   22.4640 C   0  0  2  0  0  0  0  0  0  0  0  0
    3.7296   -7.8826   23.6447 O   0  0  0  0  0  0  0  0  0  0  0  0
    4.7320   -6.0851   22.2261 C   0  0  2  0  0  0  0  0  0  0  0  0
    5.5572   -5.8673   20.9844 O   0  0  0  0  0  0  0  0  0  0  0  0
    5.4598   -5.4100   23.3805 C   0  0  0  0  0  0  0  0  0  0  0  0
    4.5195   -5.0515   24.4886 N   0  0  0  0  0  0  0  0  0  0  0  0
    0.6804   -3.1570   21.1843 C   0  0  2  0  0  0  0  0  0  0  0  0
   -0.0553   -2.4084   22.1766 N   0  0  0  0  0  0  0  0  0  0  0  0
    0.6549   -4.6947   21.5551 C   0  0  0  0  0  0  0  0  0  0  0  0
    1.4676   -5.5339   20.4705 C   0  0  2  0  0  0  0  0  0  0  0  0
    1.4288   -6.9802   20.8115 N   0  0  0  0  0  0  0  0  0  0  0  0
    2.9717   -4.9947   20.4087 C   0  0  2  0  0  0  0  0  0  0  0  0
    2.9442   -3.4512   20.0359 C   0  0  2  0  0  0  0  0  0  0  0  0
    4.2853   -2.9604   19.9744 O   0  0  0  0  0  0  0  0  0  0  0  0
    2.1326   -2.6331   21.1163 C   0  0  1  0  0  0  0  0  0  0  0  0
    2.0992   -1.2309   20.7508 O   0  0  0  0  0  0  0  0  0  0  0  0
    3.1353   -0.5351   20.1449 C   0  0  2  0  0  0  0  0  0  0  0  0
    3.5375    0.6416   21.1034 C   0  0  2  0  0  0  0  0  0  0  0  0
    3.9006    0.1318   22.3457 O   0  0  0  0  0  0  0  0  0  0  0  0
    2.3745    1.7140   21.2409 C   0  0  1  0  0  0  0  0  0  0  0  0
    2.7830    2.8313   22.1474 N   0  0  0  0  0  0  0  0  0  0  0  0
    2.0112    2.2596   19.7912 C   0  0  2  0  0  0  0  0  0  0  0  0
    0.9717    3.2434   19.8635 O   0  0  0  0  0  0  0  0  0  0  0  0
    1.5851    1.0315   18.8974 C   0  0  2  0  0  0  0  0  0  0  0  0
    2.7022   -0.0009   18.8283 O   0  0  0  0  0  0  0  0  0  0  0  0
    1.2432    1.4711   17.4937 C   0  0  0  0  0  0  0  0  0  0  0  0
    0.3773    0.5420   16.8155 O   0  0  0  0  0  0  0  0  0  0  0  0
    4.0745   -8.5356   18.7739 O   0  0  0  0  0  0  0  0  0  0  0  0
    3.6135   -9.5950   21.3797 O   0  0  0  0  0  0  0  0  0  0  0  0
    0.6365   -1.9378   23.3543 C   0  0  0  0  0  0  0  0  0  0  0  0
    1.6992   -2.5145   23.7325 O   0  0  0  0  0  0  0  0  0  0  0  0
    0.0288   -0.7235   24.1216 C   0  0  2  0  0  0  0  0  0  0  0  0
   -1.8519   -0.0677   22.0039 N   0  0  0  0  0  0  0  0  0  0  0  0
   -1.5070   -0.9043   24.3268 C   0  0  0  0  0  0  0  0  0  0  0  0
   -2.2810   -1.0703   23.0083 C   0  0  0  0  0  0  0  0  0  0  0  0
    0.1585    0.3715   23.4874 O   0  0  0  0  0  0  0  0  0  0  0  0
  1  2  1  1  0  0  0
  1  3  1  0  0  0  0
  1  8  1  0  0  0  0
  3  4  1  0  0  0  0
  3 32  1  6  0  0  0
  4  5  1  0  0  0  0
  4 33  1  1  0  0  0
  5  6  1  1  0  0  0
  5  7  1  0  0  0  0
  7  8  1  0  0  0  0
  7  9  1  1  0  0  0
  9 10  1  0  0  0  0
 11 12  1  1  0  0  0
 11 13  1  0  0  0  0
 11 19  1  0  0  0  0
 12 34  1  0  0  0  0
 13 14  1  0  0  0  0
 14 15  1  1  0  0  0
 14 16  1  0  0  0  0
 16  2  1  6  0  0  0
 16 17  1  0  0  0  0
 17 18  1  1  0  0  0
 17 19  1  0  0  0  0
 19 20  1  6  0  0  0
 21 20  1  1  0  0  0
 21 22  1  0  0  0  0
 21 29  1  0  0  0  0
 22 23  1  1  0  0  0
 22 24  1  0  0  0  0
 24 25  1  1  0  0  0
 24 26  1  0  0  0  0
 26 27  1  1  0  0  0
 26 28  1  0  0  0  0
 28 29  1  0  0  0  0
 28 30  1  6  0  0  0
 30 31  1  0  0  0  0
 34 35  2  0  0  0  0
 36 34  1  6  0  0  0
 36 38  1  0  0  0  0
 36 40  1  0  0  0  0
 37 39  1  0  0  0  0
 38 39  1  0  0  0  0
M  END
>  <CHROM.1>
101.15958666,-125.15419413,-83.44823153,87.98601649,-156.13110816,-120.19599672
-157.07329718,46.34490596,-58.25690133,-45.92871662,2.35158442,-2.90479037
21.20349348,-0.95568267,0.94157754,-0.57000943

>  <Name>
ligand

>  <RI>
0

>  <Rbt.Current_Directory>
/home/itssahil/PROJECTS/Mol_Feturizer/New_Systems/rnas/4P20

>  <Rbt.Executable>
rbdock ($Id: //depot/dev/client3/rdock/2013.1/src/exe/rbdock.cxx#4 $)

>  <Rbt.Library>
libRbt.so (2013.1, Build901 2013/11/27)

>  <Rbt.Parameter_File>
/export/apps/rDock/src/rDock_2013.1_src/data/scripts/dock_solv.prm

>  <Rbt.Receptor>
prm/blind_docking_100.prm

>  <SCORE>
34.7737

>  <SCORE.INTER>
8.02977

>  <SCORE.INTER.CONST>
1

>  <SCORE.INTER.POLAR>
0

>  <SCORE.INTER.ROT>
10

>  <SCORE.INTER.SOLV>
28.3216

>  <SCORE.INTER.VDW>
-14.354

>  <SCORE.INTER.norm>
0.200744

>  <SCORE.INTRA>
9.73703

>  <SCORE.INTRA.DIHEDRAL>
-0.252843

>  <SCORE.INTRA.DIHEDRAL.0>
28.2802

>  <SCORE.INTRA.POLAR>
0

>  <SCORE.INTRA.POLAR.0>
0

>  <SCORE.INTRA.REPUL>
0

>  <SCORE.INTRA.REPUL.0>
0

>  <SCORE.INTRA.SOLV>
9.86359

>  <SCORE.INTRA.SOLV.lig_0>
-101.981

>  <SCORE.INTRA.VDW>
4.93166

>  <SCORE.INTRA.VDW.0>
-5.72964

>  <SCORE.INTRA.norm>
0.243426

>  <SCORE.RESTR>
17.0069

>  <SCORE.RESTR.CAVITY>
17.0069

>  <SCORE.RESTR.norm>
0.425171

>  <SCORE.SYSTEM>
0

>  <SCORE.SYSTEM.CONST>
0

>  <SCORE.SYSTEM.DIHEDRAL>
0

>  <SCORE.SYSTEM.SOLV>
0

>  <SCORE.SYSTEM.norm>
0

>  <SCORE.heavy>
40

>  <SCORE.norm>
0.869341

>  <RMSD>
10.050

$$$$
ligand
 OpenBabel11021811503D
libRbt.so/2013.1/901 2013/11/27
 40 42  0  0  0  0  0  0  0  0999 V2000
    5.0726   -6.1123   20.1209 C   0  0  2  0  0  0  0  0  0  0  0  0
    3.8236   -5.5120   19.7434 O   0  0  0  0  0  0  0  0  0  0  0  0
    4.9664   -7.6828   20.0816 C   0  0  1  0  0  0  0  0  0  0  0  0
    3.9756   -8.2162   21.1572 C   0  0  2  0  0  0  0  0  0  0  0  0
    4.5035   -7.7633   22.5552 C   0  0  2  0  0  0  0  0  0  0  0  0
    3.6205   -8.2638   23.5821 O   0  0  0  0  0  0  0  0  0  0  0  0
    4.5582   -6.1734   22.5825 C   0  0  2  0  0  0  0  0  0  0  0  0
    5.4785   -5.6800   21.4963 O   0  0  0  0  0  0  0  0  0  0  0  0
    5.0825   -5.6304   23.9048 C   0  0  0  0  0  0  0  0  0  0  0  0
    5.0811   -4.1336   23.9236 N   0  0  0  0  0  0  0  0  0  0  0  0
    0.7407   -2.8376   21.3784 C   0  0  2  0  0  0  0  0  0  0  0  0
   -0.0644   -2.1221   22.3408 N   0  0  0  0  0  0  0  0  0  0  0  0
    0.5847   -4.3946   21.6111 C   0  0  0  0  0  0  0  0  0  0  0  0
    1.4719   -5.1981   20.5585 C   0  0  2  0  0  0  0  0  0  0  0  0
    1.3114   -6.6609   20.7680 N   0  0  0  0  0  0  0  0  0  0  0  0
    3.0007   -4.7560   20.7145 C   0  0  2  0  0  0  0  0  0  0  0  0
    3.1047   -3.1897   20.4742 C   0  0  2  0  0  0  0  0  0  0  0  0
    4.4691   -2.7851   20.6078 O   0  0  0  0  0  0  0  0  0  0  0  0
    2.2179   -2.4068   21.5211 C   0  0  1  0  0  0  0  0  0  0  0  0
    2.3071   -0.9813   21.2752 O   0  0  0  0  0  0  0  0  0  0  0  0
    2.8686   -0.3951   20.1500 C   0  0  2  0  0  0  0  0  0  0  0  0
    3.1376    1.1142   20.4886 C   0  0  2  0  0  0  0  0  0  0  0  0
    3.9688    1.2049   21.6004 O   0  0  0  0  0  0  0  0  0  0  0  0
    1.7868    1.9178   20.7150 C   0  0  1  0  0  0  0  0  0  0  0  0
    2.0655    3.3544   21.0236 N   0  0  0  0  0  0  0  0  0  0  0  0
    0.8870    1.7788   19.4103 C   0  0  2  0  0  0  0  0  0  0  0  0
   -0.3421    2.5000   19.5606 O   0  0  0  0  0  0  0  0  0  0  0  0
    0.6299    0.2437   19.1529 C   0  0  2  0  0  0  0  0  0  0  0  0
    1.9456   -0.5057   18.9914 O   0  0  0  0  0  0  0  0  0  0  0  0
   -0.2050    0.0310   17.9127 C   0  0  0  0  0  0  0  0  0  0  0  0
    0.4198    0.5537   16.7255 O   0  0  0  0  0  0  0  0  0  0  0  0
    4.5397   -8.0793   18.7457 O   0  0  0  0  0  0  0  0  0  0  0  0
    3.9316   -9.5876   21.0867 O   0  0  0  0  0  0  0  0  0  0  0  0
    0.5487   -1.6680   23.5676 C   0  0  0  0  0  0  0  0  0  0  0  0
    1.5960   -2.2376   23.9961 O   0  0  0  0  0  0  0  0  0  0  0  0
   -0.1225   -0.4801   24.3231 C   0  0  2  0  0  0  0  0  0  0  0  0
   -3.7941   -0.9160   23.1036 N   0  0  0  0  0  0  0  0  0  0  0  0
   -1.6708   -0.6607   24.3847 C   0  0  0  0  0  0  0  0  0  0  0  0
   -2.3168   -0.8433   23.0011 C   0  0  0  0  0  0  0  0  0  0  0  0
    0.0647    0.6371   23.7443 O   0  0  0  0  0  0  0  0  0  0  0  0
  1  2  1  1  0  0  0
  1  3  1  0  0  0  0
  1  8  1  0  0  0  0
  3  4  1  0  0  0  0
  3 32  1  6  0  0  0
  4  5  1  0  0  0  0
  4 33  1  1  0  0  0
  5  6  1  1  0  0  0
  5  7  1  0  0  0  0
  7  8  1  0  0  0  0
  7  9  1  1  0  0  0
  9 10  1  0  0  0  0
 11 12  1  1  0  0  0
 11 13  1  0  0  0  0
 11 19  1  0  0  0  0
 12 34  1  0  0  0  0
 13 14  1  0  0  0  0
 14 15  1  1  0  0  0
 14 16  1  0  0  0  0
 16  2  1  6  0  0  0
 16 17  1  0  0  0  0
 17 18  1  1  0  0  0
 17 19  1  0  0  0  0
 19 20  1  6  0  0  0
 21 20  1  1  0  0  0
 21 22  1  0  0  0  0
 21 29  1  0  0  0  0
 22 23  1  1  0  0  0
 22 24  1  0  0  0  0
 24 25  1  6  0  0  0
 24 26  1  0  0  0  0
 26 27  1  1  0  0  0
 26 28  1  0  0  0  0
 28 29  1  0  0  0  0
 28 30  1  6  0  0  0
 30 31  1  0  0  0  0
 34 35  2  0  0  0  0
 36 34  1  6  0  0  0
 36 38  1  0  0  0  0
 36 40  1  0  0  0  0
 37 39  1  0  0  0  0
 38 39  1  0  0  0  0
M  END
>  <CHROM.1>
112.39905188,-135.12663401,-178.06703184,94.45430198,-108.55475107,-163.38179399
60.09249554,44.18126963,-55.40715190,-176.04142564,2.14969888,-2.81602017
21.28345488,-0.86933869,0.83500298,-0.61307697

>  <Name>
ligand

>  <RI>
0

>  <Rbt.Current_Directory>
/home/itssahil/PROJECTS/Mol_Feturizer/New_Systems/rnas/4P20

>  <Rbt.Executable>
rbdock ($Id: //depot/dev/client3/rdock/2013.1/src/exe/rbdock.cxx#4 $)

>  <Rbt.Library>
libRbt.so (2013.1, Build901 2013/11/27)

>  <Rbt.Parameter_File>
/export/apps/rDock/src/rDock_2013.1_src/data/scripts/dock_solv.prm

>  <Rbt.Receptor>
prm/blind_docking_100.prm

>  <SCORE>
21.2979

>  <SCORE.INTER>
-1.51797

>  <SCORE.INTER.CONST>
1

>  <SCORE.INTER.POLAR>
0

>  <SCORE.INTER.ROT>
10

>  <SCORE.INTER.SOLV>
23.9329

>  <SCORE.INTER.VDW>
-19.2563

>  <SCORE.INTER.norm>
-0.0379492

>  <SCORE.INTRA>
4.66498

>  <SCORE.INTRA.DIHEDRAL>
-5.42712

>  <SCORE.INTRA.DIHEDRAL.0>
28.2802

>  <SCORE.INTRA.POLAR>
0

>  <SCORE.INTRA.POLAR.0>
0

>  <SCORE.INTRA.REPUL>
0

>  <SCORE.INTRA.REPUL.0>
0

>  <SCORE.INTRA.SOLV>
5.05688

>  <SCORE.INTRA.SOLV.lig_0>
-101.981

>  <SCORE.INTRA.VDW>
4.85011

>  <SCORE.INTRA.VDW.0>
-5.72964

>  <SCORE.INTRA.norm>
0.116625

>  <SCORE.RESTR>
18.1509

>  <SCORE.RESTR.CAVITY>
18.1509

>  <SCORE.RESTR.norm>
0.453771

>  <SCORE.SYSTEM>
0

>  <SCORE.SYSTEM.CONST>
0

>  <SCORE.SYSTEM.DIHEDRAL>
0

>  <SCORE.SYSTEM.SOLV>
0

>  <SCORE.SYSTEM.norm>
0

>  <SCORE.heavy>
40

>  <SCORE.norm>
0.532447

>  <RMSD>
10.056

$$$$
ligand
 OpenBabel11021811503D
libRbt.so/2013.1/901 2013/11/27
 40 42  0  0  0  0  0  0  0  0999 V2000
    4.9278   -6.2140   19.9312 C   0  0  2  0  0  0  0  0  0  0  0  0
    3.6939   -5.5578   19.5994 O   0  0  0  0  0  0  0  0  0  0  0  0
    4.7058   -7.7651   20.0861 C   0  0  1  0  0  0  0  0  0  0  0  0
    3.7900   -8.0935   21.3012 C   0  0  2  0  0  0  0  0  0  0  0  0
    4.4840   -7.5347   22.5835 C   0  0  2  0  0  0  0  0  0  0  0  0
    3.6729   -7.8447   23.7369 O   0  0  0  0  0  0  0  0  0  0  0  0
    4.6551   -5.9614   22.4192 C   0  0  2  0  0  0  0  0  0  0  0  0
    5.4970   -5.6679   21.2045 O   0  0  0  0  0  0  0  0  0  0  0  0
    5.3446   -5.3213   23.6163 C   0  0  0  0  0  0  0  0  0  0  0  0
    4.4169   -5.1997   24.7847 N   0  0  0  0  0  0  0  0  0  0  0  0
    0.6715   -2.9209   21.3998 C   0  0  2  0  0  0  0  0  0  0  0  0
   -0.0940   -2.2211   22.4051 N   0  0  0  0  0  0  0  0  0  0  0  0
    0.5348   -4.4813   21.6215 C   0  0  0  0  0  0  0  0  0  0  0  0
    1.3790   -5.2675   20.5214 C   0  0  2  0  0  0  0  0  0  0  0  0
    1.2362   -6.7335   20.7211 N   0  0  0  0  0  0  0  0  0  0  0  0
    2.9107   -4.8178   20.6145 C   0  0  2  0  0  0  0  0  0  0  0  0
    2.9950   -3.2483   20.3878 C   0  0  2  0  0  0  0  0  0  0  0  0
    4.3617   -2.8368   20.4654 O   0  0  0  0  0  0  0  0  0  0  0  0
    2.1511   -2.4827   21.4818 C   0  0  1  0  0  0  0  0  0  0  0  0
    2.2213   -1.0539   21.2485 O   0  0  0  0  0  0  0  0  0  0  0  0
    2.9801   -0.4385   20.2635 C   0  0  2  0  0  0  0  0  0  0  0  0
    3.2442    1.0388   20.7252 C   0  0  2  0  0  0  0  0  0  0  0  0
    3.8849    1.0371   21.9600 O   0  0  0  0  0  0  0  0  0  0  0  0
    1.9045    1.8896   20.7750 C   0  0  1  0  0  0  0  0  0  0  0  0
    2.1804    3.2954   21.2046 N   0  0  0  0  0  0  0  0  0  0  0  0
    1.2260    1.8557   19.3364 C   0  0  2  0  0  0  0  0  0  0  0  0
    0.0156    2.6228   19.3264 O   0  0  0  0  0  0  0  0  0  0  0  0
    0.9594    0.3482   18.9552 C   0  0  2  0  0  0  0  0  0  0  0  0
    2.2559   -0.4503   18.9666 O   0  0  0  0  0  0  0  0  0  0  0  0
    0.3317    0.2346   17.5864 C   0  0  0  0  0  0  0  0  0  0  0  0
   -0.5884    1.3059   17.3061 O   0  0  0  0  0  0  0  0  0  0  0  0
    4.1224   -8.2696   18.8495 O   0  0  0  0  0  0  0  0  0  0  0  0
    3.6411   -9.4560   21.3962 O   0  0  0  0  0  0  0  0  0  0  0  0
    0.5882   -1.6936   23.5641 C   0  0  0  0  0  0  0  0  0  0  0  0
    1.6984   -2.1890   23.9205 O   0  0  0  0  0  0  0  0  0  0  0  0
   -0.0888   -0.5216   24.3391 C   0  0  2  0  0  0  0  0  0  0  0  0
   -3.7890   -1.1112   23.2816 N   0  0  0  0  0  0  0  0  0  0  0  0
   -1.6263   -0.7518   24.4684 C   0  0  0  0  0  0  0  0  0  0  0  0
   -2.3201   -0.9942   23.1175 C   0  0  0  0  0  0  0  0  0  0  0  0
    0.0369    0.5960   23.7449 O   0  0  0  0  0  0  0  0  0  0  0  0
  1  2  1  1  0  0  0
  1  3  1  0  0  0  0
  1  8  1  0  0  0  0
  3  4  1  0  0  0  0
  3 32  1  6  0  0  0
  4  5  1  0  0  0  0
  4 33  1  1  0  0  0
  5  6  1  1  0  0  0
  5  7  1  0  0  0  0
  7  8  1  0  0  0  0
  7  9  1  1  0  0  0
  9 10  1  0  0  0  0
 11 12  1  1  0  0  0
 11 13  1  0  0  0  0
 11 19  1  0  0  0  0
 12 34  1  0  0  0  0
 13 14  1  0  0  0  0
 14 15  1  1  0  0  0
 14 16  1  0  0  0  0
 16  2  1  6  0  0  0
 16 17  1  0  0  0  0
 17 18  1  1  0  0  0
 17 19  1  0  0  0  0
 19 20  1  6  0  0  0
 21 20  1  1  0  0  0
 21 22  1  0  0  0  0
 21 29  1  0  0  0  0
 22 23  1  1  0  0  0
 22 24  1  0  0  0  0
 24 25  1  6  0  0  0
 24 26  1  0  0  0  0
 26 27  1  1  0  0  0
 26 28  1  0  0  0  0
 28 29  1  0  0  0  0
 28 30  1  6  0  0  0
 30 31  1  0  0  0  0
 34 35  2  0  0  0  0
 36 34  1  6  0  0  0
 36 38  1  0  0  0  0
 36 40  1  0  0  0  0
 37 39  1  0  0  0  0
 38 39  1  0  0  0  0
M  END
>  <CHROM.1>
102.01836105,-131.82313657,-76.01350909,98.81606763,-123.61008313,-156.65420092
-36.05184310,41.23612055,-54.28841150,-175.96751448,2.11938584,-2.82088033
21.31390420,-0.89520740,0.85599989,-0.61310954

>  <Name>
ligand

>  <RI>
0

>  <Rbt.Current_Directory>
/home/itssahil/PROJECTS/Mol_Feturizer/New_Systems/rnas/4P20

>  <Rbt.Executable>
rbdock ($Id: //depot/dev/client3/rdock/2013.1/src/exe/rbdock.cxx#4 $)

>  <Rbt.Library>
libRbt.so (2013.1, Build901 2013/11/27)

>  <Rbt.Parameter_File>
/export/apps/rDock/src/rDock_2013.1_src/data/scripts/dock_solv.prm

>  <Rbt.Receptor>
prm/blind_docking_100.prm

>  <SCORE>
30.3813

>  <SCORE.INTER>
2.93707

>  <SCORE.INTER.CONST>
1

>  <SCORE.INTER.POLAR>
0

>  <SCORE.INTER.ROT>
10

>  <SCORE.INTER.SOLV>
25.3461

>  <SCORE.INTER.VDW>
-16.7573

>  <SCORE.INTER.norm>
0.0734267

>  <SCORE.INTRA>
9.4797

>  <SCORE.INTRA.DIHEDRAL>
-1.61874

>  <SCORE.INTRA.DIHEDRAL.0>
28.2802

>  <SCORE.INTRA.POLAR>
0

>  <SCORE.INTRA.POLAR.0>
0

>  <SCORE.INTRA.REPUL>
0

>  <SCORE.INTRA.REPUL.0>
0

>  <SCORE.INTRA.SOLV>
4.90458

>  <SCORE.INTRA.SOLV.lig_0>
-101.981

>  <SCORE.INTRA.VDW>
7.83678

>  <SCORE.INTRA.VDW.0>
-5.72964

>  <SCORE.INTRA.norm>
0.236993

>  <SCORE.RESTR>
17.9645

>  <SCORE.RESTR.CAVITY>
17.9645

>  <SCORE.RESTR.norm>
0.449113

>  <SCORE.SYSTEM>
0

>  <SCORE.SYSTEM.CONST>
0

>  <SCORE.SYSTEM.DIHEDRAL>
0

>  <SCORE.SYSTEM.SOLV>
0

>  <SCORE.SYSTEM.norm>
0

>  <SCORE.heavy>
40

>  <SCORE.norm>
0.759532

>  <RMSD>
10.066

$$$$
ligand
 OpenBabel11021811503D
libRbt.so/2013.1/901 2013/11/27
 40 42  0  0  0  0  0  0  0  0999 V2000
    0.6269   -0.3797   18.7416 C   0  0  2  0  0  0  0  0  0  0  0  0
    2.0058   -0.6201   19.0635 O   0  0  0  0  0  0  0  0  0  0  0  0
    0.3483    1.1651   18.6179 C   0  0  1  0  0  0  0  0  0  0  0  0
    0.5265    1.8897   19.9840 C   0  0  2  0  0  0  0  0  0  0  0  0
   -0.4831    1.2561   20.9928 C   0  0  2  0  0  0  0  0  0  0  0  0
   -0.3637    1.9231   22.2676 O   0  0  0  0  0  0  0  0  0  0  0  0
   -0.1508   -0.2936   21.1324 C   0  0  2  0  0  0  0  0  0  0  0  0
   -0.2744   -0.9609   19.7872 O   0  0  0  0  0  0  0  0  0  0  0  0
   -1.0984   -1.0101   22.0847 C   0  0  0  0  0  0  0  0  0  0  0  0
   -0.8099   -0.6628   23.5118 N   0  0  0  0  0  0  0  0  0  0  0  0
    4.5000   -2.3866   22.2239 C   0  0  2  0  0  0  0  0  0  0  0  0
    4.8790   -2.9477   23.4998 N   0  0  0  0  0  0  0  0  0  0  0  0
    3.9496   -0.9184   22.4340 C   0  0  0  0  0  0  0  0  0  0  0  0
    3.5224   -0.2873   21.0340 C   0  0  2  0  0  0  0  0  0  0  0  0
    3.0210    1.0980   21.2312 N   0  0  0  0  0  0  0  0  0  0  0  0
    2.4087   -1.2146   20.3581 C   0  0  2  0  0  0  0  0  0  0  0  0
    3.0067   -2.6737   20.1702 C   0  0  2  0  0  0  0  0  0  0  0  0
    2.0191   -3.5098   19.5628 O   0  0  0  0  0  0  0  0  0  0  0  0
    3.4293   -3.2847   21.5642 C   0  0  1  0  0  0  0  0  0  0  0  0
    3.9918   -4.6067   21.3734 O   0  0  0  0  0  0  0  0  0  0  0  0
    3.4199   -5.7925   21.8111 C   0  0  2  0  0  0  0  0  0  0  0  0
    4.5321   -6.8996   21.7611 C   0  0  2  0  0  0  0  0  0  0  0  0
    5.6133   -6.5144   22.5470 O   0  0  0  0  0  0  0  0  0  0  0  0
    4.9872   -7.2116   20.2722 C   0  0  1  0  0  0  0  0  0  0  0  0
    6.0370   -8.2766   20.2469 N   0  0  0  0  0  0  0  0  0  0  0  0
    3.7101   -7.6496   19.4306 C   0  0  2  0  0  0  0  0  0  0  0  0
    4.0722   -7.9554   18.0783 O   0  0  0  0  0  0  0  0  0  0  0  0
    2.6540   -6.4794   19.4969 C   0  0  2  0  0  0  0  0  0  0  0  0
    2.2779   -6.1711   20.9398 O   0  0  0  0  0  0  0  0  0  0  0  0
    1.3999   -6.8327   18.7335 C   0  0  0  0  0  0  0  0  0  0  0  0
    1.6779   -7.4412   17.4587 O   0  0  0  0  0  0  0  0  0  0  0  0
    1.2567    1.7155   17.6200 O   0  0  0  0  0  0  0  0  0  0  0  0
    0.2598    3.2276   19.8211 O   0  0  0  0  0  0  0  0  0  0  0  0
    3.8549   -3.5073   24.3512 C   0  0  0  0  0  0  0  0  0  0  0  0
    2.6512   -3.1363   24.2150 O   0  0  0  0  0  0  0  0  0  0  0  0
    4.2876   -4.5567   25.4208 C   0  0  2  0  0  0  0  0  0  0  0  0
    7.2825   -4.9599   24.5861 N   0  0  0  0  0  0  0  0  0  0  0  0
    5.5704   -4.0890   26.1752 C   0  0  0  0  0  0  0  0  0  0  0  0
    6.7368   -3.7433   25.2344 C   0  0  0  0  0  0  0  0  0  0  0  0
    4.5876   -5.6822   24.9096 O   0  0  0  0  0  0  0  0  0  0  0  0
  1  2  1  1  0  0  0
  1  3  1  0  0  0  0
  1  8  1  0  0  0  0
  3  4  1  0  0  0  0
  3 32  1  6  0  0  0
  4  5  1  0  0  0  0
  4 33  1  6  0  0  0
  5  6  1  1  0  0  0
  5  7  1  0  0  0  0
  7  8  1  0  0  0  0
  7  9  1  1  0  0  0
  9 10  1  0  0  0  0
 11 12  1  1  0  0  0
 11 13  1  0  0  0  0
 11 19  1  0  0  0  0
 12 34  1  0  0  0  0
 13 14  1  0  0  0  0
 14 15  1  1  0  0  0
 14 16  1  0  0  0  0
 16  2  1  6  0  0  0
 16 17  1  0  0  0  0
 17 18  1  1  0  0  0
 17 19  1  0  0  0  0
 19 20  1  6  0  0  0
 21 20  1  6  0  0  0
 21 22  1  0  0  0  0
 21 29  1  0  0  0  0
 22 23  1  1  0  0  0
 22 24  1  0  0  0  0
 24 25  1  1  0  0  0
 24 26  1  0  0  0  0
 26 27  1  6  0  0  0
 26 28  1  0  0  0  0
 28 29  1  0  0  0  0
 28 30  1  6  0  0  0
 30 31  1  0  0  0  0
 34 35  2  0  0  0  0
 36 34  1  6  0  0  0
 36 38  1  0  0  0  0
 36 40  1  0  0  0  0
 37 39  1  0  0  0  0
 38 39  1  0  0  0  0
M  END
>  <CHROM.1>
114.16999630,-127.97671716,-73.58810206,81.09139666,126.85959913,-164.11694450
-43.93890784,45.16686617,-54.18752010,-69.63855922,2.77731423,-3.01577628
21.28900167,2.56875872,-0.94925856,0.68464968

>  <Name>
ligand

>  <RI>
0

>  <Rbt.Current_Directory>
/home/itssahil/PROJECTS/Mol_Feturizer/New_Systems/rnas/4P20

>  <Rbt.Executable>
rbdock ($Id: //depot/dev/client3/rdock/2013.1/src/exe/rbdock.cxx#4 $)

>  <Rbt.Library>
libRbt.so (2013.1, Build901 2013/11/27)

>  <Rbt.Parameter_File>
/export/apps/rDock/src/rDock_2013.1_src/data/scripts/dock_solv.prm

>  <Rbt.Receptor>
prm/blind_docking_100.prm

>  <SCORE>
32.8618

>  <SCORE.INTER>
4.45332

>  <SCORE.INTER.CONST>
1

>  <SCORE.INTER.POLAR>
0

>  <SCORE.INTER.ROT>
10

>  <SCORE.INTER.SOLV>
24.21

>  <SCORE.INTER.VDW>
-15.3678

>  <SCORE.INTER.norm>
0.111333

>  <SCORE.INTRA>
6.02507

>  <SCORE.INTRA.DIHEDRAL>
-2.85769

>  <SCORE.INTRA.DIHEDRAL.0>
28.2802

>  <SCORE.INTRA.POLAR>
0

>  <SCORE.INTRA.POLAR.0>
0

>  <SCORE.INTRA.REPUL>
0.0165469

>  <SCORE.INTRA.REPUL.0>
0

>  <SCORE.INTRA.SOLV>
10.0653

>  <SCORE.INTRA.SOLV.lig_0>
-101.981

>  <SCORE.INTRA.VDW>
2.33853

>  <SCORE.INTRA.VDW.0>
-5.72964

>  <SCORE.INTRA.norm>
0.150627

>  <SCORE.RESTR>
22.3834

>  <SCORE.RESTR.CAVITY>
22.3834

>  <SCORE.RESTR.norm>
0.559585

>  <SCORE.SYSTEM>
0

>  <SCORE.SYSTEM.CONST>
0

>  <SCORE.SYSTEM.DIHEDRAL>
0

>  <SCORE.SYSTEM.SOLV>
0

>  <SCORE.SYSTEM.norm>
0

>  <SCORE.heavy>
40

>  <SCORE.norm>
0.821545

>  <RMSD>
10.085

$$$$
ligand
 OpenBabel11021811503D
libRbt.so/2013.1/901 2013/11/27
 40 42  0  0  0  0  0  0  0  0999 V2000
    5.2528   -6.2852   20.3033 C   0  0  2  0  0  0  0  0  0  0  0  0
    4.0484   -5.6654   19.8255 O   0  0  0  0  0  0  0  0  0  0  0  0
    5.1164   -7.8537   20.2766 C   0  0  1  0  0  0  0  0  0  0  0  0
    4.0370   -8.3513   21.2816 C   0  0  2  0  0  0  0  0  0  0  0  0
    4.4685   -7.8888   22.7093 C   0  0  2  0  0  0  0  0  0  0  0  0
    3.5009   -8.3565   23.6735 O   0  0  0  0  0  0  0  0  0  0  0  0
    4.5547   -6.3001   22.7200 C   0  0  2  0  0  0  0  0  0  0  0  0
    5.5638   -5.8412   21.6996 O   0  0  0  0  0  0  0  0  0  0  0  0
    4.9902   -5.7486   24.0707 C   0  0  0  0  0  0  0  0  0  0  0  0
    5.0231   -4.2521   24.0686 N   0  0  0  0  0  0  0  0  0  0  0  0
    0.7108   -3.1913   21.2639 C   0  0  2  0  0  0  0  0  0  0  0  0
   -0.2042   -2.5420   22.1736 N   0  0  0  0  0  0  0  0  0  0  0  0
    0.6176   -4.7596   21.4493 C   0  0  0  0  0  0  0  0  0  0  0  0
    1.6262   -5.4903   20.4544 C   0  0  2  0  0  0  0  0  0  0  0  0
    1.5254   -6.9642   20.6183 N   0  0  0  0  0  0  0  0  0  0  0  0
    3.1128   -4.9768   20.7431 C   0  0  2  0  0  0  0  0  0  0  0  0
    3.1543   -3.4015   20.5463 C   0  0  2  0  0  0  0  0  0  0  0  0
    4.4810   -2.9330   20.7986 O   0  0  0  0  0  0  0  0  0  0  0  0
    2.1477   -2.6913   21.5349 C   0  0  1  0  0  0  0  0  0  0  0  0
    2.1823   -1.2571   21.3283 O   0  0  0  0  0  0  0  0  0  0  0  0
    2.9617   -0.6012   20.3864 C   0  0  2  0  0  0  0  0  0  0  0  0
    3.1909    0.8642   20.9015 C   0  0  2  0  0  0  0  0  0  0  0  0
    3.7941    0.8322   22.1546 O   0  0  0  0  0  0  0  0  0  0  0  0
    1.8384    1.6954   20.9367 C   0  0  1  0  0  0  0  0  0  0  0  0
    2.0815    3.0905   21.4179 N   0  0  0  0  0  0  0  0  0  0  0  0
    1.2041    1.6977   19.4777 C   0  0  2  0  0  0  0  0  0  0  0  0
   -0.0161    2.4487   19.4545 O   0  0  0  0  0  0  0  0  0  0  0  0
    0.9704    0.1995   19.0420 C   0  0  2  0  0  0  0  0  0  0  0  0
    2.2770   -0.5818   19.0683 O   0  0  0  0  0  0  0  0  0  0  0  0
    0.3858    0.1206   17.6519 C   0  0  0  0  0  0  0  0  0  0  0  0
   -0.7613    0.9739   17.4819 O   0  0  0  0  0  0  0  0  0  0  0  0
    4.7824   -8.2609   18.9177 O   0  0  0  0  0  0  0  0  0  0  0  0
    3.9694   -9.7224   21.2259 O   0  0  0  0  0  0  0  0  0  0  0  0
    0.3112   -1.9681   23.3950 C   0  0  0  0  0  0  0  0  0  0  0  0
    1.4061   -2.3879   23.8746 O   0  0  0  0  0  0  0  0  0  0  0  0
   -0.5219   -0.8421   24.0811 C   0  0  2  0  0  0  0  0  0  0  0  0
   -2.7211   -0.0285   25.9124 N   0  0  0  0  0  0  0  0  0  0  0  0
   -2.0312   -0.9550   23.7032 C   0  0  0  0  0  0  0  0  0  0  0  0
   -2.9208    0.0561   24.4458 C   0  0  0  0  0  0  0  0  0  0  0  0
   -0.1675    0.3229   23.7133 O   0  0  0  0  0  0  0  0  0  0  0  0
  1  2  1  1  0  0  0
  1  3  1  0  0  0  0
  1  8  1  0  0  0  0
  3  4  1  0  0  0  0
  3 32  1  6  0  0  0
  4  5  1  0  0  0  0
  4 33  1  1  0  0  0
  5  6  1  1  0  0  0
  5  7  1  0  0  0  0
  7  8  1  0  0  0  0
  7  9  1  1  0  0  0
  9 10  1  0  0  0  0
 11 12  1  1  0  0  0
 11 13  1  0  0  0  0
 11 19  1  0  0  0  0
 12 34  1  0  0  0  0
 13 14  1  0  0  0  0
 14 15  1  1  0  0  0
 14 16  1  0  0  0  0
 16  2  1  6  0  0  0
 16 17  1  0  0  0  0
 17 18  1  1  0  0  0
 17 19  1  0  0  0  0
 19 20  1  6  0  0  0
 21 20  1  1  0  0  0
 21 22  1  0  0  0  0
 21 29  1  0  0  0  0
 22 23  1  1  0  0  0
 22 24  1  0  0  0  0
 24 25  1  6  0  0  0
 24 26  1  0  0  0  0
 26 27  1  1  0  0  0
 26 28  1  0  0  0  0
 28 29  1  0  0  0  0
 28 30  1  6  0  0  0
 30 31  1  0  0  0  0
 34 35  2  0  0  0  0
 36 34  1  6  0  0  0
 36 38  1  0  0  0  0
 36 40  1  0  0  0  0
 37 39  1  0  0  0  0
 38 39  1  0  0  0  0
M  END
>  <CHROM.1>
107.12315011,-131.17372032,-178.24317809,100.73944169,-118.79864490,-155.19842695
-50.11019183,25.23123524,175.06485838,-53.52916433,2.16325332,-2.94477738
21.45418881,-0.78827997,0.88261466,-0.66290567

>  <Name>
ligand

>  <RI>
0

>  <Rbt.Current_Directory>
/home/itssahil/PROJECTS/Mol_Feturizer/New_Systems/rnas/4P20

>  <Rbt.Executable>
rbdock ($Id: //depot/dev/client3/rdock/2013.1/src/exe/rbdock.cxx#4 $)

>  <Rbt.Library>
libRbt.so (2013.1, Build901 2013/11/27)

>  <Rbt.Parameter_File>
/export/apps/rDock/src/rDock_2013.1_src/data/scripts/dock_solv.prm

>  <Rbt.Receptor>
prm/blind_docking_100.prm

>  <SCORE>
32.1404

>  <SCORE.INTER>
3.50186

>  <SCORE.INTER.CONST>
1

>  <SCORE.INTER.POLAR>
0

>  <SCORE.INTER.ROT>
10

>  <SCORE.INTER.SOLV>
29.068

>  <SCORE.INTER.VDW>
-17.6214

>  <SCORE.INTER.norm>
0.0875464

>  <SCORE.INTRA>
8.45293

>  <SCORE.INTRA.DIHEDRAL>
-2.08046

>  <SCORE.INTRA.DIHEDRAL.0>
28.2802

>  <SCORE.INTRA.POLAR>
0

>  <SCORE.INTRA.POLAR.0>
0

>  <SCORE.INTRA.REPUL>
0

>  <SCORE.INTRA.REPUL.0>
0

>  <SCORE.INTRA.SOLV>
6.58028

>  <SCORE.INTRA.SOLV.lig_0>
-101.981

>  <SCORE.INTRA.VDW>
6.20302

>  <SCORE.INTRA.VDW.0>
-5.72964

>  <SCORE.INTRA.norm>
0.211323

>  <SCORE.RESTR>
20.1856

>  <SCORE.RESTR.CAVITY>
20.1856

>  <SCORE.RESTR.norm>
0.50464

>  <SCORE.SYSTEM>
0

>  <SCORE.SYSTEM.CONST>
0

>  <SCORE.SYSTEM.DIHEDRAL>
0

>  <SCORE.SYSTEM.SOLV>
0

>  <SCORE.SYSTEM.norm>
0

>  <SCORE.heavy>
40

>  <SCORE.norm>
0.80351

>  <RMSD>
10.092

$$$$
ligand
 OpenBabel11021811503D
libRbt.so/2013.1/901 2013/11/27
 40 42  0  0  0  0  0  0  0  0999 V2000
   -1.8935   -9.0040   19.1216 C   0  0  2  0  0  0  0  0  0  0  0  0
   -0.8185   -8.8260   18.1858 O   0  0  0  0  0  0  0  0  0  0  0  0
   -2.9929   -9.9613   18.5265 C   0  0  1  0  0  0  0  0  0  0  0  0
   -3.6969   -9.3262   17.2920 C   0  0  2  0  0  0  0  0  0  0  0  0
   -4.3626   -7.9930   17.7588 C   0  0  2  0  0  0  0  0  0  0  0  0
   -5.0490   -7.3876   16.6422 O   0  0  0  0  0  0  0  0  0  0  0  0
   -3.2249   -7.0287   18.3132 C   0  0  2  0  0  0  0  0  0  0  0  0
   -2.5209   -7.6892   19.4699 O   0  0  0  0  0  0  0  0  0  0  0  0
   -3.7782   -5.7018   18.8147 C   0  0  0  0  0  0  0  0  0  0  0  0
   -4.5822   -5.0077   17.7601 N   0  0  0  0  0  0  0  0  0  0  0  0
    2.5542   -7.7649   20.7990 C   0  0  2  0  0  0  0  0  0  0  0  0
    3.8828   -7.3743   21.2099 N   0  0  0  0  0  0  0  0  0  0  0  0
    2.6279   -9.1235   19.9919 C   0  0  0  0  0  0  0  0  0  0  0  0
    1.1685   -9.5651   19.5272 C   0  0  2  0  0  0  0  0  0  0  0  0
    1.2376  -10.8501   18.7832 N   0  0  0  0  0  0  0  0  0  0  0  0
    0.5322   -8.4083   18.6251 C   0  0  2  0  0  0  0  0  0  0  0  0
    0.4815   -7.0687   19.4765 C   0  0  2  0  0  0  0  0  0  0  0  0
   -0.0897   -6.0287   18.6794 O   0  0  0  0  0  0  0  0  0  0  0  0
    1.9332   -6.6455   19.9334 C   0  0  1  0  0  0  0  0  0  0  0  0
    1.8674   -5.4339   20.7261 O   0  0  0  0  0  0  0  0  0  0  0  0
    1.8684   -4.1426   20.2189 C   0  0  2  0  0  0  0  0  0  0  0  0
    3.2495   -3.4923   20.5862 C   0  0  2  0  0  0  0  0  0  0  0  0
    4.2842   -4.2634   20.0666 O   0  0  0  0  0  0  0  0  0  0  0  0
    3.4110   -3.2966   22.1537 C   0  0  1  0  0  0  0  0  0  0  0  0
    4.7269   -2.6650   22.4800 N   0  0  0  0  0  0  0  0  0  0  0  0
    2.2039   -2.4054   22.6825 C   0  0  2  0  0  0  0  0  0  0  0  0
    2.3119   -2.1887   24.0949 O   0  0  0  0  0  0  0  0  0  0  0  0
    0.8555   -3.1349   22.3100 C   0  0  2  0  0  0  0  0  0  0  0  0
    0.7557   -3.3529   20.8063 O   0  0  0  0  0  0  0  0  0  0  0  0
   -0.3414   -2.3343   22.7647 C   0  0  0  0  0  0  0  0  0  0  0  0
   -1.5918   -2.9556   22.4135 O   0  0  0  0  0  0  0  0  0  0  0  0
   -2.3555  -11.2211   18.1650 O   0  0  0  0  0  0  0  0  0  0  0  0
   -4.6516  -10.1957   16.8227 O   0  0  0  0  0  0  0  0  0  0  0  0
    4.0337   -6.4768   22.3319 C   0  0  0  0  0  0  0  0  0  0  0  0
    3.0768   -5.7147   22.6613 O   0  0  0  0  0  0  0  0  0  0  0  0
    5.3937   -6.4846   23.0952 C   0  0  2  0  0  0  0  0  0  0  0  0
    5.3667   -3.4208   25.4971 N   0  0  0  0  0  0  0  0  0  0  0  0
    5.7245   -5.0692   23.6615 C   0  0  0  0  0  0  0  0  0  0  0  0
    4.9468   -4.7308   24.9443 C   0  0  0  0  0  0  0  0  0  0  0  0
    6.3753   -6.7862   22.3445 O   0  0  0  0  0  0  0  0  0  0  0  0
  1  2  1  6  0  0  0
  1  3  1  0  0  0  0
  1  8  1  0  0  0  0
  3  4  1  0  0  0  0
  3 32  1  6  0  0  0
  4  5  1  0  0  0  0
  4 33  1  1  0  0  0
  5  6  1  6  0  0  0
  5  7  1  0  0  0  0
  7  8  1  0  0  0  0
  7  9  1  1  0  0  0
  9 10  1  0  0  0  0
 11 12  1  6  0  0  0
 11 13  1  0  0  0  0
 11 19  1  0  0  0  0
 12 34  1  0  0  0  0
 13 14  1  0  0  0  0
 14 15  1  6  0  0  0
 14 16  1  0  0  0  0
 16  2  1  1  0  0  0
 16 17  1  0  0  0  0
 17 18  1  6  0  0  0
 17 19  1  0  0  0  0
 19 20  1  1  0  0  0
 21 20  1  1  0  0  0
 21 22  1  0  0  0  0
 21 29  1  0  0  0  0
 22 23  1  1  0  0  0
 22 24  1  0  0  0  0
 24 25  1  6  0  0  0
 24 26  1  0  0  0  0
 26 27  1  1  0  0  0
 26 28  1  0  0  0  0
 28 29  1  0  0  0  0
 28 30  1  6  0  0  0
 30 31  1  0  0  0  0
 34 35  2  0  0  0  0
 36 34  1  6  0  0  0
 36 38  1  0  0  0  0
 36 40  1  0  0  0  0
 37 39  1  0  0  0  0
 38 39  1  0  0  0  0
M  END
>  <CHROM.1>
-157.48121846,65.75638574,-55.29069866,-157.72932634,153.96011432,-109.55083545
178.64506722,148.05674585,78.20279482,175.86489106,0.78987662,-6.25470453
20.48153264,-2.48702984,-0.38879544,0.39974549

>  <Name>
ligand

>  <RI>
0

>  <Rbt.Current_Directory>
/home/itssahil/PROJECTS/Mol_Feturizer/New_Systems/rnas/4P20

>  <Rbt.Executable>
rbdock ($Id: //depot/dev/client3/rdock/2013.1/src/exe/rbdock.cxx#4 $)

>  <Rbt.Library>
libRbt.so (2013.1, Build901 2013/11/27)

>  <Rbt.Parameter_File>
/export/apps/rDock/src/rDock_2013.1_src/data/scripts/dock_solv.prm

>  <Rbt.Receptor>
prm/blind_docking_60.prm

>  <SCORE>
87.7838

>  <SCORE.INTER>
65.6654

>  <SCORE.INTER.CONST>
1

>  <SCORE.INTER.POLAR>
0

>  <SCORE.INTER.ROT>
10

>  <SCORE.INTER.SOLV>
32.7212

>  <SCORE.INTER.VDW>
22.6032

>  <SCORE.INTER.norm>
1.64164

>  <SCORE.INTRA>
1.3085

>  <SCORE.INTRA.DIHEDRAL>
-13.061

>  <SCORE.INTRA.DIHEDRAL.0>
28.2802

>  <SCORE.INTRA.POLAR>
0

>  <SCORE.INTRA.POLAR.0>
0

>  <SCORE.INTRA.REPUL>
0

>  <SCORE.INTRA.REPUL.0>
0

>  <SCORE.INTRA.SOLV>
8.92053

>  <SCORE.INTRA.SOLV.lig_0>
-101.981

>  <SCORE.INTRA.VDW>
3.37874

>  <SCORE.INTRA.VDW.0>
-5.72964

>  <SCORE.INTRA.norm>
0.0327125

>  <SCORE.RESTR>
20.8099

>  <SCORE.RESTR.CAVITY>
20.8099

>  <SCORE.RESTR.norm>
0.520247

>  <SCORE.SYSTEM>
0

>  <SCORE.SYSTEM.CONST>
0

>  <SCORE.SYSTEM.DIHEDRAL>
0

>  <SCORE.SYSTEM.SOLV>
0

>  <SCORE.SYSTEM.norm>
0

>  <SCORE.heavy>
40

>  <SCORE.norm>
2.1946

>  <RMSD>
10.103

$$$$
ligand
 OpenBabel11021811503D
libRbt.so/2013.1/901 2013/11/27
 40 42  0  0  0  0  0  0  0  0999 V2000
    5.0482   -6.1180   20.1192 C   0  0  2  0  0  0  0  0  0  0  0  0
    3.7869   -5.5277   19.7676 O   0  0  0  0  0  0  0  0  0  0  0  0
    4.9539   -7.6893   20.0817 C   0  0  1  0  0  0  0  0  0  0  0  0
    3.9897   -8.2308   21.1772 C   0  0  2  0  0  0  0  0  0  0  0  0
    4.5424   -7.7738   22.5643 C   0  0  2  0  0  0  0  0  0  0  0  0
    3.6848   -8.2815   23.6089 O   0  0  0  0  0  0  0  0  0  0  0  0
    4.5849   -6.1835   22.5909 C   0  0  2  0  0  0  0  0  0  0  0  0
    5.4787   -5.6826   21.4862 O   0  0  0  0  0  0  0  0  0  0  0  0
    5.1318   -5.6364   23.9023 C   0  0  0  0  0  0  0  0  0  0  0  0
    5.0291   -4.1442   23.9607 N   0  0  0  0  0  0  0  0  0  0  0  0
    0.7152   -2.9009   21.4978 C   0  0  2  0  0  0  0  0  0  0  0  0
   -0.0955   -2.2269   22.4853 N   0  0  0  0  0  0  0  0  0  0  0  0
    0.5336   -4.4657   21.6427 C   0  0  0  0  0  0  0  0  0  0  0  0
    1.4267   -5.2238   20.5617 C   0  0  2  0  0  0  0  0  0  0  0  0
    1.2423   -6.6933   20.6883 N   0  0  0  0  0  0  0  0  0  0  0  0
    2.9588   -4.8136   20.7655 C   0  0  2  0  0  0  0  0  0  0  0  0
    3.0886   -3.2383   20.6129 C   0  0  2  0  0  0  0  0  0  0  0  0
    4.4562   -2.8618   20.7898 O   0  0  0  0  0  0  0  0  0  0  0  0
    2.1957   -2.5005   21.6870 C   0  0  1  0  0  0  0  0  0  0  0  0
    2.3090   -1.0652   21.5209 O   0  0  0  0  0  0  0  0  0  0  0  0
    3.0404   -0.4278   20.5291 C   0  0  2  0  0  0  0  0  0  0  0  0
    3.2023    1.0750   20.9541 C   0  0  2  0  0  0  0  0  0  0  0  0
    3.8243    1.1470   22.1963 O   0  0  0  0  0  0  0  0  0  0  0  0
    1.8100    1.8383   20.9644 C   0  0  1  0  0  0  0  0  0  0  0  0
    1.9889    3.2697   21.3593 N   0  0  0  0  0  0  0  0  0  0  0  0
    1.1555    1.7230   19.5189 C   0  0  2  0  0  0  0  0  0  0  0  0
   -0.1015    2.4097   19.4732 O   0  0  0  0  0  0  0  0  0  0  0  0
    0.9919    0.1920   19.1751 C   0  0  2  0  0  0  0  0  0  0  0  0
    2.3368   -0.5203   19.2241 O   0  0  0  0  0  0  0  0  0  0  0  0
    0.3922    0.0024   17.8022 C   0  0  0  0  0  0  0  0  0  0  0  0
    1.0838    0.7508   16.7852 O   0  0  0  0  0  0  0  0  0  0  0  0
    4.5031   -8.0891   18.7547 O   0  0  0  0  0  0  0  0  0  0  0  0
    3.9554   -9.6025   21.1073 O   0  0  0  0  0  0  0  0  0  0  0  0
   -0.9909   -1.1768   22.0583 C   0  0  0  0  0  0  0  0  0  0  0  0
   -0.7683   -0.5625   20.9729 O   0  0  0  0  0  0  0  0  0  0  0  0
   -2.2085   -0.8390   22.9725 C   0  0  2  0  0  0  0  0  0  0  0  0
    0.5752    0.6885   23.6081 N   0  0  0  0  0  0  0  0  0  0  0  0
   -1.7792    0.0804   24.1574 C   0  0  0  0  0  0  0  0  0  0  0  0
   -0.2965   -0.0699   24.5370 C   0  0  0  0  0  0  0  0  0  0  0  0
   -2.7167   -1.8721   23.5133 O   0  0  0  0  0  0  0  0  0  0  0  0
  1  2  1  1  0  0  0
  1  3  1  0  0  0  0
  1  8  1  0  0  0  0
  3  4  1  0  0  0  0
  3 32  1  6  0  0  0
  4  5  1  0  0  0  0
  4 33  1  1  0  0  0
  5  6  1  1  0  0  0
  5  7  1  0  0  0  0
  7  8  1  0  0  0  0
  7  9  1  1  0  0  0
  9 10  1  0  0  0  0
 11 12  1  1  0  0  0
 11 13  1  0  0  0  0
 11 19  1  0  0  0  0
 12 34  1  0  0  0  0
 13 14  1  0  0  0  0
 14 15  1  1  0  0  0
 14 16  1  0  0  0  0
 16  2  1  6  0  0  0
 16 17  1  0  0  0  0
 17 18  1  1  0  0  0
 17 19  1  0  0  0  0
 19 20  1  6  0  0  0
 21 20  1  1  0  0  0
 21 22  1  0  0  0  0
 21 29  1  0  0  0  0
 22 23  1  1  0  0  0
 22 24  1  0  0  0  0
 24 25  1  6  0  0  0
 24 26  1  0  0  0  0
 26 27  1  1  0  0  0
 26 28  1  0  0  0  0
 28 29  1  0  0  0  0
 28 30  1  6  0  0  0
 30 31  1  0  0  0  0
 34 35  2  0  0  0  0
 36 34  1  1  0  0  0
 36 38  1  0  0  0  0
 36 40  1  0  0  0  0
 37 39  1  0  0  0  0
 38 39  1  0  0  0  0
M  END
>  <CHROM.1>
110.52455899,-137.78046160,-174.03728772,-128.47131352,-117.15268502,-164.83709977
51.12639107,80.63410733,-26.03931649,79.52116522,2.13888928,-2.78766350,21.25893509
-0.94307008,0.76554871,-0.50410560

>  <Name>
ligand

>  <RI>
0

>  <Rbt.Current_Directory>
/home/itssahil/PROJECTS/Mol_Feturizer/New_Systems/rnas/4P20

>  <Rbt.Executable>
rbdock ($Id: //depot/dev/client3/rdock/2013.1/src/exe/rbdock.cxx#4 $)

>  <Rbt.Library>
libRbt.so (2013.1, Build901 2013/11/27)

>  <Rbt.Parameter_File>
/export/apps/rDock/src/rDock_2013.1_src/data/scripts/dock_solv.prm

>  <Rbt.Receptor>
prm/blind_docking_100.prm

>  <SCORE>
22.4703

>  <SCORE.INTER>
-2.7184

>  <SCORE.INTER.CONST>
1

>  <SCORE.INTER.POLAR>
0

>  <SCORE.INTER.ROT>
10

>  <SCORE.INTER.SOLV>
24.6709

>  <SCORE.INTER.VDW>
-20.3026

>  <SCORE.INTER.norm>
-0.0679599

>  <SCORE.INTRA>
7.87517

>  <SCORE.INTRA.DIHEDRAL>
-0.347994

>  <SCORE.INTRA.DIHEDRAL.0>
28.2802

>  <SCORE.INTRA.POLAR>
0

>  <SCORE.INTRA.POLAR.0>
0

>  <SCORE.INTRA.REPUL>
0

>  <SCORE.INTRA.REPUL.0>
0

>  <SCORE.INTRA.SOLV>
12.6064

>  <SCORE.INTRA.SOLV.lig_0>
-101.981

>  <SCORE.INTRA.VDW>
1.74596

>  <SCORE.INTRA.VDW.0>
-5.72964

>  <SCORE.INTRA.norm>
0.196879

>  <SCORE.RESTR>
17.3135

>  <SCORE.RESTR.CAVITY>
17.3135

>  <SCORE.RESTR.norm>
0.432837

>  <SCORE.SYSTEM>
0

>  <SCORE.SYSTEM.CONST>
0

>  <SCORE.SYSTEM.DIHEDRAL>
0

>  <SCORE.SYSTEM.SOLV>
0

>  <SCORE.SYSTEM.norm>
0

>  <SCORE.heavy>
40

>  <SCORE.norm>
0.561757

>  <RMSD>
10.107

$$$$
ligand
 OpenBabel11021811503D
libRbt.so/2013.1/901 2013/11/27
 40 42  0  0  0  0  0  0  0  0999 V2000
    4.0314   -7.7772   20.0232 C   0  0  2  0  0  0  0  0  0  0  0  0
    2.7163   -7.2032   19.9586 O   0  0  0  0  0  0  0  0  0  0  0  0
    3.9462   -9.3302   20.2688 C   0  0  1  0  0  0  0  0  0  0  0  0
    3.3464   -9.6561   21.6677 C   0  0  2  0  0  0  0  0  0  0  0  0
    4.2726   -9.0071   22.7444 C   0  0  2  0  0  0  0  0  0  0  0  0
    3.7597   -9.3118   24.0592 O   0  0  0  0  0  0  0  0  0  0  0  0
    4.3048   -7.4352   22.5004 C   0  0  2  0  0  0  0  0  0  0  0  0
    4.8349   -7.1481   21.1196 O   0  0  0  0  0  0  0  0  0  0  0  0
    5.2025   -6.7090   23.4928 C   0  0  0  0  0  0  0  0  0  0  0  0
    4.4163   -5.7906   24.3753 N   0  0  0  0  0  0  0  0  0  0  0  0
    2.5554   -2.8958   20.8248 C   0  0  2  0  0  0  0  0  0  0  0  0
    2.3693   -1.4772   20.6267 N   0  0  0  0  0  0  0  0  0  0  0  0
    3.6808   -3.4237   19.8462 C   0  0  0  0  0  0  0  0  0  0  0  0
    3.8941   -4.9901   20.0501 C   0  0  2  0  0  0  0  0  0  0  0  0
    4.9632   -5.4813   19.1416 N   0  0  0  0  0  0  0  0  0  0  0  0
    2.5123   -5.7479   19.7796 C   0  0  2  0  0  0  0  0  0  0  0  0
    1.4176   -5.1835   20.7821 C   0  0  2  0  0  0  0  0  0  0  0  0
    0.1787   -5.8579   20.5505 O   0  0  0  0  0  0  0  0  0  0  0  0
    1.2196   -3.6305   20.5718 C   0  0  1  0  0  0  0  0  0  0  0  0
    0.2336   -3.1276   21.5075 O   0  0  0  0  0  0  0  0  0  0  0  0
    0.2259   -3.3724   22.8731 C   0  0  2  0  0  0  0  0  0  0  0  0
   -0.8909   -2.4698   23.5081 C   0  0  2  0  0  0  0  0  0  0  0  0
   -2.1169   -2.7532   22.9149 O   0  0  0  0  0  0  0  0  0  0  0  0
   -0.5395   -0.9258   23.3898 C   0  0  1  0  0  0  0  0  0  0  0  0
   -1.6094   -0.0856   24.0114 N   0  0  0  0  0  0  0  0  0  0  0  0
    0.8661   -0.6685   24.0893 C   0  0  2  0  0  0  0  0  0  0  0  0
    1.2228    0.7176   24.0202 O   0  0  0  0  0  0  0  0  0  0  0  0
    1.9412   -1.5793   23.3796 C   0  0  2  0  0  0  0  0  0  0  0  0
    1.5485   -3.0479   23.4665 O   0  0  0  0  0  0  0  0  0  0  0  0
    3.3039   -1.4036   24.0061 C   0  0  0  0  0  0  0  0  0  0  0  0
    3.3991   -2.0090   25.3089 O   0  0  0  0  0  0  0  0  0  0  0  0
    3.1344   -9.9170   19.2102 O   0  0  0  0  0  0  0  0  0  0  0  0
    3.3073  -11.0194   21.8331 O   0  0  0  0  0  0  0  0  0  0  0  0
    1.2442   -1.0207   19.8438 C   0  0  0  0  0  0  0  0  0  0  0  0
    0.7054   -1.7997   19.0026 O   0  0  0  0  0  0  0  0  0  0  0  0
    0.7401    0.4376   20.0714 C   0  0  2  0  0  0  0  0  0  0  0  0
    3.1708    1.5023   21.6575 N   0  0  0  0  0  0  0  0  0  0  0  0
    1.7946    1.4764   19.5789 C   0  0  0  0  0  0  0  0  0  0  0  0
    3.1883    1.2659   20.1940 C   0  0  0  0  0  0  0  0  0  0  0  0
    0.5513    0.7045   21.3007 O   0  0  0  0  0  0  0  0  0  0  0  0
  1  2  1  1  0  0  0
  1  3  1  0  0  0  0
  1  8  1  0  0  0  0
  3  4  1  0  0  0  0
  3 32  1  6  0  0  0
  4  5  1  0  0  0  0
  4 33  1  1  0  0  0
  5  6  1  1  0  0  0
  5  7  1  0  0  0  0
  7  8  1  0  0  0  0
  7  9  1  1  0  0  0
  9 10  1  0  0  0  0
 11 12  1  6  0  0  0
 11 13  1  0  0  0  0
 11 19  1  0  0  0  0
 12 34  1  0  0  0  0
 13 14  1  0  0  0  0
 14 15  1  6  0  0  0
 14 16  1  0  0  0  0
 16  2  1  1  0  0  0
 16 17  1  0  0  0  0
 17 18  1  6  0  0  0
 17 19  1  0  0  0  0
 19 20  1  1  0  0  0
 21 20  1  6  0  0  0
 21 22  1  0  0  0  0
 21 29  1  0  0  0  0
 22 23  1  6  0  0  0
 22 24  1  0  0  0  0
 24 25  1  1  0  0  0
 24 26  1  0  0  0  0
 26 27  1  6  0  0  0
 26 28  1  0  0  0  0
 28 29  1  0  0  0  0
 28 30  1  1  0  0  0
 30 31  1  0  0  0  0
 34 35  2  0  0  0  0
 36 34  1  1  0  0  0
 36 38  1  0  0  0  0
 36 40  1  0  0  0  0
 37 39  1  0  0  0  0
 38 39  1  0  0  0  0
M  END
>  <CHROM.1>
177.95326507,-14.09671170,-115.10163504,101.33763520,-70.68820474,172.00511919
72.49862760,67.73974998,-54.00731092,-65.38604539,2.21365768,-3.95635670
21.70412981,-0.48521006,1.20682769,-0.97200704

>  <Name>
ligand

>  <RI>
0

>  <Rbt.Current_Directory>
/home/itssahil/PROJECTS/Mol_Feturizer/New_Systems/rnas/4P20

>  <Rbt.Executable>
rbdock ($Id: //depot/dev/client3/rdock/2013.1/src/exe/rbdock.cxx#4 $)

>  <Rbt.Library>
libRbt.so (2013.1, Build901 2013/11/27)

>  <Rbt.Parameter_File>
/export/apps/rDock/src/rDock_2013.1_src/data/scripts/dock_solv.prm

>  <Rbt.Receptor>
prm/blind_docking_100.prm

>  <SCORE>
49.9692

>  <SCORE.INTER>
22.0944

>  <SCORE.INTER.CONST>
1

>  <SCORE.INTER.POLAR>
0

>  <SCORE.INTER.ROT>
10

>  <SCORE.INTER.SOLV>
33.9416

>  <SCORE.INTER.VDW>
-6.85096

>  <SCORE.INTER.norm>
0.552359

>  <SCORE.INTRA>
6.32833

>  <SCORE.INTRA.DIHEDRAL>
-13.3407

>  <SCORE.INTRA.DIHEDRAL.0>
28.2802

>  <SCORE.INTRA.POLAR>
0

>  <SCORE.INTRA.POLAR.0>
0

>  <SCORE.INTRA.REPUL>
0.158711

>  <SCORE.INTRA.REPUL.0>
0

>  <SCORE.INTRA.SOLV>
10.5904

>  <SCORE.INTRA.SOLV.lig_0>
-101.981

>  <SCORE.INTRA.VDW>
6.90994

>  <SCORE.INTRA.VDW.0>
-5.72964

>  <SCORE.INTRA.norm>
0.158208

>  <SCORE.RESTR>
21.5465

>  <SCORE.RESTR.CAVITY>
21.5465

>  <SCORE.RESTR.norm>
0.538664

>  <SCORE.SYSTEM>
0

>  <SCORE.SYSTEM.CONST>
0

>  <SCORE.SYSTEM.DIHEDRAL>
0

>  <SCORE.SYSTEM.SOLV>
0

>  <SCORE.SYSTEM.norm>
0

>  <SCORE.heavy>
40

>  <SCORE.norm>
1.24923

>  <RMSD>
10.133

$$$$
ligand
 OpenBabel11021811503D
libRbt.so/2013.1/901 2013/11/27
 40 42  0  0  0  0  0  0  0  0999 V2000
    5.0301   -6.7590   20.5084 C   0  0  2  0  0  0  0  0  0  0  0  0
    3.7990   -6.2767   19.9475 O   0  0  0  0  0  0  0  0  0  0  0  0
    4.7619   -7.9817   21.4636 C   0  0  1  0  0  0  0  0  0  0  0  0
    3.9410   -7.5593   22.7168 C   0  0  2  0  0  0  0  0  0  0  0  0
    4.7631   -6.4721   23.4786 C   0  0  2  0  0  0  0  0  0  0  0  0
    4.0418   -6.0743   24.6644 O   0  0  0  0  0  0  0  0  0  0  0  0
    4.9807   -5.2314   22.5065 C   0  0  2  0  0  0  0  0  0  0  0  0
    5.7267   -5.6776   21.2758 O   0  0  0  0  0  0  0  0  0  0  0  0
    5.7941   -4.1189   23.1536 C   0  0  0  0  0  0  0  0  0  0  0  0
    7.2528   -4.4530   23.1877 N   0  0  0  0  0  0  0  0  0  0  0  0
    0.4709   -3.5618   20.8870 C   0  0  2  0  0  0  0  0  0  0  0  0
   -0.4049   -2.6994   21.6457 N   0  0  0  0  0  0  0  0  0  0  0  0
    0.4540   -5.0151   21.5118 C   0  0  0  0  0  0  0  0  0  0  0  0
    1.4206   -5.9777   20.6873 C   0  0  2  0  0  0  0  0  0  0  0  0
    1.3909   -7.3467   21.2656 N   0  0  0  0  0  0  0  0  0  0  0  0
    2.9016   -5.3749   20.7044 C   0  0  2  0  0  0  0  0  0  0  0  0
    2.8659   -3.9192   20.0706 C   0  0  2  0  0  0  0  0  0  0  0  0
    4.1867   -3.3729   20.0779 O   0  0  0  0  0  0  0  0  0  0  0  0
    1.9017   -2.9778   20.8948 C   0  0  1  0  0  0  0  0  0  0  0  0
    1.8641   -1.6604   20.2919 O   0  0  0  0  0  0  0  0  0  0  0  0
    2.9741   -0.8854   19.9883 C   0  0  2  0  0  0  0  0  0  0  0  0
    3.1844    0.1226   21.1736 C   0  0  2  0  0  0  0  0  0  0  0  0
    3.3414   -0.5794   22.3643 O   0  0  0  0  0  0  0  0  0  0  0  0
    1.9941    1.1684   21.2768 C   0  0  1  0  0  0  0  0  0  0  0  0
    2.2206    2.1257   22.4033 N   0  0  0  0  0  0  0  0  0  0  0  0
    1.8713    1.9384   19.8900 C   0  0  2  0  0  0  0  0  0  0  0  0
    0.8153    2.9060   19.9369 O   0  0  0  0  0  0  0  0  0  0  0  0
    1.6274    0.8697   18.7554 C   0  0  2  0  0  0  0  0  0  0  0  0
    2.7602   -0.1471   18.7172 O   0  0  0  0  0  0  0  0  0  0  0  0
    1.5200    1.5276   17.4004 C   0  0  0  0  0  0  0  0  0  0  0  0
    0.4198    2.4525   17.3170 O   0  0  0  0  0  0  0  0  0  0  0  0
    4.0560   -9.0076   20.7064 O   0  0  0  0  0  0  0  0  0  0  0  0
    3.7478   -8.6582   23.5185 O   0  0  0  0  0  0  0  0  0  0  0  0
    0.0068   -2.2641   22.9602 C   0  0  0  0  0  0  0  0  0  0  0  0
    0.8598   -2.9402   23.6085 O   0  0  0  0  0  0  0  0  0  0  0  0
   -0.6335   -0.9620   23.5319 C   0  0  2  0  0  0  0  0  0  0  0  0
    2.7511    0.5474   24.7163 N   0  0  0  0  0  0  0  0  0  0  0  0
    0.4585    0.1083   23.8411 C   0  0  0  0  0  0  0  0  0  0  0  0
    1.6711   -0.4612   24.5961 C   0  0  0  0  0  0  0  0  0  0  0  0
   -1.2380   -1.1563   24.6341 O   0  0  0  0  0  0  0  0  0  0  0  0
  1  2  1  1  0  0  0
  1  3  1  0  0  0  0
  1  8  1  0  0  0  0
  3  4  1  0  0  0  0
  3 32  1  6  0  0  0
  4  5  1  0  0  0  0
  4 33  1  1  0  0  0
  5  6  1  1  0  0  0
  5  7  1  0  0  0  0
  7  8  1  0  0  0  0
  7  9  1  1  0  0  0
  9 10  1  0  0  0  0
 11 12  1  1  0  0  0
 11 13  1  0  0  0  0
 11 19  1  0  0  0  0
 12 34  1  0  0  0  0
 13 14  1  0  0  0  0
 14 15  1  1  0  0  0
 14 16  1  0  0  0  0
 16  2  1  6  0  0  0
 16 17  1  0  0  0  0
 17 18  1  1  0  0  0
 17 19  1  0  0  0  0
 19 20  1  6  0  0  0
 21 20  1  1  0  0  0
 21 22  1  0  0  0  0
 21 29  1  0  0  0  0
 22 23  1  1  0  0  0
 22 24  1  0  0  0  0
 24 25  1  1  0  0  0
 24 26  1  0  0  0  0
 26 27  1  1  0  0  0
 26 28  1  0  0  0  0
 28 29  1  0  0  0  0
 28 30  1  6  0  0  0
 30 31  1  0  0  0  0
 34 35  2  0  0  0  0
 36 34  1  1  0  0  0
 36 38  1  0  0  0  0
 36 40  1  0  0  0  0
 37 39  1  0  0  0  0
 38 39  1  0  0  0  0
M  END
>  <CHROM.1>
80.99483749,-128.43640037,76.85151776,72.94075811,-172.52537353,-96.80685648
-61.16101419,-120.51686003,-46.12304388,172.85451275,2.54642293,-2.89347540
21.55200728,-0.79443681,1.06851899,-0.88514923

>  <Name>
ligand

>  <RI>
0

>  <Rbt.Current_Directory>
/home/itssahil/PROJECTS/Mol_Feturizer/New_Systems/rnas/4P20

>  <Rbt.Executable>
rbdock ($Id: //depot/dev/client3/rdock/2013.1/src/exe/rbdock.cxx#4 $)

>  <Rbt.Library>
libRbt.so (2013.1, Build901 2013/11/27)

>  <Rbt.Parameter_File>
/export/apps/rDock/src/rDock_2013.1_src/data/scripts/dock_solv.prm

>  <Rbt.Receptor>
prm/blind_docking_100.prm

>  <SCORE>
91.7198

>  <SCORE.INTER>
71.733

>  <SCORE.INTER.CONST>
1

>  <SCORE.INTER.POLAR>
0

>  <SCORE.INTER.ROT>
10

>  <SCORE.INTER.SOLV>
26.4947

>  <SCORE.INTER.VDW>
28.7238

>  <SCORE.INTER.norm>
1.79332

>  <SCORE.INTRA>
3.61284

>  <SCORE.INTRA.DIHEDRAL>
-9.93464

>  <SCORE.INTRA.DIHEDRAL.0>
28.2802

>  <SCORE.INTRA.POLAR>
0

>  <SCORE.INTRA.POLAR.0>
0

>  <SCORE.INTRA.REPUL>
0

>  <SCORE.INTRA.REPUL.0>
0

>  <SCORE.INTRA.SOLV>
12.0568

>  <SCORE.INTRA.SOLV.lig_0>
-101.981

>  <SCORE.INTRA.VDW>
2.55177

>  <SCORE.INTRA.VDW.0>
-5.72964

>  <SCORE.INTRA.norm>
0.0903211

>  <SCORE.RESTR>
16.374

>  <SCORE.RESTR.CAVITY>
16.374

>  <SCORE.RESTR.norm>
0.409349

>  <SCORE.SYSTEM>
0

>  <SCORE.SYSTEM.CONST>
0

>  <SCORE.SYSTEM.DIHEDRAL>
0

>  <SCORE.SYSTEM.SOLV>
0

>  <SCORE.SYSTEM.norm>
0

>  <SCORE.heavy>
40

>  <SCORE.norm>
2.29299

>  <RMSD>
10.136

$$$$
ligand
 OpenBabel11021811503D
libRbt.so/2013.1/901 2013/11/27
 40 42  0  0  0  0  0  0  0  0999 V2000
    0.4642   -0.3369   18.7745 C   0  0  2  0  0  0  0  0  0  0  0  0
    1.8499   -0.6295   19.0143 O   0  0  0  0  0  0  0  0  0  0  0  0
    0.2254    1.2190   18.7362 C   0  0  1  0  0  0  0  0  0  0  0  0
    0.4925    1.8730   20.1232 C   0  0  2  0  0  0  0  0  0  0  0  0
   -0.4839    1.2200   21.1520 C   0  0  2  0  0  0  0  0  0  0  0  0
   -0.2818    1.8225   22.4484 O   0  0  0  0  0  0  0  0  0  0  0  0
   -0.1908   -0.3430   21.2033 C   0  0  2  0  0  0  0  0  0  0  0  0
   -0.4007   -0.9424   19.8369 O   0  0  0  0  0  0  0  0  0  0  0  0
   -1.1105   -1.0778   22.1688 C   0  0  0  0  0  0  0  0  0  0  0  0
   -0.5541   -1.0872   23.5584 N   0  0  0  0  0  0  0  0  0  0  0  0
    4.5006   -2.2233   22.1388 C   0  0  2  0  0  0  0  0  0  0  0  0
    4.9476   -2.6988   23.4274 N   0  0  0  0  0  0  0  0  0  0  0  0
    3.9964   -0.7297   22.2716 C   0  0  0  0  0  0  0  0  0  0  0  0
    3.4949   -0.1924   20.8571 C   0  0  2  0  0  0  0  0  0  0  0  0
    3.0369    1.2163   20.9803 N   0  0  0  0  0  0  0  0  0  0  0  0
    2.3210   -1.1374   20.3225 C   0  0  2  0  0  0  0  0  0  0  0  0
    2.8745   -2.6215   20.2083 C   0  0  2  0  0  0  0  0  0  0  0  0
    1.8327   -3.4740   19.7272 O   0  0  0  0  0  0  0  0  0  0  0  0
    3.3713   -3.1392   21.6156 C   0  0  1  0  0  0  0  0  0  0  0  0
    3.8921   -4.4859   21.4902 O   0  0  0  0  0  0  0  0  0  0  0  0
    3.1377   -5.6478   21.5656 C   0  0  2  0  0  0  0  0  0  0  0  0
    4.0910   -6.7992   22.0458 C   0  0  2  0  0  0  0  0  0  0  0  0
    4.6584   -6.4589   23.2695 O   0  0  0  0  0  0  0  0  0  0  0  0
    5.2085   -7.1283   20.9668 C   0  0  1  0  0  0  0  0  0  0  0  0
    6.0968   -8.2351   21.4387 N   0  0  0  0  0  0  0  0  0  0  0  0
    4.4962   -7.5132   19.5972 C   0  0  2  0  0  0  0  0  0  0  0  0
    5.4658   -7.8324   18.5915 O   0  0  0  0  0  0  0  0  0  0  0  0
    3.5859   -6.3011   19.1601 C   0  0  2  0  0  0  0  0  0  0  0  0
    2.5597   -5.9789   20.2378 O   0  0  0  0  0  0  0  0  0  0  0  0
    2.8582   -6.6025   17.8717 C   0  0  0  0  0  0  0  0  0  0  0  0
    3.6856   -7.2870   16.9128 O   0  0  0  0  0  0  0  0  0  0  0  0
    1.0989    1.7911   17.7195 O   0  0  0  0  0  0  0  0  0  0  0  0
    0.2574    3.2238   20.0356 O   0  0  0  0  0  0  0  0  0  0  0  0
    3.9658   -3.1439   24.3891 C   0  0  0  0  0  0  0  0  0  0  0  0
    2.7708   -2.7319   24.3052 O   0  0  0  0  0  0  0  0  0  0  0  0
    4.4327   -4.1243   25.5087 C   0  0  2  0  0  0  0  0  0  0  0  0
    7.8847   -4.4071   23.8518 N   0  0  0  0  0  0  0  0  0  0  0  0
    5.7789   -4.8118   25.1234 C   0  0  0  0  0  0  0  0  0  0  0  0
    6.8965   -3.8117   24.7830 C   0  0  0  0  0  0  0  0  0  0  0  0
    3.6104   -5.0754   25.7013 O   0  0  0  0  0  0  0  0  0  0  0  0
  1  2  1  1  0  0  0
  1  3  1  0  0  0  0
  1  8  1  0  0  0  0
  3  4  1  0  0  0  0
  3 32  1  6  0  0  0
  4  5  1  0  0  0  0
  4 33  1  6  0  0  0
  5  6  1  1  0  0  0
  5  7  1  0  0  0  0
  7  8  1  0  0  0  0
  7  9  1  1  0  0  0
  9 10  1  0  0  0  0
 11 12  1  1  0  0  0
 11 13  1  0  0  0  0
 11 19  1  0  0  0  0
 12 34  1  0  0  0  0
 13 14  1  0  0  0  0
 14 15  1  1  0  0  0
 14 16  1  0  0  0  0
 16  2  1  6  0  0  0
 16 17  1  0  0  0  0
 17 18  1  1  0  0  0
 17 19  1  0  0  0  0
 19 20  1  6  0  0  0
 21 20  1  6  0  0  0
 21 22  1  0  0  0  0
 21 29  1  0  0  0  0
 22 23  1  1  0  0  0
 22 24  1  0  0  0  0
 24 25  1  1  0  0  0
 24 26  1  0  0  0  0
 26 27  1  6  0  0  0
 26 28  1  0  0  0  0
 28 29  1  0  0  0  0
 28 30  1  6  0  0  0
 30 31  1  0  0  0  0
 34 35  2  0  0  0  0
 36 34  1  6  0  0  0
 36 38  1  0  0  0  0
 36 40  1  0  0  0  0
 37 39  1  0  0  0  0
 38 39  1  0  0  0  0
M  END
>  <CHROM.1>
106.35156305,-125.95369881,-87.58730956,79.95030240,153.39607171,-153.97964468
-40.72716958,-18.43917638,55.02835278,-153.18792604,2.90067573,-2.92192684
21.30237936,2.76165912,-0.97627236,0.93465571

>  <Name>
ligand

>  <RI>
0

>  <Rbt.Current_Directory>
/home/itssahil/PROJECTS/Mol_Feturizer/New_Systems/rnas/4P20

>  <Rbt.Executable>
rbdock ($Id: //depot/dev/client3/rdock/2013.1/src/exe/rbdock.cxx#4 $)

>  <Rbt.Library>
libRbt.so (2013.1, Build901 2013/11/27)

>  <Rbt.Parameter_File>
/export/apps/rDock/src/rDock_2013.1_src/data/scripts/dock_solv.prm

>  <Rbt.Receptor>
prm/blind_docking_100.prm

>  <SCORE>
33.6338

>  <SCORE.INTER>
4.19112

>  <SCORE.INTER.CONST>
1

>  <SCORE.INTER.POLAR>
0

>  <SCORE.INTER.ROT>
10

>  <SCORE.INTER.SOLV>
27.2032

>  <SCORE.INTER.VDW>
-16.5403

>  <SCORE.INTER.norm>
0.104778

>  <SCORE.INTRA>
7.92627

>  <SCORE.INTRA.DIHEDRAL>
-0.772319

>  <SCORE.INTRA.DIHEDRAL.0>
28.2802

>  <SCORE.INTRA.POLAR>
0

>  <SCORE.INTRA.POLAR.0>
0

>  <SCORE.INTRA.REPUL>
0.0217571

>  <SCORE.INTRA.REPUL.0>
0

>  <SCORE.INTRA.SOLV>
7.79216

>  <SCORE.INTRA.SOLV.lig_0>
-101.981

>  <SCORE.INTRA.VDW>
4.30756

>  <SCORE.INTRA.VDW.0>
-5.72964

>  <SCORE.INTRA.norm>
0.198157

>  <SCORE.RESTR>
21.5164

>  <SCORE.RESTR.CAVITY>
21.5164

>  <SCORE.RESTR.norm>
0.537911

>  <SCORE.SYSTEM>
0

>  <SCORE.SYSTEM.CONST>
0

>  <SCORE.SYSTEM.DIHEDRAL>
0

>  <SCORE.SYSTEM.SOLV>
0

>  <SCORE.SYSTEM.norm>
0

>  <SCORE.heavy>
40

>  <SCORE.norm>
0.840846

>  <RMSD>
10.136

$$$$
ligand
 OpenBabel11021811503D
libRbt.so/2013.1/901 2013/11/27
 40 42  0  0  0  0  0  0  0  0999 V2000
    5.0779   -6.2328   20.1028 C   0  0  2  0  0  0  0  0  0  0  0  0
    3.8384   -5.6176   19.7180 O   0  0  0  0  0  0  0  0  0  0  0  0
    4.9473   -7.8018   20.0816 C   0  0  1  0  0  0  0  0  0  0  0  0
    3.9483   -8.3073   21.1629 C   0  0  2  0  0  0  0  0  0  0  0  0
    4.4829   -7.8465   22.5558 C   0  0  2  0  0  0  0  0  0  0  0  0
    3.5921   -8.3215   23.5881 O   0  0  0  0  0  0  0  0  0  0  0  0
    4.5623   -6.2575   22.5648 C   0  0  2  0  0  0  0  0  0  0  0  0
    5.4902   -5.7909   21.4733 O   0  0  0  0  0  0  0  0  0  0  0  0
    5.0947   -5.7074   23.8809 C   0  0  0  0  0  0  0  0  0  0  0  0
    5.0826   -4.2107   23.8961 N   0  0  0  0  0  0  0  0  0  0  0  0
    0.7591   -2.9294   21.3371 C   0  0  2  0  0  0  0  0  0  0  0  0
   -0.0427   -2.2045   22.2952 N   0  0  0  0  0  0  0  0  0  0  0  0
    0.6059   -4.4840   21.5871 C   0  0  0  0  0  0  0  0  0  0  0  0
    1.4897   -5.2976   20.5394 C   0  0  2  0  0  0  0  0  0  0  0  0
    1.3318   -6.7583   20.7652 N   0  0  0  0  0  0  0  0  0  0  0  0
    3.0186   -4.8522   20.6843 C   0  0  2  0  0  0  0  0  0  0  0  0
    3.1198   -3.2884   20.4269 C   0  0  2  0  0  0  0  0  0  0  0  0
    4.4843   -2.8809   20.5506 O   0  0  0  0  0  0  0  0  0  0  0  0
    2.2364   -2.4954   21.4691 C   0  0  1  0  0  0  0  0  0  0  0  0
    2.3230   -1.0725   21.2076 O   0  0  0  0  0  0  0  0  0  0  0  0
    2.8262   -0.4991   20.0488 C   0  0  2  0  0  0  0  0  0  0  0  0
    3.2631    0.9677   20.3992 C   0  0  2  0  0  0  0  0  0  0  0  0
    4.2010    0.9453   21.4263 O   0  0  0  0  0  0  0  0  0  0  0  0
    2.0191    1.8791   20.7778 C   0  0  1  0  0  0  0  0  0  0  0  0
    2.4561    3.2737   21.0954 N   0  0  0  0  0  0  0  0  0  0  0  0
    0.9905    1.8662   19.5641 C   0  0  2  0  0  0  0  0  0  0  0  0
   -0.1476    2.6876   19.8530 O   0  0  0  0  0  0  0  0  0  0  0  0
    0.5708    0.3699   19.2927 C   0  0  2  0  0  0  0  0  0  0  0  0
    1.7910   -0.4868   18.9835 O   0  0  0  0  0  0  0  0  0  0  0  0
   -0.3942    0.2756   18.1349 C   0  0  0  0  0  0  0  0  0  0  0  0
    0.2082    0.6373   16.8783 O   0  0  0  0  0  0  0  0  0  0  0  0
    4.5148   -8.2070   18.7502 O   0  0  0  0  0  0  0  0  0  0  0  0
    3.8831   -9.6786   21.1082 O   0  0  0  0  0  0  0  0  0  0  0  0
    0.5783   -1.7243   23.5079 C   0  0  0  0  0  0  0  0  0  0  0  0
    1.6347   -2.2774   23.9356 O   0  0  0  0  0  0  0  0  0  0  0  0
   -0.0960   -0.5295   24.2498 C   0  0  2  0  0  0  0  0  0  0  0  0
   -1.7939    0.5813   21.0179 N   0  0  0  0  0  0  0  0  0  0  0  0
   -0.6549    0.5146   23.2344 C   0  0  0  0  0  0  0  0  0  0  0  0
   -1.7999   -0.0341   22.3667 C   0  0  0  0  0  0  0  0  0  0  0  0
    0.7195    0.1150   24.9830 O   0  0  0  0  0  0  0  0  0  0  0  0
  1  2  1  1  0  0  0
  1  3  1  0  0  0  0
  1  8  1  0  0  0  0
  3  4  1  0  0  0  0
  3 32  1  6  0  0  0
  4  5  1  0  0  0  0
  4 33  1  1  0  0  0
  5  6  1  1  0  0  0
  5  7  1  0  0  0  0
  7  8  1  0  0  0  0
  7  9  1  1  0  0  0
  9 10  1  0  0  0  0
 11 12  1  1  0  0  0
 11 13  1  0  0  0  0
 11 19  1  0  0  0  0
 12 34  1  0  0  0  0
 13 14  1  0  0  0  0
 14 15  1  1  0  0  0
 14 16  1  0  0  0  0
 16  2  1  6  0  0  0
 16 17  1  0  0  0  0
 17 18  1  1  0  0  0
 17 19  1  0  0  0  0
 19 20  1  6  0  0  0
 21 20  1  1  0  0  0
 21 22  1  0  0  0  0
 21 29  1  0  0  0  0
 22 23  1  1  0  0  0
 22 24  1  0  0  0  0
 24 25  1  6  0  0  0
 24 26  1  0  0  0  0
 26 27  1  1  0  0  0
 26 28  1  0  0  0  0
 28 29  1  0  0  0  0
 28 30  1  6  0  0  0
 30 31  1  0  0  0  0
 34 35  2  0  0  0  0
 36 34  1  6  0  0  0
 36 38  1  0  0  0  0
 36 40  1  0  0  0  0
 37 39  1  0  0  0  0
 38 39  1  0  0  0  0
M  END
>  <CHROM.1>
111.61276545,-133.98880679,-176.56469457,95.10903843,-105.59013357,-157.65426766
66.79814427,-38.52378589,65.08455437,-147.90290138,2.27379718,-2.79696347
21.22466041,-0.50376504,1.10396328,-1.09106140

>  <Name>
ligand

>  <RI>
0

>  <Rbt.Current_Directory>
/home/itssahil/PROJECTS/Mol_Feturizer/New_Systems/rnas/4P20

>  <Rbt.Executable>
rbdock ($Id: //depot/dev/client3/rdock/2013.1/src/exe/rbdock.cxx#4 $)

>  <Rbt.Library>
libRbt.so (2013.1, Build901 2013/11/27)

>  <Rbt.Parameter_File>
/export/apps/rDock/src/rDock_2013.1_src/data/scripts/dock_solv.prm

>  <Rbt.Receptor>
prm/blind_docking_100.prm

>  <SCORE>
26.1471

>  <SCORE.INTER>
0.118182

>  <SCORE.INTER.CONST>
1

>  <SCORE.INTER.POLAR>
0

>  <SCORE.INTER.ROT>
10

>  <SCORE.INTER.SOLV>
26.7394

>  <SCORE.INTER.VDW>
-19.101

>  <SCORE.INTER.norm>
0.00295456

>  <SCORE.INTRA>
7.35193

>  <SCORE.INTRA.DIHEDRAL>
-1.32133

>  <SCORE.INTRA.DIHEDRAL.0>
28.2802

>  <SCORE.INTRA.POLAR>
0

>  <SCORE.INTRA.POLAR.0>
0

>  <SCORE.INTRA.REPUL>
0

>  <SCORE.INTRA.REPUL.0>
0

>  <SCORE.INTRA.SOLV>
10.2194

>  <SCORE.INTRA.SOLV.lig_0>
-101.981

>  <SCORE.INTRA.VDW>
2.90288

>  <SCORE.INTRA.VDW.0>
-5.72964

>  <SCORE.INTRA.norm>
0.183798

>  <SCORE.RESTR>
18.677

>  <SCORE.RESTR.CAVITY>
18.677

>  <SCORE.RESTR.norm>
0.466925

>  <SCORE.SYSTEM>
0

>  <SCORE.SYSTEM.CONST>
0

>  <SCORE.SYSTEM.DIHEDRAL>
0

>  <SCORE.SYSTEM.SOLV>
0

>  <SCORE.SYSTEM.norm>
0

>  <SCORE.heavy>
40

>  <SCORE.norm>
0.653678

>  <RMSD>
10.148

$$$$
ligand
 OpenBabel11021811503D
libRbt.so/2013.1/901 2013/11/27
 40 42  0  0  0  0  0  0  0  0999 V2000
    4.4968   -7.0402   20.9014 C   0  0  2  0  0  0  0  0  0  0  0  0
    3.1200   -6.7985   20.5713 O   0  0  0  0  0  0  0  0  0  0  0  0
    4.6113   -8.1167   22.0448 C   0  0  1  0  0  0  0  0  0  0  0  0
    4.0104   -7.5960   23.3830 C   0  0  2  0  0  0  0  0  0  0  0  0
    4.8022   -6.3138   23.7919 C   0  0  2  0  0  0  0  0  0  0  0  0
    4.2876   -5.8165   25.0459 O   0  0  0  0  0  0  0  0  0  0  0  0
    4.6326   -5.2282   22.6411 C   0  0  2  0  0  0  0  0  0  0  0  0
    5.1690   -5.7772   21.3445 O   0  0  0  0  0  0  0  0  0  0  0  0
    5.3890   -3.9405   22.9377 C   0  0  0  0  0  0  0  0  0  0  0  0
    6.1155   -4.0183   24.2441 N   0  0  0  0  0  0  0  0  0  0  0  0
    2.4020   -2.4646   20.3925 C   0  0  2  0  0  0  0  0  0  0  0  0
    1.9596   -1.1809   19.8997 N   0  0  0  0  0  0  0  0  0  0  0  0
    3.4292   -3.0987   19.3699 C   0  0  0  0  0  0  0  0  0  0  0  0
    3.9231   -4.5191   19.8984 C   0  0  2  0  0  0  0  0  0  0  0  0
    4.9005   -5.1060   18.9447 N   0  0  0  0  0  0  0  0  0  0  0  0
    2.6571   -5.4767   20.0913 C   0  0  2  0  0  0  0  0  0  0  0  0
    1.6577   -4.7979   21.1219 C   0  0  2  0  0  0  0  0  0  0  0  0
    0.5236   -5.6487   21.3041 O   0  0  0  0  0  0  0  0  0  0  0  0
    1.1800   -3.3902   20.5876 C   0  0  1  0  0  0  0  0  0  0  0  0
    0.2859   -2.7752   21.5483 O   0  0  0  0  0  0  0  0  0  0  0  0
    0.1180   -3.1839   22.8635 C   0  0  2  0  0  0  0  0  0  0  0  0
   -1.1298   -2.4237   23.4383 C   0  0  2  0  0  0  0  0  0  0  0  0
   -2.2469   -2.6959   22.6551 O   0  0  0  0  0  0  0  0  0  0  0  0
   -0.8708   -0.8607   23.5448 C   0  0  1  0  0  0  0  0  0  0  0  0
   -2.0662   -0.1585   24.1057 N   0  0  0  0  0  0  0  0  0  0  0  0
    0.4120   -0.6181   24.4541 C   0  0  2  0  0  0  0  0  0  0  0  0
    0.6805    0.7827   24.5918 O   0  0  0  0  0  0  0  0  0  0  0  0
    1.6287   -1.3794   23.7992 C   0  0  2  0  0  0  0  0  0  0  0  0
    1.3278   -2.8660   23.6647 O   0  0  0  0  0  0  0  0  0  0  0  0
    2.8840   -1.2110   24.6217 C   0  0  0  0  0  0  0  0  0  0  0  0
    4.0203   -1.8814   24.0454 O   0  0  0  0  0  0  0  0  0  0  0  0
    3.9238   -9.3247   21.6064 O   0  0  0  0  0  0  0  0  0  0  0  0
    4.1480   -8.5671   24.3452 O   0  0  0  0  0  0  0  0  0  0  0  0
    2.2350    0.0024   20.6812 C   0  0  0  0  0  0  0  0  0  0  0  0
    2.4444   -0.1004   21.9264 O   0  0  0  0  0  0  0  0  0  0  0  0
    2.2569    1.3761   19.9430 C   0  0  2  0  0  0  0  0  0  0  0  0
    0.0548    0.4933   16.8547 N   0  0  0  0  0  0  0  0  0  0  0  0
    1.8271    1.2159   18.4520 C   0  0  0  0  0  0  0  0  0  0  0  0
    0.4063    0.6512   18.2863 C   0  0  0  0  0  0  0  0  0  0  0  0
    3.4180    1.8942   19.9063 O   0  0  0  0  0  0  0  0  0  0  0  0
  1  2  1  1  0  0  0
  1  3  1  0  0  0  0
  1  8  1  0  0  0  0
  3  4  1  0  0  0  0
  3 32  1  6  0  0  0
  4  5  1  0  0  0  0
  4 33  1  1  0  0  0
  5  6  1  1  0  0  0
  5  7  1  0  0  0  0
  7  8  1  0  0  0  0
  7  9  1  1  0  0  0
  9 10  1  0  0  0  0
 11 12  1  6  0  0  0
 11 13  1  0  0  0  0
 11 19  1  0  0  0  0
 12 34  1  0  0  0  0
 13 14  1  0  0  0  0
 14 15  1  6  0  0  0
 14 16  1  0  0  0  0
 16  2  1  1  0  0  0
 16 17  1  0  0  0  0
 17 18  1  6  0  0  0
 17 19  1  0  0  0  0
 19 20  1  1  0  0  0
 21 20  1  6  0  0  0
 21 22  1  0  0  0  0
 21 29  1  0  0  0  0
 22 23  1  6  0  0  0
 22 24  1  0  0  0  0
 24 25  1  1  0  0  0
 24 26  1  0  0  0  0
 26 27  1  6  0  0  0
 26 28  1  0  0  0  0
 28 29  1  0  0  0  0
 28 30  1  1  0  0  0
 30 31  1  0  0  0  0
 34 35  2  0  0  0  0
 36 34  1  6  0  0  0
 36 38  1  0  0  0  0
 36 40  1  0  0  0  0
 37 39  1  0  0  0  0
 38 39  1  0  0  0  0
M  END
>  <CHROM.1>
149.13232641,5.20683255,0.30483385,-118.39388730,-105.61844003,-169.24534941
-179.35827743,5.45694559,60.15152250,-178.90710848,2.37908577,-3.21902241
21.87429728,-0.64631425,0.97651261,-1.00963716

>  <Name>
ligand

>  <RI>
0

>  <Rbt.Current_Directory>
/home/itssahil/PROJECTS/Mol_Feturizer/New_Systems/rnas/4P20

>  <Rbt.Executable>
rbdock ($Id: //depot/dev/client3/rdock/2013.1/src/exe/rbdock.cxx#4 $)

>  <Rbt.Library>
libRbt.so (2013.1, Build901 2013/11/27)

>  <Rbt.Parameter_File>
/export/apps/rDock/src/rDock_2013.1_src/data/scripts/dock_solv.prm

>  <Rbt.Receptor>
prm/blind_docking_100.prm

>  <SCORE>
110.273

>  <SCORE.INTER>
80.0108

>  <SCORE.INTER.CONST>
1

>  <SCORE.INTER.POLAR>
0

>  <SCORE.INTER.ROT>
10

>  <SCORE.INTER.SOLV>
41.4737

>  <SCORE.INTER.VDW>
29.2493

>  <SCORE.INTER.norm>
2.00027

>  <SCORE.INTRA>
18.0365

>  <SCORE.INTRA.DIHEDRAL>
-1.75682

>  <SCORE.INTRA.DIHEDRAL.0>
28.2802

>  <SCORE.INTRA.POLAR>
0

>  <SCORE.INTRA.POLAR.0>
0

>  <SCORE.INTRA.REPUL>
0

>  <SCORE.INTRA.REPUL.0>
0

>  <SCORE.INTRA.SOLV>
6.57102

>  <SCORE.INTRA.SOLV.lig_0>
-101.981

>  <SCORE.INTRA.VDW>
15.6294

>  <SCORE.INTRA.VDW.0>
-5.72964

>  <SCORE.INTRA.norm>
0.450912

>  <SCORE.RESTR>
12.2253

>  <SCORE.RESTR.CAVITY>
12.2253

>  <SCORE.RESTR.norm>
0.305631

>  <SCORE.SYSTEM>
0

>  <SCORE.SYSTEM.CONST>
0

>  <SCORE.SYSTEM.DIHEDRAL>
0

>  <SCORE.SYSTEM.SOLV>
0

>  <SCORE.SYSTEM.norm>
0

>  <SCORE.heavy>
40

>  <SCORE.norm>
2.75681

>  <RMSD>
10.153

$$$$
ligand
 OpenBabel11021811513D
libRbt.so/2013.1/901 2013/11/27
 40 42  0  0  0  0  0  0  0  0999 V2000
    8.7092   -2.4661   26.2917 C   0  0  2  0  0  0  0  0  0  0  0  0
    7.6414   -3.4089   26.1073 O   0  0  0  0  0  0  0  0  0  0  0  0
    8.8107   -1.4958   25.0558 C   0  0  1  0  0  0  0  0  0  0  0  0
    9.2272   -2.2571   23.7636 C   0  0  2  0  0  0  0  0  0  0  0  0
   10.6189   -2.9142   24.0273 C   0  0  2  0  0  0  0  0  0  0  0  0
   11.0499   -3.6094   22.8376 O   0  0  0  0  0  0  0  0  0  0  0  0
   10.4770   -3.9217   25.2506 C   0  0  2  0  0  0  0  0  0  0  0  0
   10.0181   -3.1711   26.4737 O   0  0  0  0  0  0  0  0  0  0  0  0
   11.7930   -4.6025   25.6014 C   0  0  0  0  0  0  0  0  0  0  0  0
   12.9443   -3.6496   25.5172 N   0  0  0  0  0  0  0  0  0  0  0  0
    3.4306   -3.5843   24.8551 C   0  0  2  0  0  0  0  0  0  0  0  0
    2.1386   -3.1548   24.3725 N   0  0  0  0  0  0  0  0  0  0  0  0
    3.7877   -2.7993   26.1814 C   0  0  0  0  0  0  0  0  0  0  0  0
    5.2142   -3.2596   26.7237 C   0  0  2  0  0  0  0  0  0  0  0  0
    5.5409   -2.5331   27.9787 N   0  0  0  0  0  0  0  0  0  0  0  0
    6.3162   -2.9909   25.5966 C   0  0  2  0  0  0  0  0  0  0  0  0
    5.9133   -3.7965   24.2887 C   0  0  2  0  0  0  0  0  0  0  0  0
    6.8950   -3.5657   23.2757 O   0  0  0  0  0  0  0  0  0  0  0  0
    4.4968   -3.3333   23.7651 C   0  0  1  0  0  0  0  0  0  0  0  0
    4.1350   -4.0920   22.5843 O   0  0  0  0  0  0  0  0  0  0  0  0
    3.3326   -5.2238   22.5730 C   0  0  2  0  0  0  0  0  0  0  0  0
    4.2684   -6.4678   22.7772 C   0  0  2  0  0  0  0  0  0  0  0  0
    4.9738   -6.3338   23.9687 O   0  0  0  0  0  0  0  0  0  0  0  0
    5.2522   -6.6740   21.5480 C   0  0  1  0  0  0  0  0  0  0  0  0
    6.1250   -7.8704   21.7575 N   0  0  0  0  0  0  0  0  0  0  0  0
    4.3858   -6.8252   20.2223 C   0  0  2  0  0  0  0  0  0  0  0  0
    5.2306   -7.0271   19.0825 O   0  0  0  0  0  0  0  0  0  0  0  0
    3.5002   -5.5291   20.0645 C   0  0  2  0  0  0  0  0  0  0  0  0
    2.6066   -5.3329   21.2816 O   0  0  0  0  0  0  0  0  0  0  0  0
    2.6310   -5.6092   18.8322 C   0  0  0  0  0  0  0  0  0  0  0  0
    1.4917   -6.4711   19.0106 O   0  0  0  0  0  0  0  0  0  0  0  0
    7.5188   -0.8453   24.8773 O   0  0  0  0  0  0  0  0  0  0  0  0
    9.3125   -1.3634   22.7235 O   0  0  0  0  0  0  0  0  0  0  0  0
    2.0744   -2.1085   23.3785 C   0  0  0  0  0  0  0  0  0  0  0  0
    3.0388   -1.2961   23.2568 O   0  0  0  0  0  0  0  0  0  0  0  0
    0.7957   -2.0235   22.4896 C   0  0  2  0  0  0  0  0  0  0  0  0
    3.3291   -1.8455   20.6102 N   0  0  0  0  0  0  0  0  0  0  0  0
    1.0363   -1.1058   21.2512 C   0  0  0  0  0  0  0  0  0  0  0  0
    1.9154   -1.7596   20.1719 C   0  0  0  0  0  0  0  0  0  0  0  0
   -0.1940   -1.5112   23.1027 O   0  0  0  0  0  0  0  0  0  0  0  0
  1  2  1  6  0  0  0
  1  3  1  0  0  0  0
  1  8  1  0  0  0  0
  3  4  1  0  0  0  0
  3 32  1  6  0  0  0
  4  5  1  0  0  0  0
  4 33  1  6  0  0  0
  5  6  1  6  0  0  0
  5  7  1  0  0  0  0
  7  8  1  0  0  0  0
  7  9  1  1  0  0  0
  9 10  1  0  0  0  0
 11 12  1  6  0  0  0
 11 13  1  0  0  0  0
 11 19  1  0  0  0  0
 12 34  1  0  0  0  0
 13 14  1  0  0  0  0
 14 15  1  1  0  0  0
 14 16  1  0  0  0  0
 16  2  1  1  0  0  0
 16 17  1  0  0  0  0
 17 18  1  6  0  0  0
 17 19  1  0  0  0  0
 19 20  1  6  0  0  0
 21 20  1  6  0  0  0
 21 22  1  0  0  0  0
 21 29  1  0  0  0  0
 22 23  1  1  0  0  0
 22 24  1  0  0  0  0
 24 25  1  1  0  0  0
 24 26  1  0  0  0  0
 26 27  1  6  0  0  0
 26 28  1  0  0  0  0
 28 29  1  0  0  0  0
 28 30  1  6  0  0  0
 30 31  1  0  0  0  0
 34 35  2  0  0  0  0
 36 34  1  1  0  0  0
 36 38  1  0  0  0  0
 36 40  1  0  0  0  0
 37 39  1  0  0  0  0
 38 39  1  0  0  0  0
M  END
>  <CHROM.1>
-44.19911907,-116.64588641,40.26409142,94.54297142,-23.57924596,-88.98308027
76.59140929,-165.22638193,74.21329165,-71.98247944,5.55179050,-3.69484313
23.31079154,0.42758726,-0.25608483,0.81283231

>  <Name>
ligand

>  <RI>
0

>  <Rbt.Current_Directory>
/home/itssahil/PROJECTS/Mol_Feturizer/New_Systems/rnas/4P20

>  <Rbt.Executable>
rbdock ($Id: //depot/dev/client3/rdock/2013.1/src/exe/rbdock.cxx#4 $)

>  <Rbt.Library>
libRbt.so (2013.1, Build901 2013/11/27)

>  <Rbt.Parameter_File>
/export/apps/rDock/src/rDock_2013.1_src/data/scripts/dock_solv.prm

>  <Rbt.Receptor>
prm/blind_docking_60.prm

>  <SCORE>
45.8224

>  <SCORE.INTER>
27.7451

>  <SCORE.INTER.CONST>
1

>  <SCORE.INTER.POLAR>
0

>  <SCORE.INTER.ROT>
10

>  <SCORE.INTER.SOLV>
30.0106

>  <SCORE.INTER.VDW>
-1.77349

>  <SCORE.INTER.norm>
0.693627

>  <SCORE.INTRA>
6.06609

>  <SCORE.INTRA.DIHEDRAL>
-6.5604

>  <SCORE.INTRA.DIHEDRAL.0>
28.2802

>  <SCORE.INTRA.POLAR>
0

>  <SCORE.INTRA.POLAR.0>
0

>  <SCORE.INTRA.REPUL>
0

>  <SCORE.INTRA.REPUL.0>
0

>  <SCORE.INTRA.SOLV>
9.00868

>  <SCORE.INTRA.SOLV.lig_0>
-101.981

>  <SCORE.INTRA.VDW>
4.84195

>  <SCORE.INTRA.VDW.0>
-5.72964

>  <SCORE.INTRA.norm>
0.151652

>  <SCORE.RESTR>
12.0112

>  <SCORE.RESTR.CAVITY>
12.0112

>  <SCORE.RESTR.norm>
0.300281

>  <SCORE.SYSTEM>
0

>  <SCORE.SYSTEM.CONST>
0

>  <SCORE.SYSTEM.DIHEDRAL>
0

>  <SCORE.SYSTEM.SOLV>
0

>  <SCORE.SYSTEM.norm>
0

>  <SCORE.heavy>
40

>  <SCORE.norm>
1.14556

>  <RMSD>
10.154

$$$$
ligand
 OpenBabel11021811513D
libRbt.so/2013.1/901 2013/11/27
 40 42  0  0  0  0  0  0  0  0999 V2000
    8.5278   -3.1087   25.5303 C   0  0  2  0  0  0  0  0  0  0  0  0
    7.5777   -3.4375   24.5046 O   0  0  0  0  0  0  0  0  0  0  0  0
    8.9240   -1.5868   25.4508 C   0  0  1  0  0  0  0  0  0  0  0  0
    9.6928   -1.2637   24.1365 C   0  0  2  0  0  0  0  0  0  0  0  0
   10.9842   -2.1414   24.1138 C   0  0  2  0  0  0  0  0  0  0  0  0
   11.7376   -1.8482   22.9176 O   0  0  0  0  0  0  0  0  0  0  0  0
   10.5537   -3.6727   24.1496 C   0  0  2  0  0  0  0  0  0  0  0  0
    9.7626   -3.9468   25.4023 O   0  0  0  0  0  0  0  0  0  0  0  0
   11.7495   -4.6150   24.1510 C   0  0  0  0  0  0  0  0  0  0  0  0
   12.8695   -4.0806   24.9881 N   0  0  0  0  0  0  0  0  0  0  0  0
    3.1830   -3.3838   24.3878 C   0  0  2  0  0  0  0  0  0  0  0  0
    1.8291   -2.8846   24.4532 N   0  0  0  0  0  0  0  0  0  0  0  0
    3.9003   -3.1519   25.7786 C   0  0  0  0  0  0  0  0  0  0  0  0
    5.3982   -3.6938   25.7202 C   0  0  2  0  0  0  0  0  0  0  0  0
    6.0654   -3.4902   27.0327 N   0  0  0  0  0  0  0  0  0  0  0  0
    6.1840   -2.9402   24.5490 C   0  0  2  0  0  0  0  0  0  0  0  0
    5.4264   -3.2011   23.1779 C   0  0  2  0  0  0  0  0  0  0  0  0
    6.1238   -2.5341   22.1234 O   0  0  0  0  0  0  0  0  0  0  0  0
    3.9430   -2.6630   23.2516 C   0  0  1  0  0  0  0  0  0  0  0  0
    3.2596   -2.9273   22.0011 O   0  0  0  0  0  0  0  0  0  0  0  0
    3.8454   -3.4683   20.8657 C   0  0  2  0  0  0  0  0  0  0  0  0
    2.7112   -4.1723   20.0393 C   0  0  2  0  0  0  0  0  0  0  0  0
    1.7150   -3.2517   19.7307 O   0  0  0  0  0  0  0  0  0  0  0  0
    2.1145   -5.4277   20.8070 C   0  0  1  0  0  0  0  0  0  0  0  0
    1.0456   -6.0900   19.9973 N   0  0  0  0  0  0  0  0  0  0  0  0
    3.2995   -6.4406   21.1247 C   0  0  2  0  0  0  0  0  0  0  0  0
    2.8082   -7.6003   21.8082 O   0  0  0  0  0  0  0  0  0  0  0  0
    4.3806   -5.6770   21.9833 C   0  0  2  0  0  0  0  0  0  0  0  0
    4.8943   -4.4511   21.2405 O   0  0  0  0  0  0  0  0  0  0  0  0
    5.5516   -6.5735   22.3082 C   0  0  0  0  0  0  0  0  0  0  0  0
    5.1672   -7.7397   23.0599 O   0  0  0  0  0  0  0  0  0  0  0  0
    7.7064   -0.7915   25.5448 O   0  0  0  0  0  0  0  0  0  0  0  0
   10.0237    0.0697   24.1259 O   0  0  0  0  0  0  0  0  0  0  0  0
    1.5828   -1.4887   24.1745 C   0  0  0  0  0  0  0  0  0  0  0  0
    2.5191   -0.6457   24.3070 O   0  0  0  0  0  0  0  0  0  0  0  0
    0.1486   -1.0769   23.7205 C   0  0  2  0  0  0  0  0  0  0  0  0
   -0.1423   -4.0556   23.0612 N   0  0  0  0  0  0  0  0  0  0  0  0
   -0.1874   -1.6758   22.3198 C   0  0  0  0  0  0  0  0  0  0  0  0
   -0.9529   -3.0075   22.3960 C   0  0  0  0  0  0  0  0  0  0  0  0
    0.0185    0.1817   23.5900 O   0  0  0  0  0  0  0  0  0  0  0  0
  1  2  1  6  0  0  0
  1  3  1  0  0  0  0
  1  8  1  0  0  0  0
  3  4  1  0  0  0  0
  3 32  1  6  0  0  0
  4  5  1  0  0  0  0
  4 33  1  1  0  0  0
  5  6  1  6  0  0  0
  5  7  1  0  0  0  0
  7  8  1  0  0  0  0
  7  9  1  1  0  0  0
  9 10  1  0  0  0  0
 11 12  1  1  0  0  0
 11 13  1  0  0  0  0
 11 19  1  0  0  0  0
 12 34  1  0  0  0  0
 13 14  1  0  0  0  0
 14 15  1  1  0  0  0
 14 16  1  0  0  0  0
 16  2  1  6  0  0  0
 16 17  1  0  0  0  0
 17 18  1  6  0  0  0
 17 19  1  0  0  0  0
 19 20  1  6  0  0  0
 21 20  1  1  0  0  0
 21 22  1  0  0  0  0
 21 29  1  0  0  0  0
 22 23  1  1  0  0  0
 22 24  1  0  0  0  0
 24 25  1  6  0  0  0
 24 26  1  0  0  0  0
 26 27  1  1  0  0  0
 26 28  1  0  0  0  0
 28 29  1  0  0  0  0
 28 30  1  6  0  0  0
 30 31  1  0  0  0  0
 34 35  2  0  0  0  0
 36 34  1  6  0  0  0
 36 38  1  0  0  0  0
 36 40  1  0  0  0  0
 37 39  1  0  0  0  0
 38 39  1  0  0  0  0
M  END
>  <CHROM.1>
-70.14666938,-71.06279751,38.30371468,86.03970744,-125.01751551,154.56190125
-59.98259414,-66.52808732,94.89094446,-62.72643681,5.17117406,-3.33870485
23.33755431,0.19967856,-0.18569807,0.53315314

>  <Name>
ligand

>  <RI>
0

>  <Rbt.Current_Directory>
/home/itssahil/PROJECTS/Mol_Feturizer/New_Systems/rnas/4P20

>  <Rbt.Executable>
rbdock ($Id: //depot/dev/client3/rdock/2013.1/src/exe/rbdock.cxx#4 $)

>  <Rbt.Library>
libRbt.so (2013.1, Build901 2013/11/27)

>  <Rbt.Parameter_File>
/export/apps/rDock/src/rDock_2013.1_src/data/scripts/dock_solv.prm

>  <Rbt.Receptor>
prm/blind_docking_60.prm

>  <SCORE>
49.4985

>  <SCORE.INTER>
32.662

>  <SCORE.INTER.CONST>
1

>  <SCORE.INTER.POLAR>
0

>  <SCORE.INTER.ROT>
10

>  <SCORE.INTER.SOLV>
33.4297

>  <SCORE.INTER.VDW>
0.36479

>  <SCORE.INTER.norm>
0.81655

>  <SCORE.INTRA>
7.16124

>  <SCORE.INTRA.DIHEDRAL>
-11.292

>  <SCORE.INTRA.DIHEDRAL.0>
28.2802

>  <SCORE.INTRA.POLAR>
0

>  <SCORE.INTRA.POLAR.0>
0

>  <SCORE.INTRA.REPUL>
0

>  <SCORE.INTRA.REPUL.0>
0

>  <SCORE.INTRA.SOLV>
9.38711

>  <SCORE.INTRA.SOLV.lig_0>
-101.981

>  <SCORE.INTRA.VDW>
8.1137

>  <SCORE.INTRA.VDW.0>
-5.72964

>  <SCORE.INTRA.norm>
0.179031

>  <SCORE.RESTR>
9.67521

>  <SCORE.RESTR.CAVITY>
9.67521

>  <SCORE.RESTR.norm>
0.24188

>  <SCORE.SYSTEM>
0

>  <SCORE.SYSTEM.CONST>
0

>  <SCORE.SYSTEM.DIHEDRAL>
0

>  <SCORE.SYSTEM.SOLV>
0

>  <SCORE.SYSTEM.norm>
0

>  <SCORE.heavy>
40

>  <SCORE.norm>
1.23746

>  <RMSD>
10.156

$$$$
ligand
 OpenBabel11021811503D
libRbt.so/2013.1/901 2013/11/27
 40 42  0  0  0  0  0  0  0  0999 V2000
    9.1049   -2.2330   23.5863 C   0  0  2  0  0  0  0  0  0  0  0  0
    8.1996   -2.9084   24.4735 O   0  0  0  0  0  0  0  0  0  0  0  0
   10.3582   -3.1361   23.2812 C   0  0  1  0  0  0  0  0  0  0  0  0
   11.2186   -3.3705   24.5571 C   0  0  2  0  0  0  0  0  0  0  0  0
   11.6935   -1.9751   25.0725 C   0  0  2  0  0  0  0  0  0  0  0  0
   12.5181   -2.1560   26.2437 O   0  0  0  0  0  0  0  0  0  0  0  0
   10.4093   -1.1004   25.4150 C   0  0  2  0  0  0  0  0  0  0  0  0
    9.5643   -0.9361   24.1784 O   0  0  0  0  0  0  0  0  0  0  0  0
   10.7682    0.2941   25.9096 C   0  0  0  0  0  0  0  0  0  0  0  0
   11.8306    0.9214   25.0621 N   0  0  0  0  0  0  0  0  0  0  0  0
    3.8300   -3.3172   24.7374 C   0  0  2  0  0  0  0  0  0  0  0  0
    2.4345   -2.9525   24.8151 N   0  0  0  0  0  0  0  0  0  0  0  0
    4.6044   -2.7148   25.9785 C   0  0  0  0  0  0  0  0  0  0  0  0
    6.1480   -3.1053   25.9038 C   0  0  2  0  0  0  0  0  0  0  0  0
    6.8709   -2.5525   27.0791 N   0  0  0  0  0  0  0  0  0  0  0  0
    6.7635   -2.5540   24.5348 C   0  0  2  0  0  0  0  0  0  0  0  0
    5.9539   -3.1841   23.3226 C   0  0  2  0  0  0  0  0  0  0  0  0
    6.4994   -2.7000   22.0933 O   0  0  0  0  0  0  0  0  0  0  0  0
    4.4261   -2.7927   23.4116 C   0  0  1  0  0  0  0  0  0  0  0  0
    3.6982   -3.3922   22.3109 O   0  0  0  0  0  0  0  0  0  0  0  0
    4.2673   -3.8740   21.1409 C   0  0  2  0  0  0  0  0  0  0  0  0
    3.0985   -4.3683   20.2164 C   0  0  2  0  0  0  0  0  0  0  0  0
    2.2128   -3.3220   19.9797 O   0  0  0  0  0  0  0  0  0  0  0  0
    2.3498   -5.6254   20.8333 C   0  0  1  0  0  0  0  0  0  0  0  0
    1.2496   -6.0870   19.9314 N   0  0  0  0  0  0  0  0  0  0  0  0
    3.4135   -6.7837   21.0742 C   0  0  2  0  0  0  0  0  0  0  0  0
    2.7824   -7.9487   21.6200 O   0  0  0  0  0  0  0  0  0  0  0  0
    4.5344   -6.2282   22.0355 C   0  0  2  0  0  0  0  0  0  0  0  0
    5.1966   -4.9940   21.4382 O   0  0  0  0  0  0  0  0  0  0  0  0
    5.5957   -7.2705   22.2955 C   0  0  0  0  0  0  0  0  0  0  0  0
    5.1282   -8.3426   23.1351 O   0  0  0  0  0  0  0  0  0  0  0  0
    9.8873   -4.4033   22.7368 O   0  0  0  0  0  0  0  0  0  0  0  0
   12.3013   -4.1511   24.2316 O   0  0  0  0  0  0  0  0  0  0  0  0
    1.9941   -1.7286   24.1865 C   0  0  0  0  0  0  0  0  0  0  0  0
    2.8259   -0.7981   23.9691 O   0  0  0  0  0  0  0  0  0  0  0  0
    0.4874   -1.6061   23.8029 C   0  0  2  0  0  0  0  0  0  0  0  0
   -2.2763   -1.8746   23.2487 N   0  0  0  0  0  0  0  0  0  0  0  0
   -0.0054   -2.8856   23.0588 C   0  0  0  0  0  0  0  0  0  0  0  0
   -1.3894   -2.7162   22.4101 C   0  0  0  0  0  0  0  0  0  0  0  0
    0.2620   -0.6425   23.0037 O   0  0  0  0  0  0  0  0  0  0  0  0
  1  2  1  1  0  0  0
  1  3  1  0  0  0  0
  1  8  1  0  0  0  0
  3  4  1  0  0  0  0
  3 32  1  1  0  0  0
  4  5  1  0  0  0  0
  4 33  1  6  0  0  0
  5  6  1  1  0  0  0
  5  7  1  0  0  0  0
  7  8  1  0  0  0  0
  7  9  1  6  0  0  0
  9 10  1  0  0  0  0
 11 12  1  1  0  0  0
 11 13  1  0  0  0  0
 11 19  1  0  0  0  0
 12 34  1  0  0  0  0
 13 14  1  0  0  0  0
 14 15  1  1  0  0  0
 14 16  1  0  0  0  0
 16  2  1  6  0  0  0
 16 17  1  0  0  0  0
 17 18  1  6  0  0  0
 17 19  1  0  0  0  0
 19 20  1  6  0  0  0
 21 20  1  1  0  0  0
 21 22  1  0  0  0  0
 21 29  1  0  0  0  0
 22 23  1  1  0  0  0
 22 24  1  0  0  0  0
 24 25  1  6  0  0  0
 24 26  1  0  0  0  0
 26 27  1  1  0  0  0
 26 28  1  0  0  0  0
 28 29  1  0  0  0  0
 28 30  1  6  0  0  0
 30 31  1  0  0  0  0
 34 35  2  0  0  0  0
 36 34  1  6  0  0  0
 36 38  1  0  0  0  0
 36 40  1  0  0  0  0
 37 39  1  0  0  0  0
 38 39  1  0  0  0  0
M  END
>  <CHROM.1>
-156.86442516,-161.32451203,45.22576132,90.40495375,-138.59246659,-177.45347626
-71.21663674,-47.38841214,-168.45415124,-36.35861604,5.54808184,-3.30258144
23.39087013,-0.28899294,0.15062184,-2.61926388

>  <Name>
ligand

>  <RI>
0

>  <Rbt.Current_Directory>
/home/itssahil/PROJECTS/Mol_Feturizer/New_Systems/rnas/4P20

>  <Rbt.Executable>
rbdock ($Id: //depot/dev/client3/rdock/2013.1/src/exe/rbdock.cxx#4 $)

>  <Rbt.Library>
libRbt.so (2013.1, Build901 2013/11/27)

>  <Rbt.Parameter_File>
/export/apps/rDock/src/rDock_2013.1_src/data/scripts/dock_solv.prm

>  <Rbt.Receptor>
prm/blind_docking_60.prm

>  <SCORE>
67.4518

>  <SCORE.INTER>
55.3317

>  <SCORE.INTER.CONST>
1

>  <SCORE.INTER.POLAR>
0

>  <SCORE.INTER.ROT>
10

>  <SCORE.INTER.SOLV>
34.3567

>  <SCORE.INTER.VDW>
15.1689

>  <SCORE.INTER.norm>
1.38329

>  <SCORE.INTRA>
-0.337189

>  <SCORE.INTRA.DIHEDRAL>
-13.6113

>  <SCORE.INTRA.DIHEDRAL.0>
28.2802

>  <SCORE.INTRA.POLAR>
0

>  <SCORE.INTRA.POLAR.0>
0

>  <SCORE.INTRA.REPUL>
0

>  <SCORE.INTRA.REPUL.0>
0

>  <SCORE.INTRA.SOLV>
2.75542

>  <SCORE.INTRA.SOLV.lig_0>
-101.981

>  <SCORE.INTRA.VDW>
5.09075

>  <SCORE.INTRA.VDW.0>
-5.72964

>  <SCORE.INTRA.norm>
-0.00842973

>  <SCORE.RESTR>
12.4572

>  <SCORE.RESTR.CAVITY>
12.4572

>  <SCORE.RESTR.norm>
0.31143

>  <SCORE.SYSTEM>
0

>  <SCORE.SYSTEM.CONST>
0

>  <SCORE.SYSTEM.DIHEDRAL>
0

>  <SCORE.SYSTEM.SOLV>
0

>  <SCORE.SYSTEM.norm>
0

>  <SCORE.heavy>
40

>  <SCORE.norm>
1.68629

>  <RMSD>
10.200

$$$$
ligand
 OpenBabel11021811503D
libRbt.so/2013.1/901 2013/11/27
 40 42  0  0  0  0  0  0  0  0999 V2000
    8.9418   -3.6590   25.0048 C   0  0  2  0  0  0  0  0  0  0  0  0
    7.8941   -2.8196   25.5155 O   0  0  0  0  0  0  0  0  0  0  0  0
    9.8621   -4.1703   26.1758 C   0  0  1  0  0  0  0  0  0  0  0  0
   10.6386   -2.9995   26.8459 C   0  0  2  0  0  0  0  0  0  0  0  0
   11.5186   -2.3231   25.7475 C   0  0  2  0  0  0  0  0  0  0  0  0
   12.2749   -1.2457   26.3406 O   0  0  0  0  0  0  0  0  0  0  0  0
   10.5611   -1.7768   24.6002 C   0  0  2  0  0  0  0  0  0  0  0  0
    9.7791   -2.9199   24.0067 O   0  0  0  0  0  0  0  0  0  0  0  0
   11.3297   -1.1135   23.4655 C   0  0  0  0  0  0  0  0  0  0  0  0
   12.5844   -0.4628   23.9583 N   0  0  0  0  0  0  0  0  0  0  0  0
    3.8515   -2.3011   23.8669 C   0  0  2  0  0  0  0  0  0  0  0  0
    2.7787   -1.8189   23.0284 N   0  0  0  0  0  0  0  0  0  0  0  0
    4.5118   -1.0848   24.6333 C   0  0  0  0  0  0  0  0  0  0  0  0
    5.7016   -1.6014   25.5599 C   0  0  2  0  0  0  0  0  0  0  0  0
    6.3102   -0.4596   26.2916 N   0  0  0  0  0  0  0  0  0  0  0  0
    6.7852   -2.3510   24.6539 C   0  0  2  0  0  0  0  0  0  0  0  0
    6.0755   -3.5589   23.9062 C   0  0  2  0  0  0  0  0  0  0  0  0
    7.0375   -4.2382   23.0961 O   0  0  0  0  0  0  0  0  0  0  0  0
    4.8968   -3.0332   22.9955 C   0  0  1  0  0  0  0  0  0  0  0  0
    4.2467   -4.1487   22.3370 O   0  0  0  0  0  0  0  0  0  0  0  0
    4.7192   -4.7984   21.2058 C   0  0  2  0  0  0  0  0  0  0  0  0
    3.4769   -5.1635   20.3178 C   0  0  2  0  0  0  0  0  0  0  0  0
    2.7681   -4.0082   20.0046 O   0  0  0  0  0  0  0  0  0  0  0  0
    2.5426   -6.2364   21.0230 C   0  0  1  0  0  0  0  0  0  0  0  0
    1.3735   -6.5787   20.1553 N   0  0  0  0  0  0  0  0  0  0  0  0
    3.4092   -7.5303   21.3488 C   0  0  2  0  0  0  0  0  0  0  0  0
    2.6050   -8.5365   21.9767 O   0  0  0  0  0  0  0  0  0  0  0  0
    4.6144   -7.0946   22.2690 C   0  0  2  0  0  0  0  0  0  0  0  0
    5.4599   -6.0289   21.5849 O   0  0  0  0  0  0  0  0  0  0  0  0
    5.4974   -8.2725   22.6054 C   0  0  0  0  0  0  0  0  0  0  0  0
    6.1402   -8.8344   21.4461 O   0  0  0  0  0  0  0  0  0  0  0  0
    9.0237   -4.8573   27.1499 O   0  0  0  0  0  0  0  0  0  0  0  0
   11.4323   -3.5024   27.8483 O   0  0  0  0  0  0  0  0  0  0  0  0
    1.4345   -2.2893   23.2705 C   0  0  0  0  0  0  0  0  0  0  0  0
    1.2515   -3.3894   23.8717 O   0  0  0  0  0  0  0  0  0  0  0  0
    0.2506   -1.4078   22.7668 C   0  0  2  0  0  0  0  0  0  0  0  0
    2.4585   -1.0052   20.4213 N   0  0  0  0  0  0  0  0  0  0  0  0
    0.1381   -1.4592   21.2117 C   0  0  0  0  0  0  0  0  0  0  0  0
    1.0779   -0.4707   20.5014 C   0  0  0  0  0  0  0  0  0  0  0  0
    0.3988   -0.1776   23.0545 O   0  0  0  0  0  0  0  0  0  0  0  0
  1  2  1  1  0  0  0
  1  3  1  0  0  0  0
  1  8  1  0  0  0  0
  3  4  1  0  0  0  0
  3 32  1  1  0  0  0
  4  5  1  0  0  0  0
  4 33  1  1  0  0  0
  5  6  1  1  0  0  0
  5  7  1  0  0  0  0
  7  8  1  0  0  0  0
  7  9  1  6  0  0  0
  9 10  1  0  0  0  0
 11 12  1  6  0  0  0
 11 13  1  0  0  0  0
 11 19  1  0  0  0  0
 12 34  1  0  0  0  0
 13 14  1  0  0  0  0
 14 15  1  6  0  0  0
 14 16  1  0  0  0  0
 16  2  1  1  0  0  0
 16 17  1  0  0  0  0
 17 18  1  6  0  0  0
 17 19  1  0  0  0  0
 19 20  1  1  0  0  0
 21 20  1  1  0  0  0
 21 22  1  0  0  0  0
 21 29  1  0  0  0  0
 22 23  1  1  0  0  0
 22 24  1  0  0  0  0
 24 25  1  6  0  0  0
 24 26  1  0  0  0  0
 26 27  1  1  0  0  0
 26 28  1  0  0  0  0
 28 29  1  0  0  0  0
 28 30  1  6  0  0  0
 30 31  1  0  0  0  0
 34 35  2  0  0  0  0
 36 34  1  6  0  0  0
 36 38  1  0  0  0  0
 36 40  1  0  0  0  0
 37 39  1  0  0  0  0
 38 39  1  0  0  0  0
M  END
>  <CHROM.1>
-171.80581218,172.85820841,-31.40682170,-118.66803569,160.29923722,-142.45708890
64.09140180,71.86210061,-83.78572301,80.27971541,5.71642507,-3.52266699,23.40923270
-0.28460696,0.38945236,-2.84323357

>  <Name>
ligand

>  <RI>
0

>  <Rbt.Current_Directory>
/home/itssahil/PROJECTS/Mol_Feturizer/New_Systems/rnas/4P20

>  <Rbt.Executable>
rbdock ($Id: //depot/dev/client3/rdock/2013.1/src/exe/rbdock.cxx#4 $)

>  <Rbt.Library>
libRbt.so (2013.1, Build901 2013/11/27)

>  <Rbt.Parameter_File>
/export/apps/rDock/src/rDock_2013.1_src/data/scripts/dock_solv.prm

>  <Rbt.Receptor>
prm/blind_docking_60.prm

>  <SCORE>
51.152

>  <SCORE.INTER>
30.4191

>  <SCORE.INTER.CONST>
1

>  <SCORE.INTER.POLAR>
0

>  <SCORE.INTER.ROT>
10

>  <SCORE.INTER.SOLV>
27.4143

>  <SCORE.INTER.VDW>
0.874627

>  <SCORE.INTER.norm>
0.760477

>  <SCORE.INTRA>
-1.57581

>  <SCORE.INTRA.DIHEDRAL>
-13.1158

>  <SCORE.INTRA.DIHEDRAL.0>
28.2802

>  <SCORE.INTRA.POLAR>
0

>  <SCORE.INTRA.POLAR.0>
0

>  <SCORE.INTRA.REPUL>
0

>  <SCORE.INTRA.REPUL.0>
0

>  <SCORE.INTRA.SOLV>
5.56612

>  <SCORE.INTRA.SOLV.lig_0>
-101.981

>  <SCORE.INTRA.VDW>
2.19901

>  <SCORE.INTRA.VDW.0>
-5.72964

>  <SCORE.INTRA.norm>
-0.0393953

>  <SCORE.RESTR>
22.3087

>  <SCORE.RESTR.CAVITY>
22.3087

>  <SCORE.RESTR.norm>
0.557718

>  <SCORE.SYSTEM>
0

>  <SCORE.SYSTEM.CONST>
0

>  <SCORE.SYSTEM.DIHEDRAL>
0

>  <SCORE.SYSTEM.SOLV>
0

>  <SCORE.SYSTEM.norm>
0

>  <SCORE.heavy>
40

>  <SCORE.norm>
1.2788

>  <RMSD>
10.203

$$$$
ligand
 OpenBabel11021811503D
libRbt.so/2013.1/901 2013/11/27
 40 42  0  0  0  0  0  0  0  0999 V2000
    2.2319    1.4004   19.3048 C   0  0  2  0  0  0  0  0  0  0  0  0
    2.8710    0.1161   19.3770 O   0  0  0  0  0  0  0  0  0  0  0  0
    0.8659    1.3838   20.0879 C   0  0  1  0  0  0  0  0  0  0  0  0
   -0.1675    0.4336   19.4154 C   0  0  2  0  0  0  0  0  0  0  0  0
   -0.4062    0.9456   17.9597 C   0  0  2  0  0  0  0  0  0  0  0  0
   -1.3817    0.1008   17.3123 O   0  0  0  0  0  0  0  0  0  0  0  0
    0.9797    0.9095   17.1790 C   0  0  2  0  0  0  0  0  0  0  0  0
    1.9793    1.7915   17.8812 O   0  0  0  0  0  0  0  0  0  0  0  0
    0.8560    1.4122   15.7471 C   0  0  0  0  0  0  0  0  0  0  0  0
    0.4582    2.8545   15.7034 N   0  0  0  0  0  0  0  0  0  0  0  0
    3.8877   -2.8829   22.4270 C   0  0  2  0  0  0  0  0  0  0  0  0
    3.8018   -3.6814   23.6275 N   0  0  0  0  0  0  0  0  0  0  0  0
    3.9887   -1.3526   22.8152 C   0  0  0  0  0  0  0  0  0  0  0  0
    4.0794   -0.4578   21.4992 C   0  0  2  0  0  0  0  0  0  0  0  0
    4.1908    0.9784   21.8661 N   0  0  0  0  0  0  0  0  0  0  0  0
    2.7894   -0.7246   20.5928 C   0  0  2  0  0  0  0  0  0  0  0  0
    2.7316   -2.2700   20.2320 C   0  0  2  0  0  0  0  0  0  0  0  0
    1.5830   -2.5181   19.4181 O   0  0  0  0  0  0  0  0  0  0  0  0
    2.6461   -3.1443   21.5448 C   0  0  1  0  0  0  0  0  0  0  0  0
    2.6153   -4.5515   21.1993 O   0  0  0  0  0  0  0  0  0  0  0  0
    3.5553   -5.2059   20.4163 C   0  0  2  0  0  0  0  0  0  0  0  0
    2.7741   -6.1068   19.3950 C   0  0  2  0  0  0  0  0  0  0  0  0
    1.9133   -5.3193   18.6374 O   0  0  0  0  0  0  0  0  0  0  0  0
    1.9882   -7.2788   20.1233 C   0  0  1  0  0  0  0  0  0  0  0  0
    1.2620   -8.1312   19.1319 N   0  0  0  0  0  0  0  0  0  0  0  0
    3.0264   -8.1417   20.9651 C   0  0  2  0  0  0  0  0  0  0  0  0
    2.3655   -9.2235   21.6331 O   0  0  0  0  0  0  0  0  0  0  0  0
    3.7456   -7.1813   21.9896 C   0  0  2  0  0  0  0  0  0  0  0  0
    4.4456   -6.0411   21.2627 O   0  0  0  0  0  0  0  0  0  0  0  0
    4.7654   -7.9294   22.8148 C   0  0  0  0  0  0  0  0  0  0  0  0
    4.2270   -9.1208   23.4176 O   0  0  0  0  0  0  0  0  0  0  0  0
    1.1301    0.9701   21.4601 O   0  0  0  0  0  0  0  0  0  0  0  0
   -1.3404    0.4676   20.1300 O   0  0  0  0  0  0  0  0  0  0  0  0
    4.9171   -4.5254   23.9890 C   0  0  0  0  0  0  0  0  0  0  0  0
    5.7353   -4.9027   23.0985 O   0  0  0  0  0  0  0  0  0  0  0  0
    5.0611   -4.9443   25.4844 C   0  0  2  0  0  0  0  0  0  0  0  0
    2.0843   -2.7842   26.5204 N   0  0  0  0  0  0  0  0  0  0  0  0
    4.2741   -3.9709   26.4154 C   0  0  0  0  0  0  0  0  0  0  0  0
    2.7481   -4.0846   26.2627 C   0  0  0  0  0  0  0  0  0  0  0  0
    6.2655   -4.9016   25.8914 O   0  0  0  0  0  0  0  0  0  0  0  0
  1  2  1  6  0  0  0
  1  3  1  0  0  0  0
  1  8  1  0  0  0  0
  3  4  1  0  0  0  0
  3 32  1  1  0  0  0
  4  5  1  0  0  0  0
  4 33  1  1  0  0  0
  5  6  1  6  0  0  0
  5  7  1  0  0  0  0
  7  8  1  0  0  0  0
  7  9  1  6  0  0  0
  9 10  1  0  0  0  0
 11 12  1  1  0  0  0
 11 13  1  0  0  0  0
 11 19  1  0  0  0  0
 12 34  1  0  0  0  0
 13 14  1  0  0  0  0
 14 15  1  1  0  0  0
 14 16  1  0  0  0  0
 16  2  1  6  0  0  0
 16 17  1  0  0  0  0
 17 18  1  6  0  0  0
 17 19  1  0  0  0  0
 19 20  1  6  0  0  0
 21 20  1  1  0  0  0
 21 22  1  0  0  0  0
 21 29  1  0  0  0  0
 22 23  1  1  0  0  0
 22 24  1  0  0  0  0
 24 25  1  6  0  0  0
 24 26  1  0  0  0  0
 26 27  1  1  0  0  0
 26 28  1  0  0  0  0
 28 29  1  0  0  0  0
 28 30  1  6  0  0  0
 30 31  1  0  0  0  0
 34 35  2  0  0  0  0
 36 34  1  6  0  0  0
 36 38  1  0  0  0  0
 36 40  1  0  0  0  0
 37 39  1  0  0  0  0
 38 39  1  0  0  0  0
M  END
>  <CHROM.1>
-35.77800011,-94.78672476,63.77188130,-110.76694120,-65.09207665,-134.86472591
-50.96785316,-20.60547081,68.92217174,-148.97329532,2.62830183,-2.95856901
21.09884954,-2.42793044,1.11152005,-2.92411902

>  <Name>
ligand

>  <RI>
0

>  <Rbt.Current_Directory>
/home/itssahil/PROJECTS/Mol_Feturizer/New_Systems/rnas/4P20

>  <Rbt.Executable>
rbdock ($Id: //depot/dev/client3/rdock/2013.1/src/exe/rbdock.cxx#4 $)

>  <Rbt.Library>
libRbt.so (2013.1, Build901 2013/11/27)

>  <Rbt.Parameter_File>
/export/apps/rDock/src/rDock_2013.1_src/data/scripts/dock_solv.prm

>  <Rbt.Receptor>
prm/blind_docking_100.prm

>  <SCORE>
22.971

>  <SCORE.INTER>
-3.34048

>  <SCORE.INTER.CONST>
1

>  <SCORE.INTER.POLAR>
0

>  <SCORE.INTER.ROT>
10

>  <SCORE.INTER.SOLV>
21.3849

>  <SCORE.INTER.VDW>
-19.622

>  <SCORE.INTER.norm>
-0.083512

>  <SCORE.INTRA>
1.06455

>  <SCORE.INTRA.DIHEDRAL>
-8.27916

>  <SCORE.INTRA.DIHEDRAL.0>
28.2802

>  <SCORE.INTRA.POLAR>
0

>  <SCORE.INTRA.POLAR.0>
0

>  <SCORE.INTRA.REPUL>
0

>  <SCORE.INTRA.REPUL.0>
0

>  <SCORE.INTRA.SOLV>
4.88644

>  <SCORE.INTRA.SOLV.lig_0>
-101.981

>  <SCORE.INTRA.VDW>
2.76091

>  <SCORE.INTRA.VDW.0>
-5.72964

>  <SCORE.INTRA.norm>
0.0266137

>  <SCORE.RESTR>
25.2469

>  <SCORE.RESTR.CAVITY>
25.2469

>  <SCORE.RESTR.norm>
0.631173

>  <SCORE.SYSTEM>
0

>  <SCORE.SYSTEM.CONST>
0

>  <SCORE.SYSTEM.DIHEDRAL>
0

>  <SCORE.SYSTEM.SOLV>
0

>  <SCORE.SYSTEM.norm>
0

>  <SCORE.heavy>
40

>  <SCORE.norm>
0.574275

>  <RMSD>
10.215

$$$$
ligand
 OpenBabel11021811503D
libRbt.so/2013.1/901 2013/11/27
 40 42  0  0  0  0  0  0  0  0999 V2000
    0.8567    0.2026   18.7780 C   0  0  2  0  0  0  0  0  0  0  0  0
    2.2222   -0.0071   19.1708 O   0  0  0  0  0  0  0  0  0  0  0  0
    0.4791    1.7278   18.8804 C   0  0  1  0  0  0  0  0  0  0  0  0
    0.5059    2.2260   20.3548 C   0  0  2  0  0  0  0  0  0  0  0  0
   -0.5268    1.3771   21.1617 C   0  0  2  0  0  0  0  0  0  0  0  0
   -0.5478    1.8303   22.5323 O   0  0  0  0  0  0  0  0  0  0  0  0
   -0.0965   -0.1525   21.0787 C   0  0  2  0  0  0  0  0  0  0  0  0
   -0.0746   -0.5946   19.6385 O   0  0  0  0  0  0  0  0  0  0  0  0
   -1.0576   -1.0701   21.8220 C   0  0  0  0  0  0  0  0  0  0  0  0
   -0.6743   -1.2175   23.2615 N   0  0  0  0  0  0  0  0  0  0  0  0
    4.3915   -2.3824   22.1678 C   0  0  2  0  0  0  0  0  0  0  0  0
    4.7249   -2.9947   23.4329 N   0  0  0  0  0  0  0  0  0  0  0  0
    4.3650   -0.8091   22.3319 C   0  0  0  0  0  0  0  0  0  0  0  0
    3.9934   -0.1192   20.9439 C   0  0  2  0  0  0  0  0  0  0  0  0
    3.9851    1.3594   21.0959 N   0  0  0  0  0  0  0  0  0  0  0  0
    2.5697   -0.6580   20.4542 C   0  0  2  0  0  0  0  0  0  0  0  0
    2.6466   -2.2373   20.3066 C   0  0  2  0  0  0  0  0  0  0  0  0
    1.3788   -2.7286   19.8653 O   0  0  0  0  0  0  0  0  0  0  0  0
    3.0195   -2.9070   21.6877 C   0  0  1  0  0  0  0  0  0  0  0  0
    3.1061   -4.3453   21.5313 O   0  0  0  0  0  0  0  0  0  0  0  0
    3.9717   -5.0080   20.6731 C   0  0  2  0  0  0  0  0  0  0  0  0
    3.0990   -5.8894   19.7105 C   0  0  2  0  0  0  0  0  0  0  0  0
    2.1942   -5.0834   19.0273 O   0  0  0  0  0  0  0  0  0  0  0  0
    2.3542   -7.0547   20.4906 C   0  0  1  0  0  0  0  0  0  0  0  0
    1.5395   -7.8887   19.5538 N   0  0  0  0  0  0  0  0  0  0  0  0
    3.4413   -7.9394   21.2433 C   0  0  2  0  0  0  0  0  0  0  0  0
    2.8177   -9.0161   21.9542 O   0  0  0  0  0  0  0  0  0  0  0  0
    4.2533   -6.9977   22.2144 C   0  0  2  0  0  0  0  0  0  0  0  0
    4.9122   -5.8629   21.4421 O   0  0  0  0  0  0  0  0  0  0  0  0
    5.3226   -7.7672   22.9526 C   0  0  0  0  0  0  0  0  0  0  0  0
    6.2019   -8.4855   22.0673 O   0  0  0  0  0  0  0  0  0  0  0  0
    1.4163    2.4871   18.0623 O   0  0  0  0  0  0  0  0  0  0  0  0
    0.1576    3.5547   20.3864 O   0  0  0  0  0  0  0  0  0  0  0  0
    3.6657   -3.5495   24.2435 C   0  0  0  0  0  0  0  0  0  0  0  0
    2.4770   -3.1382   24.0933 O   0  0  0  0  0  0  0  0  0  0  0  0
    4.0430   -4.6447   25.2879 C   0  0  2  0  0  0  0  0  0  0  0  0
    2.5181   -2.0155   26.3409 N   0  0  0  0  0  0  0  0  0  0  0  0
    3.6762   -4.1879   26.7336 C   0  0  0  0  0  0  0  0  0  0  0  0
    3.7209   -2.6619   26.9185 C   0  0  0  0  0  0  0  0  0  0  0  0
    5.2917   -4.8855   25.3160 O   0  0  0  0  0  0  0  0  0  0  0  0
  1  2  1  1  0  0  0
  1  3  1  0  0  0  0
  1  8  1  0  0  0  0
  3  4  1  0  0  0  0
  3 32  1  6  0  0  0
  4  5  1  0  0  0  0
  4 33  1  6  0  0  0
  5  6  1  1  0  0  0
  5  7  1  0  0  0  0
  7  8  1  0  0  0  0
  7  9  1  1  0  0  0
  9 10  1  0  0  0  0
 11 12  1  1  0  0  0
 11 13  1  0  0  0  0
 11 19  1  0  0  0  0
 12 34  1  0  0  0  0
 13 14  1  0  0  0  0
 14 15  1  1  0  0  0
 14 16  1  0  0  0  0
 16  2  1  6  0  0  0
 16 17  1  0  0  0  0
 17 18  1  1  0  0  0
 17 19  1  0  0  0  0
 19 20  1  6  0  0  0
 21 20  1  1  0  0  0
 21 22  1  0  0  0  0
 21 29  1  0  0  0  0
 22 23  1  1  0  0  0
 22 24  1  0  0  0  0
 24 25  1  6  0  0  0
 24 26  1  0  0  0  0
 26 27  1  1  0  0  0
 26 28  1  0  0  0  0
 28 29  1  0  0  0  0
 28 30  1  6  0  0  0
 30 31  1  0  0  0  0
 34 35  2  0  0  0  0
 36 34  1  6  0  0  0
 36 38  1  0  0  0  0
 36 40  1  0  0  0  0
 37 39  1  0  0  0  0
 38 39  1  0  0  0  0
M  END
>  <CHROM.1>
107.62792094,-151.88577521,-88.20275669,100.43542695,-60.32832371,-122.33789649
54.34642500,119.98596365,-28.90936902,77.46682274,2.55213391,-2.74381940
21.71712940,2.70138287,-1.13479953,0.81454793

>  <Name>
ligand

>  <RI>
0

>  <Rbt.Current_Directory>
/home/itssahil/PROJECTS/Mol_Feturizer/New_Systems/rnas/4P20

>  <Rbt.Executable>
rbdock ($Id: //depot/dev/client3/rdock/2013.1/src/exe/rbdock.cxx#4 $)

>  <Rbt.Library>
libRbt.so (2013.1, Build901 2013/11/27)

>  <Rbt.Parameter_File>
/export/apps/rDock/src/rDock_2013.1_src/data/scripts/dock_solv.prm

>  <Rbt.Receptor>
prm/blind_docking_100.prm

>  <SCORE>
28.204

>  <SCORE.INTER>
-3.30101

>  <SCORE.INTER.CONST>
1

>  <SCORE.INTER.POLAR>
0

>  <SCORE.INTER.ROT>
10

>  <SCORE.INTER.SOLV>
22.2464

>  <SCORE.INTER.VDW>
-19.8828

>  <SCORE.INTER.norm>
-0.0825253

>  <SCORE.INTRA>
8.3867

>  <SCORE.INTRA.DIHEDRAL>
-1.76125

>  <SCORE.INTRA.DIHEDRAL.0>
28.2802

>  <SCORE.INTRA.POLAR>
0

>  <SCORE.INTRA.POLAR.0>
0

>  <SCORE.INTRA.REPUL>
0

>  <SCORE.INTRA.REPUL.0>
0

>  <SCORE.INTRA.SOLV>
7.10162

>  <SCORE.INTRA.SOLV.lig_0>
-101.981

>  <SCORE.INTRA.VDW>
5.71651

>  <SCORE.INTRA.VDW.0>
-5.72964

>  <SCORE.INTRA.norm>
0.209667

>  <SCORE.RESTR>
23.1184

>  <SCORE.RESTR.CAVITY>
23.1184

>  <SCORE.RESTR.norm>
0.577959

>  <SCORE.SYSTEM>
0

>  <SCORE.SYSTEM.CONST>
0

>  <SCORE.SYSTEM.DIHEDRAL>
0

>  <SCORE.SYSTEM.SOLV>
0

>  <SCORE.SYSTEM.norm>
0

>  <SCORE.heavy>
40

>  <SCORE.norm>
0.705101

>  <RMSD>
10.252

$$$$
ligand
 OpenBabel11021811503D
libRbt.so/2013.1/901 2013/11/27
 40 42  0  0  0  0  0  0  0  0999 V2000
    4.4867   -7.3904   22.5777 C   0  0  2  0  0  0  0  0  0  0  0  0
    4.8614   -6.0254   22.3340 O   0  0  0  0  0  0  0  0  0  0  0  0
    5.4275   -8.3729   21.7848 C   0  0  1  0  0  0  0  0  0  0  0  0
    5.2449   -8.2228   20.2462 C   0  0  2  0  0  0  0  0  0  0  0  0
    3.7538   -8.5436   19.9115 C   0  0  2  0  0  0  0  0  0  0  0  0
    3.5532   -8.4393   18.4856 O   0  0  0  0  0  0  0  0  0  0  0  0
    2.8286   -7.5091   20.6896 C   0  0  2  0  0  0  0  0  0  0  0  0
    3.0655   -7.6341   22.1723 O   0  0  0  0  0  0  0  0  0  0  0  0
    1.3460   -7.7526   20.4434 C   0  0  0  0  0  0  0  0  0  0  0  0
    0.8792   -7.0801   19.1901 N   0  0  0  0  0  0  0  0  0  0  0  0
    3.2088   -2.3176   20.6455 C   0  0  2  0  0  0  0  0  0  0  0  0
    2.2450   -1.3656   20.1442 N   0  0  0  0  0  0  0  0  0  0  0  0
    3.1648   -3.6299   19.7629 C   0  0  0  0  0  0  0  0  0  0  0  0
    4.2205   -4.6927   20.3076 C   0  0  2  0  0  0  0  0  0  0  0  0
    4.1895   -5.9184   19.4673 N   0  0  0  0  0  0  0  0  0  0  0  0
    3.8862   -5.0298   21.8345 C   0  0  2  0  0  0  0  0  0  0  0  0
    3.9411   -3.6845   22.6766 C   0  0  2  0  0  0  0  0  0  0  0  0
    3.6471   -3.9762   24.0447 O   0  0  0  0  0  0  0  0  0  0  0  0
    2.8933   -2.6398   22.1236 C   0  0  1  0  0  0  0  0  0  0  0  0
    2.9706   -1.4113   22.8887 O   0  0  0  0  0  0  0  0  0  0  0  0
    1.9996   -0.9504   23.7660 C   0  0  2  0  0  0  0  0  0  0  0  0
    0.7736   -1.9264   23.6681 C   0  0  2  0  0  0  0  0  0  0  0  0
    1.1808   -3.2227   23.9664 O   0  0  0  0  0  0  0  0  0  0  0  0
    0.0770   -1.8573   22.2429 C   0  0  1  0  0  0  0  0  0  0  0  0
   -1.0946   -2.7845   22.1758 N   0  0  0  0  0  0  0  0  0  0  0  0
   -0.3680   -0.3551   21.9660 C   0  0  2  0  0  0  0  0  0  0  0  0
   -1.0156   -0.2427   20.6926 O   0  0  0  0  0  0  0  0  0  0  0  0
    0.9152    0.5592   22.0458 C   0  0  2  0  0  0  0  0  0  0  0  0
    1.5875    0.4306   23.4059 O   0  0  0  0  0  0  0  0  0  0  0  0
    0.5666    2.0099   21.8122 C   0  0  0  0  0  0  0  0  0  0  0  0
    0.1744    2.2753   20.4526 O   0  0  0  0  0  0  0  0  0  0  0  0
    6.8058   -8.0971   22.1698 O   0  0  0  0  0  0  0  0  0  0  0  0
    6.0773   -9.1090   19.6065 O   0  0  0  0  0  0  0  0  0  0  0  0
    2.6955   -0.0466   19.7642 C   0  0  0  0  0  0  0  0  0  0  0  0
    3.7691    0.4165   20.2519 O   0  0  0  0  0  0  0  0  0  0  0  0
    1.8206    0.7618   18.7576 C   0  0  2  0  0  0  0  0  0  0  0  0
   -0.4965    2.0843   17.4496 N   0  0  0  0  0  0  0  0  0  0  0  0
    0.4726    0.0291   18.4753 C   0  0  0  0  0  0  0  0  0  0  0  0
   -0.3050    0.6229   17.2888 C   0  0  0  0  0  0  0  0  0  0  0  0
    2.3772    0.8950   17.6216 O   0  0  0  0  0  0  0  0  0  0  0  0
  1  2  1  6  0  0  0
  1  3  1  0  0  0  0
  1  8  1  0  0  0  0
  3  4  1  0  0  0  0
  3 32  1  6  0  0  0
  4  5  1  0  0  0  0
  4 33  1  6  0  0  0
  5  6  1  6  0  0  0
  5  7  1  0  0  0  0
  7  8  1  0  0  0  0
  7  9  1  1  0  0  0
  9 10  1  0  0  0  0
 11 12  1  6  0  0  0
 11 13  1  0  0  0  0
 11 19  1  0  0  0  0
 12 34  1  0  0  0  0
 13 14  1  0  0  0  0
 14 15  1  6  0  0  0
 14 16  1  0  0  0  0
 16  2  1  1  0  0  0
 16 17  1  0  0  0  0
 17 18  1  1  0  0  0
 17 19  1  0  0  0  0
 19 20  1  1  0  0  0
 21 20  1  6  0  0  0
 21 22  1  0  0  0  0
 21 29  1  0  0  0  0
 22 23  1  6  0  0  0
 22 24  1  0  0  0  0
 24 25  1  1  0  0  0
 24 26  1  0  0  0  0
 26 27  1  6  0  0  0
 26 28  1  0  0  0  0
 28 29  1  0  0  0  0
 28 30  1  1  0  0  0
 30 31  1  0  0  0  0
 34 35  2  0  0  0  0
 36 34  1  1  0  0  0
 36 38  1  0  0  0  0
 36 40  1  0  0  0  0
 37 39  1  0  0  0  0
 38 39  1  0  0  0  0
M  END
>  <CHROM.1>
125.14753108,-107.78295687,-84.87464985,-123.67933521,129.76617889,-5.08756338
-69.45069478,7.35751199,-168.43286768,-53.09981122,2.45961116,-3.25346532
20.98888418,-0.09889157,-1.15331817,1.39822547

>  <Name>
ligand

>  <RI>
0

>  <Rbt.Current_Directory>
/home/itssahil/PROJECTS/Mol_Feturizer/New_Systems/rnas/4P20

>  <Rbt.Executable>
rbdock ($Id: //depot/dev/client3/rdock/2013.1/src/exe/rbdock.cxx#4 $)

>  <Rbt.Library>
libRbt.so (2013.1, Build901 2013/11/27)

>  <Rbt.Parameter_File>
/export/apps/rDock/src/rDock_2013.1_src/data/scripts/dock_solv.prm

>  <Rbt.Receptor>
prm/blind_docking_100.prm

>  <SCORE>
52.6952

>  <SCORE.INTER>
13.7794

>  <SCORE.INTER.CONST>
1

>  <SCORE.INTER.POLAR>
0

>  <SCORE.INTER.ROT>
10

>  <SCORE.INTER.SOLV>
30.3391

>  <SCORE.INTER.VDW>
-11.1934

>  <SCORE.INTER.norm>
0.344485

>  <SCORE.INTRA>
18.8502

>  <SCORE.INTRA.DIHEDRAL>
5.54251

>  <SCORE.INTRA.DIHEDRAL.0>
28.2802

>  <SCORE.INTRA.POLAR>
0

>  <SCORE.INTRA.POLAR.0>
0

>  <SCORE.INTRA.REPUL>
0

>  <SCORE.INTRA.REPUL.0>
0

>  <SCORE.INTRA.SOLV>
14.563

>  <SCORE.INTRA.SOLV.lig_0>
-101.981

>  <SCORE.INTRA.VDW>
8.79744

>  <SCORE.INTRA.VDW.0>
-5.72964

>  <SCORE.INTRA.norm>
0.471255

>  <SCORE.RESTR>
20.0656

>  <SCORE.RESTR.CAVITY>
20.0656

>  <SCORE.RESTR.norm>
0.501639

>  <SCORE.SYSTEM>
0

>  <SCORE.SYSTEM.CONST>
0

>  <SCORE.SYSTEM.DIHEDRAL>
0

>  <SCORE.SYSTEM.SOLV>
0

>  <SCORE.SYSTEM.norm>
0

>  <SCORE.heavy>
40

>  <SCORE.norm>
1.31738

>  <RMSD>
10.258

$$$$
ligand
 OpenBabel11021811503D
libRbt.so/2013.1/901 2013/11/27
 40 42  0  0  0  0  0  0  0  0999 V2000
    8.8506   -2.7120   26.3302 C   0  0  2  0  0  0  0  0  0  0  0  0
    7.8015   -3.6035   25.9209 O   0  0  0  0  0  0  0  0  0  0  0  0
    9.0386   -1.5573   25.2764 C   0  0  1  0  0  0  0  0  0  0  0  0
    9.5494   -2.1055   23.9121 C   0  0  2  0  0  0  0  0  0  0  0  0
   10.9202   -2.8088   24.1661 C   0  0  2  0  0  0  0  0  0  0  0  0
   11.4378   -3.3084   22.9143 O   0  0  0  0  0  0  0  0  0  0  0  0
   10.6929   -3.9979   25.1986 C   0  0  2  0  0  0  0  0  0  0  0  0
   10.1448   -3.4488   26.4902 O   0  0  0  0  0  0  0  0  0  0  0  0
   11.9819   -4.7379   25.5291 C   0  0  0  0  0  0  0  0  0  0  0  0
   12.6340   -5.2832   24.2971 N   0  0  0  0  0  0  0  0  0  0  0  0
    3.4982   -3.5609   25.0210 C   0  0  2  0  0  0  0  0  0  0  0  0
    2.1821   -3.0563   24.7052 N   0  0  0  0  0  0  0  0  0  0  0  0
    3.9841   -2.9479   26.3961 C   0  0  0  0  0  0  0  0  0  0  0  0
    5.4384   -3.4924   26.7558 C   0  0  2  0  0  0  0  0  0  0  0  0
    5.8866   -2.9284   28.0560 N   0  0  0  0  0  0  0  0  0  0  0  0
    6.4496   -3.1064   25.5788 C   0  0  2  0  0  0  0  0  0  0  0  0
    5.9192   -3.7414   24.2233 C   0  0  2  0  0  0  0  0  0  0  0  0
    6.8190   -3.4048   23.1649 O   0  0  0  0  0  0  0  0  0  0  0  0
    4.4764   -3.1964   23.8816 C   0  0  1  0  0  0  0  0  0  0  0  0
    3.9986   -3.8008   22.6540 O   0  0  0  0  0  0  0  0  0  0  0  0
    4.8010   -4.2395   21.6107 C   0  0  2  0  0  0  0  0  0  0  0  0
    3.9509   -4.1546   20.2935 C   0  0  2  0  0  0  0  0  0  0  0  0
    3.5073   -2.8497   20.1045 O   0  0  0  0  0  0  0  0  0  0  0  0
    2.7361   -5.1770   20.3086 C   0  0  1  0  0  0  0  0  0  0  0  0
    1.9479   -5.0883   19.0406 N   0  0  0  0  0  0  0  0  0  0  0  0
    3.3093   -6.6457   20.5222 C   0  0  2  0  0  0  0  0  0  0  0  0
    2.2491   -7.6096   20.5303 O   0  0  0  0  0  0  0  0  0  0  0  0
    4.1191   -6.6641   21.8760 C   0  0  2  0  0  0  0  0  0  0  0  0
    5.2434   -5.6376   21.8481 O   0  0  0  0  0  0  0  0  0  0  0  0
    4.7134   -8.0275   22.1376 C   0  0  0  0  0  0  0  0  0  0  0  0
    5.4959   -8.0705   23.3453 O   0  0  0  0  0  0  0  0  0  0  0  0
    7.7612   -0.8751   25.1124 O   0  0  0  0  0  0  0  0  0  0  0  0
    9.7072   -1.0576   23.0376 O   0  0  0  0  0  0  0  0  0  0  0  0
    2.0641   -1.8117   23.9812 C   0  0  0  0  0  0  0  0  0  0  0  0
    3.0153   -0.9754   24.0080 O   0  0  0  0  0  0  0  0  0  0  0  0
    0.7455   -1.5492   23.1908 C   0  0  2  0  0  0  0  0  0  0  0  0
   -2.1583   -1.5222   23.3509 N   0  0  0  0  0  0  0  0  0  0  0  0
   -0.0809   -2.8626   23.0308 C   0  0  0  0  0  0  0  0  0  0  0  0
   -1.5291   -2.6178   22.5751 C   0  0  0  0  0  0  0  0  0  0  0  0
    0.9580   -1.1372   22.0062 O   0  0  0  0  0  0  0  0  0  0  0  0
  1  2  1  6  0  0  0
  1  3  1  0  0  0  0
  1  8  1  0  0  0  0
  3  4  1  0  0  0  0
  3 32  1  6  0  0  0
  4  5  1  0  0  0  0
  4 33  1  6  0  0  0
  5  6  1  6  0  0  0
  5  7  1  0  0  0  0
  7  8  1  0  0  0  0
  7  9  1  1  0  0  0
  9 10  1  0  0  0  0
 11 12  1  6  0  0  0
 11 13  1  0  0  0  0
 11 19  1  0  0  0  0
 12 34  1  0  0  0  0
 13 14  1  0  0  0  0
 14 15  1  1  0  0  0
 14 16  1  0  0  0  0
 16  2  1  1  0  0  0
 16 17  1  0  0  0  0
 17 18  1  6  0  0  0
 17 19  1  0  0  0  0
 19 20  1  6  0  0  0
 21 20  1  1  0  0  0
 21 22  1  0  0  0  0
 21 29  1  0  0  0  0
 22 23  1  1  0  0  0
 22 24  1  0  0  0  0
 24 25  1  6  0  0  0
 24 26  1  0  0  0  0
 26 27  1  1  0  0  0
 26 28  1  0  0  0  0
 28 29  1  0  0  0  0
 28 30  1  6  0  0  0
 30 31  1  0  0  0  0
 34 35  2  0  0  0  0
 36 34  1  6  0  0  0
 36 38  1  0  0  0  0
 36 40  1  0  0  0  0
 37 39  1  0  0  0  0
 38 39  1  0  0  0  0
M  END
>  <CHROM.1>
-53.30206783,-106.66780122,-57.25111632,87.54040524,-148.89431362,-152.89628972
178.15574088,-14.64310357,165.85005567,-46.05400306,5.38232969,-3.63467826
23.53805673,0.22992549,-0.21711504,0.73793939

>  <Name>
ligand

>  <RI>
0

>  <Rbt.Current_Directory>
/home/itssahil/PROJECTS/Mol_Feturizer/New_Systems/rnas/4P20

>  <Rbt.Executable>
rbdock ($Id: //depot/dev/client3/rdock/2013.1/src/exe/rbdock.cxx#4 $)

>  <Rbt.Library>
libRbt.so (2013.1, Build901 2013/11/27)

>  <Rbt.Parameter_File>
/export/apps/rDock/src/rDock_2013.1_src/data/scripts/dock_solv.prm

>  <Rbt.Receptor>
prm/blind_docking_60.prm

>  <SCORE>
19.1342

>  <SCORE.INTER>
6.809

>  <SCORE.INTER.CONST>
1

>  <SCORE.INTER.POLAR>
0

>  <SCORE.INTER.ROT>
10

>  <SCORE.INTER.SOLV>
34.6315

>  <SCORE.INTER.VDW>
-17.2712

>  <SCORE.INTER.norm>
0.170225

>  <SCORE.INTRA>
0.462912

>  <SCORE.INTRA.DIHEDRAL>
-10.6494

>  <SCORE.INTRA.DIHEDRAL.0>
28.2802

>  <SCORE.INTRA.POLAR>
0

>  <SCORE.INTRA.POLAR.0>
0

>  <SCORE.INTRA.REPUL>
0

>  <SCORE.INTRA.REPUL.0>
0

>  <SCORE.INTRA.SOLV>
2.90211

>  <SCORE.INTRA.SOLV.lig_0>
-101.981

>  <SCORE.INTRA.VDW>
4.33657

>  <SCORE.INTRA.VDW.0>
-5.72964

>  <SCORE.INTRA.norm>
0.0115728

>  <SCORE.RESTR>
11.8623

>  <SCORE.RESTR.CAVITY>
11.8623

>  <SCORE.RESTR.norm>
0.296557

>  <SCORE.SYSTEM>
0

>  <SCORE.SYSTEM.CONST>
0

>  <SCORE.SYSTEM.DIHEDRAL>
0

>  <SCORE.SYSTEM.SOLV>
0

>  <SCORE.SYSTEM.norm>
0

>  <SCORE.heavy>
40

>  <SCORE.norm>
0.478355

>  <RMSD>
10.264

$$$$
ligand
 OpenBabel11021811503D
libRbt.so/2013.1/901 2013/11/27
 40 42  0  0  0  0  0  0  0  0999 V2000
    5.1639   -6.3682   20.0546 C   0  0  2  0  0  0  0  0  0  0  0  0
    3.9608   -5.7243   19.6061 O   0  0  0  0  0  0  0  0  0  0  0  0
    4.9687   -7.9296   20.1093 C   0  0  1  0  0  0  0  0  0  0  0  0
    3.9231   -8.3380   21.1877 C   0  0  2  0  0  0  0  0  0  0  0  0
    4.4419   -7.8278   22.5693 C   0  0  2  0  0  0  0  0  0  0  0  0
    3.5070   -8.2126   23.6000 O   0  0  0  0  0  0  0  0  0  0  0  0
    4.5870   -6.2449   22.5000 C   0  0  2  0  0  0  0  0  0  0  0  0
    5.5601   -5.8730   21.4115 O   0  0  0  0  0  0  0  0  0  0  0  0
    5.1091   -5.6494   23.8004 C   0  0  0  0  0  0  0  0  0  0  0  0
    5.5321   -4.2247   23.6217 N   0  0  0  0  0  0  0  0  0  0  0  0
    0.8011   -3.0325   21.0555 C   0  0  2  0  0  0  0  0  0  0  0  0
   -0.0112   -2.2582   21.9649 N   0  0  0  0  0  0  0  0  0  0  0  0
    0.7223   -4.5631   21.4477 C   0  0  0  0  0  0  0  0  0  0  0  0
    1.6185   -5.4304   20.4550 C   0  0  2  0  0  0  0  0  0  0  0  0
    1.5303   -6.8700   20.8147 N   0  0  0  0  0  0  0  0  0  0  0  0
    3.1290   -4.9097   20.5205 C   0  0  2  0  0  0  0  0  0  0  0  0
    3.1552   -3.3728   20.1214 C   0  0  2  0  0  0  0  0  0  0  0  0
    4.5027   -2.8986   20.1734 O   0  0  0  0  0  0  0  0  0  0  0  0
    2.2603   -2.5265   21.1105 C   0  0  1  0  0  0  0  0  0  0  0  0
    2.2781   -1.1308   20.7204 O   0  0  0  0  0  0  0  0  0  0  0  0
    1.2981   -0.1989   21.0302 C   0  0  2  0  0  0  0  0  0  0  0  0
    0.4810    0.0803   19.7190 C   0  0  2  0  0  0  0  0  0  0  0  0
   -0.0563   -1.1095   19.2385 O   0  0  0  0  0  0  0  0  0  0  0  0
    1.3667    0.7977   18.6134 C   0  0  1  0  0  0  0  0  0  0  0  0
    0.5661    1.0652   17.3788 N   0  0  0  0  0  0  0  0  0  0  0  0
    1.9449    2.1491   19.2223 C   0  0  2  0  0  0  0  0  0  0  0  0
    2.7436    2.8422   18.2553 O   0  0  0  0  0  0  0  0  0  0  0  0
    2.7796    1.7886   20.5116 C   0  0  2  0  0  0  0  0  0  0  0  0
    1.9148    1.0571   21.5291 O   0  0  0  0  0  0  0  0  0  0  0  0
    3.3461    3.0297   21.1592 C   0  0  0  0  0  0  0  0  0  0  0  0
    4.1261    2.7374   22.3334 O   0  0  0  0  0  0  0  0  0  0  0  0
    4.5527   -8.3854   18.7890 O   0  0  0  0  0  0  0  0  0  0  0  0
    3.8024   -9.7066   21.2007 O   0  0  0  0  0  0  0  0  0  0  0  0
    0.5553   -1.8372   23.2253 C   0  0  0  0  0  0  0  0  0  0  0  0
    1.5343   -2.4720   23.7187 O   0  0  0  0  0  0  0  0  0  0  0  0
   -0.0798   -0.6019   23.9348 C   0  0  2  0  0  0  0  0  0  0  0  0
    3.2089   -0.8893   24.5157 N   0  0  0  0  0  0  0  0  0  0  0  0
    0.9420    0.0738   24.9007 C   0  0  0  0  0  0  0  0  0  0  0  0
    2.3298    0.2791   24.2707 C   0  0  0  0  0  0  0  0  0  0  0  0
   -1.0767   -0.9130   24.6611 O   0  0  0  0  0  0  0  0  0  0  0  0
  1  2  1  1  0  0  0
  1  3  1  0  0  0  0
  1  8  1  0  0  0  0
  3  4  1  0  0  0  0
  3 32  1  6  0  0  0
  4  5  1  0  0  0  0
  4 33  1  1  0  0  0
  5  6  1  1  0  0  0
  5  7  1  0  0  0  0
  7  8  1  0  0  0  0
  7  9  1  1  0  0  0
  9 10  1  0  0  0  0
 11 12  1  1  0  0  0
 11 13  1  0  0  0  0
 11 19  1  0  0  0  0
 12 34  1  0  0  0  0
 13 14  1  0  0  0  0
 14 15  1  1  0  0  0
 14 16  1  0  0  0  0
 16  2  1  6  0  0  0
 16 17  1  0  0  0  0
 17 18  1  1  0  0  0
 17 19  1  0  0  0  0
 19 20  1  6  0  0  0
 21 20  1  6  0  0  0
 21 22  1  0  0  0  0
 21 29  1  0  0  0  0
 22 23  1  6  0  0  0
 22 24  1  0  0  0  0
 24 25  1  6  0  0  0
 24 26  1  0  0  0  0
 26 27  1  6  0  0  0
 26 28  1  0  0  0  0
 28 29  1  0  0  0  0
 28 30  1  1  0  0  0
 30 31  1  0  0  0  0
 34 35  2  0  0  0  0
 36 34  1  1  0  0  0
 36 38  1  0  0  0  0
 36 40  1  0  0  0  0
 37 39  1  0  0  0  0
 38 39  1  0  0  0  0
M  END
>  <CHROM.1>
109.81043719,-127.22054992,167.01452200,84.63880841,36.43208377,-106.09935326
-179.42726163,-156.33814071,46.57421182,-90.41500898,2.59503503,-2.84195067
21.37698541,-0.57808107,1.23654261,-0.99693783

>  <Name>
ligand

>  <RI>
0

>  <Rbt.Current_Directory>
/home/itssahil/PROJECTS/Mol_Feturizer/New_Systems/rnas/4P20

>  <Rbt.Executable>
rbdock ($Id: //depot/dev/client3/rdock/2013.1/src/exe/rbdock.cxx#4 $)

>  <Rbt.Library>
libRbt.so (2013.1, Build901 2013/11/27)

>  <Rbt.Parameter_File>
/export/apps/rDock/src/rDock_2013.1_src/data/scripts/dock_solv.prm

>  <Rbt.Receptor>
prm/blind_docking_100.prm

>  <SCORE>
39.1801

>  <SCORE.INTER>
9.71745

>  <SCORE.INTER.CONST>
1

>  <SCORE.INTER.POLAR>
0

>  <SCORE.INTER.ROT>
10

>  <SCORE.INTER.SOLV>
29.892

>  <SCORE.INTER.VDW>
-13.7524

>  <SCORE.INTER.norm>
0.242936

>  <SCORE.INTRA>
10.6224

>  <SCORE.INTRA.DIHEDRAL>
-0.109687

>  <SCORE.INTRA.DIHEDRAL.0>
28.2802

>  <SCORE.INTRA.POLAR>
0

>  <SCORE.INTRA.POLAR.0>
0

>  <SCORE.INTRA.REPUL>
0.0716943

>  <SCORE.INTRA.REPUL.0>
0

>  <SCORE.INTRA.SOLV>
10.4004

>  <SCORE.INTRA.SOLV.lig_0>
-101.981

>  <SCORE.INTRA.VDW>
5.11857

>  <SCORE.INTRA.VDW.0>
-5.72964

>  <SCORE.INTRA.norm>
0.26556

>  <SCORE.RESTR>
18.8403

>  <SCORE.RESTR.CAVITY>
18.8403

>  <SCORE.RESTR.norm>
0.471007

>  <SCORE.SYSTEM>
0

>  <SCORE.SYSTEM.CONST>
0

>  <SCORE.SYSTEM.DIHEDRAL>
0

>  <SCORE.SYSTEM.SOLV>
0

>  <SCORE.SYSTEM.norm>
0

>  <SCORE.heavy>
40

>  <SCORE.norm>
0.979503

>  <RMSD>
10.299

$$$$
ligand
 OpenBabel11021811503D
libRbt.so/2013.1/901 2013/11/27
 40 42  0  0  0  0  0  0  0  0999 V2000
    9.0670   -1.8705   24.8794 C   0  0  2  0  0  0  0  0  0  0  0  0
    8.1409   -2.8846   25.3000 O   0  0  0  0  0  0  0  0  0  0  0  0
    9.9020   -2.3635   23.6388 C   0  0  1  0  0  0  0  0  0  0  0  0
   10.8274   -3.5586   24.0105 C   0  0  2  0  0  0  0  0  0  0  0  0
   11.7978   -3.0760   25.1346 C   0  0  2  0  0  0  0  0  0  0  0  0
   12.6909   -4.1542   25.4874 O   0  0  0  0  0  0  0  0  0  0  0  0
   10.9305   -2.6266   26.3906 C   0  0  2  0  0  0  0  0  0  0  0  0
   10.0030   -1.5084   25.9911 O   0  0  0  0  0  0  0  0  0  0  0  0
   11.7890   -2.1172   27.5403 C   0  0  0  0  0  0  0  0  0  0  0  0
   10.9615   -1.8055   28.7480 N   0  0  0  0  0  0  0  0  0  0  0  0
    3.8566   -3.7908   24.9084 C   0  0  2  0  0  0  0  0  0  0  0  0
    2.4294   -3.5894   24.8137 N   0  0  0  0  0  0  0  0  0  0  0  0
    4.3809   -3.2220   26.2884 C   0  0  0  0  0  0  0  0  0  0  0  0
    5.9566   -3.4331   26.4053 C   0  0  2  0  0  0  0  0  0  0  0  0
    6.4450   -2.9130   27.7093 N   0  0  0  0  0  0  0  0  0  0  0  0
    6.6772   -2.6964   25.1825 C   0  0  2  0  0  0  0  0  0  0  0  0
    6.1177   -3.2992   23.8240 C   0  0  2  0  0  0  0  0  0  0  0  0
    6.7590   -2.6493   22.7242 O   0  0  0  0  0  0  0  0  0  0  0  0
    4.5556   -3.0868   23.7236 C   0  0  1  0  0  0  0  0  0  0  0  0
    4.0580   -3.6604   22.4891 O   0  0  0  0  0  0  0  0  0  0  0  0
    4.8317   -4.3066   21.5359 C   0  0  2  0  0  0  0  0  0  0  0  0
    4.0534   -4.2426   20.1738 C   0  0  2  0  0  0  0  0  0  0  0  0
    3.8030   -2.9160   19.8383 O   0  0  0  0  0  0  0  0  0  0  0  0
    2.7087   -5.0857   20.2226 C   0  0  1  0  0  0  0  0  0  0  0  0
    1.9904   -5.0213   18.9124 N   0  0  0  0  0  0  0  0  0  0  0  0
    3.0638   -6.5887   20.6051 C   0  0  2  0  0  0  0  0  0  0  0  0
    1.8804   -7.3956   20.6495 O   0  0  0  0  0  0  0  0  0  0  0  0
    3.8099   -6.5780   21.9951 C   0  0  2  0  0  0  0  0  0  0  0  0
    5.0661   -5.7200   21.9284 O   0  0  0  0  0  0  0  0  0  0  0  0
    4.1985   -7.9752   22.4163 C   0  0  0  0  0  0  0  0  0  0  0  0
    5.2731   -7.9884   23.3743 O   0  0  0  0  0  0  0  0  0  0  0  0
    8.9720   -2.7406   22.5819 O   0  0  0  0  0  0  0  0  0  0  0  0
   11.5392   -3.9384   22.8983 O   0  0  0  0  0  0  0  0  0  0  0  0
    1.9290   -2.4692   24.0510 C   0  0  0  0  0  0  0  0  0  0  0  0
    2.6717   -1.4628   23.8498 O   0  0  0  0  0  0  0  0  0  0  0  0
    0.4700   -2.5505   23.5059 C   0  0  2  0  0  0  0  0  0  0  0  0
    0.9294   -1.0159   20.8285 N   0  0  0  0  0  0  0  0  0  0  0  0
    0.4462   -3.1302   22.0578 C   0  0  0  0  0  0  0  0  0  0  0  0
    1.3954   -2.3980   21.0945 C   0  0  0  0  0  0  0  0  0  0  0  0
   -0.0862   -1.4096   23.4225 O   0  0  0  0  0  0  0  0  0  0  0  0
  1  2  1  1  0  0  0
  1  3  1  0  0  0  0
  1  8  1  0  0  0  0
  3  4  1  0  0  0  0
  3 32  1  6  0  0  0
  4  5  1  0  0  0  0
  4 33  1  6  0  0  0
  5  6  1  1  0  0  0
  5  7  1  0  0  0  0
  7  8  1  0  0  0  0
  7  9  1  1  0  0  0
  9 10  1  0  0  0  0
 11 12  1  6  0  0  0
 11 13  1  0  0  0  0
 11 19  1  0  0  0  0
 12 34  1  0  0  0  0
 13 14  1  0  0  0  0
 14 15  1  1  0  0  0
 14 16  1  0  0  0  0
 16  2  1  1  0  0  0
 16 17  1  0  0  0  0
 17 18  1  6  0  0  0
 17 19  1  0  0  0  0
 19 20  1  6  0  0  0
 21 20  1  1  0  0  0
 21 22  1  0  0  0  0
 21 29  1  0  0  0  0
 22 23  1  1  0  0  0
 22 24  1  0  0  0  0
 24 25  1  6  0  0  0
 24 26  1  0  0  0  0
 26 27  1  1  0  0  0
 26 28  1  0  0  0  0
 28 29  1  0  0  0  0
 28 30  1  6  0  0  0
 30 31  1  0  0  0  0
 34 35  2  0  0  0  0
 36 34  1  6  0  0  0
 36 38  1  0  0  0  0
 36 40  1  0  0  0  0
 37 39  1  0  0  0  0
 38 39  1  0  0  0  0
M  END
>  <CHROM.1>
-113.44766475,-146.17798512,-175.38210271,99.37664477,-119.69445991,-157.53791493
158.39691091,-92.75219335,-52.27620085,-68.18444335,5.68140347,-3.58825100
23.50836830,0.41614285,-0.21124416,0.82528728

>  <Name>
ligand

>  <RI>
0

>  <Rbt.Current_Directory>
/home/itssahil/PROJECTS/Mol_Feturizer/New_Systems/rnas/4P20

>  <Rbt.Executable>
rbdock ($Id: //depot/dev/client3/rdock/2013.1/src/exe/rbdock.cxx#4 $)

>  <Rbt.Library>
libRbt.so (2013.1, Build901 2013/11/27)

>  <Rbt.Parameter_File>
/export/apps/rDock/src/rDock_2013.1_src/data/scripts/dock_solv.prm

>  <Rbt.Receptor>
prm/blind_docking_60.prm

>  <SCORE>
53.0472

>  <SCORE.INTER>
30.2626

>  <SCORE.INTER.CONST>
1

>  <SCORE.INTER.POLAR>
0

>  <SCORE.INTER.ROT>
10

>  <SCORE.INTER.SOLV>
28.98

>  <SCORE.INTER.VDW>
0.24839

>  <SCORE.INTER.norm>
0.756564

>  <SCORE.INTRA>
9.33127

>  <SCORE.INTRA.DIHEDRAL>
-2.90549

>  <SCORE.INTRA.DIHEDRAL.0>
28.2802

>  <SCORE.INTRA.POLAR>
0

>  <SCORE.INTRA.POLAR.0>
0

>  <SCORE.INTRA.REPUL>
0

>  <SCORE.INTRA.REPUL.0>
0

>  <SCORE.INTRA.SOLV>
4.74361

>  <SCORE.INTRA.SOLV.lig_0>
-101.981

>  <SCORE.INTRA.VDW>
8.41221

>  <SCORE.INTRA.VDW.0>
-5.72964

>  <SCORE.INTRA.norm>
0.233282

>  <SCORE.RESTR>
13.4533

>  <SCORE.RESTR.CAVITY>
13.4533

>  <SCORE.RESTR.norm>
0.336333

>  <SCORE.SYSTEM>
0

>  <SCORE.SYSTEM.CONST>
0

>  <SCORE.SYSTEM.DIHEDRAL>
0

>  <SCORE.SYSTEM.SOLV>
0

>  <SCORE.SYSTEM.norm>
0

>  <SCORE.heavy>
40

>  <SCORE.norm>
1.32618

>  <RMSD>
10.299

$$$$
ligand
 OpenBabel11021811513D
libRbt.so/2013.1/901 2013/11/27
 40 42  0  0  0  0  0  0  0  0999 V2000
    8.6264   -2.8484   26.1181 C   0  0  2  0  0  0  0  0  0  0  0  0
    7.6886   -3.5473   25.2844 O   0  0  0  0  0  0  0  0  0  0  0  0
    8.7429   -1.3412   25.6776 C   0  0  1  0  0  0  0  0  0  0  0  0
    9.3617   -1.2070   24.2557 C   0  0  2  0  0  0  0  0  0  0  0  0
   10.7836   -1.8512   24.2939 C   0  0  2  0  0  0  0  0  0  0  0  0
   11.3997   -1.7215   22.9946 O   0  0  0  0  0  0  0  0  0  0  0  0
   10.6324   -3.3828   24.6974 C   0  0  2  0  0  0  0  0  0  0  0  0
    9.9794   -3.4875   26.0512 O   0  0  0  0  0  0  0  0  0  0  0  0
   11.9734   -4.0989   24.7822 C   0  0  0  0  0  0  0  0  0  0  0  0
   12.6635   -4.1327   23.4544 N   0  0  0  0  0  0  0  0  0  0  0  0
    3.3295   -3.6140   24.7154 C   0  0  2  0  0  0  0  0  0  0  0  0
    1.9701   -3.1437   24.5836 N   0  0  0  0  0  0  0  0  0  0  0  0
    3.8955   -3.2058   26.1352 C   0  0  0  0  0  0  0  0  0  0  0  0
    5.3979   -3.7143   26.2935 C   0  0  2  0  0  0  0  0  0  0  0  0
    5.9226   -3.3443   27.6341 N   0  0  0  0  0  0  0  0  0  0  0  0
    6.2918   -3.0822   25.1281 C   0  0  2  0  0  0  0  0  0  0  0  0
    5.6841   -3.5179   23.7271 C   0  0  2  0  0  0  0  0  0  0  0  0
    6.4791   -2.9604   22.6781 O   0  0  0  0  0  0  0  0  0  0  0  0
    4.1947   -3.0111   23.5858 C   0  0  1  0  0  0  0  0  0  0  0  0
    3.6482   -3.4345   22.3119 O   0  0  0  0  0  0  0  0  0  0  0  0
    4.3844   -3.9497   21.2548 C   0  0  2  0  0  0  0  0  0  0  0  0
    3.3677   -4.3942   20.1440 C   0  0  2  0  0  0  0  0  0  0  0  0
    2.5858   -3.3089   19.7621 O   0  0  0  0  0  0  0  0  0  0  0  0
    2.4664   -5.6109   20.6221 C   0  0  1  0  0  0  0  0  0  0  0  0
    1.5149   -6.0258   19.5453 N   0  0  0  0  0  0  0  0  0  0  0  0
    3.4175   -6.8164   21.0382 C   0  0  2  0  0  0  0  0  0  0  0  0
    2.6483   -7.9471   21.4664 O   0  0  0  0  0  0  0  0  0  0  0  0
    4.3837   -6.3083   22.1773 C   0  0  2  0  0  0  0  0  0  0  0  0
    5.1956   -5.1104   21.7037 O   0  0  0  0  0  0  0  0  0  0  0  0
    5.3348   -7.3978   22.6119 C   0  0  0  0  0  0  0  0  0  0  0  0
    4.6566   -8.6121   22.9839 O   0  0  0  0  0  0  0  0  0  0  0  0
    7.4122   -0.7483   25.7189 O   0  0  0  0  0  0  0  0  0  0  0  0
    9.4513    0.1244   23.9286 O   0  0  0  0  0  0  0  0  0  0  0  0
    1.7297   -1.8598   23.9666 C   0  0  0  0  0  0  0  0  0  0  0  0
    2.6496   -0.9890   23.9466 O   0  0  0  0  0  0  0  0  0  0  0  0
    0.3220   -1.5995   23.3475 C   0  0  2  0  0  0  0  0  0  0  0  0
    1.1675   -0.4465   19.7267 N   0  0  0  0  0  0  0  0  0  0  0  0
    0.4248   -0.6745   22.0955 C   0  0  0  0  0  0  0  0  0  0  0  0
    0.9856   -1.3905   20.8554 C   0  0  0  0  0  0  0  0  0  0  0  0
   -0.4619   -0.9980   24.1487 O   0  0  0  0  0  0  0  0  0  0  0  0
  1  2  1  6  0  0  0
  1  3  1  0  0  0  0
  1  8  1  0  0  0  0
  3  4  1  0  0  0  0
  3 32  1  6  0  0  0
  4  5  1  0  0  0  0
  4 33  1  1  0  0  0
  5  6  1  6  0  0  0
  5  7  1  0  0  0  0
  7  8  1  0  0  0  0
  7  9  1  1  0  0  0
  9 10  1  0  0  0  0
 11 12  1  6  0  0  0
 11 13  1  0  0  0  0
 11 19  1  0  0  0  0
 12 34  1  0  0  0  0
 13 14  1  0  0  0  0
 14 15  1  1  0  0  0
 14 16  1  0  0  0  0
 16  2  1  1  0  0  0
 16 17  1  0  0  0  0
 17 18  1  6  0  0  0
 17 19  1  0  0  0  0
 19 20  1  6  0  0  0
 21 20  1  1  0  0  0
 21 22  1  0  0  0  0
 21 29  1  0  0  0  0
 22 23  1  1  0  0  0
 22 24  1  0  0  0  0
 24 25  1  6  0  0  0
 24 26  1  0  0  0  0
 26 27  1  1  0  0  0
 26 28  1  0  0  0  0
 28 29  1  0  0  0  0
 28 30  1  6  0  0  0
 30 31  1  0  0  0  0
 34 35  2  0  0  0  0
 36 34  1  1  0  0  0
 36 38  1  0  0  0  0
 36 40  1  0  0  0  0
 37 39  1  0  0  0  0
 38 39  1  0  0  0  0
M  END
>  <CHROM.1>
-56.06905041,-87.38182274,-63.17048751,93.56897699,-132.79262636,174.70628277
-53.38470728,-146.89947051,74.56253976,-175.37295788,5.32391976,-3.36527698
23.37542941,0.24851912,-0.27093341,0.47225010

>  <Name>
ligand

>  <RI>
0

>  <Rbt.Current_Directory>
/home/itssahil/PROJECTS/Mol_Feturizer/New_Systems/rnas/4P20

>  <Rbt.Executable>
rbdock ($Id: //depot/dev/client3/rdock/2013.1/src/exe/rbdock.cxx#4 $)

>  <Rbt.Library>
libRbt.so (2013.1, Build901 2013/11/27)

>  <Rbt.Parameter_File>
/export/apps/rDock/src/rDock_2013.1_src/data/scripts/dock_solv.prm

>  <Rbt.Receptor>
prm/blind_docking_60.prm

>  <SCORE>
35.891

>  <SCORE.INTER>
24.7211

>  <SCORE.INTER.CONST>
1

>  <SCORE.INTER.POLAR>
0

>  <SCORE.INTER.ROT>
10

>  <SCORE.INTER.SOLV>
29.9797

>  <SCORE.INTER.VDW>
-3.77917

>  <SCORE.INTER.norm>
0.618027

>  <SCORE.INTRA>
0.540065

>  <SCORE.INTRA.DIHEDRAL>
-15.065

>  <SCORE.INTRA.DIHEDRAL.0>
28.2802

>  <SCORE.INTRA.POLAR>
0

>  <SCORE.INTRA.POLAR.0>
0

>  <SCORE.INTRA.REPUL>
0

>  <SCORE.INTRA.REPUL.0>
0

>  <SCORE.INTRA.SOLV>
3.31354

>  <SCORE.INTRA.SOLV.lig_0>
-101.981

>  <SCORE.INTRA.VDW>
6.41579

>  <SCORE.INTRA.VDW.0>
-5.72964

>  <SCORE.INTRA.norm>
0.0135016

>  <SCORE.RESTR>
10.6299

>  <SCORE.RESTR.CAVITY>
10.6299

>  <SCORE.RESTR.norm>
0.265747

>  <SCORE.SYSTEM>
0

>  <SCORE.SYSTEM.CONST>
0

>  <SCORE.SYSTEM.DIHEDRAL>
0

>  <SCORE.SYSTEM.SOLV>
0

>  <SCORE.SYSTEM.norm>
0

>  <SCORE.heavy>
40

>  <SCORE.norm>
0.897276

>  <RMSD>
10.306

$$$$
ligand
 OpenBabel11021811503D
libRbt.so/2013.1/901 2013/11/27
 40 42  0  0  0  0  0  0  0  0999 V2000
    5.0424   -6.5323   19.8289 C   0  0  2  0  0  0  0  0  0  0  0  0
    3.8331   -5.8568   19.4493 O   0  0  0  0  0  0  0  0  0  0  0  0
    4.7669   -8.0623   20.0790 C   0  0  1  0  0  0  0  0  0  0  0  0
    3.8356   -8.2827   21.3066 C   0  0  2  0  0  0  0  0  0  0  0  0
    4.5433   -7.6685   22.5557 C   0  0  2  0  0  0  0  0  0  0  0  0
    3.7175   -7.8781   23.7213 O   0  0  0  0  0  0  0  0  0  0  0  0
    4.7688   -6.1153   22.2945 C   0  0  2  0  0  0  0  0  0  0  0  0
    5.6250   -5.9273   21.0691 O   0  0  0  0  0  0  0  0  0  0  0  0
    5.4750   -5.4253   23.4535 C   0  0  0  0  0  0  0  0  0  0  0  0
    4.5161   -5.0632   24.5443 N   0  0  0  0  0  0  0  0  0  0  0  0
    0.6377   -3.3701   21.1627 C   0  0  2  0  0  0  0  0  0  0  0  0
   -0.1626   -2.6734   22.1427 N   0  0  0  0  0  0  0  0  0  0  0  0
    0.6383   -4.9191   21.4843 C   0  0  0  0  0  0  0  0  0  0  0  0
    1.5222   -5.7013   20.4130 C   0  0  2  0  0  0  0  0  0  0  0  0
    1.5082   -7.1583   20.7070 N   0  0  0  0  0  0  0  0  0  0  0  0
    3.0119   -5.1209   20.4371 C   0  0  2  0  0  0  0  0  0  0  0  0
    2.9584   -3.5676   20.1112 C   0  0  2  0  0  0  0  0  0  0  0  0
    4.2867   -3.0398   20.1267 O   0  0  0  0  0  0  0  0  0  0  0  0
    2.0764   -2.8061   21.1778 C   0  0  1  0  0  0  0  0  0  0  0  0
    2.0205   -1.3944   20.8545 O   0  0  0  0  0  0  0  0  0  0  0  0
    2.9324   -0.7174   20.0576 C   0  0  2  0  0  0  0  0  0  0  0  0
    3.5473    0.4397   20.9226 C   0  0  2  0  0  0  0  0  0  0  0  0
    4.1377   -0.0912   22.0649 O   0  0  0  0  0  0  0  0  0  0  0  0
    2.4627    1.5381   21.2950 C   0  0  1  0  0  0  0  0  0  0  0  0
    3.0720    2.6360   22.1075 N   0  0  0  0  0  0  0  0  0  0  0  0
    1.8315    2.1068   19.9498 C   0  0  2  0  0  0  0  0  0  0  0  0
    0.8526    3.1143   20.2332 O   0  0  0  0  0  0  0  0  0  0  0  0
    1.2048    0.8983   19.1527 C   0  0  2  0  0  0  0  0  0  0  0  0
    2.2591   -0.1597   18.8567 O   0  0  0  0  0  0  0  0  0  0  0  0
    0.6011    1.3601   17.8478 C   0  0  0  0  0  0  0  0  0  0  0  0
    1.5956    1.7462   16.8811 O   0  0  0  0  0  0  0  0  0  0  0  0
    4.1714   -8.6231   18.8727 O   0  0  0  0  0  0  0  0  0  0  0  0
    3.6398   -9.6307   21.4856 O   0  0  0  0  0  0  0  0  0  0  0  0
    0.4975   -1.8482   23.1278 C   0  0  0  0  0  0  0  0  0  0  0  0
    1.7120   -2.0635   23.4172 O   0  0  0  0  0  0  0  0  0  0  0  0
   -0.3322   -0.7143   23.8047 C   0  0  2  0  0  0  0  0  0  0  0  0
   -1.1148    1.9631   24.4959 N   0  0  0  0  0  0  0  0  0  0  0  0
    0.5597    0.1354   24.7617 C   0  0  0  0  0  0  0  0  0  0  0  0
   -0.2037    1.2814   25.4464 C   0  0  0  0  0  0  0  0  0  0  0  0
   -1.2747   -1.1638   24.5313 O   0  0  0  0  0  0  0  0  0  0  0  0
  1  2  1  1  0  0  0
  1  3  1  0  0  0  0
  1  8  1  0  0  0  0
  3  4  1  0  0  0  0
  3 32  1  6  0  0  0
  4  5  1  0  0  0  0
  4 33  1  1  0  0  0
  5  6  1  1  0  0  0
  5  7  1  0  0  0  0
  7  8  1  0  0  0  0
  7  9  1  1  0  0  0
  9 10  1  0  0  0  0
 11 12  1  1  0  0  0
 11 13  1  0  0  0  0
 11 19  1  0  0  0  0
 12 34  1  0  0  0  0
 13 14  1  0  0  0  0
 14 15  1  1  0  0  0
 14 16  1  0  0  0  0
 16  2  1  6  0  0  0
 16 17  1  0  0  0  0
 17 18  1  1  0  0  0
 17 19  1  0  0  0  0
 19 20  1  6  0  0  0
 21 20  1  1  0  0  0
 21 22  1  0  0  0  0
 21 29  1  0  0  0  0
 22 23  1  1  0  0  0
 22 24  1  0  0  0  0
 24 25  1  6  0  0  0
 24 26  1  0  0  0  0
 26 27  1  1  0  0  0
 26 28  1  0  0  0  0
 28 29  1  0  0  0  0
 28 30  1  6  0  0  0
 30 31  1  0  0  0  0
 34 35  2  0  0  0  0
 36 34  1  1  0  0  0
 36 38  1  0  0  0  0
 36 40  1  0  0  0  0
 37 39  1  0  0  0  0
 38 39  1  0  0  0  0
M  END
>  <CHROM.1>
96.88452835,-123.70273428,-82.31120851,108.25864472,-140.94559094,-121.45246535
70.99667306,-176.02819392,179.33324844,-41.89419246,2.43326655,-2.86172691
21.39022227,-0.77793020,1.09249920,-0.70938303

>  <Name>
ligand

>  <RI>
0

>  <Rbt.Current_Directory>
/home/itssahil/PROJECTS/Mol_Feturizer/New_Systems/rnas/4P20

>  <Rbt.Executable>
rbdock ($Id: //depot/dev/client3/rdock/2013.1/src/exe/rbdock.cxx#4 $)

>  <Rbt.Library>
libRbt.so (2013.1, Build901 2013/11/27)

>  <Rbt.Parameter_File>
/export/apps/rDock/src/rDock_2013.1_src/data/scripts/dock_solv.prm

>  <Rbt.Receptor>
prm/blind_docking_100.prm

>  <SCORE>
46.6853

>  <SCORE.INTER>
11.2656

>  <SCORE.INTER.CONST>
1

>  <SCORE.INTER.POLAR>
0

>  <SCORE.INTER.ROT>
10

>  <SCORE.INTER.SOLV>
26.915

>  <SCORE.INTER.VDW>
-11.728

>  <SCORE.INTER.norm>
0.281639

>  <SCORE.INTRA>
13.5128

>  <SCORE.INTRA.DIHEDRAL>
1.26005

>  <SCORE.INTRA.DIHEDRAL.0>
28.2802

>  <SCORE.INTRA.POLAR>
0

>  <SCORE.INTRA.POLAR.0>
0

>  <SCORE.INTRA.REPUL>
0

>  <SCORE.INTRA.REPUL.0>
0

>  <SCORE.INTRA.SOLV>
7.14569

>  <SCORE.INTRA.SOLV.lig_0>
-101.981

>  <SCORE.INTRA.VDW>
9.30996

>  <SCORE.INTRA.VDW.0>
-5.72964

>  <SCORE.INTRA.norm>
0.337821

>  <SCORE.RESTR>
21.9069

>  <SCORE.RESTR.CAVITY>
21.9069

>  <SCORE.RESTR.norm>
0.547673

>  <SCORE.SYSTEM>
0

>  <SCORE.SYSTEM.CONST>
0

>  <SCORE.SYSTEM.DIHEDRAL>
0

>  <SCORE.SYSTEM.SOLV>
0

>  <SCORE.SYSTEM.norm>
0

>  <SCORE.heavy>
40

>  <SCORE.norm>
1.16713

>  <RMSD>
10.313

$$$$
ligand
 OpenBabel11021811503D
libRbt.so/2013.1/901 2013/11/27
 40 42  0  0  0  0  0  0  0  0999 V2000
    8.7928   -2.4760   26.3129 C   0  0  2  0  0  0  0  0  0  0  0  0
    7.7974   -3.4540   25.9728 O   0  0  0  0  0  0  0  0  0  0  0  0
    8.9042   -1.3836   25.1844 C   0  0  1  0  0  0  0  0  0  0  0  0
    9.4395   -1.9884   23.8537 C   0  0  2  0  0  0  0  0  0  0  0  0
   10.8519   -2.5896   24.1398 C   0  0  2  0  0  0  0  0  0  0  0  0
   11.3917   -3.1382   22.9182 O   0  0  0  0  0  0  0  0  0  0  0  0
   10.7033   -3.7199   25.2497 C   0  0  2  0  0  0  0  0  0  0  0  0
   10.1303   -3.1213   26.5080 O   0  0  0  0  0  0  0  0  0  0  0  0
   12.0367   -4.3576   25.6152 C   0  0  0  0  0  0  0  0  0  0  0  0
   12.7354   -4.9010   24.4081 N   0  0  0  0  0  0  0  0  0  0  0  0
    3.4906   -3.7263   25.1319 C   0  0  2  0  0  0  0  0  0  0  0  0
    2.1448   -3.3235   24.7958 N   0  0  0  0  0  0  0  0  0  0  0  0
    3.9532   -2.9804   26.4480 C   0  0  0  0  0  0  0  0  0  0  0  0
    5.4398   -3.4116   26.8290 C   0  0  2  0  0  0  0  0  0  0  0  0
    5.8668   -2.7224   28.0749 N   0  0  0  0  0  0  0  0  0  0  0  0
    6.4161   -3.0628   25.6116 C   0  0  2  0  0  0  0  0  0  0  0  0
    5.9104   -3.8315   24.3173 C   0  0  2  0  0  0  0  0  0  0  0  0
    6.7795   -3.5289   23.2236 O   0  0  0  0  0  0  0  0  0  0  0  0
    4.4356   -3.3978   23.9541 C   0  0  1  0  0  0  0  0  0  0  0  0
    3.9819   -4.1231   22.7842 O   0  0  0  0  0  0  0  0  0  0  0  0
    4.7891   -4.5381   21.7348 C   0  0  2  0  0  0  0  0  0  0  0  0
    4.0427   -4.1884   20.3985 C   0  0  2  0  0  0  0  0  0  0  0  0
    3.7781   -2.8234   20.3521 O   0  0  0  0  0  0  0  0  0  0  0  0
    2.7117   -5.0370   20.2268 C   0  0  1  0  0  0  0  0  0  0  0  0
    2.0240   -4.6976   18.9428 N   0  0  0  0  0  0  0  0  0  0  0  0
    3.0828   -6.5831   20.2836 C   0  0  2  0  0  0  0  0  0  0  0  0
    1.9125   -7.3937   20.1198 O   0  0  0  0  0  0  0  0  0  0  0  0
    3.7951   -6.8663   21.6625 C   0  0  2  0  0  0  0  0  0  0  0  0
    5.0378   -6.0002   21.8175 O   0  0  0  0  0  0  0  0  0  0  0  0
    4.1969   -8.3171   21.7809 C   0  0  0  0  0  0  0  0  0  0  0  0
    4.6201   -8.6700   23.1111 O   0  0  0  0  0  0  0  0  0  0  0  0
    7.5868   -0.7919   24.9887 O   0  0  0  0  0  0  0  0  0  0  0  0
    9.5283   -0.9925   22.9114 O   0  0  0  0  0  0  0  0  0  0  0  0
    1.9502   -2.2652   23.8319 C   0  0  0  0  0  0  0  0  0  0  0  0
    2.8764   -1.4265   23.6226 O   0  0  0  0  0  0  0  0  0  0  0  0
    0.5828   -2.2006   23.0847 C   0  0  2  0  0  0  0  0  0  0  0  0
    1.2831   -0.5075   19.6807 N   0  0  0  0  0  0  0  0  0  0  0  0
    0.7933   -2.0909   21.5429 C   0  0  0  0  0  0  0  0  0  0  0  0
    1.5067   -0.7966   21.1175 C   0  0  0  0  0  0  0  0  0  0  0  0
   -0.1032   -1.1785   23.4058 O   0  0  0  0  0  0  0  0  0  0  0  0
  1  2  1  6  0  0  0
  1  3  1  0  0  0  0
  1  8  1  0  0  0  0
  3  4  1  0  0  0  0
  3 32  1  6  0  0  0
  4  5  1  0  0  0  0
  4 33  1  6  0  0  0
  5  6  1  6  0  0  0
  5  7  1  0  0  0  0
  7  8  1  0  0  0  0
  7  9  1  1  0  0  0
  9 10  1  0  0  0  0
 11 12  1  6  0  0  0
 11 13  1  0  0  0  0
 11 19  1  0  0  0  0
 12 34  1  0  0  0  0
 13 14  1  0  0  0  0
 14 15  1  1  0  0  0
 14 16  1  0  0  0  0
 16  2  1  1  0  0  0
 16 17  1  0  0  0  0
 17 18  1  6  0  0  0
 17 19  1  0  0  0  0
 19 20  1  6  0  0  0
 21 20  1  1  0  0  0
 21 22  1  0  0  0  0
 21 29  1  0  0  0  0
 22 23  1  1  0  0  0
 22 24  1  0  0  0  0
 24 25  1  6  0  0  0
 24 26  1  0  0  0  0
 26 27  1  1  0  0  0
 26 28  1  0  0  0  0
 28 29  1  0  0  0  0
 28 30  1  6  0  0  0
 30 31  1  0  0  0  0
 34 35  2  0  0  0  0
 36 34  1  1  0  0  0
 36 38  1  0  0  0  0
 36 40  1  0  0  0  0
 37 39  1  0  0  0  0
 38 39  1  0  0  0  0
M  END
>  <CHROM.1>
-53.27664577,-105.87785228,-55.31159309,96.04780154,-152.30981640,-135.02979015
-169.12500083,-129.53269754,-63.64075819,-160.69341162,5.44724340,-3.56729793
23.38236557,0.31553608,-0.30376348,0.62352086

>  <Name>
ligand

>  <RI>
0

>  <Rbt.Current_Directory>
/home/itssahil/PROJECTS/Mol_Feturizer/New_Systems/rnas/4P20

>  <Rbt.Executable>
rbdock ($Id: //depot/dev/client3/rdock/2013.1/src/exe/rbdock.cxx#4 $)

>  <Rbt.Library>
libRbt.so (2013.1, Build901 2013/11/27)

>  <Rbt.Parameter_File>
/export/apps/rDock/src/rDock_2013.1_src/data/scripts/dock_solv.prm

>  <Rbt.Receptor>
prm/blind_docking_60.prm

>  <SCORE>
21.0274

>  <SCORE.INTER>
6.58054

>  <SCORE.INTER.CONST>
1

>  <SCORE.INTER.POLAR>
0

>  <SCORE.INTER.ROT>
10

>  <SCORE.INTER.SOLV>
29.8323

>  <SCORE.INTER.VDW>
-15.8237

>  <SCORE.INTER.norm>
0.164513

>  <SCORE.INTRA>
3.10606

>  <SCORE.INTRA.DIHEDRAL>
-7.48715

>  <SCORE.INTRA.DIHEDRAL.0>
28.2802

>  <SCORE.INTRA.POLAR>
0

>  <SCORE.INTRA.POLAR.0>
0

>  <SCORE.INTRA.REPUL>
0

>  <SCORE.INTRA.REPUL.0>
0

>  <SCORE.INTRA.SOLV>
3.57869

>  <SCORE.INTRA.SOLV.lig_0>
-101.981

>  <SCORE.INTRA.VDW>
5.06029

>  <SCORE.INTRA.VDW.0>
-5.72964

>  <SCORE.INTRA.norm>
0.0776516

>  <SCORE.RESTR>
11.3408

>  <SCORE.RESTR.CAVITY>
11.3408

>  <SCORE.RESTR.norm>
0.283521

>  <SCORE.SYSTEM>
0

>  <SCORE.SYSTEM.CONST>
0

>  <SCORE.SYSTEM.DIHEDRAL>
0

>  <SCORE.SYSTEM.SOLV>
0

>  <SCORE.SYSTEM.norm>
0

>  <SCORE.heavy>
40

>  <SCORE.norm>
0.525686

>  <RMSD>
10.314

$$$$
ligand
 OpenBabel11021811503D
libRbt.so/2013.1/901 2013/11/27
 40 42  0  0  0  0  0  0  0  0999 V2000
    4.4051   -4.6875   19.9641 C   0  0  2  0  0  0  0  0  0  0  0  0
    2.9885   -4.5057   19.8120 O   0  0  0  0  0  0  0  0  0  0  0  0
    4.7907   -6.2041   19.7887 C   0  0  1  0  0  0  0  0  0  0  0  0
    4.1948   -7.0814   20.9280 C   0  0  2  0  0  0  0  0  0  0  0  0
    4.7634   -6.5513   22.2823 C   0  0  2  0  0  0  0  0  0  0  0  0
    4.2507   -7.3603   23.3626 O   0  0  0  0  0  0  0  0  0  0  0  0
    4.3216   -5.0325   22.4545 C   0  0  2  0  0  0  0  0  0  0  0  0
    4.8622   -4.2153   21.3100 O   0  0  0  0  0  0  0  0  0  0  0  0
    4.8469   -4.4147   23.7432 C   0  0  0  0  0  0  0  0  0  0  0  0
    4.1252   -3.1470   24.0790 N   0  0  0  0  0  0  0  0  0  0  0  0
   -0.1661   -1.7447   21.1369 C   0  0  2  0  0  0  0  0  0  0  0  0
   -0.8949   -0.8137   21.9665 N   0  0  0  0  0  0  0  0  0  0  0  0
    0.0001   -3.1187   21.9032 C   0  0  0  0  0  0  0  0  0  0  0  0
    0.8075   -4.1556   21.0012 C   0  0  2  0  0  0  0  0  0  0  0  0
    0.9485   -5.4512   21.7161 N   0  0  0  0  0  0  0  0  0  0  0  0
    2.2368   -3.5359   20.6402 C   0  0  2  0  0  0  0  0  0  0  0  0
    2.0172   -2.1613   19.8760 C   0  0  2  0  0  0  0  0  0  0  0  0
    3.2900   -1.6009   19.5454 O   0  0  0  0  0  0  0  0  0  0  0  0
    1.2128   -1.1455   20.7796 C   0  0  1  0  0  0  0  0  0  0  0  0
    1.0029    0.0952   20.0604 O   0  0  0  0  0  0  0  0  0  0  0  0
    1.9946    0.8384   19.4368 C   0  0  2  0  0  0  0  0  0  0  0  0
    1.5689    2.3479   19.5088 C   0  0  2  0  0  0  0  0  0  0  0  0
    1.3866    2.7214   20.8363 O   0  0  0  0  0  0  0  0  0  0  0  0
    0.2658    2.6350   18.6479 C   0  0  1  0  0  0  0  0  0  0  0  0
   -0.1144    4.0796   18.7203 N   0  0  0  0  0  0  0  0  0  0  0  0
    0.5410    2.1923   17.1447 C   0  0  2  0  0  0  0  0  0  0  0  0
   -0.6050    2.4442   16.3222 O   0  0  0  0  0  0  0  0  0  0  0  0
    0.9276    0.6628   17.1467 C   0  0  2  0  0  0  0  0  0  0  0  0
    2.1490    0.4145   18.0215 O   0  0  0  0  0  0  0  0  0  0  0  0
    1.2243    0.1734   15.7492 C   0  0  0  0  0  0  0  0  0  0  0  0
    0.2900   -0.8255   15.2999 O   0  0  0  0  0  0  0  0  0  0  0  0
    4.3090   -6.6511   18.4879 O   0  0  0  0  0  0  0  0  0  0  0  0
    4.5717   -8.3881   20.7327 O   0  0  0  0  0  0  0  0  0  0  0  0
   -1.7889   -1.3280   22.9781 C   0  0  0  0  0  0  0  0  0  0  0  0
   -2.2628   -2.4973   22.8636 O   0  0  0  0  0  0  0  0  0  0  0  0
   -2.1390   -0.4011   24.1826 C   0  0  2  0  0  0  0  0  0  0  0  0
   -1.8782    1.0695   26.9469 N   0  0  0  0  0  0  0  0  0  0  0  0
   -0.8455    0.1027   24.8942 C   0  0  0  0  0  0  0  0  0  0  0  0
   -1.0704    1.3673   25.7399 C   0  0  0  0  0  0  0  0  0  0  0  0
   -2.8089   -0.9998   25.0830 O   0  0  0  0  0  0  0  0  0  0  0  0
  1  2  1  1  0  0  0
  1  3  1  0  0  0  0
  1  8  1  0  0  0  0
  3  4  1  0  0  0  0
  3 32  1  6  0  0  0
  4  5  1  0  0  0  0
  4 33  1  6  0  0  0
  5  6  1  1  0  0  0
  5  7  1  0  0  0  0
  7  8  1  0  0  0  0
  7  9  1  1  0  0  0
  9 10  1  0  0  0  0
 11 12  1  1  0  0  0
 11 13  1  0  0  0  0
 11 19  1  0  0  0  0
 12 34  1  0  0  0  0
 13 14  1  0  0  0  0
 14 15  1  1  0  0  0
 14 16  1  0  0  0  0
 16  2  1  6  0  0  0
 16 17  1  0  0  0  0
 17 18  1  1  0  0  0
 17 19  1  0  0  0  0
 19 20  1  6  0  0  0
 21 20  1  6  0  0  0
 21 22  1  0  0  0  0
 21 29  1  0  0  0  0
 22 23  1  1  0  0  0
 22 24  1  0  0  0  0
 24 25  1  6  0  0  0
 24 26  1  0  0  0  0
 26 27  1  6  0  0  0
 26 28  1  0  0  0  0
 28 29  1  0  0  0  0
 28 30  1  6  0  0  0
 30 31  1  0  0  0  0
 34 35  2  0  0  0  0
 36 34  1  6  0  0  0
 36 38  1  0  0  0  0
 36 40  1  0  0  0  0
 37 39  1  0  0  0  0
 38 39  1  0  0  0  0
M  END
>  <CHROM.1>
142.60161923,-142.37528866,-164.00152694,-25.20624882,-171.86059980,-148.81997178
-115.76026699,-54.74389638,159.75871160,70.31518318,1.50481583,-1.94049769
20.85217200,-0.63434350,0.91759304,-0.99832801

>  <Name>
ligand

>  <RI>
0

>  <Rbt.Current_Directory>
/home/itssahil/PROJECTS/Mol_Feturizer/New_Systems/rnas/4P20

>  <Rbt.Executable>
rbdock ($Id: //depot/dev/client3/rdock/2013.1/src/exe/rbdock.cxx#4 $)

>  <Rbt.Library>
libRbt.so (2013.1, Build901 2013/11/27)

>  <Rbt.Parameter_File>
/export/apps/rDock/src/rDock_2013.1_src/data/scripts/dock_solv.prm

>  <Rbt.Receptor>
prm/blind_docking_100.prm

>  <SCORE>
59.6416

>  <SCORE.INTER>
27.4678

>  <SCORE.INTER.CONST>
1

>  <SCORE.INTER.POLAR>
0

>  <SCORE.INTER.ROT>
10

>  <SCORE.INTER.SOLV>
26.5437

>  <SCORE.INTER.VDW>
-0.802682

>  <SCORE.INTER.norm>
0.686696

>  <SCORE.INTRA>
4.27195

>  <SCORE.INTRA.DIHEDRAL>
-4.80878

>  <SCORE.INTRA.DIHEDRAL.0>
28.2802

>  <SCORE.INTRA.POLAR>
0

>  <SCORE.INTRA.POLAR.0>
0

>  <SCORE.INTRA.REPUL>
0

>  <SCORE.INTRA.REPUL.0>
0

>  <SCORE.INTRA.SOLV>
2.00258

>  <SCORE.INTRA.SOLV.lig_0>
-101.981

>  <SCORE.INTRA.VDW>
5.67505

>  <SCORE.INTRA.VDW.0>
-5.72964

>  <SCORE.INTRA.norm>
0.106799

>  <SCORE.RESTR>
27.9018

>  <SCORE.RESTR.CAVITY>
27.9018

>  <SCORE.RESTR.norm>
0.697545

>  <SCORE.SYSTEM>
0

>  <SCORE.SYSTEM.CONST>
0

>  <SCORE.SYSTEM.DIHEDRAL>
0

>  <SCORE.SYSTEM.SOLV>
0

>  <SCORE.SYSTEM.norm>
0

>  <SCORE.heavy>
40

>  <SCORE.norm>
1.49104

>  <RMSD>
10.328

$$$$
ligand
 OpenBabel11021811503D
libRbt.so/2013.1/901 2013/11/27
 40 42  0  0  0  0  0  0  0  0999 V2000
    5.1949   -6.1140   20.3252 C   0  0  2  0  0  0  0  0  0  0  0  0
    3.9760   -5.5218   19.8490 O   0  0  0  0  0  0  0  0  0  0  0  0
    5.1033   -7.6852   20.2759 C   0  0  1  0  0  0  0  0  0  0  0  0
    4.0330   -8.2272   21.2677 C   0  0  2  0  0  0  0  0  0  0  0  0
    4.4434   -7.7728   22.7041 C   0  0  2  0  0  0  0  0  0  0  0  0
    3.4843   -8.2811   23.6561 O   0  0  0  0  0  0  0  0  0  0  0  0
    4.4845   -6.1826   22.7374 C   0  0  2  0  0  0  0  0  0  0  0  0
    5.4856   -5.6810   21.7293 O   0  0  0  0  0  0  0  0  0  0  0  0
    4.8968   -5.6380   24.0981 C   0  0  0  0  0  0  0  0  0  0  0  0
    4.9585   -4.1424   24.0958 N   0  0  0  0  0  0  0  0  0  0  0  0
    0.6759   -2.9770   21.2500 C   0  0  2  0  0  0  0  0  0  0  0  0
   -0.2181   -2.2862   22.1500 N   0  0  0  0  0  0  0  0  0  0  0  0
    0.5824   -4.5357   21.5040 C   0  0  0  0  0  0  0  0  0  0  0  0
    1.5680   -5.3116   20.5205 C   0  0  2  0  0  0  0  0  0  0  0  0
    1.4669   -6.7769   20.7492 N   0  0  0  0  0  0  0  0  0  0  0  0
    3.0617   -4.7915   20.7558 C   0  0  2  0  0  0  0  0  0  0  0  0
    3.1032   -3.2262   20.4910 C   0  0  2  0  0  0  0  0  0  0  0  0
    4.4361   -2.7520   20.6953 O   0  0  0  0  0  0  0  0  0  0  0  0
    2.1194   -2.4709   21.4693 C   0  0  1  0  0  0  0  0  0  0  0  0
    2.1535   -1.0470   21.2009 O   0  0  0  0  0  0  0  0  0  0  0  0
    2.8863   -0.4383   20.1923 C   0  0  2  0  0  0  0  0  0  0  0  0
    3.1667    1.0405   20.6393 C   0  0  2  0  0  0  0  0  0  0  0  0
    3.8412    1.0431   21.8560 O   0  0  0  0  0  0  0  0  0  0  0  0
    1.8309    1.8950   20.7219 C   0  0  1  0  0  0  0  0  0  0  0  0
    2.1221    3.3021   21.1369 N   0  0  0  0  0  0  0  0  0  0  0  0
    1.1129    1.8559   19.3027 C   0  0  2  0  0  0  0  0  0  0  0  0
   -0.0954    2.6260   19.3223 O   0  0  0  0  0  0  0  0  0  0  0  0
    0.8322    0.3472   18.9363 C   0  0  2  0  0  0  0  0  0  0  0  0
    2.1266   -0.4545   18.9160 O   0  0  0  0  0  0  0  0  0  0  0  0
    0.1667    0.2287   17.5860 C   0  0  0  0  0  0  0  0  0  0  0  0
    0.9592    0.7922   16.5243 O   0  0  0  0  0  0  0  0  0  0  0  0
    4.7883   -8.0825   18.9095 O   0  0  0  0  0  0  0  0  0  0  0  0
    4.0046   -9.5987   21.1925 O   0  0  0  0  0  0  0  0  0  0  0  0
    0.3088   -1.7417   23.3799 C   0  0  0  0  0  0  0  0  0  0  0  0
    1.3755   -2.2159   23.8721 O   0  0  0  0  0  0  0  0  0  0  0  0
   -0.4772   -0.5783   24.0591 C   0  0  2  0  0  0  0  0  0  0  0  0
    2.7855   -0.2013   24.2103 N   0  0  0  0  0  0  0  0  0  0  0  0
    0.4596    0.2691   24.9744 C   0  0  0  0  0  0  0  0  0  0  0  0
    1.6999    0.8079   24.2420 C   0  0  0  0  0  0  0  0  0  0  0  0
   -1.4075   -0.9943   24.8203 O   0  0  0  0  0  0  0  0  0  0  0  0
  1  2  1  1  0  0  0
  1  3  1  0  0  0  0
  1  8  1  0  0  0  0
  3  4  1  0  0  0  0
  3 32  1  6  0  0  0
  4  5  1  0  0  0  0
  4 33  1  1  0  0  0
  5  6  1  1  0  0  0
  5  7  1  0  0  0  0
  7  8  1  0  0  0  0
  7  9  1  1  0  0  0
  9 10  1  0  0  0  0
 11 12  1  1  0  0  0
 11 13  1  0  0  0  0
 11 19  1  0  0  0  0
 12 34  1  0  0  0  0
 13 14  1  0  0  0  0
 14 15  1  1  0  0  0
 14 16  1  0  0  0  0
 16  2  1  6  0  0  0
 16 17  1  0  0  0  0
 17 18  1  1  0  0  0
 17 19  1  0  0  0  0
 19 20  1  6  0  0  0
 21 20  1  1  0  0  0
 21 22  1  0  0  0  0
 21 29  1  0  0  0  0
 22 23  1  1  0  0  0
 22 24  1  0  0  0  0
 24 25  1  6  0  0  0
 24 26  1  0  0  0  0
 26 27  1  1  0  0  0
 26 28  1  0  0  0  0
 28 29  1  0  0  0  0
 28 30  1  6  0  0  0
 30 31  1  0  0  0  0
 34 35  2  0  0  0  0
 36 34  1  1  0  0  0
 36 38  1  0  0  0  0
 36 40  1  0  0  0  0
 37 39  1  0  0  0  0
 38 39  1  0  0  0  0
M  END
>  <CHROM.1>
111.41995300,-131.77918155,178.69682771,96.54735689,-116.93220613,-154.59640761
59.19948035,-156.34534845,54.83403396,-84.25465173,2.44959105,-2.79474564
21.39298680,-0.46507629,1.17388741,-1.14804860

>  <Name>
ligand

>  <RI>
0

>  <Rbt.Current_Directory>
/home/itssahil/PROJECTS/Mol_Feturizer/New_Systems/rnas/4P20

>  <Rbt.Executable>
rbdock ($Id: //depot/dev/client3/rdock/2013.1/src/exe/rbdock.cxx#4 $)

>  <Rbt.Library>
libRbt.so (2013.1, Build901 2013/11/27)

>  <Rbt.Parameter_File>
/export/apps/rDock/src/rDock_2013.1_src/data/scripts/dock_solv.prm

>  <Rbt.Receptor>
prm/blind_docking_100.prm

>  <SCORE>
33.1329

>  <SCORE.INTER>
5.06208

>  <SCORE.INTER.CONST>
1

>  <SCORE.INTER.POLAR>
0

>  <SCORE.INTER.ROT>
10

>  <SCORE.INTER.SOLV>
25.6271

>  <SCORE.INTER.VDW>
-15.4343

>  <SCORE.INTER.norm>
0.126552

>  <SCORE.INTRA>
9.54946

>  <SCORE.INTRA.DIHEDRAL>
-0.784991

>  <SCORE.INTRA.DIHEDRAL.0>
28.2802

>  <SCORE.INTRA.POLAR>
0

>  <SCORE.INTRA.POLAR.0>
0

>  <SCORE.INTRA.REPUL>
0

>  <SCORE.INTRA.REPUL.0>
0

>  <SCORE.INTRA.SOLV>
11.5927

>  <SCORE.INTRA.SOLV.lig_0>
-101.981

>  <SCORE.INTRA.VDW>
4.1456

>  <SCORE.INTRA.VDW.0>
-5.72964

>  <SCORE.INTRA.norm>
0.238736

>  <SCORE.RESTR>
18.5213

>  <SCORE.RESTR.CAVITY>
18.5213

>  <SCORE.RESTR.norm>
0.463033

>  <SCORE.SYSTEM>
0

>  <SCORE.SYSTEM.CONST>
0

>  <SCORE.SYSTEM.DIHEDRAL>
0

>  <SCORE.SYSTEM.SOLV>
0

>  <SCORE.SYSTEM.norm>
0

>  <SCORE.heavy>
40

>  <SCORE.norm>
0.828322

>  <RMSD>
10.338

$$$$
ligand
 OpenBabel11021811503D
libRbt.so/2013.1/901 2013/11/27
 40 42  0  0  0  0  0  0  0  0999 V2000
    4.5168   -5.7723   20.5160 C   0  0  2  0  0  0  0  0  0  0  0  0
    3.0933   -5.5896   20.5737 O   0  0  0  0  0  0  0  0  0  0  0  0
    4.8795   -7.3045   20.5329 C   0  0  1  0  0  0  0  0  0  0  0  0
    4.4898   -7.9698   21.8850 C   0  0  2  0  0  0  0  0  0  0  0  0
    5.2729   -7.2352   23.0188 C   0  0  2  0  0  0  0  0  0  0  0  0
    4.9549   -7.8446   24.2885 O   0  0  0  0  0  0  0  0  0  0  0  0
    4.8542   -5.7003   23.0078 C   0  0  2  0  0  0  0  0  0  0  0  0
    5.1891   -5.0939   21.6698 O   0  0  0  0  0  0  0  0  0  0  0  0
    5.5830   -4.8891   24.0704 C   0  0  0  0  0  0  0  0  0  0  0  0
    4.9993   -5.1143   25.4302 N   0  0  0  0  0  0  0  0  0  0  0  0
    1.6797   -1.4438   20.9532 C   0  0  2  0  0  0  0  0  0  0  0  0
    1.0770   -0.1778   20.6064 N   0  0  0  0  0  0  0  0  0  0  0  0
    2.8905   -1.7384   19.9785 C   0  0  0  0  0  0  0  0  0  0  0  0
    3.5631   -3.1359   20.3463 C   0  0  2  0  0  0  0  0  0  0  0  0
    4.7107   -3.4033   19.4401 N   0  0  0  0  0  0  0  0  0  0  0  0
    2.4630   -4.2917   20.2426 C   0  0  2  0  0  0  0  0  0  0  0  0
    1.2713   -3.9506   21.2352 C   0  0  2  0  0  0  0  0  0  0  0  0
    0.2837   -4.9806   21.1526 O   0  0  0  0  0  0  0  0  0  0  0  0
    0.6171   -2.5621   20.8617 C   0  0  1  0  0  0  0  0  0  0  0  0
   -0.4540   -2.2560   21.7889 O   0  0  0  0  0  0  0  0  0  0  0  0
   -0.4659   -2.5837   23.1370 C   0  0  2  0  0  0  0  0  0  0  0  0
   -0.7569   -1.2665   23.9403 C   0  0  2  0  0  0  0  0  0  0  0  0
   -1.9643   -0.7178   23.5206 O   0  0  0  0  0  0  0  0  0  0  0  0
    0.4280   -0.2183   23.8036 C   0  0  1  0  0  0  0  0  0  0  0  0
    0.1361    1.0225   24.5859 N   0  0  0  0  0  0  0  0  0  0  0  0
    1.7742   -0.9037   24.3027 C   0  0  2  0  0  0  0  0  0  0  0  0
    2.8747    0.0095   24.2108 O   0  0  0  0  0  0  0  0  0  0  0  0
    2.0194   -2.1957   23.4311 C   0  0  2  0  0  0  0  0  0  0  0  0
    0.8431   -3.1559   23.5441 O   0  0  0  0  0  0  0  0  0  0  0  0
    3.2755   -2.9143   23.8625 C   0  0  0  0  0  0  0  0  0  0  0  0
    4.4356   -2.5031   23.1157 O   0  0  0  0  0  0  0  0  0  0  0  0
    4.1903   -7.9501   19.4229 O   0  0  0  0  0  0  0  0  0  0  0  0
    4.8390   -9.2981   21.8492 O   0  0  0  0  0  0  0  0  0  0  0  0
    1.9251    0.9799   20.4408 C   0  0  0  0  0  0  0  0  0  0  0  0
    3.0623    1.0119   20.9983 O   0  0  0  0  0  0  0  0  0  0  0  0
    1.3891    2.1594   19.5725 C   0  0  2  0  0  0  0  0  0  0  0  0
    0.0235    0.2525   16.4663 N   0  0  0  0  0  0  0  0  0  0  0  0
    1.2195    1.7250   18.0839 C   0  0  0  0  0  0  0  0  0  0  0  0
    0.2521    0.5434   17.9020 C   0  0  0  0  0  0  0  0  0  0  0  0
    2.1861    3.1504   19.5467 O   0  0  0  0  0  0  0  0  0  0  0  0
  1  2  1  1  0  0  0
  1  3  1  0  0  0  0
  1  8  1  0  0  0  0
  3  4  1  0  0  0  0
  3 32  1  6  0  0  0
  4  5  1  0  0  0  0
  4 33  1  6  0  0  0
  5  6  1  1  0  0  0
  5  7  1  0  0  0  0
  7  8  1  0  0  0  0
  7  9  1  1  0  0  0
  9 10  1  0  0  0  0
 11 12  1  6  0  0  0
 11 13  1  0  0  0  0
 11 19  1  0  0  0  0
 12 34  1  0  0  0  0
 13 14  1  0  0  0  0
 14 15  1  6  0  0  0
 14 16  1  0  0  0  0
 16  2  1  1  0  0  0
 16 17  1  0  0  0  0
 17 18  1  6  0  0  0
 17 19  1  0  0  0  0
 19 20  1  1  0  0  0
 21 20  1  6  0  0  0
 21 22  1  0  0  0  0
 21 29  1  0  0  0  0
 22 23  1  6  0  0  0
 22 24  1  0  0  0  0
 24 25  1  1  0  0  0
 24 26  1  0  0  0  0
 26 27  1  6  0  0  0
 26 28  1  0  0  0  0
 28 29  1  0  0  0  0
 28 30  1  1  0  0  0
 30 31  1  0  0  0  0
 34 35  2  0  0  0  0
 36 34  1  1  0  0  0
 36 38  1  0  0  0  0
 36 40  1  0  0  0  0
 37 39  1  0  0  0  0
 38 39  1  0  0  0  0
M  END
>  <CHROM.1>
-164.80089482,-19.54516815,-77.25992064,-49.71119061,-85.24499271,126.94288355
-92.55894801,-65.26037482,59.09493567,174.54167436,2.45054825,-2.85949161
21.69420575,-0.38366344,1.06835076,-1.32978031

>  <Name>
ligand

>  <RI>
0

>  <Rbt.Current_Directory>
/home/itssahil/PROJECTS/Mol_Feturizer/New_Systems/rnas/4P20

>  <Rbt.Executable>
rbdock ($Id: //depot/dev/client3/rdock/2013.1/src/exe/rbdock.cxx#4 $)

>  <Rbt.Library>
libRbt.so (2013.1, Build901 2013/11/27)

>  <Rbt.Parameter_File>
/export/apps/rDock/src/rDock_2013.1_src/data/scripts/dock_solv.prm

>  <Rbt.Receptor>
prm/blind_docking_100.prm

>  <SCORE>
46.5441

>  <SCORE.INTER>
23.1602

>  <SCORE.INTER.CONST>
1

>  <SCORE.INTER.POLAR>
0

>  <SCORE.INTER.ROT>
10

>  <SCORE.INTER.SOLV>
37.9585

>  <SCORE.INTER.VDW>
-7.47939

>  <SCORE.INTER.norm>
0.579004

>  <SCORE.INTRA>
9.04055

>  <SCORE.INTRA.DIHEDRAL>
-7.03131

>  <SCORE.INTRA.DIHEDRAL.0>
28.2802

>  <SCORE.INTRA.POLAR>
0

>  <SCORE.INTRA.POLAR.0>
0

>  <SCORE.INTRA.REPUL>
0

>  <SCORE.INTRA.REPUL.0>
0

>  <SCORE.INTRA.SOLV>
6.36854

>  <SCORE.INTRA.SOLV.lig_0>
-101.981

>  <SCORE.INTRA.VDW>
9.37194

>  <SCORE.INTRA.VDW.0>
-5.72964

>  <SCORE.INTRA.norm>
0.226014

>  <SCORE.RESTR>
14.3434

>  <SCORE.RESTR.CAVITY>
14.3434

>  <SCORE.RESTR.norm>
0.358584

>  <SCORE.SYSTEM>
0

>  <SCORE.SYSTEM.CONST>
0

>  <SCORE.SYSTEM.DIHEDRAL>
0

>  <SCORE.SYSTEM.SOLV>
0

>  <SCORE.SYSTEM.norm>
0

>  <SCORE.heavy>
40

>  <SCORE.norm>
1.1636

>  <RMSD>
10.343

$$$$
ligand
 OpenBabel11021811503D
libRbt.so/2013.1/901 2013/11/27
 40 42  0  0  0  0  0  0  0  0999 V2000
    4.6304   -5.7604   20.6073 C   0  0  2  0  0  0  0  0  0  0  0  0
    3.2014   -5.6247   20.5558 O   0  0  0  0  0  0  0  0  0  0  0  0
    5.0427   -7.2801   20.6056 C   0  0  1  0  0  0  0  0  0  0  0  0
    4.5696   -8.0026   21.9006 C   0  0  2  0  0  0  0  0  0  0  0  0
    5.2347   -7.2824   23.1160 C   0  0  2  0  0  0  0  0  0  0  0  0
    4.8378   -7.9440   24.3364 O   0  0  0  0  0  0  0  0  0  0  0  0
    4.7662   -5.7619   23.1192 C   0  0  2  0  0  0  0  0  0  0  0  0
    5.1854   -5.1005   21.8320 O   0  0  0  0  0  0  0  0  0  0  0  0
    5.3802   -4.9645   24.2617 C   0  0  0  0  0  0  0  0  0  0  0  0
    6.0357   -3.7126   23.7681 N   0  0  0  0  0  0  0  0  0  0  0  0
    1.7206   -1.5037   20.9481 C   0  0  2  0  0  0  0  0  0  0  0  0
    1.1029   -0.2444   20.6032 N   0  0  0  0  0  0  0  0  0  0  0  0
    2.9471   -1.7727   19.9858 C   0  0  0  0  0  0  0  0  0  0  0  0
    3.6366   -3.1625   20.3516 C   0  0  2  0  0  0  0  0  0  0  0  0
    4.7987   -3.4059   19.4573 N   0  0  0  0  0  0  0  0  0  0  0  0
    2.5554   -4.3340   20.2265 C   0  0  2  0  0  0  0  0  0  0  0  0
    1.3470   -4.0183   21.2072 C   0  0  2  0  0  0  0  0  0  0  0  0
    0.3762   -5.0625   21.1054 O   0  0  0  0  0  0  0  0  0  0  0  0
    0.6763   -2.6372   20.8359 C   0  0  1  0  0  0  0  0  0  0  0  0
   -0.4102   -2.3540   21.7524 O   0  0  0  0  0  0  0  0  0  0  0  0
   -0.4358   -2.6972   23.0964 C   0  0  2  0  0  0  0  0  0  0  0  0
   -1.2974   -1.6176   23.8429 C   0  0  2  0  0  0  0  0  0  0  0  0
   -2.5717   -1.5680   23.2873 O   0  0  0  0  0  0  0  0  0  0  0  0
   -0.6043   -0.1892   23.8175 C   0  0  1  0  0  0  0  0  0  0  0  0
   -1.4349    0.8202   24.5441 N   0  0  0  0  0  0  0  0  0  0  0  0
    0.8418   -0.3133   24.4691 C   0  0  2  0  0  0  0  0  0  0  0  0
    1.5052    0.9568   24.4813 O   0  0  0  0  0  0  0  0  0  0  0  0
    1.6588   -1.3855   23.6494 C   0  0  2  0  0  0  0  0  0  0  0  0
    0.9420   -2.7289   23.6507 O   0  0  0  0  0  0  0  0  0  0  0  0
    3.0424   -1.5733   24.2245 C   0  0  0  0  0  0  0  0  0  0  0  0
    3.8455   -2.4867   23.4540 O   0  0  0  0  0  0  0  0  0  0  0  0
    4.4662   -7.9093   19.4242 O   0  0  0  0  0  0  0  0  0  0  0  0
    4.9657   -9.3173   21.8517 O   0  0  0  0  0  0  0  0  0  0  0  0
    0.2841   -0.1677   19.4154 C   0  0  0  0  0  0  0  0  0  0  0  0
    0.4492   -1.0081   18.4819 O   0  0  0  0  0  0  0  0  0  0  0  0
   -0.7800    0.9696   19.3344 C   0  0  2  0  0  0  0  0  0  0  0  0
    1.8860    3.4041   17.9729 N   0  0  0  0  0  0  0  0  0  0  0  0
   -0.1070    2.3438   19.0307 C   0  0  0  0  0  0  0  0  0  0  0  0
    0.9270    2.2761   17.8943 C   0  0  0  0  0  0  0  0  0  0  0  0
   -1.4054    1.1344   20.4298 O   0  0  0  0  0  0  0  0  0  0  0  0
  1  2  1  1  0  0  0
  1  3  1  0  0  0  0
  1  8  1  0  0  0  0
  3  4  1  0  0  0  0
  3 32  1  6  0  0  0
  4  5  1  0  0  0  0
  4 33  1  6  0  0  0
  5  6  1  1  0  0  0
  5  7  1  0  0  0  0
  7  8  1  0  0  0  0
  7  9  1  1  0  0  0
  9 10  1  0  0  0  0
 11 12  1  6  0  0  0
 11 13  1  0  0  0  0
 11 19  1  0  0  0  0
 12 34  1  0  0  0  0
 13 14  1  0  0  0  0
 14 15  1  6  0  0  0
 14 16  1  0  0  0  0
 16  2  1  1  0  0  0
 16 17  1  0  0  0  0
 17 18  1  6  0  0  0
 17 19  1  0  0  0  0
 19 20  1  1  0  0  0
 21 20  1  6  0  0  0
 21 22  1  0  0  0  0
 21 29  1  0  0  0  0
 22 23  1  6  0  0  0
 22 24  1  0  0  0  0
 24 25  1  1  0  0  0
 24 26  1  0  0  0  0
 26 27  1  6  0  0  0
 26 28  1  0  0  0  0
 28 29  1  0  0  0  0
 28 30  1  1  0  0  0
 30 31  1  0  0  0  0
 34 35  2  0  0  0  0
 36 34  1  1  0  0  0
 36 38  1  0  0  0  0
 36 40  1  0  0  0  0
 37 39  1  0  0  0  0
 38 39  1  0  0  0  0
M  END
>  <CHROM.1>
-165.31344170,-15.01205372,127.99981949,74.95424678,-85.55747650,149.79329794
-176.52830732,75.59121762,46.16932136,-158.34408021,2.09516313,-2.81042453
21.68360850,-0.43334401,0.92748409,-1.18341079

>  <Name>
ligand

>  <RI>
0

>  <Rbt.Current_Directory>
/home/itssahil/PROJECTS/Mol_Feturizer/New_Systems/rnas/4P20

>  <Rbt.Executable>
rbdock ($Id: //depot/dev/client3/rdock/2013.1/src/exe/rbdock.cxx#4 $)

>  <Rbt.Library>
libRbt.so (2013.1, Build901 2013/11/27)

>  <Rbt.Parameter_File>
/export/apps/rDock/src/rDock_2013.1_src/data/scripts/dock_solv.prm

>  <Rbt.Receptor>
prm/blind_docking_100.prm

>  <SCORE>
45.9788

>  <SCORE.INTER>
23.519

>  <SCORE.INTER.CONST>
1

>  <SCORE.INTER.POLAR>
0

>  <SCORE.INTER.ROT>
10

>  <SCORE.INTER.SOLV>
31.8079

>  <SCORE.INTER.VDW>
-5.18995

>  <SCORE.INTER.norm>
0.587976

>  <SCORE.INTRA>
5.15063

>  <SCORE.INTRA.DIHEDRAL>
-6.11891

>  <SCORE.INTRA.DIHEDRAL.0>
28.2802

>  <SCORE.INTRA.POLAR>
0

>  <SCORE.INTRA.POLAR.0>
0

>  <SCORE.INTRA.REPUL>
0

>  <SCORE.INTRA.REPUL.0>
0

>  <SCORE.INTRA.SOLV>
6.21653

>  <SCORE.INTRA.SOLV.lig_0>
-101.981

>  <SCORE.INTRA.VDW>
5.10182

>  <SCORE.INTRA.VDW.0>
-5.72964

>  <SCORE.INTRA.norm>
0.128766

>  <SCORE.RESTR>
17.3091

>  <SCORE.RESTR.CAVITY>
17.3091

>  <SCORE.RESTR.norm>
0.432727

>  <SCORE.SYSTEM>
0

>  <SCORE.SYSTEM.CONST>
0

>  <SCORE.SYSTEM.DIHEDRAL>
0

>  <SCORE.SYSTEM.SOLV>
0

>  <SCORE.SYSTEM.norm>
0

>  <SCORE.heavy>
40

>  <SCORE.norm>
1.14947

>  <RMSD>
10.353

$$$$
ligand
 OpenBabel11021811503D
libRbt.so/2013.1/901 2013/11/27
 40 42  0  0  0  0  0  0  0  0999 V2000
    4.5177   -5.9456   20.5316 C   0  0  2  0  0  0  0  0  0  0  0  0
    3.0981   -5.7309   20.5694 O   0  0  0  0  0  0  0  0  0  0  0  0
    4.8496   -7.4789   20.6666 C   0  0  1  0  0  0  0  0  0  0  0  0
    4.4431   -8.0313   22.0640 C   0  0  2  0  0  0  0  0  0  0  0  0
    5.2379   -7.2281   23.1416 C   0  0  2  0  0  0  0  0  0  0  0  0
    4.9044   -7.7324   24.4528 O   0  0  0  0  0  0  0  0  0  0  0  0
    4.8501   -5.6904   23.0120 C   0  0  2  0  0  0  0  0  0  0  0  0
    5.2006   -5.1947   21.6331 O   0  0  0  0  0  0  0  0  0  0  0  0
    5.5924   -4.8152   24.0127 C   0  0  0  0  0  0  0  0  0  0  0  0
    5.0502   -4.9829   25.3978 N   0  0  0  0  0  0  0  0  0  0  0  0
    1.8009   -1.5455   20.9302 C   0  0  2  0  0  0  0  0  0  0  0  0
    1.2317   -0.2655   20.5784 N   0  0  0  0  0  0  0  0  0  0  0  0
    2.9985   -1.8791   19.9518 C   0  0  0  0  0  0  0  0  0  0  0  0
    3.6342   -3.2924   20.3250 C   0  0  2  0  0  0  0  0  0  0  0  0
    4.7697   -3.5967   19.4152 N   0  0  0  0  0  0  0  0  0  0  0  0
    2.5022   -4.4180   20.2333 C   0  0  2  0  0  0  0  0  0  0  0  0
    1.3250   -4.0384   21.2292 C   0  0  2  0  0  0  0  0  0  0  0  0
    0.3090   -5.0413   21.1573 O   0  0  0  0  0  0  0  0  0  0  0  0
    0.7075   -2.6347   20.8503 C   0  0  1  0  0  0  0  0  0  0  0  0
   -0.3503   -2.2936   21.7805 O   0  0  0  0  0  0  0  0  0  0  0  0
   -0.3834   -2.6464   23.1218 C   0  0  2  0  0  0  0  0  0  0  0  0
   -1.1922   -1.5360   23.8821 C   0  0  2  0  0  0  0  0  0  0  0  0
   -2.4663   -1.4257   23.3346 O   0  0  0  0  0  0  0  0  0  0  0  0
   -0.4370   -0.1393   23.8638 C   0  0  1  0  0  0  0  0  0  0  0  0
   -1.2181    0.8997   24.6035 N   0  0  0  0  0  0  0  0  0  0  0  0
    1.0059   -0.3324   24.5057 C   0  0  2  0  0  0  0  0  0  0  0  0
    1.7248    0.9071   24.5240 O   0  0  0  0  0  0  0  0  0  0  0  0
    1.7702   -1.4328   23.6726 C   0  0  2  0  0  0  0  0  0  0  0  0
    0.9948   -2.7433   23.6676 O   0  0  0  0  0  0  0  0  0  0  0  0
    3.1474   -1.6861   24.2379 C   0  0  0  0  0  0  0  0  0  0  0  0
    3.9615   -2.5012   23.3743 O   0  0  0  0  0  0  0  0  0  0  0  0
    4.1503   -8.1936   19.6063 O   0  0  0  0  0  0  0  0  0  0  0  0
    4.7656   -9.3651   22.1309 O   0  0  0  0  0  0  0  0  0  0  0  0
    2.1161    0.8465   20.3167 C   0  0  0  0  0  0  0  0  0  0  0  0
    3.2883    0.8450   20.7973 O   0  0  0  0  0  0  0  0  0  0  0  0
    1.5748    2.0200   19.4436 C   0  0  2  0  0  0  0  0  0  0  0  0
    0.2726   -0.8060   18.2659 N   0  0  0  0  0  0  0  0  0  0  0  0
    0.2226    1.6355   18.7673 C   0  0  0  0  0  0  0  0  0  0  0  0
    0.3709    0.5541   17.6840 C   0  0  0  0  0  0  0  0  0  0  0  0
    2.3576    2.3207   18.4872 O   0  0  0  0  0  0  0  0  0  0  0  0
  1  2  1  1  0  0  0
  1  3  1  0  0  0  0
  1  8  1  0  0  0  0
  3  4  1  0  0  0  0
  3 32  1  6  0  0  0
  4  5  1  0  0  0  0
  4 33  1  6  0  0  0
  5  6  1  1  0  0  0
  5  7  1  0  0  0  0
  7  8  1  0  0  0  0
  7  9  1  1  0  0  0
  9 10  1  0  0  0  0
 11 12  1  6  0  0  0
 11 13  1  0  0  0  0
 11 19  1  0  0  0  0
 12 34  1  0  0  0  0
 13 14  1  0  0  0  0
 14 15  1  6  0  0  0
 14 16  1  0  0  0  0
 16  2  1  1  0  0  0
 16 17  1  0  0  0  0
 17 18  1  6  0  0  0
 17 19  1  0  0  0  0
 19 20  1  1  0  0  0
 21 20  1  6  0  0  0
 21 22  1  0  0  0  0
 21 29  1  0  0  0  0
 22 23  1  6  0  0  0
 22 24  1  0  0  0  0
 24 25  1  1  0  0  0
 24 26  1  0  0  0  0
 26 27  1  6  0  0  0
 26 28  1  0  0  0  0
 28 29  1  0  0  0  0
 28 30  1  1  0  0  0
 30 31  1  0  0  0  0
 34 35  2  0  0  0  0
 36 34  1  6  0  0  0
 36 38  1  0  0  0  0
 36 40  1  0  0  0  0
 37 39  1  0  0  0  0
 38 39  1  0  0  0  0
M  END
>  <CHROM.1>
-169.39080263,-18.30641832,-74.05084085,-45.71744264,-87.22736142,150.80994781
-169.60233977,-11.19308944,-68.83033225,88.00873033,2.32607138,-2.89450049
21.76395982,-0.48794834,0.99495885,-1.13368627

>  <Name>
ligand

>  <RI>
0

>  <Rbt.Current_Directory>
/home/itssahil/PROJECTS/Mol_Feturizer/New_Systems/rnas/4P20

>  <Rbt.Executable>
rbdock ($Id: //depot/dev/client3/rdock/2013.1/src/exe/rbdock.cxx#4 $)

>  <Rbt.Library>
libRbt.so (2013.1, Build901 2013/11/27)

>  <Rbt.Parameter_File>
/export/apps/rDock/src/rDock_2013.1_src/data/scripts/dock_solv.prm

>  <Rbt.Receptor>
prm/blind_docking_100.prm

>  <SCORE>
44.3897

>  <SCORE.INTER>
24.1924

>  <SCORE.INTER.CONST>
1

>  <SCORE.INTER.POLAR>
0

>  <SCORE.INTER.ROT>
10

>  <SCORE.INTER.SOLV>
37.5153

>  <SCORE.INTER.VDW>
-6.64353

>  <SCORE.INTER.norm>
0.604809

>  <SCORE.INTRA>
6.14247

>  <SCORE.INTRA.DIHEDRAL>
-9.23185

>  <SCORE.INTRA.DIHEDRAL.0>
28.2802

>  <SCORE.INTRA.POLAR>
0

>  <SCORE.INTRA.POLAR.0>
0

>  <SCORE.INTRA.REPUL>
0

>  <SCORE.INTRA.REPUL.0>
0

>  <SCORE.INTRA.SOLV>
10.8372

>  <SCORE.INTRA.SOLV.lig_0>
-101.981

>  <SCORE.INTRA.VDW>
5.33981

>  <SCORE.INTRA.VDW.0>
-5.72964

>  <SCORE.INTRA.norm>
0.153562

>  <SCORE.RESTR>
14.0549

>  <SCORE.RESTR.CAVITY>
14.0549

>  <SCORE.RESTR.norm>
0.351372

>  <SCORE.SYSTEM>
0

>  <SCORE.SYSTEM.CONST>
0

>  <SCORE.SYSTEM.DIHEDRAL>
0

>  <SCORE.SYSTEM.SOLV>
0

>  <SCORE.SYSTEM.norm>
0

>  <SCORE.heavy>
40

>  <SCORE.norm>
1.10974

>  <RMSD>
10.373

$$$$
ligand
 OpenBabel11021811513D
libRbt.so/2013.1/901 2013/11/27
 40 42  0  0  0  0  0  0  0  0999 V2000
    0.8012  -13.7782   13.9214 C   0  0  2  0  0  0  0  0  0  0  0  0
    1.2585  -12.4941   14.3741 O   0  0  0  0  0  0  0  0  0  0  0  0
   -0.6201  -14.1014   14.5172 C   0  0  1  0  0  0  0  0  0  0  0  0
   -0.5678  -14.2670   16.0640 C   0  0  2  0  0  0  0  0  0  0  0  0
    0.4113  -15.4408   16.3830 C   0  0  2  0  0  0  0  0  0  0  0  0
    0.4648  -15.6406   17.8119 O   0  0  0  0  0  0  0  0  0  0  0  0
    1.8482  -15.0686   15.8101 C   0  0  2  0  0  0  0  0  0  0  0  0
    1.7600  -14.8574   14.3208 O   0  0  0  0  0  0  0  0  0  0  0  0
    2.8756  -16.1654   16.0542 C   0  0  0  0  0  0  0  0  0  0  0  0
    4.1687  -15.8717   15.3596 N   0  0  0  0  0  0  0  0  0  0  0  0
    5.2427  -12.0883   12.5599 C   0  0  2  0  0  0  0  0  0  0  0  0
    6.4377  -11.4721   12.0318 N   0  0  0  0  0  0  0  0  0  0  0  0
    3.9863  -11.6041   11.7293 C   0  0  0  0  0  0  0  0  0  0  0  0
    2.6583  -12.2726   12.3041 C   0  0  2  0  0  0  0  0  0  0  0  0
    1.4809  -11.8295   11.5123 N   0  0  0  0  0  0  0  0  0  0  0  0
    2.4984  -11.8812   13.8462 C   0  0  2  0  0  0  0  0  0  0  0  0
    3.7812  -12.3854   14.6349 C   0  0  2  0  0  0  0  0  0  0  0  0
    3.6460  -12.0434   16.0162 O   0  0  0  0  0  0  0  0  0  0  0  0
    5.0893  -11.7185   14.0525 C   0  0  1  0  0  0  0  0  0  0  0  0
    6.2519  -12.2045   14.7686 O   0  0  0  0  0  0  0  0  0  0  0  0
    7.5588  -11.7943   14.5486 C   0  0  2  0  0  0  0  0  0  0  0  0
    8.4840  -12.6370   15.4968 C   0  0  2  0  0  0  0  0  0  0  0  0
    8.3072  -13.9929   15.2413 O   0  0  0  0  0  0  0  0  0  0  0  0
    8.2218  -12.3024   17.0267 C   0  0  1  0  0  0  0  0  0  0  0  0
    9.1214  -13.1061   17.9108 N   0  0  0  0  0  0  0  0  0  0  0  0
    8.4448  -10.7433   17.2523 C   0  0  2  0  0  0  0  0  0  0  0  0
    8.2318  -10.3923   18.6252 O   0  0  0  0  0  0  0  0  0  0  0  0
    7.4617   -9.9637   16.2960 C   0  0  2  0  0  0  0  0  0  0  0  0
    7.7049  -10.3454   14.8421 O   0  0  0  0  0  0  0  0  0  0  0  0
    7.6308   -8.4700   16.4402 C   0  0  0  0  0  0  0  0  0  0  0  0
    6.7418   -7.7250   15.5873 O   0  0  0  0  0  0  0  0  0  0  0  0
   -1.5282  -13.0242   14.1443 O   0  0  0  0  0  0  0  0  0  0  0  0
   -1.8278  -14.5592   16.5273 O   0  0  0  0  0  0  0  0  0  0  0  0
    7.1253  -12.1066   10.9311 C   0  0  0  0  0  0  0  0  0  0  0  0
    6.9721  -13.3470   10.7244 O   0  0  0  0  0  0  0  0  0  0  0  0
    8.0446  -11.2198   10.0361 C   0  0  2  0  0  0  0  0  0  0  0  0
    8.8673   -8.3182    9.3733 N   0  0  0  0  0  0  0  0  0  0  0  0
    7.2066  -10.1726    9.2395 C   0  0  0  0  0  0  0  0  0  0  0  0
    8.0715   -9.1701    8.4573 C   0  0  0  0  0  0  0  0  0  0  0  0
    8.6687  -11.8934    9.1559 O   0  0  0  0  0  0  0  0  0  0  0  0
  1  2  1  1  0  0  0
  1  3  1  0  0  0  0
  1  8  1  0  0  0  0
  3  4  1  0  0  0  0
  3 32  1  1  0  0  0
  4  5  1  0  0  0  0
  4 33  1  6  0  0  0
  5  6  1  1  0  0  0
  5  7  1  0  0  0  0
  7  8  1  0  0  0  0
  7  9  1  6  0  0  0
  9 10  1  0  0  0  0
 11 12  1  6  0  0  0
 11 13  1  0  0  0  0
 11 19  1  0  0  0  0
 12 34  1  0  0  0  0
 13 14  1  0  0  0  0
 14 15  1  6  0  0  0
 14 16  1  0  0  0  0
 16  2  1  1  0  0  0
 16 17  1  0  0  0  0
 17 18  1  1  0  0  0
 17 19  1  0  0  0  0
 19 20  1  1  0  0  0
 21 20  1  1  0  0  0
 21 22  1  0  0  0  0
 21 29  1  0  0  0  0
 22 23  1  1  0  0  0
 22 24  1  0  0  0  0
 24 25  1  1  0  0  0
 24 26  1  0  0  0  0
 26 27  1  1  0  0  0
 26 28  1  0  0  0  0
 28 29  1  0  0  0  0
 28 30  1  6  0  0  0
 30 31  1  0  0  0  0
 34 35  2  0  0  0  0
 36 34  1  6  0  0  0
 36 38  1  0  0  0  0
 36 40  1  0  0  0  0
 37 39  1  0  0  0  0
 38 39  1  0  0  0  0
M  END
>  <CHROM.1>
-173.18112696,34.65801004,172.82358076,-86.53279209,62.32496939,-177.14007587
-179.61217046,-66.49743689,173.71219051,-65.04068611,4.80902106,-12.31274506
14.17342629,2.73225940,0.39271343,1.76609728

>  <Name>
ligand

>  <RI>
0

>  <Rbt.Current_Directory>
/home/itssahil/PROJECTS/Mol_Feturizer/New_Systems/rnas/4P20

>  <Rbt.Executable>
rbdock ($Id: //depot/dev/client3/rdock/2013.1/src/exe/rbdock.cxx#4 $)

>  <Rbt.Library>
libRbt.so (2013.1, Build901 2013/11/27)

>  <Rbt.Parameter_File>
/export/apps/rDock/src/rDock_2013.1_src/data/scripts/dock_solv.prm

>  <Rbt.Receptor>
prm/pocket_docking_8.prm

>  <SCORE>
-12.5508

>  <SCORE.INTER>
-3.18901

>  <SCORE.INTER.CONST>
1

>  <SCORE.INTER.POLAR>
0

>  <SCORE.INTER.ROT>
10

>  <SCORE.INTER.SOLV>
17.177

>  <SCORE.INTER.VDW>
-18.1184

>  <SCORE.INTER.norm>
-0.0797252

>  <SCORE.INTRA>
-9.36178

>  <SCORE.INTRA.DIHEDRAL>
-23.4775

>  <SCORE.INTRA.DIHEDRAL.0>
28.2802

>  <SCORE.INTRA.POLAR>
0

>  <SCORE.INTRA.POLAR.0>
0

>  <SCORE.INTRA.REPUL>
0.0500109

>  <SCORE.INTRA.REPUL.0>
0

>  <SCORE.INTRA.SOLV>
1.18076

>  <SCORE.INTRA.SOLV.lig_0>
-101.981

>  <SCORE.INTRA.VDW>
1.53653

>  <SCORE.INTRA.VDW.0>
-5.72964

>  <SCORE.INTRA.norm>
-0.234044

>  <SCORE.RESTR>
0

>  <SCORE.RESTR.CAVITY>
0

>  <SCORE.RESTR.norm>
0

>  <SCORE.SYSTEM>
0

>  <SCORE.SYSTEM.CONST>
0

>  <SCORE.SYSTEM.DIHEDRAL>
0

>  <SCORE.SYSTEM.SOLV>
0

>  <SCORE.SYSTEM.norm>
0

>  <SCORE.heavy>
40

>  <SCORE.norm>
-0.31377

>  <RMSD>
10.383

$$$$
ligand
 OpenBabel11021811503D
libRbt.so/2013.1/901 2013/11/27
 40 42  0  0  0  0  0  0  0  0999 V2000
    4.5301   -5.9875   20.4983 C   0  0  2  0  0  0  0  0  0  0  0  0
    3.1082   -5.7859   20.5246 O   0  0  0  0  0  0  0  0  0  0  0  0
    4.8752   -7.5172   20.6405 C   0  0  1  0  0  0  0  0  0  0  0  0
    4.4632   -8.0692   22.0363 C   0  0  2  0  0  0  0  0  0  0  0  0
    5.2422   -7.2554   23.1176 C   0  0  2  0  0  0  0  0  0  0  0  0
    4.9035   -7.7590   24.4276 O   0  0  0  0  0  0  0  0  0  0  0  0
    4.8412   -5.7219   22.9804 C   0  0  2  0  0  0  0  0  0  0  0  0
    5.1975   -5.2269   21.6026 O   0  0  0  0  0  0  0  0  0  0  0  0
    5.5675   -4.8368   23.9840 C   0  0  0  0  0  0  0  0  0  0  0  0
    4.9614   -4.9413   25.3486 N   0  0  0  0  0  0  0  0  0  0  0  0
    1.7710   -1.6202   20.9585 C   0  0  2  0  0  0  0  0  0  0  0  0
    1.1942   -0.3379   20.6274 N   0  0  0  0  0  0  0  0  0  0  0  0
    2.9814   -1.9231   19.9859 C   0  0  0  0  0  0  0  0  0  0  0  0
    3.6255   -3.3384   20.3364 C   0  0  2  0  0  0  0  0  0  0  0  0
    4.7729   -3.6140   19.4324 N   0  0  0  0  0  0  0  0  0  0  0  0
    2.5044   -4.4715   20.2096 C   0  0  2  0  0  0  0  0  0  0  0  0
    1.3138   -4.1226   21.2008 C   0  0  2  0  0  0  0  0  0  0  0  0
    0.3074   -5.1325   21.0975 O   0  0  0  0  0  0  0  0  0  0  0  0
    0.6880   -2.7167   20.8446 C   0  0  1  0  0  0  0  0  0  0  0  0
   -0.3823   -2.4040   21.7705 O   0  0  0  0  0  0  0  0  0  0  0  0
   -0.3942   -2.7245   23.1204 C   0  0  2  0  0  0  0  0  0  0  0  0
   -1.2643   -1.6432   23.8545 C   0  0  2  0  0  0  0  0  0  0  0  0
   -2.5430   -1.6192   23.3072 O   0  0  0  0  0  0  0  0  0  0  0  0
   -0.5897   -0.2068   23.7999 C   0  0  1  0  0  0  0  0  0  0  0  0
   -1.4281    0.8043   24.5151 N   0  0  0  0  0  0  0  0  0  0  0  0
    0.8624   -0.3015   24.4432 C   0  0  2  0  0  0  0  0  0  0  0  0
    1.5095    0.9770   24.4291 O   0  0  0  0  0  0  0  0  0  0  0  0
    1.6873   -1.3771   23.6361 C   0  0  2  0  0  0  0  0  0  0  0  0
    0.9877   -2.7293   23.6653 O   0  0  0  0  0  0  0  0  0  0  0  0
    3.0772   -1.5376   24.2044 C   0  0  0  0  0  0  0  0  0  0  0  0
    3.8993   -2.4226   23.4211 O   0  0  0  0  0  0  0  0  0  0  0  0
    4.1908   -8.2414   19.5770 O   0  0  0  0  0  0  0  0  0  0  0  0
    4.7977   -9.3998   22.1097 O   0  0  0  0  0  0  0  0  0  0  0  0
    2.0727    0.7750   20.3506 C   0  0  0  0  0  0  0  0  0  0  0  0
    3.2561    0.7703   20.8029 O   0  0  0  0  0  0  0  0  0  0  0  0
    1.5114    1.9535   19.4970 C   0  0  2  0  0  0  0  0  0  0  0  0
    0.3536   -0.5427   18.1920 N   0  0  0  0  0  0  0  0  0  0  0  0
    1.5743    1.6200   17.9744 C   0  0  0  0  0  0  0  0  0  0  0  0
    0.3926    0.7629   17.4907 C   0  0  0  0  0  0  0  0  0  0  0  0
    2.1845    3.0237   19.6368 O   0  0  0  0  0  0  0  0  0  0  0  0
  1  2  1  1  0  0  0
  1  3  1  0  0  0  0
  1  8  1  0  0  0  0
  3  4  1  0  0  0  0
  3 32  1  6  0  0  0
  4  5  1  0  0  0  0
  4 33  1  6  0  0  0
  5  6  1  1  0  0  0
  5  7  1  0  0  0  0
  7  8  1  0  0  0  0
  7  9  1  1  0  0  0
  9 10  1  0  0  0  0
 11 12  1  6  0  0  0
 11 13  1  0  0  0  0
 11 19  1  0  0  0  0
 12 34  1  0  0  0  0
 13 14  1  0  0  0  0
 14 15  1  6  0  0  0
 14 16  1  0  0  0  0
 16  2  1  1  0  0  0
 16 17  1  0  0  0  0
 17 18  1  6  0  0  0
 17 19  1  0  0  0  0
 19 20  1  1  0  0  0
 21 20  1  6  0  0  0
 21 22  1  0  0  0  0
 21 29  1  0  0  0  0
 22 23  1  6  0  0  0
 22 24  1  0  0  0  0
 24 25  1  1  0  0  0
 24 26  1  0  0  0  0
 26 27  1  6  0  0  0
 26 28  1  0  0  0  0
 28 29  1  0  0  0  0
 28 30  1  1  0  0  0
 30 31  1  0  0  0  0
 34 35  2  0  0  0  0
 36 34  1  1  0  0  0
 36 38  1  0  0  0  0
 36 40  1  0  0  0  0
 37 39  1  0  0  0  0
 38 39  1  0  0  0  0
M  END
>  <CHROM.1>
-170.78574687,-18.25630893,-77.59978988,-43.50075338,-83.67270686,151.31520359
-174.77399573,-81.58401873,82.36860054,-60.80450999,2.32303806,-2.89780571
21.75332564,-0.57464997,0.98013784,-1.02121794

>  <Name>
ligand

>  <RI>
0

>  <Rbt.Current_Directory>
/home/itssahil/PROJECTS/Mol_Feturizer/New_Systems/rnas/4P20

>  <Rbt.Executable>
rbdock ($Id: //depot/dev/client3/rdock/2013.1/src/exe/rbdock.cxx#4 $)

>  <Rbt.Library>
libRbt.so (2013.1, Build901 2013/11/27)

>  <Rbt.Parameter_File>
/export/apps/rDock/src/rDock_2013.1_src/data/scripts/dock_solv.prm

>  <Rbt.Receptor>
prm/blind_docking_100.prm

>  <SCORE>
41.6557

>  <SCORE.INTER>
23.6089

>  <SCORE.INTER.CONST>
1

>  <SCORE.INTER.POLAR>
0

>  <SCORE.INTER.ROT>
10

>  <SCORE.INTER.SOLV>
36.7569

>  <SCORE.INTER.VDW>
-6.7797

>  <SCORE.INTER.norm>
0.590222

>  <SCORE.INTRA>
3.73446

>  <SCORE.INTRA.DIHEDRAL>
-12.2219

>  <SCORE.INTRA.DIHEDRAL.0>
28.2802

>  <SCORE.INTRA.POLAR>
0

>  <SCORE.INTRA.POLAR.0>
0

>  <SCORE.INTRA.REPUL>
0

>  <SCORE.INTRA.REPUL.0>
0

>  <SCORE.INTRA.SOLV>
10.1875

>  <SCORE.INTRA.SOLV.lig_0>
-101.981

>  <SCORE.INTRA.VDW>
4.75166

>  <SCORE.INTRA.VDW.0>
-5.72964

>  <SCORE.INTRA.norm>
0.0933615

>  <SCORE.RESTR>
14.3123

>  <SCORE.RESTR.CAVITY>
14.3123

>  <SCORE.RESTR.norm>
0.357808

>  <SCORE.SYSTEM>
0

>  <SCORE.SYSTEM.CONST>
0

>  <SCORE.SYSTEM.DIHEDRAL>
0

>  <SCORE.SYSTEM.SOLV>
0

>  <SCORE.SYSTEM.norm>
0

>  <SCORE.heavy>
40

>  <SCORE.norm>
1.04139

>  <RMSD>
10.393

$$$$
ligand
 OpenBabel11021811503D
libRbt.so/2013.1/901 2013/11/27
 40 42  0  0  0  0  0  0  0  0999 V2000
    4.5688   -5.6173   20.3230 C   0  0  2  0  0  0  0  0  0  0  0  0
    3.1413   -5.4804   20.4034 O   0  0  0  0  0  0  0  0  0  0  0  0
    4.9697   -7.1262   20.1188 C   0  0  1  0  0  0  0  0  0  0  0  0
    4.5986   -7.9896   21.3597 C   0  0  2  0  0  0  0  0  0  0  0  0
    5.3648   -7.4075   22.5895 C   0  0  2  0  0  0  0  0  0  0  0  0
    5.0640   -8.2018   23.7570 O   0  0  0  0  0  0  0  0  0  0  0  0
    4.9079   -5.8980   22.7997 C   0  0  2  0  0  0  0  0  0  0  0  0
    5.2256   -5.0963   21.5642 O   0  0  0  0  0  0  0  0  0  0  0  0
    5.6178   -5.2312   23.9700 C   0  0  0  0  0  0  0  0  0  0  0  0
    4.8231   -5.3469   25.2332 N   0  0  0  0  0  0  0  0  0  0  0  0
    1.6258   -1.3885   20.9415 C   0  0  2  0  0  0  0  0  0  0  0  0
    0.9806   -0.1300   20.6474 N   0  0  0  0  0  0  0  0  0  0  0  0
    2.8196   -1.6204   19.9296 C   0  0  0  0  0  0  0  0  0  0  0  0
    3.5387   -3.0089   20.2389 C   0  0  2  0  0  0  0  0  0  0  0  0
    4.6703   -3.2175   19.2979 N   0  0  0  0  0  0  0  0  0  0  0  0
    2.4681   -4.1913   20.1267 C   0  0  2  0  0  0  0  0  0  0  0  0
    1.2924   -3.9129   21.1574 C   0  0  2  0  0  0  0  0  0  0  0  0
    0.3313   -4.9671   21.0673 O   0  0  0  0  0  0  0  0  0  0  0  0
    0.5919   -2.5327   20.8416 C   0  0  1  0  0  0  0  0  0  0  0  0
   -0.4639   -2.2839   21.8029 O   0  0  0  0  0  0  0  0  0  0  0  0
   -0.4260   -2.6351   23.1446 C   0  0  2  0  0  0  0  0  0  0  0  0
   -0.9320   -1.3994   23.9704 C   0  0  2  0  0  0  0  0  0  0  0  0
   -2.2120   -1.0486   23.5534 O   0  0  0  0  0  0  0  0  0  0  0  0
    0.0648   -0.1683   23.8605 C   0  0  1  0  0  0  0  0  0  0  0  0
   -0.4296    0.9924   24.6638 N   0  0  0  0  0  0  0  0  0  0  0  0
    1.5038   -0.6326   24.3552 C   0  0  2  0  0  0  0  0  0  0  0  0
    2.4395    0.4506   24.2871 O   0  0  0  0  0  0  0  0  0  0  0  0
    1.9608   -1.8497   23.4614 C   0  0  2  0  0  0  0  0  0  0  0  0
    0.9580   -2.9921   23.5492 O   0  0  0  0  0  0  0  0  0  0  0  0
    3.3166   -2.3603   23.8872 C   0  0  0  0  0  0  0  0  0  0  0  0
    3.2870   -3.0134   25.1699 O   0  0  0  0  0  0  0  0  0  0  0  0
    4.2951   -7.6215   18.9257 O   0  0  0  0  0  0  0  0  0  0  0  0
    4.9808   -9.2897   21.1329 O   0  0  0  0  0  0  0  0  0  0  0  0
    1.7979    1.0346   20.3970 C   0  0  0  0  0  0  0  0  0  0  0  0
    2.9824    1.0801   20.8440 O   0  0  0  0  0  0  0  0  0  0  0  0
    1.1706    2.2042   19.5779 C   0  0  2  0  0  0  0  0  0  0  0  0
    0.5035    0.4188   17.3495 N   0  0  0  0  0  0  0  0  0  0  0  0
   -0.3077    1.8872   19.1936 C   0  0  0  0  0  0  0  0  0  0  0  0
   -0.4705    0.5454   18.4601 C   0  0  0  0  0  0  0  0  0  0  0  0
    1.7706    2.4068   18.4747 O   0  0  0  0  0  0  0  0  0  0  0  0
  1  2  1  1  0  0  0
  1  3  1  0  0  0  0
  1  8  1  0  0  0  0
  3  4  1  0  0  0  0
  3 32  1  6  0  0  0
  4  5  1  0  0  0  0
  4 33  1  6  0  0  0
  5  6  1  1  0  0  0
  5  7  1  0  0  0  0
  7  8  1  0  0  0  0
  7  9  1  1  0  0  0
  9 10  1  0  0  0  0
 11 12  1  6  0  0  0
 11 13  1  0  0  0  0
 11 19  1  0  0  0  0
 12 34  1  0  0  0  0
 13 14  1  0  0  0  0
 14 15  1  6  0  0  0
 14 16  1  0  0  0  0
 16  2  1  1  0  0  0
 16 17  1  0  0  0  0
 17 18  1  6  0  0  0
 17 19  1  0  0  0  0
 19 20  1  1  0  0  0
 21 20  1  6  0  0  0
 21 22  1  0  0  0  0
 21 29  1  0  0  0  0
 22 23  1  6  0  0  0
 22 24  1  0  0  0  0
 24 25  1  1  0  0  0
 24 26  1  0  0  0  0
 26 27  1  6  0  0  0
 26 28  1  0  0  0  0
 28 29  1  0  0  0  0
 28 30  1  1  0  0  0
 30 31  1  0  0  0  0
 34 35  2  0  0  0  0
 36 34  1  6  0  0  0
 36 38  1  0  0  0  0
 36 40  1  0  0  0  0
 37 39  1  0  0  0  0
 38 39  1  0  0  0  0
M  END
>  <CHROM.1>
-158.50606646,-18.73179901,-93.32869719,-45.08684918,-84.30525777,134.44890887
69.56497190,1.32512279,-54.11540590,-48.81395879,2.31720605,-2.84759125,21.67136219
-0.33075208,1.02323205,-1.29194817

>  <Name>
ligand

>  <RI>
0

>  <Rbt.Current_Directory>
/home/itssahil/PROJECTS/Mol_Feturizer/New_Systems/rnas/4P20

>  <Rbt.Executable>
rbdock ($Id: //depot/dev/client3/rdock/2013.1/src/exe/rbdock.cxx#4 $)

>  <Rbt.Library>
libRbt.so (2013.1, Build901 2013/11/27)

>  <Rbt.Parameter_File>
/export/apps/rDock/src/rDock_2013.1_src/data/scripts/dock_solv.prm

>  <Rbt.Receptor>
prm/blind_docking_100.prm

>  <SCORE>
42.9673

>  <SCORE.INTER>
16.5261

>  <SCORE.INTER.CONST>
1

>  <SCORE.INTER.POLAR>
0

>  <SCORE.INTER.ROT>
10

>  <SCORE.INTER.SOLV>
35.8116

>  <SCORE.INTER.VDW>
-11.1864

>  <SCORE.INTER.norm>
0.413153

>  <SCORE.INTRA>
11.3378

>  <SCORE.INTRA.DIHEDRAL>
-5.23019

>  <SCORE.INTRA.DIHEDRAL.0>
28.2802

>  <SCORE.INTRA.POLAR>
0

>  <SCORE.INTRA.POLAR.0>
0

>  <SCORE.INTRA.REPUL>
0

>  <SCORE.INTRA.REPUL.0>
0

>  <SCORE.INTRA.SOLV>
9.0999

>  <SCORE.INTRA.SOLV.lig_0>
-101.981

>  <SCORE.INTRA.VDW>
9.40298

>  <SCORE.INTRA.VDW.0>
-5.72964

>  <SCORE.INTRA.norm>
0.283446

>  <SCORE.RESTR>
15.1034

>  <SCORE.RESTR.CAVITY>
15.1034

>  <SCORE.RESTR.norm>
0.377585

>  <SCORE.SYSTEM>
0

>  <SCORE.SYSTEM.CONST>
0

>  <SCORE.SYSTEM.DIHEDRAL>
0

>  <SCORE.SYSTEM.SOLV>
0

>  <SCORE.SYSTEM.norm>
0

>  <SCORE.heavy>
40

>  <SCORE.norm>
1.07418

>  <RMSD>
10.394

$$$$
ligand
 OpenBabel11021811503D
libRbt.so/2013.1/901 2013/11/27
 40 42  0  0  0  0  0  0  0  0999 V2000
    5.2227   -6.1863   20.3147 C   0  0  2  0  0  0  0  0  0  0  0  0
    4.0185   -5.5763   19.8239 O   0  0  0  0  0  0  0  0  0  0  0  0
    5.1020   -7.7558   20.2806 C   0  0  1  0  0  0  0  0  0  0  0  0
    4.0149   -8.2676   21.2701 C   0  0  2  0  0  0  0  0  0  0  0  0
    4.4237   -7.8064   22.7048 C   0  0  2  0  0  0  0  0  0  0  0  0
    3.4487   -8.2870   23.6549 O   0  0  0  0  0  0  0  0  0  0  0  0
    4.4944   -6.2170   22.7223 C   0  0  2  0  0  0  0  0  0  0  0  0
    5.5117   -5.7445   21.7164 O   0  0  0  0  0  0  0  0  0  0  0  0
    4.9074   -5.6663   24.0804 C   0  0  0  0  0  0  0  0  0  0  0  0
    4.9266   -4.1696   24.0839 N   0  0  0  0  0  0  0  0  0  0  0  0
    0.6601   -3.0925   21.1957 C   0  0  2  0  0  0  0  0  0  0  0  0
   -0.2348   -2.3915   22.0869 N   0  0  0  0  0  0  0  0  0  0  0  0
    0.6369   -4.6385   21.5306 C   0  0  0  0  0  0  0  0  0  0  0  0
    1.6242   -5.4253   20.5575 C   0  0  2  0  0  0  0  0  0  0  0  0
    1.5888   -6.8796   20.8626 N   0  0  0  0  0  0  0  0  0  0  0  0
    3.1019   -4.8362   20.7204 C   0  0  2  0  0  0  0  0  0  0  0  0
    3.0728   -3.2862   20.3761 C   0  0  2  0  0  0  0  0  0  0  0  0
    4.3908   -2.7509   20.5153 O   0  0  0  0  0  0  0  0  0  0  0  0
    2.0879   -2.5203   21.3449 C   0  0  1  0  0  0  0  0  0  0  0  0
    2.0568   -1.1118   21.0043 O   0  0  0  0  0  0  0  0  0  0  0  0
    2.9636   -0.4669   20.1757 C   0  0  2  0  0  0  0  0  0  0  0  0
    3.4007    0.8584   20.8952 C   0  0  2  0  0  0  0  0  0  0  0  0
    3.9447    0.5591   22.1400 O   0  0  0  0  0  0  0  0  0  0  0  0
    2.1948    1.8831   21.0273 C   0  0  1  0  0  0  0  0  0  0  0  0
    2.6358    3.1421   21.7035 N   0  0  0  0  0  0  0  0  0  0  0  0
    1.6230    2.1864   19.5739 C   0  0  2  0  0  0  0  0  0  0  0  0
    0.5374    3.1195   19.6388 O   0  0  0  0  0  0  0  0  0  0  0  0
    1.1735    0.8189   18.9283 C   0  0  2  0  0  0  0  0  0  0  0  0
    2.3396   -0.1581   18.8635 O   0  0  0  0  0  0  0  0  0  0  0  0
    0.6355    1.0255   17.5325 C   0  0  0  0  0  0  0  0  0  0  0  0
   -0.0797   -0.1215   17.0369 O   0  0  0  0  0  0  0  0  0  0  0  0
    4.7892   -8.1612   18.9160 O   0  0  0  0  0  0  0  0  0  0  0  0
    3.9613   -9.6391   21.2085 O   0  0  0  0  0  0  0  0  0  0  0  0
    0.3087   -1.7411   23.2567 C   0  0  0  0  0  0  0  0  0  0  0  0
    1.4178   -2.1263   23.7328 O   0  0  0  0  0  0  0  0  0  0  0  0
   -0.5126   -0.5780   23.8932 C   0  0  2  0  0  0  0  0  0  0  0  0
   -1.0689    0.7929   26.6856 N   0  0  0  0  0  0  0  0  0  0  0  0
    0.4093    0.3674   24.7238 C   0  0  0  0  0  0  0  0  0  0  0  0
   -0.3693    1.4156   25.5363 C   0  0  0  0  0  0  0  0  0  0  0  0
   -1.3960   -0.9916   24.7096 O   0  0  0  0  0  0  0  0  0  0  0  0
  1  2  1  1  0  0  0
  1  3  1  0  0  0  0
  1  8  1  0  0  0  0
  3  4  1  0  0  0  0
  3 32  1  6  0  0  0
  4  5  1  0  0  0  0
  4 33  1  1  0  0  0
  5  6  1  1  0  0  0
  5  7  1  0  0  0  0
  7  8  1  0  0  0  0
  7  9  1  1  0  0  0
  9 10  1  0  0  0  0
 11 12  1  1  0  0  0
 11 13  1  0  0  0  0
 11 19  1  0  0  0  0
 12 34  1  0  0  0  0
 13 14  1  0  0  0  0
 14 15  1  1  0  0  0
 14 16  1  0  0  0  0
 16  2  1  6  0  0  0
 16 17  1  0  0  0  0
 17 18  1  1  0  0  0
 17 19  1  0  0  0  0
 19 20  1  6  0  0  0
 21 20  1  1  0  0  0
 21 22  1  0  0  0  0
 21 29  1  0  0  0  0
 22 23  1  1  0  0  0
 22 24  1  0  0  0  0
 24 25  1  6  0  0  0
 24 26  1  0  0  0  0
 26 27  1  1  0  0  0
 26 28  1  0  0  0  0
 28 29  1  0  0  0  0
 28 30  1  6  0  0  0
 30 31  1  0  0  0  0
 34 35  2  0  0  0  0
 36 34  1  1  0  0  0
 36 38  1  0  0  0  0
 36 40  1  0  0  0  0
 37 39  1  0  0  0  0
 38 39  1  0  0  0  0
M  END
>  <CHROM.1>
110.53324515,-126.79001381,-178.27955899,97.80133668,-133.72467020,-133.21363754
-165.70554685,-156.86721425,-171.83579642,72.05706882,2.35923736,-2.77051326
21.51029479,-0.63053090,1.09984983,-0.86297550

>  <Name>
ligand

>  <RI>
0

>  <Rbt.Current_Directory>
/home/itssahil/PROJECTS/Mol_Feturizer/New_Systems/rnas/4P20

>  <Rbt.Executable>
rbdock ($Id: //depot/dev/client3/rdock/2013.1/src/exe/rbdock.cxx#4 $)

>  <Rbt.Library>
libRbt.so (2013.1, Build901 2013/11/27)

>  <Rbt.Parameter_File>
/export/apps/rDock/src/rDock_2013.1_src/data/scripts/dock_solv.prm

>  <Rbt.Receptor>
prm/blind_docking_100.prm

>  <SCORE>
36.5522

>  <SCORE.INTER>
3.17287

>  <SCORE.INTER.CONST>
1

>  <SCORE.INTER.POLAR>
0

>  <SCORE.INTER.ROT>
10

>  <SCORE.INTER.SOLV>
25.8321

>  <SCORE.INTER.VDW>
-16.7621

>  <SCORE.INTER.norm>
0.0793219

>  <SCORE.INTRA>
10.2359

>  <SCORE.INTRA.DIHEDRAL>
1.811

>  <SCORE.INTRA.DIHEDRAL.0>
28.2802

>  <SCORE.INTRA.POLAR>
0

>  <SCORE.INTRA.POLAR.0>
0

>  <SCORE.INTRA.REPUL>
0

>  <SCORE.INTRA.REPUL.0>
0

>  <SCORE.INTRA.SOLV>
6.37704

>  <SCORE.INTRA.SOLV.lig_0>
-101.981

>  <SCORE.INTRA.VDW>
6.14187

>  <SCORE.INTRA.VDW.0>
-5.72964

>  <SCORE.INTRA.norm>
0.255897

>  <SCORE.RESTR>
23.1434

>  <SCORE.RESTR.CAVITY>
23.1434

>  <SCORE.RESTR.norm>
0.578585

>  <SCORE.SYSTEM>
0

>  <SCORE.SYSTEM.CONST>
0

>  <SCORE.SYSTEM.DIHEDRAL>
0

>  <SCORE.SYSTEM.SOLV>
0

>  <SCORE.SYSTEM.norm>
0

>  <SCORE.heavy>
40

>  <SCORE.norm>
0.913804

>  <RMSD>
10.397

$$$$
ligand
 OpenBabel11021811503D
libRbt.so/2013.1/901 2013/11/27
 40 42  0  0  0  0  0  0  0  0999 V2000
    4.5929   -5.7693   20.5525 C   0  0  2  0  0  0  0  0  0  0  0  0
    3.1659   -5.6069   20.5625 O   0  0  0  0  0  0  0  0  0  0  0  0
    4.9764   -7.2964   20.5373 C   0  0  1  0  0  0  0  0  0  0  0  0
    4.5463   -8.0074   21.8536 C   0  0  2  0  0  0  0  0  0  0  0  0
    5.2766   -7.2974   23.0372 C   0  0  2  0  0  0  0  0  0  0  0  0
    4.9205   -7.9489   24.2754 O   0  0  0  0  0  0  0  0  0  0  0  0
    4.8370   -5.7683   23.0563 C   0  0  2  0  0  0  0  0  0  0  0  0
    5.2126   -5.1174   21.7503 O   0  0  0  0  0  0  0  0  0  0  0  0
    5.5146   -4.9803   24.1690 C   0  0  0  0  0  0  0  0  0  0  0  0
    6.0068   -3.6534   23.6816 N   0  0  0  0  0  0  0  0  0  0  0  0
    1.7155   -1.4769   20.9738 C   0  0  2  0  0  0  0  0  0  0  0  0
    1.1074   -0.2114   20.6346 N   0  0  0  0  0  0  0  0  0  0  0  0
    2.9407   -1.7504   20.0111 C   0  0  0  0  0  0  0  0  0  0  0  0
    3.6195   -3.1471   20.3706 C   0  0  2  0  0  0  0  0  0  0  0  0
    4.7805   -3.3947   19.4760 N   0  0  0  0  0  0  0  0  0  0  0  0
    2.5298   -4.3099   20.2390 C   0  0  2  0  0  0  0  0  0  0  0  0
    1.3230   -3.9899   21.2204 C   0  0  2  0  0  0  0  0  0  0  0  0
    0.3445   -5.0264   21.1127 O   0  0  0  0  0  0  0  0  0  0  0  0
    0.6628   -2.6020   20.8553 C   0  0  1  0  0  0  0  0  0  0  0  0
   -0.4222   -2.3153   21.7724 O   0  0  0  0  0  0  0  0  0  0  0  0
   -0.4483   -2.6586   23.1164 C   0  0  2  0  0  0  0  0  0  0  0  0
   -1.2858   -1.5632   23.8672 C   0  0  2  0  0  0  0  0  0  0  0  0
   -2.5615   -1.4890   23.3173 O   0  0  0  0  0  0  0  0  0  0  0  0
   -0.5658   -0.1482   23.8392 C   0  0  1  0  0  0  0  0  0  0  0  0
   -1.3738    0.8765   24.5700 N   0  0  0  0  0  0  0  0  0  0  0  0
    0.8806   -0.3001   24.4843 C   0  0  2  0  0  0  0  0  0  0  0  0
    1.5680    0.9572   24.4940 O   0  0  0  0  0  0  0  0  0  0  0  0
    1.6734   -1.3872   23.6605 C   0  0  2  0  0  0  0  0  0  0  0  0
    0.9311   -2.7167   23.6645 O   0  0  0  0  0  0  0  0  0  0  0  0
    3.0557   -1.6016   24.2293 C   0  0  0  0  0  0  0  0  0  0  0  0
    3.8788   -2.4341   23.3913 O   0  0  0  0  0  0  0  0  0  0  0  0
    4.3377   -7.9171   19.3836 O   0  0  0  0  0  0  0  0  0  0  0  0
    4.9153   -9.3293   21.7913 O   0  0  0  0  0  0  0  0  0  0  0  0
    1.9563    0.9351   20.4067 C   0  0  0  0  0  0  0  0  0  0  0  0
    3.1200    0.9658   20.9065 O   0  0  0  0  0  0  0  0  0  0  0  0
    1.3883    2.1043   19.5449 C   0  0  2  0  0  0  0  0  0  0  0  0
    0.5538    0.3303   17.3056 N   0  0  0  0  0  0  0  0  0  0  0  0
   -0.1043    1.8483   19.1704 C   0  0  0  0  0  0  0  0  0  0  0  0
   -0.3341    0.4926   18.4818 C   0  0  0  0  0  0  0  0  0  0  0  0
    1.9972    2.2364   18.4359 O   0  0  0  0  0  0  0  0  0  0  0  0
  1  2  1  1  0  0  0
  1  3  1  0  0  0  0
  1  8  1  0  0  0  0
  3  4  1  0  0  0  0
  3 32  1  6  0  0  0
  4  5  1  0  0  0  0
  4 33  1  6  0  0  0
  5  6  1  1  0  0  0
  5  7  1  0  0  0  0
  7  8  1  0  0  0  0
  7  9  1  1  0  0  0
  9 10  1  0  0  0  0
 11 12  1  6  0  0  0
 11 13  1  0  0  0  0
 11 19  1  0  0  0  0
 12 34  1  0  0  0  0
 13 14  1  0  0  0  0
 14 15  1  6  0  0  0
 14 16  1  0  0  0  0
 16  2  1  1  0  0  0
 16 17  1  0  0  0  0
 17 18  1  6  0  0  0
 17 19  1  0  0  0  0
 19 20  1  1  0  0  0
 21 20  1  6  0  0  0
 21 22  1  0  0  0  0
 21 29  1  0  0  0  0
 22 23  1  6  0  0  0
 22 24  1  0  0  0  0
 24 25  1  1  0  0  0
 24 26  1  0  0  0  0
 26 27  1  6  0  0  0
 26 28  1  0  0  0  0
 28 29  1  0  0  0  0
 28 30  1  1  0  0  0
 30 31  1  0  0  0  0
 34 35  2  0  0  0  0
 36 34  1  6  0  0  0
 36 38  1  0  0  0  0
 36 40  1  0  0  0  0
 37 39  1  0  0  0  0
 38 39  1  0  0  0  0
M  END
>  <CHROM.1>
-164.43412535,-17.99562086,135.85169952,-45.64164939,-85.19449649,148.87249999
-171.26773268,4.76092238,-54.29535823,-53.63243859,2.28947091,-2.79251516
21.71214160,-0.50226294,0.94791913,-1.06869501

>  <Name>
ligand

>  <RI>
0

>  <Rbt.Current_Directory>
/home/itssahil/PROJECTS/Mol_Feturizer/New_Systems/rnas/4P20

>  <Rbt.Executable>
rbdock ($Id: //depot/dev/client3/rdock/2013.1/src/exe/rbdock.cxx#4 $)

>  <Rbt.Library>
libRbt.so (2013.1, Build901 2013/11/27)

>  <Rbt.Parameter_File>
/export/apps/rDock/src/rDock_2013.1_src/data/scripts/dock_solv.prm

>  <Rbt.Receptor>
prm/blind_docking_100.prm

>  <SCORE>
45.8883

>  <SCORE.INTER>
23.0186

>  <SCORE.INTER.CONST>
1

>  <SCORE.INTER.POLAR>
0

>  <SCORE.INTER.ROT>
10

>  <SCORE.INTER.SOLV>
34.8131

>  <SCORE.INTER.VDW>
-6.52527

>  <SCORE.INTER.norm>
0.575466

>  <SCORE.INTRA>
8.83232

>  <SCORE.INTRA.DIHEDRAL>
-7.35803

>  <SCORE.INTRA.DIHEDRAL.0>
28.2802

>  <SCORE.INTRA.POLAR>
0

>  <SCORE.INTRA.POLAR.0>
0

>  <SCORE.INTRA.REPUL>
0

>  <SCORE.INTRA.REPUL.0>
0

>  <SCORE.INTRA.SOLV>
9.86314

>  <SCORE.INTRA.SOLV.lig_0>
-101.981

>  <SCORE.INTRA.VDW>
7.57976

>  <SCORE.INTRA.VDW.0>
-5.72964

>  <SCORE.INTRA.norm>
0.220808

>  <SCORE.RESTR>
14.0373

>  <SCORE.RESTR.CAVITY>
14.0373

>  <SCORE.RESTR.norm>
0.350932

>  <SCORE.SYSTEM>
0

>  <SCORE.SYSTEM.CONST>
0

>  <SCORE.SYSTEM.DIHEDRAL>
0

>  <SCORE.SYSTEM.SOLV>
0

>  <SCORE.SYSTEM.norm>
0

>  <SCORE.heavy>
40

>  <SCORE.norm>
1.14721

>  <RMSD>
10.402

$$$$
ligand
 OpenBabel11021811503D
libRbt.so/2013.1/901 2013/11/27
 40 42  0  0  0  0  0  0  0  0999 V2000
    9.1260   -3.6421   24.7057 C   0  0  2  0  0  0  0  0  0  0  0  0
    8.1792   -3.6290   25.7856 O   0  0  0  0  0  0  0  0  0  0  0  0
   10.5805   -3.9067   25.2477 C   0  0  1  0  0  0  0  0  0  0  0  0
   11.0788   -2.7356   26.1440 C   0  0  2  0  0  0  0  0  0  0  0  0
   11.0731   -1.4377   25.2759 C   0  0  2  0  0  0  0  0  0  0  0  0
   11.5557   -0.3324   26.0696 O   0  0  0  0  0  0  0  0  0  0  0  0
    9.5855   -1.1699   24.7792 C   0  0  2  0  0  0  0  0  0  0  0  0
    9.1059   -2.3417   23.9626 O   0  0  0  0  0  0  0  0  0  0  0  0
    9.4773    0.0704   23.9028 C   0  0  0  0  0  0  0  0  0  0  0  0
    9.9787    1.2897   24.6116 N   0  0  0  0  0  0  0  0  0  0  0  0
    3.8036   -3.5360   25.3666 C   0  0  2  0  0  0  0  0  0  0  0  0
    2.4656   -3.0151   25.2085 N   0  0  0  0  0  0  0  0  0  0  0  0
    4.4437   -2.9569   26.6924 C   0  0  0  0  0  0  0  0  0  0  0  0
    5.9235   -3.5196   26.8780 C   0  0  2  0  0  0  0  0  0  0  0  0
    6.5174   -2.9876   28.1325 N   0  0  0  0  0  0  0  0  0  0  0  0
    6.8027   -3.1149   25.6052 C   0  0  2  0  0  0  0  0  0  0  0  0
    6.1203   -3.7160   24.3033 C   0  0  2  0  0  0  0  0  0  0  0  0
    6.9014   -3.3626   23.1596 O   0  0  0  0  0  0  0  0  0  0  0  0
    4.6540   -3.1533   24.1343 C   0  0  1  0  0  0  0  0  0  0  0  0
    4.0382   -3.7271   22.9544 O   0  0  0  0  0  0  0  0  0  0  0  0
    4.6435   -3.8472   21.7118 C   0  0  2  0  0  0  0  0  0  0  0  0
    3.7275   -3.1149   20.6678 C   0  0  2  0  0  0  0  0  0  0  0  0
    3.5559   -1.7868   21.0443 O   0  0  0  0  0  0  0  0  0  0  0  0
    2.3294   -3.8472   20.4938 C   0  0  1  0  0  0  0  0  0  0  0  0
    1.4785   -3.1409   19.4868 N   0  0  0  0  0  0  0  0  0  0  0  0
    2.5947   -5.3546   20.0594 C   0  0  2  0  0  0  0  0  0  0  0  0
    1.3589   -6.0565   19.8765 O   0  0  0  0  0  0  0  0  0  0  0  0
    3.4884   -6.0344   21.1677 C   0  0  2  0  0  0  0  0  0  0  0  0
    4.7982   -5.2785   21.3455 O   0  0  0  0  0  0  0  0  0  0  0  0
    3.8002   -7.4687   20.8128 C   0  0  0  0  0  0  0  0  0  0  0  0
    4.4866   -8.1661   21.8689 O   0  0  0  0  0  0  0  0  0  0  0  0
   10.5701   -5.1586   25.9937 O   0  0  0  0  0  0  0  0  0  0  0  0
   12.3529   -3.0124   26.5774 O   0  0  0  0  0  0  0  0  0  0  0  0
    2.2601   -1.8531   24.3752 C   0  0  0  0  0  0  0  0  0  0  0  0
    3.2219   -1.0586   24.1547 O   0  0  0  0  0  0  0  0  0  0  0  0
    0.8369   -1.6243   23.7797 C   0  0  2  0  0  0  0  0  0  0  0  0
   -1.9775   -1.9889   23.1879 N   0  0  0  0  0  0  0  0  0  0  0  0
    0.3401   -2.8913   23.0171 C   0  0  0  0  0  0  0  0  0  0  0  0
   -1.0082   -2.6836   22.3071 C   0  0  0  0  0  0  0  0  0  0  0  0
    0.8089   -0.6827   22.9249 O   0  0  0  0  0  0  0  0  0  0  0  0
  1  2  1  1  0  0  0
  1  3  1  0  0  0  0
  1  8  1  0  0  0  0
  3  4  1  0  0  0  0
  3 32  1  1  0  0  0
  4  5  1  0  0  0  0
  4 33  1  6  0  0  0
  5  6  1  1  0  0  0
  5  7  1  0  0  0  0
  7  8  1  0  0  0  0
  7  9  1  6  0  0  0
  9 10  1  0  0  0  0
 11 12  1  6  0  0  0
 11 13  1  0  0  0  0
 11 19  1  0  0  0  0
 12 34  1  0  0  0  0
 13 14  1  0  0  0  0
 14 15  1  1  0  0  0
 14 16  1  0  0  0  0
 16  2  1  1  0  0  0
 16 17  1  0  0  0  0
 17 18  1  6  0  0  0
 17 19  1  0  0  0  0
 19 20  1  6  0  0  0
 21 20  1  1  0  0  0
 21 22  1  0  0  0  0
 21 29  1  0  0  0  0
 22 23  1  1  0  0  0
 22 24  1  0  0  0  0
 24 25  1  6  0  0  0
 24 26  1  0  0  0  0
 26 27  1  1  0  0  0
 26 28  1  0  0  0  0
 28 29  1  0  0  0  0
 28 30  1  6  0  0  0
 30 31  1  0  0  0  0
 34 35  2  0  0  0  0
 36 34  1  6  0  0  0
 36 38  1  0  0  0  0
 36 40  1  0  0  0  0
 37 39  1  0  0  0  0
 38 39  1  0  0  0  0
M  END
>  <CHROM.1>
166.41870226,168.10199954,-57.26414138,95.87629200,-165.56516029,-123.60492983
-173.47492048,-53.25886570,-175.13302921,-44.94582531,5.40826909,-3.16084695
23.68166308,-0.35685299,0.25617228,-2.51841796

>  <Name>
ligand

>  <RI>
0

>  <Rbt.Current_Directory>
/home/itssahil/PROJECTS/Mol_Feturizer/New_Systems/rnas/4P20

>  <Rbt.Executable>
rbdock ($Id: //depot/dev/client3/rdock/2013.1/src/exe/rbdock.cxx#4 $)

>  <Rbt.Library>
libRbt.so (2013.1, Build901 2013/11/27)

>  <Rbt.Parameter_File>
/export/apps/rDock/src/rDock_2013.1_src/data/scripts/dock_solv.prm

>  <Rbt.Receptor>
prm/blind_docking_60.prm

>  <SCORE>
33.4589

>  <SCORE.INTER>
17.9793

>  <SCORE.INTER.CONST>
1

>  <SCORE.INTER.POLAR>
0

>  <SCORE.INTER.ROT>
10

>  <SCORE.INTER.SOLV>
30.8617

>  <SCORE.INTER.VDW>
-8.56772

>  <SCORE.INTER.norm>
0.449482

>  <SCORE.INTRA>
-1.38633

>  <SCORE.INTRA.DIHEDRAL>
-15.8847

>  <SCORE.INTRA.DIHEDRAL.0>
28.2802

>  <SCORE.INTRA.POLAR>
0

>  <SCORE.INTRA.POLAR.0>
0

>  <SCORE.INTRA.REPUL>
0

>  <SCORE.INTRA.REPUL.0>
0

>  <SCORE.INTRA.SOLV>
3.61131

>  <SCORE.INTRA.SOLV.lig_0>
-101.981

>  <SCORE.INTRA.VDW>
4.75038

>  <SCORE.INTRA.VDW.0>
-5.72964

>  <SCORE.INTRA.norm>
-0.0346583

>  <SCORE.RESTR>
16.8659

>  <SCORE.RESTR.CAVITY>
16.8659

>  <SCORE.RESTR.norm>
0.421649

>  <SCORE.SYSTEM>
0

>  <SCORE.SYSTEM.CONST>
0

>  <SCORE.SYSTEM.DIHEDRAL>
0

>  <SCORE.SYSTEM.SOLV>
0

>  <SCORE.SYSTEM.norm>
0

>  <SCORE.heavy>
40

>  <SCORE.norm>
0.836472

>  <RMSD>
10.414

$$$$
ligand
 OpenBabel11021811503D
libRbt.so/2013.1/901 2013/11/27
 40 42  0  0  0  0  0  0  0  0999 V2000
    4.5761   -5.8228   20.4963 C   0  0  2  0  0  0  0  0  0  0  0  0
    3.1496   -5.6552   20.5084 O   0  0  0  0  0  0  0  0  0  0  0  0
    4.9546   -7.3503   20.5491 C   0  0  1  0  0  0  0  0  0  0  0  0
    4.5315   -7.9982   21.8997 C   0  0  2  0  0  0  0  0  0  0  0  0
    5.2722   -7.2368   23.0442 C   0  0  2  0  0  0  0  0  0  0  0  0
    4.9227   -7.8292   24.3136 O   0  0  0  0  0  0  0  0  0  0  0  0
    4.8376   -5.7070   22.9956 C   0  0  2  0  0  0  0  0  0  0  0  0
    5.2060   -5.1184   21.6584 O   0  0  0  0  0  0  0  0  0  0  0  0
    5.5253   -4.8707   24.0660 C   0  0  0  0  0  0  0  0  0  0  0  0
    4.8893   -5.0638   25.4072 N   0  0  0  0  0  0  0  0  0  0  0  0
    1.7249   -1.5217   20.9711 C   0  0  2  0  0  0  0  0  0  0  0  0
    1.1214   -0.2496   20.6488 N   0  0  0  0  0  0  0  0  0  0  0  0
    2.9417   -1.7922   19.9970 C   0  0  0  0  0  0  0  0  0  0  0  0
    3.6154   -3.1961   20.3377 C   0  0  2  0  0  0  0  0  0  0  0  0
    4.7686   -3.4411   19.4324 N   0  0  0  0  0  0  0  0  0  0  0  0
    2.5184   -4.3516   20.2024 C   0  0  2  0  0  0  0  0  0  0  0  0
    1.3204   -4.0349   21.1955 C   0  0  2  0  0  0  0  0  0  0  0  0
    0.3355   -5.0649   21.0846 O   0  0  0  0  0  0  0  0  0  0  0  0
    0.6653   -2.6399   20.8489 C   0  0  1  0  0  0  0  0  0  0  0  0
   -0.4116   -2.3564   21.7766 O   0  0  0  0  0  0  0  0  0  0  0  0
   -0.4266   -2.7060   23.1191 C   0  0  2  0  0  0  0  0  0  0  0  0
   -1.2782   -1.6273   23.8782 C   0  0  2  0  0  0  0  0  0  0  0  0
   -2.5572   -1.5710   23.3340 O   0  0  0  0  0  0  0  0  0  0  0  0
   -0.5808   -0.2010   23.8536 C   0  0  1  0  0  0  0  0  0  0  0  0
   -1.4019    0.8075   24.5923 N   0  0  0  0  0  0  0  0  0  0  0  0
    0.8705   -0.3328   24.4920 C   0  0  2  0  0  0  0  0  0  0  0  0
    1.5380    0.9352   24.5046 O   0  0  0  0  0  0  0  0  0  0  0  0
    1.6769   -1.4036   23.6601 C   0  0  2  0  0  0  0  0  0  0  0  0
    0.9559   -2.7447   23.6612 O   0  0  0  0  0  0  0  0  0  0  0  0
    3.0649   -1.5985   24.2223 C   0  0  0  0  0  0  0  0  0  0  0  0
    3.8613   -2.5038   23.4354 O   0  0  0  0  0  0  0  0  0  0  0  0
    4.3061   -8.0214   19.4297 O   0  0  0  0  0  0  0  0  0  0  0  0
    4.8959   -9.3229   21.8961 O   0  0  0  0  0  0  0  0  0  0  0  0
    1.9727    0.9027   20.4629 C   0  0  0  0  0  0  0  0  0  0  0  0
    3.1266    0.9235   20.9854 O   0  0  0  0  0  0  0  0  0  0  0  0
    1.4193    2.0903   19.6169 C   0  0  2  0  0  0  0  0  0  0  0  0
    0.0403    0.2606   16.4735 N   0  0  0  0  0  0  0  0  0  0  0  0
    1.2581    1.6824   18.1198 C   0  0  0  0  0  0  0  0  0  0  0  0
    0.3072    0.4914   17.9135 C   0  0  0  0  0  0  0  0  0  0  0  0
    2.2008    3.0940   19.6114 O   0  0  0  0  0  0  0  0  0  0  0  0
  1  2  1  1  0  0  0
  1  3  1  0  0  0  0
  1  8  1  0  0  0  0
  3  4  1  0  0  0  0
  3 32  1  6  0  0  0
  4  5  1  0  0  0  0
  4 33  1  6  0  0  0
  5  6  1  1  0  0  0
  5  7  1  0  0  0  0
  7  8  1  0  0  0  0
  7  9  1  1  0  0  0
  9 10  1  0  0  0  0
 11 12  1  6  0  0  0
 11 13  1  0  0  0  0
 11 19  1  0  0  0  0
 12 34  1  0  0  0  0
 13 14  1  0  0  0  0
 14 15  1  6  0  0  0
 14 16  1  0  0  0  0
 16  2  1  1  0  0  0
 16 17  1  0  0  0  0
 17 18  1  6  0  0  0
 17 19  1  0  0  0  0
 19 20  1  1  0  0  0
 21 20  1  6  0  0  0
 21 22  1  0  0  0  0
 21 29  1  0  0  0  0
 22 23  1  6  0  0  0
 22 24  1  0  0  0  0
 24 25  1  1  0  0  0
 24 26  1  0  0  0  0
 26 27  1  6  0  0  0
 26 28  1  0  0  0  0
 28 29  1  0  0  0  0
 28 30  1  1  0  0  0
 30 31  1  0  0  0  0
 34 35  2  0  0  0  0
 36 34  1  1  0  0  0
 36 38  1  0  0  0  0
 36 40  1  0  0  0  0
 37 39  1  0  0  0  0
 38 39  1  0  0  0  0
M  END
>  <CHROM.1>
-167.87475975,-17.52957172,-78.18065897,-47.35111417,-84.79202614,149.86774469
-176.13883779,-67.65916870,59.20815897,172.17371729,2.30181024,-2.83124651
21.72882178,-0.50472373,0.99290035,-1.11555574

>  <Name>
ligand

>  <RI>
0

>  <Rbt.Current_Directory>
/home/itssahil/PROJECTS/Mol_Feturizer/New_Systems/rnas/4P20

>  <Rbt.Executable>
rbdock ($Id: //depot/dev/client3/rdock/2013.1/src/exe/rbdock.cxx#4 $)

>  <Rbt.Library>
libRbt.so (2013.1, Build901 2013/11/27)

>  <Rbt.Parameter_File>
/export/apps/rDock/src/rDock_2013.1_src/data/scripts/dock_solv.prm

>  <Rbt.Receptor>
prm/blind_docking_100.prm

>  <SCORE>
39.576

>  <SCORE.INTER>
23.68

>  <SCORE.INTER.CONST>
1

>  <SCORE.INTER.POLAR>
0

>  <SCORE.INTER.ROT>
10

>  <SCORE.INTER.SOLV>
39.0353

>  <SCORE.INTER.VDW>
-7.49176

>  <SCORE.INTER.norm>
0.592001

>  <SCORE.INTRA>
0.486361

>  <SCORE.INTRA.DIHEDRAL>
-13.134

>  <SCORE.INTRA.DIHEDRAL.0>
28.2802

>  <SCORE.INTRA.POLAR>
0

>  <SCORE.INTRA.POLAR.0>
0

>  <SCORE.INTRA.REPUL>
0

>  <SCORE.INTRA.REPUL.0>
0

>  <SCORE.INTRA.SOLV>
4.5269

>  <SCORE.INTRA.SOLV.lig_0>
-101.981

>  <SCORE.INTRA.VDW>
4.78992

>  <SCORE.INTRA.VDW.0>
-5.72964

>  <SCORE.INTRA.norm>
0.012159

>  <SCORE.RESTR>
15.4096

>  <SCORE.RESTR.CAVITY>
15.4096

>  <SCORE.RESTR.norm>
0.38524

>  <SCORE.SYSTEM>
0

>  <SCORE.SYSTEM.CONST>
0

>  <SCORE.SYSTEM.DIHEDRAL>
0

>  <SCORE.SYSTEM.SOLV>
0

>  <SCORE.SYSTEM.norm>
0

>  <SCORE.heavy>
40

>  <SCORE.norm>
0.9894

>  <RMSD>
10.424

$$$$
ligand
 OpenBabel11021811503D
libRbt.so/2013.1/901 2013/11/27
 40 42  0  0  0  0  0  0  0  0999 V2000
    4.5987   -5.7672   20.5195 C   0  0  2  0  0  0  0  0  0  0  0  0
    3.1702   -5.6179   20.5162 O   0  0  0  0  0  0  0  0  0  0  0  0
    4.9962   -7.2905   20.5482 C   0  0  1  0  0  0  0  0  0  0  0  0
    4.5643   -7.9694   21.8806 C   0  0  2  0  0  0  0  0  0  0  0  0
    5.2803   -7.2208   23.0489 C   0  0  2  0  0  0  0  0  0  0  0  0
    4.9223   -7.8418   24.3022 O   0  0  0  0  0  0  0  0  0  0  0  0
    4.8266   -5.6960   23.0237 C   0  0  2  0  0  0  0  0  0  0  0  0
    5.2046   -5.0773   21.7029 O   0  0  0  0  0  0  0  0  0  0  0  0
    5.4897   -4.8718   24.1188 C   0  0  0  0  0  0  0  0  0  0  0  0
    4.7883   -5.0355   25.4310 N   0  0  0  0  0  0  0  0  0  0  0  0
    1.7037   -1.4991   20.9795 C   0  0  2  0  0  0  0  0  0  0  0  0
    1.0873   -0.2331   20.6574 N   0  0  0  0  0  0  0  0  0  0  0  0
    2.9231   -1.7571   20.0053 C   0  0  0  0  0  0  0  0  0  0  0  0
    3.6110   -3.1542   20.3459 C   0  0  2  0  0  0  0  0  0  0  0  0
    4.7666   -3.3874   19.4404 N   0  0  0  0  0  0  0  0  0  0  0  0
    2.5257   -4.3207   20.2103 C   0  0  2  0  0  0  0  0  0  0  0  0
    1.3246   -4.0163   21.2036 C   0  0  2  0  0  0  0  0  0  0  0  0
    0.3502   -5.0562   21.0925 O   0  0  0  0  0  0  0  0  0  0  0  0
    0.6554   -2.6280   20.8572 C   0  0  1  0  0  0  0  0  0  0  0  0
   -0.4243   -2.3555   21.7849 O   0  0  0  0  0  0  0  0  0  0  0  0
   -0.4297   -2.6929   23.1307 C   0  0  2  0  0  0  0  0  0  0  0  0
   -1.2788   -1.6092   23.8855 C   0  0  2  0  0  0  0  0  0  0  0  0
   -2.5615   -1.5607   23.3491 O   0  0  0  0  0  0  0  0  0  0  0  0
   -0.5849   -0.1816   23.8434 C   0  0  1  0  0  0  0  0  0  0  0  0
   -1.4034    0.8317   24.5782 N   0  0  0  0  0  0  0  0  0  0  0  0
    0.8708   -0.3044   24.4734 C   0  0  2  0  0  0  0  0  0  0  0  0
    1.5355    0.9651   24.4701 O   0  0  0  0  0  0  0  0  0  0  0  0
    1.6743   -1.3809   23.6461 C   0  0  2  0  0  0  0  0  0  0  0  0
    0.9563   -2.7236   23.6641 O   0  0  0  0  0  0  0  0  0  0  0  0
    3.0663   -1.5676   24.2009 C   0  0  0  0  0  0  0  0  0  0  0  0
    3.8279   -2.5489   23.4730 O   0  0  0  0  0  0  0  0  0  0  0  0
    4.3708   -7.9481   19.4079 O   0  0  0  0  0  0  0  0  0  0  0  0
    4.9457   -9.2891   21.8566 O   0  0  0  0  0  0  0  0  0  0  0  0
    1.9300    0.9153   20.4167 C   0  0  0  0  0  0  0  0  0  0  0  0
    3.1035    0.9457   20.8931 O   0  0  0  0  0  0  0  0  0  0  0  0
    1.3432    2.0870   19.5710 C   0  0  2  0  0  0  0  0  0  0  0  0
    1.4160    0.8693   16.7793 N   0  0  0  0  0  0  0  0  0  0  0  0
    0.0971    1.6193   18.7574 C   0  0  0  0  0  0  0  0  0  0  0  0
    0.4034    0.4678   17.7851 C   0  0  0  0  0  0  0  0  0  0  0  0
    2.1658    2.5271   18.7063 O   0  0  0  0  0  0  0  0  0  0  0  0
  1  2  1  1  0  0  0
  1  3  1  0  0  0  0
  1  8  1  0  0  0  0
  3  4  1  0  0  0  0
  3 32  1  6  0  0  0
  4  5  1  0  0  0  0
  4 33  1  6  0  0  0
  5  6  1  1  0  0  0
  5  7  1  0  0  0  0
  7  8  1  0  0  0  0
  7  9  1  1  0  0  0
  9 10  1  0  0  0  0
 11 12  1  6  0  0  0
 11 13  1  0  0  0  0
 11 19  1  0  0  0  0
 12 34  1  0  0  0  0
 13 14  1  0  0  0  0
 14 15  1  6  0  0  0
 14 16  1  0  0  0  0
 16  2  1  1  0  0  0
 16 17  1  0  0  0  0
 17 18  1  6  0  0  0
 17 19  1  0  0  0  0
 19 20  1  1  0  0  0
 21 20  1  6  0  0  0
 21 22  1  0  0  0  0
 21 29  1  0  0  0  0
 22 23  1  6  0  0  0
 22 24  1  0  0  0  0
 24 25  1  1  0  0  0
 24 26  1  0  0  0  0
 26 27  1  6  0  0  0
 26 28  1  0  0  0  0
 28 29  1  0  0  0  0
 28 30  1  1  0  0  0
 30 31  1  0  0  0  0
 34 35  2  0  0  0  0
 36 34  1  6  0  0  0
 36 38  1  0  0  0  0
 36 40  1  0  0  0  0
 37 39  1  0  0  0  0
 38 39  1  0  0  0  0
M  END
>  <CHROM.1>
-167.10752909,-16.78061559,-81.58121787,-44.79095734,-84.06945815,148.92500719
179.73853250,-17.92252716,-59.43898073,-60.92616331,2.30449030,-2.81417171
21.72213184,-0.57228344,0.95798888,-1.03776363

>  <Name>
ligand

>  <RI>
0

>  <Rbt.Current_Directory>
/home/itssahil/PROJECTS/Mol_Feturizer/New_Systems/rnas/4P20

>  <Rbt.Executable>
rbdock ($Id: //depot/dev/client3/rdock/2013.1/src/exe/rbdock.cxx#4 $)

>  <Rbt.Library>
libRbt.so (2013.1, Build901 2013/11/27)

>  <Rbt.Parameter_File>
/export/apps/rDock/src/rDock_2013.1_src/data/scripts/dock_solv.prm

>  <Rbt.Receptor>
prm/blind_docking_100.prm

>  <SCORE>
41.8264

>  <SCORE.INTER>
23.5714

>  <SCORE.INTER.CONST>
1

>  <SCORE.INTER.POLAR>
0

>  <SCORE.INTER.ROT>
10

>  <SCORE.INTER.SOLV>
37.6259

>  <SCORE.INTER.VDW>
-7.09438

>  <SCORE.INTER.norm>
0.589284

>  <SCORE.INTRA>
4.07361

>  <SCORE.INTRA.DIHEDRAL>
-11.4585

>  <SCORE.INTRA.DIHEDRAL.0>
28.2802

>  <SCORE.INTRA.POLAR>
0

>  <SCORE.INTRA.POLAR.0>
0

>  <SCORE.INTRA.REPUL>
0

>  <SCORE.INTRA.REPUL.0>
0

>  <SCORE.INTRA.SOLV>
7.7259

>  <SCORE.INTRA.SOLV.lig_0>
-101.981

>  <SCORE.INTRA.VDW>
5.93991

>  <SCORE.INTRA.VDW.0>
-5.72964

>  <SCORE.INTRA.norm>
0.10184

>  <SCORE.RESTR>
14.1814

>  <SCORE.RESTR.CAVITY>
14.1814

>  <SCORE.RESTR.norm>
0.354536

>  <SCORE.SYSTEM>
0

>  <SCORE.SYSTEM.CONST>
0

>  <SCORE.SYSTEM.DIHEDRAL>
0

>  <SCORE.SYSTEM.SOLV>
0

>  <SCORE.SYSTEM.norm>
0

>  <SCORE.heavy>
40

>  <SCORE.norm>
1.04566

>  <RMSD>
10.437

$$$$
ligand
 OpenBabel11021811503D
libRbt.so/2013.1/901 2013/11/27
 40 42  0  0  0  0  0  0  0  0999 V2000
    3.1295   -7.3646   21.4258 C   0  0  2  0  0  0  0  0  0  0  0  0
    3.0943   -6.0146   21.9148 O   0  0  0  0  0  0  0  0  0  0  0  0
    4.3454   -7.5670   20.4460 C   0  0  1  0  0  0  0  0  0  0  0  0
    4.1814   -6.7226   19.1487 C   0  0  2  0  0  0  0  0  0  0  0  0
    2.8637   -7.1807   18.4473 C   0  0  2  0  0  0  0  0  0  0  0  0
    2.6921   -6.4346   17.2232 O   0  0  0  0  0  0  0  0  0  0  0  0
    1.6480   -6.9238   19.4411 C   0  0  2  0  0  0  0  0  0  0  0  0
    1.8584   -7.7066   20.7111 O   0  0  0  0  0  0  0  0  0  0  0  0
    0.3124   -7.3592   18.8539 C   0  0  0  0  0  0  0  0  0  0  0  0
   -0.8109   -7.1351   19.8176 N   0  0  0  0  0  0  0  0  0  0  0  0
    1.9599   -1.9594   20.6504 C   0  0  2  0  0  0  0  0  0  0  0  0
    1.4768   -0.8820   19.8184 N   0  0  0  0  0  0  0  0  0  0  0  0
    3.2135   -2.6373   19.9635 C   0  0  0  0  0  0  0  0  0  0  0  0
    3.7552   -3.8324   20.8686 C   0  0  2  0  0  0  0  0  0  0  0  0
    4.9429   -4.4575   20.2298 N   0  0  0  0  0  0  0  0  0  0  0  0
    2.5849   -4.9006   21.0834 C   0  0  2  0  0  0  0  0  0  0  0  0
    1.3523   -4.1737   21.7720 C   0  0  2  0  0  0  0  0  0  0  0  0
    0.3015   -5.1219   21.9719 O   0  0  0  0  0  0  0  0  0  0  0  0
    0.8288   -2.9899   20.8666 C   0  0  1  0  0  0  0  0  0  0  0  0
   -0.2816   -2.3242   21.5182 O   0  0  0  0  0  0  0  0  0  0  0  0
   -0.4901   -2.2672   22.8886 C   0  0  2  0  0  0  0  0  0  0  0  0
   -0.6293   -0.7536   23.2822 C   0  0  2  0  0  0  0  0  0  0  0  0
   -1.6729   -0.1766   22.5660 O   0  0  0  0  0  0  0  0  0  0  0  0
    0.7274    0.0409   23.0600 C   0  0  1  0  0  0  0  0  0  0  0  0
    0.5761    1.4761   23.4526 N   0  0  0  0  0  0  0  0  0  0  0  0
    1.8749   -0.6642   23.9070 C   0  0  2  0  0  0  0  0  0  0  0  0
    3.1208    0.0259   23.7494 O   0  0  0  0  0  0  0  0  0  0  0  0
    1.9808   -2.1658   23.4351 C   0  0  2  0  0  0  0  0  0  0  0  0
    0.6502   -2.8843   23.6136 O   0  0  0  0  0  0  0  0  0  0  0  0
    3.0413   -2.9084   24.2125 C   0  0  0  0  0  0  0  0  0  0  0  0
    4.3179   -2.9125   23.5470 O   0  0  0  0  0  0  0  0  0  0  0  0
    5.5669   -7.1984   21.1503 O   0  0  0  0  0  0  0  0  0  0  0  0
    5.2600   -6.9465   18.3276 O   0  0  0  0  0  0  0  0  0  0  0  0
    2.3966    0.1544   19.4101 C   0  0  0  0  0  0  0  0  0  0  0  0
    3.4430    0.3711   20.0906 O   0  0  0  0  0  0  0  0  0  0  0  0
    2.0494    0.9761   18.1308 C   0  0  2  0  0  0  0  0  0  0  0  0
    1.0054    2.1843   20.9234 N   0  0  0  0  0  0  0  0  0  0  0  0
    1.5601    2.4098   18.5035 C   0  0  0  0  0  0  0  0  0  0  0  0
    0.4505    2.4156   19.5682 C   0  0  0  0  0  0  0  0  0  0  0  0
    1.1009    0.4593   17.4589 O   0  0  0  0  0  0  0  0  0  0  0  0
  1  2  1  6  0  0  0
  1  3  1  0  0  0  0
  1  8  1  0  0  0  0
  3  4  1  0  0  0  0
  3 32  1  1  0  0  0
  4  5  1  0  0  0  0
  4 33  1  6  0  0  0
  5  6  1  6  0  0  0
  5  7  1  0  0  0  0
  7  8  1  0  0  0  0
  7  9  1  6  0  0  0
  9 10  1  0  0  0  0
 11 12  1  6  0  0  0
 11 13  1  0  0  0  0
 11 19  1  0  0  0  0
 12 34  1  0  0  0  0
 13 14  1  0  0  0  0
 14 15  1  6  0  0  0
 14 16  1  0  0  0  0
 16  2  1  1  0  0  0
 16 17  1  0  0  0  0
 17 18  1  6  0  0  0
 17 19  1  0  0  0  0
 19 20  1  1  0  0  0
 21 20  1  6  0  0  0
 21 22  1  0  0  0  0
 21 29  1  0  0  0  0
 22 23  1  6  0  0  0
 22 24  1  0  0  0  0
 24 25  1  1  0  0  0
 24 26  1  0  0  0  0
 26 27  1  6  0  0  0
 26 28  1  0  0  0  0
 28 29  1  0  0  0  0
 28 30  1  1  0  0  0
 30 31  1  0  0  0  0
 34 35  2  0  0  0  0
 36 34  1  1  0  0  0
 36 38  1  0  0  0  0
 36 40  1  0  0  0  0
 37 39  1  0  0  0  0
 38 39  1  0  0  0  0
M  END
>  <CHROM.1>
77.57877468,-119.23756979,178.77056515,-54.20058426,-92.76166334,125.29568794
-94.07437114,105.78921056,-50.39524960,77.48674299,2.00491555,-3.07079619
20.94060977,0.67055407,-1.23015385,2.45454834

>  <Name>
ligand

>  <RI>
0

>  <Rbt.Current_Directory>
/home/itssahil/PROJECTS/Mol_Feturizer/New_Systems/rnas/4P20

>  <Rbt.Executable>
rbdock ($Id: //depot/dev/client3/rdock/2013.1/src/exe/rbdock.cxx#4 $)

>  <Rbt.Library>
libRbt.so (2013.1, Build901 2013/11/27)

>  <Rbt.Parameter_File>
/export/apps/rDock/src/rDock_2013.1_src/data/scripts/dock_solv.prm

>  <Rbt.Receptor>
prm/blind_docking_100.prm

>  <SCORE>
61.1929

>  <SCORE.INTER>
26.7691

>  <SCORE.INTER.CONST>
1

>  <SCORE.INTER.POLAR>
0

>  <SCORE.INTER.ROT>
10

>  <SCORE.INTER.SOLV>
29.9403

>  <SCORE.INTER.VDW>
-2.40069

>  <SCORE.INTER.norm>
0.669228

>  <SCORE.INTRA>
16.9902

>  <SCORE.INTRA.DIHEDRAL>
-1.6349

>  <SCORE.INTRA.DIHEDRAL.0>
28.2802

>  <SCORE.INTRA.POLAR>
0

>  <SCORE.INTRA.POLAR.0>
0

>  <SCORE.INTRA.REPUL>
0

>  <SCORE.INTRA.REPUL.0>
0

>  <SCORE.INTRA.SOLV>
15.9738

>  <SCORE.INTRA.SOLV.lig_0>
-101.981

>  <SCORE.INTRA.VDW>
9.8208

>  <SCORE.INTRA.VDW.0>
-5.72964

>  <SCORE.INTRA.norm>
0.424756

>  <SCORE.RESTR>
17.4335

>  <SCORE.RESTR.CAVITY>
17.4335

>  <SCORE.RESTR.norm>
0.435837

>  <SCORE.SYSTEM>
0

>  <SCORE.SYSTEM.CONST>
0

>  <SCORE.SYSTEM.DIHEDRAL>
0

>  <SCORE.SYSTEM.SOLV>
0

>  <SCORE.SYSTEM.norm>
0

>  <SCORE.heavy>
40

>  <SCORE.norm>
1.52982

>  <RMSD>
10.440

$$$$
ligand
 OpenBabel11021811503D
libRbt.so/2013.1/901 2013/11/27
 40 42  0  0  0  0  0  0  0  0999 V2000
    9.1030   -2.8460   26.3122 C   0  0  2  0  0  0  0  0  0  0  0  0
    8.0226   -3.7083   25.9223 O   0  0  0  0  0  0  0  0  0  0  0  0
    9.2681   -1.6655   25.2834 C   0  0  1  0  0  0  0  0  0  0  0  0
    9.7131   -2.1836   23.8847 C   0  0  2  0  0  0  0  0  0  0  0  0
   11.0805   -2.9161   24.0627 C   0  0  2  0  0  0  0  0  0  0  0  0
   11.5378   -3.3889   22.7774 O   0  0  0  0  0  0  0  0  0  0  0  0
   10.8748   -4.1298   25.0708 C   0  0  2  0  0  0  0  0  0  0  0  0
   10.3896   -3.6081   26.3985 O   0  0  0  0  0  0  0  0  0  0  0  0
   12.1630   -4.8997   25.3276 C   0  0  0  0  0  0  0  0  0  0  0  0
   13.3036   -3.9781   25.6279 N   0  0  0  0  0  0  0  0  0  0  0  0
    3.6818   -3.5699   25.2379 C   0  0  2  0  0  0  0  0  0  0  0  0
    2.3621   -3.0355   24.9948 N   0  0  0  0  0  0  0  0  0  0  0  0
    4.2472   -2.9867   26.5955 C   0  0  0  0  0  0  0  0  0  0  0  0
    5.7063   -3.5643   26.8750 C   0  0  2  0  0  0  0  0  0  0  0  0
    6.2293   -3.0282   28.1590 N   0  0  0  0  0  0  0  0  0  0  0  0
    6.6657   -3.1804   25.6546 C   0  0  2  0  0  0  0  0  0  0  0  0
    6.0564   -3.7850   24.3185 C   0  0  2  0  0  0  0  0  0  0  0  0
    6.9095   -3.4502   23.2216 O   0  0  0  0  0  0  0  0  0  0  0  0
    4.6097   -3.2074   24.0565 C   0  0  1  0  0  0  0  0  0  0  0  0
    4.0599   -3.7844   22.8459 O   0  0  0  0  0  0  0  0  0  0  0  0
    4.6604   -3.7482   21.5957 C   0  0  2  0  0  0  0  0  0  0  0  0
    3.6882   -2.9856   20.6271 C   0  0  2  0  0  0  0  0  0  0  0  0
    3.4321   -1.7124   21.1258 O   0  0  0  0  0  0  0  0  0  0  0  0
    2.3403   -3.7907   20.3899 C   0  0  1  0  0  0  0  0  0  0  0  0
    1.4351   -3.0530   19.4555 N   0  0  0  0  0  0  0  0  0  0  0  0
    2.7013   -5.2303   19.8166 C   0  0  2  0  0  0  0  0  0  0  0  0
    1.5133   -5.9936   19.5730 O   0  0  0  0  0  0  0  0  0  0  0  0
    3.6483   -5.9482   20.8543 C   0  0  2  0  0  0  0  0  0  0  0  0
    4.9065   -5.1258   21.0976 O   0  0  0  0  0  0  0  0  0  0  0  0
    4.0516   -7.3193   20.3667 C   0  0  0  0  0  0  0  0  0  0  0  0
    2.9409   -8.2325   20.2943 O   0  0  0  0  0  0  0  0  0  0  0  0
    7.9972   -0.9581   25.1910 O   0  0  0  0  0  0  0  0  0  0  0  0
    9.8535   -1.1143   23.0334 O   0  0  0  0  0  0  0  0  0  0  0  0
    2.2354   -1.7281   24.3935 C   0  0  0  0  0  0  0  0  0  0  0  0
    3.1898   -0.8996   24.4818 O   0  0  0  0  0  0  0  0  0  0  0  0
    0.9039   -1.3899   23.6552 C   0  0  2  0  0  0  0  0  0  0  0  0
   -1.6909   -2.8319   22.7437 N   0  0  0  0  0  0  0  0  0  0  0  0
    0.7181   -2.2927   22.3966 C   0  0  0  0  0  0  0  0  0  0  0  0
   -0.3302   -3.4007   22.5928 C   0  0  0  0  0  0  0  0  0  0  0  0
    0.8742   -0.1946   23.2211 O   0  0  0  0  0  0  0  0  0  0  0  0
  1  2  1  6  0  0  0
  1  3  1  0  0  0  0
  1  8  1  0  0  0  0
  3  4  1  0  0  0  0
  3 32  1  6  0  0  0
  4  5  1  0  0  0  0
  4 33  1  6  0  0  0
  5  6  1  6  0  0  0
  5  7  1  0  0  0  0
  7  8  1  0  0  0  0
  7  9  1  1  0  0  0
  9 10  1  0  0  0  0
 11 12  1  6  0  0  0
 11 13  1  0  0  0  0
 11 19  1  0  0  0  0
 12 34  1  0  0  0  0
 13 14  1  0  0  0  0
 14 15  1  1  0  0  0
 14 16  1  0  0  0  0
 16  2  1  1  0  0  0
 16 17  1  0  0  0  0
 17 18  1  6  0  0  0
 17 19  1  0  0  0  0
 19 20  1  6  0  0  0
 21 20  1  1  0  0  0
 21 22  1  0  0  0  0
 21 29  1  0  0  0  0
 22 23  1  1  0  0  0
 22 24  1  0  0  0  0
 24 25  1  6  0  0  0
 24 26  1  0  0  0  0
 26 27  1  1  0  0  0
 26 28  1  0  0  0  0
 28 29  1  0  0  0  0
 28 30  1  6  0  0  0
 30 31  1  0  0  0  0
 34 35  2  0  0  0  0
 36 34  1  6  0  0  0
 36 38  1  0  0  0  0
 36 40  1  0  0  0  0
 37 39  1  0  0  0  0
 38 39  1  0  0  0  0
M  END
>  <CHROM.1>
-53.52143858,-105.65473377,47.38609468,82.51538570,-175.50330014,-119.48576799
-66.20873722,-65.27291207,105.13161128,66.74835680,5.39215622,-3.37140165
23.46024228,0.33259964,-0.19436728,0.92766959

>  <Name>
ligand

>  <RI>
0

>  <Rbt.Current_Directory>
/home/itssahil/PROJECTS/Mol_Feturizer/New_Systems/rnas/4P20

>  <Rbt.Executable>
rbdock ($Id: //depot/dev/client3/rdock/2013.1/src/exe/rbdock.cxx#4 $)

>  <Rbt.Library>
libRbt.so (2013.1, Build901 2013/11/27)

>  <Rbt.Parameter_File>
/export/apps/rDock/src/rDock_2013.1_src/data/scripts/dock_solv.prm

>  <Rbt.Receptor>
prm/blind_docking_60.prm

>  <SCORE>
27.2753

>  <SCORE.INTER>
13.4107

>  <SCORE.INTER.CONST>
1

>  <SCORE.INTER.POLAR>
0

>  <SCORE.INTER.ROT>
10

>  <SCORE.INTER.SOLV>
33.9812

>  <SCORE.INTER.VDW>
-12.6533

>  <SCORE.INTER.norm>
0.335267

>  <SCORE.INTRA>
0.507041

>  <SCORE.INTRA.DIHEDRAL>
-8.10776

>  <SCORE.INTRA.DIHEDRAL.0>
28.2802

>  <SCORE.INTRA.POLAR>
0

>  <SCORE.INTRA.POLAR.0>
0

>  <SCORE.INTRA.REPUL>
0

>  <SCORE.INTRA.REPUL.0>
0

>  <SCORE.INTRA.SOLV>
5.48872

>  <SCORE.INTRA.SOLV.lig_0>
-101.981

>  <SCORE.INTRA.VDW>
1.81656

>  <SCORE.INTRA.VDW.0>
-5.72964

>  <SCORE.INTRA.norm>
0.012676

>  <SCORE.RESTR>
13.3576

>  <SCORE.RESTR.CAVITY>
13.3576

>  <SCORE.RESTR.norm>
0.333939

>  <SCORE.SYSTEM>
0

>  <SCORE.SYSTEM.CONST>
0

>  <SCORE.SYSTEM.DIHEDRAL>
0

>  <SCORE.SYSTEM.SOLV>
0

>  <SCORE.SYSTEM.norm>
0

>  <SCORE.heavy>
40

>  <SCORE.norm>
0.681882

>  <RMSD>
10.453

$$$$
ligand
 OpenBabel11021811503D
libRbt.so/2013.1/901 2013/11/27
 40 42  0  0  0  0  0  0  0  0999 V2000
    4.5284   -5.7296   20.6938 C   0  0  2  0  0  0  0  0  0  0  0  0
    3.1022   -5.5998   20.5843 O   0  0  0  0  0  0  0  0  0  0  0  0
    4.9082   -7.0789   21.4111 C   0  0  1  0  0  0  0  0  0  0  0  0
    4.4346   -7.0914   22.8939 C   0  0  2  0  0  0  0  0  0  0  0  0
    5.1287   -5.8984   23.6241 C   0  0  2  0  0  0  0  0  0  0  0  0
    4.7317   -5.8945   25.0123 O   0  0  0  0  0  0  0  0  0  0  0  0
    4.6927   -4.5464   22.9077 C   0  0  2  0  0  0  0  0  0  0  0  0
    5.1113   -4.5826   21.4607 O   0  0  0  0  0  0  0  0  0  0  0  0
    5.3366   -3.3186   23.5372 C   0  0  0  0  0  0  0  0  0  0  0  0
    6.7891   -3.5437   23.8200 N   0  0  0  0  0  0  0  0  0  0  0  0
    1.6818   -1.4518   20.9106 C   0  0  2  0  0  0  0  0  0  0  0  0
    1.0713   -0.1935   20.5497 N   0  0  0  0  0  0  0  0  0  0  0  0
    2.8812   -1.7598   19.9260 C   0  0  0  0  0  0  0  0  0  0  0  0
    3.5623   -3.1491   20.3092 C   0  0  2  0  0  0  0  0  0  0  0  0
    4.6993   -3.4290   19.3935 N   0  0  0  0  0  0  0  0  0  0  0  0
    2.4642   -4.3094   20.2389 C   0  0  2  0  0  0  0  0  0  0  0  0
    1.2839   -3.9544   21.2403 C   0  0  2  0  0  0  0  0  0  0  0  0
    0.2983   -4.9883   21.1875 O   0  0  0  0  0  0  0  0  0  0  0  0
    0.6213   -2.5743   20.8513 C   0  0  1  0  0  0  0  0  0  0  0  0
   -0.4391   -2.2551   21.7864 O   0  0  0  0  0  0  0  0  0  0  0  0
   -0.4622   -2.6150   23.1261 C   0  0  2  0  0  0  0  0  0  0  0  0
   -1.2907   -1.5242   23.8935 C   0  0  2  0  0  0  0  0  0  0  0  0
   -2.5679   -1.4360   23.3494 O   0  0  0  0  0  0  0  0  0  0  0  0
   -0.5627   -0.1131   23.8805 C   0  0  1  0  0  0  0  0  0  0  0  0
   -1.3622    0.9070   24.6270 N   0  0  0  0  0  0  0  0  0  0  0  0
    0.8851   -0.2812   24.5183 C   0  0  2  0  0  0  0  0  0  0  0  0
    1.5798    0.9719   24.5411 O   0  0  0  0  0  0  0  0  0  0  0  0
    1.6687   -1.3625   23.6781 C   0  0  2  0  0  0  0  0  0  0  0  0
    0.9188   -2.6878   23.6683 O   0  0  0  0  0  0  0  0  0  0  0  0
    3.0518   -1.5918   24.2391 C   0  0  0  0  0  0  0  0  0  0  0  0
    3.0630   -2.5440   25.3189 O   0  0  0  0  0  0  0  0  0  0  0  0
    4.3050   -8.1778   20.6678 O   0  0  0  0  0  0  0  0  0  0  0  0
    4.8020   -8.2821   23.4726 O   0  0  0  0  0  0  0  0  0  0  0  0
    1.9151    0.9605   20.3415 C   0  0  0  0  0  0  0  0  0  0  0  0
    3.0639    1.0043   20.8739 O   0  0  0  0  0  0  0  0  0  0  0  0
    1.3603    2.1211   19.4598 C   0  0  2  0  0  0  0  0  0  0  0  0
   -0.4065    0.3962   16.5247 N   0  0  0  0  0  0  0  0  0  0  0  0
    0.1406    1.6446   18.6120 C   0  0  0  0  0  0  0  0  0  0  0  0
    0.4521    0.4217   17.7331 C   0  0  0  0  0  0  0  0  0  0  0  0
    2.2125    2.5464   18.6167 O   0  0  0  0  0  0  0  0  0  0  0  0
  1  2  1  1  0  0  0
  1  3  1  0  0  0  0
  1  8  1  0  0  0  0
  3  4  1  0  0  0  0
  3 32  1  6  0  0  0
  4  5  1  0  0  0  0
  4 33  1  1  0  0  0
  5  6  1  1  0  0  0
  5  7  1  0  0  0  0
  7  8  1  0  0  0  0
  7  9  1  1  0  0  0
  9 10  1  0  0  0  0
 11 12  1  6  0  0  0
 11 13  1  0  0  0  0
 11 19  1  0  0  0  0
 12 34  1  0  0  0  0
 13 14  1  0  0  0  0
 14 15  1  6  0  0  0
 14 16  1  0  0  0  0
 16  2  1  1  0  0  0
 16 17  1  0  0  0  0
 17 18  1  6  0  0  0
 17 19  1  0  0  0  0
 19 20  1  1  0  0  0
 21 20  1  6  0  0  0
 21 22  1  0  0  0  0
 21 29  1  0  0  0  0
 22 23  1  6  0  0  0
 22 24  1  0  0  0  0
 24 25  1  1  0  0  0
 24 26  1  0  0  0  0
 26 27  1  6  0  0  0
 26 28  1  0  0  0  0
 28 29  1  0  0  0  0
 28 30  1  1  0  0  0
 30 31  1  0  0  0  0
 34 35  2  0  0  0  0
 36 34  1  6  0  0  0
 36 38  1  0  0  0  0
 36 40  1  0  0  0  0
 37 39  1  0  0  0  0
 38 39  1  0  0  0  0
M  END
>  <CHROM.1>
165.81587987,-10.69695506,43.85614243,-49.13142131,-88.47034732,150.99503554
84.54895858,-16.76600770,-55.78720081,-152.27015470,2.24785213,-2.55270398
21.85805874,-0.51279695,0.92231338,-1.21075685

>  <Name>
ligand

>  <RI>
0

>  <Rbt.Current_Directory>
/home/itssahil/PROJECTS/Mol_Feturizer/New_Systems/rnas/4P20

>  <Rbt.Executable>
rbdock ($Id: //depot/dev/client3/rdock/2013.1/src/exe/rbdock.cxx#4 $)

>  <Rbt.Library>
libRbt.so (2013.1, Build901 2013/11/27)

>  <Rbt.Parameter_File>
/export/apps/rDock/src/rDock_2013.1_src/data/scripts/dock_solv.prm

>  <Rbt.Receptor>
prm/blind_docking_100.prm

>  <SCORE>
36.4993

>  <SCORE.INTER>
9.31381

>  <SCORE.INTER.CONST>
1

>  <SCORE.INTER.POLAR>
0

>  <SCORE.INTER.ROT>
10

>  <SCORE.INTER.SOLV>
38.4752

>  <SCORE.INTER.VDW>
-16.8825

>  <SCORE.INTER.norm>
0.232845

>  <SCORE.INTRA>
10.4364

>  <SCORE.INTRA.DIHEDRAL>
-6.40783

>  <SCORE.INTRA.DIHEDRAL.0>
28.2802

>  <SCORE.INTRA.POLAR>
0

>  <SCORE.INTRA.POLAR.0>
0

>  <SCORE.INTRA.REPUL>
0

>  <SCORE.INTRA.REPUL.0>
0

>  <SCORE.INTRA.SOLV>
5.33387

>  <SCORE.INTRA.SOLV.lig_0>
-101.981

>  <SCORE.INTRA.VDW>
10.9733

>  <SCORE.INTRA.VDW.0>
-5.72964

>  <SCORE.INTRA.norm>
0.260909

>  <SCORE.RESTR>
16.7491

>  <SCORE.RESTR.CAVITY>
16.7491

>  <SCORE.RESTR.norm>
0.418728

>  <SCORE.SYSTEM>
0

>  <SCORE.SYSTEM.CONST>
0

>  <SCORE.SYSTEM.DIHEDRAL>
0

>  <SCORE.SYSTEM.SOLV>
0

>  <SCORE.SYSTEM.norm>
0

>  <SCORE.heavy>
40

>  <SCORE.norm>
0.912483

>  <RMSD>
10.461

$$$$
ligand
 OpenBabel11021811503D
libRbt.so/2013.1/901 2013/11/27
 40 42  0  0  0  0  0  0  0  0999 V2000
    4.8800   -5.5075   20.8300 C   0  0  2  0  0  0  0  0  0  0  0  0
    3.4633   -5.3979   20.6203 O   0  0  0  0  0  0  0  0  0  0  0  0
    5.3411   -7.0093   20.7235 C   0  0  1  0  0  0  0  0  0  0  0  0
    4.7434   -7.8739   21.8716 C   0  0  2  0  0  0  0  0  0  0  0  0
    5.2355   -7.2713   23.2254 C   0  0  2  0  0  0  0  0  0  0  0  0
    4.7201   -8.0659   24.3151 O   0  0  0  0  0  0  0  0  0  0  0  0
    4.7184   -5.7700   23.3266 C   0  0  2  0  0  0  0  0  0  0  0  0
    5.2639   -4.9681   22.1736 O   0  0  0  0  0  0  0  0  0  0  0  0
    5.1659   -5.0841   24.6102 C   0  0  0  0  0  0  0  0  0  0  0  0
    4.0751   -5.0706   25.6352 N   0  0  0  0  0  0  0  0  0  0  0  0
    0.8087   -1.9757   21.3760 C   0  0  2  0  0  0  0  0  0  0  0  0
    0.0021   -1.0155   22.0928 N   0  0  0  0  0  0  0  0  0  0  0  0
    0.2463   -3.4327   21.6286 C   0  0  0  0  0  0  0  0  0  0  0  0
    1.1301   -4.5047   20.8471 C   0  0  2  0  0  0  0  0  0  0  0  0
    0.5905   -5.8713   21.0722 N   0  0  0  0  0  0  0  0  0  0  0  0
    2.6473   -4.3937   21.3396 C   0  0  2  0  0  0  0  0  0  0  0  0
    3.1642   -2.9171   21.0671 C   0  0  2  0  0  0  0  0  0  0  0  0
    4.5219   -2.8087   21.5009 O   0  0  0  0  0  0  0  0  0  0  0  0
    2.2774   -1.8657   21.8440 C   0  0  1  0  0  0  0  0  0  0  0  0
    2.7486   -0.5231   21.5684 O   0  0  0  0  0  0  0  0  0  0  0  0
    3.2655   -0.0875   20.3568 C   0  0  2  0  0  0  0  0  0  0  0  0
    3.4061    1.4742   20.4378 C   0  0  2  0  0  0  0  0  0  0  0  0
    4.2207    1.8169   21.5121 O   0  0  0  0  0  0  0  0  0  0  0  0
    1.9919    2.1892   20.5390 C   0  0  1  0  0  0  0  0  0  0  0  0
    2.1484    3.6753   20.6024 N   0  0  0  0  0  0  0  0  0  0  0  0
    1.1140    1.7612   19.2831 C   0  0  2  0  0  0  0  0  0  0  0  0
   -0.1717    2.3929   19.3220 O   0  0  0  0  0  0  0  0  0  0  0  0
    0.9870    0.1887   19.2863 C   0  0  2  0  0  0  0  0  0  0  0  0
    2.3613   -0.4653   19.2404 O   0  0  0  0  0  0  0  0  0  0  0  0
    0.1795   -0.2957   18.1057 C   0  0  0  0  0  0  0  0  0  0  0  0
   -1.0842    0.3826   17.9807 O   0  0  0  0  0  0  0  0  0  0  0  0
    4.9297   -7.5231   19.4232 O   0  0  0  0  0  0  0  0  0  0  0  0
    5.1869   -9.1674   21.7373 O   0  0  0  0  0  0  0  0  0  0  0  0
   -0.5548   -1.3853   23.3734 C   0  0  0  0  0  0  0  0  0  0  0  0
   -0.7182   -2.6086   23.6591 O   0  0  0  0  0  0  0  0  0  0  0  0
   -0.9406   -0.2404   24.3598 C   0  0  2  0  0  0  0  0  0  0  0  0
    2.1851   -1.2293   24.5116 N   0  0  0  0  0  0  0  0  0  0  0  0
    0.3227    0.3286   25.0767 C   0  0  0  0  0  0  0  0  0  0  0  0
    1.6201    0.1213   24.2775 C   0  0  0  0  0  0  0  0  0  0  0  0
   -1.7094   -0.6358   25.2929 O   0  0  0  0  0  0  0  0  0  0  0  0
  1  2  1  1  0  0  0
  1  3  1  0  0  0  0
  1  8  1  0  0  0  0
  3  4  1  0  0  0  0
  3 32  1  6  0  0  0
  4  5  1  0  0  0  0
  4 33  1  6  0  0  0
  5  6  1  1  0  0  0
  5  7  1  0  0  0  0
  7  8  1  0  0  0  0
  7  9  1  1  0  0  0
  9 10  1  0  0  0  0
 11 12  1  1  0  0  0
 11 13  1  0  0  0  0
 11 19  1  0  0  0  0
 12 34  1  0  0  0  0
 13 14  1  0  0  0  0
 14 15  1  1  0  0  0
 14 16  1  0  0  0  0
 16  2  1  6  0  0  0
 16 17  1  0  0  0  0
 17 18  1  1  0  0  0
 17 19  1  0  0  0  0
 19 20  1  6  0  0  0
 21 20  1  1  0  0  0
 21 22  1  0  0  0  0
 21 29  1  0  0  0  0
 22 23  1  1  0  0  0
 22 24  1  0  0  0  0
 24 25  1  6  0  0  0
 24 26  1  0  0  0  0
 26 27  1  1  0  0  0
 26 28  1  0  0  0  0
 28 29  1  0  0  0  0
 28 30  1  6  0  0  0
 30 31  1  0  0  0  0
 34 35  2  0  0  0  0
 36 34  1  6  0  0  0
 36 38  1  0  0  0  0
 36 40  1  0  0  0  0
 37 39  1  0  0  0  0
 38 39  1  0  0  0  0
M  END
>  <CHROM.1>
145.49142407,178.20746833,-99.93523707,34.82521265,-84.69935535,170.20709662
-51.23808990,-78.41138239,24.92511118,-83.68465060,2.37067136,-2.53056895
21.74282927,-0.69706019,0.97381700,-0.94461393

>  <Name>
ligand

>  <RI>
0

>  <Rbt.Current_Directory>
/home/itssahil/PROJECTS/Mol_Feturizer/New_Systems/rnas/4P20

>  <Rbt.Executable>
rbdock ($Id: //depot/dev/client3/rdock/2013.1/src/exe/rbdock.cxx#4 $)

>  <Rbt.Library>
libRbt.so (2013.1, Build901 2013/11/27)

>  <Rbt.Parameter_File>
/export/apps/rDock/src/rDock_2013.1_src/data/scripts/dock_solv.prm

>  <Rbt.Receptor>
prm/blind_docking_100.prm

>  <SCORE>
60.7178

>  <SCORE.INTER>
33.2404

>  <SCORE.INTER.CONST>
1

>  <SCORE.INTER.POLAR>
0

>  <SCORE.INTER.ROT>
10

>  <SCORE.INTER.SOLV>
35.8967

>  <SCORE.INTER.VDW>
-0.0719344

>  <SCORE.INTER.norm>
0.831011

>  <SCORE.INTRA>
9.30782

>  <SCORE.INTRA.DIHEDRAL>
-9.80623

>  <SCORE.INTRA.DIHEDRAL.0>
28.2802

>  <SCORE.INTRA.POLAR>
0

>  <SCORE.INTRA.POLAR.0>
0

>  <SCORE.INTRA.REPUL>
0

>  <SCORE.INTRA.REPUL.0>
0

>  <SCORE.INTRA.SOLV>
6.81665

>  <SCORE.INTRA.SOLV.lig_0>
-101.981

>  <SCORE.INTRA.VDW>
10.8026

>  <SCORE.INTRA.VDW.0>
-5.72964

>  <SCORE.INTRA.norm>
0.232696

>  <SCORE.RESTR>
18.1695

>  <SCORE.RESTR.CAVITY>
18.1695

>  <SCORE.RESTR.norm>
0.454238

>  <SCORE.SYSTEM>
0

>  <SCORE.SYSTEM.CONST>
0

>  <SCORE.SYSTEM.DIHEDRAL>
0

>  <SCORE.SYSTEM.SOLV>
0

>  <SCORE.SYSTEM.norm>
0

>  <SCORE.heavy>
40

>  <SCORE.norm>
1.51794

>  <RMSD>
10.474

$$$$
ligand
 OpenBabel11021811513D
libRbt.so/2013.1/901 2013/11/27
 40 42  0  0  0  0  0  0  0  0999 V2000
    5.9495   -9.5842   20.9333 C   0  0  2  0  0  0  0  0  0  0  0  0
    4.9753   -8.8173   20.2082 O   0  0  0  0  0  0  0  0  0  0  0  0
    6.6626  -10.6157   19.9810 C   0  0  1  0  0  0  0  0  0  0  0  0
    5.6703  -11.6980   19.4643 C   0  0  2  0  0  0  0  0  0  0  0  0
    5.0947  -12.4467   20.7079 C   0  0  2  0  0  0  0  0  0  0  0  0
    4.1873  -13.4783   20.2640 O   0  0  0  0  0  0  0  0  0  0  0  0
    4.3422  -11.3899   21.6289 C   0  0  2  0  0  0  0  0  0  0  0  0
    5.3100  -10.3223   22.0689 O   0  0  0  0  0  0  0  0  0  0  0  0
    3.7593  -12.0218   22.8855 C   0  0  0  0  0  0  0  0  0  0  0  0
    2.9137  -11.0501   23.6479 N   0  0  0  0  0  0  0  0  0  0  0  0
    3.3885   -4.8235   21.1365 C   0  0  2  0  0  0  0  0  0  0  0  0
    2.6067   -3.7865   21.7688 N   0  0  0  0  0  0  0  0  0  0  0  0
    2.4216   -5.8774   20.4604 C   0  0  0  0  0  0  0  0  0  0  0  0
    3.2707   -7.0316   19.7620 C   0  0  2  0  0  0  0  0  0  0  0  0
    2.3611   -8.0120   19.1132 N   0  0  0  0  0  0  0  0  0  0  0  0
    4.1964   -7.7387   20.8574 C   0  0  2  0  0  0  0  0  0  0  0  0
    5.1446   -6.6426   21.5066 C   0  0  2  0  0  0  0  0  0  0  0  0
    5.9793   -7.2660   22.4853 O   0  0  0  0  0  0  0  0  0  0  0  0
    4.2903   -5.5038   22.1910 C   0  0  1  0  0  0  0  0  0  0  0  0
    5.1694   -4.5017   22.7598 O   0  0  0  0  0  0  0  0  0  0  0  0
    5.9798   -4.6835   23.8712 C   0  0  2  0  0  0  0  0  0  0  0  0
    5.1162   -4.3626   25.1425 C   0  0  2  0  0  0  0  0  0  0  0  0
    3.9946   -5.1852   25.1679 O   0  0  0  0  0  0  0  0  0  0  0  0
    4.7053   -2.8300   25.2051 C   0  0  1  0  0  0  0  0  0  0  0  0
    3.8947   -2.5441   26.4291 N   0  0  0  0  0  0  0  0  0  0  0  0
    6.0283   -1.9467   25.1780 C   0  0  2  0  0  0  0  0  0  0  0  0
    5.7099   -0.5512   25.2457 O   0  0  0  0  0  0  0  0  0  0  0  0
    6.8244   -2.2959   23.8614 C   0  0  2  0  0  0  0  0  0  0  0  0
    7.1577   -3.7807   23.8083 O   0  0  0  0  0  0  0  0  0  0  0  0
    8.1090   -1.5068   23.7754 C   0  0  0  0  0  0  0  0  0  0  0  0
    9.0816   -1.9196   24.7535 O   0  0  0  0  0  0  0  0  0  0  0  0
    7.2495   -9.8807   18.8677 O   0  0  0  0  0  0  0  0  0  0  0  0
    6.3461  -12.5755   18.6514 O   0  0  0  0  0  0  0  0  0  0  0  0
    2.2739   -2.6009   21.0135 C   0  0  0  0  0  0  0  0  0  0  0  0
    2.9862   -2.2667   20.0205 O   0  0  0  0  0  0  0  0  0  0  0  0
    1.0344   -1.7701   21.4673 C   0  0  2  0  0  0  0  0  0  0  0  0
    1.7068    1.1615   20.7489 N   0  0  0  0  0  0  0  0  0  0  0  0
    0.4526   -0.9414   20.2806 C   0  0  0  0  0  0  0  0  0  0  0  0
    1.4319    0.1127   19.7377 C   0  0  0  0  0  0  0  0  0  0  0  0
    1.3189   -0.9176   22.3675 O   0  0  0  0  0  0  0  0  0  0  0  0
  1  2  1  6  0  0  0
  1  3  1  0  0  0  0
  1  8  1  0  0  0  0
  3  4  1  0  0  0  0
  3 32  1  6  0  0  0
  4  5  1  0  0  0  0
  4 33  1  6  0  0  0
  5  6  1  6  0  0  0
  5  7  1  0  0  0  0
  7  8  1  0  0  0  0
  7  9  1  1  0  0  0
  9 10  1  0  0  0  0
 11 12  1  1  0  0  0
 11 13  1  0  0  0  0
 11 19  1  0  0  0  0
 12 34  1  0  0  0  0
 13 14  1  0  0  0  0
 14 15  1  1  0  0  0
 14 16  1  0  0  0  0
 16  2  1  6  0  0  0
 16 17  1  0  0  0  0
 17 18  1  1  0  0  0
 17 19  1  0  0  0  0
 19 20  1  6  0  0  0
 21 20  1  6  0  0  0
 21 22  1  0  0  0  0
 21 29  1  0  0  0  0
 22 23  1  6  0  0  0
 22 24  1  0  0  0  0
 24 25  1  1  0  0  0
 24 26  1  0  0  0  0
 26 27  1  6  0  0  0
 26 28  1  0  0  0  0
 28 29  1  0  0  0  0
 28 30  1  1  0  0  0
 30 31  1  0  0  0  0
 34 35  2  0  0  0  0
 36 34  1  6  0  0  0
 36 38  1  0  0  0  0
 36 40  1  0  0  0  0
 37 39  1  0  0  0  0
 38 39  1  0  0  0  0
M  END
>  <CHROM.1>
-177.64563147,176.68027049,-172.88672597,-91.41168199,169.85134846,-86.44242811
69.44222056,-155.70596736,-63.31432675,-65.47917436,4.51384175,-5.85698411
21.98996424,-1.42267421,-0.70365734,0.34220784

>  <Name>
ligand

>  <RI>
0

>  <Rbt.Current_Directory>
/home/itssahil/PROJECTS/Mol_Feturizer/New_Systems/rnas/4P20

>  <Rbt.Executable>
rbdock ($Id: //depot/dev/client3/rdock/2013.1/src/exe/rbdock.cxx#4 $)

>  <Rbt.Library>
libRbt.so (2013.1, Build901 2013/11/27)

>  <Rbt.Parameter_File>
/export/apps/rDock/src/rDock_2013.1_src/data/scripts/dock_solv.prm

>  <Rbt.Receptor>
prm/pocket_docking_7.prm

>  <SCORE>
-18.9522

>  <SCORE.INTER>
-11.2966

>  <SCORE.INTER.CONST>
1

>  <SCORE.INTER.POLAR>
0

>  <SCORE.INTER.ROT>
10

>  <SCORE.INTER.SOLV>
17.1193

>  <SCORE.INTER.VDW>
-23.5041

>  <SCORE.INTER.norm>
-0.282414

>  <SCORE.INTRA>
-7.65568

>  <SCORE.INTRA.DIHEDRAL>
-22.0578

>  <SCORE.INTRA.DIHEDRAL.0>
28.2802

>  <SCORE.INTRA.POLAR>
0

>  <SCORE.INTRA.POLAR.0>
0

>  <SCORE.INTRA.REPUL>
0

>  <SCORE.INTRA.REPUL.0>
0

>  <SCORE.INTRA.SOLV>
0.86454

>  <SCORE.INTRA.SOLV.lig_0>
-101.981

>  <SCORE.INTRA.VDW>
2.94096

>  <SCORE.INTRA.VDW.0>
-5.72964

>  <SCORE.INTRA.norm>
-0.191392

>  <SCORE.RESTR>
0

>  <SCORE.RESTR.CAVITY>
0

>  <SCORE.RESTR.norm>
0

>  <SCORE.SYSTEM>
0

>  <SCORE.SYSTEM.CONST>
0

>  <SCORE.SYSTEM.DIHEDRAL>
0

>  <SCORE.SYSTEM.SOLV>
0

>  <SCORE.SYSTEM.norm>
0

>  <SCORE.heavy>
40

>  <SCORE.norm>
-0.473806

>  <RMSD>
10.481

$$$$
ligand
 OpenBabel11021811513D
libRbt.so/2013.1/901 2013/11/27
 40 42  0  0  0  0  0  0  0  0999 V2000
    9.8727   -3.6772   24.3941 C   0  0  2  0  0  0  0  0  0  0  0  0
    8.9264   -3.6834   25.4745 O   0  0  0  0  0  0  0  0  0  0  0  0
   11.1419   -4.5324   24.7646 C   0  0  1  0  0  0  0  0  0  0  0  0
   11.9387   -3.8940   25.9395 C   0  0  2  0  0  0  0  0  0  0  0  0
   12.3840   -2.4662   25.4907 C   0  0  2  0  0  0  0  0  0  0  0  0
   13.1503   -1.8522   26.5492 O   0  0  0  0  0  0  0  0  0  0  0  0
   11.0822   -1.6109   25.1660 C   0  0  2  0  0  0  0  0  0  0  0  0
   10.2990   -2.2793   24.0660 O   0  0  0  0  0  0  0  0  0  0  0  0
   11.4127   -0.2005   24.6972 C   0  0  0  0  0  0  0  0  0  0  0  0
   10.2395    0.7171   24.8458 N   0  0  0  0  0  0  0  0  0  0  0  0
    4.5337   -3.8587   25.4149 C   0  0  2  0  0  0  0  0  0  0  0  0
    3.1611   -3.4495   25.2286 N   0  0  0  0  0  0  0  0  0  0  0  0
    5.2332   -2.9031   26.4639 C   0  0  0  0  0  0  0  0  0  0  0  0
    6.7514   -3.3398   26.6764 C   0  0  2  0  0  0  0  0  0  0  0  0
    7.4023   -2.4512   27.6745 N   0  0  0  0  0  0  0  0  0  0  0  0
    7.5142   -3.2883   25.2720 C   0  0  2  0  0  0  0  0  0  0  0  0
    6.7755   -4.2596   24.2557 C   0  0  2  0  0  0  0  0  0  0  0  0
    7.4527   -4.2233   22.9974 O   0  0  0  0  0  0  0  0  0  0  0  0
    5.2719   -3.8176   24.0579 C   0  0  1  0  0  0  0  0  0  0  0  0
    4.6068   -4.7256   23.1447 O   0  0  0  0  0  0  0  0  0  0  0  0
    5.0906   -5.1115   21.9030 C   0  0  2  0  0  0  0  0  0  0  0  0
    4.2436   -4.3632   20.8132 C   0  0  2  0  0  0  0  0  0  0  0  0
    4.3339   -2.9891   21.0103 O   0  0  0  0  0  0  0  0  0  0  0  0
    2.7303   -4.8441   20.8095 C   0  0  1  0  0  0  0  0  0  0  0  0
    1.9453   -4.1285   19.7566 N   0  0  0  0  0  0  0  0  0  0  0  0
    2.6966   -6.4174   20.5754 C   0  0  2  0  0  0  0  0  0  0  0  0
    1.3473   -6.8995   20.5509 O   0  0  0  0  0  0  0  0  0  0  0  0
    3.5355   -7.1022   21.7227 C   0  0  2  0  0  0  0  0  0  0  0  0
    4.9664   -6.5817   21.7311 O   0  0  0  0  0  0  0  0  0  0  0  0
    3.5660   -8.6026   21.5548 C   0  0  0  0  0  0  0  0  0  0  0  0
    4.2737   -9.2667   22.6182 O   0  0  0  0  0  0  0  0  0  0  0  0
   10.7017   -5.8779   25.1111 O   0  0  0  0  0  0  0  0  0  0  0  0
   13.0382   -4.6717   26.2115 O   0  0  0  0  0  0  0  0  0  0  0  0
    2.8565   -2.4542   24.2268 C   0  0  0  0  0  0  0  0  0  0  0  0
    3.7585   -1.6523   23.8417 O   0  0  0  0  0  0  0  0  0  0  0  0
    1.4042   -2.4094   23.6601 C   0  0  2  0  0  0  0  0  0  0  0  0
    0.3246   -1.3770   20.0823 N   0  0  0  0  0  0  0  0  0  0  0  0
    1.4144   -2.3524   22.1012 C   0  0  0  0  0  0  0  0  0  0  0  0
    0.1347   -1.7405   21.5070 C   0  0  0  0  0  0  0  0  0  0  0  0
    0.7648   -1.3745   24.0320 O   0  0  0  0  0  0  0  0  0  0  0  0
  1  2  1  1  0  0  0
  1  3  1  0  0  0  0
  1  8  1  0  0  0  0
  3  4  1  0  0  0  0
  3 32  1  1  0  0  0
  4  5  1  0  0  0  0
  4 33  1  6  0  0  0
  5  6  1  1  0  0  0
  5  7  1  0  0  0  0
  7  8  1  0  0  0  0
  7  9  1  6  0  0  0
  9 10  1  0  0  0  0
 11 12  1  6  0  0  0
 11 13  1  0  0  0  0
 11 19  1  0  0  0  0
 12 34  1  0  0  0  0
 13 14  1  0  0  0  0
 14 15  1  1  0  0  0
 14 16  1  0  0  0  0
 16  2  1  1  0  0  0
 16 17  1  0  0  0  0
 17 18  1  6  0  0  0
 17 19  1  0  0  0  0
 19 20  1  6  0  0  0
 21 20  1  1  0  0  0
 21 22  1  0  0  0  0
 21 29  1  0  0  0  0
 22 23  1  1  0  0  0
 22 24  1  0  0  0  0
 24 25  1  6  0  0  0
 24 26  1  0  0  0  0
 26 27  1  1  0  0  0
 26 28  1  0  0  0  0
 28 29  1  0  0  0  0
 28 30  1  6  0  0  0
 30 31  1  0  0  0  0
 34 35  2  0  0  0  0
 36 34  1  1  0  0  0
 36 38  1  0  0  0  0
 36 40  1  0  0  0  0
 37 39  1  0  0  0  0
 38 39  1  0  0  0  0
M  END
>  <CHROM.1>
-162.85250290,-177.39873683,-160.49468386,88.23451045,-169.83670619,-105.85383430
-177.40935319,-131.72811277,-156.27342945,164.97809501,6.08151879,-3.77175703
23.65282708,-0.28331941,0.33077288,-2.78323213

>  <Name>
ligand

>  <RI>
0

>  <Rbt.Current_Directory>
/home/itssahil/PROJECTS/Mol_Feturizer/New_Systems/rnas/4P20

>  <Rbt.Executable>
rbdock ($Id: //depot/dev/client3/rdock/2013.1/src/exe/rbdock.cxx#4 $)

>  <Rbt.Library>
libRbt.so (2013.1, Build901 2013/11/27)

>  <Rbt.Parameter_File>
/export/apps/rDock/src/rDock_2013.1_src/data/scripts/dock_solv.prm

>  <Rbt.Receptor>
prm/blind_docking_60.prm

>  <SCORE>
47.4192

>  <SCORE.INTER>
31.7158

>  <SCORE.INTER.CONST>
1

>  <SCORE.INTER.POLAR>
0

>  <SCORE.INTER.ROT>
10

>  <SCORE.INTER.SOLV>
29.5559

>  <SCORE.INTER.VDW>
1.02524

>  <SCORE.INTER.norm>
0.792895

>  <SCORE.INTRA>
-1.24639

>  <SCORE.INTRA.DIHEDRAL>
-13.4517

>  <SCORE.INTRA.DIHEDRAL.0>
28.2802

>  <SCORE.INTRA.POLAR>
0

>  <SCORE.INTRA.POLAR.0>
0

>  <SCORE.INTRA.REPUL>
0

>  <SCORE.INTRA.REPUL.0>
0

>  <SCORE.INTRA.SOLV>
2.84627

>  <SCORE.INTRA.SOLV.lig_0>
-101.981

>  <SCORE.INTRA.VDW>
4.05632

>  <SCORE.INTRA.VDW.0>
-5.72964

>  <SCORE.INTRA.norm>
-0.0311597

>  <SCORE.RESTR>
16.9498

>  <SCORE.RESTR.CAVITY>
16.9498

>  <SCORE.RESTR.norm>
0.423745

>  <SCORE.SYSTEM>
0

>  <SCORE.SYSTEM.CONST>
0

>  <SCORE.SYSTEM.DIHEDRAL>
0

>  <SCORE.SYSTEM.SOLV>
0

>  <SCORE.SYSTEM.norm>
0

>  <SCORE.heavy>
40

>  <SCORE.norm>
1.18548

>  <RMSD>
10.485

$$$$
ligand
 OpenBabel11021811503D
libRbt.so/2013.1/901 2013/11/27
 40 42  0  0  0  0  0  0  0  0999 V2000
    4.4385   -5.7413   20.6913 C   0  0  2  0  0  0  0  0  0  0  0  0
    3.0161   -5.5470   20.7360 O   0  0  0  0  0  0  0  0  0  0  0  0
    4.8300   -7.1191   21.3455 C   0  0  1  0  0  0  0  0  0  0  0  0
    4.5157   -7.1384   22.8698 C   0  0  2  0  0  0  0  0  0  0  0  0
    5.3368   -5.9908   23.5385 C   0  0  2  0  0  0  0  0  0  0  0  0
    5.0893   -5.9952   24.9609 O   0  0  0  0  0  0  0  0  0  0  0  0
    4.8897   -4.6078   22.8913 C   0  0  2  0  0  0  0  0  0  0  0  0
    5.1509   -4.6355   21.4077 O   0  0  0  0  0  0  0  0  0  0  0  0
    5.6518   -3.4214   23.4656 C   0  0  0  0  0  0  0  0  0  0  0  0
    5.0583   -2.1205   23.0230 N   0  0  0  0  0  0  0  0  0  0  0  0
    1.6294   -1.3782   20.9022 C   0  0  2  0  0  0  0  0  0  0  0  0
    1.0356   -0.1274   20.4904 N   0  0  0  0  0  0  0  0  0  0  0  0
    2.8396   -1.7297   19.9458 C   0  0  0  0  0  0  0  0  0  0  0  0
    3.5025   -3.1111   20.3853 C   0  0  2  0  0  0  0  0  0  0  0  0
    4.6496   -3.4316   19.4959 N   0  0  0  0  0  0  0  0  0  0  0  0
    2.3949   -4.2634   20.3383 C   0  0  2  0  0  0  0  0  0  0  0  0
    1.2040   -3.8646   21.3102 C   0  0  2  0  0  0  0  0  0  0  0  0
    0.2097   -4.8911   21.2781 O   0  0  0  0  0  0  0  0  0  0  0  0
    0.5596   -2.4927   20.8655 C   0  0  1  0  0  0  0  0  0  0  0  0
   -0.5109   -2.1329   21.7740 O   0  0  0  0  0  0  0  0  0  0  0  0
   -0.5974   -2.5180   23.1041 C   0  0  2  0  0  0  0  0  0  0  0  0
   -1.5209   -1.4809   23.8366 C   0  0  2  0  0  0  0  0  0  0  0  0
   -2.7659   -1.4416   23.2173 O   0  0  0  0  0  0  0  0  0  0  0  0
   -0.8607   -0.0377   23.8899 C   0  0  1  0  0  0  0  0  0  0  0  0
   -1.7507    0.9305   24.6021 N   0  0  0  0  0  0  0  0  0  0  0  0
    0.5525   -0.1507   24.6118 C   0  0  2  0  0  0  0  0  0  0  0  0
    1.1848    1.1325   24.6963 O   0  0  0  0  0  0  0  0  0  0  0  0
    1.4352   -1.1791   23.8041 C   0  0  2  0  0  0  0  0  0  0  0  0
    0.7505   -2.5370   23.7281 O   0  0  0  0  0  0  0  0  0  0  0  0
    2.7914   -1.3547   24.4445 C   0  0  0  0  0  0  0  0  0  0  0  0
    3.1330   -2.7377   24.6528 O   0  0  0  0  0  0  0  0  0  0  0  0
    4.1020   -8.1764   20.6554 O   0  0  0  0  0  0  0  0  0  0  0  0
    4.8874   -8.3546   23.3897 O   0  0  0  0  0  0  0  0  0  0  0  0
    1.8833    1.0312   20.3297 C   0  0  0  0  0  0  0  0  0  0  0  0
    2.9934    1.0881   20.9377 O   0  0  0  0  0  0  0  0  0  0  0  0
    1.3808    2.1806   19.4029 C   0  0  2  0  0  0  0  0  0  0  0  0
   -0.2124    0.3631   16.4641 N   0  0  0  0  0  0  0  0  0  0  0  0
    0.1801    1.7071   18.5268 C   0  0  0  0  0  0  0  0  0  0  0  0
    0.4494    0.3840   17.7906 C   0  0  0  0  0  0  0  0  0  0  0  0
    2.2684    2.5688   18.5786 O   0  0  0  0  0  0  0  0  0  0  0  0
  1  2  1  1  0  0  0
  1  3  1  0  0  0  0
  1  8  1  0  0  0  0
  3  4  1  0  0  0  0
  3 32  1  6  0  0  0
  4  5  1  0  0  0  0
  4 33  1  1  0  0  0
  5  6  1  1  0  0  0
  5  7  1  0  0  0  0
  7  8  1  0  0  0  0
  7  9  1  1  0  0  0
  9 10  1  0  0  0  0
 11 12  1  6  0  0  0
 11 13  1  0  0  0  0
 11 19  1  0  0  0  0
 12 34  1  0  0  0  0
 13 14  1  0  0  0  0
 14 15  1  6  0  0  0
 14 16  1  0  0  0  0
 16  2  1  1  0  0  0
 16 17  1  0  0  0  0
 17 18  1  6  0  0  0
 17 19  1  0  0  0  0
 19 20  1  1  0  0  0
 21 20  1  6  0  0  0
 21 22  1  0  0  0  0
 21 29  1  0  0  0  0
 22 23  1  6  0  0  0
 22 24  1  0  0  0  0
 24 25  1  1  0  0  0
 24 26  1  0  0  0  0
 26 27  1  6  0  0  0
 26 28  1  0  0  0  0
 28 29  1  0  0  0  0
 28 30  1  1  0  0  0
 30 31  1  0  0  0  0
 34 35  2  0  0  0  0
 36 34  1  6  0  0  0
 36 38  1  0  0  0  0
 36 40  1  0  0  0  0
 37 39  1  0  0  0  0
 38 39  1  0  0  0  0
M  END
>  <CHROM.1>
172.45439465,-19.48971590,-170.14120027,-52.63349874,-92.75322649,157.13499390
129.34669087,-14.09919691,-50.33268349,-145.69218573,2.15214121,-2.48742442
21.82883623,-0.57078574,0.89193537,-1.09207133

>  <Name>
ligand

>  <RI>
0

>  <Rbt.Current_Directory>
/home/itssahil/PROJECTS/Mol_Feturizer/New_Systems/rnas/4P20

>  <Rbt.Executable>
rbdock ($Id: //depot/dev/client3/rdock/2013.1/src/exe/rbdock.cxx#4 $)

>  <Rbt.Library>
libRbt.so (2013.1, Build901 2013/11/27)

>  <Rbt.Parameter_File>
/export/apps/rDock/src/rDock_2013.1_src/data/scripts/dock_solv.prm

>  <Rbt.Receptor>
prm/blind_docking_100.prm

>  <SCORE>
36.9734

>  <SCORE.INTER>
8.50524

>  <SCORE.INTER.CONST>
1

>  <SCORE.INTER.POLAR>
0

>  <SCORE.INTER.ROT>
10

>  <SCORE.INTER.SOLV>
35.1406

>  <SCORE.INTER.VDW>
-16.31

>  <SCORE.INTER.norm>
0.212631

>  <SCORE.INTRA>
11.9998

>  <SCORE.INTRA.DIHEDRAL>
-4.83434

>  <SCORE.INTRA.DIHEDRAL.0>
28.2802

>  <SCORE.INTRA.POLAR>
0

>  <SCORE.INTRA.POLAR.0>
0

>  <SCORE.INTRA.REPUL>
0.0311497

>  <SCORE.INTRA.REPUL.0>
0

>  <SCORE.INTRA.SOLV>
8.96466

>  <SCORE.INTRA.SOLV.lig_0>
-101.981

>  <SCORE.INTRA.VDW>
9.77892

>  <SCORE.INTRA.VDW.0>
-5.72964

>  <SCORE.INTRA.norm>
0.299996

>  <SCORE.RESTR>
16.4683

>  <SCORE.RESTR.CAVITY>
16.4683

>  <SCORE.RESTR.norm>
0.411708

>  <SCORE.SYSTEM>
0

>  <SCORE.SYSTEM.CONST>
0

>  <SCORE.SYSTEM.DIHEDRAL>
0

>  <SCORE.SYSTEM.SOLV>
0

>  <SCORE.SYSTEM.norm>
0

>  <SCORE.heavy>
40

>  <SCORE.norm>
0.924335

>  <RMSD>
10.488

$$$$
ligand
 OpenBabel11021811503D
libRbt.so/2013.1/901 2013/11/27
 40 42  0  0  0  0  0  0  0  0999 V2000
    4.5501   -5.7152   20.7705 C   0  0  2  0  0  0  0  0  0  0  0  0
    3.1243   -5.5976   20.6425 O   0  0  0  0  0  0  0  0  0  0  0  0
    4.9317   -7.0583   21.4984 C   0  0  1  0  0  0  0  0  0  0  0  0
    4.4397   -7.0686   22.9751 C   0  0  2  0  0  0  0  0  0  0  0  0
    5.1148   -5.8669   23.7089 C   0  0  2  0  0  0  0  0  0  0  0  0
    4.7003   -5.8604   25.0919 O   0  0  0  0  0  0  0  0  0  0  0  0
    4.6769   -4.5215   22.9812 C   0  0  2  0  0  0  0  0  0  0  0  0
    5.1139   -4.5603   21.5398 O   0  0  0  0  0  0  0  0  0  0  0  0
    5.3028   -3.2859   23.6135 C   0  0  0  0  0  0  0  0  0  0  0  0
    6.7855   -3.4329   23.7567 N   0  0  0  0  0  0  0  0  0  0  0  0
    1.6865   -1.4492   20.8733 C   0  0  2  0  0  0  0  0  0  0  0  0
    1.0713   -0.2018   20.4833 N   0  0  0  0  0  0  0  0  0  0  0  0
    2.8883   -1.7744   19.8971 C   0  0  0  0  0  0  0  0  0  0  0  0
    3.5747   -3.1518   20.3124 C   0  0  2  0  0  0  0  0  0  0  0  0
    4.7138   -3.4477   19.4045 N   0  0  0  0  0  0  0  0  0  0  0  0
    2.4814   -4.3179   20.2674 C   0  0  2  0  0  0  0  0  0  0  0  0
    1.2986   -3.9453   21.2593 C   0  0  2  0  0  0  0  0  0  0  0  0
    0.3173   -4.9841   21.2289 O   0  0  0  0  0  0  0  0  0  0  0  0
    0.6307   -2.5770   20.8384 C   0  0  1  0  0  0  0  0  0  0  0  0
   -0.4320   -2.2411   21.7649 O   0  0  0  0  0  0  0  0  0  0  0  0
   -0.4639   -2.5867   23.1082 C   0  0  2  0  0  0  0  0  0  0  0  0
   -1.3269   -1.5071   23.8530 C   0  0  2  0  0  0  0  0  0  0  0  0
   -2.5988   -1.4543   23.2920 O   0  0  0  0  0  0  0  0  0  0  0  0
   -0.6314   -0.0797   23.8332 C   0  0  1  0  0  0  0  0  0  0  0  0
   -1.4634    0.9297   24.5581 N   0  0  0  0  0  0  0  0  0  0  0  0
    0.8117   -0.2075   24.4908 C   0  0  2  0  0  0  0  0  0  0  0  0
    1.4771    1.0615   24.5082 O   0  0  0  0  0  0  0  0  0  0  0  0
    1.6305   -1.2795   23.6727 C   0  0  2  0  0  0  0  0  0  0  0  0
    0.9114   -2.6217   23.6684 O   0  0  0  0  0  0  0  0  0  0  0  0
    3.0113   -1.4707   24.2534 C   0  0  0  0  0  0  0  0  0  0  0  0
    3.0393   -2.4470   25.3111 O   0  0  0  0  0  0  0  0  0  0  0  0
    4.3469   -8.1652   20.7522 O   0  0  0  0  0  0  0  0  0  0  0  0
    4.8094   -8.2538   23.5635 O   0  0  0  0  0  0  0  0  0  0  0  0
    1.9145    0.9347   20.1931 C   0  0  0  0  0  0  0  0  0  0  0  0
    3.0837    0.9909   20.6774 O   0  0  0  0  0  0  0  0  0  0  0  0
    1.3334    2.0619   19.2851 C   0  0  2  0  0  0  0  0  0  0  0  0
   -0.9484    0.4268   18.2551 N   0  0  0  0  0  0  0  0  0  0  0  0
    1.2147    1.5819   17.8056 C   0  0  0  0  0  0  0  0  0  0  0  0
    0.3981    0.2880   17.6502 C   0  0  0  0  0  0  0  0  0  0  0  0
    2.0775    3.0929   19.2473 O   0  0  0  0  0  0  0  0  0  0  0  0
  1  2  1  1  0  0  0
  1  3  1  0  0  0  0
  1  8  1  0  0  0  0
  3  4  1  0  0  0  0
  3 32  1  6  0  0  0
  4  5  1  0  0  0  0
  4 33  1  1  0  0  0
  5  6  1  1  0  0  0
  5  7  1  0  0  0  0
  7  8  1  0  0  0  0
  7  9  1  1  0  0  0
  9 10  1  0  0  0  0
 11 12  1  6  0  0  0
 11 13  1  0  0  0  0
 11 19  1  0  0  0  0
 12 34  1  0  0  0  0
 13 14  1  0  0  0  0
 14 15  1  6  0  0  0
 14 16  1  0  0  0  0
 16  2  1  1  0  0  0
 16 17  1  0  0  0  0
 17 18  1  6  0  0  0
 17 19  1  0  0  0  0
 19 20  1  1  0  0  0
 21 20  1  6  0  0  0
 21 22  1  0  0  0  0
 21 29  1  0  0  0  0
 22 23  1  6  0  0  0
 22 24  1  0  0  0  0
 24 25  1  1  0  0  0
 24 26  1  0  0  0  0
 26 27  1  6  0  0  0
 26 28  1  0  0  0  0
 28 29  1  0  0  0  0
 28 30  1  1  0  0  0
 30 31  1  0  0  0  0
 34 35  2  0  0  0  0
 36 34  1  1  0  0  0
 36 38  1  0  0  0  0
 36 40  1  0  0  0  0
 37 39  1  0  0  0  0
 38 39  1  0  0  0  0
M  END
>  <CHROM.1>
166.58292636,-10.01284767,51.04387065,-46.45072532,-89.42633074,152.74902191
86.69971944,-71.36704133,54.92209182,55.10846788,2.24603545,-2.51977525,21.89565702
-0.58250964,0.89299713,-1.10354940

>  <Name>
ligand

>  <RI>
0

>  <Rbt.Current_Directory>
/home/itssahil/PROJECTS/Mol_Feturizer/New_Systems/rnas/4P20

>  <Rbt.Executable>
rbdock ($Id: //depot/dev/client3/rdock/2013.1/src/exe/rbdock.cxx#4 $)

>  <Rbt.Library>
libRbt.so (2013.1, Build901 2013/11/27)

>  <Rbt.Parameter_File>
/export/apps/rDock/src/rDock_2013.1_src/data/scripts/dock_solv.prm

>  <Rbt.Receptor>
prm/blind_docking_100.prm

>  <SCORE>
33.8433

>  <SCORE.INTER>
9.34665

>  <SCORE.INTER.CONST>
1

>  <SCORE.INTER.POLAR>
0

>  <SCORE.INTER.ROT>
10

>  <SCORE.INTER.SOLV>
36.6969

>  <SCORE.INTER.VDW>
-16.2679

>  <SCORE.INTER.norm>
0.233666

>  <SCORE.INTRA>
7.78051

>  <SCORE.INTRA.DIHEDRAL>
-10.3766

>  <SCORE.INTRA.DIHEDRAL.0>
28.2802

>  <SCORE.INTRA.POLAR>
0

>  <SCORE.INTRA.POLAR.0>
0

>  <SCORE.INTRA.REPUL>
0

>  <SCORE.INTRA.REPUL.0>
0

>  <SCORE.INTRA.SOLV>
7.63389

>  <SCORE.INTRA.SOLV.lig_0>
-101.981

>  <SCORE.INTRA.VDW>
9.15188

>  <SCORE.INTRA.VDW.0>
-5.72964

>  <SCORE.INTRA.norm>
0.194513

>  <SCORE.RESTR>
16.7162

>  <SCORE.RESTR.CAVITY>
16.7162

>  <SCORE.RESTR.norm>
0.417905

>  <SCORE.SYSTEM>
0

>  <SCORE.SYSTEM.CONST>
0

>  <SCORE.SYSTEM.DIHEDRAL>
0

>  <SCORE.SYSTEM.SOLV>
0

>  <SCORE.SYSTEM.norm>
0

>  <SCORE.heavy>
40

>  <SCORE.norm>
0.846084

>  <RMSD>
10.489

$$$$
ligand
 OpenBabel11021811513D
libRbt.so/2013.1/901 2013/11/27
 40 42  0  0  0  0  0  0  0  0999 V2000
    5.8898   -9.2452   20.7031 C   0  0  2  0  0  0  0  0  0  0  0  0
    4.9632   -8.3912   20.0139 O   0  0  0  0  0  0  0  0  0  0  0  0
    6.3971  -10.3933   19.7524 C   0  0  1  0  0  0  0  0  0  0  0  0
    5.2440  -11.3624   19.3600 C   0  0  2  0  0  0  0  0  0  0  0  0
    4.6789  -11.9854   20.6756 C   0  0  2  0  0  0  0  0  0  0  0  0
    3.6215  -12.9120   20.3473 O   0  0  0  0  0  0  0  0  0  0  0  0
    4.1332  -10.8085   21.5968 C   0  0  2  0  0  0  0  0  0  0  0  0
    5.2545   -9.8538   21.9154 O   0  0  0  0  0  0  0  0  0  0  0  0
    3.5761  -11.3142   22.9205 C   0  0  0  0  0  0  0  0  0  0  0  0
    2.3271  -12.1146   22.7213 N   0  0  0  0  0  0  0  0  0  0  0  0
    3.3478   -4.4854   21.2243 C   0  0  2  0  0  0  0  0  0  0  0  0
    2.5510   -3.5027   21.9213 N   0  0  0  0  0  0  0  0  0  0  0  0
    2.3970   -5.4836   20.4481 C   0  0  0  0  0  0  0  0  0  0  0  0
    3.2627   -6.5778   19.6773 C   0  0  2  0  0  0  0  0  0  0  0  0
    2.3685   -7.5049   18.9353 N   0  0  0  0  0  0  0  0  0  0  0  0
    4.1689   -7.3683   20.7312 C   0  0  2  0  0  0  0  0  0  0  0  0
    5.1014   -6.3260   21.4835 C   0  0  2  0  0  0  0  0  0  0  0  0
    5.9187   -7.0239   22.4259 O   0  0  0  0  0  0  0  0  0  0  0  0
    4.2308   -5.2460   22.2391 C   0  0  1  0  0  0  0  0  0  0  0  0
    5.0960   -4.2910   22.9025 O   0  0  0  0  0  0  0  0  0  0  0  0
    5.9169   -4.5699   23.9856 C   0  0  2  0  0  0  0  0  0  0  0  0
    5.1275   -4.1858   25.2873 C   0  0  2  0  0  0  0  0  0  0  0  0
    3.9310   -4.8937   25.3367 O   0  0  0  0  0  0  0  0  0  0  0  0
    4.8729   -2.6213   25.3827 C   0  0  1  0  0  0  0  0  0  0  0  0
    4.1314   -2.2764   26.6349 N   0  0  0  0  0  0  0  0  0  0  0  0
    6.2757   -1.8729   25.3261 C   0  0  2  0  0  0  0  0  0  0  0  0
    6.0997   -0.4540   25.4219 O   0  0  0  0  0  0  0  0  0  0  0  0
    6.9938   -2.2778   23.9809 C   0  0  2  0  0  0  0  0  0  0  0  0
    7.1763   -3.7872   23.8981 O   0  0  0  0  0  0  0  0  0  0  0  0
    8.3474   -1.6183   23.8654 C   0  0  0  0  0  0  0  0  0  0  0  0
    9.2744   -2.0720   24.8693 O   0  0  0  0  0  0  0  0  0  0  0  0
    6.9817   -9.7804   18.5664 O   0  0  0  0  0  0  0  0  0  0  0  0
    5.7437  -12.3478   18.5433 O   0  0  0  0  0  0  0  0  0  0  0  0
    1.5509   -2.7629   21.1869 C   0  0  0  0  0  0  0  0  0  0  0  0
    1.6555   -2.6398   19.9304 O   0  0  0  0  0  0  0  0  0  0  0  0
    0.3709   -2.1347   21.9905 C   0  0  2  0  0  0  0  0  0  0  0  0
    0.9245    0.8773   22.2757 N   0  0  0  0  0  0  0  0  0  0  0  0
    0.8904   -1.4086   23.2698 C   0  0  0  0  0  0  0  0  0  0  0  0
    1.7330   -0.1600   22.9600 C   0  0  0  0  0  0  0  0  0  0  0  0
   -0.4559   -3.0063   22.4087 O   0  0  0  0  0  0  0  0  0  0  0  0
  1  2  1  6  0  0  0
  1  3  1  0  0  0  0
  1  8  1  0  0  0  0
  3  4  1  0  0  0  0
  3 32  1  6  0  0  0
  4  5  1  0  0  0  0
  4 33  1  6  0  0  0
  5  6  1  6  0  0  0
  5  7  1  0  0  0  0
  7  8  1  0  0  0  0
  7  9  1  1  0  0  0
  9 10  1  0  0  0  0
 11 12  1  1  0  0  0
 11 13  1  0  0  0  0
 11 19  1  0  0  0  0
 12 34  1  0  0  0  0
 13 14  1  0  0  0  0
 14 15  1  1  0  0  0
 14 16  1  0  0  0  0
 16  2  1  6  0  0  0
 16 17  1  0  0  0  0
 17 18  1  1  0  0  0
 17 19  1  0  0  0  0
 19 20  1  6  0  0  0
 21 20  1  6  0  0  0
 21 22  1  0  0  0  0
 21 29  1  0  0  0  0
 22 23  1  6  0  0  0
 22 24  1  0  0  0  0
 24 25  1  1  0  0  0
 24 26  1  0  0  0  0
 26 27  1  6  0  0  0
 26 28  1  0  0  0  0
 28 29  1  0  0  0  0
 28 30  1  1  0  0  0
 30 31  1  0  0  0  0
 34 35  2  0  0  0  0
 36 34  1  1  0  0  0
 36 38  1  0  0  0  0
 36 40  1  0  0  0  0
 37 39  1  0  0  0  0
 38 39  1  0  0  0  0
M  END
>  <CHROM.1>
169.92232150,178.99083714,-67.61615908,-52.24742477,171.99403924,-94.92570638
65.25653563,45.66191517,67.16771271,63.83459726,4.33149998,-5.77174045,22.17789709
-1.49300926,-0.42640510,0.39952368

>  <Name>
ligand

>  <RI>
0

>  <Rbt.Current_Directory>
/home/itssahil/PROJECTS/Mol_Feturizer/New_Systems/rnas/4P20

>  <Rbt.Executable>
rbdock ($Id: //depot/dev/client3/rdock/2013.1/src/exe/rbdock.cxx#4 $)

>  <Rbt.Library>
libRbt.so (2013.1, Build901 2013/11/27)

>  <Rbt.Parameter_File>
/export/apps/rDock/src/rDock_2013.1_src/data/scripts/dock_solv.prm

>  <Rbt.Receptor>
prm/pocket_docking_7.prm

>  <SCORE>
-21.4452

>  <SCORE.INTER>
-13.0535

>  <SCORE.INTER.CONST>
1

>  <SCORE.INTER.POLAR>
0

>  <SCORE.INTER.ROT>
10

>  <SCORE.INTER.SOLV>
16.6333

>  <SCORE.INTER.VDW>
-24.5135

>  <SCORE.INTER.norm>
-0.326338

>  <SCORE.INTRA>
-8.39164

>  <SCORE.INTRA.DIHEDRAL>
-21.3324

>  <SCORE.INTRA.DIHEDRAL.0>
28.2802

>  <SCORE.INTRA.POLAR>
0

>  <SCORE.INTRA.POLAR.0>
0

>  <SCORE.INTRA.REPUL>
0

>  <SCORE.INTRA.REPUL.0>
0

>  <SCORE.INTRA.SOLV>
0.423376

>  <SCORE.INTRA.SOLV.lig_0>
-101.981

>  <SCORE.INTRA.VDW>
2.06288

>  <SCORE.INTRA.VDW.0>
-5.72964

>  <SCORE.INTRA.norm>
-0.209791

>  <SCORE.RESTR>
0

>  <SCORE.RESTR.CAVITY>
0

>  <SCORE.RESTR.norm>
0

>  <SCORE.SYSTEM>
0

>  <SCORE.SYSTEM.CONST>
0

>  <SCORE.SYSTEM.DIHEDRAL>
0

>  <SCORE.SYSTEM.SOLV>
0

>  <SCORE.SYSTEM.norm>
0

>  <SCORE.heavy>
40

>  <SCORE.norm>
-0.536129

>  <RMSD>
10.510

$$$$
ligand
 OpenBabel11021811503D
libRbt.so/2013.1/901 2013/11/27
 40 42  0  0  0  0  0  0  0  0999 V2000
    4.6272   -5.6997   20.7213 C   0  0  2  0  0  0  0  0  0  0  0  0
    3.1998   -5.6093   20.5902 O   0  0  0  0  0  0  0  0  0  0  0  0
    5.0587   -7.1725   21.0734 C   0  0  1  0  0  0  0  0  0  0  0  0
    4.5444   -7.5986   22.4794 C   0  0  2  0  0  0  0  0  0  0  0  0
    5.1518   -6.6121   23.5263 C   0  0  2  0  0  0  0  0  0  0  0  0
    4.7156   -6.9938   24.8486 O   0  0  0  0  0  0  0  0  0  0  0  0
    4.6640   -5.1393   23.1734 C   0  0  2  0  0  0  0  0  0  0  0  0
    5.1251   -4.7721   21.7868 O   0  0  0  0  0  0  0  0  0  0  0  0
    5.2222   -4.0948   24.1302 C   0  0  0  0  0  0  0  0  0  0  0  0
    6.7106   -3.9842   24.0157 N   0  0  0  0  0  0  0  0  0  0  0  0
    1.6560   -1.5057   20.9175 C   0  0  2  0  0  0  0  0  0  0  0  0
    1.0162   -0.2628   20.5539 N   0  0  0  0  0  0  0  0  0  0  0  0
    2.8805   -1.7728   19.9521 C   0  0  0  0  0  0  0  0  0  0  0  0
    3.5944   -3.1447   20.3384 C   0  0  2  0  0  0  0  0  0  0  0  0
    4.7545   -3.3859   19.4410 N   0  0  0  0  0  0  0  0  0  0  0  0
    2.5312   -4.3352   20.2418 C   0  0  2  0  0  0  0  0  0  0  0  0
    1.3242   -4.0207   21.2247 C   0  0  2  0  0  0  0  0  0  0  0  0
    0.3695   -5.0819   21.1483 O   0  0  0  0  0  0  0  0  0  0  0  0
    0.6292   -2.6574   20.8328 C   0  0  1  0  0  0  0  0  0  0  0  0
   -0.4558   -2.3748   21.7513 O   0  0  0  0  0  0  0  0  0  0  0  0
   -0.4789   -2.7183   23.0953 C   0  0  2  0  0  0  0  0  0  0  0  0
   -1.2902   -1.6076   23.8523 C   0  0  2  0  0  0  0  0  0  0  0  0
   -2.5681   -1.5090   23.3115 O   0  0  0  0  0  0  0  0  0  0  0  0
   -0.5438   -0.2064   23.8199 C   0  0  1  0  0  0  0  0  0  0  0  0
   -1.3272    0.8330   24.5567 N   0  0  0  0  0  0  0  0  0  0  0  0
    0.9039   -0.3860   24.4547 C   0  0  2  0  0  0  0  0  0  0  0  0
    1.6151    0.8581   24.4601 O   0  0  0  0  0  0  0  0  0  0  0  0
    1.6702   -1.4875   23.6249 C   0  0  2  0  0  0  0  0  0  0  0  0
    0.9030   -2.8028   23.6336 O   0  0  0  0  0  0  0  0  0  0  0  0
    3.0522   -1.7283   24.1839 C   0  0  0  0  0  0  0  0  0  0  0  0
    3.9454   -0.6228   23.9538 O   0  0  0  0  0  0  0  0  0  0  0  0
    4.5373   -8.0609   20.0425 O   0  0  0  0  0  0  0  0  0  0  0  0
    4.9589   -8.8825   22.7392 O   0  0  0  0  0  0  0  0  0  0  0  0
    1.8303    0.8310   20.0767 C   0  0  0  0  0  0  0  0  0  0  0  0
    3.0603    0.8775   20.3766 O   0  0  0  0  0  0  0  0  0  0  0  0
    1.1434    1.9256   19.2035 C   0  0  2  0  0  0  0  0  0  0  0  0
    0.4961    3.2573   16.4460 N   0  0  0  0  0  0  0  0  0  0  0  0
    0.4233    1.2893   17.9746 C   0  0  0  0  0  0  0  0  0  0  0  0
   -0.3911    2.3041   17.1549 C   0  0  0  0  0  0  0  0  0  0  0  0
    1.9743    2.7560   18.7157 O   0  0  0  0  0  0  0  0  0  0  0  0
  1  2  1  1  0  0  0
  1  3  1  0  0  0  0
  1  8  1  0  0  0  0
  3  4  1  0  0  0  0
  3 32  1  6  0  0  0
  4  5  1  0  0  0  0
  4 33  1  1  0  0  0
  5  6  1  1  0  0  0
  5  7  1  0  0  0  0
  7  8  1  0  0  0  0
  7  9  1  1  0  0  0
  9 10  1  0  0  0  0
 11 12  1  6  0  0  0
 11 13  1  0  0  0  0
 11 19  1  0  0  0  0
 12 34  1  0  0  0  0
 13 14  1  0  0  0  0
 14 15  1  6  0  0  0
 14 16  1  0  0  0  0
 16  2  1  1  0  0  0
 16 17  1  0  0  0  0
 17 18  1  6  0  0  0
 17 19  1  0  0  0  0
 19 20  1  1  0  0  0
 21 20  1  6  0  0  0
 21 22  1  0  0  0  0
 21 29  1  0  0  0  0
 22 23  1  6  0  0  0
 22 24  1  0  0  0  0
 24 25  1  1  0  0  0
 24 26  1  0  0  0  0
 26 27  1  6  0  0  0
 26 28  1  0  0  0  0
 28 29  1  0  0  0  0
 28 30  1  1  0  0  0
 30 31  1  0  0  0  0
 34 35  2  0  0  0  0
 36 34  1  6  0  0  0
 36 38  1  0  0  0  0
 36 40  1  0  0  0  0
 37 39  1  0  0  0  0
 38 39  1  0  0  0  0
M  END
>  <CHROM.1>
-179.08460271,-10.81479358,65.21232264,-35.34929224,-86.96189154,147.52863586
-70.28371860,-54.73437998,174.18776700,69.13536632,2.29075446,-2.55596564
21.72504701,-0.69626859,0.90218795,-1.02799290

>  <Name>
ligand

>  <RI>
0

>  <Rbt.Current_Directory>
/home/itssahil/PROJECTS/Mol_Feturizer/New_Systems/rnas/4P20

>  <Rbt.Executable>
rbdock ($Id: //depot/dev/client3/rdock/2013.1/src/exe/rbdock.cxx#4 $)

>  <Rbt.Library>
libRbt.so (2013.1, Build901 2013/11/27)

>  <Rbt.Parameter_File>
/export/apps/rDock/src/rDock_2013.1_src/data/scripts/dock_solv.prm

>  <Rbt.Receptor>
prm/blind_docking_100.prm

>  <SCORE>
49.1439

>  <SCORE.INTER>
27.5613

>  <SCORE.INTER.CONST>
1

>  <SCORE.INTER.POLAR>
0

>  <SCORE.INTER.ROT>
10

>  <SCORE.INTER.SOLV>
32.9659

>  <SCORE.INTER.VDW>
-2.88107

>  <SCORE.INTER.norm>
0.689034

>  <SCORE.INTRA>
3.92582

>  <SCORE.INTRA.DIHEDRAL>
-12.361

>  <SCORE.INTRA.DIHEDRAL.0>
28.2802

>  <SCORE.INTRA.POLAR>
0

>  <SCORE.INTRA.POLAR.0>
0

>  <SCORE.INTRA.REPUL>
0

>  <SCORE.INTRA.REPUL.0>
0

>  <SCORE.INTRA.SOLV>
5.06693

>  <SCORE.INTRA.SOLV.lig_0>
-101.981

>  <SCORE.INTRA.VDW>
7.57285

>  <SCORE.INTRA.VDW.0>
-5.72964

>  <SCORE.INTRA.norm>
0.0981455

>  <SCORE.RESTR>
17.6568

>  <SCORE.RESTR.CAVITY>
17.6568

>  <SCORE.RESTR.norm>
0.441419

>  <SCORE.SYSTEM>
0

>  <SCORE.SYSTEM.CONST>
0

>  <SCORE.SYSTEM.DIHEDRAL>
0

>  <SCORE.SYSTEM.SOLV>
0

>  <SCORE.SYSTEM.norm>
0

>  <SCORE.heavy>
40

>  <SCORE.norm>
1.2286

>  <RMSD>
10.537

$$$$
ligand
 OpenBabel11021811503D
libRbt.so/2013.1/901 2013/11/27
 40 42  0  0  0  0  0  0  0  0999 V2000
    3.4319   -5.5878   21.6412 C   0  0  2  0  0  0  0  0  0  0  0  0
    4.1734   -4.3716   21.4563 O   0  0  0  0  0  0  0  0  0  0  0  0
    4.3232   -6.6780   22.3458 C   0  0  1  0  0  0  0  0  0  0  0  0
    5.5101   -7.1189   21.4404 C   0  0  2  0  0  0  0  0  0  0  0  0
    4.9104   -7.7059   20.1236 C   0  0  2  0  0  0  0  0  0  0  0  0
    5.9851   -8.1503   19.2681 O   0  0  0  0  0  0  0  0  0  0  0  0
    4.0526   -6.5712   19.4106 C   0  0  2  0  0  0  0  0  0  0  0  0
    2.9459   -6.1213   20.3287 O   0  0  0  0  0  0  0  0  0  0  0  0
    3.4053   -7.0536   18.1197 C   0  0  0  0  0  0  0  0  0  0  0  0
    4.4224   -7.5925   17.1628 N   0  0  0  0  0  0  0  0  0  0  0  0
    1.9120   -0.6015   21.4077 C   0  0  2  0  0  0  0  0  0  0  0  0
    1.3030    0.6101   20.9100 N   0  0  0  0  0  0  0  0  0  0  0  0
    3.4755   -0.5426   21.1740 C   0  0  0  0  0  0  0  0  0  0  0  0
    4.1613   -1.8763   21.7143 C   0  0  2  0  0  0  0  0  0  0  0  0
    5.6321   -1.8122   21.5089 N   0  0  0  0  0  0  0  0  0  0  0  0
    3.5266   -3.1356   20.9606 C   0  0  2  0  0  0  0  0  0  0  0  0
    1.9605   -3.1498   21.2233 C   0  0  2  0  0  0  0  0  0  0  0  0
    1.3840   -4.2750   20.5563 O   0  0  0  0  0  0  0  0  0  0  0  0
    1.2951   -1.8214   20.6869 C   0  0  1  0  0  0  0  0  0  0  0  0
   -0.1295   -1.8409   20.9529 O   0  0  0  0  0  0  0  0  0  0  0  0
   -0.7180   -2.2481   22.1415 C   0  0  2  0  0  0  0  0  0  0  0  0
   -1.3079   -0.9706   22.8380 C   0  0  2  0  0  0  0  0  0  0  0  0
   -2.2154   -0.3487   21.9867 O   0  0  0  0  0  0  0  0  0  0  0  0
   -0.1654    0.0344   23.2919 C   0  0  1  0  0  0  0  0  0  0  0  0
   -0.7481    1.2370   23.9636 N   0  0  0  0  0  0  0  0  0  0  0  0
    0.8322   -0.7343   24.2640 C   0  0  2  0  0  0  0  0  0  0  0  0
    1.8777    0.1369   24.7129 O   0  0  0  0  0  0  0  0  0  0  0  0
    1.4101   -1.9806   23.4883 C   0  0  2  0  0  0  0  0  0  0  0  0
    0.2865   -2.8969   23.0228 O   0  0  0  0  0  0  0  0  0  0  0  0
    2.3547   -2.7748   24.3586 C   0  0  0  0  0  0  0  0  0  0  0  0
    3.4918   -2.0052   24.7913 O   0  0  0  0  0  0  0  0  0  0  0  0
    4.8111   -6.1271   23.6037 O   0  0  0  0  0  0  0  0  0  0  0  0
    6.2443   -8.0767   22.0971 O   0  0  0  0  0  0  0  0  0  0  0  0
    1.0695    0.7451   19.4908 C   0  0  0  0  0  0  0  0  0  0  0  0
    1.7530    0.0607   18.6726 O   0  0  0  0  0  0  0  0  0  0  0  0
   -0.0290    1.7488   19.0239 C   0  0  2  0  0  0  0  0  0  0  0  0
    1.8155    1.1964   16.5766 N   0  0  0  0  0  0  0  0  0  0  0  0
   -0.4629    1.4582   17.5539 C   0  0  0  0  0  0  0  0  0  0  0  0
    0.5481    1.9629   16.5108 C   0  0  0  0  0  0  0  0  0  0  0  0
    0.3767    2.9544   19.0245 O   0  0  0  0  0  0  0  0  0  0  0  0
  1  2  1  6  0  0  0
  1  3  1  0  0  0  0
  1  8  1  0  0  0  0
  3  4  1  0  0  0  0
  3 32  1  1  0  0  0
  4  5  1  0  0  0  0
  4 33  1  1  0  0  0
  5  6  1  6  0  0  0
  5  7  1  0  0  0  0
  7  8  1  0  0  0  0
  7  9  1  6  0  0  0
  9 10  1  0  0  0  0
 11 12  1  6  0  0  0
 11 13  1  0  0  0  0
 11 19  1  0  0  0  0
 12 34  1  0  0  0  0
 13 14  1  0  0  0  0
 14 15  1  6  0  0  0
 14 16  1  0  0  0  0
 16  2  1  1  0  0  0
 16 17  1  0  0  0  0
 17 18  1  6  0  0  0
 17 19  1  0  0  0  0
 19 20  1  1  0  0  0
 21 20  1  6  0  0  0
 21 22  1  0  0  0  0
 21 29  1  0  0  0  0
 22 23  1  6  0  0  0
 22 24  1  0  0  0  0
 24 25  1  1  0  0  0
 24 26  1  0  0  0  0
 26 27  1  6  0  0  0
 26 28  1  0  0  0  0
 28 29  1  0  0  0  0
 28 30  1  1  0  0  0
 30 31  1  0  0  0  0
 34 35  2  0  0  0  0
 36 34  1  6  0  0  0
 36 38  1  0  0  0  0
 36 40  1  0  0  0  0
 37 39  1  0  0  0  0
 38 39  1  0  0  0  0
M  END
>  <CHROM.1>
-172.78651273,142.67046205,-56.25273806,79.43489337,-76.39511240,109.98903549
-60.75380257,-162.21658975,-77.18099641,67.59325868,2.23474925,-2.57650822
21.10763345,0.15593295,-1.02591961,1.73640743

>  <Name>
ligand

>  <RI>
0

>  <Rbt.Current_Directory>
/home/itssahil/PROJECTS/Mol_Feturizer/New_Systems/rnas/4P20

>  <Rbt.Executable>
rbdock ($Id: //depot/dev/client3/rdock/2013.1/src/exe/rbdock.cxx#4 $)

>  <Rbt.Library>
libRbt.so (2013.1, Build901 2013/11/27)

>  <Rbt.Parameter_File>
/export/apps/rDock/src/rDock_2013.1_src/data/scripts/dock_solv.prm

>  <Rbt.Receptor>
prm/blind_docking_100.prm

>  <SCORE>
61.7345

>  <SCORE.INTER>
26.4335

>  <SCORE.INTER.CONST>
1

>  <SCORE.INTER.POLAR>
0

>  <SCORE.INTER.ROT>
10

>  <SCORE.INTER.SOLV>
30.8018

>  <SCORE.INTER.VDW>
-2.91161

>  <SCORE.INTER.norm>
0.660837

>  <SCORE.INTRA>
15.789

>  <SCORE.INTRA.DIHEDRAL>
-12.4267

>  <SCORE.INTRA.DIHEDRAL.0>
28.2802

>  <SCORE.INTRA.POLAR>
0

>  <SCORE.INTRA.POLAR.0>
0

>  <SCORE.INTRA.REPUL>
0

>  <SCORE.INTRA.REPUL.0>
0

>  <SCORE.INTRA.SOLV>
7.94429

>  <SCORE.INTRA.SOLV.lig_0>
-101.981

>  <SCORE.INTRA.VDW>
18.0303

>  <SCORE.INTRA.VDW.0>
-5.72964

>  <SCORE.INTRA.norm>
0.394726

>  <SCORE.RESTR>
19.512

>  <SCORE.RESTR.CAVITY>
19.512

>  <SCORE.RESTR.norm>
0.4878

>  <SCORE.SYSTEM>
0

>  <SCORE.SYSTEM.CONST>
0

>  <SCORE.SYSTEM.DIHEDRAL>
0

>  <SCORE.SYSTEM.SOLV>
0

>  <SCORE.SYSTEM.norm>
0

>  <SCORE.heavy>
40

>  <SCORE.norm>
1.54336

>  <RMSD>
10.566

$$$$
ligand
 OpenBabel11021811513D
libRbt.so/2013.1/901 2013/11/27
 40 42  0  0  0  0  0  0  0  0999 V2000
    9.7585   -3.9539   24.4170 C   0  0  2  0  0  0  0  0  0  0  0  0
    8.8671   -3.8514   25.5386 O   0  0  0  0  0  0  0  0  0  0  0  0
   11.0610   -4.7439   24.8153 C   0  0  1  0  0  0  0  0  0  0  0  0
   11.9023   -3.9659   25.8688 C   0  0  2  0  0  0  0  0  0  0  0  0
   12.2966   -2.5918   25.2407 C   0  0  2  0  0  0  0  0  0  0  0  0
   13.1020   -1.8516   26.1830 O   0  0  0  0  0  0  0  0  0  0  0  0
   10.9637   -1.7970   24.8896 C   0  0  2  0  0  0  0  0  0  0  0  0
   10.1403   -2.5961   23.9130 O   0  0  0  0  0  0  0  0  0  0  0  0
   11.2427   -0.4440   24.2495 C   0  0  0  0  0  0  0  0  0  0  0  0
   11.9712    0.4678   25.1868 N   0  0  0  0  0  0  0  0  0  0  0  0
    4.4751   -3.6549   25.4889 C   0  0  2  0  0  0  0  0  0  0  0  0
    3.1417   -3.1149   25.3600 N   0  0  0  0  0  0  0  0  0  0  0  0
    5.2485   -2.8872   26.6358 C   0  0  0  0  0  0  0  0  0  0  0  0
    6.7246   -3.4695   26.7866 C   0  0  2  0  0  0  0  0  0  0  0  0
    7.4442   -2.7583   27.8756 N   0  0  0  0  0  0  0  0  0  0  0  0
    7.4930   -3.3202   25.3922 C   0  0  2  0  0  0  0  0  0  0  0  0
    6.6792   -4.1039   24.2762 C   0  0  2  0  0  0  0  0  0  0  0  0
    7.3605   -3.9795   23.0258 O   0  0  0  0  0  0  0  0  0  0  0  0
    5.2180   -3.5194   24.1406 C   0  0  1  0  0  0  0  0  0  0  0  0
    4.4824   -4.2584   23.1339 O   0  0  0  0  0  0  0  0  0  0  0  0
    4.8858   -4.4417   21.8191 C   0  0  2  0  0  0  0  0  0  0  0  0
    3.9595   -3.5548   20.9133 C   0  0  2  0  0  0  0  0  0  0  0  0
    4.0483   -2.2248   21.3112 O   0  0  0  0  0  0  0  0  0  0  0  0
    2.4545   -4.0608   20.9344 C   0  0  1  0  0  0  0  0  0  0  0  0
    1.5930   -3.2104   20.0561 N   0  0  0  0  0  0  0  0  0  0  0  0
    2.4219   -5.5809   20.4659 C   0  0  2  0  0  0  0  0  0  0  0  0
    1.0792   -6.0815   20.4558 O   0  0  0  0  0  0  0  0  0  0  0  0
    3.3432   -6.4139   21.4386 C   0  0  2  0  0  0  0  0  0  0  0  0
    4.7659   -5.8712   21.4335 O   0  0  0  0  0  0  0  0  0  0  0  0
    3.3782   -7.8707   21.0424 C   0  0  0  0  0  0  0  0  0  0  0  0
    4.1656   -8.1066   19.8604 O   0  0  0  0  0  0  0  0  0  0  0  0
   10.6651   -6.0478   25.3324 O   0  0  0  0  0  0  0  0  0  0  0  0
   13.0290   -4.6925   26.1693 O   0  0  0  0  0  0  0  0  0  0  0  0
    2.9127   -2.0261   24.4387 C   0  0  0  0  0  0  0  0  0  0  0  0
    3.8768   -1.2798   24.0942 O   0  0  0  0  0  0  0  0  0  0  0  0
    1.4624   -1.8132   23.9059 C   0  0  2  0  0  0  0  0  0  0  0  0
   -0.7508   -1.9407   21.7490 N   0  0  0  0  0  0  0  0  0  0  0  0
    0.9443   -3.0884   23.1717 C   0  0  0  0  0  0  0  0  0  0  0  0
   -0.5365   -2.9972   22.7668 C   0  0  0  0  0  0  0  0  0  0  0  0
    1.3878   -0.8761   23.0490 O   0  0  0  0  0  0  0  0  0  0  0  0
  1  2  1  1  0  0  0
  1  3  1  0  0  0  0
  1  8  1  0  0  0  0
  3  4  1  0  0  0  0
  3 32  1  1  0  0  0
  4  5  1  0  0  0  0
  4 33  1  6  0  0  0
  5  6  1  1  0  0  0
  5  7  1  0  0  0  0
  7  8  1  0  0  0  0
  7  9  1  6  0  0  0
  9 10  1  0  0  0  0
 11 12  1  6  0  0  0
 11 13  1  0  0  0  0
 11 19  1  0  0  0  0
 12 34  1  0  0  0  0
 13 14  1  0  0  0  0
 14 15  1  1  0  0  0
 14 16  1  0  0  0  0
 16  2  1  1  0  0  0
 16 17  1  0  0  0  0
 17 18  1  6  0  0  0
 17 19  1  0  0  0  0
 19 20  1  6  0  0  0
 21 20  1  1  0  0  0
 21 22  1  0  0  0  0
 21 29  1  0  0  0  0
 22 23  1  1  0  0  0
 22 24  1  0  0  0  0
 24 25  1  6  0  0  0
 24 26  1  0  0  0  0
 26 27  1  1  0  0  0
 26 28  1  0  0  0  0
 28 29  1  0  0  0  0
 28 30  1  6  0  0  0
 30 31  1  0  0  0  0
 34 35  2  0  0  0  0
 36 34  1  6  0  0  0
 36 38  1  0  0  0  0
 36 40  1  0  0  0  0
 37 39  1  0  0  0  0
 38 39  1  0  0  0  0
M  END
>  <CHROM.1>
-171.54126532,174.65572004,-63.57382793,90.82327547,-175.58537414,-107.83666511
73.81964690,-58.51172414,173.34270929,65.53812638,5.99307780,-3.58170226
23.64955195,-0.29875972,0.25338939,-2.53330123

>  <Name>
ligand

>  <RI>
0

>  <Rbt.Current_Directory>
/home/itssahil/PROJECTS/Mol_Feturizer/New_Systems/rnas/4P20

>  <Rbt.Executable>
rbdock ($Id: //depot/dev/client3/rdock/2013.1/src/exe/rbdock.cxx#4 $)

>  <Rbt.Library>
libRbt.so (2013.1, Build901 2013/11/27)

>  <Rbt.Parameter_File>
/export/apps/rDock/src/rDock_2013.1_src/data/scripts/dock_solv.prm

>  <Rbt.Receptor>
prm/blind_docking_60.prm

>  <SCORE>
45.7096

>  <SCORE.INTER>
31.8517

>  <SCORE.INTER.CONST>
1

>  <SCORE.INTER.POLAR>
0

>  <SCORE.INTER.ROT>
10

>  <SCORE.INTER.SOLV>
28.3001

>  <SCORE.INTER.VDW>
1.53445

>  <SCORE.INTER.norm>
0.796293

>  <SCORE.INTRA>
-2.63737

>  <SCORE.INTRA.DIHEDRAL>
-18.7677

>  <SCORE.INTRA.DIHEDRAL.0>
28.2802

>  <SCORE.INTRA.POLAR>
0

>  <SCORE.INTRA.POLAR.0>
0

>  <SCORE.INTRA.REPUL>
0

>  <SCORE.INTRA.REPUL.0>
0

>  <SCORE.INTRA.SOLV>
7.0702

>  <SCORE.INTRA.SOLV.lig_0>
-101.981

>  <SCORE.INTRA.VDW>
3.2114

>  <SCORE.INTRA.VDW.0>
-5.72964

>  <SCORE.INTRA.norm>
-0.0659343

>  <SCORE.RESTR>
16.4952

>  <SCORE.RESTR.CAVITY>
16.4952

>  <SCORE.RESTR.norm>
0.412381

>  <SCORE.SYSTEM>
0

>  <SCORE.SYSTEM.CONST>
0

>  <SCORE.SYSTEM.DIHEDRAL>
0

>  <SCORE.SYSTEM.SOLV>
0

>  <SCORE.SYSTEM.norm>
0

>  <SCORE.heavy>
40

>  <SCORE.norm>
1.14274

>  <RMSD>
10.570

$$$$
ligand
 OpenBabel11021811503D
libRbt.so/2013.1/901 2013/11/27
 40 42  0  0  0  0  0  0  0  0999 V2000
    4.6468   -5.9510   21.0575 C   0  0  2  0  0  0  0  0  0  0  0  0
    3.2119   -5.9294   21.1182 O   0  0  0  0  0  0  0  0  0  0  0  0
    5.1831   -7.4279   21.1599 C   0  0  1  0  0  0  0  0  0  0  0  0
    4.8762   -8.0527   22.5522 C   0  0  2  0  0  0  0  0  0  0  0  0
    5.5730   -7.1679   23.6337 C   0  0  2  0  0  0  0  0  0  0  0  0
    5.3307   -7.7339   24.9397 O   0  0  0  0  0  0  0  0  0  0  0  0
    4.9808   -5.6943   23.5376 C   0  0  2  0  0  0  0  0  0  0  0  0
    5.2400   -5.1334   22.1634 O   0  0  0  0  0  0  0  0  0  0  0  0
    5.6147   -4.7440   24.5442 C   0  0  0  0  0  0  0  0  0  0  0  0
    5.0657   -4.9550   25.9206 N   0  0  0  0  0  0  0  0  0  0  0  0
    2.2137   -1.7499   20.1881 C   0  0  2  0  0  0  0  0  0  0  0  0
    1.4484   -0.5303   20.0720 N   0  0  0  0  0  0  0  0  0  0  0  0
    1.5176   -2.8938   19.3456 C   0  0  0  0  0  0  0  0  0  0  0  0
    2.3489   -4.2483   19.4682 C   0  0  2  0  0  0  0  0  0  0  0  0
    1.7026   -5.3175   18.6628 N   0  0  0  0  0  0  0  0  0  0  0  0
    2.4491   -4.6654   21.0086 C   0  0  2  0  0  0  0  0  0  0  0  0
    3.1511   -3.4878   21.8101 C   0  0  2  0  0  0  0  0  0  0  0  0
    3.2488   -3.8530   23.1887 O   0  0  0  0  0  0  0  0  0  0  0  0
    2.3192   -2.1516   21.6766 C   0  0  1  0  0  0  0  0  0  0  0  0
    2.9835   -1.0828   22.3956 O   0  0  0  0  0  0  0  0  0  0  0  0
    2.4562   -0.3971   23.4803 C   0  0  2  0  0  0  0  0  0  0  0  0
    1.2985   -1.2748   24.0759 C   0  0  2  0  0  0  0  0  0  0  0  0
    1.7934   -2.5250   24.4327 O   0  0  0  0  0  0  0  0  0  0  0  0
    0.0795   -1.4068   23.0669 C   0  0  1  0  0  0  0  0  0  0  0  0
   -1.0159   -2.2355   23.6587 N   0  0  0  0  0  0  0  0  0  0  0  0
   -0.4413    0.0520   22.7041 C   0  0  2  0  0  0  0  0  0  0  0  0
   -1.5535   -0.0142   21.8029 O   0  0  0  0  0  0  0  0  0  0  0  0
    0.7612    0.8615   22.0814 C   0  0  2  0  0  0  0  0  0  0  0  0
    1.9314    0.9254   23.0535 O   0  0  0  0  0  0  0  0  0  0  0  0
    0.3460    2.2699   21.7287 C   0  0  0  0  0  0  0  0  0  0  0  0
   -0.7538    2.3093   20.8005 O   0  0  0  0  0  0  0  0  0  0  0  0
    4.5694   -8.2124   20.0960 O   0  0  0  0  0  0  0  0  0  0  0  0
    5.3755   -9.3321   22.5903 O   0  0  0  0  0  0  0  0  0  0  0  0
    2.1023    0.6638   19.5890 C   0  0  0  0  0  0  0  0  0  0  0  0
    3.3606    0.7753   19.6857 O   0  0  0  0  0  0  0  0  0  0  0  0
    1.2121    1.7821   18.9649 C   0  0  2  0  0  0  0  0  0  0  0  0
   -0.6314    3.4903   17.4804 N   0  0  0  0  0  0  0  0  0  0  0  0
    0.3834    1.2310   17.7636 C   0  0  0  0  0  0  0  0  0  0  0  0
   -0.0512    2.3239   16.7728 C   0  0  0  0  0  0  0  0  0  0  0  0
    1.8952    2.7447   18.4909 O   0  0  0  0  0  0  0  0  0  0  0  0
  1  2  1  1  0  0  0
  1  3  1  0  0  0  0
  1  8  1  0  0  0  0
  3  4  1  0  0  0  0
  3 32  1  6  0  0  0
  4  5  1  0  0  0  0
  4 33  1  6  0  0  0
  5  6  1  1  0  0  0
  5  7  1  0  0  0  0
  7  8  1  0  0  0  0
  7  9  1  1  0  0  0
  9 10  1  0  0  0  0
 11 12  1  1  0  0  0
 11 13  1  0  0  0  0
 11 19  1  0  0  0  0
 12 34  1  0  0  0  0
 13 14  1  0  0  0  0
 14 15  1  6  0  0  0
 14 16  1  0  0  0  0
 16  2  1  6  0  0  0
 16 17  1  0  0  0  0
 17 18  1  1  0  0  0
 17 19  1  0  0  0  0
 19 20  1  1  0  0  0
 21 20  1  6  0  0  0
 21 22  1  0  0  0  0
 21 29  1  0  0  0  0
 22 23  1  6  0  0  0
 22 24  1  0  0  0  0
 24 25  1  1  0  0  0
 24 26  1  0  0  0  0
 26 27  1  6  0  0  0
 26 28  1  0  0  0  0
 28 29  1  0  0  0  0
 28 30  1  1  0  0  0
 30 31  1  0  0  0  0
 34 35  2  0  0  0  0
 36 34  1  6  0  0  0
 36 38  1  0  0  0  0
 36 40  1  0  0  0  0
 37 39  1  0  0  0  0
 38 39  1  0  0  0  0
M  END
>  <CHROM.1>
-178.40818512,79.59908458,-77.19996331,-123.64327819,122.44572587,19.02186941
-58.20318039,-57.55146036,-156.59759042,-47.29483181,2.41727702,-2.47656349
21.53243600,-0.26036740,1.09882440,-1.61203426

>  <Name>
ligand

>  <RI>
0

>  <Rbt.Current_Directory>
/home/itssahil/PROJECTS/Mol_Feturizer/New_Systems/rnas/4P20

>  <Rbt.Executable>
rbdock ($Id: //depot/dev/client3/rdock/2013.1/src/exe/rbdock.cxx#4 $)

>  <Rbt.Library>
libRbt.so (2013.1, Build901 2013/11/27)

>  <Rbt.Parameter_File>
/export/apps/rDock/src/rDock_2013.1_src/data/scripts/dock_solv.prm

>  <Rbt.Receptor>
prm/blind_docking_100.prm

>  <SCORE>
112.839

>  <SCORE.INTER>
83.0645

>  <SCORE.INTER.CONST>
1

>  <SCORE.INTER.POLAR>
0

>  <SCORE.INTER.ROT>
10

>  <SCORE.INTER.SOLV>
34.4467

>  <SCORE.INTER.VDW>
33.6274

>  <SCORE.INTER.norm>
2.07661

>  <SCORE.INTRA>
10.3894

>  <SCORE.INTRA.DIHEDRAL>
-8.51634

>  <SCORE.INTRA.DIHEDRAL.0>
28.2802

>  <SCORE.INTRA.POLAR>
0

>  <SCORE.INTRA.POLAR.0>
0

>  <SCORE.INTRA.REPUL>
0

>  <SCORE.INTRA.REPUL.0>
0

>  <SCORE.INTRA.SOLV>
7.52282

>  <SCORE.INTRA.SOLV.lig_0>
-101.981

>  <SCORE.INTRA.VDW>
10.8862

>  <SCORE.INTRA.VDW.0>
-5.72964

>  <SCORE.INTRA.norm>
0.259735

>  <SCORE.RESTR>
19.3855

>  <SCORE.RESTR.CAVITY>
19.3855

>  <SCORE.RESTR.norm>
0.484638

>  <SCORE.SYSTEM>
0

>  <SCORE.SYSTEM.CONST>
0

>  <SCORE.SYSTEM.DIHEDRAL>
0

>  <SCORE.SYSTEM.SOLV>
0

>  <SCORE.SYSTEM.norm>
0

>  <SCORE.heavy>
40

>  <SCORE.norm>
2.82099

>  <RMSD>
10.578

$$$$
ligand
 OpenBabel11021811503D
libRbt.so/2013.1/901 2013/11/27
 40 42  0  0  0  0  0  0  0  0999 V2000
    1.4628   -0.0265   18.5242 C   0  0  2  0  0  0  0  0  0  0  0  0
    0.2835   -0.2498   19.3129 O   0  0  0  0  0  0  0  0  0  0  0  0
    2.5682    0.7037   19.3753 C   0  0  1  0  0  0  0  0  0  0  0  0
    2.1272    2.1429   19.7716 C   0  0  2  0  0  0  0  0  0  0  0  0
    1.8708    2.9407   18.4541 C   0  0  2  0  0  0  0  0  0  0  0  0
    1.4839    4.2920   18.7838 O   0  0  0  0  0  0  0  0  0  0  0  0
    0.7202    2.2069   17.6361 C   0  0  2  0  0  0  0  0  0  0  0  0
    1.1474    0.7983   17.3143 O   0  0  0  0  0  0  0  0  0  0  0  0
    0.4087    2.9006   16.3171 C   0  0  0  0  0  0  0  0  0  0  0  0
   -0.0319    4.3151   16.5306 N   0  0  0  0  0  0  0  0  0  0  0  0
    1.6558   -2.3393   22.9296 C   0  0  2  0  0  0  0  0  0  0  0  0
    1.6420   -3.2089   24.0829 N   0  0  0  0  0  0  0  0  0  0  0  0
    0.5235   -1.2446   23.0786 C   0  0  0  0  0  0  0  0  0  0  0  0
    0.5233   -0.2796   21.8099 C   0  0  2  0  0  0  0  0  0  0  0  0
   -0.5303    0.7583   21.9592 N   0  0  0  0  0  0  0  0  0  0  0  0
    0.2944   -1.1500   20.4882 C   0  0  2  0  0  0  0  0  0  0  0  0
    1.4518   -2.2323   20.3846 C   0  0  2  0  0  0  0  0  0  0  0  0
    1.2580   -3.0136   19.2034 O   0  0  0  0  0  0  0  0  0  0  0  0
    1.4426   -3.1784   21.6496 C   0  0  1  0  0  0  0  0  0  0  0  0
    2.5169   -4.1462   21.5497 O   0  0  0  0  0  0  0  0  0  0  0  0
    3.8103   -3.8684   21.1314 C   0  0  2  0  0  0  0  0  0  0  0  0
    4.2699   -5.0487   20.2036 C   0  0  2  0  0  0  0  0  0  0  0  0
    3.3871   -5.1777   19.1363 O   0  0  0  0  0  0  0  0  0  0  0  0
    4.4032   -6.4123   21.0061 C   0  0  1  0  0  0  0  0  0  0  0  0
    4.8537   -7.5192   20.1067 N   0  0  0  0  0  0  0  0  0  0  0  0
    5.4268   -6.1994   22.2053 C   0  0  2  0  0  0  0  0  0  0  0  0
    5.5916   -7.4097   22.9546 O   0  0  0  0  0  0  0  0  0  0  0  0
    4.8845   -5.0269   23.1108 C   0  0  2  0  0  0  0  0  0  0  0  0
    4.7197   -3.7487   22.2999 O   0  0  0  0  0  0  0  0  0  0  0  0
    5.8189   -4.7521   24.2649 C   0  0  0  0  0  0  0  0  0  0  0  0
    5.6323   -5.6666   25.3611 O   0  0  0  0  0  0  0  0  0  0  0  0
    2.8362   -0.0987   20.5621 O   0  0  0  0  0  0  0  0  0  0  0  0
    3.1305    2.7358   20.4993 O   0  0  0  0  0  0  0  0  0  0  0  0
    2.7597   -3.1776   24.9975 C   0  0  0  0  0  0  0  0  0  0  0  0
    3.8875   -2.7601   24.5990 O   0  0  0  0  0  0  0  0  0  0  0  0
    2.5227   -3.6728   26.4573 C   0  0  2  0  0  0  0  0  0  0  0  0
   -0.4553   -3.0505   26.2697 N   0  0  0  0  0  0  0  0  0  0  0  0
    1.7699   -2.5954   27.2974 C   0  0  0  0  0  0  0  0  0  0  0  0
    0.2921   -2.9414   27.5454 C   0  0  0  0  0  0  0  0  0  0  0  0
    3.6085   -3.8914   27.0829 O   0  0  0  0  0  0  0  0  0  0  0  0
  1  2  1  1  0  0  0
  1  3  1  0  0  0  0
  1  8  1  0  0  0  0
  3  4  1  0  0  0  0
  3 32  1  1  0  0  0
  4  5  1  0  0  0  0
  4 33  1  6  0  0  0
  5  6  1  1  0  0  0
  5  7  1  0  0  0  0
  7  8  1  0  0  0  0
  7  9  1  6  0  0  0
  9 10  1  0  0  0  0
 11 12  1  1  0  0  0
 11 13  1  0  0  0  0
 11 19  1  0  0  0  0
 12 34  1  0  0  0  0
 13 14  1  0  0  0  0
 14 15  1  1  0  0  0
 14 16  1  0  0  0  0
 16  2  1  6  0  0  0
 16 17  1  0  0  0  0
 17 18  1  6  0  0  0
 17 19  1  0  0  0  0
 19 20  1  6  0  0  0
 21 20  1  1  0  0  0
 21 22  1  0  0  0  0
 21 29  1  0  0  0  0
 22 23  1  6  0  0  0
 22 24  1  0  0  0  0
 24 25  1  6  0  0  0
 24 26  1  0  0  0  0
 26 27  1  1  0  0  0
 26 28  1  0  0  0  0
 28 29  1  0  0  0  0
 28 30  1  1  0  0  0
 30 31  1  0  0  0  0
 34 35  2  0  0  0  0
 36 34  1  6  0  0  0
 36 38  1  0  0  0  0
 36 40  1  0  0  0  0
 37 39  1  0  0  0  0
 38 39  1  0  0  0  0
M  END
>  <CHROM.1>
-65.00659125,95.74694011,-59.42469198,-112.61453494,-77.23146824,-138.83381103
-81.31191896,-77.03884644,105.34166390,-61.07653156,2.42508205,-2.01219552
21.65448229,-2.17635679,-1.02464844,1.92126772

>  <Name>
ligand

>  <RI>
0

>  <Rbt.Current_Directory>
/home/itssahil/PROJECTS/Mol_Feturizer/New_Systems/rnas/4P20

>  <Rbt.Executable>
rbdock ($Id: //depot/dev/client3/rdock/2013.1/src/exe/rbdock.cxx#4 $)

>  <Rbt.Library>
libRbt.so (2013.1, Build901 2013/11/27)

>  <Rbt.Parameter_File>
/export/apps/rDock/src/rDock_2013.1_src/data/scripts/dock_solv.prm

>  <Rbt.Receptor>
prm/blind_docking_100.prm

>  <SCORE>
30.1489

>  <SCORE.INTER>
0.320104

>  <SCORE.INTER.CONST>
1

>  <SCORE.INTER.POLAR>
0

>  <SCORE.INTER.ROT>
10

>  <SCORE.INTER.SOLV>
20.5326

>  <SCORE.INTER.VDW>
-16.8975

>  <SCORE.INTER.norm>
0.00800259

>  <SCORE.INTRA>
2.50699

>  <SCORE.INTRA.DIHEDRAL>
-8.41103

>  <SCORE.INTRA.DIHEDRAL.0>
28.2802

>  <SCORE.INTRA.POLAR>
0

>  <SCORE.INTRA.POLAR.0>
0

>  <SCORE.INTRA.REPUL>
0

>  <SCORE.INTRA.REPUL.0>
0

>  <SCORE.INTRA.SOLV>
7.52428

>  <SCORE.INTRA.SOLV.lig_0>
-101.981

>  <SCORE.INTRA.VDW>
2.95037

>  <SCORE.INTRA.VDW.0>
-5.72964

>  <SCORE.INTRA.norm>
0.0626748

>  <SCORE.RESTR>
27.3218

>  <SCORE.RESTR.CAVITY>
27.3218

>  <SCORE.RESTR.norm>
0.683046

>  <SCORE.SYSTEM>
0

>  <SCORE.SYSTEM.CONST>
0

>  <SCORE.SYSTEM.DIHEDRAL>
0

>  <SCORE.SYSTEM.SOLV>
0

>  <SCORE.SYSTEM.norm>
0

>  <SCORE.heavy>
40

>  <SCORE.norm>
0.753723

>  <RMSD>
10.584

$$$$
ligand
 OpenBabel11021811503D
libRbt.so/2013.1/901 2013/11/27
 40 42  0  0  0  0  0  0  0  0999 V2000
    4.2688   -6.4356   20.6193 C   0  0  2  0  0  0  0  0  0  0  0  0
    2.8817   -6.0777   20.7230 O   0  0  0  0  0  0  0  0  0  0  0  0
    4.5024   -7.9031   21.1401 C   0  0  1  0  0  0  0  0  0  0  0  0
    4.2174   -8.0209   22.6658 C   0  0  2  0  0  0  0  0  0  0  0  0
    5.1846   -7.0439   23.4063 C   0  0  2  0  0  0  0  0  0  0  0  0
    4.9657   -7.1458   24.8297 O   0  0  0  0  0  0  0  0  0  0  0  0
    4.8965   -5.5651   22.8945 C   0  0  2  0  0  0  0  0  0  0  0  0
    5.1239   -5.4911   21.4069 O   0  0  0  0  0  0  0  0  0  0  0  0
    5.8081   -4.5343   23.5462 C   0  0  0  0  0  0  0  0  0  0  0  0
    7.2502   -4.8191   23.2637 N   0  0  0  0  0  0  0  0  0  0  0  0
    1.9347   -1.7871   20.8792 C   0  0  2  0  0  0  0  0  0  0  0  0
    1.4703   -0.4834   20.4658 N   0  0  0  0  0  0  0  0  0  0  0  0
    3.0947   -2.2657   19.9159 C   0  0  0  0  0  0  0  0  0  0  0  0
    3.6146   -3.7065   20.3571 C   0  0  2  0  0  0  0  0  0  0  0  0
    4.7155   -4.1475   19.4610 N   0  0  0  0  0  0  0  0  0  0  0  0
    2.3935   -4.7383   20.3236 C   0  0  2  0  0  0  0  0  0  0  0  0
    1.2576   -4.2147   21.3022 C   0  0  2  0  0  0  0  0  0  0  0  0
    0.1624   -5.1329   21.2821 O   0  0  0  0  0  0  0  0  0  0  0  0
    0.7551   -2.7852   20.8556 C   0  0  1  0  0  0  0  0  0  0  0  0
   -0.2654   -2.3130   21.7701 O   0  0  0  0  0  0  0  0  0  0  0  0
   -0.3458   -2.6344   23.1174 C   0  0  2  0  0  0  0  0  0  0  0  0
   -0.9580   -1.3953   23.8624 C   0  0  2  0  0  0  0  0  0  0  0  0
   -2.2010   -1.0879   23.3187 O   0  0  0  0  0  0  0  0  0  0  0  0
    0.0141   -0.1406   23.8174 C   0  0  1  0  0  0  0  0  0  0  0  0
   -0.5825    1.0233   24.5429 N   0  0  0  0  0  0  0  0  0  0  0  0
    1.4109   -0.5556   24.4560 C   0  0  2  0  0  0  0  0  0  0  0  0
    2.3218    0.5507   24.4503 O   0  0  0  0  0  0  0  0  0  0  0  0
    1.9802   -1.7787   23.6382 C   0  0  2  0  0  0  0  0  0  0  0  0
    1.0021   -2.9455   23.6586 O   0  0  0  0  0  0  0  0  0  0  0  0
    3.3019   -2.2436   24.2015 C   0  0  0  0  0  0  0  0  0  0  0  0
    3.1480   -3.0743   25.3673 O   0  0  0  0  0  0  0  0  0  0  0  0
    3.6383   -8.8001   20.3833 O   0  0  0  0  0  0  0  0  0  0  0  0
    4.4485   -9.3143   23.0674 O   0  0  0  0  0  0  0  0  0  0  0  0
    2.4346    0.5744   20.2704 C   0  0  0  0  0  0  0  0  0  0  0  0
    3.5590    0.5161   20.8510 O   0  0  0  0  0  0  0  0  0  0  0  0
    2.0369    1.7622   19.3412 C   0  0  2  0  0  0  0  0  0  0  0  0
    0.9168    3.8361   17.7470 N   0  0  0  0  0  0  0  0  0  0  0  0
    0.5578    2.1927   19.5869 C   0  0  0  0  0  0  0  0  0  0  0  0
   -0.0662    2.9330   18.3921 C   0  0  0  0  0  0  0  0  0  0  0  0
    2.1008    1.4615   18.1069 O   0  0  0  0  0  0  0  0  0  0  0  0
  1  2  1  1  0  0  0
  1  3  1  0  0  0  0
  1  8  1  0  0  0  0
  3  4  1  0  0  0  0
  3 32  1  6  0  0  0
  4  5  1  0  0  0  0
  4 33  1  1  0  0  0
  5  6  1  1  0  0  0
  5  7  1  0  0  0  0
  7  8  1  0  0  0  0
  7  9  1  1  0  0  0
  9 10  1  0  0  0  0
 11 12  1  6  0  0  0
 11 13  1  0  0  0  0
 11 19  1  0  0  0  0
 12 34  1  0  0  0  0
 13 14  1  0  0  0  0
 14 15  1  6  0  0  0
 14 16  1  0  0  0  0
 16  2  1  1  0  0  0
 16 17  1  0  0  0  0
 17 18  1  6  0  0  0
 17 19  1  0  0  0  0
 19 20  1  1  0  0  0
 21 20  1  6  0  0  0
 21 22  1  0  0  0  0
 21 29  1  0  0  0  0
 22 23  1  6  0  0  0
 22 24  1  0  0  0  0
 24 25  1  1  0  0  0
 24 26  1  0  0  0  0
 26 27  1  6  0  0  0
 26 28  1  0  0  0  0
 28 29  1  0  0  0  0
 28 30  1  1  0  0  0
 30 31  1  0  0  0  0
 34 35  2  0  0  0  0
 36 34  1  1  0  0  0
 36 38  1  0  0  0  0
 36 40  1  0  0  0  0
 37 39  1  0  0  0  0
 38 39  1  0  0  0  0
M  END
>  <CHROM.1>
178.81646093,-21.97799512,59.87153316,-51.53926022,-89.67114679,147.62501686
79.92432397,41.30650829,-157.32980241,-38.26780557,2.42436288,-2.87671073
21.85056578,-0.75052531,0.96360177,-0.92010453

>  <Name>
ligand

>  <RI>
0

>  <Rbt.Current_Directory>
/home/itssahil/PROJECTS/Mol_Feturizer/New_Systems/rnas/4P20

>  <Rbt.Executable>
rbdock ($Id: //depot/dev/client3/rdock/2013.1/src/exe/rbdock.cxx#4 $)

>  <Rbt.Library>
libRbt.so (2013.1, Build901 2013/11/27)

>  <Rbt.Parameter_File>
/export/apps/rDock/src/rDock_2013.1_src/data/scripts/dock_solv.prm

>  <Rbt.Receptor>
prm/blind_docking_100.prm

>  <SCORE>
52.7172

>  <SCORE.INTER>
28.2154

>  <SCORE.INTER.CONST>
1

>  <SCORE.INTER.POLAR>
0

>  <SCORE.INTER.ROT>
10

>  <SCORE.INTER.SOLV>
28.7779

>  <SCORE.INTER.VDW>
-1.04905

>  <SCORE.INTER.norm>
0.705384

>  <SCORE.INTRA>
6.8696

>  <SCORE.INTRA.DIHEDRAL>
-9.87823

>  <SCORE.INTRA.DIHEDRAL.0>
28.2802

>  <SCORE.INTRA.POLAR>
0

>  <SCORE.INTRA.POLAR.0>
0

>  <SCORE.INTRA.REPUL>
0

>  <SCORE.INTRA.REPUL.0>
0

>  <SCORE.INTRA.SOLV>
6.08213

>  <SCORE.INTRA.SOLV.lig_0>
-101.981

>  <SCORE.INTRA.VDW>
8.76765

>  <SCORE.INTRA.VDW.0>
-5.72964

>  <SCORE.INTRA.norm>
0.17174

>  <SCORE.RESTR>
17.6322

>  <SCORE.RESTR.CAVITY>
17.6322

>  <SCORE.RESTR.norm>
0.440805

>  <SCORE.SYSTEM>
0

>  <SCORE.SYSTEM.CONST>
0

>  <SCORE.SYSTEM.DIHEDRAL>
0

>  <SCORE.SYSTEM.SOLV>
0

>  <SCORE.SYSTEM.norm>
0

>  <SCORE.heavy>
40

>  <SCORE.norm>
1.31793

>  <RMSD>
10.584

$$$$
ligand
 OpenBabel11021811503D
libRbt.so/2013.1/901 2013/11/27
 40 42  0  0  0  0  0  0  0  0999 V2000
    3.7568   -5.3272   22.0035 C   0  0  2  0  0  0  0  0  0  0  0  0
    4.7066   -4.2523   21.9282 O   0  0  0  0  0  0  0  0  0  0  0  0
    4.3690   -6.5538   22.7781 C   0  0  1  0  0  0  0  0  0  0  0  0
    5.5601   -7.1851   21.9999 C   0  0  2  0  0  0  0  0  0  0  0  0
    5.0229   -7.6590   20.6124 C   0  0  2  0  0  0  0  0  0  0  0  0
    6.0980   -8.2750   19.8712 O   0  0  0  0  0  0  0  0  0  0  0  0
    4.4520   -6.3942   19.8341 C   0  0  2  0  0  0  0  0  0  0  0  0
    3.3395   -5.7675   20.6340 O   0  0  0  0  0  0  0  0  0  0  0  0
    3.8827   -6.7571   18.4693 C   0  0  0  0  0  0  0  0  0  0  0  0
    2.6420   -5.9765   18.1661 N   0  0  0  0  0  0  0  0  0  0  0  0
    2.7055   -0.3464   21.6648 C   0  0  2  0  0  0  0  0  0  0  0  0
    2.3558    0.9703   21.1848 N   0  0  0  0  0  0  0  0  0  0  0  0
    4.2401   -0.3799   22.0477 C   0  0  0  0  0  0  0  0  0  0  0  0
    4.6423   -1.8294   22.5751 C   0  0  2  0  0  0  0  0  0  0  0  0
    6.0805   -1.8544   22.9498 N   0  0  0  0  0  0  0  0  0  0  0  0
    4.3217   -2.9089   21.4398 C   0  0  2  0  0  0  0  0  0  0  0  0
    2.7744   -2.8354   21.0899 C   0  0  2  0  0  0  0  0  0  0  0  0
    2.4769   -3.8000   20.0779 O   0  0  0  0  0  0  0  0  0  0  0  0
    2.3895   -1.3933   20.5729 C   0  0  1  0  0  0  0  0  0  0  0  0
    0.9716   -1.3369   20.2781 O   0  0  0  0  0  0  0  0  0  0  0  0
   -0.0322   -1.8942   21.0570 C   0  0  2  0  0  0  0  0  0  0  0  0
   -0.8602   -0.7126   21.6762 C   0  0  2  0  0  0  0  0  0  0  0  0
   -1.3666    0.0894   20.6585 O   0  0  0  0  0  0  0  0  0  0  0  0
    0.0030    0.1385   22.7018 C   0  0  1  0  0  0  0  0  0  0  0  0
   -0.8079    1.2499   23.2884 N   0  0  0  0  0  0  0  0  0  0  0  0
    0.5463   -0.8327   23.8387 C   0  0  2  0  0  0  0  0  0  0  0  0
    1.3235   -0.1070   24.7993 O   0  0  0  0  0  0  0  0  0  0  0  0
    1.3940   -1.9702   23.1484 C   0  0  2  0  0  0  0  0  0  0  0  0
    0.5519   -2.7331   22.1348 O   0  0  0  0  0  0  0  0  0  0  0  0
    1.9287   -2.9471   24.1683 C   0  0  0  0  0  0  0  0  0  0  0  0
    3.2424   -3.4339   23.8364 O   0  0  0  0  0  0  0  0  0  0  0  0
    4.7972   -6.0965   24.0940 O   0  0  0  0  0  0  0  0  0  0  0  0
    6.0459   -8.2546   22.7125 O   0  0  0  0  0  0  0  0  0  0  0  0
    2.3456    1.2172   19.7614 C   0  0  0  0  0  0  0  0  0  0  0  0
    3.0296    0.4810   18.9900 O   0  0  0  0  0  0  0  0  0  0  0  0
    1.4818    2.4031   19.2324 C   0  0  2  0  0  0  0  0  0  0  0  0
   -0.9536    0.8203   18.0069 N   0  0  0  0  0  0  0  0  0  0  0  0
    1.1073    2.1958   17.7323 C   0  0  0  0  0  0  0  0  0  0  0  0
    0.4232    0.8462   17.4576 C   0  0  0  0  0  0  0  0  0  0  0  0
    2.0972    3.5155   19.2766 O   0  0  0  0  0  0  0  0  0  0  0  0
  1  2  1  6  0  0  0
  1  3  1  0  0  0  0
  1  8  1  0  0  0  0
  3  4  1  0  0  0  0
  3 32  1  1  0  0  0
  4  5  1  0  0  0  0
  4 33  1  1  0  0  0
  5  6  1  6  0  0  0
  5  7  1  0  0  0  0
  7  8  1  0  0  0  0
  7  9  1  6  0  0  0
  9 10  1  0  0  0  0
 11 12  1  6  0  0  0
 11 13  1  0  0  0  0
 11 19  1  0  0  0  0
 12 34  1  0  0  0  0
 13 14  1  0  0  0  0
 14 15  1  6  0  0  0
 14 16  1  0  0  0  0
 16  2  1  1  0  0  0
 16 17  1  0  0  0  0
 17 18  1  6  0  0  0
 17 19  1  0  0  0  0
 19 20  1  1  0  0  0
 21 20  1  1  0  0  0
 21 22  1  0  0  0  0
 21 29  1  0  0  0  0
 22 23  1  6  0  0  0
 22 24  1  0  0  0  0
 24 25  1  1  0  0  0
 24 26  1  0  0  0  0
 26 27  1  1  0  0  0
 26 28  1  0  0  0  0
 28 29  1  0  0  0  0
 28 30  1  1  0  0  0
 30 31  1  0  0  0  0
 34 35  2  0  0  0  0
 36 34  1  6  0  0  0
 36 38  1  0  0  0  0
 36 40  1  0  0  0  0
 37 39  1  0  0  0  0
 38 39  1  0  0  0  0
M  END
>  <CHROM.1>
-170.40414023,122.24603360,141.28716800,96.03543108,-78.06101101,111.97520461
-143.94525114,-156.87922830,54.18866722,71.32102485,2.58900287,-2.42849358
21.22402397,0.12265100,-1.07797715,1.56525226

>  <Name>
ligand

>  <RI>
0

>  <Rbt.Current_Directory>
/home/itssahil/PROJECTS/Mol_Feturizer/New_Systems/rnas/4P20

>  <Rbt.Executable>
rbdock ($Id: //depot/dev/client3/rdock/2013.1/src/exe/rbdock.cxx#4 $)

>  <Rbt.Library>
libRbt.so (2013.1, Build901 2013/11/27)

>  <Rbt.Parameter_File>
/export/apps/rDock/src/rDock_2013.1_src/data/scripts/dock_solv.prm

>  <Rbt.Receptor>
prm/blind_docking_100.prm

>  <SCORE>
53.389

>  <SCORE.INTER>
11.5472

>  <SCORE.INTER.CONST>
1

>  <SCORE.INTER.POLAR>
0

>  <SCORE.INTER.ROT>
10

>  <SCORE.INTER.SOLV>
29.1445

>  <SCORE.INTER.VDW>
-12.2833

>  <SCORE.INTER.norm>
0.288681

>  <SCORE.INTRA>
26.1108

>  <SCORE.INTRA.DIHEDRAL>
-2.28451

>  <SCORE.INTRA.DIHEDRAL.0>
28.2802

>  <SCORE.INTRA.POLAR>
0

>  <SCORE.INTRA.POLAR.0>
0

>  <SCORE.INTRA.REPUL>
0.000308685

>  <SCORE.INTRA.REPUL.0>
0

>  <SCORE.INTRA.SOLV>
10.1719

>  <SCORE.INTRA.SOLV.lig_0>
-101.981

>  <SCORE.INTRA.VDW>
22.1656

>  <SCORE.INTRA.VDW.0>
-5.72964

>  <SCORE.INTRA.norm>
0.652771

>  <SCORE.RESTR>
15.7309

>  <SCORE.RESTR.CAVITY>
15.7309

>  <SCORE.RESTR.norm>
0.393273

>  <SCORE.SYSTEM>
0

>  <SCORE.SYSTEM.CONST>
0

>  <SCORE.SYSTEM.DIHEDRAL>
0

>  <SCORE.SYSTEM.SOLV>
0

>  <SCORE.SYSTEM.norm>
0

>  <SCORE.heavy>
40

>  <SCORE.norm>
1.33472

>  <RMSD>
10.604

$$$$
ligand
 OpenBabel11021811503D
libRbt.so/2013.1/901 2013/11/27
 40 42  0  0  0  0  0  0  0  0999 V2000
    3.7364   -6.2256   20.1158 C   0  0  2  0  0  0  0  0  0  0  0  0
    3.1360   -5.2905   21.0258 O   0  0  0  0  0  0  0  0  0  0  0  0
    2.6535   -7.2159   19.5450 C   0  0  1  0  0  0  0  0  0  0  0  0
    2.0695   -8.1303   20.6611 C   0  0  2  0  0  0  0  0  0  0  0  0
    3.2518   -8.9459   21.2737 C   0  0  2  0  0  0  0  0  0  0  0  0
    2.7419   -9.8266   22.2979 O   0  0  0  0  0  0  0  0  0  0  0  0
    4.3080   -7.9232   21.8821 C   0  0  2  0  0  0  0  0  0  0  0  0
    4.8153   -7.0126   20.7941 O   0  0  0  0  0  0  0  0  0  0  0  0
    5.5157   -8.6240   22.4892 C   0  0  0  0  0  0  0  0  0  0  0  0
    5.1061   -9.7755   23.3533 N   0  0  0  0  0  0  0  0  0  0  0  0
    1.5806   -1.1799   20.9119 C   0  0  2  0  0  0  0  0  0  0  0  0
    0.9326    0.0134   20.4193 N   0  0  0  0  0  0  0  0  0  0  0  0
    2.7964   -1.5493   19.9696 C   0  0  0  0  0  0  0  0  0  0  0  0
    3.5191   -2.8680   20.4984 C   0  0  2  0  0  0  0  0  0  0  0  0
    4.6711   -3.2044   19.6214 N   0  0  0  0  0  0  0  0  0  0  0  0
    2.4594   -4.0646   20.5452 C   0  0  2  0  0  0  0  0  0  0  0  0
    1.2610   -3.6462   21.4994 C   0  0  2  0  0  0  0  0  0  0  0  0
    0.3095   -4.7117   21.5509 O   0  0  0  0  0  0  0  0  0  0  0  0
    0.5572   -2.3365   20.9659 C   0  0  1  0  0  0  0  0  0  0  0  0
   -0.5198   -1.9565   21.8584 O   0  0  0  0  0  0  0  0  0  0  0  0
   -0.5939   -2.2746   23.2068 C   0  0  2  0  0  0  0  0  0  0  0  0
   -1.1753   -1.0230   23.9556 C   0  0  2  0  0  0  0  0  0  0  0  0
   -2.4172   -0.6925   23.4231 O   0  0  0  0  0  0  0  0  0  0  0  0
   -0.1797    0.2128   23.8998 C   0  0  1  0  0  0  0  0  0  0  0  0
   -0.7472    1.3888   24.6290 N   0  0  0  0  0  0  0  0  0  0  0  0
    1.2147   -0.2280   24.5261 C   0  0  2  0  0  0  0  0  0  0  0  0
    2.1465    0.8605   24.5103 O   0  0  0  0  0  0  0  0  0  0  0  0
    1.7529   -1.4629   23.7048 C   0  0  2  0  0  0  0  0  0  0  0  0
    0.7528   -2.6107   23.7360 O   0  0  0  0  0  0  0  0  0  0  0  0
    3.0706   -1.9524   24.2566 C   0  0  0  0  0  0  0  0  0  0  0  0
    3.7314   -2.8806   23.3766 O   0  0  0  0  0  0  0  0  0  0  0  0
    1.5988   -6.4290   18.9186 O   0  0  0  0  0  0  0  0  0  0  0  0
    1.1425   -8.9795   20.1068 O   0  0  0  0  0  0  0  0  0  0  0  0
    1.7474    1.1134   19.9578 C   0  0  0  0  0  0  0  0  0  0  0  0
    2.9406    1.2282   20.3678 O   0  0  0  0  0  0  0  0  0  0  0  0
    1.1067    2.1293   18.9628 C   0  0  2  0  0  0  0  0  0  0  0  0
   -1.1243    0.4073   17.8832 N   0  0  0  0  0  0  0  0  0  0  0  0
    1.0640    1.5442   17.5174 C   0  0  0  0  0  0  0  0  0  0  0  0
    0.2719    0.2299   17.4169 C   0  0  0  0  0  0  0  0  0  0  0  0
    1.7711    3.2101   18.8705 O   0  0  0  0  0  0  0  0  0  0  0  0
  1  2  1  1  0  0  0
  1  3  1  0  0  0  0
  1  8  1  0  0  0  0
  3  4  1  0  0  0  0
  3 32  1  1  0  0  0
  4  5  1  0  0  0  0
  4 33  1  6  0  0  0
  5  6  1  1  0  0  0
  5  7  1  0  0  0  0
  7  8  1  0  0  0  0
  7  9  1  6  0  0  0
  9 10  1  0  0  0  0
 11 12  1  6  0  0  0
 11 13  1  0  0  0  0
 11 19  1  0  0  0  0
 12 34  1  0  0  0  0
 13 14  1  0  0  0  0
 14 15  1  6  0  0  0
 14 16  1  0  0  0  0
 16  2  1  1  0  0  0
 16 17  1  0  0  0  0
 17 18  1  6  0  0  0
 17 19  1  0  0  0  0
 19 20  1  1  0  0  0
 21 20  1  6  0  0  0
 21 22  1  0  0  0  0
 21 29  1  0  0  0  0
 22 23  1  6  0  0  0
 22 24  1  0  0  0  0
 24 25  1  1  0  0  0
 24 26  1  0  0  0  0
 26 27  1  6  0  0  0
 26 28  1  0  0  0  0
 28 29  1  0  0  0  0
 28 30  1  1  0  0  0
 30 31  1  0  0  0  0
 34 35  2  0  0  0  0
 36 34  1  1  0  0  0
 36 38  1  0  0  0  0
 36 40  1  0  0  0  0
 37 39  1  0  0  0  0
 38 39  1  0  0  0  0
M  END
>  <CHROM.1>
-83.10714317,-91.45762972,-46.06651394,-42.44102156,-94.25519887,140.90755678
-167.54935013,-77.91936777,58.74990837,58.00607058,1.82219113,-3.03997025
21.37076293,-0.58140425,1.19858804,-0.98484178

>  <Name>
ligand

>  <RI>
0

>  <Rbt.Current_Directory>
/home/itssahil/PROJECTS/Mol_Feturizer/New_Systems/rnas/4P20

>  <Rbt.Executable>
rbdock ($Id: //depot/dev/client3/rdock/2013.1/src/exe/rbdock.cxx#4 $)

>  <Rbt.Library>
libRbt.so (2013.1, Build901 2013/11/27)

>  <Rbt.Parameter_File>
/export/apps/rDock/src/rDock_2013.1_src/data/scripts/dock_solv.prm

>  <Rbt.Receptor>
prm/blind_docking_100.prm

>  <SCORE>
24.6118

>  <SCORE.INTER>
-0.466166

>  <SCORE.INTER.CONST>
1

>  <SCORE.INTER.POLAR>
0

>  <SCORE.INTER.ROT>
10

>  <SCORE.INTER.SOLV>
28.312

>  <SCORE.INTER.VDW>
-20.0148

>  <SCORE.INTER.norm>
-0.0116541

>  <SCORE.INTRA>
2.48944

>  <SCORE.INTRA.DIHEDRAL>
-9.8021

>  <SCORE.INTRA.DIHEDRAL.0>
28.2802

>  <SCORE.INTRA.POLAR>
0

>  <SCORE.INTRA.POLAR.0>
0

>  <SCORE.INTRA.REPUL>
0.0628881

>  <SCORE.INTRA.REPUL.0>
0

>  <SCORE.INTRA.SOLV>
5.17597

>  <SCORE.INTRA.SOLV.lig_0>
-101.981

>  <SCORE.INTRA.VDW>
4.48807

>  <SCORE.INTRA.VDW.0>
-5.72964

>  <SCORE.INTRA.norm>
0.062236

>  <SCORE.RESTR>
22.5886

>  <SCORE.RESTR.CAVITY>
22.5886

>  <SCORE.RESTR.norm>
0.564714

>  <SCORE.SYSTEM>
0

>  <SCORE.SYSTEM.CONST>
0

>  <SCORE.SYSTEM.DIHEDRAL>
0

>  <SCORE.SYSTEM.SOLV>
0

>  <SCORE.SYSTEM.norm>
0

>  <SCORE.heavy>
40

>  <SCORE.norm>
0.615296

>  <RMSD>
10.647

$$$$
ligand
 OpenBabel11021811503D
libRbt.so/2013.1/901 2013/11/27
 40 42  0  0  0  0  0  0  0  0999 V2000
    0.3555    1.9038   21.3743 C   0  0  2  0  0  0  0  0  0  0  0  0
   -0.3629    0.7077   21.7151 O   0  0  0  0  0  0  0  0  0  0  0  0
   -0.0482    2.4013   19.9359 C   0  0  1  0  0  0  0  0  0  0  0  0
    0.3965    1.3934   18.8363 C   0  0  2  0  0  0  0  0  0  0  0  0
    1.9490    1.2507   18.9228 C   0  0  2  0  0  0  0  0  0  0  0  0
    2.4009    0.3403   17.8973 O   0  0  0  0  0  0  0  0  0  0  0  0
    2.3253    0.7047   20.3691 C   0  0  2  0  0  0  0  0  0  0  0  0
    1.8342    1.6689   21.4176 O   0  0  0  0  0  0  0  0  0  0  0  0
    3.8276    0.5494   20.5615 C   0  0  0  0  0  0  0  0  0  0  0  0
    4.1459   -0.5063   21.5738 N   0  0  0  0  0  0  0  0  0  0  0  0
    2.5339   -1.9825   23.6392 C   0  0  2  0  0  0  0  0  0  0  0  0
    3.0802   -2.9623   24.5491 N   0  0  0  0  0  0  0  0  0  0  0  0
    2.0087   -0.7348   24.4579 C   0  0  0  0  0  0  0  0  0  0  0  0
    1.3980    0.3539   23.4666 C   0  0  2  0  0  0  0  0  0  0  0  0
    0.9201    1.5325   24.2360 N   0  0  0  0  0  0  0  0  0  0  0  0
    0.2096   -0.3087   22.6266 C   0  0  2  0  0  0  0  0  0  0  0  0
    0.7849   -1.5538   21.8261 C   0  0  2  0  0  0  0  0  0  0  0  0
   -0.2699   -2.1512   21.0685 O   0  0  0  0  0  0  0  0  0  0  0  0
    1.3901   -2.6220   22.8200 C   0  0  1  0  0  0  0  0  0  0  0  0
    1.9291   -3.7411   22.0733 O   0  0  0  0  0  0  0  0  0  0  0  0
    3.0544   -3.6971   21.2629 C   0  0  2  0  0  0  0  0  0  0  0  0
    2.6329   -4.2141   19.8416 C   0  0  2  0  0  0  0  0  0  0  0  0
    1.5954   -3.4310   19.3459 O   0  0  0  0  0  0  0  0  0  0  0  0
    2.2304   -5.7499   19.8681 C   0  0  1  0  0  0  0  0  0  0  0  0
    1.8448   -6.2244   18.5031 N   0  0  0  0  0  0  0  0  0  0  0  0
    3.4568   -6.5879   20.4379 C   0  0  2  0  0  0  0  0  0  0  0  0
    3.1466   -7.9866   20.4696 O   0  0  0  0  0  0  0  0  0  0  0  0
    3.8006   -6.0382   21.8762 C   0  0  2  0  0  0  0  0  0  0  0  0
    4.1316   -4.5529   21.8229 O   0  0  0  0  0  0  0  0  0  0  0  0
    4.9741   -6.7756   22.4758 C   0  0  0  0  0  0  0  0  0  0  0  0
    4.6669   -8.1463   22.7913 O   0  0  0  0  0  0  0  0  0  0  0  0
   -1.4927    2.5924   19.9066 O   0  0  0  0  0  0  0  0  0  0  0  0
    0.0315    1.8819   17.6051 O   0  0  0  0  0  0  0  0  0  0  0  0
    4.4775   -3.3134   24.4442 C   0  0  0  0  0  0  0  0  0  0  0  0
    5.0925   -3.1293   23.3520 O   0  0  0  0  0  0  0  0  0  0  0  0
    5.1746   -3.9183   25.7015 C   0  0  2  0  0  0  0  0  0  0  0  0
    7.4152   -3.9930   23.1610 N   0  0  0  0  0  0  0  0  0  0  0  0
    6.7270   -3.8756   25.5542 C   0  0  0  0  0  0  0  0  0  0  0  0
    7.2543   -4.7655   24.4162 C   0  0  0  0  0  0  0  0  0  0  0  0
    4.8856   -5.1442   25.8797 O   0  0  0  0  0  0  0  0  0  0  0  0
  1  2  1  6  0  0  0
  1  3  1  0  0  0  0
  1  8  1  0  0  0  0
  3  4  1  0  0  0  0
  3 32  1  1  0  0  0
  4  5  1  0  0  0  0
  4 33  1  6  0  0  0
  5  6  1  6  0  0  0
  5  7  1  0  0  0  0
  7  8  1  0  0  0  0
  7  9  1  6  0  0  0
  9 10  1  0  0  0  0
 11 12  1  1  0  0  0
 11 13  1  0  0  0  0
 11 19  1  0  0  0  0
 12 34  1  0  0  0  0
 13 14  1  0  0  0  0
 14 15  1  1  0  0  0
 14 16  1  0  0  0  0
 16  2  1  6  0  0  0
 16 17  1  0  0  0  0
 17 18  1  1  0  0  0
 17 19  1  0  0  0  0
 19 20  1  6  0  0  0
 21 20  1  1  0  0  0
 21 22  1  0  0  0  0
 21 29  1  0  0  0  0
 22 23  1  1  0  0  0
 22 24  1  0  0  0  0
 24 25  1  6  0  0  0
 24 26  1  0  0  0  0
 26 27  1  1  0  0  0
 26 28  1  0  0  0  0
 28 29  1  0  0  0  0
 28 30  1  6  0  0  0
 30 31  1  0  0  0  0
 34 35  2  0  0  0  0
 36 34  1  6  0  0  0
 36 38  1  0  0  0  0
 36 40  1  0  0  0  0
 37 39  1  0  0  0  0
 38 39  1  0  0  0  0
M  END
>  <CHROM.1>
150.54881919,18.49053247,-153.12788002,-118.09187043,-50.97275071,-125.06478609
-68.31160830,-164.52950677,-65.15598115,93.95218776,2.63637598,-2.28595649
21.77522436,-2.64150716,0.96982410,-2.53896924

>  <Name>
ligand

>  <RI>
0

>  <Rbt.Current_Directory>
/home/itssahil/PROJECTS/Mol_Feturizer/New_Systems/rnas/4P20

>  <Rbt.Executable>
rbdock ($Id: //depot/dev/client3/rdock/2013.1/src/exe/rbdock.cxx#4 $)

>  <Rbt.Library>
libRbt.so (2013.1, Build901 2013/11/27)

>  <Rbt.Parameter_File>
/export/apps/rDock/src/rDock_2013.1_src/data/scripts/dock_solv.prm

>  <Rbt.Receptor>
prm/blind_docking_100.prm

>  <SCORE>
38.6273

>  <SCORE.INTER>
4.58675

>  <SCORE.INTER.CONST>
1

>  <SCORE.INTER.POLAR>
0

>  <SCORE.INTER.ROT>
10

>  <SCORE.INTER.SOLV>
21.1924

>  <SCORE.INTER.VDW>
-14.273

>  <SCORE.INTER.norm>
0.114669

>  <SCORE.INTRA>
9.74676

>  <SCORE.INTRA.DIHEDRAL>
-3.52758

>  <SCORE.INTRA.DIHEDRAL.0>
28.2802

>  <SCORE.INTRA.POLAR>
0

>  <SCORE.INTRA.POLAR.0>
0

>  <SCORE.INTRA.REPUL>
0

>  <SCORE.INTRA.REPUL.0>
0

>  <SCORE.INTRA.SOLV>
12.8092

>  <SCORE.INTRA.SOLV.lig_0>
-101.981

>  <SCORE.INTRA.VDW>
5.10593

>  <SCORE.INTRA.VDW.0>
-5.72964

>  <SCORE.INTRA.norm>
0.243669

>  <SCORE.RESTR>
24.2938

>  <SCORE.RESTR.CAVITY>
24.2938

>  <SCORE.RESTR.norm>
0.607346

>  <SCORE.SYSTEM>
0

>  <SCORE.SYSTEM.CONST>
0

>  <SCORE.SYSTEM.DIHEDRAL>
0

>  <SCORE.SYSTEM.SOLV>
0

>  <SCORE.SYSTEM.norm>
0

>  <SCORE.heavy>
40

>  <SCORE.norm>
0.965683

>  <RMSD>
10.735

$$$$
ligand
 OpenBabel11021811503D
libRbt.so/2013.1/901 2013/11/27
 40 42  0  0  0  0  0  0  0  0999 V2000
    4.3087   -6.3365   20.6330 C   0  0  2  0  0  0  0  0  0  0  0  0
    2.9178   -6.0030   20.7633 O   0  0  0  0  0  0  0  0  0  0  0  0
    4.5602   -7.8346   21.0473 C   0  0  1  0  0  0  0  0  0  0  0  0
    4.2793   -8.0644   22.5610 C   0  0  2  0  0  0  0  0  0  0  0  0
    5.2365   -7.1316   23.3684 C   0  0  2  0  0  0  0  0  0  0  0  0
    5.0214   -7.3374   24.7812 O   0  0  0  0  0  0  0  0  0  0  0  0
    4.9305   -5.6235   22.9639 C   0  0  2  0  0  0  0  0  0  0  0  0
    5.1543   -5.4408   21.4851 O   0  0  0  0  0  0  0  0  0  0  0  0
    5.8313   -4.6313   23.6866 C   0  0  0  0  0  0  0  0  0  0  0  0
    5.4908   -4.5383   25.1413 N   0  0  0  0  0  0  0  0  0  0  0  0
    1.8531   -1.7392   20.8905 C   0  0  2  0  0  0  0  0  0  0  0  0
    1.3551   -0.4510   20.4675 N   0  0  0  0  0  0  0  0  0  0  0  0
    3.0301   -2.1914   19.9349 C   0  0  0  0  0  0  0  0  0  0  0  0
    3.5872   -3.6148   20.3868 C   0  0  2  0  0  0  0  0  0  0  0  0
    4.7037   -4.0306   19.4980 N   0  0  0  0  0  0  0  0  0  0  0  0
    2.3949   -4.6799   20.3541 C   0  0  2  0  0  0  0  0  0  0  0  0
    1.2408   -4.1819   21.3247 C   0  0  2  0  0  0  0  0  0  0  0  0
    0.1712   -5.1299   21.3053 O   0  0  0  0  0  0  0  0  0  0  0  0
    0.7014   -2.7693   20.8676 C   0  0  1  0  0  0  0  0  0  0  0  0
   -0.3357   -2.3200   21.7750 O   0  0  0  0  0  0  0  0  0  0  0  0
   -0.4127   -2.6348   23.1240 C   0  0  2  0  0  0  0  0  0  0  0  0
   -1.2219   -1.4898   23.8304 C   0  0  2  0  0  0  0  0  0  0  0  0
   -2.4779   -1.3722   23.2441 O   0  0  0  0  0  0  0  0  0  0  0  0
   -0.4409   -0.1077   23.7957 C   0  0  1  0  0  0  0  0  0  0  0  0
   -1.2232    0.9650   24.4844 N   0  0  0  0  0  0  0  0  0  0  0  0
    0.9797   -0.3083   24.4834 C   0  0  2  0  0  0  0  0  0  0  0  0
    1.7204    0.9185   24.4885 O   0  0  0  0  0  0  0  0  0  0  0  0
    1.7466   -1.4446   23.7026 C   0  0  2  0  0  0  0  0  0  0  0  0
    0.9477   -2.7408   23.7111 O   0  0  0  0  0  0  0  0  0  0  0  0
    3.1026   -1.7064   24.3135 C   0  0  0  0  0  0  0  0  0  0  0  0
    3.8897   -2.6337   23.5432 O   0  0  0  0  0  0  0  0  0  0  0  0
    3.7051   -8.6853   20.2293 O   0  0  0  0  0  0  0  0  0  0  0  0
    4.5260   -9.3804   22.8689 O   0  0  0  0  0  0  0  0  0  0  0  0
    2.2757    0.5011   19.8905 C   0  0  0  0  0  0  0  0  0  0  0  0
    3.5138    0.4122   20.1437 O   0  0  0  0  0  0  0  0  0  0  0  0
    1.6910    1.6169   18.9709 C   0  0  2  0  0  0  0  0  0  0  0  0
    1.4922    5.4800   19.4224 N   0  0  0  0  0  0  0  0  0  0  0  0
    1.8119    3.0178   19.6464 C   0  0  0  0  0  0  0  0  0  0  0  0
    1.3620    4.1725   18.7357 C   0  0  0  0  0  0  0  0  0  0  0  0
    0.4504    1.4598   18.7381 O   0  0  0  0  0  0  0  0  0  0  0  0
  1  2  1  1  0  0  0
  1  3  1  0  0  0  0
  1  8  1  0  0  0  0
  3  4  1  0  0  0  0
  3 32  1  6  0  0  0
  4  5  1  0  0  0  0
  4 33  1  1  0  0  0
  5  6  1  1  0  0  0
  5  7  1  0  0  0  0
  7  8  1  0  0  0  0
  7  9  1  1  0  0  0
  9 10  1  0  0  0  0
 11 12  1  6  0  0  0
 11 13  1  0  0  0  0
 11 19  1  0  0  0  0
 12 34  1  0  0  0  0
 13 14  1  0  0  0  0
 14 15  1  6  0  0  0
 14 16  1  0  0  0  0
 16  2  1  1  0  0  0
 16 17  1  0  0  0  0
 17 18  1  6  0  0  0
 17 19  1  0  0  0  0
 19 20  1  1  0  0  0
 21 20  1  6  0  0  0
 21 22  1  0  0  0  0
 21 29  1  0  0  0  0
 22 23  1  6  0  0  0
 22 24  1  0  0  0  0
 24 25  1  1  0  0  0
 24 26  1  0  0  0  0
 26 27  1  6  0  0  0
 26 28  1  0  0  0  0
 28 29  1  0  0  0  0
 28 30  1  1  0  0  0
 30 31  1  0  0  0  0
 34 35  2  0  0  0  0
 36 34  1  1  0  0  0
 36 38  1  0  0  0  0
 36 40  1  0  0  0  0
 37 39  1  0  0  0  0
 38 39  1  0  0  0  0
M  END
>  <CHROM.1>
-175.98571521,-23.73710634,-70.61371346,-33.25090313,-89.61533339,154.56268380
-173.70766571,111.37358926,175.03282872,179.85586196,2.34623532,-2.73431512
21.87752228,-0.91787153,0.88935921,-0.69148537

>  <Name>
ligand

>  <RI>
0

>  <Rbt.Current_Directory>
/home/itssahil/PROJECTS/Mol_Feturizer/New_Systems/rnas/4P20

>  <Rbt.Executable>
rbdock ($Id: //depot/dev/client3/rdock/2013.1/src/exe/rbdock.cxx#4 $)

>  <Rbt.Library>
libRbt.so (2013.1, Build901 2013/11/27)

>  <Rbt.Parameter_File>
/export/apps/rDock/src/rDock_2013.1_src/data/scripts/dock_solv.prm

>  <Rbt.Receptor>
prm/blind_docking_100.prm

>  <SCORE>
51.4718

>  <SCORE.INTER>
27.9316

>  <SCORE.INTER.CONST>
1

>  <SCORE.INTER.POLAR>
0

>  <SCORE.INTER.ROT>
10

>  <SCORE.INTER.SOLV>
29.8806

>  <SCORE.INTER.VDW>
-1.60578

>  <SCORE.INTER.norm>
0.698291

>  <SCORE.INTRA>
3.46525

>  <SCORE.INTRA.DIHEDRAL>
-13.6456

>  <SCORE.INTRA.DIHEDRAL.0>
28.2802

>  <SCORE.INTRA.POLAR>
0

>  <SCORE.INTRA.POLAR.0>
0

>  <SCORE.INTRA.REPUL>
0

>  <SCORE.INTRA.REPUL.0>
0

>  <SCORE.INTRA.SOLV>
5.08743

>  <SCORE.INTRA.SOLV.lig_0>
-101.981

>  <SCORE.INTRA.VDW>
7.74435

>  <SCORE.INTRA.VDW.0>
-5.72964

>  <SCORE.INTRA.norm>
0.0866311

>  <SCORE.RESTR>
20.0749

>  <SCORE.RESTR.CAVITY>
20.0749

>  <SCORE.RESTR.norm>
0.501873

>  <SCORE.SYSTEM>
0

>  <SCORE.SYSTEM.CONST>
0

>  <SCORE.SYSTEM.DIHEDRAL>
0

>  <SCORE.SYSTEM.SOLV>
0

>  <SCORE.SYSTEM.norm>
0

>  <SCORE.heavy>
40

>  <SCORE.norm>
1.28679

>  <RMSD>
10.740

$$$$
ligand
 OpenBabel11021811503D
libRbt.so/2013.1/901 2013/11/27
 40 42  0  0  0  0  0  0  0  0999 V2000
    9.7476   -2.3105   25.4853 C   0  0  2  0  0  0  0  0  0  0  0  0
    9.1913   -1.5338   24.4128 O   0  0  0  0  0  0  0  0  0  0  0  0
   10.9549   -1.5501   26.1514 C   0  0  1  0  0  0  0  0  0  0  0  0
   12.1495   -1.3983   25.1650 C   0  0  2  0  0  0  0  0  0  0  0  0
   12.6033   -2.8320   24.7446 C   0  0  2  0  0  0  0  0  0  0  0  0
   13.7298   -2.7305   23.8473 O   0  0  0  0  0  0  0  0  0  0  0  0
   11.3795   -3.5605   24.0353 C   0  0  2  0  0  0  0  0  0  0  0  0
   10.2174   -3.6440   24.9907 O   0  0  0  0  0  0  0  0  0  0  0  0
   11.7168   -4.9811   23.6036 C   0  0  0  0  0  0  0  0  0  0  0  0
   12.9240   -5.0148   22.7193 N   0  0  0  0  0  0  0  0  0  0  0  0
    5.0303   -2.8653   23.9202 C   0  0  2  0  0  0  0  0  0  0  0  0
    3.7785   -3.2003   23.2820 N   0  0  0  0  0  0  0  0  0  0  0  0
    5.3679   -1.3423   23.6564 C   0  0  0  0  0  0  0  0  0  0  0  0
    6.7502   -0.9588   24.3513 C   0  0  2  0  0  0  0  0  0  0  0  0
    7.0577    0.4764   24.1164 N   0  0  0  0  0  0  0  0  0  0  0  0
    7.9070   -1.8999   23.7740 C   0  0  2  0  0  0  0  0  0  0  0  0
    7.5222   -3.4137   24.0609 C   0  0  2  0  0  0  0  0  0  0  0  0
    8.5526   -4.2633   23.5516 O   0  0  0  0  0  0  0  0  0  0  0  0
    6.1491   -3.7784   23.3703 C   0  0  1  0  0  0  0  0  0  0  0  0
    5.8022   -5.1557   23.6589 O   0  0  0  0  0  0  0  0  0  0  0  0
    4.5522   -5.7256   23.4644 C   0  0  2  0  0  0  0  0  0  0  0  0
    4.7730   -7.1351   22.8089 C   0  0  2  0  0  0  0  0  0  0  0  0
    5.5846   -7.9121   23.6291 O   0  0  0  0  0  0  0  0  0  0  0  0
    5.3804   -7.0170   21.3466 C   0  0  1  0  0  0  0  0  0  0  0  0
    5.5706   -8.3693   20.7366 N   0  0  0  0  0  0  0  0  0  0  0  0
    4.4058   -6.1239   20.4611 C   0  0  2  0  0  0  0  0  0  0  0  0
    4.9055   -5.9978   19.1240 O   0  0  0  0  0  0  0  0  0  0  0  0
    4.2594   -4.7170   21.1598 C   0  0  2  0  0  0  0  0  0  0  0  0
    3.7236   -4.8698   22.5769 O   0  0  0  0  0  0  0  0  0  0  0  0
    3.3281   -3.8168   20.3835 C   0  0  0  0  0  0  0  0  0  0  0  0
    3.5324   -2.4218   20.6746 O   0  0  0  0  0  0  0  0  0  0  0  0
   10.4841   -0.2445   26.5959 O   0  0  0  0  0  0  0  0  0  0  0  0
   13.1756   -0.7415   25.8001 O   0  0  0  0  0  0  0  0  0  0  0  0
    2.5924   -2.4527   23.6302 C   0  0  0  0  0  0  0  0  0  0  0  0
    2.5335   -1.8479   24.7418 O   0  0  0  0  0  0  0  0  0  0  0  0
    1.4171   -2.4293   22.6053 C   0  0  2  0  0  0  0  0  0  0  0  0
    1.3909   -1.0678   19.7906 N   0  0  0  0  0  0  0  0  0  0  0  0
    1.0126   -0.9645   22.2526 C   0  0  0  0  0  0  0  0  0  0  0  0
    0.3869   -0.8267   20.8545 C   0  0  0  0  0  0  0  0  0  0  0  0
    0.3600   -2.9718   23.0595 O   0  0  0  0  0  0  0  0  0  0  0  0
  1  2  1  6  0  0  0
  1  3  1  0  0  0  0
  1  8  1  0  0  0  0
  3  4  1  0  0  0  0
  3 32  1  6  0  0  0
  4  5  1  0  0  0  0
  4 33  1  1  0  0  0
  5  6  1  6  0  0  0
  5  7  1  0  0  0  0
  7  8  1  0  0  0  0
  7  9  1  1  0  0  0
  9 10  1  0  0  0  0
 11 12  1  6  0  0  0
 11 13  1  0  0  0  0
 11 19  1  0  0  0  0
 12 34  1  0  0  0  0
 13 14  1  0  0  0  0
 14 15  1  6  0  0  0
 14 16  1  0  0  0  0
 16  2  1  1  0  0  0
 16 17  1  0  0  0  0
 17 18  1  6  0  0  0
 17 19  1  0  0  0  0
 19 20  1  1  0  0  0
 21 20  1  6  0  0  0
 21 22  1  0  0  0  0
 21 29  1  0  0  0  0
 22 23  1  1  0  0  0
 22 24  1  0  0  0  0
 24 25  1  6  0  0  0
 24 26  1  0  0  0  0
 26 27  1  6  0  0  0
 26 28  1  0  0  0  0
 28 29  1  0  0  0  0
 28 30  1  6  0  0  0
 30 31  1  0  0  0  0
 34 35  2  0  0  0  0
 36 34  1  1  0  0  0
 36 38  1  0  0  0  0
 36 40  1  0  0  0  0
 37 39  1  0  0  0  0
 38 39  1  0  0  0  0
M  END
>  <CHROM.1>
-169.10778180,101.30143131,-55.44090208,-57.31916741,45.41937645,136.29196831
-158.62998118,-125.28916147,152.95300800,-68.83627130,6.56665571,-3.33896381
23.22076708,0.21888791,-0.25557887,0.39413308

>  <Name>
ligand

>  <RI>
0

>  <Rbt.Current_Directory>
/home/itssahil/PROJECTS/Mol_Feturizer/New_Systems/rnas/4P20

>  <Rbt.Executable>
rbdock ($Id: //depot/dev/client3/rdock/2013.1/src/exe/rbdock.cxx#4 $)

>  <Rbt.Library>
libRbt.so (2013.1, Build901 2013/11/27)

>  <Rbt.Parameter_File>
/export/apps/rDock/src/rDock_2013.1_src/data/scripts/dock_solv.prm

>  <Rbt.Receptor>
prm/blind_docking_60.prm

>  <SCORE>
41.1373

>  <SCORE.INTER>
9.0506

>  <SCORE.INTER.CONST>
1

>  <SCORE.INTER.POLAR>
0

>  <SCORE.INTER.ROT>
10

>  <SCORE.INTER.SOLV>
28.7686

>  <SCORE.INTER.VDW>
-13.8225

>  <SCORE.INTER.norm>
0.226265

>  <SCORE.INTRA>
18.7668

>  <SCORE.INTRA.DIHEDRAL>
-8.65426

>  <SCORE.INTRA.DIHEDRAL.0>
28.2802

>  <SCORE.INTRA.POLAR>
0

>  <SCORE.INTRA.POLAR.0>
0

>  <SCORE.INTRA.REPUL>
0.000193509

>  <SCORE.INTRA.REPUL.0>
0

>  <SCORE.INTRA.SOLV>
5.662

>  <SCORE.INTRA.SOLV.lig_0>
-101.981

>  <SCORE.INTRA.VDW>
20.262

>  <SCORE.INTRA.VDW.0>
-5.72964

>  <SCORE.INTRA.norm>
0.46917

>  <SCORE.RESTR>
13.3199

>  <SCORE.RESTR.CAVITY>
13.3199

>  <SCORE.RESTR.norm>
0.332998

>  <SCORE.SYSTEM>
0

>  <SCORE.SYSTEM.CONST>
0

>  <SCORE.SYSTEM.DIHEDRAL>
0

>  <SCORE.SYSTEM.SOLV>
0

>  <SCORE.SYSTEM.norm>
0

>  <SCORE.heavy>
40

>  <SCORE.norm>
1.02843

>  <RMSD>
10.756

$$$$
ligand
 OpenBabel11021811503D
libRbt.so/2013.1/901 2013/11/27
 40 42  0  0  0  0  0  0  0  0999 V2000
    8.8901   -2.0495   23.7531 C   0  0  2  0  0  0  0  0  0  0  0  0
    8.1425   -2.6333   24.8317 O   0  0  0  0  0  0  0  0  0  0  0  0
   10.1152   -2.9618   23.3710 C   0  0  1  0  0  0  0  0  0  0  0  0
   11.1558   -3.0356   24.5263 C   0  0  2  0  0  0  0  0  0  0  0  0
   11.6545   -1.5833   24.8097 C   0  0  2  0  0  0  0  0  0  0  0  0
   12.6431   -1.6165   25.8613 O   0  0  0  0  0  0  0  0  0  0  0  0
   10.4050   -0.6954   25.2362 C   0  0  2  0  0  0  0  0  0  0  0  0
    9.3875   -0.6865   24.1250 O   0  0  0  0  0  0  0  0  0  0  0  0
   10.7861    0.7519   25.5162 C   0  0  0  0  0  0  0  0  0  0  0  0
   11.8861    0.8449   26.5270 N   0  0  0  0  0  0  0  0  0  0  0  0
    3.9268   -3.3990   23.8460 C   0  0  2  0  0  0  0  0  0  0  0  0
    2.4851   -3.3431   23.9133 N   0  0  0  0  0  0  0  0  0  0  0  0
    4.4979   -3.9774   25.2032 C   0  0  0  0  0  0  0  0  0  0  0  0
    6.0897   -4.0406   25.1457 C   0  0  2  0  0  0  0  0  0  0  0  0
    6.6237   -4.5996   26.4153 N   0  0  0  0  0  0  0  0  0  0  0  0
    6.6639   -2.5733   24.8733 C   0  0  2  0  0  0  0  0  0  0  0  0
    6.0620   -2.0371   23.5051 C   0  0  2  0  0  0  0  0  0  0  0  0
    6.5728   -0.7265   23.2506 O   0  0  0  0  0  0  0  0  0  0  0  0
    4.4848   -1.9836   23.5749 C   0  0  1  0  0  0  0  0  0  0  0  0
    3.9507   -1.5126   22.3126 O   0  0  0  0  0  0  0  0  0  0  0  0
    4.3127   -1.9889   21.0608 C   0  0  2  0  0  0  0  0  0  0  0  0
    3.1490   -1.6370   20.0673 C   0  0  2  0  0  0  0  0  0  0  0  0
    2.9326   -0.2628   20.0659 O   0  0  0  0  0  0  0  0  0  0  0  0
    1.8166   -2.4273   20.4158 C   0  0  1  0  0  0  0  0  0  0  0  0
    0.7261   -2.0870   19.4505 N   0  0  0  0  0  0  0  0  0  0  0  0
    2.1298   -3.9870   20.3958 C   0  0  2  0  0  0  0  0  0  0  0  0
    0.9515   -4.7465   20.6927 O   0  0  0  0  0  0  0  0  0  0  0  0
    3.2793   -4.2700   21.4387 C   0  0  2  0  0  0  0  0  0  0  0  0
    4.5240   -3.4586   21.1055 O   0  0  0  0  0  0  0  0  0  0  0  0
    3.6466   -5.7346   21.4615 C   0  0  0  0  0  0  0  0  0  0  0  0
    2.5098   -6.5959   21.2657 O   0  0  0  0  0  0  0  0  0  0  0  0
    9.6123   -4.2901   23.0443 O   0  0  0  0  0  0  0  0  0  0  0  0
   12.2054   -3.8313   24.1353 O   0  0  0  0  0  0  0  0  0  0  0  0
    1.8262   -2.0650   23.7739 C   0  0  0  0  0  0  0  0  0  0  0  0
    2.4608   -0.9987   24.0290 O   0  0  0  0  0  0  0  0  0  0  0  0
    0.3363   -2.0582   23.3129 C   0  0  2  0  0  0  0  0  0  0  0  0
    1.0102    0.9749   23.6567 N   0  0  0  0  0  0  0  0  0  0  0  0
   -0.4819   -0.9762   24.0832 C   0  0  0  0  0  0  0  0  0  0  0  0
   -0.3562    0.4297   23.4727 C   0  0  0  0  0  0  0  0  0  0  0  0
   -0.2545   -3.1598   23.5482 O   0  0  0  0  0  0  0  0  0  0  0  0
  1  2  1  1  0  0  0
  1  3  1  0  0  0  0
  1  8  1  0  0  0  0
  3  4  1  0  0  0  0
  3 32  1  1  0  0  0
  4  5  1  0  0  0  0
  4 33  1  6  0  0  0
  5  6  1  1  0  0  0
  5  7  1  0  0  0  0
  7  8  1  0  0  0  0
  7  9  1  6  0  0  0
  9 10  1  0  0  0  0
 11 12  1  1  0  0  0
 11 13  1  0  0  0  0
 11 19  1  0  0  0  0
 12 34  1  0  0  0  0
 13 14  1  0  0  0  0
 14 15  1  1  0  0  0
 14 16  1  0  0  0  0
 16  2  1  6  0  0  0
 16 17  1  0  0  0  0
 17 18  1  1  0  0  0
 17 19  1  0  0  0  0
 19 20  1  6  0  0  0
 21 20  1  1  0  0  0
 21 22  1  0  0  0  0
 21 29  1  0  0  0  0
 22 23  1  1  0  0  0
 22 24  1  0  0  0  0
 24 25  1  6  0  0  0
 24 26  1  0  0  0  0
 26 27  1  1  0  0  0
 26 28  1  0  0  0  0
 28 29  1  0  0  0  0
 28 30  1  6  0  0  0
 30 31  1  0  0  0  0
 34 35  2  0  0  0  0
 36 34  1  1  0  0  0
 36 38  1  0  0  0  0
 36 40  1  0  0  0  0
 37 39  1  0  0  0  0
 38 39  1  0  0  0  0
M  END
>  <CHROM.1>
-141.41163400,129.94225046,-54.24136101,119.72377543,-71.50733834,158.35334149
-35.83006503,140.60089445,83.42581682,-68.76368963,5.33743745,-2.38472783
23.26542364,-0.19456235,0.23967444,-2.68346481

>  <Name>
ligand

>  <RI>
0

>  <Rbt.Current_Directory>
/home/itssahil/PROJECTS/Mol_Feturizer/New_Systems/rnas/4P20

>  <Rbt.Executable>
rbdock ($Id: //depot/dev/client3/rdock/2013.1/src/exe/rbdock.cxx#4 $)

>  <Rbt.Library>
libRbt.so (2013.1, Build901 2013/11/27)

>  <Rbt.Parameter_File>
/export/apps/rDock/src/rDock_2013.1_src/data/scripts/dock_solv.prm

>  <Rbt.Receptor>
prm/blind_docking_60.prm

>  <SCORE>
54.9789

>  <SCORE.INTER>
22.3594

>  <SCORE.INTER.CONST>
1

>  <SCORE.INTER.POLAR>
0

>  <SCORE.INTER.ROT>
10

>  <SCORE.INTER.SOLV>
27.6788

>  <SCORE.INTER.VDW>
-4.58663

>  <SCORE.INTER.norm>
0.558986

>  <SCORE.INTRA>
16.1982

>  <SCORE.INTRA.DIHEDRAL>
-6.52668

>  <SCORE.INTRA.DIHEDRAL.0>
28.2802

>  <SCORE.INTRA.POLAR>
0

>  <SCORE.INTRA.POLAR.0>
0

>  <SCORE.INTRA.REPUL>
0

>  <SCORE.INTRA.REPUL.0>
0

>  <SCORE.INTRA.SOLV>
6.29932

>  <SCORE.INTRA.SOLV.lig_0>
-101.981

>  <SCORE.INTRA.VDW>
16.3118

>  <SCORE.INTRA.VDW.0>
-5.72964

>  <SCORE.INTRA.norm>
0.404954

>  <SCORE.RESTR>
16.4213

>  <SCORE.RESTR.CAVITY>
16.4213

>  <SCORE.RESTR.norm>
0.410533

>  <SCORE.SYSTEM>
0

>  <SCORE.SYSTEM.CONST>
0

>  <SCORE.SYSTEM.DIHEDRAL>
0

>  <SCORE.SYSTEM.SOLV>
0

>  <SCORE.SYSTEM.norm>
0

>  <SCORE.heavy>
40

>  <SCORE.norm>
1.37447

>  <RMSD>
10.858

$$$$
ligand
 OpenBabel11021811503D
libRbt.so/2013.1/901 2013/11/27
 40 42  0  0  0  0  0  0  0  0999 V2000
    9.5640   -3.1774   24.4202 C   0  0  2  0  0  0  0  0  0  0  0  0
    8.8844   -2.8141   25.6323 O   0  0  0  0  0  0  0  0  0  0  0  0
   10.7925   -4.1113   24.7328 C   0  0  1  0  0  0  0  0  0  0  0  0
   11.8889   -3.3618   25.5447 C   0  0  2  0  0  0  0  0  0  0  0  0
   12.3629   -2.1437   24.6904 C   0  0  2  0  0  0  0  0  0  0  0  0
   13.4014   -1.4380   25.4032 O   0  0  0  0  0  0  0  0  0  0  0  0
   11.1128   -1.1951   24.4277 C   0  0  2  0  0  0  0  0  0  0  0  0
   10.0433   -1.9596   23.6916 O   0  0  0  0  0  0  0  0  0  0  0  0
   11.4693    0.0188   23.5808 C   0  0  0  0  0  0  0  0  0  0  0  0
   11.0049    1.2903   24.2197 N   0  0  0  0  0  0  0  0  0  0  0  0
    4.6625   -3.8338   24.9499 C   0  0  2  0  0  0  0  0  0  0  0  0
    3.2224   -3.7954   25.0551 N   0  0  0  0  0  0  0  0  0  0  0  0
    5.2888   -4.1390   26.3703 C   0  0  0  0  0  0  0  0  0  0  0  0
    6.8792   -4.1797   26.2709 C   0  0  2  0  0  0  0  0  0  0  0  0
    7.4654   -4.4828   27.6029 N   0  0  0  0  0  0  0  0  0  0  0  0
    7.4066   -2.7772   25.7128 C   0  0  2  0  0  0  0  0  0  0  0  0
    6.7503   -2.5161   24.2905 C   0  0  2  0  0  0  0  0  0  0  0  0
    7.2188   -1.2654   23.7811 O   0  0  0  0  0  0  0  0  0  0  0  0
    5.1750   -2.4823   24.4032 C   0  0  1  0  0  0  0  0  0  0  0  0
    4.5912   -2.2643   23.0947 O   0  0  0  0  0  0  0  0  0  0  0  0
    5.1163   -2.7238   21.8955 C   0  0  2  0  0  0  0  0  0  0  0  0
    4.1464   -2.2654   20.7491 C   0  0  2  0  0  0  0  0  0  0  0  0
    4.0155   -0.8807   20.7709 O   0  0  0  0  0  0  0  0  0  0  0  0
    2.7310   -2.9773   20.8541 C   0  0  1  0  0  0  0  0  0  0  0  0
    1.8280   -2.5362   19.7465 N   0  0  0  0  0  0  0  0  0  0  0  0
    2.9496   -4.5528   20.8186 C   0  0  2  0  0  0  0  0  0  0  0  0
    1.6960   -5.2424   20.8979 O   0  0  0  0  0  0  0  0  0  0  0  0
    3.9019   -4.9430   22.0144 C   0  0  2  0  0  0  0  0  0  0  0  0
    5.2297   -4.2049   21.9118 O   0  0  0  0  0  0  0  0  0  0  0  0
    4.1728   -6.4285   22.0335 C   0  0  0  0  0  0  0  0  0  0  0  0
    4.2194   -7.0021   20.7138 O   0  0  0  0  0  0  0  0  0  0  0  0
   10.3090   -5.2724   25.4690 O   0  0  0  0  0  0  0  0  0  0  0  0
   12.9388   -4.2169   25.7775 O   0  0  0  0  0  0  0  0  0  0  0  0
    2.5584   -2.5139   25.1183 C   0  0  0  0  0  0  0  0  0  0  0  0
    3.1966   -1.4933   25.5134 O   0  0  0  0  0  0  0  0  0  0  0  0
    1.0589   -2.4469   24.6947 C   0  0  2  0  0  0  0  0  0  0  0  0
   -0.9754   -2.4151   21.8893 N   0  0  0  0  0  0  0  0  0  0  0  0
    0.8057   -3.2830   23.4023 C   0  0  0  0  0  0  0  0  0  0  0  0
   -0.6777   -3.3487   23.0019 C   0  0  0  0  0  0  0  0  0  0  0  0
    0.6819   -1.2653   24.4121 O   0  0  0  0  0  0  0  0  0  0  0  0
  1  2  1  1  0  0  0
  1  3  1  0  0  0  0
  1  8  1  0  0  0  0
  3  4  1  0  0  0  0
  3 32  1  1  0  0  0
  4  5  1  0  0  0  0
  4 33  1  6  0  0  0
  5  6  1  1  0  0  0
  5  7  1  0  0  0  0
  7  8  1  0  0  0  0
  7  9  1  6  0  0  0
  9 10  1  0  0  0  0
 11 12  1  1  0  0  0
 11 13  1  0  0  0  0
 11 19  1  0  0  0  0
 12 34  1  0  0  0  0
 13 14  1  0  0  0  0
 14 15  1  1  0  0  0
 14 16  1  0  0  0  0
 16  2  1  6  0  0  0
 16 17  1  0  0  0  0
 17 18  1  1  0  0  0
 17 19  1  0  0  0  0
 19 20  1  6  0  0  0
 21 20  1  1  0  0  0
 21 22  1  0  0  0  0
 21 29  1  0  0  0  0
 22 23  1  1  0  0  0
 22 24  1  0  0  0  0
 24 25  1  6  0  0  0
 24 26  1  0  0  0  0
 26 27  1  1  0  0  0
 26 28  1  0  0  0  0
 28 29  1  0  0  0  0
 28 30  1  6  0  0  0
 30 31  1  0  0  0  0
 34 35  2  0  0  0  0
 36 34  1  6  0  0  0
 36 38  1  0  0  0  0
 36 40  1  0  0  0  0
 37 39  1  0  0  0  0
 38 39  1  0  0  0  0
M  END
>  <CHROM.1>
-138.66324788,94.10813580,-128.85531979,100.59514605,-86.90073406,179.42537218
33.63705939,-42.86827152,175.26072631,101.70467016,6.00057836,-3.01575283
23.72761543,-0.29252642,-0.00865969,-1.86491068

>  <Name>
ligand

>  <RI>
0

>  <Rbt.Current_Directory>
/home/itssahil/PROJECTS/Mol_Feturizer/New_Systems/rnas/4P20

>  <Rbt.Executable>
rbdock ($Id: //depot/dev/client3/rdock/2013.1/src/exe/rbdock.cxx#4 $)

>  <Rbt.Library>
libRbt.so (2013.1, Build901 2013/11/27)

>  <Rbt.Parameter_File>
/export/apps/rDock/src/rDock_2013.1_src/data/scripts/dock_solv.prm

>  <Rbt.Receptor>
prm/blind_docking_60.prm

>  <SCORE>
169.869

>  <SCORE.INTER>
152.031

>  <SCORE.INTER.CONST>
1

>  <SCORE.INTER.POLAR>
0

>  <SCORE.INTER.ROT>
10

>  <SCORE.INTER.SOLV>
31.3601

>  <SCORE.INTER.VDW>
80.634

>  <SCORE.INTER.norm>
3.80078

>  <SCORE.INTRA>
5.18053

>  <SCORE.INTRA.DIHEDRAL>
-1.68888

>  <SCORE.INTRA.DIHEDRAL.0>
28.2802

>  <SCORE.INTRA.POLAR>
0

>  <SCORE.INTRA.POLAR.0>
0

>  <SCORE.INTRA.REPUL>
0

>  <SCORE.INTRA.REPUL.0>
0

>  <SCORE.INTRA.SOLV>
4.3466

>  <SCORE.INTRA.SOLV.lig_0>
-101.981

>  <SCORE.INTRA.VDW>
3.85167

>  <SCORE.INTRA.VDW.0>
-5.72964

>  <SCORE.INTRA.norm>
0.129513

>  <SCORE.RESTR>
12.6574

>  <SCORE.RESTR.CAVITY>
12.6574

>  <SCORE.RESTR.norm>
0.316436

>  <SCORE.SYSTEM>
0

>  <SCORE.SYSTEM.CONST>
0

>  <SCORE.SYSTEM.DIHEDRAL>
0

>  <SCORE.SYSTEM.SOLV>
0

>  <SCORE.SYSTEM.norm>
0

>  <SCORE.heavy>
40

>  <SCORE.norm>
4.24673

>  <RMSD>
10.926

$$$$
ligand
 OpenBabel11021811503D
libRbt.so/2013.1/901 2013/11/27
 40 42  0  0  0  0  0  0  0  0999 V2000
    8.7712   -0.7578   24.5524 C   0  0  2  0  0  0  0  0  0  0  0  0
    7.8933   -1.2564   25.5740 O   0  0  0  0  0  0  0  0  0  0  0  0
    9.0725   -1.8770   23.4865 C   0  0  1  0  0  0  0  0  0  0  0  0
    9.8801   -3.0545   24.1063 C   0  0  2  0  0  0  0  0  0  0  0  0
   11.2245   -2.4746   24.6488 C   0  0  2  0  0  0  0  0  0  0  0  0
   12.0131   -3.5463   25.2093 O   0  0  0  0  0  0  0  0  0  0  0  0
   10.8916   -1.3798   25.7544 C   0  0  2  0  0  0  0  0  0  0  0  0
   10.0617   -0.2803   25.1441 O   0  0  0  0  0  0  0  0  0  0  0  0
   12.1439   -0.7365   26.3341 C   0  0  0  0  0  0  0  0  0  0  0  0
   13.1424   -0.4165   25.2657 N   0  0  0  0  0  0  0  0  0  0  0  0
    5.6336   -4.4575   23.5798 C   0  0  2  0  0  0  0  0  0  0  0  0
    4.5834   -5.4109   23.3070 N   0  0  0  0  0  0  0  0  0  0  0  0
    6.2624   -4.7549   25.0007 C   0  0  0  0  0  0  0  0  0  0  0  0
    7.4208   -3.7068   25.3179 C   0  0  2  0  0  0  0  0  0  0  0  0
    8.0215   -3.9978   26.6461 N   0  0  0  0  0  0  0  0  0  0  0  0
    6.8179   -2.2267   25.2679 C   0  0  2  0  0  0  0  0  0  0  0  0
    6.1989   -1.9777   23.8267 C   0  0  2  0  0  0  0  0  0  0  0  0
    5.6603   -0.6548   23.7707 O   0  0  0  0  0  0  0  0  0  0  0  0
    5.0560   -3.0253   23.5243 C   0  0  1  0  0  0  0  0  0  0  0  0
    4.5164   -2.7979   22.1985 O   0  0  0  0  0  0  0  0  0  0  0  0
    3.3234   -3.3182   21.7181 C   0  0  2  0  0  0  0  0  0  0  0  0
    3.0595   -2.6727   20.3114 C   0  0  2  0  0  0  0  0  0  0  0  0
    4.1301   -2.9399   19.4642 O   0  0  0  0  0  0  0  0  0  0  0  0
    2.7893   -1.1118   20.4200 C   0  0  1  0  0  0  0  0  0  0  0  0
    2.5283   -0.5200   19.0714 N   0  0  0  0  0  0  0  0  0  0  0  0
    1.5547   -0.8754   21.3952 C   0  0  2  0  0  0  0  0  0  0  0  0
    1.2622    0.5222   21.5163 O   0  0  0  0  0  0  0  0  0  0  0  0
    1.9041   -1.5173   22.7934 C   0  0  2  0  0  0  0  0  0  0  0  0
    2.2076   -3.0022   22.6464 O   0  0  0  0  0  0  0  0  0  0  0  0
    0.7650   -1.3493   23.7705 C   0  0  0  0  0  0  0  0  0  0  0  0
   -0.3956   -2.1209   23.4094 O   0  0  0  0  0  0  0  0  0  0  0  0
    7.8034   -2.3493   22.9477 O   0  0  0  0  0  0  0  0  0  0  0  0
   10.1250   -3.9926   23.1328 O   0  0  0  0  0  0  0  0  0  0  0  0
    4.5908   -6.1207   22.0488 C   0  0  0  0  0  0  0  0  0  0  0  0
    5.2028   -5.6309   21.0535 O   0  0  0  0  0  0  0  0  0  0  0  0
    3.8271   -7.4783   21.9719 C   0  0  2  0  0  0  0  0  0  0  0  0
    3.2454   -5.6315   19.4208 N   0  0  0  0  0  0  0  0  0  0  0  0
    2.5493   -7.3510   21.0862 C   0  0  0  0  0  0  0  0  0  0  0  0
    2.8602   -7.0506   19.6104 C   0  0  0  0  0  0  0  0  0  0  0  0
    3.4128   -7.8725   23.1082 O   0  0  0  0  0  0  0  0  0  0  0  0
  1  2  1  1  0  0  0
  1  3  1  0  0  0  0
  1  8  1  0  0  0  0
  3  4  1  0  0  0  0
  3 32  1  1  0  0  0
  4  5  1  0  0  0  0
  4 33  1  6  0  0  0
  5  6  1  1  0  0  0
  5  7  1  0  0  0  0
  7  8  1  0  0  0  0
  7  9  1  6  0  0  0
  9 10  1  0  0  0  0
 11 12  1  1  0  0  0
 11 13  1  0  0  0  0
 11 19  1  0  0  0  0
 12 34  1  0  0  0  0
 13 14  1  0  0  0  0
 14 15  1  1  0  0  0
 14 16  1  0  0  0  0
 16  2  1  6  0  0  0
 16 17  1  0  0  0  0
 17 18  1  1  0  0  0
 17 19  1  0  0  0  0
 19 20  1  6  0  0  0
 21 20  1  1  0  0  0
 21 22  1  0  0  0  0
 21 29  1  0  0  0  0
 22 23  1  6  0  0  0
 22 24  1  0  0  0  0
 24 25  1  6  0  0  0
 24 26  1  0  0  0  0
 26 27  1  1  0  0  0
 26 28  1  0  0  0  0
 28 29  1  0  0  0  0
 28 30  1  1  0  0  0
 30 31  1  0  0  0  0
 34 35  2  0  0  0  0
 36 34  1  1  0  0  0
 36 38  1  0  0  0  0
 36 40  1  0  0  0  0
 37 39  1  0  0  0  0
 38 39  1  0  0  0  0
M  END
>  <CHROM.1>
-35.21178035,85.87124052,42.92561889,-129.62418271,75.23635477,173.26977726
68.00327312,110.02754742,64.93909799,-76.13109669,5.79104062,-3.01795482
23.07991592,0.25357729,-0.39694067,0.17160827

>  <Name>
ligand

>  <RI>
0

>  <Rbt.Current_Directory>
/home/itssahil/PROJECTS/Mol_Feturizer/New_Systems/rnas/4P20

>  <Rbt.Executable>
rbdock ($Id: //depot/dev/client3/rdock/2013.1/src/exe/rbdock.cxx#4 $)

>  <Rbt.Library>
libRbt.so (2013.1, Build901 2013/11/27)

>  <Rbt.Parameter_File>
/export/apps/rDock/src/rDock_2013.1_src/data/scripts/dock_solv.prm

>  <Rbt.Receptor>
prm/blind_docking_60.prm

>  <SCORE>
49.897

>  <SCORE.INTER>
18.8785

>  <SCORE.INTER.CONST>
1

>  <SCORE.INTER.POLAR>
0

>  <SCORE.INTER.ROT>
10

>  <SCORE.INTER.SOLV>
28.8254

>  <SCORE.INTER.VDW>
-7.28945

>  <SCORE.INTER.norm>
0.471963

>  <SCORE.INTRA>
17.0092

>  <SCORE.INTRA.DIHEDRAL>
-15.8059

>  <SCORE.INTRA.DIHEDRAL.0>
28.2802

>  <SCORE.INTRA.POLAR>
0

>  <SCORE.INTRA.POLAR.0>
0

>  <SCORE.INTRA.REPUL>
0

>  <SCORE.INTRA.REPUL.0>
0

>  <SCORE.INTRA.SOLV>
10.9074

>  <SCORE.INTRA.SOLV.lig_0>
-101.981

>  <SCORE.INTRA.VDW>
19.4584

>  <SCORE.INTRA.VDW.0>
-5.72964

>  <SCORE.INTRA.norm>
0.42523

>  <SCORE.RESTR>
14.0093

>  <SCORE.RESTR.CAVITY>
14.0093

>  <SCORE.RESTR.norm>
0.350233

>  <SCORE.SYSTEM>
0

>  <SCORE.SYSTEM.CONST>
0

>  <SCORE.SYSTEM.DIHEDRAL>
0

>  <SCORE.SYSTEM.SOLV>
0

>  <SCORE.SYSTEM.norm>
0

>  <SCORE.heavy>
40

>  <SCORE.norm>
1.24743

>  <RMSD>
10.990

$$$$
ligand
 OpenBabel11021811503D
libRbt.so/2013.1/901 2013/11/27
 40 42  0  0  0  0  0  0  0  0999 V2000
    0.6776   -7.0697   18.7510 C   0  0  2  0  0  0  0  0  0  0  0  0
    1.7548   -7.8107   19.3455 O   0  0  0  0  0  0  0  0  0  0  0  0
   -0.4995   -6.8822   19.7800 C   0  0  1  0  0  0  0  0  0  0  0  0
   -1.1621   -8.2426   20.1451 C   0  0  2  0  0  0  0  0  0  0  0  0
   -1.7158   -8.8701   18.8269 C   0  0  2  0  0  0  0  0  0  0  0  0
   -2.3622  -10.1245   19.1320 O   0  0  0  0  0  0  0  0  0  0  0  0
   -0.5005   -9.0897   17.8238 C   0  0  2  0  0  0  0  0  0  0  0  0
    0.1594   -7.7672   17.5310 O   0  0  0  0  0  0  0  0  0  0  0  0
   -0.9423   -9.6824   16.4928 C   0  0  0  0  0  0  0  0  0  0  0  0
   -2.3773   -9.3712   16.2017 N   0  0  0  0  0  0  0  0  0  0  0  0
    4.3602   -5.7654   22.2366 C   0  0  2  0  0  0  0  0  0  0  0  0
    5.5271   -5.1229   22.7951 N   0  0  0  0  0  0  0  0  0  0  0  0
    4.7221   -7.2471   21.8164 C   0  0  0  0  0  0  0  0  0  0  0  0
    3.4442   -7.9680   21.1934 C   0  0  2  0  0  0  0  0  0  0  0  0
    3.7815   -9.3651   20.8143 N   0  0  0  0  0  0  0  0  0  0  0  0
    2.9347   -7.1327   19.9286 C   0  0  2  0  0  0  0  0  0  0  0  0
    2.5868   -5.6567   20.4000 C   0  0  2  0  0  0  0  0  0  0  0  0
    2.1264   -4.9026   19.2763 O   0  0  0  0  0  0  0  0  0  0  0  0
    3.8604   -4.9563   21.0186 C   0  0  1  0  0  0  0  0  0  0  0  0
    3.5213   -3.6190   21.4626 O   0  0  0  0  0  0  0  0  0  0  0  0
    2.7473   -2.7109   20.7544 C   0  0  2  0  0  0  0  0  0  0  0  0
    3.0987   -1.2759   21.2859 C   0  0  2  0  0  0  0  0  0  0  0  0
    4.4609   -1.0394   21.1330 O   0  0  0  0  0  0  0  0  0  0  0  0
    2.6481   -1.0795   22.7958 C   0  0  1  0  0  0  0  0  0  0  0  0
    2.9806    0.2969   23.2774 N   0  0  0  0  0  0  0  0  0  0  0  0
    1.0853   -1.3585   22.9011 C   0  0  2  0  0  0  0  0  0  0  0  0
    0.6262   -1.1809   24.2469 O   0  0  0  0  0  0  0  0  0  0  0  0
    0.8128   -2.8243   22.3850 C   0  0  2  0  0  0  0  0  0  0  0  0
    1.3026   -2.9936   20.9532 O   0  0  0  0  0  0  0  0  0  0  0  0
   -0.6595   -3.1557   22.4365 C   0  0  0  0  0  0  0  0  0  0  0  0
   -1.4956   -1.9859   22.3644 O   0  0  0  0  0  0  0  0  0  0  0  0
    0.0328   -6.2318   20.9706 O   0  0  0  0  0  0  0  0  0  0  0  0
   -2.1868   -8.0192   21.0327 O   0  0  0  0  0  0  0  0  0  0  0  0
    5.3640   -4.2247   23.9147 C   0  0  0  0  0  0  0  0  0  0  0  0
    4.2429   -3.6712   24.1194 O   0  0  0  0  0  0  0  0  0  0  0  0
    6.5992   -3.9699   24.8323 C   0  0  2  0  0  0  0  0  0  0  0  0
    8.0632   -1.4741   23.8699 N   0  0  0  0  0  0  0  0  0  0  0  0
    6.5195   -2.5612   25.4977 C   0  0  0  0  0  0  0  0  0  0  0  0
    6.7242   -1.4066   24.5027 C   0  0  0  0  0  0  0  0  0  0  0  0
    7.6969   -3.9786   24.1897 O   0  0  0  0  0  0  0  0  0  0  0  0
  1  2  1  1  0  0  0
  1  3  1  0  0  0  0
  1  8  1  0  0  0  0
  3  4  1  0  0  0  0
  3 32  1  1  0  0  0
  4  5  1  0  0  0  0
  4 33  1  1  0  0  0
  5  6  1  1  0  0  0
  5  7  1  0  0  0  0
  7  8  1  0  0  0  0
  7  9  1  6  0  0  0
  9 10  1  0  0  0  0
 11 12  1  6  0  0  0
 11 13  1  0  0  0  0
 11 19  1  0  0  0  0
 12 34  1  0  0  0  0
 13 14  1  0  0  0  0
 14 15  1  6  0  0  0
 14 16  1  0  0  0  0
 16  2  1  1  0  0  0
 16 17  1  0  0  0  0
 17 18  1  6  0  0  0
 17 19  1  0  0  0  0
 19 20  1  1  0  0  0
 21 20  1  1  0  0  0
 21 22  1  0  0  0  0
 21 29  1  0  0  0  0
 22 23  1  1  0  0  0
 22 24  1  0  0  0  0
 24 25  1  6  0  0  0
 24 26  1  0  0  0  0
 26 27  1  1  0  0  0
 26 28  1  0  0  0  0
 28 29  1  0  0  0  0
 28 30  1  6  0  0  0
 30 31  1  0  0  0  0
 34 35  2  0  0  0  0
 36 34  1  6  0  0  0
 36 38  1  0  0  0  0
 36 40  1  0  0  0  0
 37 39  1  0  0  0  0
 38 39  1  0  0  0  0
M  END
>  <CHROM.1>
-97.16623835,145.68001861,24.92837150,-142.26360429,-163.49854261,-157.87041280
25.29310545,152.25366774,-69.95093072,-61.20311965,2.22892855,-5.02511906
21.30766052,-2.23851876,-0.31261253,0.43287338

>  <Name>
ligand

>  <RI>
0

>  <Rbt.Current_Directory>
/home/itssahil/PROJECTS/Mol_Feturizer/New_Systems/rnas/4P20

>  <Rbt.Executable>
rbdock ($Id: //depot/dev/client3/rdock/2013.1/src/exe/rbdock.cxx#4 $)

>  <Rbt.Library>
libRbt.so (2013.1, Build901 2013/11/27)

>  <Rbt.Parameter_File>
/export/apps/rDock/src/rDock_2013.1_src/data/scripts/dock_solv.prm

>  <Rbt.Receptor>
prm/blind_docking_60.prm

>  <SCORE>
26.79

>  <SCORE.INTER>
2.53378

>  <SCORE.INTER.CONST>
1

>  <SCORE.INTER.POLAR>
0

>  <SCORE.INTER.ROT>
10

>  <SCORE.INTER.SOLV>
24.3004

>  <SCORE.INTER.VDW>
-16.6776

>  <SCORE.INTER.norm>
0.0633445

>  <SCORE.INTRA>
3.66386

>  <SCORE.INTRA.DIHEDRAL>
-6.22993

>  <SCORE.INTRA.DIHEDRAL.0>
28.2802

>  <SCORE.INTRA.POLAR>
0

>  <SCORE.INTRA.POLAR.0>
0

>  <SCORE.INTRA.REPUL>
0

>  <SCORE.INTRA.REPUL.0>
0

>  <SCORE.INTRA.SOLV>
4.64629

>  <SCORE.INTRA.SOLV.lig_0>
-101.981

>  <SCORE.INTRA.VDW>
4.45567

>  <SCORE.INTRA.VDW.0>
-5.72964

>  <SCORE.INTRA.norm>
0.0915964

>  <SCORE.RESTR>
20.5923

>  <SCORE.RESTR.CAVITY>
20.5923

>  <SCORE.RESTR.norm>
0.514808

>  <SCORE.SYSTEM>
0

>  <SCORE.SYSTEM.CONST>
0

>  <SCORE.SYSTEM.DIHEDRAL>
0

>  <SCORE.SYSTEM.SOLV>
0

>  <SCORE.SYSTEM.norm>
0

>  <SCORE.heavy>
40

>  <SCORE.norm>
0.669749

>  <RMSD>
11.021

$$$$
ligand
 OpenBabel11021811513D
libRbt.so/2013.1/901 2013/11/27
 40 42  0  0  0  0  0  0  0  0999 V2000
    9.9591   -2.5142   25.8979 C   0  0  2  0  0  0  0  0  0  0  0  0
    9.3485   -1.4127   25.2072 O   0  0  0  0  0  0  0  0  0  0  0  0
   11.3289   -2.0752   26.5384 C   0  0  1  0  0  0  0  0  0  0  0  0
   12.3795   -1.7118   25.4488 C   0  0  2  0  0  0  0  0  0  0  0  0
   12.5999   -2.9772   24.5609 C   0  0  2  0  0  0  0  0  0  0  0  0
   13.5905   -2.6839   23.5523 O   0  0  0  0  0  0  0  0  0  0  0  0
   11.2114   -3.3715   23.8916 C   0  0  2  0  0  0  0  0  0  0  0  0
   10.1963   -3.6628   24.9662 O   0  0  0  0  0  0  0  0  0  0  0  0
   11.3172   -4.6131   23.0168 C   0  0  0  0  0  0  0  0  0  0  0  0
   12.5855   -4.6190   22.2219 N   0  0  0  0  0  0  0  0  0  0  0  0
    5.1603   -2.7016   24.8499 C   0  0  2  0  0  0  0  0  0  0  0  0
    3.7697   -2.7057   24.4594 N   0  0  0  0  0  0  0  0  0  0  0  0
    5.4745   -1.3889   25.6751 C   0  0  0  0  0  0  0  0  0  0  0  0
    7.0081   -1.3680   26.1092 C   0  0  2  0  0  0  0  0  0  0  0  0
    7.2976   -0.1420   26.8984 N   0  0  0  0  0  0  0  0  0  0  0  0
    7.9251   -1.4437   24.8015 C   0  0  2  0  0  0  0  0  0  0  0  0
    7.5722   -2.7737   24.0088 C   0  0  2  0  0  0  0  0  0  0  0  0
    8.3901   -2.8526   22.8391 O   0  0  0  0  0  0  0  0  0  0  0  0
    6.0495   -2.7828   23.5886 C   0  0  1  0  0  0  0  0  0  0  0  0
    5.7390   -4.0113   22.8852 O   0  0  0  0  0  0  0  0  0  0  0  0
    4.4991   -4.6336   22.8668 C   0  0  2  0  0  0  0  0  0  0  0  0
    4.7081   -6.1162   23.3394 C   0  0  2  0  0  0  0  0  0  0  0  0
    5.2851   -6.1283   24.6051 O   0  0  0  0  0  0  0  0  0  0  0  0
    5.5782   -6.9482   22.3041 C   0  0  1  0  0  0  0  0  0  0  0  0
    5.7541   -8.3594   22.7672 N   0  0  0  0  0  0  0  0  0  0  0  0
    4.8637   -6.8991   20.8834 C   0  0  2  0  0  0  0  0  0  0  0  0
    5.6064   -7.6490   19.9141 O   0  0  0  0  0  0  0  0  0  0  0  0
    4.7195   -5.3865   20.4588 C   0  0  2  0  0  0  0  0  0  0  0  0
    3.9246   -4.6065   21.4972 O   0  0  0  0  0  0  0  0  0  0  0  0
    4.0283   -5.2588   19.1223 C   0  0  0  0  0  0  0  0  0  0  0  0
    2.7001   -5.8142   19.1279 O   0  0  0  0  0  0  0  0  0  0  0  0
   11.0805   -0.9377   27.4150 O   0  0  0  0  0  0  0  0  0  0  0  0
   13.5549   -1.3497   26.0612 O   0  0  0  0  0  0  0  0  0  0  0  0
    3.3708   -1.9717   23.2808 C   0  0  0  0  0  0  0  0  0  0  0  0
    4.0883   -1.0152   22.8622 O   0  0  0  0  0  0  0  0  0  0  0  0
    2.0491   -2.3955   22.5693 C   0  0  2  0  0  0  0  0  0  0  0  0
    0.3106   -0.0536   21.8116 N   0  0  0  0  0  0  0  0  0  0  0  0
    0.8025   -1.9267   23.3815 C   0  0  0  0  0  0  0  0  0  0  0  0
    0.5104   -0.4241   23.2332 C   0  0  0  0  0  0  0  0  0  0  0  0
    1.9308   -3.6578   22.4670 O   0  0  0  0  0  0  0  0  0  0  0  0
  1  2  1  6  0  0  0
  1  3  1  0  0  0  0
  1  8  1  0  0  0  0
  3  4  1  0  0  0  0
  3 32  1  1  0  0  0
  4  5  1  0  0  0  0
  4 33  1  1  0  0  0
  5  6  1  6  0  0  0
  5  7  1  0  0  0  0
  7  8  1  0  0  0  0
  7  9  1  6  0  0  0
  9 10  1  0  0  0  0
 11 12  1  6  0  0  0
 11 13  1  0  0  0  0
 11 19  1  0  0  0  0
 12 34  1  0  0  0  0
 13 14  1  0  0  0  0
 14 15  1  6  0  0  0
 14 16  1  0  0  0  0
 16  2  1  1  0  0  0
 16 17  1  0  0  0  0
 17 18  1  6  0  0  0
 17 19  1  0  0  0  0
 19 20  1  1  0  0  0
 21 20  1  6  0  0  0
 21 22  1  0  0  0  0
 21 29  1  0  0  0  0
 22 23  1  1  0  0  0
 22 24  1  0  0  0  0
 24 25  1  1  0  0  0
 24 26  1  0  0  0  0
 26 27  1  6  0  0  0
 26 28  1  0  0  0  0
 28 29  1  0  0  0  0
 28 30  1  6  0  0  0
 30 31  1  0  0  0  0
 34 35  2  0  0  0  0
 36 34  1  1  0  0  0
 36 38  1  0  0  0  0
 36 40  1  0  0  0  0
 37 39  1  0  0  0  0
 38 39  1  0  0  0  0
M  END
>  <CHROM.1>
-164.84556658,69.32042649,-40.23965948,82.78693394,30.99216409,-125.51090339
60.30808815,74.60540632,76.37612151,57.53693997,6.72902479,-3.34204462,23.51679906
0.33831422,-0.19359009,0.63022603

>  <Name>
ligand

>  <RI>
0

>  <Rbt.Current_Directory>
/home/itssahil/PROJECTS/Mol_Feturizer/New_Systems/rnas/4P20

>  <Rbt.Executable>
rbdock ($Id: //depot/dev/client3/rdock/2013.1/src/exe/rbdock.cxx#4 $)

>  <Rbt.Library>
libRbt.so (2013.1, Build901 2013/11/27)

>  <Rbt.Parameter_File>
/export/apps/rDock/src/rDock_2013.1_src/data/scripts/dock_solv.prm

>  <Rbt.Receptor>
prm/blind_docking_60.prm

>  <SCORE>
27.6635

>  <SCORE.INTER>
8.27459

>  <SCORE.INTER.CONST>
1

>  <SCORE.INTER.POLAR>
0

>  <SCORE.INTER.ROT>
10

>  <SCORE.INTER.SOLV>
27.8712

>  <SCORE.INTER.VDW>
-14.0407

>  <SCORE.INTER.norm>
0.206865

>  <SCORE.INTRA>
0.622622

>  <SCORE.INTRA.DIHEDRAL>
-12.6982

>  <SCORE.INTRA.DIHEDRAL.0>
28.2802

>  <SCORE.INTRA.POLAR>
0

>  <SCORE.INTRA.POLAR.0>
0

>  <SCORE.INTRA.REPUL>
0

>  <SCORE.INTRA.REPUL.0>
0

>  <SCORE.INTRA.SOLV>
4.61661

>  <SCORE.INTRA.SOLV.lig_0>
-101.981

>  <SCORE.INTRA.VDW>
4.66344

>  <SCORE.INTRA.VDW.0>
-5.72964

>  <SCORE.INTRA.norm>
0.0155655

>  <SCORE.RESTR>
18.7663

>  <SCORE.RESTR.CAVITY>
18.7663

>  <SCORE.RESTR.norm>
0.469158

>  <SCORE.SYSTEM>
0

>  <SCORE.SYSTEM.CONST>
0

>  <SCORE.SYSTEM.DIHEDRAL>
0

>  <SCORE.SYSTEM.SOLV>
0

>  <SCORE.SYSTEM.norm>
0

>  <SCORE.heavy>
40

>  <SCORE.norm>
0.691588

>  <RMSD>
11.026

$$$$
ligand
 OpenBabel11021811503D
libRbt.so/2013.1/901 2013/11/27
 40 42  0  0  0  0  0  0  0  0999 V2000
   10.3420   -2.9516   25.8309 C   0  0  2  0  0  0  0  0  0  0  0  0
    9.8227   -1.8441   25.0780 O   0  0  0  0  0  0  0  0  0  0  0  0
   11.5564   -2.4941   26.7226 C   0  0  1  0  0  0  0  0  0  0  0  0
   12.7705   -2.0540   25.8535 C   0  0  2  0  0  0  0  0  0  0  0  0
   13.1959   -3.2755   24.9788 C   0  0  2  0  0  0  0  0  0  0  0  0
   14.3392   -2.9107   24.1761 O   0  0  0  0  0  0  0  0  0  0  0  0
   11.9664   -3.6880   24.0569 C   0  0  2  0  0  0  0  0  0  0  0  0
   10.7871   -4.0542   24.9201 O   0  0  0  0  0  0  0  0  0  0  0  0
   12.2759   -4.8900   23.1750 C   0  0  0  0  0  0  0  0  0  0  0  0
   11.1751   -5.1503   22.1947 N   0  0  0  0  0  0  0  0  0  0  0  0
    5.5419   -2.6601   24.4958 C   0  0  2  0  0  0  0  0  0  0  0  0
    4.2346   -2.6787   23.8818 N   0  0  0  0  0  0  0  0  0  0  0  0
    5.9964   -1.1626   24.7275 C   0  0  0  0  0  0  0  0  0  0  0  0
    7.4409   -1.1258   25.4007 C   0  0  2  0  0  0  0  0  0  0  0  0
    7.8593    0.2815   25.6328 N   0  0  0  0  0  0  0  0  0  0  0  0
    8.4802   -1.8897   24.4557 C   0  0  2  0  0  0  0  0  0  0  0  0
    7.9807   -3.3833   24.2523 C   0  0  2  0  0  0  0  0  0  0  0  0
    8.9059   -4.0760   23.4113 O   0  0  0  0  0  0  0  0  0  0  0  0
    6.5475   -3.4044   23.5886 C   0  0  1  0  0  0  0  0  0  0  0  0
    6.0976   -4.7729   23.4292 O   0  0  0  0  0  0  0  0  0  0  0  0
    4.7725   -5.1826   23.3936 C   0  0  2  0  0  0  0  0  0  0  0  0
    4.7518   -6.6708   22.8937 C   0  0  2  0  0  0  0  0  0  0  0  0
    5.5250   -7.4604   23.7386 O   0  0  0  0  0  0  0  0  0  0  0  0
    5.2395   -6.7939   21.3876 C   0  0  1  0  0  0  0  0  0  0  0  0
    5.2000   -8.2167   20.9283 N   0  0  0  0  0  0  0  0  0  0  0  0
    4.3146   -5.8745   20.4763 C   0  0  2  0  0  0  0  0  0  0  0  0
    4.7078   -5.9616   19.1010 O   0  0  0  0  0  0  0  0  0  0  0  0
    4.4120   -4.3945   21.0139 C   0  0  2  0  0  0  0  0  0  0  0  0
    3.9867   -4.3202   22.4741 O   0  0  0  0  0  0  0  0  0  0  0  0
    3.5403   -3.4625   20.2066 C   0  0  0  0  0  0  0  0  0  0  0  0
    2.1566   -3.8599   20.2020 O   0  0  0  0  0  0  0  0  0  0  0  0
   11.1105   -1.4008   27.5769 O   0  0  0  0  0  0  0  0  0  0  0  0
   13.8018   -1.6785   26.6799 O   0  0  0  0  0  0  0  0  0  0  0  0
    3.0686   -2.4752   24.7100 C   0  0  0  0  0  0  0  0  0  0  0  0
    3.1297   -2.7146   25.9525 O   0  0  0  0  0  0  0  0  0  0  0  0
    1.7646   -1.9661   24.0224 C   0  0  2  0  0  0  0  0  0  0  0  0
   -1.1850   -2.3208   23.3494 N   0  0  0  0  0  0  0  0  0  0  0  0
    1.1823   -3.0468   23.0597 C   0  0  0  0  0  0  0  0  0  0  0  0
   -0.1152   -2.6041   22.3628 C   0  0  0  0  0  0  0  0  0  0  0  0
    1.9613   -0.9391   23.2982 O   0  0  0  0  0  0  0  0  0  0  0  0
  1  2  1  6  0  0  0
  1  3  1  0  0  0  0
  1  8  1  0  0  0  0
  3  4  1  0  0  0  0
  3 32  1  6  0  0  0
  4  5  1  0  0  0  0
  4 33  1  1  0  0  0
  5  6  1  6  0  0  0
  5  7  1  0  0  0  0
  7  8  1  0  0  0  0
  7  9  1  1  0  0  0
  9 10  1  0  0  0  0
 11 12  1  6  0  0  0
 11 13  1  0  0  0  0
 11 19  1  0  0  0  0
 12 34  1  0  0  0  0
 13 14  1  0  0  0  0
 14 15  1  6  0  0  0
 14 16  1  0  0  0  0
 16  2  1  1  0  0  0
 16 17  1  0  0  0  0
 17 18  1  6  0  0  0
 17 19  1  0  0  0  0
 19 20  1  1  0  0  0
 21 20  1  6  0  0  0
 21 22  1  0  0  0  0
 21 29  1  0  0  0  0
 22 23  1  1  0  0  0
 22 24  1  0  0  0  0
 24 25  1  6  0  0  0
 24 26  1  0  0  0  0
 26 27  1  6  0  0  0
 26 28  1  0  0  0  0
 28 29  1  0  0  0  0
 28 30  1  6  0  0  0
 30 31  1  0  0  0  0
 34 35  2  0  0  0  0
 36 34  1  6  0  0  0
 36 38  1  0  0  0  0
 36 40  1  0  0  0  0
 37 39  1  0  0  0  0
 38 39  1  0  0  0  0
M  END
>  <CHROM.1>
-162.94189582,98.74531565,-172.66220156,-79.67407805,33.18119910,167.67814373
57.75671542,67.34884611,179.41450406,-60.86571134,6.78571195,-3.49047737
23.67435013,0.27020672,-0.16386672,0.69706048

>  <Name>
ligand

>  <RI>
0

>  <Rbt.Current_Directory>
/home/itssahil/PROJECTS/Mol_Feturizer/New_Systems/rnas/4P20

>  <Rbt.Executable>
rbdock ($Id: //depot/dev/client3/rdock/2013.1/src/exe/rbdock.cxx#4 $)

>  <Rbt.Library>
libRbt.so (2013.1, Build901 2013/11/27)

>  <Rbt.Parameter_File>
/export/apps/rDock/src/rDock_2013.1_src/data/scripts/dock_solv.prm

>  <Rbt.Receptor>
prm/blind_docking_60.prm

>  <SCORE>
23.8644

>  <SCORE.INTER>
6.52181

>  <SCORE.INTER.CONST>
1

>  <SCORE.INTER.POLAR>
0

>  <SCORE.INTER.ROT>
10

>  <SCORE.INTER.SOLV>
34.5418

>  <SCORE.INTER.VDW>
-17.4327

>  <SCORE.INTER.norm>
0.163045

>  <SCORE.INTRA>
1.67892

>  <SCORE.INTRA.DIHEDRAL>
-16.6305

>  <SCORE.INTRA.DIHEDRAL.0>
28.2802

>  <SCORE.INTRA.POLAR>
0

>  <SCORE.INTRA.POLAR.0>
0

>  <SCORE.INTRA.REPUL>
0.0966009

>  <SCORE.INTRA.REPUL.0>
0

>  <SCORE.INTRA.SOLV>
2.8237

>  <SCORE.INTRA.SOLV.lig_0>
-101.981

>  <SCORE.INTRA.VDW>
8.09931

>  <SCORE.INTRA.VDW.0>
-5.72964

>  <SCORE.INTRA.norm>
0.041973

>  <SCORE.RESTR>
15.6636

>  <SCORE.RESTR.CAVITY>
15.6636

>  <SCORE.RESTR.norm>
0.391591

>  <SCORE.SYSTEM>
0

>  <SCORE.SYSTEM.CONST>
0

>  <SCORE.SYSTEM.DIHEDRAL>
0

>  <SCORE.SYSTEM.SOLV>
0

>  <SCORE.SYSTEM.norm>
0

>  <SCORE.heavy>
40

>  <SCORE.norm>
0.596609

>  <RMSD>
11.034

$$$$
ligand
 OpenBabel11021811503D
libRbt.so/2013.1/901 2013/11/27
 40 42  0  0  0  0  0  0  0  0999 V2000
   10.3739   -9.6267    9.4829 C   0  0  2  0  0  0  0  0  0  0  0  0
    9.0066   -9.3779    9.1200 O   0  0  0  0  0  0  0  0  0  0  0  0
   11.0969  -10.4735    8.3696 C   0  0  1  0  0  0  0  0  0  0  0  0
   10.4929  -11.9036    8.2560 C   0  0  2  0  0  0  0  0  0  0  0  0
   10.6673  -12.6041    9.6406 C   0  0  2  0  0  0  0  0  0  0  0  0
   10.1400  -13.9460    9.5646 O   0  0  0  0  0  0  0  0  0  0  0  0
    9.8905  -11.7528   10.7376 C   0  0  2  0  0  0  0  0  0  0  0  0
   10.4552  -10.3568   10.7882 O   0  0  0  0  0  0  0  0  0  0  0  0
   10.0175  -12.3460   12.1341 C   0  0  0  0  0  0  0  0  0  0  0  0
   10.8979  -11.5092   13.0088 N   0  0  0  0  0  0  0  0  0  0  0  0
    4.9414   -9.6276   10.7757 C   0  0  2  0  0  0  0  0  0  0  0  0
    3.8654   -9.9144   11.6957 N   0  0  0  0  0  0  0  0  0  0  0  0
    5.6781  -10.9726   10.3871 C   0  0  0  0  0  0  0  0  0  0  0  0
    6.8722  -10.6712    9.3751 C   0  0  2  0  0  0  0  0  0  0  0  0
    7.5528  -11.9378    8.9983 N   0  0  0  0  0  0  0  0  0  0  0  0
    7.8931   -9.6471   10.0577 C   0  0  2  0  0  0  0  0  0  0  0  0
    7.1081   -8.3178   10.4298 C   0  0  2  0  0  0  0  0  0  0  0  0
    8.0137   -7.3938   11.0376 O   0  0  0  0  0  0  0  0  0  0  0  0
    5.9259   -8.6319   11.4293 C   0  0  1  0  0  0  0  0  0  0  0  0
    5.2073   -7.4128   11.7422 O   0  0  0  0  0  0  0  0  0  0  0  0
    5.1437   -6.8181   12.9941 C   0  0  2  0  0  0  0  0  0  0  0  0
    5.8143   -5.4031   12.8789 C   0  0  2  0  0  0  0  0  0  0  0  0
    5.1628   -4.6528   11.9054 O   0  0  0  0  0  0  0  0  0  0  0  0
    7.3693   -5.5101   12.5757 C   0  0  1  0  0  0  0  0  0  0  0  0
    7.9898   -4.1525   12.4826 N   0  0  0  0  0  0  0  0  0  0  0  0
    8.0537   -6.3725   13.7242 C   0  0  2  0  0  0  0  0  0  0  0  0
    9.4647   -6.4876   13.5018 O   0  0  0  0  0  0  0  0  0  0  0  0
    7.3555   -7.7868   13.7579 C   0  0  2  0  0  0  0  0  0  0  0  0
    5.8587   -7.6457   13.9992 O   0  0  0  0  0  0  0  0  0  0  0  0
    7.9418   -8.6588   14.8426 C   0  0  0  0  0  0  0  0  0  0  0  0
    9.3802   -8.7034   14.8032 O   0  0  0  0  0  0  0  0  0  0  0  0
   10.9780   -9.7614    7.1035 O   0  0  0  0  0  0  0  0  0  0  0  0
   11.1672  -12.6000    7.2823 O   0  0  0  0  0  0  0  0  0  0  0  0
    2.8669  -10.8899   11.3238 C   0  0  0  0  0  0  0  0  0  0  0  0
    2.6706  -11.1546   10.1005 O   0  0  0  0  0  0  0  0  0  0  0  0
    2.0593  -11.5798   12.4658 C   0  0  2  0  0  0  0  0  0  0  0  0
    1.8165  -15.2628   11.6273 N   0  0  0  0  0  0  0  0  0  0  0  0
    2.4779  -13.0745   12.6217 C   0  0  0  0  0  0  0  0  0  0  0  0
    2.3007  -13.8930   11.3319 C   0  0  0  0  0  0  0  0  0  0  0  0
    0.8081  -11.6013   12.2373 O   0  0  0  0  0  0  0  0  0  0  0  0
  1  2  1  6  0  0  0
  1  3  1  0  0  0  0
  1  8  1  0  0  0  0
  3  4  1  0  0  0  0
  3 32  1  6  0  0  0
  4  5  1  0  0  0  0
  4 33  1  6  0  0  0
  5  6  1  6  0  0  0
  5  7  1  0  0  0  0
  7  8  1  0  0  0  0
  7  9  1  1  0  0  0
  9 10  1  0  0  0  0
 11 12  1  1  0  0  0
 11 13  1  0  0  0  0
 11 19  1  0  0  0  0
 12 34  1  0  0  0  0
 13 14  1  0  0  0  0
 14 15  1  1  0  0  0
 14 16  1  0  0  0  0
 16  2  1  6  0  0  0
 16 17  1  0  0  0  0
 17 18  1  1  0  0  0
 17 19  1  0  0  0  0
 19 20  1  6  0  0  0
 21 20  1  6  0  0  0
 21 22  1  0  0  0  0
 21 29  1  0  0  0  0
 22 23  1  6  0  0  0
 22 24  1  0  0  0  0
 24 25  1  1  0  0  0
 24 26  1  0  0  0  0
 26 27  1  6  0  0  0
 26 28  1  0  0  0  0
 28 29  1  0  0  0  0
 28 30  1  1  0  0  0
 30 31  1  0  0  0  0
 34 35  2  0  0  0  0
 36 34  1  6  0  0  0
 36 38  1  0  0  0  0
 36 40  1  0  0  0  0
 37 39  1  0  0  0  0
 38 39  1  0  0  0  0
M  END
>  <CHROM.1>
129.87716659,-122.59675194,108.60986219,-54.57403067,125.12411785,117.27937619
-49.86813091,-108.96732415,-57.52087735,-141.96305251,7.09258040,-9.75329713
11.25903142,0.17897888,-0.27683547,-2.69284590

>  <Name>
ligand

>  <RI>
0

>  <Rbt.Current_Directory>
/home/itssahil/PROJECTS/Mol_Feturizer/New_Systems/rnas/4P20

>  <Rbt.Executable>
rbdock ($Id: //depot/dev/client3/rdock/2013.1/src/exe/rbdock.cxx#4 $)

>  <Rbt.Library>
libRbt.so (2013.1, Build901 2013/11/27)

>  <Rbt.Parameter_File>
/export/apps/rDock/src/rDock_2013.1_src/data/scripts/dock_solv.prm

>  <Rbt.Receptor>
prm/blind_docking_20.prm

>  <SCORE>
26.749

>  <SCORE.INTER>
-2.08622

>  <SCORE.INTER.CONST>
1

>  <SCORE.INTER.POLAR>
0

>  <SCORE.INTER.ROT>
10

>  <SCORE.INTER.SOLV>
20.3961

>  <SCORE.INTER.VDW>
-18.4562

>  <SCORE.INTER.norm>
-0.0521556

>  <SCORE.INTRA>
13.6703

>  <SCORE.INTRA.DIHEDRAL>
11.299

>  <SCORE.INTRA.DIHEDRAL.0>
28.2802

>  <SCORE.INTRA.POLAR>
0

>  <SCORE.INTRA.POLAR.0>
0

>  <SCORE.INTRA.REPUL>
0

>  <SCORE.INTRA.REPUL.0>
0

>  <SCORE.INTRA.SOLV>
6.73316

>  <SCORE.INTRA.SOLV.lig_0>
-101.981

>  <SCORE.INTRA.VDW>
4.65424

>  <SCORE.INTRA.VDW.0>
-5.72964

>  <SCORE.INTRA.norm>
0.341758

>  <SCORE.RESTR>
15.1649

>  <SCORE.RESTR.CAVITY>
15.1649

>  <SCORE.RESTR.norm>
0.379122

>  <SCORE.SYSTEM>
0

>  <SCORE.SYSTEM.CONST>
0

>  <SCORE.SYSTEM.DIHEDRAL>
0

>  <SCORE.SYSTEM.SOLV>
0

>  <SCORE.SYSTEM.norm>
0

>  <SCORE.heavy>
40

>  <SCORE.norm>
0.668724

>  <RMSD>
11.118

$$$$
ligand
 OpenBabel11021811503D
libRbt.so/2013.1/901 2013/11/27
 40 42  0  0  0  0  0  0  0  0999 V2000
   10.7618   -1.7432   26.1195 C   0  0  2  0  0  0  0  0  0  0  0  0
    9.6244   -2.6115   25.9953 O   0  0  0  0  0  0  0  0  0  0  0  0
   10.9527   -0.8900   24.8099 C   0  0  1  0  0  0  0  0  0  0  0  0
   11.3204   -1.7864   23.5917 C   0  0  2  0  0  0  0  0  0  0  0  0
   12.6528   -2.5264   23.9317 C   0  0  2  0  0  0  0  0  0  0  0  0
   13.0392   -3.3498   22.8104 O   0  0  0  0  0  0  0  0  0  0  0  0
   12.4188   -3.4144   25.2310 C   0  0  2  0  0  0  0  0  0  0  0  0
   12.0086   -2.5310   26.3806 O   0  0  0  0  0  0  0  0  0  0  0  0
   13.6729   -4.1647   25.6584 C   0  0  0  0  0  0  0  0  0  0  0  0
   14.8055   -3.2271   25.9389 N   0  0  0  0  0  0  0  0  0  0  0  0
    5.4424   -2.4339   24.6500 C   0  0  2  0  0  0  0  0  0  0  0  0
    4.2641   -2.0063   23.9323 N   0  0  0  0  0  0  0  0  0  0  0  0
    6.0087   -1.2284   25.5038 C   0  0  0  0  0  0  0  0  0  0  0  0
    7.3131   -1.6843   26.2984 C   0  0  2  0  0  0  0  0  0  0  0  0
    7.8343   -0.5553   27.1128 N   0  0  0  0  0  0  0  0  0  0  0  0
    8.4102   -2.1995   25.2553 C   0  0  2  0  0  0  0  0  0  0  0  0
    7.7954   -3.4047   24.4238 C   0  0  2  0  0  0  0  0  0  0  0  0
    8.7705   -3.8750   23.4905 O   0  0  0  0  0  0  0  0  0  0  0  0
    6.5019   -2.9399   23.6453 C   0  0  1  0  0  0  0  0  0  0  0  0
    5.9417   -4.0555   22.9089 O   0  0  0  0  0  0  0  0  0  0  0  0
    4.6403   -4.5218   23.0268 C   0  0  2  0  0  0  0  0  0  0  0  0
    4.7158   -6.0180   23.4964 C   0  0  2  0  0  0  0  0  0  0  0  0
    5.4152   -6.0986   24.6963 O   0  0  0  0  0  0  0  0  0  0  0  0
    5.3666   -6.9517   22.3892 C   0  0  1  0  0  0  0  0  0  0  0  0
    5.4171   -8.3731   22.8518 N   0  0  0  0  0  0  0  0  0  0  0  0
    4.5200   -6.8180   21.0488 C   0  0  2  0  0  0  0  0  0  0  0  0
    5.0618   -7.6545   20.0191 O   0  0  0  0  0  0  0  0  0  0  0  0
    4.5170   -5.2998   20.6198 C   0  0  2  0  0  0  0  0  0  0  0  0
    3.9345   -4.4269   21.7231 O   0  0  0  0  0  0  0  0  0  0  0  0
    3.7117   -5.0907   19.3596 C   0  0  0  0  0  0  0  0  0  0  0  0
    2.3182   -5.4094   19.5311 O   0  0  0  0  0  0  0  0  0  0  0  0
    9.7184   -0.1574   24.5571 O   0  0  0  0  0  0  0  0  0  0  0  0
   11.4870   -0.9918   22.4833 O   0  0  0  0  0  0  0  0  0  0  0  0
    2.9700   -2.4823   24.3632 C   0  0  0  0  0  0  0  0  0  0  0  0
    2.8847   -3.5547   25.0322 O   0  0  0  0  0  0  0  0  0  0  0  0
    1.7158   -1.6413   23.9730 C   0  0  2  0  0  0  0  0  0  0  0  0
   -1.2257   -2.2839   23.3907 N   0  0  0  0  0  0  0  0  0  0  0  0
    1.1334   -2.1094   22.6037 C   0  0  0  0  0  0  0  0  0  0  0  0
   -0.3251   -1.6744   22.3830 C   0  0  0  0  0  0  0  0  0  0  0  0
    1.9812   -0.4064   23.8230 O   0  0  0  0  0  0  0  0  0  0  0  0
  1  2  1  6  0  0  0
  1  3  1  0  0  0  0
  1  8  1  0  0  0  0
  3  4  1  0  0  0  0
  3 32  1  6  0  0  0
  4  5  1  0  0  0  0
  4 33  1  6  0  0  0
  5  6  1  6  0  0  0
  5  7  1  0  0  0  0
  7  8  1  0  0  0  0
  7  9  1  1  0  0  0
  9 10  1  0  0  0  0
 11 12  1  6  0  0  0
 11 13  1  0  0  0  0
 11 19  1  0  0  0  0
 12 34  1  0  0  0  0
 13 14  1  0  0  0  0
 14 15  1  6  0  0  0
 14 16  1  0  0  0  0
 16  2  1  1  0  0  0
 16 17  1  0  0  0  0
 17 18  1  6  0  0  0
 17 19  1  0  0  0  0
 19 20  1  1  0  0  0
 21 20  1  6  0  0  0
 21 22  1  0  0  0  0
 21 29  1  0  0  0  0
 22 23  1  1  0  0  0
 22 24  1  0  0  0  0
 24 25  1  1  0  0  0
 24 26  1  0  0  0  0
 26 27  1  6  0  0  0
 26 28  1  0  0  0  0
 28 29  1  0  0  0  0
 28 30  1  6  0  0  0
 30 31  1  0  0  0  0
 34 35  2  0  0  0  0
 36 34  1  6  0  0  0
 36 38  1  0  0  0  0
 36 40  1  0  0  0  0
 37 39  1  0  0  0  0
 38 39  1  0  0  0  0
M  END
>  <CHROM.1>
-35.17453867,-98.64517784,58.53169806,-107.54789307,4.17212102,-120.00751201
63.55760198,90.27159772,160.71383730,-62.93153593,6.74690913,-3.32260018
23.70162862,0.27712913,-0.13845355,0.60955669

>  <Name>
ligand

>  <RI>
0

>  <Rbt.Current_Directory>
/home/itssahil/PROJECTS/Mol_Feturizer/New_Systems/rnas/4P20

>  <Rbt.Executable>
rbdock ($Id: //depot/dev/client3/rdock/2013.1/src/exe/rbdock.cxx#4 $)

>  <Rbt.Library>
libRbt.so (2013.1, Build901 2013/11/27)

>  <Rbt.Parameter_File>
/export/apps/rDock/src/rDock_2013.1_src/data/scripts/dock_solv.prm

>  <Rbt.Receptor>
prm/blind_docking_60.prm

>  <SCORE>
25.0473

>  <SCORE.INTER>
3.97226

>  <SCORE.INTER.CONST>
1

>  <SCORE.INTER.POLAR>
0

>  <SCORE.INTER.ROT>
10

>  <SCORE.INTER.SOLV>
30.8241

>  <SCORE.INTER.VDW>
-17.8932

>  <SCORE.INTER.norm>
0.0993065

>  <SCORE.INTRA>
5.00007

>  <SCORE.INTRA.DIHEDRAL>
-2.12419

>  <SCORE.INTRA.DIHEDRAL.0>
28.2802

>  <SCORE.INTRA.POLAR>
0

>  <SCORE.INTRA.POLAR.0>
0

>  <SCORE.INTRA.REPUL>
0

>  <SCORE.INTRA.REPUL.0>
0

>  <SCORE.INTRA.SOLV>
4.15905

>  <SCORE.INTRA.SOLV.lig_0>
-101.981

>  <SCORE.INTRA.VDW>
3.98264

>  <SCORE.INTRA.VDW.0>
-5.72964

>  <SCORE.INTRA.norm>
0.125002

>  <SCORE.RESTR>
16.075

>  <SCORE.RESTR.CAVITY>
16.075

>  <SCORE.RESTR.norm>
0.401874

>  <SCORE.SYSTEM>
0

>  <SCORE.SYSTEM.CONST>
0

>  <SCORE.SYSTEM.DIHEDRAL>
0

>  <SCORE.SYSTEM.SOLV>
0

>  <SCORE.SYSTEM.norm>
0

>  <SCORE.heavy>
40

>  <SCORE.norm>
0.626183

>  <RMSD>
11.166

$$$$
ligand
 OpenBabel11021811503D
libRbt.so/2013.1/901 2013/11/27
 40 42  0  0  0  0  0  0  0  0999 V2000
   10.5072   -1.2144   25.2490 C   0  0  2  0  0  0  0  0  0  0  0  0
    9.6034   -2.2231   25.7269 O   0  0  0  0  0  0  0  0  0  0  0  0
   10.9554   -1.5271   23.7723 C   0  0  1  0  0  0  0  0  0  0  0  0
   11.8034   -2.8301   23.6956 C   0  0  2  0  0  0  0  0  0  0  0  0
   13.0655   -2.6287   24.5928 C   0  0  2  0  0  0  0  0  0  0  0  0
   13.8909   -3.8114   24.5252 O   0  0  0  0  0  0  0  0  0  0  0  0
   12.5851   -2.3593   26.0855 C   0  0  2  0  0  0  0  0  0  0  0  0
   11.7198   -1.1265   26.1240 O   0  0  0  0  0  0  0  0  0  0  0  0
   13.7485   -2.1288   27.0402 C   0  0  0  0  0  0  0  0  0  0  0  0
   14.6615   -1.0514   26.5440 N   0  0  0  0  0  0  0  0  0  0  0  0
    5.3831   -3.4249   25.4524 C   0  0  2  0  0  0  0  0  0  0  0  0
    3.9904   -3.4135   25.0696 N   0  0  0  0  0  0  0  0  0  0  0  0
    5.7340   -2.0826   26.2127 C   0  0  0  0  0  0  0  0  0  0  0  0
    7.2703   -2.0785   26.6376 C   0  0  2  0  0  0  0  0  0  0  0  0
    7.5943   -0.8240   27.3661 N   0  0  0  0  0  0  0  0  0  0  0  0
    8.1771   -2.2386   25.3303 C   0  0  2  0  0  0  0  0  0  0  0  0
    7.7873   -3.5956   24.6035 C   0  0  2  0  0  0  0  0  0  0  0  0
    8.5958   -3.7498   23.4347 O   0  0  0  0  0  0  0  0  0  0  0  0
    6.2623   -3.5874   24.1920 C   0  0  1  0  0  0  0  0  0  0  0  0
    5.9178   -4.8400   23.5493 O   0  0  0  0  0  0  0  0  0  0  0  0
    4.6346   -5.3538   23.4297 C   0  0  2  0  0  0  0  0  0  0  0  0
    4.7578   -6.7921   22.8122 C   0  0  2  0  0  0  0  0  0  0  0  0
    5.5686   -7.5820   23.6208 O   0  0  0  0  0  0  0  0  0  0  0  0
    5.3020   -6.7492   21.3211 C   0  0  1  0  0  0  0  0  0  0  0  0
    5.3995   -8.1275   20.7486 N   0  0  0  0  0  0  0  0  0  0  0  0
    4.3311   -5.8375   20.4509 C   0  0  2  0  0  0  0  0  0  0  0  0
    4.7740   -5.7775   19.0894 O   0  0  0  0  0  0  0  0  0  0  0  0
    4.2839   -4.4041   21.1083 C   0  0  2  0  0  0  0  0  0  0  0  0
    3.8075   -4.4864   22.5521 O   0  0  0  0  0  0  0  0  0  0  0  0
    3.3616   -3.4840   20.3447 C   0  0  0  0  0  0  0  0  0  0  0  0
    3.5368   -2.1001   20.7012 O   0  0  0  0  0  0  0  0  0  0  0  0
    9.7604   -1.6402   22.9457 O   0  0  0  0  0  0  0  0  0  0  0  0
   12.1767   -3.0471   22.3913 O   0  0  0  0  0  0  0  0  0  0  0  0
    3.5306   -2.4187   24.1284 C   0  0  0  0  0  0  0  0  0  0  0  0
    4.1811   -1.3413   23.9834 O   0  0  0  0  0  0  0  0  0  0  0  0
    2.2287   -2.7208   23.3244 C   0  0  2  0  0  0  0  0  0  0  0  0
   -0.8442   -2.1628   23.0226 N   0  0  0  0  0  0  0  0  0  0  0  0
    1.5252   -1.4001   22.8837 C   0  0  0  0  0  0  0  0  0  0  0  0
    0.2101   -1.6369   22.1225 C   0  0  0  0  0  0  0  0  0  0  0  0
    1.3638   -3.3515   24.0116 O   0  0  0  0  0  0  0  0  0  0  0  0
  1  2  1  1  0  0  0
  1  3  1  0  0  0  0
  1  8  1  0  0  0  0
  3  4  1  0  0  0  0
  3 32  1  6  0  0  0
  4  5  1  0  0  0  0
  4 33  1  6  0  0  0
  5  6  1  1  0  0  0
  5  7  1  0  0  0  0
  7  8  1  0  0  0  0
  7  9  1  1  0  0  0
  9 10  1  0  0  0  0
 11 12  1  6  0  0  0
 11 13  1  0  0  0  0
 11 19  1  0  0  0  0
 12 34  1  0  0  0  0
 13 14  1  0  0  0  0
 14 15  1  6  0  0  0
 14 16  1  0  0  0  0
 16  2  1  1  0  0  0
 16 17  1  0  0  0  0
 17 18  1  6  0  0  0
 17 19  1  0  0  0  0
 19 20  1  1  0  0  0
 21 20  1  6  0  0  0
 21 22  1  0  0  0  0
 21 29  1  0  0  0  0
 22 23  1  1  0  0  0
 22 24  1  0  0  0  0
 24 25  1  6  0  0  0
 24 26  1  0  0  0  0
 26 27  1  6  0  0  0
 26 28  1  0  0  0  0
 28 29  1  0  0  0  0
 28 30  1  6  0  0  0
 30 31  1  0  0  0  0
 34 35  2  0  0  0  0
 36 34  1  1  0  0  0
 36 38  1  0  0  0  0
 36 40  1  0  0  0  0
 37 39  1  0  0  0  0
 38 39  1  0  0  0  0
M  END
>  <CHROM.1>
-78.16143129,-118.77802030,53.25469491,63.87626019,39.11289024,-173.78499728
-165.65605559,154.22902187,-178.23280140,69.89778576,6.84377607,-3.28166738
23.72856071,0.32850096,-0.11687838,0.73256169

>  <Name>
ligand

>  <RI>
0

>  <Rbt.Current_Directory>
/home/itssahil/PROJECTS/Mol_Feturizer/New_Systems/rnas/4P20

>  <Rbt.Executable>
rbdock ($Id: //depot/dev/client3/rdock/2013.1/src/exe/rbdock.cxx#4 $)

>  <Rbt.Library>
libRbt.so (2013.1, Build901 2013/11/27)

>  <Rbt.Parameter_File>
/export/apps/rDock/src/rDock_2013.1_src/data/scripts/dock_solv.prm

>  <Rbt.Receptor>
prm/blind_docking_60.prm

>  <SCORE>
21.7282

>  <SCORE.INTER>
4.85053

>  <SCORE.INTER.CONST>
1

>  <SCORE.INTER.POLAR>
0

>  <SCORE.INTER.ROT>
10

>  <SCORE.INTER.SOLV>
26.7759

>  <SCORE.INTER.VDW>
-15.9583

>  <SCORE.INTER.norm>
0.121263

>  <SCORE.INTRA>
0.905309

>  <SCORE.INTRA.DIHEDRAL>
-14.7234

>  <SCORE.INTRA.DIHEDRAL.0>
28.2802

>  <SCORE.INTRA.POLAR>
0

>  <SCORE.INTRA.POLAR.0>
0

>  <SCORE.INTRA.REPUL>
0

>  <SCORE.INTRA.REPUL.0>
0

>  <SCORE.INTRA.SOLV>
4.81096

>  <SCORE.INTRA.SOLV.lig_0>
-101.981

>  <SCORE.INTRA.VDW>
5.86154

>  <SCORE.INTRA.VDW.0>
-5.72964

>  <SCORE.INTRA.norm>
0.0226327

>  <SCORE.RESTR>
15.9724

>  <SCORE.RESTR.CAVITY>
15.9724

>  <SCORE.RESTR.norm>
0.399309

>  <SCORE.SYSTEM>
0

>  <SCORE.SYSTEM.CONST>
0

>  <SCORE.SYSTEM.DIHEDRAL>
0

>  <SCORE.SYSTEM.SOLV>
0

>  <SCORE.SYSTEM.norm>
0

>  <SCORE.heavy>
40

>  <SCORE.norm>
0.543205

>  <RMSD>
11.170

$$$$
ligand
 OpenBabel11021811503D
libRbt.so/2013.1/901 2013/11/27
 40 42  0  0  0  0  0  0  0  0999 V2000
   10.7428   -2.0585   23.9933 C   0  0  2  0  0  0  0  0  0  0  0  0
    9.9463   -2.4606   25.1189 O   0  0  0  0  0  0  0  0  0  0  0  0
   11.5079   -3.2939   23.3868 C   0  0  1  0  0  0  0  0  0  0  0  0
   12.5606   -3.8604   24.3837 C   0  0  2  0  0  0  0  0  0  0  0  0
   13.5786   -2.7190   24.6988 C   0  0  2  0  0  0  0  0  0  0  0  0
   14.5875   -3.2177   25.6031 O   0  0  0  0  0  0  0  0  0  0  0  0
   12.7865   -1.5029   25.3508 C   0  0  2  0  0  0  0  0  0  0  0  0
   11.7360   -1.0098   24.3898 O   0  0  0  0  0  0  0  0  0  0  0  0
   13.6933   -0.3244   25.6780 C   0  0  0  0  0  0  0  0  0  0  0  0
   15.0218   -0.4482   24.9996 N   0  0  0  0  0  0  0  0  0  0  0  0
    5.6589   -3.4037   25.3618 C   0  0  2  0  0  0  0  0  0  0  0  0
    4.2269   -3.2162   25.3890 N   0  0  0  0  0  0  0  0  0  0  0  0
    6.3204   -2.6018   26.5544 C   0  0  0  0  0  0  0  0  0  0  0  0
    7.9024   -2.7954   26.5345 C   0  0  2  0  0  0  0  0  0  0  0  0
    8.5207   -2.0548   27.6653 N   0  0  0  0  0  0  0  0  0  0  0  0
    8.4757   -2.2900   25.1300 C   0  0  2  0  0  0  0  0  0  0  0  0
    7.7822   -3.1214   23.9682 C   0  0  2  0  0  0  0  0  0  0  0  0
    8.2912   -2.6792   22.7079 O   0  0  0  0  0  0  0  0  0  0  0  0
    6.2153   -2.9235   24.0025 C   0  0  1  0  0  0  0  0  0  0  0  0
    5.5962   -3.7045   22.9502 O   0  0  0  0  0  0  0  0  0  0  0  0
    4.3524   -4.3139   23.0297 C   0  0  2  0  0  0  0  0  0  0  0  0
    4.5798   -5.7890   23.5170 C   0  0  2  0  0  0  0  0  0  0  0  0
    5.2426   -5.7823   24.7401 O   0  0  0  0  0  0  0  0  0  0  0  0
    5.3689   -6.6505   22.4416 C   0  0  1  0  0  0  0  0  0  0  0  0
    5.5635   -8.0540   22.9203 N   0  0  0  0  0  0  0  0  0  0  0  0
    4.5588   -6.6219   21.0726 C   0  0  2  0  0  0  0  0  0  0  0  0
    5.2261   -7.3986   20.0701 O   0  0  0  0  0  0  0  0  0  0  0  0
    4.3995   -5.1166   20.6282 C   0  0  2  0  0  0  0  0  0  0  0  0
    3.6852   -4.3079   21.7025 O   0  0  0  0  0  0  0  0  0  0  0  0
    3.6191   -5.0079   19.3399 C   0  0  0  0  0  0  0  0  0  0  0  0
    3.9533   -6.0445   18.3983 O   0  0  0  0  0  0  0  0  0  0  0  0
   10.5267   -4.3136   23.0382 O   0  0  0  0  0  0  0  0  0  0  0  0
   13.2046   -4.9246   23.8002 O   0  0  0  0  0  0  0  0  0  0  0  0
    3.6617   -2.0447   24.7604 C   0  0  0  0  0  0  0  0  0  0  0  0
    4.3788   -1.0144   24.5894 O   0  0  0  0  0  0  0  0  0  0  0  0
    2.1670   -2.1025   24.3188 C   0  0  2  0  0  0  0  0  0  0  0  0
    1.1264   -3.8245   21.0028 N   0  0  0  0  0  0  0  0  0  0  0  0
    2.0475   -2.3408   22.7818 C   0  0  0  0  0  0  0  0  0  0  0  0
    0.9771   -3.3803   22.4093 C   0  0  0  0  0  0  0  0  0  0  0  0
    1.5479   -1.0138   24.5412 O   0  0  0  0  0  0  0  0  0  0  0  0
  1  2  1  1  0  0  0
  1  3  1  0  0  0  0
  1  8  1  0  0  0  0
  3  4  1  0  0  0  0
  3 32  1  1  0  0  0
  4  5  1  0  0  0  0
  4 33  1  6  0  0  0
  5  6  1  1  0  0  0
  5  7  1  0  0  0  0
  7  8  1  0  0  0  0
  7  9  1  6  0  0  0
  9 10  1  0  0  0  0
 11 12  1  6  0  0  0
 11 13  1  0  0  0  0
 11 19  1  0  0  0  0
 12 34  1  0  0  0  0
 13 14  1  0  0  0  0
 14 15  1  1  0  0  0
 14 16  1  0  0  0  0
 16  2  1  1  0  0  0
 16 17  1  0  0  0  0
 17 18  1  6  0  0  0
 17 19  1  0  0  0  0
 19 20  1  6  0  0  0
 21 20  1  6  0  0  0
 21 22  1  0  0  0  0
 21 29  1  0  0  0  0
 22 23  1  1  0  0  0
 22 24  1  0  0  0  0
 24 25  1  1  0  0  0
 24 26  1  0  0  0  0
 26 27  1  6  0  0  0
 26 28  1  0  0  0  0
 28 29  1  0  0  0  0
 28 30  1  6  0  0  0
 30 31  1  0  0  0  0
 34 35  2  0  0  0  0
 36 34  1  6  0  0  0
 36 38  1  0  0  0  0
 36 40  1  0  0  0  0
 37 39  1  0  0  0  0
 38 39  1  0  0  0  0
M  END
>  <CHROM.1>
-119.42226852,-178.39433797,14.56939803,84.30807868,26.38272036,-93.33636436
-39.29782330,-101.68932885,136.21203887,-165.69884526,7.14873602,-3.50223642
23.64365124,-0.34568903,0.05992868,-2.36563245

>  <Name>
ligand

>  <RI>
0

>  <Rbt.Current_Directory>
/home/itssahil/PROJECTS/Mol_Feturizer/New_Systems/rnas/4P20

>  <Rbt.Executable>
rbdock ($Id: //depot/dev/client3/rdock/2013.1/src/exe/rbdock.cxx#4 $)

>  <Rbt.Library>
libRbt.so (2013.1, Build901 2013/11/27)

>  <Rbt.Parameter_File>
/export/apps/rDock/src/rDock_2013.1_src/data/scripts/dock_solv.prm

>  <Rbt.Receptor>
prm/blind_docking_60.prm

>  <SCORE>
28.9041

>  <SCORE.INTER>
3.94362

>  <SCORE.INTER.CONST>
1

>  <SCORE.INTER.POLAR>
0

>  <SCORE.INTER.ROT>
10

>  <SCORE.INTER.SOLV>
32.1102

>  <SCORE.INTER.VDW>
-18.341

>  <SCORE.INTER.norm>
0.0985905

>  <SCORE.INTRA>
11.2419

>  <SCORE.INTRA.DIHEDRAL>
0.905803

>  <SCORE.INTRA.DIHEDRAL.0>
28.2802

>  <SCORE.INTRA.POLAR>
0

>  <SCORE.INTRA.POLAR.0>
0

>  <SCORE.INTRA.REPUL>
0

>  <SCORE.INTRA.REPUL.0>
0

>  <SCORE.INTRA.SOLV>
5.95963

>  <SCORE.INTRA.SOLV.lig_0>
-101.981

>  <SCORE.INTRA.VDW>
7.80921

>  <SCORE.INTRA.VDW.0>
-5.72964

>  <SCORE.INTRA.norm>
0.281048

>  <SCORE.RESTR>
13.7186

>  <SCORE.RESTR.CAVITY>
13.7186

>  <SCORE.RESTR.norm>
0.342965

>  <SCORE.SYSTEM>
0

>  <SCORE.SYSTEM.CONST>
0

>  <SCORE.SYSTEM.DIHEDRAL>
0

>  <SCORE.SYSTEM.SOLV>
0

>  <SCORE.SYSTEM.norm>
0

>  <SCORE.heavy>
40

>  <SCORE.norm>
0.722604

>  <RMSD>
11.180

$$$$
ligand
 OpenBabel11021811503D
libRbt.so/2013.1/901 2013/11/27
 40 42  0  0  0  0  0  0  0  0999 V2000
   10.7831   -0.9772   25.2123 C   0  0  2  0  0  0  0  0  0  0  0  0
    9.6831   -1.8298   25.5674 O   0  0  0  0  0  0  0  0  0  0  0  0
   11.2619   -1.2745   23.7420 C   0  0  1  0  0  0  0  0  0  0  0  0
   11.8640   -2.7042   23.6145 C   0  0  2  0  0  0  0  0  0  0  0  0
   13.0810   -2.7955   24.5885 C   0  0  2  0  0  0  0  0  0  0  0  0
   13.6820   -4.1036   24.4776 O   0  0  0  0  0  0  0  0  0  0  0  0
   12.5618   -2.5358   26.0699 C   0  0  2  0  0  0  0  0  0  0  0  0
   11.9326   -1.1693   26.1533 O   0  0  0  0  0  0  0  0  0  0  0  0
   13.6836   -2.5839   27.0982 C   0  0  0  0  0  0  0  0  0  0  0  0
   14.4549   -3.8638   27.0107 N   0  0  0  0  0  0  0  0  0  0  0  0
    5.3984   -2.3788   24.7491 C   0  0  2  0  0  0  0  0  0  0  0  0
    4.0914   -2.1823   24.1664 N   0  0  0  0  0  0  0  0  0  0  0  0
    5.8607   -1.0498   25.4721 C   0  0  0  0  0  0  0  0  0  0  0  0
    7.3049   -1.2500   26.1165 C   0  0  2  0  0  0  0  0  0  0  0  0
    7.7307   -0.0058   26.8094 N   0  0  0  0  0  0  0  0  0  0  0  0
    8.3408   -1.6556   24.9678 C   0  0  2  0  0  0  0  0  0  0  0  0
    7.8334   -2.9904   24.2730 C   0  0  2  0  0  0  0  0  0  0  0  0
    8.7554   -3.3635   23.2464 O   0  0  0  0  0  0  0  0  0  0  0  0
    6.4005   -2.7787   23.6428 C   0  0  1  0  0  0  0  0  0  0  0  0
    5.9434   -4.0108   23.0315 O   0  0  0  0  0  0  0  0  0  0  0  0
    4.6514   -4.5112   23.1047 C   0  0  2  0  0  0  0  0  0  0  0  0
    4.7523   -6.0161   23.5410 C   0  0  2  0  0  0  0  0  0  0  0  0
    5.4229   -6.1085   24.7562 O   0  0  0  0  0  0  0  0  0  0  0  0
    5.4538   -6.9067   22.4292 C   0  0  1  0  0  0  0  0  0  0  0  0
    5.5281   -8.3372   22.8596 N   0  0  0  0  0  0  0  0  0  0  0  0
    4.6383   -6.7614   21.0709 C   0  0  2  0  0  0  0  0  0  0  0  0
    5.2266   -7.5594   20.0363 O   0  0  0  0  0  0  0  0  0  0  0  0
    4.6083   -5.2338   20.6778 C   0  0  2  0  0  0  0  0  0  0  0  0
    3.9766   -4.4022   21.7859 O   0  0  0  0  0  0  0  0  0  0  0  0
    3.8301   -5.0140   19.4025 C   0  0  0  0  0  0  0  0  0  0  0  0
    2.4444   -5.3844   19.5260 O   0  0  0  0  0  0  0  0  0  0  0  0
   10.1220   -1.1134   22.8483 O   0  0  0  0  0  0  0  0  0  0  0  0
   12.2753   -2.9045   22.3190 O   0  0  0  0  0  0  0  0  0  0  0  0
    3.9875   -1.5240   22.8847 C   0  0  0  0  0  0  0  0  0  0  0  0
    4.9186   -0.7598   22.4924 O   0  0  0  0  0  0  0  0  0  0  0  0
    2.7085   -1.7855   22.0312 C   0  0  2  0  0  0  0  0  0  0  0  0
   -0.4238   -1.7471   22.3573 N   0  0  0  0  0  0  0  0  0  0  0  0
    1.7870   -2.8421   22.7152 C   0  0  0  0  0  0  0  0  0  0  0  0
    0.3968   -2.9471   22.0660 C   0  0  0  0  0  0  0  0  0  0  0  0
    2.9751   -2.2625   20.8826 O   0  0  0  0  0  0  0  0  0  0  0  0
  1  2  1  1  0  0  0
  1  3  1  0  0  0  0
  1  8  1  0  0  0  0
  3  4  1  0  0  0  0
  3 32  1  6  0  0  0
  4  5  1  0  0  0  0
  4 33  1  6  0  0  0
  5  6  1  1  0  0  0
  5  7  1  0  0  0  0
  7  8  1  0  0  0  0
  7  9  1  1  0  0  0
  9 10  1  0  0  0  0
 11 12  1  6  0  0  0
 11 13  1  0  0  0  0
 11 19  1  0  0  0  0
 12 34  1  0  0  0  0
 13 14  1  0  0  0  0
 14 15  1  6  0  0  0
 14 16  1  0  0  0  0
 16  2  1  1  0  0  0
 16 17  1  0  0  0  0
 17 18  1  6  0  0  0
 17 19  1  0  0  0  0
 19 20  1  1  0  0  0
 21 20  1  6  0  0  0
 21 22  1  0  0  0  0
 21 29  1  0  0  0  0
 22 23  1  1  0  0  0
 22 24  1  0  0  0  0
 24 25  1  1  0  0  0
 24 26  1  0  0  0  0
 26 27  1  6  0  0  0
 26 28  1  0  0  0  0
 28 29  1  0  0  0  0
 28 30  1  6  0  0  0
 30 31  1  0  0  0  0
 34 35  2  0  0  0  0
 36 34  1  1  0  0  0
 36 38  1  0  0  0  0
 36 40  1  0  0  0  0
 37 39  1  0  0  0  0
 38 39  1  0  0  0  0
M  END
>  <CHROM.1>
-70.60307806,-115.94042651,-54.17698288,81.72615833,18.97496897,-130.32241857
62.91154656,-4.29610570,169.09198461,-71.03483366,7.01398883,-3.25531796
23.46109111,0.33526013,-0.24485198,0.50351307

>  <Name>
ligand

>  <RI>
0

>  <Rbt.Current_Directory>
/home/itssahil/PROJECTS/Mol_Feturizer/New_Systems/rnas/4P20

>  <Rbt.Executable>
rbdock ($Id: //depot/dev/client3/rdock/2013.1/src/exe/rbdock.cxx#4 $)

>  <Rbt.Library>
libRbt.so (2013.1, Build901 2013/11/27)

>  <Rbt.Parameter_File>
/export/apps/rDock/src/rDock_2013.1_src/data/scripts/dock_solv.prm

>  <Rbt.Receptor>
prm/blind_docking_60.prm

>  <SCORE>
23.4979

>  <SCORE.INTER>
2.12538

>  <SCORE.INTER.CONST>
1

>  <SCORE.INTER.POLAR>
0

>  <SCORE.INTER.ROT>
10

>  <SCORE.INTER.SOLV>
25.8353

>  <SCORE.INTER.VDW>
-17.4615

>  <SCORE.INTER.norm>
0.0531346

>  <SCORE.INTRA>
3.6631

>  <SCORE.INTRA.DIHEDRAL>
-4.5527

>  <SCORE.INTRA.DIHEDRAL.0>
28.2802

>  <SCORE.INTRA.POLAR>
0

>  <SCORE.INTRA.POLAR.0>
0

>  <SCORE.INTRA.REPUL>
0

>  <SCORE.INTRA.REPUL.0>
0

>  <SCORE.INTRA.SOLV>
4.08659

>  <SCORE.INTRA.SOLV.lig_0>
-101.981

>  <SCORE.INTRA.VDW>
3.89615

>  <SCORE.INTRA.VDW.0>
-5.72964

>  <SCORE.INTRA.norm>
0.0915774

>  <SCORE.RESTR>
17.7094

>  <SCORE.RESTR.CAVITY>
17.7094

>  <SCORE.RESTR.norm>
0.442736

>  <SCORE.SYSTEM>
0

>  <SCORE.SYSTEM.CONST>
0

>  <SCORE.SYSTEM.DIHEDRAL>
0

>  <SCORE.SYSTEM.SOLV>
0

>  <SCORE.SYSTEM.norm>
0

>  <SCORE.heavy>
40

>  <SCORE.norm>
0.587448

>  <RMSD>
11.193

$$$$
ligand
 OpenBabel11021811503D
libRbt.so/2013.1/901 2013/11/27
 40 42  0  0  0  0  0  0  0  0999 V2000
    1.3115   -2.2813   22.2021 C   0  0  2  0  0  0  0  0  0  0  0  0
    2.1640   -1.5903   23.1288 O   0  0  0  0  0  0  0  0  0  0  0  0
    1.7670   -2.0064   20.7201 C   0  0  1  0  0  0  0  0  0  0  0  0
    1.5775   -0.5112   20.3313 C   0  0  2  0  0  0  0  0  0  0  0  0
    0.0614   -0.1695   20.4836 C   0  0  2  0  0  0  0  0  0  0  0  0
   -0.1563    1.2068   20.1054 O   0  0  0  0  0  0  0  0  0  0  0  0
   -0.3605   -0.4129   21.9983 C   0  0  2  0  0  0  0  0  0  0  0  0
   -0.1142   -1.8529   22.3671 O   0  0  0  0  0  0  0  0  0  0  0  0
   -1.8349   -0.1252   22.2466 C   0  0  0  0  0  0  0  0  0  0  0  0
   -2.2650   -0.5911   23.6026 N   0  0  0  0  0  0  0  0  0  0  0  0
    6.1606   -3.4022   23.4024 C   0  0  2  0  0  0  0  0  0  0  0  0
    7.3407   -4.0071   23.9749 N   0  0  0  0  0  0  0  0  0  0  0  0
    5.9408   -1.9687   24.0346 C   0  0  0  0  0  0  0  0  0  0  0  0
    4.6381   -1.2901   23.4155 C   0  0  2  0  0  0  0  0  0  0  0  0
    4.4424    0.0631   23.9985 N   0  0  0  0  0  0  0  0  0  0  0  0
    3.3739   -2.2285   23.6951 C   0  0  2  0  0  0  0  0  0  0  0  0
    3.6427   -3.6519   23.0443 C   0  0  2  0  0  0  0  0  0  0  0  0
    2.5158   -4.4975   23.2858 O   0  0  0  0  0  0  0  0  0  0  0  0
    4.9380   -4.3104   23.6639 C   0  0  1  0  0  0  0  0  0  0  0  0
    5.1810   -5.5983   23.0451 O   0  0  0  0  0  0  0  0  0  0  0  0
    4.2126   -6.5555   22.7786 C   0  0  2  0  0  0  0  0  0  0  0  0
    4.9442   -7.8186   22.2003 C   0  0  2  0  0  0  0  0  0  0  0  0
    5.8938   -8.2692   23.1116 O   0  0  0  0  0  0  0  0  0  0  0  0
    5.6016   -7.5233   20.7853 C   0  0  1  0  0  0  0  0  0  0  0  0
    6.2816   -8.7421   20.2477 N   0  0  0  0  0  0  0  0  0  0  0  0
    4.4660   -7.0187   19.7918 C   0  0  2  0  0  0  0  0  0  0  0  0
    5.0088   -6.7501   18.4930 O   0  0  0  0  0  0  0  0  0  0  0  0
    3.8014   -5.7327   20.4190 C   0  0  2  0  0  0  0  0  0  0  0  0
    3.2267   -6.0373   21.7957 O   0  0  0  0  0  0  0  0  0  0  0  0
    2.6947   -5.2055   19.5371 C   0  0  0  0  0  0  0  0  0  0  0  0
    1.5722   -6.1034   19.4570 O   0  0  0  0  0  0  0  0  0  0  0  0
    3.1643   -2.3998   20.5904 O   0  0  0  0  0  0  0  0  0  0  0  0
    1.9772   -0.3314   19.0292 O   0  0  0  0  0  0  0  0  0  0  0  0
    8.6104   -3.3316   23.8390 C   0  0  0  0  0  0  0  0  0  0  0  0
    8.7826   -2.4980   22.9006 O   0  0  0  0  0  0  0  0  0  0  0  0
    9.7314   -3.6701   24.8692 C   0  0  2  0  0  0  0  0  0  0  0  0
   12.4282   -0.9831   24.0496 N   0  0  0  0  0  0  0  0  0  0  0  0
   10.6944   -2.4586   25.0652 C   0  0  0  0  0  0  0  0  0  0  0  0
   11.4956   -2.1082   23.8001 C   0  0  0  0  0  0  0  0  0  0  0  0
   10.4717   -4.6323   24.4893 O   0  0  0  0  0  0  0  0  0  0  0  0
  1  2  1  1  0  0  0
  1  3  1  0  0  0  0
  1  8  1  0  0  0  0
  3  4  1  0  0  0  0
  3 32  1  1  0  0  0
  4  5  1  0  0  0  0
  4 33  1  6  0  0  0
  5  6  1  1  0  0  0
  5  7  1  0  0  0  0
  7  8  1  0  0  0  0
  7  9  1  6  0  0  0
  9 10  1  0  0  0  0
 11 12  1  1  0  0  0
 11 13  1  0  0  0  0
 11 19  1  0  0  0  0
 12 34  1  0  0  0  0
 13 14  1  0  0  0  0
 14 15  1  1  0  0  0
 14 16  1  0  0  0  0
 16  2  1  6  0  0  0
 16 17  1  0  0  0  0
 17 18  1  1  0  0  0
 17 19  1  0  0  0  0
 19 20  1  6  0  0  0
 21 20  1  6  0  0  0
 21 22  1  0  0  0  0
 21 29  1  0  0  0  0
 22 23  1  1  0  0  0
 22 24  1  0  0  0  0
 24 25  1  6  0  0  0
 24 26  1  0  0  0  0
 26 27  1  6  0  0  0
 26 28  1  0  0  0  0
 28 29  1  0  0  0  0
 28 30  1  6  0  0  0
 30 31  1  0  0  0  0
 34 35  2  0  0  0  0
 36 34  1  6  0  0  0
 36 38  1  0  0  0  0
 36 40  1  0  0  0  0
 37 39  1  0  0  0  0
 38 39  1  0  0  0  0
M  END
>  <CHROM.1>
-91.03595992,125.51983554,169.76318818,-58.85492688,-163.43275094,-176.14570848
66.60721096,-151.67251788,-65.19446916,-178.04027219,4.36224134,-3.44523051
22.22213742,-2.92677478,0.33418535,-2.80796509

>  <Name>
ligand

>  <RI>
0

>  <Rbt.Current_Directory>
/home/itssahil/PROJECTS/Mol_Feturizer/New_Systems/rnas/4P20

>  <Rbt.Executable>
rbdock ($Id: //depot/dev/client3/rdock/2013.1/src/exe/rbdock.cxx#4 $)

>  <Rbt.Library>
libRbt.so (2013.1, Build901 2013/11/27)

>  <Rbt.Parameter_File>
/export/apps/rDock/src/rDock_2013.1_src/data/scripts/dock_solv.prm

>  <Rbt.Receptor>
prm/blind_docking_60.prm

>  <SCORE>
41.5992

>  <SCORE.INTER>
24.6275

>  <SCORE.INTER.CONST>
1

>  <SCORE.INTER.POLAR>
0

>  <SCORE.INTER.ROT>
10

>  <SCORE.INTER.SOLV>
33.2016

>  <SCORE.INTER.VDW>
-4.91551

>  <SCORE.INTER.norm>
0.615688

>  <SCORE.INTRA>
0.143338

>  <SCORE.INTRA.DIHEDRAL>
-13.8718

>  <SCORE.INTRA.DIHEDRAL.0>
28.2802

>  <SCORE.INTRA.POLAR>
0

>  <SCORE.INTRA.POLAR.0>
0

>  <SCORE.INTRA.REPUL>
0

>  <SCORE.INTRA.REPUL.0>
0

>  <SCORE.INTRA.SOLV>
-0.0492393

>  <SCORE.INTRA.SOLV.lig_0>
-101.981

>  <SCORE.INTRA.VDW>
7.10385

>  <SCORE.INTRA.VDW.0>
-5.72964

>  <SCORE.INTRA.norm>
0.00358346

>  <SCORE.RESTR>
16.8283

>  <SCORE.RESTR.CAVITY>
16.8283

>  <SCORE.RESTR.norm>
0.420708

>  <SCORE.SYSTEM>
0

>  <SCORE.SYSTEM.CONST>
0

>  <SCORE.SYSTEM.DIHEDRAL>
0

>  <SCORE.SYSTEM.SOLV>
0

>  <SCORE.SYSTEM.norm>
0

>  <SCORE.heavy>
40

>  <SCORE.norm>
1.03998

>  <RMSD>
11.299

$$$$
ligand
 OpenBabel11021811503D
libRbt.so/2013.1/901 2013/11/27
 40 42  0  0  0  0  0  0  0  0999 V2000
    1.1237   -8.0922   19.5068 C   0  0  2  0  0  0  0  0  0  0  0  0
    1.2608   -6.6716   19.6680 O   0  0  0  0  0  0  0  0  0  0  0  0
    1.2270   -8.4895   17.9866 C   0  0  1  0  0  0  0  0  0  0  0  0
    0.0338   -7.9211   17.1645 C   0  0  2  0  0  0  0  0  0  0  0  0
   -1.2813   -8.5070   17.7691 C   0  0  2  0  0  0  0  0  0  0  0  0
   -2.4107   -8.0202   17.0128 O   0  0  0  0  0  0  0  0  0  0  0  0
   -1.3823   -8.0535   19.2908 C   0  0  2  0  0  0  0  0  0  0  0  0
   -0.1879   -8.5671   20.0523 O   0  0  0  0  0  0  0  0  0  0  0  0
   -2.6280   -8.5942   19.9793 C   0  0  0  0  0  0  0  0  0  0  0  0
   -3.8781   -8.0688   19.3456 N   0  0  0  0  0  0  0  0  0  0  0  0
    4.1506   -4.6070   22.2596 C   0  0  2  0  0  0  0  0  0  0  0  0
    5.3943   -4.0346   22.7201 N   0  0  0  0  0  0  0  0  0  0  0  0
    4.3434   -6.1564   22.0047 C   0  0  0  0  0  0  0  0  0  0  0  0
    2.9793   -6.8015   21.4910 C   0  0  2  0  0  0  0  0  0  0  0  0
    3.1578   -8.2602   21.2677 N   0  0  0  0  0  0  0  0  0  0  0  0
    2.5218   -6.0628   20.1487 C   0  0  2  0  0  0  0  0  0  0  0  0
    2.3438   -4.5148   20.4549 C   0  0  2  0  0  0  0  0  0  0  0  0
    1.9310   -3.8458   19.2610 O   0  0  0  0  0  0  0  0  0  0  0  0
    3.7014   -3.8899   20.9665 C   0  0  1  0  0  0  0  0  0  0  0  0
    3.5169   -2.4829   21.2611 O   0  0  0  0  0  0  0  0  0  0  0  0
    2.5164   -1.6780   20.7358 C   0  0  2  0  0  0  0  0  0  0  0  0
    2.7164   -0.2345   21.3201 C   0  0  2  0  0  0  0  0  0  0  0  0
    3.9883    0.2292   21.0001 O   0  0  0  0  0  0  0  0  0  0  0  0
    2.4683   -0.1932   22.8879 C   0  0  1  0  0  0  0  0  0  0  0  0
    2.6516    1.1921   23.4211 N   0  0  0  0  0  0  0  0  0  0  0  0
    1.0001   -0.7291   23.1853 C   0  0  2  0  0  0  0  0  0  0  0  0
    0.7224   -0.6991   24.5908 O   0  0  0  0  0  0  0  0  0  0  0  0
    0.8841   -2.1907   22.6030 C   0  0  2  0  0  0  0  0  0  0  0  0
    1.1778   -2.2029   21.1090 O   0  0  0  0  0  0  0  0  0  0  0  0
   -0.4957   -2.7606   22.8308 C   0  0  0  0  0  0  0  0  0  0  0  0
   -1.5430   -1.8634   22.4174 O   0  0  0  0  0  0  0  0  0  0  0  0
    2.4945   -7.9904   17.4684 O   0  0  0  0  0  0  0  0  0  0  0  0
    0.1676   -8.3073   15.8528 O   0  0  0  0  0  0  0  0  0  0  0  0
    5.5220   -3.6620   24.1099 C   0  0  0  0  0  0  0  0  0  0  0  0
    4.4838   -3.4217   24.7950 O   0  0  0  0  0  0  0  0  0  0  0  0
    6.9579   -3.5662   24.7112 C   0  0  2  0  0  0  0  0  0  0  0  0
    9.3431   -2.0575   23.2660 N   0  0  0  0  0  0  0  0  0  0  0  0
    7.4109   -2.0791   24.8412 C   0  0  0  0  0  0  0  0  0  0  0  0
    7.9945   -1.5055   23.5391 C   0  0  0  0  0  0  0  0  0  0  0  0
    7.8346   -4.1237   23.9772 O   0  0  0  0  0  0  0  0  0  0  0  0
  1  2  1  6  0  0  0
  1  3  1  0  0  0  0
  1  8  1  0  0  0  0
  3  4  1  0  0  0  0
  3 32  1  6  0  0  0
  4  5  1  0  0  0  0
  4 33  1  6  0  0  0
  5  6  1  6  0  0  0
  5  7  1  0  0  0  0
  7  8  1  0  0  0  0
  7  9  1  1  0  0  0
  9 10  1  0  0  0  0
 11 12  1  6  0  0  0
 11 13  1  0  0  0  0
 11 19  1  0  0  0  0
 12 34  1  0  0  0  0
 13 14  1  0  0  0  0
 14 15  1  6  0  0  0
 14 16  1  0  0  0  0
 16  2  1  1  0  0  0
 16 17  1  0  0  0  0
 17 18  1  6  0  0  0
 17 19  1  0  0  0  0
 19 20  1  1  0  0  0
 21 20  1  1  0  0  0
 21 22  1  0  0  0  0
 21 29  1  0  0  0  0
 22 23  1  1  0  0  0
 22 24  1  0  0  0  0
 24 25  1  6  0  0  0
 24 26  1  0  0  0  0
 26 27  1  1  0  0  0
 26 28  1  0  0  0  0
 28 29  1  0  0  0  0
 28 30  1  6  0  0  0
 30 31  1  0  0  0  0
 34 35  2  0  0  0  0
 36 34  1  6  0  0  0
 36 38  1  0  0  0  0
 36 40  1  0  0  0  0
 37 39  1  0  0  0  0
 38 39  1  0  0  0  0
M  END
>  <CHROM.1>
-102.82118287,-51.00115981,-62.81157711,-106.54193348,-142.29248028,-179.41902071
49.61339271,102.89457631,-83.59686202,-73.07489249,2.32914499,-4.48218934
21.18343622,-2.23533635,-0.26516334,0.47701391

>  <Name>
ligand

>  <RI>
0

>  <Rbt.Current_Directory>
/home/itssahil/PROJECTS/Mol_Feturizer/New_Systems/rnas/4P20

>  <Rbt.Executable>
rbdock ($Id: //depot/dev/client3/rdock/2013.1/src/exe/rbdock.cxx#4 $)

>  <Rbt.Library>
libRbt.so (2013.1, Build901 2013/11/27)

>  <Rbt.Parameter_File>
/export/apps/rDock/src/rDock_2013.1_src/data/scripts/dock_solv.prm

>  <Rbt.Receptor>
prm/blind_docking_60.prm

>  <SCORE>
22.0337

>  <SCORE.INTER>
0.454926

>  <SCORE.INTER.CONST>
1

>  <SCORE.INTER.POLAR>
0

>  <SCORE.INTER.ROT>
10

>  <SCORE.INTER.SOLV>
28.9565

>  <SCORE.INTER.VDW>
-19.6155

>  <SCORE.INTER.norm>
0.0113732

>  <SCORE.INTRA>
1.60622

>  <SCORE.INTRA.DIHEDRAL>
-11.0707

>  <SCORE.INTRA.DIHEDRAL.0>
28.2802

>  <SCORE.INTRA.POLAR>
0

>  <SCORE.INTRA.POLAR.0>
0

>  <SCORE.INTRA.REPUL>
0

>  <SCORE.INTRA.REPUL.0>
0

>  <SCORE.INTRA.SOLV>
3.70528

>  <SCORE.INTRA.SOLV.lig_0>
-101.981

>  <SCORE.INTRA.VDW>
5.28892

>  <SCORE.INTRA.VDW.0>
-5.72964

>  <SCORE.INTRA.norm>
0.0401555

>  <SCORE.RESTR>
19.9726

>  <SCORE.RESTR.CAVITY>
19.9726

>  <SCORE.RESTR.norm>
0.499314

>  <SCORE.SYSTEM>
0

>  <SCORE.SYSTEM.CONST>
0

>  <SCORE.SYSTEM.DIHEDRAL>
0

>  <SCORE.SYSTEM.SOLV>
0

>  <SCORE.SYSTEM.norm>
0

>  <SCORE.heavy>
40

>  <SCORE.norm>
0.550843

>  <RMSD>
11.338

$$$$
ligand
 OpenBabel11021811503D
libRbt.so/2013.1/901 2013/11/27
 40 42  0  0  0  0  0  0  0  0999 V2000
   11.3410   -1.4773   25.3590 C   0  0  2  0  0  0  0  0  0  0  0  0
   10.1301   -2.1986   25.6354 O   0  0  0  0  0  0  0  0  0  0  0  0
   11.7348   -1.6175   23.8410 C   0  0  1  0  0  0  0  0  0  0  0  0
   12.1046   -3.0856   23.4792 C   0  0  2  0  0  0  0  0  0  0  0  0
   13.3141   -3.5048   24.3734 C   0  0  2  0  0  0  0  0  0  0  0  0
   13.7020   -4.8564   24.0459 O   0  0  0  0  0  0  0  0  0  0  0  0
   12.8746   -3.3968   25.8988 C   0  0  2  0  0  0  0  0  0  0  0  0
   12.4673   -1.9798   26.2090 O   0  0  0  0  0  0  0  0  0  0  0  0
   13.9980   -3.7676   26.8572 C   0  0  0  0  0  0  0  0  0  0  0  0
   15.2613   -3.0326   26.5341 N   0  0  0  0  0  0  0  0  0  0  0  0
    5.8579   -2.1553   24.5976 C   0  0  2  0  0  0  0  0  0  0  0  0
    4.6328   -1.8352   23.9026 N   0  0  0  0  0  0  0  0  0  0  0  0
    6.5066   -0.8286   25.1650 C   0  0  0  0  0  0  0  0  0  0  0  0
    7.8632   -1.1656   25.9311 C   0  0  2  0  0  0  0  0  0  0  0  0
    8.4627    0.0799   26.4777 N   0  0  0  0  0  0  0  0  0  0  0  0
    8.8671   -1.8970   24.9242 C   0  0  2  0  0  0  0  0  0  0  0  0
    8.1719   -3.2179   24.3822 C   0  0  2  0  0  0  0  0  0  0  0  0
    9.0637   -3.8814   23.4834 O   0  0  0  0  0  0  0  0  0  0  0  0
    6.8277   -2.8695   23.6293 C   0  0  1  0  0  0  0  0  0  0  0  0
    6.1955   -4.0862   23.1595 O   0  0  0  0  0  0  0  0  0  0  0  0
    4.8566   -4.4097   23.3248 C   0  0  2  0  0  0  0  0  0  0  0  0
    4.7798   -5.9395   23.6698 C   0  0  2  0  0  0  0  0  0  0  0  0
    5.5301   -6.2013   24.8116 O   0  0  0  0  0  0  0  0  0  0  0  0
    5.2527   -6.8431   22.4528 C   0  0  1  0  0  0  0  0  0  0  0  0
    5.1597   -8.2953   22.7983 N   0  0  0  0  0  0  0  0  0  0  0  0
    4.3550   -6.4999   21.1849 C   0  0  2  0  0  0  0  0  0  0  0  0
    4.7357   -7.3015   20.0598 O   0  0  0  0  0  0  0  0  0  0  0  0
    4.5085   -4.9601   20.8774 C   0  0  2  0  0  0  0  0  0  0  0  0
    4.0958   -4.1241   22.0813 O   0  0  0  0  0  0  0  0  0  0  0  0
    3.6650   -4.5538   19.6925 C   0  0  0  0  0  0  0  0  0  0  0  0
    2.2539   -4.5937   19.9749 O   0  0  0  0  0  0  0  0  0  0  0  0
   10.6142   -1.1538   23.0328 O   0  0  0  0  0  0  0  0  0  0  0  0
   12.4509   -3.1474   22.1511 O   0  0  0  0  0  0  0  0  0  0  0  0
    3.3755   -2.2791   24.4584 C   0  0  0  0  0  0  0  0  0  0  0  0
    3.3517   -3.2665   25.2517 O   0  0  0  0  0  0  0  0  0  0  0  0
    2.0826   -1.5114   24.0443 C   0  0  2  0  0  0  0  0  0  0  0  0
   -1.1739   -2.7518   22.3074 N   0  0  0  0  0  0  0  0  0  0  0  0
    1.1140   -2.4381   23.2465 C   0  0  0  0  0  0  0  0  0  0  0  0
   -0.2649   -1.8047   22.9963 C   0  0  0  0  0  0  0  0  0  0  0  0
    2.3221   -0.5287   23.2729 O   0  0  0  0  0  0  0  0  0  0  0  0
  1  2  1  6  0  0  0
  1  3  1  0  0  0  0
  1  8  1  0  0  0  0
  3  4  1  0  0  0  0
  3 32  1  6  0  0  0
  4  5  1  0  0  0  0
  4 33  1  6  0  0  0
  5  6  1  6  0  0  0
  5  7  1  0  0  0  0
  7  8  1  0  0  0  0
  7  9  1  1  0  0  0
  9 10  1  0  0  0  0
 11 12  1  6  0  0  0
 11 13  1  0  0  0  0
 11 19  1  0  0  0  0
 12 34  1  0  0  0  0
 13 14  1  0  0  0  0
 14 15  1  6  0  0  0
 14 16  1  0  0  0  0
 16  2  1  1  0  0  0
 16 17  1  0  0  0  0
 17 18  1  6  0  0  0
 17 19  1  0  0  0  0
 19 20  1  1  0  0  0
 21 20  1  6  0  0  0
 21 22  1  0  0  0  0
 21 29  1  0  0  0  0
 22 23  1  1  0  0  0
 22 24  1  0  0  0  0
 24 25  1  1  0  0  0
 24 26  1  0  0  0  0
 26 27  1  6  0  0  0
 26 28  1  0  0  0  0
 28 29  1  0  0  0  0
 28 30  1  6  0  0  0
 30 31  1  0  0  0  0
 34 35  2  0  0  0  0
 36 34  1  6  0  0  0
 36 38  1  0  0  0  0
 36 40  1  0  0  0  0
 37 39  1  0  0  0  0
 38 39  1  0  0  0  0
M  END
>  <CHROM.1>
-58.53675232,-108.07038647,50.41874754,-112.41637685,12.32321617,-139.78263550
69.58362051,115.75861180,171.24420449,-176.62364558,7.07103582,-3.34985801
23.71403040,0.21818521,-0.16737396,0.56989338

>  <Name>
ligand

>  <RI>
0

>  <Rbt.Current_Directory>
/home/itssahil/PROJECTS/Mol_Feturizer/New_Systems/rnas/4P20

>  <Rbt.Executable>
rbdock ($Id: //depot/dev/client3/rdock/2013.1/src/exe/rbdock.cxx#4 $)

>  <Rbt.Library>
libRbt.so (2013.1, Build901 2013/11/27)

>  <Rbt.Parameter_File>
/export/apps/rDock/src/rDock_2013.1_src/data/scripts/dock_solv.prm

>  <Rbt.Receptor>
prm/blind_docking_60.prm

>  <SCORE>
20.196

>  <SCORE.INTER>
1.62603

>  <SCORE.INTER.CONST>
1

>  <SCORE.INTER.POLAR>
0

>  <SCORE.INTER.ROT>
10

>  <SCORE.INTER.SOLV>
29.711

>  <SCORE.INTER.VDW>
-19.0863

>  <SCORE.INTER.norm>
0.0406507

>  <SCORE.INTRA>
1.97486

>  <SCORE.INTRA.DIHEDRAL>
-5.26693

>  <SCORE.INTRA.DIHEDRAL.0>
28.2802

>  <SCORE.INTRA.POLAR>
0

>  <SCORE.INTRA.POLAR.0>
0

>  <SCORE.INTRA.REPUL>
0

>  <SCORE.INTRA.REPUL.0>
0

>  <SCORE.INTRA.SOLV>
1.9243

>  <SCORE.INTRA.SOLV.lig_0>
-101.981

>  <SCORE.INTRA.VDW>
3.64617

>  <SCORE.INTRA.VDW.0>
-5.72964

>  <SCORE.INTRA.norm>
0.0493715

>  <SCORE.RESTR>
16.5951

>  <SCORE.RESTR.CAVITY>
16.5951

>  <SCORE.RESTR.norm>
0.414879

>  <SCORE.SYSTEM>
0

>  <SCORE.SYSTEM.CONST>
0

>  <SCORE.SYSTEM.DIHEDRAL>
0

>  <SCORE.SYSTEM.SOLV>
0

>  <SCORE.SYSTEM.norm>
0

>  <SCORE.heavy>
40

>  <SCORE.norm>
0.504901

>  <RMSD>
11.373

$$$$
ligand
 OpenBabel11021811513D
libRbt.so/2013.1/901 2013/11/27
 40 42  0  0  0  0  0  0  0  0999 V2000
    2.0804   -7.2660   18.4213 C   0  0  2  0  0  0  0  0  0  0  0  0
    2.5683   -7.6115   19.7272 O   0  0  0  0  0  0  0  0  0  0  0  0
    0.9867   -8.2955   17.9486 C   0  0  1  0  0  0  0  0  0  0  0  0
    1.5898   -9.7151   17.7393 C   0  0  2  0  0  0  0  0  0  0  0  0
    2.7047   -9.6017   16.6519 C   0  0  2  0  0  0  0  0  0  0  0  0
    3.2704  -10.9083   16.4125 O   0  0  0  0  0  0  0  0  0  0  0  0
    3.8173   -8.5912   17.1741 C   0  0  2  0  0  0  0  0  0  0  0  0
    3.1973   -7.2408   17.4236 O   0  0  0  0  0  0  0  0  0  0  0  0
    4.9453   -8.3957   16.1703 C   0  0  0  0  0  0  0  0  0  0  0  0
    4.4457   -7.8001   14.8912 N   0  0  0  0  0  0  0  0  0  0  0  0
    4.6497   -5.2681   22.8105 C   0  0  2  0  0  0  0  0  0  0  0  0
    5.6825   -4.4985   23.4643 N   0  0  0  0  0  0  0  0  0  0  0  0
    5.2048   -6.7071   22.4584 C   0  0  0  0  0  0  0  0  0  0  0  0
    4.0767   -7.5672   21.7313 C   0  0  2  0  0  0  0  0  0  0  0  0
    4.5946   -8.9243   21.4160 N   0  0  0  0  0  0  0  0  0  0  0  0
    3.6077   -6.8050   20.4061 C   0  0  2  0  0  0  0  0  0  0  0  0
    3.0621   -5.3695   20.8106 C   0  0  2  0  0  0  0  0  0  0  0  0
    2.6366   -4.6813   19.6323 O   0  0  0  0  0  0  0  0  0  0  0  0
    4.1885   -4.5304   21.5333 C   0  0  1  0  0  0  0  0  0  0  0  0
    3.6688   -3.2321   21.9143 O   0  0  0  0  0  0  0  0  0  0  0  0
    3.0412   -2.3372   21.0598 C   0  0  2  0  0  0  0  0  0  0  0  0
    3.3825   -0.8886   21.5600 C   0  0  2  0  0  0  0  0  0  0  0  0
    4.7623   -0.7138   21.5853 O   0  0  0  0  0  0  0  0  0  0  0  0
    2.7399   -0.5885   22.9807 C   0  0  1  0  0  0  0  0  0  0  0  0
    3.0667    0.7995   23.4319 N   0  0  0  0  0  0  0  0  0  0  0  0
    1.1662   -0.8007   22.8828 C   0  0  2  0  0  0  0  0  0  0  0  0
    0.5367   -0.5285   24.1410 O   0  0  0  0  0  0  0  0  0  0  0  0
    0.8995   -2.2822   22.4103 C   0  0  2  0  0  0  0  0  0  0  0  0
    1.5714   -2.5522   21.0709 O   0  0  0  0  0  0  0  0  0  0  0  0
   -0.5799   -2.5532   22.2743 C   0  0  0  0  0  0  0  0  0  0  0  0
   -1.2869   -2.4173   23.5211 O   0  0  0  0  0  0  0  0  0  0  0  0
   -0.0735   -8.3279   18.9481 O   0  0  0  0  0  0  0  0  0  0  0  0
    0.5979  -10.5667   17.3166 O   0  0  0  0  0  0  0  0  0  0  0  0
    5.5282   -4.1631   24.8610 C   0  0  0  0  0  0  0  0  0  0  0  0
    4.3722   -4.1412   25.3790 O   0  0  0  0  0  0  0  0  0  0  0  0
    6.8144   -3.8325   25.6788 C   0  0  2  0  0  0  0  0  0  0  0  0
    8.8651   -2.8977   27.5575 N   0  0  0  0  0  0  0  0  0  0  0  0
    6.4526   -3.3451   27.1159 C   0  0  0  0  0  0  0  0  0  0  0  0
    7.6168   -3.4740   28.1124 C   0  0  0  0  0  0  0  0  0  0  0  0
    7.4941   -2.8891   25.1630 O   0  0  0  0  0  0  0  0  0  0  0  0
  1  2  1  1  0  0  0
  1  3  1  0  0  0  0
  1  8  1  0  0  0  0
  3  4  1  0  0  0  0
  3 32  1  1  0  0  0
  4  5  1  0  0  0  0
  4 33  1  6  0  0  0
  5  6  1  1  0  0  0
  5  7  1  0  0  0  0
  7  8  1  0  0  0  0
  7  9  1  6  0  0  0
  9 10  1  0  0  0  0
 11 12  1  6  0  0  0
 11 13  1  0  0  0  0
 11 19  1  0  0  0  0
 12 34  1  0  0  0  0
 13 14  1  0  0  0  0
 14 15  1  6  0  0  0
 14 16  1  0  0  0  0
 16  2  1  1  0  0  0
 16 17  1  0  0  0  0
 17 18  1  6  0  0  0
 17 19  1  0  0  0  0
 19 20  1  1  0  0  0
 21 20  1  1  0  0  0
 21 22  1  0  0  0  0
 21 29  1  0  0  0  0
 22 23  1  1  0  0  0
 22 24  1  0  0  0  0
 24 25  1  6  0  0  0
 24 26  1  0  0  0  0
 26 27  1  1  0  0  0
 26 28  1  0  0  0  0
 28 29  1  0  0  0  0
 28 30  1  6  0  0  0
 30 31  1  0  0  0  0
 34 35  2  0  0  0  0
 36 34  1  6  0  0  0
 36 38  1  0  0  0  0
 36 40  1  0  0  0  0
 37 39  1  0  0  0  0
 38 39  1  0  0  0  0
M  END
>  <CHROM.1>
179.92115415,-171.83530393,62.11329453,-111.46784239,-173.26852375,-147.79076818
-61.95372159,173.83166150,159.77829844,49.00279098,3.41225587,-5.03645285
21.38043611,1.82504215,0.57504165,-2.44334701

>  <Name>
ligand

>  <RI>
0

>  <Rbt.Current_Directory>
/home/itssahil/PROJECTS/Mol_Feturizer/New_Systems/rnas/4P20

>  <Rbt.Executable>
rbdock ($Id: //depot/dev/client3/rdock/2013.1/src/exe/rbdock.cxx#4 $)

>  <Rbt.Library>
libRbt.so (2013.1, Build901 2013/11/27)

>  <Rbt.Parameter_File>
/export/apps/rDock/src/rDock_2013.1_src/data/scripts/dock_solv.prm

>  <Rbt.Receptor>
prm/pocket_docking_7.prm

>  <SCORE>
-18.4478

>  <SCORE.INTER>
-11.528

>  <SCORE.INTER.CONST>
1

>  <SCORE.INTER.POLAR>
0

>  <SCORE.INTER.ROT>
10

>  <SCORE.INTER.SOLV>
16.9213

>  <SCORE.INTER.VDW>
-23.5924

>  <SCORE.INTER.norm>
-0.288199

>  <SCORE.INTRA>
-6.98006

>  <SCORE.INTRA.DIHEDRAL>
-19.9298

>  <SCORE.INTRA.DIHEDRAL.0>
28.2802

>  <SCORE.INTRA.POLAR>
0

>  <SCORE.INTRA.POLAR.0>
0

>  <SCORE.INTRA.REPUL>
0

>  <SCORE.INTRA.REPUL.0>
0

>  <SCORE.INTRA.SOLV>
1.22043

>  <SCORE.INTRA.SOLV.lig_0>
-101.981

>  <SCORE.INTRA.VDW>
2.37461

>  <SCORE.INTRA.VDW.0>
-5.72964

>  <SCORE.INTRA.norm>
-0.174502

>  <SCORE.RESTR>
0.0602313

>  <SCORE.RESTR.CAVITY>
0.0602313

>  <SCORE.RESTR.norm>
0.00150578

>  <SCORE.SYSTEM>
0

>  <SCORE.SYSTEM.CONST>
0

>  <SCORE.SYSTEM.DIHEDRAL>
0

>  <SCORE.SYSTEM.SOLV>
0

>  <SCORE.SYSTEM.norm>
0

>  <SCORE.heavy>
40

>  <SCORE.norm>
-0.461195

>  <RMSD>
11.391

$$$$
ligand
 OpenBabel11021811503D
libRbt.so/2013.1/901 2013/11/27
 40 42  0  0  0  0  0  0  0  0999 V2000
    9.2861  -12.7515    9.1532 C   0  0  2  0  0  0  0  0  0  0  0  0
    9.3549  -11.9875   10.3675 O   0  0  0  0  0  0  0  0  0  0  0  0
   10.7301  -13.0221    8.5867 C   0  0  1  0  0  0  0  0  0  0  0  0
   11.4252  -11.7035    8.1386 C   0  0  2  0  0  0  0  0  0  0  0  0
   10.5412  -11.0548    7.0268 C   0  0  2  0  0  0  0  0  0  0  0  0
   11.1703   -9.8391    6.5677 O   0  0  0  0  0  0  0  0  0  0  0  0
    9.1041  -10.7513    7.6386 C   0  0  2  0  0  0  0  0  0  0  0  0
    8.4763  -12.0348    8.1169 O   0  0  0  0  0  0  0  0  0  0  0  0
    8.1557  -10.1322    6.6210 C   0  0  0  0  0  0  0  0  0  0  0  0
    8.6924   -8.8427    6.0829 N   0  0  0  0  0  0  0  0  0  0  0  0
    5.2992  -10.4563   11.0997 C   0  0  2  0  0  0  0  0  0  0  0  0
    4.1085  -10.0516   11.8103 N   0  0  0  0  0  0  0  0  0  0  0  0
    5.5849  -11.9878   11.3748 C   0  0  0  0  0  0  0  0  0  0  0  0
    6.8999  -12.4480   10.6003 C   0  0  2  0  0  0  0  0  0  0  0  0
    7.1577  -13.8910   10.8465 N   0  0  0  0  0  0  0  0  0  0  0  0
    8.1332  -11.5503   11.0801 C   0  0  2  0  0  0  0  0  0  0  0  0
    7.7984  -10.0262   10.7852 C   0  0  2  0  0  0  0  0  0  0  0  0
    8.8973   -9.2153   11.2075 O   0  0  0  0  0  0  0  0  0  0  0  0
    6.4916   -9.5853   11.5553 C   0  0  1  0  0  0  0  0  0  0  0  0
    6.1884   -8.1992   11.2594 O   0  0  0  0  0  0  0  0  0  0  0  0
    5.4129   -7.3618   12.0482 C   0  0  2  0  0  0  0  0  0  0  0  0
    5.9255   -5.8947   11.8247 C   0  0  2  0  0  0  0  0  0  0  0  0
    5.8453   -5.5702   10.4743 O   0  0  0  0  0  0  0  0  0  0  0  0
    7.4011   -5.6950   12.3762 C   0  0  1  0  0  0  0  0  0  0  0  0
    7.8643   -4.2888   12.1646 N   0  0  0  0  0  0  0  0  0  0  0  0
    7.4233   -6.0765   13.9206 C   0  0  2  0  0  0  0  0  0  0  0  0
    8.7352   -5.8999   14.4695 O   0  0  0  0  0  0  0  0  0  0  0  0
    6.9314   -7.5686   14.0644 C   0  0  2  0  0  0  0  0  0  0  0  0
    5.5353   -7.7368   13.4803 O   0  0  0  0  0  0  0  0  0  0  0  0
    6.9065   -7.9975   15.5121 C   0  0  0  0  0  0  0  0  0  0  0  0
    8.2130   -7.9887   16.1171 O   0  0  0  0  0  0  0  0  0  0  0  0
   11.5097  -13.6903    9.6210 O   0  0  0  0  0  0  0  0  0  0  0  0
   12.6721  -11.9989    7.6429 O   0  0  0  0  0  0  0  0  0  0  0  0
    3.9166  -10.5021   13.1694 C   0  0  0  0  0  0  0  0  0  0  0  0
    4.5086  -11.5457   13.5761 O   0  0  0  0  0  0  0  0  0  0  0  0
    2.9684   -9.6707   14.0871 C   0  0  2  0  0  0  0  0  0  0  0  0
    1.6740  -11.5355   11.8854 N   0  0  0  0  0  0  0  0  0  0  0  0
    1.5116   -9.6683   13.5291 C   0  0  0  0  0  0  0  0  0  0  0  0
    1.0127  -11.0662   13.1265 C   0  0  0  0  0  0  0  0  0  0  0  0
    3.3051   -8.4461   14.1582 O   0  0  0  0  0  0  0  0  0  0  0  0
  1  2  1  1  0  0  0
  1  3  1  0  0  0  0
  1  8  1  0  0  0  0
  3  4  1  0  0  0  0
  3 32  1  1  0  0  0
  4  5  1  0  0  0  0
  4 33  1  6  0  0  0
  5  6  1  1  0  0  0
  5  7  1  0  0  0  0
  7  8  1  0  0  0  0
  7  9  1  6  0  0  0
  9 10  1  0  0  0  0
 11 12  1  1  0  0  0
 11 13  1  0  0  0  0
 11 19  1  0  0  0  0
 12 34  1  0  0  0  0
 13 14  1  0  0  0  0
 14 15  1  1  0  0  0
 14 16  1  0  0  0  0
 16  2  1  6  0  0  0
 16 17  1  0  0  0  0
 17 18  1  1  0  0  0
 17 19  1  0  0  0  0
 19 20  1  6  0  0  0
 21 20  1  6  0  0  0
 21 22  1  0  0  0  0
 21 29  1  0  0  0  0
 22 23  1  6  0  0  0
 22 24  1  0  0  0  0
 24 25  1  1  0  0  0
 24 26  1  0  0  0  0
 26 27  1  6  0  0  0
 26 28  1  0  0  0  0
 28 29  1  0  0  0  0
 28 30  1  1  0  0  0
 30 31  1  0  0  0  0
 34 35  2  0  0  0  0
 36 34  1  6  0  0  0
 36 38  1  0  0  0  0
 36 40  1  0  0  0  0
 37 39  1  0  0  0  0
 38 39  1  0  0  0  0
M  END
>  <CHROM.1>
177.60555594,19.12671479,-59.31186813,42.90385267,82.05438342,150.99100800
-63.04884802,62.53356008,47.18806656,-72.27447766,7.10865549,-9.73239893
11.18687720,0.69161557,-0.52575782,-2.65345063

>  <Name>
ligand

>  <RI>
0

>  <Rbt.Current_Directory>
/home/itssahil/PROJECTS/Mol_Feturizer/New_Systems/rnas/4P20

>  <Rbt.Executable>
rbdock ($Id: //depot/dev/client3/rdock/2013.1/src/exe/rbdock.cxx#4 $)

>  <Rbt.Library>
libRbt.so (2013.1, Build901 2013/11/27)

>  <Rbt.Parameter_File>
/export/apps/rDock/src/rDock_2013.1_src/data/scripts/dock_solv.prm

>  <Rbt.Receptor>
prm/blind_docking_20.prm

>  <SCORE>
32.6699

>  <SCORE.INTER>
8.90263

>  <SCORE.INTER.CONST>
1

>  <SCORE.INTER.POLAR>
0

>  <SCORE.INTER.ROT>
10

>  <SCORE.INTER.SOLV>
19.5264

>  <SCORE.INTER.VDW>
-10.8404

>  <SCORE.INTER.norm>
0.222566

>  <SCORE.INTRA>
1.84901

>  <SCORE.INTRA.DIHEDRAL>
-14.9528

>  <SCORE.INTRA.DIHEDRAL.0>
28.2802

>  <SCORE.INTRA.POLAR>
0

>  <SCORE.INTRA.POLAR.0>
0

>  <SCORE.INTRA.REPUL>
0.0154574

>  <SCORE.INTRA.REPUL.0>
0

>  <SCORE.INTRA.SOLV>
7.21574

>  <SCORE.INTRA.SOLV.lig_0>
-101.981

>  <SCORE.INTRA.VDW>
5.64026

>  <SCORE.INTRA.VDW.0>
-5.72964

>  <SCORE.INTRA.norm>
0.0462253

>  <SCORE.RESTR>
21.9183

>  <SCORE.RESTR.CAVITY>
21.9183

>  <SCORE.RESTR.norm>
0.547957

>  <SCORE.SYSTEM>
0

>  <SCORE.SYSTEM.CONST>
0

>  <SCORE.SYSTEM.DIHEDRAL>
0

>  <SCORE.SYSTEM.SOLV>
0

>  <SCORE.SYSTEM.norm>
0

>  <SCORE.heavy>
40

>  <SCORE.norm>
0.816748

>  <RMSD>
11.420

$$$$
ligand
 OpenBabel11021811503D
libRbt.so/2013.1/901 2013/11/27
 40 42  0  0  0  0  0  0  0  0999 V2000
   10.1141  -12.0842    9.3771 C   0  0  2  0  0  0  0  0  0  0  0  0
    8.6834  -12.0168    9.2702 O   0  0  0  0  0  0  0  0  0  0  0  0
   10.7134  -10.6628    9.6927 C   0  0  1  0  0  0  0  0  0  0  0  0
   10.4909   -9.6731    8.5121 C   0  0  2  0  0  0  0  0  0  0  0  0
   11.1965  -10.2695    7.2532 C   0  0  2  0  0  0  0  0  0  0  0  0
   11.0325   -9.3629    6.1416 O   0  0  0  0  0  0  0  0  0  0  0  0
   10.5418  -11.6834    6.9308 C   0  0  2  0  0  0  0  0  0  0  0  0
   10.7200  -12.6043    8.1099 O   0  0  0  0  0  0  0  0  0  0  0  0
   11.1787  -12.3598    5.7245 C   0  0  0  0  0  0  0  0  0  0  0  0
   11.2442  -11.4369    4.5479 N   0  0  0  0  0  0  0  0  0  0  0  0
    5.1599  -10.7803   11.5911 C   0  0  2  0  0  0  0  0  0  0  0  0
    4.3477  -10.3790   12.7161 N   0  0  0  0  0  0  0  0  0  0  0  0
    5.7774  -12.2104   11.8674 C   0  0  0  0  0  0  0  0  0  0  0  0
    6.6810  -12.6649   10.6355 C   0  0  2  0  0  0  0  0  0  0  0  0
    7.2470  -14.0156   10.8896 N   0  0  0  0  0  0  0  0  0  0  0  0
    7.8392  -11.5862   10.4076 C   0  0  2  0  0  0  0  0  0  0  0  0
    7.1709  -10.1713   10.1367 C   0  0  2  0  0  0  0  0  0  0  0  0
    8.1989   -9.2003    9.9279 O   0  0  0  0  0  0  0  0  0  0  0  0
    6.2757   -9.7357   11.3631 C   0  0  1  0  0  0  0  0  0  0  0  0
    5.6570   -8.4535   11.0915 O   0  0  0  0  0  0  0  0  0  0  0  0
    4.8963   -7.7231   11.9930 C   0  0  2  0  0  0  0  0  0  0  0  0
    5.1505   -6.2015   11.7010 C   0  0  2  0  0  0  0  0  0  0  0  0
    4.8207   -5.9157   10.3801 O   0  0  0  0  0  0  0  0  0  0  0  0
    6.6476   -5.7812   12.0225 C   0  0  1  0  0  0  0  0  0  0  0  0
    6.8642   -4.3268   11.7494 N   0  0  0  0  0  0  0  0  0  0  0  0
    6.9584   -6.1284   13.5437 C   0  0  2  0  0  0  0  0  0  0  0  0
    8.2984   -5.7547   13.8874 O   0  0  0  0  0  0  0  0  0  0  0  0
    6.7160   -7.6731   13.7537 C   0  0  2  0  0  0  0  0  0  0  0  0
    5.2871   -8.0513   13.3881 O   0  0  0  0  0  0  0  0  0  0  0  0
    6.9730   -8.0757   15.1864 C   0  0  0  0  0  0  0  0  0  0  0  0
    8.3452   -7.8872   15.5792 O   0  0  0  0  0  0  0  0  0  0  0  0
   10.0875  -10.1623   10.9100 O   0  0  0  0  0  0  0  0  0  0  0  0
   11.0426   -8.4571    8.8352 O   0  0  0  0  0  0  0  0  0  0  0  0
    3.0200   -9.8641   12.4734 C   0  0  0  0  0  0  0  0  0  0  0  0
    2.7354   -9.3643   11.3446 O   0  0  0  0  0  0  0  0  0  0  0  0
    1.9822   -9.9442   13.6350 C   0  0  2  0  0  0  0  0  0  0  0  0
    2.2721  -12.4799   11.7016 N   0  0  0  0  0  0  0  0  0  0  0  0
    1.3977  -11.3848   13.7634 C   0  0  0  0  0  0  0  0  0  0  0  0
    1.0512  -12.0231   12.4078 C   0  0  0  0  0  0  0  0  0  0  0  0
    0.9774   -9.1871   13.4473 O   0  0  0  0  0  0  0  0  0  0  0  0
  1  2  1  6  0  0  0
  1  3  1  0  0  0  0
  1  8  1  0  0  0  0
  3  4  1  0  0  0  0
  3 32  1  1  0  0  0
  4  5  1  0  0  0  0
  4 33  1  1  0  0  0
  5  6  1  6  0  0  0
  5  7  1  0  0  0  0
  7  8  1  0  0  0  0
  7  9  1  6  0  0  0
  9 10  1  0  0  0  0
 11 12  1  1  0  0  0
 11 13  1  0  0  0  0
 11 19  1  0  0  0  0
 12 34  1  0  0  0  0
 13 14  1  0  0  0  0
 14 15  1  1  0  0  0
 14 16  1  0  0  0  0
 16  2  1  6  0  0  0
 16 17  1  0  0  0  0
 17 18  1  1  0  0  0
 17 19  1  0  0  0  0
 19 20  1  6  0  0  0
 21 20  1  6  0  0  0
 21 22  1  0  0  0  0
 21 29  1  0  0  0  0
 22 23  1  6  0  0  0
 22 24  1  0  0  0  0
 24 25  1  1  0  0  0
 24 26  1  0  0  0  0
 26 27  1  6  0  0  0
 26 28  1  0  0  0  0
 28 29  1  0  0  0  0
 28 30  1  1  0  0  0
 30 31  1  0  0  0  0
 34 35  2  0  0  0  0
 36 34  1  6  0  0  0
 36 38  1  0  0  0  0
 36 40  1  0  0  0  0
 37 39  1  0  0  0  0
 38 39  1  0  0  0  0
M  END
>  <CHROM.1>
-61.20249517,-129.14475268,-50.43103160,-131.68025798,65.62708628,146.54625608
-63.95204823,-78.37786336,-43.05302305,76.04747954,6.91580623,-9.66348553
10.94655298,0.51143544,-0.49746348,-2.63170774

>  <Name>
ligand

>  <RI>
0

>  <Rbt.Current_Directory>
/home/itssahil/PROJECTS/Mol_Feturizer/New_Systems/rnas/4P20

>  <Rbt.Executable>
rbdock ($Id: //depot/dev/client3/rdock/2013.1/src/exe/rbdock.cxx#4 $)

>  <Rbt.Library>
libRbt.so (2013.1, Build901 2013/11/27)

>  <Rbt.Parameter_File>
/export/apps/rDock/src/rDock_2013.1_src/data/scripts/dock_solv.prm

>  <Rbt.Receptor>
prm/blind_docking_20.prm

>  <SCORE>
27.4661

>  <SCORE.INTER>
5.77426

>  <SCORE.INTER.CONST>
1

>  <SCORE.INTER.POLAR>
0

>  <SCORE.INTER.ROT>
10

>  <SCORE.INTER.SOLV>
19.0397

>  <SCORE.INTER.VDW>
-12.7637

>  <SCORE.INTER.norm>
0.144356

>  <SCORE.INTRA>
2.07921

>  <SCORE.INTRA.DIHEDRAL>
-12.5887

>  <SCORE.INTRA.DIHEDRAL.0>
28.2802

>  <SCORE.INTRA.POLAR>
0

>  <SCORE.INTRA.POLAR.0>
0

>  <SCORE.INTRA.REPUL>
0

>  <SCORE.INTRA.REPUL.0>
0

>  <SCORE.INTRA.SOLV>
7.64995

>  <SCORE.INTRA.SOLV.lig_0>
-101.981

>  <SCORE.INTRA.VDW>
4.5486

>  <SCORE.INTRA.VDW.0>
-5.72964

>  <SCORE.INTRA.norm>
0.0519803

>  <SCORE.RESTR>
19.6127

>  <SCORE.RESTR.CAVITY>
19.6127

>  <SCORE.RESTR.norm>
0.490316

>  <SCORE.SYSTEM>
0

>  <SCORE.SYSTEM.CONST>
0

>  <SCORE.SYSTEM.DIHEDRAL>
0

>  <SCORE.SYSTEM.SOLV>
0

>  <SCORE.SYSTEM.norm>
0

>  <SCORE.heavy>
40

>  <SCORE.norm>
0.686653

>  <RMSD>
11.425

$$$$
ligand
 OpenBabel11021811503D
libRbt.so/2013.1/901 2013/11/27
 40 42  0  0  0  0  0  0  0  0999 V2000
   11.0512  -10.6085    8.7938 C   0  0  2  0  0  0  0  0  0  0  0  0
    9.7973  -10.2849    8.1726 O   0  0  0  0  0  0  0  0  0  0  0  0
   11.5390  -12.0369    8.3452 C   0  0  1  0  0  0  0  0  0  0  0  0
   10.5869  -13.1548    8.8616 C   0  0  2  0  0  0  0  0  0  0  0  0
   10.5645  -13.0765   10.4210 C   0  0  2  0  0  0  0  0  0  0  0  0
    9.7090  -14.1187   10.9374 O   0  0  0  0  0  0  0  0  0  0  0  0
   10.0261  -11.6409   10.8460 C   0  0  2  0  0  0  0  0  0  0  0  0
   10.9319  -10.5747   10.2865 O   0  0  0  0  0  0  0  0  0  0  0  0
    9.9855  -11.4568   12.3568 C   0  0  0  0  0  0  0  0  0  0  0  0
   11.2131  -12.0097   13.0111 N   0  0  0  0  0  0  0  0  0  0  0  0
    5.7111   -9.3889    9.5256 C   0  0  2  0  0  0  0  0  0  0  0  0
    4.4626   -9.5038   10.2429 N   0  0  0  0  0  0  0  0  0  0  0  0
    5.9475  -10.6935    8.6625 C   0  0  0  0  0  0  0  0  0  0  0  0
    7.3251  -10.5834    7.8682 C   0  0  2  0  0  0  0  0  0  0  0  0
    7.5377  -11.8028    7.0451 N   0  0  0  0  0  0  0  0  0  0  0  0
    8.5181  -10.3755    8.9124 C   0  0  2  0  0  0  0  0  0  0  0  0
    8.2348   -9.0585    9.7533 C   0  0  2  0  0  0  0  0  0  0  0  0
    9.2984   -8.8618   10.6878 O   0  0  0  0  0  0  0  0  0  0  0  0
    6.8655   -9.1800   10.5315 C   0  0  1  0  0  0  0  0  0  0  0  0
    6.6117   -7.9630   11.2766 O   0  0  0  0  0  0  0  0  0  0  0  0
    5.6132   -7.7970   12.2254 C   0  0  2  0  0  0  0  0  0  0  0  0
    5.3540   -6.2555   12.3730 C   0  0  2  0  0  0  0  0  0  0  0  0
    5.0027   -5.7184   11.1387 O   0  0  0  0  0  0  0  0  0  0  0  0
    6.6085   -5.5028   12.9902 C   0  0  1  0  0  0  0  0  0  0  0  0
    6.3357   -4.0393   13.1335 N   0  0  0  0  0  0  0  0  0  0  0  0
    6.9542   -6.1590   14.3977 C   0  0  2  0  0  0  0  0  0  0  0  0
    8.0756   -5.5037   15.0030 O   0  0  0  0  0  0  0  0  0  0  0  0
    7.2358   -7.6942   14.1673 C   0  0  2  0  0  0  0  0  0  0  0  0
    6.0331   -8.3749   13.5278 O   0  0  0  0  0  0  0  0  0  0  0  0
    7.5530   -8.3918   15.4685 C   0  0  0  0  0  0  0  0  0  0  0  0
    8.2802   -9.6197   15.2781 O   0  0  0  0  0  0  0  0  0  0  0  0
   11.6171  -12.0576    6.8900 O   0  0  0  0  0  0  0  0  0  0  0  0
   11.0654  -14.3763    8.4534 O   0  0  0  0  0  0  0  0  0  0  0  0
    4.3892  -10.3856   11.3848 C   0  0  0  0  0  0  0  0  0  0  0  0
    5.2118  -11.3428   11.4947 O   0  0  0  0  0  0  0  0  0  0  0  0
    3.2775  -10.1162   12.4450 C   0  0  2  0  0  0  0  0  0  0  0  0
    1.9187  -13.5629   11.5438 N   0  0  0  0  0  0  0  0  0  0  0  0
    2.3847  -11.3787   12.6513 C   0  0  0  0  0  0  0  0  0  0  0  0
    2.0387  -12.0996   11.3377 C   0  0  0  0  0  0  0  0  0  0  0  0
    2.4786   -9.1911   12.0929 O   0  0  0  0  0  0  0  0  0  0  0  0
  1  2  1  6  0  0  0
  1  3  1  0  0  0  0
  1  8  1  0  0  0  0
  3  4  1  0  0  0  0
  3 32  1  6  0  0  0
  4  5  1  0  0  0  0
  4 33  1  1  0  0  0
  5  6  1  1  0  0  0
  5  7  1  0  0  0  0
  7  8  1  0  0  0  0
  7  9  1  1  0  0  0
  9 10  1  0  0  0  0
 11 12  1  1  0  0  0
 11 13  1  0  0  0  0
 11 19  1  0  0  0  0
 12 34  1  0  0  0  0
 13 14  1  0  0  0  0
 14 15  1  1  0  0  0
 14 16  1  0  0  0  0
 16  2  1  6  0  0  0
 16 17  1  0  0  0  0
 17 18  1  1  0  0  0
 17 19  1  0  0  0  0
 19 20  1  6  0  0  0
 21 20  1  6  0  0  0
 21 22  1  0  0  0  0
 21 29  1  0  0  0  0
 22 23  1  6  0  0  0
 22 24  1  0  0  0  0
 24 25  1  1  0  0  0
 24 26  1  0  0  0  0
 26 27  1  6  0  0  0
 26 28  1  0  0  0  0
 28 29  1  0  0  0  0
 28 30  1  1  0  0  0
 30 31  1  0  0  0  0
 34 35  2  0  0  0  0
 36 34  1  6  0  0  0
 36 38  1  0  0  0  0
 36 40  1  0  0  0  0
 37 39  1  0  0  0  0
 38 39  1  0  0  0  0
M  END
>  <CHROM.1>
102.31844792,-155.66874788,42.37409411,74.02797642,70.38867126,-159.26644588
-158.41838366,123.88702344,-41.46349523,147.27537143,7.36029172,-9.90452296
11.12457296,-0.84350739,0.09905220,0.63115443

>  <Name>
ligand

>  <RI>
0

>  <Rbt.Current_Directory>
/home/itssahil/PROJECTS/Mol_Feturizer/New_Systems/rnas/4P20

>  <Rbt.Executable>
rbdock ($Id: //depot/dev/client3/rdock/2013.1/src/exe/rbdock.cxx#4 $)

>  <Rbt.Library>
libRbt.so (2013.1, Build901 2013/11/27)

>  <Rbt.Parameter_File>
/export/apps/rDock/src/rDock_2013.1_src/data/scripts/dock_solv.prm

>  <Rbt.Receptor>
prm/blind_docking_20.prm

>  <SCORE>
59.6203

>  <SCORE.INTER>
44.8709

>  <SCORE.INTER.CONST>
1

>  <SCORE.INTER.POLAR>
0

>  <SCORE.INTER.ROT>
10

>  <SCORE.INTER.SOLV>
34.3248

>  <SCORE.INTER.VDW>
8.20565

>  <SCORE.INTER.norm>
1.12177

>  <SCORE.INTRA>
1.12714

>  <SCORE.INTRA.DIHEDRAL>
-8.11427

>  <SCORE.INTRA.DIHEDRAL.0>
28.2802

>  <SCORE.INTRA.POLAR>
0

>  <SCORE.INTRA.POLAR.0>
0

>  <SCORE.INTRA.REPUL>
0

>  <SCORE.INTRA.REPUL.0>
0

>  <SCORE.INTRA.SOLV>
3.30425

>  <SCORE.INTRA.SOLV.lig_0>
-101.981

>  <SCORE.INTRA.VDW>
3.53215

>  <SCORE.INTRA.VDW.0>
-5.72964

>  <SCORE.INTRA.norm>
0.0281786

>  <SCORE.RESTR>
13.6223

>  <SCORE.RESTR.CAVITY>
13.6223

>  <SCORE.RESTR.norm>
0.340558

>  <SCORE.SYSTEM>
0

>  <SCORE.SYSTEM.CONST>
0

>  <SCORE.SYSTEM.DIHEDRAL>
0

>  <SCORE.SYSTEM.SOLV>
0

>  <SCORE.SYSTEM.norm>
0

>  <SCORE.heavy>
40

>  <SCORE.norm>
1.49051

>  <RMSD>
11.451

$$$$
ligand
 OpenBabel11021811503D
libRbt.so/2013.1/901 2013/11/27
 40 42  0  0  0  0  0  0  0  0999 V2000
   10.5562  -10.1183    8.8873 C   0  0  2  0  0  0  0  0  0  0  0  0
    9.1693   -9.8883    8.5929 O   0  0  0  0  0  0  0  0  0  0  0  0
   11.2384  -10.9420    7.7317 C   0  0  1  0  0  0  0  0  0  0  0  0
   10.6523  -12.3806    7.6317 C   0  0  2  0  0  0  0  0  0  0  0  0
   10.9040  -13.0919    8.9988 C   0  0  2  0  0  0  0  0  0  0  0  0
   10.3951  -14.4414    8.9337 O   0  0  0  0  0  0  0  0  0  0  0  0
   10.1674  -12.2644   10.1408 C   0  0  2  0  0  0  0  0  0  0  0  0
   10.7116  -10.8600   10.1793 O   0  0  0  0  0  0  0  0  0  0  0  0
   10.3706  -12.8695   11.5231 C   0  0  0  0  0  0  0  0  0  0  0  0
    9.5952  -12.1280   12.5670 N   0  0  0  0  0  0  0  0  0  0  0  0
    5.2454   -9.7462   10.5710 C   0  0  2  0  0  0  0  0  0  0  0  0
    4.2376   -9.8701   11.5983 N   0  0  0  0  0  0  0  0  0  0  0  0
    5.8967  -11.1613   10.2951 C   0  0  0  0  0  0  0  0  0  0  0  0
    7.0152  -11.0394    9.1660 C   0  0  2  0  0  0  0  0  0  0  0  0
    7.6146  -12.3727    8.8964 N   0  0  0  0  0  0  0  0  0  0  0  0
    8.1263   -9.9909    9.6385 C   0  0  2  0  0  0  0  0  0  0  0  0
    7.4250   -8.5910    9.9036 C   0  0  2  0  0  0  0  0  0  0  0  0
    8.4112   -7.6453   10.3231 O   0  0  0  0  0  0  0  0  0  0  0  0
    6.3168   -8.7275   11.0211 C   0  0  1  0  0  0  0  0  0  0  0  0
    5.6726   -7.4471   11.2361 O   0  0  0  0  0  0  0  0  0  0  0  0
    4.9699   -7.0843   12.3761 C   0  0  2  0  0  0  0  0  0  0  0  0
    5.1483   -5.5362   12.5677 C   0  0  2  0  0  0  0  0  0  0  0  0
    4.6959   -4.8679   11.4346 O   0  0  0  0  0  0  0  0  0  0  0  0
    6.6534   -5.1523   12.8976 C   0  0  1  0  0  0  0  0  0  0  0  0
    6.7982   -3.6760   13.0885 N   0  0  0  0  0  0  0  0  0  0  0  0
    7.1063   -5.9431   14.2017 C   0  0  2  0  0  0  0  0  0  0  0  0
    8.4583   -5.6194   14.5492 O   0  0  0  0  0  0  0  0  0  0  0  0
    6.9333   -7.4865   13.9244 C   0  0  2  0  0  0  0  0  0  0  0  0
    5.4910   -7.8126   13.5612 O   0  0  0  0  0  0  0  0  0  0  0  0
    7.3267   -8.3049   15.1310 C   0  0  0  0  0  0  0  0  0  0  0  0
    8.7069   -8.1245   15.4991 O   0  0  0  0  0  0  0  0  0  0  0  0
   11.0475  -10.2194    6.4805 O   0  0  0  0  0  0  0  0  0  0  0  0
   11.2901  -13.0561    6.6194 O   0  0  0  0  0  0  0  0  0  0  0  0
    3.0631  -10.6689   11.3349 C   0  0  0  0  0  0  0  0  0  0  0  0
    2.7025  -10.8825   10.1393 O   0  0  0  0  0  0  0  0  0  0  0  0
    2.2772  -11.2365   12.5566 C   0  0  2  0  0  0  0  0  0  0  0  0
    2.1936  -13.6358   10.9860 N   0  0  0  0  0  0  0  0  0  0  0  0
    2.9458  -12.5392   13.0946 C   0  0  0  0  0  0  0  0  0  0  0  0
    3.2840  -13.5509   11.9869 C   0  0  0  0  0  0  0  0  0  0  0  0
    1.0844  -11.5658   12.2617 O   0  0  0  0  0  0  0  0  0  0  0  0
  1  2  1  6  0  0  0
  1  3  1  0  0  0  0
  1  8  1  0  0  0  0
  3  4  1  0  0  0  0
  3 32  1  6  0  0  0
  4  5  1  0  0  0  0
  4 33  1  6  0  0  0
  5  6  1  6  0  0  0
  5  7  1  0  0  0  0
  7  8  1  0  0  0  0
  7  9  1  1  0  0  0
  9 10  1  0  0  0  0
 11 12  1  1  0  0  0
 11 13  1  0  0  0  0
 11 19  1  0  0  0  0
 12 34  1  0  0  0  0
 13 14  1  0  0  0  0
 14 15  1  1  0  0  0
 14 16  1  0  0  0  0
 16  2  1  6  0  0  0
 16 17  1  0  0  0  0
 17 18  1  1  0  0  0
 17 19  1  0  0  0  0
 19 20  1  6  0  0  0
 21 20  1  6  0  0  0
 21 22  1  0  0  0  0
 21 29  1  0  0  0  0
 22 23  1  6  0  0  0
 22 24  1  0  0  0  0
 24 25  1  1  0  0  0
 24 26  1  0  0  0  0
 26 27  1  6  0  0  0
 26 28  1  0  0  0  0
 28 29  1  0  0  0  0
 28 30  1  1  0  0  0
 30 31  1  0  0  0  0
 34 35  2  0  0  0  0
 36 34  1  6  0  0  0
 36 38  1  0  0  0  0
 36 40  1  0  0  0  0
 37 39  1  0  0  0  0
 38 39  1  0  0  0  0
M  END
>  <CHROM.1>
139.14909047,-124.45479773,-176.21041691,-64.56555075,80.86054327,148.68512982
-61.37496213,-81.82794824,-47.71105844,-41.28153564,7.06919524,-9.80611584
11.05672037,-0.81343241,0.32919743,0.48332312

>  <Name>
ligand

>  <RI>
0

>  <Rbt.Current_Directory>
/home/itssahil/PROJECTS/Mol_Feturizer/New_Systems/rnas/4P20

>  <Rbt.Executable>
rbdock ($Id: //depot/dev/client3/rdock/2013.1/src/exe/rbdock.cxx#4 $)

>  <Rbt.Library>
libRbt.so (2013.1, Build901 2013/11/27)

>  <Rbt.Parameter_File>
/export/apps/rDock/src/rDock_2013.1_src/data/scripts/dock_solv.prm

>  <Rbt.Receptor>
prm/blind_docking_20.prm

>  <SCORE>
19.0667

>  <SCORE.INTER>
5.1818

>  <SCORE.INTER.CONST>
1

>  <SCORE.INTER.POLAR>
0

>  <SCORE.INTER.ROT>
10

>  <SCORE.INTER.SOLV>
30.9492

>  <SCORE.INTER.VDW>
-17.1285

>  <SCORE.INTER.norm>
0.129545

>  <SCORE.INTRA>
1.92925

>  <SCORE.INTRA.DIHEDRAL>
-6.75986

>  <SCORE.INTRA.DIHEDRAL.0>
28.2802

>  <SCORE.INTRA.POLAR>
0

>  <SCORE.INTRA.POLAR.0>
0

>  <SCORE.INTRA.REPUL>
0

>  <SCORE.INTRA.REPUL.0>
0

>  <SCORE.INTRA.SOLV>
8.09903

>  <SCORE.INTRA.SOLV.lig_0>
-101.981

>  <SCORE.INTRA.VDW>
1.25967

>  <SCORE.INTRA.VDW.0>
-5.72964

>  <SCORE.INTRA.norm>
0.0482313

>  <SCORE.RESTR>
11.9556

>  <SCORE.RESTR.CAVITY>
11.9556

>  <SCORE.RESTR.norm>
0.29889

>  <SCORE.SYSTEM>
0

>  <SCORE.SYSTEM.CONST>
0

>  <SCORE.SYSTEM.DIHEDRAL>
0

>  <SCORE.SYSTEM.SOLV>
0

>  <SCORE.SYSTEM.norm>
0

>  <SCORE.heavy>
40

>  <SCORE.norm>
0.476666

>  <RMSD>
11.457

$$$$
ligand
 OpenBabel11021811503D
libRbt.so/2013.1/901 2013/11/27
 40 42  0  0  0  0  0  0  0  0999 V2000
   10.5540  -10.0212    8.8760 C   0  0  2  0  0  0  0  0  0  0  0  0
    9.1704   -9.7562    8.5957 O   0  0  0  0  0  0  0  0  0  0  0  0
   11.2200  -10.8054    7.6841 C   0  0  1  0  0  0  0  0  0  0  0  0
   10.6103  -12.2285    7.5239 C   0  0  2  0  0  0  0  0  0  0  0  0
   10.8531  -13.0021    8.8583 C   0  0  2  0  0  0  0  0  0  0  0  0
   10.3219  -14.3391    8.7366 O   0  0  0  0  0  0  0  0  0  0  0  0
   10.1326  -12.2127   10.0370 C   0  0  2  0  0  0  0  0  0  0  0  0
   10.6999  -10.8203   10.1344 O   0  0  0  0  0  0  0  0  0  0  0  0
   10.3288  -12.8800   11.3914 C   0  0  0  0  0  0  0  0  0  0  0  0
    9.6087  -12.1426   12.4769 N   0  0  0  0  0  0  0  0  0  0  0  0
    5.2929   -9.4145   10.6397 C   0  0  2  0  0  0  0  0  0  0  0  0
    4.2932   -9.5037   11.6785 N   0  0  0  0  0  0  0  0  0  0  0  0
    5.8427  -10.8605   10.3088 C   0  0  0  0  0  0  0  0  0  0  0  0
    6.9513  -10.7775    9.1664 C   0  0  2  0  0  0  0  0  0  0  0  0
    7.4550  -12.1386    8.8453 N   0  0  0  0  0  0  0  0  0  0  0  0
    8.1373   -9.8222    9.6540 C   0  0  2  0  0  0  0  0  0  0  0  0
    7.5363   -8.3877    9.9745 C   0  0  2  0  0  0  0  0  0  0  0  0
    8.5902   -7.5247   10.4079 O   0  0  0  0  0  0  0  0  0  0  0  0
    6.4370   -8.4855   11.1046 C   0  0  1  0  0  0  0  0  0  0  0  0
    5.8842   -7.1724   11.3702 O   0  0  0  0  0  0  0  0  0  0  0  0
    5.4375   -6.7251   12.6053 C   0  0  2  0  0  0  0  0  0  0  0  0
    5.9157   -5.2387   12.7700 C   0  0  2  0  0  0  0  0  0  0  0  0
    5.4238   -4.4685   11.7212 O   0  0  0  0  0  0  0  0  0  0  0  0
    7.4973   -5.1350   12.8656 C   0  0  1  0  0  0  0  0  0  0  0  0
    7.9299   -3.7134   13.0346 N   0  0  0  0  0  0  0  0  0  0  0  0
    7.9936   -6.0308   14.0831 C   0  0  2  0  0  0  0  0  0  0  0  0
    9.4183   -5.9600   14.2194 O   0  0  0  0  0  0  0  0  0  0  0  0
    7.5086   -7.5110   13.8329 C   0  0  2  0  0  0  0  0  0  0  0  0
    5.9932   -7.5679   13.6950 O   0  0  0  0  0  0  0  0  0  0  0  0
    7.9274   -8.4207   14.9632 C   0  0  0  0  0  0  0  0  0  0  0  0
    7.4142   -7.9944   16.2390 O   0  0  0  0  0  0  0  0  0  0  0  0
   11.0385  -10.0264    6.4657 O   0  0  0  0  0  0  0  0  0  0  0  0
   11.2347  -12.8700    6.4817 O   0  0  0  0  0  0  0  0  0  0  0  0
    3.1542  -10.3703   11.4823 C   0  0  0  0  0  0  0  0  0  0  0  0
    2.8012  -10.6896   10.3082 O   0  0  0  0  0  0  0  0  0  0  0  0
    2.3959  -10.8771   12.7474 C   0  0  2  0  0  0  0  0  0  0  0  0
    2.1041  -13.0442   10.1779 N   0  0  0  0  0  0  0  0  0  0  0  0
    1.4945  -12.1033   12.4046 C   0  0  0  0  0  0  0  0  0  0  0  0
    2.2408  -13.2126   11.6446 C   0  0  0  0  0  0  0  0  0  0  0  0
    1.6079  -10.0026   13.2294 O   0  0  0  0  0  0  0  0  0  0  0  0
  1  2  1  6  0  0  0
  1  3  1  0  0  0  0
  1  8  1  0  0  0  0
  3  4  1  0  0  0  0
  3 32  1  6  0  0  0
  4  5  1  0  0  0  0
  4 33  1  6  0  0  0
  5  6  1  6  0  0  0
  5  7  1  0  0  0  0
  7  8  1  0  0  0  0
  7  9  1  1  0  0  0
  9 10  1  0  0  0  0
 11 12  1  1  0  0  0
 11 13  1  0  0  0  0
 11 19  1  0  0  0  0
 12 34  1  0  0  0  0
 13 14  1  0  0  0  0
 14 15  1  1  0  0  0
 14 16  1  0  0  0  0
 16  2  1  6  0  0  0
 16 17  1  0  0  0  0
 17 18  1  1  0  0  0
 17 19  1  0  0  0  0
 19 20  1  6  0  0  0
 21 20  1  6  0  0  0
 21 22  1  0  0  0  0
 21 29  1  0  0  0  0
 22 23  1  6  0  0  0
 22 24  1  0  0  0  0
 24 25  1  1  0  0  0
 24 26  1  0  0  0  0
 26 27  1  6  0  0  0
 26 28  1  0  0  0  0
 28 29  1  0  0  0  0
 28 30  1  1  0  0  0
 30 31  1  0  0  0  0
 34 35  2  0  0  0  0
 36 34  1  6  0  0  0
 36 38  1  0  0  0  0
 36 40  1  0  0  0  0
 37 39  1  0  0  0  0
 38 39  1  0  0  0  0
M  END
>  <CHROM.1>
142.18711551,-127.73675650,-178.30107341,-55.65353357,92.94606021,138.96732350
58.59545966,-163.08077429,50.63857176,-92.56214454,7.18066487,-9.59634266
11.05983837,-0.82374783,0.30938231,0.55695687

>  <Name>
ligand

>  <RI>
0

>  <Rbt.Current_Directory>
/home/itssahil/PROJECTS/Mol_Feturizer/New_Systems/rnas/4P20

>  <Rbt.Executable>
rbdock ($Id: //depot/dev/client3/rdock/2013.1/src/exe/rbdock.cxx#4 $)

>  <Rbt.Library>
libRbt.so (2013.1, Build901 2013/11/27)

>  <Rbt.Parameter_File>
/export/apps/rDock/src/rDock_2013.1_src/data/scripts/dock_solv.prm

>  <Rbt.Receptor>
prm/blind_docking_20.prm

>  <SCORE>
17.3536

>  <SCORE.INTER>
1.17402

>  <SCORE.INTER.CONST>
1

>  <SCORE.INTER.POLAR>
0

>  <SCORE.INTER.ROT>
10

>  <SCORE.INTER.SOLV>
29.5275

>  <SCORE.INTER.VDW>
-19.3265

>  <SCORE.INTER.norm>
0.0293506

>  <SCORE.INTRA>
4.39628

>  <SCORE.INTRA.DIHEDRAL>
-2.02933

>  <SCORE.INTRA.DIHEDRAL.0>
28.2802

>  <SCORE.INTRA.POLAR>
0

>  <SCORE.INTRA.POLAR.0>
0

>  <SCORE.INTRA.REPUL>
0

>  <SCORE.INTRA.REPUL.0>
0

>  <SCORE.INTRA.SOLV>
6.44283

>  <SCORE.INTRA.SOLV.lig_0>
-101.981

>  <SCORE.INTRA.VDW>
2.18953

>  <SCORE.INTRA.VDW.0>
-5.72964

>  <SCORE.INTRA.norm>
0.109907

>  <SCORE.RESTR>
11.7833

>  <SCORE.RESTR.CAVITY>
11.7833

>  <SCORE.RESTR.norm>
0.294584

>  <SCORE.SYSTEM>
0

>  <SCORE.SYSTEM.CONST>
0

>  <SCORE.SYSTEM.DIHEDRAL>
0

>  <SCORE.SYSTEM.SOLV>
0

>  <SCORE.SYSTEM.norm>
0

>  <SCORE.heavy>
40

>  <SCORE.norm>
0.433841

>  <RMSD>
11.508

$$$$
ligand
 OpenBabel11021811503D
libRbt.so/2013.1/901 2013/11/27
 40 42  0  0  0  0  0  0  0  0999 V2000
   10.5216  -10.1627    9.1144 C   0  0  2  0  0  0  0  0  0  0  0  0
    9.1492   -9.9743    8.7348 O   0  0  0  0  0  0  0  0  0  0  0  0
   11.3277  -10.8541    7.9519 C   0  0  1  0  0  0  0  0  0  0  0  0
   10.8275  -12.3052    7.6932 C   0  0  2  0  0  0  0  0  0  0  0  0
   11.0176  -13.1156    9.0144 C   0  0  2  0  0  0  0  0  0  0  0  0
   10.5868  -14.4774    8.8034 O   0  0  0  0  0  0  0  0  0  0  0  0
   10.1579  -12.4218   10.1595 C   0  0  2  0  0  0  0  0  0  0  0  0
   10.6228  -11.0015   10.3512 O   0  0  0  0  0  0  0  0  0  0  0  0
   10.2930  -13.1299   11.5006 C   0  0  0  0  0  0  0  0  0  0  0  0
    9.5044  -12.4389   12.5689 N   0  0  0  0  0  0  0  0  0  0  0  0
    5.1417   -9.6636   10.5162 C   0  0  2  0  0  0  0  0  0  0  0  0
    4.0831   -9.7285   11.4967 N   0  0  0  0  0  0  0  0  0  0  0  0
    5.7638  -11.1039   10.3130 C   0  0  0  0  0  0  0  0  0  0  0  0
    6.9377  -11.0473    9.2361 C   0  0  2  0  0  0  0  0  0  0  0  0
    7.5101  -12.4042    9.0344 N   0  0  0  0  0  0  0  0  0  0  0  0
    8.0552  -10.0163    9.7312 C   0  0  2  0  0  0  0  0  0  0  0  0
    7.3832   -8.5901    9.9217 C   0  0  2  0  0  0  0  0  0  0  0  0
    8.3756   -7.6598   10.3609 O   0  0  0  0  0  0  0  0  0  0  0  0
    6.2198   -8.6619   10.9878 C   0  0  1  0  0  0  0  0  0  0  0  0
    5.6037   -7.3583   11.1345 O   0  0  0  0  0  0  0  0  0  0  0  0
    5.0580   -6.8564   12.3072 C   0  0  2  0  0  0  0  0  0  0  0  0
    5.1977   -5.2933   12.2616 C   0  0  2  0  0  0  0  0  0  0  0  0
    4.5594   -4.7979   11.1292 O   0  0  0  0  0  0  0  0  0  0  0  0
    6.7173   -4.8351   12.3104 C   0  0  1  0  0  0  0  0  0  0  0  0
    6.8266   -3.3439   12.2786 N   0  0  0  0  0  0  0  0  0  0  0  0
    7.3858   -5.4281   13.6267 C   0  0  2  0  0  0  0  0  0  0  0  0
    8.7591   -5.0305   13.7234 O   0  0  0  0  0  0  0  0  0  0  0  0
    7.2389   -6.9984   13.5869 C   0  0  2  0  0  0  0  0  0  0  0  0
    5.7741   -7.4025   13.4886 O   0  0  0  0  0  0  0  0  0  0  0  0
    7.8357   -7.6334   14.8202 C   0  0  0  0  0  0  0  0  0  0  0  0
    7.7127   -9.0678   14.8218 O   0  0  0  0  0  0  0  0  0  0  0  0
   11.1893  -10.0393    6.7515 O   0  0  0  0  0  0  0  0  0  0  0  0
   11.5712  -12.8632    6.6817 O   0  0  0  0  0  0  0  0  0  0  0  0
    3.0030  -10.6676   11.3007 C   0  0  0  0  0  0  0  0  0  0  0  0
    2.7421  -11.0925   10.1361 O   0  0  0  0  0  0  0  0  0  0  0  0
    2.1910  -11.1182   12.5537 C   0  0  2  0  0  0  0  0  0  0  0  0
    4.3039   -9.0207   15.0270 N   0  0  0  0  0  0  0  0  0  0  0  0
    2.9523  -10.7662   13.8690 C   0  0  0  0  0  0  0  0  0  0  0  0
    3.2449   -9.2639   14.0183 C   0  0  0  0  0  0  0  0  0  0  0  0
    2.0106  -12.3768   12.5940 O   0  0  0  0  0  0  0  0  0  0  0  0
  1  2  1  6  0  0  0
  1  3  1  0  0  0  0
  1  8  1  0  0  0  0
  3  4  1  0  0  0  0
  3 32  1  6  0  0  0
  4  5  1  0  0  0  0
  4 33  1  6  0  0  0
  5  6  1  6  0  0  0
  5  7  1  0  0  0  0
  7  8  1  0  0  0  0
  7  9  1  1  0  0  0
  9 10  1  0  0  0  0
 11 12  1  1  0  0  0
 11 13  1  0  0  0  0
 11 19  1  0  0  0  0
 12 34  1  0  0  0  0
 13 14  1  0  0  0  0
 14 15  1  1  0  0  0
 14 16  1  0  0  0  0
 16  2  1  6  0  0  0
 16 17  1  0  0  0  0
 17 18  1  1  0  0  0
 17 19  1  0  0  0  0
 19 20  1  6  0  0  0
 21 20  1  6  0  0  0
 21 22  1  0  0  0  0
 21 29  1  0  0  0  0
 22 23  1  6  0  0  0
 22 24  1  0  0  0  0
 24 25  1  1  0  0  0
 24 26  1  0  0  0  0
 26 27  1  6  0  0  0
 26 28  1  0  0  0  0
 28 29  1  0  0  0  0
 28 30  1  1  0  0  0
 30 31  1  0  0  0  0
 34 35  2  0  0  0  0
 36 34  1  6  0  0  0
 36 38  1  0  0  0  0
 36 40  1  0  0  0  0
 37 39  1  0  0  0  0
 38 39  1  0  0  0  0
M  END
>  <CHROM.1>
148.33819866,-127.84974744,178.51819226,-54.59136216,92.56512451,151.05262242
179.66922261,-15.87920214,58.75830284,-162.39241778,7.15638299,-9.50312039
11.13863732,-0.77556542,0.40912867,0.36016459

>  <Name>
ligand

>  <RI>
0

>  <Rbt.Current_Directory>
/home/itssahil/PROJECTS/Mol_Feturizer/New_Systems/rnas/4P20

>  <Rbt.Executable>
rbdock ($Id: //depot/dev/client3/rdock/2013.1/src/exe/rbdock.cxx#4 $)

>  <Rbt.Library>
libRbt.so (2013.1, Build901 2013/11/27)

>  <Rbt.Parameter_File>
/export/apps/rDock/src/rDock_2013.1_src/data/scripts/dock_solv.prm

>  <Rbt.Receptor>
prm/blind_docking_20.prm

>  <SCORE>
21.3259

>  <SCORE.INTER>
3.61418

>  <SCORE.INTER.CONST>
1

>  <SCORE.INTER.POLAR>
0

>  <SCORE.INTER.ROT>
10

>  <SCORE.INTER.SOLV>
22.4188

>  <SCORE.INTER.VDW>
-15.3301

>  <SCORE.INTER.norm>
0.0903545

>  <SCORE.INTRA>
2.05568

>  <SCORE.INTRA.DIHEDRAL>
-6.65078

>  <SCORE.INTRA.DIHEDRAL.0>
28.2802

>  <SCORE.INTRA.POLAR>
0

>  <SCORE.INTRA.POLAR.0>
0

>  <SCORE.INTRA.REPUL>
0.010916

>  <SCORE.INTRA.REPUL.0>
0

>  <SCORE.INTRA.SOLV>
7.75673

>  <SCORE.INTRA.SOLV.lig_0>
-101.981

>  <SCORE.INTRA.VDW>
1.44812

>  <SCORE.INTRA.VDW.0>
-5.72964

>  <SCORE.INTRA.norm>
0.0513919

>  <SCORE.RESTR>
15.6561

>  <SCORE.RESTR.CAVITY>
15.6561

>  <SCORE.RESTR.norm>
0.391402

>  <SCORE.SYSTEM>
0

>  <SCORE.SYSTEM.CONST>
0

>  <SCORE.SYSTEM.DIHEDRAL>
0

>  <SCORE.SYSTEM.SOLV>
0

>  <SCORE.SYSTEM.norm>
0

>  <SCORE.heavy>
40

>  <SCORE.norm>
0.533148

>  <RMSD>
11.529

$$$$
ligand
 OpenBabel11021811503D
libRbt.so/2013.1/901 2013/11/27
 40 42  0  0  0  0  0  0  0  0999 V2000
   10.6050   -9.9379    8.8596 C   0  0  2  0  0  0  0  0  0  0  0  0
    9.2296   -9.6207    8.5937 O   0  0  0  0  0  0  0  0  0  0  0  0
   11.1996  -10.8321    7.7080 C   0  0  1  0  0  0  0  0  0  0  0  0
   10.5154  -12.2294    7.6576 C   0  0  2  0  0  0  0  0  0  0  0  0
   10.7541  -12.9249    9.0351 C   0  0  2  0  0  0  0  0  0  0  0  0
   10.1536  -14.2378    9.0155 O   0  0  0  0  0  0  0  0  0  0  0  0
   10.1050  -12.0235   10.1742 C   0  0  2  0  0  0  0  0  0  0  0  0
   10.7437  -10.6589   10.1651 O   0  0  0  0  0  0  0  0  0  0  0  0
   10.3029  -12.6094   11.5655 C   0  0  0  0  0  0  0  0  0  0  0  0
    9.6183  -13.9330   11.7070 N   0  0  0  0  0  0  0  0  0  0  0  0
    5.3121   -9.5033   10.5860 C   0  0  2  0  0  0  0  0  0  0  0  0
    4.3033   -9.6610   11.6077 N   0  0  0  0  0  0  0  0  0  0  0  0
    5.9335  -10.9148   10.2335 C   0  0  0  0  0  0  0  0  0  0  0  0
    7.0529  -10.7560    9.1098 C   0  0  2  0  0  0  0  0  0  0  0  0
    7.6241  -12.0850    8.7680 N   0  0  0  0  0  0  0  0  0  0  0  0
    8.1860   -9.7574    9.6348 C   0  0  2  0  0  0  0  0  0  0  0  0
    7.5143   -8.3594    9.9760 C   0  0  2  0  0  0  0  0  0  0  0  0
    8.5205   -7.4580   10.4429 O   0  0  0  0  0  0  0  0  0  0  0  0
    6.4050   -8.5324   11.0872 C   0  0  1  0  0  0  0  0  0  0  0  0
    5.7877   -7.2523   11.3718 O   0  0  0  0  0  0  0  0  0  0  0  0
    5.3662   -6.8257   12.6228 C   0  0  2  0  0  0  0  0  0  0  0  0
    5.7977   -5.3243   12.7796 C   0  0  2  0  0  0  0  0  0  0  0  0
    5.2459   -4.5675   11.7511 O   0  0  0  0  0  0  0  0  0  0  0  0
    7.3771   -5.1662   12.8246 C   0  0  1  0  0  0  0  0  0  0  0  0
    7.7655   -3.7310   12.9868 N   0  0  0  0  0  0  0  0  0  0  0  0
    7.9433   -6.0490   14.0210 C   0  0  2  0  0  0  0  0  0  0  0  0
    9.3684   -5.9293   14.1115 O   0  0  0  0  0  0  0  0  0  0  0  0
    7.5018   -7.5441   13.7790 C   0  0  2  0  0  0  0  0  0  0  0  0
    5.9857   -7.6530   13.6898 O   0  0  0  0  0  0  0  0  0  0  0  0
    7.9883   -8.4431   14.8906 C   0  0  0  0  0  0  0  0  0  0  0  0
    7.5313   -8.0194   16.1884 O   0  0  0  0  0  0  0  0  0  0  0  0
   11.0254  -10.1268    6.4447 O   0  0  0  0  0  0  0  0  0  0  0  0
   11.0794  -12.9695    6.6468 O   0  0  0  0  0  0  0  0  0  0  0  0
    3.1697  -10.5177   11.3467 C   0  0  0  0  0  0  0  0  0  0  0  0
    2.8288  -10.7638   10.1516 O   0  0  0  0  0  0  0  0  0  0  0  0
    2.4018  -11.1056   12.5703 C   0  0  2  0  0  0  0  0  0  0  0  0
    3.4726  -13.9050   12.4775 N   0  0  0  0  0  0  0  0  0  0  0  0
    1.5538  -12.3468   12.1537 C   0  0  0  0  0  0  0  0  0  0  0  0
    2.3958  -13.4833   11.5499 C   0  0  0  0  0  0  0  0  0  0  0  0
    1.5718  -10.2813   13.0699 O   0  0  0  0  0  0  0  0  0  0  0  0
  1  2  1  6  0  0  0
  1  3  1  0  0  0  0
  1  8  1  0  0  0  0
  3  4  1  0  0  0  0
  3 32  1  6  0  0  0
  4  5  1  0  0  0  0
  4 33  1  6  0  0  0
  5  6  1  6  0  0  0
  5  7  1  0  0  0  0
  7  8  1  0  0  0  0
  7  9  1  1  0  0  0
  9 10  1  0  0  0  0
 11 12  1  1  0  0  0
 11 13  1  0  0  0  0
 11 19  1  0  0  0  0
 12 34  1  0  0  0  0
 13 14  1  0  0  0  0
 14 15  1  1  0  0  0
 14 16  1  0  0  0  0
 16  2  1  6  0  0  0
 16 17  1  0  0  0  0
 17 18  1  1  0  0  0
 17 19  1  0  0  0  0
 19 20  1  6  0  0  0
 21 20  1  6  0  0  0
 21 22  1  0  0  0  0
 21 29  1  0  0  0  0
 22 23  1  6  0  0  0
 22 24  1  0  0  0  0
 24 25  1  1  0  0  0
 24 26  1  0  0  0  0
 26 27  1  6  0  0  0
 26 28  1  0  0  0  0
 28 29  1  0  0  0  0
 28 30  1  1  0  0  0
 30 31  1  0  0  0  0
 34 35  2  0  0  0  0
 36 34  1  6  0  0  0
 36 38  1  0  0  0  0
 36 40  1  0  0  0  0
 37 39  1  0  0  0  0
 38 39  1  0  0  0  0
M  END
>  <CHROM.1>
133.00460561,-122.32351058,-63.19531496,-59.08846798,96.47552438,137.45668501
57.05209943,-160.77442122,59.09290269,56.00117244,7.19889352,-9.68990225
11.08309173,-0.82971095,0.36732018,0.47988784

>  <Name>
ligand

>  <RI>
0

>  <Rbt.Current_Directory>
/home/itssahil/PROJECTS/Mol_Feturizer/New_Systems/rnas/4P20

>  <Rbt.Executable>
rbdock ($Id: //depot/dev/client3/rdock/2013.1/src/exe/rbdock.cxx#4 $)

>  <Rbt.Library>
libRbt.so (2013.1, Build901 2013/11/27)

>  <Rbt.Parameter_File>
/export/apps/rDock/src/rDock_2013.1_src/data/scripts/dock_solv.prm

>  <Rbt.Receptor>
prm/blind_docking_20.prm

>  <SCORE>
13.513

>  <SCORE.INTER>
-1.91243

>  <SCORE.INTER.CONST>
1

>  <SCORE.INTER.POLAR>
0

>  <SCORE.INTER.ROT>
10

>  <SCORE.INTER.SOLV>
22.4784

>  <SCORE.INTER.VDW>
-19.0344

>  <SCORE.INTER.norm>
-0.0478109

>  <SCORE.INTRA>
3.31932

>  <SCORE.INTRA.DIHEDRAL>
-2.78295

>  <SCORE.INTRA.DIHEDRAL.0>
28.2802

>  <SCORE.INTRA.POLAR>
0

>  <SCORE.INTRA.POLAR.0>
0

>  <SCORE.INTRA.REPUL>
0

>  <SCORE.INTRA.REPUL.0>
0

>  <SCORE.INTRA.SOLV>
6.82769

>  <SCORE.INTRA.SOLV.lig_0>
-101.981

>  <SCORE.INTRA.VDW>
1.29696

>  <SCORE.INTRA.VDW.0>
-5.72964

>  <SCORE.INTRA.norm>
0.0829831

>  <SCORE.RESTR>
12.1061

>  <SCORE.RESTR.CAVITY>
12.1061

>  <SCORE.RESTR.norm>
0.302652

>  <SCORE.SYSTEM>
0

>  <SCORE.SYSTEM.CONST>
0

>  <SCORE.SYSTEM.DIHEDRAL>
0

>  <SCORE.SYSTEM.SOLV>
0

>  <SCORE.SYSTEM.norm>
0

>  <SCORE.heavy>
40

>  <SCORE.norm>
0.337824

>  <RMSD>
11.536

$$$$
ligand
 OpenBabel11021811503D
libRbt.so/2013.1/901 2013/11/27
 40 42  0  0  0  0  0  0  0  0999 V2000
   10.4857  -10.0864    9.2193 C   0  0  2  0  0  0  0  0  0  0  0  0
    9.1237   -9.8751    8.8150 O   0  0  0  0  0  0  0  0  0  0  0  0
   11.3087  -10.7632    8.0600 C   0  0  1  0  0  0  0  0  0  0  0  0
   10.7985  -12.2032    7.7616 C   0  0  2  0  0  0  0  0  0  0  0  0
   10.9521  -13.0420    9.0696 C   0  0  2  0  0  0  0  0  0  0  0  0
   10.5113  -14.3944    8.8221 O   0  0  0  0  0  0  0  0  0  0  0  0
   10.0760  -12.3619   10.2104 C   0  0  2  0  0  0  0  0  0  0  0  0
   10.5519  -10.9509   10.4406 O   0  0  0  0  0  0  0  0  0  0  0  0
   10.1752  -13.0982   11.5394 C   0  0  0  0  0  0  0  0  0  0  0  0
    9.3631  -12.4261   12.6021 N   0  0  0  0  0  0  0  0  0  0  0  0
    5.1326   -9.3173   10.5728 C   0  0  2  0  0  0  0  0  0  0  0  0
    4.0546   -9.3566   11.5334 N   0  0  0  0  0  0  0  0  0  0  0  0
    5.6161  -10.7907   10.2594 C   0  0  0  0  0  0  0  0  0  0  0  0
    6.8098  -10.7631    9.2034 C   0  0  2  0  0  0  0  0  0  0  0  0
    7.2518  -12.1490    8.8976 N   0  0  0  0  0  0  0  0  0  0  0  0
    8.0124   -9.8895    9.7930 C   0  0  2  0  0  0  0  0  0  0  0  0
    7.4781   -8.4243   10.0921 C   0  0  2  0  0  0  0  0  0  0  0  0
    8.5475   -7.6339   10.6164 O   0  0  0  0  0  0  0  0  0  0  0  0
    6.2936   -8.4671   11.1362 C   0  0  1  0  0  0  0  0  0  0  0  0
    5.8039   -7.1253   11.3822 O   0  0  0  0  0  0  0  0  0  0  0  0
    5.4359   -6.6204   12.6210 C   0  0  2  0  0  0  0  0  0  0  0  0
    5.9938   -5.1561   12.7184 C   0  0  2  0  0  0  0  0  0  0  0  0
    5.4939   -4.3926   11.6685 O   0  0  0  0  0  0  0  0  0  0  0  0
    7.5813   -5.1300   12.7417 C   0  0  1  0  0  0  0  0  0  0  0  0
    8.0908   -3.7278   12.8473 N   0  0  0  0  0  0  0  0  0  0  0  0
    8.0872   -6.0142   13.9638 C   0  0  2  0  0  0  0  0  0  0  0  0
    9.5184   -6.0118   14.0356 O   0  0  0  0  0  0  0  0  0  0  0  0
    7.5189   -7.4745   13.7811 C   0  0  2  0  0  0  0  0  0  0  0  0
    5.9979   -7.4584   13.7112 O   0  0  0  0  0  0  0  0  0  0  0  0
    7.9428   -8.3711   14.9199 C   0  0  0  0  0  0  0  0  0  0  0  0
    7.4889   -7.8953   16.2007 O   0  0  0  0  0  0  0  0  0  0  0  0
   11.2044   -9.9229    6.8738 O   0  0  0  0  0  0  0  0  0  0  0  0
   11.5574  -12.7489    6.7546 O   0  0  0  0  0  0  0  0  0  0  0  0
    3.0260  -10.3609   11.3916 C   0  0  0  0  0  0  0  0  0  0  0  0
    2.8144  -10.8896   10.2599 O   0  0  0  0  0  0  0  0  0  0  0  0
    2.2061  -10.7504   12.6599 C   0  0  2  0  0  0  0  0  0  0  0  0
    5.2536   -9.7652   13.7291 N   0  0  0  0  0  0  0  0  0  0  0  0
    3.1513  -11.0996   13.8507 C   0  0  0  0  0  0  0  0  0  0  0  0
    3.9295   -9.8856   14.3851 C   0  0  0  0  0  0  0  0  0  0  0  0
    1.4902  -11.7866   12.4814 O   0  0  0  0  0  0  0  0  0  0  0  0
  1  2  1  6  0  0  0
  1  3  1  0  0  0  0
  1  8  1  0  0  0  0
  3  4  1  0  0  0  0
  3 32  1  6  0  0  0
  4  5  1  0  0  0  0
  4 33  1  6  0  0  0
  5  6  1  6  0  0  0
  5  7  1  0  0  0  0
  7  8  1  0  0  0  0
  7  9  1  1  0  0  0
  9 10  1  0  0  0  0
 11 12  1  1  0  0  0
 11 13  1  0  0  0  0
 11 19  1  0  0  0  0
 12 34  1  0  0  0  0
 13 14  1  0  0  0  0
 14 15  1  1  0  0  0
 14 16  1  0  0  0  0
 16  2  1  6  0  0  0
 16 17  1  0  0  0  0
 17 18  1  1  0  0  0
 17 19  1  0  0  0  0
 19 20  1  6  0  0  0
 21 20  1  6  0  0  0
 21 22  1  0  0  0  0
 21 29  1  0  0  0  0
 22 23  1  6  0  0  0
 22 24  1  0  0  0  0
 24 25  1  1  0  0  0
 24 26  1  0  0  0  0
 26 27  1  6  0  0  0
 26 28  1  0  0  0  0
 28 29  1  0  0  0  0
 28 30  1  1  0  0  0
 30 31  1  0  0  0  0
 34 35  2  0  0  0  0
 36 34  1  6  0  0  0
 36 38  1  0  0  0  0
 36 40  1  0  0  0  0
 37 39  1  0  0  0  0
 38 39  1  0  0  0  0
M  END
>  <CHROM.1>
149.97756813,-134.63102243,178.96311626,-42.09023445,100.65433585,138.19865498
59.63251850,-51.07615896,67.94666078,-92.81776614,7.32342031,-9.46335039
11.28620285,-0.83182086,0.35528713,0.50051559

>  <Name>
ligand

>  <RI>
0

>  <Rbt.Current_Directory>
/home/itssahil/PROJECTS/Mol_Feturizer/New_Systems/rnas/4P20

>  <Rbt.Executable>
rbdock ($Id: //depot/dev/client3/rdock/2013.1/src/exe/rbdock.cxx#4 $)

>  <Rbt.Library>
libRbt.so (2013.1, Build901 2013/11/27)

>  <Rbt.Parameter_File>
/export/apps/rDock/src/rDock_2013.1_src/data/scripts/dock_solv.prm

>  <Rbt.Receptor>
prm/blind_docking_20.prm

>  <SCORE>
22.7449

>  <SCORE.INTER>
1.20393

>  <SCORE.INTER.CONST>
1

>  <SCORE.INTER.POLAR>
0

>  <SCORE.INTER.ROT>
10

>  <SCORE.INTER.SOLV>
19.8806

>  <SCORE.INTER.VDW>
-16.0909

>  <SCORE.INTER.norm>
0.0300983

>  <SCORE.INTRA>
6.1631

>  <SCORE.INTRA.DIHEDRAL>
-2.75642

>  <SCORE.INTRA.DIHEDRAL.0>
28.2802

>  <SCORE.INTRA.POLAR>
0

>  <SCORE.INTRA.POLAR.0>
0

>  <SCORE.INTRA.REPUL>
0

>  <SCORE.INTRA.REPUL.0>
0

>  <SCORE.INTRA.SOLV>
11.4898

>  <SCORE.INTRA.SOLV.lig_0>
-101.981

>  <SCORE.INTRA.VDW>
1.7964

>  <SCORE.INTRA.VDW.0>
-5.72964

>  <SCORE.INTRA.norm>
0.154078

>  <SCORE.RESTR>
15.3779

>  <SCORE.RESTR.CAVITY>
15.3779

>  <SCORE.RESTR.norm>
0.384448

>  <SCORE.SYSTEM>
0

>  <SCORE.SYSTEM.CONST>
0

>  <SCORE.SYSTEM.DIHEDRAL>
0

>  <SCORE.SYSTEM.SOLV>
0

>  <SCORE.SYSTEM.norm>
0

>  <SCORE.heavy>
40

>  <SCORE.norm>
0.568623

>  <RMSD>
11.536

$$$$
ligand
 OpenBabel11021811503D
libRbt.so/2013.1/901 2013/11/27
 40 42  0  0  0  0  0  0  0  0999 V2000
   10.5865   -9.9932    8.8365 C   0  0  2  0  0  0  0  0  0  0  0  0
    9.2003   -9.7367    8.5614 O   0  0  0  0  0  0  0  0  0  0  0  0
   11.2283  -10.8574    7.6873 C   0  0  1  0  0  0  0  0  0  0  0  0
   10.6071  -12.2835    7.6291 C   0  0  2  0  0  0  0  0  0  0  0  0
   10.8667  -12.9711    9.0068 C   0  0  2  0  0  0  0  0  0  0  0  0
   10.3253  -14.3092    8.9801 O   0  0  0  0  0  0  0  0  0  0  0  0
   10.1703  -12.1021   10.1431 C   0  0  2  0  0  0  0  0  0  0  0  0
   10.7478  -10.7104   10.1414 O   0  0  0  0  0  0  0  0  0  0  0  0
   10.3842  -12.6820   11.5346 C   0  0  0  0  0  0  0  0  0  0  0  0
   10.2377  -14.1716   11.5377 N   0  0  0  0  0  0  0  0  0  0  0  0
    5.2700   -9.7758   10.5315 C   0  0  2  0  0  0  0  0  0  0  0  0
    4.2646   -9.9616   11.5518 N   0  0  0  0  0  0  0  0  0  0  0  0
    5.9658  -11.1611   10.2157 C   0  0  0  0  0  0  0  0  0  0  0  0
    7.0821  -10.9709    9.0939 C   0  0  2  0  0  0  0  0  0  0  0  0
    7.7234  -12.2762    8.7867 N   0  0  0  0  0  0  0  0  0  0  0  0
    8.1589   -9.9027    9.6005 C   0  0  2  0  0  0  0  0  0  0  0  0
    7.4137   -8.5339    9.9050 C   0  0  2  0  0  0  0  0  0  0  0  0
    8.3691   -7.5707   10.3552 O   0  0  0  0  0  0  0  0  0  0  0  0
    6.3082   -8.7380   11.0147 C   0  0  1  0  0  0  0  0  0  0  0  0
    5.6238   -7.4853   11.2657 O   0  0  0  0  0  0  0  0  0  0  0  0
    4.9910   -7.1407   12.4513 C   0  0  2  0  0  0  0  0  0  0  0  0
    5.1130   -5.5841   12.6163 C   0  0  2  0  0  0  0  0  0  0  0  0
    4.5490   -4.9498   11.5142 O   0  0  0  0  0  0  0  0  0  0  0  0
    6.6193   -5.1300   12.8311 C   0  0  1  0  0  0  0  0  0  0  0  0
    6.7111   -3.6466   12.9984 N   0  0  0  0  0  0  0  0  0  0  0  0
    7.2019   -5.8847   14.1048 C   0  0  2  0  0  0  0  0  0  0  0  0
    8.5597   -5.4974   14.3489 O   0  0  0  0  0  0  0  0  0  0  0  0
    7.0787   -7.4374   13.8539 C   0  0  2  0  0  0  0  0  0  0  0  0
    5.6298   -7.8314   13.6009 O   0  0  0  0  0  0  0  0  0  0  0  0
    7.5960   -8.2234   15.0350 C   0  0  0  0  0  0  0  0  0  0  0  0
    9.0163   -8.0780   15.2205 O   0  0  0  0  0  0  0  0  0  0  0  0
   11.0319  -10.1574    6.4242 O   0  0  0  0  0  0  0  0  0  0  0  0
   11.2106  -12.9955    6.6208 O   0  0  0  0  0  0  0  0  0  0  0  0
    3.1434  -10.8312   11.2805 C   0  0  0  0  0  0  0  0  0  0  0  0
    2.8050  -11.0667   10.0826 O   0  0  0  0  0  0  0  0  0  0  0  0
    2.3854  -11.4462   12.4969 C   0  0  2  0  0  0  0  0  0  0  0  0
    2.5950  -15.2503   11.7214 N   0  0  0  0  0  0  0  0  0  0  0  0
    2.7473  -12.9529   12.6770 C   0  0  0  0  0  0  0  0  0  0  0  0
    2.4421  -13.8041   11.4331 C   0  0  0  0  0  0  0  0  0  0  0  0
    1.1219  -11.4170   12.3525 O   0  0  0  0  0  0  0  0  0  0  0  0
  1  2  1  6  0  0  0
  1  3  1  0  0  0  0
  1  8  1  0  0  0  0
  3  4  1  0  0  0  0
  3 32  1  6  0  0  0
  4  5  1  0  0  0  0
  4 33  1  6  0  0  0
  5  6  1  6  0  0  0
  5  7  1  0  0  0  0
  7  8  1  0  0  0  0
  7  9  1  1  0  0  0
  9 10  1  0  0  0  0
 11 12  1  1  0  0  0
 11 13  1  0  0  0  0
 11 19  1  0  0  0  0
 12 34  1  0  0  0  0
 13 14  1  0  0  0  0
 14 15  1  1  0  0  0
 14 16  1  0  0  0  0
 16  2  1  6  0  0  0
 16 17  1  0  0  0  0
 17 18  1  1  0  0  0
 17 19  1  0  0  0  0
 19 20  1  6  0  0  0
 21 20  1  6  0  0  0
 21 22  1  0  0  0  0
 21 29  1  0  0  0  0
 22 23  1  6  0  0  0
 22 24  1  0  0  0  0
 24 25  1  1  0  0  0
 24 26  1  0  0  0  0
 26 27  1  6  0  0  0
 26 28  1  0  0  0  0
 28 29  1  0  0  0  0
 28 30  1  1  0  0  0
 30 31  1  0  0  0  0
 34 35  2  0  0  0  0
 36 34  1  6  0  0  0
 36 38  1  0  0  0  0
 36 40  1  0  0  0  0
 37 39  1  0  0  0  0
 38 39  1  0  0  0  0
M  END
>  <CHROM.1>
133.92431294,-121.46797734,-41.85173095,-62.10630670,85.85611658,148.65137773
-66.97620000,-104.89338380,-57.75148439,-170.87317040,7.09870236,-9.87779062
10.99520639,-0.82885901,0.35396535,0.43304888

>  <Name>
ligand

>  <RI>
0

>  <Rbt.Current_Directory>
/home/itssahil/PROJECTS/Mol_Feturizer/New_Systems/rnas/4P20

>  <Rbt.Executable>
rbdock ($Id: //depot/dev/client3/rdock/2013.1/src/exe/rbdock.cxx#4 $)

>  <Rbt.Library>
libRbt.so (2013.1, Build901 2013/11/27)

>  <Rbt.Parameter_File>
/export/apps/rDock/src/rDock_2013.1_src/data/scripts/dock_solv.prm

>  <Rbt.Receptor>
prm/blind_docking_20.prm

>  <SCORE>
18.1353

>  <SCORE.INTER>
3.1364

>  <SCORE.INTER.CONST>
1

>  <SCORE.INTER.POLAR>
0

>  <SCORE.INTER.ROT>
10

>  <SCORE.INTER.SOLV>
25.2862

>  <SCORE.INTER.VDW>
-16.6045

>  <SCORE.INTER.norm>
0.0784101

>  <SCORE.INTRA>
2.46756

>  <SCORE.INTRA.DIHEDRAL>
-4.30832

>  <SCORE.INTRA.DIHEDRAL.0>
28.2802

>  <SCORE.INTRA.POLAR>
0

>  <SCORE.INTRA.POLAR.0>
0

>  <SCORE.INTRA.REPUL>
0

>  <SCORE.INTRA.REPUL.0>
0

>  <SCORE.INTRA.SOLV>
5.06965

>  <SCORE.INTRA.SOLV.lig_0>
-101.981

>  <SCORE.INTRA.VDW>
2.08689

>  <SCORE.INTRA.VDW.0>
-5.72964

>  <SCORE.INTRA.norm>
0.0616889

>  <SCORE.RESTR>
12.5313

>  <SCORE.RESTR.CAVITY>
12.5313

>  <SCORE.RESTR.norm>
0.313283

>  <SCORE.SYSTEM>
0

>  <SCORE.SYSTEM.CONST>
0

>  <SCORE.SYSTEM.DIHEDRAL>
0

>  <SCORE.SYSTEM.SOLV>
0

>  <SCORE.SYSTEM.norm>
0

>  <SCORE.heavy>
40

>  <SCORE.norm>
0.453382

>  <RMSD>
11.540

$$$$
ligand
 OpenBabel11021811503D
libRbt.so/2013.1/901 2013/11/27
 40 42  0  0  0  0  0  0  0  0999 V2000
    9.7127   -1.0893   25.8578 C   0  0  2  0  0  0  0  0  0  0  0  0
    8.8685   -1.0535   24.6963 O   0  0  0  0  0  0  0  0  0  0  0  0
   10.8302    0.0161   25.7643 C   0  0  1  0  0  0  0  0  0  0  0  0
   11.8193   -0.2677   24.5964 C   0  0  2  0  0  0  0  0  0  0  0  0
   12.4803   -1.6574   24.8610 C   0  0  2  0  0  0  0  0  0  0  0  0
   13.4258   -1.9427   23.8078 O   0  0  0  0  0  0  0  0  0  0  0  0
   11.3344   -2.7603   24.9059 C   0  0  2  0  0  0  0  0  0  0  0  0
   10.3591   -2.4323   26.0065 O   0  0  0  0  0  0  0  0  0  0  0  0
   11.8782   -4.1557   25.1805 C   0  0  0  0  0  0  0  0  0  0  0  0
   12.7080   -4.6565   24.0398 N   0  0  0  0  0  0  0  0  0  0  0  0
    5.6916   -3.5687   22.9902 C   0  0  2  0  0  0  0  0  0  0  0  0
    4.5134   -4.4008   22.9120 N   0  0  0  0  0  0  0  0  0  0  0  0
    6.7563   -4.2472   23.9436 C   0  0  0  0  0  0  0  0  0  0  0  0
    8.0613   -3.3373   24.0437 C   0  0  2  0  0  0  0  0  0  0  0  0
    9.0670   -3.9841   24.9267 N   0  0  0  0  0  0  0  0  0  0  0  0
    7.6531   -1.8924   24.5938 C   0  0  2  0  0  0  0  0  0  0  0  0
    6.5847   -1.2552   23.6067 C   0  0  2  0  0  0  0  0  0  0  0  0
    6.2159    0.0392   24.0882 O   0  0  0  0  0  0  0  0  0  0  0  0
    5.2994   -2.1688   23.5141 C   0  0  1  0  0  0  0  0  0  0  0  0
    4.3438   -1.5845   22.5943 O   0  0  0  0  0  0  0  0  0  0  0  0
    3.3272   -0.7075   22.9438 C   0  0  2  0  0  0  0  0  0  0  0  0
    2.0680   -1.5687   23.3153 C   0  0  2  0  0  0  0  0  0  0  0  0
    2.3866   -2.4446   24.3480 O   0  0  0  0  0  0  0  0  0  0  0  0
    1.4951   -2.3494   22.0568 C   0  0  1  0  0  0  0  0  0  0  0  0
    0.2899   -3.1525   22.4301 N   0  0  0  0  0  0  0  0  0  0  0  0
    1.1471   -1.2941   20.9183 C   0  0  2  0  0  0  0  0  0  0  0  0
    0.6125   -1.9506   19.7621 O   0  0  0  0  0  0  0  0  0  0  0  0
    2.4617   -0.4930   20.5734 C   0  0  2  0  0  0  0  0  0  0  0  0
    3.0129    0.2012   21.8114 O   0  0  0  0  0  0  0  0  0  0  0  0
    2.2035    0.5465   19.5088 C   0  0  0  0  0  0  0  0  0  0  0  0
    1.4812    0.0192   18.3805 O   0  0  0  0  0  0  0  0  0  0  0  0
   10.1812    1.3090   25.5878 O   0  0  0  0  0  0  0  0  0  0  0  0
   12.7769    0.7172   24.5693 O   0  0  0  0  0  0  0  0  0  0  0  0
    3.9347   -4.6759   21.6173 C   0  0  0  0  0  0  0  0  0  0  0  0
    4.1543   -3.8884   20.6495 O   0  0  0  0  0  0  0  0  0  0  0  0
    3.0466   -5.9496   21.4703 C   0  0  2  0  0  0  0  0  0  0  0  0
    5.4794   -7.1356   20.2846 N   0  0  0  0  0  0  0  0  0  0  0  0
    3.7541   -7.1976   22.0831 C   0  0  0  0  0  0  0  0  0  0  0  0
    5.2519   -7.2752   21.7430 C   0  0  0  0  0  0  0  0  0  0  0  0
    2.8205   -6.2517   20.2556 O   0  0  0  0  0  0  0  0  0  0  0  0
  1  2  1  6  0  0  0
  1  3  1  0  0  0  0
  1  8  1  0  0  0  0
  3  4  1  0  0  0  0
  3 32  1  6  0  0  0
  4  5  1  0  0  0  0
  4 33  1  1  0  0  0
  5  6  1  6  0  0  0
  5  7  1  0  0  0  0
  7  8  1  0  0  0  0
  7  9  1  1  0  0  0
  9 10  1  0  0  0  0
 11 12  1  1  0  0  0
 11 13  1  0  0  0  0
 11 19  1  0  0  0  0
 12 34  1  0  0  0  0
 13 14  1  0  0  0  0
 14 15  1  1  0  0  0
 14 16  1  0  0  0  0
 16  2  1  6  0  0  0
 16 17  1  0  0  0  0
 17 18  1  1  0  0  0
 17 19  1  0  0  0  0
 19 20  1  6  0  0  0
 21 20  1  6  0  0  0
 21 22  1  0  0  0  0
 21 29  1  0  0  0  0
 22 23  1  1  0  0  0
 22 24  1  0  0  0  0
 24 25  1  1  0  0  0
 24 26  1  0  0  0  0
 26 27  1  6  0  0  0
 26 28  1  0  0  0  0
 28 29  1  0  0  0  0
 28 30  1  6  0  0  0
 30 31  1  0  0  0  0
 34 35  2  0  0  0  0
 36 34  1  6  0  0  0
 36 38  1  0  0  0  0
 36 40  1  0  0  0  0
 37 39  1  0  0  0  0
 38 39  1  0  0  0  0
M  END
>  <CHROM.1>
-173.51166996,-85.33116946,-67.44519745,-133.35268851,148.61003265,-88.79551787
-48.30488430,-48.29291207,-42.33352571,-51.30491702,6.23809188,-2.46161004
23.01279750,0.15790767,-0.38205361,0.12246855

>  <Name>
ligand

>  <RI>
0

>  <Rbt.Current_Directory>
/home/itssahil/PROJECTS/Mol_Feturizer/New_Systems/rnas/4P20

>  <Rbt.Executable>
rbdock ($Id: //depot/dev/client3/rdock/2013.1/src/exe/rbdock.cxx#4 $)

>  <Rbt.Library>
libRbt.so (2013.1, Build901 2013/11/27)

>  <Rbt.Parameter_File>
/export/apps/rDock/src/rDock_2013.1_src/data/scripts/dock_solv.prm

>  <Rbt.Receptor>
prm/blind_docking_60.prm

>  <SCORE>
36.3619

>  <SCORE.INTER>
15.1569

>  <SCORE.INTER.CONST>
1

>  <SCORE.INTER.POLAR>
0

>  <SCORE.INTER.ROT>
10

>  <SCORE.INTER.SOLV>
27.2677

>  <SCORE.INTER.VDW>
-9.25134

>  <SCORE.INTER.norm>
0.378922

>  <SCORE.INTRA>
2.16665

>  <SCORE.INTRA.DIHEDRAL>
-14.1101

>  <SCORE.INTRA.DIHEDRAL.0>
28.2802

>  <SCORE.INTRA.POLAR>
0

>  <SCORE.INTRA.POLAR.0>
0

>  <SCORE.INTRA.REPUL>
0

>  <SCORE.INTRA.REPUL.0>
0

>  <SCORE.INTRA.SOLV>
9.9941

>  <SCORE.INTRA.SOLV.lig_0>
-101.981

>  <SCORE.INTRA.VDW>
4.22464

>  <SCORE.INTRA.VDW.0>
-5.72964

>  <SCORE.INTRA.norm>
0.0541662

>  <SCORE.RESTR>
19.0384

>  <SCORE.RESTR.CAVITY>
19.0384

>  <SCORE.RESTR.norm>
0.475961

>  <SCORE.SYSTEM>
0

>  <SCORE.SYSTEM.CONST>
0

>  <SCORE.SYSTEM.DIHEDRAL>
0

>  <SCORE.SYSTEM.SOLV>
0

>  <SCORE.SYSTEM.norm>
0

>  <SCORE.heavy>
40

>  <SCORE.norm>
0.909049

>  <RMSD>
11.550

$$$$
ligand
 OpenBabel11021811503D
libRbt.so/2013.1/901 2013/11/27
 40 42  0  0  0  0  0  0  0  0999 V2000
   10.9853  -10.3653    8.2192 C   0  0  2  0  0  0  0  0  0  0  0  0
   10.0090   -9.4201    8.6844 O   0  0  0  0  0  0  0  0  0  0  0  0
   10.4685  -11.1054    6.9290 C   0  0  1  0  0  0  0  0  0  0  0  0
    9.2298  -11.9960    7.2379 C   0  0  2  0  0  0  0  0  0  0  0  0
    9.6574  -13.0494    8.3083 C   0  0  2  0  0  0  0  0  0  0  0  0
    8.5372  -13.9119    8.6010 O   0  0  0  0  0  0  0  0  0  0  0  0
   10.1320  -12.2760    9.6153 C   0  0  2  0  0  0  0  0  0  0  0  0
   11.2942  -11.3784    9.2782 O   0  0  0  0  0  0  0  0  0  0  0  0
   10.5911  -13.2205   10.7177 C   0  0  0  0  0  0  0  0  0  0  0  0
   10.4577  -12.5929   12.0701 N   0  0  0  0  0  0  0  0  0  0  0  0
    6.4090   -9.2132   11.1999 C   0  0  2  0  0  0  0  0  0  0  0  0
    5.2718   -9.6417   11.9806 N   0  0  0  0  0  0  0  0  0  0  0  0
    6.2583   -9.7360    9.7143 C   0  0  0  0  0  0  0  0  0  0  0  0
    7.5094   -9.2745    8.8411 C   0  0  2  0  0  0  0  0  0  0  0  0
    7.3582   -9.7525    7.4417 N   0  0  0  0  0  0  0  0  0  0  0  0
    8.8499   -9.8408    9.5038 C   0  0  2  0  0  0  0  0  0  0  0  0
    8.9546   -9.2910   10.9900 C   0  0  2  0  0  0  0  0  0  0  0  0
   10.1525   -9.7890   11.5902 O   0  0  0  0  0  0  0  0  0  0  0  0
    7.7071   -9.7522   11.8422 C   0  0  1  0  0  0  0  0  0  0  0  0
    7.8072   -9.2253   13.1886 O   0  0  0  0  0  0  0  0  0  0  0  0
    8.2814   -7.9652   13.5235 C   0  0  2  0  0  0  0  0  0  0  0  0
    7.7422   -7.6239   14.9580 C   0  0  2  0  0  0  0  0  0  0  0  0
    8.1560   -8.5994   15.8593 O   0  0  0  0  0  0  0  0  0  0  0  0
    6.1625   -7.4632   14.9715 C   0  0  1  0  0  0  0  0  0  0  0  0
    5.6719   -7.1263   16.3436 N   0  0  0  0  0  0  0  0  0  0  0  0
    5.7567   -6.3335   13.9273 C   0  0  2  0  0  0  0  0  0  0  0  0
    4.3368   -6.1413   13.9117 O   0  0  0  0  0  0  0  0  0  0  0  0
    6.2992   -6.7593   12.5084 C   0  0  2  0  0  0  0  0  0  0  0  0
    7.8089   -6.9548   12.5426 O   0  0  0  0  0  0  0  0  0  0  0  0
    5.9680   -5.7205   11.4636 C   0  0  0  0  0  0  0  0  0  0  0  0
    4.6262   -5.2140   11.5891 O   0  0  0  0  0  0  0  0  0  0  0  0
   10.1437  -10.1008    5.9244 O   0  0  0  0  0  0  0  0  0  0  0  0
    8.8302  -12.6255    6.0840 O   0  0  0  0  0  0  0  0  0  0  0  0
    3.9941   -9.8044   11.3265 C   0  0  0  0  0  0  0  0  0  0  0  0
    3.7567   -9.1861   10.2465 O   0  0  0  0  0  0  0  0  0  0  0  0
    2.9461  -10.7461   11.9954 C   0  0  2  0  0  0  0  0  0  0  0  0
    1.5283  -13.4230   12.5918 N   0  0  0  0  0  0  0  0  0  0  0  0
    2.3282  -11.7257   10.9504 C   0  0  0  0  0  0  0  0  0  0  0  0
    2.3741  -13.1971   11.3953 C   0  0  0  0  0  0  0  0  0  0  0  0
    1.9601  -10.1108   12.4875 O   0  0  0  0  0  0  0  0  0  0  0  0
  1  2  1  1  0  0  0
  1  3  1  0  0  0  0
  1  8  1  0  0  0  0
  3  4  1  0  0  0  0
  3 32  1  6  0  0  0
  4  5  1  0  0  0  0
  4 33  1  6  0  0  0
  5  6  1  1  0  0  0
  5  7  1  0  0  0  0
  7  8  1  0  0  0  0
  7  9  1  1  0  0  0
  9 10  1  0  0  0  0
 11 12  1  1  0  0  0
 11 13  1  0  0  0  0
 11 19  1  0  0  0  0
 12 34  1  0  0  0  0
 13 14  1  0  0  0  0
 14 15  1  6  0  0  0
 14 16  1  0  0  0  0
 16  2  1  6  0  0  0
 16 17  1  0  0  0  0
 17 18  1  1  0  0  0
 17 19  1  0  0  0  0
 19 20  1  1  0  0  0
 21 20  1  6  0  0  0
 21 22  1  0  0  0  0
 21 29  1  0  0  0  0
 22 23  1  1  0  0  0
 22 24  1  0  0  0  0
 24 25  1  1  0  0  0
 24 26  1  0  0  0  0
 26 27  1  6  0  0  0
 26 28  1  0  0  0  0
 28 29  1  0  0  0  0
 28 30  1  6  0  0  0
 30 31  1  0  0  0  0
 34 35  2  0  0  0  0
 36 34  1  6  0  0  0
 36 38  1  0  0  0  0
 36 40  1  0  0  0  0
 37 39  1  0  0  0  0
 38 39  1  0  0  0  0
M  END
>  <CHROM.1>
81.23519334,-128.17940849,-155.00293448,-30.66885184,-81.61442407,159.78708149
-42.58992753,-132.44064213,129.03882218,64.98205734,7.16207136,-9.78147617
11.00440434,-0.87315628,0.24877970,0.77562681

>  <Name>
ligand

>  <RI>
0

>  <Rbt.Current_Directory>
/home/itssahil/PROJECTS/Mol_Feturizer/New_Systems/rnas/4P20

>  <Rbt.Executable>
rbdock ($Id: //depot/dev/client3/rdock/2013.1/src/exe/rbdock.cxx#4 $)

>  <Rbt.Library>
libRbt.so (2013.1, Build901 2013/11/27)

>  <Rbt.Parameter_File>
/export/apps/rDock/src/rDock_2013.1_src/data/scripts/dock_solv.prm

>  <Rbt.Receptor>
prm/blind_docking_20.prm

>  <SCORE>
21.7386

>  <SCORE.INTER>
0.828153

>  <SCORE.INTER.CONST>
1

>  <SCORE.INTER.POLAR>
0

>  <SCORE.INTER.ROT>
10

>  <SCORE.INTER.SOLV>
25.6585

>  <SCORE.INTER.VDW>
-18.2674

>  <SCORE.INTER.norm>
0.0207038

>  <SCORE.INTRA>
6.54219

>  <SCORE.INTRA.DIHEDRAL>
-4.69771

>  <SCORE.INTRA.DIHEDRAL.0>
28.2802

>  <SCORE.INTRA.POLAR>
0

>  <SCORE.INTRA.POLAR.0>
0

>  <SCORE.INTRA.REPUL>
0

>  <SCORE.INTRA.REPUL.0>
0

>  <SCORE.INTRA.SOLV>
7.07085

>  <SCORE.INTRA.SOLV.lig_0>
-101.981

>  <SCORE.INTRA.VDW>
5.35562

>  <SCORE.INTRA.VDW.0>
-5.72964

>  <SCORE.INTRA.norm>
0.163555

>  <SCORE.RESTR>
14.3683

>  <SCORE.RESTR.CAVITY>
14.3683

>  <SCORE.RESTR.norm>
0.359207

>  <SCORE.SYSTEM>
0

>  <SCORE.SYSTEM.CONST>
0

>  <SCORE.SYSTEM.DIHEDRAL>
0

>  <SCORE.SYSTEM.SOLV>
0

>  <SCORE.SYSTEM.norm>
0

>  <SCORE.heavy>
40

>  <SCORE.norm>
0.543465

>  <RMSD>
11.584

$$$$
ligand
 OpenBabel11021811503D
libRbt.so/2013.1/901 2013/11/27
 40 42  0  0  0  0  0  0  0  0999 V2000
   10.5770  -10.0502    8.7285 C   0  0  2  0  0  0  0  0  0  0  0  0
    9.1902   -9.7629    8.4896 O   0  0  0  0  0  0  0  0  0  0  0  0
   11.1694  -10.9281    7.5633 C   0  0  1  0  0  0  0  0  0  0  0  0
   10.5154  -12.3400    7.5216 C   0  0  2  0  0  0  0  0  0  0  0  0
   10.7954  -13.0337    8.8922 C   0  0  2  0  0  0  0  0  0  0  0  0
   10.2239  -14.3595    8.8800 O   0  0  0  0  0  0  0  0  0  0  0  0
   10.1483  -12.1498   10.0461 C   0  0  2  0  0  0  0  0  0  0  0  0
   10.7563  -10.7713   10.0290 O   0  0  0  0  0  0  0  0  0  0  0  0
   10.3854  -12.7347   11.4317 C   0  0  0  0  0  0  0  0  0  0  0  0
    9.6157  -14.0028   11.6320 N   0  0  0  0  0  0  0  0  0  0  0  0
    5.3694   -9.4129   10.6365 C   0  0  2  0  0  0  0  0  0  0  0  0
    4.3983   -9.4979   11.7023 N   0  0  0  0  0  0  0  0  0  0  0  0
    5.9102  -10.8603   10.2967 C   0  0  0  0  0  0  0  0  0  0  0  0
    6.9874  -10.7819    9.1243 C   0  0  2  0  0  0  0  0  0  0  0  0
    7.4824  -12.1443    8.7951 N   0  0  0  0  0  0  0  0  0  0  0  0
    8.1861   -9.8247    9.5757 C   0  0  2  0  0  0  0  0  0  0  0  0
    7.5939   -8.3888    9.9066 C   0  0  2  0  0  0  0  0  0  0  0  0
    8.6591   -7.5242   10.3078 O   0  0  0  0  0  0  0  0  0  0  0  0
    6.5256   -8.4821   11.0664 C   0  0  1  0  0  0  0  0  0  0  0  0
    5.9801   -7.1679   11.3417 O   0  0  0  0  0  0  0  0  0  0  0  0
    5.4480   -6.7586   12.5559 C   0  0  2  0  0  0  0  0  0  0  0  0
    5.8009   -5.2395   12.7377 C   0  0  2  0  0  0  0  0  0  0  0  0
    5.2950   -4.5089   11.6675 O   0  0  0  0  0  0  0  0  0  0  0  0
    7.3641   -5.0124   12.8997 C   0  0  1  0  0  0  0  0  0  0  0  0
    7.6765   -3.5615   13.0840 N   0  0  0  0  0  0  0  0  0  0  0  0
    7.8772   -5.8682   14.1389 C   0  0  2  0  0  0  0  0  0  0  0  0
    9.2850   -5.6862   14.3350 O   0  0  0  0  0  0  0  0  0  0  0  0
    7.5206   -7.3815   13.8713 C   0  0  2  0  0  0  0  0  0  0  0  0
    6.0215   -7.5567   13.6697 O   0  0  0  0  0  0  0  0  0  0  0  0
    7.9612   -8.2570   15.0201 C   0  0  0  0  0  0  0  0  0  0  0  0
    7.7986   -9.6606   14.7436 O   0  0  0  0  0  0  0  0  0  0  0  0
   10.9558  -10.2235    6.3055 O   0  0  0  0  0  0  0  0  0  0  0  0
   11.0764  -13.0649    6.4981 O   0  0  0  0  0  0  0  0  0  0  0  0
    3.2352  -10.3362   11.5253 C   0  0  0  0  0  0  0  0  0  0  0  0
    2.8416  -10.6279   10.3570 O   0  0  0  0  0  0  0  0  0  0  0  0
    2.5025  -10.8477   12.8036 C   0  0  2  0  0  0  0  0  0  0  0  0
    2.3300  -14.4742   11.4385 N   0  0  0  0  0  0  0  0  0  0  0  0
    2.4411  -12.4063   12.8264 C   0  0  0  0  0  0  0  0  0  0  0  0
    2.0487  -13.0189   11.4715 C   0  0  0  0  0  0  0  0  0  0  0  0
    1.2921  -10.4609   12.8624 O   0  0  0  0  0  0  0  0  0  0  0  0
  1  2  1  6  0  0  0
  1  3  1  0  0  0  0
  1  8  1  0  0  0  0
  3  4  1  0  0  0  0
  3 32  1  6  0  0  0
  4  5  1  0  0  0  0
  4 33  1  6  0  0  0
  5  6  1  6  0  0  0
  5  7  1  0  0  0  0
  7  8  1  0  0  0  0
  7  9  1  1  0  0  0
  9 10  1  0  0  0  0
 11 12  1  1  0  0  0
 11 13  1  0  0  0  0
 11 19  1  0  0  0  0
 12 34  1  0  0  0  0
 13 14  1  0  0  0  0
 14 15  1  1  0  0  0
 14 16  1  0  0  0  0
 16  2  1  6  0  0  0
 16 17  1  0  0  0  0
 17 18  1  1  0  0  0
 17 19  1  0  0  0  0
 19 20  1  6  0  0  0
 21 20  1  6  0  0  0
 21 22  1  0  0  0  0
 21 29  1  0  0  0  0
 22 23  1  6  0  0  0
 22 24  1  0  0  0  0
 24 25  1  1  0  0  0
 24 26  1  0  0  0  0
 26 27  1  6  0  0  0
 26 28  1  0  0  0  0
 28 29  1  0  0  0  0
 28 30  1  1  0  0  0
 30 31  1  0  0  0  0
 34 35  2  0  0  0  0
 36 34  1  6  0  0  0
 36 38  1  0  0  0  0
 36 40  1  0  0  0  0
 37 39  1  0  0  0  0
 38 39  1  0  0  0  0
M  END
>  <CHROM.1>
137.78921691,-126.60644408,-69.19545820,-57.38093693,86.35326193,145.44431449
-173.00320595,-122.39814995,-44.37210946,165.72806033,7.19926556,-9.72545041
11.01207399,-0.84597954,0.37136765,0.45821275

>  <Name>
ligand

>  <RI>
0

>  <Rbt.Current_Directory>
/home/itssahil/PROJECTS/Mol_Feturizer/New_Systems/rnas/4P20

>  <Rbt.Executable>
rbdock ($Id: //depot/dev/client3/rdock/2013.1/src/exe/rbdock.cxx#4 $)

>  <Rbt.Library>
libRbt.so (2013.1, Build901 2013/11/27)

>  <Rbt.Parameter_File>
/export/apps/rDock/src/rDock_2013.1_src/data/scripts/dock_solv.prm

>  <Rbt.Receptor>
prm/blind_docking_20.prm

>  <SCORE>
18.5299

>  <SCORE.INTER>
2.41324

>  <SCORE.INTER.CONST>
1

>  <SCORE.INTER.POLAR>
0

>  <SCORE.INTER.ROT>
10

>  <SCORE.INTER.SOLV>
28.3124

>  <SCORE.INTER.VDW>
-18.0953

>  <SCORE.INTER.norm>
0.060331

>  <SCORE.INTRA>
2.30121

>  <SCORE.INTRA.DIHEDRAL>
-3.70343

>  <SCORE.INTRA.DIHEDRAL.0>
28.2802

>  <SCORE.INTRA.POLAR>
0

>  <SCORE.INTRA.POLAR.0>
0

>  <SCORE.INTRA.REPUL>
0

>  <SCORE.INTRA.REPUL.0>
0

>  <SCORE.INTRA.SOLV>
4.11439

>  <SCORE.INTRA.SOLV.lig_0>
-101.981

>  <SCORE.INTRA.VDW>
2.09573

>  <SCORE.INTRA.VDW.0>
-5.72964

>  <SCORE.INTRA.norm>
0.0575302

>  <SCORE.RESTR>
13.8155

>  <SCORE.RESTR.CAVITY>
13.8155

>  <SCORE.RESTR.norm>
0.345387

>  <SCORE.SYSTEM>
0

>  <SCORE.SYSTEM.CONST>
0

>  <SCORE.SYSTEM.DIHEDRAL>
0

>  <SCORE.SYSTEM.SOLV>
0

>  <SCORE.SYSTEM.norm>
0

>  <SCORE.heavy>
40

>  <SCORE.norm>
0.463248

>  <RMSD>
11.594

$$$$
ligand
 OpenBabel11021811513D
libRbt.so/2013.1/901 2013/11/27
 40 42  0  0  0  0  0  0  0  0999 V2000
   11.2153   -2.9970   25.3618 C   0  0  2  0  0  0  0  0  0  0  0  0
   10.5643   -2.1525   24.3995 O   0  0  0  0  0  0  0  0  0  0  0  0
   12.6248   -2.4114   25.7487 C   0  0  1  0  0  0  0  0  0  0  0  0
   13.6038   -2.4301   24.5386 C   0  0  2  0  0  0  0  0  0  0  0  0
   13.7630   -3.9141   24.0796 C   0  0  2  0  0  0  0  0  0  0  0  0
   14.6872   -3.9728   22.9719 O   0  0  0  0  0  0  0  0  0  0  0  0
   12.3331   -4.4659   23.6526 C   0  0  2  0  0  0  0  0  0  0  0  0
   11.3887   -4.3841   24.8238 O   0  0  0  0  0  0  0  0  0  0  0  0
   12.3788   -5.9206   23.2055 C   0  0  0  0  0  0  0  0  0  0  0  0
   12.8968   -6.8129   24.2899 N   0  0  0  0  0  0  0  0  0  0  0  0
    6.3153   -3.0732   25.0540 C   0  0  2  0  0  0  0  0  0  0  0  0
    4.8788   -3.0297   24.9092 N   0  0  0  0  0  0  0  0  0  0  0  0
    6.8481   -1.6447   25.4764 C   0  0  0  0  0  0  0  0  0  0  0  0
    8.4339   -1.6759   25.6354 C   0  0  2  0  0  0  0  0  0  0  0  0
    8.9311   -0.3373   26.0483 N   0  0  0  0  0  0  0  0  0  0  0  0
    9.0914   -2.1354   24.2521 C   0  0  2  0  0  0  0  0  0  0  0  0
    8.5255   -3.5695   23.8712 C   0  0  2  0  0  0  0  0  0  0  0  0
    9.1106   -3.9910   22.6370 O   0  0  0  0  0  0  0  0  0  0  0  0
    6.9536   -3.5246   23.7210 C   0  0  1  0  0  0  0  0  0  0  0  0
    6.4513   -4.8443   23.3941 O   0  0  0  0  0  0  0  0  0  0  0  0
    5.1214   -5.2345   23.4571 C   0  0  2  0  0  0  0  0  0  0  0  0
    4.9779   -6.5578   22.6244 C   0  0  2  0  0  0  0  0  0  0  0  0
    5.8363   -7.5274   23.1324 O   0  0  0  0  0  0  0  0  0  0  0  0
    5.2403   -6.3126   21.0776 C   0  0  1  0  0  0  0  0  0  0  0  0
    5.0863   -7.5822   20.3022 N   0  0  0  0  0  0  0  0  0  0  0  0
    4.2268   -5.2012   20.5592 C   0  0  2  0  0  0  0  0  0  0  0  0
    4.4158   -4.9528   19.1606 O   0  0  0  0  0  0  0  0  0  0  0  0
    4.4515   -3.8950   21.4149 C   0  0  2  0  0  0  0  0  0  0  0  0
    4.2425   -4.1763   22.8967 O   0  0  0  0  0  0  0  0  0  0  0  0
    3.5059   -2.7963   20.9915 C   0  0  0  0  0  0  0  0  0  0  0  0
    2.1273   -3.2109   21.0115 O   0  0  0  0  0  0  0  0  0  0  0  0
   12.4366   -1.0518   26.2387 O   0  0  0  0  0  0  0  0  0  0  0  0
   14.8172   -1.9218   24.9347 O   0  0  0  0  0  0  0  0  0  0  0  0
    4.0737   -3.9981   25.6171 C   0  0  0  0  0  0  0  0  0  0  0  0
    4.5872   -5.0972   25.9819 O   0  0  0  0  0  0  0  0  0  0  0  0
    2.5820   -3.6407   25.8993 C   0  0  2  0  0  0  0  0  0  0  0  0
    1.1168   -1.0540   23.4808 N   0  0  0  0  0  0  0  0  0  0  0  0
    2.2431   -2.2087   25.3816 C   0  0  0  0  0  0  0  0  0  0  0  0
    2.0491   -2.1436   23.8574 C   0  0  0  0  0  0  0  0  0  0  0  0
    2.3086   -3.6245   27.1415 O   0  0  0  0  0  0  0  0  0  0  0  0
  1  2  1  6  0  0  0
  1  3  1  0  0  0  0
  1  8  1  0  0  0  0
  3  4  1  0  0  0  0
  3 32  1  6  0  0  0
  4  5  1  0  0  0  0
  4 33  1  1  0  0  0
  5  6  1  6  0  0  0
  5  7  1  0  0  0  0
  7  8  1  0  0  0  0
  7  9  1  1  0  0  0
  9 10  1  0  0  0  0
 11 12  1  6  0  0  0
 11 13  1  0  0  0  0
 11 19  1  0  0  0  0
 12 34  1  0  0  0  0
 13 14  1  0  0  0  0
 14 15  1  6  0  0  0
 14 16  1  0  0  0  0
 16  2  1  1  0  0  0
 16 17  1  0  0  0  0
 17 18  1  6  0  0  0
 17 19  1  0  0  0  0
 19 20  1  1  0  0  0
 21 20  1  6  0  0  0
 21 22  1  0  0  0  0
 21 29  1  0  0  0  0
 22 23  1  1  0  0  0
 22 24  1  0  0  0  0
 24 25  1  6  0  0  0
 24 26  1  0  0  0  0
 26 27  1  6  0  0  0
 26 28  1  0  0  0  0
 28 29  1  0  0  0  0
 28 30  1  6  0  0  0
 30 31  1  0  0  0  0
 34 35  2  0  0  0  0
 36 34  1  1  0  0  0
 36 38  1  0  0  0  0
 36 40  1  0  0  0  0
 37 39  1  0  0  0  0
 38 39  1  0  0  0  0
M  END
>  <CHROM.1>
-155.69081391,60.57673253,59.24004458,-127.33847792,46.11521330,163.16928707
53.90883415,-2.20296995,77.16824353,151.49012400,7.42674442,-3.74178848,23.82133834
0.15356253,-0.05421431,0.81018901

>  <Name>
ligand

>  <RI>
0

>  <Rbt.Current_Directory>
/home/itssahil/PROJECTS/Mol_Feturizer/New_Systems/rnas/4P20

>  <Rbt.Executable>
rbdock ($Id: //depot/dev/client3/rdock/2013.1/src/exe/rbdock.cxx#4 $)

>  <Rbt.Library>
libRbt.so (2013.1, Build901 2013/11/27)

>  <Rbt.Parameter_File>
/export/apps/rDock/src/rDock_2013.1_src/data/scripts/dock_solv.prm

>  <Rbt.Receptor>
prm/blind_docking_60.prm

>  <SCORE>
78.7186

>  <SCORE.INTER>
67.4743

>  <SCORE.INTER.CONST>
1

>  <SCORE.INTER.POLAR>
0

>  <SCORE.INTER.ROT>
10

>  <SCORE.INTER.SOLV>
31.183

>  <SCORE.INTER.VDW>
24.3219

>  <SCORE.INTER.norm>
1.68686

>  <SCORE.INTRA>
-1.27206

>  <SCORE.INTRA.DIHEDRAL>
-16.2698

>  <SCORE.INTRA.DIHEDRAL.0>
28.2802

>  <SCORE.INTRA.POLAR>
0

>  <SCORE.INTRA.POLAR.0>
0

>  <SCORE.INTRA.REPUL>
0

>  <SCORE.INTRA.REPUL.0>
0

>  <SCORE.INTRA.SOLV>
4.03555

>  <SCORE.INTRA.SOLV.lig_0>
-101.981

>  <SCORE.INTRA.VDW>
4.84505

>  <SCORE.INTRA.VDW.0>
-5.72964

>  <SCORE.INTRA.norm>
-0.0318016

>  <SCORE.RESTR>
12.5164

>  <SCORE.RESTR.CAVITY>
12.5164

>  <SCORE.RESTR.norm>
0.31291

>  <SCORE.SYSTEM>
0

>  <SCORE.SYSTEM.CONST>
0

>  <SCORE.SYSTEM.DIHEDRAL>
0

>  <SCORE.SYSTEM.SOLV>
0

>  <SCORE.SYSTEM.norm>
0

>  <SCORE.heavy>
40

>  <SCORE.norm>
1.96797

>  <RMSD>
11.595

$$$$
ligand
 OpenBabel11021811503D
libRbt.so/2013.1/901 2013/11/27
 40 42  0  0  0  0  0  0  0  0999 V2000
   10.5664   -9.9888    8.7660 C   0  0  2  0  0  0  0  0  0  0  0  0
    9.1868   -9.6948    8.4952 O   0  0  0  0  0  0  0  0  0  0  0  0
   11.1795  -10.8746    7.6177 C   0  0  1  0  0  0  0  0  0  0  0  0
   10.5187  -12.2830    7.5668 C   0  0  2  0  0  0  0  0  0  0  0  0
   10.7643  -12.9728    8.9460 C   0  0  2  0  0  0  0  0  0  0  0  0
   10.1858  -14.2954    8.9261 O   0  0  0  0  0  0  0  0  0  0  0  0
   10.0967  -12.0808   10.0818 C   0  0  2  0  0  0  0  0  0  0  0  0
   10.7126  -10.7058   10.0730 O   0  0  0  0  0  0  0  0  0  0  0  0
   10.2996  -12.6616   11.4745 C   0  0  0  0  0  0  0  0  0  0  0  0
    9.6151  -13.9843   11.6235 N   0  0  0  0  0  0  0  0  0  0  0  0
    5.2589   -9.6593   10.4700 C   0  0  2  0  0  0  0  0  0  0  0  0
    4.2465   -9.8507   11.4823 N   0  0  0  0  0  0  0  0  0  0  0  0
    5.8937  -11.0564   10.0856 C   0  0  0  0  0  0  0  0  0  0  0  0
    7.0171  -10.8604    8.9719 C   0  0  2  0  0  0  0  0  0  0  0  0
    7.6011  -12.1758    8.6000 N   0  0  0  0  0  0  0  0  0  0  0  0
    8.1394   -9.8659    9.5273 C   0  0  2  0  0  0  0  0  0  0  0  0
    7.4543   -8.4825    9.8997 C   0  0  2  0  0  0  0  0  0  0  0  0
    8.4508   -7.5847   10.3941 O   0  0  0  0  0  0  0  0  0  0  0  0
    6.3412   -8.6923   11.0007 C   0  0  1  0  0  0  0  0  0  0  0  0
    5.7119   -7.4248   11.3139 O   0  0  0  0  0  0  0  0  0  0  0  0
    5.2158   -7.0613   12.5575 C   0  0  2  0  0  0  0  0  0  0  0  0
    5.3832   -5.5064   12.6964 C   0  0  2  0  0  0  0  0  0  0  0  0
    4.7164   -4.8678   11.6559 O   0  0  0  0  0  0  0  0  0  0  0  0
    6.9119   -5.0798   12.7457 C   0  0  1  0  0  0  0  0  0  0  0  0
    7.0482   -3.5975   12.8907 N   0  0  0  0  0  0  0  0  0  0  0  0
    7.6133   -5.8381   13.9558 C   0  0  2  0  0  0  0  0  0  0  0  0
    8.9964   -5.4752   14.0506 O   0  0  0  0  0  0  0  0  0  0  0  0
    7.4356   -7.3895   13.7317 C   0  0  2  0  0  0  0  0  0  0  0  0
    5.9610   -7.7573   13.6377 O   0  0  0  0  0  0  0  0  0  0  0  0
    8.0617   -8.1784   14.8569 C   0  0  0  0  0  0  0  0  0  0  0  0
    7.4287   -7.9338   16.1266 O   0  0  0  0  0  0  0  0  0  0  0  0
   10.9979  -10.1738    6.3528 O   0  0  0  0  0  0  0  0  0  0  0  0
   11.0983  -13.0150    6.5589 O   0  0  0  0  0  0  0  0  0  0  0  0
    3.1311  -10.7248   11.2013 C   0  0  0  0  0  0  0  0  0  0  0  0
    2.8029  -10.9601   10.0006 O   0  0  0  0  0  0  0  0  0  0  0  0
    2.3665  -11.3446   12.4111 C   0  0  2  0  0  0  0  0  0  0  0  0
    3.4725   -8.9357   13.6571 N   0  0  0  0  0  0  0  0  0  0  0  0
    3.2829  -11.4214   13.6712 C   0  0  0  0  0  0  0  0  0  0  0  0
    3.2728  -10.1321   14.5095 C   0  0  0  0  0  0  0  0  0  0  0  0
    1.9910  -12.5402   12.1929 O   0  0  0  0  0  0  0  0  0  0  0  0
  1  2  1  6  0  0  0
  1  3  1  0  0  0  0
  1  8  1  0  0  0  0
  3  4  1  0  0  0  0
  3 32  1  6  0  0  0
  4  5  1  0  0  0  0
  4 33  1  6  0  0  0
  5  6  1  6  0  0  0
  5  7  1  0  0  0  0
  7  8  1  0  0  0  0
  7  9  1  1  0  0  0
  9 10  1  0  0  0  0
 11 12  1  1  0  0  0
 11 13  1  0  0  0  0
 11 19  1  0  0  0  0
 12 34  1  0  0  0  0
 13 14  1  0  0  0  0
 14 15  1  1  0  0  0
 14 16  1  0  0  0  0
 16  2  1  6  0  0  0
 16 17  1  0  0  0  0
 17 18  1  1  0  0  0
 17 19  1  0  0  0  0
 19 20  1  6  0  0  0
 21 20  1  6  0  0  0
 21 22  1  0  0  0  0
 21 29  1  0  0  0  0
 22 23  1  6  0  0  0
 22 24  1  0  0  0  0
 24 25  1  1  0  0  0
 24 26  1  0  0  0  0
 26 27  1  6  0  0  0
 26 28  1  0  0  0  0
 28 29  1  0  0  0  0
 28 30  1  1  0  0  0
 30 31  1  0  0  0  0
 34 35  2  0  0  0  0
 36 34  1  6  0  0  0
 36 38  1  0  0  0  0
 36 40  1  0  0  0  0
 37 39  1  0  0  0  0
 38 39  1  0  0  0  0
M  END
>  <CHROM.1>
132.11489010,-123.23910216,-64.25733488,-58.22016089,92.80221942,148.72303137
63.60965609,-24.87843485,86.75305495,-48.42969150,7.17937830,-9.57620314
11.11482877,-0.84989442,0.40382905,0.48306522

>  <Name>
ligand

>  <RI>
0

>  <Rbt.Current_Directory>
/home/itssahil/PROJECTS/Mol_Feturizer/New_Systems/rnas/4P20

>  <Rbt.Executable>
rbdock ($Id: //depot/dev/client3/rdock/2013.1/src/exe/rbdock.cxx#4 $)

>  <Rbt.Library>
libRbt.so (2013.1, Build901 2013/11/27)

>  <Rbt.Parameter_File>
/export/apps/rDock/src/rDock_2013.1_src/data/scripts/dock_solv.prm

>  <Rbt.Receptor>
prm/blind_docking_20.prm

>  <SCORE>
26.4156

>  <SCORE.INTER>
6.77135

>  <SCORE.INTER.CONST>
1

>  <SCORE.INTER.POLAR>
0

>  <SCORE.INTER.ROT>
10

>  <SCORE.INTER.SOLV>
23.5482

>  <SCORE.INTER.VDW>
-13.6018

>  <SCORE.INTER.norm>
0.169284

>  <SCORE.INTRA>
6.05141

>  <SCORE.INTRA.DIHEDRAL>
-2.08768

>  <SCORE.INTRA.DIHEDRAL.0>
28.2802

>  <SCORE.INTRA.POLAR>
0

>  <SCORE.INTRA.POLAR.0>
0

>  <SCORE.INTRA.REPUL>
0

>  <SCORE.INTRA.REPUL.0>
0

>  <SCORE.INTRA.SOLV>
11.7602

>  <SCORE.INTRA.SOLV.lig_0>
-101.981

>  <SCORE.INTRA.VDW>
1.21516

>  <SCORE.INTRA.VDW.0>
-5.72964

>  <SCORE.INTRA.norm>
0.151285

>  <SCORE.RESTR>
13.5929

>  <SCORE.RESTR.CAVITY>
13.5929

>  <SCORE.RESTR.norm>
0.339822

>  <SCORE.SYSTEM>
0

>  <SCORE.SYSTEM.CONST>
0

>  <SCORE.SYSTEM.DIHEDRAL>
0

>  <SCORE.SYSTEM.SOLV>
0

>  <SCORE.SYSTEM.norm>
0

>  <SCORE.heavy>
40

>  <SCORE.norm>
0.660391

>  <RMSD>
11.600

$$$$
ligand
 OpenBabel11021811503D
libRbt.so/2013.1/901 2013/11/27
 40 42  0  0  0  0  0  0  0  0999 V2000
   10.9848  -10.0710    8.4437 C   0  0  2  0  0  0  0  0  0  0  0  0
    9.7484   -9.3499    8.5630 O   0  0  0  0  0  0  0  0  0  0  0  0
   11.0374  -10.8585    7.0812 C   0  0  1  0  0  0  0  0  0  0  0  0
    9.9628  -11.9834    7.0289 C   0  0  2  0  0  0  0  0  0  0  0  0
   10.2447  -12.9647    8.2104 C   0  0  2  0  0  0  0  0  0  0  0  0
    9.2800  -14.0384    8.1776 O   0  0  0  0  0  0  0  0  0  0  0  0
   10.1412  -12.1534    9.5752 C   0  0  2  0  0  0  0  0  0  0  0  0
   11.1516  -11.0357    9.5773 O   0  0  0  0  0  0  0  0  0  0  0  0
   10.4214  -13.0227   10.7934 C   0  0  0  0  0  0  0  0  0  0  0  0
    9.3401  -14.0356   11.0062 N   0  0  0  0  0  0  0  0  0  0  0  0
    6.2165   -9.3782   11.1811 C   0  0  2  0  0  0  0  0  0  0  0  0
    5.1282   -9.8800   11.9875 N   0  0  0  0  0  0  0  0  0  0  0  0
    6.0527   -9.8906    9.6934 C   0  0  0  0  0  0  0  0  0  0  0  0
    7.2502   -9.3483    8.7917 C   0  0  2  0  0  0  0  0  0  0  0  0
    7.0859   -9.8170    7.3907 N   0  0  0  0  0  0  0  0  0  0  0  0
    8.6390   -9.8456    9.4087 C   0  0  2  0  0  0  0  0  0  0  0  0
    8.7553   -9.3089   10.8988 C   0  0  2  0  0  0  0  0  0  0  0  0
    9.9961   -9.7454   11.4582 O   0  0  0  0  0  0  0  0  0  0  0  0
    7.5608   -9.8505   11.7793 C   0  0  1  0  0  0  0  0  0  0  0  0
    7.6699   -9.3352   13.1295 O   0  0  0  0  0  0  0  0  0  0  0  0
    8.2214   -8.1109   13.4786 C   0  0  2  0  0  0  0  0  0  0  0  0
    7.6942   -7.7473   14.9121 C   0  0  2  0  0  0  0  0  0  0  0  0
    8.0376   -8.7546   15.8079 O   0  0  0  0  0  0  0  0  0  0  0  0
    6.1280   -7.4856   14.9158 C   0  0  1  0  0  0  0  0  0  0  0  0
    5.6495   -7.1290   16.2872 N   0  0  0  0  0  0  0  0  0  0  0  0
    5.8035   -6.3238   13.8784 C   0  0  2  0  0  0  0  0  0  0  0  0
    4.3989   -6.0407   13.8544 O   0  0  0  0  0  0  0  0  0  0  0  0
    6.3283   -6.7720   12.4598 C   0  0  2  0  0  0  0  0  0  0  0  0
    7.8221   -7.0642   12.5030 O   0  0  0  0  0  0  0  0  0  0  0  0
    6.0724   -5.7056   11.4216 C   0  0  0  0  0  0  0  0  0  0  0  0
    4.6932   -5.2954   11.3745 O   0  0  0  0  0  0  0  0  0  0  0  0
   10.8411   -9.9070    5.9949 O   0  0  0  0  0  0  0  0  0  0  0  0
   10.0618  -12.6437    5.8281 O   0  0  0  0  0  0  0  0  0  0  0  0
    3.8031   -9.9421   11.4156 C   0  0  0  0  0  0  0  0  0  0  0  0
    3.5039   -9.1940   10.4380 O   0  0  0  0  0  0  0  0  0  0  0  0
    2.7831  -10.9412   12.0433 C   0  0  2  0  0  0  0  0  0  0  0  0
    1.6526  -13.7437   12.5539 N   0  0  0  0  0  0  0  0  0  0  0  0
    2.2110  -11.9087   10.9615 C   0  0  0  0  0  0  0  0  0  0  0  0
    2.3922  -13.3938   11.3176 C   0  0  0  0  0  0  0  0  0  0  0  0
    1.7701  -10.3572   12.5441 O   0  0  0  0  0  0  0  0  0  0  0  0
  1  2  1  1  0  0  0
  1  3  1  0  0  0  0
  1  8  1  0  0  0  0
  3  4  1  0  0  0  0
  3 32  1  6  0  0  0
  4  5  1  0  0  0  0
  4 33  1  6  0  0  0
  5  6  1  1  0  0  0
  5  7  1  0  0  0  0
  7  8  1  0  0  0  0
  7  9  1  1  0  0  0
  9 10  1  0  0  0  0
 11 12  1  1  0  0  0
 11 13  1  0  0  0  0
 11 19  1  0  0  0  0
 12 34  1  0  0  0  0
 13 14  1  0  0  0  0
 14 15  1  6  0  0  0
 14 16  1  0  0  0  0
 16  2  1  6  0  0  0
 16 17  1  0  0  0  0
 17 18  1  1  0  0  0
 17 19  1  0  0  0  0
 19 20  1  1  0  0  0
 21 20  1  6  0  0  0
 21 22  1  0  0  0  0
 21 29  1  0  0  0  0
 22 23  1  1  0  0  0
 22 24  1  0  0  0  0
 24 25  1  1  0  0  0
 24 26  1  0  0  0  0
 26 27  1  6  0  0  0
 26 28  1  0  0  0  0
 28 29  1  0  0  0  0
 28 30  1  6  0  0  0
 30 31  1  0  0  0  0
 34 35  2  0  0  0  0
 36 34  1  6  0  0  0
 36 38  1  0  0  0  0
 36 40  1  0  0  0  0
 37 39  1  0  0  0  0
 38 39  1  0  0  0  0
M  END
>  <CHROM.1>
102.12528877,-150.52458039,-68.36282048,-38.67733854,-89.25922351,160.56343946
-53.66623058,-124.71869955,125.10217223,62.74518306,7.17254115,-9.84824016
10.94350704,-0.79657204,0.34579440,0.68631805

>  <Name>
ligand

>  <RI>
0

>  <Rbt.Current_Directory>
/home/itssahil/PROJECTS/Mol_Feturizer/New_Systems/rnas/4P20

>  <Rbt.Executable>
rbdock ($Id: //depot/dev/client3/rdock/2013.1/src/exe/rbdock.cxx#4 $)

>  <Rbt.Library>
libRbt.so (2013.1, Build901 2013/11/27)

>  <Rbt.Parameter_File>
/export/apps/rDock/src/rDock_2013.1_src/data/scripts/dock_solv.prm

>  <Rbt.Receptor>
prm/blind_docking_20.prm

>  <SCORE>
19.8513

>  <SCORE.INTER>
2.49819

>  <SCORE.INTER.CONST>
1

>  <SCORE.INTER.POLAR>
0

>  <SCORE.INTER.ROT>
10

>  <SCORE.INTER.SOLV>
24.7947

>  <SCORE.INTER.VDW>
-16.8661

>  <SCORE.INTER.norm>
0.0624549

>  <SCORE.INTRA>
2.87677

>  <SCORE.INTRA.DIHEDRAL>
-5.65465

>  <SCORE.INTRA.DIHEDRAL.0>
28.2802

>  <SCORE.INTRA.POLAR>
0

>  <SCORE.INTRA.POLAR.0>
0

>  <SCORE.INTRA.REPUL>
0

>  <SCORE.INTRA.REPUL.0>
0

>  <SCORE.INTRA.SOLV>
3.12399

>  <SCORE.INTRA.SOLV.lig_0>
-101.981

>  <SCORE.INTRA.VDW>
4.1421

>  <SCORE.INTRA.VDW.0>
-5.72964

>  <SCORE.INTRA.norm>
0.0719192

>  <SCORE.RESTR>
14.4763

>  <SCORE.RESTR.CAVITY>
14.4763

>  <SCORE.RESTR.norm>
0.361908

>  <SCORE.SYSTEM>
0

>  <SCORE.SYSTEM.CONST>
0

>  <SCORE.SYSTEM.DIHEDRAL>
0

>  <SCORE.SYSTEM.SOLV>
0

>  <SCORE.SYSTEM.norm>
0

>  <SCORE.heavy>
40

>  <SCORE.norm>
0.496282

>  <RMSD>
11.620

$$$$
ligand
 OpenBabel11021811503D
libRbt.so/2013.1/901 2013/11/27
 40 42  0  0  0  0  0  0  0  0999 V2000
   10.5636   -9.9798    8.8405 C   0  0  2  0  0  0  0  0  0  0  0  0
    9.1853   -9.7016    8.5473 O   0  0  0  0  0  0  0  0  0  0  0  0
   11.2078  -10.8511    7.6981 C   0  0  1  0  0  0  0  0  0  0  0  0
   10.5659  -12.2674    7.6277 C   0  0  2  0  0  0  0  0  0  0  0  0
   10.7962  -12.9621    9.0070 C   0  0  2  0  0  0  0  0  0  0  0  0
   10.2349  -14.2918    8.9696 O   0  0  0  0  0  0  0  0  0  0  0  0
   10.0976  -12.0852   10.1360 C   0  0  2  0  0  0  0  0  0  0  0  0
   10.6962  -10.7026   10.1458 O   0  0  0  0  0  0  0  0  0  0  0  0
   10.2836  -12.6716   11.5288 C   0  0  0  0  0  0  0  0  0  0  0  0
    9.5600  -13.9734   11.6782 N   0  0  0  0  0  0  0  0  0  0  0  0
    5.2772   -9.4113   10.5403 C   0  0  2  0  0  0  0  0  0  0  0  0
    4.2614   -9.5285   11.5605 N   0  0  0  0  0  0  0  0  0  0  0  0
    5.8297  -10.8483   10.1761 C   0  0  0  0  0  0  0  0  0  0  0  0
    6.9560  -10.7345    9.0538 C   0  0  2  0  0  0  0  0  0  0  0  0
    7.4624  -12.0867    8.7010 N   0  0  0  0  0  0  0  0  0  0  0  0
    8.1359   -9.7963    9.5872 C   0  0  2  0  0  0  0  0  0  0  0  0
    7.5324   -8.3703    9.9399 C   0  0  2  0  0  0  0  0  0  0  0  0
    8.5808   -7.5225   10.4144 O   0  0  0  0  0  0  0  0  0  0  0  0
    6.4155   -8.4987   11.0496 C   0  0  1  0  0  0  0  0  0  0  0  0
    5.8608   -7.1926   11.3447 O   0  0  0  0  0  0  0  0  0  0  0  0
    5.4230   -6.7704   12.5917 C   0  0  2  0  0  0  0  0  0  0  0  0
    5.8517   -5.2692   12.7589 C   0  0  2  0  0  0  0  0  0  0  0  0
    5.3125   -4.5093   11.7260 O   0  0  0  0  0  0  0  0  0  0  0  0
    7.4302   -5.1103   12.8246 C   0  0  1  0  0  0  0  0  0  0  0  0
    7.8157   -3.6755   12.9964 N   0  0  0  0  0  0  0  0  0  0  0  0
    7.9816   -5.9967   14.0252 C   0  0  2  0  0  0  0  0  0  0  0  0
    9.4054   -5.8766   14.1343 O   0  0  0  0  0  0  0  0  0  0  0  0
    7.5442   -7.4914   13.7726 C   0  0  2  0  0  0  0  0  0  0  0  0
    6.0294   -7.6008   13.6637 O   0  0  0  0  0  0  0  0  0  0  0  0
    8.0170   -8.3937   14.8874 C   0  0  0  0  0  0  0  0  0  0  0  0
    7.5004   -8.0055   16.1739 O   0  0  0  0  0  0  0  0  0  0  0  0
   11.0394  -10.1452    6.4342 O   0  0  0  0  0  0  0  0  0  0  0  0
   11.1722  -12.9861    6.6259 O   0  0  0  0  0  0  0  0  0  0  0  0
    3.1984  -10.4906   11.3836 C   0  0  0  0  0  0  0  0  0  0  0  0
    2.9011  -10.8931   10.2198 O   0  0  0  0  0  0  0  0  0  0  0  0
    2.4498  -10.9937   12.6560 C   0  0  2  0  0  0  0  0  0  0  0  0
    4.5083   -9.9188   14.5299 N   0  0  0  0  0  0  0  0  0  0  0  0
    2.1794   -9.8189   13.6461 C   0  0  0  0  0  0  0  0  0  0  0  0
    3.4460   -9.0256   14.0084 C   0  0  0  0  0  0  0  0  0  0  0  0
    3.1254  -11.8446   13.3176 O   0  0  0  0  0  0  0  0  0  0  0  0
  1  2  1  6  0  0  0
  1  3  1  0  0  0  0
  1  8  1  0  0  0  0
  3  4  1  0  0  0  0
  3 32  1  6  0  0  0
  4  5  1  0  0  0  0
  4 33  1  6  0  0  0
  5  6  1  6  0  0  0
  5  7  1  0  0  0  0
  7  8  1  0  0  0  0
  7  9  1  1  0  0  0
  9 10  1  0  0  0  0
 11 12  1  1  0  0  0
 11 13  1  0  0  0  0
 11 19  1  0  0  0  0
 12 34  1  0  0  0  0
 13 14  1  0  0  0  0
 14 15  1  1  0  0  0
 14 16  1  0  0  0  0
 16  2  1  6  0  0  0
 16 17  1  0  0  0  0
 17 18  1  1  0  0  0
 17 19  1  0  0  0  0
 19 20  1  6  0  0  0
 21 20  1  6  0  0  0
 21 22  1  0  0  0  0
 21 29  1  0  0  0  0
 22 23  1  6  0  0  0
 22 24  1  0  0  0  0
 24 25  1  1  0  0  0
 24 26  1  0  0  0  0
 26 27  1  6  0  0  0
 26 28  1  0  0  0  0
 28 29  1  0  0  0  0
 28 30  1  1  0  0  0
 30 31  1  0  0  0  0
 34 35  2  0  0  0  0
 36 34  1  6  0  0  0
 36 38  1  0  0  0  0
 36 40  1  0  0  0  0
 37 39  1  0  0  0  0
 38 39  1  0  0  0  0
M  END
>  <CHROM.1>
136.68093425,-127.62816684,-66.91317915,-49.21438330,94.45067176,141.02477689
59.34971162,41.35792540,-53.42737328,-54.45089010,7.31870809,-9.45615031
11.22108943,-0.86099317,0.41630105,0.48624372

>  <Name>
ligand

>  <RI>
0

>  <Rbt.Current_Directory>
/home/itssahil/PROJECTS/Mol_Feturizer/New_Systems/rnas/4P20

>  <Rbt.Executable>
rbdock ($Id: //depot/dev/client3/rdock/2013.1/src/exe/rbdock.cxx#4 $)

>  <Rbt.Library>
libRbt.so (2013.1, Build901 2013/11/27)

>  <Rbt.Parameter_File>
/export/apps/rDock/src/rDock_2013.1_src/data/scripts/dock_solv.prm

>  <Rbt.Receptor>
prm/blind_docking_20.prm

>  <SCORE>
22.3506

>  <SCORE.INTER>
1.19198

>  <SCORE.INTER.CONST>
1

>  <SCORE.INTER.POLAR>
0

>  <SCORE.INTER.ROT>
10

>  <SCORE.INTER.SOLV>
19.5081

>  <SCORE.INTER.VDW>
-15.9747

>  <SCORE.INTER.norm>
0.0297995

>  <SCORE.INTRA>
5.99481

>  <SCORE.INTRA.DIHEDRAL>
-4.0958

>  <SCORE.INTRA.DIHEDRAL.0>
28.2802

>  <SCORE.INTRA.POLAR>
0

>  <SCORE.INTRA.POLAR.0>
0

>  <SCORE.INTRA.REPUL>
0

>  <SCORE.INTRA.REPUL.0>
0

>  <SCORE.INTRA.SOLV>
11.1255

>  <SCORE.INTRA.SOLV.lig_0>
-101.981

>  <SCORE.INTRA.VDW>
2.47996

>  <SCORE.INTRA.VDW.0>
-5.72964

>  <SCORE.INTRA.norm>
0.14987

>  <SCORE.RESTR>
15.1638

>  <SCORE.RESTR.CAVITY>
15.1638

>  <SCORE.RESTR.norm>
0.379095

>  <SCORE.SYSTEM>
0

>  <SCORE.SYSTEM.CONST>
0

>  <SCORE.SYSTEM.DIHEDRAL>
0

>  <SCORE.SYSTEM.SOLV>
0

>  <SCORE.SYSTEM.norm>
0

>  <SCORE.heavy>
40

>  <SCORE.norm>
0.558765

>  <RMSD>
11.623

$$$$
ligand
 OpenBabel11021811503D
libRbt.so/2013.1/901 2013/11/27
 40 42  0  0  0  0  0  0  0  0999 V2000
   10.7769  -10.0418    8.5842 C   0  0  2  0  0  0  0  0  0  0  0  0
    9.4026   -9.6510    8.4375 O   0  0  0  0  0  0  0  0  0  0  0  0
   11.2255  -10.9514    7.3798 C   0  0  1  0  0  0  0  0  0  0  0  0
   10.4673  -12.3108    7.3761 C   0  0  2  0  0  0  0  0  0  0  0  0
   10.7835  -13.0345    8.7231 C   0  0  2  0  0  0  0  0  0  0  0  0
   10.1156  -14.3144    8.7437 O   0  0  0  0  0  0  0  0  0  0  0  0
   10.2800  -12.1148    9.9199 C   0  0  2  0  0  0  0  0  0  0  0  0
   10.9863  -10.7849    9.8678 O   0  0  0  0  0  0  0  0  0  0  0  0
   10.5626  -12.7271   11.2849 C   0  0  0  0  0  0  0  0  0  0  0  0
    9.7677  -13.9767   11.5020 N   0  0  0  0  0  0  0  0  0  0  0  0
    5.5404   -9.9818   10.5121 C   0  0  2  0  0  0  0  0  0  0  0  0
    4.5770  -10.2631   11.5509 N   0  0  0  0  0  0  0  0  0  0  0  0
    6.2980  -11.3136   10.1182 C   0  0  0  0  0  0  0  0  0  0  0  0
    7.3689  -11.0178    8.9752 C   0  0  2  0  0  0  0  0  0  0  0  0
    8.0681  -12.2731    8.5948 N   0  0  0  0  0  0  0  0  0  0  0  0
    8.4029   -9.9153    9.4969 C   0  0  2  0  0  0  0  0  0  0  0  0
    7.5964   -8.6021    9.8801 C   0  0  2  0  0  0  0  0  0  0  0  0
    8.5130   -7.6084   10.3444 O   0  0  0  0  0  0  0  0  0  0  0  0
    6.5367   -8.9107   11.0102 C   0  0  1  0  0  0  0  0  0  0  0  0
    5.7955   -7.7079   11.3334 O   0  0  0  0  0  0  0  0  0  0  0  0
    5.1814   -7.4467   12.5497 C   0  0  2  0  0  0  0  0  0  0  0  0
    5.2257   -5.8938   12.7770 C   0  0  2  0  0  0  0  0  0  0  0  0
    4.5959   -5.2465   11.7189 O   0  0  0  0  0  0  0  0  0  0  0  0
    6.7117   -5.3679   12.9686 C   0  0  1  0  0  0  0  0  0  0  0  0
    6.7297   -3.8897   13.1958 N   0  0  0  0  0  0  0  0  0  0  0  0
    7.3716   -6.1411   14.1924 C   0  0  2  0  0  0  0  0  0  0  0  0
    8.7138   -5.6911   14.4145 O   0  0  0  0  0  0  0  0  0  0  0  0
    7.3233   -7.6867   13.8795 C   0  0  2  0  0  0  0  0  0  0  0  0
    5.8904   -8.1480   13.6507 O   0  0  0  0  0  0  0  0  0  0  0  0
    7.9171   -8.4910   15.0113 C   0  0  0  0  0  0  0  0  0  0  0  0
    8.0746   -9.8834   14.6809 O   0  0  0  0  0  0  0  0  0  0  0  0
   10.9835  -10.2226    6.1411 O   0  0  0  0  0  0  0  0  0  0  0  0
   10.9053  -13.0666    6.3157 O   0  0  0  0  0  0  0  0  0  0  0  0
    3.1776  -10.0113   11.2954 C   0  0  0  0  0  0  0  0  0  0  0  0
    2.8408   -9.1793   10.4014 O   0  0  0  0  0  0  0  0  0  0  0  0
    2.1284  -10.7855   12.1512 C   0  0  2  0  0  0  0  0  0  0  0  0
    2.5179  -13.6534   11.4889 N   0  0  0  0  0  0  0  0  0  0  0  0
    2.8280  -11.7912   13.1170 C   0  0  0  0  0  0  0  0  0  0  0  0
    3.4824  -12.9775   12.3895 C   0  0  0  0  0  0  0  0  0  0  0  0
    1.3414  -11.4897   11.4422 O   0  0  0  0  0  0  0  0  0  0  0  0
  1  2  1  6  0  0  0
  1  3  1  0  0  0  0
  1  8  1  0  0  0  0
  3  4  1  0  0  0  0
  3 32  1  6  0  0  0
  4  5  1  0  0  0  0
  4 33  1  6  0  0  0
  5  6  1  6  0  0  0
  5  7  1  0  0  0  0
  7  8  1  0  0  0  0
  7  9  1  1  0  0  0
  9 10  1  0  0  0  0
 11 12  1  1  0  0  0
 11 13  1  0  0  0  0
 11 19  1  0  0  0  0
 12 34  1  0  0  0  0
 13 14  1  0  0  0  0
 14 15  1  1  0  0  0
 14 16  1  0  0  0  0
 16  2  1  6  0  0  0
 16 17  1  0  0  0  0
 17 18  1  1  0  0  0
 17 19  1  0  0  0  0
 19 20  1  6  0  0  0
 21 20  1  6  0  0  0
 21 22  1  0  0  0  0
 21 29  1  0  0  0  0
 22 23  1  6  0  0  0
 22 24  1  0  0  0  0
 24 25  1  1  0  0  0
 24 26  1  0  0  0  0
 26 27  1  6  0  0  0
 26 28  1  0  0  0  0
 28 29  1  0  0  0  0
 28 30  1  1  0  0  0
 30 31  1  0  0  0  0
 34 35  2  0  0  0  0
 36 34  1  6  0  0  0
 36 38  1  0  0  0  0
 36 40  1  0  0  0  0
 37 39  1  0  0  0  0
 38 39  1  0  0  0  0
M  END
>  <CHROM.1>
124.56758039,-111.37307471,-66.24227863,-119.37988374,85.86980312,148.68876791
-171.25439282,-3.16155034,-69.21154829,-52.84885533,7.19199987,-9.85875456
10.92602431,-0.78592985,0.35348015,0.48788656

>  <Name>
ligand

>  <RI>
0

>  <Rbt.Current_Directory>
/home/itssahil/PROJECTS/Mol_Feturizer/New_Systems/rnas/4P20

>  <Rbt.Executable>
rbdock ($Id: //depot/dev/client3/rdock/2013.1/src/exe/rbdock.cxx#4 $)

>  <Rbt.Library>
libRbt.so (2013.1, Build901 2013/11/27)

>  <Rbt.Parameter_File>
/export/apps/rDock/src/rDock_2013.1_src/data/scripts/dock_solv.prm

>  <Rbt.Receptor>
prm/blind_docking_20.prm

>  <SCORE>
28.6817

>  <SCORE.INTER>
9.53211

>  <SCORE.INTER.CONST>
1

>  <SCORE.INTER.POLAR>
0

>  <SCORE.INTER.ROT>
10

>  <SCORE.INTER.SOLV>
26.6303

>  <SCORE.INTER.VDW>
-12.7887

>  <SCORE.INTER.norm>
0.238303

>  <SCORE.INTRA>
7.15512

>  <SCORE.INTRA.DIHEDRAL>
-3.11655

>  <SCORE.INTRA.DIHEDRAL.0>
28.2802

>  <SCORE.INTRA.POLAR>
0

>  <SCORE.INTRA.POLAR.0>
0

>  <SCORE.INTRA.REPUL>
0

>  <SCORE.INTRA.REPUL.0>
0

>  <SCORE.INTRA.SOLV>
9.58666

>  <SCORE.INTRA.SOLV.lig_0>
-101.981

>  <SCORE.INTRA.VDW>
3.92007

>  <SCORE.INTRA.VDW.0>
-5.72964

>  <SCORE.INTRA.norm>
0.178878

>  <SCORE.RESTR>
11.9945

>  <SCORE.RESTR.CAVITY>
11.9945

>  <SCORE.RESTR.norm>
0.299863

>  <SCORE.SYSTEM>
0

>  <SCORE.SYSTEM.CONST>
0

>  <SCORE.SYSTEM.DIHEDRAL>
0

>  <SCORE.SYSTEM.SOLV>
0

>  <SCORE.SYSTEM.norm>
0

>  <SCORE.heavy>
40

>  <SCORE.norm>
0.717044

>  <RMSD>
11.637

$$$$
ligand
 OpenBabel11021811503D
libRbt.so/2013.1/901 2013/11/27
 40 42  0  0  0  0  0  0  0  0999 V2000
   10.8451  -10.6229    8.2539 C   0  0  2  0  0  0  0  0  0  0  0  0
    9.5420  -10.3921    7.6957 O   0  0  0  0  0  0  0  0  0  0  0  0
   11.4884  -11.9223    7.6398 C   0  0  1  0  0  0  0  0  0  0  0  0
   10.6961  -13.1993    8.0452 C   0  0  2  0  0  0  0  0  0  0  0  0
   10.7140  -13.2943    9.6038 C   0  0  2  0  0  0  0  0  0  0  0  0
   10.0084  -14.4846   10.0159 O   0  0  0  0  0  0  0  0  0  0  0  0
   10.0188  -11.9915   10.1962 C   0  0  2  0  0  0  0  0  0  0  0  0
   10.7700  -10.7665    9.7429 O   0  0  0  0  0  0  0  0  0  0  0  0
   10.0042  -11.9791   11.7186 C   0  0  0  0  0  0  0  0  0  0  0  0
    9.3125  -10.7634   12.2518 N   0  0  0  0  0  0  0  0  0  0  0  0
    7.0706   -8.7601   10.9451 C   0  0  2  0  0  0  0  0  0  0  0  0
    6.0843   -7.9554   11.6277 N   0  0  0  0  0  0  0  0  0  0  0  0
    8.1533   -7.8182   10.2791 C   0  0  0  0  0  0  0  0  0  0  0  0
    9.2467   -8.6927    9.5173 C   0  0  2  0  0  0  0  0  0  0  0  0
   10.2722   -7.8070    8.9061 N   0  0  0  0  0  0  0  0  0  0  0  0
    8.5228   -9.5896    8.4090 C   0  0  2  0  0  0  0  0  0  0  0  0
    7.4474  -10.5134    9.1247 C   0  0  2  0  0  0  0  0  0  0  0  0
    6.7969  -11.3223    8.1420 O   0  0  0  0  0  0  0  0  0  0  0  0
    6.3732   -9.6341    9.8785 C   0  0  1  0  0  0  0  0  0  0  0  0
    5.4121  -10.4916   10.5431 O   0  0  0  0  0  0  0  0  0  0  0  0
    5.3895  -10.7683   11.9024 C   0  0  2  0  0  0  0  0  0  0  0  0
    5.0108  -12.2828   12.0695 C   0  0  2  0  0  0  0  0  0  0  0  0
    5.9281  -13.0742   11.3858 O   0  0  0  0  0  0  0  0  0  0  0  0
    3.5270  -12.5766   11.5863 C   0  0  1  0  0  0  0  0  0  0  0  0
    3.1832  -14.0210   11.7657 N   0  0  0  0  0  0  0  0  0  0  0  0
    2.5307  -11.6469   12.4074 C   0  0  2  0  0  0  0  0  0  0  0  0
    1.1731  -11.8847   12.0153 O   0  0  0  0  0  0  0  0  0  0  0  0
    2.9489  -10.1451   12.1649 C   0  0  2  0  0  0  0  0  0  0  0  0
    4.3917   -9.9097   12.5907 O   0  0  0  0  0  0  0  0  0  0  0  0
    2.0560   -9.1996   12.9326 C   0  0  0  0  0  0  0  0  0  0  0  0
    0.9471   -9.8691   13.5609 O   0  0  0  0  0  0  0  0  0  0  0  0
   11.5221  -11.7749    6.1902 O   0  0  0  0  0  0  0  0  0  0  0  0
   11.3063  -14.3002    7.4945 O   0  0  0  0  0  0  0  0  0  0  0  0
    6.4563   -7.2766   12.8475 C   0  0  0  0  0  0  0  0  0  0  0  0
    7.4319   -7.7042   13.5333 O   0  0  0  0  0  0  0  0  0  0  0  0
    5.6210   -6.0302   13.2733 C   0  0  2  0  0  0  0  0  0  0  0  0
    6.1397   -5.0511    9.8025 N   0  0  0  0  0  0  0  0  0  0  0  0
    5.8191   -4.8548   12.2669 C   0  0  0  0  0  0  0  0  0  0  0  0
    5.1494   -5.1017   10.9047 C   0  0  0  0  0  0  0  0  0  0  0  0
    5.9720   -5.5686   14.4054 O   0  0  0  0  0  0  0  0  0  0  0  0
  1  2  1  6  0  0  0
  1  3  1  0  0  0  0
  1  8  1  0  0  0  0
  3  4  1  0  0  0  0
  3 32  1  6  0  0  0
  4  5  1  0  0  0  0
  4 33  1  6  0  0  0
  5  6  1  6  0  0  0
  5  7  1  0  0  0  0
  7  8  1  0  0  0  0
  7  9  1  1  0  0  0
  9 10  1  0  0  0  0
 11 12  1  6  0  0  0
 11 13  1  0  0  0  0
 11 19  1  0  0  0  0
 12 34  1  0  0  0  0
 13 14  1  0  0  0  0
 14 15  1  6  0  0  0
 14 16  1  0  0  0  0
 16  2  1  1  0  0  0
 16 17  1  0  0  0  0
 17 18  1  6  0  0  0
 17 19  1  0  0  0  0
 19 20  1  1  0  0  0
 21 20  1  6  0  0  0
 21 22  1  0  0  0  0
 21 29  1  0  0  0  0
 22 23  1  6  0  0  0
 22 24  1  0  0  0  0
 24 25  1  1  0  0  0
 24 26  1  0  0  0  0
 26 27  1  6  0  0  0
 26 28  1  0  0  0  0
 28 29  1  0  0  0  0
 28 30  1  1  0  0  0
 30 31  1  0  0  0  0
 34 35  2  0  0  0  0
 36 34  1  6  0  0  0
 36 38  1  0  0  0  0
 36 40  1  0  0  0  0
 37 39  1  0  0  0  0
 38 39  1  0  0  0  0
M  END
>  <CHROM.1>
156.70765029,18.96012632,-178.42983673,-71.40945705,-17.10062236,-141.10232610
-7.23609368,-66.75667416,71.05764376,-121.46473109,7.02462013,-10.15356281
10.68815185,-0.47462758,0.46762823,0.19299479

>  <Name>
ligand

>  <RI>
0

>  <Rbt.Current_Directory>
/home/itssahil/PROJECTS/Mol_Feturizer/New_Systems/rnas/4P20

>  <Rbt.Executable>
rbdock ($Id: //depot/dev/client3/rdock/2013.1/src/exe/rbdock.cxx#4 $)

>  <Rbt.Library>
libRbt.so (2013.1, Build901 2013/11/27)

>  <Rbt.Parameter_File>
/export/apps/rDock/src/rDock_2013.1_src/data/scripts/dock_solv.prm

>  <Rbt.Receptor>
prm/blind_docking_20.prm

>  <SCORE>
36.4315

>  <SCORE.INTER>
8.87499

>  <SCORE.INTER.CONST>
1

>  <SCORE.INTER.POLAR>
0

>  <SCORE.INTER.ROT>
10

>  <SCORE.INTER.SOLV>
23.8652

>  <SCORE.INTER.VDW>
-12.3051

>  <SCORE.INTER.norm>
0.221875

>  <SCORE.INTRA>
8.91966

>  <SCORE.INTRA.DIHEDRAL>
2.69018

>  <SCORE.INTRA.DIHEDRAL.0>
28.2802

>  <SCORE.INTRA.POLAR>
0

>  <SCORE.INTRA.POLAR.0>
0

>  <SCORE.INTRA.REPUL>
0

>  <SCORE.INTRA.REPUL.0>
0

>  <SCORE.INTRA.SOLV>
8.26094

>  <SCORE.INTRA.SOLV.lig_0>
-101.981

>  <SCORE.INTRA.VDW>
3.4441

>  <SCORE.INTRA.VDW.0>
-5.72964

>  <SCORE.INTRA.norm>
0.222992

>  <SCORE.RESTR>
18.6369

>  <SCORE.RESTR.CAVITY>
18.6369

>  <SCORE.RESTR.norm>
0.465922

>  <SCORE.SYSTEM>
0

>  <SCORE.SYSTEM.CONST>
0

>  <SCORE.SYSTEM.DIHEDRAL>
0

>  <SCORE.SYSTEM.SOLV>
0

>  <SCORE.SYSTEM.norm>
0

>  <SCORE.heavy>
40

>  <SCORE.norm>
0.910789

>  <RMSD>
11.653

$$$$
ligand
 OpenBabel11021811513D
libRbt.so/2013.1/901 2013/11/27
 40 42  0  0  0  0  0  0  0  0999 V2000
    3.0783   -8.3066   19.9520 C   0  0  2  0  0  0  0  0  0  0  0  0
    2.7088   -7.0981   20.6346 O   0  0  0  0  0  0  0  0  0  0  0  0
    1.8610   -8.8719   19.1287 C   0  0  1  0  0  0  0  0  0  0  0  0
    0.7026   -9.3301   20.0620 C   0  0  2  0  0  0  0  0  0  0  0  0
    1.2619  -10.4462   21.0000 C   0  0  2  0  0  0  0  0  0  0  0  0
    0.2049  -10.9146   21.8648 O   0  0  0  0  0  0  0  0  0  0  0  0
    2.4598   -9.8359   21.8511 C   0  0  2  0  0  0  0  0  0  0  0  0
    3.5422   -9.3478   20.9236 O   0  0  0  0  0  0  0  0  0  0  0  0
    3.0896  -10.8576   22.7879 C   0  0  0  0  0  0  0  0  0  0  0  0
    2.1282  -11.2978   23.8475 N   0  0  0  0  0  0  0  0  0  0  0  0
    4.7972   -4.0923   23.0705 C   0  0  2  0  0  0  0  0  0  0  0  0
    5.8060   -3.1476   23.4904 N   0  0  0  0  0  0  0  0  0  0  0  0
    5.4421   -5.5308   22.9369 C   0  0  0  0  0  0  0  0  0  0  0  0
    4.3408   -6.5840   22.4691 C   0  0  2  0  0  0  0  0  0  0  0  0
    4.9446   -7.9380   22.3600 N   0  0  0  0  0  0  0  0  0  0  0  0
    3.7230   -6.1122   21.0718 C   0  0  2  0  0  0  0  0  0  0  0  0
    3.0914   -4.6669   21.2567 C   0  0  2  0  0  0  0  0  0  0  0  0
    2.5326   -4.2376   20.0131 O   0  0  0  0  0  0  0  0  0  0  0  0
    4.1923   -3.6350   21.7240 C   0  0  1  0  0  0  0  0  0  0  0  0
    3.5960   -2.3269   21.9082 O   0  0  0  0  0  0  0  0  0  0  0  0
    2.7641   -1.6895   20.9991 C   0  0  2  0  0  0  0  0  0  0  0  0
    2.9218   -0.1429   21.2189 C   0  0  2  0  0  0  0  0  0  0  0  0
    4.2550    0.2204   21.0581 O   0  0  0  0  0  0  0  0  0  0  0  0
    2.3707    0.3105   22.6374 C   0  0  1  0  0  0  0  0  0  0  0  0
    2.5190    1.7874   22.8206 N   0  0  0  0  0  0  0  0  0  0  0  0
    0.8460   -0.1285   22.7551 C   0  0  2  0  0  0  0  0  0  0  0  0
    0.2975    0.2710   24.0173 O   0  0  0  0  0  0  0  0  0  0  0  0
    0.7692   -1.6921   22.5592 C   0  0  2  0  0  0  0  0  0  0  0  0
    1.3519   -2.0979   21.2122 O   0  0  0  0  0  0  0  0  0  0  0  0
   -0.6570   -2.1822   22.6383 C   0  0  0  0  0  0  0  0  0  0  0  0
   -0.7455   -3.6037   22.8485 O   0  0  0  0  0  0  0  0  0  0  0  0
    1.4056   -7.8330   18.2136 O   0  0  0  0  0  0  0  0  0  0  0  0
   -0.3241   -9.8242   19.2943 O   0  0  0  0  0  0  0  0  0  0  0  0
    6.4560   -3.3376   24.7665 C   0  0  0  0  0  0  0  0  0  0  0  0
    5.8815   -4.0134   25.6710 O   0  0  0  0  0  0  0  0  0  0  0  0
    7.8573   -2.6858   24.9762 C   0  0  2  0  0  0  0  0  0  0  0  0
   11.3437   -3.5137   23.4586 N   0  0  0  0  0  0  0  0  0  0  0  0
    8.9350   -3.3799   24.0873 C   0  0  0  0  0  0  0  0  0  0  0  0
   10.3254   -2.7328   24.2012 C   0  0  0  0  0  0  0  0  0  0  0  0
    8.2782   -2.8027   26.1709 O   0  0  0  0  0  0  0  0  0  0  0  0
  1  2  1  1  0  0  0
  1  3  1  0  0  0  0
  1  8  1  0  0  0  0
  3  4  1  0  0  0  0
  3 32  1  6  0  0  0
  4  5  1  0  0  0  0
  4 33  1  6  0  0  0
  5  6  1  1  0  0  0
  5  7  1  0  0  0  0
  7  8  1  0  0  0  0
  7  9  1  1  0  0  0
  9 10  1  0  0  0  0
 11 12  1  6  0  0  0
 11 13  1  0  0  0  0
 11 19  1  0  0  0  0
 12 34  1  0  0  0  0
 13 14  1  0  0  0  0
 14 15  1  6  0  0  0
 14 16  1  0  0  0  0
 16  2  1  1  0  0  0
 16 17  1  0  0  0  0
 17 18  1  6  0  0  0
 17 19  1  0  0  0  0
 19 20  1  1  0  0  0
 21 20  1  1  0  0  0
 21 22  1  0  0  0  0
 21 29  1  0  0  0  0
 22 23  1  1  0  0  0
 22 24  1  0  0  0  0
 24 25  1  6  0  0  0
 24 26  1  0  0  0  0
 26 27  1  1  0  0  0
 26 28  1  0  0  0  0
 28 29  1  0  0  0  0
 28 30  1  6  0  0  0
 30 31  1  0  0  0  0
 34 35  2  0  0  0  0
 36 34  1  1  0  0  0
 36 38  1  0  0  0  0
 36 40  1  0  0  0  0
 37 39  1  0  0  0  0
 38 39  1  0  0  0  0
M  END
>  <CHROM.1>
-157.94067602,-82.60860937,-65.34541677,-61.70898668,-168.46130847,-152.72976922
-163.30924137,-68.55452270,177.17457801,173.74446637,3.47039577,-4.84808439
22.18812674,-1.99944895,-0.36819971,0.14242760

>  <Name>
ligand

>  <RI>
0

>  <Rbt.Current_Directory>
/home/itssahil/PROJECTS/Mol_Feturizer/New_Systems/rnas/4P20

>  <Rbt.Executable>
rbdock ($Id: //depot/dev/client3/rdock/2013.1/src/exe/rbdock.cxx#4 $)

>  <Rbt.Library>
libRbt.so (2013.1, Build901 2013/11/27)

>  <Rbt.Parameter_File>
/export/apps/rDock/src/rDock_2013.1_src/data/scripts/dock_solv.prm

>  <Rbt.Receptor>
prm/pocket_docking_8.prm

>  <SCORE>
-15.3967

>  <SCORE.INTER>
-10.3255

>  <SCORE.INTER.CONST>
1

>  <SCORE.INTER.POLAR>
0

>  <SCORE.INTER.ROT>
10

>  <SCORE.INTER.SOLV>
19.8537

>  <SCORE.INTER.VDW>
-23.7682

>  <SCORE.INTER.norm>
-0.258137

>  <SCORE.INTRA>
-5.07518

>  <SCORE.INTRA.DIHEDRAL>
-18.0387

>  <SCORE.INTRA.DIHEDRAL.0>
28.2802

>  <SCORE.INTRA.POLAR>
0

>  <SCORE.INTRA.POLAR.0>
0

>  <SCORE.INTRA.REPUL>
0

>  <SCORE.INTRA.REPUL.0>
0

>  <SCORE.INTRA.SOLV>
1.82767

>  <SCORE.INTRA.SOLV.lig_0>
-101.981

>  <SCORE.INTRA.VDW>
3.03032

>  <SCORE.INTRA.VDW.0>
-5.72964

>  <SCORE.INTRA.norm>
-0.126879

>  <SCORE.RESTR>
0.00393764

>  <SCORE.RESTR.CAVITY>
0.00393764

>  <SCORE.RESTR.norm>
9.8441e-05

>  <SCORE.SYSTEM>
0

>  <SCORE.SYSTEM.CONST>
0

>  <SCORE.SYSTEM.DIHEDRAL>
0

>  <SCORE.SYSTEM.SOLV>
0

>  <SCORE.SYSTEM.norm>
0

>  <SCORE.heavy>
40

>  <SCORE.norm>
-0.384918

>  <RMSD>
11.682

$$$$
ligand
 OpenBabel11021811503D
libRbt.so/2013.1/901 2013/11/27
 40 42  0  0  0  0  0  0  0  0999 V2000
    9.3586  -13.2677    8.9861 C   0  0  2  0  0  0  0  0  0  0  0  0
    9.4233  -12.8747   10.3661 O   0  0  0  0  0  0  0  0  0  0  0  0
   10.4757  -14.3282    8.6595 C   0  0  1  0  0  0  0  0  0  0  0  0
   11.9010  -13.7160    8.7887 C   0  0  2  0  0  0  0  0  0  0  0  0
   11.9998  -12.5264    7.7821 C   0  0  2  0  0  0  0  0  0  0  0  0
   13.3211  -11.9491    7.8561 O   0  0  0  0  0  0  0  0  0  0  0  0
   10.8909  -11.4507    8.1623 C   0  0  2  0  0  0  0  0  0  0  0  0
    9.5253  -12.0827    8.0853 O   0  0  0  0  0  0  0  0  0  0  0  0
   10.8922  -10.2537    7.2214 C   0  0  0  0  0  0  0  0  0  0  0  0
   10.0019   -9.1597    7.7225 N   0  0  0  0  0  0  0  0  0  0  0  0
    5.9226  -10.2471   10.7791 C   0  0  2  0  0  0  0  0  0  0  0  0
    4.9061   -9.4266   11.3954 N   0  0  0  0  0  0  0  0  0  0  0  0
    5.8250  -11.7224   11.3418 C   0  0  0  0  0  0  0  0  0  0  0  0
    6.9448  -12.6393   10.6738 C   0  0  2  0  0  0  0  0  0  0  0  0
    6.8411  -14.0289   11.1914 N   0  0  0  0  0  0  0  0  0  0  0  0
    8.3851  -12.0149   10.9781 C   0  0  2  0  0  0  0  0  0  0  0  0
    8.4325  -10.5378   10.3971 C   0  0  2  0  0  0  0  0  0  0  0  0
    9.7184   -9.9719   10.6610 O   0  0  0  0  0  0  0  0  0  0  0  0
    7.3156   -9.6420   11.0645 C   0  0  1  0  0  0  0  0  0  0  0  0
    7.3587   -8.3041   10.5089 O   0  0  0  0  0  0  0  0  0  0  0  0
    7.9965   -7.2159   11.0867 C   0  0  2  0  0  0  0  0  0  0  0  0
    8.1300   -7.5083   12.6235 C   0  0  2  0  0  0  0  0  0  0  0  0
    8.8316   -8.6939   12.8164 O   0  0  0  0  0  0  0  0  0  0  0  0
    6.7137   -7.5567   13.3398 C   0  0  1  0  0  0  0  0  0  0  0  0
    6.8647   -7.8238   14.8037 N   0  0  0  0  0  0  0  0  0  0  0  0
    5.9674   -6.1747   13.0862 C   0  0  2  0  0  0  0  0  0  0  0  0
    4.6852   -6.1639   13.7260 O   0  0  0  0  0  0  0  0  0  0  0  0
    5.8389   -5.9653   11.5278 C   0  0  2  0  0  0  0  0  0  0  0  0
    7.2100   -5.9753   10.8656 O   0  0  0  0  0  0  0  0  0  0  0  0
    5.1550   -4.6576   11.2078 C   0  0  0  0  0  0  0  0  0  0  0  0
    4.5677   -4.6444    9.8934 O   0  0  0  0  0  0  0  0  0  0  0  0
   10.3149  -15.4567    9.5676 O   0  0  0  0  0  0  0  0  0  0  0  0
   12.8326  -14.6779    8.4814 O   0  0  0  0  0  0  0  0  0  0  0  0
    3.5491   -9.9186   11.4544 C   0  0  0  0  0  0  0  0  0  0  0  0
    3.1628  -10.7998   10.6303 O   0  0  0  0  0  0  0  0  0  0  0  0
    2.6050   -9.3276   12.5461 C   0  0  2  0  0  0  0  0  0  0  0  0
    2.3669  -10.5711   15.4212 N   0  0  0  0  0  0  0  0  0  0  0  0
    3.4041   -8.9538   13.8327 C   0  0  0  0  0  0  0  0  0  0  0  0
    2.5927   -9.1358   15.1264 C   0  0  0  0  0  0  0  0  0  0  0  0
    1.7182  -10.1558   12.9277 O   0  0  0  0  0  0  0  0  0  0  0  0
  1  2  1  1  0  0  0
  1  3  1  0  0  0  0
  1  8  1  0  0  0  0
  3  4  1  0  0  0  0
  3 32  1  1  0  0  0
  4  5  1  0  0  0  0
  4 33  1  6  0  0  0
  5  6  1  1  0  0  0
  5  7  1  0  0  0  0
  7  8  1  0  0  0  0
  7  9  1  6  0  0  0
  9 10  1  0  0  0  0
 11 12  1  1  0  0  0
 11 13  1  0  0  0  0
 11 19  1  0  0  0  0
 12 34  1  0  0  0  0
 13 14  1  0  0  0  0
 14 15  1  1  0  0  0
 14 16  1  0  0  0  0
 16  2  1  6  0  0  0
 16 17  1  0  0  0  0
 17 18  1  1  0  0  0
 17 19  1  0  0  0  0
 19 20  1  6  0  0  0
 21 20  1  6  0  0  0
 21 22  1  0  0  0  0
 21 29  1  0  0  0  0
 22 23  1  6  0  0  0
 22 24  1  0  0  0  0
 24 25  1  1  0  0  0
 24 26  1  0  0  0  0
 26 27  1  1  0  0  0
 26 28  1  0  0  0  0
 28 29  1  0  0  0  0
 28 30  1  1  0  0  0
 30 31  1  0  0  0  0
 34 35  2  0  0  0  0
 36 34  1  6  0  0  0
 36 38  1  0  0  0  0
 36 40  1  0  0  0  0
 37 39  1  0  0  0  0
 38 39  1  0  0  0  0
M  END
>  <CHROM.1>
-172.39223512,51.46212345,-170.75168173,-47.91356919,142.63173908,-22.61035998
-157.87260920,-32.39855529,-147.30739016,70.26300814,7.36707421,-10.03655345
10.92545126,0.58592429,-0.53794086,-3.11068992

>  <Name>
ligand

>  <RI>
0

>  <Rbt.Current_Directory>
/home/itssahil/PROJECTS/Mol_Feturizer/New_Systems/rnas/4P20

>  <Rbt.Executable>
rbdock ($Id: //depot/dev/client3/rdock/2013.1/src/exe/rbdock.cxx#4 $)

>  <Rbt.Library>
libRbt.so (2013.1, Build901 2013/11/27)

>  <Rbt.Parameter_File>
/export/apps/rDock/src/rDock_2013.1_src/data/scripts/dock_solv.prm

>  <Rbt.Receptor>
prm/blind_docking_20.prm

>  <SCORE>
30.8949

>  <SCORE.INTER>
3.40087

>  <SCORE.INTER.CONST>
1

>  <SCORE.INTER.POLAR>
0

>  <SCORE.INTER.ROT>
10

>  <SCORE.INTER.SOLV>
19.6983

>  <SCORE.INTER.VDW>
-14.5655

>  <SCORE.INTER.norm>
0.0850217

>  <SCORE.INTRA>
3.43227

>  <SCORE.INTRA.DIHEDRAL>
-10.8848

>  <SCORE.INTRA.DIHEDRAL.0>
28.2802

>  <SCORE.INTRA.POLAR>
0

>  <SCORE.INTRA.POLAR.0>
0

>  <SCORE.INTRA.REPUL>
0

>  <SCORE.INTRA.REPUL.0>
0

>  <SCORE.INTRA.SOLV>
5.91208

>  <SCORE.INTRA.SOLV.lig_0>
-101.981

>  <SCORE.INTRA.VDW>
5.91863

>  <SCORE.INTRA.VDW.0>
-5.72964

>  <SCORE.INTRA.norm>
0.0858066

>  <SCORE.RESTR>
24.0618

>  <SCORE.RESTR.CAVITY>
24.0618

>  <SCORE.RESTR.norm>
0.601544

>  <SCORE.SYSTEM>
0

>  <SCORE.SYSTEM.CONST>
0

>  <SCORE.SYSTEM.DIHEDRAL>
0

>  <SCORE.SYSTEM.SOLV>
0

>  <SCORE.SYSTEM.norm>
0

>  <SCORE.heavy>
40

>  <SCORE.norm>
0.772372

>  <RMSD>
11.688

$$$$
ligand
 OpenBabel11021811503D
libRbt.so/2013.1/901 2013/11/27
 40 42  0  0  0  0  0  0  0  0999 V2000
   11.0750   -9.9249    8.3532 C   0  0  2  0  0  0  0  0  0  0  0  0
    9.8911   -9.1675    8.6493 O   0  0  0  0  0  0  0  0  0  0  0  0
   10.9633  -10.5941    6.9323 C   0  0  1  0  0  0  0  0  0  0  0  0
    9.8354  -11.6660    6.8918 C   0  0  2  0  0  0  0  0  0  0  0  0
   10.1775  -12.7557    7.9567 C   0  0  2  0  0  0  0  0  0  0  0  0
    9.1632  -13.7828    7.9292 O   0  0  0  0  0  0  0  0  0  0  0  0
   10.2399  -12.0610    9.3867 C   0  0  2  0  0  0  0  0  0  0  0  0
   11.2990  -10.9893    9.3830 O   0  0  0  0  0  0  0  0  0  0  0  0
   10.5891  -13.0422   10.4973 C   0  0  0  0  0  0  0  0  0  0  0  0
    9.4478  -13.9636   10.7957 N   0  0  0  0  0  0  0  0  0  0  0  0
    6.3507   -9.3821   11.2472 C   0  0  2  0  0  0  0  0  0  0  0  0
    5.2863   -9.9407   12.0482 N   0  0  0  0  0  0  0  0  0  0  0  0
    6.2234   -9.9045    9.7594 C   0  0  0  0  0  0  0  0  0  0  0  0
    7.3951   -9.2998    8.8637 C   0  0  2  0  0  0  0  0  0  0  0  0
    7.2644   -9.7785    7.4626 N   0  0  0  0  0  0  0  0  0  0  0  0
    8.8051   -9.7210    9.4895 C   0  0  2  0  0  0  0  0  0  0  0  0
    8.8837   -9.1769   10.9793 C   0  0  2  0  0  0  0  0  0  0  0  0
   10.1430   -9.5453   11.5465 O   0  0  0  0  0  0  0  0  0  0  0  0
    7.7150   -9.7807   11.8538 C   0  0  1  0  0  0  0  0  0  0  0  0
    7.7884   -9.2585   13.2038 O   0  0  0  0  0  0  0  0  0  0  0  0
    8.2812   -8.0101   13.5551 C   0  0  2  0  0  0  0  0  0  0  0  0
    7.7215   -7.6659   14.9811 C   0  0  2  0  0  0  0  0  0  0  0  0
    8.0982   -8.6545   15.8843 O   0  0  0  0  0  0  0  0  0  0  0  0
    6.1454   -7.4735   14.9654 C   0  0  1  0  0  0  0  0  0  0  0  0
    5.6353   -7.1343   16.3298 N   0  0  0  0  0  0  0  0  0  0  0  0
    5.7824   -6.3301   13.9203 C   0  0  2  0  0  0  0  0  0  0  0  0
    4.3672   -6.1093   13.8787 O   0  0  0  0  0  0  0  0  0  0  0  0
    6.3434   -6.7590   12.5095 C   0  0  2  0  0  0  0  0  0  0  0  0
    7.8479   -6.9849   12.5713 O   0  0  0  0  0  0  0  0  0  0  0  0
    6.0532   -5.7079   11.4647 C   0  0  0  0  0  0  0  0  0  0  0  0
    4.6590   -5.3534   11.4051 O   0  0  0  0  0  0  0  0  0  0  0  0
   10.7137   -9.5457    5.9512 O   0  0  0  0  0  0  0  0  0  0  0  0
    9.7911  -12.2243    5.6372 O   0  0  0  0  0  0  0  0  0  0  0  0
    3.9212   -9.7973   11.5977 C   0  0  0  0  0  0  0  0  0  0  0  0
    3.6170   -8.8622   10.7991 O   0  0  0  0  0  0  0  0  0  0  0  0
    2.8662  -10.8155   12.1294 C   0  0  2  0  0  0  0  0  0  0  0  0
    3.2057  -13.8652   12.1847 N   0  0  0  0  0  0  0  0  0  0  0  0
    2.4330  -11.8084   11.0069 C   0  0  0  0  0  0  0  0  0  0  0  0
    2.0487  -13.1987   11.5403 C   0  0  0  0  0  0  0  0  0  0  0  0
    1.7929  -10.2524   12.5153 O   0  0  0  0  0  0  0  0  0  0  0  0
  1  2  1  1  0  0  0
  1  3  1  0  0  0  0
  1  8  1  0  0  0  0
  3  4  1  0  0  0  0
  3 32  1  6  0  0  0
  4  5  1  0  0  0  0
  4 33  1  6  0  0  0
  5  6  1  1  0  0  0
  5  7  1  0  0  0  0
  7  8  1  0  0  0  0
  7  9  1  1  0  0  0
  9 10  1  0  0  0  0
 11 12  1  1  0  0  0
 11 13  1  0  0  0  0
 11 19  1  0  0  0  0
 12 34  1  0  0  0  0
 13 14  1  0  0  0  0
 14 15  1  6  0  0  0
 14 16  1  0  0  0  0
 16  2  1  6  0  0  0
 16 17  1  0  0  0  0
 17 18  1  1  0  0  0
 17 19  1  0  0  0  0
 19 20  1  1  0  0  0
 21 20  1  6  0  0  0
 21 22  1  0  0  0  0
 21 29  1  0  0  0  0
 22 23  1  1  0  0  0
 22 24  1  0  0  0  0
 24 25  1  1  0  0  0
 24 26  1  0  0  0  0
 26 27  1  6  0  0  0
 26 28  1  0  0  0  0
 28 29  1  0  0  0  0
 28 30  1  6  0  0  0
 30 31  1  0  0  0  0
 34 35  2  0  0  0  0
 36 34  1  6  0  0  0
 36 38  1  0  0  0  0
 36 40  1  0  0  0  0
 37 39  1  0  0  0  0
 38 39  1  0  0  0  0
M  END
>  <CHROM.1>
98.42645117,-139.71001680,-72.37355474,-52.75450075,-89.81080484,160.39218215
-53.33648508,-108.07865525,149.09995001,-63.16843999,7.25333414,-9.74396237
10.94066240,-0.82306868,0.36278983,0.71250995

>  <Name>
ligand

>  <RI>
0

>  <Rbt.Current_Directory>
/home/itssahil/PROJECTS/Mol_Feturizer/New_Systems/rnas/4P20

>  <Rbt.Executable>
rbdock ($Id: //depot/dev/client3/rdock/2013.1/src/exe/rbdock.cxx#4 $)

>  <Rbt.Library>
libRbt.so (2013.1, Build901 2013/11/27)

>  <Rbt.Parameter_File>
/export/apps/rDock/src/rDock_2013.1_src/data/scripts/dock_solv.prm

>  <Rbt.Receptor>
prm/blind_docking_20.prm

>  <SCORE>
19.382

>  <SCORE.INTER>
3.30105

>  <SCORE.INTER.CONST>
1

>  <SCORE.INTER.POLAR>
0

>  <SCORE.INTER.ROT>
10

>  <SCORE.INTER.SOLV>
23.4998

>  <SCORE.INTER.VDW>
-15.8993

>  <SCORE.INTER.norm>
0.0825261

>  <SCORE.INTRA>
1.09019

>  <SCORE.INTRA.DIHEDRAL>
-6.62596

>  <SCORE.INTRA.DIHEDRAL.0>
28.2802

>  <SCORE.INTRA.POLAR>
0

>  <SCORE.INTRA.POLAR.0>
0

>  <SCORE.INTRA.REPUL>
0

>  <SCORE.INTRA.REPUL.0>
0

>  <SCORE.INTRA.SOLV>
4.21494

>  <SCORE.INTRA.SOLV.lig_0>
-101.981

>  <SCORE.INTRA.VDW>
2.2957

>  <SCORE.INTRA.VDW.0>
-5.72964

>  <SCORE.INTRA.norm>
0.0272547

>  <SCORE.RESTR>
14.9907

>  <SCORE.RESTR.CAVITY>
14.9907

>  <SCORE.RESTR.norm>
0.374768

>  <SCORE.SYSTEM>
0

>  <SCORE.SYSTEM.CONST>
0

>  <SCORE.SYSTEM.DIHEDRAL>
0

>  <SCORE.SYSTEM.SOLV>
0

>  <SCORE.SYSTEM.norm>
0

>  <SCORE.heavy>
40

>  <SCORE.norm>
0.484549

>  <RMSD>
11.696

$$$$
ligand
 OpenBabel11021811503D
libRbt.so/2013.1/901 2013/11/27
 40 42  0  0  0  0  0  0  0  0999 V2000
   11.0892  -10.5144    8.1255 C   0  0  2  0  0  0  0  0  0  0  0  0
   10.1760   -9.5309    8.6373 O   0  0  0  0  0  0  0  0  0  0  0  0
   10.4815  -11.2292    6.8609 C   0  0  1  0  0  0  0  0  0  0  0  0
    9.2232  -12.0687    7.2278 C   0  0  2  0  0  0  0  0  0  0  0  0
    9.6572  -13.1416    8.2760 C   0  0  2  0  0  0  0  0  0  0  0  0
    8.5175  -13.9579    8.6211 O   0  0  0  0  0  0  0  0  0  0  0  0
   10.2249  -12.3919    9.5594 C   0  0  2  0  0  0  0  0  0  0  0  0
   11.4060  -11.5421    9.1680 O   0  0  0  0  0  0  0  0  0  0  0  0
   10.6964  -13.3574   10.6381 C   0  0  0  0  0  0  0  0  0  0  0  0
    9.5480  -14.0846   11.2649 N   0  0  0  0  0  0  0  0  0  0  0  0
    6.6005   -9.1952   11.1736 C   0  0  2  0  0  0  0  0  0  0  0  0
    5.4666   -9.5832   11.9800 N   0  0  0  0  0  0  0  0  0  0  0  0
    6.4320   -9.7730    9.7106 C   0  0  0  0  0  0  0  0  0  0  0  0
    7.6793   -9.3567    8.8096 C   0  0  2  0  0  0  0  0  0  0  0  0
    7.5115   -9.8864    7.4309 N   0  0  0  0  0  0  0  0  0  0  0  0
    9.0207   -9.9094    9.4821 C   0  0  2  0  0  0  0  0  0  0  0  0
    9.1433   -9.3042   10.9451 C   0  0  2  0  0  0  0  0  0  0  0  0
   10.3421   -9.7897   11.5537 O   0  0  0  0  0  0  0  0  0  0  0  0
    7.8995   -9.7211   11.8250 C   0  0  1  0  0  0  0  0  0  0  0  0
    8.0163   -9.1440   13.1494 O   0  0  0  0  0  0  0  0  0  0  0  0
    8.3266   -7.8197   13.4226 C   0  0  2  0  0  0  0  0  0  0  0  0
    7.8363   -7.5115   14.8820 C   0  0  2  0  0  0  0  0  0  0  0  0
    8.4409   -8.3896   15.7755 O   0  0  0  0  0  0  0  0  0  0  0  0
    6.2539   -7.5739   14.9981 C   0  0  1  0  0  0  0  0  0  0  0  0
    5.8082   -7.2652   16.3920 N   0  0  0  0  0  0  0  0  0  0  0  0
    5.6261   -6.5467   13.9580 C   0  0  2  0  0  0  0  0  0  0  0  0
    4.1952   -6.5565   14.0335 O   0  0  0  0  0  0  0  0  0  0  0  0
    6.1326   -6.9375   12.5159 C   0  0  2  0  0  0  0  0  0  0  0  0
    7.6539   -6.9177   12.4528 O   0  0  0  0  0  0  0  0  0  0  0  0
    5.5914   -5.9897   11.4722 C   0  0  0  0  0  0  0  0  0  0  0  0
    6.0096   -4.6289   11.6868 O   0  0  0  0  0  0  0  0  0  0  0  0
   10.1512  -10.2094    5.8735 O   0  0  0  0  0  0  0  0  0  0  0  0
    8.7435  -12.6782    6.0938 O   0  0  0  0  0  0  0  0  0  0  0  0
    4.1486   -9.5685   11.3887 C   0  0  0  0  0  0  0  0  0  0  0  0
    3.9200   -8.8385   10.3788 O   0  0  0  0  0  0  0  0  0  0  0  0
    3.0480  -10.4640   12.0361 C   0  0  2  0  0  0  0  0  0  0  0  0
    2.7339  -13.6719   12.1294 N   0  0  0  0  0  0  0  0  0  0  0  0
    2.4617  -11.4681   10.9962 C   0  0  0  0  0  0  0  0  0  0  0  0
    1.7545  -12.6703   11.6441 C   0  0  0  0  0  0  0  0  0  0  0  0
    2.0528   -9.7914   12.4548 O   0  0  0  0  0  0  0  0  0  0  0  0
  1  2  1  1  0  0  0
  1  3  1  0  0  0  0
  1  8  1  0  0  0  0
  3  4  1  0  0  0  0
  3 32  1  6  0  0  0
  4  5  1  0  0  0  0
  4 33  1  6  0  0  0
  5  6  1  1  0  0  0
  5  7  1  0  0  0  0
  7  8  1  0  0  0  0
  7  9  1  1  0  0  0
  9 10  1  0  0  0  0
 11 12  1  1  0  0  0
 11 13  1  0  0  0  0
 11 19  1  0  0  0  0
 12 34  1  0  0  0  0
 13 14  1  0  0  0  0
 14 15  1  6  0  0  0
 14 16  1  0  0  0  0
 16  2  1  6  0  0  0
 16 17  1  0  0  0  0
 17 18  1  1  0  0  0
 17 19  1  0  0  0  0
 19 20  1  1  0  0  0
 21 20  1  6  0  0  0
 21 22  1  0  0  0  0
 21 29  1  0  0  0  0
 22 23  1  1  0  0  0
 22 24  1  0  0  0  0
 24 25  1  1  0  0  0
 24 26  1  0  0  0  0
 26 27  1  6  0  0  0
 26 28  1  0  0  0  0
 28 29  1  0  0  0  0
 28 30  1  6  0  0  0
 30 31  1  0  0  0  0
 34 35  2  0  0  0  0
 36 34  1  6  0  0  0
 36 38  1  0  0  0  0
 36 40  1  0  0  0  0
 37 39  1  0  0  0  0
 38 39  1  0  0  0  0
M  END
>  <CHROM.1>
79.63838647,-123.91062172,-69.16243312,-39.68691779,-72.14365626,159.41534029
61.02936775,-122.35531197,160.14900312,-78.22324665,7.25863638,-9.81147322
10.96692464,-0.91073676,0.27240822,0.73464329

>  <Name>
ligand

>  <RI>
0

>  <Rbt.Current_Directory>
/home/itssahil/PROJECTS/Mol_Feturizer/New_Systems/rnas/4P20

>  <Rbt.Executable>
rbdock ($Id: //depot/dev/client3/rdock/2013.1/src/exe/rbdock.cxx#4 $)

>  <Rbt.Library>
libRbt.so (2013.1, Build901 2013/11/27)

>  <Rbt.Parameter_File>
/export/apps/rDock/src/rDock_2013.1_src/data/scripts/dock_solv.prm

>  <Rbt.Receptor>
prm/blind_docking_20.prm

>  <SCORE>
17.4067

>  <SCORE.INTER>
0.724761

>  <SCORE.INTER.CONST>
1

>  <SCORE.INTER.POLAR>
0

>  <SCORE.INTER.ROT>
10

>  <SCORE.INTER.SOLV>
22.0181

>  <SCORE.INTER.VDW>
-17.1229

>  <SCORE.INTER.norm>
0.018119

>  <SCORE.INTRA>
2.36103

>  <SCORE.INTRA.DIHEDRAL>
-11.3056

>  <SCORE.INTRA.DIHEDRAL.0>
28.2802

>  <SCORE.INTRA.POLAR>
0

>  <SCORE.INTRA.POLAR.0>
0

>  <SCORE.INTRA.REPUL>
0

>  <SCORE.INTRA.REPUL.0>
0

>  <SCORE.INTRA.SOLV>
6.08051

>  <SCORE.INTRA.SOLV.lig_0>
-101.981

>  <SCORE.INTRA.VDW>
4.97358

>  <SCORE.INTRA.VDW.0>
-5.72964

>  <SCORE.INTRA.norm>
0.0590257

>  <SCORE.RESTR>
14.3209

>  <SCORE.RESTR.CAVITY>
14.3209

>  <SCORE.RESTR.norm>
0.358022

>  <SCORE.SYSTEM>
0

>  <SCORE.SYSTEM.CONST>
0

>  <SCORE.SYSTEM.DIHEDRAL>
0

>  <SCORE.SYSTEM.SOLV>
0

>  <SCORE.SYSTEM.norm>
0

>  <SCORE.heavy>
40

>  <SCORE.norm>
0.435167

>  <RMSD>
11.708

$$$$
ligand
 OpenBabel11021811503D
libRbt.so/2013.1/901 2013/11/27
 40 42  0  0  0  0  0  0  0  0999 V2000
   10.0989  -12.4599    8.3486 C   0  0  2  0  0  0  0  0  0  0  0  0
   10.2094  -12.0225    9.7122 O   0  0  0  0  0  0  0  0  0  0  0  0
   11.0245  -11.5953    7.4130 C   0  0  1  0  0  0  0  0  0  0  0  0
   10.5512  -10.1137    7.3512 C   0  0  2  0  0  0  0  0  0  0  0  0
    9.0921  -10.1042    6.7952 C   0  0  2  0  0  0  0  0  0  0  0  0
    8.6284   -8.7403    6.6994 O   0  0  0  0  0  0  0  0  0  0  0  0
    8.1710  -10.9464    7.7822 C   0  0  2  0  0  0  0  0  0  0  0  0
    8.6833  -12.3606    7.8693 O   0  0  0  0  0  0  0  0  0  0  0  0
    6.7238  -11.0144    7.3141 C   0  0  0  0  0  0  0  0  0  0  0  0
    6.6273  -11.4658    5.8902 N   0  0  0  0  0  0  0  0  0  0  0  0
    6.0550  -11.4883   11.0484 C   0  0  2  0  0  0  0  0  0  0  0  0
    4.9082  -11.4238   11.9242 N   0  0  0  0  0  0  0  0  0  0  0  0
    6.6801  -12.9406   11.1011 C   0  0  0  0  0  0  0  0  0  0  0  0
    7.9507  -13.0258   10.1423 C   0  0  2  0  0  0  0  0  0  0  0  0
    8.5269  -14.3955   10.1805 N   0  0  0  0  0  0  0  0  0  0  0  0
    9.0260  -11.9333   10.5973 C   0  0  2  0  0  0  0  0  0  0  0  0
    8.3523  -10.4969   10.5292 C   0  0  2  0  0  0  0  0  0  0  0  0
    9.3075   -9.5122   10.9308 O   0  0  0  0  0  0  0  0  0  0  0  0
    7.0930  -10.4282   11.4804 C   0  0  1  0  0  0  0  0  0  0  0  0
    6.4779   -9.1189   11.3910 O   0  0  0  0  0  0  0  0  0  0  0  0
    5.5664   -8.5974   12.2976 C   0  0  2  0  0  0  0  0  0  0  0  0
    4.9468   -7.3062   11.6541 C   0  0  2  0  0  0  0  0  0  0  0  0
    4.3548   -7.6264   10.4367 O   0  0  0  0  0  0  0  0  0  0  0  0
    6.0279   -6.1561   11.4816 C   0  0  1  0  0  0  0  0  0  0  0  0
    5.4142   -4.9324   10.8792 N   0  0  0  0  0  0  0  0  0  0  0  0
    6.6610   -5.8347   12.9054 C   0  0  2  0  0  0  0  0  0  0  0  0
    7.6369   -4.7903   12.8044 O   0  0  0  0  0  0  0  0  0  0  0  0
    7.2925   -7.1644   13.4729 C   0  0  2  0  0  0  0  0  0  0  0  0
    6.2413   -8.2610   13.5775 O   0  0  0  0  0  0  0  0  0  0  0  0
    7.8982   -6.9412   14.8381 C   0  0  0  0  0  0  0  0  0  0  0  0
    8.5630   -8.1114   15.3494 O   0  0  0  0  0  0  0  0  0  0  0  0
   12.3899  -11.6799    7.9156 O   0  0  0  0  0  0  0  0  0  0  0  0
   11.3838   -9.4108    6.5143 O   0  0  0  0  0  0  0  0  0  0  0  0
    3.6565  -10.9242   11.4039 C   0  0  0  0  0  0  0  0  0  0  0  0
    3.6545  -10.1668   10.3885 O   0  0  0  0  0  0  0  0  0  0  0  0
    2.3432  -11.3441   12.1330 C   0  0  2  0  0  0  0  0  0  0  0  0
    4.0540  -10.2047   14.3721 N   0  0  0  0  0  0  0  0  0  0  0  0
    1.8871  -10.2436   13.1401 C   0  0  0  0  0  0  0  0  0  0  0  0
    3.0470   -9.3796   13.6627 C   0  0  0  0  0  0  0  0  0  0  0  0
    2.4847  -12.4003   12.8277 O   0  0  0  0  0  0  0  0  0  0  0  0
  1  2  1  1  0  0  0
  1  3  1  0  0  0  0
  1  8  1  0  0  0  0
  3  4  1  0  0  0  0
  3 32  1  1  0  0  0
  4  5  1  0  0  0  0
  4 33  1  6  0  0  0
  5  6  1  1  0  0  0
  5  7  1  0  0  0  0
  7  8  1  0  0  0  0
  7  9  1  6  0  0  0
  9 10  1  0  0  0  0
 11 12  1  1  0  0  0
 11 13  1  0  0  0  0
 11 19  1  0  0  0  0
 12 34  1  0  0  0  0
 13 14  1  0  0  0  0
 14 15  1  1  0  0  0
 14 16  1  0  0  0  0
 16  2  1  6  0  0  0
 16 17  1  0  0  0  0
 17 18  1  1  0  0  0
 17 19  1  0  0  0  0
 19 20  1  6  0  0  0
 21 20  1  6  0  0  0
 21 22  1  0  0  0  0
 21 29  1  0  0  0  0
 22 23  1  6  0  0  0
 22 24  1  0  0  0  0
 24 25  1  1  0  0  0
 24 26  1  0  0  0  0
 26 27  1  6  0  0  0
 26 28  1  0  0  0  0
 28 29  1  0  0  0  0
 28 30  1  1  0  0  0
 30 31  1  0  0  0  0
 34 35  2  0  0  0  0
 36 34  1  1  0  0  0
 36 38  1  0  0  0  0
 36 40  1  0  0  0  0
 37 39  1  0  0  0  0
 38 39  1  0  0  0  0
M  END
>  <CHROM.1>
139.66375210,29.42417280,51.58083720,-128.19342385,76.22768551,-168.24313385
-176.10371122,96.76671559,-26.29029712,-60.19897892,7.02107843,-9.90580304
10.66278502,0.69971248,-0.54736701,-2.61781622

>  <Name>
ligand

>  <RI>
0

>  <Rbt.Current_Directory>
/home/itssahil/PROJECTS/Mol_Feturizer/New_Systems/rnas/4P20

>  <Rbt.Executable>
rbdock ($Id: //depot/dev/client3/rdock/2013.1/src/exe/rbdock.cxx#4 $)

>  <Rbt.Library>
libRbt.so (2013.1, Build901 2013/11/27)

>  <Rbt.Parameter_File>
/export/apps/rDock/src/rDock_2013.1_src/data/scripts/dock_solv.prm

>  <Rbt.Receptor>
prm/blind_docking_20.prm

>  <SCORE>
42.1789

>  <SCORE.INTER>
19.8095

>  <SCORE.INTER.CONST>
1

>  <SCORE.INTER.POLAR>
0

>  <SCORE.INTER.ROT>
10

>  <SCORE.INTER.SOLV>
22.7884

>  <SCORE.INTER.VDW>
-4.65649

>  <SCORE.INTER.norm>
0.495237

>  <SCORE.INTRA>
3.80462

>  <SCORE.INTRA.DIHEDRAL>
-10.8179

>  <SCORE.INTRA.DIHEDRAL.0>
28.2802

>  <SCORE.INTRA.POLAR>
0

>  <SCORE.INTRA.POLAR.0>
0

>  <SCORE.INTRA.REPUL>
0

>  <SCORE.INTRA.REPUL.0>
0

>  <SCORE.INTRA.SOLV>
9.76271

>  <SCORE.INTRA.SOLV.lig_0>
-101.981

>  <SCORE.INTRA.VDW>
4.33223

>  <SCORE.INTRA.VDW.0>
-5.72964

>  <SCORE.INTRA.norm>
0.0951156

>  <SCORE.RESTR>
18.5648

>  <SCORE.RESTR.CAVITY>
18.5648

>  <SCORE.RESTR.norm>
0.46412

>  <SCORE.SYSTEM>
0

>  <SCORE.SYSTEM.CONST>
0

>  <SCORE.SYSTEM.DIHEDRAL>
0

>  <SCORE.SYSTEM.SOLV>
0

>  <SCORE.SYSTEM.norm>
0

>  <SCORE.heavy>
40

>  <SCORE.norm>
1.05447

>  <RMSD>
11.712

$$$$
ligand
 OpenBabel11021811503D
libRbt.so/2013.1/901 2013/11/27
 40 42  0  0  0  0  0  0  0  0999 V2000
    9.5669  -13.5295    8.7396 C   0  0  2  0  0  0  0  0  0  0  0  0
    9.8965  -13.0692   10.0596 O   0  0  0  0  0  0  0  0  0  0  0  0
   10.8666  -13.6719    7.8622 C   0  0  1  0  0  0  0  0  0  0  0  0
   11.5346  -12.2904    7.6010 C   0  0  2  0  0  0  0  0  0  0  0  0
   10.4962  -11.3944    6.8546 C   0  0  2  0  0  0  0  0  0  0  0  0
   11.0922  -10.1101    6.5720 O   0  0  0  0  0  0  0  0  0  0  0  0
    9.2133  -11.2307    7.7813 C   0  0  2  0  0  0  0  0  0  0  0  0
    8.6187  -12.5854    8.0664 O   0  0  0  0  0  0  0  0  0  0  0  0
    8.1275  -10.3849    7.1302 C   0  0  0  0  0  0  0  0  0  0  0  0
    6.9957  -10.1220    8.0739 N   0  0  0  0  0  0  0  0  0  0  0  0
    6.1754  -11.1513   11.4030 C   0  0  2  0  0  0  0  0  0  0  0  0
    5.1874  -10.5729   12.2837 N   0  0  0  0  0  0  0  0  0  0  0  0
    6.4366  -12.6559   11.8163 C   0  0  0  0  0  0  0  0  0  0  0  0
    7.5293  -13.3067   10.8554 C   0  0  2  0  0  0  0  0  0  0  0  0
    7.7615  -14.7250   11.2347 N   0  0  0  0  0  0  0  0  0  0  0  0
    8.8803  -12.4559   10.9443 C   0  0  2  0  0  0  0  0  0  0  0  0
    8.5666  -10.9572   10.5230 C   0  0  2  0  0  0  0  0  0  0  0  0
    9.7697  -10.1888   10.5957 O   0  0  0  0  0  0  0  0  0  0  0  0
    7.4800  -10.3266   11.4806 C   0  0  1  0  0  0  0  0  0  0  0  0
    7.1899   -8.9672   11.0702 O   0  0  0  0  0  0  0  0  0  0  0  0
    7.9368   -7.8493   11.4129 C   0  0  2  0  0  0  0  0  0  0  0  0
    7.9287   -7.7383   12.9790 C   0  0  2  0  0  0  0  0  0  0  0  0
    8.4419   -8.9057   13.5349 O   0  0  0  0  0  0  0  0  0  0  0  0
    6.4768   -7.4254   13.5407 C   0  0  1  0  0  0  0  0  0  0  0  0
    6.4943   -7.3115   15.0318 N   0  0  0  0  0  0  0  0  0  0  0  0
    5.9512   -6.0808   12.8721 C   0  0  2  0  0  0  0  0  0  0  0  0
    4.6450   -5.7475   13.3582 O   0  0  0  0  0  0  0  0  0  0  0  0
    5.9538   -6.2776   11.3068 C   0  0  2  0  0  0  0  0  0  0  0  0
    7.3493   -6.6266   10.8076 O   0  0  0  0  0  0  0  0  0  0  0  0
    5.4836   -5.0290   10.5994 C   0  0  0  0  0  0  0  0  0  0  0  0
    4.2334   -4.5352   11.1151 O   0  0  0  0  0  0  0  0  0  0  0  0
   11.7873  -14.5680    8.5503 O   0  0  0  0  0  0  0  0  0  0  0  0
   12.6525  -12.4719    6.8232 O   0  0  0  0  0  0  0  0  0  0  0  0
    3.9162  -10.1599   11.7356 C   0  0  0  0  0  0  0  0  0  0  0  0
    3.8200   -9.8933   10.5008 O   0  0  0  0  0  0  0  0  0  0  0  0
    2.7013  -10.0548   12.7080 C   0  0  2  0  0  0  0  0  0  0  0  0
    2.1417  -12.0381   10.1911 N   0  0  0  0  0  0  0  0  0  0  0  0
    1.7335  -11.2646   12.5256 C   0  0  0  0  0  0  0  0  0  0  0  0
    2.3076  -12.3719   11.6261 C   0  0  0  0  0  0  0  0  0  0  0  0
    1.9925   -9.0200   12.4964 O   0  0  0  0  0  0  0  0  0  0  0  0
  1  2  1  1  0  0  0
  1  3  1  0  0  0  0
  1  8  1  0  0  0  0
  3  4  1  0  0  0  0
  3 32  1  1  0  0  0
  4  5  1  0  0  0  0
  4 33  1  6  0  0  0
  5  6  1  1  0  0  0
  5  7  1  0  0  0  0
  7  8  1  0  0  0  0
  7  9  1  6  0  0  0
  9 10  1  0  0  0  0
 11 12  1  1  0  0  0
 11 13  1  0  0  0  0
 11 19  1  0  0  0  0
 12 34  1  0  0  0  0
 13 14  1  0  0  0  0
 14 15  1  1  0  0  0
 14 16  1  0  0  0  0
 16  2  1  6  0  0  0
 16 17  1  0  0  0  0
 17 18  1  1  0  0  0
 17 19  1  0  0  0  0
 19 20  1  6  0  0  0
 21 20  1  1  0  0  0
 21 22  1  0  0  0  0
 21 29  1  0  0  0  0
 22 23  1  1  0  0  0
 22 24  1  0  0  0  0
 24 25  1  1  0  0  0
 24 26  1  0  0  0  0
 26 27  1  1  0  0  0
 26 28  1  0  0  0  0
 28 29  1  0  0  0  0
 28 30  1  6  0  0  0
 30 31  1  0  0  0  0
 34 35  2  0  0  0  0
 36 34  1  6  0  0  0
 36 38  1  0  0  0  0
 36 40  1  0  0  0  0
 37 39  1  0  0  0  0
 38 39  1  0  0  0  0
M  END
>  <CHROM.1>
160.78628397,43.20346172,-173.87151336,-115.44011271,157.20345116,-60.02408168
-51.18978115,-104.09827285,9.65369939,-80.91519130,7.15207434,-10.20128317
10.59876609,0.69153302,-0.45374113,-2.90717577

>  <Name>
ligand

>  <RI>
0

>  <Rbt.Current_Directory>
/home/itssahil/PROJECTS/Mol_Feturizer/New_Systems/rnas/4P20

>  <Rbt.Executable>
rbdock ($Id: //depot/dev/client3/rdock/2013.1/src/exe/rbdock.cxx#4 $)

>  <Rbt.Library>
libRbt.so (2013.1, Build901 2013/11/27)

>  <Rbt.Parameter_File>
/export/apps/rDock/src/rDock_2013.1_src/data/scripts/dock_solv.prm

>  <Rbt.Receptor>
prm/blind_docking_20.prm

>  <SCORE>
22.3704

>  <SCORE.INTER>
3.45083

>  <SCORE.INTER.CONST>
1

>  <SCORE.INTER.POLAR>
0

>  <SCORE.INTER.ROT>
10

>  <SCORE.INTER.SOLV>
27.0003

>  <SCORE.INTER.VDW>
-16.9662

>  <SCORE.INTER.norm>
0.0862709

>  <SCORE.INTRA>
0.72967

>  <SCORE.INTRA.DIHEDRAL>
-12.9445

>  <SCORE.INTRA.DIHEDRAL.0>
28.2802

>  <SCORE.INTRA.POLAR>
0

>  <SCORE.INTRA.POLAR.0>
0

>  <SCORE.INTRA.REPUL>
0.0320159

>  <SCORE.INTRA.REPUL.0>
0

>  <SCORE.INTRA.SOLV>
8.66463

>  <SCORE.INTRA.SOLV.lig_0>
-101.981

>  <SCORE.INTRA.VDW>
2.70954

>  <SCORE.INTRA.VDW.0>
-5.72964

>  <SCORE.INTRA.norm>
0.0182418

>  <SCORE.RESTR>
18.1899

>  <SCORE.RESTR.CAVITY>
18.1899

>  <SCORE.RESTR.norm>
0.454747

>  <SCORE.SYSTEM>
0

>  <SCORE.SYSTEM.CONST>
0

>  <SCORE.SYSTEM.DIHEDRAL>
0

>  <SCORE.SYSTEM.SOLV>
0

>  <SCORE.SYSTEM.norm>
0

>  <SCORE.heavy>
40

>  <SCORE.norm>
0.55926

>  <RMSD>
11.728

$$$$
ligand
 OpenBabel11021811503D
libRbt.so/2013.1/901 2013/11/27
 40 42  0  0  0  0  0  0  0  0999 V2000
   10.9770  -10.0476    8.6271 C   0  0  2  0  0  0  0  0  0  0  0  0
    9.6614   -9.4756    8.6978 O   0  0  0  0  0  0  0  0  0  0  0  0
   11.2157  -10.7152    7.2212 C   0  0  1  0  0  0  0  0  0  0  0  0
   10.2822  -11.9418    7.0044 C   0  0  2  0  0  0  0  0  0  0  0  0
   10.5884  -12.9768    8.1327 C   0  0  2  0  0  0  0  0  0  0  0  0
    9.7566  -14.1423    7.9477 O   0  0  0  0  0  0  0  0  0  0  0  0
   10.2963  -12.2913    9.5385 C   0  0  2  0  0  0  0  0  0  0  0  0
   11.1706  -11.0749    9.6998 O   0  0  0  0  0  0  0  0  0  0  0  0
   10.5855  -13.2185   10.7111 C   0  0  0  0  0  0  0  0  0  0  0  0
   10.0457  -12.6672   11.9938 N   0  0  0  0  0  0  0  0  0  0  0  0
    5.7119  -10.2201   10.4803 C   0  0  2  0  0  0  0  0  0  0  0  0
    4.6620  -10.8666   11.2326 N   0  0  0  0  0  0  0  0  0  0  0  0
    6.2116  -11.1860    9.3314 C   0  0  0  0  0  0  0  0  0  0  0  0
    7.3747  -10.4873    8.4948 C   0  0  2  0  0  0  0  0  0  0  0  0
    7.8316  -11.3896    7.4055 N   0  0  0  0  0  0  0  0  0  0  0  0
    8.5782  -10.1140    9.4793 C   0  0  2  0  0  0  0  0  0  0  0  0
    8.0275   -9.1474   10.6126 C   0  0  2  0  0  0  0  0  0  0  0  0
    9.0975   -8.8047   11.4963 O   0  0  0  0  0  0  0  0  0  0  0  0
    6.8735   -9.8507   11.4304 C   0  0  1  0  0  0  0  0  0  0  0  0
    6.3680   -8.9487   12.4460 O   0  0  0  0  0  0  0  0  0  0  0  0
    7.0666   -7.8802   12.9892 C   0  0  2  0  0  0  0  0  0  0  0  0
    6.0935   -7.1268   13.9641 C   0  0  2  0  0  0  0  0  0  0  0  0
    5.6328   -8.0056   14.9391 O   0  0  0  0  0  0  0  0  0  0  0  0
    4.8865   -6.4493   13.1858 C   0  0  1  0  0  0  0  0  0  0  0  0
    3.9798   -5.7274   14.1311 N   0  0  0  0  0  0  0  0  0  0  0  0
    5.4788   -5.4562   12.0931 C   0  0  2  0  0  0  0  0  0  0  0  0
    4.4250   -4.8081   11.3700 O   0  0  0  0  0  0  0  0  0  0  0  0
    6.4152   -6.2861   11.1321 C   0  0  2  0  0  0  0  0  0  0  0  0
    7.5308   -6.9638   11.9162 O   0  0  0  0  0  0  0  0  0  0  0  0
    7.0329   -5.4020   10.0751 C   0  0  0  0  0  0  0  0  0  0  0  0
    7.7775   -4.3040   10.6344 O   0  0  0  0  0  0  0  0  0  0  0  0
   10.9910   -9.7079    6.1922 O   0  0  0  0  0  0  0  0  0  0  0  0
   10.5410  -12.4910    5.7719 O   0  0  0  0  0  0  0  0  0  0  0  0
    3.3047  -10.3926   11.0911 C   0  0  0  0  0  0  0  0  0  0  0  0
    3.0897   -9.2088   10.6942 O   0  0  0  0  0  0  0  0  0  0  0  0
    2.1472  -11.3761   11.4450 C   0  0  2  0  0  0  0  0  0  0  0  0
    4.2677  -14.3536   12.5350 N   0  0  0  0  0  0  0  0  0  0  0  0
    2.6323  -12.4744   12.4410 C   0  0  0  0  0  0  0  0  0  0  0  0
    3.1819  -13.7290   11.7418 C   0  0  0  0  0  0  0  0  0  0  0  0
    1.7137  -12.0082   10.4298 O   0  0  0  0  0  0  0  0  0  0  0  0
  1  2  1  6  0  0  0
  1  3  1  0  0  0  0
  1  8  1  0  0  0  0
  3  4  1  0  0  0  0
  3 32  1  6  0  0  0
  4  5  1  0  0  0  0
  4 33  1  6  0  0  0
  5  6  1  6  0  0  0
  5  7  1  0  0  0  0
  7  8  1  0  0  0  0
  7  9  1  1  0  0  0
  9 10  1  0  0  0  0
 11 12  1  1  0  0  0
 11 13  1  0  0  0  0
 11 19  1  0  0  0  0
 12 34  1  0  0  0  0
 13 14  1  0  0  0  0
 14 15  1  6  0  0  0
 14 16  1  0  0  0  0
 16  2  1  6  0  0  0
 16 17  1  0  0  0  0
 17 18  1  1  0  0  0
 17 19  1  0  0  0  0
 19 20  1  1  0  0  0
 21 20  1  6  0  0  0
 21 22  1  0  0  0  0
 21 29  1  0  0  0  0
 22 23  1  1  0  0  0
 22 24  1  0  0  0  0
 24 25  1  1  0  0  0
 24 26  1  0  0  0  0
 26 27  1  6  0  0  0
 26 28  1  0  0  0  0
 28 29  1  0  0  0  0
 28 30  1  6  0  0  0
 30 31  1  0  0  0  0
 34 35  2  0  0  0  0
 36 34  1  6  0  0  0
 36 38  1  0  0  0  0
 36 40  1  0  0  0  0
 37 39  1  0  0  0  0
 38 39  1  0  0  0  0
M  END
>  <CHROM.1>
105.65401434,-119.39038243,-168.30641770,-108.66048334,-143.21948585,175.80623295
56.85893147,24.06830279,-90.30389906,147.57756166,7.10541534,-9.82204078
10.50541600,-0.65829606,0.49044259,0.28242208

>  <Name>
ligand

>  <RI>
0

>  <Rbt.Current_Directory>
/home/itssahil/PROJECTS/Mol_Feturizer/New_Systems/rnas/4P20

>  <Rbt.Executable>
rbdock ($Id: //depot/dev/client3/rdock/2013.1/src/exe/rbdock.cxx#4 $)

>  <Rbt.Library>
libRbt.so (2013.1, Build901 2013/11/27)

>  <Rbt.Parameter_File>
/export/apps/rDock/src/rDock_2013.1_src/data/scripts/dock_solv.prm

>  <Rbt.Receptor>
prm/blind_docking_20.prm

>  <SCORE>
51.6573

>  <SCORE.INTER>
25.2793

>  <SCORE.INTER.CONST>
1

>  <SCORE.INTER.POLAR>
0

>  <SCORE.INTER.ROT>
10

>  <SCORE.INTER.SOLV>
29.9265

>  <SCORE.INTER.VDW>
-3.3893

>  <SCORE.INTER.norm>
0.631982

>  <SCORE.INTRA>
9.66511

>  <SCORE.INTRA.DIHEDRAL>
-0.701698

>  <SCORE.INTRA.DIHEDRAL.0>
28.2802

>  <SCORE.INTRA.POLAR>
0

>  <SCORE.INTRA.POLAR.0>
0

>  <SCORE.INTRA.REPUL>
0

>  <SCORE.INTRA.REPUL.0>
0

>  <SCORE.INTRA.SOLV>
6.09521

>  <SCORE.INTRA.SOLV.lig_0>
-101.981

>  <SCORE.INTRA.VDW>
6.96835

>  <SCORE.INTRA.VDW.0>
-5.72964

>  <SCORE.INTRA.norm>
0.241628

>  <SCORE.RESTR>
16.7129

>  <SCORE.RESTR.CAVITY>
16.7129

>  <SCORE.RESTR.norm>
0.417823

>  <SCORE.SYSTEM>
0

>  <SCORE.SYSTEM.CONST>
0

>  <SCORE.SYSTEM.DIHEDRAL>
0

>  <SCORE.SYSTEM.SOLV>
0

>  <SCORE.SYSTEM.norm>
0

>  <SCORE.heavy>
40

>  <SCORE.norm>
1.29143

>  <RMSD>
11.747

$$$$
ligand
 OpenBabel11021811503D
libRbt.so/2013.1/901 2013/11/27
 40 42  0  0  0  0  0  0  0  0999 V2000
   11.7769   -1.4842   23.6854 C   0  0  2  0  0  0  0  0  0  0  0  0
   10.5723   -1.5584   24.4641 O   0  0  0  0  0  0  0  0  0  0  0  0
   12.3481   -2.9256   23.4106 C   0  0  1  0  0  0  0  0  0  0  0  0
   12.8159   -3.6157   24.7250 C   0  0  2  0  0  0  0  0  0  0  0  0
   13.9304   -2.7244   25.3587 C   0  0  2  0  0  0  0  0  0  0  0  0
   14.4076   -3.3487   26.5699 O   0  0  0  0  0  0  0  0  0  0  0  0
   13.3144   -1.2901   25.6670 C   0  0  2  0  0  0  0  0  0  0  0  0
   12.8172   -0.6674   24.3882 O   0  0  0  0  0  0  0  0  0  0  0  0
   14.3341   -0.3350   26.2720 C   0  0  0  0  0  0  0  0  0  0  0  0
   14.9705   -0.9141   27.4968 N   0  0  0  0  0  0  0  0  0  0  0  0
    6.2019   -1.5969   23.9868 C   0  0  2  0  0  0  0  0  0  0  0  0
    4.9046   -1.5350   23.3547 N   0  0  0  0  0  0  0  0  0  0  0  0
    6.9713   -0.2350   23.7506 C   0  0  0  0  0  0  0  0  0  0  0  0
    8.4079   -0.2902   24.4390 C   0  0  2  0  0  0  0  0  0  0  0  0
    9.1229    0.9961   24.2302 N   0  0  0  0  0  0  0  0  0  0  0  0
    9.2347   -1.5165   23.8311 C   0  0  2  0  0  0  0  0  0  0  0  0
    8.4229   -2.8564   24.0911 C   0  0  2  0  0  0  0  0  0  0  0  0
    9.1561   -3.9597   23.5543 O   0  0  0  0  0  0  0  0  0  0  0  0
    7.0007   -2.7860   23.4072 C   0  0  1  0  0  0  0  0  0  0  0  0
    6.2653   -4.0067   23.6713 O   0  0  0  0  0  0  0  0  0  0  0  0
    4.8840   -4.1093   23.7520 C   0  0  2  0  0  0  0  0  0  0  0  0
    4.5423   -5.5948   24.1283 C   0  0  2  0  0  0  0  0  0  0  0  0
    5.1666   -5.9312   25.3251 O   0  0  0  0  0  0  0  0  0  0  0  0
    4.9419   -6.6038   22.9692 C   0  0  1  0  0  0  0  0  0  0  0  0
    4.5966   -8.0101   23.3430 N   0  0  0  0  0  0  0  0  0  0  0  0
    4.1935   -6.1682   21.6345 C   0  0  2  0  0  0  0  0  0  0  0  0
    4.5127   -7.0588   20.5583 O   0  0  0  0  0  0  0  0  0  0  0  0
    4.6100   -4.6836   21.3007 C   0  0  2  0  0  0  0  0  0  0  0  0
    4.2597   -3.7513   22.4525 O   0  0  0  0  0  0  0  0  0  0  0  0
    3.9197   -4.1914   20.0510 C   0  0  0  0  0  0  0  0  0  0  0  0
    3.8358   -2.7554   19.9912 O   0  0  0  0  0  0  0  0  0  0  0  0
   11.3102   -3.7121   22.7563 O   0  0  0  0  0  0  0  0  0  0  0  0
   13.3149   -4.8604   24.4258 O   0  0  0  0  0  0  0  0  0  0  0  0
    3.7431   -1.2503   24.1652 C   0  0  0  0  0  0  0  0  0  0  0  0
    3.7715   -1.4844   25.4099 O   0  0  0  0  0  0  0  0  0  0  0  0
    2.4844   -0.6625   23.4562 C   0  0  2  0  0  0  0  0  0  0  0  0
    1.9725   -3.2723   24.4605 N   0  0  0  0  0  0  0  0  0  0  0  0
    1.8285   -1.7198   22.5153 C   0  0  0  0  0  0  0  0  0  0  0  0
    1.1716   -2.8847   23.2746 C   0  0  0  0  0  0  0  0  0  0  0  0
    2.7611    0.3293   22.7093 O   0  0  0  0  0  0  0  0  0  0  0  0
  1  2  1  1  0  0  0
  1  3  1  0  0  0  0
  1  8  1  0  0  0  0
  3  4  1  0  0  0  0
  3 32  1  1  0  0  0
  4  5  1  0  0  0  0
  4 33  1  6  0  0  0
  5  6  1  1  0  0  0
  5  7  1  0  0  0  0
  7  8  1  0  0  0  0
  7  9  1  6  0  0  0
  9 10  1  0  0  0  0
 11 12  1  6  0  0  0
 11 13  1  0  0  0  0
 11 19  1  0  0  0  0
 12 34  1  0  0  0  0
 13 14  1  0  0  0  0
 14 15  1  6  0  0  0
 14 16  1  0  0  0  0
 16  2  1  1  0  0  0
 16 17  1  0  0  0  0
 17 18  1  6  0  0  0
 17 19  1  0  0  0  0
 19 20  1  1  0  0  0
 21 20  1  6  0  0  0
 21 22  1  0  0  0  0
 21 29  1  0  0  0  0
 22 23  1  1  0  0  0
 22 24  1  0  0  0  0
 24 25  1  1  0  0  0
 24 26  1  0  0  0  0
 26 27  1  6  0  0  0
 26 28  1  0  0  0  0
 28 29  1  0  0  0  0
 28 30  1  6  0  0  0
 30 31  1  0  0  0  0
 34 35  2  0  0  0  0
 36 34  1  6  0  0  0
 36 38  1  0  0  0  0
 36 40  1  0  0  0  0
 37 39  1  0  0  0  0
 38 39  1  0  0  0  0
M  END
>  <CHROM.1>
-96.81818774,-122.21225142,-54.77335790,-99.98460042,31.03231181,-177.01413444
157.12681104,68.56266608,69.04849459,-37.90756142,7.48367801,-2.89498534
23.71620777,0.21089811,-0.21111819,0.23565227

>  <Name>
ligand

>  <RI>
0

>  <Rbt.Current_Directory>
/home/itssahil/PROJECTS/Mol_Feturizer/New_Systems/rnas/4P20

>  <Rbt.Executable>
rbdock ($Id: //depot/dev/client3/rdock/2013.1/src/exe/rbdock.cxx#4 $)

>  <Rbt.Library>
libRbt.so (2013.1, Build901 2013/11/27)

>  <Rbt.Parameter_File>
/export/apps/rDock/src/rDock_2013.1_src/data/scripts/dock_solv.prm

>  <Rbt.Receptor>
prm/blind_docking_60.prm

>  <SCORE>
35.0585

>  <SCORE.INTER>
8.73351

>  <SCORE.INTER.CONST>
1

>  <SCORE.INTER.POLAR>
0

>  <SCORE.INTER.ROT>
10

>  <SCORE.INTER.SOLV>
29.8991

>  <SCORE.INTER.VDW>
-14.4107

>  <SCORE.INTER.norm>
0.218338

>  <SCORE.INTRA>
4.23384

>  <SCORE.INTRA.DIHEDRAL>
-7.31993

>  <SCORE.INTRA.DIHEDRAL.0>
28.2802

>  <SCORE.INTRA.POLAR>
0

>  <SCORE.INTRA.POLAR.0>
0

>  <SCORE.INTRA.REPUL>
0.0103855

>  <SCORE.INTRA.REPUL.0>
0

>  <SCORE.INTRA.SOLV>
8.02666

>  <SCORE.INTRA.SOLV.lig_0>
-101.981

>  <SCORE.INTRA.VDW>
3.82855

>  <SCORE.INTRA.VDW.0>
-5.72964

>  <SCORE.INTRA.norm>
0.105846

>  <SCORE.RESTR>
22.0912

>  <SCORE.RESTR.CAVITY>
22.0912

>  <SCORE.RESTR.norm>
0.55228

>  <SCORE.SYSTEM>
0

>  <SCORE.SYSTEM.CONST>
0

>  <SCORE.SYSTEM.DIHEDRAL>
0

>  <SCORE.SYSTEM.SOLV>
0

>  <SCORE.SYSTEM.norm>
0

>  <SCORE.heavy>
40

>  <SCORE.norm>
0.876464

>  <RMSD>
11.777

$$$$
ligand
 OpenBabel11021811503D
libRbt.so/2013.1/901 2013/11/27
 40 42  0  0  0  0  0  0  0  0999 V2000
   10.8354  -10.2023    8.2601 C   0  0  2  0  0  0  0  0  0  0  0  0
    9.4795   -9.7370    8.1694 O   0  0  0  0  0  0  0  0  0  0  0  0
   11.2048  -11.0797    7.0059 C   0  0  1  0  0  0  0  0  0  0  0  0
   10.3779  -12.3979    6.9664 C   0  0  2  0  0  0  0  0  0  0  0  0
   10.6921  -13.1948    8.2720 C   0  0  2  0  0  0  0  0  0  0  0  0
    9.9601  -14.4392    8.2576 O   0  0  0  0  0  0  0  0  0  0  0  0
   10.2682  -12.3042    9.5205 C   0  0  2  0  0  0  0  0  0  0  0  0
   11.0401  -11.0103    9.5046 O   0  0  0  0  0  0  0  0  0  0  0  0
   10.5549  -12.9889   10.8498 C   0  0  0  0  0  0  0  0  0  0  0  0
   10.0164  -12.1997   12.0021 N   0  0  0  0  0  0  0  0  0  0  0  0
    5.6879   -9.8666   10.3911 C   0  0  2  0  0  0  0  0  0  0  0  0
    4.7490  -10.1110   11.4613 N   0  0  0  0  0  0  0  0  0  0  0  0
    6.3383  -11.2347    9.9349 C   0  0  0  0  0  0  0  0  0  0  0  0
    7.3811  -10.9801    8.7566 C   0  0  2  0  0  0  0  0  0  0  0  0
    7.9791  -12.2683    8.3180 N   0  0  0  0  0  0  0  0  0  0  0  0
    8.5065   -9.9627    9.2620 C   0  0  2  0  0  0  0  0  0  0  0  0
    7.8056   -8.6096    9.7092 C   0  0  2  0  0  0  0  0  0  0  0  0
    8.8044   -7.6916   10.1594 O   0  0  0  0  0  0  0  0  0  0  0  0
    6.7726   -8.8774   10.8738 C   0  0  1  0  0  0  0  0  0  0  0  0
    6.1271   -7.6372   11.2556 O   0  0  0  0  0  0  0  0  0  0  0  0
    5.3805   -7.4436   12.4089 C   0  0  2  0  0  0  0  0  0  0  0  0
    5.2668   -5.8953   12.6432 C   0  0  2  0  0  0  0  0  0  0  0  0
    4.6852   -5.2940   11.5317 O   0  0  0  0  0  0  0  0  0  0  0  0
    6.6762   -5.2440   12.9762 C   0  0  1  0  0  0  0  0  0  0  0  0
    6.5430   -3.7725   13.2078 N   0  0  0  0  0  0  0  0  0  0  0  0
    7.2831   -5.9701   14.2551 C   0  0  2  0  0  0  0  0  0  0  0  0
    8.5537   -5.4072   14.6048 O   0  0  0  0  0  0  0  0  0  0  0  0
    7.4003   -7.5105   13.9353 C   0  0  2  0  0  0  0  0  0  0  0  0
    6.0413   -8.0923   13.5704 O   0  0  0  0  0  0  0  0  0  0  0  0
    7.9529   -8.2722   15.1164 C   0  0  0  0  0  0  0  0  0  0  0  0
    8.0124   -9.6918   14.8838 O   0  0  0  0  0  0  0  0  0  0  0  0
   10.9679  -10.2863    5.8066 O   0  0  0  0  0  0  0  0  0  0  0  0
   10.7485  -13.1277    5.8629 O   0  0  0  0  0  0  0  0  0  0  0  0
    3.3358   -9.9633   11.2009 C   0  0  0  0  0  0  0  0  0  0  0  0
    2.9454   -9.2332   10.2420 O   0  0  0  0  0  0  0  0  0  0  0  0
    2.3389  -10.7189   12.1325 C   0  0  2  0  0  0  0  0  0  0  0  0
    2.5518  -13.6402   11.5218 N   0  0  0  0  0  0  0  0  0  0  0  0
    3.0893  -11.7396   13.0428 C   0  0  0  0  0  0  0  0  0  0  0  0
    3.6310  -12.9561   12.2738 C   0  0  0  0  0  0  0  0  0  0  0  0
    1.4876  -11.4066   11.4841 O   0  0  0  0  0  0  0  0  0  0  0  0
  1  2  1  6  0  0  0
  1  3  1  0  0  0  0
  1  8  1  0  0  0  0
  3  4  1  0  0  0  0
  3 32  1  6  0  0  0
  4  5  1  0  0  0  0
  4 33  1  6  0  0  0
  5  6  1  6  0  0  0
  5  7  1  0  0  0  0
  7  8  1  0  0  0  0
  7  9  1  1  0  0  0
  9 10  1  0  0  0  0
 11 12  1  1  0  0  0
 11 13  1  0  0  0  0
 11 19  1  0  0  0  0
 12 34  1  0  0  0  0
 13 14  1  0  0  0  0
 14 15  1  1  0  0  0
 14 16  1  0  0  0  0
 16  2  1  6  0  0  0
 16 17  1  0  0  0  0
 17 18  1  1  0  0  0
 17 19  1  0  0  0  0
 19 20  1  6  0  0  0
 21 20  1  6  0  0  0
 21 22  1  0  0  0  0
 21 29  1  0  0  0  0
 22 23  1  6  0  0  0
 22 24  1  0  0  0  0
 24 25  1  1  0  0  0
 24 26  1  0  0  0  0
 26 27  1  6  0  0  0
 26 28  1  0  0  0  0
 28 29  1  0  0  0  0
 28 30  1  1  0  0  0
 30 31  1  0  0  0  0
 34 35  2  0  0  0  0
 36 34  1  6  0  0  0
 36 38  1  0  0  0  0
 36 40  1  0  0  0  0
 37 39  1  0  0  0  0
 38 39  1  0  0  0  0
M  END
>  <CHROM.1>
126.37422950,-112.42897692,-173.90828659,-109.59605760,74.08014149,162.35718735
177.13727188,-10.86910951,-70.79751350,-55.29998940,7.25303157,-9.80714327
10.78143787,-0.86555883,0.37279527,0.54855498

>  <Name>
ligand

>  <RI>
0

>  <Rbt.Current_Directory>
/home/itssahil/PROJECTS/Mol_Feturizer/New_Systems/rnas/4P20

>  <Rbt.Executable>
rbdock ($Id: //depot/dev/client3/rdock/2013.1/src/exe/rbdock.cxx#4 $)

>  <Rbt.Library>
libRbt.so (2013.1, Build901 2013/11/27)

>  <Rbt.Parameter_File>
/export/apps/rDock/src/rDock_2013.1_src/data/scripts/dock_solv.prm

>  <Rbt.Receptor>
prm/blind_docking_20.prm

>  <SCORE>
24.4078

>  <SCORE.INTER>
6.83281

>  <SCORE.INTER.CONST>
1

>  <SCORE.INTER.POLAR>
0

>  <SCORE.INTER.ROT>
10

>  <SCORE.INTER.SOLV>
28.1698

>  <SCORE.INTER.VDW>
-15.1014

>  <SCORE.INTER.norm>
0.17082

>  <SCORE.INTRA>
4.24875

>  <SCORE.INTRA.DIHEDRAL>
-7.89722

>  <SCORE.INTRA.DIHEDRAL.0>
28.2802

>  <SCORE.INTRA.POLAR>
0

>  <SCORE.INTRA.POLAR.0>
0

>  <SCORE.INTRA.REPUL>
0.0771531

>  <SCORE.INTRA.REPUL.0>
0

>  <SCORE.INTRA.SOLV>
8.32499

>  <SCORE.INTRA.SOLV.lig_0>
-101.981

>  <SCORE.INTRA.VDW>
3.6491

>  <SCORE.INTRA.VDW.0>
-5.72964

>  <SCORE.INTRA.norm>
0.106219

>  <SCORE.RESTR>
13.3263

>  <SCORE.RESTR.CAVITY>
13.3263

>  <SCORE.RESTR.norm>
0.333156

>  <SCORE.SYSTEM>
0

>  <SCORE.SYSTEM.CONST>
0

>  <SCORE.SYSTEM.DIHEDRAL>
0

>  <SCORE.SYSTEM.SOLV>
0

>  <SCORE.SYSTEM.norm>
0

>  <SCORE.heavy>
40

>  <SCORE.norm>
0.610195

>  <RMSD>
11.816

$$$$
ligand
 OpenBabel11021811503D
libRbt.so/2013.1/901 2013/11/27
 40 42  0  0  0  0  0  0  0  0999 V2000
   10.6129   -9.9697    8.2643 C   0  0  2  0  0  0  0  0  0  0  0  0
    9.2080   -9.6738    8.2224 O   0  0  0  0  0  0  0  0  0  0  0  0
   11.0716  -10.6688    6.9301 C   0  0  1  0  0  0  0  0  0  0  0  0
   10.4172  -12.0714    6.7649 C   0  0  2  0  0  0  0  0  0  0  0  0
   10.8485  -12.9434    7.9863 C   0  0  2  0  0  0  0  0  0  0  0  0
   10.2793  -14.2635    7.8530 O   0  0  0  0  0  0  0  0  0  0  0  0
   10.3341  -12.2377    9.3163 C   0  0  2  0  0  0  0  0  0  0  0  0
   10.9363  -10.8607    9.4241 O   0  0  0  0  0  0  0  0  0  0  0  0
   10.7244  -13.0047   10.5723 C   0  0  0  0  0  0  0  0  0  0  0  0
    9.9023  -14.2448   10.7367 N   0  0  0  0  0  0  0  0  0  0  0  0
    5.6010   -9.9046   10.7255 C   0  0  2  0  0  0  0  0  0  0  0  0
    4.7567  -10.1554   11.8704 N   0  0  0  0  0  0  0  0  0  0  0  0
    6.2837  -11.2556   10.2655 C   0  0  0  0  0  0  0  0  0  0  0  0
    7.2231  -10.9936    9.0047 C   0  0  2  0  0  0  0  0  0  0  0  0
    7.8509  -12.2667    8.5636 N   0  0  0  0  0  0  0  0  0  0  0  0
    8.3303   -9.9067    9.3916 C   0  0  2  0  0  0  0  0  0  0  0  0
    7.5975   -8.5734    9.8469 C   0  0  2  0  0  0  0  0  0  0  0  0
    8.5795   -7.5936   10.1916 O   0  0  0  0  0  0  0  0  0  0  0  0
    6.6674   -8.8486   11.0937 C   0  0  1  0  0  0  0  0  0  0  0  0
    5.9905   -7.6277   11.4834 O   0  0  0  0  0  0  0  0  0  0  0  0
    5.4636   -7.3690   12.7405 C   0  0  2  0  0  0  0  0  0  0  0  0
    5.4119   -5.8100   12.9188 C   0  0  2  0  0  0  0  0  0  0  0  0
    4.6489   -5.2463   11.9013 O   0  0  0  0  0  0  0  0  0  0  0  0
    6.8657   -5.1731   12.9659 C   0  0  1  0  0  0  0  0  0  0  0  0
    6.7934   -3.6905   13.1487 N   0  0  0  0  0  0  0  0  0  0  0  0
    7.6819   -5.8545   14.1494 C   0  0  2  0  0  0  0  0  0  0  0  0
    9.0011   -5.3025   14.2416 O   0  0  0  0  0  0  0  0  0  0  0  0
    7.7219   -7.4095   13.8860 C   0  0  2  0  0  0  0  0  0  0  0  0
    6.3128   -7.9794   13.7954 O   0  0  0  0  0  0  0  0  0  0  0  0
    8.4669   -8.1298   14.9845 C   0  0  0  0  0  0  0  0  0  0  0  0
    7.7955   -8.0510   16.2557 O   0  0  0  0  0  0  0  0  0  0  0  0
   10.7189   -9.8005    5.8139 O   0  0  0  0  0  0  0  0  0  0  0  0
   10.8606  -12.6390    5.5949 O   0  0  0  0  0  0  0  0  0  0  0  0
    3.3242  -10.1991   11.6884 C   0  0  0  0  0  0  0  0  0  0  0  0
    2.7977   -9.6132   10.6962 O   0  0  0  0  0  0  0  0  0  0  0  0
    2.4776  -10.9751   12.7437 C   0  0  2  0  0  0  0  0  0  0  0  0
    2.1340  -12.2243   10.1984 N   0  0  0  0  0  0  0  0  0  0  0  0
    2.6932  -12.5143   12.6104 C   0  0  0  0  0  0  0  0  0  0  0  0
    2.0079  -13.1191   11.3737 C   0  0  0  0  0  0  0  0  0  0  0  0
    1.2270  -10.7949   12.5969 O   0  0  0  0  0  0  0  0  0  0  0  0
  1  2  1  6  0  0  0
  1  3  1  0  0  0  0
  1  8  1  0  0  0  0
  3  4  1  0  0  0  0
  3 32  1  6  0  0  0
  4  5  1  0  0  0  0
  4 33  1  6  0  0  0
  5  6  1  6  0  0  0
  5  7  1  0  0  0  0
  7  8  1  0  0  0  0
  7  9  1  1  0  0  0
  9 10  1  0  0  0  0
 11 12  1  1  0  0  0
 11 13  1  0  0  0  0
 11 19  1  0  0  0  0
 12 34  1  0  0  0  0
 13 14  1  0  0  0  0
 14 15  1  1  0  0  0
 14 16  1  0  0  0  0
 16  2  1  6  0  0  0
 16 17  1  0  0  0  0
 17 18  1  1  0  0  0
 17 19  1  0  0  0  0
 19 20  1  6  0  0  0
 21 20  1  6  0  0  0
 21 22  1  0  0  0  0
 21 29  1  0  0  0  0
 22 23  1  6  0  0  0
 22 24  1  0  0  0  0
 24 25  1  1  0  0  0
 24 26  1  0  0  0  0
 26 27  1  6  0  0  0
 26 28  1  0  0  0  0
 28 29  1  0  0  0  0
 28 30  1  1  0  0  0
 30 31  1  0  0  0  0
 34 35  2  0  0  0  0
 36 34  1  6  0  0  0
 36 38  1  0  0  0  0
 36 40  1  0  0  0  0
 37 39  1  0  0  0  0
 38 39  1  0  0  0  0
M  END
>  <CHROM.1>
137.50470612,-117.62457164,-73.86494323,-104.27106757,82.40609881,155.57809082
65.79756380,-71.33904043,-73.18819365,39.65203272,7.20486014,-9.71017316
10.81599722,-0.87926574,0.36303838,0.60220065

>  <Name>
ligand

>  <RI>
0

>  <Rbt.Current_Directory>
/home/itssahil/PROJECTS/Mol_Feturizer/New_Systems/rnas/4P20

>  <Rbt.Executable>
rbdock ($Id: //depot/dev/client3/rdock/2013.1/src/exe/rbdock.cxx#4 $)

>  <Rbt.Library>
libRbt.so (2013.1, Build901 2013/11/27)

>  <Rbt.Parameter_File>
/export/apps/rDock/src/rDock_2013.1_src/data/scripts/dock_solv.prm

>  <Rbt.Receptor>
prm/blind_docking_20.prm

>  <SCORE>
23.5763

>  <SCORE.INTER>
5.98726

>  <SCORE.INTER.CONST>
1

>  <SCORE.INTER.POLAR>
0

>  <SCORE.INTER.ROT>
10

>  <SCORE.INTER.SOLV>
29.3812

>  <SCORE.INTER.VDW>
-16.0689

>  <SCORE.INTER.norm>
0.149682

>  <SCORE.INTRA>
4.52916

>  <SCORE.INTRA.DIHEDRAL>
-5.78735

>  <SCORE.INTRA.DIHEDRAL.0>
28.2802

>  <SCORE.INTRA.POLAR>
0

>  <SCORE.INTRA.POLAR.0>
0

>  <SCORE.INTRA.REPUL>
0

>  <SCORE.INTRA.REPUL.0>
0

>  <SCORE.INTRA.SOLV>
10.5373

>  <SCORE.INTRA.SOLV.lig_0>
-101.981

>  <SCORE.INTRA.VDW>
2.15416

>  <SCORE.INTRA.VDW.0>
-5.72964

>  <SCORE.INTRA.norm>
0.113229

>  <SCORE.RESTR>
13.0599

>  <SCORE.RESTR.CAVITY>
13.0599

>  <SCORE.RESTR.norm>
0.326497

>  <SCORE.SYSTEM>
0

>  <SCORE.SYSTEM.CONST>
0

>  <SCORE.SYSTEM.DIHEDRAL>
0

>  <SCORE.SYSTEM.SOLV>
0

>  <SCORE.SYSTEM.norm>
0

>  <SCORE.heavy>
40

>  <SCORE.norm>
0.589407

>  <RMSD>
11.833

$$$$
ligand
 OpenBabel11021811503D
libRbt.so/2013.1/901 2013/11/27
 40 42  0  0  0  0  0  0  0  0999 V2000
   11.3211  -10.2808    8.2046 C   0  0  2  0  0  0  0  0  0  0  0  0
   10.2710   -9.3832    8.5977 O   0  0  0  0  0  0  0  0  0  0  0  0
   10.9988  -10.9322    6.8078 C   0  0  1  0  0  0  0  0  0  0  0  0
    9.7492  -11.8573    6.8827 C   0  0  2  0  0  0  0  0  0  0  0  0
   10.0513  -12.9799    7.9252 C   0  0  2  0  0  0  0  0  0  0  0  0
    8.9207  -13.8744    8.0022 O   0  0  0  0  0  0  0  0  0  0  0  0
   10.3289  -12.2970    9.3352 C   0  0  2  0  0  0  0  0  0  0  0  0
   11.5064  -11.3638    9.2226 O   0  0  0  0  0  0  0  0  0  0  0  0
   10.6555  -13.3129   10.4213 C   0  0  0  0  0  0  0  0  0  0  0  0
   10.3706  -12.7689   11.7864 N   0  0  0  0  0  0  0  0  0  0  0  0
    6.3958   -9.3739   10.6744 C   0  0  2  0  0  0  0  0  0  0  0  0
    5.2113   -9.8634   11.3406 N   0  0  0  0  0  0  0  0  0  0  0  0
    6.4610   -9.9652    9.2084 C   0  0  0  0  0  0  0  0  0  0  0  0
    7.7666   -9.4372    8.4618 C   0  0  2  0  0  0  0  0  0  0  0  0
    7.8178   -9.9806    7.0791 N   0  0  0  0  0  0  0  0  0  0  0  0
    9.0598   -9.8651    9.2993 C   0  0  2  0  0  0  0  0  0  0  0  0
    8.9468   -9.2507   10.7593 C   0  0  2  0  0  0  0  0  0  0  0  0
   10.1009   -9.6247   11.5153 O   0  0  0  0  0  0  0  0  0  0  0  0
    7.6472   -9.7789   11.4855 C   0  0  1  0  0  0  0  0  0  0  0  0
    7.5480   -9.1932   12.8075 O   0  0  0  0  0  0  0  0  0  0  0  0
    8.0704   -7.9633   13.1810 C   0  0  2  0  0  0  0  0  0  0  0  0
    7.6921   -7.7275   14.6864 C   0  0  2  0  0  0  0  0  0  0  0  0
    8.1884   -8.7689   15.4638 O   0  0  0  0  0  0  0  0  0  0  0  0
    6.1250   -7.5620   14.8819 C   0  0  1  0  0  0  0  0  0  0  0  0
    5.7883   -7.3260   16.3199 N   0  0  0  0  0  0  0  0  0  0  0  0
    5.6232   -6.3562   13.9733 C   0  0  2  0  0  0  0  0  0  0  0  0
    4.2121   -6.1577   14.1250 O   0  0  0  0  0  0  0  0  0  0  0  0
    6.0053   -6.6775   12.4768 C   0  0  2  0  0  0  0  0  0  0  0  0
    7.5075   -6.8809   12.3336 O   0  0  0  0  0  0  0  0  0  0  0  0
    5.5764   -5.5626   11.5530 C   0  0  0  0  0  0  0  0  0  0  0  0
    6.1150   -5.7026   10.2251 O   0  0  0  0  0  0  0  0  0  0  0  0
   10.7907   -9.8618    5.8408 O   0  0  0  0  0  0  0  0  0  0  0  0
    9.5222  -12.4069    5.6441 O   0  0  0  0  0  0  0  0  0  0  0  0
    3.9155   -9.5606   10.7783 C   0  0  0  0  0  0  0  0  0  0  0  0
    3.7795   -8.5596   10.0138 O   0  0  0  0  0  0  0  0  0  0  0  0
    2.7224  -10.4938   11.1498 C   0  0  2  0  0  0  0  0  0  0  0  0
    2.4210  -13.5582   11.6688 N   0  0  0  0  0  0  0  0  0  0  0  0
    3.0124  -11.2727   12.4699 C   0  0  0  0  0  0  0  0  0  0  0  0
    2.1084  -12.5020   12.6613 C   0  0  0  0  0  0  0  0  0  0  0  0
    2.5071  -11.3873   10.2704 O   0  0  0  0  0  0  0  0  0  0  0  0
  1  2  1  1  0  0  0
  1  3  1  0  0  0  0
  1  8  1  0  0  0  0
  3  4  1  0  0  0  0
  3 32  1  6  0  0  0
  4  5  1  0  0  0  0
  4 33  1  6  0  0  0
  5  6  1  1  0  0  0
  5  7  1  0  0  0  0
  7  8  1  0  0  0  0
  7  9  1  1  0  0  0
  9 10  1  0  0  0  0
 11 12  1  1  0  0  0
 11 13  1  0  0  0  0
 11 19  1  0  0  0  0
 12 34  1  0  0  0  0
 13 14  1  0  0  0  0
 14 15  1  6  0  0  0
 14 16  1  0  0  0  0
 16  2  1  6  0  0  0
 16 17  1  0  0  0  0
 17 18  1  1  0  0  0
 17 19  1  0  0  0  0
 19 20  1  1  0  0  0
 21 20  1  6  0  0  0
 21 22  1  0  0  0  0
 21 29  1  0  0  0  0
 22 23  1  1  0  0  0
 22 24  1  0  0  0  0
 24 25  1  1  0  0  0
 24 26  1  0  0  0  0
 26 27  1  6  0  0  0
 26 28  1  0  0  0  0
 28 29  1  0  0  0  0
 28 30  1  6  0  0  0
 30 31  1  0  0  0  0
 34 35  2  0  0  0  0
 36 34  1  6  0  0  0
 36 38  1  0  0  0  0
 36 40  1  0  0  0  0
 37 39  1  0  0  0  0
 38 39  1  0  0  0  0
M  END
>  <CHROM.1>
85.24018249,-123.48348849,-156.90182213,-60.36188760,-92.25337041,178.61218602
169.52534087,21.36386366,-162.08840101,68.43246659,7.33250675,-9.78491691
10.72171875,-0.84484716,0.27706725,0.77852924

>  <Name>
ligand

>  <RI>
0

>  <Rbt.Current_Directory>
/home/itssahil/PROJECTS/Mol_Feturizer/New_Systems/rnas/4P20

>  <Rbt.Executable>
rbdock ($Id: //depot/dev/client3/rdock/2013.1/src/exe/rbdock.cxx#4 $)

>  <Rbt.Library>
libRbt.so (2013.1, Build901 2013/11/27)

>  <Rbt.Parameter_File>
/export/apps/rDock/src/rDock_2013.1_src/data/scripts/dock_solv.prm

>  <Rbt.Receptor>
prm/blind_docking_20.prm

>  <SCORE>
24.1133

>  <SCORE.INTER>
6.70427

>  <SCORE.INTER.CONST>
1

>  <SCORE.INTER.POLAR>
0

>  <SCORE.INTER.ROT>
10

>  <SCORE.INTER.SOLV>
26.7156

>  <SCORE.INTER.VDW>
-14.7023

>  <SCORE.INTER.norm>
0.167607

>  <SCORE.INTRA>
2.38304

>  <SCORE.INTRA.DIHEDRAL>
-9.01179

>  <SCORE.INTRA.DIHEDRAL.0>
28.2802

>  <SCORE.INTRA.POLAR>
0

>  <SCORE.INTRA.POLAR.0>
0

>  <SCORE.INTRA.REPUL>
0

>  <SCORE.INTRA.REPUL.0>
0

>  <SCORE.INTRA.SOLV>
7.54954

>  <SCORE.INTRA.SOLV.lig_0>
-101.981

>  <SCORE.INTRA.VDW>
3.11416

>  <SCORE.INTRA.VDW.0>
-5.72964

>  <SCORE.INTRA.norm>
0.0595759

>  <SCORE.RESTR>
15.026

>  <SCORE.RESTR.CAVITY>
15.026

>  <SCORE.RESTR.norm>
0.375649

>  <SCORE.SYSTEM>
0

>  <SCORE.SYSTEM.CONST>
0

>  <SCORE.SYSTEM.DIHEDRAL>
0

>  <SCORE.SYSTEM.SOLV>
0

>  <SCORE.SYSTEM.norm>
0

>  <SCORE.heavy>
40

>  <SCORE.norm>
0.602832

>  <RMSD>
11.840

$$$$
ligand
 OpenBabel11021811503D
libRbt.so/2013.1/901 2013/11/27
 40 42  0  0  0  0  0  0  0  0999 V2000
   11.2297  -10.4028    8.1600 C   0  0  2  0  0  0  0  0  0  0  0  0
   10.1213   -9.5105    8.3559 O   0  0  0  0  0  0  0  0  0  0  0  0
   11.0391  -11.2412    6.8409 C   0  0  1  0  0  0  0  0  0  0  0  0
    9.8209  -12.2045    6.9463 C   0  0  2  0  0  0  0  0  0  0  0  0
   10.0813  -13.1699    8.1456 C   0  0  2  0  0  0  0  0  0  0  0  0
    8.9804  -14.0972    8.2576 O   0  0  0  0  0  0  0  0  0  0  0  0
   10.2251  -12.3007    9.4705 C   0  0  2  0  0  0  0  0  0  0  0  0
   11.3741  -11.3374    9.3216 O   0  0  0  0  0  0  0  0  0  0  0  0
   10.5028  -13.1537   10.7007 C   0  0  0  0  0  0  0  0  0  0  0  0
    9.3187  -13.9933   11.0660 N   0  0  0  0  0  0  0  0  0  0  0  0
    6.4521   -9.2157   10.7600 C   0  0  2  0  0  0  0  0  0  0  0  0
    5.2960   -9.6167   11.5275 N   0  0  0  0  0  0  0  0  0  0  0  0
    6.3453   -9.8047    9.2956 C   0  0  0  0  0  0  0  0  0  0  0  0
    7.6177   -9.3743    8.4373 C   0  0  2  0  0  0  0  0  0  0  0  0
    7.5078   -9.9147    7.0569 N   0  0  0  0  0  0  0  0  0  0  0  0
    8.9423   -9.9020    9.1611 C   0  0  2  0  0  0  0  0  0  0  0  0
    9.0028   -9.2863   10.6236 C   0  0  2  0  0  0  0  0  0  0  0  0
   10.1863   -9.7495   11.2780 O   0  0  0  0  0  0  0  0  0  0  0  0
    7.7346   -9.7174   11.4609 C   0  0  1  0  0  0  0  0  0  0  0  0
    7.7947   -9.1308   12.7849 O   0  0  0  0  0  0  0  0  0  0  0  0
    8.2125   -7.8392   13.0716 C   0  0  2  0  0  0  0  0  0  0  0  0
    7.8050   -7.5300   14.5560 C   0  0  2  0  0  0  0  0  0  0  0  0
    8.3785   -8.4703   15.4058 O   0  0  0  0  0  0  0  0  0  0  0  0
    6.2282   -7.4797   14.7365 C   0  0  1  0  0  0  0  0  0  0  0  0
    5.8626   -7.1716   16.1537 N   0  0  0  0  0  0  0  0  0  0  0  0
    5.6368   -6.3856   13.7442 C   0  0  2  0  0  0  0  0  0  0  0  0
    4.2132   -6.2929   13.8790 O   0  0  0  0  0  0  0  0  0  0  0  0
    6.0551   -6.7789   12.2748 C   0  0  2  0  0  0  0  0  0  0  0  0
    7.5699   -6.8685   12.1490 O   0  0  0  0  0  0  0  0  0  0  0  0
    5.5439   -5.7703   11.2738 C   0  0  0  0  0  0  0  0  0  0  0  0
    6.0484   -4.4435   11.5144 O   0  0  0  0  0  0  0  0  0  0  0  0
   10.8685  -10.3137    5.7298 O   0  0  0  0  0  0  0  0  0  0  0  0
    9.7096  -12.9175    5.7771 O   0  0  0  0  0  0  0  0  0  0  0  0
    3.9880   -9.5326   10.9199 C   0  0  0  0  0  0  0  0  0  0  0  0
    3.7945   -8.7414    9.9496 O   0  0  0  0  0  0  0  0  0  0  0  0
    2.8540  -10.4321   11.5008 C   0  0  2  0  0  0  0  0  0  0  0  0
    3.3009   -9.1276   15.1427 N   0  0  0  0  0  0  0  0  0  0  0  0
    2.4864   -9.9989   12.9536 C   0  0  0  0  0  0  0  0  0  0  0  0
    3.7057   -9.5691   13.7865 C   0  0  0  0  0  0  0  0  0  0  0  0
    3.1947  -11.6545   11.5885 O   0  0  0  0  0  0  0  0  0  0  0  0
  1  2  1  1  0  0  0
  1  3  1  0  0  0  0
  1  8  1  0  0  0  0
  3  4  1  0  0  0  0
  3 32  1  6  0  0  0
  4  5  1  0  0  0  0
  4 33  1  6  0  0  0
  5  6  1  1  0  0  0
  5  7  1  0  0  0  0
  7  8  1  0  0  0  0
  7  9  1  1  0  0  0
  9 10  1  0  0  0  0
 11 12  1  1  0  0  0
 11 13  1  0  0  0  0
 11 19  1  0  0  0  0
 12 34  1  0  0  0  0
 13 14  1  0  0  0  0
 14 15  1  6  0  0  0
 14 16  1  0  0  0  0
 16  2  1  6  0  0  0
 16 17  1  0  0  0  0
 17 18  1  1  0  0  0
 17 19  1  0  0  0  0
 19 20  1  1  0  0  0
 21 20  1  6  0  0  0
 21 22  1  0  0  0  0
 21 29  1  0  0  0  0
 22 23  1  1  0  0  0
 22 24  1  0  0  0  0
 24 25  1  1  0  0  0
 24 26  1  0  0  0  0
 26 27  1  6  0  0  0
 26 28  1  0  0  0  0
 28 29  1  0  0  0  0
 28 30  1  6  0  0  0
 30 31  1  0  0  0  0
 34 35  2  0  0  0  0
 36 34  1  1  0  0  0
 36 38  1  0  0  0  0
 36 40  1  0  0  0  0
 37 39  1  0  0  0  0
 38 39  1  0  0  0  0
M  END
>  <CHROM.1>
92.44509397,-139.43294881,-68.46010463,-44.18158265,-79.42660694,167.17260967
59.85822268,66.43565341,-37.82845371,178.24268936,7.39061856,-9.60725450
10.88191771,-0.91603550,0.24035573,0.76744679

>  <Name>
ligand

>  <RI>
0

>  <Rbt.Current_Directory>
/home/itssahil/PROJECTS/Mol_Feturizer/New_Systems/rnas/4P20

>  <Rbt.Executable>
rbdock ($Id: //depot/dev/client3/rdock/2013.1/src/exe/rbdock.cxx#4 $)

>  <Rbt.Library>
libRbt.so (2013.1, Build901 2013/11/27)

>  <Rbt.Parameter_File>
/export/apps/rDock/src/rDock_2013.1_src/data/scripts/dock_solv.prm

>  <Rbt.Receptor>
prm/blind_docking_20.prm

>  <SCORE>
20.6507

>  <SCORE.INTER>
3.26171

>  <SCORE.INTER.CONST>
1

>  <SCORE.INTER.POLAR>
0

>  <SCORE.INTER.ROT>
10

>  <SCORE.INTER.SOLV>
19.1576

>  <SCORE.INTER.VDW>
-14.478

>  <SCORE.INTER.norm>
0.0815427

>  <SCORE.INTRA>
-0.0239875

>  <SCORE.INTRA.DIHEDRAL>
-13.3938

>  <SCORE.INTRA.DIHEDRAL.0>
28.2802

>  <SCORE.INTRA.POLAR>
0

>  <SCORE.INTRA.POLAR.0>
0

>  <SCORE.INTRA.REPUL>
0

>  <SCORE.INTRA.REPUL.0>
0

>  <SCORE.INTRA.SOLV>
8.29678

>  <SCORE.INTRA.SOLV.lig_0>
-101.981

>  <SCORE.INTRA.VDW>
2.52455

>  <SCORE.INTRA.VDW.0>
-5.72964

>  <SCORE.INTRA.norm>
-0.000599688

>  <SCORE.RESTR>
17.413

>  <SCORE.RESTR.CAVITY>
17.413

>  <SCORE.RESTR.norm>
0.435325

>  <SCORE.SYSTEM>
0

>  <SCORE.SYSTEM.CONST>
0

>  <SCORE.SYSTEM.DIHEDRAL>
0

>  <SCORE.SYSTEM.SOLV>
0

>  <SCORE.SYSTEM.norm>
0

>  <SCORE.heavy>
40

>  <SCORE.norm>
0.516268

>  <RMSD>
11.900

$$$$
ligand
 OpenBabel11021811503D
libRbt.so/2013.1/901 2013/11/27
 40 42  0  0  0  0  0  0  0  0999 V2000
   10.3981  -10.8023    9.2455 C   0  0  2  0  0  0  0  0  0  0  0  0
    9.7630  -11.8016   10.0585 O   0  0  0  0  0  0  0  0  0  0  0  0
    9.6658  -10.6701    7.8578 C   0  0  1  0  0  0  0  0  0  0  0  0
    9.8120  -11.9660    7.0081 C   0  0  2  0  0  0  0  0  0  0  0  0
   11.3362  -12.2103    6.7730 C   0  0  2  0  0  0  0  0  0  0  0  0
   11.5092  -13.3935    5.9639 O   0  0  0  0  0  0  0  0  0  0  0  0
   12.0429  -12.3848    8.1878 C   0  0  2  0  0  0  0  0  0  0  0  0
   11.8385  -11.1404    9.0125 O   0  0  0  0  0  0  0  0  0  0  0  0
   13.5440  -12.6090    8.0665 C   0  0  0  0  0  0  0  0  0  0  0  0
   14.2515  -11.3661    7.6247 N   0  0  0  0  0  0  0  0  0  0  0  0
    5.6248  -10.6787   11.0306 C   0  0  2  0  0  0  0  0  0  0  0  0
    4.4378  -10.4111   11.8089 N   0  0  0  0  0  0  0  0  0  0  0  0
    6.0612  -12.1859   11.2320 C   0  0  0  0  0  0  0  0  0  0  0  0
    7.3739  -12.4951   10.3822 C   0  0  2  0  0  0  0  0  0  0  0  0
    7.7730  -13.9159   10.5597 N   0  0  0  0  0  0  0  0  0  0  0  0
    8.5422  -11.5046   10.8415 C   0  0  2  0  0  0  0  0  0  0  0  0
    8.0568  -10.0086   10.6222 C   0  0  2  0  0  0  0  0  0  0  0  0
    9.0965   -9.1149   11.0267 O   0  0  0  0  0  0  0  0  0  0  0  0
    6.7538   -9.7177   11.4665 C   0  0  1  0  0  0  0  0  0  0  0  0
    6.3122   -8.3561   11.2392 O   0  0  0  0  0  0  0  0  0  0  0  0
    5.4118   -7.6617   12.0341 C   0  0  2  0  0  0  0  0  0  0  0  0
    5.6896   -6.1294   11.8341 C   0  0  2  0  0  0  0  0  0  0  0  0
    5.5658   -5.8019   10.4878 O   0  0  0  0  0  0  0  0  0  0  0  0
    7.1134   -5.7096   12.3982 C   0  0  1  0  0  0  0  0  0  0  0  0
    7.3520   -4.2453   12.2089 N   0  0  0  0  0  0  0  0  0  0  0  0
    7.1881   -6.1053   13.9373 C   0  0  2  0  0  0  0  0  0  0  0  0
    8.4537   -5.7338   14.4974 O   0  0  0  0  0  0  0  0  0  0  0  0
    6.9349   -7.6579   14.0575 C   0  0  2  0  0  0  0  0  0  0  0  0
    5.5849   -8.0337   13.4618 O   0  0  0  0  0  0  0  0  0  0  0  0
    6.9709   -8.1064   15.4990 C   0  0  0  0  0  0  0  0  0  0  0  0
    8.2778   -7.9770   16.0890 O   0  0  0  0  0  0  0  0  0  0  0  0
    8.2611  -10.3733    8.1082 O   0  0  0  0  0  0  0  0  0  0  0  0
    9.1675  -11.7910    5.8074 O   0  0  0  0  0  0  0  0  0  0  0  0
    3.1827  -10.9950   11.3957 C   0  0  0  0  0  0  0  0  0  0  0  0
    3.0188  -11.3464   10.1896 O   0  0  0  0  0  0  0  0  0  0  0  0
    2.0665  -11.1635   12.4719 C   0  0  2  0  0  0  0  0  0  0  0  0
    2.1642  -13.8465   11.5252 N   0  0  0  0  0  0  0  0  0  0  0  0
    2.4214  -12.3085   13.4702 C   0  0  0  0  0  0  0  0  0  0  0  0
    2.9170  -13.5882   12.7761 C   0  0  0  0  0  0  0  0  0  0  0  0
    0.9452  -11.4900   11.9679 O   0  0  0  0  0  0  0  0  0  0  0  0
  1  2  1  1  0  0  0
  1  3  1  0  0  0  0
  1  8  1  0  0  0  0
  3  4  1  0  0  0  0
  3 32  1  1  0  0  0
  4  5  1  0  0  0  0
  4 33  1  6  0  0  0
  5  6  1  6  0  0  0
  5  7  1  0  0  0  0
  7  8  1  0  0  0  0
  7  9  1  6  0  0  0
  9 10  1  0  0  0  0
 11 12  1  1  0  0  0
 11 13  1  0  0  0  0
 11 19  1  0  0  0  0
 12 34  1  0  0  0  0
 13 14  1  0  0  0  0
 14 15  1  1  0  0  0
 14 16  1  0  0  0  0
 16  2  1  6  0  0  0
 16 17  1  0  0  0  0
 17 18  1  1  0  0  0
 17 19  1  0  0  0  0
 19 20  1  6  0  0  0
 21 20  1  6  0  0  0
 21 22  1  0  0  0  0
 21 29  1  0  0  0  0
 22 23  1  6  0  0  0
 22 24  1  0  0  0  0
 24 25  1  1  0  0  0
 24 26  1  0  0  0  0
 26 27  1  6  0  0  0
 26 28  1  0  0  0  0
 28 29  1  0  0  0  0
 28 30  1  1  0  0  0
 30 31  1  0  0  0  0
 34 35  2  0  0  0  0
 36 34  1  6  0  0  0
 36 38  1  0  0  0  0
 36 40  1  0  0  0  0
 37 39  1  0  0  0  0
 38 39  1  0  0  0  0
M  END
>  <CHROM.1>
-81.43880644,121.48004076,70.67781973,-70.78411922,76.18797648,155.67270231
-66.54807663,-72.24282177,-46.19470337,-38.43792996,7.33360195,-10.15696532
10.84886221,-0.63073323,0.38363745,0.58749669

>  <Name>
ligand

>  <RI>
0

>  <Rbt.Current_Directory>
/home/itssahil/PROJECTS/Mol_Feturizer/New_Systems/rnas/4P20

>  <Rbt.Executable>
rbdock ($Id: //depot/dev/client3/rdock/2013.1/src/exe/rbdock.cxx#4 $)

>  <Rbt.Library>
libRbt.so (2013.1, Build901 2013/11/27)

>  <Rbt.Parameter_File>
/export/apps/rDock/src/rDock_2013.1_src/data/scripts/dock_solv.prm

>  <Rbt.Receptor>
prm/blind_docking_20.prm

>  <SCORE>
22.7378

>  <SCORE.INTER>
5.16367

>  <SCORE.INTER.CONST>
1

>  <SCORE.INTER.POLAR>
0

>  <SCORE.INTER.ROT>
10

>  <SCORE.INTER.SOLV>
22.6679

>  <SCORE.INTER.VDW>
-14.3802

>  <SCORE.INTER.norm>
0.129092

>  <SCORE.INTRA>
0.750929

>  <SCORE.INTRA.DIHEDRAL>
-11.454

>  <SCORE.INTRA.DIHEDRAL.0>
28.2802

>  <SCORE.INTRA.POLAR>
0

>  <SCORE.INTRA.POLAR.0>
0

>  <SCORE.INTRA.REPUL>
0.000304546

>  <SCORE.INTRA.REPUL.0>
0

>  <SCORE.INTRA.SOLV>
4.91637

>  <SCORE.INTRA.SOLV.lig_0>
-101.981

>  <SCORE.INTRA.VDW>
4.01824

>  <SCORE.INTRA.VDW.0>
-5.72964

>  <SCORE.INTRA.norm>
0.0187732

>  <SCORE.RESTR>
16.8232

>  <SCORE.RESTR.CAVITY>
16.8232

>  <SCORE.RESTR.norm>
0.42058

>  <SCORE.SYSTEM>
0

>  <SCORE.SYSTEM.CONST>
0

>  <SCORE.SYSTEM.DIHEDRAL>
0

>  <SCORE.SYSTEM.SOLV>
0

>  <SCORE.SYSTEM.norm>
0

>  <SCORE.heavy>
40

>  <SCORE.norm>
0.568445

>  <RMSD>
11.921

$$$$
ligand
 OpenBabel11021811503D
libRbt.so/2013.1/901 2013/11/27
 40 42  0  0  0  0  0  0  0  0999 V2000
    9.0263  -11.8955    7.8831 C   0  0  2  0  0  0  0  0  0  0  0  0
    9.0029  -10.6375    8.5759 O   0  0  0  0  0  0  0  0  0  0  0  0
    9.7668  -12.9873    8.7426 C   0  0  1  0  0  0  0  0  0  0  0  0
   11.2761  -12.6499    8.9189 C   0  0  2  0  0  0  0  0  0  0  0  0
   11.9168  -12.5821    7.4965 C   0  0  2  0  0  0  0  0  0  0  0  0
   13.3262  -12.2958    7.6228 O   0  0  0  0  0  0  0  0  0  0  0  0
   11.1806  -11.4421    6.6658 C   0  0  2  0  0  0  0  0  0  0  0  0
    9.7123  -11.7624    6.5582 O   0  0  0  0  0  0  0  0  0  0  0  0
   11.7227  -11.3100    5.2492 C   0  0  0  0  0  0  0  0  0  0  0  0
   13.1800  -10.9683    5.2480 N   0  0  0  0  0  0  0  0  0  0  0  0
    5.3529   -9.3897   10.6854 C   0  0  2  0  0  0  0  0  0  0  0  0
    4.4211   -9.1547   11.7638 N   0  0  0  0  0  0  0  0  0  0  0  0
    5.6748  -10.9357   10.5915 C   0  0  0  0  0  0  0  0  0  0  0  0
    6.7065  -11.2101    9.4078 C   0  0  2  0  0  0  0  0  0  0  0  0
    6.9952  -12.6650    9.3105 N   0  0  0  0  0  0  0  0  0  0  0  0
    8.0426  -10.3719    9.6708 C   0  0  2  0  0  0  0  0  0  0  0  0
    7.6679   -8.8312    9.7585 C   0  0  2  0  0  0  0  0  0  0  0  0
    8.8570   -8.0726    9.9899 O   0  0  0  0  0  0  0  0  0  0  0  0
    6.6424   -8.5747   10.9324 C   0  0  1  0  0  0  0  0  0  0  0  0
    6.2949   -7.1686   10.9856 O   0  0  0  0  0  0  0  0  0  0  0  0
    5.5347   -6.5674   11.9783 C   0  0  2  0  0  0  0  0  0  0  0  0
    6.0788   -5.1072   12.1702 C   0  0  2  0  0  0  0  0  0  0  0  0
    6.0098   -4.4183   10.9636 O   0  0  0  0  0  0  0  0  0  0  0  0
    7.5565   -5.1000   12.7514 C   0  0  1  0  0  0  0  0  0  0  0  0
    8.0500   -3.7005   12.9380 N   0  0  0  0  0  0  0  0  0  0  0  0
    7.5657   -5.8964   14.1287 C   0  0  2  0  0  0  0  0  0  0  0  0
    8.8792   -5.9072   14.7015 O   0  0  0  0  0  0  0  0  0  0  0  0
    7.0419   -7.3588   13.8533 C   0  0  2  0  0  0  0  0  0  0  0  0
    5.6445   -7.3284   13.2493 O   0  0  0  0  0  0  0  0  0  0  0  0
    7.0033   -8.1728   15.1247 C   0  0  0  0  0  0  0  0  0  0  0  0
    6.2009   -7.5616   16.1519 O   0  0  0  0  0  0  0  0  0  0  0  0
    9.1039  -13.0775   10.0374 O   0  0  0  0  0  0  0  0  0  0  0  0
   11.8734  -13.6383    9.6631 O   0  0  0  0  0  0  0  0  0  0  0  0
    3.1857   -9.9027   11.7978 C   0  0  0  0  0  0  0  0  0  0  0  0
    2.7229  -10.4024   10.7296 O   0  0  0  0  0  0  0  0  0  0  0  0
    2.4640  -10.0583   13.1717 C   0  0  2  0  0  0  0  0  0  0  0  0
    1.4817  -13.8062   12.8157 N   0  0  0  0  0  0  0  0  0  0  0  0
    2.2899  -11.5631   13.5440 C   0  0  0  0  0  0  0  0  0  0  0  0
    1.7882  -12.4248   12.3731 C   0  0  0  0  0  0  0  0  0  0  0  0
    1.2880   -9.5735   13.1651 O   0  0  0  0  0  0  0  0  0  0  0  0
  1  2  1  1  0  0  0
  1  3  1  0  0  0  0
  1  8  1  0  0  0  0
  3  4  1  0  0  0  0
  3 32  1  1  0  0  0
  4  5  1  0  0  0  0
  4 33  1  1  0  0  0
  5  6  1  1  0  0  0
  5  7  1  0  0  0  0
  7  8  1  0  0  0  0
  7  9  1  6  0  0  0
  9 10  1  0  0  0  0
 11 12  1  1  0  0  0
 11 13  1  0  0  0  0
 11 19  1  0  0  0  0
 12 34  1  0  0  0  0
 13 14  1  0  0  0  0
 14 15  1  1  0  0  0
 14 16  1  0  0  0  0
 16  2  1  6  0  0  0
 16 17  1  0  0  0  0
 17 18  1  1  0  0  0
 17 19  1  0  0  0  0
 19 20  1  6  0  0  0
 21 20  1  6  0  0  0
 21 22  1  0  0  0  0
 21 29  1  0  0  0  0
 22 23  1  6  0  0  0
 22 24  1  0  0  0  0
 24 25  1  1  0  0  0
 24 26  1  0  0  0  0
 26 27  1  6  0  0  0
 26 28  1  0  0  0  0
 28 29  1  0  0  0  0
 28 30  1  1  0  0  0
 30 31  1  0  0  0  0
 34 35  2  0  0  0  0
 36 34  1  6  0  0  0
 36 38  1  0  0  0  0
 36 40  1  0  0  0  0
 37 39  1  0  0  0  0
 38 39  1  0  0  0  0
M  END
>  <CHROM.1>
-78.51661388,-30.14446565,-60.17984538,-53.27349628,67.36422201,146.62096975
56.67749799,-121.65061178,-45.11028719,-173.08924263,7.23051986,-9.65589007
10.79591693,0.69956248,-0.44917023,-2.64432559

>  <Name>
ligand

>  <RI>
0

>  <Rbt.Current_Directory>
/home/itssahil/PROJECTS/Mol_Feturizer/New_Systems/rnas/4P20

>  <Rbt.Executable>
rbdock ($Id: //depot/dev/client3/rdock/2013.1/src/exe/rbdock.cxx#4 $)

>  <Rbt.Library>
libRbt.so (2013.1, Build901 2013/11/27)

>  <Rbt.Parameter_File>
/export/apps/rDock/src/rDock_2013.1_src/data/scripts/dock_solv.prm

>  <Rbt.Receptor>
prm/blind_docking_20.prm

>  <SCORE>
28.1394

>  <SCORE.INTER>
8.7688

>  <SCORE.INTER.CONST>
1

>  <SCORE.INTER.POLAR>
0

>  <SCORE.INTER.ROT>
10

>  <SCORE.INTER.SOLV>
24.8011

>  <SCORE.INTER.VDW>
-12.6878

>  <SCORE.INTER.norm>
0.21922

>  <SCORE.INTRA>
2.69441

>  <SCORE.INTRA.DIHEDRAL>
-15.1977

>  <SCORE.INTRA.DIHEDRAL.0>
28.2802

>  <SCORE.INTRA.POLAR>
0

>  <SCORE.INTRA.POLAR.0>
0

>  <SCORE.INTRA.REPUL>
0

>  <SCORE.INTRA.REPUL.0>
0

>  <SCORE.INTRA.SOLV>
3.7191

>  <SCORE.INTRA.SOLV.lig_0>
-101.981

>  <SCORE.INTRA.VDW>
8.43371

>  <SCORE.INTRA.VDW.0>
-5.72964

>  <SCORE.INTRA.norm>
0.0673604

>  <SCORE.RESTR>
16.6761

>  <SCORE.RESTR.CAVITY>
16.6761

>  <SCORE.RESTR.norm>
0.416903

>  <SCORE.SYSTEM>
0

>  <SCORE.SYSTEM.CONST>
0

>  <SCORE.SYSTEM.DIHEDRAL>
0

>  <SCORE.SYSTEM.SOLV>
0

>  <SCORE.SYSTEM.norm>
0

>  <SCORE.heavy>
40

>  <SCORE.norm>
0.703484

>  <RMSD>
11.938

$$$$
ligand
 OpenBabel11021811503D
libRbt.so/2013.1/901 2013/11/27
 40 42  0  0  0  0  0  0  0  0999 V2000
    9.1162  -11.9819    7.9043 C   0  0  2  0  0  0  0  0  0  0  0  0
    9.0905  -10.7539    8.6488 O   0  0  0  0  0  0  0  0  0  0  0  0
    9.8858  -13.0985    8.7044 C   0  0  1  0  0  0  0  0  0  0  0  0
   11.3939  -12.7492    8.8671 C   0  0  2  0  0  0  0  0  0  0  0  0
   12.0071  -12.6147    7.4374 C   0  0  2  0  0  0  0  0  0  0  0  0
   13.4151  -12.3157    7.5498 O   0  0  0  0  0  0  0  0  0  0  0  0
   11.2418  -11.4511    6.6680 C   0  0  2  0  0  0  0  0  0  0  0  0
    9.7757  -11.7856    6.5739 O   0  0  0  0  0  0  0  0  0  0  0  0
   11.7558  -11.2539    5.2485 C   0  0  0  0  0  0  0  0  0  0  0  0
   11.2104  -10.0020    4.6354 N   0  0  0  0  0  0  0  0  0  0  0  0
    5.3641   -9.5789   10.6646 C   0  0  2  0  0  0  0  0  0  0  0  0
    4.3979   -9.3699   11.7177 N   0  0  0  0  0  0  0  0  0  0  0  0
    5.7079  -11.1195   10.5598 C   0  0  0  0  0  0  0  0  0  0  0  0
    6.7777  -11.3653    9.4039 C   0  0  2  0  0  0  0  0  0  0  0  0
    7.0871  -12.8152    9.2959 N   0  0  0  0  0  0  0  0  0  0  0  0
    8.0948  -10.5148    9.7180 C   0  0  2  0  0  0  0  0  0  0  0  0
    7.6986   -8.9800    9.8150 C   0  0  2  0  0  0  0  0  0  0  0  0
    8.8709   -8.2104   10.0920 O   0  0  0  0  0  0  0  0  0  0  0  0
    6.6356   -8.7520   10.9610 C   0  0  1  0  0  0  0  0  0  0  0  0
    6.2692   -7.3510   11.0225 O   0  0  0  0  0  0  0  0  0  0  0  0
    5.4602   -6.7755   11.9915 C   0  0  2  0  0  0  0  0  0  0  0  0
    5.9006   -5.2762   12.1444 C   0  0  2  0  0  0  0  0  0  0  0  0
    5.7956   -4.6288   10.9176 O   0  0  0  0  0  0  0  0  0  0  0  0
    7.3688   -5.1502   12.7360 C   0  0  1  0  0  0  0  0  0  0  0  0
    7.7630   -3.7151   12.8849 N   0  0  0  0  0  0  0  0  0  0  0  0
    7.4200   -5.9040   14.1361 C   0  0  2  0  0  0  0  0  0  0  0  0
    8.7257   -5.8075   14.7186 O   0  0  0  0  0  0  0  0  0  0  0  0
    7.0008   -7.4065   13.8999 C   0  0  2  0  0  0  0  0  0  0  0  0
    5.6103   -7.4901   13.2851 O   0  0  0  0  0  0  0  0  0  0  0  0
    7.0065   -8.1842   15.1944 C   0  0  0  0  0  0  0  0  0  0  0  0
    8.2621   -8.0920   15.8928 O   0  0  0  0  0  0  0  0  0  0  0  0
    9.2483  -13.2503   10.0062 O   0  0  0  0  0  0  0  0  0  0  0  0
   12.0170  -13.7596    9.5589 O   0  0  0  0  0  0  0  0  0  0  0  0
    3.1581  -10.1108   11.6882 C   0  0  0  0  0  0  0  0  0  0  0  0
    2.7289  -10.5760   10.5907 O   0  0  0  0  0  0  0  0  0  0  0  0
    2.3897  -10.3022   13.0319 C   0  0  2  0  0  0  0  0  0  0  0  0
    2.7868  -12.8089   11.5852 N   0  0  0  0  0  0  0  0  0  0  0  0
    1.2369  -11.3411   12.8731 C   0  0  0  0  0  0  0  0  0  0  0  0
    1.7395  -12.7748   12.6341 C   0  0  0  0  0  0  0  0  0  0  0  0
    1.8285   -9.2331   13.4319 O   0  0  0  0  0  0  0  0  0  0  0  0
  1  2  1  1  0  0  0
  1  3  1  0  0  0  0
  1  8  1  0  0  0  0
  3  4  1  0  0  0  0
  3 32  1  1  0  0  0
  4  5  1  0  0  0  0
  4 33  1  1  0  0  0
  5  6  1  1  0  0  0
  5  7  1  0  0  0  0
  7  8  1  0  0  0  0
  7  9  1  6  0  0  0
  9 10  1  0  0  0  0
 11 12  1  1  0  0  0
 11 13  1  0  0  0  0
 11 19  1  0  0  0  0
 12 34  1  0  0  0  0
 13 14  1  0  0  0  0
 14 15  1  1  0  0  0
 14 16  1  0  0  0  0
 16  2  1  6  0  0  0
 16 17  1  0  0  0  0
 17 18  1  1  0  0  0
 17 19  1  0  0  0  0
 19 20  1  6  0  0  0
 21 20  1  6  0  0  0
 21 22  1  0  0  0  0
 21 29  1  0  0  0  0
 22 23  1  6  0  0  0
 22 24  1  0  0  0  0
 24 25  1  1  0  0  0
 24 26  1  0  0  0  0
 26 27  1  6  0  0  0
 26 28  1  0  0  0  0
 28 29  1  0  0  0  0
 28 30  1  1  0  0  0
 30 31  1  0  0  0  0
 34 35  2  0  0  0  0
 36 34  1  6  0  0  0
 36 38  1  0  0  0  0
 36 40  1  0  0  0  0
 37 39  1  0  0  0  0
 38 39  1  0  0  0  0
M  END
>  <CHROM.1>
-82.20143294,-27.64679851,-169.31257433,-54.66809540,66.59923779,151.27276528
-54.06617721,-169.11998164,67.95023054,-47.55657987,7.25784145,-9.71055181
10.73021892,0.75216251,-0.40809932,-2.59798592

>  <Name>
ligand

>  <RI>
0

>  <Rbt.Current_Directory>
/home/itssahil/PROJECTS/Mol_Feturizer/New_Systems/rnas/4P20

>  <Rbt.Executable>
rbdock ($Id: //depot/dev/client3/rdock/2013.1/src/exe/rbdock.cxx#4 $)

>  <Rbt.Library>
libRbt.so (2013.1, Build901 2013/11/27)

>  <Rbt.Parameter_File>
/export/apps/rDock/src/rDock_2013.1_src/data/scripts/dock_solv.prm

>  <Rbt.Receptor>
prm/blind_docking_20.prm

>  <SCORE>
26.3882

>  <SCORE.INTER>
7.42408

>  <SCORE.INTER.CONST>
1

>  <SCORE.INTER.POLAR>
0

>  <SCORE.INTER.ROT>
10

>  <SCORE.INTER.SOLV>
24.4148

>  <SCORE.INTER.VDW>
-13.4555

>  <SCORE.INTER.norm>
0.185602

>  <SCORE.INTRA>
3.31334

>  <SCORE.INTRA.DIHEDRAL>
-16.2056

>  <SCORE.INTRA.DIHEDRAL.0>
28.2802

>  <SCORE.INTRA.POLAR>
0

>  <SCORE.INTRA.POLAR.0>
0

>  <SCORE.INTRA.REPUL>
0

>  <SCORE.INTRA.REPUL.0>
0

>  <SCORE.INTRA.SOLV>
6.92187

>  <SCORE.INTRA.SOLV.lig_0>
-101.981

>  <SCORE.INTRA.VDW>
7.95518

>  <SCORE.INTRA.VDW.0>
-5.72964

>  <SCORE.INTRA.norm>
0.0828335

>  <SCORE.RESTR>
15.6508

>  <SCORE.RESTR.CAVITY>
15.6508

>  <SCORE.RESTR.norm>
0.391271

>  <SCORE.SYSTEM>
0

>  <SCORE.SYSTEM.CONST>
0

>  <SCORE.SYSTEM.DIHEDRAL>
0

>  <SCORE.SYSTEM.SOLV>
0

>  <SCORE.SYSTEM.norm>
0

>  <SCORE.heavy>
40

>  <SCORE.norm>
0.659706

>  <RMSD>
11.949

$$$$
ligand
 OpenBabel11021811503D
libRbt.so/2013.1/901 2013/11/27
 40 42  0  0  0  0  0  0  0  0999 V2000
   10.7978  -11.2575    8.3394 C   0  0  2  0  0  0  0  0  0  0  0  0
    9.4874  -10.8314    7.9341 O   0  0  0  0  0  0  0  0  0  0  0  0
   11.2097  -12.5760    7.5837 C   0  0  1  0  0  0  0  0  0  0  0  0
   10.3040  -13.7750    7.9900 C   0  0  2  0  0  0  0  0  0  0  0  0
   10.4576  -13.9857    9.5296 C   0  0  2  0  0  0  0  0  0  0  0  0
    9.6491  -15.1097    9.9389 O   0  0  0  0  0  0  0  0  0  0  0  0
    9.9929  -12.6559   10.2693 C   0  0  2  0  0  0  0  0  0  0  0  0
   10.8469  -11.5001    9.8167 O   0  0  0  0  0  0  0  0  0  0  0  0
   10.1247  -12.7539   11.7830 C   0  0  0  0  0  0  0  0  0  0  0  0
    9.1388  -13.7217   12.3591 N   0  0  0  0  0  0  0  0  0  0  0  0
    7.5615   -8.7004   11.2627 C   0  0  2  0  0  0  0  0  0  0  0  0
    6.8455   -7.6747   11.9851 N   0  0  0  0  0  0  0  0  0  0  0  0
    8.8808   -8.0872   10.6414 C   0  0  0  0  0  0  0  0  0  0  0  0
    9.6798   -9.2072    9.8364 C   0  0  2  0  0  0  0  0  0  0  0  0
   10.9273   -8.6334    9.2671 N   0  0  0  0  0  0  0  0  0  0  0  0
    8.7389   -9.7996    8.6871 C   0  0  2  0  0  0  0  0  0  0  0  0
    7.4312  -10.4000    9.3589 C   0  0  2  0  0  0  0  0  0  0  0  0
    6.5848  -10.9358    8.3393 O   0  0  0  0  0  0  0  0  0  0  0  0
    6.6522   -9.2807   10.1561 C   0  0  1  0  0  0  0  0  0  0  0  0
    5.4738   -9.8489   10.7800 O   0  0  0  0  0  0  0  0  0  0  0  0
    4.2126   -9.2708   10.7874 C   0  0  2  0  0  0  0  0  0  0  0  0
    3.8422   -8.9654   12.2823 C   0  0  2  0  0  0  0  0  0  0  0  0
    4.8061   -8.1346   12.8443 O   0  0  0  0  0  0  0  0  0  0  0  0
    3.6669  -10.2965   13.1303 C   0  0  1  0  0  0  0  0  0  0  0  0
    3.3024   -9.9831   14.5465 N   0  0  0  0  0  0  0  0  0  0  0  0
    2.5514  -11.1966   12.4400 C   0  0  2  0  0  0  0  0  0  0  0  0
    2.3465  -12.4079   13.1778 O   0  0  0  0  0  0  0  0  0  0  0  0
    3.0060  -11.4909   10.9583 C   0  0  2  0  0  0  0  0  0  0  0  0
    3.2146  -10.1937   10.1885 O   0  0  0  0  0  0  0  0  0  0  0  0
    1.9820  -12.3281   10.2297 C   0  0  0  0  0  0  0  0  0  0  0  0
    2.0124  -13.7121   10.6250 O   0  0  0  0  0  0  0  0  0  0  0  0
   11.1240  -12.3276    6.1502 O   0  0  0  0  0  0  0  0  0  0  0  0
   10.7144  -14.8977    7.3129 O   0  0  0  0  0  0  0  0  0  0  0  0
    6.3863   -6.5058   11.2712 C   0  0  0  0  0  0  0  0  0  0  0  0
    6.9517   -6.1665   10.1895 O   0  0  0  0  0  0  0  0  0  0  0  0
    5.1982   -5.6989   11.8794 C   0  0  2  0  0  0  0  0  0  0  0  0
    7.6798   -3.8601   11.1811 N   0  0  0  0  0  0  0  0  0  0  0  0
    5.2216   -4.2173   11.3918 C   0  0  0  0  0  0  0  0  0  0  0  0
    6.4483   -3.4335   11.8878 C   0  0  0  0  0  0  0  0  0  0  0  0
    5.2464   -5.6377   13.1490 O   0  0  0  0  0  0  0  0  0  0  0  0
  1  2  1  6  0  0  0
  1  3  1  0  0  0  0
  1  8  1  0  0  0  0
  3  4  1  0  0  0  0
  3 32  1  6  0  0  0
  4  5  1  0  0  0  0
  4 33  1  6  0  0  0
  5  6  1  1  0  0  0
  5  7  1  0  0  0  0
  7  8  1  0  0  0  0
  7  9  1  1  0  0  0
  9 10  1  0  0  0  0
 11 12  1  6  0  0  0
 11 13  1  0  0  0  0
 11 19  1  0  0  0  0
 12 34  1  0  0  0  0
 13 14  1  0  0  0  0
 14 15  1  6  0  0  0
 14 16  1  0  0  0  0
 16  2  1  1  0  0  0
 16 17  1  0  0  0  0
 17 18  1  6  0  0  0
 17 19  1  0  0  0  0
 19 20  1  1  0  0  0
 21 20  1  1  0  0  0
 21 22  1  0  0  0  0
 21 29  1  0  0  0  0
 22 23  1  1  0  0  0
 22 24  1  0  0  0  0
 24 25  1  1  0  0  0
 24 26  1  0  0  0  0
 26 27  1  1  0  0  0
 26 28  1  0  0  0  0
 28 29  1  0  0  0  0
 28 30  1  6  0  0  0
 30 31  1  0  0  0  0
 34 35  2  0  0  0  0
 36 34  1  6  0  0  0
 36 38  1  0  0  0  0
 36 40  1  0  0  0  0
 37 39  1  0  0  0  0
 38 39  1  0  0  0  0
M  END
>  <CHROM.1>
166.65720760,5.70823970,-68.86471227,60.57837308,104.29658908,-116.85915035
-75.73285546,155.46660310,-65.20201467,72.67597746,7.00462172,-10.07407307
10.51878445,-0.72551294,0.40753618,0.16202196

>  <Name>
ligand

>  <RI>
0

>  <Rbt.Current_Directory>
/home/itssahil/PROJECTS/Mol_Feturizer/New_Systems/rnas/4P20

>  <Rbt.Executable>
rbdock ($Id: //depot/dev/client3/rdock/2013.1/src/exe/rbdock.cxx#4 $)

>  <Rbt.Library>
libRbt.so (2013.1, Build901 2013/11/27)

>  <Rbt.Parameter_File>
/export/apps/rDock/src/rDock_2013.1_src/data/scripts/dock_solv.prm

>  <Rbt.Receptor>
prm/blind_docking_20.prm

>  <SCORE>
33.5971

>  <SCORE.INTER>
2.62543

>  <SCORE.INTER.CONST>
1

>  <SCORE.INTER.POLAR>
0

>  <SCORE.INTER.ROT>
10

>  <SCORE.INTER.SOLV>
17.1589

>  <SCORE.INTER.VDW>
-14.236

>  <SCORE.INTER.norm>
0.0656359

>  <SCORE.INTRA>
10.2238

>  <SCORE.INTRA.DIHEDRAL>
-3.99551

>  <SCORE.INTRA.DIHEDRAL.0>
28.2802

>  <SCORE.INTRA.POLAR>
0

>  <SCORE.INTRA.POLAR.0>
0

>  <SCORE.INTRA.REPUL>
0.0239904

>  <SCORE.INTRA.REPUL.0>
0

>  <SCORE.INTRA.SOLV>
7.46052

>  <SCORE.INTRA.SOLV.lig_0>
-101.981

>  <SCORE.INTRA.VDW>
8.37134

>  <SCORE.INTRA.VDW.0>
-5.72964

>  <SCORE.INTRA.norm>
0.255595

>  <SCORE.RESTR>
20.7479

>  <SCORE.RESTR.CAVITY>
20.7479

>  <SCORE.RESTR.norm>
0.518697

>  <SCORE.SYSTEM>
0

>  <SCORE.SYSTEM.CONST>
0

>  <SCORE.SYSTEM.DIHEDRAL>
0

>  <SCORE.SYSTEM.SOLV>
0

>  <SCORE.SYSTEM.norm>
0

>  <SCORE.heavy>
40

>  <SCORE.norm>
0.839928

>  <RMSD>
12.003

$$$$
ligand
 OpenBabel11021811503D
libRbt.so/2013.1/901 2013/11/27
 40 42  0  0  0  0  0  0  0  0999 V2000
   10.8487   -9.9652    6.9487 C   0  0  2  0  0  0  0  0  0  0  0  0
    9.4420   -9.7063    7.0794 O   0  0  0  0  0  0  0  0  0  0  0  0
   11.1005  -11.4679    6.5512 C   0  0  1  0  0  0  0  0  0  0  0  0
   10.6632  -12.4406    7.6849 C   0  0  2  0  0  0  0  0  0  0  0  0
   11.4964  -12.0907    8.9584 C   0  0  2  0  0  0  0  0  0  0  0  0
   11.1347  -12.9926   10.0262 O   0  0  0  0  0  0  0  0  0  0  0  0
   11.1890  -10.5831    9.3634 C   0  0  2  0  0  0  0  0  0  0  0  0
   11.5673   -9.6669    8.2286 O   0  0  0  0  0  0  0  0  0  0  0  0
   11.9736  -10.1368   10.5896 C   0  0  0  0  0  0  0  0  0  0  0  0
   11.5224   -8.7935   11.0719 N   0  0  0  0  0  0  0  0  0  0  0  0
    6.0862  -10.4159    9.8298 C   0  0  2  0  0  0  0  0  0  0  0  0
    5.3453  -10.9010   10.9710 N   0  0  0  0  0  0  0  0  0  0  0  0
    6.6572  -11.6422    9.0094 C   0  0  0  0  0  0  0  0  0  0  0  0
    7.4820  -11.1219    7.7485 C   0  0  2  0  0  0  0  0  0  0  0  0
    8.0038  -12.2755    6.9697 N   0  0  0  0  0  0  0  0  0  0  0  0
    8.6711  -10.1787    8.2516 C   0  0  2  0  0  0  0  0  0  0  0  0
    8.0490   -8.9674    9.0687 C   0  0  2  0  0  0  0  0  0  0  0  0
    9.1046   -8.1158    9.5199 O   0  0  0  0  0  0  0  0  0  0  0  0
    7.2316   -9.4975   10.3121 C   0  0  1  0  0  0  0  0  0  0  0  0
    6.6534   -8.3819   11.0345 O   0  0  0  0  0  0  0  0  0  0  0  0
    7.3267   -7.5811   11.9457 C   0  0  2  0  0  0  0  0  0  0  0  0
    6.2980   -7.1604   13.0547 C   0  0  2  0  0  0  0  0  0  0  0  0
    5.7583   -8.2963   13.6494 O   0  0  0  0  0  0  0  0  0  0  0  0
    5.1578   -6.2194   12.4752 C   0  0  1  0  0  0  0  0  0  0  0  0
    4.1970   -5.8209   13.5499 N   0  0  0  0  0  0  0  0  0  0  0  0
    5.8386   -4.9413   11.8162 C   0  0  2  0  0  0  0  0  0  0  0  0
    4.8469   -4.0518   11.2883 O   0  0  0  0  0  0  0  0  0  0  0  0
    6.8287   -5.4374   10.6926 C   0  0  2  0  0  0  0  0  0  0  0  0
    7.8774   -6.3773   11.2718 O   0  0  0  0  0  0  0  0  0  0  0  0
    7.5309   -4.2748   10.0323 C   0  0  0  0  0  0  0  0  0  0  0  0
    8.1837   -3.4091   10.9794 O   0  0  0  0  0  0  0  0  0  0  0  0
   10.3673  -11.7451    5.3225 O   0  0  0  0  0  0  0  0  0  0  0  0
   10.9162  -13.7323    7.2910 O   0  0  0  0  0  0  0  0  0  0  0  0
    4.1253  -10.2277   11.3520 C   0  0  0  0  0  0  0  0  0  0  0  0
    3.9371   -9.0233   11.0072 O   0  0  0  0  0  0  0  0  0  0  0  0
    3.0807  -11.0279   12.1893 C   0  0  2  0  0  0  0  0  0  0  0  0
    3.5114  -13.9642   11.7281 N   0  0  0  0  0  0  0  0  0  0  0  0
    2.1808  -11.9071   11.2669 C   0  0  0  0  0  0  0  0  0  0  0  0
    2.1464  -13.3871   11.6833 C   0  0  0  0  0  0  0  0  0  0  0  0
    2.2781  -10.2717   12.8233 O   0  0  0  0  0  0  0  0  0  0  0  0
  1  2  1  1  0  0  0
  1  3  1  0  0  0  0
  1  8  1  0  0  0  0
  3  4  1  0  0  0  0
  3 32  1  6  0  0  0
  4  5  1  0  0  0  0
  4 33  1  6  0  0  0
  5  6  1  1  0  0  0
  5  7  1  0  0  0  0
  7  8  1  0  0  0  0
  7  9  1  1  0  0  0
  9 10  1  0  0  0  0
 11 12  1  1  0  0  0
 11 13  1  0  0  0  0
 11 19  1  0  0  0  0
 12 34  1  0  0  0  0
 13 14  1  0  0  0  0
 14 15  1  1  0  0  0
 14 16  1  0  0  0  0
 16  2  1  6  0  0  0
 16 17  1  0  0  0  0
 17 18  1  1  0  0  0
 17 19  1  0  0  0  0
 19 20  1  6  0  0  0
 21 20  1  6  0  0  0
 21 22  1  0  0  0  0
 21 29  1  0  0  0  0
 22 23  1  6  0  0  0
 22 24  1  0  0  0  0
 24 25  1  1  0  0  0
 24 26  1  0  0  0  0
 26 27  1  6  0  0  0
 26 28  1  0  0  0  0
 28 29  1  0  0  0  0
 28 30  1  1  0  0  0
 30 31  1  0  0  0  0
 34 35  2  0  0  0  0
 36 34  1  6  0  0  0
 36 38  1  0  0  0  0
 36 40  1  0  0  0  0
 37 39  1  0  0  0  0
 38 39  1  0  0  0  0
M  END
>  <CHROM.1>
75.04207540,-121.64314119,-171.58316369,-141.01245763,159.38369117,-146.08878562
53.42695455,-83.10675356,126.70085722,-56.49162983,7.43130217,-9.43111597
10.11330858,-0.62666306,0.46062164,0.29216416

>  <Name>
ligand

>  <RI>
0

>  <Rbt.Current_Directory>
/home/itssahil/PROJECTS/Mol_Feturizer/New_Systems/rnas/4P20

>  <Rbt.Executable>
rbdock ($Id: //depot/dev/client3/rdock/2013.1/src/exe/rbdock.cxx#4 $)

>  <Rbt.Library>
libRbt.so (2013.1, Build901 2013/11/27)

>  <Rbt.Parameter_File>
/export/apps/rDock/src/rDock_2013.1_src/data/scripts/dock_solv.prm

>  <Rbt.Receptor>
prm/blind_docking_20.prm

>  <SCORE>
63.198

>  <SCORE.INTER>
43.4223

>  <SCORE.INTER.CONST>
1

>  <SCORE.INTER.POLAR>
0

>  <SCORE.INTER.ROT>
10

>  <SCORE.INTER.SOLV>
29.9028

>  <SCORE.INTER.VDW>
8.71395

>  <SCORE.INTER.norm>
1.08556

>  <SCORE.INTRA>
0.834054

>  <SCORE.INTRA.DIHEDRAL>
-6.17587

>  <SCORE.INTRA.DIHEDRAL.0>
28.2802

>  <SCORE.INTRA.POLAR>
0

>  <SCORE.INTRA.POLAR.0>
0

>  <SCORE.INTRA.REPUL>
0.0316735

>  <SCORE.INTRA.REPUL.0>
0

>  <SCORE.INTRA.SOLV>
8.26177

>  <SCORE.INTRA.SOLV.lig_0>
-101.981

>  <SCORE.INTRA.VDW>
-0.367265

>  <SCORE.INTRA.VDW.0>
-5.72964

>  <SCORE.INTRA.norm>
0.0208513

>  <SCORE.RESTR>
18.9416

>  <SCORE.RESTR.CAVITY>
18.9416

>  <SCORE.RESTR.norm>
0.473541

>  <SCORE.SYSTEM>
0

>  <SCORE.SYSTEM.CONST>
0

>  <SCORE.SYSTEM.DIHEDRAL>
0

>  <SCORE.SYSTEM.SOLV>
0

>  <SCORE.SYSTEM.norm>
0

>  <SCORE.heavy>
40

>  <SCORE.norm>
1.57995

>  <RMSD>
12.020

$$$$
ligand
 OpenBabel11021811503D
libRbt.so/2013.1/901 2013/11/27
 40 42  0  0  0  0  0  0  0  0999 V2000
   10.7828  -10.8046    8.1494 C   0  0  2  0  0  0  0  0  0  0  0  0
    9.6109  -10.0169    7.8863 O   0  0  0  0  0  0  0  0  0  0  0  0
   10.9793  -11.8953    7.0309 C   0  0  1  0  0  0  0  0  0  0  0  0
    9.8320  -12.9470    7.0496 C   0  0  2  0  0  0  0  0  0  0  0  0
    9.8378  -13.6313    8.4531 C   0  0  2  0  0  0  0  0  0  0  0  0
    8.8000  -14.6340    8.4979 O   0  0  0  0  0  0  0  0  0  0  0  0
    9.5928  -12.5145    9.5595 C   0  0  2  0  0  0  0  0  0  0  0  0
   10.6843  -11.4786    9.4833 O   0  0  0  0  0  0  0  0  0  0  0  0
    9.6011  -13.0813   10.9726 C   0  0  0  0  0  0  0  0  0  0  0  0
    9.4331  -12.0039   11.9980 N   0  0  0  0  0  0  0  0  0  0  0  0
    7.7445   -9.0452   11.7467 C   0  0  2  0  0  0  0  0  0  0  0  0
    7.0979   -8.2810   12.7879 N   0  0  0  0  0  0  0  0  0  0  0  0
    9.1451   -8.3942   11.4045 C   0  0  0  0  0  0  0  0  0  0  0  0
    9.8691   -9.2246   10.2525 C   0  0  2  0  0  0  0  0  0  0  0  0
   11.1920   -8.6212    9.9437 N   0  0  0  0  0  0  0  0  0  0  0  0
    8.9310   -9.2546    8.9579 C   0  0  2  0  0  0  0  0  0  0  0  0
    7.5408   -9.9134    9.3519 C   0  0  2  0  0  0  0  0  0  0  0  0
    6.6959   -9.9483    8.1995 O   0  0  0  0  0  0  0  0  0  0  0  0
    6.8369   -9.0829   10.4965 C   0  0  1  0  0  0  0  0  0  0  0  0
    5.5807   -9.7084   10.8587 O   0  0  0  0  0  0  0  0  0  0  0  0
    4.3235   -9.1549   10.6637 C   0  0  2  0  0  0  0  0  0  0  0  0
    3.8412   -8.5811   12.0433 C   0  0  2  0  0  0  0  0  0  0  0  0
    4.7611   -7.6482   12.5110 O   0  0  0  0  0  0  0  0  0  0  0  0
    3.5998   -9.7330   13.1092 C   0  0  1  0  0  0  0  0  0  0  0  0
    3.1294   -9.1660   14.4108 N   0  0  0  0  0  0  0  0  0  0  0  0
    2.5384  -10.7599   12.5175 C   0  0  2  0  0  0  0  0  0  0  0  0
    2.2761  -11.8150   13.4510 O   0  0  0  0  0  0  0  0  0  0  0  0
    3.1037  -11.3192   11.1550 C   0  0  2  0  0  0  0  0  0  0  0  0
    3.3723  -10.1856   10.1745 O   0  0  0  0  0  0  0  0  0  0  0  0
    2.1365  -12.2902   10.5208 C   0  0  0  0  0  0  0  0  0  0  0  0
    2.0394  -13.5309   11.2448 O   0  0  0  0  0  0  0  0  0  0  0  0
   11.0402  -11.2214    5.7401 O   0  0  0  0  0  0  0  0  0  0  0  0
   10.0601  -13.8782    6.0654 O   0  0  0  0  0  0  0  0  0  0  0  0
    7.7848   -8.0866   14.0438 C   0  0  0  0  0  0  0  0  0  0  0  0
    8.6917   -8.8975   14.3972 O   0  0  0  0  0  0  0  0  0  0  0  0
    7.3666   -6.8688   14.9238 C   0  0  2  0  0  0  0  0  0  0  0  0
    7.7824   -4.5890   12.9762 N   0  0  0  0  0  0  0  0  0  0  0  0
    6.2190   -6.0579   14.2463 C   0  0  0  0  0  0  0  0  0  0  0  0
    6.6075   -5.4873   12.8721 C   0  0  0  0  0  0  0  0  0  0  0  0
    8.3144   -6.0373   15.0919 O   0  0  0  0  0  0  0  0  0  0  0  0
  1  2  1  6  0  0  0
  1  3  1  0  0  0  0
  1  8  1  0  0  0  0
  3  4  1  0  0  0  0
  3 32  1  6  0  0  0
  4  5  1  0  0  0  0
  4 33  1  6  0  0  0
  5  6  1  6  0  0  0
  5  7  1  0  0  0  0
  7  8  1  0  0  0  0
  7  9  1  1  0  0  0
  9 10  1  0  0  0  0
 11 12  1  1  0  0  0
 11 13  1  0  0  0  0
 11 19  1  0  0  0  0
 12 34  1  0  0  0  0
 13 14  1  0  0  0  0
 14 15  1  6  0  0  0
 14 16  1  0  0  0  0
 16  2  1  6  0  0  0
 16 17  1  0  0  0  0
 17 18  1  6  0  0  0
 17 19  1  0  0  0  0
 19 20  1  1  0  0  0
 21 20  1  1  0  0  0
 21 22  1  0  0  0  0
 21 29  1  0  0  0  0
 22 23  1  1  0  0  0
 22 24  1  0  0  0  0
 24 25  1  1  0  0  0
 24 26  1  0  0  0  0
 26 27  1  1  0  0  0
 26 28  1  0  0  0  0
 28 29  1  0  0  0  0
 28 30  1  6  0  0  0
 30 31  1  0  0  0  0
 34 35  2  0  0  0  0
 36 34  1  6  0  0  0
 36 38  1  0  0  0  0
 36 40  1  0  0  0  0
 37 39  1  0  0  0  0
 38 39  1  0  0  0  0
M  END
>  <CHROM.1>
158.93037968,11.80397786,177.32642514,-56.85690535,125.80721952,-101.44397276
-70.12507420,0.40965281,-60.39267200,-58.94563136,7.20848357,-10.02469332
10.85754483,-0.82993423,0.32979547,0.68824220

>  <Name>
ligand

>  <RI>
0

>  <Rbt.Current_Directory>
/home/itssahil/PROJECTS/Mol_Feturizer/New_Systems/rnas/4P20

>  <Rbt.Executable>
rbdock ($Id: //depot/dev/client3/rdock/2013.1/src/exe/rbdock.cxx#4 $)

>  <Rbt.Library>
libRbt.so (2013.1, Build901 2013/11/27)

>  <Rbt.Parameter_File>
/export/apps/rDock/src/rDock_2013.1_src/data/scripts/dock_solv.prm

>  <Rbt.Receptor>
prm/blind_docking_20.prm

>  <SCORE>
24.3683

>  <SCORE.INTER>
-0.881845

>  <SCORE.INTER.CONST>
1

>  <SCORE.INTER.POLAR>
0

>  <SCORE.INTER.ROT>
10

>  <SCORE.INTER.SOLV>
17.6619

>  <SCORE.INTER.VDW>
-16.7419

>  <SCORE.INTER.norm>
-0.0220461

>  <SCORE.INTRA>
8.02614

>  <SCORE.INTRA.DIHEDRAL>
-4.24254

>  <SCORE.INTRA.DIHEDRAL.0>
28.2802

>  <SCORE.INTRA.POLAR>
0

>  <SCORE.INTRA.POLAR.0>
0

>  <SCORE.INTRA.REPUL>
0

>  <SCORE.INTRA.REPUL.0>
0

>  <SCORE.INTRA.SOLV>
8.95484

>  <SCORE.INTRA.SOLV.lig_0>
-101.981

>  <SCORE.INTRA.VDW>
5.66999

>  <SCORE.INTRA.VDW.0>
-5.72964

>  <SCORE.INTRA.norm>
0.200653

>  <SCORE.RESTR>
17.224

>  <SCORE.RESTR.CAVITY>
17.224

>  <SCORE.RESTR.norm>
0.430599

>  <SCORE.SYSTEM>
0

>  <SCORE.SYSTEM.CONST>
0

>  <SCORE.SYSTEM.DIHEDRAL>
0

>  <SCORE.SYSTEM.SOLV>
0

>  <SCORE.SYSTEM.norm>
0

>  <SCORE.heavy>
40

>  <SCORE.norm>
0.609206

>  <RMSD>
12.062

$$$$
ligand
 OpenBabel11021811503D
libRbt.so/2013.1/901 2013/11/27
 40 42  0  0  0  0  0  0  0  0999 V2000
    9.8349  -12.3029    8.1206 C   0  0  2  0  0  0  0  0  0  0  0  0
    9.8882  -11.2465    9.0923 O   0  0  0  0  0  0  0  0  0  0  0  0
   10.9617  -12.1156    7.0367 C   0  0  1  0  0  0  0  0  0  0  0  0
   10.7276  -10.8349    6.1835 C   0  0  2  0  0  0  0  0  0  0  0  0
    9.3427  -10.9816    5.4772 C   0  0  2  0  0  0  0  0  0  0  0  0
    9.1031   -9.8198    4.6541 O   0  0  0  0  0  0  0  0  0  0  0  0
    8.2193  -11.1239    6.5948 C   0  0  2  0  0  0  0  0  0  0  0  0
    8.4997  -12.3375    7.4426 O   0  0  0  0  0  0  0  0  0  0  0  0
    6.8264  -11.2937    6.0037 C   0  0  0  0  0  0  0  0  0  0  0  0
    6.4871  -10.1766    5.0669 N   0  0  0  0  0  0  0  0  0  0  0  0
    5.9751  -10.5514   10.9722 C   0  0  2  0  0  0  0  0  0  0  0  0
    4.9644  -10.4230   11.9962 N   0  0  0  0  0  0  0  0  0  0  0  0
    6.5709  -12.0168   10.9974 C   0  0  0  0  0  0  0  0  0  0  0  0
    7.6919  -12.1723    9.8750 C   0  0  2  0  0  0  0  0  0  0  0  0
    8.2390  -13.5543    9.8892 N   0  0  0  0  0  0  0  0  0  0  0  0
    8.8432  -11.0921   10.1295 C   0  0  2  0  0  0  0  0  0  0  0  0
    8.1968   -9.6420   10.0966 C   0  0  2  0  0  0  0  0  0  0  0  0
    9.2194   -8.6684   10.3195 O   0  0  0  0  0  0  0  0  0  0  0  0
    7.0856   -9.5035   11.2106 C   0  0  1  0  0  0  0  0  0  0  0  0
    6.4916   -8.1827   11.1536 O   0  0  0  0  0  0  0  0  0  0  0  0
    5.5637   -7.6810   12.0549 C   0  0  2  0  0  0  0  0  0  0  0  0
    5.6247   -6.1143   11.9721 C   0  0  2  0  0  0  0  0  0  0  0  0
    5.3685   -5.7030   10.6681 O   0  0  0  0  0  0  0  0  0  0  0  0
    7.0160   -5.5501   12.4889 C   0  0  1  0  0  0  0  0  0  0  0  0
    7.0478   -4.0567   12.4132 N   0  0  0  0  0  0  0  0  0  0  0  0
    7.2455   -6.0504   13.9816 C   0  0  2  0  0  0  0  0  0  0  0  0
    8.4865   -5.5551   14.4993 O   0  0  0  0  0  0  0  0  0  0  0  0
    7.2062   -7.6276   13.9819 C   0  0  2  0  0  0  0  0  0  0  0  0
    5.8799   -8.1359   13.4332 O   0  0  0  0  0  0  0  0  0  0  0  0
    7.3976   -8.1777   15.3751 C   0  0  0  0  0  0  0  0  0  0  0  0
    6.4039   -7.7022   16.3020 O   0  0  0  0  0  0  0  0  0  0  0  0
   12.2476  -12.0523    7.7198 O   0  0  0  0  0  0  0  0  0  0  0  0
   11.7292  -10.7283    5.2493 O   0  0  0  0  0  0  0  0  0  0  0  0
    3.6023  -10.1428   11.6050 C   0  0  0  0  0  0  0  0  0  0  0  0
    3.3687   -9.5945   10.4870 O   0  0  0  0  0  0  0  0  0  0  0  0
    2.4633  -10.5306   12.5973 C   0  0  2  0  0  0  0  0  0  0  0  0
    3.1555  -13.3972   11.6072 N   0  0  0  0  0  0  0  0  0  0  0  0
    1.4942  -11.5715   11.9562 C   0  0  0  0  0  0  0  0  0  0  0  0
    2.1832  -12.4981   10.9405 C   0  0  0  0  0  0  0  0  0  0  0  0
    1.7322   -9.5394   12.9155 O   0  0  0  0  0  0  0  0  0  0  0  0
  1  2  1  1  0  0  0
  1  3  1  0  0  0  0
  1  8  1  0  0  0  0
  3  4  1  0  0  0  0
  3 32  1  1  0  0  0
  4  5  1  0  0  0  0
  4 33  1  6  0  0  0
  5  6  1  1  0  0  0
  5  7  1  0  0  0  0
  7  8  1  0  0  0  0
  7  9  1  6  0  0  0
  9 10  1  0  0  0  0
 11 12  1  1  0  0  0
 11 13  1  0  0  0  0
 11 19  1  0  0  0  0
 12 34  1  0  0  0  0
 13 14  1  0  0  0  0
 14 15  1  1  0  0  0
 14 16  1  0  0  0  0
 16  2  1  6  0  0  0
 16 17  1  0  0  0  0
 17 18  1  1  0  0  0
 17 19  1  0  0  0  0
 19 20  1  6  0  0  0
 21 20  1  6  0  0  0
 21 22  1  0  0  0  0
 21 29  1  0  0  0  0
 22 23  1  6  0  0  0
 22 24  1  0  0  0  0
 24 25  1  1  0  0  0
 24 26  1  0  0  0  0
 26 27  1  6  0  0  0
 26 28  1  0  0  0  0
 28 29  1  0  0  0  0
 28 30  1  1  0  0  0
 30 31  1  0  0  0  0
 34 35  2  0  0  0  0
 36 34  1  6  0  0  0
 36 38  1  0  0  0  0
 36 40  1  0  0  0  0
 37 39  1  0  0  0  0
 38 39  1  0  0  0  0
M  END
>  <CHROM.1>
172.67278996,-4.51008970,-55.46990654,-117.20805009,65.68447875,158.03193390
58.27373698,-118.99686662,30.48667765,67.28036618,6.98040582,-9.73735493
10.36227896,-0.94689924,0.46583305,0.78507090

>  <Name>
ligand

>  <RI>
0

>  <Rbt.Current_Directory>
/home/itssahil/PROJECTS/Mol_Feturizer/New_Systems/rnas/4P20

>  <Rbt.Executable>
rbdock ($Id: //depot/dev/client3/rdock/2013.1/src/exe/rbdock.cxx#4 $)

>  <Rbt.Library>
libRbt.so (2013.1, Build901 2013/11/27)

>  <Rbt.Parameter_File>
/export/apps/rDock/src/rDock_2013.1_src/data/scripts/dock_solv.prm

>  <Rbt.Receptor>
prm/blind_docking_20.prm

>  <SCORE>
20.443

>  <SCORE.INTER>
-1.50998

>  <SCORE.INTER.CONST>
1

>  <SCORE.INTER.POLAR>
0

>  <SCORE.INTER.ROT>
10

>  <SCORE.INTER.SOLV>
20.0076

>  <SCORE.INTER.VDW>
-17.9425

>  <SCORE.INTER.norm>
-0.0377495

>  <SCORE.INTRA>
1.36031

>  <SCORE.INTRA.DIHEDRAL>
-12.1831

>  <SCORE.INTRA.DIHEDRAL.0>
28.2802

>  <SCORE.INTRA.POLAR>
0

>  <SCORE.INTRA.POLAR.0>
0

>  <SCORE.INTRA.REPUL>
0

>  <SCORE.INTRA.REPUL.0>
0

>  <SCORE.INTRA.SOLV>
5.88687

>  <SCORE.INTRA.SOLV.lig_0>
-101.981

>  <SCORE.INTRA.VDW>
4.5084

>  <SCORE.INTRA.VDW.0>
-5.72964

>  <SCORE.INTRA.norm>
0.0340077

>  <SCORE.RESTR>
20.5927

>  <SCORE.RESTR.CAVITY>
20.5927

>  <SCORE.RESTR.norm>
0.514817

>  <SCORE.SYSTEM>
0

>  <SCORE.SYSTEM.CONST>
0

>  <SCORE.SYSTEM.DIHEDRAL>
0

>  <SCORE.SYSTEM.SOLV>
0

>  <SCORE.SYSTEM.norm>
0

>  <SCORE.heavy>
40

>  <SCORE.norm>
0.511075

>  <RMSD>
12.079

$$$$
ligand
 OpenBabel11021811503D
libRbt.so/2013.1/901 2013/11/27
 40 42  0  0  0  0  0  0  0  0999 V2000
   10.9490  -11.3777    8.1059 C   0  0  2  0  0  0  0  0  0  0  0  0
   10.1582  -10.2537    7.6885 O   0  0  0  0  0  0  0  0  0  0  0  0
   10.5132  -12.6787    7.3332 C   0  0  1  0  0  0  0  0  0  0  0  0
    9.0632  -13.1059    7.7046 C   0  0  2  0  0  0  0  0  0  0  0  0
    9.0266  -13.3749    9.2423 C   0  0  2  0  0  0  0  0  0  0  0  0
    7.6993  -13.7997    9.6195 O   0  0  0  0  0  0  0  0  0  0  0  0
    9.4269  -12.0334    9.9984 C   0  0  2  0  0  0  0  0  0  0  0  0
   10.8107  -11.6098    9.5791 O   0  0  0  0  0  0  0  0  0  0  0  0
    9.4404  -12.1985   11.5119 C   0  0  0  0  0  0  0  0  0  0  0  0
   10.4775  -13.1859   11.9479 N   0  0  0  0  0  0  0  0  0  0  0  0
    8.1255   -8.9737   11.3708 C   0  0  2  0  0  0  0  0  0  0  0  0
    7.4387   -8.1270   12.3184 N   0  0  0  0  0  0  0  0  0  0  0  0
    9.5463   -8.3591   11.0447 C   0  0  0  0  0  0  0  0  0  0  0  0
   10.3147   -9.2809    9.9956 C   0  0  2  0  0  0  0  0  0  0  0  0
   11.6560   -8.7109    9.7028 N   0  0  0  0  0  0  0  0  0  0  0  0
    9.4369   -9.4064    8.6650 C   0  0  2  0  0  0  0  0  0  0  0  0
    8.0240  -10.0246    9.0437 C   0  0  2  0  0  0  0  0  0  0  0  0
    7.2327  -10.1444    7.8594 O   0  0  0  0  0  0  0  0  0  0  0  0
    7.2760   -9.1035   10.0865 C   0  0  1  0  0  0  0  0  0  0  0  0
    5.9987   -9.6918   10.4373 O   0  0  0  0  0  0  0  0  0  0  0  0
    4.7587   -9.1153   10.2028 C   0  0  2  0  0  0  0  0  0  0  0  0
    4.4975   -8.0751   11.3495 C   0  0  2  0  0  0  0  0  0  0  0  0
    5.5210   -7.1333   11.3710 O   0  0  0  0  0  0  0  0  0  0  0  0
    4.3387   -8.7822   12.7624 C   0  0  1  0  0  0  0  0  0  0  0  0
    4.0783   -7.7752   13.8371 N   0  0  0  0  0  0  0  0  0  0  0  0
    3.1533   -9.8395   12.6722 C   0  0  2  0  0  0  0  0  0  0  0  0
    2.9614  -10.4974   13.9307 O   0  0  0  0  0  0  0  0  0  0  0  0
    3.4998  -10.8685   11.5276 C   0  0  2  0  0  0  0  0  0  0  0  0
    3.6959  -10.1530   10.1979 O   0  0  0  0  0  0  0  0  0  0  0  0
    2.4050  -11.8965   11.3686 C   0  0  0  0  0  0  0  0  0  0  0  0
    2.0589  -12.5367   12.6109 O   0  0  0  0  0  0  0  0  0  0  0  0
   10.6244  -12.4204    5.9032 O   0  0  0  0  0  0  0  0  0  0  0  0
    8.7410  -14.2491    7.0139 O   0  0  0  0  0  0  0  0  0  0  0  0
    8.2104   -7.4215   13.3153 C   0  0  0  0  0  0  0  0  0  0  0  0
    9.3558   -7.8511   13.6446 O   0  0  0  0  0  0  0  0  0  0  0  0
    7.5837   -6.1444   13.9547 C   0  0  2  0  0  0  0  0  0  0  0  0
    8.1051   -7.9779   16.2307 N   0  0  0  0  0  0  0  0  0  0  0  0
    6.4941   -6.5228   15.0050 C   0  0  0  0  0  0  0  0  0  0  0  0
    6.7367   -7.8896   15.6669 C   0  0  0  0  0  0  0  0  0  0  0  0
    6.9906   -5.4102   13.1019 O   0  0  0  0  0  0  0  0  0  0  0  0
  1  2  1  6  0  0  0
  1  3  1  0  0  0  0
  1  8  1  0  0  0  0
  3  4  1  0  0  0  0
  3 32  1  6  0  0  0
  4  5  1  0  0  0  0
  4 33  1  6  0  0  0
  5  6  1  1  0  0  0
  5  7  1  0  0  0  0
  7  8  1  0  0  0  0
  7  9  1  1  0  0  0
  9 10  1  0  0  0  0
 11 12  1  1  0  0  0
 11 13  1  0  0  0  0
 11 19  1  0  0  0  0
 12 34  1  0  0  0  0
 13 14  1  0  0  0  0
 14 15  1  6  0  0  0
 14 16  1  0  0  0  0
 16  2  1  6  0  0  0
 16 17  1  0  0  0  0
 17 18  1  6  0  0  0
 17 19  1  0  0  0  0
 19 20  1  1  0  0  0
 21 20  1  1  0  0  0
 21 22  1  0  0  0  0
 21 29  1  0  0  0  0
 22 23  1  1  0  0  0
 22 24  1  0  0  0  0
 24 25  1  1  0  0  0
 24 26  1  0  0  0  0
 26 27  1  1  0  0  0
 26 28  1  0  0  0  0
 28 29  1  0  0  0  0
 28 30  1  6  0  0  0
 30 31  1  0  0  0  0
 34 35  2  0  0  0  0
 36 34  1  6  0  0  0
 36 38  1  0  0  0  0
 36 40  1  0  0  0  0
 37 39  1  0  0  0  0
 38 39  1  0  0  0  0
M  END
>  <CHROM.1>
126.78222170,35.67697352,63.43728963,-33.22377178,122.28906664,-81.18793078
-52.11637548,76.36638916,28.15748459,52.83393823,7.38952245,-9.97603213,10.95128667
-0.90086133,0.27039304,0.74188593

>  <Name>
ligand

>  <RI>
0

>  <Rbt.Current_Directory>
/home/itssahil/PROJECTS/Mol_Feturizer/New_Systems/rnas/4P20

>  <Rbt.Executable>
rbdock ($Id: //depot/dev/client3/rdock/2013.1/src/exe/rbdock.cxx#4 $)

>  <Rbt.Library>
libRbt.so (2013.1, Build901 2013/11/27)

>  <Rbt.Parameter_File>
/export/apps/rDock/src/rDock_2013.1_src/data/scripts/dock_solv.prm

>  <Rbt.Receptor>
prm/blind_docking_20.prm

>  <SCORE>
33.5898

>  <SCORE.INTER>
4.49766

>  <SCORE.INTER.CONST>
1

>  <SCORE.INTER.POLAR>
0

>  <SCORE.INTER.ROT>
10

>  <SCORE.INTER.SOLV>
21.756

>  <SCORE.INTER.VDW>
-14.5202

>  <SCORE.INTER.norm>
0.112441

>  <SCORE.INTRA>
14.7639

>  <SCORE.INTRA.DIHEDRAL>
-4.71296

>  <SCORE.INTRA.DIHEDRAL.0>
28.2802

>  <SCORE.INTRA.POLAR>
0

>  <SCORE.INTRA.POLAR.0>
0

>  <SCORE.INTRA.REPUL>
0

>  <SCORE.INTRA.REPUL.0>
0

>  <SCORE.INTRA.SOLV>
11.1004

>  <SCORE.INTRA.SOLV.lig_0>
-101.981

>  <SCORE.INTRA.VDW>
11.5701

>  <SCORE.INTRA.VDW.0>
-5.72964

>  <SCORE.INTRA.norm>
0.369096

>  <SCORE.RESTR>
14.3283

>  <SCORE.RESTR.CAVITY>
14.3283

>  <SCORE.RESTR.norm>
0.358208

>  <SCORE.SYSTEM>
0

>  <SCORE.SYSTEM.CONST>
0

>  <SCORE.SYSTEM.DIHEDRAL>
0

>  <SCORE.SYSTEM.SOLV>
0

>  <SCORE.SYSTEM.norm>
0

>  <SCORE.heavy>
40

>  <SCORE.norm>
0.839746

>  <RMSD>
12.093

$$$$
ligand
 OpenBabel11021811503D
libRbt.so/2013.1/901 2013/11/27
 40 42  0  0  0  0  0  0  0  0999 V2000
   11.7527  -11.4829    8.2547 C   0  0  2  0  0  0  0  0  0  0  0  0
   11.2235  -10.2585    8.7874 O   0  0  0  0  0  0  0  0  0  0  0  0
   10.9145  -11.9519    7.0070 C   0  0  1  0  0  0  0  0  0  0  0  0
    9.4602  -12.3368    7.4067 C   0  0  2  0  0  0  0  0  0  0  0  0
    9.5454  -13.4995    8.4456 C   0  0  2  0  0  0  0  0  0  0  0  0
    8.2102  -13.9011    8.8206 O   0  0  0  0  0  0  0  0  0  0  0  0
   10.3577  -12.9846    9.7130 C   0  0  2  0  0  0  0  0  0  0  0  0
   11.7416  -12.5646    9.2907 O   0  0  0  0  0  0  0  0  0  0  0  0
   10.5140  -14.0582   10.7814 C   0  0  0  0  0  0  0  0  0  0  0  0
   10.7214  -13.4584   12.1370 N   0  0  0  0  0  0  0  0  0  0  0  0
    7.5159   -8.5936   10.4643 C   0  0  2  0  0  0  0  0  0  0  0  0
    6.1532   -8.5196   10.9374 N   0  0  0  0  0  0  0  0  0  0  0  0
    7.5250   -9.0235    8.9419 C   0  0  0  0  0  0  0  0  0  0  0  0
    9.0237   -9.1142    8.4066 C   0  0  2  0  0  0  0  0  0  0  0  0
    9.0297   -9.5023    6.9717 N   0  0  0  0  0  0  0  0  0  0  0  0
    9.8353  -10.1682    9.2940 C   0  0  2  0  0  0  0  0  0  0  0  0
    9.7959   -9.6949   10.8093 C   0  0  2  0  0  0  0  0  0  0  0  0
   10.5225  -10.6293   11.6107 O   0  0  0  0  0  0  0  0  0  0  0  0
    8.3054   -9.6056   11.3249 C   0  0  1  0  0  0  0  0  0  0  0  0
    8.2858   -9.1527   12.7016 O   0  0  0  0  0  0  0  0  0  0  0  0
    8.5988   -7.8702   13.1284 C   0  0  2  0  0  0  0  0  0  0  0  0
    8.6621   -7.8973   14.6970 C   0  0  2  0  0  0  0  0  0  0  0  0
    9.6017   -8.8351   15.1127 O   0  0  0  0  0  0  0  0  0  0  0  0
    7.2393   -8.1867   15.3399 C   0  0  1  0  0  0  0  0  0  0  0  0
    7.3201   -8.1955   16.8333 N   0  0  0  0  0  0  0  0  0  0  0  0
    6.2160   -7.0801   14.8306 C   0  0  2  0  0  0  0  0  0  0  0  0
    4.9158   -7.2910   15.3951 O   0  0  0  0  0  0  0  0  0  0  0  0
    6.1787   -7.1347   13.2543 C   0  0  2  0  0  0  0  0  0  0  0  0
    7.5667   -6.9044   12.6720 O   0  0  0  0  0  0  0  0  0  0  0  0
    5.2389   -6.0935   12.6946 C   0  0  0  0  0  0  0  0  0  0  0  0
    5.8641   -4.8059   12.5400 O   0  0  0  0  0  0  0  0  0  0  0  0
   10.9115  -10.8737    6.0263 O   0  0  0  0  0  0  0  0  0  0  0  0
    8.7805  -12.7489    6.2861 O   0  0  0  0  0  0  0  0  0  0  0  0
    5.3796   -9.7354   11.0385 C   0  0  0  0  0  0  0  0  0  0  0  0
    5.6975  -10.7435   10.3403 O   0  0  0  0  0  0  0  0  0  0  0  0
    4.1645   -9.7484   12.0161 C   0  0  2  0  0  0  0  0  0  0  0  0
    2.0054  -12.5088   12.1638 N   0  0  0  0  0  0  0  0  0  0  0  0
    2.8968  -10.3375   11.3237 C   0  0  0  0  0  0  0  0  0  0  0  0
    2.9301  -11.8698   11.1970 C   0  0  0  0  0  0  0  0  0  0  0  0
    3.8300   -8.5819   12.3976 O   0  0  0  0  0  0  0  0  0  0  0  0
  1  2  1  1  0  0  0
  1  3  1  0  0  0  0
  1  8  1  0  0  0  0
  3  4  1  0  0  0  0
  3 32  1  6  0  0  0
  4  5  1  0  0  0  0
  4 33  1  6  0  0  0
  5  6  1  1  0  0  0
  5  7  1  0  0  0  0
  7  8  1  0  0  0  0
  7  9  1  1  0  0  0
  9 10  1  0  0  0  0
 11 12  1  1  0  0  0
 11 13  1  0  0  0  0
 11 19  1  0  0  0  0
 12 34  1  0  0  0  0
 13 14  1  0  0  0  0
 14 15  1  6  0  0  0
 14 16  1  0  0  0  0
 16  2  1  6  0  0  0
 16 17  1  0  0  0  0
 17 18  1  1  0  0  0
 17 19  1  0  0  0  0
 19 20  1  1  0  0  0
 21 20  1  1  0  0  0
 21 22  1  0  0  0  0
 21 29  1  0  0  0  0
 22 23  1  6  0  0  0
 22 24  1  0  0  0  0
 24 25  1  1  0  0  0
 24 26  1  0  0  0  0
 26 27  1  1  0  0  0
 26 28  1  0  0  0  0
 28 29  1  0  0  0  0
 28 30  1  6  0  0  0
 30 31  1  0  0  0  0
 34 35  2  0  0  0  0
 36 34  1  6  0  0  0
 36 38  1  0  0  0  0
 36 40  1  0  0  0  0
 37 39  1  0  0  0  0
 38 39  1  0  0  0  0
M  END
>  <CHROM.1>
60.35217142,-117.52141548,-155.40337309,67.11053646,-49.53371041,-171.26296823
85.10776438,132.20532360,76.39681355,106.07198225,7.86604252,-9.94539861
11.03342728,-0.98640681,0.03991359,0.89420696

>  <Name>
ligand

>  <RI>
0

>  <Rbt.Current_Directory>
/home/itssahil/PROJECTS/Mol_Feturizer/New_Systems/rnas/4P20

>  <Rbt.Executable>
rbdock ($Id: //depot/dev/client3/rdock/2013.1/src/exe/rbdock.cxx#4 $)

>  <Rbt.Library>
libRbt.so (2013.1, Build901 2013/11/27)

>  <Rbt.Parameter_File>
/export/apps/rDock/src/rDock_2013.1_src/data/scripts/dock_solv.prm

>  <Rbt.Receptor>
prm/blind_docking_20.prm

>  <SCORE>
20.6474

>  <SCORE.INTER>
3.29748

>  <SCORE.INTER.CONST>
1

>  <SCORE.INTER.POLAR>
0

>  <SCORE.INTER.ROT>
10

>  <SCORE.INTER.SOLV>
23.4699

>  <SCORE.INTER.VDW>
-15.8917

>  <SCORE.INTER.norm>
0.0824369

>  <SCORE.INTRA>
1.67174

>  <SCORE.INTRA.DIHEDRAL>
-8.29122

>  <SCORE.INTRA.DIHEDRAL.0>
28.2802

>  <SCORE.INTRA.POLAR>
0

>  <SCORE.INTRA.POLAR.0>
0

>  <SCORE.INTRA.REPUL>
0

>  <SCORE.INTRA.REPUL.0>
0

>  <SCORE.INTRA.SOLV>
7.06675

>  <SCORE.INTRA.SOLV.lig_0>
-101.981

>  <SCORE.INTRA.VDW>
2.28398

>  <SCORE.INTRA.VDW.0>
-5.72964

>  <SCORE.INTRA.norm>
0.0417936

>  <SCORE.RESTR>
15.6782

>  <SCORE.RESTR.CAVITY>
15.6782

>  <SCORE.RESTR.norm>
0.391956

>  <SCORE.SYSTEM>
0

>  <SCORE.SYSTEM.CONST>
0

>  <SCORE.SYSTEM.DIHEDRAL>
0

>  <SCORE.SYSTEM.SOLV>
0

>  <SCORE.SYSTEM.norm>
0

>  <SCORE.heavy>
40

>  <SCORE.norm>
0.516186

>  <RMSD>
12.112

$$$$
ligand
 OpenBabel11021811503D
libRbt.so/2013.1/901 2013/11/27
 40 42  0  0  0  0  0  0  0  0999 V2000
    9.8227  -12.3264    7.9763 C   0  0  2  0  0  0  0  0  0  0  0  0
   10.1595  -11.4742    9.0824 O   0  0  0  0  0  0  0  0  0  0  0  0
   10.9367  -12.2584    6.8656 C   0  0  1  0  0  0  0  0  0  0  0  0
   11.0119  -10.8456    6.2165 C   0  0  2  0  0  0  0  0  0  0  0  0
    9.6194  -10.5413    5.5788 C   0  0  2  0  0  0  0  0  0  0  0  0
    9.6601   -9.2457    4.9431 O   0  0  0  0  0  0  0  0  0  0  0  0
    8.5205  -10.5722    6.7291 C   0  0  2  0  0  0  0  0  0  0  0  0
    8.5069  -11.9312    7.3796 O   0  0  0  0  0  0  0  0  0  0  0  0
    7.1170  -10.3056    6.2025 C   0  0  0  0  0  0  0  0  0  0  0  0
    6.3002   -9.5259    7.1851 N   0  0  0  0  0  0  0  0  0  0  0  0
    6.3793  -10.4707   11.0905 C   0  0  2  0  0  0  0  0  0  0  0  0
    5.4361  -10.1930   12.1487 N   0  0  0  0  0  0  0  0  0  0  0  0
    6.9600  -11.9314   11.2691 C   0  0  0  0  0  0  0  0  0  0  0  0
    8.0069  -12.2508   10.1103 C   0  0  2  0  0  0  0  0  0  0  0  0
    8.5392  -13.6294   10.2702 N   0  0  0  0  0  0  0  0  0  0  0  0
    9.1832  -11.1684   10.1524 C   0  0  2  0  0  0  0  0  0  0  0  0
    8.5513   -9.7228    9.9711 C   0  0  2  0  0  0  0  0  0  0  0  0
    9.5960   -8.7477   10.0035 O   0  0  0  0  0  0  0  0  0  0  0  0
    7.5134   -9.4216   11.1233 C   0  0  1  0  0  0  0  0  0  0  0  0
    6.9310   -8.1083   10.9318 O   0  0  0  0  0  0  0  0  0  0  0  0
    5.8976   -7.5716   11.6861 C   0  0  2  0  0  0  0  0  0  0  0  0
    6.0211   -6.0082   11.6108 C   0  0  2  0  0  0  0  0  0  0  0  0
    5.9729   -5.5970   10.2828 O   0  0  0  0  0  0  0  0  0  0  0  0
    7.3391   -5.4855   12.3258 C   0  0  1  0  0  0  0  0  0  0  0  0
    7.4303   -3.9944   12.2533 N   0  0  0  0  0  0  0  0  0  0  0  0
    7.3303   -5.9836   13.8368 C   0  0  2  0  0  0  0  0  0  0  0  0
    8.4973   -5.5250   14.5305 O   0  0  0  0  0  0  0  0  0  0  0  0
    7.2400   -7.5587   13.8336 C   0  0  2  0  0  0  0  0  0  0  0  0
    5.9929   -8.0277   13.0966 O   0  0  0  0  0  0  0  0  0  0  0  0
    7.2067   -8.1059   15.2406 C   0  0  0  0  0  0  0  0  0  0  0  0
    8.0967   -9.2226   15.4241 O   0  0  0  0  0  0  0  0  0  0  0  0
   12.2120  -12.6147    7.4743 O   0  0  0  0  0  0  0  0  0  0  0  0
   11.9879  -10.8468    5.2496 O   0  0  0  0  0  0  0  0  0  0  0  0
    4.0689   -9.8785   11.8039 C   0  0  0  0  0  0  0  0  0  0  0  0
    3.7985   -9.4260   10.6519 O   0  0  0  0  0  0  0  0  0  0  0  0
    2.9711  -10.1100   12.8873 C   0  0  2  0  0  0  0  0  0  0  0  0
    2.1295  -11.8366   10.4975 N   0  0  0  0  0  0  0  0  0  0  0  0
    2.5503  -11.6111   12.9443 C   0  0  0  0  0  0  0  0  0  0  0  0
    2.8772  -12.3833   11.6552 C   0  0  0  0  0  0  0  0  0  0  0  0
    1.9002   -9.4677   12.6447 O   0  0  0  0  0  0  0  0  0  0  0  0
  1  2  1  1  0  0  0
  1  3  1  0  0  0  0
  1  8  1  0  0  0  0
  3  4  1  0  0  0  0
  3 32  1  1  0  0  0
  4  5  1  0  0  0  0
  4 33  1  6  0  0  0
  5  6  1  1  0  0  0
  5  7  1  0  0  0  0
  7  8  1  0  0  0  0
  7  9  1  6  0  0  0
  9 10  1  0  0  0  0
 11 12  1  1  0  0  0
 11 13  1  0  0  0  0
 11 19  1  0  0  0  0
 12 34  1  0  0  0  0
 13 14  1  0  0  0  0
 14 15  1  1  0  0  0
 14 16  1  0  0  0  0
 16  2  1  6  0  0  0
 16 17  1  0  0  0  0
 17 18  1  1  0  0  0
 17 19  1  0  0  0  0
 19 20  1  6  0  0  0
 21 20  1  6  0  0  0
 21 22  1  0  0  0  0
 21 29  1  0  0  0  0
 22 23  1  6  0  0  0
 22 24  1  0  0  0  0
 24 25  1  1  0  0  0
 24 26  1  0  0  0  0
 26 27  1  6  0  0  0
 26 28  1  0  0  0  0
 28 29  1  0  0  0  0
 28 30  1  1  0  0  0
 30 31  1  0  0  0  0
 34 35  2  0  0  0  0
 36 34  1  6  0  0  0
 36 38  1  0  0  0  0
 36 40  1  0  0  0  0
 37 39  1  0  0  0  0
 38 39  1  0  0  0  0
M  END
>  <CHROM.1>
169.25364762,17.98952177,-144.63497983,-120.08193417,53.90002064,154.63109637
-134.15916208,-80.90061261,-21.33848526,-62.87204247,7.28132767,-9.63294777
10.36992383,0.85333541,-0.51650099,-2.44197990

>  <Name>
ligand

>  <RI>
0

>  <Rbt.Current_Directory>
/home/itssahil/PROJECTS/Mol_Feturizer/New_Systems/rnas/4P20

>  <Rbt.Executable>
rbdock ($Id: //depot/dev/client3/rdock/2013.1/src/exe/rbdock.cxx#4 $)

>  <Rbt.Library>
libRbt.so (2013.1, Build901 2013/11/27)

>  <Rbt.Parameter_File>
/export/apps/rDock/src/rDock_2013.1_src/data/scripts/dock_solv.prm

>  <Rbt.Receptor>
prm/blind_docking_20.prm

>  <SCORE>
28.8444

>  <SCORE.INTER>
5.48497

>  <SCORE.INTER.CONST>
1

>  <SCORE.INTER.POLAR>
0

>  <SCORE.INTER.ROT>
10

>  <SCORE.INTER.SOLV>
25.2502

>  <SCORE.INTER.VDW>
-15.0268

>  <SCORE.INTER.norm>
0.137124

>  <SCORE.INTRA>
4.32325

>  <SCORE.INTRA.DIHEDRAL>
-4.99061

>  <SCORE.INTRA.DIHEDRAL.0>
28.2802

>  <SCORE.INTRA.POLAR>
0

>  <SCORE.INTRA.POLAR.0>
0

>  <SCORE.INTRA.REPUL>
0.0482438

>  <SCORE.INTRA.REPUL.0>
0

>  <SCORE.INTRA.SOLV>
6.23402

>  <SCORE.INTRA.SOLV.lig_0>
-101.981

>  <SCORE.INTRA.VDW>
3.46032

>  <SCORE.INTRA.VDW.0>
-5.72964

>  <SCORE.INTRA.norm>
0.108081

>  <SCORE.RESTR>
19.0362

>  <SCORE.RESTR.CAVITY>
19.0362

>  <SCORE.RESTR.norm>
0.475905

>  <SCORE.SYSTEM>
0

>  <SCORE.SYSTEM.CONST>
0

>  <SCORE.SYSTEM.DIHEDRAL>
0

>  <SCORE.SYSTEM.SOLV>
0

>  <SCORE.SYSTEM.norm>
0

>  <SCORE.heavy>
40

>  <SCORE.norm>
0.721111

>  <RMSD>
12.114

$$$$
ligand
 OpenBabel11021811503D
libRbt.so/2013.1/901 2013/11/27
 40 42  0  0  0  0  0  0  0  0999 V2000
   11.1050  -11.0338    8.1997 C   0  0  2  0  0  0  0  0  0  0  0  0
   10.1248  -10.0489    7.8361 O   0  0  0  0  0  0  0  0  0  0  0  0
   11.1499  -12.1906    7.1323 C   0  0  1  0  0  0  0  0  0  0  0  0
    9.8214  -13.0014    7.1112 C   0  0  2  0  0  0  0  0  0  0  0  0
    9.6146  -13.6112    8.5338 C   0  0  2  0  0  0  0  0  0  0  0  0
    8.4013  -14.3937    8.5441 O   0  0  0  0  0  0  0  0  0  0  0  0
    9.5279  -12.4201    9.5851 C   0  0  2  0  0  0  0  0  0  0  0  0
   10.8020  -11.6167    9.5458 O   0  0  0  0  0  0  0  0  0  0  0  0
    9.3457  -12.9148   11.0135 C   0  0  0  0  0  0  0  0  0  0  0  0
    9.4901  -11.8013   12.0034 N   0  0  0  0  0  0  0  0  0  0  0  0
    7.9700   -9.1733   11.5670 C   0  0  2  0  0  0  0  0  0  0  0  0
    7.2167   -8.4443   12.5607 N   0  0  0  0  0  0  0  0  0  0  0  0
    9.3486   -8.4423   11.3066 C   0  0  0  0  0  0  0  0  0  0  0  0
   10.1897   -9.2334   10.2076 C   0  0  2  0  0  0  0  0  0  0  0  0
   11.4916   -8.5544    9.9761 N   0  0  0  0  0  0  0  0  0  0  0  0
    9.3367   -9.3237    8.8581 C   0  0  2  0  0  0  0  0  0  0  0  0
    7.9657  -10.0615    9.1710 C   0  0  2  0  0  0  0  0  0  0  0  0
    7.1970  -10.1506    7.9691 O   0  0  0  0  0  0  0  0  0  0  0  0
    7.1451   -9.2693   10.2638 C   0  0  1  0  0  0  0  0  0  0  0  0
    5.9076   -9.9662   10.5530 O   0  0  0  0  0  0  0  0  0  0  0  0
    4.6339   -9.4747   10.3063 C   0  0  2  0  0  0  0  0  0  0  0  0
    4.3505   -8.3472   11.3615 C   0  0  2  0  0  0  0  0  0  0  0  0
    5.3246   -7.3587   11.2652 O   0  0  0  0  0  0  0  0  0  0  0  0
    4.2662   -8.9279   12.8370 C   0  0  1  0  0  0  0  0  0  0  0  0
    3.9835   -7.8400   13.8236 N   0  0  0  0  0  0  0  0  0  0  0  0
    3.1346  -10.0454   12.8804 C   0  0  2  0  0  0  0  0  0  0  0  0
    3.0105  -10.5931   14.1988 O   0  0  0  0  0  0  0  0  0  0  0  0
    3.5025  -11.1575   11.8235 C   0  0  2  0  0  0  0  0  0  0  0  0
    3.6259  -10.5589   10.4289 O   0  0  0  0  0  0  0  0  0  0  0  0
    2.4580  -12.2477   11.7929 C   0  0  0  0  0  0  0  0  0  0  0  0
    1.2208  -11.8157   11.1967 O   0  0  0  0  0  0  0  0  0  0  0  0
   11.4136  -11.5987    5.8269 O   0  0  0  0  0  0  0  0  0  0  0  0
    9.9204  -14.0017    6.1746 O   0  0  0  0  0  0  0  0  0  0  0  0
    7.8916   -7.9814   13.7512 C   0  0  0  0  0  0  0  0  0  0  0  0
    8.9561   -8.5522   14.1334 O   0  0  0  0  0  0  0  0  0  0  0  0
    7.2639   -6.7828   14.5269 C   0  0  2  0  0  0  0  0  0  0  0  0
    6.0404   -4.5487   11.5831 N   0  0  0  0  0  0  0  0  0  0  0  0
    6.2924   -5.9734   13.6133 C   0  0  0  0  0  0  0  0  0  0  0  0
    7.0109   -5.2089   12.4889 C   0  0  0  0  0  0  0  0  0  0  0  0
    8.1352   -5.9439   14.9207 O   0  0  0  0  0  0  0  0  0  0  0  0
  1  2  1  6  0  0  0
  1  3  1  0  0  0  0
  1  8  1  0  0  0  0
  3  4  1  0  0  0  0
  3 32  1  6  0  0  0
  4  5  1  0  0  0  0
  4 33  1  6  0  0  0
  5  6  1  6  0  0  0
  5  7  1  0  0  0  0
  7  8  1  0  0  0  0
  7  9  1  1  0  0  0
  9 10  1  0  0  0  0
 11 12  1  1  0  0  0
 11 13  1  0  0  0  0
 11 19  1  0  0  0  0
 12 34  1  0  0  0  0
 13 14  1  0  0  0  0
 14 15  1  6  0  0  0
 14 16  1  0  0  0  0
 16  2  1  6  0  0  0
 16 17  1  0  0  0  0
 17 18  1  6  0  0  0
 17 19  1  0  0  0  0
 19 20  1  1  0  0  0
 21 20  1  1  0  0  0
 21 22  1  0  0  0  0
 21 29  1  0  0  0  0
 22 23  1  1  0  0  0
 22 24  1  0  0  0  0
 24 25  1  1  0  0  0
 24 26  1  0  0  0  0
 26 27  1  1  0  0  0
 26 28  1  0  0  0  0
 28 29  1  0  0  0  0
 28 30  1  6  0  0  0
 30 31  1  0  0  0  0
 34 35  2  0  0  0  0
 36 34  1  6  0  0  0
 36 38  1  0  0  0  0
 36 40  1  0  0  0  0
 37 39  1  0  0  0  0
 38 39  1  0  0  0  0
M  END
>  <CHROM.1>
145.72125554,28.08261069,170.71701439,-45.10164213,124.16476979,-72.74511902
71.42910126,-20.07619616,-68.73468106,175.28531889,7.37595115,-9.89018484
10.74935323,-0.82349396,0.31380359,0.63492469

>  <Name>
ligand

>  <RI>
0

>  <Rbt.Current_Directory>
/home/itssahil/PROJECTS/Mol_Feturizer/New_Systems/rnas/4P20

>  <Rbt.Executable>
rbdock ($Id: //depot/dev/client3/rdock/2013.1/src/exe/rbdock.cxx#4 $)

>  <Rbt.Library>
libRbt.so (2013.1, Build901 2013/11/27)

>  <Rbt.Parameter_File>
/export/apps/rDock/src/rDock_2013.1_src/data/scripts/dock_solv.prm

>  <Rbt.Receptor>
prm/blind_docking_20.prm

>  <SCORE>
20.8328

>  <SCORE.INTER>
0.434375

>  <SCORE.INTER.CONST>
1

>  <SCORE.INTER.POLAR>
0

>  <SCORE.INTER.ROT>
10

>  <SCORE.INTER.SOLV>
19.0143

>  <SCORE.INTER.VDW>
-16.3152

>  <SCORE.INTER.norm>
0.0108594

>  <SCORE.INTRA>
5.46162

>  <SCORE.INTRA.DIHEDRAL>
-8.6825

>  <SCORE.INTRA.DIHEDRAL.0>
28.2802

>  <SCORE.INTRA.POLAR>
0

>  <SCORE.INTRA.POLAR.0>
0

>  <SCORE.INTRA.REPUL>
0

>  <SCORE.INTRA.REPUL.0>
0

>  <SCORE.INTRA.SOLV>
11.2783

>  <SCORE.INTRA.SOLV.lig_0>
-101.981

>  <SCORE.INTRA.VDW>
4.16372

>  <SCORE.INTRA.VDW.0>
-5.72964

>  <SCORE.INTRA.norm>
0.13654

>  <SCORE.RESTR>
14.9368

>  <SCORE.RESTR.CAVITY>
14.9368

>  <SCORE.RESTR.norm>
0.37342

>  <SCORE.SYSTEM>
0

>  <SCORE.SYSTEM.CONST>
0

>  <SCORE.SYSTEM.DIHEDRAL>
0

>  <SCORE.SYSTEM.SOLV>
0

>  <SCORE.SYSTEM.norm>
0

>  <SCORE.heavy>
40

>  <SCORE.norm>
0.52082

>  <RMSD>
12.173

$$$$
ligand
 OpenBabel11021811503D
libRbt.so/2013.1/901 2013/11/27
 40 42  0  0  0  0  0  0  0  0999 V2000
   11.0813  -11.0731    8.0708 C   0  0  2  0  0  0  0  0  0  0  0  0
   10.0796  -10.0740    7.8225 O   0  0  0  0  0  0  0  0  0  0  0  0
   11.0575  -12.1729    6.9442 C   0  0  1  0  0  0  0  0  0  0  0  0
    9.7304  -12.9861    6.9666 C   0  0  2  0  0  0  0  0  0  0  0  0
    9.6157  -13.6694    8.3660 C   0  0  2  0  0  0  0  0  0  0  0  0
    8.4057  -14.4556    8.4137 O   0  0  0  0  0  0  0  0  0  0  0  0
    9.5969  -12.5346    9.4810 C   0  0  2  0  0  0  0  0  0  0  0  0
   10.8657  -11.7258    9.4015 O   0  0  0  0  0  0  0  0  0  0  0  0
    9.5070  -13.1031   10.8906 C   0  0  0  0  0  0  0  0  0  0  0  0
    9.5862  -12.0237   11.9247 N   0  0  0  0  0  0  0  0  0  0  0  0
    8.0021   -9.4867   11.6525 C   0  0  2  0  0  0  0  0  0  0  0  0
    7.3029   -8.8269   12.7305 N   0  0  0  0  0  0  0  0  0  0  0  0
    9.4255   -8.8234   11.4606 C   0  0  0  0  0  0  0  0  0  0  0  0
   10.2077   -9.5385   10.2700 C   0  0  2  0  0  0  0  0  0  0  0  0
   11.5512   -8.9250   10.1019 N   0  0  0  0  0  0  0  0  0  0  0  0
    9.3455   -9.4189    8.9286 C   0  0  2  0  0  0  0  0  0  0  0  0
    7.9295  -10.0955    9.1717 C   0  0  2  0  0  0  0  0  0  0  0  0
    7.1521   -9.9970    7.9763 O   0  0  0  0  0  0  0  0  0  0  0  0
    7.1678   -9.3798   10.3561 C   0  0  1  0  0  0  0  0  0  0  0  0
    5.8876  -10.0219   10.5788 O   0  0  0  0  0  0  0  0  0  0  0  0
    4.6507   -9.4712   10.2759 C   0  0  2  0  0  0  0  0  0  0  0  0
    4.3763   -8.3268   11.3153 C   0  0  2  0  0  0  0  0  0  0  0  0
    5.3999   -7.3865   11.2591 O   0  0  0  0  0  0  0  0  0  0  0  0
    4.2005   -8.8965   12.7870 C   0  0  1  0  0  0  0  0  0  0  0  0
    3.9278   -7.7920   13.7579 N   0  0  0  0  0  0  0  0  0  0  0  0
    3.0159   -9.9585   12.7838 C   0  0  2  0  0  0  0  0  0  0  0  0
    2.8088  -10.4938   14.0968 O   0  0  0  0  0  0  0  0  0  0  0  0
    3.3755  -11.0914   11.7465 C   0  0  2  0  0  0  0  0  0  0  0  0
    3.5876  -10.5055   10.3571 O   0  0  0  0  0  0  0  0  0  0  0  0
    2.2823  -12.1306   11.6730 C   0  0  0  0  0  0  0  0  0  0  0  0
    2.2237  -12.7863   10.3926 O   0  0  0  0  0  0  0  0  0  0  0  0
   11.2365  -11.5134    5.6570 O   0  0  0  0  0  0  0  0  0  0  0  0
    9.7691  -13.9363    5.9750 O   0  0  0  0  0  0  0  0  0  0  0  0
    7.3863   -7.3891   12.8434 C   0  0  0  0  0  0  0  0  0  0  0  0
    8.3619   -6.7723   12.3211 O   0  0  0  0  0  0  0  0  0  0  0  0
    6.2538   -6.6510   13.6213 C   0  0  2  0  0  0  0  0  0  0  0  0
    6.7030   -5.2480   10.8736 N   0  0  0  0  0  0  0  0  0  0  0  0
    6.2808   -5.1192   13.3271 C   0  0  0  0  0  0  0  0  0  0  0  0
    5.7726   -4.7615   11.9204 C   0  0  0  0  0  0  0  0  0  0  0  0
    6.3779   -6.7551   14.8830 O   0  0  0  0  0  0  0  0  0  0  0  0
  1  2  1  6  0  0  0
  1  3  1  0  0  0  0
  1  8  1  0  0  0  0
  3  4  1  0  0  0  0
  3 32  1  6  0  0  0
  4  5  1  0  0  0  0
  4 33  1  6  0  0  0
  5  6  1  6  0  0  0
  5  7  1  0  0  0  0
  7  8  1  0  0  0  0
  7  9  1  1  0  0  0
  9 10  1  0  0  0  0
 11 12  1  1  0  0  0
 11 13  1  0  0  0  0
 11 19  1  0  0  0  0
 12 34  1  0  0  0  0
 13 14  1  0  0  0  0
 14 15  1  6  0  0  0
 14 16  1  0  0  0  0
 16  2  1  6  0  0  0
 16 17  1  0  0  0  0
 17 18  1  6  0  0  0
 17 19  1  0  0  0  0
 19 20  1  1  0  0  0
 21 20  1  1  0  0  0
 21 22  1  0  0  0  0
 21 29  1  0  0  0  0
 22 23  1  1  0  0  0
 22 24  1  0  0  0  0
 24 25  1  1  0  0  0
 24 26  1  0  0  0  0
 26 27  1  1  0  0  0
 26 28  1  0  0  0  0
 28 29  1  0  0  0  0
 28 30  1  6  0  0  0
 30 31  1  0  0  0  0
 34 35  2  0  0  0  0
 36 34  1  6  0  0  0
 36 38  1  0  0  0  0
 36 40  1  0  0  0  0
 37 39  1  0  0  0  0
 38 39  1  0  0  0  0
M  END
>  <CHROM.1>
144.85622687,22.38762795,176.06409526,40.99831332,131.07826744,-71.99651247
152.51219200,-164.71946163,73.20930203,-67.95889558,7.27249280,-9.90782640
10.55851218,-0.79731667,0.37070650,0.52729968

>  <Name>
ligand

>  <RI>
0

>  <Rbt.Current_Directory>
/home/itssahil/PROJECTS/Mol_Feturizer/New_Systems/rnas/4P20

>  <Rbt.Executable>
rbdock ($Id: //depot/dev/client3/rdock/2013.1/src/exe/rbdock.cxx#4 $)

>  <Rbt.Library>
libRbt.so (2013.1, Build901 2013/11/27)

>  <Rbt.Parameter_File>
/export/apps/rDock/src/rDock_2013.1_src/data/scripts/dock_solv.prm

>  <Rbt.Receptor>
prm/blind_docking_20.prm

>  <SCORE>
32.608

>  <SCORE.INTER>
0.218209

>  <SCORE.INTER.CONST>
1

>  <SCORE.INTER.POLAR>
0

>  <SCORE.INTER.ROT>
10

>  <SCORE.INTER.SOLV>
17.7421

>  <SCORE.INTER.VDW>
-16.0352

>  <SCORE.INTER.norm>
0.00545523

>  <SCORE.INTRA>
17.254

>  <SCORE.INTRA.DIHEDRAL>
-6.94613

>  <SCORE.INTRA.DIHEDRAL.0>
28.2802

>  <SCORE.INTRA.POLAR>
0

>  <SCORE.INTRA.POLAR.0>
0

>  <SCORE.INTRA.REPUL>
0

>  <SCORE.INTRA.REPUL.0>
0

>  <SCORE.INTRA.SOLV>
17.1339

>  <SCORE.INTRA.SOLV.lig_0>
-101.981

>  <SCORE.INTRA.VDW>
12.1601

>  <SCORE.INTRA.VDW.0>
-5.72964

>  <SCORE.INTRA.norm>
0.431349

>  <SCORE.RESTR>
15.1358

>  <SCORE.RESTR.CAVITY>
15.1358

>  <SCORE.RESTR.norm>
0.378395

>  <SCORE.SYSTEM>
0

>  <SCORE.SYSTEM.CONST>
0

>  <SCORE.SYSTEM.DIHEDRAL>
0

>  <SCORE.SYSTEM.SOLV>
0

>  <SCORE.SYSTEM.norm>
0

>  <SCORE.heavy>
40

>  <SCORE.norm>
0.8152

>  <RMSD>
12.182

$$$$
ligand
 OpenBabel11021811503D
libRbt.so/2013.1/901 2013/11/27
 40 42  0  0  0  0  0  0  0  0999 V2000
   11.0658  -11.0220    8.2282 C   0  0  2  0  0  0  0  0  0  0  0  0
   10.1074  -10.0012    7.9086 O   0  0  0  0  0  0  0  0  0  0  0  0
   11.0690  -12.1440    7.1234 C   0  0  1  0  0  0  0  0  0  0  0  0
    9.7198  -12.9197    7.0920 C   0  0  2  0  0  0  0  0  0  0  0  0
    9.5133  -13.5702    8.4964 C   0  0  2  0  0  0  0  0  0  0  0  0
    8.2804  -14.3216    8.4961 O   0  0  0  0  0  0  0  0  0  0  0  0
    9.4692  -12.4124    9.5868 C   0  0  2  0  0  0  0  0  0  0  0  0
   10.7630  -11.6408    9.5582 O   0  0  0  0  0  0  0  0  0  0  0  0
    9.2903  -12.9488   11.0005 C   0  0  0  0  0  0  0  0  0  0  0  0
    8.0002  -13.6937   11.1466 N   0  0  0  0  0  0  0  0  0  0  0  0
    7.8125   -9.3574   11.6030 C   0  0  2  0  0  0  0  0  0  0  0  0
    7.0492   -8.6827   12.6270 N   0  0  0  0  0  0  0  0  0  0  0  0
    9.2403   -8.6873   11.4793 C   0  0  0  0  0  0  0  0  0  0  0  0
   10.0932   -9.4189   10.3487 C   0  0  2  0  0  0  0  0  0  0  0  0
   11.4401   -8.7988   10.2451 N   0  0  0  0  0  0  0  0  0  0  0  0
    9.3077   -9.3308    8.9587 C   0  0  2  0  0  0  0  0  0  0  0  0
    7.8844  -10.0131    9.1342 C   0  0  2  0  0  0  0  0  0  0  0  0
    7.1754   -9.9427    7.8951 O   0  0  0  0  0  0  0  0  0  0  0  0
    7.0523   -9.2810   10.2598 C   0  0  1  0  0  0  0  0  0  0  0  0
    5.7656   -9.9281   10.4220 O   0  0  0  0  0  0  0  0  0  0  0  0
    4.5327   -9.3180   10.2422 C   0  0  2  0  0  0  0  0  0  0  0  0
    4.3727   -8.2361   11.3687 C   0  0  2  0  0  0  0  0  0  0  0  0
    5.4248   -7.3286   11.3006 O   0  0  0  0  0  0  0  0  0  0  0  0
    4.2760   -8.8953   12.8101 C   0  0  1  0  0  0  0  0  0  0  0  0
    4.1116   -7.8487   13.8658 N   0  0  0  0  0  0  0  0  0  0  0  0
    3.0547   -9.9148   12.8227 C   0  0  2  0  0  0  0  0  0  0  0  0
    2.9172  -10.5283   14.1104 O   0  0  0  0  0  0  0  0  0  0  0  0
    3.3001  -10.9883   11.6929 C   0  0  2  0  0  0  0  0  0  0  0  0
    3.4394  -10.3195   10.3321 O   0  0  0  0  0  0  0  0  0  0  0  0
    2.1661  -11.9836   11.6307 C   0  0  0  0  0  0  0  0  0  0  0  0
    2.1394  -12.7192   10.3934 O   0  0  0  0  0  0  0  0  0  0  0  0
   11.3332  -11.5166    5.8348 O   0  0  0  0  0  0  0  0  0  0  0  0
    9.7825  -13.8910    6.1224 O   0  0  0  0  0  0  0  0  0  0  0  0
    7.3845   -8.9083   14.0140 C   0  0  0  0  0  0  0  0  0  0  0  0
    7.9988   -9.9643   14.3492 O   0  0  0  0  0  0  0  0  0  0  0  0
    6.9621   -7.8244   15.0528 C   0  0  2  0  0  0  0  0  0  0  0  0
    8.1874   -4.7012   13.0922 N   0  0  0  0  0  0  0  0  0  0  0  0
    6.9257   -6.4084   14.3992 C   0  0  0  0  0  0  0  0  0  0  0  0
    8.3053   -5.9227   13.9241 C   0  0  0  0  0  0  0  0  0  0  0  0
    7.7810   -7.7286   16.0214 O   0  0  0  0  0  0  0  0  0  0  0  0
  1  2  1  6  0  0  0
  1  3  1  0  0  0  0
  1  8  1  0  0  0  0
  3  4  1  0  0  0  0
  3 32  1  6  0  0  0
  4  5  1  0  0  0  0
  4 33  1  6  0  0  0
  5  6  1  6  0  0  0
  5  7  1  0  0  0  0
  7  8  1  0  0  0  0
  7  9  1  1  0  0  0
  9 10  1  0  0  0  0
 11 12  1  1  0  0  0
 11 13  1  0  0  0  0
 11 19  1  0  0  0  0
 12 34  1  0  0  0  0
 13 14  1  0  0  0  0
 14 15  1  6  0  0  0
 14 16  1  0  0  0  0
 16  2  1  6  0  0  0
 16 17  1  0  0  0  0
 17 18  1  6  0  0  0
 17 19  1  0  0  0  0
 19 20  1  1  0  0  0
 21 20  1  1  0  0  0
 21 22  1  0  0  0  0
 21 29  1  0  0  0  0
 22 23  1  1  0  0  0
 22 24  1  0  0  0  0
 24 25  1  1  0  0  0
 24 26  1  0  0  0  0
 26 27  1  1  0  0  0
 26 28  1  0  0  0  0
 28 29  1  0  0  0  0
 28 30  1  6  0  0  0
 30 31  1  0  0  0  0
 34 35  2  0  0  0  0
 36 34  1  6  0  0  0
 36 38  1  0  0  0  0
 36 40  1  0  0  0  0
 37 39  1  0  0  0  0
 38 39  1  0  0  0  0
M  END
>  <CHROM.1>
143.04945575,24.64256355,-61.33873254,-73.76491602,120.10208816,-66.46863048
162.58378148,-29.65032965,-64.38696535,169.42162601,7.34949410,-10.10550162
10.84969209,-0.89682208,0.29068702,0.76239545

>  <Name>
ligand

>  <RI>
0

>  <Rbt.Current_Directory>
/home/itssahil/PROJECTS/Mol_Feturizer/New_Systems/rnas/4P20

>  <Rbt.Executable>
rbdock ($Id: //depot/dev/client3/rdock/2013.1/src/exe/rbdock.cxx#4 $)

>  <Rbt.Library>
libRbt.so (2013.1, Build901 2013/11/27)

>  <Rbt.Parameter_File>
/export/apps/rDock/src/rDock_2013.1_src/data/scripts/dock_solv.prm

>  <Rbt.Receptor>
prm/blind_docking_20.prm

>  <SCORE>
20.124

>  <SCORE.INTER>
-1.07811

>  <SCORE.INTER.CONST>
1

>  <SCORE.INTER.POLAR>
0

>  <SCORE.INTER.ROT>
10

>  <SCORE.INTER.SOLV>
17.4265

>  <SCORE.INTER.VDW>
-16.7942

>  <SCORE.INTER.norm>
-0.0269527

>  <SCORE.INTRA>
4.40992

>  <SCORE.INTRA.DIHEDRAL>
-8.09006

>  <SCORE.INTRA.DIHEDRAL.0>
28.2802

>  <SCORE.INTRA.POLAR>
0

>  <SCORE.INTRA.POLAR.0>
0

>  <SCORE.INTRA.REPUL>
0

>  <SCORE.INTRA.REPUL.0>
0

>  <SCORE.INTRA.SOLV>
7.12132

>  <SCORE.INTRA.SOLV.lig_0>
-101.981

>  <SCORE.INTRA.VDW>
4.89429

>  <SCORE.INTRA.VDW.0>
-5.72964

>  <SCORE.INTRA.norm>
0.110248

>  <SCORE.RESTR>
16.7922

>  <SCORE.RESTR.CAVITY>
16.7922

>  <SCORE.RESTR.norm>
0.419805

>  <SCORE.SYSTEM>
0

>  <SCORE.SYSTEM.CONST>
0

>  <SCORE.SYSTEM.DIHEDRAL>
0

>  <SCORE.SYSTEM.SOLV>
0

>  <SCORE.SYSTEM.norm>
0

>  <SCORE.heavy>
40

>  <SCORE.norm>
0.503101

>  <RMSD>
12.184

$$$$
ligand
 OpenBabel11021811503D
libRbt.so/2013.1/901 2013/11/27
 40 42  0  0  0  0  0  0  0  0999 V2000
   11.0296  -10.3119    9.0924 C   0  0  2  0  0  0  0  0  0  0  0  0
   10.5311  -11.1119   10.1762 O   0  0  0  0  0  0  0  0  0  0  0  0
   10.2121  -10.5917    7.7761 C   0  0  1  0  0  0  0  0  0  0  0  0
   10.4236  -12.0484    7.2700 C   0  0  2  0  0  0  0  0  0  0  0  0
   11.9479  -12.2364    6.9880 C   0  0  2  0  0  0  0  0  0  0  0  0
   12.1785  -13.5721    6.4908 O   0  0  0  0  0  0  0  0  0  0  0  0
   12.7452  -11.9922    8.3430 C   0  0  2  0  0  0  0  0  0  0  0  0
   12.4789  -10.5958    8.8423 O   0  0  0  0  0  0  0  0  0  0  0  0
   14.2510  -12.1333    8.1674 C   0  0  0  0  0  0  0  0  0  0  0  0
   14.6372  -13.5434    7.8465 N   0  0  0  0  0  0  0  0  0  0  0  0
    6.1961  -10.3831   10.0978 C   0  0  2  0  0  0  0  0  0  0  0  0
    4.8196  -10.3335   10.5329 N   0  0  0  0  0  0  0  0  0  0  0  0
    6.7057  -11.8806   10.1239 C   0  0  0  0  0  0  0  0  0  0  0  0
    8.2261  -11.9508    9.6503 C   0  0  2  0  0  0  0  0  0  0  0  0
    8.6983  -13.3602    9.6597 N   0  0  0  0  0  0  0  0  0  0  0  0
    9.1182  -11.0358   10.6115 C   0  0  2  0  0  0  0  0  0  0  0  0
    8.5678   -9.5474   10.5523 C   0  0  2  0  0  0  0  0  0  0  0  0
    9.3617   -8.7202   11.4060 O   0  0  0  0  0  0  0  0  0  0  0  0
    7.0599   -9.4935   11.0199 C   0  0  1  0  0  0  0  0  0  0  0  0
    6.5669   -8.1329   10.9401 O   0  0  0  0  0  0  0  0  0  0  0  0
    5.4937   -7.6254   11.6582 C   0  0  2  0  0  0  0  0  0  0  0  0
    5.6135   -6.0600   11.6426 C   0  0  2  0  0  0  0  0  0  0  0  0
    5.6314   -5.6037   10.3286 O   0  0  0  0  0  0  0  0  0  0  0  0
    6.8907   -5.5582   12.4417 C   0  0  1  0  0  0  0  0  0  0  0  0
    6.9785   -4.0652   12.4248 N   0  0  0  0  0  0  0  0  0  0  0  0
    6.8069   -6.1077   13.9324 C   0  0  2  0  0  0  0  0  0  0  0  0
    7.9346   -5.6697   14.7004 O   0  0  0  0  0  0  0  0  0  0  0  0
    6.7243   -7.6820   13.8709 C   0  0  2  0  0  0  0  0  0  0  0  0
    5.5188   -8.1292   13.0554 O   0  0  0  0  0  0  0  0  0  0  0  0
    6.6216   -8.2772   15.2550 C   0  0  0  0  0  0  0  0  0  0  0  0
    7.8101   -8.0675   16.0400 O   0  0  0  0  0  0  0  0  0  0  0  0
    8.8029  -10.3408    8.0506 O   0  0  0  0  0  0  0  0  0  0  0  0
    9.7001  -12.2328    6.1167 O   0  0  0  0  0  0  0  0  0  0  0  0
    4.4994  -10.7143   11.8891 C   0  0  0  0  0  0  0  0  0  0  0  0
    5.2840  -11.4735   12.5316 O   0  0  0  0  0  0  0  0  0  0  0  0
    3.1763  -10.1674   12.5079 C   0  0  2  0  0  0  0  0  0  0  0  0
    1.9286  -12.6637   10.2345 N   0  0  0  0  0  0  0  0  0  0  0  0
    1.9764  -11.1100   12.1835 C   0  0  0  0  0  0  0  0  0  0  0  0
    2.4101  -12.4753   11.6240 C   0  0  0  0  0  0  0  0  0  0  0  0
    2.8495   -9.0308   12.0394 O   0  0  0  0  0  0  0  0  0  0  0  0
  1  2  1  1  0  0  0
  1  3  1  0  0  0  0
  1  8  1  0  0  0  0
  3  4  1  0  0  0  0
  3 32  1  1  0  0  0
  4  5  1  0  0  0  0
  4 33  1  6  0  0  0
  5  6  1  1  0  0  0
  5  7  1  0  0  0  0
  7  8  1  0  0  0  0
  7  9  1  6  0  0  0
  9 10  1  0  0  0  0
 11 12  1  1  0  0  0
 11 13  1  0  0  0  0
 11 19  1  0  0  0  0
 12 34  1  0  0  0  0
 13 14  1  0  0  0  0
 14 15  1  1  0  0  0
 14 16  1  0  0  0  0
 16  2  1  6  0  0  0
 16 17  1  0  0  0  0
 17 18  1  1  0  0  0
 17 19  1  0  0  0  0
 19 20  1  6  0  0  0
 21 20  1  6  0  0  0
 21 22  1  0  0  0  0
 21 29  1  0  0  0  0
 22 23  1  6  0  0  0
 22 24  1  0  0  0  0
 24 25  1  1  0  0  0
 24 26  1  0  0  0  0
 26 27  1  1  0  0  0
 26 28  1  0  0  0  0
 28 29  1  0  0  0  0
 28 30  1  1  0  0  0
 30 31  1  0  0  0  0
 34 35  2  0  0  0  0
 36 34  1  6  0  0  0
 36 38  1  0  0  0  0
 36 40  1  0  0  0  0
 37 39  1  0  0  0  0
 38 39  1  0  0  0  0
M  END
>  <CHROM.1>
-57.77493800,81.97147893,-66.78421705,64.42000931,82.84446210,161.20954669
-66.04719267,87.70838058,12.79203678,-116.22471242,7.72475870,-9.88674405
10.71095356,-0.71291931,0.25675569,0.60605938

>  <Name>
ligand

>  <RI>
0

>  <Rbt.Current_Directory>
/home/itssahil/PROJECTS/Mol_Feturizer/New_Systems/rnas/4P20

>  <Rbt.Executable>
rbdock ($Id: //depot/dev/client3/rdock/2013.1/src/exe/rbdock.cxx#4 $)

>  <Rbt.Library>
libRbt.so (2013.1, Build901 2013/11/27)

>  <Rbt.Parameter_File>
/export/apps/rDock/src/rDock_2013.1_src/data/scripts/dock_solv.prm

>  <Rbt.Receptor>
prm/blind_docking_20.prm

>  <SCORE>
25.5089

>  <SCORE.INTER>
5.11235

>  <SCORE.INTER.CONST>
1

>  <SCORE.INTER.POLAR>
0

>  <SCORE.INTER.ROT>
10

>  <SCORE.INTER.SOLV>
27.0093

>  <SCORE.INTER.VDW>
-15.8615

>  <SCORE.INTER.norm>
0.127809

>  <SCORE.INTRA>
7.02459

>  <SCORE.INTRA.DIHEDRAL>
-10.345

>  <SCORE.INTRA.DIHEDRAL.0>
28.2802

>  <SCORE.INTRA.POLAR>
0

>  <SCORE.INTRA.POLAR.0>
0

>  <SCORE.INTRA.REPUL>
0

>  <SCORE.INTRA.REPUL.0>
0

>  <SCORE.INTRA.SOLV>
6.48882

>  <SCORE.INTRA.SOLV.lig_0>
-101.981

>  <SCORE.INTRA.VDW>
8.9527

>  <SCORE.INTRA.VDW.0>
-5.72964

>  <SCORE.INTRA.norm>
0.175615

>  <SCORE.RESTR>
13.372

>  <SCORE.RESTR.CAVITY>
13.372

>  <SCORE.RESTR.norm>
0.334299

>  <SCORE.SYSTEM>
0

>  <SCORE.SYSTEM.CONST>
0

>  <SCORE.SYSTEM.DIHEDRAL>
0

>  <SCORE.SYSTEM.SOLV>
0

>  <SCORE.SYSTEM.norm>
0

>  <SCORE.heavy>
40

>  <SCORE.norm>
0.637723

>  <RMSD>
12.192

$$$$
ligand
 OpenBabel11021811503D
libRbt.so/2013.1/901 2013/11/27
 40 42  0  0  0  0  0  0  0  0999 V2000
   11.6461  -11.5076    8.0564 C   0  0  2  0  0  0  0  0  0  0  0  0
   10.8787  -10.3123    8.2692 O   0  0  0  0  0  0  0  0  0  0  0  0
   11.0420  -12.3497    6.8709 C   0  0  1  0  0  0  0  0  0  0  0  0
    9.6256  -12.8933    7.2190 C   0  0  2  0  0  0  0  0  0  0  0  0
    9.7617  -13.7969    8.4852 C   0  0  2  0  0  0  0  0  0  0  0  0
    8.4676  -14.3409    8.8227 O   0  0  0  0  0  0  0  0  0  0  0  0
   10.3311  -12.9111    9.6779 C   0  0  2  0  0  0  0  0  0  0  0  0
   11.6759  -12.3502    9.2944 O   0  0  0  0  0  0  0  0  0  0  0  0
   10.5201  -13.7106   10.9598 C   0  0  0  0  0  0  0  0  0  0  0  0
   10.3145  -12.8595   12.1738 N   0  0  0  0  0  0  0  0  0  0  0  0
    6.9269   -9.0064    9.6862 C   0  0  2  0  0  0  0  0  0  0  0  0
    5.5819   -9.0725   10.2087 N   0  0  0  0  0  0  0  0  0  0  0  0
    7.0084   -9.8172    8.3303 C   0  0  0  0  0  0  0  0  0  0  0  0
    8.4894   -9.7572    7.7436 C   0  0  2  0  0  0  0  0  0  0  0  0
    8.5603  -10.5056    6.4613 N   0  0  0  0  0  0  0  0  0  0  0  0
    9.5059  -10.3590    8.8213 C   0  0  2  0  0  0  0  0  0  0  0  0
    9.3857   -9.5151   10.1611 C   0  0  2  0  0  0  0  0  0  0  0  0
   10.2940  -10.0433   11.1303 O   0  0  0  0  0  0  0  0  0  0  0  0
    7.9130   -9.5801   10.7286 C   0  0  1  0  0  0  0  0  0  0  0  0
    7.8151   -8.7885   11.9388 O   0  0  0  0  0  0  0  0  0  0  0  0
    8.2044   -7.4627   12.0636 C   0  0  2  0  0  0  0  0  0  0  0  0
    8.0867   -7.0771   13.5810 C   0  0  2  0  0  0  0  0  0  0  0  0
    8.8747   -7.9319   14.3449 O   0  0  0  0  0  0  0  0  0  0  0  0
    6.5785   -7.0899   14.0776 C   0  0  1  0  0  0  0  0  0  0  0  0
    6.4884   -6.7079   15.5208 N   0  0  0  0  0  0  0  0  0  0  0  0
    5.7352   -6.0920   13.1698 C   0  0  2  0  0  0  0  0  0  0  0  0
    4.3650   -6.0582   13.5880 O   0  0  0  0  0  0  0  0  0  0  0  0
    5.8713   -6.5598   11.6693 C   0  0  2  0  0  0  0  0  0  0  0  0
    7.3323   -6.5856   11.2409 O   0  0  0  0  0  0  0  0  0  0  0  0
    5.1097   -5.6439   10.7411 C   0  0  0  0  0  0  0  0  0  0  0  0
    5.3026   -4.2515   11.0524 O   0  0  0  0  0  0  0  0  0  0  0  0
   10.9924  -11.5021    5.6864 O   0  0  0  0  0  0  0  0  0  0  0  0
    9.1534  -13.6282    6.1585 O   0  0  0  0  0  0  0  0  0  0  0  0
    5.1503  -10.2755   10.8821 C   0  0  0  0  0  0  0  0  0  0  0  0
    5.7356  -11.3739   10.6453 O   0  0  0  0  0  0  0  0  0  0  0  0
    3.9593  -10.1647   11.8830 C   0  0  2  0  0  0  0  0  0  0  0  0
    2.0336  -13.5240   11.4818 N   0  0  0  0  0  0  0  0  0  0  0  0
    2.8172  -11.1575   11.5043 C   0  0  0  0  0  0  0  0  0  0  0  0
    3.0914  -12.6010   11.9585 C   0  0  0  0  0  0  0  0  0  0  0  0
    3.4208   -9.0123   11.8780 O   0  0  0  0  0  0  0  0  0  0  0  0
  1  2  1  1  0  0  0
  1  3  1  0  0  0  0
  1  8  1  0  0  0  0
  3  4  1  0  0  0  0
  3 32  1  6  0  0  0
  4  5  1  0  0  0  0
  4 33  1  6  0  0  0
  5  6  1  1  0  0  0
  5  7  1  0  0  0  0
  7  8  1  0  0  0  0
  7  9  1  1  0  0  0
  9 10  1  0  0  0  0
 11 12  1  1  0  0  0
 11 13  1  0  0  0  0
 11 19  1  0  0  0  0
 12 34  1  0  0  0  0
 13 14  1  0  0  0  0
 14 15  1  6  0  0  0
 14 16  1  0  0  0  0
 16  2  1  6  0  0  0
 16 17  1  0  0  0  0
 17 18  1  1  0  0  0
 17 19  1  0  0  0  0
 19 20  1  1  0  0  0
 21 20  1  1  0  0  0
 21 22  1  0  0  0  0
 21 29  1  0  0  0  0
 22 23  1  1  0  0  0
 22 24  1  0  0  0  0
 24 25  1  1  0  0  0
 24 26  1  0  0  0  0
 26 27  1  1  0  0  0
 26 28  1  0  0  0  0
 28 29  1  0  0  0  0
 28 30  1  6  0  0  0
 30 31  1  0  0  0  0
 34 35  2  0  0  0  0
 36 34  1  6  0  0  0
 36 38  1  0  0  0  0
 36 40  1  0  0  0  0
 37 39  1  0  0  0  0
 38 39  1  0  0  0  0
M  END
>  <CHROM.1>
69.71741174,-118.32600171,-148.77700157,77.80272338,-67.30833322,-172.96583991
43.84864710,124.55581817,79.59740128,-175.41871558,7.60881179,-9.94756088
10.45207513,-0.91961750,0.33109962,0.49346260

>  <Name>
ligand

>  <RI>
0

>  <Rbt.Current_Directory>
/home/itssahil/PROJECTS/Mol_Feturizer/New_Systems/rnas/4P20

>  <Rbt.Executable>
rbdock ($Id: //depot/dev/client3/rdock/2013.1/src/exe/rbdock.cxx#4 $)

>  <Rbt.Library>
libRbt.so (2013.1, Build901 2013/11/27)

>  <Rbt.Parameter_File>
/export/apps/rDock/src/rDock_2013.1_src/data/scripts/dock_solv.prm

>  <Rbt.Receptor>
prm/blind_docking_20.prm

>  <SCORE>
19.0686

>  <SCORE.INTER>
5.63361

>  <SCORE.INTER.CONST>
1

>  <SCORE.INTER.POLAR>
0

>  <SCORE.INTER.ROT>
10

>  <SCORE.INTER.SOLV>
27.6438

>  <SCORE.INTER.VDW>
-15.7255

>  <SCORE.INTER.norm>
0.14084

>  <SCORE.INTRA>
-1.81854

>  <SCORE.INTRA.DIHEDRAL>
-12.4631

>  <SCORE.INTRA.DIHEDRAL.0>
28.2802

>  <SCORE.INTRA.POLAR>
0

>  <SCORE.INTRA.POLAR.0>
0

>  <SCORE.INTRA.REPUL>
0

>  <SCORE.INTRA.REPUL.0>
0

>  <SCORE.INTRA.SOLV>
6.72458

>  <SCORE.INTRA.SOLV.lig_0>
-101.981

>  <SCORE.INTRA.VDW>
1.05075

>  <SCORE.INTRA.VDW.0>
-5.72964

>  <SCORE.INTRA.norm>
-0.0454634

>  <SCORE.RESTR>
15.2535

>  <SCORE.RESTR.CAVITY>
15.2535

>  <SCORE.RESTR.norm>
0.381337

>  <SCORE.SYSTEM>
0

>  <SCORE.SYSTEM.CONST>
0

>  <SCORE.SYSTEM.DIHEDRAL>
0

>  <SCORE.SYSTEM.SOLV>
0

>  <SCORE.SYSTEM.norm>
0

>  <SCORE.heavy>
40

>  <SCORE.norm>
0.476714

>  <RMSD>
12.229

$$$$
ligand
 OpenBabel11021811503D
libRbt.so/2013.1/901 2013/11/27
 40 42  0  0  0  0  0  0  0  0999 V2000
   11.0962  -11.1755    8.1753 C   0  0  2  0  0  0  0  0  0  0  0  0
   10.1712  -10.1324    7.8299 O   0  0  0  0  0  0  0  0  0  0  0  0
   11.0687  -12.3203    7.0946 C   0  0  1  0  0  0  0  0  0  0  0  0
    9.6962  -13.0542    7.0735 C   0  0  2  0  0  0  0  0  0  0  0  0
    9.4641  -13.6681    8.4904 C   0  0  2  0  0  0  0  0  0  0  0  0
    8.2085  -14.3807    8.5004 O   0  0  0  0  0  0  0  0  0  0  0  0
    9.4519  -12.4864    9.5559 C   0  0  2  0  0  0  0  0  0  0  0  0
   10.7692  -11.7561    9.5168 O   0  0  0  0  0  0  0  0  0  0  0  0
    9.2510  -12.9868   10.9798 C   0  0  0  0  0  0  0  0  0  0  0  0
   10.4348  -13.7664   11.4606 N   0  0  0  0  0  0  0  0  0  0  0  0
    8.0255   -9.2132   11.5556 C   0  0  2  0  0  0  0  0  0  0  0  0
    7.3164   -8.4596   12.5634 N   0  0  0  0  0  0  0  0  0  0  0  0
    9.4648   -8.5913   11.3447 C   0  0  0  0  0  0  0  0  0  0  0  0
   10.2581   -9.4103   10.2308 C   0  0  2  0  0  0  0  0  0  0  0  0
   11.6161   -8.8348   10.0456 N   0  0  0  0  0  0  0  0  0  0  0  0
    9.4266   -9.3807    8.8653 C   0  0  2  0  0  0  0  0  0  0  0  0
    7.9933  -10.0119    9.1284 C   0  0  2  0  0  0  0  0  0  0  0  0
    7.2431   -9.9935    7.9119 O   0  0  0  0  0  0  0  0  0  0  0  0
    7.2206   -9.1933   10.2366 C   0  0  1  0  0  0  0  0  0  0  0  0
    5.9242   -9.7941   10.4797 O   0  0  0  0  0  0  0  0  0  0  0  0
    4.7007   -9.1794   10.2557 C   0  0  2  0  0  0  0  0  0  0  0  0
    4.4714   -8.1475   11.4166 C   0  0  2  0  0  0  0  0  0  0  0  0
    5.5214   -7.2356   11.4481 O   0  0  0  0  0  0  0  0  0  0  0  0
    4.2952   -8.8685   12.8204 C   0  0  1  0  0  0  0  0  0  0  0  0
    4.0657   -7.8689   13.9089 N   0  0  0  0  0  0  0  0  0  0  0  0
    3.0800   -9.8904   12.7189 C   0  0  2  0  0  0  0  0  0  0  0  0
    2.8718  -10.5592   13.9690 O   0  0  0  0  0  0  0  0  0  0  0  0
    3.3948  -10.9136   11.5600 C   0  0  2  0  0  0  0  0  0  0  0  0
    3.6087  -10.1864   10.2394 O   0  0  0  0  0  0  0  0  0  0  0  0
    2.2709  -11.9077   11.3900 C   0  0  0  0  0  0  0  0  0  0  0  0
    2.0220  -12.6747   12.5827 O   0  0  0  0  0  0  0  0  0  0  0  0
   11.3572  -11.7289    5.7942 O   0  0  0  0  0  0  0  0  0  0  0  0
    9.7324  -14.0474    6.1249 O   0  0  0  0  0  0  0  0  0  0  0  0
    7.7166   -8.5885   13.9455 C   0  0  0  0  0  0  0  0  0  0  0  0
    8.3400   -9.6235   14.3263 O   0  0  0  0  0  0  0  0  0  0  0  0
    7.3513   -7.4290   14.9225 C   0  0  2  0  0  0  0  0  0  0  0  0
    5.8804   -5.2250   13.4214 N   0  0  0  0  0  0  0  0  0  0  0  0
    7.9824   -6.0822   14.4518 C   0  0  0  0  0  0  0  0  0  0  0  0
    7.3173   -5.5076   13.1899 C   0  0  0  0  0  0  0  0  0  0  0  0
    7.7987   -7.6194   16.0979 O   0  0  0  0  0  0  0  0  0  0  0  0
  1  2  1  6  0  0  0
  1  3  1  0  0  0  0
  1  8  1  0  0  0  0
  3  4  1  0  0  0  0
  3 32  1  6  0  0  0
  4  5  1  0  0  0  0
  4 33  1  6  0  0  0
  5  6  1  6  0  0  0
  5  7  1  0  0  0  0
  7  8  1  0  0  0  0
  7  9  1  1  0  0  0
  9 10  1  0  0  0  0
 11 12  1  1  0  0  0
 11 13  1  0  0  0  0
 11 19  1  0  0  0  0
 12 34  1  0  0  0  0
 13 14  1  0  0  0  0
 14 15  1  6  0  0  0
 14 16  1  0  0  0  0
 16  2  1  6  0  0  0
 16 17  1  0  0  0  0
 17 18  1  6  0  0  0
 17 19  1  0  0  0  0
 19 20  1  1  0  0  0
 21 20  1  1  0  0  0
 21 22  1  0  0  0  0
 21 29  1  0  0  0  0
 22 23  1  1  0  0  0
 22 24  1  0  0  0  0
 24 25  1  1  0  0  0
 24 26  1  0  0  0  0
 26 27  1  1  0  0  0
 26 28  1  0  0  0  0
 28 29  1  0  0  0  0
 28 30  1  6  0  0  0
 30 31  1  0  0  0  0
 34 35  2  0  0  0  0
 36 34  1  6  0  0  0
 36 38  1  0  0  0  0
 36 40  1  0  0  0  0
 37 39  1  0  0  0  0
 38 39  1  0  0  0  0
M  END
>  <CHROM.1>
145.39017821,25.75856162,68.24304188,-72.21942729,122.81704798,-75.75651923
-59.47102516,-59.30249196,71.19597519,60.79809558,7.43142893,-10.07800126
10.87404701,-0.87491967,0.28467012,0.72336627

>  <Name>
ligand

>  <RI>
0

>  <Rbt.Current_Directory>
/home/itssahil/PROJECTS/Mol_Feturizer/New_Systems/rnas/4P20

>  <Rbt.Executable>
rbdock ($Id: //depot/dev/client3/rdock/2013.1/src/exe/rbdock.cxx#4 $)

>  <Rbt.Library>
libRbt.so (2013.1, Build901 2013/11/27)

>  <Rbt.Parameter_File>
/export/apps/rDock/src/rDock_2013.1_src/data/scripts/dock_solv.prm

>  <Rbt.Receptor>
prm/blind_docking_20.prm

>  <SCORE>
21.1565

>  <SCORE.INTER>
1.83694

>  <SCORE.INTER.CONST>
1

>  <SCORE.INTER.POLAR>
0

>  <SCORE.INTER.ROT>
10

>  <SCORE.INTER.SOLV>
21.2036

>  <SCORE.INTER.VDW>
-16.1099

>  <SCORE.INTER.norm>
0.0459234

>  <SCORE.INTRA>
3.52735

>  <SCORE.INTRA.DIHEDRAL>
-9.50776

>  <SCORE.INTRA.DIHEDRAL.0>
28.2802

>  <SCORE.INTRA.POLAR>
0

>  <SCORE.INTRA.POLAR.0>
0

>  <SCORE.INTRA.REPUL>
0

>  <SCORE.INTRA.REPUL.0>
0

>  <SCORE.INTRA.SOLV>
10.34

>  <SCORE.INTRA.SOLV.lig_0>
-101.981

>  <SCORE.INTRA.VDW>
3.11123

>  <SCORE.INTRA.VDW.0>
-5.72964

>  <SCORE.INTRA.norm>
0.0881837

>  <SCORE.RESTR>
15.7923

>  <SCORE.RESTR.CAVITY>
15.7923

>  <SCORE.RESTR.norm>
0.394806

>  <SCORE.SYSTEM>
0

>  <SCORE.SYSTEM.CONST>
0

>  <SCORE.SYSTEM.DIHEDRAL>
0

>  <SCORE.SYSTEM.SOLV>
0

>  <SCORE.SYSTEM.norm>
0

>  <SCORE.heavy>
40

>  <SCORE.norm>
0.528914

>  <RMSD>
12.240

$$$$
ligand
 OpenBabel11021811503D
libRbt.so/2013.1/901 2013/11/27
 40 42  0  0  0  0  0  0  0  0999 V2000
    9.9209  -13.0831    8.5753 C   0  0  2  0  0  0  0  0  0  0  0  0
    9.9388  -11.9772    9.4916 O   0  0  0  0  0  0  0  0  0  0  0  0
   11.3855  -13.4704    8.1462 C   0  0  1  0  0  0  0  0  0  0  0  0
   12.0589  -12.3353    7.3210 C   0  0  2  0  0  0  0  0  0  0  0  0
   11.1884  -12.0935    6.0475 C   0  0  2  0  0  0  0  0  0  0  0  0
   11.7987  -11.0618    5.2429 O   0  0  0  0  0  0  0  0  0  0  0  0
    9.7286  -11.6607    6.5094 C   0  0  2  0  0  0  0  0  0  0  0  0
    9.1209  -12.7509    7.3534 O   0  0  0  0  0  0  0  0  0  0  0  0
    8.7920  -11.4199    5.3334 C   0  0  0  0  0  0  0  0  0  0  0  0
    8.0230  -12.6549    4.9813 N   0  0  0  0  0  0  0  0  0  0  0  0
    5.9761  -10.8446   11.0227 C   0  0  2  0  0  0  0  0  0  0  0  0
    4.8907  -10.6258   11.9503 N   0  0  0  0  0  0  0  0  0  0  0  0
    6.3717  -12.3764   11.0227 C   0  0  0  0  0  0  0  0  0  0  0  0
    7.5725  -12.6326   10.0063 C   0  0  2  0  0  0  0  0  0  0  0  0
    7.9320  -14.0749    9.9953 N   0  0  0  0  0  0  0  0  0  0  0  0
    8.8215  -11.7287   10.4305 C   0  0  2  0  0  0  0  0  0  0  0  0
    8.3748  -10.2048   10.4172 C   0  0  2  0  0  0  0  0  0  0  0  0
    9.4863   -9.3878   10.7917 O   0  0  0  0  0  0  0  0  0  0  0  0
    7.1823   -9.9665   11.4252 C   0  0  1  0  0  0  0  0  0  0  0  0
    6.7730   -8.5767   11.3857 O   0  0  0  0  0  0  0  0  0  0  0  0
    5.9094   -7.9690   12.2856 C   0  0  2  0  0  0  0  0  0  0  0  0
    4.9627   -7.0223   11.4654 C   0  0  2  0  0  0  0  0  0  0  0  0
    4.2847   -7.7588   10.4995 O   0  0  0  0  0  0  0  0  0  0  0  0
    5.7591   -5.8142   10.8115 C   0  0  1  0  0  0  0  0  0  0  0  0
    4.8373   -4.9190   10.0462 N   0  0  0  0  0  0  0  0  0  0  0  0
    6.5052   -5.0123   11.9654 C   0  0  2  0  0  0  0  0  0  0  0  0
    7.2303   -3.9004   11.4256 O   0  0  0  0  0  0  0  0  0  0  0  0
    7.4606   -6.0150   12.7209 C   0  0  2  0  0  0  0  0  0  0  0  0
    6.6732   -7.1869   13.2913 O   0  0  0  0  0  0  0  0  0  0  0  0
    8.1916   -5.3267   13.8489 C   0  0  0  0  0  0  0  0  0  0  0  0
    8.9845   -6.2362   14.6343 O   0  0  0  0  0  0  0  0  0  0  0  0
   12.1542  -13.7581    9.3506 O   0  0  0  0  0  0  0  0  0  0  0  0
   13.3253  -12.7304    6.9636 O   0  0  0  0  0  0  0  0  0  0  0  0
    3.5507  -10.4645   11.4354 C   0  0  0  0  0  0  0  0  0  0  0  0
    3.3776  -10.0839   10.2395 O   0  0  0  0  0  0  0  0  0  0  0  0
    2.3586  -10.7668   12.3946 C   0  0  2  0  0  0  0  0  0  0  0  0
    4.2268   -8.9321   15.2228 N   0  0  0  0  0  0  0  0  0  0  0  0
    2.7045  -10.3610   13.8606 C   0  0  0  0  0  0  0  0  0  0  0  0
    3.4560   -9.0229   13.9596 C   0  0  0  0  0  0  0  0  0  0  0  0
    2.0723  -12.0052   12.4452 O   0  0  0  0  0  0  0  0  0  0  0  0
  1  2  1  1  0  0  0
  1  3  1  0  0  0  0
  1  8  1  0  0  0  0
  3  4  1  0  0  0  0
  3 32  1  1  0  0  0
  4  5  1  0  0  0  0
  4 33  1  6  0  0  0
  5  6  1  6  0  0  0
  5  7  1  0  0  0  0
  7  8  1  0  0  0  0
  7  9  1  6  0  0  0
  9 10  1  0  0  0  0
 11 12  1  1  0  0  0
 11 13  1  0  0  0  0
 11 19  1  0  0  0  0
 12 34  1  0  0  0  0
 13 14  1  0  0  0  0
 14 15  1  1  0  0  0
 14 16  1  0  0  0  0
 16  2  1  6  0  0  0
 16 17  1  0  0  0  0
 17 18  1  1  0  0  0
 17 19  1  0  0  0  0
 19 20  1  6  0  0  0
 21 20  1  6  0  0  0
 21 22  1  0  0  0  0
 21 29  1  0  0  0  0
 22 23  1  6  0  0  0
 22 24  1  0  0  0  0
 24 25  1  1  0  0  0
 24 26  1  0  0  0  0
 26 27  1  6  0  0  0
 26 28  1  0  0  0  0
 28 29  1  0  0  0  0
 28 30  1  1  0  0  0
 30 31  1  0  0  0  0
 34 35  2  0  0  0  0
 36 34  1  6  0  0  0
 36 38  1  0  0  0  0
 36 40  1  0  0  0  0
 37 39  1  0  0  0  0
 38 39  1  0  0  0  0
M  END
>  <CHROM.1>
-156.63609709,-12.62563583,92.52934571,-102.46259767,71.03555435,-139.17981131
174.93141754,34.58758778,41.33154576,-157.11038263,7.36810246,-9.94411660
10.40549243,0.79602807,-0.48497113,-2.73134592

>  <Name>
ligand

>  <RI>
0

>  <Rbt.Current_Directory>
/home/itssahil/PROJECTS/Mol_Feturizer/New_Systems/rnas/4P20

>  <Rbt.Executable>
rbdock ($Id: //depot/dev/client3/rdock/2013.1/src/exe/rbdock.cxx#4 $)

>  <Rbt.Library>
libRbt.so (2013.1, Build901 2013/11/27)

>  <Rbt.Parameter_File>
/export/apps/rDock/src/rDock_2013.1_src/data/scripts/dock_solv.prm

>  <Rbt.Receptor>
prm/blind_docking_20.prm

>  <SCORE>
38.5834

>  <SCORE.INTER>
12.817

>  <SCORE.INTER.CONST>
1

>  <SCORE.INTER.POLAR>
0

>  <SCORE.INTER.ROT>
10

>  <SCORE.INTER.SOLV>
23.2275

>  <SCORE.INTER.VDW>
-9.46446

>  <SCORE.INTER.norm>
0.320426

>  <SCORE.INTRA>
3.18645

>  <SCORE.INTRA.DIHEDRAL>
-4.9717

>  <SCORE.INTRA.DIHEDRAL.0>
28.2802

>  <SCORE.INTRA.POLAR>
0

>  <SCORE.INTRA.POLAR.0>
0

>  <SCORE.INTRA.REPUL>
0

>  <SCORE.INTRA.REPUL.0>
0

>  <SCORE.INTRA.SOLV>
4.35426

>  <SCORE.INTRA.SOLV.lig_0>
-101.981

>  <SCORE.INTRA.VDW>
3.49517

>  <SCORE.INTRA.VDW.0>
-5.72964

>  <SCORE.INTRA.norm>
0.0796612

>  <SCORE.RESTR>
22.5799

>  <SCORE.RESTR.CAVITY>
22.5799

>  <SCORE.RESTR.norm>
0.564498

>  <SCORE.SYSTEM>
0

>  <SCORE.SYSTEM.CONST>
0

>  <SCORE.SYSTEM.DIHEDRAL>
0

>  <SCORE.SYSTEM.SOLV>
0

>  <SCORE.SYSTEM.norm>
0

>  <SCORE.heavy>
40

>  <SCORE.norm>
0.964586

>  <RMSD>
12.275

$$$$
ligand
 OpenBabel11021811503D
libRbt.so/2013.1/901 2013/11/27
 40 42  0  0  0  0  0  0  0  0999 V2000
   11.6078  -11.2869    8.0098 C   0  0  2  0  0  0  0  0  0  0  0  0
   10.5473  -10.3320    7.8470 O   0  0  0  0  0  0  0  0  0  0  0  0
   11.5231  -12.4028    6.9022 C   0  0  1  0  0  0  0  0  0  0  0  0
   10.2383  -13.2676    7.0585 C   0  0  2  0  0  0  0  0  0  0  0  0
   10.2838  -13.9348    8.4695 C   0  0  2  0  0  0  0  0  0  0  0  0
    9.1167  -14.7676    8.6398 O   0  0  0  0  0  0  0  0  0  0  0  0
   10.3236  -12.7858    9.5694 C   0  0  2  0  0  0  0  0  0  0  0  0
   11.5452  -11.9286    9.3618 O   0  0  0  0  0  0  0  0  0  0  0  0
   10.3901  -13.3373   10.9870 C   0  0  0  0  0  0  0  0  0  0  0  0
   10.0956  -12.2783   12.0031 N   0  0  0  0  0  0  0  0  0  0  0  0
    6.4625   -9.5031    9.2460 C   0  0  2  0  0  0  0  0  0  0  0  0
    5.2157   -9.6514    9.9600 N   0  0  0  0  0  0  0  0  0  0  0  0
    6.6992  -10.7682    8.3260 C   0  0  0  0  0  0  0  0  0  0  0  0
    8.0750  -10.6210    7.5346 C   0  0  2  0  0  0  0  0  0  0  0  0
    8.2878  -11.8027    6.6583 N   0  0  0  0  0  0  0  0  0  0  0  0
    9.2698  -10.4572    8.5846 C   0  0  2  0  0  0  0  0  0  0  0  0
    8.9861   -9.1788    9.4831 C   0  0  2  0  0  0  0  0  0  0  0  0
   10.0514   -9.0216   10.4232 O   0  0  0  0  0  0  0  0  0  0  0  0
    7.6186   -9.3366   10.2578 C   0  0  1  0  0  0  0  0  0  0  0  0
    7.3645   -8.1539   11.0561 O   0  0  0  0  0  0  0  0  0  0  0  0
    6.2032   -7.9046   11.7732 C   0  0  2  0  0  0  0  0  0  0  0  0
    6.0318   -6.3467   11.8671 C   0  0  2  0  0  0  0  0  0  0  0  0
    5.9888   -5.8014   10.5881 O   0  0  0  0  0  0  0  0  0  0  0  0
    7.1795   -5.6785   12.7375 C   0  0  1  0  0  0  0  0  0  0  0  0
    6.9900   -4.1975   12.8242 N   0  0  0  0  0  0  0  0  0  0  0  0
    7.1718   -6.3402   14.1844 C   0  0  2  0  0  0  0  0  0  0  0  0
    8.1850   -5.7595   15.0148 O   0  0  0  0  0  0  0  0  0  0  0  0
    7.3828   -7.8943   14.0142 C   0  0  2  0  0  0  0  0  0  0  0  0
    6.2957   -8.4948   13.1332 O   0  0  0  0  0  0  0  0  0  0  0  0
    7.3669   -8.5965   15.3510 C   0  0  0  0  0  0  0  0  0  0  0  0
    8.4205   -8.1514   16.2254 O   0  0  0  0  0  0  0  0  0  0  0  0
   11.5531  -11.7551    5.5969 O   0  0  0  0  0  0  0  0  0  0  0  0
   10.2222  -14.2295    6.0777 O   0  0  0  0  0  0  0  0  0  0  0  0
    5.0887  -10.7088   10.9361 C   0  0  0  0  0  0  0  0  0  0  0  0
    5.8403  -11.7261   10.8632 O   0  0  0  0  0  0  0  0  0  0  0  0
    4.0095  -10.5480   12.0505 C   0  0  2  0  0  0  0  0  0  0  0  0
    2.5286  -13.2845   12.0231 N   0  0  0  0  0  0  0  0  0  0  0  0
    2.5833  -10.8488   11.4945 C   0  0  0  0  0  0  0  0  0  0  0  0
    2.4355  -12.2758   10.9405 C   0  0  0  0  0  0  0  0  0  0  0  0
    3.9507   -9.3627   12.5083 O   0  0  0  0  0  0  0  0  0  0  0  0
  1  2  1  6  0  0  0
  1  3  1  0  0  0  0
  1  8  1  0  0  0  0
  3  4  1  0  0  0  0
  3 32  1  6  0  0  0
  4  5  1  0  0  0  0
  4 33  1  6  0  0  0
  5  6  1  1  0  0  0
  5  7  1  0  0  0  0
  7  8  1  0  0  0  0
  7  9  1  1  0  0  0
  9 10  1  0  0  0  0
 11 12  1  1  0  0  0
 11 13  1  0  0  0  0
 11 19  1  0  0  0  0
 12 34  1  0  0  0  0
 13 14  1  0  0  0  0
 14 15  1  1  0  0  0
 14 16  1  0  0  0  0
 16  2  1  6  0  0  0
 16 17  1  0  0  0  0
 17 18  1  1  0  0  0
 17 19  1  0  0  0  0
 19 20  1  6  0  0  0
 21 20  1  6  0  0  0
 21 22  1  0  0  0  0
 21 29  1  0  0  0  0
 22 23  1  6  0  0  0
 22 24  1  0  0  0  0
 24 25  1  1  0  0  0
 24 26  1  0  0  0  0
 26 27  1  1  0  0  0
 26 28  1  0  0  0  0
 28 29  1  0  0  0  0
 28 30  1  1  0  0  0
 30 31  1  0  0  0  0
 34 35  2  0  0  0  0
 36 34  1  6  0  0  0
 36 38  1  0  0  0  0
 36 40  1  0  0  0  0
 37 39  1  0  0  0  0
 38 39  1  0  0  0  0
M  END
>  <CHROM.1>
94.29577441,-118.73393178,-166.24792712,65.51900188,54.26797754,-152.13310274
-61.41224082,76.90556856,60.06186044,67.35611502,7.75224091,-10.11659290
10.52676547,-1.03875857,0.30368086,0.65809872

>  <Name>
ligand

>  <RI>
0

>  <Rbt.Current_Directory>
/home/itssahil/PROJECTS/Mol_Feturizer/New_Systems/rnas/4P20

>  <Rbt.Executable>
rbdock ($Id: //depot/dev/client3/rdock/2013.1/src/exe/rbdock.cxx#4 $)

>  <Rbt.Library>
libRbt.so (2013.1, Build901 2013/11/27)

>  <Rbt.Parameter_File>
/export/apps/rDock/src/rDock_2013.1_src/data/scripts/dock_solv.prm

>  <Rbt.Receptor>
prm/blind_docking_20.prm

>  <SCORE>
29.3485

>  <SCORE.INTER>
11.0139

>  <SCORE.INTER.CONST>
1

>  <SCORE.INTER.POLAR>
0

>  <SCORE.INTER.ROT>
10

>  <SCORE.INTER.SOLV>
22.9932

>  <SCORE.INTER.VDW>
-10.5885

>  <SCORE.INTER.norm>
0.275348

>  <SCORE.INTRA>
3.49188

>  <SCORE.INTRA.DIHEDRAL>
-11.3111

>  <SCORE.INTRA.DIHEDRAL.0>
28.2802

>  <SCORE.INTRA.POLAR>
0

>  <SCORE.INTRA.POLAR.0>
0

>  <SCORE.INTRA.REPUL>
0

>  <SCORE.INTRA.REPUL.0>
0

>  <SCORE.INTRA.SOLV>
8.59426

>  <SCORE.INTRA.SOLV.lig_0>
-101.981

>  <SCORE.INTRA.VDW>
4.85029

>  <SCORE.INTRA.VDW.0>
-5.72964

>  <SCORE.INTRA.norm>
0.087297

>  <SCORE.RESTR>
14.8427

>  <SCORE.RESTR.CAVITY>
14.8427

>  <SCORE.RESTR.norm>
0.371067

>  <SCORE.SYSTEM>
0

>  <SCORE.SYSTEM.CONST>
0

>  <SCORE.SYSTEM.DIHEDRAL>
0

>  <SCORE.SYSTEM.SOLV>
0

>  <SCORE.SYSTEM.norm>
0

>  <SCORE.heavy>
40

>  <SCORE.norm>
0.733712

>  <RMSD>
12.329

$$$$
ligand
 OpenBabel11021811503D
libRbt.so/2013.1/901 2013/11/27
 40 42  0  0  0  0  0  0  0  0999 V2000
   11.6879  -11.3351    7.9670 C   0  0  2  0  0  0  0  0  0  0  0  0
   10.6744  -10.3269    7.8280 O   0  0  0  0  0  0  0  0  0  0  0  0
   11.5072  -12.4561    6.8762 C   0  0  1  0  0  0  0  0  0  0  0  0
   10.1845  -13.2497    7.0852 C   0  0  2  0  0  0  0  0  0  0  0  0
   10.2422  -13.9040    8.5018 C   0  0  2  0  0  0  0  0  0  0  0  0
    9.0392  -14.6719    8.7205 O   0  0  0  0  0  0  0  0  0  0  0  0
   10.3796  -12.7477    9.5860 C   0  0  2  0  0  0  0  0  0  0  0  0
   11.6370  -11.9587    9.3279 O   0  0  0  0  0  0  0  0  0  0  0  0
   10.4645  -13.2874   11.0071 C   0  0  0  0  0  0  0  0  0  0  0  0
    9.1752  -13.9166   11.4341 N   0  0  0  0  0  0  0  0  0  0  0  0
    6.5693   -9.4213    9.1158 C   0  0  2  0  0  0  0  0  0  0  0  0
    5.2924   -9.5585    9.7768 N   0  0  0  0  0  0  0  0  0  0  0  0
    6.7987  -10.6509    8.1471 C   0  0  0  0  0  0  0  0  0  0  0  0
    8.2074  -10.5157    7.4135 C   0  0  2  0  0  0  0  0  0  0  0  0
    8.4140  -11.6632    6.4916 N   0  0  0  0  0  0  0  0  0  0  0  0
    9.3666  -10.4410    8.5124 C   0  0  2  0  0  0  0  0  0  0  0  0
    9.0916   -9.1956    9.4585 C   0  0  2  0  0  0  0  0  0  0  0  0
   10.1253   -9.1179   10.4427 O   0  0  0  0  0  0  0  0  0  0  0  0
    7.6914   -9.3408   10.1753 C   0  0  1  0  0  0  0  0  0  0  0  0
    7.4465   -8.1873   11.0180 O   0  0  0  0  0  0  0  0  0  0  0  0
    6.2711   -7.9351   11.7105 C   0  0  2  0  0  0  0  0  0  0  0  0
    6.1057   -6.3768   11.8079 C   0  0  2  0  0  0  0  0  0  0  0  0
    6.0937   -5.8255   10.5308 O   0  0  0  0  0  0  0  0  0  0  0  0
    7.2375   -5.7186   12.7064 C   0  0  1  0  0  0  0  0  0  0  0  0
    7.0538   -4.2370   12.7959 N   0  0  0  0  0  0  0  0  0  0  0  0
    7.1946   -6.3868   14.1497 C   0  0  2  0  0  0  0  0  0  0  0  0
    8.1923   -5.8153   15.0049 O   0  0  0  0  0  0  0  0  0  0  0  0
    7.4012   -7.9413   13.9769 C   0  0  2  0  0  0  0  0  0  0  0  0
    6.3306   -8.5319   13.0695 O   0  0  0  0  0  0  0  0  0  0  0  0
    7.3522   -8.6494   15.3098 C   0  0  0  0  0  0  0  0  0  0  0  0
    8.3325   -8.1524   16.2398 O   0  0  0  0  0  0  0  0  0  0  0  0
   11.5274  -11.8242    5.5630 O   0  0  0  0  0  0  0  0  0  0  0  0
   10.0847  -14.2194    6.1170 O   0  0  0  0  0  0  0  0  0  0  0  0
    5.1648  -10.4985   10.8663 C   0  0  0  0  0  0  0  0  0  0  0  0
    5.9725  -11.4703   10.9569 O   0  0  0  0  0  0  0  0  0  0  0  0
    4.0148  -10.2719   11.8952 C   0  0  2  0  0  0  0  0  0  0  0  0
    0.6272  -12.1353   12.3588 N   0  0  0  0  0  0  0  0  0  0  0  0
    2.7823  -11.1682   11.5618 C   0  0  0  0  0  0  0  0  0  0  0  0
    1.7459  -11.2229   12.6966 C   0  0  0  0  0  0  0  0  0  0  0  0
    3.5768   -9.0777   11.8853 O   0  0  0  0  0  0  0  0  0  0  0  0
  1  2  1  1  0  0  0
  1  3  1  0  0  0  0
  1  8  1  0  0  0  0
  3  4  1  0  0  0  0
  3 32  1  6  0  0  0
  4  5  1  0  0  0  0
  4 33  1  6  0  0  0
  5  6  1  1  0  0  0
  5  7  1  0  0  0  0
  7  8  1  0  0  0  0
  7  9  1  1  0  0  0
  9 10  1  0  0  0  0
 11 12  1  1  0  0  0
 11 13  1  0  0  0  0
 11 19  1  0  0  0  0
 12 34  1  0  0  0  0
 13 14  1  0  0  0  0
 14 15  1  6  0  0  0
 14 16  1  0  0  0  0
 16  2  1  6  0  0  0
 16 17  1  0  0  0  0
 17 18  1  1  0  0  0
 17 19  1  0  0  0  0
 19 20  1  1  0  0  0
 21 20  1  1  0  0  0
 21 22  1  0  0  0  0
 21 29  1  0  0  0  0
 22 23  1  6  0  0  0
 22 24  1  0  0  0  0
 24 25  1  1  0  0  0
 24 26  1  0  0  0  0
 26 27  1  1  0  0  0
 26 28  1  0  0  0  0
 28 29  1  0  0  0  0
 28 30  1  1  0  0  0
 30 31  1  0  0  0  0
 34 35  2  0  0  0  0
 36 34  1  6  0  0  0
 36 38  1  0  0  0  0
 36 40  1  0  0  0  0
 37 39  1  0  0  0  0
 38 39  1  0  0  0  0
M  END
>  <CHROM.1>
88.53319471,-117.70372760,-67.68541880,76.42657226,54.71665643,-149.41626750
-57.58080294,98.00467764,167.41333447,-177.32854967,7.69934775,-10.08423868
10.51410500,-0.96589434,0.30805548,0.64939174

>  <Name>
ligand

>  <RI>
0

>  <Rbt.Current_Directory>
/home/itssahil/PROJECTS/Mol_Feturizer/New_Systems/rnas/4P20

>  <Rbt.Executable>
rbdock ($Id: //depot/dev/client3/rdock/2013.1/src/exe/rbdock.cxx#4 $)

>  <Rbt.Library>
libRbt.so (2013.1, Build901 2013/11/27)

>  <Rbt.Parameter_File>
/export/apps/rDock/src/rDock_2013.1_src/data/scripts/dock_solv.prm

>  <Rbt.Receptor>
prm/blind_docking_20.prm

>  <SCORE>
31.6363

>  <SCORE.INTER>
11.9776

>  <SCORE.INTER.CONST>
1

>  <SCORE.INTER.POLAR>
0

>  <SCORE.INTER.ROT>
10

>  <SCORE.INTER.SOLV>
24.0003

>  <SCORE.INTER.VDW>
-10.2817

>  <SCORE.INTER.norm>
0.299439

>  <SCORE.INTRA>
3.44101

>  <SCORE.INTRA.DIHEDRAL>
-10.941

>  <SCORE.INTRA.DIHEDRAL.0>
28.2802

>  <SCORE.INTRA.POLAR>
0

>  <SCORE.INTRA.POLAR.0>
0

>  <SCORE.INTRA.REPUL>
0

>  <SCORE.INTRA.REPUL.0>
0

>  <SCORE.INTRA.SOLV>
6.70603

>  <SCORE.INTRA.SOLV.lig_0>
-101.981

>  <SCORE.INTRA.VDW>
5.55847

>  <SCORE.INTRA.VDW.0>
-5.72964

>  <SCORE.INTRA.norm>
0.0860251

>  <SCORE.RESTR>
16.2177

>  <SCORE.RESTR.CAVITY>
16.2177

>  <SCORE.RESTR.norm>
0.405442

>  <SCORE.SYSTEM>
0

>  <SCORE.SYSTEM.CONST>
0

>  <SCORE.SYSTEM.DIHEDRAL>
0

>  <SCORE.SYSTEM.SOLV>
0

>  <SCORE.SYSTEM.norm>
0

>  <SCORE.heavy>
40

>  <SCORE.norm>
0.790906

>  <RMSD>
12.329

$$$$
ligand
 OpenBabel11021811503D
libRbt.so/2013.1/901 2013/11/27
 40 42  0  0  0  0  0  0  0  0999 V2000
    8.9355  -13.3161    7.5482 C   0  0  2  0  0  0  0  0  0  0  0  0
    8.5329  -13.4163    8.9233 O   0  0  0  0  0  0  0  0  0  0  0  0
   10.4979  -13.4617    7.4167 C   0  0  1  0  0  0  0  0  0  0  0  0
   11.2421  -12.2736    8.0930 C   0  0  2  0  0  0  0  0  0  0  0  0
   10.7788  -10.9598    7.3876 C   0  0  2  0  0  0  0  0  0  0  0  0
   11.4703   -9.8359    7.9735 O   0  0  0  0  0  0  0  0  0  0  0  0
    9.2054  -10.8152    7.5743 C   0  0  2  0  0  0  0  0  0  0  0  0
    8.5117  -12.0044    6.9622 O   0  0  0  0  0  0  0  0  0  0  0  0
    8.6501   -9.5678    6.9004 C   0  0  0  0  0  0  0  0  0  0  0  0
    9.2295   -8.3202    7.4905 N   0  0  0  0  0  0  0  0  0  0  0  0
    8.6073  -11.1013   12.6603 C   0  0  2  0  0  0  0  0  0  0  0  0
    8.9551  -10.0741   13.6143 N   0  0  0  0  0  0  0  0  0  0  0  0
    9.9078  -11.9014   12.2463 C   0  0  0  0  0  0  0  0  0  0  0  0
    9.5401  -13.0364   11.1893 C   0  0  2  0  0  0  0  0  0  0  0  0
   10.7603  -13.7978   10.8139 N   0  0  0  0  0  0  0  0  0  0  0  0
    8.8629  -12.3610    9.9078 C   0  0  2  0  0  0  0  0  0  0  0  0
    7.5668  -11.5708   10.3741 C   0  0  2  0  0  0  0  0  0  0  0  0
    6.9517  -10.9661    9.2342 O   0  0  0  0  0  0  0  0  0  0  0  0
    7.9453  -10.4527   11.4238 C   0  0  1  0  0  0  0  0  0  0  0  0
    6.7500   -9.7554   11.8546 O   0  0  0  0  0  0  0  0  0  0  0  0
    5.8252   -9.1538   11.0132 C   0  0  2  0  0  0  0  0  0  0  0  0
    5.4297   -7.7764   11.6546 C   0  0  2  0  0  0  0  0  0  0  0  0
    6.5681   -6.9964   11.8302 O   0  0  0  0  0  0  0  0  0  0  0  0
    4.6474   -7.9660   13.0233 C   0  0  1  0  0  0  0  0  0  0  0  0
    4.2697   -6.6431   13.6100 N   0  0  0  0  0  0  0  0  0  0  0  0
    3.3586   -8.8591   12.7535 C   0  0  2  0  0  0  0  0  0  0  0  0
    2.6093   -9.0488   13.9602 O   0  0  0  0  0  0  0  0  0  0  0  0
    3.8338  -10.2347   12.1445 C   0  0  2  0  0  0  0  0  0  0  0  0
    4.6240  -10.0144   10.8617 O   0  0  0  0  0  0  0  0  0  0  0  0
    2.6578  -11.1324   11.8419 C   0  0  0  0  0  0  0  0  0  0  0  0
    3.0576  -12.4558   11.4402 O   0  0  0  0  0  0  0  0  0  0  0  0
   10.8919  -14.7280    8.0210 O   0  0  0  0  0  0  0  0  0  0  0  0
   12.5964  -12.4449    7.9376 O   0  0  0  0  0  0  0  0  0  0  0  0
    9.2848   -8.7528   13.1322 C   0  0  0  0  0  0  0  0  0  0  0  0
    9.6899   -8.6002   11.9415 O   0  0  0  0  0  0  0  0  0  0  0  0
    9.1288   -7.5554   14.1193 C   0  0  2  0  0  0  0  0  0  0  0  0
    6.3342   -6.6564   15.1730 N   0  0  0  0  0  0  0  0  0  0  0  0
    8.4158   -8.0033   15.4325 C   0  0  0  0  0  0  0  0  0  0  0  0
    6.8827   -8.0265   15.3141 C   0  0  0  0  0  0  0  0  0  0  0  0
    8.4083   -6.6204   13.6454 O   0  0  0  0  0  0  0  0  0  0  0  0
  1  2  1  1  0  0  0
  1  3  1  0  0  0  0
  1  8  1  0  0  0  0
  3  4  1  0  0  0  0
  3 32  1  1  0  0  0
  4  5  1  0  0  0  0
  4 33  1  6  0  0  0
  5  6  1  1  0  0  0
  5  7  1  0  0  0  0
  7  8  1  0  0  0  0
  7  9  1  6  0  0  0
  9 10  1  0  0  0  0
 11 12  1  1  0  0  0
 11 13  1  0  0  0  0
 11 19  1  0  0  0  0
 12 34  1  0  0  0  0
 13 14  1  0  0  0  0
 14 15  1  6  0  0  0
 14 16  1  0  0  0  0
 16  2  1  6  0  0  0
 16 17  1  0  0  0  0
 17 18  1  6  0  0  0
 17 19  1  0  0  0  0
 19 20  1  1  0  0  0
 21 20  1  1  0  0  0
 21 22  1  0  0  0  0
 21 29  1  0  0  0  0
 22 23  1  1  0  0  0
 22 24  1  0  0  0  0
 24 25  1  6  0  0  0
 24 26  1  0  0  0  0
 26 27  1  1  0  0  0
 26 28  1  0  0  0  0
 28 29  1  0  0  0  0
 28 30  1  6  0  0  0
 30 31  1  0  0  0  0
 34 35  2  0  0  0  0
 36 34  1  6  0  0  0
 36 38  1  0  0  0  0
 36 40  1  0  0  0  0
 37 39  1  0  0  0  0
 38 39  1  0  0  0  0
M  END
>  <CHROM.1>
69.11362514,-129.03357809,-62.13960891,91.76263707,-173.81690030,-137.90570872
-172.81465548,-8.73815337,-83.16155427,-68.08900376,7.77665322,-10.27211790
10.93818130,0.92169406,-0.11579600,-2.31169727

>  <Name>
ligand

>  <RI>
0

>  <Rbt.Current_Directory>
/home/itssahil/PROJECTS/Mol_Feturizer/New_Systems/rnas/4P20

>  <Rbt.Executable>
rbdock ($Id: //depot/dev/client3/rdock/2013.1/src/exe/rbdock.cxx#4 $)

>  <Rbt.Library>
libRbt.so (2013.1, Build901 2013/11/27)

>  <Rbt.Parameter_File>
/export/apps/rDock/src/rDock_2013.1_src/data/scripts/dock_solv.prm

>  <Rbt.Receptor>
prm/blind_docking_20.prm

>  <SCORE>
31.3361

>  <SCORE.INTER>
5.32023

>  <SCORE.INTER.CONST>
1

>  <SCORE.INTER.POLAR>
0

>  <SCORE.INTER.ROT>
10

>  <SCORE.INTER.SOLV>
21.0777

>  <SCORE.INTER.VDW>
-13.7458

>  <SCORE.INTER.norm>
0.133006

>  <SCORE.INTRA>
5.69594

>  <SCORE.INTRA.DIHEDRAL>
-9.99146

>  <SCORE.INTRA.DIHEDRAL.0>
28.2802

>  <SCORE.INTRA.POLAR>
0

>  <SCORE.INTRA.POLAR.0>
0

>  <SCORE.INTRA.REPUL>
0.0709348

>  <SCORE.INTRA.REPUL.0>
0

>  <SCORE.INTRA.SOLV>
13.224

>  <SCORE.INTRA.SOLV.lig_0>
-101.981

>  <SCORE.INTRA.VDW>
3.72497

>  <SCORE.INTRA.VDW.0>
-5.72964

>  <SCORE.INTRA.norm>
0.142398

>  <SCORE.RESTR>
20.3199

>  <SCORE.RESTR.CAVITY>
20.3199

>  <SCORE.RESTR.norm>
0.507998

>  <SCORE.SYSTEM>
0

>  <SCORE.SYSTEM.CONST>
0

>  <SCORE.SYSTEM.DIHEDRAL>
0

>  <SCORE.SYSTEM.SOLV>
0

>  <SCORE.SYSTEM.norm>
0

>  <SCORE.heavy>
40

>  <SCORE.norm>
0.783402

>  <RMSD>
12.410

$$$$
ligand
 OpenBabel11021811503D
libRbt.so/2013.1/901 2013/11/27
 40 42  0  0  0  0  0  0  0  0999 V2000
   -1.1588   -0.5225    9.7668 C   0  0  2  0  0  0  0  0  0  0  0  0
   -2.4322   -0.5067    9.1025 O   0  0  0  0  0  0  0  0  0  0  0  0
   -1.3492   -0.4991   11.3296 C   0  0  1  0  0  0  0  0  0  0  0  0
   -1.9839    0.8391   11.8086 C   0  0  2  0  0  0  0  0  0  0  0  0
   -1.0280    1.9976   11.3815 C   0  0  2  0  0  0  0  0  0  0  0  0
   -1.5738    3.2556   11.8334 O   0  0  0  0  0  0  0  0  0  0  0  0
   -0.8893    1.9784    9.7966 C   0  0  2  0  0  0  0  0  0  0  0  0
   -0.3268    0.6526    9.3539 O   0  0  0  0  0  0  0  0  0  0  0  0
    0.0442    3.0644    9.2794 C   0  0  0  0  0  0  0  0  0  0  0  0
    1.4804    2.7079    9.5050 N   0  0  0  0  0  0  0  0  0  0  0  0
   -2.6072   -4.5043    7.2810 C   0  0  2  0  0  0  0  0  0  0  0  0
   -3.0916   -5.6236    6.5071 N   0  0  0  0  0  0  0  0  0  0  0  0
   -3.6580   -4.1457    8.4079 C   0  0  0  0  0  0  0  0  0  0  0  0
   -3.1389   -2.9081    9.2679 C   0  0  2  0  0  0  0  0  0  0  0  0
   -4.1196   -2.5830   10.3365 N   0  0  0  0  0  0  0  0  0  0  0  0
   -2.9034   -1.6576    8.2994 C   0  0  2  0  0  0  0  0  0  0  0  0
   -1.8455   -2.0668    7.1879 C   0  0  2  0  0  0  0  0  0  0  0  0
   -1.6252   -0.9536    6.3188 O   0  0  0  0  0  0  0  0  0  0  0  0
   -2.3709   -3.2963    6.3467 C   0  0  1  0  0  0  0  0  0  0  0  0
   -1.3858   -3.6702    5.3514 O   0  0  0  0  0  0  0  0  0  0  0  0
   -0.2069   -4.3552    5.6077 C   0  0  2  0  0  0  0  0  0  0  0  0
    0.7413   -4.1405    4.3749 C   0  0  2  0  0  0  0  0  0  0  0  0
    0.9544   -2.7799    4.1782 O   0  0  0  0  0  0  0  0  0  0  0  0
    0.1678   -4.8270    3.0630 C   0  0  1  0  0  0  0  0  0  0  0  0
    1.0917   -4.6210    1.9051 N   0  0  0  0  0  0  0  0  0  0  0  0
   -0.0479   -6.3766    3.3520 C   0  0  2  0  0  0  0  0  0  0  0  0
   -0.5540   -7.0453    2.1900 O   0  0  0  0  0  0  0  0  0  0  0  0
   -1.0342   -6.5149    4.5755 C   0  0  2  0  0  0  0  0  0  0  0  0
   -0.4788   -5.8027    5.8014 O   0  0  0  0  0  0  0  0  0  0  0  0
   -1.2721   -7.9650    4.9231 C   0  0  0  0  0  0  0  0  0  0  0  0
   -2.2443   -8.1331    5.9715 O   0  0  0  0  0  0  0  0  0  0  0  0
   -2.1869   -1.6308   11.7055 O   0  0  0  0  0  0  0  0  0  0  0  0
   -2.1150    0.8100   13.1759 O   0  0  0  0  0  0  0  0  0  0  0  0
   -4.3944   -5.5366    5.8890 C   0  0  0  0  0  0  0  0  0  0  0  0
   -5.2583   -4.7339    6.3520 O   0  0  0  0  0  0  0  0  0  0  0  0
   -4.6832   -6.4551    4.6620 C   0  0  2  0  0  0  0  0  0  0  0  0
   -4.4830  -10.3251    4.9132 N   0  0  0  0  0  0  0  0  0  0  0  0
   -5.0381   -7.9035    5.1198 C   0  0  0  0  0  0  0  0  0  0  0  0
   -4.3538   -8.9924    4.2766 C   0  0  0  0  0  0  0  0  0  0  0  0
   -3.6756   -6.5802    3.8957 O   0  0  0  0  0  0  0  0  0  0  0  0
  1  2  1  6  0  0  0
  1  3  1  0  0  0  0
  1  8  1  0  0  0  0
  3  4  1  0  0  0  0
  3 32  1  6  0  0  0
  4  5  1  0  0  0  0
  4 33  1  1  0  0  0
  5  6  1  6  0  0  0
  5  7  1  0  0  0  0
  7  8  1  0  0  0  0
  7  9  1  1  0  0  0
  9 10  1  0  0  0  0
 11 12  1  6  0  0  0
 11 13  1  0  0  0  0
 11 19  1  0  0  0  0
 12 34  1  0  0  0  0
 13 14  1  0  0  0  0
 14 15  1  1  0  0  0
 14 16  1  0  0  0  0
 16  2  1  1  0  0  0
 16 17  1  0  0  0  0
 17 18  1  6  0  0  0
 17 19  1  0  0  0  0
 19 20  1  6  0  0  0
 21 20  1  6  0  0  0
 21 22  1  0  0  0  0
 21 29  1  0  0  0  0
 22 23  1  6  0  0  0
 22 24  1  0  0  0  0
 24 25  1  6  0  0  0
 24 26  1  0  0  0  0
 26 27  1  6  0  0  0
 26 28  1  0  0  0  0
 28 29  1  0  0  0  0
 28 30  1  1  0  0  0
 30 31  1  0  0  0  0
 34 35  2  0  0  0  0
 36 34  1  1  0  0  0
 36 38  1  0  0  0  0
 36 40  1  0  0  0  0
 37 39  1  0  0  0  0
 38 39  1  0  0  0  0
M  END
>  <CHROM.1>
-114.22894091,65.85186759,76.24668325,55.21856472,-44.57255053,-162.10270381
-175.68908894,79.95565414,-136.72224476,167.94035652,-1.87185936,-3.29735565
7.11628345,1.43458853,0.68870682,0.75045453

>  <Name>
ligand

>  <RI>
0

>  <Rbt.Current_Directory>
/home/itssahil/PROJECTS/Mol_Feturizer/New_Systems/rnas/4P20

>  <Rbt.Executable>
rbdock ($Id: //depot/dev/client3/rdock/2013.1/src/exe/rbdock.cxx#4 $)

>  <Rbt.Library>
libRbt.so (2013.1, Build901 2013/11/27)

>  <Rbt.Parameter_File>
/export/apps/rDock/src/rDock_2013.1_src/data/scripts/dock_solv.prm

>  <Rbt.Receptor>
prm/blind_docking_40.prm

>  <SCORE>
35.0904

>  <SCORE.INTER>
9.87821

>  <SCORE.INTER.CONST>
1

>  <SCORE.INTER.POLAR>
0

>  <SCORE.INTER.ROT>
10

>  <SCORE.INTER.SOLV>
25.229

>  <SCORE.INTER.VDW>
-12.0909

>  <SCORE.INTER.norm>
0.246955

>  <SCORE.INTRA>
3.00942

>  <SCORE.INTRA.DIHEDRAL>
-11.566

>  <SCORE.INTRA.DIHEDRAL.0>
28.2802

>  <SCORE.INTRA.POLAR>
0

>  <SCORE.INTRA.POLAR.0>
0

>  <SCORE.INTRA.REPUL>
0

>  <SCORE.INTRA.REPUL.0>
0

>  <SCORE.INTRA.SOLV>
6.57838

>  <SCORE.INTRA.SOLV.lig_0>
-101.981

>  <SCORE.INTRA.VDW>
5.50321

>  <SCORE.INTRA.VDW.0>
-5.72964

>  <SCORE.INTRA.norm>
0.0752356

>  <SCORE.RESTR>
22.2028

>  <SCORE.RESTR.CAVITY>
22.2028

>  <SCORE.RESTR.norm>
0.555069

>  <SCORE.SYSTEM>
0

>  <SCORE.SYSTEM.CONST>
0

>  <SCORE.SYSTEM.DIHEDRAL>
0

>  <SCORE.SYSTEM.SOLV>
0

>  <SCORE.SYSTEM.norm>
0

>  <SCORE.heavy>
40

>  <SCORE.norm>
0.87726

>  <RMSD>
12.843

$$$$
ligand
 OpenBabel11021811503D
libRbt.so/2013.1/901 2013/11/27
 40 42  0  0  0  0  0  0  0  0999 V2000
   -3.7081    0.5264   10.9117 C   0  0  2  0  0  0  0  0  0  0  0  0
   -3.2997   -0.8123   10.5891 O   0  0  0  0  0  0  0  0  0  0  0  0
   -3.0202    1.5629    9.9464 C   0  0  1  0  0  0  0  0  0  0  0  0
   -1.4779    1.6014   10.1537 C   0  0  2  0  0  0  0  0  0  0  0  0
   -1.2082    2.0100   11.6364 C   0  0  2  0  0  0  0  0  0  0  0  0
    0.2166    2.0813   11.8585 O   0  0  0  0  0  0  0  0  0  0  0  0
   -1.8749    0.9231   12.5881 C   0  0  2  0  0  0  0  0  0  0  0  0
   -3.3579    0.8644   12.3282 O   0  0  0  0  0  0  0  0  0  0  0  0
   -1.6838    1.2442   14.0641 C   0  0  0  0  0  0  0  0  0  0  0  0
   -2.5167    0.3540   14.9326 N   0  0  0  0  0  0  0  0  0  0  0  0
   -4.2965   -3.7312    7.4560 C   0  0  2  0  0  0  0  0  0  0  0  0
   -4.5529   -4.2820    6.1455 N   0  0  0  0  0  0  0  0  0  0  0  0
   -5.3237   -2.5644    7.7499 C   0  0  0  0  0  0  0  0  0  0  0  0
   -5.0498   -1.9430    9.1920 C   0  0  2  0  0  0  0  0  0  0  0  0
   -6.0262   -0.8580    9.4731 N   0  0  0  0  0  0  0  0  0  0  0  0
   -3.5475   -1.3989    9.2526 C   0  0  2  0  0  0  0  0  0  0  0  0
   -2.5574   -2.6031    8.9502 C   0  0  2  0  0  0  0  0  0  0  0  0
   -1.2106   -2.1273    9.0059 O   0  0  0  0  0  0  0  0  0  0  0  0
   -2.8427   -3.2114    7.5206 C   0  0  1  0  0  0  0  0  0  0  0  0
   -1.9456   -4.3217    7.2688 O   0  0  0  0  0  0  0  0  0  0  0  0
   -0.7359   -4.2383    6.5946 C   0  0  2  0  0  0  0  0  0  0  0  0
   -0.8730   -3.1040    5.5178 C   0  0  2  0  0  0  0  0  0  0  0  0
   -1.2141   -1.9066    6.1383 O   0  0  0  0  0  0  0  0  0  0  0  0
   -1.9236   -3.4853    4.3898 C   0  0  1  0  0  0  0  0  0  0  0  0
   -2.0291   -2.3975    3.3688 N   0  0  0  0  0  0  0  0  0  0  0  0
   -1.4747   -4.8561    3.7184 C   0  0  2  0  0  0  0  0  0  0  0  0
   -2.3872   -5.2376    2.6815 O   0  0  0  0  0  0  0  0  0  0  0  0
   -1.3924   -5.9526    4.8498 C   0  0  2  0  0  0  0  0  0  0  0  0
   -0.4158   -5.5328    5.9401 O   0  0  0  0  0  0  0  0  0  0  0  0
   -0.9504   -7.2831    4.2886 C   0  0  0  0  0  0  0  0  0  0  0  0
   -1.0755   -8.3567    5.2396 O   0  0  0  0  0  0  0  0  0  0  0  0
   -3.3471    1.1969    8.5741 O   0  0  0  0  0  0  0  0  0  0  0  0
   -0.9327    2.5280    9.2982 O   0  0  0  0  0  0  0  0  0  0  0  0
   -4.3970   -5.7034    5.9402 C   0  0  0  0  0  0  0  0  0  0  0  0
   -3.6524   -6.3735    6.7158 O   0  0  0  0  0  0  0  0  0  0  0  0
   -5.1624   -6.3572    4.7489 C   0  0  2  0  0  0  0  0  0  0  0  0
   -4.7477   -8.7952    6.0205 N   0  0  0  0  0  0  0  0  0  0  0  0
   -4.2646   -7.3990    4.0126 C   0  0  0  0  0  0  0  0  0  0  0  0
   -3.7815   -8.5382    4.9258 C   0  0  0  0  0  0  0  0  0  0  0  0
   -5.4984   -5.5121    3.8596 O   0  0  0  0  0  0  0  0  0  0  0  0
  1  2  1  6  0  0  0
  1  3  1  0  0  0  0
  1  8  1  0  0  0  0
  3  4  1  0  0  0  0
  3 32  1  6  0  0  0
  4  5  1  0  0  0  0
  4 33  1  6  0  0  0
  5  6  1  6  0  0  0
  5  7  1  0  0  0  0
  7  8  1  0  0  0  0
  7  9  1  1  0  0  0
  9 10  1  0  0  0  0
 11 12  1  6  0  0  0
 11 13  1  0  0  0  0
 11 19  1  0  0  0  0
 12 34  1  0  0  0  0
 13 14  1  0  0  0  0
 14 15  1  6  0  0  0
 14 16  1  0  0  0  0
 16  2  1  1  0  0  0
 16 17  1  0  0  0  0
 17 18  1  6  0  0  0
 17 19  1  0  0  0  0
 19 20  1  1  0  0  0
 21 20  1  6  0  0  0
 21 22  1  0  0  0  0
 21 29  1  0  0  0  0
 22 23  1  1  0  0  0
 22 24  1  0  0  0  0
 24 25  1  6  0  0  0
 24 26  1  0  0  0  0
 26 27  1  6  0  0  0
 26 28  1  0  0  0  0
 28 29  1  0  0  0  0
 28 30  1  6  0  0  0
 30 31  1  0  0  0  0
 34 35  2  0  0  0  0
 36 34  1  1  0  0  0
 36 38  1  0  0  0  0
 36 40  1  0  0  0  0
 37 39  1  0  0  0  0
 38 39  1  0  0  0  0
M  END
>  <CHROM.1>
-59.54785485,-81.96050541,169.88553031,-143.19624455,145.36896747,-31.71284644
-170.34210032,138.57218938,59.23765306,28.70872879,-2.71114930,-2.84739523
7.69281959,1.48789798,0.53125957,0.78528867

>  <Name>
ligand

>  <RI>
0

>  <Rbt.Current_Directory>
/home/itssahil/PROJECTS/Mol_Feturizer/New_Systems/rnas/4P20

>  <Rbt.Executable>
rbdock ($Id: //depot/dev/client3/rdock/2013.1/src/exe/rbdock.cxx#4 $)

>  <Rbt.Library>
libRbt.so (2013.1, Build901 2013/11/27)

>  <Rbt.Parameter_File>
/export/apps/rDock/src/rDock_2013.1_src/data/scripts/dock_solv.prm

>  <Rbt.Receptor>
prm/blind_docking_40.prm

>  <SCORE>
31.9586

>  <SCORE.INTER>
12.4192

>  <SCORE.INTER.CONST>
1

>  <SCORE.INTER.POLAR>
0

>  <SCORE.INTER.ROT>
10

>  <SCORE.INTER.SOLV>
25.9933

>  <SCORE.INTER.VDW>
-10.6516

>  <SCORE.INTER.norm>
0.310479

>  <SCORE.INTRA>
1.72205

>  <SCORE.INTRA.DIHEDRAL>
-11.8502

>  <SCORE.INTRA.DIHEDRAL.0>
28.2802

>  <SCORE.INTRA.POLAR>
0

>  <SCORE.INTRA.POLAR.0>
0

>  <SCORE.INTRA.REPUL>
0

>  <SCORE.INTRA.REPUL.0>
0

>  <SCORE.INTRA.SOLV>
7.96912

>  <SCORE.INTRA.SOLV.lig_0>
-101.981

>  <SCORE.INTRA.VDW>
3.66258

>  <SCORE.INTRA.VDW.0>
-5.72964

>  <SCORE.INTRA.norm>
0.0430514

>  <SCORE.RESTR>
17.8174

>  <SCORE.RESTR.CAVITY>
17.8174

>  <SCORE.RESTR.norm>
0.445436

>  <SCORE.SYSTEM>
0

>  <SCORE.SYSTEM.CONST>
0

>  <SCORE.SYSTEM.DIHEDRAL>
0

>  <SCORE.SYSTEM.SOLV>
0

>  <SCORE.SYSTEM.norm>
0

>  <SCORE.heavy>
40

>  <SCORE.norm>
0.798966

>  <RMSD>
12.862

$$$$
ligand
 OpenBabel11021811503D
libRbt.so/2013.1/901 2013/11/27
 40 42  0  0  0  0  0  0  0  0999 V2000
   -1.0199   -0.0872    9.7446 C   0  0  2  0  0  0  0  0  0  0  0  0
   -2.1996    0.3778    9.0699 O   0  0  0  0  0  0  0  0  0  0  0  0
   -1.3680   -0.5614   11.2052 C   0  0  1  0  0  0  0  0  0  0  0  0
   -1.8421    0.6251   12.0941 C   0  0  2  0  0  0  0  0  0  0  0  0
   -0.6841    1.6713   12.1467 C   0  0  2  0  0  0  0  0  0  0  0  0
   -1.0799    2.7772   12.9863 O   0  0  0  0  0  0  0  0  0  0  0  0
   -0.3839    2.1660   10.6646 C   0  0  2  0  0  0  0  0  0  0  0  0
    0.0173    0.9914    9.8105 O   0  0  0  0  0  0  0  0  0  0  0  0
    0.7508    3.1797   10.6065 C   0  0  0  0  0  0  0  0  0  0  0  0
    1.1062    3.5264    9.1944 N   0  0  0  0  0  0  0  0  0  0  0  0
   -4.1724   -3.3207    7.7435 C   0  0  2  0  0  0  0  0  0  0  0  0
   -5.0491   -4.2040    7.0104 N   0  0  0  0  0  0  0  0  0  0  0  0
   -5.0340   -2.2483    8.5247 C   0  0  0  0  0  0  0  0  0  0  0  0
   -4.0791   -1.2625    9.3353 C   0  0  2  0  0  0  0  0  0  0  0  0
   -4.8908   -0.2659   10.0818 N   0  0  0  0  0  0  0  0  0  0  0  0
   -3.0775   -0.5453    8.3158 C   0  0  2  0  0  0  0  0  0  0  0  0
   -2.2389   -1.6602    7.5570 C   0  0  2  0  0  0  0  0  0  0  0  0
   -1.3373   -1.0285    6.6453 O   0  0  0  0  0  0  0  0  0  0  0  0
   -3.1977   -2.6317    6.7619 C   0  0  1  0  0  0  0  0  0  0  0  0
   -2.4190   -3.6548    6.0928 O   0  0  0  0  0  0  0  0  0  0  0  0
   -1.7046   -4.6614    6.7261 C   0  0  2  0  0  0  0  0  0  0  0  0
   -0.4308   -4.9550    5.8564 C   0  0  2  0  0  0  0  0  0  0  0  0
    0.3161   -3.7906    5.7100 O   0  0  0  0  0  0  0  0  0  0  0  0
   -0.8106   -5.5744    4.4444 C   0  0  1  0  0  0  0  0  0  0  0  0
    0.4167   -5.8577    3.6381 N   0  0  0  0  0  0  0  0  0  0  0  0
   -1.6562   -6.9011    4.6814 C   0  0  2  0  0  0  0  0  0  0  0  0
   -2.0134   -7.5067    3.4327 O   0  0  0  0  0  0  0  0  0  0  0  0
   -2.9327   -6.5246    5.5285 C   0  0  2  0  0  0  0  0  0  0  0  0
   -2.5346   -5.8869    6.8527 O   0  0  0  0  0  0  0  0  0  0  0  0
   -3.7783   -7.7433    5.8118 C   0  0  0  0  0  0  0  0  0  0  0  0
   -5.0843   -7.4086    6.3168 O   0  0  0  0  0  0  0  0  0  0  0  0
   -2.4005   -1.5864   11.1196 O   0  0  0  0  0  0  0  0  0  0  0  0
   -2.1191    0.1582   13.3562 O   0  0  0  0  0  0  0  0  0  0  0  0
   -5.1707   -4.0421    5.5801 C   0  0  0  0  0  0  0  0  0  0  0  0
   -4.8924   -2.9270    5.0470 O   0  0  0  0  0  0  0  0  0  0  0  0
   -5.6524   -5.2680    4.7448 C   0  0  2  0  0  0  0  0  0  0  0  0
   -6.0716   -7.5472    3.1249 N   0  0  0  0  0  0  0  0  0  0  0  0
   -4.8141   -5.4175    3.4377 C   0  0  0  0  0  0  0  0  0  0  0  0
   -4.7784   -6.8578    2.9001 C   0  0  0  0  0  0  0  0  0  0  0  0
   -6.8599   -5.1554    4.3610 O   0  0  0  0  0  0  0  0  0  0  0  0
  1  2  1  1  0  0  0
  1  3  1  0  0  0  0
  1  8  1  0  0  0  0
  3  4  1  0  0  0  0
  3 32  1  6  0  0  0
  4  5  1  0  0  0  0
  4 33  1  1  0  0  0
  5  6  1  1  0  0  0
  5  7  1  0  0  0  0
  7  8  1  0  0  0  0
  7  9  1  1  0  0  0
  9 10  1  0  0  0  0
 11 12  1  6  0  0  0
 11 13  1  0  0  0  0
 11 19  1  0  0  0  0
 12 34  1  0  0  0  0
 13 14  1  0  0  0  0
 14 15  1  6  0  0  0
 14 16  1  0  0  0  0
 16  2  1  1  0  0  0
 16 17  1  0  0  0  0
 17 18  1  6  0  0  0
 17 19  1  0  0  0  0
 19 20  1  1  0  0  0
 21 20  1  6  0  0  0
 21 22  1  0  0  0  0
 21 29  1  0  0  0  0
 22 23  1  6  0  0  0
 22 24  1  0  0  0  0
 24 25  1  1  0  0  0
 24 26  1  0  0  0  0
 26 27  1  6  0  0  0
 26 28  1  0  0  0  0
 28 29  1  0  0  0  0
 28 30  1  1  0  0  0
 30 31  1  0  0  0  0
 34 35  2  0  0  0  0
 36 34  1  6  0  0  0
 36 38  1  0  0  0  0
 36 40  1  0  0  0  0
 37 39  1  0  0  0  0
 38 39  1  0  0  0  0
M  END
>  <CHROM.1>
-87.78806903,82.76291988,174.29889331,104.39738747,-52.40699084,-146.61233881
-167.07517749,-137.27159085,154.59197942,35.81518808,-2.62683676,-2.78924608
7.46213970,-1.29575309,-0.21548412,-2.37241227

>  <Name>
ligand

>  <RI>
0

>  <Rbt.Current_Directory>
/home/itssahil/PROJECTS/Mol_Feturizer/New_Systems/rnas/4P20

>  <Rbt.Executable>
rbdock ($Id: //depot/dev/client3/rdock/2013.1/src/exe/rbdock.cxx#4 $)

>  <Rbt.Library>
libRbt.so (2013.1, Build901 2013/11/27)

>  <Rbt.Parameter_File>
/export/apps/rDock/src/rDock_2013.1_src/data/scripts/dock_solv.prm

>  <Rbt.Receptor>
prm/blind_docking_40.prm

>  <SCORE>
38.2379

>  <SCORE.INTER>
9.68454

>  <SCORE.INTER.CONST>
1

>  <SCORE.INTER.POLAR>
0

>  <SCORE.INTER.ROT>
10

>  <SCORE.INTER.SOLV>
18.5779

>  <SCORE.INTER.VDW>
-10.0029

>  <SCORE.INTER.norm>
0.242113

>  <SCORE.INTRA>
6.36856

>  <SCORE.INTRA.DIHEDRAL>
-10.5508

>  <SCORE.INTRA.DIHEDRAL.0>
28.2802

>  <SCORE.INTRA.POLAR>
0

>  <SCORE.INTRA.POLAR.0>
0

>  <SCORE.INTRA.REPUL>
0

>  <SCORE.INTRA.REPUL.0>
0

>  <SCORE.INTRA.SOLV>
8.14579

>  <SCORE.INTRA.SOLV.lig_0>
-101.981

>  <SCORE.INTRA.VDW>
7.57108

>  <SCORE.INTRA.VDW.0>
-5.72964

>  <SCORE.INTRA.norm>
0.159214

>  <SCORE.RESTR>
22.1848

>  <SCORE.RESTR.CAVITY>
22.1848

>  <SCORE.RESTR.norm>
0.554621

>  <SCORE.SYSTEM>
0

>  <SCORE.SYSTEM.CONST>
0

>  <SCORE.SYSTEM.DIHEDRAL>
0

>  <SCORE.SYSTEM.SOLV>
0

>  <SCORE.SYSTEM.norm>
0

>  <SCORE.heavy>
40

>  <SCORE.norm>
0.955948

>  <RMSD>
12.877

$$$$
ligand
 OpenBabel11021811503D
libRbt.so/2013.1/901 2013/11/27
 40 42  0  0  0  0  0  0  0  0999 V2000
   -1.3818   -0.5032   10.0356 C   0  0  2  0  0  0  0  0  0  0  0  0
   -2.4221   -0.1971    9.0938 O   0  0  0  0  0  0  0  0  0  0  0  0
   -1.9756   -0.6581   11.4857 C   0  0  1  0  0  0  0  0  0  0  0  0
   -2.5505    0.6880   12.0152 C   0  0  2  0  0  0  0  0  0  0  0  0
   -1.3847    1.7266   12.0366 C   0  0  2  0  0  0  0  0  0  0  0  0
   -1.8768    2.9837   12.5483 O   0  0  0  0  0  0  0  0  0  0  0  0
   -0.8339    1.8968   10.5536 C   0  0  2  0  0  0  0  0  0  0  0  0
   -0.3363    0.5694   10.0431 O   0  0  0  0  0  0  0  0  0  0  0  0
    0.3257    2.8799   10.4711 C   0  0  0  0  0  0  0  0  0  0  0  0
    0.9059    2.9312    9.0922 N   0  0  0  0  0  0  0  0  0  0  0  0
   -3.6692   -3.9204    7.1159 C   0  0  2  0  0  0  0  0  0  0  0  0
   -4.0703   -4.8348    6.0722 N   0  0  0  0  0  0  0  0  0  0  0  0
   -4.7116   -2.7341    7.2097 C   0  0  0  0  0  0  0  0  0  0  0  0
   -4.2792   -1.7134    8.3552 C   0  0  2  0  0  0  0  0  0  0  0  0
   -5.2684   -0.6083    8.4530 N   0  0  0  0  0  0  0  0  0  0  0  0
   -2.8163   -1.1532    8.0344 C   0  0  2  0  0  0  0  0  0  0  0  0
   -1.8095   -2.3783    7.9488 C   0  0  2  0  0  0  0  0  0  0  0  0
   -0.4973   -1.8871    7.6660 O   0  0  0  0  0  0  0  0  0  0  0  0
   -2.2523   -3.3830    6.8131 C   0  0  1  0  0  0  0  0  0  0  0  0
   -1.3360   -4.5049    6.7621 O   0  0  0  0  0  0  0  0  0  0  0  0
   -0.3874   -4.7212    5.7730 C   0  0  2  0  0  0  0  0  0  0  0  0
   -0.7972   -3.8559    4.5287 C   0  0  2  0  0  0  0  0  0  0  0  0
   -0.8803   -2.5166    4.8953 O   0  0  0  0  0  0  0  0  0  0  0  0
   -2.1574   -4.3594    3.8823 C   0  0  1  0  0  0  0  0  0  0  0  0
   -2.5222   -3.5300    2.6924 N   0  0  0  0  0  0  0  0  0  0  0  0
   -1.9948   -5.8906    3.4821 C   0  0  2  0  0  0  0  0  0  0  0  0
   -3.1959   -6.3896    2.8805 O   0  0  0  0  0  0  0  0  0  0  0  0
   -1.6188   -6.7004    4.7828 C   0  0  2  0  0  0  0  0  0  0  0  0
   -0.3388   -6.1597    5.4056 O   0  0  0  0  0  0  0  0  0  0  0  0
   -1.4274   -8.1666    4.4761 C   0  0  0  0  0  0  0  0  0  0  0  0
   -1.8912   -9.0217    5.5375 O   0  0  0  0  0  0  0  0  0  0  0  0
   -3.0117   -1.6824   11.4488 O   0  0  0  0  0  0  0  0  0  0  0  0
   -3.0420    0.4984   13.2841 O   0  0  0  0  0  0  0  0  0  0  0  0
   -3.8936   -6.2538    6.2777 C   0  0  0  0  0  0  0  0  0  0  0  0
   -3.0346   -6.6666    7.1123 O   0  0  0  0  0  0  0  0  0  0  0  0
   -4.7807   -7.2283    5.4436 C   0  0  2  0  0  0  0  0  0  0  0  0
   -7.7373   -6.5701    3.0023 N   0  0  0  0  0  0  0  0  0  0  0  0
   -5.7827   -6.4404    4.5442 C   0  0  0  0  0  0  0  0  0  0  0  0
   -6.6906   -7.3526    3.7024 C   0  0  0  0  0  0  0  0  0  0  0  0
   -5.5013   -7.9809    6.1733 O   0  0  0  0  0  0  0  0  0  0  0  0
  1  2  1  6  0  0  0
  1  3  1  0  0  0  0
  1  8  1  0  0  0  0
  3  4  1  0  0  0  0
  3 32  1  6  0  0  0
  4  5  1  0  0  0  0
  4 33  1  1  0  0  0
  5  6  1  6  0  0  0
  5  7  1  0  0  0  0
  7  8  1  0  0  0  0
  7  9  1  1  0  0  0
  9 10  1  0  0  0  0
 11 12  1  6  0  0  0
 11 13  1  0  0  0  0
 11 19  1  0  0  0  0
 12 34  1  0  0  0  0
 13 14  1  0  0  0  0
 14 15  1  6  0  0  0
 14 16  1  0  0  0  0
 16  2  1  1  0  0  0
 16 17  1  0  0  0  0
 17 18  1  6  0  0  0
 17 19  1  0  0  0  0
 19 20  1  1  0  0  0
 21 20  1  1  0  0  0
 21 22  1  0  0  0  0
 21 29  1  0  0  0  0
 22 23  1  1  0  0  0
 22 24  1  0  0  0  0
 24 25  1  6  0  0  0
 24 26  1  0  0  0  0
 26 27  1  1  0  0  0
 26 28  1  0  0  0  0
 28 29  1  0  0  0  0
 28 30  1  6  0  0  0
 30 31  1  0  0  0  0
 34 35  2  0  0  0  0
 36 34  1  1  0  0  0
 36 38  1  0  0  0  0
 36 40  1  0  0  0  0
 37 39  1  0  0  0  0
 38 39  1  0  0  0  0
M  END
>  <CHROM.1>
-112.93883470,110.76683930,174.89307237,-141.66693127,133.11645067,-18.64312455
-144.05832332,-2.50798703,-179.70538139,172.61978958,-2.55862748,-3.15547642
7.30029445,-1.34675780,-0.38284272,-2.36848632

>  <Name>
ligand

>  <RI>
0

>  <Rbt.Current_Directory>
/home/itssahil/PROJECTS/Mol_Feturizer/New_Systems/rnas/4P20

>  <Rbt.Executable>
rbdock ($Id: //depot/dev/client3/rdock/2013.1/src/exe/rbdock.cxx#4 $)

>  <Rbt.Library>
libRbt.so (2013.1, Build901 2013/11/27)

>  <Rbt.Parameter_File>
/export/apps/rDock/src/rDock_2013.1_src/data/scripts/dock_solv.prm

>  <Rbt.Receptor>
prm/blind_docking_40.prm

>  <SCORE>
49.4497

>  <SCORE.INTER>
20.074

>  <SCORE.INTER.CONST>
1

>  <SCORE.INTER.POLAR>
0

>  <SCORE.INTER.ROT>
10

>  <SCORE.INTER.SOLV>
17.4516

>  <SCORE.INTER.VDW>
-2.70122

>  <SCORE.INTER.norm>
0.501849

>  <SCORE.INTRA>
8.17655

>  <SCORE.INTRA.DIHEDRAL>
4.51309

>  <SCORE.INTRA.DIHEDRAL.0>
28.2802

>  <SCORE.INTRA.POLAR>
0

>  <SCORE.INTRA.POLAR.0>
0

>  <SCORE.INTRA.REPUL>
0

>  <SCORE.INTRA.REPUL.0>
0

>  <SCORE.INTRA.SOLV>
3.53588

>  <SCORE.INTRA.SOLV.lig_0>
-101.981

>  <SCORE.INTRA.VDW>
4.15207

>  <SCORE.INTRA.VDW.0>
-5.72964

>  <SCORE.INTRA.norm>
0.204414

>  <SCORE.RESTR>
21.1991

>  <SCORE.RESTR.CAVITY>
21.1991

>  <SCORE.RESTR.norm>
0.529978

>  <SCORE.SYSTEM>
0

>  <SCORE.SYSTEM.CONST>
0

>  <SCORE.SYSTEM.DIHEDRAL>
0

>  <SCORE.SYSTEM.SOLV>
0

>  <SCORE.SYSTEM.norm>
0

>  <SCORE.heavy>
40

>  <SCORE.norm>
1.23624

>  <RMSD>
12.881

$$$$
ligand
 OpenBabel11021811503D
libRbt.so/2013.1/901 2013/11/27
 40 42  0  0  0  0  0  0  0  0999 V2000
   -2.4166    0.5749    9.0070 C   0  0  2  0  0  0  0  0  0  0  0  0
   -1.6821   -0.6272    8.7267 O   0  0  0  0  0  0  0  0  0  0  0  0
   -1.4483    1.8153    9.0624 C   0  0  1  0  0  0  0  0  0  0  0  0
   -0.4586    1.7154   10.2597 C   0  0  2  0  0  0  0  0  0  0  0  0
   -1.3043    1.6541   11.5709 C   0  0  2  0  0  0  0  0  0  0  0  0
   -0.4160    1.5869   12.7071 O   0  0  0  0  0  0  0  0  0  0  0  0
   -2.2397    0.3686   11.5079 C   0  0  2  0  0  0  0  0  0  0  0  0
   -3.1479    0.4619   10.3093 O   0  0  0  0  0  0  0  0  0  0  0  0
   -3.1242    0.2298   12.7394 C   0  0  0  0  0  0  0  0  0  0  0  0
   -2.3502    0.4565   14.0004 N   0  0  0  0  0  0  0  0  0  0  0  0
   -2.7333   -4.8435    8.0575 C   0  0  2  0  0  0  0  0  0  0  0  0
   -3.4042   -6.0079    7.5279 N   0  0  0  0  0  0  0  0  0  0  0  0
   -3.7840   -3.9144    8.7893 C   0  0  0  0  0  0  0  0  0  0  0  0
   -3.0585   -2.6217    9.3753 C   0  0  2  0  0  0  0  0  0  0  0  0
   -4.0442   -1.7580   10.0767 N   0  0  0  0  0  0  0  0  0  0  0  0
   -2.3454   -1.8330    8.1810 C   0  0  2  0  0  0  0  0  0  0  0  0
   -1.3045   -2.8053    7.4789 C   0  0  2  0  0  0  0  0  0  0  0  0
   -0.6586   -2.1078    6.4115 O   0  0  0  0  0  0  0  0  0  0  0  0
   -2.0363   -4.0830    6.9068 C   0  0  1  0  0  0  0  0  0  0  0  0
   -1.0705   -4.9693    6.2884 O   0  0  0  0  0  0  0  0  0  0  0  0
   -0.4203   -4.7331    5.0857 C   0  0  2  0  0  0  0  0  0  0  0  0
   -1.4677   -4.1065    4.0981 C   0  0  2  0  0  0  0  0  0  0  0  0
   -1.9951   -2.9433    4.6494 O   0  0  0  0  0  0  0  0  0  0  0  0
   -2.6168   -5.1370    3.7252 C   0  0  1  0  0  0  0  0  0  0  0  0
   -3.5956   -4.5243    2.7748 N   0  0  0  0  0  0  0  0  0  0  0  0
   -1.9500   -6.4379    3.0974 C   0  0  2  0  0  0  0  0  0  0  0  0
   -2.9504   -7.3963    2.7312 O   0  0  0  0  0  0  0  0  0  0  0  0
   -0.9398   -7.0303    4.1546 C   0  0  2  0  0  0  0  0  0  0  0  0
    0.1178   -6.0006    4.5285 O   0  0  0  0  0  0  0  0  0  0  0  0
   -0.2497   -8.2620    3.6188 C   0  0  0  0  0  0  0  0  0  0  0  0
   -1.1500   -9.1468    2.9264 O   0  0  0  0  0  0  0  0  0  0  0  0
   -0.7243    1.8873    7.7996 O   0  0  0  0  0  0  0  0  0  0  0  0
    0.3509    2.8254   10.2671 O   0  0  0  0  0  0  0  0  0  0  0  0
   -4.0940   -5.9041    6.2628 C   0  0  0  0  0  0  0  0  0  0  0  0
   -4.4836   -4.7717    5.8494 O   0  0  0  0  0  0  0  0  0  0  0  0
   -4.3359   -7.2152    5.4535 C   0  0  2  0  0  0  0  0  0  0  0  0
   -7.3844   -6.9011    3.0534 N   0  0  0  0  0  0  0  0  0  0  0  0
   -5.1470   -6.9270    4.1525 C   0  0  0  0  0  0  0  0  0  0  0  0
   -6.6668   -7.0696    4.3397 C   0  0  0  0  0  0  0  0  0  0  0  0
   -5.0235   -8.0693    6.0983 O   0  0  0  0  0  0  0  0  0  0  0  0
  1  2  1  1  0  0  0
  1  3  1  0  0  0  0
  1  8  1  0  0  0  0
  3  4  1  0  0  0  0
  3 32  1  6  0  0  0
  4  5  1  0  0  0  0
  4 33  1  1  0  0  0
  5  6  1  1  0  0  0
  5  7  1  0  0  0  0
  7  8  1  0  0  0  0
  7  9  1  1  0  0  0
  9 10  1  0  0  0  0
 11 12  1  6  0  0  0
 11 13  1  0  0  0  0
 11 19  1  0  0  0  0
 12 34  1  0  0  0  0
 13 14  1  0  0  0  0
 14 15  1  6  0  0  0
 14 16  1  0  0  0  0
 16  2  1  1  0  0  0
 16 17  1  0  0  0  0
 17 18  1  6  0  0  0
 17 19  1  0  0  0  0
 19 20  1  1  0  0  0
 21 20  1  1  0  0  0
 21 22  1  0  0  0  0
 21 29  1  0  0  0  0
 22 23  1  1  0  0  0
 22 24  1  0  0  0  0
 24 25  1  6  0  0  0
 24 26  1  0  0  0  0
 26 27  1  1  0  0  0
 26 28  1  0  0  0  0
 28 29  1  0  0  0  0
 28 30  1  6  0  0  0
 30 31  1  0  0  0  0
 34 35  2  0  0  0  0
 36 34  1  1  0  0  0
 36 38  1  0  0  0  0
 36 40  1  0  0  0  0
 37 39  1  0  0  0  0
 38 39  1  0  0  0  0
M  END
>  <CHROM.1>
-159.32314201,-80.54785575,-45.65818887,81.87216171,168.07878856,-40.25884235
-42.77804864,177.40473661,-91.77082000,-175.11690922,-2.42091235,-3.35586345
7.07777159,1.39819807,0.50246151,0.79836320

>  <Name>
ligand

>  <RI>
0

>  <Rbt.Current_Directory>
/home/itssahil/PROJECTS/Mol_Feturizer/New_Systems/rnas/4P20

>  <Rbt.Executable>
rbdock ($Id: //depot/dev/client3/rdock/2013.1/src/exe/rbdock.cxx#4 $)

>  <Rbt.Library>
libRbt.so (2013.1, Build901 2013/11/27)

>  <Rbt.Parameter_File>
/export/apps/rDock/src/rDock_2013.1_src/data/scripts/dock_solv.prm

>  <Rbt.Receptor>
prm/blind_docking_40.prm

>  <SCORE>
36.9219

>  <SCORE.INTER>
7.58167

>  <SCORE.INTER.CONST>
1

>  <SCORE.INTER.POLAR>
0

>  <SCORE.INTER.ROT>
10

>  <SCORE.INTER.SOLV>
19.3526

>  <SCORE.INTER.VDW>
-11.6631

>  <SCORE.INTER.norm>
0.189542

>  <SCORE.INTRA>
5.90993

>  <SCORE.INTRA.DIHEDRAL>
-16.2489

>  <SCORE.INTRA.DIHEDRAL.0>
28.2802

>  <SCORE.INTRA.POLAR>
0

>  <SCORE.INTRA.POLAR.0>
0

>  <SCORE.INTRA.REPUL>
0

>  <SCORE.INTRA.REPUL.0>
0

>  <SCORE.INTRA.SOLV>
9.30299

>  <SCORE.INTRA.SOLV.lig_0>
-101.981

>  <SCORE.INTRA.VDW>
9.38287

>  <SCORE.INTRA.VDW.0>
-5.72964

>  <SCORE.INTRA.norm>
0.147748

>  <SCORE.RESTR>
23.4303

>  <SCORE.RESTR.CAVITY>
23.4303

>  <SCORE.RESTR.norm>
0.585758

>  <SCORE.SYSTEM>
0

>  <SCORE.SYSTEM.CONST>
0

>  <SCORE.SYSTEM.DIHEDRAL>
0

>  <SCORE.SYSTEM.SOLV>
0

>  <SCORE.SYSTEM.norm>
0

>  <SCORE.heavy>
40

>  <SCORE.norm>
0.923048

>  <RMSD>
12.885

$$$$
ligand
 OpenBabel11021811503D
libRbt.so/2013.1/901 2013/11/27
 40 42  0  0  0  0  0  0  0  0999 V2000
   -3.8228    0.3572   10.8529 C   0  0  2  0  0  0  0  0  0  0  0  0
   -3.4218   -0.9865   10.5420 O   0  0  0  0  0  0  0  0  0  0  0  0
   -3.0588    1.3882    9.9403 C   0  0  1  0  0  0  0  0  0  0  0  0
   -1.5312    1.3943   10.2391 C   0  0  2  0  0  0  0  0  0  0  0  0
   -1.3424    1.7847   11.7392 C   0  0  2  0  0  0  0  0  0  0  0  0
    0.0678    1.8258   12.0462 O   0  0  0  0  0  0  0  0  0  0  0  0
   -2.0854    0.7031   12.6389 C   0  0  2  0  0  0  0  0  0  0  0  0
   -3.5511    0.6760   12.2909 O   0  0  0  0  0  0  0  0  0  0  0  0
   -1.9763    1.0076   14.1267 C   0  0  0  0  0  0  0  0  0  0  0  0
   -2.2370    2.4536   14.4124 N   0  0  0  0  0  0  0  0  0  0  0  0
   -4.3285   -3.9093    7.3852 C   0  0  2  0  0  0  0  0  0  0  0  0
   -4.5585   -4.4591    6.0694 N   0  0  0  0  0  0  0  0  0  0  0  0
   -5.3790   -2.7612    7.6701 C   0  0  0  0  0  0  0  0  0  0  0  0
   -5.1344   -2.1411    9.1180 C   0  0  2  0  0  0  0  0  0  0  0  0
   -6.1325   -1.0739    9.3906 N   0  0  0  0  0  0  0  0  0  0  0  0
   -3.6423   -1.5718    9.2002 C   0  0  2  0  0  0  0  0  0  0  0  0
   -2.6281   -2.7579    8.9061 C   0  0  2  0  0  0  0  0  0  0  0  0
   -1.2905   -2.2595    8.9810 O   0  0  0  0  0  0  0  0  0  0  0  0
   -2.8846   -3.3652    7.4706 C   0  0  1  0  0  0  0  0  0  0  0  0
   -1.9657   -4.4591    7.2263 O   0  0  0  0  0  0  0  0  0  0  0  0
   -0.7201   -4.3414    6.6267 C   0  0  2  0  0  0  0  0  0  0  0  0
   -0.7847   -3.1218    5.6399 C   0  0  2  0  0  0  0  0  0  0  0  0
   -1.1448   -1.9729    6.3367 O   0  0  0  0  0  0  0  0  0  0  0  0
   -1.7765   -3.3939    4.4301 C   0  0  1  0  0  0  0  0  0  0  0  0
   -1.8132   -2.2258    3.4968 N   0  0  0  0  0  0  0  0  0  0  0  0
   -1.3080   -4.7132    3.6744 C   0  0  2  0  0  0  0  0  0  0  0  0
   -2.1669   -4.9950    2.5626 O   0  0  0  0  0  0  0  0  0  0  0  0
   -1.3006   -5.8985    4.7156 C   0  0  2  0  0  0  0  0  0  0  0  0
   -0.3801   -5.5839    5.8871 O   0  0  0  0  0  0  0  0  0  0  0  0
   -0.8445   -7.1865    4.0725 C   0  0  0  0  0  0  0  0  0  0  0  0
    0.3724   -7.0311    3.3189 O   0  0  0  0  0  0  0  0  0  0  0  0
   -3.3104    1.0406    8.5475 O   0  0  0  0  0  0  0  0  0  0  0  0
   -0.9183    2.3173    9.4266 O   0  0  0  0  0  0  0  0  0  0  0  0
   -4.3025   -5.8625    5.8420 C   0  0  0  0  0  0  0  0  0  0  0  0
   -3.5029   -6.4874    6.6003 O   0  0  0  0  0  0  0  0  0  0  0  0
   -5.0314   -6.5536    4.6488 C   0  0  2  0  0  0  0  0  0  0  0  0
   -3.6129  -10.1683    4.8486 N   0  0  0  0  0  0  0  0  0  0  0  0
   -5.0122   -8.1055    4.8058 C   0  0  0  0  0  0  0  0  0  0  0  0
   -3.5931   -8.6874    4.9186 C   0  0  0  0  0  0  0  0  0  0  0  0
   -4.4713   -6.3200    3.5309 O   0  0  0  0  0  0  0  0  0  0  0  0
  1  2  1  6  0  0  0
  1  3  1  0  0  0  0
  1  8  1  0  0  0  0
  3  4  1  0  0  0  0
  3 32  1  6  0  0  0
  4  5  1  0  0  0  0
  4 33  1  6  0  0  0
  5  6  1  1  0  0  0
  5  7  1  0  0  0  0
  7  8  1  0  0  0  0
  7  9  1  1  0  0  0
  9 10  1  0  0  0  0
 11 12  1  6  0  0  0
 11 13  1  0  0  0  0
 11 19  1  0  0  0  0
 12 34  1  0  0  0  0
 13 14  1  0  0  0  0
 14 15  1  6  0  0  0
 14 16  1  0  0  0  0
 16  2  1  1  0  0  0
 16 17  1  0  0  0  0
 17 18  1  6  0  0  0
 17 19  1  0  0  0  0
 19 20  1  1  0  0  0
 21 20  1  6  0  0  0
 21 22  1  0  0  0  0
 21 29  1  0  0  0  0
 22 23  1  1  0  0  0
 22 24  1  0  0  0  0
 24 25  1  6  0  0  0
 24 26  1  0  0  0  0
 26 27  1  6  0  0  0
 26 28  1  0  0  0  0
 28 29  1  0  0  0  0
 28 30  1  6  0  0  0
 30 31  1  0  0  0  0
 34 35  2  0  0  0  0
 36 34  1  1  0  0  0
 36 38  1  0  0  0  0
 36 40  1  0  0  0  0
 37 39  1  0  0  0  0
 38 39  1  0  0  0  0
M  END
>  <CHROM.1>
-61.64092545,-83.76394588,44.93641530,-146.69818109,148.72518196,-29.09160229
49.21038306,-162.11205958,-57.47368496,-170.96322459,-2.62830230,-2.93127826
7.59538208,1.53383209,0.48831843,0.76374054

>  <Name>
ligand

>  <RI>
0

>  <Rbt.Current_Directory>
/home/itssahil/PROJECTS/Mol_Feturizer/New_Systems/rnas/4P20

>  <Rbt.Executable>
rbdock ($Id: //depot/dev/client3/rdock/2013.1/src/exe/rbdock.cxx#4 $)

>  <Rbt.Library>
libRbt.so (2013.1, Build901 2013/11/27)

>  <Rbt.Parameter_File>
/export/apps/rDock/src/rDock_2013.1_src/data/scripts/dock_solv.prm

>  <Rbt.Receptor>
prm/blind_docking_40.prm

>  <SCORE>
27.2118

>  <SCORE.INTER>
9.91271

>  <SCORE.INTER.CONST>
1

>  <SCORE.INTER.POLAR>
0

>  <SCORE.INTER.ROT>
10

>  <SCORE.INTER.SOLV>
17.9844

>  <SCORE.INTER.VDW>
-9.653

>  <SCORE.INTER.norm>
0.247818

>  <SCORE.INTRA>
-0.689251

>  <SCORE.INTRA.DIHEDRAL>
-14.8451

>  <SCORE.INTRA.DIHEDRAL.0>
28.2802

>  <SCORE.INTRA.POLAR>
0

>  <SCORE.INTRA.POLAR.0>
0

>  <SCORE.INTRA.REPUL>
0.0147546

>  <SCORE.INTRA.REPUL.0>
0

>  <SCORE.INTRA.SOLV>
5.8456

>  <SCORE.INTRA.SOLV.lig_0>
-101.981

>  <SCORE.INTRA.VDW>
3.7367

>  <SCORE.INTRA.VDW.0>
-5.72964

>  <SCORE.INTRA.norm>
-0.0172313

>  <SCORE.RESTR>
17.9884

>  <SCORE.RESTR.CAVITY>
17.9884

>  <SCORE.RESTR.norm>
0.449709

>  <SCORE.SYSTEM>
0

>  <SCORE.SYSTEM.CONST>
0

>  <SCORE.SYSTEM.DIHEDRAL>
0

>  <SCORE.SYSTEM.SOLV>
0

>  <SCORE.SYSTEM.norm>
0

>  <SCORE.heavy>
40

>  <SCORE.norm>
0.680296

>  <RMSD>
12.892

$$$$
ligand
 OpenBabel11021811503D
libRbt.so/2013.1/901 2013/11/27
 40 42  0  0  0  0  0  0  0  0999 V2000
   -3.8077    0.2102   10.8599 C   0  0  2  0  0  0  0  0  0  0  0  0
   -3.3396   -1.0931   10.4788 O   0  0  0  0  0  0  0  0  0  0  0  0
   -3.1074    1.3246    9.9956 C   0  0  1  0  0  0  0  0  0  0  0  0
   -1.5795    1.3966   10.2842 C   0  0  2  0  0  0  0  0  0  0  0  0
   -1.3975    1.7206   11.8008 C   0  0  2  0  0  0  0  0  0  0  0  0
    0.0114    1.8209   12.1000 O   0  0  0  0  0  0  0  0  0  0  0  0
   -2.0742    0.5574   12.6496 C   0  0  2  0  0  0  0  0  0  0  0  0
   -3.5397    0.4703   12.3105 O   0  0  0  0  0  0  0  0  0  0  0  0
   -1.9674    0.7921   14.1501 C   0  0  0  0  0  0  0  0  0  0  0  0
   -2.6175    2.0789   14.5528 N   0  0  0  0  0  0  0  0  0  0  0  0
   -4.3720   -3.9130    7.2675 C   0  0  2  0  0  0  0  0  0  0  0  0
   -4.6273   -4.4266    5.9418 N   0  0  0  0  0  0  0  0  0  0  0  0
   -5.3742   -2.7291    7.5784 C   0  0  0  0  0  0  0  0  0  0  0  0
   -5.1011   -2.1484    9.0376 C   0  0  2  0  0  0  0  0  0  0  0  0
   -6.0543   -1.0471    9.3345 N   0  0  0  0  0  0  0  0  0  0  0  0
   -3.5869   -1.6421    9.1263 C   0  0  2  0  0  0  0  0  0  0  0  0
   -2.6226   -2.8623    8.8055 C   0  0  2  0  0  0  0  0  0  0  0  0
   -1.2656   -2.4204    8.8861 O   0  0  0  0  0  0  0  0  0  0  0  0
   -2.9070   -3.4300    7.3591 C   0  0  1  0  0  0  0  0  0  0  0  0
   -2.0340   -4.5552    7.0902 O   0  0  0  0  0  0  0  0  0  0  0  0
   -0.7587   -4.4698    6.5505 C   0  0  2  0  0  0  0  0  0  0  0  0
   -0.7510   -3.2628    5.5464 C   0  0  2  0  0  0  0  0  0  0  0  0
   -1.1214   -2.0978    6.2102 O   0  0  0  0  0  0  0  0  0  0  0  0
   -1.6884   -3.5320    4.2933 C   0  0  1  0  0  0  0  0  0  0  0  0
   -1.6565   -2.3762    3.3446 N   0  0  0  0  0  0  0  0  0  0  0  0
   -1.2104   -4.8703    3.5780 C   0  0  2  0  0  0  0  0  0  0  0  0
   -2.0200   -5.1506    2.4294 O   0  0  0  0  0  0  0  0  0  0  0  0
   -1.2771   -6.0413    4.6332 C   0  0  2  0  0  0  0  0  0  0  0  0
   -0.4083   -5.7287    5.8440 O   0  0  0  0  0  0  0  0  0  0  0  0
   -0.8163   -7.3465    4.0294 C   0  0  0  0  0  0  0  0  0  0  0  0
   -1.3172   -8.4947    4.7389 O   0  0  0  0  0  0  0  0  0  0  0  0
   -3.3535    1.0346    8.5887 O   0  0  0  0  0  0  0  0  0  0  0  0
   -1.0236    2.3903    9.5153 O   0  0  0  0  0  0  0  0  0  0  0  0
   -4.5192   -5.8481    5.7083 C   0  0  0  0  0  0  0  0  0  0  0  0
   -3.8112   -6.5606    6.4803 O   0  0  0  0  0  0  0  0  0  0  0  0
   -5.2887   -6.4488    4.4919 C   0  0  2  0  0  0  0  0  0  0  0  0
   -4.0638   -8.9426    5.8124 N   0  0  0  0  0  0  0  0  0  0  0  0
   -4.4395   -7.5473    3.7809 C   0  0  0  0  0  0  0  0  0  0  0  0
   -4.5828   -8.9371    4.4236 C   0  0  0  0  0  0  0  0  0  0  0  0
   -5.5400   -5.5826    3.5949 O   0  0  0  0  0  0  0  0  0  0  0  0
  1  2  1  6  0  0  0
  1  3  1  0  0  0  0
  1  8  1  0  0  0  0
  3  4  1  0  0  0  0
  3 32  1  6  0  0  0
  4  5  1  0  0  0  0
  4 33  1  6  0  0  0
  5  6  1  1  0  0  0
  5  7  1  0  0  0  0
  7  8  1  0  0  0  0
  7  9  1  1  0  0  0
  9 10  1  0  0  0  0
 11 12  1  6  0  0  0
 11 13  1  0  0  0  0
 11 19  1  0  0  0  0
 12 34  1  0  0  0  0
 13 14  1  0  0  0  0
 14 15  1  6  0  0  0
 14 16  1  0  0  0  0
 16  2  1  1  0  0  0
 16 17  1  0  0  0  0
 17 18  1  6  0  0  0
 17 19  1  0  0  0  0
 19 20  1  1  0  0  0
 21 20  1  6  0  0  0
 21 22  1  0  0  0  0
 21 29  1  0  0  0  0
 22 23  1  1  0  0  0
 22 24  1  0  0  0  0
 24 25  1  6  0  0  0
 24 26  1  0  0  0  0
 26 27  1  6  0  0  0
 26 28  1  0  0  0  0
 28 29  1  0  0  0  0
 28 30  1  6  0  0  0
 30 31  1  0  0  0  0
 34 35  2  0  0  0  0
 36 34  1  1  0  0  0
 36 38  1  0  0  0  0
 36 40  1  0  0  0  0
 37 39  1  0  0  0  0
 38 39  1  0  0  0  0
M  END
>  <CHROM.1>
-64.01956342,-77.24707258,59.11891858,-142.44390817,152.13879389,-33.49652483
-157.86900260,140.83959199,85.08781567,-63.88520878,-2.74863644,-2.99097422
7.57687901,1.50689450,0.44513394,0.78560499

>  <Name>
ligand

>  <RI>
0

>  <Rbt.Current_Directory>
/home/itssahil/PROJECTS/Mol_Feturizer/New_Systems/rnas/4P20

>  <Rbt.Executable>
rbdock ($Id: //depot/dev/client3/rdock/2013.1/src/exe/rbdock.cxx#4 $)

>  <Rbt.Library>
libRbt.so (2013.1, Build901 2013/11/27)

>  <Rbt.Parameter_File>
/export/apps/rDock/src/rDock_2013.1_src/data/scripts/dock_solv.prm

>  <Rbt.Receptor>
prm/blind_docking_40.prm

>  <SCORE>
26.9162

>  <SCORE.INTER>
9.58297

>  <SCORE.INTER.CONST>
1

>  <SCORE.INTER.POLAR>
0

>  <SCORE.INTER.ROT>
10

>  <SCORE.INTER.SOLV>
19.2179

>  <SCORE.INTER.VDW>
-10.284

>  <SCORE.INTER.norm>
0.239574

>  <SCORE.INTRA>
-0.805092

>  <SCORE.INTRA.DIHEDRAL>
-14.298

>  <SCORE.INTRA.DIHEDRAL.0>
28.2802

>  <SCORE.INTRA.POLAR>
0

>  <SCORE.INTRA.POLAR.0>
0

>  <SCORE.INTRA.REPUL>
0

>  <SCORE.INTRA.REPUL.0>
0

>  <SCORE.INTRA.SOLV>
8.94919

>  <SCORE.INTRA.SOLV.lig_0>
-101.981

>  <SCORE.INTRA.VDW>
1.86933

>  <SCORE.INTRA.VDW.0>
-5.72964

>  <SCORE.INTRA.norm>
-0.0201273

>  <SCORE.RESTR>
18.1384

>  <SCORE.RESTR.CAVITY>
18.1384

>  <SCORE.RESTR.norm>
0.453459

>  <SCORE.SYSTEM>
0

>  <SCORE.SYSTEM.CONST>
0

>  <SCORE.SYSTEM.DIHEDRAL>
0

>  <SCORE.SYSTEM.SOLV>
0

>  <SCORE.SYSTEM.norm>
0

>  <SCORE.heavy>
40

>  <SCORE.norm>
0.672906

>  <RMSD>
12.893

$$$$
ligand
 OpenBabel11021811503D
libRbt.so/2013.1/901 2013/11/27
 40 42  0  0  0  0  0  0  0  0999 V2000
   -3.8476    0.2632   10.8396 C   0  0  2  0  0  0  0  0  0  0  0  0
   -3.4225   -1.0675   10.5060 O   0  0  0  0  0  0  0  0  0  0  0  0
   -3.0980    1.3236    9.9491 C   0  0  1  0  0  0  0  0  0  0  0  0
   -1.5719    1.3504   10.2541 C   0  0  2  0  0  0  0  0  0  0  0  0
   -1.3954    1.7165   11.7618 C   0  0  2  0  0  0  0  0  0  0  0  0
    0.0127    1.7761   12.0752 O   0  0  0  0  0  0  0  0  0  0  0  0
   -2.1231    0.6061   12.6387 C   0  0  2  0  0  0  0  0  0  0  0  0
   -3.5868    0.5603   12.2844 O   0  0  0  0  0  0  0  0  0  0  0  0
   -2.0248    0.8852   14.1322 C   0  0  0  0  0  0  0  0  0  0  0  0
   -2.5677    2.2372   14.4756 N   0  0  0  0  0  0  0  0  0  0  0  0
   -4.3039   -3.9424    7.2985 C   0  0  2  0  0  0  0  0  0  0  0  0
   -4.5217   -4.4727    5.9727 N   0  0  0  0  0  0  0  0  0  0  0  0
   -5.3544   -2.7958    7.5890 C   0  0  0  0  0  0  0  0  0  0  0  0
   -5.1231   -2.1970    9.0481 C   0  0  2  0  0  0  0  0  0  0  0  0
   -6.1214   -1.1312    9.3257 N   0  0  0  0  0  0  0  0  0  0  0  0
   -3.6306   -1.6330    9.1537 C   0  0  2  0  0  0  0  0  0  0  0  0
   -2.6164   -2.8174    8.8531 C   0  0  2  0  0  0  0  0  0  0  0  0
   -1.2784   -2.3238    8.9489 O   0  0  0  0  0  0  0  0  0  0  0  0
   -2.8596   -3.4035    7.4066 C   0  0  1  0  0  0  0  0  0  0  0  0
   -1.9409   -4.4962    7.1560 O   0  0  0  0  0  0  0  0  0  0  0  0
   -0.6814   -4.3708    6.5879 C   0  0  2  0  0  0  0  0  0  0  0  0
   -0.7230   -3.1391    5.6151 C   0  0  2  0  0  0  0  0  0  0  0  0
   -1.1003   -1.9991    6.3172 O   0  0  0  0  0  0  0  0  0  0  0  0
   -1.6855   -3.3963    4.3786 C   0  0  1  0  0  0  0  0  0  0  0  0
   -1.7004   -2.2167    3.4593 N   0  0  0  0  0  0  0  0  0  0  0  0
   -1.1983   -4.7061    3.6180 C   0  0  2  0  0  0  0  0  0  0  0  0
   -2.0303   -4.9743    2.4825 O   0  0  0  0  0  0  0  0  0  0  0  0
   -1.2152   -5.9042    4.6443 C   0  0  2  0  0  0  0  0  0  0  0  0
   -0.3232   -5.6040    5.8413 O   0  0  0  0  0  0  0  0  0  0  0  0
   -0.7433   -7.1840    3.9963 C   0  0  0  0  0  0  0  0  0  0  0  0
    0.4943   -7.0205    3.2792 O   0  0  0  0  0  0  0  0  0  0  0  0
   -3.3384    0.9972    8.5492 O   0  0  0  0  0  0  0  0  0  0  0  0
   -0.9719    2.2984    9.4610 O   0  0  0  0  0  0  0  0  0  0  0  0
   -4.1792   -5.8502    5.7041 C   0  0  0  0  0  0  0  0  0  0  0  0
   -3.3270   -6.4404    6.4324 O   0  0  0  0  0  0  0  0  0  0  0  0
   -4.8834   -6.5572    4.5054 C   0  0  2  0  0  0  0  0  0  0  0  0
   -3.1166   -8.9777    4.6854 N   0  0  0  0  0  0  0  0  0  0  0  0
   -5.3883   -7.9761    4.9120 C   0  0  0  0  0  0  0  0  0  0  0  0
   -4.3006   -8.8434    5.5676 C   0  0  0  0  0  0  0  0  0  0  0  0
   -4.1015   -6.7462    3.5200 O   0  0  0  0  0  0  0  0  0  0  0  0
  1  2  1  6  0  0  0
  1  3  1  0  0  0  0
  1  8  1  0  0  0  0
  3  4  1  0  0  0  0
  3 32  1  6  0  0  0
  4  5  1  0  0  0  0
  4 33  1  6  0  0  0
  5  6  1  1  0  0  0
  5  7  1  0  0  0  0
  7  8  1  0  0  0  0
  7  9  1  1  0  0  0
  9 10  1  0  0  0  0
 11 12  1  6  0  0  0
 11 13  1  0  0  0  0
 11 19  1  0  0  0  0
 12 34  1  0  0  0  0
 13 14  1  0  0  0  0
 14 15  1  6  0  0  0
 14 16  1  0  0  0  0
 16  2  1  1  0  0  0
 16 17  1  0  0  0  0
 17 18  1  6  0  0  0
 17 19  1  0  0  0  0
 19 20  1  1  0  0  0
 21 20  1  6  0  0  0
 21 22  1  0  0  0  0
 21 29  1  0  0  0  0
 22 23  1  1  0  0  0
 22 24  1  0  0  0  0
 24 25  1  6  0  0  0
 24 26  1  0  0  0  0
 26 27  1  6  0  0  0
 26 28  1  0  0  0  0
 28 29  1  0  0  0  0
 28 30  1  6  0  0  0
 30 31  1  0  0  0  0
 34 35  2  0  0  0  0
 36 34  1  1  0  0  0
 36 38  1  0  0  0  0
 36 40  1  0  0  0  0
 37 39  1  0  0  0  0
 38 39  1  0  0  0  0
M  END
>  <CHROM.1>
-61.77898679,-82.48723960,56.13350311,-150.94696255,149.66857954,-29.87420560
49.47480595,-134.13121479,-51.59465740,-56.36072159,-2.61112873,-2.95092854
7.57209050,1.55109529,0.48281282,0.77294226

>  <Name>
ligand

>  <RI>
0

>  <Rbt.Current_Directory>
/home/itssahil/PROJECTS/Mol_Feturizer/New_Systems/rnas/4P20

>  <Rbt.Executable>
rbdock ($Id: //depot/dev/client3/rdock/2013.1/src/exe/rbdock.cxx#4 $)

>  <Rbt.Library>
libRbt.so (2013.1, Build901 2013/11/27)

>  <Rbt.Parameter_File>
/export/apps/rDock/src/rDock_2013.1_src/data/scripts/dock_solv.prm

>  <Rbt.Receptor>
prm/blind_docking_40.prm

>  <SCORE>
27.2634

>  <SCORE.INTER>
8.12739

>  <SCORE.INTER.CONST>
1

>  <SCORE.INTER.POLAR>
0

>  <SCORE.INTER.ROT>
10

>  <SCORE.INTER.SOLV>
16.378

>  <SCORE.INTER.VDW>
-10.3078

>  <SCORE.INTER.norm>
0.203185

>  <SCORE.INTRA>
1.64202

>  <SCORE.INTRA.DIHEDRAL>
-15.2061

>  <SCORE.INTRA.DIHEDRAL.0>
28.2802

>  <SCORE.INTRA.POLAR>
0

>  <SCORE.INTRA.POLAR.0>
0

>  <SCORE.INTRA.REPUL>
0.00729177

>  <SCORE.INTRA.REPUL.0>
0

>  <SCORE.INTRA.SOLV>
10.4273

>  <SCORE.INTRA.SOLV.lig_0>
-101.981

>  <SCORE.INTRA.VDW>
3.99498

>  <SCORE.INTRA.VDW.0>
-5.72964

>  <SCORE.INTRA.norm>
0.0410505

>  <SCORE.RESTR>
17.494

>  <SCORE.RESTR.CAVITY>
17.494

>  <SCORE.RESTR.norm>
0.437349

>  <SCORE.SYSTEM>
0

>  <SCORE.SYSTEM.CONST>
0

>  <SCORE.SYSTEM.DIHEDRAL>
0

>  <SCORE.SYSTEM.SOLV>
0

>  <SCORE.SYSTEM.norm>
0

>  <SCORE.heavy>
40

>  <SCORE.norm>
0.681584

>  <RMSD>
12.897

$$$$
ligand
 OpenBabel11021811503D
libRbt.so/2013.1/901 2013/11/27
 40 42  0  0  0  0  0  0  0  0999 V2000
   -2.5008    0.8511    9.1795 C   0  0  2  0  0  0  0  0  0  0  0  0
   -1.7627   -0.2949    8.7270 O   0  0  0  0  0  0  0  0  0  0  0  0
   -1.5430    2.0858    9.3725 C   0  0  1  0  0  0  0  0  0  0  0  0
   -0.5218    1.8436   10.5220 C   0  0  2  0  0  0  0  0  0  0  0  0
   -1.3326    1.6016   11.8343 C   0  0  2  0  0  0  0  0  0  0  0  0
   -0.4147    1.3983   12.9300 O   0  0  0  0  0  0  0  0  0  0  0  0
   -2.2574    0.3235   11.6271 C   0  0  2  0  0  0  0  0  0  0  0  0
   -3.1971    0.5605   10.4735 O   0  0  0  0  0  0  0  0  0  0  0  0
   -3.1083    0.0145   12.8513 C   0  0  0  0  0  0  0  0  0  0  0  0
   -3.9047    1.2064   13.2822 N   0  0  0  0  0  0  0  0  0  0  0  0
   -2.5161   -4.5128    7.7411 C   0  0  2  0  0  0  0  0  0  0  0  0
   -3.2039   -5.6989    7.2867 N   0  0  0  0  0  0  0  0  0  0  0  0
   -3.3106   -3.8702    8.9488 C   0  0  0  0  0  0  0  0  0  0  0  0
   -2.5655   -2.5564    9.4583 C   0  0  2  0  0  0  0  0  0  0  0  0
   -3.3045   -1.9631   10.6035 N   0  0  0  0  0  0  0  0  0  0  0  0
   -2.4449   -1.5183    8.2480 C   0  0  2  0  0  0  0  0  0  0  0  0
   -1.6435   -2.2085    7.0634 C   0  0  2  0  0  0  0  0  0  0  0  0
   -1.5270   -1.2866    5.9773 O   0  0  0  0  0  0  0  0  0  0  0  0
   -2.3907   -3.5105    6.5716 C   0  0  1  0  0  0  0  0  0  0  0  0
   -1.6365   -4.1394    5.5056 O   0  0  0  0  0  0  0  0  0  0  0  0
   -0.4456   -4.8327    5.6668 C   0  0  2  0  0  0  0  0  0  0  0  0
    0.5130   -4.4016    4.5005 C   0  0  2  0  0  0  0  0  0  0  0  0
    0.6976   -3.0231    4.5299 O   0  0  0  0  0  0  0  0  0  0  0  0
   -0.0280   -4.8780    3.0857 C   0  0  1  0  0  0  0  0  0  0  0  0
    0.9057   -4.4683    1.9915 N   0  0  0  0  0  0  0  0  0  0  0  0
   -0.2119   -6.4580    3.1167 C   0  0  2  0  0  0  0  0  0  0  0  0
   -0.6879   -6.9398    1.8538 O   0  0  0  0  0  0  0  0  0  0  0  0
   -1.2103   -6.8129    4.2855 C   0  0  2  0  0  0  0  0  0  0  0  0
   -0.6869   -6.2976    5.6194 O   0  0  0  0  0  0  0  0  0  0  0  0
   -1.4195   -8.3048    4.3901 C   0  0  0  0  0  0  0  0  0  0  0  0
   -2.2062   -8.6768    5.5370 O   0  0  0  0  0  0  0  0  0  0  0  0
   -0.8527    2.3307    8.1125 O   0  0  0  0  0  0  0  0  0  0  0  0
    0.2773    2.9533   10.6542 O   0  0  0  0  0  0  0  0  0  0  0  0
   -4.1948   -5.5775    6.2426 C   0  0  0  0  0  0  0  0  0  0  0  0
   -4.7640   -4.4637    6.0416 O   0  0  0  0  0  0  0  0  0  0  0  0
   -4.5271   -6.8474    5.4003 C   0  0  2  0  0  0  0  0  0  0  0  0
   -5.1538   -8.6552    3.1608 N   0  0  0  0  0  0  0  0  0  0  0  0
   -5.7033   -6.5710    4.4134 C   0  0  0  0  0  0  0  0  0  0  0  0
   -6.2486   -7.8447    3.7460 C   0  0  0  0  0  0  0  0  0  0  0  0
   -4.9108   -7.8249    6.1181 O   0  0  0  0  0  0  0  0  0  0  0  0
  1  2  1  1  0  0  0
  1  3  1  0  0  0  0
  1  8  1  0  0  0  0
  3  4  1  0  0  0  0
  3 32  1  6  0  0  0
  4  5  1  0  0  0  0
  4 33  1  1  0  0  0
  5  6  1  1  0  0  0
  5  7  1  0  0  0  0
  7  8  1  0  0  0  0
  7  9  1  1  0  0  0
  9 10  1  0  0  0  0
 11 12  1  6  0  0  0
 11 13  1  0  0  0  0
 11 19  1  0  0  0  0
 12 34  1  0  0  0  0
 13 14  1  0  0  0  0
 14 15  1  1  0  0  0
 14 16  1  0  0  0  0
 16  2  1  1  0  0  0
 16 17  1  0  0  0  0
 17 18  1  6  0  0  0
 17 19  1  0  0  0  0
 19 20  1  6  0  0  0
 21 20  1  6  0  0  0
 21 22  1  0  0  0  0
 21 29  1  0  0  0  0
 22 23  1  6  0  0  0
 22 24  1  0  0  0  0
 24 25  1  6  0  0  0
 24 26  1  0  0  0  0
 26 27  1  6  0  0  0
 26 28  1  0  0  0  0
 28 29  1  0  0  0  0
 28 30  1  1  0  0  0
 30 31  1  0  0  0  0
 34 35  2  0  0  0  0
 36 34  1  1  0  0  0
 36 38  1  0  0  0  0
 36 40  1  0  0  0  0
 37 39  1  0  0  0  0
 38 39  1  0  0  0  0
M  END
>  <CHROM.1>
-169.45477697,-94.96001693,53.70321610,90.75412427,-47.18564743,-137.21746501
173.52424013,174.79113283,-169.29077098,-50.28860026,-2.13500280,-3.21888084
7.16090055,-1.47887469,-0.62202862,-2.38421475

>  <Name>
ligand

>  <RI>
0

>  <Rbt.Current_Directory>
/home/itssahil/PROJECTS/Mol_Feturizer/New_Systems/rnas/4P20

>  <Rbt.Executable>
rbdock ($Id: //depot/dev/client3/rdock/2013.1/src/exe/rbdock.cxx#4 $)

>  <Rbt.Library>
libRbt.so (2013.1, Build901 2013/11/27)

>  <Rbt.Parameter_File>
/export/apps/rDock/src/rDock_2013.1_src/data/scripts/dock_solv.prm

>  <Rbt.Receptor>
prm/blind_docking_40.prm

>  <SCORE>
23.3518

>  <SCORE.INTER>
1.90904

>  <SCORE.INTER.CONST>
1

>  <SCORE.INTER.POLAR>
0

>  <SCORE.INTER.ROT>
10

>  <SCORE.INTER.SOLV>
18.8819

>  <SCORE.INTER.VDW>
-15.2879

>  <SCORE.INTER.norm>
0.047726

>  <SCORE.INTRA>
0.566435

>  <SCORE.INTRA.DIHEDRAL>
-14.1168

>  <SCORE.INTRA.DIHEDRAL.0>
28.2802

>  <SCORE.INTRA.POLAR>
0

>  <SCORE.INTRA.POLAR.0>
0

>  <SCORE.INTRA.REPUL>
0

>  <SCORE.INTRA.REPUL.0>
0

>  <SCORE.INTRA.SOLV>
8.38086

>  <SCORE.INTRA.SOLV.lig_0>
-101.981

>  <SCORE.INTRA.VDW>
3.43442

>  <SCORE.INTRA.VDW.0>
-5.72964

>  <SCORE.INTRA.norm>
0.0141609

>  <SCORE.RESTR>
20.8763

>  <SCORE.RESTR.CAVITY>
20.8763

>  <SCORE.RESTR.norm>
0.521907

>  <SCORE.SYSTEM>
0

>  <SCORE.SYSTEM.CONST>
0

>  <SCORE.SYSTEM.DIHEDRAL>
0

>  <SCORE.SYSTEM.SOLV>
0

>  <SCORE.SYSTEM.norm>
0

>  <SCORE.heavy>
40

>  <SCORE.norm>
0.583794

>  <RMSD>
12.901

$$$$
ligand
 OpenBabel11021811503D
libRbt.so/2013.1/901 2013/11/27
 40 42  0  0  0  0  0  0  0  0999 V2000
   -1.7365   -0.2864   10.1429 C   0  0  2  0  0  0  0  0  0  0  0  0
   -3.1040   -0.3806    9.7138 O   0  0  0  0  0  0  0  0  0  0  0  0
   -1.6324   -0.4664   11.7037 C   0  0  1  0  0  0  0  0  0  0  0  0
   -2.3248    0.7034   12.4619 C   0  0  2  0  0  0  0  0  0  0  0  0
   -1.6146    2.0287   12.0406 C   0  0  2  0  0  0  0  0  0  0  0  0
   -2.2156    3.1357   12.7463 O   0  0  0  0  0  0  0  0  0  0  0  0
   -1.7737    2.2079   10.4676 C   0  0  2  0  0  0  0  0  0  0  0  0
   -1.1465    1.0356    9.7587 O   0  0  0  0  0  0  0  0  0  0  0  0
   -1.0934    3.4687    9.9522 C   0  0  0  0  0  0  0  0  0  0  0  0
    0.3856    3.4269   10.1788 N   0  0  0  0  0  0  0  0  0  0  0  0
   -4.2967   -3.8819    7.3371 C   0  0  2  0  0  0  0  0  0  0  0  0
   -4.6996   -4.6788    6.2018 N   0  0  0  0  0  0  0  0  0  0  0  0
   -5.3699   -2.7487    7.5959 C   0  0  0  0  0  0  0  0  0  0  0  0
   -4.9360   -1.8573    8.8441 C   0  0  2  0  0  0  0  0  0  0  0  0
   -5.9536   -0.8035    9.0960 N   0  0  0  0  0  0  0  0  0  0  0  0
   -3.4991   -1.2168    8.5578 C   0  0  2  0  0  0  0  0  0  0  0  0
   -2.4602   -2.3906    8.3034 C   0  0  2  0  0  0  0  0  0  0  0  0
   -1.1708   -1.8280    8.0500 O   0  0  0  0  0  0  0  0  0  0  0  0
   -2.9046   -3.2677    7.0670 C   0  0  1  0  0  0  0  0  0  0  0  0
   -1.9581   -4.3459    6.8613 O   0  0  0  0  0  0  0  0  0  0  0  0
   -0.7084   -4.2148    6.2731 C   0  0  2  0  0  0  0  0  0  0  0  0
   -0.8248   -3.1160    5.1576 C   0  0  2  0  0  0  0  0  0  0  0  0
   -1.2712   -1.9236    5.7181 O   0  0  0  0  0  0  0  0  0  0  0  0
   -1.7694   -3.5802    3.9687 C   0  0  1  0  0  0  0  0  0  0  0  0
   -1.8560   -2.5249    2.9124 N   0  0  0  0  0  0  0  0  0  0  0  0
   -1.2030   -4.9411    3.3701 C   0  0  2  0  0  0  0  0  0  0  0  0
   -2.0167   -5.3960    2.2818 O   0  0  0  0  0  0  0  0  0  0  0  0
   -1.1471   -6.0037    4.5349 C   0  0  2  0  0  0  0  0  0  0  0  0
   -0.2754   -5.5060    5.6800 O   0  0  0  0  0  0  0  0  0  0  0  0
   -0.5977   -7.3221    4.0446 C   0  0  0  0  0  0  0  0  0  0  0  0
    0.5829   -7.1660    3.2355 O   0  0  0  0  0  0  0  0  0  0  0  0
   -2.2403   -1.7425   12.0587 O   0  0  0  0  0  0  0  0  0  0  0  0
   -2.1930    0.5024   13.8146 O   0  0  0  0  0  0  0  0  0  0  0  0
   -4.3057   -6.0675    6.1454 C   0  0  0  0  0  0  0  0  0  0  0  0
   -3.2985   -6.4633    6.8041 O   0  0  0  0  0  0  0  0  0  0  0  0
   -5.1509   -7.0306    5.2563 C   0  0  2  0  0  0  0  0  0  0  0  0
   -2.4358   -9.6746    4.3691 N   0  0  0  0  0  0  0  0  0  0  0  0
   -4.2296   -7.9435    4.3895 C   0  0  0  0  0  0  0  0  0  0  0  0
   -3.3848   -8.9213    5.2234 C   0  0  0  0  0  0  0  0  0  0  0  0
   -5.8891   -6.4103    4.4266 O   0  0  0  0  0  0  0  0  0  0  0  0
  1  2  1  1  0  0  0
  1  3  1  0  0  0  0
  1  8  1  0  0  0  0
  3  4  1  0  0  0  0
  3 32  1  6  0  0  0
  4  5  1  0  0  0  0
  4 33  1  1  0  0  0
  5  6  1  1  0  0  0
  5  7  1  0  0  0  0
  7  8  1  0  0  0  0
  7  9  1  6  0  0  0
  9 10  1  0  0  0  0
 11 12  1  6  0  0  0
 11 13  1  0  0  0  0
 11 19  1  0  0  0  0
 12 34  1  0  0  0  0
 13 14  1  0  0  0  0
 14 15  1  6  0  0  0
 14 16  1  0  0  0  0
 16  2  1  1  0  0  0
 16 17  1  0  0  0  0
 17 18  1  6  0  0  0
 17 19  1  0  0  0  0
 19 20  1  1  0  0  0
 21 20  1  6  0  0  0
 21 22  1  0  0  0  0
 21 29  1  0  0  0  0
 22 23  1  1  0  0  0
 22 24  1  0  0  0  0
 24 25  1  6  0  0  0
 24 26  1  0  0  0  0
 26 27  1  6  0  0  0
 26 28  1  0  0  0  0
 28 29  1  0  0  0  0
 28 30  1  6  0  0  0
 30 31  1  0  0  0  0
 34 35  2  0  0  0  0
 36 34  1  6  0  0  0
 36 38  1  0  0  0  0
 36 40  1  0  0  0  0
 37 39  1  0  0  0  0
 38 39  1  0  0  0  0
M  END
>  <CHROM.1>
-132.90801853,144.74024599,62.83124065,-150.55167677,162.90483169,-34.43204945
45.92395087,134.43674053,65.49387372,-174.61957405,-2.41894269,-2.93994406
7.42760426,-1.50494704,-0.58875588,-2.39204435

>  <Name>
ligand

>  <RI>
0

>  <Rbt.Current_Directory>
/home/itssahil/PROJECTS/Mol_Feturizer/New_Systems/rnas/4P20

>  <Rbt.Executable>
rbdock ($Id: //depot/dev/client3/rdock/2013.1/src/exe/rbdock.cxx#4 $)

>  <Rbt.Library>
libRbt.so (2013.1, Build901 2013/11/27)

>  <Rbt.Parameter_File>
/export/apps/rDock/src/rDock_2013.1_src/data/scripts/dock_solv.prm

>  <Rbt.Receptor>
prm/blind_docking_40.prm

>  <SCORE>
33.1798

>  <SCORE.INTER>
8.4739

>  <SCORE.INTER.CONST>
1

>  <SCORE.INTER.POLAR>
0

>  <SCORE.INTER.ROT>
10

>  <SCORE.INTER.SOLV>
17.5727

>  <SCORE.INTER.VDW>
-10.475

>  <SCORE.INTER.norm>
0.211848

>  <SCORE.INTRA>
3.22775

>  <SCORE.INTRA.DIHEDRAL>
-9.4455

>  <SCORE.INTRA.DIHEDRAL.0>
28.2802

>  <SCORE.INTRA.POLAR>
0

>  <SCORE.INTRA.POLAR.0>
0

>  <SCORE.INTRA.REPUL>
0

>  <SCORE.INTRA.REPUL.0>
0

>  <SCORE.INTRA.SOLV>
4.06139

>  <SCORE.INTRA.SOLV.lig_0>
-101.981

>  <SCORE.INTRA.VDW>
5.91981

>  <SCORE.INTRA.VDW.0>
-5.72964

>  <SCORE.INTRA.norm>
0.0806938

>  <SCORE.RESTR>
21.4781

>  <SCORE.RESTR.CAVITY>
21.4781

>  <SCORE.RESTR.norm>
0.536953

>  <SCORE.SYSTEM>
0

>  <SCORE.SYSTEM.CONST>
0

>  <SCORE.SYSTEM.DIHEDRAL>
0

>  <SCORE.SYSTEM.SOLV>
0

>  <SCORE.SYSTEM.norm>
0

>  <SCORE.heavy>
40

>  <SCORE.norm>
0.829494

>  <RMSD>
12.907

$$$$
ligand
 OpenBabel11021811503D
libRbt.so/2013.1/901 2013/11/27
 40 42  0  0  0  0  0  0  0  0999 V2000
   -3.7930    0.5635   10.7942 C   0  0  2  0  0  0  0  0  0  0  0  0
   -3.3920   -0.7889   10.5238 O   0  0  0  0  0  0  0  0  0  0  0  0
   -3.0082    1.5689    9.8708 C   0  0  1  0  0  0  0  0  0  0  0  0
   -1.4863    1.5768   10.1974 C   0  0  2  0  0  0  0  0  0  0  0  0
   -1.3233    2.0032   11.6906 C   0  0  2  0  0  0  0  0  0  0  0  0
    0.0812    2.0467   12.0223 O   0  0  0  0  0  0  0  0  0  0  0  0
   -2.0871    0.9468   12.6029 C   0  0  2  0  0  0  0  0  0  0  0  0
   -3.5463    0.9166   12.2288 O   0  0  0  0  0  0  0  0  0  0  0  0
   -2.0039    1.2874   14.0845 C   0  0  0  0  0  0  0  0  0  0  0  0
   -2.6454    0.2305   14.9283 N   0  0  0  0  0  0  0  0  0  0  0  0
   -4.2756   -3.8200    7.4641 C   0  0  2  0  0  0  0  0  0  0  0  0
   -4.5128   -4.4117    6.1680 N   0  0  0  0  0  0  0  0  0  0  0  0
   -5.3498   -2.6905    7.7348 C   0  0  0  0  0  0  0  0  0  0  0  0
   -5.0977   -2.0243    9.1608 C   0  0  2  0  0  0  0  0  0  0  0  0
   -6.1177   -0.9747    9.4205 N   0  0  0  0  0  0  0  0  0  0  0  0
   -3.6192   -1.4166    9.2025 C   0  0  2  0  0  0  0  0  0  0  0  0
   -2.5805   -2.5853    8.9243 C   0  0  2  0  0  0  0  0  0  0  0  0
   -1.2547   -2.0524    8.9633 O   0  0  0  0  0  0  0  0  0  0  0  0
   -2.8446   -3.2386    7.5106 C   0  0  1  0  0  0  0  0  0  0  0  0
   -1.9027   -4.3160    7.2812 O   0  0  0  0  0  0  0  0  0  0  0  0
   -0.6945   -4.1957    6.6098 C   0  0  2  0  0  0  0  0  0  0  0  0
   -0.8471   -3.0304    5.5687 C   0  0  2  0  0  0  0  0  0  0  0  0
   -1.2038   -1.8575    6.2261 O   0  0  0  0  0  0  0  0  0  0  0  0
   -1.8929   -3.3904    4.4295 C   0  0  1  0  0  0  0  0  0  0  0  0
   -2.0133   -2.2730    3.4427 N   0  0  0  0  0  0  0  0  0  0  0  0
   -1.4262   -4.7336    3.7159 C   0  0  2  0  0  0  0  0  0  0  0  0
   -2.3339   -5.0949    2.6676 O   0  0  0  0  0  0  0  0  0  0  0  0
   -1.3288   -5.8635    4.8126 C   0  0  2  0  0  0  0  0  0  0  0  0
   -0.3575   -5.4649    5.9155 O   0  0  0  0  0  0  0  0  0  0  0  0
   -0.8695   -7.1700    4.2104 C   0  0  0  0  0  0  0  0  0  0  0  0
    0.2928   -7.0185    3.3743 O   0  0  0  0  0  0  0  0  0  0  0  0
   -3.2358    1.1881    8.4826 O   0  0  0  0  0  0  0  0  0  0  0  0
   -0.8549    2.4772    9.3738 O   0  0  0  0  0  0  0  0  0  0  0  0
   -4.2801   -5.8264    5.9905 C   0  0  0  0  0  0  0  0  0  0  0  0
   -3.4924   -6.4376    6.7721 O   0  0  0  0  0  0  0  0  0  0  0  0
   -5.0186   -6.5466    4.8208 C   0  0  2  0  0  0  0  0  0  0  0  0
   -4.5008   -9.4221    5.5061 N   0  0  0  0  0  0  0  0  0  0  0  0
   -4.0421   -7.4685    4.0270 C   0  0  0  0  0  0  0  0  0  0  0  0
   -3.4397   -8.5955    4.8826 C   0  0  0  0  0  0  0  0  0  0  0  0
   -5.4879   -5.7331    3.9629 O   0  0  0  0  0  0  0  0  0  0  0  0
  1  2  1  1  0  0  0
  1  3  1  0  0  0  0
  1  8  1  0  0  0  0
  3  4  1  0  0  0  0
  3 32  1  6  0  0  0
  4  5  1  0  0  0  0
  4 33  1  6  0  0  0
  5  6  1  1  0  0  0
  5  7  1  0  0  0  0
  7  8  1  0  0  0  0
  7  9  1  1  0  0  0
  9 10  1  0  0  0  0
 11 12  1  6  0  0  0
 11 13  1  0  0  0  0
 11 19  1  0  0  0  0
 12 34  1  0  0  0  0
 13 14  1  0  0  0  0
 14 15  1  6  0  0  0
 14 16  1  0  0  0  0
 16  2  1  1  0  0  0
 16 17  1  0  0  0  0
 17 18  1  6  0  0  0
 17 19  1  0  0  0  0
 19 20  1  1  0  0  0
 21 20  1  6  0  0  0
 21 22  1  0  0  0  0
 21 29  1  0  0  0  0
 22 23  1  1  0  0  0
 22 24  1  0  0  0  0
 24 25  1  6  0  0  0
 24 26  1  0  0  0  0
 26 27  1  6  0  0  0
 26 28  1  0  0  0  0
 28 29  1  0  0  0  0
 28 30  1  6  0  0  0
 30 31  1  0  0  0  0
 34 35  2  0  0  0  0
 36 34  1  1  0  0  0
 36 38  1  0  0  0  0
 36 40  1  0  0  0  0
 37 39  1  0  0  0  0
 38 39  1  0  0  0  0
M  END
>  <CHROM.1>
-63.09754506,-85.25849852,-175.98265574,-144.06515033,145.93646377,-28.53852505
48.61480301,134.12312975,61.75996971,56.24831756,-2.66303691,-2.83353921
7.63054958,1.52737119,0.51898915,0.78085676

>  <Name>
ligand

>  <RI>
0

>  <Rbt.Current_Directory>
/home/itssahil/PROJECTS/Mol_Feturizer/New_Systems/rnas/4P20

>  <Rbt.Executable>
rbdock ($Id: //depot/dev/client3/rdock/2013.1/src/exe/rbdock.cxx#4 $)

>  <Rbt.Library>
libRbt.so (2013.1, Build901 2013/11/27)

>  <Rbt.Parameter_File>
/export/apps/rDock/src/rDock_2013.1_src/data/scripts/dock_solv.prm

>  <Rbt.Receptor>
prm/blind_docking_40.prm

>  <SCORE>
30.4971

>  <SCORE.INTER>
12.3411

>  <SCORE.INTER.CONST>
1

>  <SCORE.INTER.POLAR>
0

>  <SCORE.INTER.ROT>
10

>  <SCORE.INTER.SOLV>
24.728

>  <SCORE.INTER.VDW>
-10.282

>  <SCORE.INTER.norm>
0.308527

>  <SCORE.INTRA>
-0.425729

>  <SCORE.INTRA.DIHEDRAL>
-13.681

>  <SCORE.INTRA.DIHEDRAL.0>
28.2802

>  <SCORE.INTRA.POLAR>
0

>  <SCORE.INTRA.POLAR.0>
0

>  <SCORE.INTRA.REPUL>
0.029841

>  <SCORE.INTRA.REPUL.0>
0

>  <SCORE.INTRA.SOLV>
5.75827

>  <SCORE.INTRA.SOLV.lig_0>
-101.981

>  <SCORE.INTRA.VDW>
3.38642

>  <SCORE.INTRA.VDW.0>
-5.72964

>  <SCORE.INTRA.norm>
-0.0106432

>  <SCORE.RESTR>
18.5818

>  <SCORE.RESTR.CAVITY>
18.5818

>  <SCORE.RESTR.norm>
0.464544

>  <SCORE.SYSTEM>
0

>  <SCORE.SYSTEM.CONST>
0

>  <SCORE.SYSTEM.DIHEDRAL>
0

>  <SCORE.SYSTEM.SOLV>
0

>  <SCORE.SYSTEM.norm>
0

>  <SCORE.heavy>
40

>  <SCORE.norm>
0.762427

>  <RMSD>
12.908

$$$$
ligand
 OpenBabel11021811503D
libRbt.so/2013.1/901 2013/11/27
 40 42  0  0  0  0  0  0  0  0999 V2000
   -2.7669    0.3174    9.5228 C   0  0  2  0  0  0  0  0  0  0  0  0
   -2.0804   -0.9001    9.1920 O   0  0  0  0  0  0  0  0  0  0  0  0
   -1.7772    1.5412    9.4772 C   0  0  1  0  0  0  0  0  0  0  0  0
   -0.6863    1.4361   10.5825 C   0  0  2  0  0  0  0  0  0  0  0  0
   -1.4123    1.4028   11.9646 C   0  0  2  0  0  0  0  0  0  0  0  0
   -0.4273    1.3315   13.0178 O   0  0  0  0  0  0  0  0  0  0  0  0
   -2.3708    0.1334   12.0001 C   0  0  2  0  0  0  0  0  0  0  0  0
   -3.3808    0.2304   10.8863 O   0  0  0  0  0  0  0  0  0  0  0  0
   -3.1438    0.0224   13.3071 C   0  0  0  0  0  0  0  0  0  0  0  0
   -4.0585    1.1905   13.5056 N   0  0  0  0  0  0  0  0  0  0  0  0
   -2.7055   -4.6262    6.9437 C   0  0  2  0  0  0  0  0  0  0  0  0
   -3.2869   -5.5747    6.0224 N   0  0  0  0  0  0  0  0  0  0  0  0
   -3.7817   -4.2132    8.0273 C   0  0  0  0  0  0  0  0  0  0  0  0
   -3.1555   -3.1622    9.0491 C   0  0  2  0  0  0  0  0  0  0  0  0
   -4.1628   -2.7877   10.0761 N   0  0  0  0  0  0  0  0  0  0  0  0
   -2.6510   -1.8790    8.2393 C   0  0  2  0  0  0  0  0  0  0  0  0
   -1.5770   -2.3443    7.1660 C   0  0  2  0  0  0  0  0  0  0  0  0
   -1.1168   -1.2030    6.4389 O   0  0  0  0  0  0  0  0  0  0  0  0
   -2.2097   -3.3881    6.1632 C   0  0  1  0  0  0  0  0  0  0  0  0
   -1.2118   -3.8182    5.2041 O   0  0  0  0  0  0  0  0  0  0  0  0
   -0.1057   -4.6034    5.4951 C   0  0  2  0  0  0  0  0  0  0  0  0
    0.8920   -4.4787    4.2892 C   0  0  2  0  0  0  0  0  0  0  0  0
    1.2299   -3.1432    4.0958 O   0  0  0  0  0  0  0  0  0  0  0  0
    0.2971   -5.1179    2.9629 C   0  0  1  0  0  0  0  0  0  0  0  0
    1.2678   -4.9995    1.8313 N   0  0  0  0  0  0  0  0  0  0  0  0
   -0.0626   -6.6411    3.2488 C   0  0  2  0  0  0  0  0  0  0  0  0
   -0.5930   -7.2678    2.0744 O   0  0  0  0  0  0  0  0  0  0  0  0
   -1.0912   -6.6862    4.4442 C   0  0  2  0  0  0  0  0  0  0  0  0
   -0.5097   -6.0203    5.6839 O   0  0  0  0  0  0  0  0  0  0  0  0
   -1.4659   -8.1082    4.7878 C   0  0  0  0  0  0  0  0  0  0  0  0
   -2.4190   -8.1873    5.8640 O   0  0  0  0  0  0  0  0  0  0  0  0
   -1.1678    1.5878    8.1541 O   0  0  0  0  0  0  0  0  0  0  0  0
    0.1389    2.5318   10.5049 O   0  0  0  0  0  0  0  0  0  0  0  0
   -4.4767   -5.2032    5.2923 C   0  0  0  0  0  0  0  0  0  0  0  0
   -5.2345   -4.2943    5.7445 O   0  0  0  0  0  0  0  0  0  0  0  0
   -4.7808   -5.9557    3.9604 C   0  0  2  0  0  0  0  0  0  0  0  0
   -5.0332   -8.0492    6.2001 N   0  0  0  0  0  0  0  0  0  0  0  0
   -5.9496   -6.9718    4.1472 C   0  0  0  0  0  0  0  0  0  0  0  0
   -5.5119   -8.2852    4.8169 C   0  0  0  0  0  0  0  0  0  0  0  0
   -3.7941   -6.6469    3.5519 O   0  0  0  0  0  0  0  0  0  0  0  0
  1  2  1  1  0  0  0
  1  3  1  0  0  0  0
  1  8  1  0  0  0  0
  3  4  1  0  0  0  0
  3 32  1  6  0  0  0
  4  5  1  0  0  0  0
  4 33  1  1  0  0  0
  5  6  1  1  0  0  0
  5  7  1  0  0  0  0
  7  8  1  0  0  0  0
  7  9  1  1  0  0  0
  9 10  1  0  0  0  0
 11 12  1  6  0  0  0
 11 13  1  0  0  0  0
 11 19  1  0  0  0  0
 12 34  1  0  0  0  0
 13 14  1  0  0  0  0
 14 15  1  1  0  0  0
 14 16  1  0  0  0  0
 16  2  1  1  0  0  0
 16 17  1  0  0  0  0
 17 18  1  6  0  0  0
 17 19  1  0  0  0  0
 19 20  1  6  0  0  0
 21 20  1  6  0  0  0
 21 22  1  0  0  0  0
 21 29  1  0  0  0  0
 22 23  1  6  0  0  0
 22 24  1  0  0  0  0
 24 25  1  6  0  0  0
 24 26  1  0  0  0  0
 26 27  1  6  0  0  0
 26 28  1  0  0  0  0
 28 29  1  0  0  0  0
 28 30  1  1  0  0  0
 30 31  1  0  0  0  0
 34 35  2  0  0  0  0
 36 34  1  1  0  0  0
 36 38  1  0  0  0  0
 36 40  1  0  0  0  0
 37 39  1  0  0  0  0
 38 39  1  0  0  0  0
M  END
>  <CHROM.1>
-133.94809424,-107.47163238,62.83235191,57.44632258,-50.99346275,-164.08815825
-179.18835527,105.57194076,-79.46742223,63.87322433,-2.13878463,-3.30449583
7.09481676,1.54507067,0.53640929,0.77631469

>  <Name>
ligand

>  <RI>
0

>  <Rbt.Current_Directory>
/home/itssahil/PROJECTS/Mol_Feturizer/New_Systems/rnas/4P20

>  <Rbt.Executable>
rbdock ($Id: //depot/dev/client3/rdock/2013.1/src/exe/rbdock.cxx#4 $)

>  <Rbt.Library>
libRbt.so (2013.1, Build901 2013/11/27)

>  <Rbt.Parameter_File>
/export/apps/rDock/src/rDock_2013.1_src/data/scripts/dock_solv.prm

>  <Rbt.Receptor>
prm/blind_docking_40.prm

>  <SCORE>
31.0758

>  <SCORE.INTER>
8.94543

>  <SCORE.INTER.CONST>
1

>  <SCORE.INTER.POLAR>
0

>  <SCORE.INTER.ROT>
10

>  <SCORE.INTER.SOLV>
24.7088

>  <SCORE.INTER.VDW>
-12.5393

>  <SCORE.INTER.norm>
0.223636

>  <SCORE.INTRA>
1.29867

>  <SCORE.INTRA.DIHEDRAL>
-10.4081

>  <SCORE.INTRA.DIHEDRAL.0>
28.2802

>  <SCORE.INTRA.POLAR>
0

>  <SCORE.INTRA.POLAR.0>
0

>  <SCORE.INTRA.REPUL>
0

>  <SCORE.INTRA.REPUL.0>
0

>  <SCORE.INTRA.SOLV>
9.94434

>  <SCORE.INTRA.SOLV.lig_0>
-101.981

>  <SCORE.INTRA.VDW>
1.53056

>  <SCORE.INTRA.VDW.0>
-5.72964

>  <SCORE.INTRA.norm>
0.0324667

>  <SCORE.RESTR>
20.8317

>  <SCORE.RESTR.CAVITY>
20.8317

>  <SCORE.RESTR.norm>
0.520792

>  <SCORE.SYSTEM>
0

>  <SCORE.SYSTEM.CONST>
0

>  <SCORE.SYSTEM.DIHEDRAL>
0

>  <SCORE.SYSTEM.SOLV>
0

>  <SCORE.SYSTEM.norm>
0

>  <SCORE.heavy>
40

>  <SCORE.norm>
0.776894

>  <RMSD>
12.924

$$$$
ligand
 OpenBabel11021811503D
libRbt.so/2013.1/901 2013/11/27
 40 42  0  0  0  0  0  0  0  0999 V2000
   -3.7977    0.2619   10.8306 C   0  0  2  0  0  0  0  0  0  0  0  0
   -3.3344   -1.0474   10.4645 O   0  0  0  0  0  0  0  0  0  0  0  0
   -3.0731    1.3657    9.9727 C   0  0  1  0  0  0  0  0  0  0  0  0
   -1.5498    1.4262   10.2871 C   0  0  2  0  0  0  0  0  0  0  0  0
   -1.3911    1.7568   11.8049 C   0  0  2  0  0  0  0  0  0  0  0  0
    0.0133    1.8466   12.1279 O   0  0  0  0  0  0  0  0  0  0  0  0
   -2.0923    0.6040   12.6480 C   0  0  2  0  0  0  0  0  0  0  0  0
   -3.5525    0.5276   12.2842 O   0  0  0  0  0  0  0  0  0  0  0  0
   -2.0093    0.8460   14.1490 C   0  0  0  0  0  0  0  0  0  0  0  0
   -2.5527    2.1905   14.5198 N   0  0  0  0  0  0  0  0  0  0  0  0
   -4.3620   -3.9251    7.3034 C   0  0  2  0  0  0  0  0  0  0  0  0
   -4.6315   -4.4586    5.9884 N   0  0  0  0  0  0  0  0  0  0  0  0
   -5.3866   -2.7629    7.6231 C   0  0  0  0  0  0  0  0  0  0  0  0
   -5.0983   -2.1604    9.0704 C   0  0  2  0  0  0  0  0  0  0  0  0
   -6.0721   -1.0798    9.3759 N   0  0  0  0  0  0  0  0  0  0  0  0
   -3.5956   -1.6163    9.1229 C   0  0  2  0  0  0  0  0  0  0  0  0
   -2.6081   -2.8159    8.7946 C   0  0  2  0  0  0  0  0  0  0  0  0
   -1.2611   -2.3401    8.8428 O   0  0  0  0  0  0  0  0  0  0  0  0
   -2.9077   -3.4055    7.3600 C   0  0  1  0  0  0  0  0  0  0  0  0
   -2.0129   -4.5118    7.0845 O   0  0  0  0  0  0  0  0  0  0  0  0
   -0.7272   -4.3959    6.5761 C   0  0  2  0  0  0  0  0  0  0  0  0
   -0.7241   -3.1897    5.5709 C   0  0  2  0  0  0  0  0  0  0  0  0
   -1.1388   -2.0335    6.2240 O   0  0  0  0  0  0  0  0  0  0  0  0
   -1.6237   -3.4824    4.2956 C   0  0  1  0  0  0  0  0  0  0  0  0
   -1.5965   -2.3268    3.3465 N   0  0  0  0  0  0  0  0  0  0  0  0
   -1.0959   -4.8092    3.5940 C   0  0  2  0  0  0  0  0  0  0  0  0
   -1.8701   -5.1098    2.4261 O   0  0  0  0  0  0  0  0  0  0  0  0
   -1.1602   -5.9807    4.6487 C   0  0  2  0  0  0  0  0  0  0  0  0
   -0.3292   -5.6463    5.8800 O   0  0  0  0  0  0  0  0  0  0  0  0
   -0.6532   -7.2747    4.0580 C   0  0  0  0  0  0  0  0  0  0  0  0
   -1.5868   -7.8688    3.1370 O   0  0  0  0  0  0  0  0  0  0  0  0
   -3.2974    1.0701    8.5633 O   0  0  0  0  0  0  0  0  0  0  0  0
   -0.9721    2.4109    9.5228 O   0  0  0  0  0  0  0  0  0  0  0  0
   -4.4489   -5.8726    5.7551 C   0  0  0  0  0  0  0  0  0  0  0  0
   -3.6751   -6.5393    6.5045 O   0  0  0  0  0  0  0  0  0  0  0  0
   -5.2226   -6.5223    4.5669 C   0  0  2  0  0  0  0  0  0  0  0  0
   -2.7512   -9.1220    5.2215 N   0  0  0  0  0  0  0  0  0  0  0  0
   -4.4558   -7.7626    4.0126 C   0  0  0  0  0  0  0  0  0  0  0  0
   -4.2002   -8.8441    5.0756 C   0  0  0  0  0  0  0  0  0  0  0  0
   -5.3515   -5.7343    3.5768 O   0  0  0  0  0  0  0  0  0  0  0  0
  1  2  1  6  0  0  0
  1  3  1  0  0  0  0
  1  8  1  0  0  0  0
  3  4  1  0  0  0  0
  3 32  1  6  0  0  0
  4  5  1  0  0  0  0
  4 33  1  6  0  0  0
  5  6  1  1  0  0  0
  5  7  1  0  0  0  0
  7  8  1  0  0  0  0
  7  9  1  1  0  0  0
  9 10  1  0  0  0  0
 11 12  1  6  0  0  0
 11 13  1  0  0  0  0
 11 19  1  0  0  0  0
 12 34  1  0  0  0  0
 13 14  1  0  0  0  0
 14 15  1  6  0  0  0
 14 16  1  0  0  0  0
 16  2  1  1  0  0  0
 16 17  1  0  0  0  0
 17 18  1  6  0  0  0
 17 19  1  0  0  0  0
 19 20  1  1  0  0  0
 21 20  1  6  0  0  0
 21 22  1  0  0  0  0
 21 29  1  0  0  0  0
 22 23  1  1  0  0  0
 22 24  1  0  0  0  0
 24 25  1  6  0  0  0
 24 26  1  0  0  0  0
 26 27  1  6  0  0  0
 26 28  1  0  0  0  0
 28 29  1  0  0  0  0
 28 30  1  6  0  0  0
 30 31  1  0  0  0  0
 34 35  2  0  0  0  0
 36 34  1  1  0  0  0
 36 38  1  0  0  0  0
 36 40  1  0  0  0  0
 37 39  1  0  0  0  0
 38 39  1  0  0  0  0
M  END
>  <CHROM.1>
-65.72870465,-78.84722781,54.39463264,-144.54305708,155.34195731,-35.03890681
-74.18898977,152.23097009,57.76247110,-121.80915181,-2.67799535,-2.95440730
7.54627745,1.52820043,0.46239174,0.78412420

>  <Name>
ligand

>  <RI>
0

>  <Rbt.Current_Directory>
/home/itssahil/PROJECTS/Mol_Feturizer/New_Systems/rnas/4P20

>  <Rbt.Executable>
rbdock ($Id: //depot/dev/client3/rdock/2013.1/src/exe/rbdock.cxx#4 $)

>  <Rbt.Library>
libRbt.so (2013.1, Build901 2013/11/27)

>  <Rbt.Parameter_File>
/export/apps/rDock/src/rDock_2013.1_src/data/scripts/dock_solv.prm

>  <Rbt.Receptor>
prm/blind_docking_40.prm

>  <SCORE>
29.7275

>  <SCORE.INTER>
10.3406

>  <SCORE.INTER.CONST>
1

>  <SCORE.INTER.POLAR>
0

>  <SCORE.INTER.ROT>
10

>  <SCORE.INTER.SOLV>
17.32

>  <SCORE.INTER.VDW>
-9.14625

>  <SCORE.INTER.norm>
0.258515

>  <SCORE.INTRA>
0.998581

>  <SCORE.INTRA.DIHEDRAL>
-12.6042

>  <SCORE.INTRA.DIHEDRAL.0>
28.2802

>  <SCORE.INTRA.POLAR>
0

>  <SCORE.INTRA.POLAR.0>
0

>  <SCORE.INTRA.REPUL>
0

>  <SCORE.INTRA.REPUL.0>
0

>  <SCORE.INTRA.SOLV>
9.19421

>  <SCORE.INTRA.SOLV.lig_0>
-101.981

>  <SCORE.INTRA.VDW>
2.70358

>  <SCORE.INTRA.VDW.0>
-5.72964

>  <SCORE.INTRA.norm>
0.0249645

>  <SCORE.RESTR>
18.3883

>  <SCORE.RESTR.CAVITY>
18.3883

>  <SCORE.RESTR.norm>
0.459708

>  <SCORE.SYSTEM>
0

>  <SCORE.SYSTEM.CONST>
0

>  <SCORE.SYSTEM.DIHEDRAL>
0

>  <SCORE.SYSTEM.SOLV>
0

>  <SCORE.SYSTEM.norm>
0

>  <SCORE.heavy>
40

>  <SCORE.norm>
0.743188

>  <RMSD>
12.928

$$$$
ligand
 OpenBabel11021811503D
libRbt.so/2013.1/901 2013/11/27
 40 42  0  0  0  0  0  0  0  0999 V2000
   -0.9859    0.3142    9.8150 C   0  0  2  0  0  0  0  0  0  0  0  0
   -2.1332    0.4630    8.9638 O   0  0  0  0  0  0  0  0  0  0  0  0
   -1.3461   -0.5445   11.0847 C   0  0  1  0  0  0  0  0  0  0  0  0
   -2.3738    0.1865   11.9970 C   0  0  2  0  0  0  0  0  0  0  0  0
   -1.7334    1.5383   12.4453 C   0  0  2  0  0  0  0  0  0  0  0  0
   -2.6510    2.2336   13.3165 O   0  0  0  0  0  0  0  0  0  0  0  0
   -1.4213    2.4033   11.1469 C   0  0  2  0  0  0  0  0  0  0  0  0
   -0.4700    1.6502   10.2537 O   0  0  0  0  0  0  0  0  0  0  0  0
   -0.7724    3.7401   11.4787 C   0  0  0  0  0  0  0  0  0  0  0  0
    0.6054    3.5593   12.0352 N   0  0  0  0  0  0  0  0  0  0  0  0
   -3.4500   -3.6698    8.2451 C   0  0  2  0  0  0  0  0  0  0  0  0
   -4.1152   -4.7954    7.6312 N   0  0  0  0  0  0  0  0  0  0  0  0
   -4.5267   -2.6087    8.7115 C   0  0  0  0  0  0  0  0  0  0  0  0
   -3.8067   -1.3574    9.3872 C   0  0  2  0  0  0  0  0  0  0  0  0
   -4.8206   -0.3690    9.8396 N   0  0  0  0  0  0  0  0  0  0  0  0
   -2.7920   -0.7054    8.3373 C   0  0  2  0  0  0  0  0  0  0  0  0
   -1.7352   -1.8069    7.8995 C   0  0  2  0  0  0  0  0  0  0  0  0
   -0.8207   -1.2324    6.9631 O   0  0  0  0  0  0  0  0  0  0  0  0
   -2.4626   -3.0420    7.2356 C   0  0  1  0  0  0  0  0  0  0  0  0
   -1.4871   -4.0464    6.8611 O   0  0  0  0  0  0  0  0  0  0  0  0
   -1.6704   -5.0194    5.8892 C   0  0  2  0  0  0  0  0  0  0  0  0
   -0.2734   -5.2948    5.2278 C   0  0  2  0  0  0  0  0  0  0  0  0
    0.6379   -5.6885    6.2024 O   0  0  0  0  0  0  0  0  0  0  0  0
    0.2570   -4.0333    4.4224 C   0  0  1  0  0  0  0  0  0  0  0  0
    1.5816   -4.3214    3.7907 N   0  0  0  0  0  0  0  0  0  0  0  0
   -0.8247   -3.6387    3.3245 C   0  0  2  0  0  0  0  0  0  0  0  0
   -0.3851   -2.5093    2.5598 O   0  0  0  0  0  0  0  0  0  0  0  0
   -2.1876   -3.3434    4.0623 C   0  0  2  0  0  0  0  0  0  0  0  0
   -2.6414   -4.5547    4.8657 O   0  0  0  0  0  0  0  0  0  0  0  0
   -3.2732   -2.9797    3.0777 C   0  0  0  0  0  0  0  0  0  0  0  0
   -3.7351   -4.1111    2.3165 O   0  0  0  0  0  0  0  0  0  0  0  0
   -1.8755   -1.8259   10.6354 O   0  0  0  0  0  0  0  0  0  0  0  0
   -2.6414   -0.5993   13.0918 O   0  0  0  0  0  0  0  0  0  0  0  0
   -4.6991   -4.6341    6.3198 C   0  0  0  0  0  0  0  0  0  0  0  0
   -5.0170   -3.4782    5.9102 O   0  0  0  0  0  0  0  0  0  0  0  0
   -4.9195   -5.9141    5.4563 C   0  0  2  0  0  0  0  0  0  0  0  0
   -2.7702   -9.1152    4.9936 N   0  0  0  0  0  0  0  0  0  0  0  0
   -3.8097   -6.9742    5.7355 C   0  0  0  0  0  0  0  0  0  0  0  0
   -3.9821   -8.2647    4.9170 C   0  0  0  0  0  0  0  0  0  0  0  0
   -4.8566   -5.6797    4.2077 O   0  0  0  0  0  0  0  0  0  0  0  0
  1  2  1  6  0  0  0
  1  3  1  0  0  0  0
  1  8  1  0  0  0  0
  3  4  1  0  0  0  0
  3 32  1  6  0  0  0
  4  5  1  0  0  0  0
  4 33  1  1  0  0  0
  5  6  1  1  0  0  0
  5  7  1  0  0  0  0
  7  8  1  0  0  0  0
  7  9  1  1  0  0  0
  9 10  1  0  0  0  0
 11 12  1  6  0  0  0
 11 13  1  0  0  0  0
 11 19  1  0  0  0  0
 12 34  1  0  0  0  0
 13 14  1  0  0  0  0
 14 15  1  6  0  0  0
 14 16  1  0  0  0  0
 16  2  1  1  0  0  0
 16 17  1  0  0  0  0
 17 18  1  6  0  0  0
 17 19  1  0  0  0  0
 19 20  1  1  0  0  0
 21 20  1  1  0  0  0
 21 22  1  0  0  0  0
 21 29  1  0  0  0  0
 22 23  1  1  0  0  0
 22 24  1  0  0  0  0
 24 25  1  6  0  0  0
 24 26  1  0  0  0  0
 26 27  1  1  0  0  0
 26 28  1  0  0  0  0
 28 29  1  0  0  0  0
 28 30  1  6  0  0  0
 30 31  1  0  0  0  0
 34 35  2  0  0  0  0
 36 34  1  1  0  0  0
 36 38  1  0  0  0  0
 36 40  1  0  0  0  0
 37 39  1  0  0  0  0
 38 39  1  0  0  0  0
M  END
>  <CHROM.1>
-61.90242019,83.17858355,67.46693982,72.73618321,82.93430139,147.39230102
72.64114039,-32.80210147,179.59762414,168.00331505,-2.25435595,-2.49398904
7.50501838,-1.45152373,-0.63254271,-2.27262846

>  <Name>
ligand

>  <RI>
0

>  <Rbt.Current_Directory>
/home/itssahil/PROJECTS/Mol_Feturizer/New_Systems/rnas/4P20

>  <Rbt.Executable>
rbdock ($Id: //depot/dev/client3/rdock/2013.1/src/exe/rbdock.cxx#4 $)

>  <Rbt.Library>
libRbt.so (2013.1, Build901 2013/11/27)

>  <Rbt.Parameter_File>
/export/apps/rDock/src/rDock_2013.1_src/data/scripts/dock_solv.prm

>  <Rbt.Receptor>
prm/blind_docking_40.prm

>  <SCORE>
35.5473

>  <SCORE.INTER>
11.6824

>  <SCORE.INTER.CONST>
1

>  <SCORE.INTER.POLAR>
0

>  <SCORE.INTER.ROT>
10

>  <SCORE.INTER.SOLV>
22.2686

>  <SCORE.INTER.VDW>
-9.90126

>  <SCORE.INTER.norm>
0.29206

>  <SCORE.INTRA>
4.47682

>  <SCORE.INTRA.DIHEDRAL>
-16.579

>  <SCORE.INTRA.DIHEDRAL.0>
28.2802

>  <SCORE.INTRA.POLAR>
0

>  <SCORE.INTRA.POLAR.0>
0

>  <SCORE.INTRA.REPUL>
0

>  <SCORE.INTRA.REPUL.0>
0

>  <SCORE.INTRA.SOLV>
6.43989

>  <SCORE.INTRA.SOLV.lig_0>
-101.981

>  <SCORE.INTRA.VDW>
9.54639

>  <SCORE.INTRA.VDW.0>
-5.72964

>  <SCORE.INTRA.norm>
0.11192

>  <SCORE.RESTR>
19.388

>  <SCORE.RESTR.CAVITY>
19.388

>  <SCORE.RESTR.norm>
0.484701

>  <SCORE.SYSTEM>
0

>  <SCORE.SYSTEM.CONST>
0

>  <SCORE.SYSTEM.DIHEDRAL>
0

>  <SCORE.SYSTEM.SOLV>
0

>  <SCORE.SYSTEM.norm>
0

>  <SCORE.heavy>
40

>  <SCORE.norm>
0.888682

>  <RMSD>
12.931

$$$$
ligand
 OpenBabel11021811503D
libRbt.so/2013.1/901 2013/11/27
 40 42  0  0  0  0  0  0  0  0999 V2000
   -3.8572    0.3580   10.7707 C   0  0  2  0  0  0  0  0  0  0  0  0
   -3.5447   -1.0276   10.5576 O   0  0  0  0  0  0  0  0  0  0  0  0
   -2.9834    1.2732    9.8335 C   0  0  1  0  0  0  0  0  0  0  0  0
   -1.4726    1.1887   10.1986 C   0  0  2  0  0  0  0  0  0  0  0  0
   -1.3152    1.6569   11.6799 C   0  0  2  0  0  0  0  0  0  0  0  0
    0.0809    1.6162   12.0458 O   0  0  0  0  0  0  0  0  0  0  0  0
   -2.1713    0.6890   12.6082 C   0  0  2  0  0  0  0  0  0  0  0  0
   -3.6200    0.7451   12.1981 O   0  0  0  0  0  0  0  0  0  0  0  0
   -2.0991    1.0766   14.0788 C   0  0  0  0  0  0  0  0  0  0  0  0
   -2.4178    2.5250   14.2817 N   0  0  0  0  0  0  0  0  0  0  0  0
   -4.0686   -4.0641    7.4215 C   0  0  2  0  0  0  0  0  0  0  0  0
   -4.1894   -4.6521    6.1077 N   0  0  0  0  0  0  0  0  0  0  0  0
   -5.2148   -2.9937    7.6296 C   0  0  0  0  0  0  0  0  0  0  0  0
   -5.0914   -2.3321    9.0746 C   0  0  2  0  0  0  0  0  0  0  0  0
   -6.1788   -1.3386    9.2747 N   0  0  0  0  0  0  0  0  0  0  0  0
   -3.6520   -1.6508    9.2191 C   0  0  2  0  0  0  0  0  0  0  0  0
   -2.5387   -2.7620    9.0008 C   0  0  2  0  0  0  0  0  0  0  0  0
   -1.2474   -2.1631    9.1318 O   0  0  0  0  0  0  0  0  0  0  0  0
   -2.6754   -3.4115    7.5673 C   0  0  1  0  0  0  0  0  0  0  0  0
   -1.6664   -4.4370    7.3920 O   0  0  0  0  0  0  0  0  0  0  0  0
   -0.5848   -4.3583    6.5268 C   0  0  2  0  0  0  0  0  0  0  0  0
   -0.9160   -3.2589    5.4560 C   0  0  2  0  0  0  0  0  0  0  0  0
   -1.1724   -2.0478    6.0906 O   0  0  0  0  0  0  0  0  0  0  0  0
   -2.1297   -3.6877    4.5262 C   0  0  1  0  0  0  0  0  0  0  0  0
   -2.4199   -2.6327    3.5066 N   0  0  0  0  0  0  0  0  0  0  0  0
   -1.7721   -5.0722    3.8286 C   0  0  2  0  0  0  0  0  0  0  0  0
   -2.8348   -5.4967    2.9660 O   0  0  0  0  0  0  0  0  0  0  0  0
   -1.4867   -6.1329    4.9610 C   0  0  2  0  0  0  0  0  0  0  0  0
   -0.3528   -5.6677    5.8647 O   0  0  0  0  0  0  0  0  0  0  0  0
   -1.1187   -7.4738    4.3721 C   0  0  0  0  0  0  0  0  0  0  0  0
   -2.2705   -8.2453    3.9835 O   0  0  0  0  0  0  0  0  0  0  0  0
   -3.2046    0.8587    8.4539 O   0  0  0  0  0  0  0  0  0  0  0  0
   -0.7614    2.0134    9.3608 O   0  0  0  0  0  0  0  0  0  0  0  0
   -4.0029   -6.0768    5.9579 C   0  0  0  0  0  0  0  0  0  0  0  0
   -3.3337   -6.7182    6.8215 O   0  0  0  0  0  0  0  0  0  0  0  0
   -4.6412   -6.7700    4.7151 C   0  0  2  0  0  0  0  0  0  0  0  0
   -7.2530   -4.0434    3.7843 N   0  0  0  0  0  0  0  0  0  0  0  0
   -6.0209   -6.1310    4.3663 C   0  0  0  0  0  0  0  0  0  0  0  0
   -5.9138   -4.6681    3.9044 C   0  0  0  0  0  0  0  0  0  0  0  0
   -4.8800   -8.0039    4.9111 O   0  0  0  0  0  0  0  0  0  0  0  0
  1  2  1  1  0  0  0
  1  3  1  0  0  0  0
  1  8  1  0  0  0  0
  3  4  1  0  0  0  0
  3 32  1  6  0  0  0
  4  5  1  0  0  0  0
  4 33  1  6  0  0  0
  5  6  1  1  0  0  0
  5  7  1  0  0  0  0
  7  8  1  0  0  0  0
  7  9  1  1  0  0  0
  9 10  1  0  0  0  0
 11 12  1  6  0  0  0
 11 13  1  0  0  0  0
 11 19  1  0  0  0  0
 12 34  1  0  0  0  0
 13 14  1  0  0  0  0
 14 15  1  6  0  0  0
 14 16  1  0  0  0  0
 16  2  1  1  0  0  0
 16 17  1  0  0  0  0
 17 18  1  6  0  0  0
 17 19  1  0  0  0  0
 19 20  1  1  0  0  0
 21 20  1  1  0  0  0
 21 22  1  0  0  0  0
 21 29  1  0  0  0  0
 22 23  1  1  0  0  0
 22 24  1  0  0  0  0
 24 25  1  6  0  0  0
 24 26  1  0  0  0  0
 26 27  1  1  0  0  0
 26 28  1  0  0  0  0
 28 29  1  0  0  0  0
 28 30  1  6  0  0  0
 30 31  1  0  0  0  0
 34 35  2  0  0  0  0
 36 34  1  1  0  0  0
 36 38  1  0  0  0  0
 36 40  1  0  0  0  0
 37 39  1  0  0  0  0
 38 39  1  0  0  0  0
M  END
>  <CHROM.1>
-56.69049417,-94.09448245,51.42512672,-137.96949736,128.76391597,-19.49523836
-82.13471350,-36.58465223,65.66637775,-171.33382856,-2.89840546,-2.84003401
7.60958543,1.46210607,0.06477993,0.78971967

>  <Name>
ligand

>  <RI>
0

>  <Rbt.Current_Directory>
/home/itssahil/PROJECTS/Mol_Feturizer/New_Systems/rnas/4P20

>  <Rbt.Executable>
rbdock ($Id: //depot/dev/client3/rdock/2013.1/src/exe/rbdock.cxx#4 $)

>  <Rbt.Library>
libRbt.so (2013.1, Build901 2013/11/27)

>  <Rbt.Parameter_File>
/export/apps/rDock/src/rDock_2013.1_src/data/scripts/dock_solv.prm

>  <Rbt.Receptor>
prm/blind_docking_40.prm

>  <SCORE>
38.0483

>  <SCORE.INTER>
13.8415

>  <SCORE.INTER.CONST>
1

>  <SCORE.INTER.POLAR>
0

>  <SCORE.INTER.ROT>
10

>  <SCORE.INTER.SOLV>
15.9177

>  <SCORE.INTER.VDW>
-6.34491

>  <SCORE.INTER.norm>
0.346037

>  <SCORE.INTRA>
4.92438

>  <SCORE.INTRA.DIHEDRAL>
-7.01663

>  <SCORE.INTRA.DIHEDRAL.0>
28.2802

>  <SCORE.INTRA.POLAR>
0

>  <SCORE.INTRA.POLAR.0>
0

>  <SCORE.INTRA.REPUL>
0.055713

>  <SCORE.INTRA.REPUL.0>
0

>  <SCORE.INTRA.SOLV>
8.00354

>  <SCORE.INTRA.SOLV.lig_0>
-101.981

>  <SCORE.INTRA.VDW>
4.15236

>  <SCORE.INTRA.VDW.0>
-5.72964

>  <SCORE.INTRA.norm>
0.12311

>  <SCORE.RESTR>
19.2824

>  <SCORE.RESTR.CAVITY>
19.2824

>  <SCORE.RESTR.norm>
0.48206

>  <SCORE.SYSTEM>
0

>  <SCORE.SYSTEM.CONST>
0

>  <SCORE.SYSTEM.DIHEDRAL>
0

>  <SCORE.SYSTEM.SOLV>
0

>  <SCORE.SYSTEM.norm>
0

>  <SCORE.heavy>
40

>  <SCORE.norm>
0.951207

>  <RMSD>
12.936

$$$$
ligand
 OpenBabel11021811503D
libRbt.so/2013.1/901 2013/11/27
 40 42  0  0  0  0  0  0  0  0999 V2000
   -2.1277    2.4901   11.4330 C   0  0  2  0  0  0  0  0  0  0  0  0
   -2.7274    1.4363   10.6630 O   0  0  0  0  0  0  0  0  0  0  0  0
   -0.9320    1.9351   12.2941 C   0  0  1  0  0  0  0  0  0  0  0  0
   -1.4253    0.9363   13.3813 C   0  0  2  0  0  0  0  0  0  0  0  0
   -2.4260    1.6979   14.3068 C   0  0  2  0  0  0  0  0  0  0  0  0
   -2.8856    0.8068   15.3457 O   0  0  0  0  0  0  0  0  0  0  0  0
   -3.6445    2.2082   13.4200 C   0  0  2  0  0  0  0  0  0  0  0  0
   -3.1346    3.1274   12.3405 O   0  0  0  0  0  0  0  0  0  0  0  0
   -4.6717    2.9853   14.2318 C   0  0  0  0  0  0  0  0  0  0  0  0
   -5.1971    2.1739   15.3747 N   0  0  0  0  0  0  0  0  0  0  0  0
   -1.6236   -1.4806    7.5642 C   0  0  2  0  0  0  0  0  0  0  0  0
   -0.8105   -2.3501    6.7460 N   0  0  0  0  0  0  0  0  0  0  0  0
   -1.1329    0.0141    7.3976 C   0  0  0  0  0  0  0  0  0  0  0  0
   -2.0185    0.9856    8.2992 C   0  0  2  0  0  0  0  0  0  0  0  0
   -1.5668    2.3915    8.1289 N   0  0  0  0  0  0  0  0  0  0  0  0
   -1.9131    0.5255    9.8269 C   0  0  2  0  0  0  0  0  0  0  0  0
   -2.4137   -0.9772    9.9416 C   0  0  2  0  0  0  0  0  0  0  0  0
   -2.3268   -1.3968   11.3053 O   0  0  0  0  0  0  0  0  0  0  0  0
   -1.5303   -1.9274    9.0406 C   0  0  1  0  0  0  0  0  0  0  0  0
   -2.0127   -3.2905    9.1400 O   0  0  0  0  0  0  0  0  0  0  0  0
   -3.3376   -3.6613    9.3192 C   0  0  2  0  0  0  0  0  0  0  0  0
   -3.5135   -5.0954    8.7047 C   0  0  2  0  0  0  0  0  0  0  0  0
   -2.6314   -5.9797    9.3170 O   0  0  0  0  0  0  0  0  0  0  0  0
   -3.3190   -5.0898    7.1288 C   0  0  1  0  0  0  0  0  0  0  0  0
   -3.5031   -6.4621    6.5633 N   0  0  0  0  0  0  0  0  0  0  0  0
   -4.3569   -4.0663    6.4913 C   0  0  2  0  0  0  0  0  0  0  0  0
   -4.2292   -4.0346    5.0644 O   0  0  0  0  0  0  0  0  0  0  0  0
   -4.0989   -2.6458    7.1275 C   0  0  2  0  0  0  0  0  0  0  0  0
   -4.2428   -2.6973    8.6425 O   0  0  0  0  0  0  0  0  0  0  0  0
   -5.0648   -1.6207    6.5829 C   0  0  0  0  0  0  0  0  0  0  0  0
   -4.9061   -0.3272    7.1948 O   0  0  0  0  0  0  0  0  0  0  0  0
    0.0187    1.2919   11.3961 O   0  0  0  0  0  0  0  0  0  0  0  0
   -0.3464    0.4949   14.1084 O   0  0  0  0  0  0  0  0  0  0  0  0
   -1.2051   -2.5960    5.3782 C   0  0  0  0  0  0  0  0  0  0  0  0
   -2.4141   -2.4385    5.0340 O   0  0  0  0  0  0  0  0  0  0  0  0
   -0.1055   -3.0571    4.3728 C   0  0  2  0  0  0  0  0  0  0  0  0
   -0.1280   -5.9938    5.2806 N   0  0  0  0  0  0  0  0  0  0  0  0
   -0.5931   -4.2779    3.5330 C   0  0  0  0  0  0  0  0  0  0  0  0
   -1.1659   -5.4172    4.3927 C   0  0  0  0  0  0  0  0  0  0  0  0
    0.9562   -3.4488    4.9536 O   0  0  0  0  0  0  0  0  0  0  0  0
  1  2  1  1  0  0  0
  1  3  1  0  0  0  0
  1  8  1  0  0  0  0
  3  4  1  0  0  0  0
  3 32  1  6  0  0  0
  4  5  1  0  0  0  0
  4 33  1  1  0  0  0
  5  6  1  1  0  0  0
  5  7  1  0  0  0  0
  7  8  1  0  0  0  0
  7  9  1  1  0  0  0
  9 10  1  0  0  0  0
 11 12  1  6  0  0  0
 11 13  1  0  0  0  0
 11 19  1  0  0  0  0
 12 34  1  0  0  0  0
 13 14  1  0  0  0  0
 14 15  1  1  0  0  0
 14 16  1  0  0  0  0
 16  2  1  1  0  0  0
 16 17  1  0  0  0  0
 17 18  1  1  0  0  0
 17 19  1  0  0  0  0
 19 20  1  6  0  0  0
 21 20  1  6  0  0  0
 21 22  1  0  0  0  0
 21 29  1  0  0  0  0
 22 23  1  1  0  0  0
 22 24  1  0  0  0  0
 24 25  1  6  0  0  0
 24 26  1  0  0  0  0
 26 27  1  6  0  0  0
 26 28  1  0  0  0  0
 28 29  1  0  0  0  0
 28 30  1  6  0  0  0
 30 31  1  0  0  0  0
 34 35  2  0  0  0  0
 36 34  1  1  0  0  0
 36 38  1  0  0  0  0
 36 40  1  0  0  0  0
 37 39  1  0  0  0  0
 38 39  1  0  0  0  0
M  END
>  <CHROM.1>
-50.20708393,-101.28310058,-56.72344228,-88.86050677,-86.99923143,153.37126129
176.85409642,132.80743838,-50.51315167,-63.65214900,-2.37057498,-1.36992855
9.04257932,-1.68330934,-0.88197151,-2.32917926

>  <Name>
ligand

>  <RI>
0

>  <Rbt.Current_Directory>
/home/itssahil/PROJECTS/Mol_Feturizer/New_Systems/rnas/4P20

>  <Rbt.Executable>
rbdock ($Id: //depot/dev/client3/rdock/2013.1/src/exe/rbdock.cxx#4 $)

>  <Rbt.Library>
libRbt.so (2013.1, Build901 2013/11/27)

>  <Rbt.Parameter_File>
/export/apps/rDock/src/rDock_2013.1_src/data/scripts/dock_solv.prm

>  <Rbt.Receptor>
prm/blind_docking_40.prm

>  <SCORE>
48.4998

>  <SCORE.INTER>
21.5495

>  <SCORE.INTER.CONST>
1

>  <SCORE.INTER.POLAR>
0

>  <SCORE.INTER.ROT>
10

>  <SCORE.INTER.SOLV>
24.273

>  <SCORE.INTER.VDW>
-3.99132

>  <SCORE.INTER.norm>
0.538738

>  <SCORE.INTRA>
1.15713

>  <SCORE.INTRA.DIHEDRAL>
-12.9303

>  <SCORE.INTRA.DIHEDRAL.0>
28.2802

>  <SCORE.INTRA.POLAR>
0

>  <SCORE.INTRA.POLAR.0>
0

>  <SCORE.INTRA.REPUL>
0

>  <SCORE.INTRA.REPUL.0>
0

>  <SCORE.INTRA.SOLV>
9.3864

>  <SCORE.INTRA.SOLV.lig_0>
-101.981

>  <SCORE.INTRA.VDW>
2.9291

>  <SCORE.INTRA.VDW.0>
-5.72964

>  <SCORE.INTRA.norm>
0.0289282

>  <SCORE.RESTR>
25.7932

>  <SCORE.RESTR.CAVITY>
25.7932

>  <SCORE.RESTR.norm>
0.64483

>  <SCORE.SYSTEM>
0

>  <SCORE.SYSTEM.CONST>
0

>  <SCORE.SYSTEM.DIHEDRAL>
0

>  <SCORE.SYSTEM.SOLV>
0

>  <SCORE.SYSTEM.norm>
0

>  <SCORE.heavy>
40

>  <SCORE.norm>
1.2125

>  <RMSD>
12.951

$$$$
ligand
 OpenBabel11021811503D
libRbt.so/2013.1/901 2013/11/27
 40 42  0  0  0  0  0  0  0  0999 V2000
   -2.8578    0.2610    9.4773 C   0  0  2  0  0  0  0  0  0  0  0  0
   -2.2321   -0.9856    9.1343 O   0  0  0  0  0  0  0  0  0  0  0  0
   -1.8192    1.4418    9.3988 C   0  0  1  0  0  0  0  0  0  0  0  0
   -0.7040    1.2953   10.4748 C   0  0  2  0  0  0  0  0  0  0  0  0
   -1.3930    1.2980   11.8761 C   0  0  2  0  0  0  0  0  0  0  0  0
   -0.3836    1.1895   12.9027 O   0  0  0  0  0  0  0  0  0  0  0  0
   -2.4025    0.0701   11.9439 C   0  0  2  0  0  0  0  0  0  0  0  0
   -3.4374    0.2052   10.8573 O   0  0  0  0  0  0  0  0  0  0  0  0
   -3.1437   -0.0031   13.2719 C   0  0  0  0  0  0  0  0  0  0  0  0
   -3.7472    1.3168   13.6380 N   0  0  0  0  0  0  0  0  0  0  0  0
   -2.9266   -4.5034    6.5901 C   0  0  2  0  0  0  0  0  0  0  0  0
   -3.4602   -5.3301    5.5326 N   0  0  0  0  0  0  0  0  0  0  0  0
   -4.1069   -4.0013    7.5160 C   0  0  0  0  0  0  0  0  0  0  0  0
   -3.5335   -3.0830    8.6860 C   0  0  2  0  0  0  0  0  0  0  0  0
   -4.6418   -2.6255    9.5645 N   0  0  0  0  0  0  0  0  0  0  0  0
   -2.7538   -1.8425    8.0455 C   0  0  2  0  0  0  0  0  0  0  0  0
   -1.5834   -2.3966    7.1263 C   0  0  2  0  0  0  0  0  0  0  0  0
   -0.8775   -1.2944    6.5517 O   0  0  0  0  0  0  0  0  0  0  0  0
   -2.1655   -3.3076    5.9745 C   0  0  1  0  0  0  0  0  0  0  0  0
   -1.0840   -3.8218    5.1580 O   0  0  0  0  0  0  0  0  0  0  0  0
   -0.1516   -4.7656    5.5637 C   0  0  2  0  0  0  0  0  0  0  0  0
    1.0777   -4.6624    4.5924 C   0  0  2  0  0  0  0  0  0  0  0  0
    1.5903   -3.3695    4.6200 O   0  0  0  0  0  0  0  0  0  0  0  0
    0.6989   -5.0981    3.1132 C   0  0  1  0  0  0  0  0  0  0  0  0
    1.8862   -5.0043    2.2085 N   0  0  0  0  0  0  0  0  0  0  0  0
    0.1261   -6.5819    3.1504 C   0  0  2  0  0  0  0  0  0  0  0  0
   -0.2194   -7.0272    1.8329 O   0  0  0  0  0  0  0  0  0  0  0  0
   -1.1226   -6.6016    4.1145 C   0  0  2  0  0  0  0  0  0  0  0  0
   -0.7364   -6.1301    5.5098 O   0  0  0  0  0  0  0  0  0  0  0  0
   -1.7109   -7.9887    4.2166 C   0  0  0  0  0  0  0  0  0  0  0  0
   -1.3511   -8.6565    5.4402 O   0  0  0  0  0  0  0  0  0  0  0  0
   -1.2446    1.4576    8.0595 O   0  0  0  0  0  0  0  0  0  0  0  0
    0.1640    2.3550   10.3694 O   0  0  0  0  0  0  0  0  0  0  0  0
   -3.7240   -6.7251    5.7993 C   0  0  0  0  0  0  0  0  0  0  0  0
   -3.1156   -7.3114    6.7433 O   0  0  0  0  0  0  0  0  0  0  0  0
   -4.7599   -7.4585    4.8929 C   0  0  2  0  0  0  0  0  0  0  0  0
   -5.2495   -4.0971    4.4801 N   0  0  0  0  0  0  0  0  0  0  0  0
   -5.9179   -6.4988    4.4787 C   0  0  0  0  0  0  0  0  0  0  0  0
   -5.4437   -5.3017    3.6378 C   0  0  0  0  0  0  0  0  0  0  0  0
   -5.3240   -8.4337    5.4835 O   0  0  0  0  0  0  0  0  0  0  0  0
  1  2  1  1  0  0  0
  1  3  1  0  0  0  0
  1  8  1  0  0  0  0
  3  4  1  0  0  0  0
  3 32  1  6  0  0  0
  4  5  1  0  0  0  0
  4 33  1  1  0  0  0
  5  6  1  1  0  0  0
  5  7  1  0  0  0  0
  7  8  1  0  0  0  0
  7  9  1  1  0  0  0
  9 10  1  0  0  0  0
 11 12  1  6  0  0  0
 11 13  1  0  0  0  0
 11 19  1  0  0  0  0
 12 34  1  0  0  0  0
 13 14  1  0  0  0  0
 14 15  1  6  0  0  0
 14 16  1  0  0  0  0
 16  2  1  1  0  0  0
 16 17  1  0  0  0  0
 17 18  1  6  0  0  0
 17 19  1  0  0  0  0
 19 20  1  6  0  0  0
 21 20  1  6  0  0  0
 21 22  1  0  0  0  0
 21 29  1  0  0  0  0
 22 23  1  6  0  0  0
 22 24  1  0  0  0  0
 24 25  1  6  0  0  0
 24 26  1  0  0  0  0
 26 27  1  6  0  0  0
 26 28  1  0  0  0  0
 28 29  1  0  0  0  0
 28 30  1  1  0  0  0
 30 31  1  0  0  0  0
 34 35  2  0  0  0  0
 36 34  1  1  0  0  0
 36 38  1  0  0  0  0
 36 40  1  0  0  0  0
 37 39  1  0  0  0  0
 38 39  1  0  0  0  0
M  END
>  <CHROM.1>
-123.97596769,-103.95489585,49.75877720,-83.02884746,-50.19503719,-160.94709783
102.61727249,-35.08481341,62.61214384,-97.28681012,-2.07028829,-3.34607228
7.05468005,1.57546423,0.46525840,0.75324452

>  <Name>
ligand

>  <RI>
0

>  <Rbt.Current_Directory>
/home/itssahil/PROJECTS/Mol_Feturizer/New_Systems/rnas/4P20

>  <Rbt.Executable>
rbdock ($Id: //depot/dev/client3/rdock/2013.1/src/exe/rbdock.cxx#4 $)

>  <Rbt.Library>
libRbt.so (2013.1, Build901 2013/11/27)

>  <Rbt.Parameter_File>
/export/apps/rDock/src/rDock_2013.1_src/data/scripts/dock_solv.prm

>  <Rbt.Receptor>
prm/blind_docking_40.prm

>  <SCORE>
35.1687

>  <SCORE.INTER>
8.25775

>  <SCORE.INTER.CONST>
1

>  <SCORE.INTER.POLAR>
0

>  <SCORE.INTER.ROT>
10

>  <SCORE.INTER.SOLV>
20.5419

>  <SCORE.INTER.VDW>
-11.6088

>  <SCORE.INTER.norm>
0.206444

>  <SCORE.INTRA>
5.73547

>  <SCORE.INTRA.DIHEDRAL>
-2.80441

>  <SCORE.INTRA.DIHEDRAL.0>
28.2802

>  <SCORE.INTRA.POLAR>
0

>  <SCORE.INTRA.POLAR.0>
0

>  <SCORE.INTRA.REPUL>
0

>  <SCORE.INTRA.REPUL.0>
0

>  <SCORE.INTRA.SOLV>
8.68246

>  <SCORE.INTRA.SOLV.lig_0>
-101.981

>  <SCORE.INTRA.VDW>
2.79644

>  <SCORE.INTRA.VDW.0>
-5.72964

>  <SCORE.INTRA.norm>
0.143387

>  <SCORE.RESTR>
21.1755

>  <SCORE.RESTR.CAVITY>
21.1755

>  <SCORE.RESTR.norm>
0.529387

>  <SCORE.SYSTEM>
0

>  <SCORE.SYSTEM.CONST>
0

>  <SCORE.SYSTEM.DIHEDRAL>
0

>  <SCORE.SYSTEM.SOLV>
0

>  <SCORE.SYSTEM.norm>
0

>  <SCORE.heavy>
40

>  <SCORE.norm>
0.879217

>  <RMSD>
12.956

$$$$
ligand
 OpenBabel11021811503D
libRbt.so/2013.1/901 2013/11/27
 40 42  0  0  0  0  0  0  0  0999 V2000
   -3.1128    0.9036   10.6020 C   0  0  2  0  0  0  0  0  0  0  0  0
   -2.4962   -0.3149   10.1569 O   0  0  0  0  0  0  0  0  0  0  0  0
   -2.5638    2.1326    9.7850 C   0  0  1  0  0  0  0  0  0  0  0  0
   -1.0519    2.3759   10.0645 C   0  0  2  0  0  0  0  0  0  0  0  0
   -0.8898    2.6506   11.5930 C   0  0  2  0  0  0  0  0  0  0  0  0
    0.5006    2.9070   11.8854 O   0  0  0  0  0  0  0  0  0  0  0  0
   -1.4099    1.3767   12.3921 C   0  0  2  0  0  0  0  0  0  0  0  0
   -2.8586    1.1283   12.0609 O   0  0  0  0  0  0  0  0  0  0  0  0
   -1.3119    1.5545   13.9010 C   0  0  0  0  0  0  0  0  0  0  0  0
   -1.9542    0.4168   14.6314 N   0  0  0  0  0  0  0  0  0  0  0  0
   -3.4134   -3.6807    7.4811 C   0  0  2  0  0  0  0  0  0  0  0  0
   -3.9625   -4.4197    6.3681 N   0  0  0  0  0  0  0  0  0  0  0  0
   -4.5905   -3.0575    8.3349 C   0  0  0  0  0  0  0  0  0  0  0  0
   -3.9992   -2.2343    9.5652 C   0  0  2  0  0  0  0  0  0  0  0  0
   -5.1068   -1.6633   10.3756 N   0  0  0  0  0  0  0  0  0  0  0  0
   -3.0348   -1.0847    9.0128 C   0  0  2  0  0  0  0  0  0  0  0  0
   -1.8742   -1.7584    8.1636 C   0  0  2  0  0  0  0  0  0  0  0  0
   -1.0039   -0.7384    7.6682 O   0  0  0  0  0  0  0  0  0  0  0  0
   -2.4745   -2.5737    6.9510 C   0  0  1  0  0  0  0  0  0  0  0  0
   -1.4047   -3.1989    6.1991 O   0  0  0  0  0  0  0  0  0  0  0  0
   -1.0346   -2.8670    4.9038 C   0  0  2  0  0  0  0  0  0  0  0  0
   -2.1375   -3.4304    3.9388 C   0  0  2  0  0  0  0  0  0  0  0  0
   -3.3774   -2.9028    4.2842 O   0  0  0  0  0  0  0  0  0  0  0  0
   -2.1686   -5.0180    3.9415 C   0  0  1  0  0  0  0  0  0  0  0  0
   -3.2166   -5.5331    3.0071 N   0  0  0  0  0  0  0  0  0  0  0  0
   -0.7276   -5.5562    3.5349 C   0  0  2  0  0  0  0  0  0  0  0  0
   -0.7077   -6.9888    3.5104 O   0  0  0  0  0  0  0  0  0  0  0  0
    0.3198   -4.9799    4.5644 C   0  0  2  0  0  0  0  0  0  0  0  0
    0.2879   -3.4576    4.5740 O   0  0  0  0  0  0  0  0  0  0  0  0
    1.7205   -5.4338    4.2292 C   0  0  0  0  0  0  0  0  0  0  0  0
    2.2156   -4.8536    3.0081 O   0  0  0  0  0  0  0  0  0  0  0  0
   -2.7920    1.8789    8.3681 O   0  0  0  0  0  0  0  0  0  0  0  0
   -0.6303    3.4634    9.3383 O   0  0  0  0  0  0  0  0  0  0  0  0
   -3.9488   -5.8636    6.4107 C   0  0  0  0  0  0  0  0  0  0  0  0
   -3.1127   -6.4635    7.1496 O   0  0  0  0  0  0  0  0  0  0  0  0
   -4.9790   -6.6299    5.5252 C   0  0  2  0  0  0  0  0  0  0  0  0
   -2.6238   -9.6053    4.6515 N   0  0  0  0  0  0  0  0  0  0  0  0
   -4.5101   -8.0945    5.2634 C   0  0  0  0  0  0  0  0  0  0  0  0
   -3.0385   -8.1928    4.8277 C   0  0  0  0  0  0  0  0  0  0  0  0
   -5.1184   -6.1086    4.3733 O   0  0  0  0  0  0  0  0  0  0  0  0
  1  2  1  6  0  0  0
  1  3  1  0  0  0  0
  1  8  1  0  0  0  0
  3  4  1  0  0  0  0
  3 32  1  6  0  0  0
  4  5  1  0  0  0  0
  4 33  1  6  0  0  0
  5  6  1  6  0  0  0
  5  7  1  0  0  0  0
  7  8  1  0  0  0  0
  7  9  1  1  0  0  0
  9 10  1  0  0  0  0
 11 12  1  6  0  0  0
 11 13  1  0  0  0  0
 11 19  1  0  0  0  0
 12 34  1  0  0  0  0
 13 14  1  0  0  0  0
 14 15  1  6  0  0  0
 14 16  1  0  0  0  0
 16  2  1  1  0  0  0
 16 17  1  0  0  0  0
 17 18  1  6  0  0  0
 17 19  1  0  0  0  0
 19 20  1  1  0  0  0
 21 20  1  1  0  0  0
 21 22  1  0  0  0  0
 21 29  1  0  0  0  0
 22 23  1  1  0  0  0
 22 24  1  0  0  0  0
 24 25  1  6  0  0  0
 24 26  1  0  0  0  0
 26 27  1  1  0  0  0
 26 28  1  0  0  0  0
 28 29  1  0  0  0  0
 28 30  1  6  0  0  0
 30 31  1  0  0  0  0
 34 35  2  0  0  0  0
 36 34  1  1  0  0  0
 36 38  1  0  0  0  0
 36 40  1  0  0  0  0
 37 39  1  0  0  0  0
 38 39  1  0  0  0  0
M  END
>  <CHROM.1>
-86.20885438,-95.18808683,173.22301168,-105.67041615,127.42385249,-73.69457401
68.34615340,158.69678772,-47.33445350,177.40058796,-2.15657393,-2.62704045
7.39914723,1.52297229,0.59490995,0.75525858

>  <Name>
ligand

>  <RI>
0

>  <Rbt.Current_Directory>
/home/itssahil/PROJECTS/Mol_Feturizer/New_Systems/rnas/4P20

>  <Rbt.Executable>
rbdock ($Id: //depot/dev/client3/rdock/2013.1/src/exe/rbdock.cxx#4 $)

>  <Rbt.Library>
libRbt.so (2013.1, Build901 2013/11/27)

>  <Rbt.Parameter_File>
/export/apps/rDock/src/rDock_2013.1_src/data/scripts/dock_solv.prm

>  <Rbt.Receptor>
prm/blind_docking_40.prm

>  <SCORE>
56.0006

>  <SCORE.INTER>
35.7614

>  <SCORE.INTER.CONST>
1

>  <SCORE.INTER.POLAR>
0

>  <SCORE.INTER.ROT>
10

>  <SCORE.INTER.SOLV>
21.2855

>  <SCORE.INTER.VDW>
6.4791

>  <SCORE.INTER.norm>
0.894035

>  <SCORE.INTRA>
-0.255492

>  <SCORE.INTRA.DIHEDRAL>
-9.7219

>  <SCORE.INTRA.DIHEDRAL.0>
28.2802

>  <SCORE.INTRA.POLAR>
0

>  <SCORE.INTRA.POLAR.0>
0

>  <SCORE.INTRA.REPUL>
0

>  <SCORE.INTRA.REPUL.0>
0

>  <SCORE.INTRA.SOLV>
6.87586

>  <SCORE.INTRA.SOLV.lig_0>
-101.981

>  <SCORE.INTRA.VDW>
1.16753

>  <SCORE.INTRA.VDW.0>
-5.72964

>  <SCORE.INTRA.norm>
-0.0063873

>  <SCORE.RESTR>
20.4947

>  <SCORE.RESTR.CAVITY>
20.4947

>  <SCORE.RESTR.norm>
0.512366

>  <SCORE.SYSTEM>
0

>  <SCORE.SYSTEM.CONST>
0

>  <SCORE.SYSTEM.DIHEDRAL>
0

>  <SCORE.SYSTEM.SOLV>
0

>  <SCORE.SYSTEM.norm>
0

>  <SCORE.heavy>
40

>  <SCORE.norm>
1.40001

>  <RMSD>
12.977

$$$$
ligand
 OpenBabel11021811503D
libRbt.so/2013.1/901 2013/11/27
 40 42  0  0  0  0  0  0  0  0999 V2000
   -2.8123   -0.0654    9.2833 C   0  0  2  0  0  0  0  0  0  0  0  0
   -2.3128   -1.4054    9.1489 O   0  0  0  0  0  0  0  0  0  0  0  0
   -1.6588    0.9812    9.0525 C   0  0  1  0  0  0  0  0  0  0  0  0
   -0.5744    0.8922   10.1656 C   0  0  2  0  0  0  0  0  0  0  0  0
   -1.2728    1.1778   11.5328 C   0  0  2  0  0  0  0  0  0  0  0  0
   -0.2893    1.1290   12.5887 O   0  0  0  0  0  0  0  0  0  0  0  0
   -2.4020    0.0804   11.7609 C   0  0  2  0  0  0  0  0  0  0  0  0
   -3.4076    0.1486   10.6410 O   0  0  0  0  0  0  0  0  0  0  0  0
   -3.1594    0.2851   13.0658 C   0  0  0  0  0  0  0  0  0  0  0  0
   -4.6406    0.2465   12.8535 N   0  0  0  0  0  0  0  0  0  0  0  0
   -2.6816   -4.9321    6.5497 C   0  0  2  0  0  0  0  0  0  0  0  0
   -3.1685   -5.8054    5.5073 N   0  0  0  0  0  0  0  0  0  0  0  0
   -3.8486   -4.6283    7.5736 C   0  0  0  0  0  0  0  0  0  0  0  0
   -3.3271   -3.6609    8.7282 C   0  0  2  0  0  0  0  0  0  0  0  0
   -4.4203   -3.3898    9.6983 N   0  0  0  0  0  0  0  0  0  0  0  0
   -2.7859   -2.3061    8.0736 C   0  0  2  0  0  0  0  0  0  0  0  0
   -1.6207   -2.6629    7.0553 C   0  0  2  0  0  0  0  0  0  0  0  0
   -1.1274   -1.4571    6.4672 O   0  0  0  0  0  0  0  0  0  0  0  0
   -2.1504   -3.6248    5.9197 C   0  0  1  0  0  0  0  0  0  0  0  0
   -1.0709   -3.9573    5.0115 O   0  0  0  0  0  0  0  0  0  0  0  0
    0.0541   -4.6995    5.3405 C   0  0  2  0  0  0  0  0  0  0  0  0
    1.2133   -4.2495    4.3820 C   0  0  2  0  0  0  0  0  0  0  0  0
    1.4273   -2.8814    4.5143 O   0  0  0  0  0  0  0  0  0  0  0  0
    0.9153   -4.6403    2.8720 C   0  0  1  0  0  0  0  0  0  0  0  0
    2.0368   -4.2140    1.9790 N   0  0  0  0  0  0  0  0  0  0  0  0
    0.6859   -6.2124    2.7888 C   0  0  2  0  0  0  0  0  0  0  0  0
    0.4252   -6.6179    1.4393 O   0  0  0  0  0  0  0  0  0  0  0  0
   -0.5108   -6.5850    3.7469 C   0  0  2  0  0  0  0  0  0  0  0  0
   -0.2149   -6.1511    5.1762 O   0  0  0  0  0  0  0  0  0  0  0  0
   -0.7755   -8.0717    3.7361 C   0  0  0  0  0  0  0  0  0  0  0  0
   -1.5854   -8.5002    4.8467 O   0  0  0  0  0  0  0  0  0  0  0  0
   -1.0729    0.7347    7.7410 O   0  0  0  0  0  0  0  0  0  0  0  0
    0.3974    1.8325    9.9223 O   0  0  0  0  0  0  0  0  0  0  0  0
   -3.4398   -7.1889    5.8222 C   0  0  0  0  0  0  0  0  0  0  0  0
   -2.8701   -7.7318    6.8150 O   0  0  0  0  0  0  0  0  0  0  0  0
   -4.4351   -7.9647    4.9057 C   0  0  2  0  0  0  0  0  0  0  0  0
   -6.8426   -4.9776    4.3295 N   0  0  0  0  0  0  0  0  0  0  0  0
   -5.7828   -7.1918    4.7645 C   0  0  0  0  0  0  0  0  0  0  0  0
   -5.6200   -5.7951    4.1419 C   0  0  0  0  0  0  0  0  0  0  0  0
   -4.7470   -9.1048    5.3757 O   0  0  0  0  0  0  0  0  0  0  0  0
  1  2  1  1  0  0  0
  1  3  1  0  0  0  0
  1  8  1  0  0  0  0
  3  4  1  0  0  0  0
  3 32  1  6  0  0  0
  4  5  1  0  0  0  0
  4 33  1  6  0  0  0
  5  6  1  1  0  0  0
  5  7  1  0  0  0  0
  7  8  1  0  0  0  0
  7  9  1  1  0  0  0
  9 10  1  0  0  0  0
 11 12  1  6  0  0  0
 11 13  1  0  0  0  0
 11 19  1  0  0  0  0
 12 34  1  0  0  0  0
 13 14  1  0  0  0  0
 14 15  1  1  0  0  0
 14 16  1  0  0  0  0
 16  2  1  1  0  0  0
 16 17  1  0  0  0  0
 17 18  1  6  0  0  0
 17 19  1  0  0  0  0
 19 20  1  6  0  0  0
 21 20  1  6  0  0  0
 21 22  1  0  0  0  0
 21 29  1  0  0  0  0
 22 23  1  6  0  0  0
 22 24  1  0  0  0  0
 24 25  1  6  0  0  0
 24 26  1  0  0  0  0
 26 27  1  6  0  0  0
 26 28  1  0  0  0  0
 28 29  1  0  0  0  0
 28 30  1  1  0  0  0
 30 31  1  0  0  0  0
 34 35  2  0  0  0  0
 36 34  1  1  0  0  0
 36 38  1  0  0  0  0
 36 40  1  0  0  0  0
 37 39  1  0  0  0  0
 38 39  1  0  0  0  0
M  END
>  <CHROM.1>
-115.85973273,-125.14335140,130.59817968,-71.75210072,-54.07683429,-152.92351513
163.79097252,-52.73527041,60.45812108,-166.04881375,-1.96379790,-3.57301253
6.88381689,1.59524645,0.52230595,0.74763635

>  <Name>
ligand

>  <RI>
0

>  <Rbt.Current_Directory>
/home/itssahil/PROJECTS/Mol_Feturizer/New_Systems/rnas/4P20

>  <Rbt.Executable>
rbdock ($Id: //depot/dev/client3/rdock/2013.1/src/exe/rbdock.cxx#4 $)

>  <Rbt.Library>
libRbt.so (2013.1, Build901 2013/11/27)

>  <Rbt.Parameter_File>
/export/apps/rDock/src/rDock_2013.1_src/data/scripts/dock_solv.prm

>  <Rbt.Receptor>
prm/blind_docking_40.prm

>  <SCORE>
37.5202

>  <SCORE.INTER>
11.6487

>  <SCORE.INTER.CONST>
1

>  <SCORE.INTER.POLAR>
0

>  <SCORE.INTER.ROT>
10

>  <SCORE.INTER.SOLV>
27.2503

>  <SCORE.INTER.VDW>
-11.5843

>  <SCORE.INTER.norm>
0.291217

>  <SCORE.INTRA>
2.94705

>  <SCORE.INTRA.DIHEDRAL>
-3.42528

>  <SCORE.INTRA.DIHEDRAL.0>
28.2802

>  <SCORE.INTRA.POLAR>
0

>  <SCORE.INTRA.POLAR.0>
0

>  <SCORE.INTRA.REPUL>
0.0136152

>  <SCORE.INTRA.REPUL.0>
0

>  <SCORE.INTRA.SOLV>
2.68694

>  <SCORE.INTRA.SOLV.lig_0>
-101.981

>  <SCORE.INTRA.VDW>
3.24814

>  <SCORE.INTRA.VDW.0>
-5.72964

>  <SCORE.INTRA.norm>
0.0736762

>  <SCORE.RESTR>
22.9244

>  <SCORE.RESTR.CAVITY>
22.9244

>  <SCORE.RESTR.norm>
0.57311

>  <SCORE.SYSTEM>
0

>  <SCORE.SYSTEM.CONST>
0

>  <SCORE.SYSTEM.DIHEDRAL>
0

>  <SCORE.SYSTEM.SOLV>
0

>  <SCORE.SYSTEM.norm>
0

>  <SCORE.heavy>
40

>  <SCORE.norm>
0.938004

>  <RMSD>
12.979

$$$$
ligand
 OpenBabel11021811503D
libRbt.so/2013.1/901 2013/11/27
 40 42  0  0  0  0  0  0  0  0999 V2000
   -1.6653   -0.8591   10.9044 C   0  0  2  0  0  0  0  0  0  0  0  0
   -2.8429   -0.8926   10.0828 O   0  0  0  0  0  0  0  0  0  0  0  0
   -1.9187   -0.0016   12.2006 C   0  0  1  0  0  0  0  0  0  0  0  0
   -2.1559    1.4979   11.8571 C   0  0  2  0  0  0  0  0  0  0  0  0
   -0.8820    2.0243   11.1236 C   0  0  2  0  0  0  0  0  0  0  0  0
   -1.0564    3.4232   10.8118 O   0  0  0  0  0  0  0  0  0  0  0  0
   -0.6755    1.1710    9.7966 C   0  0  2  0  0  0  0  0  0  0  0  0
   -0.5055   -0.2834   10.1515 O   0  0  0  0  0  0  0  0  0  0  0  0
    0.5603    1.5965    9.0157 C   0  0  0  0  0  0  0  0  0  0  0  0
    0.3908    2.9583    8.4178 N   0  0  0  0  0  0  0  0  0  0  0  0
   -2.0941   -4.1990    7.2834 C   0  0  2  0  0  0  0  0  0  0  0  0
   -2.2029   -5.0372    6.1121 N   0  0  0  0  0  0  0  0  0  0  0  0
   -3.4890   -4.1465    8.0280 C   0  0  0  0  0  0  0  0  0  0  0  0
   -3.3857   -3.2204    9.3212 C   0  0  2  0  0  0  0  0  0  0  0  0
   -4.6925   -3.1854   10.0287 N   0  0  0  0  0  0  0  0  0  0  0  0
   -2.9270   -1.7531    8.8811 C   0  0  2  0  0  0  0  0  0  0  0  0
   -1.5271   -1.8587    8.1388 C   0  0  2  0  0  0  0  0  0  0  0  0
   -1.1065   -0.5508    7.7445 O   0  0  0  0  0  0  0  0  0  0  0  0
   -1.6433   -2.7821    6.8624 C   0  0  1  0  0  0  0  0  0  0  0  0
   -0.3538   -2.8849    6.2088 O   0  0  0  0  0  0  0  0  0  0  0  0
   -0.0828   -2.4980    4.9043 C   0  0  2  0  0  0  0  0  0  0  0  0
   -1.4441   -2.4893    4.1221 C   0  0  2  0  0  0  0  0  0  0  0  0
   -2.3410   -1.6316    4.7506 O   0  0  0  0  0  0  0  0  0  0  0  0
   -2.0512   -3.9495    3.9785 C   0  0  1  0  0  0  0  0  0  0  0  0
   -3.3400   -3.9196    3.2202 N   0  0  0  0  0  0  0  0  0  0  0  0
   -0.9823   -4.8759    3.2501 C   0  0  2  0  0  0  0  0  0  0  0  0
   -1.4901   -6.2057    3.0848 O   0  0  0  0  0  0  0  0  0  0  0  0
    0.3421   -4.8640    4.1072 C   0  0  2  0  0  0  0  0  0  0  0  0
    0.8694   -3.4447    4.2689 O   0  0  0  0  0  0  0  0  0  0  0  0
    1.4153   -5.7100    3.4644 C   0  0  0  0  0  0  0  0  0  0  0  0
    2.6574   -5.6792    4.1917 O   0  0  0  0  0  0  0  0  0  0  0  0
   -3.0695   -0.5588   12.9000 O   0  0  0  0  0  0  0  0  0  0  0  0
   -2.3583    2.1988   13.0214 O   0  0  0  0  0  0  0  0  0  0  0  0
   -2.9634   -6.2626    6.1956 C   0  0  0  0  0  0  0  0  0  0  0  0
   -3.1498   -6.8121    7.3218 O   0  0  0  0  0  0  0  0  0  0  0  0
   -3.5248   -6.8652    4.8711 C   0  0  2  0  0  0  0  0  0  0  0  0
   -7.3689   -6.3078    4.8184 N   0  0  0  0  0  0  0  0  0  0  0  0
   -5.0447   -7.1898    5.0053 C   0  0  0  0  0  0  0  0  0  0  0  0
   -5.9540   -6.0896    4.4328 C   0  0  0  0  0  0  0  0  0  0  0  0
   -2.9700   -7.9668    4.5602 O   0  0  0  0  0  0  0  0  0  0  0  0
  1  2  1  6  0  0  0
  1  3  1  0  0  0  0
  1  8  1  0  0  0  0
  3  4  1  0  0  0  0
  3 32  1  6  0  0  0
  4  5  1  0  0  0  0
  4 33  1  1  0  0  0
  5  6  1  6  0  0  0
  5  7  1  0  0  0  0
  7  8  1  0  0  0  0
  7  9  1  1  0  0  0
  9 10  1  0  0  0  0
 11 12  1  6  0  0  0
 11 13  1  0  0  0  0
 11 19  1  0  0  0  0
 12 34  1  0  0  0  0
 13 14  1  0  0  0  0
 14 15  1  6  0  0  0
 14 16  1  0  0  0  0
 16  2  1  1  0  0  0
 16 17  1  0  0  0  0
 17 18  1  6  0  0  0
 17 19  1  0  0  0  0
 19 20  1  1  0  0  0
 21 20  1  1  0  0  0
 21 22  1  0  0  0  0
 21 29  1  0  0  0  0
 22 23  1  1  0  0  0
 22 24  1  0  0  0  0
 24 25  1  6  0  0  0
 24 26  1  0  0  0  0
 26 27  1  1  0  0  0
 26 28  1  0  0  0  0
 28 29  1  0  0  0  0
 28 30  1  6  0  0  0
 30 31  1  0  0  0  0
 34 35  2  0  0  0  0
 36 34  1  1  0  0  0
 36 38  1  0  0  0  0
 36 40  1  0  0  0  0
 37 39  1  0  0  0  0
 38 39  1  0  0  0  0
M  END
>  <CHROM.1>
-173.01007422,84.86711585,-68.83498341,-40.62928823,119.86487453,-22.13174608
177.63800360,-129.67981634,97.44073300,-168.71107203,-1.90368636,-2.73961079
7.24694988,1.46535478,0.57096685,0.81635241

>  <Name>
ligand

>  <RI>
0

>  <Rbt.Current_Directory>
/home/itssahil/PROJECTS/Mol_Feturizer/New_Systems/rnas/4P20

>  <Rbt.Executable>
rbdock ($Id: //depot/dev/client3/rdock/2013.1/src/exe/rbdock.cxx#4 $)

>  <Rbt.Library>
libRbt.so (2013.1, Build901 2013/11/27)

>  <Rbt.Parameter_File>
/export/apps/rDock/src/rDock_2013.1_src/data/scripts/dock_solv.prm

>  <Rbt.Receptor>
prm/blind_docking_40.prm

>  <SCORE>
52.2087

>  <SCORE.INTER>
18.7172

>  <SCORE.INTER.CONST>
1

>  <SCORE.INTER.POLAR>
0

>  <SCORE.INTER.ROT>
10

>  <SCORE.INTER.SOLV>
21.0922

>  <SCORE.INTER.VDW>
-4.81927

>  <SCORE.INTER.norm>
0.46793

>  <SCORE.INTRA>
9.45282

>  <SCORE.INTRA.DIHEDRAL>
-6.22987

>  <SCORE.INTRA.DIHEDRAL.0>
28.2802

>  <SCORE.INTRA.POLAR>
0

>  <SCORE.INTRA.POLAR.0>
0

>  <SCORE.INTRA.REPUL>
0

>  <SCORE.INTRA.REPUL.0>
0

>  <SCORE.INTRA.SOLV>
5.99397

>  <SCORE.INTRA.SOLV.lig_0>
-101.981

>  <SCORE.INTRA.VDW>
9.57077

>  <SCORE.INTRA.VDW.0>
-5.72964

>  <SCORE.INTRA.norm>
0.236321

>  <SCORE.RESTR>
24.0387

>  <SCORE.RESTR.CAVITY>
24.0387

>  <SCORE.RESTR.norm>
0.600967

>  <SCORE.SYSTEM>
0

>  <SCORE.SYSTEM.CONST>
0

>  <SCORE.SYSTEM.DIHEDRAL>
0

>  <SCORE.SYSTEM.SOLV>
0

>  <SCORE.SYSTEM.norm>
0

>  <SCORE.heavy>
40

>  <SCORE.norm>
1.30522

>  <RMSD>
12.991

$$$$
ligand
 OpenBabel11021811503D
libRbt.so/2013.1/901 2013/11/27
 40 42  0  0  0  0  0  0  0  0999 V2000
   -2.5771    0.4626    9.4839 C   0  0  2  0  0  0  0  0  0  0  0  0
   -1.7782   -0.5990    8.9381 O   0  0  0  0  0  0  0  0  0  0  0  0
   -2.0372    1.8630    9.0075 C   0  0  1  0  0  0  0  0  0  0  0  0
   -0.6192    2.1541    9.5797 C   0  0  2  0  0  0  0  0  0  0  0  0
   -0.7231    2.1370   11.1376 C   0  0  2  0  0  0  0  0  0  0  0  0
    0.5723    2.4298   11.7041 O   0  0  0  0  0  0  0  0  0  0  0  0
   -1.2272    0.6984   11.5935 C   0  0  2  0  0  0  0  0  0  0  0  0
   -2.5746    0.4167   10.9810 O   0  0  0  0  0  0  0  0  0  0  0  0
   -1.3812    0.5857   13.1040 C   0  0  0  0  0  0  0  0  0  0  0  0
   -2.1717    1.7275   13.6625 N   0  0  0  0  0  0  0  0  0  0  0  0
   -2.6615   -4.7807    7.9071 C   0  0  2  0  0  0  0  0  0  0  0  0
   -3.2860   -5.9210    7.2778 N   0  0  0  0  0  0  0  0  0  0  0  0
   -3.7477   -3.9602    8.7131 C   0  0  0  0  0  0  0  0  0  0  0  0
   -3.0737   -2.6948    9.4097 C   0  0  2  0  0  0  0  0  0  0  0  0
   -4.0924   -1.9343   10.1801 N   0  0  0  0  0  0  0  0  0  0  0  0
   -2.3935   -1.7789    8.2893 C   0  0  2  0  0  0  0  0  0  0  0  0
   -1.3154   -2.6453    7.5091 C   0  0  2  0  0  0  0  0  0  0  0  0
   -0.6986   -1.8337    6.5071 O   0  0  0  0  0  0  0  0  0  0  0  0
   -1.9962   -3.8973    6.8277 C   0  0  1  0  0  0  0  0  0  0  0  0
   -0.9965   -4.6882    6.1380 O   0  0  0  0  0  0  0  0  0  0  0  0
   -0.3159   -4.2993    4.9932 C   0  0  2  0  0  0  0  0  0  0  0  0
   -1.3635   -3.6543    4.0176 C   0  0  2  0  0  0  0  0  0  0  0  0
   -1.9929   -2.5844    4.6455 O   0  0  0  0  0  0  0  0  0  0  0  0
   -2.4216   -4.7194    3.5004 C   0  0  1  0  0  0  0  0  0  0  0  0
   -3.4013   -4.0871    2.5637 N   0  0  0  0  0  0  0  0  0  0  0  0
   -1.6405   -5.9098    2.7905 C   0  0  2  0  0  0  0  0  0  0  0  0
   -2.5557   -6.8940    2.2934 O   0  0  0  0  0  0  0  0  0  0  0  0
   -0.6353   -6.5296    3.8366 C   0  0  2  0  0  0  0  0  0  0  0  0
    0.3317   -5.4716    4.3505 O   0  0  0  0  0  0  0  0  0  0  0  0
    0.1605   -7.6584    3.2257 C   0  0  0  0  0  0  0  0  0  0  0  0
   -0.6195   -8.8551    3.0466 O   0  0  0  0  0  0  0  0  0  0  0  0
   -2.0175    1.8742    7.5503 O   0  0  0  0  0  0  0  0  0  0  0  0
   -0.2039    3.3893    9.1442 O   0  0  0  0  0  0  0  0  0  0  0  0
   -4.3935   -5.7043    6.3759 C   0  0  0  0  0  0  0  0  0  0  0  0
   -5.0793   -4.6429    6.4651 O   0  0  0  0  0  0  0  0  0  0  0  0
   -4.7017   -6.8094    5.3194 C   0  0  2  0  0  0  0  0  0  0  0  0
   -1.8947   -9.4570    5.4298 N   0  0  0  0  0  0  0  0  0  0  0  0
   -4.0022   -8.1522    5.6952 C   0  0  0  0  0  0  0  0  0  0  0  0
   -2.4710   -8.0976    5.5631 C   0  0  0  0  0  0  0  0  0  0  0  0
   -4.2670   -6.5145    4.1609 O   0  0  0  0  0  0  0  0  0  0  0  0
  1  2  1  6  0  0  0
  1  3  1  0  0  0  0
  1  8  1  0  0  0  0
  3  4  1  0  0  0  0
  3 32  1  6  0  0  0
  4  5  1  0  0  0  0
  4 33  1  6  0  0  0
  5  6  1  1  0  0  0
  5  7  1  0  0  0  0
  7  8  1  0  0  0  0
  7  9  1  1  0  0  0
  9 10  1  0  0  0  0
 11 12  1  6  0  0  0
 11 13  1  0  0  0  0
 11 19  1  0  0  0  0
 12 34  1  0  0  0  0
 13 14  1  0  0  0  0
 14 15  1  6  0  0  0
 14 16  1  0  0  0  0
 16  2  1  1  0  0  0
 16 17  1  0  0  0  0
 17 18  1  6  0  0  0
 17 19  1  0  0  0  0
 19 20  1  1  0  0  0
 21 20  1  1  0  0  0
 21 22  1  0  0  0  0
 21 29  1  0  0  0  0
 22 23  1  1  0  0  0
 22 24  1  0  0  0  0
 24 25  1  6  0  0  0
 24 26  1  0  0  0  0
 26 27  1  1  0  0  0
 26 28  1  0  0  0  0
 28 29  1  0  0  0  0
 28 30  1  6  0  0  0
 30 31  1  0  0  0  0
 34 35  2  0  0  0  0
 36 34  1  1  0  0  0
 36 38  1  0  0  0  0
 36 40  1  0  0  0  0
 37 39  1  0  0  0  0
 38 39  1  0  0  0  0
M  END
>  <CHROM.1>
-132.09626765,-71.85914536,49.65517689,57.04021106,170.98825353,-43.71997077
-73.76473590,16.54565820,-69.15579685,-158.89211424,-2.03696285,-3.15988198
7.05077991,1.45314495,0.89905899,0.76567394

>  <Name>
ligand

>  <RI>
0

>  <Rbt.Current_Directory>
/home/itssahil/PROJECTS/Mol_Feturizer/New_Systems/rnas/4P20

>  <Rbt.Executable>
rbdock ($Id: //depot/dev/client3/rdock/2013.1/src/exe/rbdock.cxx#4 $)

>  <Rbt.Library>
libRbt.so (2013.1, Build901 2013/11/27)

>  <Rbt.Parameter_File>
/export/apps/rDock/src/rDock_2013.1_src/data/scripts/dock_solv.prm

>  <Rbt.Receptor>
prm/blind_docking_40.prm

>  <SCORE>
38.7841

>  <SCORE.INTER>
11.4303

>  <SCORE.INTER.CONST>
1

>  <SCORE.INTER.POLAR>
0

>  <SCORE.INTER.ROT>
10

>  <SCORE.INTER.SOLV>
21.2953

>  <SCORE.INTER.VDW>
-9.74491

>  <SCORE.INTER.norm>
0.285758

>  <SCORE.INTRA>
3.58593

>  <SCORE.INTRA.DIHEDRAL>
-14.4734

>  <SCORE.INTRA.DIHEDRAL.0>
28.2802

>  <SCORE.INTRA.POLAR>
0

>  <SCORE.INTRA.POLAR.0>
0

>  <SCORE.INTRA.REPUL>
0

>  <SCORE.INTRA.REPUL.0>
0

>  <SCORE.INTRA.SOLV>
9.75889

>  <SCORE.INTRA.SOLV.lig_0>
-101.981

>  <SCORE.INTRA.VDW>
5.94319

>  <SCORE.INTRA.VDW.0>
-5.72964

>  <SCORE.INTRA.norm>
0.0896484

>  <SCORE.RESTR>
23.7679

>  <SCORE.RESTR.CAVITY>
23.7679

>  <SCORE.RESTR.norm>
0.594197

>  <SCORE.SYSTEM>
0

>  <SCORE.SYSTEM.CONST>
0

>  <SCORE.SYSTEM.DIHEDRAL>
0

>  <SCORE.SYSTEM.SOLV>
0

>  <SCORE.SYSTEM.norm>
0

>  <SCORE.heavy>
40

>  <SCORE.norm>
0.969602

>  <RMSD>
13.014

$$$$
ligand
 OpenBabel11021811503D
libRbt.so/2013.1/901 2013/11/27
 40 42  0  0  0  0  0  0  0  0999 V2000
   -3.3976   -0.1394   10.5231 C   0  0  2  0  0  0  0  0  0  0  0  0
   -2.5847   -1.2553   10.1268 O   0  0  0  0  0  0  0  0  0  0  0  0
   -2.9285    1.1743    9.7927 C   0  0  1  0  0  0  0  0  0  0  0  0
   -1.4992    1.5983   10.2402 C   0  0  2  0  0  0  0  0  0  0  0  0
   -1.5374    1.8432   11.7819 C   0  0  2  0  0  0  0  0  0  0  0  0
   -0.2309    2.2644   12.2292 O   0  0  0  0  0  0  0  0  0  0  0  0
   -1.9703    0.4892   12.4968 C   0  0  2  0  0  0  0  0  0  0  0  0
   -3.3312    0.0698   12.0047 O   0  0  0  0  0  0  0  0  0  0  0  0
   -2.0571    0.6305   14.0103 C   0  0  0  0  0  0  0  0  0  0  0  0
   -2.8757    1.8198   14.4052 N   0  0  0  0  0  0  0  0  0  0  0  0
   -2.5451   -4.5131    7.1747 C   0  0  2  0  0  0  0  0  0  0  0  0
   -2.8678   -5.2783    5.9929 N   0  0  0  0  0  0  0  0  0  0  0  0
   -3.8520   -4.2997    8.0403 C   0  0  0  0  0  0  0  0  0  0  0  0
   -3.5121   -3.4519    9.3466 C   0  0  2  0  0  0  0  0  0  0  0  0
   -4.7377   -3.2664   10.1669 N   0  0  0  0  0  0  0  0  0  0  0  0
   -2.8888   -2.0449    8.9120 C   0  0  2  0  0  0  0  0  0  0  0  0
   -1.5843   -2.3116    8.0466 C   0  0  2  0  0  0  0  0  0  0  0  0
   -1.0173   -1.0589    7.6562 O   0  0  0  0  0  0  0  0  0  0  0  0
   -1.9351   -3.1556    6.7583 C   0  0  1  0  0  0  0  0  0  0  0  0
   -0.7317   -3.4081    5.9910 O   0  0  0  0  0  0  0  0  0  0  0  0
   -0.3674   -2.7435    4.8289 C   0  0  2  0  0  0  0  0  0  0  0  0
   -1.4690   -3.0405    3.7503 C   0  0  2  0  0  0  0  0  0  0  0  0
   -2.7115   -2.6317    4.2237 O   0  0  0  0  0  0  0  0  0  0  0  0
   -1.4892   -4.5727    3.3342 C   0  0  1  0  0  0  0  0  0  0  0  0
   -2.5363   -4.8307    2.2979 N   0  0  0  0  0  0  0  0  0  0  0  0
   -0.0458   -4.9740    2.7988 C   0  0  2  0  0  0  0  0  0  0  0  0
   -0.0162   -6.3493    2.3972 O   0  0  0  0  0  0  0  0  0  0  0  0
    1.0005   -4.6821    3.9430 C   0  0  2  0  0  0  0  0  0  0  0  0
    0.9582   -3.2165    4.3538 O   0  0  0  0  0  0  0  0  0  0  0  0
    2.4033   -5.0213    3.4987 C   0  0  0  0  0  0  0  0  0  0  0  0
    2.5711   -6.4212    3.2076 O   0  0  0  0  0  0  0  0  0  0  0  0
   -2.9700    0.9383    8.3551 O   0  0  0  0  0  0  0  0  0  0  0  0
   -1.1470    2.7528    9.5838 O   0  0  0  0  0  0  0  0  0  0  0  0
   -1.8677   -6.1575    5.4326 C   0  0  0  0  0  0  0  0  0  0  0  0
   -0.6413   -5.9488    5.6719 O   0  0  0  0  0  0  0  0  0  0  0  0
   -2.3532   -7.3401    4.5393 C   0  0  2  0  0  0  0  0  0  0  0  0
   -5.1310   -6.4065    5.1906 N   0  0  0  0  0  0  0  0  0  0  0  0
   -3.4109   -8.2083    5.2882 C   0  0  0  0  0  0  0  0  0  0  0  0
   -4.8611   -7.8411    4.9317 C   0  0  0  0  0  0  0  0  0  0  0  0
   -1.4135   -8.1412    4.2337 O   0  0  0  0  0  0  0  0  0  0  0  0
  1  2  1  1  0  0  0
  1  3  1  0  0  0  0
  1  8  1  0  0  0  0
  3  4  1  0  0  0  0
  3 32  1  6  0  0  0
  4  5  1  0  0  0  0
  4 33  1  6  0  0  0
  5  6  1  1  0  0  0
  5  7  1  0  0  0  0
  7  8  1  0  0  0  0
  7  9  1  1  0  0  0
  9 10  1  0  0  0  0
 11 12  1  6  0  0  0
 11 13  1  0  0  0  0
 11 19  1  0  0  0  0
 12 34  1  0  0  0  0
 13 14  1  0  0  0  0
 14 15  1  6  0  0  0
 14 16  1  0  0  0  0
 16  2  1  1  0  0  0
 16 17  1  0  0  0  0
 17 18  1  6  0  0  0
 17 19  1  0  0  0  0
 19 20  1  1  0  0  0
 21 20  1  1  0  0  0
 21 22  1  0  0  0  0
 21 29  1  0  0  0  0
 22 23  1  1  0  0  0
 22 24  1  0  0  0  0
 24 25  1  6  0  0  0
 24 26  1  0  0  0  0
 26 27  1  1  0  0  0
 26 28  1  0  0  0  0
 28 29  1  0  0  0  0
 28 30  1  6  0  0  0
 30 31  1  0  0  0  0
 34 35  2  0  0  0  0
 36 34  1  1  0  0  0
 36 38  1  0  0  0  0
 36 40  1  0  0  0  0
 37 39  1  0  0  0  0
 38 39  1  0  0  0  0
M  END
>  <CHROM.1>
-85.76288569,-105.63647590,50.23968846,-148.66598574,137.07379335,-62.47132410
-63.13416322,-54.03787835,96.94693829,-56.35005585,-1.80380041,-2.96230573
7.17746504,1.70792403,0.63606735,0.75329223

>  <Name>
ligand

>  <RI>
0

>  <Rbt.Current_Directory>
/home/itssahil/PROJECTS/Mol_Feturizer/New_Systems/rnas/4P20

>  <Rbt.Executable>
rbdock ($Id: //depot/dev/client3/rdock/2013.1/src/exe/rbdock.cxx#4 $)

>  <Rbt.Library>
libRbt.so (2013.1, Build901 2013/11/27)

>  <Rbt.Parameter_File>
/export/apps/rDock/src/rDock_2013.1_src/data/scripts/dock_solv.prm

>  <Rbt.Receptor>
prm/blind_docking_40.prm

>  <SCORE>
42.777

>  <SCORE.INTER>
18.5644

>  <SCORE.INTER.CONST>
1

>  <SCORE.INTER.POLAR>
0

>  <SCORE.INTER.ROT>
10

>  <SCORE.INTER.SOLV>
20.9231

>  <SCORE.INTER.VDW>
-4.86475

>  <SCORE.INTER.norm>
0.464111

>  <SCORE.INTRA>
2.6445

>  <SCORE.INTRA.DIHEDRAL>
-7.99135

>  <SCORE.INTRA.DIHEDRAL.0>
28.2802

>  <SCORE.INTRA.POLAR>
0

>  <SCORE.INTRA.POLAR.0>
0

>  <SCORE.INTRA.REPUL>
0

>  <SCORE.INTRA.REPUL.0>
0

>  <SCORE.INTRA.SOLV>
10.8545

>  <SCORE.INTRA.SOLV.lig_0>
-101.981

>  <SCORE.INTRA.VDW>
1.2129

>  <SCORE.INTRA.VDW.0>
-5.72964

>  <SCORE.INTRA.norm>
0.0661125

>  <SCORE.RESTR>
21.5681

>  <SCORE.RESTR.CAVITY>
21.5681

>  <SCORE.RESTR.norm>
0.539202

>  <SCORE.SYSTEM>
0

>  <SCORE.SYSTEM.CONST>
0

>  <SCORE.SYSTEM.DIHEDRAL>
0

>  <SCORE.SYSTEM.SOLV>
0

>  <SCORE.SYSTEM.norm>
0

>  <SCORE.heavy>
40

>  <SCORE.norm>
1.06943

>  <RMSD>
13.038

$$$$
ligand
 OpenBabel11021811503D
libRbt.so/2013.1/901 2013/11/27
 40 42  0  0  0  0  0  0  0  0999 V2000
   -2.2863    0.5283    9.0017 C   0  0  2  0  0  0  0  0  0  0  0  0
   -1.5798   -0.6931    8.7332 O   0  0  0  0  0  0  0  0  0  0  0  0
   -1.2759    1.7170    9.2150 C   0  0  1  0  0  0  0  0  0  0  0  0
   -0.4162    1.5139   10.4966 C   0  0  2  0  0  0  0  0  0  0  0  0
   -1.3906    1.4320   11.7140 C   0  0  2  0  0  0  0  0  0  0  0  0
   -0.6242    1.2692   12.9267 O   0  0  0  0  0  0  0  0  0  0  0  0
   -2.3695    0.1972   11.4940 C   0  0  2  0  0  0  0  0  0  0  0  0
   -3.1484    0.3898   10.2187 O   0  0  0  0  0  0  0  0  0  0  0  0
   -3.3779    0.0434   12.6243 C   0  0  0  0  0  0  0  0  0  0  0  0
   -3.9482    1.3648   13.0358 N   0  0  0  0  0  0  0  0  0  0  0  0
   -2.7818   -4.8628    8.0272 C   0  0  2  0  0  0  0  0  0  0  0  0
   -3.4696   -6.0004    7.4623 N   0  0  0  0  0  0  0  0  0  0  0  0
   -3.8346   -3.8776    8.6781 C   0  0  0  0  0  0  0  0  0  0  0  0
   -3.0901   -2.6138    9.3021 C   0  0  2  0  0  0  0  0  0  0  0  0
   -4.0791   -1.6972    9.9276 N   0  0  0  0  0  0  0  0  0  0  0  0
   -2.2610   -1.8726    8.1531 C   0  0  2  0  0  0  0  0  0  0  0  0
   -1.2221   -2.9003    7.5315 C   0  0  2  0  0  0  0  0  0  0  0  0
   -0.4729   -2.2456    6.5052 O   0  0  0  0  0  0  0  0  0  0  0  0
   -1.9730   -4.1487    6.9209 C   0  0  1  0  0  0  0  0  0  0  0  0
   -1.0106   -5.0860    6.3770 O   0  0  0  0  0  0  0  0  0  0  0  0
   -1.1086   -5.7099    5.1417 C   0  0  2  0  0  0  0  0  0  0  0  0
    0.0567   -5.1628    4.2429 C   0  0  2  0  0  0  0  0  0  0  0  0
    1.2794   -5.4057    4.8604 O   0  0  0  0  0  0  0  0  0  0  0  0
   -0.1247   -3.6195    3.9165 C   0  0  1  0  0  0  0  0  0  0  0  0
    0.9883   -3.1226    3.0499 N   0  0  0  0  0  0  0  0  0  0  0  0
   -1.5347   -3.4109    3.2096 C   0  0  2  0  0  0  0  0  0  0  0  0
   -1.7407   -2.0311    2.8823 O   0  0  0  0  0  0  0  0  0  0  0  0
   -2.6550   -3.9492    4.1812 C   0  0  2  0  0  0  0  0  0  0  0  0
   -2.4229   -5.4167    4.5145 O   0  0  0  0  0  0  0  0  0  0  0  0
   -4.0266   -3.8024    3.5665 C   0  0  0  0  0  0  0  0  0  0  0  0
   -4.4371   -2.4278    3.4451 O   0  0  0  0  0  0  0  0  0  0  0  0
   -0.4268    1.8132    8.0344 O   0  0  0  0  0  0  0  0  0  0  0  0
    0.4356    2.5824   10.6401 O   0  0  0  0  0  0  0  0  0  0  0  0
   -4.3613   -5.7957    6.3443 C   0  0  0  0  0  0  0  0  0  0  0  0
   -4.8707   -4.6527    6.1467 O   0  0  0  0  0  0  0  0  0  0  0  0
   -4.6646   -7.0144    5.4196 C   0  0  2  0  0  0  0  0  0  0  0  0
   -8.4067   -7.1302    4.4407 N   0  0  0  0  0  0  0  0  0  0  0  0
   -5.9442   -6.7616    4.5639 C   0  0  0  0  0  0  0  0  0  0  0  0
   -7.2505   -6.9553    5.3521 C   0  0  0  0  0  0  0  0  0  0  0  0
   -4.9006   -8.0793    6.0741 O   0  0  0  0  0  0  0  0  0  0  0  0
  1  2  1  1  0  0  0
  1  3  1  0  0  0  0
  1  8  1  0  0  0  0
  3  4  1  0  0  0  0
  3 32  1  6  0  0  0
  4  5  1  0  0  0  0
  4 33  1  1  0  0  0
  5  6  1  1  0  0  0
  5  7  1  0  0  0  0
  7  8  1  0  0  0  0
  7  9  1  1  0  0  0
  9 10  1  0  0  0  0
 11 12  1  6  0  0  0
 11 13  1  0  0  0  0
 11 19  1  0  0  0  0
 12 34  1  0  0  0  0
 13 14  1  0  0  0  0
 14 15  1  6  0  0  0
 14 16  1  0  0  0  0
 16  2  1  1  0  0  0
 16 17  1  0  0  0  0
 17 18  1  6  0  0  0
 17 19  1  0  0  0  0
 19 20  1  1  0  0  0
 21 20  1  1  0  0  0
 21 22  1  0  0  0  0
 21 29  1  0  0  0  0
 22 23  1  1  0  0  0
 22 24  1  0  0  0  0
 24 25  1  6  0  0  0
 24 26  1  0  0  0  0
 26 27  1  1  0  0  0
 26 28  1  0  0  0  0
 28 29  1  0  0  0  0
 28 30  1  6  0  0  0
 30 31  1  0  0  0  0
 34 35  2  0  0  0  0
 36 34  1  1  0  0  0
 36 38  1  0  0  0  0
 36 40  1  0  0  0  0
 37 39  1  0  0  0  0
 38 39  1  0  0  0  0
M  END
>  <CHROM.1>
-163.78559451,-78.07627309,42.89082807,65.41336485,105.68241669,113.36591431
-68.54050781,162.33531315,-77.76467948,-162.07239535,-2.50067336,-2.81510156
7.19944311,-1.29840902,-0.56606295,-2.24566470

>  <Name>
ligand

>  <RI>
0

>  <Rbt.Current_Directory>
/home/itssahil/PROJECTS/Mol_Feturizer/New_Systems/rnas/4P20

>  <Rbt.Executable>
rbdock ($Id: //depot/dev/client3/rdock/2013.1/src/exe/rbdock.cxx#4 $)

>  <Rbt.Library>
libRbt.so (2013.1, Build901 2013/11/27)

>  <Rbt.Parameter_File>
/export/apps/rDock/src/rDock_2013.1_src/data/scripts/dock_solv.prm

>  <Rbt.Receptor>
prm/blind_docking_40.prm

>  <SCORE>
36.2443

>  <SCORE.INTER>
8.53588

>  <SCORE.INTER.CONST>
1

>  <SCORE.INTER.POLAR>
0

>  <SCORE.INTER.ROT>
10

>  <SCORE.INTER.SOLV>
18.0777

>  <SCORE.INTER.VDW>
-10.602

>  <SCORE.INTER.norm>
0.213397

>  <SCORE.INTRA>
3.86595

>  <SCORE.INTRA.DIHEDRAL>
-7.77008

>  <SCORE.INTRA.DIHEDRAL.0>
28.2802

>  <SCORE.INTRA.POLAR>
0

>  <SCORE.INTRA.POLAR.0>
0

>  <SCORE.INTRA.REPUL>
0

>  <SCORE.INTRA.REPUL.0>
0

>  <SCORE.INTRA.SOLV>
6.62604

>  <SCORE.INTRA.SOLV.lig_0>
-101.981

>  <SCORE.INTRA.VDW>
4.43797

>  <SCORE.INTRA.VDW.0>
-5.72964

>  <SCORE.INTRA.norm>
0.0966488

>  <SCORE.RESTR>
23.8424

>  <SCORE.RESTR.CAVITY>
23.8424

>  <SCORE.RESTR.norm>
0.596061

>  <SCORE.SYSTEM>
0

>  <SCORE.SYSTEM.CONST>
0

>  <SCORE.SYSTEM.DIHEDRAL>
0

>  <SCORE.SYSTEM.SOLV>
0

>  <SCORE.SYSTEM.norm>
0

>  <SCORE.heavy>
40

>  <SCORE.norm>
0.906107

>  <RMSD>
13.073

$$$$
ligand
 OpenBabel11021811503D
libRbt.so/2013.1/901 2013/11/27
 40 42  0  0  0  0  0  0  0  0999 V2000
   -2.8767    0.8586    9.4308 C   0  0  2  0  0  0  0  0  0  0  0  0
   -2.4454   -0.4833    9.1549 O   0  0  0  0  0  0  0  0  0  0  0  0
   -1.6524    1.8486    9.4121 C   0  0  1  0  0  0  0  0  0  0  0  0
   -0.6569    1.5493   10.5706 C   0  0  2  0  0  0  0  0  0  0  0  0
   -1.4336    1.7049   11.9162 C   0  0  2  0  0  0  0  0  0  0  0  0
   -0.5323    1.4592   13.0170 O   0  0  0  0  0  0  0  0  0  0  0  0
   -2.6365    0.6635   11.9273 C   0  0  2  0  0  0  0  0  0  0  0  0
   -3.5542    0.9379   10.7643 O   0  0  0  0  0  0  0  0  0  0  0  0
   -3.4721    0.7508   13.1971 C   0  0  0  0  0  0  0  0  0  0  0  0
   -4.8714    0.2708   12.9683 N   0  0  0  0  0  0  0  0  0  0  0  0
   -3.3935   -3.8604    6.5042 C   0  0  2  0  0  0  0  0  0  0  0  0
   -3.9535   -4.6035    5.3994 N   0  0  0  0  0  0  0  0  0  0  0  0
   -4.5619   -3.2293    7.3640 C   0  0  0  0  0  0  0  0  0  0  0  0
   -3.9586   -2.4014    8.5852 C   0  0  2  0  0  0  0  0  0  0  0  0
   -5.0580   -1.8229    9.4013 N   0  0  0  0  0  0  0  0  0  0  0  0
   -2.9952   -1.2575    8.0192 C   0  0  2  0  0  0  0  0  0  0  0  0
   -1.8434   -1.9391    7.1644 C   0  0  2  0  0  0  0  0  0  0  0  0
   -0.9741   -0.9242    6.6568 O   0  0  0  0  0  0  0  0  0  0  0  0
   -2.4555   -2.7589    5.9609 C   0  0  1  0  0  0  0  0  0  0  0  0
   -1.3936   -3.3912    5.2038 O   0  0  0  0  0  0  0  0  0  0  0  0
   -0.4005   -4.2001    5.7370 C   0  0  2  0  0  0  0  0  0  0  0  0
    0.7827   -4.2368    4.7056 C   0  0  2  0  0  0  0  0  0  0  0  0
    1.2318   -2.9432    4.4603 O   0  0  0  0  0  0  0  0  0  0  0  0
    0.3674   -4.9654    3.3573 C   0  0  1  0  0  0  0  0  0  0  0  0
    1.5117   -5.0002    2.3949 N   0  0  0  0  0  0  0  0  0  0  0  0
   -0.1299   -6.4360    3.7055 C   0  0  2  0  0  0  0  0  0  0  0  0
   -0.5051   -7.1413    2.5159 O   0  0  0  0  0  0  0  0  0  0  0  0
   -1.3368   -6.3196    4.7148 C   0  0  2  0  0  0  0  0  0  0  0  0
   -0.9192   -5.5718    5.9738 O   0  0  0  0  0  0  0  0  0  0  0  0
   -1.8516   -7.6835    5.1089 C   0  0  0  0  0  0  0  0  0  0  0  0
   -2.1095   -8.5299    3.9732 O   0  0  0  0  0  0  0  0  0  0  0  0
   -0.9894    1.7319    8.1194 O   0  0  0  0  0  0  0  0  0  0  0  0
    0.3814    2.4474   10.5141 O   0  0  0  0  0  0  0  0  0  0  0  0
   -4.4594   -5.9358    5.6360 C   0  0  0  0  0  0  0  0  0  0  0  0
   -4.0408   -6.6007    6.6298 O   0  0  0  0  0  0  0  0  0  0  0  0
   -5.5121   -6.5053    4.6361 C   0  0  2  0  0  0  0  0  0  0  0  0
   -4.2214   -9.0214    5.7817 N   0  0  0  0  0  0  0  0  0  0  0  0
   -4.9111   -7.6765    3.7991 C   0  0  0  0  0  0  0  0  0  0  0  0
   -4.9890   -9.0363    4.5133 C   0  0  0  0  0  0  0  0  0  0  0  0
   -5.8950   -5.6424    3.7835 O   0  0  0  0  0  0  0  0  0  0  0  0
  1  2  1  1  0  0  0
  1  3  1  0  0  0  0
  1  8  1  0  0  0  0
  3  4  1  0  0  0  0
  3 32  1  6  0  0  0
  4  5  1  0  0  0  0
  4 33  1  1  0  0  0
  5  6  1  1  0  0  0
  5  7  1  0  0  0  0
  7  8  1  0  0  0  0
  7  9  1  1  0  0  0
  9 10  1  0  0  0  0
 11 12  1  6  0  0  0
 11 13  1  0  0  0  0
 11 19  1  0  0  0  0
 12 34  1  0  0  0  0
 13 14  1  0  0  0  0
 14 15  1  6  0  0  0
 14 16  1  0  0  0  0
 16  2  1  1  0  0  0
 16 17  1  0  0  0  0
 17 18  1  6  0  0  0
 17 19  1  0  0  0  0
 19 20  1  1  0  0  0
 21 20  1  6  0  0  0
 21 22  1  0  0  0  0
 21 29  1  0  0  0  0
 22 23  1  6  0  0  0
 22 24  1  0  0  0  0
 24 25  1  6  0  0  0
 24 26  1  0  0  0  0
 26 27  1  6  0  0  0
 26 28  1  0  0  0  0
 28 29  1  0  0  0  0
 28 30  1  1  0  0  0
 30 31  1  0  0  0  0
 34 35  2  0  0  0  0
 36 34  1  1  0  0  0
 36 38  1  0  0  0  0
 36 40  1  0  0  0  0
 37 39  1  0  0  0  0
 38 39  1  0  0  0  0
M  END
>  <CHROM.1>
-122.13794875,-107.97104575,154.39818591,-80.07601124,-67.21323353,-160.08958555
-50.20981618,111.47255981,84.49569605,-61.37315861,-2.29331903,-3.13705105
7.06236895,1.52999340,0.47022546,0.72336497

>  <Name>
ligand

>  <RI>
0

>  <Rbt.Current_Directory>
/home/itssahil/PROJECTS/Mol_Feturizer/New_Systems/rnas/4P20

>  <Rbt.Executable>
rbdock ($Id: //depot/dev/client3/rdock/2013.1/src/exe/rbdock.cxx#4 $)

>  <Rbt.Library>
libRbt.so (2013.1, Build901 2013/11/27)

>  <Rbt.Parameter_File>
/export/apps/rDock/src/rDock_2013.1_src/data/scripts/dock_solv.prm

>  <Rbt.Receptor>
prm/blind_docking_40.prm

>  <SCORE>
33.2617

>  <SCORE.INTER>
9.39654

>  <SCORE.INTER.CONST>
1

>  <SCORE.INTER.POLAR>
0

>  <SCORE.INTER.ROT>
10

>  <SCORE.INTER.SOLV>
23.3829

>  <SCORE.INTER.VDW>
-11.7966

>  <SCORE.INTER.norm>
0.234913

>  <SCORE.INTRA>
2.36656

>  <SCORE.INTRA.DIHEDRAL>
-5.67114

>  <SCORE.INTRA.DIHEDRAL.0>
28.2802

>  <SCORE.INTRA.POLAR>
0

>  <SCORE.INTRA.POLAR.0>
0

>  <SCORE.INTRA.REPUL>
0

>  <SCORE.INTRA.REPUL.0>
0

>  <SCORE.INTRA.SOLV>
7.73296

>  <SCORE.INTRA.SOLV.lig_0>
-101.981

>  <SCORE.INTRA.VDW>
1.33565

>  <SCORE.INTRA.VDW.0>
-5.72964

>  <SCORE.INTRA.norm>
0.059164

>  <SCORE.RESTR>
21.4986

>  <SCORE.RESTR.CAVITY>
21.4986

>  <SCORE.RESTR.norm>
0.537466

>  <SCORE.SYSTEM>
0

>  <SCORE.SYSTEM.CONST>
0

>  <SCORE.SYSTEM.DIHEDRAL>
0

>  <SCORE.SYSTEM.SOLV>
0

>  <SCORE.SYSTEM.norm>
0

>  <SCORE.heavy>
40

>  <SCORE.norm>
0.831544

>  <RMSD>
13.079

$$$$
ligand
 OpenBabel11021811503D
libRbt.so/2013.1/901 2013/11/27
 40 42  0  0  0  0  0  0  0  0999 V2000
   -3.6319    0.1067   10.5039 C   0  0  2  0  0  0  0  0  0  0  0  0
   -2.9793   -1.0948   10.0640 O   0  0  0  0  0  0  0  0  0  0  0  0
   -3.0228    1.3649    9.7791 C   0  0  1  0  0  0  0  0  0  0  0  0
   -1.5384    1.5966   10.1861 C   0  0  2  0  0  0  0  0  0  0  0  0
   -1.4982    1.8140   11.7319 C   0  0  2  0  0  0  0  0  0  0  0  0
   -0.1358    2.0585   12.1426 O   0  0  0  0  0  0  0  0  0  0  0  0
   -2.0769    0.5117   12.4394 C   0  0  2  0  0  0  0  0  0  0  0  0
   -3.4943    0.2768   11.9857 O   0  0  0  0  0  0  0  0  0  0  0  0
   -2.0989    0.6332   13.9569 C   0  0  0  0  0  0  0  0  0  0  0  0
   -2.6650    1.9478   14.3950 N   0  0  0  0  0  0  0  0  0  0  0  0
   -4.2857   -4.2191    7.2600 C   0  0  2  0  0  0  0  0  0  0  0  0
   -4.6764   -4.8576    6.0247 N   0  0  0  0  0  0  0  0  0  0  0  0
   -5.2828   -3.0337    7.5816 C   0  0  0  0  0  0  0  0  0  0  0  0
   -4.8611   -2.3158    8.9409 C   0  0  2  0  0  0  0  0  0  0  0  0
   -5.8085   -1.2130    9.2500 N   0  0  0  0  0  0  0  0  0  0  0  0
   -3.3641   -1.7707    8.8043 C   0  0  2  0  0  0  0  0  0  0  0  0
   -2.4045   -2.9940    8.4808 C   0  0  2  0  0  0  0  0  0  0  0  0
   -1.0623   -2.5171    8.3604 O   0  0  0  0  0  0  0  0  0  0  0  0
   -2.8363   -3.6980    7.1342 C   0  0  1  0  0  0  0  0  0  0  0  0
   -1.9645   -4.8239    6.8644 O   0  0  0  0  0  0  0  0  0  0  0  0
   -1.8220   -5.4514    5.6352 C   0  0  2  0  0  0  0  0  0  0  0  0
   -0.3351   -5.2511    5.1726 C   0  0  2  0  0  0  0  0  0  0  0  0
    0.5288   -5.7692    6.1321 O   0  0  0  0  0  0  0  0  0  0  0  0
   -0.0111   -3.7259    4.8725 C   0  0  1  0  0  0  0  0  0  0  0  0
    1.4053   -3.5596    4.4218 N   0  0  0  0  0  0  0  0  0  0  0  0
   -1.0268   -3.1974    3.7679 C   0  0  2  0  0  0  0  0  0  0  0  0
   -0.7661   -1.8242    3.4521 O   0  0  0  0  0  0  0  0  0  0  0  0
   -2.4933   -3.3977    4.3141 C   0  0  2  0  0  0  0  0  0  0  0  0
   -2.7541   -4.8620    4.6400 O   0  0  0  0  0  0  0  0  0  0  0  0
   -3.5185   -2.9349    3.3065 C   0  0  0  0  0  0  0  0  0  0  0  0
   -3.5142   -1.5067    3.1249 O   0  0  0  0  0  0  0  0  0  0  0  0
   -3.1377    1.1642    8.3402 O   0  0  0  0  0  0  0  0  0  0  0  0
   -1.0631    2.7100    9.5365 O   0  0  0  0  0  0  0  0  0  0  0  0
   -4.5352   -6.2899    5.9011 C   0  0  0  0  0  0  0  0  0  0  0  0
   -3.7087   -6.9067    6.6370 O   0  0  0  0  0  0  0  0  0  0  0  0
   -5.4189   -7.0222    4.8450 C   0  0  2  0  0  0  0  0  0  0  0  0
   -2.4223   -8.9214    5.0053 N   0  0  0  0  0  0  0  0  0  0  0  0
   -4.6009   -8.1196    4.0965 C   0  0  0  0  0  0  0  0  0  0  0  0
   -3.8933   -9.1025    5.0443 C   0  0  0  0  0  0  0  0  0  0  0  0
   -5.8459   -6.2406    3.9368 O   0  0  0  0  0  0  0  0  0  0  0  0
  1  2  1  6  0  0  0
  1  3  1  0  0  0  0
  1  8  1  0  0  0  0
  3  4  1  0  0  0  0
  3 32  1  6  0  0  0
  4  5  1  0  0  0  0
  4 33  1  6  0  0  0
  5  6  1  1  0  0  0
  5  7  1  0  0  0  0
  7  8  1  0  0  0  0
  7  9  1  1  0  0  0
  9 10  1  0  0  0  0
 11 12  1  6  0  0  0
 11 13  1  0  0  0  0
 11 19  1  0  0  0  0
 12 34  1  0  0  0  0
 13 14  1  0  0  0  0
 14 15  1  6  0  0  0
 14 16  1  0  0  0  0
 16  2  1  1  0  0  0
 16 17  1  0  0  0  0
 17 18  1  6  0  0  0
 17 19  1  0  0  0  0
 19 20  1  1  0  0  0
 21 20  1  1  0  0  0
 21 22  1  0  0  0  0
 21 29  1  0  0  0  0
 22 23  1  1  0  0  0
 22 24  1  0  0  0  0
 24 25  1  6  0  0  0
 24 26  1  0  0  0  0
 26 27  1  1  0  0  0
 26 28  1  0  0  0  0
 28 29  1  0  0  0  0
 28 30  1  6  0  0  0
 30 31  1  0  0  0  0
 34 35  2  0  0  0  0
 36 34  1  1  0  0  0
 36 38  1  0  0  0  0
 36 40  1  0  0  0  0
 37 39  1  0  0  0  0
 38 39  1  0  0  0  0
M  END
>  <CHROM.1>
-82.01507037,-65.20631186,46.45652372,-143.17403922,77.49299892,116.86680553
-68.74774634,138.94397318,52.72979313,-110.78434529,-2.69529704,-2.78645895
7.44317252,1.46304283,0.68089183,0.82482561

>  <Name>
ligand

>  <RI>
0

>  <Rbt.Current_Directory>
/home/itssahil/PROJECTS/Mol_Feturizer/New_Systems/rnas/4P20

>  <Rbt.Executable>
rbdock ($Id: //depot/dev/client3/rdock/2013.1/src/exe/rbdock.cxx#4 $)

>  <Rbt.Library>
libRbt.so (2013.1, Build901 2013/11/27)

>  <Rbt.Parameter_File>
/export/apps/rDock/src/rDock_2013.1_src/data/scripts/dock_solv.prm

>  <Rbt.Receptor>
prm/blind_docking_40.prm

>  <SCORE>
39.6684

>  <SCORE.INTER>
16.3785

>  <SCORE.INTER.CONST>
1

>  <SCORE.INTER.POLAR>
0

>  <SCORE.INTER.ROT>
10

>  <SCORE.INTER.SOLV>
20.2699

>  <SCORE.INTER.VDW>
-6.10429

>  <SCORE.INTER.norm>
0.409462

>  <SCORE.INTRA>
4.77107

>  <SCORE.INTRA.DIHEDRAL>
-8.26154

>  <SCORE.INTRA.DIHEDRAL.0>
28.2802

>  <SCORE.INTRA.POLAR>
0

>  <SCORE.INTRA.POLAR.0>
0

>  <SCORE.INTRA.REPUL>
0

>  <SCORE.INTRA.REPUL.0>
0

>  <SCORE.INTRA.SOLV>
6.89344

>  <SCORE.INTRA.SOLV.lig_0>
-101.981

>  <SCORE.INTRA.VDW>
5.45512

>  <SCORE.INTRA.VDW.0>
-5.72964

>  <SCORE.INTRA.norm>
0.119277

>  <SCORE.RESTR>
18.5188

>  <SCORE.RESTR.CAVITY>
18.5188

>  <SCORE.RESTR.norm>
0.46297

>  <SCORE.SYSTEM>
0

>  <SCORE.SYSTEM.CONST>
0

>  <SCORE.SYSTEM.DIHEDRAL>
0

>  <SCORE.SYSTEM.SOLV>
0

>  <SCORE.SYSTEM.norm>
0

>  <SCORE.heavy>
40

>  <SCORE.norm>
0.991709

>  <RMSD>
13.086

$$$$
ligand
 OpenBabel11021811503D
libRbt.so/2013.1/901 2013/11/27
 40 42  0  0  0  0  0  0  0  0999 V2000
   -2.1848   -0.8252   10.1733 C   0  0  2  0  0  0  0  0  0  0  0  0
   -3.3046   -0.4821    9.3418 O   0  0  0  0  0  0  0  0  0  0  0  0
   -2.3028   -0.1237   11.5781 C   0  0  1  0  0  0  0  0  0  0  0  0
   -2.1941    1.4242   11.4555 C   0  0  2  0  0  0  0  0  0  0  0  0
   -0.8055    1.7540   10.8221 C   0  0  2  0  0  0  0  0  0  0  0  0
   -0.6588    3.1865   10.7169 O   0  0  0  0  0  0  0  0  0  0  0  0
   -0.7311    1.0713    9.3869 C   0  0  2  0  0  0  0  0  0  0  0  0
   -0.8960   -0.4199    9.5267 O   0  0  0  0  0  0  0  0  0  0  0  0
    0.6006    1.3187    8.6915 C   0  0  0  0  0  0  0  0  0  0  0  0
    0.8704    2.7817    8.5254 N   0  0  0  0  0  0  0  0  0  0  0  0
   -3.5999   -3.8583    6.5411 C   0  0  2  0  0  0  0  0  0  0  0  0
   -3.9666   -4.6257    5.3736 N   0  0  0  0  0  0  0  0  0  0  0  0
   -4.9072   -3.3992    7.3047 C   0  0  0  0  0  0  0  0  0  0  0  0
   -4.5182   -2.5463    8.5939 C   0  0  2  0  0  0  0  0  0  0  0  0
   -5.7470   -2.1298    9.3192 N   0  0  0  0  0  0  0  0  0  0  0  0
   -3.6547   -1.2781    8.1437 C   0  0  2  0  0  0  0  0  0  0  0  0
   -2.3582   -1.7894    7.3824 C   0  0  2  0  0  0  0  0  0  0  0  0
   -1.5771   -0.6623    6.9789 O   0  0  0  0  0  0  0  0  0  0  0  0
   -2.7584   -2.6359    6.1102 C   0  0  1  0  0  0  0  0  0  0  0  0
   -1.5654   -3.1122    5.4391 O   0  0  0  0  0  0  0  0  0  0  0  0
   -0.5846   -3.9070    6.0147 C   0  0  2  0  0  0  0  0  0  0  0  0
    0.6516   -3.9063    5.0468 C   0  0  2  0  0  0  0  0  0  0  0  0
    1.0853   -2.6008    4.8403 O   0  0  0  0  0  0  0  0  0  0  0  0
    0.3233   -4.6264    3.6702 C   0  0  1  0  0  0  0  0  0  0  0  0
    1.5171   -4.6255    2.7692 N   0  0  0  0  0  0  0  0  0  0  0  0
   -0.1601   -6.1112    3.9750 C   0  0  2  0  0  0  0  0  0  0  0  0
   -0.4573   -6.8093    2.7593 O   0  0  0  0  0  0  0  0  0  0  0  0
   -1.4206   -6.0325    4.9205 C   0  0  2  0  0  0  0  0  0  0  0  0
   -1.0857   -5.2919    6.2081 O   0  0  0  0  0  0  0  0  0  0  0  0
   -1.9262   -7.4115    5.2713 C   0  0  0  0  0  0  0  0  0  0  0  0
   -1.8564   -8.3278    4.1630 O   0  0  0  0  0  0  0  0  0  0  0  0
   -3.5765   -0.5056   12.1747 O   0  0  0  0  0  0  0  0  0  0  0  0
   -2.2905    1.9818   12.7074 O   0  0  0  0  0  0  0  0  0  0  0  0
   -4.5014   -5.9561    5.5492 C   0  0  0  0  0  0  0  0  0  0  0  0
   -4.2521   -6.5994    6.6118 O   0  0  0  0  0  0  0  0  0  0  0  0
   -5.3718   -6.5508    4.3997 C   0  0  2  0  0  0  0  0  0  0  0  0
   -4.0665   -9.6184    4.0675 N   0  0  0  0  0  0  0  0  0  0  0  0
   -5.8375   -7.9993    4.7438 C   0  0  0  0  0  0  0  0  0  0  0  0
   -4.6909   -8.9113    5.2114 C   0  0  0  0  0  0  0  0  0  0  0  0
   -4.7335   -6.6522    3.3041 O   0  0  0  0  0  0  0  0  0  0  0  0
  1  2  1  6  0  0  0
  1  3  1  0  0  0  0
  1  8  1  0  0  0  0
  3  4  1  0  0  0  0
  3 32  1  6  0  0  0
  4  5  1  0  0  0  0
  4 33  1  1  0  0  0
  5  6  1  6  0  0  0
  5  7  1  0  0  0  0
  7  8  1  0  0  0  0
  7  9  1  1  0  0  0
  9 10  1  0  0  0  0
 11 12  1  6  0  0  0
 11 13  1  0  0  0  0
 11 19  1  0  0  0  0
 12 34  1  0  0  0  0
 13 14  1  0  0  0  0
 14 15  1  6  0  0  0
 14 16  1  0  0  0  0
 16  2  1  1  0  0  0
 16 17  1  0  0  0  0
 17 18  1  6  0  0  0
 17 19  1  0  0  0  0
 19 20  1  1  0  0  0
 21 20  1  6  0  0  0
 21 22  1  0  0  0  0
 21 29  1  0  0  0  0
 22 23  1  6  0  0  0
 22 24  1  0  0  0  0
 24 25  1  6  0  0  0
 24 26  1  0  0  0  0
 26 27  1  6  0  0  0
 26 28  1  0  0  0  0
 28 29  1  0  0  0  0
 28 30  1  1  0  0  0
 30 31  1  0  0  0  0
 34 35  2  0  0  0  0
 36 34  1  1  0  0  0
 36 38  1  0  0  0  0
 36 40  1  0  0  0  0
 37 39  1  0  0  0  0
 38 39  1  0  0  0  0
M  END
>  <CHROM.1>
-162.31690618,82.67858378,-58.28822671,-71.64142104,-61.65842522,-167.45785060
-38.69979959,178.77331655,-49.62979234,-90.25431515,-2.22303126,-3.16240884
7.00277542,1.43449196,0.48392079,0.70662886

>  <Name>
ligand

>  <RI>
0

>  <Rbt.Current_Directory>
/home/itssahil/PROJECTS/Mol_Feturizer/New_Systems/rnas/4P20

>  <Rbt.Executable>
rbdock ($Id: //depot/dev/client3/rdock/2013.1/src/exe/rbdock.cxx#4 $)

>  <Rbt.Library>
libRbt.so (2013.1, Build901 2013/11/27)

>  <Rbt.Parameter_File>
/export/apps/rDock/src/rDock_2013.1_src/data/scripts/dock_solv.prm

>  <Rbt.Receptor>
prm/blind_docking_40.prm

>  <SCORE>
31.2324

>  <SCORE.INTER>
11.3082

>  <SCORE.INTER.CONST>
1

>  <SCORE.INTER.POLAR>
0

>  <SCORE.INTER.ROT>
10

>  <SCORE.INTER.SOLV>
18.8039

>  <SCORE.INTER.VDW>
-8.99582

>  <SCORE.INTER.norm>
0.282705

>  <SCORE.INTRA>
-1.40089

>  <SCORE.INTRA.DIHEDRAL>
-18.2472

>  <SCORE.INTRA.DIHEDRAL.0>
28.2802

>  <SCORE.INTRA.POLAR>
0

>  <SCORE.INTRA.POLAR.0>
0

>  <SCORE.INTRA.REPUL>
0

>  <SCORE.INTRA.REPUL.0>
0

>  <SCORE.INTRA.SOLV>
7.12158

>  <SCORE.INTRA.SOLV.lig_0>
-101.981

>  <SCORE.INTRA.VDW>
4.16194

>  <SCORE.INTRA.VDW.0>
-5.72964

>  <SCORE.INTRA.norm>
-0.0350222

>  <SCORE.RESTR>
21.3251

>  <SCORE.RESTR.CAVITY>
21.3251

>  <SCORE.RESTR.norm>
0.533126

>  <SCORE.SYSTEM>
0

>  <SCORE.SYSTEM.CONST>
0

>  <SCORE.SYSTEM.DIHEDRAL>
0

>  <SCORE.SYSTEM.SOLV>
0

>  <SCORE.SYSTEM.norm>
0

>  <SCORE.heavy>
40

>  <SCORE.norm>
0.780809

>  <RMSD>
13.121

$$$$
ligand
 OpenBabel11021811503D
libRbt.so/2013.1/901 2013/11/27
 40 42  0  0  0  0  0  0  0  0999 V2000
   -1.1943    0.0279    8.8231 C   0  0  2  0  0  0  0  0  0  0  0  0
   -2.4078   -0.1457    8.0746 O   0  0  0  0  0  0  0  0  0  0  0  0
   -1.2019   -0.8812   10.1087 C   0  0  1  0  0  0  0  0  0  0  0  0
   -2.3061   -0.4413   11.1138 C   0  0  2  0  0  0  0  0  0  0  0  0
   -2.0151    1.0376   11.5216 C   0  0  2  0  0  0  0  0  0  0  0  0
   -3.0076    1.4721   12.4760 O   0  0  0  0  0  0  0  0  0  0  0  0
   -2.0577    1.9396   10.2116 C   0  0  2  0  0  0  0  0  0  0  0  0
   -1.0193    1.4582    9.2317 O   0  0  0  0  0  0  0  0  0  0  0  0
   -1.7644    3.4050   10.5024 C   0  0  0  0  0  0  0  0  0  0  0  0
   -1.9206    4.2505    9.2771 N   0  0  0  0  0  0  0  0  0  0  0  0
   -3.0102   -4.5005    8.1252 C   0  0  2  0  0  0  0  0  0  0  0  0
   -3.5339   -5.8027    7.7840 N   0  0  0  0  0  0  0  0  0  0  0  0
   -4.1869   -3.5735    8.6339 C   0  0  0  0  0  0  0  0  0  0  0  0
   -3.6245   -2.1302    9.0099 C   0  0  2  0  0  0  0  0  0  0  0  0
   -4.7285   -1.2657    9.5032 N   0  0  0  0  0  0  0  0  0  0  0  0
   -2.9190   -1.4905    7.7254 C   0  0  2  0  0  0  0  0  0  0  0  0
   -1.7498   -2.4557    7.2531 C   0  0  2  0  0  0  0  0  0  0  0  0
   -1.1101   -1.8903    6.1067 O   0  0  0  0  0  0  0  0  0  0  0  0
   -2.3206   -3.8826    6.8879 C   0  0  1  0  0  0  0  0  0  0  0  0
   -1.2393   -4.7569    6.4793 O   0  0  0  0  0  0  0  0  0  0  0  0
   -1.2139   -5.5109    5.3150 C   0  0  2  0  0  0  0  0  0  0  0  0
    0.1380   -5.1988    4.5801 C   0  0  2  0  0  0  0  0  0  0  0  0
    1.2074   -5.4909    5.4205 O   0  0  0  0  0  0  0  0  0  0  0  0
    0.2005   -3.6952    4.0733 C   0  0  1  0  0  0  0  0  0  0  0  0
    1.4899   -3.4234    3.3660 N   0  0  0  0  0  0  0  0  0  0  0  0
   -1.0422   -3.4284    3.1164 C   0  0  2  0  0  0  0  0  0  0  0  0
   -1.0236   -2.0839    2.6210 O   0  0  0  0  0  0  0  0  0  0  0  0
   -2.3606   -3.7278    3.9295 C   0  0  2  0  0  0  0  0  0  0  0  0
   -2.3653   -5.1608    4.4442 O   0  0  0  0  0  0  0  0  0  0  0  0
   -3.5880   -3.5148    3.0760 C   0  0  0  0  0  0  0  0  0  0  0  0
   -4.8126   -3.6328    3.8239 O   0  0  0  0  0  0  0  0  0  0  0  0
   -1.4053   -2.2626    9.6912 O   0  0  0  0  0  0  0  0  0  0  0  0
   -2.2592   -1.2573   12.2181 O   0  0  0  0  0  0  0  0  0  0  0  0
   -4.1663   -5.9888    6.4985 C   0  0  0  0  0  0  0  0  0  0  0  0
   -4.6458   -4.9908    5.8827 O   0  0  0  0  0  0  0  0  0  0  0  0
   -4.2349   -7.4360    5.9213 C   0  0  2  0  0  0  0  0  0  0  0  0
   -2.4306   -9.9528    5.0727 N   0  0  0  0  0  0  0  0  0  0  0  0
   -3.2304   -7.6150    4.7413 C   0  0  0  0  0  0  0  0  0  0  0  0
   -2.0390   -8.5229    5.0898 C   0  0  0  0  0  0  0  0  0  0  0  0
   -5.3775   -7.7171    5.4380 O   0  0  0  0  0  0  0  0  0  0  0  0
  1  2  1  1  0  0  0
  1  3  1  0  0  0  0
  1  8  1  0  0  0  0
  3  4  1  0  0  0  0
  3 32  1  6  0  0  0
  4  5  1  0  0  0  0
  4 33  1  1  0  0  0
  5  6  1  1  0  0  0
  5  7  1  0  0  0  0
  7  8  1  0  0  0  0
  7  9  1  1  0  0  0
  9 10  1  0  0  0  0
 11 12  1  6  0  0  0
 11 13  1  0  0  0  0
 11 19  1  0  0  0  0
 12 34  1  0  0  0  0
 13 14  1  0  0  0  0
 14 15  1  6  0  0  0
 14 16  1  0  0  0  0
 16  2  1  1  0  0  0
 16 17  1  0  0  0  0
 17 18  1  6  0  0  0
 17 19  1  0  0  0  0
 19 20  1  1  0  0  0
 21 20  1  1  0  0  0
 21 22  1  0  0  0  0
 21 29  1  0  0  0  0
 22 23  1  1  0  0  0
 22 24  1  0  0  0  0
 24 25  1  6  0  0  0
 24 26  1  0  0  0  0
 26 27  1  1  0  0  0
 26 28  1  0  0  0  0
 28 29  1  0  0  0  0
 28 30  1  6  0  0  0
 30 31  1  0  0  0  0
 34 35  2  0  0  0  0
 36 34  1  6  0  0  0
 36 38  1  0  0  0  0
 36 40  1  0  0  0  0
 37 39  1  0  0  0  0
 38 39  1  0  0  0  0
M  END
>  <CHROM.1>
-49.47517386,77.90195076,-175.31438964,81.18615127,111.16040343,128.14693238
-173.48026459,-106.78791157,109.64656585,76.91488690,-2.26474668,-2.99742722
7.07298310,-1.51609401,-0.92158273,-2.43768742

>  <Name>
ligand

>  <RI>
0

>  <Rbt.Current_Directory>
/home/itssahil/PROJECTS/Mol_Feturizer/New_Systems/rnas/4P20

>  <Rbt.Executable>
rbdock ($Id: //depot/dev/client3/rdock/2013.1/src/exe/rbdock.cxx#4 $)

>  <Rbt.Library>
libRbt.so (2013.1, Build901 2013/11/27)

>  <Rbt.Parameter_File>
/export/apps/rDock/src/rDock_2013.1_src/data/scripts/dock_solv.prm

>  <Rbt.Receptor>
prm/blind_docking_40.prm

>  <SCORE>
46.5468

>  <SCORE.INTER>
13.0636

>  <SCORE.INTER.CONST>
1

>  <SCORE.INTER.POLAR>
0

>  <SCORE.INTER.ROT>
10

>  <SCORE.INTER.SOLV>
19.7868

>  <SCORE.INTER.VDW>
-8.1532

>  <SCORE.INTER.norm>
0.32659

>  <SCORE.INTRA>
14.2159

>  <SCORE.INTRA.DIHEDRAL>
-3.98616

>  <SCORE.INTRA.DIHEDRAL.0>
28.2802

>  <SCORE.INTRA.POLAR>
0

>  <SCORE.INTRA.POLAR.0>
0

>  <SCORE.INTRA.REPUL>
0

>  <SCORE.INTRA.REPUL.0>
0

>  <SCORE.INTRA.SOLV>
6.79926

>  <SCORE.INTRA.SOLV.lig_0>
-101.981

>  <SCORE.INTRA.VDW>
12.8093

>  <SCORE.INTRA.VDW.0>
-5.72964

>  <SCORE.INTRA.norm>
0.355396

>  <SCORE.RESTR>
19.2673

>  <SCORE.RESTR.CAVITY>
19.2673

>  <SCORE.RESTR.norm>
0.481682

>  <SCORE.SYSTEM>
0

>  <SCORE.SYSTEM.CONST>
0

>  <SCORE.SYSTEM.DIHEDRAL>
0

>  <SCORE.SYSTEM.SOLV>
0

>  <SCORE.SYSTEM.norm>
0

>  <SCORE.heavy>
40

>  <SCORE.norm>
1.16367

>  <RMSD>
13.147

$$$$
ligand
 OpenBabel11021811503D
libRbt.so/2013.1/901 2013/11/27
 40 42  0  0  0  0  0  0  0  0999 V2000
   -3.8005    0.0988   10.5539 C   0  0  2  0  0  0  0  0  0  0  0  0
   -3.3248   -1.2209   10.2458 O   0  0  0  0  0  0  0  0  0  0  0  0
   -3.0289    1.1777    9.7055 C   0  0  1  0  0  0  0  0  0  0  0  0
   -1.5232    1.2420   10.0950 C   0  0  2  0  0  0  0  0  0  0  0  0
   -1.4400    1.6117   11.6098 C   0  0  2  0  0  0  0  0  0  0  0  0
   -0.0534    1.7059   12.0010 O   0  0  0  0  0  0  0  0  0  0  0  0
   -2.1878    0.4833   12.4459 C   0  0  2  0  0  0  0  0  0  0  0  0
   -3.6280    0.4016   12.0107 O   0  0  0  0  0  0  0  0  0  0  0  0
   -2.1798    0.7641   13.9423 C   0  0  0  0  0  0  0  0  0  0  0  0
   -2.5595    2.1816   14.2376 N   0  0  0  0  0  0  0  0  0  0  0  0
   -4.2152   -4.2398    7.1760 C   0  0  2  0  0  0  0  0  0  0  0  0
   -4.4613   -4.8253    5.8787 N   0  0  0  0  0  0  0  0  0  0  0  0
   -5.2961   -3.1215    7.4656 C   0  0  0  0  0  0  0  0  0  0  0  0
   -5.0344   -2.4624    8.8931 C   0  0  2  0  0  0  0  0  0  0  0  0
   -6.0605   -1.4235    9.1707 N   0  0  0  0  0  0  0  0  0  0  0  0
   -3.5608   -1.8421    8.9229 C   0  0  2  0  0  0  0  0  0  0  0  0
   -2.5152   -2.9998    8.6259 C   0  0  2  0  0  0  0  0  0  0  0  0
   -1.1937   -2.4557    8.6540 O   0  0  0  0  0  0  0  0  0  0  0  0
   -2.7889   -3.6463    7.2108 C   0  0  1  0  0  0  0  0  0  0  0  0
   -1.8402   -4.7139    6.9642 O   0  0  0  0  0  0  0  0  0  0  0  0
   -0.5645   -4.5490    6.4443 C   0  0  2  0  0  0  0  0  0  0  0  0
   -0.5886   -3.2724    5.5307 C   0  0  2  0  0  0  0  0  0  0  0  0
   -1.0012   -2.1712    6.2739 O   0  0  0  0  0  0  0  0  0  0  0  0
   -1.5079   -3.4790    4.2525 C   0  0  1  0  0  0  0  0  0  0  0  0
   -1.5065   -2.2566    3.3907 N   0  0  0  0  0  0  0  0  0  0  0  0
   -0.9818   -4.7457    3.4464 C   0  0  2  0  0  0  0  0  0  0  0  0
   -1.7737   -4.9669    2.2728 O   0  0  0  0  0  0  0  0  0  0  0  0
   -1.0182   -5.9921    4.4131 C   0  0  2  0  0  0  0  0  0  0  0  0
   -0.1686   -5.7413    5.6516 O   0  0  0  0  0  0  0  0  0  0  0  0
   -0.5112   -7.2345    3.7204 C   0  0  0  0  0  0  0  0  0  0  0  0
    0.7900   -7.0513    3.1322 O   0  0  0  0  0  0  0  0  0  0  0  0
   -3.1828    0.8461    8.2947 O   0  0  0  0  0  0  0  0  0  0  0  0
   -0.9035    2.2048    9.3356 O   0  0  0  0  0  0  0  0  0  0  0  0
   -4.0656   -6.1942    5.6413 C   0  0  0  0  0  0  0  0  0  0  0  0
   -3.1578   -6.7192    6.3522 O   0  0  0  0  0  0  0  0  0  0  0  0
   -4.7836   -6.9738    4.4971 C   0  0  2  0  0  0  0  0  0  0  0  0
   -4.7720   -4.2346    1.7302 N   0  0  0  0  0  0  0  0  0  0  0  0
   -4.5342   -6.2935    3.1156 C   0  0  0  0  0  0  0  0  0  0  0  0
   -4.9458   -4.8120    3.0846 C   0  0  0  0  0  0  0  0  0  0  0  0
   -6.0475   -6.9979    4.6387 O   0  0  0  0  0  0  0  0  0  0  0  0
  1  2  1  1  0  0  0
  1  3  1  0  0  0  0
  1  8  1  0  0  0  0
  3  4  1  0  0  0  0
  3 32  1  6  0  0  0
  4  5  1  0  0  0  0
  4 33  1  6  0  0  0
  5  6  1  1  0  0  0
  5  7  1  0  0  0  0
  7  8  1  0  0  0  0
  7  9  1  1  0  0  0
  9 10  1  0  0  0  0
 11 12  1  6  0  0  0
 11 13  1  0  0  0  0
 11 19  1  0  0  0  0
 12 34  1  0  0  0  0
 13 14  1  0  0  0  0
 14 15  1  6  0  0  0
 14 16  1  0  0  0  0
 16  2  1  1  0  0  0
 16 17  1  0  0  0  0
 17 18  1  6  0  0  0
 17 19  1  0  0  0  0
 19 20  1  1  0  0  0
 21 20  1  6  0  0  0
 21 22  1  0  0  0  0
 21 29  1  0  0  0  0
 22 23  1  1  0  0  0
 22 24  1  0  0  0  0
 24 25  1  6  0  0  0
 24 26  1  0  0  0  0
 26 27  1  6  0  0  0
 26 28  1  0  0  0  0
 28 29  1  0  0  0  0
 28 30  1  6  0  0  0
 30 31  1  0  0  0  0
 34 35  2  0  0  0  0
 36 34  1  1  0  0  0
 36 38  1  0  0  0  0
 36 40  1  0  0  0  0
 37 39  1  0  0  0  0
 38 39  1  0  0  0  0
M  END
>  <CHROM.1>
-67.86553559,-81.71921347,46.68540660,-151.58311933,155.19455928,-28.52377596
53.54308476,61.66609684,-55.56385787,-176.32833021,-2.61667686,-2.84633156
7.27273598,1.54452401,0.22933339,0.85461252

>  <Name>
ligand

>  <RI>
0

>  <Rbt.Current_Directory>
/home/itssahil/PROJECTS/Mol_Feturizer/New_Systems/rnas/4P20

>  <Rbt.Executable>
rbdock ($Id: //depot/dev/client3/rdock/2013.1/src/exe/rbdock.cxx#4 $)

>  <Rbt.Library>
libRbt.so (2013.1, Build901 2013/11/27)

>  <Rbt.Parameter_File>
/export/apps/rDock/src/rDock_2013.1_src/data/scripts/dock_solv.prm

>  <Rbt.Receptor>
prm/blind_docking_40.prm

>  <SCORE>
35.4624

>  <SCORE.INTER>
13.2321

>  <SCORE.INTER.CONST>
1

>  <SCORE.INTER.POLAR>
0

>  <SCORE.INTER.ROT>
10

>  <SCORE.INTER.SOLV>
15.6655

>  <SCORE.INTER.VDW>
-6.66713

>  <SCORE.INTER.norm>
0.330802

>  <SCORE.INTRA>
-0.977335

>  <SCORE.INTRA.DIHEDRAL>
-17.1337

>  <SCORE.INTRA.DIHEDRAL.0>
28.2802

>  <SCORE.INTRA.POLAR>
0

>  <SCORE.INTRA.POLAR.0>
0

>  <SCORE.INTRA.REPUL>
0.0302108

>  <SCORE.INTRA.REPUL.0>
0

>  <SCORE.INTRA.SOLV>
7.03588

>  <SCORE.INTRA.SOLV.lig_0>
-101.981

>  <SCORE.INTRA.VDW>
3.9205

>  <SCORE.INTRA.VDW.0>
-5.72964

>  <SCORE.INTRA.norm>
-0.0244334

>  <SCORE.RESTR>
23.2077

>  <SCORE.RESTR.CAVITY>
23.2077

>  <SCORE.RESTR.norm>
0.580193

>  <SCORE.SYSTEM>
0

>  <SCORE.SYSTEM.CONST>
0

>  <SCORE.SYSTEM.DIHEDRAL>
0

>  <SCORE.SYSTEM.SOLV>
0

>  <SCORE.SYSTEM.norm>
0

>  <SCORE.heavy>
40

>  <SCORE.norm>
0.886561

>  <RMSD>
13.153

$$$$
ligand
 OpenBabel11021811503D
libRbt.so/2013.1/901 2013/11/27
 40 42  0  0  0  0  0  0  0  0999 V2000
   -1.6037    0.9163    8.8926 C   0  0  2  0  0  0  0  0  0  0  0  0
   -1.0995   -0.4250    8.7946 O   0  0  0  0  0  0  0  0  0  0  0  0
   -0.9631    1.6601   10.1237 C   0  0  1  0  0  0  0  0  0  0  0  0
   -1.4001    1.0162   11.4718 C   0  0  2  0  0  0  0  0  0  0  0  0
   -2.9565    1.1070   11.5589 C   0  0  2  0  0  0  0  0  0  0  0  0
   -3.3967    0.5408   12.8120 O   0  0  0  0  0  0  0  0  0  0  0  0
   -3.5776    0.3104   10.3296 C   0  0  2  0  0  0  0  0  0  0  0  0
   -3.0945    0.9167    9.0376 O   0  0  0  0  0  0  0  0  0  0  0  0
   -5.0994    0.3567   10.3132 C   0  0  0  0  0  0  0  0  0  0  0  0
   -5.6569   -0.3226    9.1015 N   0  0  0  0  0  0  0  0  0  0  0  0
   -2.3018   -4.4279    7.4303 C   0  0  2  0  0  0  0  0  0  0  0  0
   -3.1176   -5.4888    6.8868 N   0  0  0  0  0  0  0  0  0  0  0  0
   -2.9971   -3.8340    8.7213 C   0  0  0  0  0  0  0  0  0  0  0  0
   -2.1100   -2.6579    9.3300 C   0  0  2  0  0  0  0  0  0  0  0  0
   -2.7566   -2.1121   10.5522 N   0  0  0  0  0  0  0  0  0  0  0  0
   -1.9141   -1.5209    8.2228 C   0  0  2  0  0  0  0  0  0  0  0  0
   -1.2163   -2.1650    6.9499 C   0  0  2  0  0  0  0  0  0  0  0  0
   -1.0333   -1.1550    5.9551 O   0  0  0  0  0  0  0  0  0  0  0  0
   -2.1039   -3.3309    6.3600 C   0  0  1  0  0  0  0  0  0  0  0  0
   -1.4438   -3.9214    5.2127 O   0  0  0  0  0  0  0  0  0  0  0  0
   -0.2665   -4.6542    5.2540 C   0  0  2  0  0  0  0  0  0  0  0  0
    0.3365   -4.6608    3.8044 C   0  0  2  0  0  0  0  0  0  0  0  0
    0.5441   -3.3535    3.3766 O   0  0  0  0  0  0  0  0  0  0  0  0
   -0.5846   -5.4583    2.7861 C   0  0  1  0  0  0  0  0  0  0  0  0
    0.0141   -5.4627    1.4155 N   0  0  0  0  0  0  0  0  0  0  0  0
   -0.7781   -6.9413    3.3287 C   0  0  2  0  0  0  0  0  0  0  0  0
   -1.5945   -7.7079    2.4346 O   0  0  0  0  0  0  0  0  0  0  0  0
   -1.4172   -6.8574    4.7686 C   0  0  2  0  0  0  0  0  0  0  0  0
   -0.5350   -6.0436    5.7057 O   0  0  0  0  0  0  0  0  0  0  0  0
   -1.6131   -8.2332    5.3594 C   0  0  0  0  0  0  0  0  0  0  0  0
   -2.8240   -8.8660    4.9054 O   0  0  0  0  0  0  0  0  0  0  0  0
    0.4865    1.6199    9.9790 O   0  0  0  0  0  0  0  0  0  0  0  0
   -0.8244    1.7100   12.5085 O   0  0  0  0  0  0  0  0  0  0  0  0
   -4.3765   -5.1546    6.2619 C   0  0  0  0  0  0  0  0  0  0  0  0
   -4.9586   -4.0696    6.5599 O   0  0  0  0  0  0  0  0  0  0  0  0
   -4.9731   -6.1659    5.2354 C   0  0  2  0  0  0  0  0  0  0  0  0
   -3.5793   -3.8735    3.9015 N   0  0  0  0  0  0  0  0  0  0  0  0
   -4.0376   -6.3221    3.9968 C   0  0  0  0  0  0  0  0  0  0  0  0
   -3.9821   -5.0637    3.1146 C   0  0  0  0  0  0  0  0  0  0  0  0
   -6.0930   -5.7856    4.7672 O   0  0  0  0  0  0  0  0  0  0  0  0
  1  2  1  1  0  0  0
  1  3  1  0  0  0  0
  1  8  1  0  0  0  0
  3  4  1  0  0  0  0
  3 32  1  6  0  0  0
  4  5  1  0  0  0  0
  4 33  1  1  0  0  0
  5  6  1  1  0  0  0
  5  7  1  0  0  0  0
  7  8  1  0  0  0  0
  7  9  1  6  0  0  0
  9 10  1  0  0  0  0
 11 12  1  6  0  0  0
 11 13  1  0  0  0  0
 11 19  1  0  0  0  0
 12 34  1  0  0  0  0
 13 14  1  0  0  0  0
 14 15  1  1  0  0  0
 14 16  1  0  0  0  0
 16  2  1  1  0  0  0
 16 17  1  0  0  0  0
 17 18  1  6  0  0  0
 17 19  1  0  0  0  0
 19 20  1  6  0  0  0
 21 20  1  6  0  0  0
 21 22  1  0  0  0  0
 21 29  1  0  0  0  0
 22 23  1  6  0  0  0
 22 24  1  0  0  0  0
 24 25  1  6  0  0  0
 24 26  1  0  0  0  0
 26 27  1  6  0  0  0
 26 28  1  0  0  0  0
 28 29  1  0  0  0  0
 28 30  1  1  0  0  0
 30 31  1  0  0  0  0
 34 35  2  0  0  0  0
 36 34  1  1  0  0  0
 36 38  1  0  0  0  0
 36 40  1  0  0  0  0
 37 39  1  0  0  0  0
 38 39  1  0  0  0  0
M  END
>  <CHROM.1>
150.12709271,-120.01600022,176.30639284,70.20678218,-52.56765165,-160.52357661
-82.66006851,-63.36173164,-68.93444324,55.74133021,-2.26725319,-3.13625849
6.93836409,-1.59640802,-0.41183728,-2.38398289

>  <Name>
ligand

>  <RI>
0

>  <Rbt.Current_Directory>
/home/itssahil/PROJECTS/Mol_Feturizer/New_Systems/rnas/4P20

>  <Rbt.Executable>
rbdock ($Id: //depot/dev/client3/rdock/2013.1/src/exe/rbdock.cxx#4 $)

>  <Rbt.Library>
libRbt.so (2013.1, Build901 2013/11/27)

>  <Rbt.Parameter_File>
/export/apps/rDock/src/rDock_2013.1_src/data/scripts/dock_solv.prm

>  <Rbt.Receptor>
prm/blind_docking_40.prm

>  <SCORE>
35.6622

>  <SCORE.INTER>
9.46861

>  <SCORE.INTER.CONST>
1

>  <SCORE.INTER.POLAR>
0

>  <SCORE.INTER.ROT>
10

>  <SCORE.INTER.SOLV>
16.3355

>  <SCORE.INTER.VDW>
-9.39943

>  <SCORE.INTER.norm>
0.236715

>  <SCORE.INTRA>
4.46854

>  <SCORE.INTRA.DIHEDRAL>
-12.5815

>  <SCORE.INTRA.DIHEDRAL.0>
28.2802

>  <SCORE.INTRA.POLAR>
0

>  <SCORE.INTRA.POLAR.0>
0

>  <SCORE.INTRA.REPUL>
0

>  <SCORE.INTRA.REPUL.0>
0

>  <SCORE.INTRA.SOLV>
16.1098

>  <SCORE.INTRA.SOLV.lig_0>
-101.981

>  <SCORE.INTRA.VDW>
2.70438

>  <SCORE.INTRA.VDW.0>
-5.72964

>  <SCORE.INTRA.norm>
0.111714

>  <SCORE.RESTR>
21.7251

>  <SCORE.RESTR.CAVITY>
21.7251

>  <SCORE.RESTR.norm>
0.543126

>  <SCORE.SYSTEM>
0

>  <SCORE.SYSTEM.CONST>
0

>  <SCORE.SYSTEM.DIHEDRAL>
0

>  <SCORE.SYSTEM.SOLV>
0

>  <SCORE.SYSTEM.norm>
0

>  <SCORE.heavy>
40

>  <SCORE.norm>
0.891555

>  <RMSD>
13.194

$$$$
ligand
 OpenBabel11021811503D
libRbt.so/2013.1/901 2013/11/27
 40 42  0  0  0  0  0  0  0  0999 V2000
   -2.1699   -0.6022   10.4754 C   0  0  2  0  0  0  0  0  0  0  0  0
   -1.6767   -1.0527    9.2038 O   0  0  0  0  0  0  0  0  0  0  0  0
   -3.5375    0.1584   10.3009 C   0  0  1  0  0  0  0  0  0  0  0  0
   -3.3584    1.4809    9.4998 C   0  0  2  0  0  0  0  0  0  0  0  0
   -2.3566    2.3821   10.2888 C   0  0  2  0  0  0  0  0  0  0  0  0
   -2.1859    3.6318    9.5861 O   0  0  0  0  0  0  0  0  0  0  0  0
   -0.9715    1.6087   10.4112 C   0  0  2  0  0  0  0  0  0  0  0  0
   -1.1816    0.3065   11.1395 O   0  0  0  0  0  0  0  0  0  0  0  0
    0.0724    2.4006   11.1866 C   0  0  0  0  0  0  0  0  0  0  0  0
   -0.4385    2.8138   12.5316 N   0  0  0  0  0  0  0  0  0  0  0  0
   -2.4067   -4.9431    7.2904 C   0  0  2  0  0  0  0  0  0  0  0  0
   -3.0838   -5.9956    6.5691 N   0  0  0  0  0  0  0  0  0  0  0  0
   -3.2286   -4.5805    8.5927 C   0  0  0  0  0  0  0  0  0  0  0  0
   -2.4954   -3.4161    9.3972 C   0  0  2  0  0  0  0  0  0  0  0  0
   -3.2602   -3.0880   10.6289 N   0  0  0  0  0  0  0  0  0  0  0  0
   -2.3477   -2.1360    8.4503 C   0  0  2  0  0  0  0  0  0  0  0  0
   -1.5195   -2.5502    7.1602 C   0  0  2  0  0  0  0  0  0  0  0  0
   -1.3787   -1.4109    6.3085 O   0  0  0  0  0  0  0  0  0  0  0  0
   -2.2552   -3.7070    6.3754 C   0  0  1  0  0  0  0  0  0  0  0  0
   -1.4769   -4.0875    5.2134 O   0  0  0  0  0  0  0  0  0  0  0  0
   -0.3616   -4.9126    5.2303 C   0  0  2  0  0  0  0  0  0  0  0  0
    0.3029   -4.8369    3.8098 C   0  0  2  0  0  0  0  0  0  0  0  0
    0.6281   -3.5171    3.5135 O   0  0  0  0  0  0  0  0  0  0  0  0
   -0.6299   -5.4637    2.6880 C   0  0  1  0  0  0  0  0  0  0  0  0
    0.0270   -5.3926    1.3463 N   0  0  0  0  0  0  0  0  0  0  0  0
   -0.9594   -6.9693    3.0827 C   0  0  2  0  0  0  0  0  0  0  0  0
   -1.7911   -7.5849    2.0913 O   0  0  0  0  0  0  0  0  0  0  0  0
   -1.6537   -6.9644    4.4993 C   0  0  2  0  0  0  0  0  0  0  0  0
   -0.7547   -6.3111    5.5403 O   0  0  0  0  0  0  0  0  0  0  0  0
   -1.9795   -8.3678    4.9518 C   0  0  0  0  0  0  0  0  0  0  0  0
   -0.8479   -9.2543    4.8727 O   0  0  0  0  0  0  0  0  0  0  0  0
   -4.4729   -0.7314    9.6248 O   0  0  0  0  0  0  0  0  0  0  0  0
   -4.5761    2.1074    9.3889 O   0  0  0  0  0  0  0  0  0  0  0  0
   -4.3774   -5.7251    5.9856 C   0  0  0  0  0  0  0  0  0  0  0  0
   -5.0910   -4.7847    6.4453 O   0  0  0  0  0  0  0  0  0  0  0  0
   -4.8454   -6.6230    4.7993 C   0  0  2  0  0  0  0  0  0  0  0  0
   -4.9352   -3.6821    4.1024 N   0  0  0  0  0  0  0  0  0  0  0  0
   -5.9947   -5.9364    3.9986 C   0  0  0  0  0  0  0  0  0  0  0  0
   -5.5306   -4.7025    3.2066 C   0  0  0  0  0  0  0  0  0  0  0  0
   -5.3218   -7.7371    5.1864 O   0  0  0  0  0  0  0  0  0  0  0  0
  1  2  1  6  0  0  0
  1  3  1  0  0  0  0
  1  8  1  0  0  0  0
  3  4  1  0  0  0  0
  3 32  1  6  0  0  0
  4  5  1  0  0  0  0
  4 33  1  1  0  0  0
  5  6  1  6  0  0  0
  5  7  1  0  0  0  0
  7  8  1  0  0  0  0
  7  9  1  1  0  0  0
  9 10  1  0  0  0  0
 11 12  1  6  0  0  0
 11 13  1  0  0  0  0
 11 19  1  0  0  0  0
 12 34  1  0  0  0  0
 13 14  1  0  0  0  0
 14 15  1  1  0  0  0
 14 16  1  0  0  0  0
 16  2  1  1  0  0  0
 16 17  1  0  0  0  0
 17 18  1  6  0  0  0
 17 19  1  0  0  0  0
 19 20  1  6  0  0  0
 21 20  1  6  0  0  0
 21 22  1  0  0  0  0
 21 29  1  0  0  0  0
 22 23  1  6  0  0  0
 22 24  1  0  0  0  0
 24 25  1  6  0  0  0
 24 26  1  0  0  0  0
 26 27  1  6  0  0  0
 26 28  1  0  0  0  0
 28 29  1  0  0  0  0
 28 30  1  1  0  0  0
 30 31  1  0  0  0  0
 34 35  2  0  0  0  0
 36 34  1  1  0  0  0
 36 38  1  0  0  0  0
 36 40  1  0  0  0  0
 37 39  1  0  0  0  0
 38 39  1  0  0  0  0
M  END
>  <CHROM.1>
-69.36009007,-53.73525667,54.18030844,65.80069204,-40.60716919,-169.89699106
51.40159882,-161.36630610,69.36732460,-58.59116865,-2.36245059,-3.24727342
6.86644143,1.55208893,0.34087581,0.68935417

>  <Name>
ligand

>  <RI>
0

>  <Rbt.Current_Directory>
/home/itssahil/PROJECTS/Mol_Feturizer/New_Systems/rnas/4P20

>  <Rbt.Executable>
rbdock ($Id: //depot/dev/client3/rdock/2013.1/src/exe/rbdock.cxx#4 $)

>  <Rbt.Library>
libRbt.so (2013.1, Build901 2013/11/27)

>  <Rbt.Parameter_File>
/export/apps/rDock/src/rDock_2013.1_src/data/scripts/dock_solv.prm

>  <Rbt.Receptor>
prm/blind_docking_40.prm

>  <SCORE>
49.3826

>  <SCORE.INTER>
28.2526

>  <SCORE.INTER.CONST>
1

>  <SCORE.INTER.POLAR>
0

>  <SCORE.INTER.ROT>
10

>  <SCORE.INTER.SOLV>
19.7745

>  <SCORE.INTER.VDW>
1.97694

>  <SCORE.INTER.norm>
0.706316

>  <SCORE.INTRA>
-3.82866

>  <SCORE.INTRA.DIHEDRAL>
-23.5756

>  <SCORE.INTRA.DIHEDRAL.0>
28.2802

>  <SCORE.INTRA.POLAR>
0

>  <SCORE.INTRA.POLAR.0>
0

>  <SCORE.INTRA.REPUL>
0

>  <SCORE.INTRA.REPUL.0>
0

>  <SCORE.INTRA.SOLV>
9.14899

>  <SCORE.INTRA.SOLV.lig_0>
-101.981

>  <SCORE.INTRA.VDW>
3.38465

>  <SCORE.INTRA.VDW.0>
-5.72964

>  <SCORE.INTRA.norm>
-0.0957165

>  <SCORE.RESTR>
24.9586

>  <SCORE.RESTR.CAVITY>
24.9586

>  <SCORE.RESTR.norm>
0.623966

>  <SCORE.SYSTEM>
0

>  <SCORE.SYSTEM.CONST>
0

>  <SCORE.SYSTEM.DIHEDRAL>
0

>  <SCORE.SYSTEM.SOLV>
0

>  <SCORE.SYSTEM.norm>
0

>  <SCORE.heavy>
40

>  <SCORE.norm>
1.23457

>  <RMSD>
13.239

$$$$
ligand
 OpenBabel11021811503D
libRbt.so/2013.1/901 2013/11/27
 40 42  0  0  0  0  0  0  0  0999 V2000
   -3.1175    0.8760    9.8370 C   0  0  2  0  0  0  0  0  0  0  0  0
   -2.7166   -0.4857    9.6174 O   0  0  0  0  0  0  0  0  0  0  0  0
   -1.8858    1.8461    9.6919 C   0  0  1  0  0  0  0  0  0  0  0  0
   -0.8300    1.6013   10.8091 C   0  0  2  0  0  0  0  0  0  0  0  0
   -1.5283    1.8459   12.1842 C   0  0  2  0  0  0  0  0  0  0  0  0
   -0.5692    1.6525   13.2459 O   0  0  0  0  0  0  0  0  0  0  0  0
   -2.7395    0.8237   12.3235 C   0  0  2  0  0  0  0  0  0  0  0  0
   -3.7182    1.0423   11.1990 O   0  0  0  0  0  0  0  0  0  0  0  0
   -3.5016    0.9966   13.6302 C   0  0  0  0  0  0  0  0  0  0  0  0
   -4.9407    0.6123   13.4823 N   0  0  0  0  0  0  0  0  0  0  0  0
   -3.1847   -3.5994    6.5490 C   0  0  2  0  0  0  0  0  0  0  0  0
   -3.7857   -4.3996    5.5073 N   0  0  0  0  0  0  0  0  0  0  0  0
   -4.0538   -3.7066    7.8666 C   0  0  0  0  0  0  0  0  0  0  0  0
   -3.4050   -2.8241    9.0246 C   0  0  2  0  0  0  0  0  0  0  0  0
   -4.2136   -2.9389   10.2666 N   0  0  0  0  0  0  0  0  0  0  0  0
   -3.3090   -1.3046    8.5357 C   0  0  2  0  0  0  0  0  0  0  0  0
   -2.4310   -1.2499    7.2136 C   0  0  2  0  0  0  0  0  0  0  0  0
   -2.3360    0.1057    6.7704 O   0  0  0  0  0  0  0  0  0  0  0  0
   -3.0831   -2.1315    6.0766 C   0  0  1  0  0  0  0  0  0  0  0  0
   -2.2596   -2.0878    4.8848 O   0  0  0  0  0  0  0  0  0  0  0  0
   -0.8830   -2.2581    4.8544 C   0  0  2  0  0  0  0  0  0  0  0  0
   -0.4236   -2.1229    3.3592 C   0  0  2  0  0  0  0  0  0  0  0  0
   -0.8126   -0.8846    2.8588 O   0  0  0  0  0  0  0  0  0  0  0  0
   -0.9836   -3.3064    2.4608 C   0  0  1  0  0  0  0  0  0  0  0  0
   -0.5241   -3.1651    1.0445 N   0  0  0  0  0  0  0  0  0  0  0  0
   -0.5007   -4.6893    3.0817 C   0  0  2  0  0  0  0  0  0  0  0  0
   -0.9715   -5.7917    2.2965 O   0  0  0  0  0  0  0  0  0  0  0  0
   -1.0261   -4.7702    4.5671 C   0  0  2  0  0  0  0  0  0  0  0  0
   -0.5131   -3.5944    5.3873 O   0  0  0  0  0  0  0  0  0  0  0  0
   -0.5876   -6.0534    5.2316 C   0  0  0  0  0  0  0  0  0  0  0  0
    0.5573   -5.8740    6.0859 O   0  0  0  0  0  0  0  0  0  0  0  0
   -1.2978    1.6450    8.3737 O   0  0  0  0  0  0  0  0  0  0  0  0
    0.2128    2.4801   10.6421 O   0  0  0  0  0  0  0  0  0  0  0  0
   -4.0188   -5.8046    5.7496 C   0  0  0  0  0  0  0  0  0  0  0  0
   -3.3402   -6.4125    6.6299 O   0  0  0  0  0  0  0  0  0  0  0  0
   -5.1108   -6.5210    4.8970 C   0  0  2  0  0  0  0  0  0  0  0  0
   -2.6131   -9.1188    5.1874 N   0  0  0  0  0  0  0  0  0  0  0  0
   -4.8356   -8.0541    4.8112 C   0  0  0  0  0  0  0  0  0  0  0  0
   -3.4604   -8.3921    4.2116 C   0  0  0  0  0  0  0  0  0  0  0  0
   -5.1367   -6.1142    3.6921 O   0  0  0  0  0  0  0  0  0  0  0  0
  1  2  1  1  0  0  0
  1  3  1  0  0  0  0
  1  8  1  0  0  0  0
  3  4  1  0  0  0  0
  3 32  1  6  0  0  0
  4  5  1  0  0  0  0
  4 33  1  6  0  0  0
  5  6  1  1  0  0  0
  5  7  1  0  0  0  0
  7  8  1  0  0  0  0
  7  9  1  1  0  0  0
  9 10  1  0  0  0  0
 11 12  1  6  0  0  0
 11 13  1  0  0  0  0
 11 19  1  0  0  0  0
 12 34  1  0  0  0  0
 13 14  1  0  0  0  0
 14 15  1  1  0  0  0
 14 16  1  0  0  0  0
 16  2  1  1  0  0  0
 16 17  1  0  0  0  0
 17 18  1  6  0  0  0
 17 19  1  0  0  0  0
 19 20  1  6  0  0  0
 21 20  1  6  0  0  0
 21 22  1  0  0  0  0
 21 29  1  0  0  0  0
 22 23  1  6  0  0  0
 22 24  1  0  0  0  0
 24 25  1  6  0  0  0
 24 26  1  0  0  0  0
 26 27  1  6  0  0  0
 26 28  1  0  0  0  0
 28 29  1  0  0  0  0
 28 30  1  1  0  0  0
 30 31  1  0  0  0  0
 34 35  2  0  0  0  0
 36 34  1  1  0  0  0
 36 38  1  0  0  0  0
 36 40  1  0  0  0  0
 37 39  1  0  0  0  0
 38 39  1  0  0  0  0
M  END
>  <CHROM.1>
-120.29612028,-145.86212738,150.45903187,-56.37060199,-72.85213838,-179.70981496
99.90770662,155.44918176,-58.07413112,118.08492215,-2.31996674,-2.53383359
7.10274915,1.56878253,0.91010726,0.82032208

>  <Name>
ligand

>  <RI>
0

>  <Rbt.Current_Directory>
/home/itssahil/PROJECTS/Mol_Feturizer/New_Systems/rnas/4P20

>  <Rbt.Executable>
rbdock ($Id: //depot/dev/client3/rdock/2013.1/src/exe/rbdock.cxx#4 $)

>  <Rbt.Library>
libRbt.so (2013.1, Build901 2013/11/27)

>  <Rbt.Parameter_File>
/export/apps/rDock/src/rDock_2013.1_src/data/scripts/dock_solv.prm

>  <Rbt.Receptor>
prm/blind_docking_40.prm

>  <SCORE>
52.0352

>  <SCORE.INTER>
22.5298

>  <SCORE.INTER.CONST>
1

>  <SCORE.INTER.POLAR>
0

>  <SCORE.INTER.ROT>
10

>  <SCORE.INTER.SOLV>
23.9949

>  <SCORE.INTER.VDW>
-3.24511

>  <SCORE.INTER.norm>
0.563244

>  <SCORE.INTRA>
2.18633

>  <SCORE.INTRA.DIHEDRAL>
-2.48194

>  <SCORE.INTRA.DIHEDRAL.0>
28.2802

>  <SCORE.INTRA.POLAR>
0

>  <SCORE.INTRA.POLAR.0>
0

>  <SCORE.INTRA.REPUL>
0

>  <SCORE.INTRA.REPUL.0>
0

>  <SCORE.INTRA.SOLV>
2.90229

>  <SCORE.INTRA.SOLV.lig_0>
-101.981

>  <SCORE.INTRA.VDW>
1.97616

>  <SCORE.INTRA.VDW.0>
-5.72964

>  <SCORE.INTRA.norm>
0.0546583

>  <SCORE.RESTR>
27.3191

>  <SCORE.RESTR.CAVITY>
27.3191

>  <SCORE.RESTR.norm>
0.682978

>  <SCORE.SYSTEM>
0

>  <SCORE.SYSTEM.CONST>
0

>  <SCORE.SYSTEM.DIHEDRAL>
0

>  <SCORE.SYSTEM.SOLV>
0

>  <SCORE.SYSTEM.norm>
0

>  <SCORE.heavy>
40

>  <SCORE.norm>
1.30088

>  <RMSD>
13.399

$$$$
ligand
 OpenBabel11021811503D
libRbt.so/2013.1/901 2013/11/27
 40 42  0  0  0  0  0  0  0  0999 V2000
   -2.2203    1.1560    9.7122 C   0  0  2  0  0  0  0  0  0  0  0  0
   -2.6528   -0.1785    9.4041 O   0  0  0  0  0  0  0  0  0  0  0  0
   -1.0402    1.1289   10.7543 C   0  0  1  0  0  0  0  0  0  0  0  0
   -1.5074    0.5788   12.1334 C   0  0  2  0  0  0  0  0  0  0  0  0
   -2.6446    1.5123   12.6565 C   0  0  2  0  0  0  0  0  0  0  0  0
   -3.0858    1.0460   13.9497 O   0  0  0  0  0  0  0  0  0  0  0  0
   -3.8409    1.4859   11.6078 C   0  0  2  0  0  0  0  0  0  0  0  0
   -3.3497    1.9682   10.2675 O   0  0  0  0  0  0  0  0  0  0  0  0
   -4.9977    2.3861   12.0195 C   0  0  0  0  0  0  0  0  0  0  0  0
   -6.2256    2.1082   11.2098 N   0  0  0  0  0  0  0  0  0  0  0  0
   -1.6130   -3.0394    6.2318 C   0  0  2  0  0  0  0  0  0  0  0  0
   -0.8166   -3.8915    5.3796 N   0  0  0  0  0  0  0  0  0  0  0  0
   -1.1336   -1.5397    6.0774 C   0  0  0  0  0  0  0  0  0  0  0  0
   -2.0009   -0.5874    7.0164 C   0  0  2  0  0  0  0  0  0  0  0  0
   -1.5601    0.8233    6.8579 N   0  0  0  0  0  0  0  0  0  0  0  0
   -1.8554   -1.0716    8.5334 C   0  0  2  0  0  0  0  0  0  0  0  0
   -2.3460   -2.5785    8.6360 C   0  0  2  0  0  0  0  0  0  0  0  0
   -2.2232   -3.0196    9.9901 O   0  0  0  0  0  0  0  0  0  0  0  0
   -1.4809   -3.5095    7.6979 C   0  0  1  0  0  0  0  0  0  0  0  0
   -1.9544   -4.8765    7.7871 O   0  0  0  0  0  0  0  0  0  0  0  0
   -3.2703   -5.2566    8.0082 C   0  0  2  0  0  0  0  0  0  0  0  0
   -3.7260   -6.1175    6.7768 C   0  0  2  0  0  0  0  0  0  0  0  0
   -2.8791   -7.2112    6.6296 O   0  0  0  0  0  0  0  0  0  0  0  0
   -3.7869   -5.2554    5.4447 C   0  0  1  0  0  0  0  0  0  0  0  0
   -4.2349   -6.0911    4.2880 N   0  0  0  0  0  0  0  0  0  0  0  0
   -4.7723   -4.0281    5.6770 C   0  0  2  0  0  0  0  0  0  0  0  0
   -4.8714   -3.2243    4.4949 O   0  0  0  0  0  0  0  0  0  0  0  0
   -4.2345   -3.1924    6.9023 C   0  0  2  0  0  0  0  0  0  0  0  0
   -4.1397   -4.0605    8.1496 O   0  0  0  0  0  0  0  0  0  0  0  0
   -5.1343   -2.0160    7.1971 C   0  0  0  0  0  0  0  0  0  0  0  0
   -4.8489   -1.4025    8.4679 O   0  0  0  0  0  0  0  0  0  0  0  0
    0.0333    0.3082   10.2086 O   0  0  0  0  0  0  0  0  0  0  0  0
   -0.4450    0.5893   13.0045 O   0  0  0  0  0  0  0  0  0  0  0  0
   -0.6473   -3.5319    3.9907 C   0  0  0  0  0  0  0  0  0  0  0  0
   -1.4959   -2.7782    3.4278 O   0  0  0  0  0  0  0  0  0  0  0  0
    0.5915   -4.1029    3.2345 C   0  0  2  0  0  0  0  0  0  0  0  0
   -1.2846   -6.2272    4.6179 N   0  0  0  0  0  0  0  0  0  0  0  0
    0.9446   -5.5350    3.7423 C   0  0  0  0  0  0  0  0  0  0  0  0
   -0.2248   -6.5269    3.6253 C   0  0  0  0  0  0  0  0  0  0  0  0
    1.6416   -3.4097    3.4209 O   0  0  0  0  0  0  0  0  0  0  0  0
  1  2  1  1  0  0  0
  1  3  1  0  0  0  0
  1  8  1  0  0  0  0
  3  4  1  0  0  0  0
  3 32  1  6  0  0  0
  4  5  1  0  0  0  0
  4 33  1  1  0  0  0
  5  6  1  1  0  0  0
  5  7  1  0  0  0  0
  7  8  1  0  0  0  0
  7  9  1  1  0  0  0
  9 10  1  0  0  0  0
 11 12  1  6  0  0  0
 11 13  1  0  0  0  0
 11 19  1  0  0  0  0
 12 34  1  0  0  0  0
 13 14  1  0  0  0  0
 14 15  1  1  0  0  0
 14 16  1  0  0  0  0
 16  2  1  1  0  0  0
 16 17  1  0  0  0  0
 17 18  1  1  0  0  0
 17 19  1  0  0  0  0
 19 20  1  6  0  0  0
 21 20  1  6  0  0  0
 21 22  1  0  0  0  0
 21 29  1  0  0  0  0
 22 23  1  6  0  0  0
 22 24  1  0  0  0  0
 24 25  1  6  0  0  0
 24 26  1  0  0  0  0
 26 27  1  6  0  0  0
 26 28  1  0  0  0  0
 28 29  1  0  0  0  0
 28 30  1  1  0  0  0
 30 31  1  0  0  0  0
 34 35  2  0  0  0  0
 36 34  1  1  0  0  0
 36 38  1  0  0  0  0
 36 40  1  0  0  0  0
 37 39  1  0  0  0  0
 38 39  1  0  0  0  0
M  END
>  <CHROM.1>
-74.77907789,-74.01925402,-166.57675459,-50.20390726,-87.77561747,120.06501939
167.37533892,34.18271963,56.57381239,-71.43617992,-2.38410356,-2.21998475
7.76146216,-1.72420743,-0.35978031,-2.35589381

>  <Name>
ligand

>  <RI>
0

>  <Rbt.Current_Directory>
/home/itssahil/PROJECTS/Mol_Feturizer/New_Systems/rnas/4P20

>  <Rbt.Executable>
rbdock ($Id: //depot/dev/client3/rdock/2013.1/src/exe/rbdock.cxx#4 $)

>  <Rbt.Library>
libRbt.so (2013.1, Build901 2013/11/27)

>  <Rbt.Parameter_File>
/export/apps/rDock/src/rDock_2013.1_src/data/scripts/dock_solv.prm

>  <Rbt.Receptor>
prm/blind_docking_40.prm

>  <SCORE>
49.1895

>  <SCORE.INTER>
12.4198

>  <SCORE.INTER.CONST>
1

>  <SCORE.INTER.POLAR>
0

>  <SCORE.INTER.ROT>
10

>  <SCORE.INTER.SOLV>
14.0086

>  <SCORE.INTER.VDW>
-6.65631

>  <SCORE.INTER.norm>
0.310496

>  <SCORE.INTRA>
12.2905

>  <SCORE.INTRA.DIHEDRAL>
-12.7128

>  <SCORE.INTRA.DIHEDRAL.0>
28.2802

>  <SCORE.INTRA.POLAR>
0

>  <SCORE.INTRA.POLAR.0>
0

>  <SCORE.INTRA.REPUL>
0.209343

>  <SCORE.INTRA.REPUL.0>
0

>  <SCORE.INTRA.SOLV>
13.2586

>  <SCORE.INTRA.SOLV.lig_0>
-101.981

>  <SCORE.INTRA.VDW>
10.9709

>  <SCORE.INTRA.VDW.0>
-5.72964

>  <SCORE.INTRA.norm>
0.307263

>  <SCORE.RESTR>
24.4791

>  <SCORE.RESTR.CAVITY>
24.4791

>  <SCORE.RESTR.norm>
0.611978

>  <SCORE.SYSTEM>
0

>  <SCORE.SYSTEM.CONST>
0

>  <SCORE.SYSTEM.DIHEDRAL>
0

>  <SCORE.SYSTEM.SOLV>
0

>  <SCORE.SYSTEM.norm>
0

>  <SCORE.heavy>
40

>  <SCORE.norm>
1.22974

>  <RMSD>
13.482

$$$$
ligand
 OpenBabel11021811503D
libRbt.so/2013.1/901 2013/11/27
 40 42  0  0  0  0  0  0  0  0999 V2000
   -1.7396    1.7336   10.9743 C   0  0  2  0  0  0  0  0  0  0  0  0
   -0.9803    0.5200   10.8579 O   0  0  0  0  0  0  0  0  0  0  0  0
   -1.9519    2.1109   12.4882 C   0  0  1  0  0  0  0  0  0  0  0  0
   -2.8409    1.0632   13.2197 C   0  0  2  0  0  0  0  0  0  0  0  0
   -4.2223    1.0226   12.4930 C   0  0  2  0  0  0  0  0  0  0  0  0
   -5.0844    0.0774   13.1623 O   0  0  0  0  0  0  0  0  0  0  0  0
   -3.9832    0.5959   10.9789 C   0  0  2  0  0  0  0  0  0  0  0  0
   -3.0745    1.5939   10.3094 O   0  0  0  0  0  0  0  0  0  0  0  0
   -5.2757    0.5466   10.1756 C   0  0  0  0  0  0  0  0  0  0  0  0
   -5.0810   -0.1468    8.8634 N   0  0  0  0  0  0  0  0  0  0  0  0
   -1.5058   -0.5876    6.6357 C   0  0  2  0  0  0  0  0  0  0  0  0
   -1.2809   -1.2335    5.3634 N   0  0  0  0  0  0  0  0  0  0  0  0
   -0.2238    0.2469    7.0394 C   0  0  0  0  0  0  0  0  0  0  0  0
   -0.4554    0.9622    8.4449 C   0  0  2  0  0  0  0  0  0  0  0  0
    0.7436    1.7591    8.8149 N   0  0  0  0  0  0  0  0  0  0  0  0
   -0.7769   -0.1463    9.5516 C   0  0  2  0  0  0  0  0  0  0  0  0
   -2.0667   -0.9559    9.1014 C   0  0  2  0  0  0  0  0  0  0  0  0
   -2.3647   -1.9475   10.0868 O   0  0  0  0  0  0  0  0  0  0  0  0
   -1.8246   -1.6557    7.7061 C   0  0  1  0  0  0  0  0  0  0  0  0
   -3.0171   -2.3723    7.2999 O   0  0  0  0  0  0  0  0  0  0  0  0
   -3.7339   -3.2531    8.0969 C   0  0  2  0  0  0  0  0  0  0  0  0
   -3.0925   -4.6756    7.9232 C   0  0  2  0  0  0  0  0  0  0  0  0
   -1.7459   -4.6286    8.2689 O   0  0  0  0  0  0  0  0  0  0  0  0
   -3.2875   -5.2347    6.4498 C   0  0  1  0  0  0  0  0  0  0  0  0
   -2.6806   -6.5945    6.3101 N   0  0  0  0  0  0  0  0  0  0  0  0
   -4.8434   -5.2678    6.1196 C   0  0  2  0  0  0  0  0  0  0  0  0
   -5.0730   -5.7789    4.8006 O   0  0  0  0  0  0  0  0  0  0  0  0
   -5.4103   -3.8043    6.2804 C   0  0  2  0  0  0  0  0  0  0  0  0
   -5.1617   -3.2794    7.6879 O   0  0  0  0  0  0  0  0  0  0  0  0
   -6.8938   -3.7604    6.0011 C   0  0  0  0  0  0  0  0  0  0  0  0
   -7.2444   -4.3956    4.7576 O   0  0  0  0  0  0  0  0  0  0  0  0
   -0.6436    2.2100   13.1229 O   0  0  0  0  0  0  0  0  0  0  0  0
   -3.0030    1.4474   14.5288 O   0  0  0  0  0  0  0  0  0  0  0  0
   -0.2639   -2.2549    5.2662 C   0  0  0  0  0  0  0  0  0  0  0  0
    0.6845   -2.2805    6.1057 O   0  0  0  0  0  0  0  0  0  0  0  0
   -0.3805   -3.2935    4.1085 C   0  0  2  0  0  0  0  0  0  0  0  0
   -0.1458   -6.4646    3.9920 N   0  0  0  0  0  0  0  0  0  0  0  0
   -1.4443   -4.3847    4.4421 C   0  0  0  0  0  0  0  0  0  0  0  0
   -1.3111   -5.6482    3.5755 C   0  0  0  0  0  0  0  0  0  0  0  0
    0.7036   -3.9281    3.9086 O   0  0  0  0  0  0  0  0  0  0  0  0
  1  2  1  1  0  0  0
  1  3  1  0  0  0  0
  1  8  1  0  0  0  0
  3  4  1  0  0  0  0
  3 32  1  1  0  0  0
  4  5  1  0  0  0  0
  4 33  1  1  0  0  0
  5  6  1  1  0  0  0
  5  7  1  0  0  0  0
  7  8  1  0  0  0  0
  7  9  1  6  0  0  0
  9 10  1  0  0  0  0
 11 12  1  6  0  0  0
 11 13  1  0  0  0  0
 11 19  1  0  0  0  0
 12 34  1  0  0  0  0
 13 14  1  0  0  0  0
 14 15  1  1  0  0  0
 14 16  1  0  0  0  0
 16  2  1  1  0  0  0
 16 17  1  0  0  0  0
 17 18  1  1  0  0  0
 17 19  1  0  0  0  0
 19 20  1  6  0  0  0
 21 20  1  6  0  0  0
 21 22  1  0  0  0  0
 21 29  1  0  0  0  0
 22 23  1  6  0  0  0
 22 24  1  0  0  0  0
 24 25  1  1  0  0  0
 24 26  1  0  0  0  0
 26 27  1  6  0  0  0
 26 28  1  0  0  0  0
 28 29  1  0  0  0  0
 28 30  1  1  0  0  0
 30 31  1  0  0  0  0
 34 35  2  0  0  0  0
 36 34  1  1  0  0  0
 36 38  1  0  0  0  0
 36 40  1  0  0  0  0
 37 39  1  0  0  0  0
 38 39  1  0  0  0  0
M  END
>  <CHROM.1>
172.52972975,42.38302774,-167.04355361,65.43910928,-169.08225051,-87.72506712
-50.31642828,-78.28914965,-162.36215612,74.15077033,-2.56527545,-1.81124239
8.15654909,-1.55688774,-0.35145502,-2.28383214

>  <Name>
ligand

>  <RI>
0

>  <Rbt.Current_Directory>
/home/itssahil/PROJECTS/Mol_Feturizer/New_Systems/rnas/4P20

>  <Rbt.Executable>
rbdock ($Id: //depot/dev/client3/rdock/2013.1/src/exe/rbdock.cxx#4 $)

>  <Rbt.Library>
libRbt.so (2013.1, Build901 2013/11/27)

>  <Rbt.Parameter_File>
/export/apps/rDock/src/rDock_2013.1_src/data/scripts/dock_solv.prm

>  <Rbt.Receptor>
prm/blind_docking_40.prm

>  <SCORE>
44.2154

>  <SCORE.INTER>
19.1037

>  <SCORE.INTER.CONST>
1

>  <SCORE.INTER.POLAR>
0

>  <SCORE.INTER.ROT>
10

>  <SCORE.INTER.SOLV>
21.069

>  <SCORE.INTER.VDW>
-4.55388

>  <SCORE.INTER.norm>
0.477592

>  <SCORE.INTRA>
-1.27461

>  <SCORE.INTRA.DIHEDRAL>
-18.9964

>  <SCORE.INTRA.DIHEDRAL.0>
28.2802

>  <SCORE.INTRA.POLAR>
0

>  <SCORE.INTRA.POLAR.0>
0

>  <SCORE.INTRA.REPUL>
0

>  <SCORE.INTRA.REPUL.0>
0

>  <SCORE.INTRA.SOLV>
10.1874

>  <SCORE.INTRA.SOLV.lig_0>
-101.981

>  <SCORE.INTRA.VDW>
3.12986

>  <SCORE.INTRA.VDW.0>
-5.72964

>  <SCORE.INTRA.norm>
-0.0318653

>  <SCORE.RESTR>
26.3864

>  <SCORE.RESTR.CAVITY>
26.3864

>  <SCORE.RESTR.norm>
0.659659

>  <SCORE.SYSTEM>
0

>  <SCORE.SYSTEM.CONST>
0

>  <SCORE.SYSTEM.DIHEDRAL>
0

>  <SCORE.SYSTEM.SOLV>
0

>  <SCORE.SYSTEM.norm>
0

>  <SCORE.heavy>
40

>  <SCORE.norm>
1.10539

>  <RMSD>
13.554

$$$$
ligand
 OpenBabel11021811503D
libRbt.so/2013.1/901 2013/11/27
 40 42  0  0  0  0  0  0  0  0999 V2000
   -1.7898   -1.2186    9.6874 C   0  0  2  0  0  0  0  0  0  0  0  0
   -2.5223   -1.8459    8.6230 O   0  0  0  0  0  0  0  0  0  0  0  0
   -2.7649   -0.7613   10.8361 C   0  0  1  0  0  0  0  0  0  0  0  0
   -3.7274    0.3636   10.3553 C   0  0  2  0  0  0  0  0  0  0  0  0
   -2.8528    1.5743    9.8997 C   0  0  2  0  0  0  0  0  0  0  0  0
   -3.7155    2.6494    9.4703 O   0  0  0  0  0  0  0  0  0  0  0  0
   -1.9105    1.0962    8.7102 C   0  0  2  0  0  0  0  0  0  0  0  0
   -1.0294   -0.0304    9.1841 O   0  0  0  0  0  0  0  0  0  0  0  0
   -0.9984    2.2063    8.2063 C   0  0  0  0  0  0  0  0  0  0  0  0
    0.0448    2.5627    9.2188 N   0  0  0  0  0  0  0  0  0  0  0  0
   -1.6244   -3.7630    4.7696 C   0  0  2  0  0  0  0  0  0  0  0  0
   -0.9411   -4.5560    3.7743 N   0  0  0  0  0  0  0  0  0  0  0  0
   -0.6673   -2.6095    5.2758 C   0  0  0  0  0  0  0  0  0  0  0  0
   -1.4066   -1.7281    6.3791 C   0  0  2  0  0  0  0  0  0  0  0  0
   -0.5118   -0.6350    6.8417 N   0  0  0  0  0  0  0  0  0  0  0  0
   -1.8461   -2.6691    7.5950 C   0  0  2  0  0  0  0  0  0  0  0  0
   -2.8014   -3.8084    7.0374 C   0  0  2  0  0  0  0  0  0  0  0  0
   -3.2030   -4.6533    8.1182 O   0  0  0  0  0  0  0  0  0  0  0  0
   -2.0576   -4.6708    5.9427 C   0  0  1  0  0  0  0  0  0  0  0  0
   -2.9490   -5.6919    5.4294 O   0  0  0  0  0  0  0  0  0  0  0  0
   -3.3779   -6.8089    6.1316 C   0  0  2  0  0  0  0  0  0  0  0  0
   -2.6099   -8.0516    5.5563 C   0  0  2  0  0  0  0  0  0  0  0  0
   -1.2383   -7.8507    5.6725 O   0  0  0  0  0  0  0  0  0  0  0  0
   -3.0201   -8.3542    4.0525 C   0  0  1  0  0  0  0  0  0  0  0  0
   -2.2868   -9.5480    3.5290 N   0  0  0  0  0  0  0  0  0  0  0  0
   -4.5939   -8.5787    3.9894 C   0  0  2  0  0  0  0  0  0  0  0  0
   -5.0132   -8.8688    2.6502 O   0  0  0  0  0  0  0  0  0  0  0  0
   -5.2971   -7.2817    4.5483 C   0  0  2  0  0  0  0  0  0  0  0  0
   -4.8435   -6.9913    5.9725 O   0  0  0  0  0  0  0  0  0  0  0  0
   -6.8000   -7.4290    4.5383 C   0  0  0  0  0  0  0  0  0  0  0  0
   -7.3340   -7.5899    3.2110 O   0  0  0  0  0  0  0  0  0  0  0  0
   -3.5168   -1.9249   11.2884 O   0  0  0  0  0  0  0  0  0  0  0  0
   -4.5439    0.7318   11.3971 O   0  0  0  0  0  0  0  0  0  0  0  0
    0.1312   -5.4302    4.1902 C   0  0  0  0  0  0  0  0  0  0  0  0
    0.7490   -5.1980    5.2716 O   0  0  0  0  0  0  0  0  0  0  0  0
    0.4877   -6.6374    3.2693 C   0  0  2  0  0  0  0  0  0  0  0  0
    1.0310   -6.8577   -0.5805 N   0  0  0  0  0  0  0  0  0  0  0  0
    0.5128   -6.2078    1.7699 C   0  0  0  0  0  0  0  0  0  0  0  0
    0.9743   -7.3292    0.8240 C   0  0  0  0  0  0  0  0  0  0  0  0
   -0.3685   -7.5756    3.3379 O   0  0  0  0  0  0  0  0  0  0  0  0
  1  2  1  6  0  0  0
  1  3  1  0  0  0  0
  1  8  1  0  0  0  0
  3  4  1  0  0  0  0
  3 32  1  6  0  0  0
  4  5  1  0  0  0  0
  4 33  1  1  0  0  0
  5  6  1  6  0  0  0
  5  7  1  0  0  0  0
  7  8  1  0  0  0  0
  7  9  1  1  0  0  0
  9 10  1  0  0  0  0
 11 12  1  6  0  0  0
 11 13  1  0  0  0  0
 11 19  1  0  0  0  0
 12 34  1  0  0  0  0
 13 14  1  0  0  0  0
 14 15  1  1  0  0  0
 14 16  1  0  0  0  0
 16  2  1  1  0  0  0
 16 17  1  0  0  0  0
 17 18  1  1  0  0  0
 17 19  1  0  0  0  0
 19 20  1  6  0  0  0
 21 20  1  6  0  0  0
 21 22  1  0  0  0  0
 21 29  1  0  0  0  0
 22 23  1  6  0  0  0
 22 24  1  0  0  0  0
 24 25  1  1  0  0  0
 24 26  1  0  0  0  0
 26 27  1  6  0  0  0
 26 28  1  0  0  0  0
 28 29  1  0  0  0  0
 28 30  1  1  0  0  0
 30 31  1  0  0  0  0
 34 35  2  0  0  0  0
 36 34  1  1  0  0  0
 36 38  1  0  0  0  0
 36 40  1  0  0  0  0
 37 39  1  0  0  0  0
 38 39  1  0  0  0  0
M  END
>  <CHROM.1>
-164.08062066,-89.66240143,69.19393990,71.44833099,169.33305514,-105.86645316
-62.84342541,43.44259384,175.15639362,-177.82688971,-2.29094580,-4.05823118
6.17179155,1.57075662,0.49293673,0.65742692

>  <Name>
ligand

>  <RI>
0

>  <Rbt.Current_Directory>
/home/itssahil/PROJECTS/Mol_Feturizer/New_Systems/rnas/4P20

>  <Rbt.Executable>
rbdock ($Id: //depot/dev/client3/rdock/2013.1/src/exe/rbdock.cxx#4 $)

>  <Rbt.Library>
libRbt.so (2013.1, Build901 2013/11/27)

>  <Rbt.Parameter_File>
/export/apps/rDock/src/rDock_2013.1_src/data/scripts/dock_solv.prm

>  <Rbt.Receptor>
prm/blind_docking_40.prm

>  <SCORE>
50.4226

>  <SCORE.INTER>
18.3178

>  <SCORE.INTER.CONST>
1

>  <SCORE.INTER.POLAR>
0

>  <SCORE.INTER.ROT>
10

>  <SCORE.INTER.SOLV>
14.7794

>  <SCORE.INTER.VDW>
-2.98125

>  <SCORE.INTER.norm>
0.457946

>  <SCORE.INTRA>
-2.17648

>  <SCORE.INTRA.DIHEDRAL>
-15.116

>  <SCORE.INTRA.DIHEDRAL.0>
28.2802

>  <SCORE.INTRA.POLAR>
0

>  <SCORE.INTRA.POLAR.0>
0

>  <SCORE.INTRA.REPUL>
0

>  <SCORE.INTRA.REPUL.0>
0

>  <SCORE.INTRA.SOLV>
6.735

>  <SCORE.INTRA.SOLV.lig_0>
-101.981

>  <SCORE.INTRA.VDW>
2.01401

>  <SCORE.INTRA.VDW.0>
-5.72964

>  <SCORE.INTRA.norm>
-0.0544121

>  <SCORE.RESTR>
34.2813

>  <SCORE.RESTR.CAVITY>
34.2813

>  <SCORE.RESTR.norm>
0.857031

>  <SCORE.SYSTEM>
0

>  <SCORE.SYSTEM.CONST>
0

>  <SCORE.SYSTEM.DIHEDRAL>
0

>  <SCORE.SYSTEM.SOLV>
0

>  <SCORE.SYSTEM.norm>
0

>  <SCORE.heavy>
40

>  <SCORE.norm>
1.26056

>  <RMSD>
14.035

$$$$
ligand
 OpenBabel11021811503D
libRbt.so/2013.1/901 2013/11/27
 40 42  0  0  0  0  0  0  0  0999 V2000
   -4.0793   -5.0149    5.3545 C   0  0  2  0  0  0  0  0  0  0  0  0
   -4.3227   -5.0324    6.7699 O   0  0  0  0  0  0  0  0  0  0  0  0
   -3.6404   -6.4407    4.8505 C   0  0  1  0  0  0  0  0  0  0  0  0
   -2.2631   -6.8580    5.4434 C   0  0  2  0  0  0  0  0  0  0  0  0
   -1.2103   -5.7973    4.9910 C   0  0  2  0  0  0  0  0  0  0  0  0
    0.0881   -6.1674    5.5026 O   0  0  0  0  0  0  0  0  0  0  0  0
   -1.6543   -4.3757    5.5509 C   0  0  2  0  0  0  0  0  0  0  0  0
   -3.0142   -4.0203    5.0084 O   0  0  0  0  0  0  0  0  0  0  0  0
   -0.6971   -3.2636    5.1443 C   0  0  0  0  0  0  0  0  0  0  0  0
   -0.3001   -3.3788    3.7056 N   0  0  0  0  0  0  0  0  0  0  0  0
   -4.1563   -0.8918    8.2388 C   0  0  2  0  0  0  0  0  0  0  0  0
   -4.5123    0.3086    8.9590 N   0  0  0  0  0  0  0  0  0  0  0  0
   -5.3392   -1.2982    7.2701 C   0  0  0  0  0  0  0  0  0  0  0  0
   -4.9626   -2.6252    6.4713 C   0  0  2  0  0  0  0  0  0  0  0  0
   -6.0682   -2.9964    5.5497 N   0  0  0  0  0  0  0  0  0  0  0  0
   -4.6611   -3.7987    7.5149 C   0  0  2  0  0  0  0  0  0  0  0  0
   -3.4713   -3.3434    8.4630 C   0  0  2  0  0  0  0  0  0  0  0  0
   -3.1916   -4.3881    9.3977 O   0  0  0  0  0  0  0  0  0  0  0  0
   -3.8566   -2.0260    9.2447 C   0  0  1  0  0  0  0  0  0  0  0  0
   -2.7533   -1.6126   10.0888 O   0  0  0  0  0  0  0  0  0  0  0  0
   -1.4140   -1.6375    9.7276 C   0  0  2  0  0  0  0  0  0  0  0  0
   -0.6755   -0.5436   10.5778 C   0  0  2  0  0  0  0  0  0  0  0  0
   -0.8607   -0.7981   11.9328 O   0  0  0  0  0  0  0  0  0  0  0  0
   -1.1552    0.9218   10.1984 C   0  0  1  0  0  0  0  0  0  0  0  0
   -0.4307    1.9478   11.0104 N   0  0  0  0  0  0  0  0  0  0  0  0
   -0.9124    1.1501    8.6427 C   0  0  2  0  0  0  0  0  0  0  0  0
   -1.3190    2.4676    8.2522 O   0  0  0  0  0  0  0  0  0  0  0  0
   -1.7093    0.0404    7.8537 C   0  0  2  0  0  0  0  0  0  0  0  0
   -1.2616   -1.3518    8.2779 O   0  0  0  0  0  0  0  0  0  0  0  0
   -1.5097    0.1812    6.3635 C   0  0  0  0  0  0  0  0  0  0  0  0
   -0.1375    0.0004    5.9668 O   0  0  0  0  0  0  0  0  0  0  0  0
   -4.6744   -7.3969    5.2255 O   0  0  0  0  0  0  0  0  0  0  0  0
   -1.9245   -8.0996    4.9622 O   0  0  0  0  0  0  0  0  0  0  0  0
   -5.0470    0.1910   10.2959 C   0  0  0  0  0  0  0  0  0  0  0  0
   -5.5990   -0.8896   10.6601 O   0  0  0  0  0  0  0  0  0  0  0  0
   -4.9221    1.4236   11.2432 C   0  0  2  0  0  0  0  0  0  0  0  0
   -2.0988    0.7656   13.8030 N   0  0  0  0  0  0  0  0  0  0  0  0
   -3.4978    1.5006   11.8749 C   0  0  0  0  0  0  0  0  0  0  0  0
   -3.2390    0.4078   12.9255 C   0  0  0  0  0  0  0  0  0  0  0  0
   -5.7258    1.3685   12.2276 O   0  0  0  0  0  0  0  0  0  0  0  0
  1  2  1  1  0  0  0
  1  3  1  0  0  0  0
  1  8  1  0  0  0  0
  3  4  1  0  0  0  0
  3 32  1  1  0  0  0
  4  5  1  0  0  0  0
  4 33  1  6  0  0  0
  5  6  1  1  0  0  0
  5  7  1  0  0  0  0
  7  8  1  0  0  0  0
  7  9  1  6  0  0  0
  9 10  1  0  0  0  0
 11 12  1  1  0  0  0
 11 13  1  0  0  0  0
 11 19  1  0  0  0  0
 12 34  1  0  0  0  0
 13 14  1  0  0  0  0
 14 15  1  6  0  0  0
 14 16  1  0  0  0  0
 16  2  1  6  0  0  0
 16 17  1  0  0  0  0
 17 18  1  1  0  0  0
 17 19  1  0  0  0  0
 19 20  1  1  0  0  0
 21 20  1  1  0  0  0
 21 22  1  0  0  0  0
 21 29  1  0  0  0  0
 22 23  1  1  0  0  0
 22 24  1  0  0  0  0
 24 25  1  1  0  0  0
 24 26  1  0  0  0  0
 26 27  1  6  0  0  0
 26 28  1  0  0  0  0
 28 29  1  0  0  0  0
 28 30  1  6  0  0  0
 30 31  1  0  0  0  0
 34 35  2  0  0  0  0
 36 34  1  6  0  0  0
 36 38  1  0  0  0  0
 36 40  1  0  0  0  0
 37 39  1  0  0  0  0
 38 39  1  0  0  0  0
M  END
>  <CHROM.1>
175.84531038,10.53625110,43.64406770,97.43644847,-78.63252115,153.82552053
62.68673161,-80.59193409,-71.32272756,-161.20891400,-2.79068052,-2.06241875
8.13585546,1.53853775,-0.41435880,-2.42020947

>  <Name>
ligand

>  <RI>
0

>  <Rbt.Current_Directory>
/home/itssahil/PROJECTS/Mol_Feturizer/New_Systems/rnas/4P20

>  <Rbt.Executable>
rbdock ($Id: //depot/dev/client3/rdock/2013.1/src/exe/rbdock.cxx#4 $)

>  <Rbt.Library>
libRbt.so (2013.1, Build901 2013/11/27)

>  <Rbt.Parameter_File>
/export/apps/rDock/src/rDock_2013.1_src/data/scripts/dock_solv.prm

>  <Rbt.Receptor>
prm/blind_docking_40.prm

>  <SCORE>
57.2214

>  <SCORE.INTER>
30.6409

>  <SCORE.INTER.CONST>
1

>  <SCORE.INTER.POLAR>
0

>  <SCORE.INTER.ROT>
10

>  <SCORE.INTER.SOLV>
19.6588

>  <SCORE.INTER.VDW>
3.60771

>  <SCORE.INTER.norm>
0.766024

>  <SCORE.INTRA>
5.3275

>  <SCORE.INTRA.DIHEDRAL>
-12.3777

>  <SCORE.INTRA.DIHEDRAL.0>
28.2802

>  <SCORE.INTRA.POLAR>
0

>  <SCORE.INTRA.POLAR.0>
0

>  <SCORE.INTRA.REPUL>
0

>  <SCORE.INTRA.REPUL.0>
0

>  <SCORE.INTRA.SOLV>
9.805

>  <SCORE.INTRA.SOLV.lig_0>
-101.981

>  <SCORE.INTRA.VDW>
6.61386

>  <SCORE.INTRA.VDW.0>
-5.72964

>  <SCORE.INTRA.norm>
0.133188

>  <SCORE.RESTR>
21.253

>  <SCORE.RESTR.CAVITY>
21.253

>  <SCORE.RESTR.norm>
0.531325

>  <SCORE.SYSTEM>
0

>  <SCORE.SYSTEM.CONST>
0

>  <SCORE.SYSTEM.DIHEDRAL>
0

>  <SCORE.SYSTEM.SOLV>
0

>  <SCORE.SYSTEM.norm>
0

>  <SCORE.heavy>
40

>  <SCORE.norm>
1.43054

>  <RMSD>
14.515

$$$$
ligand
 OpenBabel11021811503D
libRbt.so/2013.1/901 2013/11/27
 40 42  0  0  0  0  0  0  0  0999 V2000
   -2.7626   -5.0676    7.1565 C   0  0  2  0  0  0  0  0  0  0  0  0
   -3.5882   -3.8955    7.0708 O   0  0  0  0  0  0  0  0  0  0  0  0
   -1.6185   -5.0192    6.0757 C   0  0  1  0  0  0  0  0  0  0  0  0
   -2.1929   -5.0932    4.6309 C   0  0  2  0  0  0  0  0  0  0  0  0
   -2.9782   -6.4366    4.5003 C   0  0  2  0  0  0  0  0  0  0  0  0
   -3.5047   -6.5516    3.1609 O   0  0  0  0  0  0  0  0  0  0  0  0
   -4.1541   -6.4394    5.5721 C   0  0  2  0  0  0  0  0  0  0  0  0
   -3.5763   -6.3093    6.9576 O   0  0  0  0  0  0  0  0  0  0  0  0
   -4.9711   -7.7237    5.5384 C   0  0  0  0  0  0  0  0  0  0  0  0
   -4.0945   -8.9349    5.6109 N   0  0  0  0  0  0  0  0  0  0  0  0
   -4.0286   -0.5542    9.8943 C   0  0  2  0  0  0  0  0  0  0  0  0
   -4.4249    0.1878   11.0685 N   0  0  0  0  0  0  0  0  0  0  0  0
   -5.3168   -1.0707    9.1348 C   0  0  0  0  0  0  0  0  0  0  0  0
   -4.8948   -1.8961    7.8382 C   0  0  2  0  0  0  0  0  0  0  0  0
   -6.1064   -2.3666    7.1169 N   0  0  0  0  0  0  0  0  0  0  0  0
   -3.9691   -3.1244    8.2758 C   0  0  2  0  0  0  0  0  0  0  0  0
   -2.6942   -2.5562    9.0333 C   0  0  2  0  0  0  0  0  0  0  0  0
   -1.8580   -3.6471    9.4255 O   0  0  0  0  0  0  0  0  0  0  0  0
   -3.1272   -1.7376   10.3129 C   0  0  1  0  0  0  0  0  0  0  0  0
   -1.9545   -1.2088   10.9805 O   0  0  0  0  0  0  0  0  0  0  0  0
   -0.8211   -0.7223   10.3453 C   0  0  2  0  0  0  0  0  0  0  0  0
   -0.5266    0.7039   10.9322 C   0  0  2  0  0  0  0  0  0  0  0  0
   -0.3627    0.6193   12.3110 O   0  0  0  0  0  0  0  0  0  0  0  0
   -1.6643    1.7444   10.5524 C   0  0  1  0  0  0  0  0  0  0  0  0
   -1.3579    3.0978   11.1102 N   0  0  0  0  0  0  0  0  0  0  0  0
   -1.7975    1.7974    8.9679 C   0  0  2  0  0  0  0  0  0  0  0  0
   -2.8063    2.7353    8.5730 O   0  0  0  0  0  0  0  0  0  0  0  0
   -2.1265    0.3424    8.4543 C   0  0  2  0  0  0  0  0  0  0  0  0
   -1.0427   -0.6393    8.8789 O   0  0  0  0  0  0  0  0  0  0  0  0
   -2.2482    0.3098    6.9494 C   0  0  0  0  0  0  0  0  0  0  0  0
   -2.4005   -1.0254    6.4328 O   0  0  0  0  0  0  0  0  0  0  0  0
   -0.8602   -3.7894    6.2668 O   0  0  0  0  0  0  0  0  0  0  0  0
   -1.1542   -5.0601    3.7322 O   0  0  0  0  0  0  0  0  0  0  0  0
   -3.5921    0.1307   12.2475 C   0  0  0  0  0  0  0  0  0  0  0  0
   -2.8089   -0.8504   12.4179 O   0  0  0  0  0  0  0  0  0  0  0  0
   -3.7021    1.2978   13.2762 C   0  0  2  0  0  0  0  0  0  0  0  0
   -0.6891    2.8969   15.1364 N   0  0  0  0  0  0  0  0  0  0  0  0
   -2.3207    1.9925   13.4826 C   0  0  0  0  0  0  0  0  0  0  0  0
   -2.0971    2.4850   14.9222 C   0  0  0  0  0  0  0  0  0  0  0  0
   -4.0567    0.9008   14.4315 O   0  0  0  0  0  0  0  0  0  0  0  0
  1  2  1  6  0  0  0
  1  3  1  0  0  0  0
  1  8  1  0  0  0  0
  3  4  1  0  0  0  0
  3 32  1  6  0  0  0
  4  5  1  0  0  0  0
  4 33  1  6  0  0  0
  5  6  1  6  0  0  0
  5  7  1  0  0  0  0
  7  8  1  0  0  0  0
  7  9  1  1  0  0  0
  9 10  1  0  0  0  0
 11 12  1  1  0  0  0
 11 13  1  0  0  0  0
 11 19  1  0  0  0  0
 12 34  1  0  0  0  0
 13 14  1  0  0  0  0
 14 15  1  1  0  0  0
 14 16  1  0  0  0  0
 16  2  1  6  0  0  0
 16 17  1  0  0  0  0
 17 18  1  1  0  0  0
 17 19  1  0  0  0  0
 19 20  1  6  0  0  0
 21 20  1  1  0  0  0
 21 22  1  0  0  0  0
 21 29  1  0  0  0  0
 22 23  1  1  0  0  0
 22 24  1  0  0  0  0
 24 25  1  6  0  0  0
 24 26  1  0  0  0  0
 26 27  1  1  0  0  0
 26 28  1  0  0  0  0
 28 29  1  0  0  0  0
 28 30  1  6  0  0  0
 30 31  1  0  0  0  0
 34 35  2  0  0  0  0
 36 34  1  6  0  0  0
 36 38  1  0  0  0  0
 36 40  1  0  0  0  0
 37 39  1  0  0  0  0
 38 39  1  0  0  0  0
M  END
>  <CHROM.1>
-133.15804538,-179.51012696,51.10272990,146.35272140,-82.61345015,128.22685692
173.52371490,-121.67770755,-145.32338039,169.06808667,-2.73473128,-1.78086204
8.95052919,1.73940955,-0.92908908,-2.24040047

>  <Name>
ligand

>  <RI>
0

>  <Rbt.Current_Directory>
/home/itssahil/PROJECTS/Mol_Feturizer/New_Systems/rnas/4P20

>  <Rbt.Executable>
rbdock ($Id: //depot/dev/client3/rdock/2013.1/src/exe/rbdock.cxx#4 $)

>  <Rbt.Library>
libRbt.so (2013.1, Build901 2013/11/27)

>  <Rbt.Parameter_File>
/export/apps/rDock/src/rDock_2013.1_src/data/scripts/dock_solv.prm

>  <Rbt.Receptor>
prm/blind_docking_40.prm

>  <SCORE>
61.6699

>  <SCORE.INTER>
6.99427

>  <SCORE.INTER.CONST>
1

>  <SCORE.INTER.POLAR>
0

>  <SCORE.INTER.ROT>
10

>  <SCORE.INTER.SOLV>
20.9035

>  <SCORE.INTER.VDW>
-12.5717

>  <SCORE.INTER.norm>
0.174857

>  <SCORE.INTRA>
37.4879

>  <SCORE.INTRA.DIHEDRAL>
-5.59177

>  <SCORE.INTRA.DIHEDRAL.0>
28.2802

>  <SCORE.INTRA.POLAR>
0

>  <SCORE.INTRA.POLAR.0>
0

>  <SCORE.INTRA.REPUL>
0.175717

>  <SCORE.INTRA.REPUL.0>
0

>  <SCORE.INTRA.SOLV>
8.95054

>  <SCORE.INTRA.SOLV.lig_0>
-101.981

>  <SCORE.INTRA.VDW>
34.9299

>  <SCORE.INTRA.VDW.0>
-5.72964

>  <SCORE.INTRA.norm>
0.937198

>  <SCORE.RESTR>
17.1878

>  <SCORE.RESTR.CAVITY>
17.1878

>  <SCORE.RESTR.norm>
0.429694

>  <SCORE.SYSTEM>
0

>  <SCORE.SYSTEM.CONST>
0

>  <SCORE.SYSTEM.DIHEDRAL>
0

>  <SCORE.SYSTEM.SOLV>
0

>  <SCORE.SYSTEM.norm>
0

>  <SCORE.heavy>
40

>  <SCORE.norm>
1.54175

>  <RMSD>
14.599

$$$$
ligand
 OpenBabel11021811503D
libRbt.so/2013.1/901 2013/11/27
 40 42  0  0  0  0  0  0  0  0999 V2000
   -3.9925   -5.9306    5.0762 C   0  0  2  0  0  0  0  0  0  0  0  0
   -4.0164   -5.6623    6.4870 O   0  0  0  0  0  0  0  0  0  0  0  0
   -4.2924   -7.4508    4.7964 C   0  0  1  0  0  0  0  0  0  0  0  0
   -3.1644   -8.3681    5.3524 C   0  0  2  0  0  0  0  0  0  0  0  0
   -1.8312   -7.9608    4.6489 C   0  0  2  0  0  0  0  0  0  0  0  0
   -0.7645   -8.8107    5.1225 O   0  0  0  0  0  0  0  0  0  0  0  0
   -1.5297   -6.4351    4.9847 C   0  0  2  0  0  0  0  0  0  0  0  0
   -2.6620   -5.5742    4.4877 O   0  0  0  0  0  0  0  0  0  0  0  0
   -0.2528   -5.9336    4.3242 C   0  0  0  0  0  0  0  0  0  0  0  0
    0.0020   -4.4935    4.6431 N   0  0  0  0  0  0  0  0  0  0  0  0
   -4.0153   -1.4236    7.6543 C   0  0  2  0  0  0  0  0  0  0  0  0
   -4.4835   -0.1554    8.1632 N   0  0  0  0  0  0  0  0  0  0  0  0
   -4.9107   -1.8644    6.4269 C   0  0  0  0  0  0  0  0  0  0  0  0
   -4.4086   -3.2659    5.8572 C   0  0  2  0  0  0  0  0  0  0  0  0
   -5.2405   -3.6706    4.6937 N   0  0  0  0  0  0  0  0  0  0  0  0
   -4.4726   -4.3595    7.0220 C   0  0  2  0  0  0  0  0  0  0  0  0
   -3.5621   -3.8721    8.2284 C   0  0  2  0  0  0  0  0  0  0  0  0
   -3.6096   -4.8455    9.2740 O   0  0  0  0  0  0  0  0  0  0  0  0
   -4.0683   -2.4811    8.7799 C   0  0  1  0  0  0  0  0  0  0  0  0
   -3.2151   -2.0407    9.8655 O   0  0  0  0  0  0  0  0  0  0  0  0
   -1.8282   -2.0779    9.8613 C   0  0  2  0  0  0  0  0  0  0  0  0
   -1.3231   -0.9643   10.8462 C   0  0  2  0  0  0  0  0  0  0  0  0
   -1.8524   -1.1838   12.1138 O   0  0  0  0  0  0  0  0  0  0  0  0
   -1.6765    0.4920   10.3211 C   0  0  1  0  0  0  0  0  0  0  0  0
   -1.1759    1.5367   11.2670 N   0  0  0  0  0  0  0  0  0  0  0  0
   -1.0403    0.6800    8.8750 C   0  0  2  0  0  0  0  0  0  0  0  0
   -1.3214    1.9880    8.3615 O   0  0  0  0  0  0  0  0  0  0  0  0
   -1.6175   -0.4476    7.9347 C   0  0  2  0  0  0  0  0  0  0  0  0
   -1.3060   -1.8296    8.4930 O   0  0  0  0  0  0  0  0  0  0  0  0
   -1.0407   -0.3453    6.5428 C   0  0  0  0  0  0  0  0  0  0  0  0
   -1.2613    0.9448    5.9431 O   0  0  0  0  0  0  0  0  0  0  0  0
   -5.5744   -7.7837    5.4044 O   0  0  0  0  0  0  0  0  0  0  0  0
   -3.4704   -9.6775    5.0703 O   0  0  0  0  0  0  0  0  0  0  0  0
   -5.4869   -0.1448    9.2024 C   0  0  0  0  0  0  0  0  0  0  0  0
   -6.2469   -1.1470    9.3537 O   0  0  0  0  0  0  0  0  0  0  0  0
   -5.5929    1.1249   10.1020 C   0  0  2  0  0  0  0  0  0  0  0  0
   -3.1271    1.7138   13.0478 N   0  0  0  0  0  0  0  0  0  0  0  0
   -4.8781    0.9011   11.4704 C   0  0  0  0  0  0  0  0  0  0  0  0
   -3.9638    2.0691   11.8766 C   0  0  0  0  0  0  0  0  0  0  0  0
   -6.7954    1.4202   10.3931 O   0  0  0  0  0  0  0  0  0  0  0  0
  1  2  1  1  0  0  0
  1  3  1  0  0  0  0
  1  8  1  0  0  0  0
  3  4  1  0  0  0  0
  3 32  1  1  0  0  0
  4  5  1  0  0  0  0
  4 33  1  6  0  0  0
  5  6  1  1  0  0  0
  5  7  1  0  0  0  0
  7  8  1  0  0  0  0
  7  9  1  6  0  0  0
  9 10  1  0  0  0  0
 11 12  1  1  0  0  0
 11 13  1  0  0  0  0
 11 19  1  0  0  0  0
 12 34  1  0  0  0  0
 13 14  1  0  0  0  0
 14 15  1  6  0  0  0
 14 16  1  0  0  0  0
 16  2  1  6  0  0  0
 16 17  1  0  0  0  0
 17 18  1  1  0  0  0
 17 19  1  0  0  0  0
 19 20  1  1  0  0  0
 21 20  1  6  0  0  0
 21 22  1  0  0  0  0
 21 29  1  0  0  0  0
 22 23  1  1  0  0  0
 22 24  1  0  0  0  0
 24 25  1  1  0  0  0
 24 26  1  0  0  0  0
 26 27  1  6  0  0  0
 26 28  1  0  0  0  0
 28 29  1  0  0  0  0
 28 30  1  6  0  0  0
 30 31  1  0  0  0  0
 34 35  2  0  0  0  0
 36 34  1  6  0  0  0
 36 38  1  0  0  0  0
 36 40  1  0  0  0  0
 37 39  1  0  0  0  0
 38 39  1  0  0  0  0
M  END
>  <CHROM.1>
-147.30397022,-19.29679430,179.42150568,90.33566830,-74.89763707,154.25680222
-56.43029884,-100.05872021,133.34671338,-169.83470150,-3.12631134,-2.70748909
7.80834304,1.52493809,-0.26157075,-2.56181720

>  <Name>
ligand

>  <RI>
0

>  <Rbt.Current_Directory>
/home/itssahil/PROJECTS/Mol_Feturizer/New_Systems/rnas/4P20

>  <Rbt.Executable>
rbdock ($Id: //depot/dev/client3/rdock/2013.1/src/exe/rbdock.cxx#4 $)

>  <Rbt.Library>
libRbt.so (2013.1, Build901 2013/11/27)

>  <Rbt.Parameter_File>
/export/apps/rDock/src/rDock_2013.1_src/data/scripts/dock_solv.prm

>  <Rbt.Receptor>
prm/blind_docking_40.prm

>  <SCORE>
41.17

>  <SCORE.INTER>
9.54912

>  <SCORE.INTER.CONST>
1

>  <SCORE.INTER.POLAR>
0

>  <SCORE.INTER.ROT>
10

>  <SCORE.INTER.SOLV>
18.1894

>  <SCORE.INTER.VDW>
-9.96371

>  <SCORE.INTER.norm>
0.238728

>  <SCORE.INTRA>
7.66483

>  <SCORE.INTRA.DIHEDRAL>
-7.20687

>  <SCORE.INTRA.DIHEDRAL.0>
28.2802

>  <SCORE.INTRA.POLAR>
0

>  <SCORE.INTRA.POLAR.0>
0

>  <SCORE.INTRA.REPUL>
0

>  <SCORE.INTRA.REPUL.0>
0

>  <SCORE.INTRA.SOLV>
8.33166

>  <SCORE.INTRA.SOLV.lig_0>
-101.981

>  <SCORE.INTRA.VDW>
7.10243

>  <SCORE.INTRA.VDW.0>
-5.72964

>  <SCORE.INTRA.norm>
0.191621

>  <SCORE.RESTR>
23.956

>  <SCORE.RESTR.CAVITY>
23.956

>  <SCORE.RESTR.norm>
0.598901

>  <SCORE.SYSTEM>
0

>  <SCORE.SYSTEM.CONST>
0

>  <SCORE.SYSTEM.DIHEDRAL>
0

>  <SCORE.SYSTEM.SOLV>
0

>  <SCORE.SYSTEM.norm>
0

>  <SCORE.heavy>
40

>  <SCORE.norm>
1.02925

>  <RMSD>
14.683

$$$$
ligand
 OpenBabel11021811503D
libRbt.so/2013.1/901 2013/11/27
 40 42  0  0  0  0  0  0  0  0999 V2000
   -4.4979   -5.2005    5.1265 C   0  0  2  0  0  0  0  0  0  0  0  0
   -4.6352   -4.9499    6.5341 O   0  0  0  0  0  0  0  0  0  0  0  0
   -4.2612   -6.7338    4.8576 C   0  0  1  0  0  0  0  0  0  0  0  0
   -2.8991   -7.2130    5.4390 C   0  0  2  0  0  0  0  0  0  0  0  0
   -1.7704   -6.3818    4.7510 C   0  0  2  0  0  0  0  0  0  0  0  0
   -0.4873   -6.8186    5.2485 O   0  0  0  0  0  0  0  0  0  0  0  0
   -2.0084   -4.8426    5.0759 C   0  0  2  0  0  0  0  0  0  0  0  0
   -3.3564   -4.4177    4.5539 O   0  0  0  0  0  0  0  0  0  0  0  0
   -0.9652   -3.9417    4.4290 C   0  0  0  0  0  0  0  0  0  0  0  0
   -0.5248   -4.4757    3.1019 N   0  0  0  0  0  0  0  0  0  0  0  0
   -3.0429   -2.2516    9.6186 C   0  0  2  0  0  0  0  0  0  0  0  0
   -2.1335   -1.3704   10.3134 N   0  0  0  0  0  0  0  0  0  0  0  0
   -2.3736   -3.6748    9.4474 C   0  0  0  0  0  0  0  0  0  0  0  0
   -3.3644   -4.6577    8.6773 C   0  0  2  0  0  0  0  0  0  0  0  0
   -2.7406   -5.9991    8.5319 N   0  0  0  0  0  0  0  0  0  0  0  0
   -3.7240   -4.0297    7.2514 C   0  0  2  0  0  0  0  0  0  0  0  0
   -4.3896   -2.6054    7.4758 C   0  0  2  0  0  0  0  0  0  0  0  0
   -4.7183   -2.0370    6.2061 O   0  0  0  0  0  0  0  0  0  0  0  0
   -3.3988   -1.6437    8.2431 C   0  0  1  0  0  0  0  0  0  0  0  0
   -4.0284   -0.3561    8.4582 O   0  0  0  0  0  0  0  0  0  0  0  0
   -3.7166    0.8126    7.7788 C   0  0  2  0  0  0  0  0  0  0  0  0
   -2.5003    0.5005    6.8364 C   0  0  2  0  0  0  0  0  0  0  0  0
   -2.8303   -0.5390    5.9728 O   0  0  0  0  0  0  0  0  0  0  0  0
   -1.1856    0.1656    7.6614 C   0  0  1  0  0  0  0  0  0  0  0  0
   -0.0375   -0.1160    6.7452 N   0  0  0  0  0  0  0  0  0  0  0  0
   -0.8612    1.3916    8.6221 C   0  0  2  0  0  0  0  0  0  0  0  0
    0.3282    1.1422    9.3815 O   0  0  0  0  0  0  0  0  0  0  0  0
   -2.1087    1.6237    9.5595 C   0  0  2  0  0  0  0  0  0  0  0  0
   -3.3616    1.8912    8.7365 O   0  0  0  0  0  0  0  0  0  0  0  0
   -1.8816    2.7907   10.4907 C   0  0  0  0  0  0  0  0  0  0  0  0
   -2.9808    3.0014   11.3963 O   0  0  0  0  0  0  0  0  0  0  0  0
   -5.3652   -7.4781    5.4502 O   0  0  0  0  0  0  0  0  0  0  0  0
   -2.7394   -8.5499    5.1656 O   0  0  0  0  0  0  0  0  0  0  0  0
   -2.6626   -0.4443   11.2878 C   0  0  0  0  0  0  0  0  0  0  0  0
   -3.8782   -0.0930   11.2269 O   0  0  0  0  0  0  0  0  0  0  0  0
   -1.6937    0.0933   12.3854 C   0  0  2  0  0  0  0  0  0  0  0  0
   -0.3870    0.6829   14.6682 N   0  0  0  0  0  0  0  0  0  0  0  0
   -2.3960    1.1663   13.2736 C   0  0  0  0  0  0  0  0  0  0  0  0
   -1.6700    1.4231   14.6047 C   0  0  0  0  0  0  0  0  0  0  0  0
   -0.6734    0.6745   11.8963 O   0  0  0  0  0  0  0  0  0  0  0  0
  1  2  1  1  0  0  0
  1  3  1  0  0  0  0
  1  8  1  0  0  0  0
  3  4  1  0  0  0  0
  3 32  1  1  0  0  0
  4  5  1  0  0  0  0
  4 33  1  6  0  0  0
  5  6  1  1  0  0  0
  5  7  1  0  0  0  0
  7  8  1  0  0  0  0
  7  9  1  6  0  0  0
  9 10  1  0  0  0  0
 11 12  1  6  0  0  0
 11 13  1  0  0  0  0
 11 19  1  0  0  0  0
 12 34  1  0  0  0  0
 13 14  1  0  0  0  0
 14 15  1  6  0  0  0
 14 16  1  0  0  0  0
 16  2  1  1  0  0  0
 16 17  1  0  0  0  0
 17 18  1  6  0  0  0
 17 19  1  0  0  0  0
 19 20  1  1  0  0  0
 21 20  1  1  0  0  0
 21 22  1  0  0  0  0
 21 29  1  0  0  0  0
 22 23  1  1  0  0  0
 22 24  1  0  0  0  0
 24 25  1  6  0  0  0
 24 26  1  0  0  0  0
 26 27  1  1  0  0  0
 26 28  1  0  0  0  0
 28 29  1  0  0  0  0
 28 30  1  1  0  0  0
 30 31  1  0  0  0  0
 34 35  2  0  0  0  0
 36 34  1  6  0  0  0
 36 38  1  0  0  0  0
 36 40  1  0  0  0  0
 37 39  1  0  0  0  0
 38 39  1  0  0  0  0
M  END
>  <CHROM.1>
121.05110446,-139.58163872,34.16018972,-141.20912915,133.43664080,-4.32453653
-177.82943674,175.24310602,162.61130697,5.83563525,-2.55906268,-2.08375818
8.15035337,2.08715346,-1.34179527,-1.93303816

>  <Name>
ligand

>  <RI>
0

>  <Rbt.Current_Directory>
/home/itssahil/PROJECTS/Mol_Feturizer/New_Systems/rnas/4P20

>  <Rbt.Executable>
rbdock ($Id: //depot/dev/client3/rdock/2013.1/src/exe/rbdock.cxx#4 $)

>  <Rbt.Library>
libRbt.so (2013.1, Build901 2013/11/27)

>  <Rbt.Parameter_File>
/export/apps/rDock/src/rDock_2013.1_src/data/scripts/dock_solv.prm

>  <Rbt.Receptor>
prm/blind_docking_40.prm

>  <SCORE>
47.8149

>  <SCORE.INTER>
16.1215

>  <SCORE.INTER.CONST>
1

>  <SCORE.INTER.POLAR>
0

>  <SCORE.INTER.ROT>
10

>  <SCORE.INTER.SOLV>
26.465

>  <SCORE.INTER.VDW>
-8.34063

>  <SCORE.INTER.norm>
0.403039

>  <SCORE.INTRA>
15.0874

>  <SCORE.INTRA.DIHEDRAL>
8.00734

>  <SCORE.INTRA.DIHEDRAL.0>
28.2802

>  <SCORE.INTRA.POLAR>
0

>  <SCORE.INTRA.POLAR.0>
0

>  <SCORE.INTRA.REPUL>
0

>  <SCORE.INTRA.REPUL.0>
0

>  <SCORE.INTRA.SOLV>
10.1867

>  <SCORE.INTRA.SOLV.lig_0>
-101.981

>  <SCORE.INTRA.VDW>
5.9904

>  <SCORE.INTRA.VDW.0>
-5.72964

>  <SCORE.INTRA.norm>
0.377185

>  <SCORE.RESTR>
16.6059

>  <SCORE.RESTR.CAVITY>
16.6059

>  <SCORE.RESTR.norm>
0.415148

>  <SCORE.SYSTEM>
0

>  <SCORE.SYSTEM.CONST>
0

>  <SCORE.SYSTEM.DIHEDRAL>
0

>  <SCORE.SYSTEM.SOLV>
0

>  <SCORE.SYSTEM.norm>
0

>  <SCORE.heavy>
40

>  <SCORE.norm>
1.19537

>  <RMSD>
14.784

$$$$
ligand
 OpenBabel11021811503D
libRbt.so/2013.1/901 2013/11/27
 40 42  0  0  0  0  0  0  0  0999 V2000
   -3.2835   -5.3763    5.4869 C   0  0  2  0  0  0  0  0  0  0  0  0
   -3.0432   -5.5713    6.8895 O   0  0  0  0  0  0  0  0  0  0  0  0
   -4.0437   -6.6135    4.8781 C   0  0  1  0  0  0  0  0  0  0  0  0
   -3.1659   -7.8984    4.9136 C   0  0  2  0  0  0  0  0  0  0  0  0
   -1.8764   -7.6157    4.0795 C   0  0  2  0  0  0  0  0  0  0  0  0
   -1.0480   -8.7981    4.0688 O   0  0  0  0  0  0  0  0  0  0  0  0
   -1.1058   -6.3915    4.7421 C   0  0  2  0  0  0  0  0  0  0  0  0
   -1.9963   -5.1761    4.7477 O   0  0  0  0  0  0  0  0  0  0  0  0
    0.1631   -6.0226    3.9857 C   0  0  0  0  0  0  0  0  0  0  0  0
    0.9654   -4.9978    4.7250 N   0  0  0  0  0  0  0  0  0  0  0  0
   -2.1200   -1.9816    9.2542 C   0  0  2  0  0  0  0  0  0  0  0  0
   -1.3746   -1.0366   10.0528 N   0  0  0  0  0  0  0  0  0  0  0  0
   -2.1710   -3.3777    9.9967 C   0  0  0  0  0  0  0  0  0  0  0  0
   -2.9869   -4.4332    9.1244 C   0  0  2  0  0  0  0  0  0  0  0  0
   -3.0479   -5.7395    9.8311 N   0  0  0  0  0  0  0  0  0  0  0  0
   -2.2899   -4.5821    7.6931 C   0  0  2  0  0  0  0  0  0  0  0  0
   -2.2612   -3.1584    6.9903 C   0  0  2  0  0  0  0  0  0  0  0  0
   -1.6429   -3.2818    5.7074 O   0  0  0  0  0  0  0  0  0  0  0  0
   -1.4534   -2.1221    7.8671 C   0  0  1  0  0  0  0  0  0  0  0  0
   -1.4545   -0.8238    7.2227 O   0  0  0  0  0  0  0  0  0  0  0  0
   -2.5482   -0.2373    6.6024 C   0  0  2  0  0  0  0  0  0  0  0  0
   -2.4282    1.3152    6.8035 C   0  0  2  0  0  0  0  0  0  0  0  0
   -1.2209    1.7646    6.2785 O   0  0  0  0  0  0  0  0  0  0  0  0
   -2.5783    1.7256    8.3301 C   0  0  1  0  0  0  0  0  0  0  0  0
   -2.4735    3.2082    8.4971 N   0  0  0  0  0  0  0  0  0  0  0  0
   -3.9765    1.1886    8.8665 C   0  0  2  0  0  0  0  0  0  0  0  0
   -4.1654    1.5462   10.2413 O   0  0  0  0  0  0  0  0  0  0  0  0
   -4.0113   -0.3757    8.6650 C   0  0  2  0  0  0  0  0  0  0  0  0
   -3.8135   -0.7369    7.1990 O   0  0  0  0  0  0  0  0  0  0  0  0
   -5.3232   -0.9572    9.1352 C   0  0  0  0  0  0  0  0  0  0  0  0
   -5.3124   -2.3964    9.1710 O   0  0  0  0  0  0  0  0  0  0  0  0
   -5.2757   -6.8097    5.6317 O   0  0  0  0  0  0  0  0  0  0  0  0
   -3.8712   -8.9398    4.3608 O   0  0  0  0  0  0  0  0  0  0  0  0
   -1.9739   -0.5112   11.2577 C   0  0  0  0  0  0  0  0  0  0  0  0
   -3.2343   -0.5127   11.3860 O   0  0  0  0  0  0  0  0  0  0  0  0
   -1.0244    0.0478   12.3615 C   0  0  2  0  0  0  0  0  0  0  0  0
   -1.9632    2.8312   12.3450 N   0  0  0  0  0  0  0  0  0  0  0  0
   -1.8398    0.6506   13.5469 C   0  0  0  0  0  0  0  0  0  0  0  0
   -2.7286    1.8354   13.1328 C   0  0  0  0  0  0  0  0  0  0  0  0
   -0.2886    0.9962   11.9405 O   0  0  0  0  0  0  0  0  0  0  0  0
  1  2  1  1  0  0  0
  1  3  1  0  0  0  0
  1  8  1  0  0  0  0
  3  4  1  0  0  0  0
  3 32  1  1  0  0  0
  4  5  1  0  0  0  0
  4 33  1  6  0  0  0
  5  6  1  1  0  0  0
  5  7  1  0  0  0  0
  7  8  1  0  0  0  0
  7  9  1  6  0  0  0
  9 10  1  0  0  0  0
 11 12  1  1  0  0  0
 11 13  1  0  0  0  0
 11 19  1  0  0  0  0
 12 34  1  0  0  0  0
 13 14  1  0  0  0  0
 14 15  1  1  0  0  0
 14 16  1  0  0  0  0
 16  2  1  6  0  0  0
 16 17  1  0  0  0  0
 17 18  1  6  0  0  0
 17 19  1  0  0  0  0
 19 20  1  6  0  0  0
 21 20  1  1  0  0  0
 21 22  1  0  0  0  0
 21 29  1  0  0  0  0
 22 23  1  1  0  0  0
 22 24  1  0  0  0  0
 24 25  1  6  0  0  0
 24 26  1  0  0  0  0
 26 27  1  1  0  0  0
 26 28  1  0  0  0  0
 28 29  1  0  0  0  0
 28 30  1  6  0  0  0
 30 31  1  0  0  0  0
 34 35  2  0  0  0  0
 36 34  1  6  0  0  0
 36 38  1  0  0  0  0
 36 40  1  0  0  0  0
 37 39  1  0  0  0  0
 38 39  1  0  0  0  0
M  END
>  <CHROM.1>
177.23499508,140.09738244,-172.28135412,-72.61658196,-78.02350538,147.30480737
-170.51326703,176.51018784,-61.61465717,-49.39961937,-2.49583394,-2.50174225
7.92747417,1.54874240,-1.21271149,-2.53875210

>  <Name>
ligand

>  <RI>
0

>  <Rbt.Current_Directory>
/home/itssahil/PROJECTS/Mol_Feturizer/New_Systems/rnas/4P20

>  <Rbt.Executable>
rbdock ($Id: //depot/dev/client3/rdock/2013.1/src/exe/rbdock.cxx#4 $)

>  <Rbt.Library>
libRbt.so (2013.1, Build901 2013/11/27)

>  <Rbt.Parameter_File>
/export/apps/rDock/src/rDock_2013.1_src/data/scripts/dock_solv.prm

>  <Rbt.Receptor>
prm/blind_docking_40.prm

>  <SCORE>
57.4664

>  <SCORE.INTER>
30.1973

>  <SCORE.INTER.CONST>
1

>  <SCORE.INTER.POLAR>
0

>  <SCORE.INTER.ROT>
10

>  <SCORE.INTER.SOLV>
26.8453

>  <SCORE.INTER.VDW>
0.916452

>  <SCORE.INTER.norm>
0.754933

>  <SCORE.INTRA>
8.66599

>  <SCORE.INTRA.DIHEDRAL>
-15.3409

>  <SCORE.INTRA.DIHEDRAL.0>
28.2802

>  <SCORE.INTRA.POLAR>
0

>  <SCORE.INTRA.POLAR.0>
0

>  <SCORE.INTRA.REPUL>
0

>  <SCORE.INTRA.REPUL.0>
0

>  <SCORE.INTRA.SOLV>
8.05421

>  <SCORE.INTRA.SOLV.lig_0>
-101.981

>  <SCORE.INTRA.VDW>
12.3093

>  <SCORE.INTRA.VDW.0>
-5.72964

>  <SCORE.INTRA.norm>
0.21665

>  <SCORE.RESTR>
18.6031

>  <SCORE.RESTR.CAVITY>
18.6031

>  <SCORE.RESTR.norm>
0.465077

>  <SCORE.SYSTEM>
0

>  <SCORE.SYSTEM.CONST>
0

>  <SCORE.SYSTEM.DIHEDRAL>
0

>  <SCORE.SYSTEM.SOLV>
0

>  <SCORE.SYSTEM.norm>
0

>  <SCORE.heavy>
40

>  <SCORE.norm>
1.43666

>  <RMSD>
14.851

$$$$
ligand
 OpenBabel11021811503D
libRbt.so/2013.1/901 2013/11/27
 40 42  0  0  0  0  0  0  0  0999 V2000
   -2.7257   -4.3311    5.9007 C   0  0  2  0  0  0  0  0  0  0  0  0
   -2.1787   -4.7998    7.1433 O   0  0  0  0  0  0  0  0  0  0  0  0
   -3.9202   -5.2481    5.4407 C   0  0  1  0  0  0  0  0  0  0  0  0
   -3.4369   -6.6872    5.0966 C   0  0  2  0  0  0  0  0  0  0  0  0
   -2.3912   -6.5736    3.9425 C   0  0  2  0  0  0  0  0  0  0  0  0
   -1.9390   -7.8956    3.5785 O   0  0  0  0  0  0  0  0  0  0  0  0
   -1.1761   -5.6802    4.4493 C   0  0  2  0  0  0  0  0  0  0  0  0
   -1.6784   -4.3117    4.8301 O   0  0  0  0  0  0  0  0  0  0  0  0
   -0.1059   -5.4918    3.3829 C   0  0  0  0  0  0  0  0  0  0  0  0
    0.5896   -6.7795    3.0686 N   0  0  0  0  0  0  0  0  0  0  0  0
   -2.6169   -1.4341    9.9379 C   0  0  2  0  0  0  0  0  0  0  0  0
   -2.3649   -0.5583   11.0586 N   0  0  0  0  0  0  0  0  0  0  0  0
   -2.9249   -2.8934   10.4655 C   0  0  0  0  0  0  0  0  0  0  0  0
   -3.2005   -3.8732    9.2387 C   0  0  2  0  0  0  0  0  0  0  0  0
   -3.5059   -5.2400    9.7367 N   0  0  0  0  0  0  0  0  0  0  0  0
   -1.9241   -3.8805    8.2755 C   0  0  2  0  0  0  0  0  0  0  0  0
   -1.6555   -2.3975    7.7752 C   0  0  2  0  0  0  0  0  0  0  0  0
   -0.5178   -2.3942    6.9098 O   0  0  0  0  0  0  0  0  0  0  0  0
   -1.3881   -1.4375    9.0008 C   0  0  1  0  0  0  0  0  0  0  0  0
   -1.1657   -0.0852    8.5289 O   0  0  0  0  0  0  0  0  0  0  0  0
   -1.7766    0.4892    7.4236 C   0  0  2  0  0  0  0  0  0  0  0  0
   -2.4513    1.8250    7.8982 C   0  0  2  0  0  0  0  0  0  0  0  0
   -1.4930    2.6597    8.4639 O   0  0  0  0  0  0  0  0  0  0  0  0
   -3.6461    1.5556    8.9088 C   0  0  1  0  0  0  0  0  0  0  0  0
   -4.2820    2.8395    9.3380 N   0  0  0  0  0  0  0  0  0  0  0  0
   -4.7059    0.6026    8.2019 C   0  0  2  0  0  0  0  0  0  0  0  0
   -5.8136    0.3394    9.0720 O   0  0  0  0  0  0  0  0  0  0  0  0
   -3.9678   -0.7280    7.7852 C   0  0  2  0  0  0  0  0  0  0  0  0
   -2.7973   -0.4300    6.8580 O   0  0  0  0  0  0  0  0  0  0  0  0
   -4.9104   -1.6787    7.0865 C   0  0  0  0  0  0  0  0  0  0  0  0
   -5.5531   -2.5922    7.9949 O   0  0  0  0  0  0  0  0  0  0  0  0
   -4.9113   -5.2786    6.5087 O   0  0  0  0  0  0  0  0  0  0  0  0
   -4.5138   -7.4376    4.6906 O   0  0  0  0  0  0  0  0  0  0  0  0
   -3.4820    0.0879   11.7078 C   0  0  0  0  0  0  0  0  0  0  0  0
   -4.5683    0.2509   11.0767 O   0  0  0  0  0  0  0  0  0  0  0  0
   -3.2930    0.5680   13.1797 C   0  0  2  0  0  0  0  0  0  0  0  0
   -0.4022    1.1161   12.2623 N   0  0  0  0  0  0  0  0  0  0  0  0
   -2.5481    1.9377   13.2292 C   0  0  0  0  0  0  0  0  0  0  0  0
   -1.5009    2.1006   12.1149 C   0  0  0  0  0  0  0  0  0  0  0  0
   -2.5798   -0.2297   13.8675 O   0  0  0  0  0  0  0  0  0  0  0  0
  1  2  1  1  0  0  0
  1  3  1  0  0  0  0
  1  8  1  0  0  0  0
  3  4  1  0  0  0  0
  3 32  1  1  0  0  0
  4  5  1  0  0  0  0
  4 33  1  6  0  0  0
  5  6  1  1  0  0  0
  5  7  1  0  0  0  0
  7  8  1  0  0  0  0
  7  9  1  6  0  0  0
  9 10  1  0  0  0  0
 11 12  1  1  0  0  0
 11 13  1  0  0  0  0
 11 19  1  0  0  0  0
 12 34  1  0  0  0  0
 13 14  1  0  0  0  0
 14 15  1  1  0  0  0
 14 16  1  0  0  0  0
 16  2  1  6  0  0  0
 16 17  1  0  0  0  0
 17 18  1  6  0  0  0
 17 19  1  0  0  0  0
 19 20  1  6  0  0  0
 21 20  1  1  0  0  0
 21 22  1  0  0  0  0
 21 29  1  0  0  0  0
 22 23  1  1  0  0  0
 22 24  1  0  0  0  0
 24 25  1  6  0  0  0
 24 26  1  0  0  0  0
 26 27  1  1  0  0  0
 26 28  1  0  0  0  0
 28 29  1  0  0  0  0
 28 30  1  6  0  0  0
 30 31  1  0  0  0  0
 34 35  2  0  0  0  0
 36 34  1  6  0  0  0
 36 38  1  0  0  0  0
 36 40  1  0  0  0  0
 37 39  1  0  0  0  0
 38 39  1  0  0  0  0
M  END
>  <CHROM.1>
-131.78179669,93.16402826,-66.99001502,-86.52291312,-86.20272216,125.84069391
-91.34630200,80.95004442,-34.10127972,-64.45567085,-2.74656828,-2.11828375
8.11491248,-1.47869910,0.81675706,0.65841625

>  <Name>
ligand

>  <RI>
0

>  <Rbt.Current_Directory>
/home/itssahil/PROJECTS/Mol_Feturizer/New_Systems/rnas/4P20

>  <Rbt.Executable>
rbdock ($Id: //depot/dev/client3/rdock/2013.1/src/exe/rbdock.cxx#4 $)

>  <Rbt.Library>
libRbt.so (2013.1, Build901 2013/11/27)

>  <Rbt.Parameter_File>
/export/apps/rDock/src/rDock_2013.1_src/data/scripts/dock_solv.prm

>  <Rbt.Receptor>
prm/blind_docking_40.prm

>  <SCORE>
72.8526

>  <SCORE.INTER>
39.9476

>  <SCORE.INTER.CONST>
1

>  <SCORE.INTER.POLAR>
0

>  <SCORE.INTER.ROT>
10

>  <SCORE.INTER.SOLV>
25.8734

>  <SCORE.INTER.VDW>
7.74062

>  <SCORE.INTER.norm>
0.99869

>  <SCORE.INTRA>
12.4277

>  <SCORE.INTRA.DIHEDRAL>
-0.829974

>  <SCORE.INTRA.DIHEDRAL.0>
28.2802

>  <SCORE.INTRA.POLAR>
0

>  <SCORE.INTRA.POLAR.0>
0

>  <SCORE.INTRA.REPUL>
0

>  <SCORE.INTRA.REPUL.0>
0

>  <SCORE.INTRA.SOLV>
11.2658

>  <SCORE.INTRA.SOLV.lig_0>
-101.981

>  <SCORE.INTRA.VDW>
7.20982

>  <SCORE.INTRA.VDW.0>
-5.72964

>  <SCORE.INTRA.norm>
0.310693

>  <SCORE.RESTR>
20.4773

>  <SCORE.RESTR.CAVITY>
20.4773

>  <SCORE.RESTR.norm>
0.511933

>  <SCORE.SYSTEM>
0

>  <SCORE.SYSTEM.CONST>
0

>  <SCORE.SYSTEM.DIHEDRAL>
0

>  <SCORE.SYSTEM.SOLV>
0

>  <SCORE.SYSTEM.norm>
0

>  <SCORE.heavy>
40

>  <SCORE.norm>
1.82132

>  <RMSD>
14.851

$$$$
ligand
 OpenBabel11021811503D
libRbt.so/2013.1/901 2013/11/27
 40 42  0  0  0  0  0  0  0  0999 V2000
   -2.1984   -4.5161    5.3684 C   0  0  2  0  0  0  0  0  0  0  0  0
   -1.6236   -5.0043    6.5908 O   0  0  0  0  0  0  0  0  0  0  0  0
   -3.6634   -3.9943    5.6150 C   0  0  1  0  0  0  0  0  0  0  0  0
   -4.6218   -5.1513    6.0218 C   0  0  2  0  0  0  0  0  0  0  0  0
   -4.6276   -6.1940    4.8595 C   0  0  2  0  0  0  0  0  0  0  0  0
   -5.5287   -7.2720    5.1918 O   0  0  0  0  0  0  0  0  0  0  0  0
   -3.1451   -6.7371    4.6620 C   0  0  2  0  0  0  0  0  0  0  0  0
   -2.2269   -5.5908    4.3255 O   0  0  0  0  0  0  0  0  0  0  0  0
   -3.0410   -7.7509    3.5308 C   0  0  0  0  0  0  0  0  0  0  0  0
   -1.8871   -8.6828    3.7325 N   0  0  0  0  0  0  0  0  0  0  0  0
   -2.6692   -1.9773    9.6032 C   0  0  2  0  0  0  0  0  0  0  0  0
   -2.6062   -1.1817   10.8071 N   0  0  0  0  0  0  0  0  0  0  0  0
   -2.8289   -3.5041    9.9856 C   0  0  0  0  0  0  0  0  0  0  0  0
   -2.8951   -4.3959    8.6660 C   0  0  2  0  0  0  0  0  0  0  0  0
   -3.0617   -5.8282    9.0268 N   0  0  0  0  0  0  0  0  0  0  0  0
   -1.5643   -4.1663    7.8098 C   0  0  2  0  0  0  0  0  0  0  0  0
   -1.4483   -2.6232    7.4532 C   0  0  2  0  0  0  0  0  0  0  0  0
   -0.2628   -2.4082    6.6840 O   0  0  0  0  0  0  0  0  0  0  0  0
   -1.3878   -1.7518    8.7693 C   0  0  1  0  0  0  0  0  0  0  0  0
   -1.3034   -0.3460    8.4269 O   0  0  0  0  0  0  0  0  0  0  0  0
   -2.1065    0.3035    7.5006 C   0  0  2  0  0  0  0  0  0  0  0  0
   -2.2545    1.7951    7.9678 C   0  0  2  0  0  0  0  0  0  0  0  0
   -0.9968    2.3797    8.0766 O   0  0  0  0  0  0  0  0  0  0  0  0
   -3.0601    1.9089    9.3314 C   0  0  1  0  0  0  0  0  0  0  0  0
   -3.2000    3.3376    9.7512 N   0  0  0  0  0  0  0  0  0  0  0  0
   -4.4854    1.2289    9.1389 C   0  0  2  0  0  0  0  0  0  0  0  0
   -5.2583    1.3175   10.3424 O   0  0  0  0  0  0  0  0  0  0  0  0
   -4.2588   -0.2710    8.7054 C   0  0  2  0  0  0  0  0  0  0  0  0
   -3.4403   -0.3460    7.4236 O   0  0  0  0  0  0  0  0  0  0  0  0
   -5.5740   -0.9792    8.4833 C   0  0  0  0  0  0  0  0  0  0  0  0
   -5.6466   -2.2442    9.1669 O   0  0  0  0  0  0  0  0  0  0  0  0
   -3.6167   -2.9737    6.6544 O   0  0  0  0  0  0  0  0  0  0  0  0
   -5.8842   -4.6433    6.2114 O   0  0  0  0  0  0  0  0  0  0  0  0
   -1.3656   -0.5251   11.1488 C   0  0  0  0  0  0  0  0  0  0  0  0
   -0.2717   -0.9671   10.6874 O   0  0  0  0  0  0  0  0  0  0  0  0
   -1.4319    0.7162   12.0908 C   0  0  2  0  0  0  0  0  0  0  0  0
   -2.3985    0.6529   15.3547 N   0  0  0  0  0  0  0  0  0  0  0  0
   -2.7707    0.7391   12.8912 C   0  0  0  0  0  0  0  0  0  0  0  0
   -2.6820    1.5400   14.2011 C   0  0  0  0  0  0  0  0  0  0  0  0
   -1.3999    1.8168   11.4540 O   0  0  0  0  0  0  0  0  0  0  0  0
  1  2  1  1  0  0  0
  1  3  1  0  0  0  0
  1  8  1  0  0  0  0
  3  4  1  0  0  0  0
  3 32  1  1  0  0  0
  4  5  1  0  0  0  0
  4 33  1  6  0  0  0
  5  6  1  1  0  0  0
  5  7  1  0  0  0  0
  7  8  1  0  0  0  0
  7  9  1  6  0  0  0
  9 10  1  0  0  0  0
 11 12  1  1  0  0  0
 11 13  1  0  0  0  0
 11 19  1  0  0  0  0
 12 34  1  0  0  0  0
 13 14  1  0  0  0  0
 14 15  1  1  0  0  0
 14 16  1  0  0  0  0
 16  2  1  6  0  0  0
 16 17  1  0  0  0  0
 17 18  1  1  0  0  0
 17 19  1  0  0  0  0
 19 20  1  6  0  0  0
 21 20  1  1  0  0  0
 21 22  1  0  0  0  0
 21 29  1  0  0  0  0
 22 23  1  1  0  0  0
 22 24  1  0  0  0  0
 24 25  1  6  0  0  0
 24 26  1  0  0  0  0
 26 27  1  1  0  0  0
 26 28  1  0  0  0  0
 28 29  1  0  0  0  0
 28 30  1  6  0  0  0
 30 31  1  0  0  0  0
 34 35  2  0  0  0  0
 36 34  1  6  0  0  0
 36 38  1  0  0  0  0
 36 40  1  0  0  0  0
 37 39  1  0  0  0  0
 38 39  1  0  0  0  0
M  END
>  <CHROM.1>
-54.42997233,90.02413539,-154.16919146,111.78995713,-72.32667837,149.69481484
-130.45913948,19.74648814,156.23203040,-95.57492233,-2.87345401,-2.10520988
8.32513292,3.11616751,1.48351291,2.28521614

>  <Name>
ligand

>  <RI>
0

>  <Rbt.Current_Directory>
/home/itssahil/PROJECTS/Mol_Feturizer/New_Systems/rnas/4P20

>  <Rbt.Executable>
rbdock ($Id: //depot/dev/client3/rdock/2013.1/src/exe/rbdock.cxx#4 $)

>  <Rbt.Library>
libRbt.so (2013.1, Build901 2013/11/27)

>  <Rbt.Parameter_File>
/export/apps/rDock/src/rDock_2013.1_src/data/scripts/dock_solv.prm

>  <Rbt.Receptor>
prm/blind_docking_40.prm

>  <SCORE>
79.4043

>  <SCORE.INTER>
36.3625

>  <SCORE.INTER.CONST>
1

>  <SCORE.INTER.POLAR>
0

>  <SCORE.INTER.ROT>
10

>  <SCORE.INTER.SOLV>
25.2272

>  <SCORE.INTER.VDW>
5.56598

>  <SCORE.INTER.norm>
0.909064

>  <SCORE.INTRA>
23.9041

>  <SCORE.INTRA.DIHEDRAL>
-4.68352

>  <SCORE.INTRA.DIHEDRAL.0>
28.2802

>  <SCORE.INTRA.POLAR>
0

>  <SCORE.INTRA.POLAR.0>
0

>  <SCORE.INTRA.REPUL>
0.43429

>  <SCORE.INTRA.REPUL.0>
0

>  <SCORE.INTRA.SOLV>
7.94537

>  <SCORE.INTRA.SOLV.lig_0>
-101.981

>  <SCORE.INTRA.VDW>
20.1017

>  <SCORE.INTRA.VDW.0>
-5.72964

>  <SCORE.INTRA.norm>
0.597603

>  <SCORE.RESTR>
19.1377

>  <SCORE.RESTR.CAVITY>
19.1377

>  <SCORE.RESTR.norm>
0.478442

>  <SCORE.SYSTEM>
0

>  <SCORE.SYSTEM.CONST>
0

>  <SCORE.SYSTEM.DIHEDRAL>
0

>  <SCORE.SYSTEM.SOLV>
0

>  <SCORE.SYSTEM.norm>
0

>  <SCORE.heavy>
40

>  <SCORE.norm>
1.98511

>  <RMSD>
14.899

$$$$
ligand
 OpenBabel11021811503D
libRbt.so/2013.1/901 2013/11/27
 40 42  0  0  0  0  0  0  0  0999 V2000
   -2.4751   -4.5835    5.7067 C   0  0  2  0  0  0  0  0  0  0  0  0
   -2.2846   -5.0187    7.0622 O   0  0  0  0  0  0  0  0  0  0  0  0
   -3.2719   -5.6647    4.8849 C   0  0  1  0  0  0  0  0  0  0  0  0
   -2.4539   -6.9793    4.7251 C   0  0  2  0  0  0  0  0  0  0  0  0
   -1.1294   -6.6264    3.9772 C   0  0  2  0  0  0  0  0  0  0  0  0
   -0.3548   -7.8301    3.7878 O   0  0  0  0  0  0  0  0  0  0  0  0
   -0.3242   -5.5676    4.8501 C   0  0  2  0  0  0  0  0  0  0  0  0
   -1.1592   -4.3276    5.0386 O   0  0  0  0  0  0  0  0  0  0  0  0
    0.9813   -5.1416    4.1926 C   0  0  0  0  0  0  0  0  0  0  0  0
    0.7388   -4.2438    3.0198 N   0  0  0  0  0  0  0  0  0  0  0  0
   -2.7016   -1.6524    9.8594 C   0  0  2  0  0  0  0  0  0  0  0  0
   -2.4040   -0.7380   10.9372 N   0  0  0  0  0  0  0  0  0  0  0  0
   -2.8208   -3.1229   10.4306 C   0  0  0  0  0  0  0  0  0  0  0  0
   -3.1445   -4.1449    9.2509 C   0  0  2  0  0  0  0  0  0  0  0  0
   -3.2725   -5.5235    9.7918 N   0  0  0  0  0  0  0  0  0  0  0  0
   -1.9871   -4.0605    8.1508 C   0  0  2  0  0  0  0  0  0  0  0  0
   -1.9059   -2.5694    7.6108 C   0  0  2  0  0  0  0  0  0  0  0  0
   -0.8758   -2.4845    6.6233 O   0  0  0  0  0  0  0  0  0  0  0  0
   -1.5888   -1.5677    8.7904 C   0  0  1  0  0  0  0  0  0  0  0  0
   -1.5388   -0.2102    8.2850 O   0  0  0  0  0  0  0  0  0  0  0  0
   -2.5109    0.3883    7.4965 C   0  0  2  0  0  0  0  0  0  0  0  0
   -2.3004    1.9416    7.5857 C   0  0  2  0  0  0  0  0  0  0  0  0
   -1.0126    2.2653    7.1711 O   0  0  0  0  0  0  0  0  0  0  0  0
   -2.5884    2.4930    9.0467 C   0  0  1  0  0  0  0  0  0  0  0  0
   -2.3943    3.9747    9.1060 N   0  0  0  0  0  0  0  0  0  0  0  0
   -4.0731    2.0954    9.4574 C   0  0  2  0  0  0  0  0  0  0  0  0
   -4.3866    2.5833   10.7678 O   0  0  0  0  0  0  0  0  0  0  0  0
   -4.2000    0.5248    9.3786 C   0  0  2  0  0  0  0  0  0  0  0  0
   -3.8678    0.0246    7.9793 O   0  0  0  0  0  0  0  0  0  0  0  0
   -5.5951    0.0717    9.7373 C   0  0  0  0  0  0  0  0  0  0  0  0
   -6.5267    0.2270    8.6507 O   0  0  0  0  0  0  0  0  0  0  0  0
   -4.5328   -5.9218    5.5690 O   0  0  0  0  0  0  0  0  0  0  0  0
   -3.1889   -7.8794    3.9921 O   0  0  0  0  0  0  0  0  0  0  0  0
   -1.0537   -0.2469   11.0868 C   0  0  0  0  0  0  0  0  0  0  0  0
   -0.0869   -0.9063   10.6016 O   0  0  0  0  0  0  0  0  0  0  0  0
   -0.8453    1.0932   11.8568 C   0  0  2  0  0  0  0  0  0  0  0  0
   -3.0500    0.4475   15.0012 N   0  0  0  0  0  0  0  0  0  0  0  0
   -1.2417    0.9423   13.3580 C   0  0  0  0  0  0  0  0  0  0  0  0
   -2.7101    0.5325   13.5607 C   0  0  0  0  0  0  0  0  0  0  0  0
   -1.5736    2.0346   11.4079 O   0  0  0  0  0  0  0  0  0  0  0  0
  1  2  1  1  0  0  0
  1  3  1  0  0  0  0
  1  8  1  0  0  0  0
  3  4  1  0  0  0  0
  3 32  1  1  0  0  0
  4  5  1  0  0  0  0
  4 33  1  6  0  0  0
  5  6  1  1  0  0  0
  5  7  1  0  0  0  0
  7  8  1  0  0  0  0
  7  9  1  6  0  0  0
  9 10  1  0  0  0  0
 11 12  1  1  0  0  0
 11 13  1  0  0  0  0
 11 19  1  0  0  0  0
 12 34  1  0  0  0  0
 13 14  1  0  0  0  0
 14 15  1  1  0  0  0
 14 16  1  0  0  0  0
 16  2  1  6  0  0  0
 16 17  1  0  0  0  0
 17 18  1  6  0  0  0
 17 19  1  0  0  0  0
 19 20  1  6  0  0  0
 21 20  1  1  0  0  0
 21 22  1  0  0  0  0
 21 29  1  0  0  0  0
 22 23  1  1  0  0  0
 22 24  1  0  0  0  0
 24 25  1  6  0  0  0
 24 26  1  0  0  0  0
 26 27  1  1  0  0  0
 26 28  1  0  0  0  0
 28 29  1  0  0  0  0
 28 30  1  6  0  0  0
 30 31  1  0  0  0  0
 34 35  2  0  0  0  0
 36 34  1  6  0  0  0
 36 38  1  0  0  0  0
 36 40  1  0  0  0  0
 37 39  1  0  0  0  0
 38 39  1  0  0  0  0
M  END
>  <CHROM.1>
-159.27869291,119.65134509,72.84447163,103.09903969,-69.48661489,161.41670770
79.47465261,65.78792914,-59.67928945,-178.05796331,-2.30127768,-1.89205962
8.21526327,1.23449240,-1.20727634,-2.76046439

>  <Name>
ligand

>  <RI>
0

>  <Rbt.Current_Directory>
/home/itssahil/PROJECTS/Mol_Feturizer/New_Systems/rnas/4P20

>  <Rbt.Executable>
rbdock ($Id: //depot/dev/client3/rdock/2013.1/src/exe/rbdock.cxx#4 $)

>  <Rbt.Library>
libRbt.so (2013.1, Build901 2013/11/27)

>  <Rbt.Parameter_File>
/export/apps/rDock/src/rDock_2013.1_src/data/scripts/dock_solv.prm

>  <Rbt.Receptor>
prm/blind_docking_40.prm

>  <SCORE>
61.2478

>  <SCORE.INTER>
33.0892

>  <SCORE.INTER.CONST>
1

>  <SCORE.INTER.POLAR>
0

>  <SCORE.INTER.ROT>
10

>  <SCORE.INTER.SOLV>
26.1123

>  <SCORE.INTER.VDW>
3.08868

>  <SCORE.INTER.norm>
0.827229

>  <SCORE.INTRA>
4.63809

>  <SCORE.INTRA.DIHEDRAL>
-13.4609

>  <SCORE.INTRA.DIHEDRAL.0>
28.2802

>  <SCORE.INTRA.POLAR>
0

>  <SCORE.INTRA.POLAR.0>
0

>  <SCORE.INTRA.REPUL>
0

>  <SCORE.INTRA.REPUL.0>
0

>  <SCORE.INTRA.SOLV>
3.96661

>  <SCORE.INTRA.SOLV.lig_0>
-101.981

>  <SCORE.INTRA.VDW>
9.38524

>  <SCORE.INTRA.VDW.0>
-5.72964

>  <SCORE.INTRA.norm>
0.115952

>  <SCORE.RESTR>
23.5205

>  <SCORE.RESTR.CAVITY>
23.5205

>  <SCORE.RESTR.norm>
0.588013

>  <SCORE.SYSTEM>
0

>  <SCORE.SYSTEM.CONST>
0

>  <SCORE.SYSTEM.DIHEDRAL>
0

>  <SCORE.SYSTEM.SOLV>
0

>  <SCORE.SYSTEM.norm>
0

>  <SCORE.heavy>
40

>  <SCORE.norm>
1.53119

>  <RMSD>
14.907

$$$$
ligand
 OpenBabel11021811503D
libRbt.so/2013.1/901 2013/11/27
 40 42  0  0  0  0  0  0  0  0999 V2000
   -2.4662   -4.3855    5.6409 C   0  0  2  0  0  0  0  0  0  0  0  0
   -1.9208   -4.9154    6.8594 O   0  0  0  0  0  0  0  0  0  0  0  0
   -3.9404   -4.8953    5.4262 C   0  0  1  0  0  0  0  0  0  0  0  0
   -3.9858   -6.4342    5.1968 C   0  0  2  0  0  0  0  0  0  0  0  0
   -3.1338   -6.7503    3.9270 C   0  0  2  0  0  0  0  0  0  0  0  0
   -3.1746   -8.1701    3.6681 O   0  0  0  0  0  0  0  0  0  0  0  0
   -1.6409   -6.2661    4.1882 C   0  0  2  0  0  0  0  0  0  0  0  0
   -1.6302   -4.7849    4.4640 O   0  0  0  0  0  0  0  0  0  0  0  0
   -0.7299   -6.5132    2.9935 C   0  0  0  0  0  0  0  0  0  0  0  0
    0.6551   -6.0036    3.2437 N   0  0  0  0  0  0  0  0  0  0  0  0
   -2.6592   -1.8845    9.9575 C   0  0  2  0  0  0  0  0  0  0  0  0
   -2.4704   -1.0802   11.1423 N   0  0  0  0  0  0  0  0  0  0  0  0
   -2.7506   -3.4110   10.3631 C   0  0  0  0  0  0  0  0  0  0  0  0
   -2.9545   -4.3122    9.0642 C   0  0  2  0  0  0  0  0  0  0  0  0
   -3.0566   -5.7444    9.4486 N   0  0  0  0  0  0  0  0  0  0  0  0
   -1.7345   -4.0688    8.0594 C   0  0  2  0  0  0  0  0  0  0  0  0
   -1.6839   -2.5265    7.6845 C   0  0  2  0  0  0  0  0  0  0  0  0
   -0.5981   -2.2992    6.7830 O   0  0  0  0  0  0  0  0  0  0  0  0
   -1.4858   -1.6457    8.9807 C   0  0  1  0  0  0  0  0  0  0  0  0
   -1.4627   -0.2411    8.6241 O   0  0  0  0  0  0  0  0  0  0  0  0
   -2.3320    0.3751    7.7355 C   0  0  2  0  0  0  0  0  0  0  0  0
   -2.5410    1.8515    8.2271 C   0  0  2  0  0  0  0  0  0  0  0  0
   -1.3128    2.5007    8.2986 O   0  0  0  0  0  0  0  0  0  0  0  0
   -3.3015    1.9074    9.6199 C   0  0  1  0  0  0  0  0  0  0  0  0
   -3.5010    3.3219   10.0629 N   0  0  0  0  0  0  0  0  0  0  0  0
   -4.6952    1.1550    9.4695 C   0  0  2  0  0  0  0  0  0  0  0  0
   -5.4275    1.1892   10.7008 O   0  0  0  0  0  0  0  0  0  0  0  0
   -4.4060   -0.3259    9.0087 C   0  0  2  0  0  0  0  0  0  0  0  0
   -3.6317   -0.3432    7.6977 O   0  0  0  0  0  0  0  0  0  0  0  0
   -5.6893   -1.1003    8.8245 C   0  0  0  0  0  0  0  0  0  0  0  0
   -5.5274   -2.5103    9.0660 O   0  0  0  0  0  0  0  0  0  0  0  0
   -4.7275   -4.5248    6.5955 O   0  0  0  0  0  0  0  0  0  0  0  0
   -5.2897   -6.8213    5.0033 O   0  0  0  0  0  0  0  0  0  0  0  0
   -1.2089   -0.4034   11.3359 C   0  0  0  0  0  0  0  0  0  0  0  0
   -0.1686   -0.8324   10.7539 O   0  0  0  0  0  0  0  0  0  0  0  0
   -1.1854    0.8429   12.2734 C   0  0  2  0  0  0  0  0  0  0  0  0
   -1.3677    1.8341   15.0700 N   0  0  0  0  0  0  0  0  0  0  0  0
   -2.5381    0.9942   13.0354 C   0  0  0  0  0  0  0  0  0  0  0  0
   -2.4977    2.0650   14.1385 C   0  0  0  0  0  0  0  0  0  0  0  0
   -1.0329    1.9329   11.6356 O   0  0  0  0  0  0  0  0  0  0  0  0
  1  2  1  1  0  0  0
  1  3  1  0  0  0  0
  1  8  1  0  0  0  0
  3  4  1  0  0  0  0
  3 32  1  1  0  0  0
  4  5  1  0  0  0  0
  4 33  1  6  0  0  0
  5  6  1  1  0  0  0
  5  7  1  0  0  0  0
  7  8  1  0  0  0  0
  7  9  1  6  0  0  0
  9 10  1  0  0  0  0
 11 12  1  1  0  0  0
 11 13  1  0  0  0  0
 11 19  1  0  0  0  0
 12 34  1  0  0  0  0
 13 14  1  0  0  0  0
 14 15  1  1  0  0  0
 14 16  1  0  0  0  0
 16  2  1  6  0  0  0
 16 17  1  0  0  0  0
 17 18  1  6  0  0  0
 17 19  1  0  0  0  0
 19 20  1  6  0  0  0
 21 20  1  1  0  0  0
 21 22  1  0  0  0  0
 21 29  1  0  0  0  0
 22 23  1  1  0  0  0
 22 24  1  0  0  0  0
 24 25  1  6  0  0  0
 24 26  1  0  0  0  0
 26 27  1  1  0  0  0
 26 28  1  0  0  0  0
 28 29  1  0  0  0  0
 28 30  1  6  0  0  0
 30 31  1  0  0  0  0
 34 35  2  0  0  0  0
 36 34  1  6  0  0  0
 36 38  1  0  0  0  0
 36 40  1  0  0  0  0
 37 39  1  0  0  0  0
 38 39  1  0  0  0  0
M  END
>  <CHROM.1>
-106.70258136,99.18010415,177.87199212,111.79005499,-76.10962604,147.78015870
-150.88309753,9.44181740,170.69197879,-53.25019553,-2.63758662,-2.08904436
8.33282096,-1.58167215,0.24804553,0.73501308

>  <Name>
ligand

>  <RI>
0

>  <Rbt.Current_Directory>
/home/itssahil/PROJECTS/Mol_Feturizer/New_Systems/rnas/4P20

>  <Rbt.Executable>
rbdock ($Id: //depot/dev/client3/rdock/2013.1/src/exe/rbdock.cxx#4 $)

>  <Rbt.Library>
libRbt.so (2013.1, Build901 2013/11/27)

>  <Rbt.Parameter_File>
/export/apps/rDock/src/rDock_2013.1_src/data/scripts/dock_solv.prm

>  <Rbt.Receptor>
prm/blind_docking_40.prm

>  <SCORE>
65.2925

>  <SCORE.INTER>
34.2372

>  <SCORE.INTER.CONST>
1

>  <SCORE.INTER.POLAR>
0

>  <SCORE.INTER.ROT>
10

>  <SCORE.INTER.SOLV>
24.4757

>  <SCORE.INTER.VDW>
4.39955

>  <SCORE.INTER.norm>
0.855929

>  <SCORE.INTRA>
12.5563

>  <SCORE.INTRA.DIHEDRAL>
-4.91546

>  <SCORE.INTRA.DIHEDRAL.0>
28.2802

>  <SCORE.INTRA.POLAR>
0

>  <SCORE.INTRA.POLAR.0>
0

>  <SCORE.INTRA.REPUL>
0.003497

>  <SCORE.INTRA.REPUL.0>
0

>  <SCORE.INTRA.SOLV>
6.62355

>  <SCORE.INTRA.SOLV.lig_0>
-101.981

>  <SCORE.INTRA.VDW>
11.6848

>  <SCORE.INTRA.VDW.0>
-5.72964

>  <SCORE.INTRA.norm>
0.313908

>  <SCORE.RESTR>
18.499

>  <SCORE.RESTR.CAVITY>
18.499

>  <SCORE.RESTR.norm>
0.462475

>  <SCORE.SYSTEM>
0

>  <SCORE.SYSTEM.CONST>
0

>  <SCORE.SYSTEM.DIHEDRAL>
0

>  <SCORE.SYSTEM.SOLV>
0

>  <SCORE.SYSTEM.norm>
0

>  <SCORE.heavy>
40

>  <SCORE.norm>
1.63231

>  <RMSD>
14.927

$$$$
ligand
 OpenBabel11021811513D
libRbt.so/2013.1/901 2013/11/27
 40 42  0  0  0  0  0  0  0  0999 V2000
    8.5758  -11.6791    9.9773 C   0  0  2  0  0  0  0  0  0  0  0  0
    7.8926  -10.4510    9.6808 O   0  0  0  0  0  0  0  0  0  0  0  0
   10.1234  -11.5253    9.7312 C   0  0  1  0  0  0  0  0  0  0  0  0
   10.4430  -11.2946    8.2254 C   0  0  2  0  0  0  0  0  0  0  0  0
    9.9083  -12.5287    7.4321 C   0  0  2  0  0  0  0  0  0  0  0  0
   10.2113  -12.3609    6.0304 O   0  0  0  0  0  0  0  0  0  0  0  0
    8.3375  -12.6339    7.6621 C   0  0  2  0  0  0  0  0  0  0  0  0
    8.0513  -12.7990    9.1322 O   0  0  0  0  0  0  0  0  0  0  0  0
    7.7207  -13.8250    6.9417 C   0  0  0  0  0  0  0  0  0  0  0  0
    6.2254  -13.7589    6.9509 N   0  0  0  0  0  0  0  0  0  0  0  0
    8.4483   -6.6868    7.4781 C   0  0  2  0  0  0  0  0  0  0  0  0
    9.0760   -5.6646    6.6735 N   0  0  0  0  0  0  0  0  0  0  0  0
    9.2957   -6.9194    8.7937 C   0  0  0  0  0  0  0  0  0  0  0  0
    8.6172   -8.0493    9.6903 C   0  0  2  0  0  0  0  0  0  0  0  0
    9.4055   -8.2549   10.9336 N   0  0  0  0  0  0  0  0  0  0  0  0
    8.5127   -9.4006    8.8418 C   0  0  2  0  0  0  0  0  0  0  0  0
    7.6571   -9.1159    7.5346 C   0  0  2  0  0  0  0  0  0  0  0  0
    7.5546  -10.3198    6.7707 O   0  0  0  0  0  0  0  0  0  0  0  0
    8.3385   -7.9921    6.6583 C   0  0  1  0  0  0  0  0  0  0  0  0
    7.5352   -7.7296    5.4808 O   0  0  0  0  0  0  0  0  0  0  0  0
    7.9827   -7.8115    4.1701 C   0  0  2  0  0  0  0  0  0  0  0  0
    7.8509   -9.3097    3.7192 C   0  0  2  0  0  0  0  0  0  0  0  0
    6.5301   -9.7253    3.8521 O   0  0  0  0  0  0  0  0  0  0  0  0
    8.8350  -10.2578    4.5279 C   0  0  1  0  0  0  0  0  0  0  0  0
    8.7022  -11.6767    4.0742 N   0  0  0  0  0  0  0  0  0  0  0  0
   10.3240   -9.7330    4.3310 C   0  0  2  0  0  0  0  0  0  0  0  0
   11.2543  -10.5663    5.0336 O   0  0  0  0  0  0  0  0  0  0  0  0
   10.3885   -8.2396    4.8354 C   0  0  2  0  0  0  0  0  0  0  0  0
    9.3974   -7.3685    4.0756 O   0  0  0  0  0  0  0  0  0  0  0  0
   11.7737   -7.6642    4.6604 C   0  0  0  0  0  0  0  0  0  0  0  0
   12.0820   -6.6509    5.6355 O   0  0  0  0  0  0  0  0  0  0  0  0
   10.6063  -10.4113   10.5374 O   0  0  0  0  0  0  0  0  0  0  0  0
   11.8030  -11.1803    8.0673 O   0  0  0  0  0  0  0  0  0  0  0  0
    8.2428   -4.7246    5.9599 C   0  0  0  0  0  0  0  0  0  0  0  0
    7.0465   -5.0317    5.6782 O   0  0  0  0  0  0  0  0  0  0  0  0
    8.8681   -3.3535    5.5579 C   0  0  2  0  0  0  0  0  0  0  0  0
    8.2468   -5.3150    2.8692 N   0  0  0  0  0  0  0  0  0  0  0  0
    8.9572   -3.2135    4.0068 C   0  0  0  0  0  0  0  0  0  0  0  0
    9.4096   -4.5050    3.3050 C   0  0  0  0  0  0  0  0  0  0  0  0
   10.0607   -3.2166    5.9787 O   0  0  0  0  0  0  0  0  0  0  0  0
  1  2  1  6  0  0  0
  1  3  1  0  0  0  0
  1  8  1  0  0  0  0
  3  4  1  0  0  0  0
  3 32  1  1  0  0  0
  4  5  1  0  0  0  0
  4 33  1  1  0  0  0
  5  6  1  6  0  0  0
  5  7  1  0  0  0  0
  7  8  1  0  0  0  0
  7  9  1  6  0  0  0
  9 10  1  0  0  0  0
 11 12  1  6  0  0  0
 11 13  1  0  0  0  0
 11 19  1  0  0  0  0
 12 34  1  0  0  0  0
 13 14  1  0  0  0  0
 14 15  1  1  0  0  0
 14 16  1  0  0  0  0
 16  2  1  1  0  0  0
 16 17  1  0  0  0  0
 17 18  1  6  0  0  0
 17 19  1  0  0  0  0
 19 20  1  6  0  0  0
 21 20  1  1  0  0  0
 21 22  1  0  0  0  0
 21 29  1  0  0  0  0
 22 23  1  1  0  0  0
 22 24  1  0  0  0  0
 24 25  1  6  0  0  0
 24 26  1  0  0  0  0
 26 27  1  1  0  0  0
 26 28  1  0  0  0  0
 28 29  1  0  0  0  0
 28 30  1  6  0  0  0
 30 31  1  0  0  0  0
 34 35  2  0  0  0  0
 36 34  1  6  0  0  0
 36 38  1  0  0  0  0
 36 40  1  0  0  0  0
 37 39  1  0  0  0  0
 38 39  1  0  0  0  0
M  END
>  <CHROM.1>
18.91705239,-120.69699293,-169.06976660,-142.41762700,116.44808830,85.08153731
-150.97485286,115.02288631,-41.31168605,93.69927767,9.02190438,-8.83394532
6.53258526,-1.69362727,-1.41801257,-0.57467770

>  <Name>
ligand

>  <RI>
0

>  <Rbt.Current_Directory>
/home/itssahil/PROJECTS/Mol_Feturizer/New_Systems/rnas/4P20

>  <Rbt.Executable>
rbdock ($Id: //depot/dev/client3/rdock/2013.1/src/exe/rbdock.cxx#4 $)

>  <Rbt.Library>
libRbt.so (2013.1, Build901 2013/11/27)

>  <Rbt.Parameter_File>
/export/apps/rDock/src/rDock_2013.1_src/data/scripts/dock_solv.prm

>  <Rbt.Receptor>
prm/blind_docking_80.prm

>  <SCORE>
63.0454

>  <SCORE.INTER>
25.7506

>  <SCORE.INTER.CONST>
1

>  <SCORE.INTER.POLAR>
0

>  <SCORE.INTER.ROT>
10

>  <SCORE.INTER.SOLV>
18.0462

>  <SCORE.INTER.VDW>
0.884983

>  <SCORE.INTER.norm>
0.643765

>  <SCORE.INTRA>
15.1398

>  <SCORE.INTRA.DIHEDRAL>
4.9184

>  <SCORE.INTRA.DIHEDRAL.0>
28.2802

>  <SCORE.INTRA.POLAR>
0

>  <SCORE.INTRA.POLAR.0>
0

>  <SCORE.INTRA.REPUL>
0

>  <SCORE.INTRA.REPUL.0>
0

>  <SCORE.INTRA.SOLV>
16.2041

>  <SCORE.INTRA.SOLV.lig_0>
-101.981

>  <SCORE.INTRA.VDW>
4.57852

>  <SCORE.INTRA.VDW.0>
-5.72964

>  <SCORE.INTRA.norm>
0.378494

>  <SCORE.RESTR>
22.155

>  <SCORE.RESTR.CAVITY>
22.155

>  <SCORE.RESTR.norm>
0.553875

>  <SCORE.SYSTEM>
0

>  <SCORE.SYSTEM.CONST>
0

>  <SCORE.SYSTEM.DIHEDRAL>
0

>  <SCORE.SYSTEM.SOLV>
0

>  <SCORE.SYSTEM.norm>
0

>  <SCORE.heavy>
40

>  <SCORE.norm>
1.57613

>  <RMSD>
15.088

$$$$
ligand
 OpenBabel11021811503D
libRbt.so/2013.1/901 2013/11/27
 40 42  0  0  0  0  0  0  0  0999 V2000
   -1.8882   -6.1103    4.4397 C   0  0  2  0  0  0  0  0  0  0  0  0
   -1.5770   -5.5510    5.7254 O   0  0  0  0  0  0  0  0  0  0  0  0
   -3.4404   -6.0683    4.1785 C   0  0  1  0  0  0  0  0  0  0  0  0
   -4.2118   -6.9928    5.1651 C   0  0  2  0  0  0  0  0  0  0  0  0
   -3.6870   -8.4490    4.9599 C   0  0  2  0  0  0  0  0  0  0  0  0
   -4.4006   -9.3408    5.8431 O   0  0  0  0  0  0  0  0  0  0  0  0
   -2.1272   -8.4717    5.2733 C   0  0  2  0  0  0  0  0  0  0  0  0
   -1.4105   -7.5267    4.3441 O   0  0  0  0  0  0  0  0  0  0  0  0
   -1.5135   -9.8518    5.0812 C   0  0  0  0  0  0  0  0  0  0  0  0
   -2.5323  -10.9350    5.2525 N   0  0  0  0  0  0  0  0  0  0  0  0
   -1.2106   -1.4991    7.3921 C   0  0  2  0  0  0  0  0  0  0  0  0
   -1.5202   -0.1196    7.6878 N   0  0  0  0  0  0  0  0  0  0  0  0
   -1.0608   -1.6844    5.8281 C   0  0  0  0  0  0  0  0  0  0  0  0
   -0.7234   -3.2042    5.4858 C   0  0  2  0  0  0  0  0  0  0  0  0
   -0.5668   -3.3731    4.0173 N   0  0  0  0  0  0  0  0  0  0  0  0
   -1.8874   -4.1414    6.0547 C   0  0  2  0  0  0  0  0  0  0  0  0
   -1.9995   -3.9187    7.6230 C   0  0  2  0  0  0  0  0  0  0  0  0
   -3.0356   -4.7555    8.1420 O   0  0  0  0  0  0  0  0  0  0  0  0
   -2.3298   -2.4084    7.9476 C   0  0  1  0  0  0  0  0  0  0  0  0
   -2.4079   -2.2177    9.3822 O   0  0  0  0  0  0  0  0  0  0  0  0
   -3.5709   -2.2740   10.1366 C   0  0  2  0  0  0  0  0  0  0  0  0
   -4.7394   -1.7227    9.2444 C   0  0  2  0  0  0  0  0  0  0  0  0
   -4.8320   -2.4726    8.0764 O   0  0  0  0  0  0  0  0  0  0  0  0
   -4.5572   -0.1786    8.9220 C   0  0  1  0  0  0  0  0  0  0  0  0
   -5.6865    0.3283    8.0826 N   0  0  0  0  0  0  0  0  0  0  0  0
   -4.4635    0.6204   10.2946 C   0  0  2  0  0  0  0  0  0  0  0  0
   -4.3109    2.0252   10.0562 O   0  0  0  0  0  0  0  0  0  0  0  0
   -3.2514    0.0380   11.1195 C   0  0  2  0  0  0  0  0  0  0  0  0
   -3.4322   -1.4535   11.3670 O   0  0  0  0  0  0  0  0  0  0  0  0
   -3.1114    0.7373   12.4506 C   0  0  0  0  0  0  0  0  0  0  0  0
   -2.2026    0.0625   13.3403 O   0  0  0  0  0  0  0  0  0  0  0  0
   -3.8890   -4.6877    4.3080 O   0  0  0  0  0  0  0  0  0  0  0  0
   -5.5552   -6.9273    4.8849 O   0  0  0  0  0  0  0  0  0  0  0  0
   -1.0069    0.4687    8.9033 C   0  0  0  0  0  0  0  0  0  0  0  0
   -0.6883   -0.2761    9.8772 O   0  0  0  0  0  0  0  0  0  0  0  0
   -0.8717    2.0214    8.9624 C   0  0  2  0  0  0  0  0  0  0  0  0
   -0.3463    0.9375   12.0469 N   0  0  0  0  0  0  0  0  0  0  0  0
    0.0839    2.4553   10.1166 C   0  0  0  0  0  0  0  0  0  0  0  0
   -0.5431    2.3066   11.5129 C   0  0  0  0  0  0  0  0  0  0  0  0
   -1.9781    2.6007    9.2037 O   0  0  0  0  0  0  0  0  0  0  0  0
  1  2  1  1  0  0  0
  1  3  1  0  0  0  0
  1  8  1  0  0  0  0
  3  4  1  0  0  0  0
  3 32  1  1  0  0  0
  4  5  1  0  0  0  0
  4 33  1  6  0  0  0
  5  6  1  1  0  0  0
  5  7  1  0  0  0  0
  7  8  1  0  0  0  0
  7  9  1  6  0  0  0
  9 10  1  0  0  0  0
 11 12  1  6  0  0  0
 11 13  1  0  0  0  0
 11 19  1  0  0  0  0
 12 34  1  0  0  0  0
 13 14  1  0  0  0  0
 14 15  1  6  0  0  0
 14 16  1  0  0  0  0
 16  2  1  1  0  0  0
 16 17  1  0  0  0  0
 17 18  1  6  0  0  0
 17 19  1  0  0  0  0
 19 20  1  1  0  0  0
 21 20  1  6  0  0  0
 21 22  1  0  0  0  0
 21 29  1  0  0  0  0
 22 23  1  6  0  0  0
 22 24  1  0  0  0  0
 24 25  1  6  0  0  0
 24 26  1  0  0  0  0
 26 27  1  6  0  0  0
 26 28  1  0  0  0  0
 28 29  1  0  0  0  0
 28 30  1  1  0  0  0
 30 31  1  0  0  0  0
 34 35  2  0  0  0  0
 36 34  1  1  0  0  0
 36 38  1  0  0  0  0
 36 40  1  0  0  0  0
 37 39  1  0  0  0  0
 38 39  1  0  0  0  0
M  END
>  <CHROM.1>
-61.55107403,-82.60223523,-25.56350530,-146.04234330,146.19710065,-33.37806163
168.09738335,-162.25431610,-73.83808684,86.49973852,-2.58290310,-2.81205761
7.83856778,-1.64690763,0.60924777,0.61342964

>  <Name>
ligand

>  <RI>
0

>  <Rbt.Current_Directory>
/home/itssahil/PROJECTS/Mol_Feturizer/New_Systems/rnas/4P20

>  <Rbt.Executable>
rbdock ($Id: //depot/dev/client3/rdock/2013.1/src/exe/rbdock.cxx#4 $)

>  <Rbt.Library>
libRbt.so (2013.1, Build901 2013/11/27)

>  <Rbt.Parameter_File>
/export/apps/rDock/src/rDock_2013.1_src/data/scripts/dock_solv.prm

>  <Rbt.Receptor>
prm/blind_docking_40.prm

>  <SCORE>
33.8191

>  <SCORE.INTER>
9.72985

>  <SCORE.INTER.CONST>
1

>  <SCORE.INTER.POLAR>
0

>  <SCORE.INTER.ROT>
10

>  <SCORE.INTER.SOLV>
20.9269

>  <SCORE.INTER.VDW>
-10.7557

>  <SCORE.INTER.norm>
0.243246

>  <SCORE.INTRA>
6.92763

>  <SCORE.INTRA.DIHEDRAL>
-10.225

>  <SCORE.INTRA.DIHEDRAL.0>
28.2802

>  <SCORE.INTRA.POLAR>
0

>  <SCORE.INTRA.POLAR.0>
0

>  <SCORE.INTRA.REPUL>
0

>  <SCORE.INTRA.REPUL.0>
0

>  <SCORE.INTRA.SOLV>
12.4973

>  <SCORE.INTRA.SOLV.lig_0>
-101.981

>  <SCORE.INTRA.VDW>
5.79145

>  <SCORE.INTRA.VDW.0>
-5.72964

>  <SCORE.INTRA.norm>
0.173191

>  <SCORE.RESTR>
17.1616

>  <SCORE.RESTR.CAVITY>
17.1616

>  <SCORE.RESTR.norm>
0.42904

>  <SCORE.SYSTEM>
0

>  <SCORE.SYSTEM.CONST>
0

>  <SCORE.SYSTEM.DIHEDRAL>
0

>  <SCORE.SYSTEM.SOLV>
0

>  <SCORE.SYSTEM.norm>
0

>  <SCORE.heavy>
40

>  <SCORE.norm>
0.845477

>  <RMSD>
15.126

$$$$
ligand
 OpenBabel11021811503D
libRbt.so/2013.1/901 2013/11/27
 40 42  0  0  0  0  0  0  0  0999 V2000
   -2.6482   -5.8056    6.2534 C   0  0  2  0  0  0  0  0  0  0  0  0
   -3.1276   -4.4942    6.5904 O   0  0  0  0  0  0  0  0  0  0  0  0
   -1.3221   -5.7105    5.4097 C   0  0  1  0  0  0  0  0  0  0  0  0
   -1.5738   -5.0555    4.0203 C   0  0  2  0  0  0  0  0  0  0  0  0
   -2.6138   -5.9383    3.2606 C   0  0  2  0  0  0  0  0  0  0  0  0
   -2.8527   -5.3735    1.9535 O   0  0  0  0  0  0  0  0  0  0  0  0
   -3.9571   -5.9804    4.1123 C   0  0  2  0  0  0  0  0  0  0  0  0
   -3.6760   -6.5651    5.4722 O   0  0  0  0  0  0  0  0  0  0  0  0
   -5.0338   -6.8382    3.4617 C   0  0  0  0  0  0  0  0  0  0  0  0
   -6.2330   -6.9794    4.3463 N   0  0  0  0  0  0  0  0  0  0  0  0
   -2.1056   -1.2518    9.3782 C   0  0  2  0  0  0  0  0  0  0  0  0
   -1.3124   -0.3669   10.1994 N   0  0  0  0  0  0  0  0  0  0  0  0
   -1.8955   -2.7458    9.8542 C   0  0  0  0  0  0  0  0  0  0  0  0
   -2.7616   -3.7353    8.9533 C   0  0  2  0  0  0  0  0  0  0  0  0
   -2.5758   -5.1368    9.4124 N   0  0  0  0  0  0  0  0  0  0  0  0
   -2.3296   -3.5661    7.4231 C   0  0  2  0  0  0  0  0  0  0  0  0
   -2.5567   -2.0540    6.9943 C   0  0  2  0  0  0  0  0  0  0  0  0
   -2.1767   -1.8933    5.6257 O   0  0  0  0  0  0  0  0  0  0  0  0
   -1.6960   -1.0851    7.8974 C   0  0  1  0  0  0  0  0  0  0  0  0
   -1.9304    0.2910    7.5075 O   0  0  0  0  0  0  0  0  0  0  0  0
   -3.1501    0.8129    7.1015 C   0  0  2  0  0  0  0  0  0  0  0  0
   -3.4120    2.1113    7.9445 C   0  0  2  0  0  0  0  0  0  0  0  0
   -2.3664    3.0099    7.7594 O   0  0  0  0  0  0  0  0  0  0  0  0
   -3.6206    1.7829    9.4840 C   0  0  1  0  0  0  0  0  0  0  0  0
   -3.8807    3.0312   10.2657 N   0  0  0  0  0  0  0  0  0  0  0  0
   -4.8292    0.7582    9.6268 C   0  0  2  0  0  0  0  0  0  0  0  0
   -5.0661    0.4395   11.0037 O   0  0  0  0  0  0  0  0  0  0  0  0
   -4.4819   -0.5304    8.7855 C   0  0  2  0  0  0  0  0  0  0  0  0
   -4.2377   -0.1738    7.3254 O   0  0  0  0  0  0  0  0  0  0  0  0
   -5.5976   -1.5455    8.8569 C   0  0  0  0  0  0  0  0  0  0  0  0
   -5.2152   -2.8298    8.3307 O   0  0  0  0  0  0  0  0  0  0  0  0
   -0.3480   -4.9413    6.1736 O   0  0  0  0  0  0  0  0  0  0  0  0
   -0.3901   -5.0096    3.3243 O   0  0  0  0  0  0  0  0  0  0  0  0
   -1.7665   -0.0557   11.5350 C   0  0  0  0  0  0  0  0  0  0  0  0
   -2.9941   -0.1722   11.8255 O   0  0  0  0  0  0  0  0  0  0  0  0
   -0.7061    0.4229   12.5737 C   0  0  2  0  0  0  0  0  0  0  0  0
   -1.3287    3.3123   13.1947 N   0  0  0  0  0  0  0  0  0  0  0  0
   -1.3918    0.9176   13.8846 C   0  0  0  0  0  0  0  0  0  0  0  0
   -2.1922    2.2175   13.6986 C   0  0  0  0  0  0  0  0  0  0  0  0
   -0.0224    1.4110   12.1562 O   0  0  0  0  0  0  0  0  0  0  0  0
  1  2  1  6  0  0  0
  1  3  1  0  0  0  0
  1  8  1  0  0  0  0
  3  4  1  0  0  0  0
  3 32  1  1  0  0  0
  4  5  1  0  0  0  0
  4 33  1  6  0  0  0
  5  6  1  6  0  0  0
  5  7  1  0  0  0  0
  7  8  1  0  0  0  0
  7  9  1  6  0  0  0
  9 10  1  0  0  0  0
 11 12  1  1  0  0  0
 11 13  1  0  0  0  0
 11 19  1  0  0  0  0
 12 34  1  0  0  0  0
 13 14  1  0  0  0  0
 14 15  1  1  0  0  0
 14 16  1  0  0  0  0
 16  2  1  6  0  0  0
 16 17  1  0  0  0  0
 17 18  1  6  0  0  0
 17 19  1  0  0  0  0
 19 20  1  6  0  0  0
 21 20  1  1  0  0  0
 21 22  1  0  0  0  0
 21 29  1  0  0  0  0
 22 23  1  1  0  0  0
 22 24  1  0  0  0  0
 24 25  1  1  0  0  0
 24 26  1  0  0  0  0
 26 27  1  1  0  0  0
 26 28  1  0  0  0  0
 28 29  1  0  0  0  0
 28 30  1  6  0  0  0
 30 31  1  0  0  0  0
 34 35  2  0  0  0  0
 36 34  1  6  0  0  0
 36 38  1  0  0  0  0
 36 40  1  0  0  0  0
 37 39  1  0  0  0  0
 38 39  1  0  0  0  0
M  END
>  <CHROM.1>
-61.94129414,-93.34574204,174.04894294,-76.29671770,-82.91548729,129.39366133
-168.39505165,171.41157463,-68.34006023,-58.24526883,-2.78312409,-1.88748024
8.04513473,-1.67589115,-0.89499808,0.69073565

>  <Name>
ligand

>  <RI>
0

>  <Rbt.Current_Directory>
/home/itssahil/PROJECTS/Mol_Feturizer/New_Systems/rnas/4P20

>  <Rbt.Executable>
rbdock ($Id: //depot/dev/client3/rdock/2013.1/src/exe/rbdock.cxx#4 $)

>  <Rbt.Library>
libRbt.so (2013.1, Build901 2013/11/27)

>  <Rbt.Parameter_File>
/export/apps/rDock/src/rDock_2013.1_src/data/scripts/dock_solv.prm

>  <Rbt.Receptor>
prm/blind_docking_40.prm

>  <SCORE>
47.5978

>  <SCORE.INTER>
16.8468

>  <SCORE.INTER.CONST>
1

>  <SCORE.INTER.POLAR>
0

>  <SCORE.INTER.ROT>
10

>  <SCORE.INTER.SOLV>
21.3612

>  <SCORE.INTER.VDW>
-6.15584

>  <SCORE.INTER.norm>
0.421171

>  <SCORE.INTRA>
7.55052

>  <SCORE.INTRA.DIHEDRAL>
-12.9988

>  <SCORE.INTRA.DIHEDRAL.0>
28.2802

>  <SCORE.INTRA.POLAR>
0

>  <SCORE.INTRA.POLAR.0>
0

>  <SCORE.INTRA.REPUL>
0.0777328

>  <SCORE.INTRA.REPUL.0>
0

>  <SCORE.INTRA.SOLV>
8.36568

>  <SCORE.INTRA.SOLV.lig_0>
-101.981

>  <SCORE.INTRA.VDW>
9.47842

>  <SCORE.INTRA.VDW.0>
-5.72964

>  <SCORE.INTRA.norm>
0.188763

>  <SCORE.RESTR>
23.2005

>  <SCORE.RESTR.CAVITY>
23.2005

>  <SCORE.RESTR.norm>
0.580013

>  <SCORE.SYSTEM>
0

>  <SCORE.SYSTEM.CONST>
0

>  <SCORE.SYSTEM.DIHEDRAL>
0

>  <SCORE.SYSTEM.SOLV>
0

>  <SCORE.SYSTEM.norm>
0

>  <SCORE.heavy>
40

>  <SCORE.norm>
1.18995

>  <RMSD>
15.199

$$$$
ligand
 OpenBabel11021811513D
libRbt.so/2013.1/901 2013/11/27
 40 42  0  0  0  0  0  0  0  0999 V2000
    9.7401   -6.0466    4.2268 C   0  0  2  0  0  0  0  0  0  0  0  0
    8.4518   -6.6815    4.2157 O   0  0  0  0  0  0  0  0  0  0  0  0
   10.0944   -5.5383    5.6744 C   0  0  1  0  0  0  0  0  0  0  0  0
    9.1338   -4.4026    6.1330 C   0  0  2  0  0  0  0  0  0  0  0  0
    9.2723   -3.2246    5.1175 C   0  0  2  0  0  0  0  0  0  0  0  0
    8.4122   -2.1398    5.5272 O   0  0  0  0  0  0  0  0  0  0  0  0
    8.8658   -3.7537    3.6731 C   0  0  2  0  0  0  0  0  0  0  0  0
    9.7730   -4.8894    3.2764 O   0  0  0  0  0  0  0  0  0  0  0  0
    8.9877   -2.6784    2.6022 C   0  0  0  0  0  0  0  0  0  0  0  0
    8.2328   -1.4414    2.9769 N   0  0  0  0  0  0  0  0  0  0  0  0
    7.9397  -10.5214    6.2950 C   0  0  2  0  0  0  0  0  0  0  0  0
    7.7744  -11.9412    6.5030 N   0  0  0  0  0  0  0  0  0  0  0  0
    6.7362   -9.9698    5.4289 C   0  0  0  0  0  0  0  0  0  0  0  0
    6.9075   -8.4036    5.1867 C   0  0  2  0  0  0  0  0  0  0  0  0
    5.7674   -7.8840    4.3868 N   0  0  0  0  0  0  0  0  0  0  0  0
    8.3008   -8.1356    4.4493 C   0  0  2  0  0  0  0  0  0  0  0  0
    9.4738   -8.7070    5.3545 C   0  0  2  0  0  0  0  0  0  0  0  0
   10.7248   -8.4687    4.7052 O   0  0  0  0  0  0  0  0  0  0  0  0
    9.2892  -10.2581    5.5895 C   0  0  1  0  0  0  0  0  0  0  0  0
   10.3552  -10.7596    6.4338 O   0  0  0  0  0  0  0  0  0  0  0  0
   11.0341  -10.0210    7.3921 C   0  0  2  0  0  0  0  0  0  0  0  0
   11.3986  -10.9954    8.5681 C   0  0  2  0  0  0  0  0  0  0  0  0
   12.1593  -12.0537    8.0819 O   0  0  0  0  0  0  0  0  0  0  0  0
   10.1036  -11.5188    9.3233 C   0  0  1  0  0  0  0  0  0  0  0  0
   10.4740  -12.4345   10.4463 N   0  0  0  0  0  0  0  0  0  0  0  0
    9.2835  -10.2644    9.8571 C   0  0  2  0  0  0  0  0  0  0  0  0
    8.1080  -10.6864   10.5597 O   0  0  0  0  0  0  0  0  0  0  0  0
    8.9234   -9.3518    8.6215 C   0  0  2  0  0  0  0  0  0  0  0  0
   10.1835   -8.9096    7.8900 O   0  0  0  0  0  0  0  0  0  0  0  0
    8.1579   -8.1244    9.0548 C   0  0  0  0  0  0  0  0  0  0  0  0
    7.9815   -7.1739    7.9879 O   0  0  0  0  0  0  0  0  0  0  0  0
   10.0251   -6.6724    6.5872 O   0  0  0  0  0  0  0  0  0  0  0  0
    9.4953   -3.9899    7.3926 O   0  0  0  0  0  0  0  0  0  0  0  0
    8.5185  -12.8619    5.6751 C   0  0  0  0  0  0  0  0  0  0  0  0
    8.9435  -12.4871    4.5421 O   0  0  0  0  0  0  0  0  0  0  0  0
    8.7635  -14.3017    6.2226 C   0  0  2  0  0  0  0  0  0  0  0  0
    6.6705  -13.8473    9.4486 N   0  0  0  0  0  0  0  0  0  0  0  0
    7.7402  -14.6537    7.3461 C   0  0  0  0  0  0  0  0  0  0  0  0
    7.8801  -13.7673    8.5951 C   0  0  0  0  0  0  0  0  0  0  0  0
    9.9105  -14.4343    6.7563 O   0  0  0  0  0  0  0  0  0  0  0  0
  1  2  1  1  0  0  0
  1  3  1  0  0  0  0
  1  8  1  0  0  0  0
  3  4  1  0  0  0  0
  3 32  1  1  0  0  0
  4  5  1  0  0  0  0
  4 33  1  1  0  0  0
  5  6  1  1  0  0  0
  5  7  1  0  0  0  0
  7  8  1  0  0  0  0
  7  9  1  6  0  0  0
  9 10  1  0  0  0  0
 11 12  1  6  0  0  0
 11 13  1  0  0  0  0
 11 19  1  0  0  0  0
 12 34  1  0  0  0  0
 13 14  1  0  0  0  0
 14 15  1  6  0  0  0
 14 16  1  0  0  0  0
 16  2  1  1  0  0  0
 16 17  1  0  0  0  0
 17 18  1  6  0  0  0
 17 19  1  0  0  0  0
 19 20  1  1  0  0  0
 21 20  1  6  0  0  0
 21 22  1  0  0  0  0
 21 29  1  0  0  0  0
 22 23  1  6  0  0  0
 22 24  1  0  0  0  0
 24 25  1  1  0  0  0
 24 26  1  0  0  0  0
 26 27  1  6  0  0  0
 26 28  1  0  0  0  0
 28 29  1  0  0  0  0
 28 30  1  1  0  0  0
 30 31  1  0  0  0  0
 34 35  2  0  0  0  0
 36 34  1  1  0  0  0
 36 38  1  0  0  0  0
 36 40  1  0  0  0  0
 37 39  1  0  0  0  0
 38 39  1  0  0  0  0
M  END
>  <CHROM.1>
-90.75353396,147.78954152,-53.25681111,99.64568171,-91.42284203,146.37469489
171.49394041,20.17472598,-64.13381505,163.01584842,9.01970514,-8.83651297
6.45832546,1.61057311,-1.25440008,-0.33551365

>  <Name>
ligand

>  <RI>
0

>  <Rbt.Current_Directory>
/home/itssahil/PROJECTS/Mol_Feturizer/New_Systems/rnas/4P20

>  <Rbt.Executable>
rbdock ($Id: //depot/dev/client3/rdock/2013.1/src/exe/rbdock.cxx#4 $)

>  <Rbt.Library>
libRbt.so (2013.1, Build901 2013/11/27)

>  <Rbt.Parameter_File>
/export/apps/rDock/src/rDock_2013.1_src/data/scripts/dock_solv.prm

>  <Rbt.Receptor>
prm/blind_docking_80.prm

>  <SCORE>
49.7766

>  <SCORE.INTER>
9.0623

>  <SCORE.INTER.CONST>
1

>  <SCORE.INTER.POLAR>
0

>  <SCORE.INTER.ROT>
10

>  <SCORE.INTER.SOLV>
20.4189

>  <SCORE.INTER.VDW>
-11.0314

>  <SCORE.INTER.norm>
0.226557

>  <SCORE.INTRA>
14.303

>  <SCORE.INTRA.DIHEDRAL>
-7.94671

>  <SCORE.INTRA.DIHEDRAL.0>
28.2802

>  <SCORE.INTRA.POLAR>
0

>  <SCORE.INTRA.POLAR.0>
0

>  <SCORE.INTRA.REPUL>
1

>  <SCORE.INTRA.REPUL.0>
0

>  <SCORE.INTRA.SOLV>
7.25919

>  <SCORE.INTRA.SOLV.lig_0>
-101.981

>  <SCORE.INTRA.VDW>
9.64676

>  <SCORE.INTRA.VDW.0>
-5.72964

>  <SCORE.INTRA.norm>
0.357575

>  <SCORE.RESTR>
26.4113

>  <SCORE.RESTR.CAVITY>
26.4113

>  <SCORE.RESTR.norm>
0.660282

>  <SCORE.SYSTEM>
0

>  <SCORE.SYSTEM.CONST>
0

>  <SCORE.SYSTEM.DIHEDRAL>
0

>  <SCORE.SYSTEM.SOLV>
0

>  <SCORE.SYSTEM.norm>
0

>  <SCORE.heavy>
40

>  <SCORE.norm>
1.24441

>  <RMSD>
15.201

$$$$
ligand
 OpenBabel11021811513D
libRbt.so/2013.1/901 2013/11/27
 40 42  0  0  0  0  0  0  0  0999 V2000
    9.8033   -4.4697    5.3671 C   0  0  2  0  0  0  0  0  0  0  0  0
    8.5032   -4.7492    5.9100 O   0  0  0  0  0  0  0  0  0  0  0  0
    9.6778   -3.7592    3.9676 C   0  0  1  0  0  0  0  0  0  0  0  0
    9.0424   -4.7004    2.9030 C   0  0  2  0  0  0  0  0  0  0  0  0
    9.9610   -5.9562    2.7707 C   0  0  2  0  0  0  0  0  0  0  0  0
    9.4147   -6.8420    1.7700 O   0  0  0  0  0  0  0  0  0  0  0  0
   10.0339   -6.6789    4.1863 C   0  0  2  0  0  0  0  0  0  0  0  0
   10.5984   -5.7294    5.2109 O   0  0  0  0  0  0  0  0  0  0  0  0
   10.9275   -7.9115    4.1668 C   0  0  0  0  0  0  0  0  0  0  0  0
   12.3459   -7.5673    4.4992 N   0  0  0  0  0  0  0  0  0  0  0  0
    9.2029   -8.3852    8.2806 C   0  0  2  0  0  0  0  0  0  0  0  0
    8.9764   -9.4555    9.2238 N   0  0  0  0  0  0  0  0  0  0  0  0
    9.1504   -6.9954    9.0346 C   0  0  0  0  0  0  0  0  0  0  0  0
    9.3941   -5.8033    8.0048 C   0  0  2  0  0  0  0  0  0  0  0  0
    9.3608   -4.4994    8.7176 N   0  0  0  0  0  0  0  0  0  0  0  0
    8.2811   -5.8640    6.8584 C   0  0  2  0  0  0  0  0  0  0  0  0
    8.3727   -7.2744    6.1342 C   0  0  2  0  0  0  0  0  0  0  0  0
    7.3834   -7.3371    5.1043 O   0  0  0  0  0  0  0  0  0  0  0  0
    8.1335   -8.4457    7.1667 C   0  0  1  0  0  0  0  0  0  0  0  0
    8.2411   -9.7254    6.4948 O   0  0  0  0  0  0  0  0  0  0  0  0
    9.3343  -10.1537    5.7556 C   0  0  2  0  0  0  0  0  0  0  0  0
    8.9979  -11.5835    5.2008 C   0  0  2  0  0  0  0  0  0  0  0  0
    7.8351  -11.5298    4.4392 O   0  0  0  0  0  0  0  0  0  0  0  0
    8.8712  -12.6538    6.3669 C   0  0  1  0  0  0  0  0  0  0  0  0
    8.5633  -14.0097    5.8159 N   0  0  0  0  0  0  0  0  0  0  0  0
   10.2304  -12.6694    7.1936 C   0  0  2  0  0  0  0  0  0  0  0  0
   10.1705  -13.6321    8.2533 O   0  0  0  0  0  0  0  0  0  0  0  0
   10.4846  -11.2140    7.7471 C   0  0  2  0  0  0  0  0  0  0  0  0
   10.5496  -10.2056    6.6081 O   0  0  0  0  0  0  0  0  0  0  0  0
   11.7743  -11.1457    8.5297 C   0  0  0  0  0  0  0  0  0  0  0  0
   12.8045  -11.9868    7.9783 O   0  0  0  0  0  0  0  0  0  0  0  0
    8.8746   -2.5548    4.1362 O   0  0  0  0  0  0  0  0  0  0  0  0
    8.9690   -4.0361    1.7027 O   0  0  0  0  0  0  0  0  0  0  0  0
    7.6864  -10.1053    9.2497 C   0  0  0  0  0  0  0  0  0  0  0  0
    6.6672   -9.4987    8.8045 O   0  0  0  0  0  0  0  0  0  0  0  0
    7.6067  -11.5467    9.8399 C   0  0  2  0  0  0  0  0  0  0  0  0
    9.9299   -9.9812   11.4111 N   0  0  0  0  0  0  0  0  0  0  0  0
    9.0078  -12.0286   10.3282 C   0  0  0  0  0  0  0  0  0  0  0  0
    9.4543  -11.3662   11.6423 C   0  0  0  0  0  0  0  0  0  0  0  0
    7.2335  -12.4078    8.9813 O   0  0  0  0  0  0  0  0  0  0  0  0
  1  2  1  6  0  0  0
  1  3  1  0  0  0  0
  1  8  1  0  0  0  0
  3  4  1  0  0  0  0
  3 32  1  1  0  0  0
  4  5  1  0  0  0  0
  4 33  1  6  0  0  0
  5  6  1  6  0  0  0
  5  7  1  0  0  0  0
  7  8  1  0  0  0  0
  7  9  1  6  0  0  0
  9 10  1  0  0  0  0
 11 12  1  1  0  0  0
 11 13  1  0  0  0  0
 11 19  1  0  0  0  0
 12 34  1  0  0  0  0
 13 14  1  0  0  0  0
 14 15  1  1  0  0  0
 14 16  1  0  0  0  0
 16  2  1  6  0  0  0
 16 17  1  0  0  0  0
 17 18  1  6  0  0  0
 17 19  1  0  0  0  0
 19 20  1  6  0  0  0
 21 20  1  1  0  0  0
 21 22  1  0  0  0  0
 21 29  1  0  0  0  0
 22 23  1  1  0  0  0
 22 24  1  0  0  0  0
 24 25  1  6  0  0  0
 24 26  1  0  0  0  0
 26 27  1  1  0  0  0
 26 28  1  0  0  0  0
 28 29  1  0  0  0  0
 28 30  1  6  0  0  0
 30 31  1  0  0  0  0
 34 35  2  0  0  0  0
 36 34  1  6  0  0  0
 36 38  1  0  0  0  0
 36 40  1  0  0  0  0
 37 39  1  0  0  0  0
 38 39  1  0  0  0  0
M  END
>  <CHROM.1>
153.42565883,48.09300928,89.72207778,103.66756541,-64.54472238,-179.17629478
35.82211491,0.62842964,74.37433473,-77.01379606,9.29166406,-8.66123076,6.61149934
1.50487631,1.41187544,-0.51929322

>  <Name>
ligand

>  <RI>
0

>  <Rbt.Current_Directory>
/home/itssahil/PROJECTS/Mol_Feturizer/New_Systems/rnas/4P20

>  <Rbt.Executable>
rbdock ($Id: //depot/dev/client3/rdock/2013.1/src/exe/rbdock.cxx#4 $)

>  <Rbt.Library>
libRbt.so (2013.1, Build901 2013/11/27)

>  <Rbt.Parameter_File>
/export/apps/rDock/src/rDock_2013.1_src/data/scripts/dock_solv.prm

>  <Rbt.Receptor>
prm/blind_docking_80.prm

>  <SCORE>
45.3311

>  <SCORE.INTER>
13.9895

>  <SCORE.INTER.CONST>
1

>  <SCORE.INTER.POLAR>
0

>  <SCORE.INTER.ROT>
10

>  <SCORE.INTER.SOLV>
25.6065

>  <SCORE.INTER.VDW>
-9.4758

>  <SCORE.INTER.norm>
0.349738

>  <SCORE.INTRA>
5.507

>  <SCORE.INTRA.DIHEDRAL>
-14.9463

>  <SCORE.INTRA.DIHEDRAL.0>
28.2802

>  <SCORE.INTRA.POLAR>
0

>  <SCORE.INTRA.POLAR.0>
0

>  <SCORE.INTRA.REPUL>
0

>  <SCORE.INTRA.REPUL.0>
0

>  <SCORE.INTRA.SOLV>
10.5435

>  <SCORE.INTRA.SOLV.lig_0>
-101.981

>  <SCORE.INTRA.VDW>
7.70842

>  <SCORE.INTRA.VDW.0>
-5.72964

>  <SCORE.INTRA.norm>
0.137675

>  <SCORE.RESTR>
25.8346

>  <SCORE.RESTR.CAVITY>
25.8346

>  <SCORE.RESTR.norm>
0.645864

>  <SCORE.SYSTEM>
0

>  <SCORE.SYSTEM.CONST>
0

>  <SCORE.SYSTEM.DIHEDRAL>
0

>  <SCORE.SYSTEM.SOLV>
0

>  <SCORE.SYSTEM.norm>
0

>  <SCORE.heavy>
40

>  <SCORE.norm>
1.13328

>  <RMSD>
15.205

$$$$
ligand
 OpenBabel11021811513D
libRbt.so/2013.1/901 2013/11/27
 40 42  0  0  0  0  0  0  0  0999 V2000
    9.7442   -4.3845    5.3411 C   0  0  2  0  0  0  0  0  0  0  0  0
    8.4481   -4.6840    5.8828 O   0  0  0  0  0  0  0  0  0  0  0  0
    9.6088   -3.5909    3.9878 C   0  0  1  0  0  0  0  0  0  0  0  0
    8.9514   -4.4614    2.8775 C   0  0  2  0  0  0  0  0  0  0  0  0
    9.8560   -5.7154    2.6593 C   0  0  2  0  0  0  0  0  0  0  0  0
    9.2889   -6.5351    1.6148 O   0  0  0  0  0  0  0  0  0  0  0  0
    9.9388   -6.5216    4.0285 C   0  0  2  0  0  0  0  0  0  0  0  0
   10.5250   -5.6398    5.1004 O   0  0  0  0  0  0  0  0  0  0  0  0
   10.8201   -7.7589    3.9245 C   0  0  0  0  0  0  0  0  0  0  0  0
   12.0960   -7.5907    4.6888 N   0  0  0  0  0  0  0  0  0  0  0  0
    9.2174   -8.3082    8.2499 C   0  0  2  0  0  0  0  0  0  0  0  0
    8.9986   -9.4032    9.1660 N   0  0  0  0  0  0  0  0  0  0  0  0
    9.0409   -6.9347    9.0149 C   0  0  0  0  0  0  0  0  0  0  0  0
    9.2748   -5.7159    8.0147 C   0  0  2  0  0  0  0  0  0  0  0  0
    9.1248   -4.4264    8.7388 N   0  0  0  0  0  0  0  0  0  0  0  0
    8.2359   -5.8233    6.8039 C   0  0  2  0  0  0  0  0  0  0  0  0
    8.4509   -7.2155    6.0707 C   0  0  2  0  0  0  0  0  0  0  0  0
    7.5287   -7.3195    4.9837 O   0  0  0  0  0  0  0  0  0  0  0  0
    8.2201   -8.4134    7.0742 C   0  0  1  0  0  0  0  0  0  0  0  0
    8.4404   -9.6750    6.3955 O   0  0  0  0  0  0  0  0  0  0  0  0
    9.6065  -10.0388    5.7376 C   0  0  2  0  0  0  0  0  0  0  0  0
    9.4169  -11.5086    5.2191 C   0  0  2  0  0  0  0  0  0  0  0  0
    8.3017  -11.5736    4.3900 O   0  0  0  0  0  0  0  0  0  0  0  0
    9.3035  -12.5462    6.4158 C   0  0  1  0  0  0  0  0  0  0  0  0
    9.1361  -13.9399    5.8998 N   0  0  0  0  0  0  0  0  0  0  0  0
   10.6071  -12.4253    7.3197 C   0  0  2  0  0  0  0  0  0  0  0  0
   10.5583  -13.3539    8.4100 O   0  0  0  0  0  0  0  0  0  0  0  0
   10.7131  -10.9366    7.8312 C   0  0  2  0  0  0  0  0  0  0  0  0
   10.7682   -9.9648    6.6603 O   0  0  0  0  0  0  0  0  0  0  0  0
   11.9436  -10.7393    8.6840 C   0  0  0  0  0  0  0  0  0  0  0  0
   12.9981  -11.6648    8.3611 O   0  0  0  0  0  0  0  0  0  0  0  0
    8.8196   -2.3915    4.2377 O   0  0  0  0  0  0  0  0  0  0  0  0
    8.8700   -3.7263    1.7196 O   0  0  0  0  0  0  0  0  0  0  0  0
    7.7323  -10.0979    9.1380 C   0  0  0  0  0  0  0  0  0  0  0  0
    6.7071   -9.5189    8.6702 O   0  0  0  0  0  0  0  0  0  0  0  0
    7.6846  -11.5520    9.6997 C   0  0  2  0  0  0  0  0  0  0  0  0
    7.9581  -13.6430   11.8666 N   0  0  0  0  0  0  0  0  0  0  0  0
    9.0221  -11.9191   10.4137 C   0  0  0  0  0  0  0  0  0  0  0  0
    9.0637  -13.3718   10.9168 C   0  0  0  0  0  0  0  0  0  0  0  0
    7.5381  -12.4255    8.7866 O   0  0  0  0  0  0  0  0  0  0  0  0
  1  2  1  6  0  0  0
  1  3  1  0  0  0  0
  1  8  1  0  0  0  0
  3  4  1  0  0  0  0
  3 32  1  1  0  0  0
  4  5  1  0  0  0  0
  4 33  1  6  0  0  0
  5  6  1  6  0  0  0
  5  7  1  0  0  0  0
  7  8  1  0  0  0  0
  7  9  1  6  0  0  0
  9 10  1  0  0  0  0
 11 12  1  1  0  0  0
 11 13  1  0  0  0  0
 11 19  1  0  0  0  0
 12 34  1  0  0  0  0
 13 14  1  0  0  0  0
 14 15  1  1  0  0  0
 14 16  1  0  0  0  0
 16  2  1  6  0  0  0
 16 17  1  0  0  0  0
 17 18  1  6  0  0  0
 17 19  1  0  0  0  0
 19 20  1  6  0  0  0
 21 20  1  1  0  0  0
 21 22  1  0  0  0  0
 21 29  1  0  0  0  0
 22 23  1  1  0  0  0
 22 24  1  0  0  0  0
 24 25  1  6  0  0  0
 24 26  1  0  0  0  0
 26 27  1  1  0  0  0
 26 28  1  0  0  0  0
 28 29  1  0  0  0  0
 28 30  1  6  0  0  0
 30 31  1  0  0  0  0
 34 35  2  0  0  0  0
 36 34  1  6  0  0  0
 36 38  1  0  0  0  0
 36 40  1  0  0  0  0
 37 39  1  0  0  0  0
 38 39  1  0  0  0  0
M  END
>  <CHROM.1>
155.60193621,52.86583624,109.45230596,101.67389947,-63.33441649,177.24075205
26.52943812,8.98901401,-176.63896392,-58.58696139,9.31194487,-8.68314979
6.59321996,1.56373507,1.25775491,-0.56729847

>  <Name>
ligand

>  <RI>
0

>  <Rbt.Current_Directory>
/home/itssahil/PROJECTS/Mol_Feturizer/New_Systems/rnas/4P20

>  <Rbt.Executable>
rbdock ($Id: //depot/dev/client3/rdock/2013.1/src/exe/rbdock.cxx#4 $)

>  <Rbt.Library>
libRbt.so (2013.1, Build901 2013/11/27)

>  <Rbt.Parameter_File>
/export/apps/rDock/src/rDock_2013.1_src/data/scripts/dock_solv.prm

>  <Rbt.Receptor>
prm/blind_docking_80.prm

>  <SCORE>
47.0586

>  <SCORE.INTER>
13.7884

>  <SCORE.INTER.CONST>
1

>  <SCORE.INTER.POLAR>
0

>  <SCORE.INTER.ROT>
10

>  <SCORE.INTER.SOLV>
24.7366

>  <SCORE.INTER.VDW>
-9.31995

>  <SCORE.INTER.norm>
0.344709

>  <SCORE.INTRA>
5.55367

>  <SCORE.INTRA.DIHEDRAL>
-14.0418

>  <SCORE.INTRA.DIHEDRAL.0>
28.2802

>  <SCORE.INTRA.POLAR>
0

>  <SCORE.INTRA.POLAR.0>
0

>  <SCORE.INTRA.REPUL>
0

>  <SCORE.INTRA.REPUL.0>
0

>  <SCORE.INTRA.SOLV>
7.61657

>  <SCORE.INTRA.SOLV.lig_0>
-101.981

>  <SCORE.INTRA.VDW>
8.76628

>  <SCORE.INTRA.VDW.0>
-5.72964

>  <SCORE.INTRA.norm>
0.138842

>  <SCORE.RESTR>
27.7166

>  <SCORE.RESTR.CAVITY>
27.7166

>  <SCORE.RESTR.norm>
0.692915

>  <SCORE.SYSTEM>
0

>  <SCORE.SYSTEM.CONST>
0

>  <SCORE.SYSTEM.DIHEDRAL>
0

>  <SCORE.SYSTEM.SOLV>
0

>  <SCORE.SYSTEM.norm>
0

>  <SCORE.heavy>
40

>  <SCORE.norm>
1.17647

>  <RMSD>
15.221

$$$$
ligand
 OpenBabel11021811503D
libRbt.so/2013.1/901 2013/11/27
 40 42  0  0  0  0  0  0  0  0999 V2000
   -0.4682   -5.1524    5.1151 C   0  0  2  0  0  0  0  0  0  0  0  0
   -1.5779   -4.3387    5.5268 O   0  0  0  0  0  0  0  0  0  0  0  0
   -0.2611   -5.0591    3.5570 C   0  0  1  0  0  0  0  0  0  0  0  0
   -1.4619   -5.6764    2.7824 C   0  0  2  0  0  0  0  0  0  0  0  0
   -1.5795   -7.1751    3.2047 C   0  0  2  0  0  0  0  0  0  0  0  0
   -2.6701   -7.7882    2.4842 O   0  0  0  0  0  0  0  0  0  0  0  0
   -1.8327   -7.2381    4.7742 C   0  0  2  0  0  0  0  0  0  0  0  0
   -0.6849   -6.5840    5.4987 O   0  0  0  0  0  0  0  0  0  0  0  0
   -1.9422   -8.6663    5.2906 C   0  0  0  0  0  0  0  0  0  0  0  0
   -3.2806   -9.2612    4.9818 N   0  0  0  0  0  0  0  0  0  0  0  0
   -3.0513   -2.1116    9.0194 C   0  0  2  0  0  0  0  0  0  0  0  0
   -3.1594   -1.6340   10.3784 N   0  0  0  0  0  0  0  0  0  0  0  0
   -3.2452   -3.6814    8.9931 C   0  0  0  0  0  0  0  0  0  0  0  0
   -3.1237   -4.2240    7.4993 C   0  0  2  0  0  0  0  0  0  0  0  0
   -3.3225   -5.6969    7.4743 N   0  0  0  0  0  0  0  0  0  0  0  0
   -1.6921   -3.8238    6.9100 C   0  0  2  0  0  0  0  0  0  0  0  0
   -1.5452   -2.2433    6.9593 C   0  0  2  0  0  0  0  0  0  0  0  0
   -0.2692   -1.8750    6.4308 O   0  0  0  0  0  0  0  0  0  0  0  0
   -1.6717   -1.7195    8.4441 C   0  0  1  0  0  0  0  0  0  0  0  0
   -1.5565   -0.2749    8.4693 O   0  0  0  0  0  0  0  0  0  0  0  0
   -2.3901    0.6079    7.7979 C   0  0  2  0  0  0  0  0  0  0  0  0
   -1.9728    2.0623    8.2171 C   0  0  2  0  0  0  0  0  0  0  0  0
   -0.6311    2.2711    7.9149 O   0  0  0  0  0  0  0  0  0  0  0  0
   -2.2650    2.3402    9.7529 C   0  0  1  0  0  0  0  0  0  0  0  0
   -1.8721    3.7339   10.1275 N   0  0  0  0  0  0  0  0  0  0  0  0
   -3.8114    2.0896   10.0305 C   0  0  2  0  0  0  0  0  0  0  0  0
   -4.1290    2.3406   11.4051 O   0  0  0  0  0  0  0  0  0  0  0  0
   -4.1490    0.6041    9.6201 C   0  0  2  0  0  0  0  0  0  0  0  0
   -3.8095    0.3566    8.1565 O   0  0  0  0  0  0  0  0  0  0  0  0
   -5.6115    0.2971    9.8376 C   0  0  0  0  0  0  0  0  0  0  0  0
   -6.4352    0.7007    8.7280 O   0  0  0  0  0  0  0  0  0  0  0  0
   -0.0846   -3.6567    3.2020 O   0  0  0  0  0  0  0  0  0  0  0  0
   -1.2232   -5.5798    1.4328 O   0  0  0  0  0  0  0  0  0  0  0  0
   -2.0379   -0.9407   10.9686 C   0  0  0  0  0  0  0  0  0  0  0  0
   -0.8717   -1.1247   10.5092 O   0  0  0  0  0  0  0  0  0  0  0  0
   -2.3198    0.0148   12.1687 C   0  0  2  0  0  0  0  0  0  0  0  0
   -2.1293    2.4305   13.9732 N   0  0  0  0  0  0  0  0  0  0  0  0
   -0.9897    0.5728   12.7628 C   0  0  0  0  0  0  0  0  0  0  0  0
   -1.1809    1.2985   14.1051 C   0  0  0  0  0  0  0  0  0  0  0  0
   -2.9021   -0.5717   13.1356 O   0  0  0  0  0  0  0  0  0  0  0  0
  1  2  1  6  0  0  0
  1  3  1  0  0  0  0
  1  8  1  0  0  0  0
  3  4  1  0  0  0  0
  3 32  1  6  0  0  0
  4  5  1  0  0  0  0
  4 33  1  6  0  0  0
  5  6  1  6  0  0  0
  5  7  1  0  0  0  0
  7  8  1  0  0  0  0
  7  9  1  1  0  0  0
  9 10  1  0  0  0  0
 11 12  1  1  0  0  0
 11 13  1  0  0  0  0
 11 19  1  0  0  0  0
 12 34  1  0  0  0  0
 13 14  1  0  0  0  0
 14 15  1  1  0  0  0
 14 16  1  0  0  0  0
 16  2  1  6  0  0  0
 16 17  1  0  0  0  0
 17 18  1  1  0  0  0
 17 19  1  0  0  0  0
 19 20  1  6  0  0  0
 21 20  1  1  0  0  0
 21 22  1  0  0  0  0
 21 29  1  0  0  0  0
 22 23  1  1  0  0  0
 22 24  1  0  0  0  0
 24 25  1  6  0  0  0
 24 26  1  0  0  0  0
 26 27  1  1  0  0  0
 26 28  1  0  0  0  0
 28 29  1  0  0  0  0
 28 30  1  6  0  0  0
 30 31  1  0  0  0  0
 34 35  2  0  0  0  0
 36 34  1  6  0  0  0
 36 38  1  0  0  0  0
 36 40  1  0  0  0  0
 37 39  1  0  0  0  0
 38 39  1  0  0  0  0
M  END
>  <CHROM.1>
-156.27845967,-127.00161312,-77.48544184,120.31252024,-60.73468263,174.96858186
84.62820626,174.74837095,-168.90579129,-58.34553799,-2.22712904,-2.10383119
7.91397455,-1.23652545,1.26143022,0.41834103

>  <Name>
ligand

>  <RI>
0

>  <Rbt.Current_Directory>
/home/itssahil/PROJECTS/Mol_Feturizer/New_Systems/rnas/4P20

>  <Rbt.Executable>
rbdock ($Id: //depot/dev/client3/rdock/2013.1/src/exe/rbdock.cxx#4 $)

>  <Rbt.Library>
libRbt.so (2013.1, Build901 2013/11/27)

>  <Rbt.Parameter_File>
/export/apps/rDock/src/rDock_2013.1_src/data/scripts/dock_solv.prm

>  <Rbt.Receptor>
prm/blind_docking_40.prm

>  <SCORE>
43.2073

>  <SCORE.INTER>
7.0164

>  <SCORE.INTER.CONST>
1

>  <SCORE.INTER.POLAR>
0

>  <SCORE.INTER.ROT>
10

>  <SCORE.INTER.SOLV>
18.3515

>  <SCORE.INTER.VDW>
-11.7063

>  <SCORE.INTER.norm>
0.17541

>  <SCORE.INTRA>
10.4115

>  <SCORE.INTRA.DIHEDRAL>
-13.3498

>  <SCORE.INTRA.DIHEDRAL.0>
28.2802

>  <SCORE.INTRA.POLAR>
0

>  <SCORE.INTRA.POLAR.0>
0

>  <SCORE.INTRA.REPUL>
0

>  <SCORE.INTRA.REPUL.0>
0

>  <SCORE.INTRA.SOLV>
7.77579

>  <SCORE.INTRA.SOLV.lig_0>
-101.981

>  <SCORE.INTRA.VDW>
13.1985

>  <SCORE.INTRA.VDW.0>
-5.72964

>  <SCORE.INTRA.norm>
0.260287

>  <SCORE.RESTR>
25.7794

>  <SCORE.RESTR.CAVITY>
25.7794

>  <SCORE.RESTR.norm>
0.644486

>  <SCORE.SYSTEM>
0

>  <SCORE.SYSTEM.CONST>
0

>  <SCORE.SYSTEM.DIHEDRAL>
0

>  <SCORE.SYSTEM.SOLV>
0

>  <SCORE.SYSTEM.norm>
0

>  <SCORE.heavy>
40

>  <SCORE.norm>
1.08018

>  <RMSD>
15.226

$$$$
ligand
 OpenBabel11021811513D
libRbt.so/2013.1/901 2013/11/27
 40 42  0  0  0  0  0  0  0  0999 V2000
    7.4689  -11.9097    8.7951 C   0  0  2  0  0  0  0  0  0  0  0  0
    6.9317  -10.6042    8.5303 O   0  0  0  0  0  0  0  0  0  0  0  0
    8.5144  -11.8501    9.9710 C   0  0  1  0  0  0  0  0  0  0  0  0
    9.7715  -11.0210    9.5773 C   0  0  2  0  0  0  0  0  0  0  0  0
   10.4222  -11.7064    8.3343 C   0  0  2  0  0  0  0  0  0  0  0  0
   11.6094  -10.9771    7.9559 O   0  0  0  0  0  0  0  0  0  0  0  0
    9.3609  -11.7128    7.1489 C   0  0  2  0  0  0  0  0  0  0  0  0
    8.1310  -12.4719    7.5749 O   0  0  0  0  0  0  0  0  0  0  0  0
    9.8958  -12.3822    5.8904 C   0  0  0  0  0  0  0  0  0  0  0  0
    8.8019  -12.6554    4.9058 N   0  0  0  0  0  0  0  0  0  0  0  0
    8.2149   -6.5802    7.3092 C   0  0  2  0  0  0  0  0  0  0  0  0
    9.0696   -5.5051    6.8621 N   0  0  0  0  0  0  0  0  0  0  0  0
    8.7671   -7.1634    8.6722 C   0  0  0  0  0  0  0  0  0  0  0  0
    7.8359   -8.3550    9.1761 C   0  0  2  0  0  0  0  0  0  0  0  0
    8.3467   -8.8908   10.4650 N   0  0  0  0  0  0  0  0  0  0  0  0
    7.7880   -9.4940    8.0548 C   0  0  2  0  0  0  0  0  0  0  0  0
    7.2304   -8.8608    6.7095 C   0  0  2  0  0  0  0  0  0  0  0  0
    7.1802   -9.8728    5.7013 O   0  0  0  0  0  0  0  0  0  0  0  0
    8.1600   -7.6794    6.2244 C   0  0  1  0  0  0  0  0  0  0  0  0
    7.6264   -7.0991    5.0082 O   0  0  0  0  0  0  0  0  0  0  0  0
    8.3001   -7.0119    3.7985 C   0  0  2  0  0  0  0  0  0  0  0  0
    8.1451   -8.3947    3.0712 C   0  0  2  0  0  0  0  0  0  0  0  0
    6.7957   -8.6879    2.9030 O   0  0  0  0  0  0  0  0  0  0  0  0
    8.8923   -9.5585    3.8515 C   0  0  1  0  0  0  0  0  0  0  0  0
    8.7425  -10.8631    3.1356 N   0  0  0  0  0  0  0  0  0  0  0  0
   10.4262   -9.1652    4.0054 C   0  0  2  0  0  0  0  0  0  0  0  0
   11.1485  -10.1934    4.6943 O   0  0  0  0  0  0  0  0  0  0  0  0
   10.5051   -7.7888    4.7724 C   0  0  2  0  0  0  0  0  0  0  0  0
    9.7364   -6.7078    4.0245 O   0  0  0  0  0  0  0  0  0  0  0  0
   11.9369   -7.3387    4.9391 C   0  0  0  0  0  0  0  0  0  0  0  0
   12.7338   -7.5728    3.7632 O   0  0  0  0  0  0  0  0  0  0  0  0
    7.8591  -11.2710   11.1369 O   0  0  0  0  0  0  0  0  0  0  0  0
   10.6525  -11.0129   10.6316 O   0  0  0  0  0  0  0  0  0  0  0  0
    8.4658   -4.2959    6.3519 C   0  0  0  0  0  0  0  0  0  0  0  0
    7.2847   -4.3266    5.8948 O   0  0  0  0  0  0  0  0  0  0  0  0
    9.3134   -2.9871    6.3836 C   0  0  2  0  0  0  0  0  0  0  0  0
    8.2995   -4.0823    3.5508 N   0  0  0  0  0  0  0  0  0  0  0  0
    9.6068   -2.4764    4.9390 C   0  0  0  0  0  0  0  0  0  0  0  0
    9.6601   -3.6043    3.8949 C   0  0  0  0  0  0  0  0  0  0  0  0
   10.4541   -3.1549    6.9209 O   0  0  0  0  0  0  0  0  0  0  0  0
  1  2  1  6  0  0  0
  1  3  1  0  0  0  0
  1  8  1  0  0  0  0
  3  4  1  0  0  0  0
  3 32  1  1  0  0  0
  4  5  1  0  0  0  0
  4 33  1  1  0  0  0
  5  6  1  6  0  0  0
  5  7  1  0  0  0  0
  7  8  1  0  0  0  0
  7  9  1  6  0  0  0
  9 10  1  0  0  0  0
 11 12  1  6  0  0  0
 11 13  1  0  0  0  0
 11 19  1  0  0  0  0
 12 34  1  0  0  0  0
 13 14  1  0  0  0  0
 14 15  1  1  0  0  0
 14 16  1  0  0  0  0
 16  2  1  1  0  0  0
 16 17  1  0  0  0  0
 17 18  1  6  0  0  0
 17 19  1  0  0  0  0
 19 20  1  6  0  0  0
 21 20  1  1  0  0  0
 21 22  1  0  0  0  0
 21 29  1  0  0  0  0
 22 23  1  1  0  0  0
 22 24  1  0  0  0  0
 24 25  1  6  0  0  0
 24 26  1  0  0  0  0
 26 27  1  1  0  0  0
 26 28  1  0  0  0  0
 28 29  1  0  0  0  0
 28 30  1  6  0  0  0
 30 31  1  0  0  0  0
 34 35  2  0  0  0  0
 36 34  1  6  0  0  0
 36 38  1  0  0  0  0
 36 40  1  0  0  0  0
 37 39  1  0  0  0  0
 38 39  1  0  0  0  0
M  END
>  <CHROM.1>
63.39213532,-114.66168860,167.11611987,-136.36197100,118.28519995,82.51700120
40.84676103,115.46796059,-28.76304621,76.05764123,9.01451050,-8.44561206
6.38554359,1.86714499,-1.41723573,2.92910798

>  <Name>
ligand

>  <RI>
0

>  <Rbt.Current_Directory>
/home/itssahil/PROJECTS/Mol_Feturizer/New_Systems/rnas/4P20

>  <Rbt.Executable>
rbdock ($Id: //depot/dev/client3/rdock/2013.1/src/exe/rbdock.cxx#4 $)

>  <Rbt.Library>
libRbt.so (2013.1, Build901 2013/11/27)

>  <Rbt.Parameter_File>
/export/apps/rDock/src/rDock_2013.1_src/data/scripts/dock_solv.prm

>  <Rbt.Receptor>
prm/blind_docking_80.prm

>  <SCORE>
49.2573

>  <SCORE.INTER>
15.0667

>  <SCORE.INTER.CONST>
1

>  <SCORE.INTER.POLAR>
0

>  <SCORE.INTER.ROT>
10

>  <SCORE.INTER.SOLV>
20.23

>  <SCORE.INTER.VDW>
-6.96552

>  <SCORE.INTER.norm>
0.376668

>  <SCORE.INTRA>
12.0739

>  <SCORE.INTRA.DIHEDRAL>
-2.9093

>  <SCORE.INTRA.DIHEDRAL.0>
28.2802

>  <SCORE.INTRA.POLAR>
0

>  <SCORE.INTRA.POLAR.0>
0

>  <SCORE.INTRA.REPUL>
0

>  <SCORE.INTRA.REPUL.0>
0

>  <SCORE.INTRA.SOLV>
20.3764

>  <SCORE.INTRA.SOLV.lig_0>
-101.981

>  <SCORE.INTRA.VDW>
3.34036

>  <SCORE.INTRA.VDW.0>
-5.72964

>  <SCORE.INTRA.norm>
0.301848

>  <SCORE.RESTR>
22.1166

>  <SCORE.RESTR.CAVITY>
22.1166

>  <SCORE.RESTR.norm>
0.552916

>  <SCORE.SYSTEM>
0

>  <SCORE.SYSTEM.CONST>
0

>  <SCORE.SYSTEM.DIHEDRAL>
0

>  <SCORE.SYSTEM.SOLV>
0

>  <SCORE.SYSTEM.norm>
0

>  <SCORE.heavy>
40

>  <SCORE.norm>
1.23143

>  <RMSD>
15.235

$$$$
ligand
 OpenBabel11021811503D
libRbt.so/2013.1/901 2013/11/27
 40 42  0  0  0  0  0  0  0  0999 V2000
   -2.4449   -5.9820    4.9032 C   0  0  2  0  0  0  0  0  0  0  0  0
   -2.3092   -5.4973    6.2485 O   0  0  0  0  0  0  0  0  0  0  0  0
   -3.9646   -6.1333    4.5199 C   0  0  1  0  0  0  0  0  0  0  0  0
   -4.6613   -7.2371    5.3679 C   0  0  2  0  0  0  0  0  0  0  0  0
   -3.9180   -8.5835    5.0977 C   0  0  2  0  0  0  0  0  0  0  0  0
   -4.5553   -9.6381    5.8502 O   0  0  0  0  0  0  0  0  0  0  0  0
   -2.3973   -8.4165    5.5351 C   0  0  2  0  0  0  0  0  0  0  0  0
   -1.7615   -7.3050    4.7411 O   0  0  0  0  0  0  0  0  0  0  0  0
   -1.5782   -9.6765    5.2910 C   0  0  0  0  0  0  0  0  0  0  0  0
   -1.6987  -10.1445    3.8743 N   0  0  0  0  0  0  0  0  0  0  0  0
   -1.3150   -1.5094    7.8097 C   0  0  2  0  0  0  0  0  0  0  0  0
   -1.4235   -0.0979    8.0968 N   0  0  0  0  0  0  0  0  0  0  0  0
   -1.2900   -1.7305    6.2434 C   0  0  0  0  0  0  0  0  0  0  0  0
   -1.1752   -3.2852    5.9109 C   0  0  2  0  0  0  0  0  0  0  0  0
   -1.1353   -3.4900    4.4392 N   0  0  0  0  0  0  0  0  0  0  0  0
   -2.4125   -4.0556    6.5685 C   0  0  2  0  0  0  0  0  0  0  0  0
   -2.3950   -3.8022    8.1361 C   0  0  2  0  0  0  0  0  0  0  0  0
   -3.4959   -4.4904    8.7339 O   0  0  0  0  0  0  0  0  0  0  0  0
   -2.5052   -2.2581    8.4506 C   0  0  1  0  0  0  0  0  0  0  0  0
   -2.4667   -2.0424    9.8833 O   0  0  0  0  0  0  0  0  0  0  0  0
   -3.5431   -1.6462   10.6639 C   0  0  2  0  0  0  0  0  0  0  0  0
   -4.4249   -0.6796    9.7960 C   0  0  2  0  0  0  0  0  0  0  0  0
   -4.8277   -1.3286    8.6334 O   0  0  0  0  0  0  0  0  0  0  0  0
   -3.6642    0.6740    9.4634 C   0  0  1  0  0  0  0  0  0  0  0  0
   -4.5260    1.5841    8.6475 N   0  0  0  0  0  0  0  0  0  0  0  0
   -3.2367    1.3668   10.8303 C   0  0  2  0  0  0  0  0  0  0  0  0
   -2.5555    2.6031   10.5829 O   0  0  0  0  0  0  0  0  0  0  0  0
   -2.3282    0.3549   11.6301 C   0  0  2  0  0  0  0  0  0  0  0  0
   -3.0690   -0.9502   11.8876 O   0  0  0  0  0  0  0  0  0  0  0  0
   -1.8979    0.9381   12.9549 C   0  0  0  0  0  0  0  0  0  0  0  0
   -0.6538    0.3881   13.4267 O   0  0  0  0  0  0  0  0  0  0  0  0
   -4.6163   -4.8445    4.7154 O   0  0  0  0  0  0  0  0  0  0  0  0
   -5.9770   -7.3348    4.9844 O   0  0  0  0  0  0  0  0  0  0  0  0
   -0.7007    0.4456    9.2233 C   0  0  0  0  0  0  0  0  0  0  0  0
   -0.3544   -0.3152   10.1752 O   0  0  0  0  0  0  0  0  0  0  0  0
   -0.3796    1.9718    9.2171 C   0  0  2  0  0  0  0  0  0  0  0  0
   -2.7671    3.4953    8.0001 N   0  0  0  0  0  0  0  0  0  0  0  0
   -0.4692    2.5556    7.7733 C   0  0  0  0  0  0  0  0  0  0  0  0
   -1.9023    2.5813    7.2160 C   0  0  0  0  0  0  0  0  0  0  0  0
    0.8030    2.2253    9.6113 O   0  0  0  0  0  0  0  0  0  0  0  0
  1  2  1  1  0  0  0
  1  3  1  0  0  0  0
  1  8  1  0  0  0  0
  3  4  1  0  0  0  0
  3 32  1  1  0  0  0
  4  5  1  0  0  0  0
  4 33  1  6  0  0  0
  5  6  1  1  0  0  0
  5  7  1  0  0  0  0
  7  8  1  0  0  0  0
  7  9  1  6  0  0  0
  9 10  1  0  0  0  0
 11 12  1  6  0  0  0
 11 13  1  0  0  0  0
 11 19  1  0  0  0  0
 12 34  1  0  0  0  0
 13 14  1  0  0  0  0
 14 15  1  6  0  0  0
 14 16  1  0  0  0  0
 16  2  1  1  0  0  0
 16 17  1  0  0  0  0
 17 18  1  1  0  0  0
 17 19  1  0  0  0  0
 19 20  1  1  0  0  0
 21 20  1  6  0  0  0
 21 22  1  0  0  0  0
 21 29  1  0  0  0  0
 22 23  1  6  0  0  0
 22 24  1  0  0  0  0
 24 25  1  1  0  0  0
 24 26  1  0  0  0  0
 26 27  1  6  0  0  0
 26 28  1  0  0  0  0
 28 29  1  0  0  0  0
 28 30  1  1  0  0  0
 30 31  1  0  0  0  0
 34 35  2  0  0  0  0
 36 34  1  6  0  0  0
 36 38  1  0  0  0  0
 36 40  1  0  0  0  0
 37 39  1  0  0  0  0
 38 39  1  0  0  0  0
M  END
>  <CHROM.1>
-82.38973493,-66.52443239,53.53018154,-142.57787973,131.13260896,-34.23008505
-153.42541794,-19.59128621,68.40870989,64.51342649,-2.50940360,-2.54700365
7.90210216,-1.83187108,1.05505571,0.73833536

>  <Name>
ligand

>  <RI>
0

>  <Rbt.Current_Directory>
/home/itssahil/PROJECTS/Mol_Feturizer/New_Systems/rnas/4P20

>  <Rbt.Executable>
rbdock ($Id: //depot/dev/client3/rdock/2013.1/src/exe/rbdock.cxx#4 $)

>  <Rbt.Library>
libRbt.so (2013.1, Build901 2013/11/27)

>  <Rbt.Parameter_File>
/export/apps/rDock/src/rDock_2013.1_src/data/scripts/dock_solv.prm

>  <Rbt.Receptor>
prm/blind_docking_40.prm

>  <SCORE>
38.5069

>  <SCORE.INTER>
13.2667

>  <SCORE.INTER.CONST>
1

>  <SCORE.INTER.POLAR>
0

>  <SCORE.INTER.ROT>
10

>  <SCORE.INTER.SOLV>
16.2321

>  <SCORE.INTER.VDW>
-6.83291

>  <SCORE.INTER.norm>
0.331667

>  <SCORE.INTRA>
6.09416

>  <SCORE.INTRA.DIHEDRAL>
-10.916

>  <SCORE.INTRA.DIHEDRAL.0>
28.2802

>  <SCORE.INTRA.POLAR>
0

>  <SCORE.INTRA.POLAR.0>
0

>  <SCORE.INTRA.REPUL>
0

>  <SCORE.INTRA.REPUL.0>
0

>  <SCORE.INTRA.SOLV>
14.1274

>  <SCORE.INTRA.SOLV.lig_0>
-101.981

>  <SCORE.INTRA.VDW>
4.48844

>  <SCORE.INTRA.VDW.0>
-5.72964

>  <SCORE.INTRA.norm>
0.152354

>  <SCORE.RESTR>
19.1461

>  <SCORE.RESTR.CAVITY>
19.1461

>  <SCORE.RESTR.norm>
0.478652

>  <SCORE.SYSTEM>
0

>  <SCORE.SYSTEM.CONST>
0

>  <SCORE.SYSTEM.DIHEDRAL>
0

>  <SCORE.SYSTEM.SOLV>
0

>  <SCORE.SYSTEM.norm>
0

>  <SCORE.heavy>
40

>  <SCORE.norm>
0.962672

>  <RMSD>
15.236

$$$$
ligand
 OpenBabel11021811503D
libRbt.so/2013.1/901 2013/11/27
 40 42  0  0  0  0  0  0  0  0999 V2000
   -1.3165   -5.7329    5.5265 C   0  0  2  0  0  0  0  0  0  0  0  0
   -1.8254   -4.4077    5.7453 O   0  0  0  0  0  0  0  0  0  0  0  0
   -0.9191   -5.9311    4.0158 C   0  0  1  0  0  0  0  0  0  0  0  0
   -2.1643   -5.8696    3.0840 C   0  0  2  0  0  0  0  0  0  0  0  0
   -3.1407   -7.0073    3.5206 C   0  0  2  0  0  0  0  0  0  0  0  0
   -4.2990   -6.9969    2.6588 O   0  0  0  0  0  0  0  0  0  0  0  0
   -3.5606   -6.7576    5.0349 C   0  0  2  0  0  0  0  0  0  0  0  0
   -2.3329   -6.7647    5.9082 O   0  0  0  0  0  0  0  0  0  0  0  0
   -4.5018   -7.8312    5.5639 C   0  0  0  0  0  0  0  0  0  0  0  0
   -3.8916   -9.1944    5.4649 N   0  0  0  0  0  0  0  0  0  0  0  0
   -3.2968   -2.0367    9.1428 C   0  0  2  0  0  0  0  0  0  0  0  0
   -3.4025   -1.5010   10.4801 N   0  0  0  0  0  0  0  0  0  0  0  0
   -3.4846   -3.6069    9.1853 C   0  0  0  0  0  0  0  0  0  0  0  0
   -3.3655   -4.2134    7.7160 C   0  0  2  0  0  0  0  0  0  0  0  0
   -3.5586   -5.6867    7.7556 N   0  0  0  0  0  0  0  0  0  0  0  0
   -1.9373   -3.8336    7.1052 C   0  0  2  0  0  0  0  0  0  0  0  0
   -1.7965   -2.2520    7.0854 C   0  0  2  0  0  0  0  0  0  0  0  0
   -0.5236   -1.9021    6.5372 O   0  0  0  0  0  0  0  0  0  0  0  0
   -1.9205   -1.6647    8.5465 C   0  0  1  0  0  0  0  0  0  0  0  0
   -1.8109   -0.2200    8.5086 O   0  0  0  0  0  0  0  0  0  0  0  0
   -2.4235    0.6066    7.5778 C   0  0  2  0  0  0  0  0  0  0  0  0
   -2.4577    2.0549    8.1831 C   0  0  2  0  0  0  0  0  0  0  0  0
   -1.1640    2.4683    8.4843 O   0  0  0  0  0  0  0  0  0  0  0  0
   -3.3987    2.1388    9.4594 C   0  0  1  0  0  0  0  0  0  0  0  0
   -3.4264    3.5283   10.0119 N   0  0  0  0  0  0  0  0  0  0  0  0
   -4.8588    1.6594    9.0478 C   0  0  2  0  0  0  0  0  0  0  0  0
   -5.7516    1.7293   10.1665 O   0  0  0  0  0  0  0  0  0  0  0  0
   -4.7518    0.1901    8.4831 C   0  0  2  0  0  0  0  0  0  0  0  0
   -3.8032    0.1355    7.2933 O   0  0  0  0  0  0  0  0  0  0  0  0
   -6.1028   -0.3277    8.0508 C   0  0  0  0  0  0  0  0  0  0  0  0
   -6.8072   -0.9978    9.1127 O   0  0  0  0  0  0  0  0  0  0  0  0
    0.0449   -4.8986    3.6571 O   0  0  0  0  0  0  0  0  0  0  0  0
   -1.7625   -6.0605    1.7841 O   0  0  0  0  0  0  0  0  0  0  0  0
   -2.2340   -0.9142   11.0942 C   0  0  0  0  0  0  0  0  0  0  0  0
   -1.0789   -1.2419   10.6899 O   0  0  0  0  0  0  0  0  0  0  0  0
   -2.4530    0.1095   12.2502 C   0  0  2  0  0  0  0  0  0  0  0  0
   -2.4079    2.5142   13.9581 N   0  0  0  0  0  0  0  0  0  0  0  0
   -1.1349    0.8792   12.5720 C   0  0  0  0  0  0  0  0  0  0  0  0
   -1.1959    1.6628   13.8939 C   0  0  0  0  0  0  0  0  0  0  0  0
   -2.7933   -0.4490   13.3413 O   0  0  0  0  0  0  0  0  0  0  0  0
  1  2  1  6  0  0  0
  1  3  1  0  0  0  0
  1  8  1  0  0  0  0
  3  4  1  0  0  0  0
  3 32  1  6  0  0  0
  4  5  1  0  0  0  0
  4 33  1  6  0  0  0
  5  6  1  6  0  0  0
  5  7  1  0  0  0  0
  7  8  1  0  0  0  0
  7  9  1  1  0  0  0
  9 10  1  0  0  0  0
 11 12  1  1  0  0  0
 11 13  1  0  0  0  0
 11 19  1  0  0  0  0
 12 34  1  0  0  0  0
 13 14  1  0  0  0  0
 14 15  1  1  0  0  0
 14 16  1  0  0  0  0
 16  2  1  6  0  0  0
 16 17  1  0  0  0  0
 17 18  1  1  0  0  0
 17 19  1  0  0  0  0
 19 20  1  6  0  0  0
 21 20  1  1  0  0  0
 21 22  1  0  0  0  0
 21 29  1  0  0  0  0
 22 23  1  1  0  0  0
 22 24  1  0  0  0  0
 24 25  1  6  0  0  0
 24 26  1  0  0  0  0
 26 27  1  1  0  0  0
 26 28  1  0  0  0  0
 28 29  1  0  0  0  0
 28 30  1  6  0  0  0
 30 31  1  0  0  0  0
 34 35  2  0  0  0  0
 36 34  1  6  0  0  0
 36 38  1  0  0  0  0
 36 40  1  0  0  0  0
 37 39  1  0  0  0  0
 38 39  1  0  0  0  0
M  END
>  <CHROM.1>
-163.64905500,-88.89022758,58.08703597,113.26684768,-76.96800343,160.58233431
-89.78986427,-167.01544478,-166.97600719,-50.75881642,-2.82002914,-2.21753003
7.91850115,1.48182359,-1.23259022,-2.51325847

>  <Name>
ligand

>  <RI>
0

>  <Rbt.Current_Directory>
/home/itssahil/PROJECTS/Mol_Feturizer/New_Systems/rnas/4P20

>  <Rbt.Executable>
rbdock ($Id: //depot/dev/client3/rdock/2013.1/src/exe/rbdock.cxx#4 $)

>  <Rbt.Library>
libRbt.so (2013.1, Build901 2013/11/27)

>  <Rbt.Parameter_File>
/export/apps/rDock/src/rDock_2013.1_src/data/scripts/dock_solv.prm

>  <Rbt.Receptor>
prm/blind_docking_40.prm

>  <SCORE>
41.7614

>  <SCORE.INTER>
8.99158

>  <SCORE.INTER.CONST>
1

>  <SCORE.INTER.POLAR>
0

>  <SCORE.INTER.ROT>
10

>  <SCORE.INTER.SOLV>
19.6304

>  <SCORE.INTER.VDW>
-10.8158

>  <SCORE.INTER.norm>
0.224789

>  <SCORE.INTRA>
6.67437

>  <SCORE.INTRA.DIHEDRAL>
-14.9688

>  <SCORE.INTRA.DIHEDRAL.0>
28.2802

>  <SCORE.INTRA.POLAR>
0

>  <SCORE.INTRA.POLAR.0>
0

>  <SCORE.INTRA.REPUL>
0

>  <SCORE.INTRA.REPUL.0>
0

>  <SCORE.INTRA.SOLV>
7.83884

>  <SCORE.INTRA.SOLV.lig_0>
-101.981

>  <SCORE.INTRA.VDW>
10.2393

>  <SCORE.INTRA.VDW.0>
-5.72964

>  <SCORE.INTRA.norm>
0.166859

>  <SCORE.RESTR>
26.0955

>  <SCORE.RESTR.CAVITY>
26.0955

>  <SCORE.RESTR.norm>
0.652386

>  <SCORE.SYSTEM>
0

>  <SCORE.SYSTEM.CONST>
0

>  <SCORE.SYSTEM.DIHEDRAL>
0

>  <SCORE.SYSTEM.SOLV>
0

>  <SCORE.SYSTEM.norm>
0

>  <SCORE.heavy>
40

>  <SCORE.norm>
1.04403

>  <RMSD>
15.244

$$$$
ligand
 OpenBabel11021811513D
libRbt.so/2013.1/901 2013/11/27
 40 42  0  0  0  0  0  0  0  0999 V2000
    8.0011   -4.5146    3.5515 C   0  0  2  0  0  0  0  0  0  0  0  0
    8.6774   -5.7450    3.8544 O   0  0  0  0  0  0  0  0  0  0  0  0
    9.0038   -3.4689    2.9349 C   0  0  1  0  0  0  0  0  0  0  0  0
   10.0854   -3.0359    3.9671 C   0  0  2  0  0  0  0  0  0  0  0  0
    9.3489   -2.3968    5.1867 C   0  0  2  0  0  0  0  0  0  0  0  0
   10.3253   -1.9586    6.1558 O   0  0  0  0  0  0  0  0  0  0  0  0
    8.3771   -3.4876    5.8169 C   0  0  2  0  0  0  0  0  0  0  0  0
    7.3764   -3.9322    4.7820 O   0  0  0  0  0  0  0  0  0  0  0  0
    7.5933   -2.9525    7.0075 C   0  0  0  0  0  0  0  0  0  0  0  0
    8.4986   -2.5874    8.1423 N   0  0  0  0  0  0  0  0  0  0  0  0
    9.1917   -8.6345    7.1279 C   0  0  2  0  0  0  0  0  0  0  0  0
    9.0436   -9.2627    8.4202 N   0  0  0  0  0  0  0  0  0  0  0  0
    9.7817   -7.1782    7.3119 C   0  0  0  0  0  0  0  0  0  0  0  0
    9.9464   -6.4701    5.8933 C   0  0  2  0  0  0  0  0  0  0  0  0
   10.5162   -5.1082    6.0667 N   0  0  0  0  0  0  0  0  0  0  0  0
    8.5233   -6.4132    5.1664 C   0  0  2  0  0  0  0  0  0  0  0  0
    7.9736   -7.8945    5.0069 C   0  0  2  0  0  0  0  0  0  0  0  0
    6.7026   -7.8545    4.3543 O   0  0  0  0  0  0  0  0  0  0  0  0
    7.8194   -8.5850    6.4192 C   0  0  1  0  0  0  0  0  0  0  0  0
    7.3372   -9.9419    6.2550 O   0  0  0  0  0  0  0  0  0  0  0  0
    7.6782  -10.7938    5.2144 C   0  0  2  0  0  0  0  0  0  0  0  0
    7.9327  -12.2148    5.8318 C   0  0  2  0  0  0  0  0  0  0  0  0
    6.7963  -12.6415    6.5115 O   0  0  0  0  0  0  0  0  0  0  0  0
    9.2065  -12.2265    6.7798 C   0  0  1  0  0  0  0  0  0  0  0  0
    9.4376  -13.5911    7.3466 N   0  0  0  0  0  0  0  0  0  0  0  0
   10.4678  -11.7351    5.9438 C   0  0  2  0  0  0  0  0  0  0  0  0
   11.6492  -11.7404    6.7547 O   0  0  0  0  0  0  0  0  0  0  0  0
   10.1548  -10.2930    5.3858 C   0  0  2  0  0  0  0  0  0  0  0  0
    8.8998  -10.3069    4.5236 O   0  0  0  0  0  0  0  0  0  0  0  0
   11.3045   -9.7662    4.5605 C   0  0  0  0  0  0  0  0  0  0  0  0
   11.3045   -8.3300    4.4600 O   0  0  0  0  0  0  0  0  0  0  0  0
    9.6233   -4.0673    1.7592 O   0  0  0  0  0  0  0  0  0  0  0  0
   10.9225   -2.1169    3.3819 O   0  0  0  0  0  0  0  0  0  0  0  0
   10.2250   -9.7078    9.1224 C   0  0  0  0  0  0  0  0  0  0  0  0
   11.2862   -9.9539    8.4758 O   0  0  0  0  0  0  0  0  0  0  0  0
   10.1354   -9.8723   10.6708 C   0  0  2  0  0  0  0  0  0  0  0  0
    7.6055  -12.0038    9.3354 N   0  0  0  0  0  0  0  0  0  0  0  0
    9.0089  -10.8784   11.0613 C   0  0  0  0  0  0  0  0  0  0  0  0
    8.8837  -12.0596   10.0846 C   0  0  0  0  0  0  0  0  0  0  0  0
    9.8386   -8.7862   11.2626 O   0  0  0  0  0  0  0  0  0  0  0  0
  1  2  1  1  0  0  0
  1  3  1  0  0  0  0
  1  8  1  0  0  0  0
  3  4  1  0  0  0  0
  3 32  1  6  0  0  0
  4  5  1  0  0  0  0
  4 33  1  6  0  0  0
  5  6  1  1  0  0  0
  5  7  1  0  0  0  0
  7  8  1  0  0  0  0
  7  9  1  1  0  0  0
  9 10  1  0  0  0  0
 11 12  1  1  0  0  0
 11 13  1  0  0  0  0
 11 19  1  0  0  0  0
 12 34  1  0  0  0  0
 13 14  1  0  0  0  0
 14 15  1  1  0  0  0
 14 16  1  0  0  0  0
 16  2  1  6  0  0  0
 16 17  1  0  0  0  0
 17 18  1  1  0  0  0
 17 19  1  0  0  0  0
 19 20  1  6  0  0  0
 21 20  1  1  0  0  0
 21 22  1  0  0  0  0
 21 29  1  0  0  0  0
 22 23  1  1  0  0  0
 22 24  1  0  0  0  0
 24 25  1  6  0  0  0
 24 26  1  0  0  0  0
 26 27  1  1  0  0  0
 26 28  1  0  0  0  0
 28 29  1  0  0  0  0
 28 30  1  6  0  0  0
 30 31  1  0  0  0  0
 34 35  2  0  0  0  0
 36 34  1  6  0  0  0
 36 38  1  0  0  0  0
 36 40  1  0  0  0  0
 37 39  1  0  0  0  0
 38 39  1  0  0  0  0
M  END
>  <CHROM.1>
131.55476536,-117.71258882,-63.96939755,-73.05988697,-84.25686483,137.64133472
-157.91953891,57.95698268,36.85777238,-112.56327723,9.16889521,-7.84592097
6.27198407,1.52399442,-1.47078479,-0.44113519

>  <Name>
ligand

>  <RI>
0

>  <Rbt.Current_Directory>
/home/itssahil/PROJECTS/Mol_Feturizer/New_Systems/rnas/4P20

>  <Rbt.Executable>
rbdock ($Id: //depot/dev/client3/rdock/2013.1/src/exe/rbdock.cxx#4 $)

>  <Rbt.Library>
libRbt.so (2013.1, Build901 2013/11/27)

>  <Rbt.Parameter_File>
/export/apps/rDock/src/rDock_2013.1_src/data/scripts/dock_solv.prm

>  <Rbt.Receptor>
prm/blind_docking_80.prm

>  <SCORE>
66.0167

>  <SCORE.INTER>
26.6045

>  <SCORE.INTER.CONST>
1

>  <SCORE.INTER.POLAR>
0

>  <SCORE.INTER.ROT>
10

>  <SCORE.INTER.SOLV>
23.2915

>  <SCORE.INTER.VDW>
-0.2942

>  <SCORE.INTER.norm>
0.665111

>  <SCORE.INTRA>
14.6144

>  <SCORE.INTRA.DIHEDRAL>
3.32979

>  <SCORE.INTRA.DIHEDRAL.0>
28.2802

>  <SCORE.INTRA.POLAR>
0

>  <SCORE.INTRA.POLAR.0>
0

>  <SCORE.INTRA.REPUL>
0.061422

>  <SCORE.INTRA.REPUL.0>
0

>  <SCORE.INTRA.SOLV>
16.929

>  <SCORE.INTRA.SOLV.lig_0>
-101.981

>  <SCORE.INTRA.VDW>
4.17792

>  <SCORE.INTRA.VDW.0>
-5.72964

>  <SCORE.INTRA.norm>
0.36536

>  <SCORE.RESTR>
24.7978

>  <SCORE.RESTR.CAVITY>
24.7978

>  <SCORE.RESTR.norm>
0.619945

>  <SCORE.SYSTEM>
0

>  <SCORE.SYSTEM.CONST>
0

>  <SCORE.SYSTEM.DIHEDRAL>
0

>  <SCORE.SYSTEM.SOLV>
0

>  <SCORE.SYSTEM.norm>
0

>  <SCORE.heavy>
40

>  <SCORE.norm>
1.65042

>  <RMSD>
15.247

$$$$
ligand
 OpenBabel11021811513D
libRbt.so/2013.1/901 2013/11/27
 40 42  0  0  0  0  0  0  0  0999 V2000
    8.1687   -4.5495    3.7568 C   0  0  2  0  0  0  0  0  0  0  0  0
    8.9543   -5.7409    3.9191 O   0  0  0  0  0  0  0  0  0  0  0  0
    9.0943   -3.3138    3.4476 C   0  0  1  0  0  0  0  0  0  0  0  0
   10.0143   -2.9717    4.6557 C   0  0  2  0  0  0  0  0  0  0  0  0
    9.0951   -2.6437    5.8746 C   0  0  2  0  0  0  0  0  0  0  0  0
    9.9165   -2.2955    7.0098 O   0  0  0  0  0  0  0  0  0  0  0  0
    8.2041   -3.9229    6.1928 C   0  0  2  0  0  0  0  0  0  0  0  0
    7.3657   -4.2677    4.9893 O   0  0  0  0  0  0  0  0  0  0  0  0
    7.2533   -3.6959    7.3601 C   0  0  0  0  0  0  0  0  0  0  0  0
    7.9462   -3.8704    8.6754 N   0  0  0  0  0  0  0  0  0  0  0  0
    9.5078   -9.1053    6.6947 C   0  0  2  0  0  0  0  0  0  0  0  0
    9.3687   -9.9319    7.8711 N   0  0  0  0  0  0  0  0  0  0  0  0
   10.0794   -7.6891    7.1075 C   0  0  0  0  0  0  0  0  0  0  0  0
   10.2340   -6.7634    5.8191 C   0  0  2  0  0  0  0  0  0  0  0  0
   10.7866   -5.4390    6.2066 N   0  0  0  0  0  0  0  0  0  0  0  0
    8.8097   -6.6102    5.1087 C   0  0  2  0  0  0  0  0  0  0  0  0
    8.2788   -8.0544    4.7160 C   0  0  2  0  0  0  0  0  0  0  0  0
    7.0068   -7.9278    4.0764 O   0  0  0  0  0  0  0  0  0  0  0  0
    8.1344   -8.9617    6.0011 C   0  0  1  0  0  0  0  0  0  0  0  0
    7.6694  -10.2815    5.6236 O   0  0  0  0  0  0  0  0  0  0  0  0
    8.0367  -10.9622    4.4718 C   0  0  2  0  0  0  0  0  0  0  0  0
    8.2362  -12.4707    4.8584 C   0  0  2  0  0  0  0  0  0  0  0  0
    7.0640  -12.9715    5.4154 O   0  0  0  0  0  0  0  0  0  0  0  0
    9.4686  -12.6700    5.8398 C   0  0  1  0  0  0  0  0  0  0  0  0
    9.6481  -14.1142    6.1849 N   0  0  0  0  0  0  0  0  0  0  0  0
   10.7735  -12.0834    5.1439 C   0  0  2  0  0  0  0  0  0  0  0  0
   11.9195  -12.2518    5.9877 O   0  0  0  0  0  0  0  0  0  0  0  0
   10.5135  -10.5621    4.8171 C   0  0  2  0  0  0  0  0  0  0  0  0
    9.2958  -10.4025    3.9169 O   0  0  0  0  0  0  0  0  0  0  0  0
   11.7073   -9.9394    4.1333 C   0  0  0  0  0  0  0  0  0  0  0  0
   11.8180   -8.5263    4.3859 O   0  0  0  0  0  0  0  0  0  0  0  0
    9.8889   -3.6217    2.2653 O   0  0  0  0  0  0  0  0  0  0  0  0
   10.7883   -1.8823    4.3367 O   0  0  0  0  0  0  0  0  0  0  0  0
    8.1508   -9.8514    8.6439 C   0  0  0  0  0  0  0  0  0  0  0  0
    7.4305   -8.8114    8.5769 O   0  0  0  0  0  0  0  0  0  0  0  0
    7.7760  -11.0683    9.5446 C   0  0  2  0  0  0  0  0  0  0  0  0
   10.5189  -11.1917   10.0294 N   0  0  0  0  0  0  0  0  0  0  0  0
    8.5271  -12.3559    9.0849 C   0  0  0  0  0  0  0  0  0  0  0  0
   10.0540  -12.1812    9.0280 C   0  0  0  0  0  0  0  0  0  0  0  0
    6.5391  -11.3591    9.4853 O   0  0  0  0  0  0  0  0  0  0  0  0
  1  2  1  1  0  0  0
  1  3  1  0  0  0  0
  1  8  1  0  0  0  0
  3  4  1  0  0  0  0
  3 32  1  6  0  0  0
  4  5  1  0  0  0  0
  4 33  1  6  0  0  0
  5  6  1  1  0  0  0
  5  7  1  0  0  0  0
  7  8  1  0  0  0  0
  7  9  1  1  0  0  0
  9 10  1  0  0  0  0
 11 12  1  1  0  0  0
 11 13  1  0  0  0  0
 11 19  1  0  0  0  0
 12 34  1  0  0  0  0
 13 14  1  0  0  0  0
 14 15  1  1  0  0  0
 14 16  1  0  0  0  0
 16  2  1  6  0  0  0
 16 17  1  0  0  0  0
 17 18  1  1  0  0  0
 17 19  1  0  0  0  0
 19 20  1  6  0  0  0
 21 20  1  1  0  0  0
 21 22  1  0  0  0  0
 21 29  1  0  0  0  0
 22 23  1  1  0  0  0
 22 24  1  0  0  0  0
 24 25  1  6  0  0  0
 24 26  1  0  0  0  0
 26 27  1  1  0  0  0
 26 28  1  0  0  0  0
 28 29  1  0  0  0  0
 28 30  1  6  0  0  0
 30 31  1  0  0  0  0
 34 35  2  0  0  0  0
 36 34  1  6  0  0  0
 36 38  1  0  0  0  0
 36 40  1  0  0  0  0
 37 39  1  0  0  0  0
 38 39  1  0  0  0  0
M  END
>  <CHROM.1>
128.07648599,-123.62919413,-81.26251234,86.72295669,-83.19461350,140.01065933
-151.78626346,-19.62215119,55.15155087,29.92152721,9.09738322,-8.16329983
6.00954957,-1.53537439,-1.19787844,2.95354677

>  <Name>
ligand

>  <RI>
0

>  <Rbt.Current_Directory>
/home/itssahil/PROJECTS/Mol_Feturizer/New_Systems/rnas/4P20

>  <Rbt.Executable>
rbdock ($Id: //depot/dev/client3/rdock/2013.1/src/exe/rbdock.cxx#4 $)

>  <Rbt.Library>
libRbt.so (2013.1, Build901 2013/11/27)

>  <Rbt.Parameter_File>
/export/apps/rDock/src/rDock_2013.1_src/data/scripts/dock_solv.prm

>  <Rbt.Receptor>
prm/blind_docking_80.prm

>  <SCORE>
52.7483

>  <SCORE.INTER>
10.8973

>  <SCORE.INTER.CONST>
1

>  <SCORE.INTER.POLAR>
0

>  <SCORE.INTER.ROT>
10

>  <SCORE.INTER.SOLV>
23.5542

>  <SCORE.INTER.VDW>
-10.8532

>  <SCORE.INTER.norm>
0.272432

>  <SCORE.INTRA>
14.4406

>  <SCORE.INTRA.DIHEDRAL>
2.76768

>  <SCORE.INTRA.DIHEDRAL.0>
28.2802

>  <SCORE.INTRA.POLAR>
0

>  <SCORE.INTRA.POLAR.0>
0

>  <SCORE.INTRA.REPUL>
0.00917851

>  <SCORE.INTRA.REPUL.0>
0

>  <SCORE.INTRA.SOLV>
12.5957

>  <SCORE.INTRA.SOLV.lig_0>
-101.981

>  <SCORE.INTRA.VDW>
6.71301

>  <SCORE.INTRA.VDW.0>
-5.72964

>  <SCORE.INTRA.norm>
0.361014

>  <SCORE.RESTR>
27.4105

>  <SCORE.RESTR.CAVITY>
27.4105

>  <SCORE.RESTR.norm>
0.685263

>  <SCORE.SYSTEM>
0

>  <SCORE.SYSTEM.CONST>
0

>  <SCORE.SYSTEM.DIHEDRAL>
0

>  <SCORE.SYSTEM.SOLV>
0

>  <SCORE.SYSTEM.norm>
0

>  <SCORE.heavy>
40

>  <SCORE.norm>
1.31871

>  <RMSD>
15.253

$$$$
ligand
 OpenBabel11021811513D
libRbt.so/2013.1/901 2013/11/27
 40 42  0  0  0  0  0  0  0  0999 V2000
    8.7808   -3.3801    4.1354 C   0  0  2  0  0  0  0  0  0  0  0  0
    9.7912   -4.3602    3.8499 O   0  0  0  0  0  0  0  0  0  0  0  0
    9.4384   -1.9935    4.4883 C   0  0  1  0  0  0  0  0  0  0  0  0
   10.2491   -2.0661    5.8151 C   0  0  2  0  0  0  0  0  0  0  0  0
    9.2626   -2.4806    6.9523 C   0  0  2  0  0  0  0  0  0  0  0  0
    9.9767   -2.5328    8.2060 O   0  0  0  0  0  0  0  0  0  0  0  0
    8.6476   -3.9032    6.5924 C   0  0  2  0  0  0  0  0  0  0  0  0
    7.9173   -3.8208    5.2771 O   0  0  0  0  0  0  0  0  0  0  0  0
    7.6517   -4.3893    7.6364 C   0  0  0  0  0  0  0  0  0  0  0  0
    7.9948   -5.7614    8.1265 N   0  0  0  0  0  0  0  0  0  0  0  0
    7.7296   -8.1548    4.6751 C   0  0  2  0  0  0  0  0  0  0  0  0
    7.4562   -9.5728    4.7048 N   0  0  0  0  0  0  0  0  0  0  0  0
    7.8328   -7.6670    3.1737 C   0  0  0  0  0  0  0  0  0  0  0  0
    8.1394   -6.1035    3.1249 C   0  0  2  0  0  0  0  0  0  0  0  0
    8.2197   -5.6438    1.7136 N   0  0  0  0  0  0  0  0  0  0  0  0
    9.5033   -5.8112    3.9066 C   0  0  2  0  0  0  0  0  0  0  0  0
    9.3507   -6.3187    5.4037 C   0  0  2  0  0  0  0  0  0  0  0  0
   10.5645   -6.0582    6.1123 O   0  0  0  0  0  0  0  0  0  0  0  0
    9.0433   -7.8678    5.4367 C   0  0  1  0  0  0  0  0  0  0  0  0
    8.8863   -8.3105    6.8078 O   0  0  0  0  0  0  0  0  0  0  0  0
    9.9240   -8.6338    7.6700 C   0  0  2  0  0  0  0  0  0  0  0  0
   10.8243   -9.6977    6.9471 C   0  0  2  0  0  0  0  0  0  0  0  0
   11.2836   -9.1813    5.7398 O   0  0  0  0  0  0  0  0  0  0  0  0
   10.0558  -11.0701    6.7289 C   0  0  1  0  0  0  0  0  0  0  0  0
   10.9348  -12.0722    6.0507 N   0  0  0  0  0  0  0  0  0  0  0  0
    9.5629  -11.6080    8.1427 C   0  0  2  0  0  0  0  0  0  0  0  0
    8.8724  -12.8555    8.0000 O   0  0  0  0  0  0  0  0  0  0  0  0
    8.6395  -10.5059    8.7921 C   0  0  2  0  0  0  0  0  0  0  0  0
    9.3902   -9.1894    8.9400 O   0  0  0  0  0  0  0  0  0  0  0  0
    8.1472  -10.9392   10.1524 C   0  0  0  0  0  0  0  0  0  0  0  0
    7.2910  -12.0950   10.0915 O   0  0  0  0  0  0  0  0  0  0  0  0
   10.2983   -1.5995    3.3795 O   0  0  0  0  0  0  0  0  0  0  0  0
   10.7884   -0.8305    6.0801 O   0  0  0  0  0  0  0  0  0  0  0  0
    6.5654  -10.0935    5.7159 C   0  0  0  0  0  0  0  0  0  0  0  0
    6.3832   -9.4448    6.7887 O   0  0  0  0  0  0  0  0  0  0  0  0
    5.8614  -11.4569    5.4366 C   0  0  2  0  0  0  0  0  0  0  0  0
    9.0803  -13.1658    4.1152 N   0  0  0  0  0  0  0  0  0  0  0  0
    6.7559  -12.3759    4.5484 C   0  0  0  0  0  0  0  0  0  0  0  0
    8.1590  -12.6075    5.1337 C   0  0  0  0  0  0  0  0  0  0  0  0
    4.7716  -11.3230    4.7942 O   0  0  0  0  0  0  0  0  0  0  0  0
  1  2  1  1  0  0  0
  1  3  1  0  0  0  0
  1  8  1  0  0  0  0
  3  4  1  0  0  0  0
  3 32  1  6  0  0  0
  4  5  1  0  0  0  0
  4 33  1  1  0  0  0
  5  6  1  1  0  0  0
  5  7  1  0  0  0  0
  7  8  1  0  0  0  0
  7  9  1  1  0  0  0
  9 10  1  0  0  0  0
 11 12  1  6  0  0  0
 11 13  1  0  0  0  0
 11 19  1  0  0  0  0
 12 34  1  0  0  0  0
 13 14  1  0  0  0  0
 14 15  1  6  0  0  0
 14 16  1  0  0  0  0
 16  2  1  1  0  0  0
 16 17  1  0  0  0  0
 17 18  1  1  0  0  0
 17 19  1  0  0  0  0
 19 20  1  1  0  0  0
 21 20  1  6  0  0  0
 21 22  1  0  0  0  0
 21 29  1  0  0  0  0
 22 23  1  6  0  0  0
 22 24  1  0  0  0  0
 24 25  1  1  0  0  0
 24 26  1  0  0  0  0
 26 27  1  6  0  0  0
 26 28  1  0  0  0  0
 28 29  1  0  0  0  0
 28 30  1  1  0  0  0
 30 31  1  0  0  0  0
 34 35  2  0  0  0  0
 36 34  1  6  0  0  0
 36 38  1  0  0  0  0
 36 40  1  0  0  0  0
 37 39  1  0  0  0  0
 38 39  1  0  0  0  0
M  END
>  <CHROM.1>
160.48667797,46.96956666,-126.93561062,-142.44528224,157.59461281,-53.36168948
-64.55242676,30.98711556,55.16741292,-164.78501502,8.75803552,-7.65717571
6.01020637,1.07874272,-1.23793083,-0.64442242

>  <Name>
ligand

>  <RI>
0

>  <Rbt.Current_Directory>
/home/itssahil/PROJECTS/Mol_Feturizer/New_Systems/rnas/4P20

>  <Rbt.Executable>
rbdock ($Id: //depot/dev/client3/rdock/2013.1/src/exe/rbdock.cxx#4 $)

>  <Rbt.Library>
libRbt.so (2013.1, Build901 2013/11/27)

>  <Rbt.Parameter_File>
/export/apps/rDock/src/rDock_2013.1_src/data/scripts/dock_solv.prm

>  <Rbt.Receptor>
prm/blind_docking_80.prm

>  <SCORE>
37.8393

>  <SCORE.INTER>
7.60096

>  <SCORE.INTER.CONST>
1

>  <SCORE.INTER.POLAR>
0

>  <SCORE.INTER.ROT>
10

>  <SCORE.INTER.SOLV>
20.8232

>  <SCORE.INTER.VDW>
-12.1404

>  <SCORE.INTER.norm>
0.190024

>  <SCORE.INTRA>
0.0297653

>  <SCORE.INTRA.DIHEDRAL>
-14.8138

>  <SCORE.INTRA.DIHEDRAL.0>
28.2802

>  <SCORE.INTRA.POLAR>
0

>  <SCORE.INTRA.POLAR.0>
0

>  <SCORE.INTRA.REPUL>
0.022683

>  <SCORE.INTRA.REPUL.0>
0

>  <SCORE.INTRA.SOLV>
11.2871

>  <SCORE.INTRA.SOLV.lig_0>
-101.981

>  <SCORE.INTRA.VDW>
1.67973

>  <SCORE.INTRA.VDW.0>
-5.72964

>  <SCORE.INTRA.norm>
0.000744133

>  <SCORE.RESTR>
30.2086

>  <SCORE.RESTR.CAVITY>
30.2086

>  <SCORE.RESTR.norm>
0.755215

>  <SCORE.SYSTEM>
0

>  <SCORE.SYSTEM.CONST>
0

>  <SCORE.SYSTEM.DIHEDRAL>
0

>  <SCORE.SYSTEM.SOLV>
0

>  <SCORE.SYSTEM.norm>
0

>  <SCORE.heavy>
40

>  <SCORE.norm>
0.945983

>  <RMSD>
15.257

$$$$
ligand
 OpenBabel11021811513D
libRbt.so/2013.1/901 2013/11/27
 40 42  0  0  0  0  0  0  0  0999 V2000
    8.2889   -5.3426    3.6365 C   0  0  2  0  0  0  0  0  0  0  0  0
    9.2629   -6.3798    3.8330 O   0  0  0  0  0  0  0  0  0  0  0  0
    8.9744   -4.0366    3.0853 C   0  0  1  0  0  0  0  0  0  0  0  0
    9.9482   -3.4173    4.1297 C   0  0  2  0  0  0  0  0  0  0  0  0
    9.1183   -3.0723    5.4067 C   0  0  2  0  0  0  0  0  0  0  0  0
    9.9869   -2.4702    6.3903 O   0  0  0  0  0  0  0  0  0  0  0  0
    8.4745   -4.4150    5.9674 C   0  0  2  0  0  0  0  0  0  0  0  0
    7.5817   -5.0248    4.9181 O   0  0  0  0  0  0  0  0  0  0  0  0
    7.6240   -4.1803    7.2082 C   0  0  0  0  0  0  0  0  0  0  0  0
    8.4582   -3.7434    8.3718 N   0  0  0  0  0  0  0  0  0  0  0  0
    8.0751   -9.9066    6.1742 C   0  0  2  0  0  0  0  0  0  0  0  0
    7.6688  -11.2582    6.4815 N   0  0  0  0  0  0  0  0  0  0  0  0
    6.9965   -9.2304    5.2349 C   0  0  0  0  0  0  0  0  0  0  0  0
    7.4339   -7.7386    4.8829 C   0  0  2  0  0  0  0  0  0  0  0  0
    6.4114   -7.0993    4.0138 N   0  0  0  0  0  0  0  0  0  0  0  0
    8.8644   -7.7655    4.1688 C   0  0  2  0  0  0  0  0  0  0  0  0
    9.9090   -8.4530    5.1476 C   0  0  2  0  0  0  0  0  0  0  0  0
   11.1927   -8.4785    4.5194 O   0  0  0  0  0  0  0  0  0  0  0  0
    9.4610   -9.9284    5.4910 C   0  0  1  0  0  0  0  0  0  0  0  0
   10.4129  -10.5340    6.4008 O   0  0  0  0  0  0  0  0  0  0  0  0
   11.0681   -9.8755    7.4312 C   0  0  2  0  0  0  0  0  0  0  0  0
   11.3563  -10.9305    8.5577 C   0  0  2  0  0  0  0  0  0  0  0  0
   12.1102  -11.9778    8.0380 O   0  0  0  0  0  0  0  0  0  0  0  0
   10.0168  -11.4631    9.2237 C   0  0  1  0  0  0  0  0  0  0  0  0
   10.3147  -12.4565   10.3013 N   0  0  0  0  0  0  0  0  0  0  0  0
    9.2066  -10.2215    9.8007 C   0  0  2  0  0  0  0  0  0  0  0  0
    7.9913  -10.6529   10.4256 O   0  0  0  0  0  0  0  0  0  0  0  0
    8.9238   -9.2245    8.6112 C   0  0  2  0  0  0  0  0  0  0  0  0
   10.2253   -8.7735    7.9622 O   0  0  0  0  0  0  0  0  0  0  0  0
    8.1716   -8.0052    9.0885 C   0  0  0  0  0  0  0  0  0  0  0  0
    7.9988   -7.0185    8.0545 O   0  0  0  0  0  0  0  0  0  0  0  0
    9.6824   -4.3749    1.8572 O   0  0  0  0  0  0  0  0  0  0  0  0
   10.5064   -2.2777    3.6030 O   0  0  0  0  0  0  0  0  0  0  0  0
    8.2319  -12.3493    5.7204 C   0  0  0  0  0  0  0  0  0  0  0  0
    8.7016  -12.1334    4.5638 O   0  0  0  0  0  0  0  0  0  0  0  0
    8.2303  -13.7683    6.3677 C   0  0  2  0  0  0  0  0  0  0  0  0
    9.0957  -14.6457    9.2913 N   0  0  0  0  0  0  0  0  0  0  0  0
    7.3963  -13.7800    7.6859 C   0  0  0  0  0  0  0  0  0  0  0  0
    7.7897  -14.9168    8.6440 C   0  0  0  0  0  0  0  0  0  0  0  0
    9.3950  -14.1560    6.7012 O   0  0  0  0  0  0  0  0  0  0  0  0
  1  2  1  1  0  0  0
  1  3  1  0  0  0  0
  1  8  1  0  0  0  0
  3  4  1  0  0  0  0
  3 32  1  6  0  0  0
  4  5  1  0  0  0  0
  4 33  1  6  0  0  0
  5  6  1  1  0  0  0
  5  7  1  0  0  0  0
  7  8  1  0  0  0  0
  7  9  1  1  0  0  0
  9 10  1  0  0  0  0
 11 12  1  6  0  0  0
 11 13  1  0  0  0  0
 11 19  1  0  0  0  0
 12 34  1  0  0  0  0
 13 14  1  0  0  0  0
 14 15  1  6  0  0  0
 14 16  1  0  0  0  0
 16  2  1  1  0  0  0
 16 17  1  0  0  0  0
 17 18  1  6  0  0  0
 17 19  1  0  0  0  0
 19 20  1  1  0  0  0
 21 20  1  6  0  0  0
 21 22  1  0  0  0  0
 21 29  1  0  0  0  0
 22 23  1  6  0  0  0
 22 24  1  0  0  0  0
 24 25  1  1  0  0  0
 24 26  1  0  0  0  0
 26 27  1  6  0  0  0
 26 28  1  0  0  0  0
 28 29  1  0  0  0  0
 28 30  1  1  0  0  0
 30 31  1  0  0  0  0
 34 35  2  0  0  0  0
 36 34  1  1  0  0  0
 36 38  1  0  0  0  0
 36 40  1  0  0  0  0
 37 39  1  0  0  0  0
 38 39  1  0  0  0  0
M  END
>  <CHROM.1>
-171.59220122,-25.10354454,-66.79707922,97.91756785,-82.95008764,150.59086340
174.85990314,8.70103536,-156.96906948,73.26175945,9.03856587,-8.61097428
6.42357192,1.65158937,-1.46749961,-0.29943030

>  <Name>
ligand

>  <RI>
0

>  <Rbt.Current_Directory>
/home/itssahil/PROJECTS/Mol_Feturizer/New_Systems/rnas/4P20

>  <Rbt.Executable>
rbdock ($Id: //depot/dev/client3/rdock/2013.1/src/exe/rbdock.cxx#4 $)

>  <Rbt.Library>
libRbt.so (2013.1, Build901 2013/11/27)

>  <Rbt.Parameter_File>
/export/apps/rDock/src/rDock_2013.1_src/data/scripts/dock_solv.prm

>  <Rbt.Receptor>
prm/blind_docking_80.prm

>  <SCORE>
45.9911

>  <SCORE.INTER>
10.0046

>  <SCORE.INTER.CONST>
1

>  <SCORE.INTER.POLAR>
0

>  <SCORE.INTER.ROT>
10

>  <SCORE.INTER.SOLV>
19.7733

>  <SCORE.INTER.VDW>
-10.1881

>  <SCORE.INTER.norm>
0.250114

>  <SCORE.INTRA>
8.77952

>  <SCORE.INTRA.DIHEDRAL>
-11.8868

>  <SCORE.INTRA.DIHEDRAL.0>
28.2802

>  <SCORE.INTRA.POLAR>
0

>  <SCORE.INTRA.POLAR.0>
0

>  <SCORE.INTRA.REPUL>
0

>  <SCORE.INTRA.REPUL.0>
0

>  <SCORE.INTRA.SOLV>
12.0871

>  <SCORE.INTRA.SOLV.lig_0>
-101.981

>  <SCORE.INTRA.VDW>
8.67934

>  <SCORE.INTRA.VDW.0>
-5.72964

>  <SCORE.INTRA.norm>
0.219488

>  <SCORE.RESTR>
27.2071

>  <SCORE.RESTR.CAVITY>
27.2071

>  <SCORE.RESTR.norm>
0.680176

>  <SCORE.SYSTEM>
0

>  <SCORE.SYSTEM.CONST>
0

>  <SCORE.SYSTEM.DIHEDRAL>
0

>  <SCORE.SYSTEM.SOLV>
0

>  <SCORE.SYSTEM.norm>
0

>  <SCORE.heavy>
40

>  <SCORE.norm>
1.14978

>  <RMSD>
15.260

$$$$
ligand
 OpenBabel11021811503D
libRbt.so/2013.1/901 2013/11/27
 40 42  0  0  0  0  0  0  0  0999 V2000
   -3.2036   -7.0487    6.1708 C   0  0  2  0  0  0  0  0  0  0  0  0
   -2.2401   -6.0972    5.6918 O   0  0  0  0  0  0  0  0  0  0  0  0
   -2.9547   -8.4624    5.5236 C   0  0  1  0  0  0  0  0  0  0  0  0
   -3.2084   -8.4411    3.9880 C   0  0  2  0  0  0  0  0  0  0  0  0
   -4.6930   -8.0155    3.7578 C   0  0  2  0  0  0  0  0  0  0  0  0
   -4.9722   -8.0100    2.3413 O   0  0  0  0  0  0  0  0  0  0  0  0
   -4.9046   -6.5670    4.3812 C   0  0  2  0  0  0  0  0  0  0  0  0
   -4.5978   -6.6010    5.8560 O   0  0  0  0  0  0  0  0  0  0  0  0
   -6.3345   -6.0678    4.2251 C   0  0  0  0  0  0  0  0  0  0  0  0
   -6.4594   -4.6277    4.6138 N   0  0  0  0  0  0  0  0  0  0  0  0
   -1.3201   -2.1175    7.3182 C   0  0  2  0  0  0  0  0  0  0  0  0
   -1.4355   -0.7049    7.5971 N   0  0  0  0  0  0  0  0  0  0  0  0
   -1.1890   -2.3397    5.7574 C   0  0  0  0  0  0  0  0  0  0  0  0
   -1.0655   -3.8956    5.4335 C   0  0  2  0  0  0  0  0  0  0  0  0
   -0.9259   -4.1016    3.9681 N   0  0  0  0  0  0  0  0  0  0  0  0
   -2.3523   -4.6544    6.0040 C   0  0  2  0  0  0  0  0  0  0  0  0
   -2.4408   -4.4003    7.5691 C   0  0  2  0  0  0  0  0  0  0  0  0
   -3.5866   -5.0782    8.0894 O   0  0  0  0  0  0  0  0  0  0  0  0
   -2.5585   -2.8551    7.8753 C   0  0  1  0  0  0  0  0  0  0  0  0
   -2.6172   -2.6389    9.3072 O   0  0  0  0  0  0  0  0  0  0  0  0
   -3.7796   -2.4730   10.0463 C   0  0  2  0  0  0  0  0  0  0  0  0
   -4.7970   -1.6775    9.1536 C   0  0  2  0  0  0  0  0  0  0  0  0
   -5.0209   -2.3687    7.9673 O   0  0  0  0  0  0  0  0  0  0  0  0
   -4.2999   -0.1964    8.8696 C   0  0  1  0  0  0  0  0  0  0  0  0
   -5.2889    0.5467    8.0290 N   0  0  0  0  0  0  0  0  0  0  0  0
   -4.0683    0.5386   10.2615 C   0  0  2  0  0  0  0  0  0  0  0  0
   -3.6299    1.8876   10.0579 O   0  0  0  0  0  0  0  0  0  0  0  0
   -3.0133   -0.2949   11.0868 C   0  0  2  0  0  0  0  0  0  0  0  0
   -3.4972   -1.7233   11.2972 O   0  0  0  0  0  0  0  0  0  0  0  0
   -2.7561    0.3338   12.4355 C   0  0  0  0  0  0  0  0  0  0  0  0
   -3.9349    0.3812   13.2607 O   0  0  0  0  0  0  0  0  0  0  0  0
   -1.5842   -8.8639    5.8144 O   0  0  0  0  0  0  0  0  0  0  0  0
   -2.9896   -9.6985    3.4792 O   0  0  0  0  0  0  0  0  0  0  0  0
   -1.0240   -0.2102    8.8905 C   0  0  0  0  0  0  0  0  0  0  0  0
   -0.9886   -0.9967    9.8830 O   0  0  0  0  0  0  0  0  0  0  0  0
   -0.6407    1.2971    9.0074 C   0  0  2  0  0  0  0  0  0  0  0  0
   -0.3080    3.6233   12.0881 N   0  0  0  0  0  0  0  0  0  0  0  0
   -0.4354    1.7072   10.4985 C   0  0  0  0  0  0  0  0  0  0  0  0
   -0.1179    3.2010   10.6797 C   0  0  0  0  0  0  0  0  0  0  0  0
   -1.5501    2.0695    8.5665 O   0  0  0  0  0  0  0  0  0  0  0  0
  1  2  1  6  0  0  0
  1  3  1  0  0  0  0
  1  8  1  0  0  0  0
  3  4  1  0  0  0  0
  3 32  1  6  0  0  0
  4  5  1  0  0  0  0
  4 33  1  1  0  0  0
  5  6  1  6  0  0  0
  5  7  1  0  0  0  0
  7  8  1  0  0  0  0
  7  9  1  1  0  0  0
  9 10  1  0  0  0  0
 11 12  1  6  0  0  0
 11 13  1  0  0  0  0
 11 19  1  0  0  0  0
 12 34  1  0  0  0  0
 13 14  1  0  0  0  0
 14 15  1  6  0  0  0
 14 16  1  0  0  0  0
 16  2  1  1  0  0  0
 16 17  1  0  0  0  0
 17 18  1  6  0  0  0
 17 19  1  0  0  0  0
 19 20  1  1  0  0  0
 21 20  1  6  0  0  0
 21 22  1  0  0  0  0
 21 29  1  0  0  0  0
 22 23  1  6  0  0  0
 22 24  1  0  0  0  0
 24 25  1  6  0  0  0
 24 26  1  0  0  0  0
 26 27  1  6  0  0  0
 26 28  1  0  0  0  0
 28 29  1  0  0  0  0
 28 30  1  1  0  0  0
 30 31  1  0  0  0  0
 34 35  2  0  0  0  0
 36 34  1  1  0  0  0
 36 38  1  0  0  0  0
 36 40  1  0  0  0  0
 37 39  1  0  0  0  0
 38 39  1  0  0  0  0
M  END
>  <CHROM.1>
171.95085375,175.17733570,-170.76023165,-154.77835418,143.61187228,-35.48590238
61.94378116,171.32344187,-177.37442649,163.94971534,-2.93302990,-2.91304804
7.68448553,1.72484338,-0.30196091,-2.47517366

>  <Name>
ligand

>  <RI>
0

>  <Rbt.Current_Directory>
/home/itssahil/PROJECTS/Mol_Feturizer/New_Systems/rnas/4P20

>  <Rbt.Executable>
rbdock ($Id: //depot/dev/client3/rdock/2013.1/src/exe/rbdock.cxx#4 $)

>  <Rbt.Library>
libRbt.so (2013.1, Build901 2013/11/27)

>  <Rbt.Parameter_File>
/export/apps/rDock/src/rDock_2013.1_src/data/scripts/dock_solv.prm

>  <Rbt.Receptor>
prm/blind_docking_40.prm

>  <SCORE>
32.0183

>  <SCORE.INTER>
12.0041

>  <SCORE.INTER.CONST>
1

>  <SCORE.INTER.POLAR>
0

>  <SCORE.INTER.ROT>
10

>  <SCORE.INTER.SOLV>
16.4298

>  <SCORE.INTER.VDW>
-7.74055

>  <SCORE.INTER.norm>
0.300102

>  <SCORE.INTRA>
-0.526565

>  <SCORE.INTRA.DIHEDRAL>
-17.8756

>  <SCORE.INTRA.DIHEDRAL.0>
28.2802

>  <SCORE.INTRA.POLAR>
0

>  <SCORE.INTRA.POLAR.0>
0

>  <SCORE.INTRA.REPUL>
0.0803644

>  <SCORE.INTRA.REPUL.0>
0

>  <SCORE.INTRA.SOLV>
3.67081

>  <SCORE.INTRA.SOLV.lig_0>
-101.981

>  <SCORE.INTRA.VDW>
6.17399

>  <SCORE.INTRA.VDW.0>
-5.72964

>  <SCORE.INTRA.norm>
-0.0131641

>  <SCORE.RESTR>
20.5408

>  <SCORE.RESTR.CAVITY>
20.5408

>  <SCORE.RESTR.norm>
0.51352

>  <SCORE.SYSTEM>
0

>  <SCORE.SYSTEM.CONST>
0

>  <SCORE.SYSTEM.DIHEDRAL>
0

>  <SCORE.SYSTEM.SOLV>
0

>  <SCORE.SYSTEM.norm>
0

>  <SCORE.heavy>
40

>  <SCORE.norm>
0.800458

>  <RMSD>
15.273

$$$$
ligand
 OpenBabel11021811513D
libRbt.so/2013.1/901 2013/11/27
 40 42  0  0  0  0  0  0  0  0999 V2000
    9.0451  -10.9905   10.2375 C   0  0  2  0  0  0  0  0  0  0  0  0
    8.3263   -9.8275    9.7974 O   0  0  0  0  0  0  0  0  0  0  0  0
   10.4841  -11.0264    9.5991 C   0  0  1  0  0  0  0  0  0  0  0  0
   10.4204  -11.2105    8.0548 C   0  0  2  0  0  0  0  0  0  0  0  0
    9.6877  -12.5591    7.7672 C   0  0  2  0  0  0  0  0  0  0  0  0
    9.6330  -12.7760    6.3408 O   0  0  0  0  0  0  0  0  0  0  0  0
    8.2229  -12.4783    8.3832 C   0  0  2  0  0  0  0  0  0  0  0  0
    8.3109  -12.2429    9.8688 O   0  0  0  0  0  0  0  0  0  0  0  0
    7.4296  -13.7606    8.1718 C   0  0  0  0  0  0  0  0  0  0  0  0
    7.1037  -13.9733    6.7264 N   0  0  0  0  0  0  0  0  0  0  0  0
    8.8769   -6.2194    7.3462 C   0  0  2  0  0  0  0  0  0  0  0  0
    9.4825   -5.2770    6.4343 N   0  0  0  0  0  0  0  0  0  0  0  0
    9.8245   -6.4307    8.5953 C   0  0  0  0  0  0  0  0  0  0  0  0
    9.1712   -7.4729    9.6092 C   0  0  2  0  0  0  0  0  0  0  0  0
   10.0551   -7.6578   10.7899 N   0  0  0  0  0  0  0  0  0  0  0  0
    8.9226   -8.8583    8.8504 C   0  0  2  0  0  0  0  0  0  0  0  0
    7.9702   -8.5942    7.6074 C   0  0  2  0  0  0  0  0  0  0  0  0
    7.7387   -9.8283    6.9243 O   0  0  0  0  0  0  0  0  0  0  0  0
    8.6280   -7.5572    6.6139 C   0  0  1  0  0  0  0  0  0  0  0  0
    7.7380   -7.3114    5.4967 O   0  0  0  0  0  0  0  0  0  0  0  0
    8.0462   -7.5319    4.1621 C   0  0  2  0  0  0  0  0  0  0  0  0
    7.5024   -8.9547    3.7810 C   0  0  2  0  0  0  0  0  0  0  0  0
    6.1337   -9.0141    4.0225 O   0  0  0  0  0  0  0  0  0  0  0  0
    8.2723  -10.1074    4.5555 C   0  0  1  0  0  0  0  0  0  0  0  0
    7.7474  -11.4533    4.1686 N   0  0  0  0  0  0  0  0  0  0  0  0
    9.8258   -9.9870    4.2340 C   0  0  2  0  0  0  0  0  0  0  0  0
   10.5650  -11.0171    4.9020 O   0  0  0  0  0  0  0  0  0  0  0  0
   10.3079   -8.5505    4.6733 C   0  0  2  0  0  0  0  0  0  0  0  0
    9.5153   -7.4694    3.9511 O   0  0  0  0  0  0  0  0  0  0  0  0
   11.7760   -8.3542    4.3790 C   0  0  0  0  0  0  0  0  0  0  0  0
   12.3064   -7.1547    4.9728 O   0  0  0  0  0  0  0  0  0  0  0  0
   11.1682   -9.7863    9.9429 O   0  0  0  0  0  0  0  0  0  0  0  0
   11.6991  -11.2475    7.5537 O   0  0  0  0  0  0  0  0  0  0  0  0
    8.6292   -4.4450    5.6178 C   0  0  0  0  0  0  0  0  0  0  0  0
    7.4429   -4.8133    5.3687 O   0  0  0  0  0  0  0  0  0  0  0  0
    9.2208   -3.1111    5.0670 C   0  0  2  0  0  0  0  0  0  0  0  0
    9.9523   -4.5725    1.5439 N   0  0  0  0  0  0  0  0  0  0  0  0
    9.9606   -3.3449    3.7137 C   0  0  0  0  0  0  0  0  0  0  0  0
    9.1234   -4.1316    2.6913 C   0  0  0  0  0  0  0  0  0  0  0  0
   10.0903   -2.6030    5.8441 O   0  0  0  0  0  0  0  0  0  0  0  0
  1  2  1  6  0  0  0
  1  3  1  0  0  0  0
  1  8  1  0  0  0  0
  3  4  1  0  0  0  0
  3 32  1  6  0  0  0
  4  5  1  0  0  0  0
  4 33  1  1  0  0  0
  5  6  1  6  0  0  0
  5  7  1  0  0  0  0
  7  8  1  0  0  0  0
  7  9  1  1  0  0  0
  9 10  1  0  0  0  0
 11 12  1  6  0  0  0
 11 13  1  0  0  0  0
 11 19  1  0  0  0  0
 12 34  1  0  0  0  0
 13 14  1  0  0  0  0
 14 15  1  1  0  0  0
 14 16  1  0  0  0  0
 16  2  1  1  0  0  0
 16 17  1  0  0  0  0
 17 18  1  6  0  0  0
 17 19  1  0  0  0  0
 19 20  1  6  0  0  0
 21 20  1  1  0  0  0
 21 22  1  0  0  0  0
 21 29  1  0  0  0  0
 22 23  1  1  0  0  0
 22 24  1  0  0  0  0
 24 25  1  6  0  0  0
 24 26  1  0  0  0  0
 26 27  1  1  0  0  0
 26 28  1  0  0  0  0
 28 29  1  0  0  0  0
 28 30  1  6  0  0  0
 30 31  1  0  0  0  0
 34 35  2  0  0  0  0
 36 34  1  1  0  0  0
 36 38  1  0  0  0  0
 36 40  1  0  0  0  0
 37 39  1  0  0  0  0
 38 39  1  0  0  0  0
M  END
>  <CHROM.1>
1.06986526,-112.44165973,-68.03740415,-150.14174096,118.92470678,95.33330734
-169.80507160,86.96573754,50.04846717,-168.15713654,9.16983214,-8.60531040
6.45284120,-1.78109259,-1.35160941,-0.70701796

>  <Name>
ligand

>  <RI>
0

>  <Rbt.Current_Directory>
/home/itssahil/PROJECTS/Mol_Feturizer/New_Systems/rnas/4P20

>  <Rbt.Executable>
rbdock ($Id: //depot/dev/client3/rdock/2013.1/src/exe/rbdock.cxx#4 $)

>  <Rbt.Library>
libRbt.so (2013.1, Build901 2013/11/27)

>  <Rbt.Parameter_File>
/export/apps/rDock/src/rDock_2013.1_src/data/scripts/dock_solv.prm

>  <Rbt.Receptor>
prm/blind_docking_80.prm

>  <SCORE>
45.0572

>  <SCORE.INTER>
10.5082

>  <SCORE.INTER.CONST>
1

>  <SCORE.INTER.POLAR>
0

>  <SCORE.INTER.ROT>
10

>  <SCORE.INTER.SOLV>
16.5288

>  <SCORE.INTER.VDW>
-8.77077

>  <SCORE.INTER.norm>
0.262706

>  <SCORE.INTRA>
9.8323

>  <SCORE.INTRA.DIHEDRAL>
1.18964

>  <SCORE.INTRA.DIHEDRAL.0>
28.2802

>  <SCORE.INTRA.POLAR>
0

>  <SCORE.INTRA.POLAR.0>
0

>  <SCORE.INTRA.REPUL>
0.000447707

>  <SCORE.INTRA.REPUL.0>
0

>  <SCORE.INTRA.SOLV>
9.92498

>  <SCORE.INTRA.SOLV.lig_0>
-101.981

>  <SCORE.INTRA.VDW>
4.27275

>  <SCORE.INTRA.VDW.0>
-5.72964

>  <SCORE.INTRA.norm>
0.245808

>  <SCORE.RESTR>
24.7167

>  <SCORE.RESTR.CAVITY>
24.7167

>  <SCORE.RESTR.norm>
0.617917

>  <SCORE.SYSTEM>
0

>  <SCORE.SYSTEM.CONST>
0

>  <SCORE.SYSTEM.DIHEDRAL>
0

>  <SCORE.SYSTEM.SOLV>
0

>  <SCORE.SYSTEM.norm>
0

>  <SCORE.heavy>
40

>  <SCORE.norm>
1.12643

>  <RMSD>
15.280

$$$$
ligand
 OpenBabel11021811503D
libRbt.so/2013.1/901 2013/11/27
 40 42  0  0  0  0  0  0  0  0999 V2000
   -3.3678   -6.7027    6.5009 C   0  0  2  0  0  0  0  0  0  0  0  0
   -2.2378   -5.8264    6.3658 O   0  0  0  0  0  0  0  0  0  0  0  0
   -3.1567   -8.0130    5.6537 C   0  0  1  0  0  0  0  0  0  0  0  0
   -3.1229   -7.7084    4.1276 C   0  0  2  0  0  0  0  0  0  0  0  0
   -4.4871   -7.0526    3.7440 C   0  0  2  0  0  0  0  0  0  0  0  0
   -4.5016   -6.7792    2.3264 O   0  0  0  0  0  0  0  0  0  0  0  0
   -4.6537   -5.7094    4.5804 C   0  0  2  0  0  0  0  0  0  0  0  0
   -4.6259   -6.0239    6.0537 O   0  0  0  0  0  0  0  0  0  0  0  0
   -5.9701   -5.0013    4.2909 C   0  0  0  0  0  0  0  0  0  0  0  0
   -5.7875   -3.5187    4.1963 N   0  0  0  0  0  0  0  0  0  0  0  0
   -1.3453   -1.6632    7.4620 C   0  0  2  0  0  0  0  0  0  0  0  0
   -1.4832   -0.2299    7.5760 N   0  0  0  0  0  0  0  0  0  0  0  0
   -1.2782   -2.0686    5.9343 C   0  0  0  0  0  0  0  0  0  0  0  0
   -1.1308   -3.6494    5.7924 C   0  0  2  0  0  0  0  0  0  0  0  0
   -1.0513   -4.0270    4.3569 N   0  0  0  0  0  0  0  0  0  0  0  0
   -2.3717   -4.3590    6.5090 C   0  0  2  0  0  0  0  0  0  0  0  0
   -2.3969   -3.9207    8.0352 C   0  0  2  0  0  0  0  0  0  0  0  0
   -3.5013   -4.5532    8.6858 O   0  0  0  0  0  0  0  0  0  0  0  0
   -2.5391   -2.3525    8.1606 C   0  0  1  0  0  0  0  0  0  0  0  0
   -2.5394   -1.9672    9.5578 O   0  0  0  0  0  0  0  0  0  0  0  0
   -3.6707   -1.7991   10.3432 C   0  0  2  0  0  0  0  0  0  0  0  0
   -4.7367   -1.0370    9.4783 C   0  0  2  0  0  0  0  0  0  0  0  0
   -5.0025   -1.7578    8.3186 O   0  0  0  0  0  0  0  0  0  0  0  0
   -4.2725    0.4434    9.1400 C   0  0  1  0  0  0  0  0  0  0  0  0
   -5.3069    1.1547    8.3271 N   0  0  0  0  0  0  0  0  0  0  0  0
   -3.9906    1.2128   10.5037 C   0  0  2  0  0  0  0  0  0  0  0  0
   -3.5796    2.5622   10.2512 O   0  0  0  0  0  0  0  0  0  0  0  0
   -2.8895    0.4116   11.3005 C   0  0  2  0  0  0  0  0  0  0  0  0
   -3.3445   -1.0176   11.5635 O   0  0  0  0  0  0  0  0  0  0  0  0
   -2.5825    1.0740   12.6223 C   0  0  0  0  0  0  0  0  0  0  0  0
   -1.9506    0.1810   13.5582 O   0  0  0  0  0  0  0  0  0  0  0  0
   -1.9125   -8.6394    6.0822 O   0  0  0  0  0  0  0  0  0  0  0  0
   -2.9498   -8.8843    3.4385 O   0  0  0  0  0  0  0  0  0  0  0  0
   -1.0046    0.4272    8.7702 C   0  0  0  0  0  0  0  0  0  0  0  0
   -0.8837   -0.2315    9.8456 O   0  0  0  0  0  0  0  0  0  0  0  0
   -0.6580    1.9451    8.6792 C   0  0  2  0  0  0  0  0  0  0  0  0
   -0.5431    2.7436   12.4678 N   0  0  0  0  0  0  0  0  0  0  0  0
   -0.9921    2.6755   10.0165 C   0  0  0  0  0  0  0  0  0  0  0  0
    0.0075    2.3670   11.1437 C   0  0  0  0  0  0  0  0  0  0  0  0
   -1.3331    2.5492    7.7863 O   0  0  0  0  0  0  0  0  0  0  0  0
  1  2  1  6  0  0  0
  1  3  1  0  0  0  0
  1  8  1  0  0  0  0
  3  4  1  0  0  0  0
  3 32  1  1  0  0  0
  4  5  1  0  0  0  0
  4 33  1  6  0  0  0
  5  6  1  6  0  0  0
  5  7  1  0  0  0  0
  7  8  1  0  0  0  0
  7  9  1  6  0  0  0
  9 10  1  0  0  0  0
 11 12  1  6  0  0  0
 11 13  1  0  0  0  0
 11 19  1  0  0  0  0
 12 34  1  0  0  0  0
 13 14  1  0  0  0  0
 14 15  1  6  0  0  0
 14 16  1  0  0  0  0
 16  2  1  1  0  0  0
 16 17  1  0  0  0  0
 17 18  1  1  0  0  0
 17 19  1  0  0  0  0
 19 20  1  1  0  0  0
 21 20  1  6  0  0  0
 21 22  1  0  0  0  0
 21 29  1  0  0  0  0
 22 23  1  6  0  0  0
 22 24  1  0  0  0  0
 24 25  1  1  0  0  0
 24 26  1  0  0  0  0
 26 27  1  6  0  0  0
 26 28  1  0  0  0  0
 28 29  1  0  0  0  0
 28 30  1  1  0  0  0
 30 31  1  0  0  0  0
 34 35  2  0  0  0  0
 36 34  1  1  0  0  0
 36 38  1  0  0  0  0
 36 40  1  0  0  0  0
 37 39  1  0  0  0  0
 38 39  1  0  0  0  0
M  END
>  <CHROM.1>
152.13278684,-159.17971061,-139.10742214,-153.65204363,146.90961515,-42.30253844
160.36159648,145.87774171,74.09162751,-163.48911558,-2.83433208,-2.39077338
7.85172391,2.03773670,-1.24460434,-2.05389618

>  <Name>
ligand

>  <RI>
0

>  <Rbt.Current_Directory>
/home/itssahil/PROJECTS/Mol_Feturizer/New_Systems/rnas/4P20

>  <Rbt.Executable>
rbdock ($Id: //depot/dev/client3/rdock/2013.1/src/exe/rbdock.cxx#4 $)

>  <Rbt.Library>
libRbt.so (2013.1, Build901 2013/11/27)

>  <Rbt.Parameter_File>
/export/apps/rDock/src/rDock_2013.1_src/data/scripts/dock_solv.prm

>  <Rbt.Receptor>
prm/blind_docking_40.prm

>  <SCORE>
40.1269

>  <SCORE.INTER>
13.4459

>  <SCORE.INTER.CONST>
1

>  <SCORE.INTER.POLAR>
0

>  <SCORE.INTER.ROT>
10

>  <SCORE.INTER.SOLV>
14.9719

>  <SCORE.INTER.VDW>
-6.29336

>  <SCORE.INTER.norm>
0.336148

>  <SCORE.INTRA>
5.25158

>  <SCORE.INTRA.DIHEDRAL>
-8.28072

>  <SCORE.INTRA.DIHEDRAL.0>
28.2802

>  <SCORE.INTRA.POLAR>
0

>  <SCORE.INTRA.POLAR.0>
0

>  <SCORE.INTRA.REPUL>
0

>  <SCORE.INTRA.REPUL.0>
0

>  <SCORE.INTRA.SOLV>
7.23965

>  <SCORE.INTRA.SOLV.lig_0>
-101.981

>  <SCORE.INTRA.VDW>
5.77211

>  <SCORE.INTRA.VDW.0>
-5.72964

>  <SCORE.INTRA.norm>
0.131289

>  <SCORE.RESTR>
21.4294

>  <SCORE.RESTR.CAVITY>
21.4294

>  <SCORE.RESTR.norm>
0.535735

>  <SCORE.SYSTEM>
0

>  <SCORE.SYSTEM.CONST>
0

>  <SCORE.SYSTEM.DIHEDRAL>
0

>  <SCORE.SYSTEM.SOLV>
0

>  <SCORE.SYSTEM.norm>
0

>  <SCORE.heavy>
40

>  <SCORE.norm>
1.00317

>  <RMSD>
15.299

$$$$
ligand
 OpenBabel11021811513D
libRbt.so/2013.1/901 2013/11/27
 40 42  0  0  0  0  0  0  0  0999 V2000
    9.5588   -2.7549    4.9534 C   0  0  2  0  0  0  0  0  0  0  0  0
    9.9681   -3.4972    6.1129 O   0  0  0  0  0  0  0  0  0  0  0  0
    7.9908   -2.6180    4.9086 C   0  0  1  0  0  0  0  0  0  0  0  0
    7.3015   -3.9993    4.7087 C   0  0  2  0  0  0  0  0  0  0  0  0
    7.8125   -4.5939    3.3583 C   0  0  2  0  0  0  0  0  0  0  0  0
    7.1725   -5.8672    3.1267 O   0  0  0  0  0  0  0  0  0  0  0  0
    9.3921   -4.7632    3.4477 C   0  0  2  0  0  0  0  0  0  0  0  0
   10.0314   -3.4221    3.6984 O   0  0  0  0  0  0  0  0  0  0  0  0
    9.9926   -5.3211    2.1646 C   0  0  0  0  0  0  0  0  0  0  0  0
    9.6506   -6.7667    1.9808 N   0  0  0  0  0  0  0  0  0  0  0  0
    8.9529   -7.1374    8.3599 C   0  0  2  0  0  0  0  0  0  0  0  0
    8.2384   -8.3226    8.7734 N   0  0  0  0  0  0  0  0  0  0  0  0
    8.0148   -5.8729    8.5147 C   0  0  0  0  0  0  0  0  0  0  0  0
    8.7887   -4.5566    8.0572 C   0  0  2  0  0  0  0  0  0  0  0  0
    7.9116   -3.3675    8.2189 N   0  0  0  0  0  0  0  0  0  0  0  0
    9.2596   -4.7255    6.5384 C   0  0  2  0  0  0  0  0  0  0  0  0
   10.1944   -6.0051    6.4347 C   0  0  2  0  0  0  0  0  0  0  0  0
   10.6240   -6.1625    5.0804 O   0  0  0  0  0  0  0  0  0  0  0  0
    9.4163   -7.3005    6.8947 C   0  0  1  0  0  0  0  0  0  0  0  0
   10.2889   -8.4549    6.8141 O   0  0  0  0  0  0  0  0  0  0  0  0
   10.6257   -9.1258    5.6473 C   0  0  2  0  0  0  0  0  0  0  0  0
    9.3227   -9.2470    4.7797 C   0  0  2  0  0  0  0  0  0  0  0  0
    8.8064   -7.9798    4.5288 O   0  0  0  0  0  0  0  0  0  0  0  0
    8.2399  -10.1816    5.4691 C   0  0  1  0  0  0  0  0  0  0  0  0
    7.0131  -10.2931    4.6208 N   0  0  0  0  0  0  0  0  0  0  0  0
    8.8894  -11.6115    5.7233 C   0  0  2  0  0  0  0  0  0  0  0  0
    7.9442  -12.4984    6.3344 O   0  0  0  0  0  0  0  0  0  0  0  0
   10.1680  -11.4160    6.6266 C   0  0  2  0  0  0  0  0  0  0  0  0
   11.1625  -10.4750    5.9603 O   0  0  0  0  0  0  0  0  0  0  0  0
   10.8529  -12.7348    6.8951 C   0  0  0  0  0  0  0  0  0  0  0  0
   11.9997  -12.6007    7.7550 O   0  0  0  0  0  0  0  0  0  0  0  0
    7.5501   -1.9968    6.1511 O   0  0  0  0  0  0  0  0  0  0  0  0
    5.9401   -3.8196    4.6644 O   0  0  0  0  0  0  0  0  0  0  0  0
    8.9743   -9.4099    9.3761 C   0  0  0  0  0  0  0  0  0  0  0  0
   10.2160   -9.5285    9.1544 O   0  0  0  0  0  0  0  0  0  0  0  0
    8.1906  -10.4074   10.2834 C   0  0  2  0  0  0  0  0  0  0  0  0
    9.4851  -13.0128   10.1546 N   0  0  0  0  0  0  0  0  0  0  0  0
    7.5820  -11.5699    9.4398 C   0  0  0  0  0  0  0  0  0  0  0  0
    8.6209  -12.6214    9.0153 C   0  0  0  0  0  0  0  0  0  0  0  0
    7.2025   -9.8629   10.8709 O   0  0  0  0  0  0  0  0  0  0  0  0
  1  2  1  1  0  0  0
  1  3  1  0  0  0  0
  1  8  1  0  0  0  0
  3  4  1  0  0  0  0
  3 32  1  1  0  0  0
  4  5  1  0  0  0  0
  4 33  1  6  0  0  0
  5  6  1  1  0  0  0
  5  7  1  0  0  0  0
  7  8  1  0  0  0  0
  7  9  1  6  0  0  0
  9 10  1  0  0  0  0
 11 12  1  6  0  0  0
 11 13  1  0  0  0  0
 11 19  1  0  0  0  0
 12 34  1  0  0  0  0
 13 14  1  0  0  0  0
 14 15  1  6  0  0  0
 14 16  1  0  0  0  0
 16  2  1  1  0  0  0
 16 17  1  0  0  0  0
 17 18  1  6  0  0  0
 17 19  1  0  0  0  0
 19 20  1  1  0  0  0
 21 20  1  1  0  0  0
 21 22  1  0  0  0  0
 21 29  1  0  0  0  0
 22 23  1  1  0  0  0
 22 24  1  0  0  0  0
 24 25  1  6  0  0  0
 24 26  1  0  0  0  0
 26 27  1  1  0  0  0
 26 28  1  0  0  0  0
 28 29  1  0  0  0  0
 28 30  1  6  0  0  0
 30 31  1  0  0  0  0
 34 35  2  0  0  0  0
 36 34  1  6  0  0  0
 36 38  1  0  0  0  0
 36 40  1  0  0  0  0
 37 39  1  0  0  0  0
 38 39  1  0  0  0  0
M  END
>  <CHROM.1>
43.23754727,-124.61072263,-71.56737306,-148.21130377,162.43704946,-41.69066119
-178.02310277,87.83461682,76.22830661,46.49794016,8.99048811,-7.65102655
6.38021871,1.89459802,1.28889429,-0.73359470

>  <Name>
ligand

>  <RI>
0

>  <Rbt.Current_Directory>
/home/itssahil/PROJECTS/Mol_Feturizer/New_Systems/rnas/4P20

>  <Rbt.Executable>
rbdock ($Id: //depot/dev/client3/rdock/2013.1/src/exe/rbdock.cxx#4 $)

>  <Rbt.Library>
libRbt.so (2013.1, Build901 2013/11/27)

>  <Rbt.Parameter_File>
/export/apps/rDock/src/rDock_2013.1_src/data/scripts/dock_solv.prm

>  <Rbt.Receptor>
prm/blind_docking_80.prm

>  <SCORE>
38.528

>  <SCORE.INTER>
6.97763

>  <SCORE.INTER.CONST>
1

>  <SCORE.INTER.POLAR>
0

>  <SCORE.INTER.ROT>
10

>  <SCORE.INTER.SOLV>
17.4883

>  <SCORE.INTER.VDW>
-11.4444

>  <SCORE.INTER.norm>
0.174441

>  <SCORE.INTRA>
4.71641

>  <SCORE.INTRA.DIHEDRAL>
-12.7213

>  <SCORE.INTRA.DIHEDRAL.0>
28.2802

>  <SCORE.INTRA.POLAR>
0

>  <SCORE.INTRA.POLAR.0>
0

>  <SCORE.INTRA.REPUL>
0

>  <SCORE.INTRA.REPUL.0>
0

>  <SCORE.INTRA.SOLV>
12.76

>  <SCORE.INTRA.SOLV.lig_0>
-101.981

>  <SCORE.INTRA.VDW>
4.69705

>  <SCORE.INTRA.VDW.0>
-5.72964

>  <SCORE.INTRA.norm>
0.11791

>  <SCORE.RESTR>
26.834

>  <SCORE.RESTR.CAVITY>
26.834

>  <SCORE.RESTR.norm>
0.670849

>  <SCORE.SYSTEM>
0

>  <SCORE.SYSTEM.CONST>
0

>  <SCORE.SYSTEM.DIHEDRAL>
0

>  <SCORE.SYSTEM.SOLV>
0

>  <SCORE.SYSTEM.norm>
0

>  <SCORE.heavy>
40

>  <SCORE.norm>
0.9632

>  <RMSD>
15.310

$$$$
ligand
 OpenBabel11021811513D
libRbt.so/2013.1/901 2013/11/27
 40 42  0  0  0  0  0  0  0  0999 V2000
    9.5642   -3.0061    4.9489 C   0  0  2  0  0  0  0  0  0  0  0  0
    9.9362   -3.7143    6.1418 O   0  0  0  0  0  0  0  0  0  0  0  0
    8.0264   -2.6680    4.9625 C   0  0  1  0  0  0  0  0  0  0  0  0
    7.1566   -3.9572    4.8971 C   0  0  2  0  0  0  0  0  0  0  0  0
    7.5152   -4.7052    3.5741 C   0  0  2  0  0  0  0  0  0  0  0  0
    6.7063   -5.8963    3.4668 O   0  0  0  0  0  0  0  0  0  0  0  0
    9.0626   -5.0738    3.6068 C   0  0  2  0  0  0  0  0  0  0  0  0
    9.8804   -3.8142    3.7280 O   0  0  0  0  0  0  0  0  0  0  0  0
    9.5180   -5.7924    2.3441 C   0  0  0  0  0  0  0  0  0  0  0  0
    9.5278   -4.8740    1.1622 N   0  0  0  0  0  0  0  0  0  0  0  0
    9.1127   -7.4859    8.2458 C   0  0  2  0  0  0  0  0  0  0  0  0
    8.4632   -8.7237    8.6097 N   0  0  0  0  0  0  0  0  0  0  0  0
    8.1042   -6.2824    8.4388 C   0  0  0  0  0  0  0  0  0  0  0  0
    8.8059   -4.9090    8.0362 C   0  0  2  0  0  0  0  0  0  0  0  0
    7.8624   -3.7775    8.2338 N   0  0  0  0  0  0  0  0  0  0  0  0
    9.2951   -4.9951    6.5162 C   0  0  2  0  0  0  0  0  0  0  0  0
   10.3009   -6.2157    6.3737 C   0  0  2  0  0  0  0  0  0  0  0  0
   10.7472   -6.2988    5.0182 O   0  0  0  0  0  0  0  0  0  0  0  0
    9.5938   -7.5687    6.7796 C   0  0  1  0  0  0  0  0  0  0  0  0
   10.5303   -8.6688    6.6641 O   0  0  0  0  0  0  0  0  0  0  0  0
   10.5812   -9.5718    5.6120 C   0  0  2  0  0  0  0  0  0  0  0  0
    9.1166   -9.7558    5.0769 C   0  0  2  0  0  0  0  0  0  0  0  0
    8.6002   -8.5236    4.6894 O   0  0  0  0  0  0  0  0  0  0  0  0
    8.1805  -10.4585    6.1499 C   0  0  1  0  0  0  0  0  0  0  0  0
    6.7949  -10.6351    5.6154 N   0  0  0  0  0  0  0  0  0  0  0  0
    8.8221  -11.8596    6.5455 C   0  0  2  0  0  0  0  0  0  0  0  0
    8.0047  -12.5407    7.5053 O   0  0  0  0  0  0  0  0  0  0  0  0
   10.2731  -11.5942    7.1050 C   0  0  2  0  0  0  0  0  0  0  0  0
   11.1284  -10.8742    6.0712 O   0  0  0  0  0  0  0  0  0  0  0  0
   10.9561  -12.8864    7.4846 C   0  0  0  0  0  0  0  0  0  0  0  0
   12.2698  -12.6797    8.0362 O   0  0  0  0  0  0  0  0  0  0  0  0
    7.7352   -1.9104    6.1730 O   0  0  0  0  0  0  0  0  0  0  0  0
    5.8289   -3.6040    4.8990 O   0  0  0  0  0  0  0  0  0  0  0  0
    9.2518   -9.7827    9.1959 C   0  0  0  0  0  0  0  0  0  0  0  0
   10.5023   -9.8202    8.9969 O   0  0  0  0  0  0  0  0  0  0  0  0
    8.5125  -10.8523   10.0573 C   0  0  2  0  0  0  0  0  0  0  0  0
   10.3797  -10.1151   13.3919 N   0  0  0  0  0  0  0  0  0  0  0  0
    8.7367  -10.5957   11.5796 C   0  0  0  0  0  0  0  0  0  0  0  0
   10.2214  -10.4865   11.9653 C   0  0  0  0  0  0  0  0  0  0  0  0
    8.9399  -12.0317    9.8468 O   0  0  0  0  0  0  0  0  0  0  0  0
  1  2  1  1  0  0  0
  1  3  1  0  0  0  0
  1  8  1  0  0  0  0
  3  4  1  0  0  0  0
  3 32  1  1  0  0  0
  4  5  1  0  0  0  0
  4 33  1  6  0  0  0
  5  6  1  1  0  0  0
  5  7  1  0  0  0  0
  7  8  1  0  0  0  0
  7  9  1  6  0  0  0
  9 10  1  0  0  0  0
 11 12  1  6  0  0  0
 11 13  1  0  0  0  0
 11 19  1  0  0  0  0
 12 34  1  0  0  0  0
 13 14  1  0  0  0  0
 14 15  1  6  0  0  0
 14 16  1  0  0  0  0
 16  2  1  1  0  0  0
 16 17  1  0  0  0  0
 17 18  1  6  0  0  0
 17 19  1  0  0  0  0
 19 20  1  1  0  0  0
 21 20  1  1  0  0  0
 21 22  1  0  0  0  0
 21 29  1  0  0  0  0
 22 23  1  1  0  0  0
 22 24  1  0  0  0  0
 24 25  1  6  0  0  0
 24 26  1  0  0  0  0
 26 27  1  1  0  0  0
 26 28  1  0  0  0  0
 28 29  1  0  0  0  0
 28 30  1  6  0  0  0
 30 31  1  0  0  0  0
 34 35  2  0  0  0  0
 36 34  1  6  0  0  0
 36 38  1  0  0  0  0
 36 40  1  0  0  0  0
 37 39  1  0  0  0  0
 38 39  1  0  0  0  0
M  END
>  <CHROM.1>
57.88064816,-129.55433133,70.07870714,-147.34573494,138.81043013,-31.95183088
-178.30896413,-103.04615768,-53.57428999,174.57099166,9.12469957,-7.73351234
6.67984437,2.48677102,1.37303985,-1.46604586

>  <Name>
ligand

>  <RI>
0

>  <Rbt.Current_Directory>
/home/itssahil/PROJECTS/Mol_Feturizer/New_Systems/rnas/4P20

>  <Rbt.Executable>
rbdock ($Id: //depot/dev/client3/rdock/2013.1/src/exe/rbdock.cxx#4 $)

>  <Rbt.Library>
libRbt.so (2013.1, Build901 2013/11/27)

>  <Rbt.Parameter_File>
/export/apps/rDock/src/rDock_2013.1_src/data/scripts/dock_solv.prm

>  <Rbt.Receptor>
prm/blind_docking_80.prm

>  <SCORE>
40.568

>  <SCORE.INTER>
8.14294

>  <SCORE.INTER.CONST>
1

>  <SCORE.INTER.POLAR>
0

>  <SCORE.INTER.ROT>
10

>  <SCORE.INTER.SOLV>
20.857

>  <SCORE.INTER.VDW>
-11.7904

>  <SCORE.INTER.norm>
0.203573

>  <SCORE.INTRA>
4.19748

>  <SCORE.INTRA.DIHEDRAL>
-9.2091

>  <SCORE.INTRA.DIHEDRAL.0>
28.2802

>  <SCORE.INTRA.POLAR>
0

>  <SCORE.INTRA.POLAR.0>
0

>  <SCORE.INTRA.REPUL>
0

>  <SCORE.INTRA.REPUL.0>
0

>  <SCORE.INTRA.SOLV>
8.69549

>  <SCORE.INTRA.SOLV.lig_0>
-101.981

>  <SCORE.INTRA.VDW>
4.45429

>  <SCORE.INTRA.VDW.0>
-5.72964

>  <SCORE.INTRA.norm>
0.104937

>  <SCORE.RESTR>
28.2275

>  <SCORE.RESTR.CAVITY>
28.2275

>  <SCORE.RESTR.norm>
0.705689

>  <SCORE.SYSTEM>
0

>  <SCORE.SYSTEM.CONST>
0

>  <SCORE.SYSTEM.DIHEDRAL>
0

>  <SCORE.SYSTEM.SOLV>
0

>  <SCORE.SYSTEM.norm>
0

>  <SCORE.heavy>
40

>  <SCORE.norm>
1.0142

>  <RMSD>
15.317

$$$$
ligand
 OpenBabel11021811513D
libRbt.so/2013.1/901 2013/11/27
 40 42  0  0  0  0  0  0  0  0999 V2000
    7.7398   -4.7046    3.9552 C   0  0  2  0  0  0  0  0  0  0  0  0
    8.5165   -5.9123    3.9210 O   0  0  0  0  0  0  0  0  0  0  0  0
    8.5665   -3.4979    3.3721 C   0  0  1  0  0  0  0  0  0  0  0  0
    9.7926   -3.1582    4.2688 C   0  0  2  0  0  0  0  0  0  0  0  0
    9.2552   -2.7861    5.6869 C   0  0  2  0  0  0  0  0  0  0  0  0
   10.3665   -2.4390    6.5408 O   0  0  0  0  0  0  0  0  0  0  0  0
    8.4635   -4.0369    6.2701 C   0  0  2  0  0  0  0  0  0  0  0  0
    7.3169   -4.3815    5.3553 O   0  0  0  0  0  0  0  0  0  0  0  0
    7.8794   -3.7660    7.6498 C   0  0  0  0  0  0  0  0  0  0  0  0
    7.1660   -4.9660    8.1899 N   0  0  0  0  0  0  0  0  0  0  0  0
   10.0089   -9.0698    6.5917 C   0  0  2  0  0  0  0  0  0  0  0  0
   10.1991   -9.8608    7.7853 N   0  0  0  0  0  0  0  0  0  0  0  0
   10.4572   -7.5781    6.8683 C   0  0  0  0  0  0  0  0  0  0  0  0
   10.2483   -6.6913    5.5603 C   0  0  2  0  0  0  0  0  0  0  0  0
   10.6855   -5.2939    5.8169 N   0  0  0  0  0  0  0  0  0  0  0  0
    8.7095   -6.7457    5.1292 C   0  0  2  0  0  0  0  0  0  0  0  0
    8.3081   -8.2594    4.8653 C   0  0  2  0  0  0  0  0  0  0  0  0
    6.9342   -8.3183    4.4753 O   0  0  0  0  0  0  0  0  0  0  0  0
    8.5239   -9.1267    6.1677 C   0  0  1  0  0  0  0  0  0  0  0  0
    8.1733  -10.5081    5.9043 O   0  0  0  0  0  0  0  0  0  0  0  0
    8.3620  -11.1675    4.6983 C   0  0  2  0  0  0  0  0  0  0  0  0
    8.5901  -12.6869    5.0218 C   0  0  2  0  0  0  0  0  0  0  0  0
    7.5010  -13.1846    5.7298 O   0  0  0  0  0  0  0  0  0  0  0  0
    9.9461  -12.9243    5.8133 C   0  0  1  0  0  0  0  0  0  0  0  0
   10.1494  -14.3781    6.0999 N   0  0  0  0  0  0  0  0  0  0  0  0
   11.1482  -12.3394    4.9508 C   0  0  2  0  0  0  0  0  0  0  0  0
   12.3996  -12.5417    5.6191 O   0  0  0  0  0  0  0  0  0  0  0  0
   10.8689  -10.8078    4.6953 C   0  0  2  0  0  0  0  0  0  0  0  0
    9.5384  -10.6122    3.9812 O   0  0  0  0  0  0  0  0  0  0  0  0
   11.9633  -10.1856    3.8613 C   0  0  0  0  0  0  0  0  0  0  0  0
   12.0105   -8.7521    3.9862 O   0  0  0  0  0  0  0  0  0  0  0  0
    8.9948   -3.8461    2.0232 O   0  0  0  0  0  0  0  0  0  0  0  0
   10.4681   -2.0941    3.7217 O   0  0  0  0  0  0  0  0  0  0  0  0
    9.5371   -9.4591    9.0049 C   0  0  0  0  0  0  0  0  0  0  0  0
    9.1778   -8.2540    9.1584 O   0  0  0  0  0  0  0  0  0  0  0  0
    9.2963  -10.5462   10.0970 C   0  0  2  0  0  0  0  0  0  0  0  0
    8.1203  -12.1955    7.9246 N   0  0  0  0  0  0  0  0  0  0  0  0
    7.8088  -11.0163   10.0988 C   0  0  0  0  0  0  0  0  0  0  0  0
    7.2499  -11.2700    8.6887 C   0  0  0  0  0  0  0  0  0  0  0  0
    9.5162  -10.1159   11.2736 O   0  0  0  0  0  0  0  0  0  0  0  0
  1  2  1  1  0  0  0
  1  3  1  0  0  0  0
  1  8  1  0  0  0  0
  3  4  1  0  0  0  0
  3 32  1  6  0  0  0
  4  5  1  0  0  0  0
  4 33  1  6  0  0  0
  5  6  1  1  0  0  0
  5  7  1  0  0  0  0
  7  8  1  0  0  0  0
  7  9  1  1  0  0  0
  9 10  1  0  0  0  0
 11 12  1  1  0  0  0
 11 13  1  0  0  0  0
 11 19  1  0  0  0  0
 12 34  1  0  0  0  0
 13 14  1  0  0  0  0
 14 15  1  1  0  0  0
 14 16  1  0  0  0  0
 16  2  1  6  0  0  0
 16 17  1  0  0  0  0
 17 18  1  1  0  0  0
 17 19  1  0  0  0  0
 19 20  1  6  0  0  0
 21 20  1  1  0  0  0
 21 22  1  0  0  0  0
 21 29  1  0  0  0  0
 22 23  1  1  0  0  0
 22 24  1  0  0  0  0
 24 25  1  6  0  0  0
 24 26  1  0  0  0  0
 26 27  1  1  0  0  0
 26 28  1  0  0  0  0
 28 29  1  0  0  0  0
 28 30  1  6  0  0  0
 30 31  1  0  0  0  0
 34 35  2  0  0  0  0
 36 34  1  6  0  0  0
 36 38  1  0  0  0  0
 36 40  1  0  0  0  0
 37 39  1  0  0  0  0
 38 39  1  0  0  0  0
M  END
>  <CHROM.1>
127.09988996,-112.98064814,-178.73703320,57.55780524,-85.68711979,150.29745272
-159.80891025,-103.06851524,44.43920446,52.98494327,9.25054612,-8.21693777
6.00323456,-1.71994393,-1.27075345,2.76990007

>  <Name>
ligand

>  <RI>
0

>  <Rbt.Current_Directory>
/home/itssahil/PROJECTS/Mol_Feturizer/New_Systems/rnas/4P20

>  <Rbt.Executable>
rbdock ($Id: //depot/dev/client3/rdock/2013.1/src/exe/rbdock.cxx#4 $)

>  <Rbt.Library>
libRbt.so (2013.1, Build901 2013/11/27)

>  <Rbt.Parameter_File>
/export/apps/rDock/src/rDock_2013.1_src/data/scripts/dock_solv.prm

>  <Rbt.Receptor>
prm/blind_docking_80.prm

>  <SCORE>
54.1206

>  <SCORE.INTER>
14.6412

>  <SCORE.INTER.CONST>
1

>  <SCORE.INTER.POLAR>
0

>  <SCORE.INTER.ROT>
10

>  <SCORE.INTER.SOLV>
24.2547

>  <SCORE.INTER.VDW>
-8.59078

>  <SCORE.INTER.norm>
0.36603

>  <SCORE.INTRA>
11.414

>  <SCORE.INTRA.DIHEDRAL>
-3.51935

>  <SCORE.INTRA.DIHEDRAL.0>
28.2802

>  <SCORE.INTRA.POLAR>
0

>  <SCORE.INTRA.POLAR.0>
0

>  <SCORE.INTRA.REPUL>
0.0122277

>  <SCORE.INTRA.REPUL.0>
0

>  <SCORE.INTRA.SOLV>
17.0988

>  <SCORE.INTRA.SOLV.lig_0>
-101.981

>  <SCORE.INTRA.VDW>
4.56315

>  <SCORE.INTRA.VDW.0>
-5.72964

>  <SCORE.INTRA.norm>
0.285351

>  <SCORE.RESTR>
28.0654

>  <SCORE.RESTR.CAVITY>
28.0654

>  <SCORE.RESTR.norm>
0.701635

>  <SCORE.SYSTEM>
0

>  <SCORE.SYSTEM.CONST>
0

>  <SCORE.SYSTEM.DIHEDRAL>
0

>  <SCORE.SYSTEM.SOLV>
0

>  <SCORE.SYSTEM.norm>
0

>  <SCORE.heavy>
40

>  <SCORE.norm>
1.35302

>  <RMSD>
15.361

$$$$
ligand
 OpenBabel11021811513D
libRbt.so/2013.1/901 2013/11/27
 40 42  0  0  0  0  0  0  0  0999 V2000
    9.6387   -3.6916    5.7196 C   0  0  2  0  0  0  0  0  0  0  0  0
    8.3357   -4.0194    6.2273 O   0  0  0  0  0  0  0  0  0  0  0  0
    9.6069   -2.3111    4.9630 C   0  0  1  0  0  0  0  0  0  0  0  0
    8.7317   -2.3832    3.6777 C   0  0  2  0  0  0  0  0  0  0  0  0
    9.3457   -3.4753    2.7459 C   0  0  2  0  0  0  0  0  0  0  0  0
    8.5725   -3.5519    1.5290 O   0  0  0  0  0  0  0  0  0  0  0  0
    9.3244   -4.8666    3.5176 C   0  0  2  0  0  0  0  0  0  0  0  0
   10.1304   -4.7543    4.7856 O   0  0  0  0  0  0  0  0  0  0  0  0
    9.9244   -5.9990    2.6956 C   0  0  0  0  0  0  0  0  0  0  0  0
   10.0336   -7.2601    3.4946 N   0  0  0  0  0  0  0  0  0  0  0  0
    8.9873   -7.9609    8.0632 C   0  0  2  0  0  0  0  0  0  0  0  0
    8.7064   -9.2121    8.7279 N   0  0  0  0  0  0  0  0  0  0  0  0
    8.5621   -6.7577    8.9983 C   0  0  0  0  0  0  0  0  0  0  0  0
    8.8619   -5.3690    8.2756 C   0  0  2  0  0  0  0  0  0  0  0  0
    8.4770   -4.2396    9.1621 N   0  0  0  0  0  0  0  0  0  0  0  0
    8.0642   -5.3147    6.8907 C   0  0  2  0  0  0  0  0  0  0  0  0
    8.5232   -6.5399    5.9906 C   0  0  2  0  0  0  0  0  0  0  0  0
    7.8180   -6.4980    4.7480 O   0  0  0  0  0  0  0  0  0  0  0  0
    8.2241   -7.9084    6.7205 C   0  0  1  0  0  0  0  0  0  0  0  0
    8.6675   -9.0147    5.8958 O   0  0  0  0  0  0  0  0  0  0  0  0
    9.9617   -9.2008    5.4318 C   0  0  2  0  0  0  0  0  0  0  0  0
    9.9752  -10.5257    4.5896 C   0  0  2  0  0  0  0  0  0  0  0  0
    9.0521  -10.4324    3.5531 O   0  0  0  0  0  0  0  0  0  0  0  0
    9.6968  -11.8017    5.4928 C   0  0  1  0  0  0  0  0  0  0  0  0
    9.7266  -13.0526    4.6734 N   0  0  0  0  0  0  0  0  0  0  0  0
   10.7859  -11.8527    6.6514 C   0  0  2  0  0  0  0  0  0  0  0  0
   10.5844  -12.9978    7.4891 O   0  0  0  0  0  0  0  0  0  0  0  0
   10.6907  -10.5097    7.4737 C   0  0  2  0  0  0  0  0  0  0  0  0
   10.9114   -9.3047    6.5693 O   0  0  0  0  0  0  0  0  0  0  0  0
   11.7134  -10.4765    8.5843 C   0  0  0  0  0  0  0  0  0  0  0  0
   11.7336   -9.2184    9.2840 O   0  0  0  0  0  0  0  0  0  0  0  0
    9.0957   -1.2990    5.8788 O   0  0  0  0  0  0  0  0  0  0  0  0
    8.7497   -1.1597    3.0528 O   0  0  0  0  0  0  0  0  0  0  0  0
    7.5883  -10.0088    8.2782 C   0  0  0  0  0  0  0  0  0  0  0  0
    6.6354   -9.4584    7.6505 O   0  0  0  0  0  0  0  0  0  0  0  0
    7.6047  -11.5355    8.5969 C   0  0  2  0  0  0  0  0  0  0  0  0
    8.6355  -14.3029    9.1475 N   0  0  0  0  0  0  0  0  0  0  0  0
    8.6750  -11.8682    9.6819 C   0  0  0  0  0  0  0  0  0  0  0  0
    8.5556  -13.2982   10.2349 C   0  0  0  0  0  0  0  0  0  0  0  0
    7.9157  -12.2435    7.5869 O   0  0  0  0  0  0  0  0  0  0  0  0
  1  2  1  6  0  0  0
  1  3  1  0  0  0  0
  1  8  1  0  0  0  0
  3  4  1  0  0  0  0
  3 32  1  1  0  0  0
  4  5  1  0  0  0  0
  4 33  1  6  0  0  0
  5  6  1  6  0  0  0
  5  7  1  0  0  0  0
  7  8  1  0  0  0  0
  7  9  1  6  0  0  0
  9 10  1  0  0  0  0
 11 12  1  1  0  0  0
 11 13  1  0  0  0  0
 11 19  1  0  0  0  0
 12 34  1  0  0  0  0
 13 14  1  0  0  0  0
 14 15  1  1  0  0  0
 14 16  1  0  0  0  0
 16  2  1  6  0  0  0
 16 17  1  0  0  0  0
 17 18  1  6  0  0  0
 17 19  1  0  0  0  0
 19 20  1  6  0  0  0
 21 20  1  1  0  0  0
 21 22  1  0  0  0  0
 21 29  1  0  0  0  0
 22 23  1  6  0  0  0
 22 24  1  0  0  0  0
 24 25  1  6  0  0  0
 24 26  1  0  0  0  0
 26 27  1  1  0  0  0
 26 28  1  0  0  0  0
 28 29  1  0  0  0  0
 28 30  1  1  0  0  0
 30 31  1  0  0  0  0
 34 35  2  0  0  0  0
 36 34  1  6  0  0  0
 36 38  1  0  0  0  0
 36 40  1  0  0  0  0
 37 39  1  0  0  0  0
 38 39  1  0  0  0  0
M  END
>  <CHROM.1>
175.25768122,67.36300460,173.64263847,106.43072782,-62.42723652,179.76662791
174.99914320,14.85396129,168.80159595,56.56456863,9.17038028,-7.87360793
6.29494058,1.74054361,1.39131024,-0.56126876

>  <Name>
ligand

>  <RI>
0

>  <Rbt.Current_Directory>
/home/itssahil/PROJECTS/Mol_Feturizer/New_Systems/rnas/4P20

>  <Rbt.Executable>
rbdock ($Id: //depot/dev/client3/rdock/2013.1/src/exe/rbdock.cxx#4 $)

>  <Rbt.Library>
libRbt.so (2013.1, Build901 2013/11/27)

>  <Rbt.Parameter_File>
/export/apps/rDock/src/rDock_2013.1_src/data/scripts/dock_solv.prm

>  <Rbt.Receptor>
prm/blind_docking_80.prm

>  <SCORE>
41.4669

>  <SCORE.INTER>
11.8816

>  <SCORE.INTER.CONST>
1

>  <SCORE.INTER.POLAR>
0

>  <SCORE.INTER.ROT>
10

>  <SCORE.INTER.SOLV>
18.0917

>  <SCORE.INTER.VDW>
-8.37621

>  <SCORE.INTER.norm>
0.297039

>  <SCORE.INTRA>
1.92317

>  <SCORE.INTRA.DIHEDRAL>
-23.8848

>  <SCORE.INTRA.DIHEDRAL.0>
28.2802

>  <SCORE.INTRA.POLAR>
0

>  <SCORE.INTRA.POLAR.0>
0

>  <SCORE.INTRA.REPUL>
0

>  <SCORE.INTRA.REPUL.0>
0

>  <SCORE.INTRA.SOLV>
13.1797

>  <SCORE.INTRA.SOLV.lig_0>
-101.981

>  <SCORE.INTRA.VDW>
7.27575

>  <SCORE.INTRA.VDW.0>
-5.72964

>  <SCORE.INTRA.norm>
0.0480793

>  <SCORE.RESTR>
27.6622

>  <SCORE.RESTR.CAVITY>
27.6622

>  <SCORE.RESTR.norm>
0.691556

>  <SCORE.SYSTEM>
0

>  <SCORE.SYSTEM.CONST>
0

>  <SCORE.SYSTEM.DIHEDRAL>
0

>  <SCORE.SYSTEM.SOLV>
0

>  <SCORE.SYSTEM.norm>
0

>  <SCORE.heavy>
40

>  <SCORE.norm>
1.03667

>  <RMSD>
15.361

$$$$
ligand
 OpenBabel11021811513D
libRbt.so/2013.1/901 2013/11/27
 40 42  0  0  0  0  0  0  0  0999 V2000
   10.0974   -4.8483    6.3228 C   0  0  2  0  0  0  0  0  0  0  0  0
    9.1089   -5.4543    7.1706 O   0  0  0  0  0  0  0  0  0  0  0  0
    9.6174   -3.4285    5.8399 C   0  0  1  0  0  0  0  0  0  0  0  0
    8.3695   -3.5305    4.9152 C   0  0  2  0  0  0  0  0  0  0  0  0
    8.7650   -4.3968    3.6777 C   0  0  2  0  0  0  0  0  0  0  0  0
    7.6360   -4.4914    2.7828 O   0  0  0  0  0  0  0  0  0  0  0  0
    9.2023   -5.8381    4.1904 C   0  0  2  0  0  0  0  0  0  0  0  0
   10.3746   -5.7077    5.1278 O   0  0  0  0  0  0  0  0  0  0  0  0
    9.6284   -6.7572    3.0537 C   0  0  0  0  0  0  0  0  0  0  0  0
   10.6984   -6.1327    2.2137 N   0  0  0  0  0  0  0  0  0  0  0  0
   11.1188   -9.1137    8.5485 C   0  0  2  0  0  0  0  0  0  0  0  0
   11.3180  -10.3985    9.1779 N   0  0  0  0  0  0  0  0  0  0  0  0
   10.6504   -8.0605    9.6321 C   0  0  0  0  0  0  0  0  0  0  0  0
   10.4217   -6.6376    8.9509 C   0  0  2  0  0  0  0  0  0  0  0  0
    9.9975   -5.6455    9.9733 N   0  0  0  0  0  0  0  0  0  0  0  0
    9.3273   -6.7793    7.7937 C   0  0  2  0  0  0  0  0  0  0  0  0
    9.8412   -7.8454    6.7349 C   0  0  2  0  0  0  0  0  0  0  0  0
    8.8708   -7.9765    5.6936 O   0  0  0  0  0  0  0  0  0  0  0  0
   10.0673   -9.2486    7.4241 C   0  0  1  0  0  0  0  0  0  0  0  0
   10.5558  -10.2040    6.4498 O   0  0  0  0  0  0  0  0  0  0  0  0
    9.9393  -11.4034    6.1238 C   0  0  2  0  0  0  0  0  0  0  0  0
    9.1590  -11.1827    4.7793 C   0  0  2  0  0  0  0  0  0  0  0  0
   10.0394  -10.7567    3.7902 O   0  0  0  0  0  0  0  0  0  0  0  0
    7.9566  -10.1608    4.9561 C   0  0  1  0  0  0  0  0  0  0  0  0
    7.2200   -9.9750    3.6678 N   0  0  0  0  0  0  0  0  0  0  0  0
    6.9874  -10.7067    6.0936 C   0  0  2  0  0  0  0  0  0  0  0  0
    5.8756   -9.8227    6.2824 O   0  0  0  0  0  0  0  0  0  0  0  0
    7.8288  -10.8702    7.4182 C   0  0  2  0  0  0  0  0  0  0  0  0
    9.0025  -11.8154    7.2005 O   0  0  0  0  0  0  0  0  0  0  0  0
    6.9761  -11.4065    8.5432 C   0  0  0  0  0  0  0  0  0  0  0  0
    6.3500  -10.3629    9.3124 O   0  0  0  0  0  0  0  0  0  0  0  0
    9.3228   -2.6205    7.0165 O   0  0  0  0  0  0  0  0  0  0  0  0
    8.0029   -2.2684    4.5147 O   0  0  0  0  0  0  0  0  0  0  0  0
   10.1778  -11.0919    9.7312 C   0  0  0  0  0  0  0  0  0  0  0  0
    9.1426  -10.4393   10.0590 O   0  0  0  0  0  0  0  0  0  0  0  0
   10.2786  -12.6383    9.9069 C   0  0  2  0  0  0  0  0  0  0  0  0
   12.6769  -11.9174    7.9908 N   0  0  0  0  0  0  0  0  0  0  0  0
   10.7038  -13.3256    8.5726 C   0  0  0  0  0  0  0  0  0  0  0  0
   12.2213  -13.2878    8.3261 C   0  0  0  0  0  0  0  0  0  0  0  0
    9.1662  -13.1692   10.2211 O   0  0  0  0  0  0  0  0  0  0  0  0
  1  2  1  1  0  0  0
  1  3  1  0  0  0  0
  1  8  1  0  0  0  0
  3  4  1  0  0  0  0
  3 32  1  1  0  0  0
  4  5  1  0  0  0  0
  4 33  1  6  0  0  0
  5  6  1  6  0  0  0
  5  7  1  0  0  0  0
  7  8  1  0  0  0  0
  7  9  1  6  0  0  0
  9 10  1  0  0  0  0
 11 12  1  1  0  0  0
 11 13  1  0  0  0  0
 11 19  1  0  0  0  0
 12 34  1  0  0  0  0
 13 14  1  0  0  0  0
 14 15  1  1  0  0  0
 14 16  1  0  0  0  0
 16  2  1  6  0  0  0
 16 17  1  0  0  0  0
 17 18  1  6  0  0  0
 17 19  1  0  0  0  0
 19 20  1  6  0  0  0
 21 20  1  1  0  0  0
 21 22  1  0  0  0  0
 21 29  1  0  0  0  0
 22 23  1  6  0  0  0
 22 24  1  0  0  0  0
 24 25  1  6  0  0  0
 24 26  1  0  0  0  0
 26 27  1  1  0  0  0
 26 28  1  0  0  0  0
 28 29  1  0  0  0  0
 28 30  1  1  0  0  0
 30 31  1  0  0  0  0
 34 35  2  0  0  0  0
 36 34  1  6  0  0  0
 36 38  1  0  0  0  0
 36 40  1  0  0  0  0
 37 39  1  0  0  0  0
 38 39  1  0  0  0  0
M  END
>  <CHROM.1>
-178.21541815,71.72758091,54.16356077,65.73096746,118.17623268,100.49331080
-90.13700263,-52.80197040,81.94565458,-71.39464601,9.33699880,-8.52740144
6.74417325,-1.87123784,1.25745392,2.96501211

>  <Name>
ligand

>  <RI>
0

>  <Rbt.Current_Directory>
/home/itssahil/PROJECTS/Mol_Feturizer/New_Systems/rnas/4P20

>  <Rbt.Executable>
rbdock ($Id: //depot/dev/client3/rdock/2013.1/src/exe/rbdock.cxx#4 $)

>  <Rbt.Library>
libRbt.so (2013.1, Build901 2013/11/27)

>  <Rbt.Parameter_File>
/export/apps/rDock/src/rDock_2013.1_src/data/scripts/dock_solv.prm

>  <Rbt.Receptor>
prm/blind_docking_80.prm

>  <SCORE>
43.4679

>  <SCORE.INTER>
9.85566

>  <SCORE.INTER.CONST>
1

>  <SCORE.INTER.POLAR>
0

>  <SCORE.INTER.ROT>
10

>  <SCORE.INTER.SOLV>
20.2115

>  <SCORE.INTER.VDW>
-10.4334

>  <SCORE.INTER.norm>
0.246392

>  <SCORE.INTRA>
6.77602

>  <SCORE.INTRA.DIHEDRAL>
-9.30926

>  <SCORE.INTRA.DIHEDRAL.0>
28.2802

>  <SCORE.INTRA.POLAR>
0

>  <SCORE.INTRA.POLAR.0>
0

>  <SCORE.INTRA.REPUL>
0

>  <SCORE.INTRA.REPUL.0>
0

>  <SCORE.INTRA.SOLV>
11.5376

>  <SCORE.INTRA.SOLV.lig_0>
-101.981

>  <SCORE.INTRA.VDW>
5.66187

>  <SCORE.INTRA.VDW.0>
-5.72964

>  <SCORE.INTRA.norm>
0.169401

>  <SCORE.RESTR>
26.8362

>  <SCORE.RESTR.CAVITY>
26.8362

>  <SCORE.RESTR.norm>
0.670905

>  <SCORE.SYSTEM>
0

>  <SCORE.SYSTEM.CONST>
0

>  <SCORE.SYSTEM.DIHEDRAL>
0

>  <SCORE.SYSTEM.SOLV>
0

>  <SCORE.SYSTEM.norm>
0

>  <SCORE.heavy>
40

>  <SCORE.norm>
1.0867

>  <RMSD>
15.379

$$$$
ligand
 OpenBabel11021811513D
libRbt.so/2013.1/901 2013/11/27
 40 42  0  0  0  0  0  0  0  0999 V2000
    9.5845   -3.3695    4.1335 C   0  0  2  0  0  0  0  0  0  0  0  0
   10.1166   -3.9065    5.3548 O   0  0  0  0  0  0  0  0  0  0  0  0
    8.0333   -3.1317    4.2627 C   0  0  1  0  0  0  0  0  0  0  0  0
    7.2608   -4.4728    4.4282 C   0  0  2  0  0  0  0  0  0  0  0  0
    7.5519   -5.3471    3.1676 C   0  0  2  0  0  0  0  0  0  0  0  0
    6.8287   -6.5921    3.2748 O   0  0  0  0  0  0  0  0  0  0  0  0
    9.1192   -5.6090    3.0866 C   0  0  2  0  0  0  0  0  0  0  0  0
    9.8474   -4.2940    2.9848 O   0  0  0  0  0  0  0  0  0  0  0  0
    9.5097   -6.4409    1.8727 C   0  0  0  0  0  0  0  0  0  0  0  0
   10.4926   -5.7189    1.0048 N   0  0  0  0  0  0  0  0  0  0  0  0
    9.2390   -6.9466    8.4073 C   0  0  2  0  0  0  0  0  0  0  0  0
    8.5312   -7.9720    9.1380 N   0  0  0  0  0  0  0  0  0  0  0  0
    8.3886   -5.6126    8.4095 C   0  0  0  0  0  0  0  0  0  0  0  0
    9.1555   -4.4721    7.6019 C   0  0  2  0  0  0  0  0  0  0  0  0
    8.3628   -3.2148    7.6190 N   0  0  0  0  0  0  0  0  0  0  0  0
    9.4144   -4.9720    6.1053 C   0  0  2  0  0  0  0  0  0  0  0  0
   10.2676   -6.3104    6.1562 C   0  0  2  0  0  0  0  0  0  0  0  0
   10.5078   -6.7636    4.8220 O   0  0  0  0  0  0  0  0  0  0  0  0
    9.4979   -7.4297    6.9624 C   0  0  1  0  0  0  0  0  0  0  0  0
   10.2983   -8.6368    7.0175 O   0  0  0  0  0  0  0  0  0  0  0  0
   10.6305   -9.4292    5.9282 C   0  0  2  0  0  0  0  0  0  0  0  0
    9.3011   -9.7564    5.1597 C   0  0  2  0  0  0  0  0  0  0  0  0
    8.6754   -8.5735    4.7796 O   0  0  0  0  0  0  0  0  0  0  0  0
    8.3292  -10.6676    6.0237 C   0  0  1  0  0  0  0  0  0  0  0  0
    7.0758  -10.9771    5.2687 N   0  0  0  0  0  0  0  0  0  0  0  0
    9.1004  -12.0015    6.4201 C   0  0  2  0  0  0  0  0  0  0  0  0
    8.2581  -12.8659    7.1927 O   0  0  0  0  0  0  0  0  0  0  0  0
   10.4014  -11.5979    7.2160 C   0  0  2  0  0  0  0  0  0  0  0  0
   11.2860  -10.6837    6.3790 O   0  0  0  0  0  0  0  0  0  0  0  0
   11.1999  -12.8175    7.6103 C   0  0  0  0  0  0  0  0  0  0  0  0
   10.5074  -13.6534    8.5561 O   0  0  0  0  0  0  0  0  0  0  0  0
    7.7981   -2.2568    5.4044 O   0  0  0  0  0  0  0  0  0  0  0  0
    5.9161   -4.2079    4.5232 O   0  0  0  0  0  0  0  0  0  0  0  0
    7.6865   -8.8927    8.4129 C   0  0  0  0  0  0  0  0  0  0  0  0
    7.2251   -8.5642    7.2797 O   0  0  0  0  0  0  0  0  0  0  0  0
    7.3724  -10.2702    9.0733 C   0  0  2  0  0  0  0  0  0  0  0  0
    9.6147  -12.7778   11.0147 N   0  0  0  0  0  0  0  0  0  0  0  0
    8.6705  -10.9308    9.6320 C   0  0  0  0  0  0  0  0  0  0  0  0
    8.4276  -12.3150   10.2565 C   0  0  0  0  0  0  0  0  0  0  0  0
    6.8933  -11.1113    8.2480 O   0  0  0  0  0  0  0  0  0  0  0  0
  1  2  1  1  0  0  0
  1  3  1  0  0  0  0
  1  8  1  0  0  0  0
  3  4  1  0  0  0  0
  3 32  1  1  0  0  0
  4  5  1  0  0  0  0
  4 33  1  6  0  0  0
  5  6  1  1  0  0  0
  5  7  1  0  0  0  0
  7  8  1  0  0  0  0
  7  9  1  6  0  0  0
  9 10  1  0  0  0  0
 11 12  1  1  0  0  0
 11 13  1  0  0  0  0
 11 19  1  0  0  0  0
 12 34  1  0  0  0  0
 13 14  1  0  0  0  0
 14 15  1  6  0  0  0
 14 16  1  0  0  0  0
 16  2  1  6  0  0  0
 16 17  1  0  0  0  0
 17 18  1  6  0  0  0
 17 19  1  0  0  0  0
 19 20  1  1  0  0  0
 21 20  1  1  0  0  0
 21 22  1  0  0  0  0
 21 29  1  0  0  0  0
 22 23  1  1  0  0  0
 22 24  1  0  0  0  0
 24 25  1  6  0  0  0
 24 26  1  0  0  0  0
 26 27  1  1  0  0  0
 26 28  1  0  0  0  0
 28 29  1  0  0  0  0
 28 30  1  6  0  0  0
 30 31  1  0  0  0  0
 34 35  2  0  0  0  0
 36 34  1  6  0  0  0
 36 38  1  0  0  0  0
 36 40  1  0  0  0  0
 37 39  1  0  0  0  0
 38 39  1  0  0  0  0
M  END
>  <CHROM.1>
42.82518559,-123.80461396,122.07157403,94.28217153,173.82435152,-51.31867297
-65.74962693,-46.86902289,-178.17422949,-168.29899207,8.90497882,-7.90244459
6.23841843,1.78145030,1.27959535,-0.69572525

>  <Name>
ligand

>  <RI>
0

>  <Rbt.Current_Directory>
/home/itssahil/PROJECTS/Mol_Feturizer/New_Systems/rnas/4P20

>  <Rbt.Executable>
rbdock ($Id: //depot/dev/client3/rdock/2013.1/src/exe/rbdock.cxx#4 $)

>  <Rbt.Library>
libRbt.so (2013.1, Build901 2013/11/27)

>  <Rbt.Parameter_File>
/export/apps/rDock/src/rDock_2013.1_src/data/scripts/dock_solv.prm

>  <Rbt.Receptor>
prm/blind_docking_80.prm

>  <SCORE>
43.8353

>  <SCORE.INTER>
9.3752

>  <SCORE.INTER.CONST>
1

>  <SCORE.INTER.POLAR>
0

>  <SCORE.INTER.ROT>
10

>  <SCORE.INTER.SOLV>
19.0529

>  <SCORE.INTER.VDW>
-10.3675

>  <SCORE.INTER.norm>
0.23438

>  <SCORE.INTRA>
8.8079

>  <SCORE.INTRA.DIHEDRAL>
-11.608

>  <SCORE.INTRA.DIHEDRAL.0>
28.2802

>  <SCORE.INTRA.POLAR>
0

>  <SCORE.INTRA.POLAR.0>
0

>  <SCORE.INTRA.REPUL>
0

>  <SCORE.INTRA.REPUL.0>
0

>  <SCORE.INTRA.SOLV>
13.6057

>  <SCORE.INTRA.SOLV.lig_0>
-101.981

>  <SCORE.INTRA.VDW>
7.80905

>  <SCORE.INTRA.VDW.0>
-5.72964

>  <SCORE.INTRA.norm>
0.220197

>  <SCORE.RESTR>
25.6522

>  <SCORE.RESTR.CAVITY>
25.6522

>  <SCORE.RESTR.norm>
0.641305

>  <SCORE.SYSTEM>
0

>  <SCORE.SYSTEM.CONST>
0

>  <SCORE.SYSTEM.DIHEDRAL>
0

>  <SCORE.SYSTEM.SOLV>
0

>  <SCORE.SYSTEM.norm>
0

>  <SCORE.heavy>
40

>  <SCORE.norm>
1.09588

>  <RMSD>
15.396

$$$$
ligand
 OpenBabel11021811513D
libRbt.so/2013.1/901 2013/11/27
 40 42  0  0  0  0  0  0  0  0999 V2000
    8.1276   -4.6359    3.6984 C   0  0  2  0  0  0  0  0  0  0  0  0
    8.9493   -5.7971    3.8963 O   0  0  0  0  0  0  0  0  0  0  0  0
    8.9736   -3.4563    3.0883 C   0  0  1  0  0  0  0  0  0  0  0  0
   10.0609   -2.9575    4.0842 C   0  0  2  0  0  0  0  0  0  0  0  0
    9.3327   -2.4648    5.3746 C   0  0  2  0  0  0  0  0  0  0  0  0
   10.3114   -1.9694    6.3134 O   0  0  0  0  0  0  0  0  0  0  0  0
    8.5230   -3.6864    5.9941 C   0  0  2  0  0  0  0  0  0  0  0  0
    7.5171   -4.1876    4.9906 O   0  0  0  0  0  0  0  0  0  0  0  0
    7.7574   -3.3007    7.2524 C   0  0  0  0  0  0  0  0  0  0  0  0
    7.2633   -4.5078    7.9868 N   0  0  0  0  0  0  0  0  0  0  0  0
    9.5955   -9.0652    6.7656 C   0  0  2  0  0  0  0  0  0  0  0  0
    9.4773   -9.8629    7.9639 N   0  0  0  0  0  0  0  0  0  0  0  0
   10.1217   -7.6212    7.1408 C   0  0  0  0  0  0  0  0  0  0  0  0
   10.2526   -6.7269    5.8277 C   0  0  2  0  0  0  0  0  0  0  0  0
   10.7627   -5.3759    6.1800 N   0  0  0  0  0  0  0  0  0  0  0  0
    8.8270   -6.6374    5.1091 C   0  0  2  0  0  0  0  0  0  0  0  0
    8.3423   -8.1076    4.7550 C   0  0  2  0  0  0  0  0  0  0  0  0
    7.0694   -8.0379    4.1082 O   0  0  0  0  0  0  0  0  0  0  0  0
    8.2209   -8.9831    6.0642 C   0  0  1  0  0  0  0  0  0  0  0  0
    7.7982  -10.3265    5.7219 O   0  0  0  0  0  0  0  0  0  0  0  0
    8.1454  -11.0058    4.5631 C   0  0  2  0  0  0  0  0  0  0  0  0
    8.3556  -12.5141    4.9453 C   0  0  2  0  0  0  0  0  0  0  0  0
    7.1951  -13.0178    5.5238 O   0  0  0  0  0  0  0  0  0  0  0  0
    9.6065  -12.7110    5.9033 C   0  0  1  0  0  0  0  0  0  0  0  0
    9.7958  -14.1549    6.2443 N   0  0  0  0  0  0  0  0  0  0  0  0
   10.8969  -12.1211    5.1835 C   0  0  2  0  0  0  0  0  0  0  0  0
   12.0588  -12.2872    6.0056 O   0  0  0  0  0  0  0  0  0  0  0  0
   10.6273  -10.6002    4.8623 C   0  0  2  0  0  0  0  0  0  0  0  0
    9.3927  -10.4431    3.9851 O   0  0  0  0  0  0  0  0  0  0  0  0
   11.8067   -9.9744    4.1567 C   0  0  0  0  0  0  0  0  0  0  0  0
   11.9637   -8.5776    4.4682 O   0  0  0  0  0  0  0  0  0  0  0  0
    9.5839   -3.9237    1.8501 O   0  0  0  0  0  0  0  0  0  0  0  0
   10.7580   -1.9237    3.5073 O   0  0  0  0  0  0  0  0  0  0  0  0
    8.2108   -9.9018    8.6577 C   0  0  0  0  0  0  0  0  0  0  0  0
    7.3803   -8.9573    8.5050 O   0  0  0  0  0  0  0  0  0  0  0  0
    7.9223  -11.1239    9.5827 C   0  0  2  0  0  0  0  0  0  0  0  0
   11.1645  -11.5383    8.6525 N   0  0  0  0  0  0  0  0  0  0  0  0
    8.8714  -12.3153    9.2464 C   0  0  0  0  0  0  0  0  0  0  0  0
   10.3147  -12.0980    9.7308 C   0  0  0  0  0  0  0  0  0  0  0  0
    6.7435  -11.5798    9.4388 O   0  0  0  0  0  0  0  0  0  0  0  0
  1  2  1  1  0  0  0
  1  3  1  0  0  0  0
  1  8  1  0  0  0  0
  3  4  1  0  0  0  0
  3 32  1  6  0  0  0
  4  5  1  0  0  0  0
  4 33  1  6  0  0  0
  5  6  1  1  0  0  0
  5  7  1  0  0  0  0
  7  8  1  0  0  0  0
  7  9  1  1  0  0  0
  9 10  1  0  0  0  0
 11 12  1  1  0  0  0
 11 13  1  0  0  0  0
 11 19  1  0  0  0  0
 12 34  1  0  0  0  0
 13 14  1  0  0  0  0
 14 15  1  1  0  0  0
 14 16  1  0  0  0  0
 16  2  1  6  0  0  0
 16 17  1  0  0  0  0
 17 18  1  1  0  0  0
 17 19  1  0  0  0  0
 19 20  1  6  0  0  0
 21 20  1  1  0  0  0
 21 22  1  0  0  0  0
 21 29  1  0  0  0  0
 22 23  1  1  0  0  0
 22 24  1  0  0  0  0
 24 25  1  6  0  0  0
 24 26  1  0  0  0  0
 26 27  1  1  0  0  0
 26 28  1  0  0  0  0
 28 29  1  0  0  0  0
 28 30  1  6  0  0  0
 30 31  1  0  0  0  0
 34 35  2  0  0  0  0
 36 34  1  6  0  0  0
 36 38  1  0  0  0  0
 36 40  1  0  0  0  0
 37 39  1  0  0  0  0
 38 39  1  0  0  0  0
M  END
>  <CHROM.1>
139.10976661,-123.66749897,-167.09140479,92.78483327,-86.07522170,142.83043655
-148.46411098,-18.15295959,73.81577345,-94.96216645,9.19782009,-8.19405132
5.90886831,-1.57103337,-1.13311676,2.86981511

>  <Name>
ligand

>  <RI>
0

>  <Rbt.Current_Directory>
/home/itssahil/PROJECTS/Mol_Feturizer/New_Systems/rnas/4P20

>  <Rbt.Executable>
rbdock ($Id: //depot/dev/client3/rdock/2013.1/src/exe/rbdock.cxx#4 $)

>  <Rbt.Library>
libRbt.so (2013.1, Build901 2013/11/27)

>  <Rbt.Parameter_File>
/export/apps/rDock/src/rDock_2013.1_src/data/scripts/dock_solv.prm

>  <Rbt.Receptor>
prm/blind_docking_80.prm

>  <SCORE>
51.5814

>  <SCORE.INTER>
12.0492

>  <SCORE.INTER.CONST>
1

>  <SCORE.INTER.POLAR>
0

>  <SCORE.INTER.ROT>
10

>  <SCORE.INTER.SOLV>
25.7458

>  <SCORE.INTER.VDW>
-10.8158

>  <SCORE.INTER.norm>
0.30123

>  <SCORE.INTRA>
12.8435

>  <SCORE.INTRA.DIHEDRAL>
2.52651

>  <SCORE.INTRA.DIHEDRAL.0>
28.2802

>  <SCORE.INTRA.POLAR>
0

>  <SCORE.INTRA.POLAR.0>
0

>  <SCORE.INTRA.REPUL>
0.00232433

>  <SCORE.INTRA.REPUL.0>
0

>  <SCORE.INTRA.SOLV>
14.789

>  <SCORE.INTRA.SOLV.lig_0>
-101.981

>  <SCORE.INTRA.VDW>
4.17411

>  <SCORE.INTRA.VDW.0>
-5.72964

>  <SCORE.INTRA.norm>
0.321087

>  <SCORE.RESTR>
26.6887

>  <SCORE.RESTR.CAVITY>
26.6887

>  <SCORE.RESTR.norm>
0.667218

>  <SCORE.SYSTEM>
0

>  <SCORE.SYSTEM.CONST>
0

>  <SCORE.SYSTEM.DIHEDRAL>
0

>  <SCORE.SYSTEM.SOLV>
0

>  <SCORE.SYSTEM.norm>
0

>  <SCORE.heavy>
40

>  <SCORE.norm>
1.28953

>  <RMSD>
15.431

$$$$
ligand
 OpenBabel11021811513D
libRbt.so/2013.1/901 2013/11/27
 40 42  0  0  0  0  0  0  0  0999 V2000
    8.4868   -5.0006    3.8812 C   0  0  2  0  0  0  0  0  0  0  0  0
    9.7045   -5.7182    3.6253 O   0  0  0  0  0  0  0  0  0  0  0  0
    8.7379   -3.4471    3.8271 C   0  0  1  0  0  0  0  0  0  0  0  0
    9.6757   -2.9788    4.9778 C   0  0  2  0  0  0  0  0  0  0  0  0
    8.9895   -3.3501    6.3305 C   0  0  2  0  0  0  0  0  0  0  0  0
    9.8216   -2.9061    7.4236 O   0  0  0  0  0  0  0  0  0  0  0  0
    8.7889   -4.9278    6.3775 C   0  0  2  0  0  0  0  0  0  0  0  0
    7.9256   -5.3629    5.2218 O   0  0  0  0  0  0  0  0  0  0  0  0
    8.1047   -5.3910    7.6564 C   0  0  0  0  0  0  0  0  0  0  0  0
    8.9518   -5.1231    8.8610 N   0  0  0  0  0  0  0  0  0  0  0  0
    9.1981   -9.4123    5.9548 C   0  0  2  0  0  0  0  0  0  0  0  0
    9.4021  -10.7666    6.4140 N   0  0  0  0  0  0  0  0  0  0  0  0
    8.7935   -9.4273    4.4255 C   0  0  0  0  0  0  0  0  0  0  0  0
    8.5695   -7.9381    3.9029 C   0  0  2  0  0  0  0  0  0  0  0  0
    8.1735   -7.9550    2.4703 N   0  0  0  0  0  0  0  0  0  0  0  0
    9.9119   -7.0973    4.1218 C   0  0  2  0  0  0  0  0  0  0  0  0
   10.2762   -7.1134    5.6674 C   0  0  2  0  0  0  0  0  0  0  0  0
   11.4737   -6.3606    5.8740 O   0  0  0  0  0  0  0  0  0  0  0  0
   10.4912   -8.5947    6.1722 C   0  0  1  0  0  0  0  0  0  0  0  0
   10.8020   -8.5933    7.5879 O   0  0  0  0  0  0  0  0  0  0  0  0
   10.0902   -7.9120    8.5646 C   0  0  2  0  0  0  0  0  0  0  0  0
   10.6102   -8.4087    9.9603 C   0  0  2  0  0  0  0  0  0  0  0  0
   11.9803   -8.1879   10.0564 O   0  0  0  0  0  0  0  0  0  0  0  0
   10.2560   -9.9359   10.2124 C   0  0  1  0  0  0  0  0  0  0  0  0
   10.7489  -10.3843   11.5514 N   0  0  0  0  0  0  0  0  0  0  0  0
    8.6800  -10.1192   10.0941 C   0  0  2  0  0  0  0  0  0  0  0  0
    8.3075  -11.4832   10.3271 O   0  0  0  0  0  0  0  0  0  0  0  0
    8.2360   -9.6345    8.6599 C   0  0  2  0  0  0  0  0  0  0  0  0
    8.6357   -8.1831    8.4315 O   0  0  0  0  0  0  0  0  0  0  0  0
    6.7420   -9.7604    8.4800 C   0  0  0  0  0  0  0  0  0  0  0  0
    6.2234  -11.0030    8.9895 O   0  0  0  0  0  0  0  0  0  0  0  0
    9.3131   -3.1215    2.5283 O   0  0  0  0  0  0  0  0  0  0  0  0
    9.8495   -1.6187    4.8902 O   0  0  0  0  0  0  0  0  0  0  0  0
   10.5957  -11.4717    6.0079 C   0  0  0  0  0  0  0  0  0  0  0  0
   11.2112  -11.1155    4.9594 O   0  0  0  0  0  0  0  0  0  0  0  0
   11.0764  -12.6631    6.8923 C   0  0  2  0  0  0  0  0  0  0  0  0
    7.9259  -12.3035    7.4826 N   0  0  0  0  0  0  0  0  0  0  0  0
    9.9399  -13.7156    7.0771 C   0  0  0  0  0  0  0  0  0  0  0  0
    8.8652  -13.2787    8.0866 C   0  0  0  0  0  0  0  0  0  0  0  0
   11.3970  -12.3016    8.0690 O   0  0  0  0  0  0  0  0  0  0  0  0
  1  2  1  1  0  0  0
  1  3  1  0  0  0  0
  1  8  1  0  0  0  0
  3  4  1  0  0  0  0
  3 32  1  6  0  0  0
  4  5  1  0  0  0  0
  4 33  1  1  0  0  0
  5  6  1  1  0  0  0
  5  7  1  0  0  0  0
  7  8  1  0  0  0  0
  7  9  1  1  0  0  0
  9 10  1  0  0  0  0
 11 12  1  6  0  0  0
 11 13  1  0  0  0  0
 11 19  1  0  0  0  0
 12 34  1  0  0  0  0
 13 14  1  0  0  0  0
 14 15  1  6  0  0  0
 14 16  1  0  0  0  0
 16  2  1  1  0  0  0
 16 17  1  0  0  0  0
 17 18  1  6  0  0  0
 17 19  1  0  0  0  0
 19 20  1  1  0  0  0
 21 20  1  6  0  0  0
 21 22  1  0  0  0  0
 21 29  1  0  0  0  0
 22 23  1  6  0  0  0
 22 24  1  0  0  0  0
 24 25  1  1  0  0  0
 24 26  1  0  0  0  0
 26 27  1  6  0  0  0
 26 28  1  0  0  0  0
 28 29  1  0  0  0  0
 28 30  1  1  0  0  0
 30 31  1  0  0  0  0
 34 35  2  0  0  0  0
 36 34  1  6  0  0  0
 36 38  1  0  0  0  0
 36 40  1  0  0  0  0
 37 39  1  0  0  0  0
 38 39  1  0  0  0  0
M  END
>  <CHROM.1>
155.25520058,42.25435793,-64.80362668,73.99048386,-70.83986601,169.50877017
-43.39883605,54.97675854,-76.40079139,78.29831589,9.43203031,-8.07665406
6.80926025,2.45827807,-1.53496487,0.42483255

>  <Name>
ligand

>  <RI>
0

>  <Rbt.Current_Directory>
/home/itssahil/PROJECTS/Mol_Feturizer/New_Systems/rnas/4P20

>  <Rbt.Executable>
rbdock ($Id: //depot/dev/client3/rdock/2013.1/src/exe/rbdock.cxx#4 $)

>  <Rbt.Library>
libRbt.so (2013.1, Build901 2013/11/27)

>  <Rbt.Parameter_File>
/export/apps/rDock/src/rDock_2013.1_src/data/scripts/dock_solv.prm

>  <Rbt.Receptor>
prm/blind_docking_80.prm

>  <SCORE>
40.3288

>  <SCORE.INTER>
12.0437

>  <SCORE.INTER.CONST>
1

>  <SCORE.INTER.POLAR>
0

>  <SCORE.INTER.ROT>
10

>  <SCORE.INTER.SOLV>
19.1865

>  <SCORE.INTER.VDW>
-8.633

>  <SCORE.INTER.norm>
0.301093

>  <SCORE.INTRA>
2.49027

>  <SCORE.INTRA.DIHEDRAL>
-19.0274

>  <SCORE.INTRA.DIHEDRAL.0>
28.2802

>  <SCORE.INTRA.POLAR>
0

>  <SCORE.INTRA.POLAR.0>
0

>  <SCORE.INTRA.REPUL>
0

>  <SCORE.INTRA.REPUL.0>
0

>  <SCORE.INTRA.SOLV>
15.598

>  <SCORE.INTRA.SOLV.lig_0>
-101.981

>  <SCORE.INTRA.VDW>
4.205

>  <SCORE.INTRA.VDW.0>
-5.72964

>  <SCORE.INTRA.norm>
0.0622568

>  <SCORE.RESTR>
25.7948

>  <SCORE.RESTR.CAVITY>
25.7948

>  <SCORE.RESTR.norm>
0.64487

>  <SCORE.SYSTEM>
0

>  <SCORE.SYSTEM.CONST>
0

>  <SCORE.SYSTEM.DIHEDRAL>
0

>  <SCORE.SYSTEM.SOLV>
0

>  <SCORE.SYSTEM.norm>
0

>  <SCORE.heavy>
40

>  <SCORE.norm>
1.00822

>  <RMSD>
15.432

$$$$
ligand
 OpenBabel11021811513D
libRbt.so/2013.1/901 2013/11/27
 40 42  0  0  0  0  0  0  0  0999 V2000
    9.1010   -5.4937    3.8218 C   0  0  2  0  0  0  0  0  0  0  0  0
   10.1233   -5.9311    4.7309 O   0  0  0  0  0  0  0  0  0  0  0  0
    9.6505   -4.3637    2.8728 C   0  0  1  0  0  0  0  0  0  0  0  0
    9.9992   -3.0703    3.6655 C   0  0  2  0  0  0  0  0  0  0  0  0
    8.6937   -2.5756    4.3650 C   0  0  2  0  0  0  0  0  0  0  0  0
    8.9743   -1.3595    5.0907 O   0  0  0  0  0  0  0  0  0  0  0  0
    8.1858   -3.7173    5.3500 C   0  0  2  0  0  0  0  0  0  0  0  0
    7.9100   -4.9750    4.5675 O   0  0  0  0  0  0  0  0  0  0  0  0
    6.8989   -3.3373    6.0693 C   0  0  0  0  0  0  0  0  0  0  0  0
    5.7072   -3.4763    5.1742 N   0  0  0  0  0  0  0  0  0  0  0  0
   10.6294   -8.2485    8.4328 C   0  0  2  0  0  0  0  0  0  0  0  0
   10.2977   -9.0310    9.6007 N   0  0  0  0  0  0  0  0  0  0  0  0
    9.9172   -6.8386    8.5206 C   0  0  0  0  0  0  0  0  0  0  0  0
   10.2703   -5.9648    7.2351 C   0  0  2  0  0  0  0  0  0  0  0  0
    9.6137   -4.6344    7.3271 N   0  0  0  0  0  0  0  0  0  0  0  0
    9.8043   -6.7499    5.9223 C   0  0  2  0  0  0  0  0  0  0  0  0
   10.5430   -8.1551    5.8805 C   0  0  2  0  0  0  0  0  0  0  0  0
   10.1356   -8.8635    4.7078 O   0  0  0  0  0  0  0  0  0  0  0  0
   10.1875   -9.0081    7.1616 C   0  0  1  0  0  0  0  0  0  0  0  0
   10.8853  -10.2776    7.1184 O   0  0  0  0  0  0  0  0  0  0  0  0
   10.2840  -11.5261    7.1866 C   0  0  2  0  0  0  0  0  0  0  0  0
   10.6495  -12.2986    5.8695 C   0  0  2  0  0  0  0  0  0  0  0  0
   12.0323  -12.3857    5.7449 O   0  0  0  0  0  0  0  0  0  0  0  0
    9.9996  -11.6213    4.5888 C   0  0  1  0  0  0  0  0  0  0  0  0
   10.3498  -12.3796    3.3482 N   0  0  0  0  0  0  0  0  0  0  0  0
    8.4229  -11.5568    4.7918 C   0  0  2  0  0  0  0  0  0  0  0  0
    7.7870  -10.9632    3.6531 O   0  0  0  0  0  0  0  0  0  0  0  0
    8.1310  -10.7398    6.1095 C   0  0  2  0  0  0  0  0  0  0  0  0
    8.8102  -11.3868    7.3090 O   0  0  0  0  0  0  0  0  0  0  0  0
    6.6479  -10.6531    6.3802 C   0  0  0  0  0  0  0  0  0  0  0  0
    5.9709   -9.7526    5.4838 O   0  0  0  0  0  0  0  0  0  0  0  0
   10.8263   -4.8780    2.1822 O   0  0  0  0  0  0  0  0  0  0  0  0
   10.4601   -2.1173    2.7898 O   0  0  0  0  0  0  0  0  0  0  0  0
    8.9757   -9.6033    9.7084 C   0  0  0  0  0  0  0  0  0  0  0  0
    8.0145   -9.0937    9.0591 O   0  0  0  0  0  0  0  0  0  0  0  0
    8.7893  -10.8405   10.6395 C   0  0  2  0  0  0  0  0  0  0  0  0
   10.4950  -13.9394    9.0287 N   0  0  0  0  0  0  0  0  0  0  0  0
    9.8775  -11.9217   10.3564 C   0  0  0  0  0  0  0  0  0  0  0  0
    9.3761  -13.0695    9.4640 C   0  0  0  0  0  0  0  0  0  0  0  0
    7.6751  -11.4268   10.4583 O   0  0  0  0  0  0  0  0  0  0  0  0
  1  2  1  1  0  0  0
  1  3  1  0  0  0  0
  1  8  1  0  0  0  0
  3  4  1  0  0  0  0
  3 32  1  1  0  0  0
  4  5  1  0  0  0  0
  4 33  1  6  0  0  0
  5  6  1  1  0  0  0
  5  7  1  0  0  0  0
  7  8  1  0  0  0  0
  7  9  1  6  0  0  0
  9 10  1  0  0  0  0
 11 12  1  1  0  0  0
 11 13  1  0  0  0  0
 11 19  1  0  0  0  0
 12 34  1  0  0  0  0
 13 14  1  0  0  0  0
 14 15  1  1  0  0  0
 14 16  1  0  0  0  0
 16  2  1  6  0  0  0
 16 17  1  0  0  0  0
 17 18  1  6  0  0  0
 17 19  1  0  0  0  0
 19 20  1  6  0  0  0
 21 20  1  6  0  0  0
 21 22  1  0  0  0  0
 21 29  1  0  0  0  0
 22 23  1  6  0  0  0
 22 24  1  0  0  0  0
 24 25  1  6  0  0  0
 24 26  1  0  0  0  0
 26 27  1  6  0  0  0
 26 28  1  0  0  0  0
 28 29  1  0  0  0  0
 28 30  1  1  0  0  0
 30 31  1  0  0  0  0
 34 35  2  0  0  0  0
 36 34  1  6  0  0  0
 36 38  1  0  0  0  0
 36 40  1  0  0  0  0
 37 39  1  0  0  0  0
 38 39  1  0  0  0  0
M  END
>  <CHROM.1>
165.80745523,-120.32676847,77.21013731,74.13403895,116.25885580,120.44148026
-73.20659654,-48.66300410,-99.59851117,170.02898594,9.26646580,-8.19877110
6.26304420,-1.80052091,-1.34265951,2.51074544

>  <Name>
ligand

>  <RI>
0

>  <Rbt.Current_Directory>
/home/itssahil/PROJECTS/Mol_Feturizer/New_Systems/rnas/4P20

>  <Rbt.Executable>
rbdock ($Id: //depot/dev/client3/rdock/2013.1/src/exe/rbdock.cxx#4 $)

>  <Rbt.Library>
libRbt.so (2013.1, Build901 2013/11/27)

>  <Rbt.Parameter_File>
/export/apps/rDock/src/rDock_2013.1_src/data/scripts/dock_solv.prm

>  <Rbt.Receptor>
prm/blind_docking_80.prm

>  <SCORE>
45.3292

>  <SCORE.INTER>
6.17233

>  <SCORE.INTER.CONST>
1

>  <SCORE.INTER.POLAR>
0

>  <SCORE.INTER.ROT>
10

>  <SCORE.INTER.SOLV>
18.5155

>  <SCORE.INTER.VDW>
-12.3236

>  <SCORE.INTER.norm>
0.154308

>  <SCORE.INTRA>
9.27043

>  <SCORE.INTRA.DIHEDRAL>
1.08261

>  <SCORE.INTRA.DIHEDRAL.0>
28.2802

>  <SCORE.INTRA.POLAR>
0

>  <SCORE.INTRA.POLAR.0>
0

>  <SCORE.INTRA.REPUL>
0

>  <SCORE.INTRA.REPUL.0>
0

>  <SCORE.INTRA.SOLV>
9.61593

>  <SCORE.INTRA.SOLV.lig_0>
-101.981

>  <SCORE.INTRA.VDW>
3.92116

>  <SCORE.INTRA.VDW.0>
-5.72964

>  <SCORE.INTRA.norm>
0.231761

>  <SCORE.RESTR>
29.8865

>  <SCORE.RESTR.CAVITY>
29.8865

>  <SCORE.RESTR.norm>
0.747162

>  <SCORE.SYSTEM>
0

>  <SCORE.SYSTEM.CONST>
0

>  <SCORE.SYSTEM.DIHEDRAL>
0

>  <SCORE.SYSTEM.SOLV>
0

>  <SCORE.SYSTEM.norm>
0

>  <SCORE.heavy>
40

>  <SCORE.norm>
1.13323

>  <RMSD>
15.444

$$$$
ligand
 OpenBabel11021811513D
libRbt.so/2013.1/901 2013/11/27
 40 42  0  0  0  0  0  0  0  0999 V2000
   10.0686   -3.7856    5.0713 C   0  0  2  0  0  0  0  0  0  0  0  0
    9.2779   -3.7824    6.2704 O   0  0  0  0  0  0  0  0  0  0  0  0
    9.7284   -2.5327    4.1804 C   0  0  1  0  0  0  0  0  0  0  0  0
    8.2682   -2.5915    3.6442 C   0  0  2  0  0  0  0  0  0  0  0  0
    8.1276   -3.8922    2.7917 C   0  0  2  0  0  0  0  0  0  0  0  0
    6.7893   -3.9670    2.2552 O   0  0  0  0  0  0  0  0  0  0  0  0
    8.4326   -5.1431    3.7265 C   0  0  2  0  0  0  0  0  0  0  0  0
    9.8303   -5.0337    4.2783 O   0  0  0  0  0  0  0  0  0  0  0  0
    8.3406   -6.4663    2.9789 C   0  0  0  0  0  0  0  0  0  0  0  0
    9.5015   -7.3572    3.2936 N   0  0  0  0  0  0  0  0  0  0  0  0
    9.4564   -7.9894    7.5350 C   0  0  2  0  0  0  0  0  0  0  0  0
    9.2673   -9.1747    8.3385 N   0  0  0  0  0  0  0  0  0  0  0  0
   10.2909   -6.9230    8.3532 C   0  0  0  0  0  0  0  0  0  0  0  0
   10.5037   -5.6063    7.4803 C   0  0  2  0  0  0  0  0  0  0  0  0
   11.3019   -4.6120    8.2443 N   0  0  0  0  0  0  0  0  0  0  0  0
    9.0771   -5.0112    7.0713 C   0  0  2  0  0  0  0  0  0  0  0  0
    8.2793   -6.1161    6.2561 C   0  0  2  0  0  0  0  0  0  0  0  0
    7.0031   -5.5919    5.8824 O   0  0  0  0  0  0  0  0  0  0  0  0
    8.0794   -7.4159    7.1312 C   0  0  1  0  0  0  0  0  0  0  0  0
    7.3688   -8.4212    6.3664 O   0  0  0  0  0  0  0  0  0  0  0  0
    7.6613   -8.7917    5.0618 C   0  0  2  0  0  0  0  0  0  0  0  0
    6.6343   -9.9039    4.6454 C   0  0  2  0  0  0  0  0  0  0  0  0
    5.3374   -9.4181    4.7771 O   0  0  0  0  0  0  0  0  0  0  0  0
    6.8357  -11.2368    5.4846 C   0  0  1  0  0  0  0  0  0  0  0  0
    5.8564  -12.2858    5.0636 N   0  0  0  0  0  0  0  0  0  0  0  0
    8.3317  -11.7412    5.2877 C   0  0  2  0  0  0  0  0  0  0  0  0
    8.5603  -12.9529    6.0177 O   0  0  0  0  0  0  0  0  0  0  0  0
    9.3032  -10.5902    5.7571 C   0  0  2  0  0  0  0  0  0  0  0  0
    9.0494   -9.3126    4.9686 O   0  0  0  0  0  0  0  0  0  0  0  0
   10.7485  -10.9905    5.5802 C   0  0  0  0  0  0  0  0  0  0  0  0
   11.2339  -11.8120    6.6583 O   0  0  0  0  0  0  0  0  0  0  0  0
    9.9358   -1.3323    4.9805 O   0  0  0  0  0  0  0  0  0  0  0  0
    8.0306   -1.4846    2.8658 O   0  0  0  0  0  0  0  0  0  0  0  0
   10.4259   -9.8455    8.8812 C   0  0  0  0  0  0  0  0  0  0  0  0
   11.5572   -9.6909    8.3324 O   0  0  0  0  0  0  0  0  0  0  0  0
   10.2251  -10.7489   10.1366 C   0  0  2  0  0  0  0  0  0  0  0  0
    7.9020  -11.4198    8.0883 N   0  0  0  0  0  0  0  0  0  0  0  0
    8.7094  -10.9980   10.4089 C   0  0  0  0  0  0  0  0  0  0  0  0
    8.0755  -12.0082    9.4380 C   0  0  0  0  0  0  0  0  0  0  0  0
   10.6766  -10.2171   11.2002 O   0  0  0  0  0  0  0  0  0  0  0  0
  1  2  1  1  0  0  0
  1  3  1  0  0  0  0
  1  8  1  0  0  0  0
  3  4  1  0  0  0  0
  3 32  1  1  0  0  0
  4  5  1  0  0  0  0
  4 33  1  6  0  0  0
  5  6  1  1  0  0  0
  5  7  1  0  0  0  0
  7  8  1  0  0  0  0
  7  9  1  6  0  0  0
  9 10  1  0  0  0  0
 11 12  1  1  0  0  0
 11 13  1  0  0  0  0
 11 19  1  0  0  0  0
 12 34  1  0  0  0  0
 13 14  1  0  0  0  0
 14 15  1  1  0  0  0
 14 16  1  0  0  0  0
 16  2  1  6  0  0  0
 16 17  1  0  0  0  0
 17 18  1  1  0  0  0
 17 19  1  0  0  0  0
 19 20  1  6  0  0  0
 21 20  1  1  0  0  0
 21 22  1  0  0  0  0
 21 29  1  0  0  0  0
 22 23  1  1  0  0  0
 22 24  1  0  0  0  0
 24 25  1  6  0  0  0
 24 26  1  0  0  0  0
 26 27  1  1  0  0  0
 26 28  1  0  0  0  0
 28 29  1  0  0  0  0
 28 30  1  6  0  0  0
 30 31  1  0  0  0  0
 34 35  2  0  0  0  0
 36 34  1  6  0  0  0
 36 38  1  0  0  0  0
 36 40  1  0  0  0  0
 37 39  1  0  0  0  0
 38 39  1  0  0  0  0
M  END
>  <CHROM.1>
160.82041637,56.04259240,134.24464832,-55.51634147,-73.11109567,-179.80993939
-81.62355831,11.96097379,75.40799823,-72.90163551,8.84967562,-7.69029856
6.10518030,-1.61698990,0.95467021,2.74635990

>  <Name>
ligand

>  <RI>
0

>  <Rbt.Current_Directory>
/home/itssahil/PROJECTS/Mol_Feturizer/New_Systems/rnas/4P20

>  <Rbt.Executable>
rbdock ($Id: //depot/dev/client3/rdock/2013.1/src/exe/rbdock.cxx#4 $)

>  <Rbt.Library>
libRbt.so (2013.1, Build901 2013/11/27)

>  <Rbt.Parameter_File>
/export/apps/rDock/src/rDock_2013.1_src/data/scripts/dock_solv.prm

>  <Rbt.Receptor>
prm/blind_docking_80.prm

>  <SCORE>
67.8962

>  <SCORE.INTER>
38.1785

>  <SCORE.INTER.CONST>
1

>  <SCORE.INTER.POLAR>
0

>  <SCORE.INTER.ROT>
10

>  <SCORE.INTER.SOLV>
22.9532

>  <SCORE.INTER.VDW>
7.53463

>  <SCORE.INTER.norm>
0.954463

>  <SCORE.INTRA>
3.64847

>  <SCORE.INTRA.DIHEDRAL>
-15.9378

>  <SCORE.INTRA.DIHEDRAL.0>
28.2802

>  <SCORE.INTRA.POLAR>
0

>  <SCORE.INTRA.POLAR.0>
0

>  <SCORE.INTRA.REPUL>
0.00636804

>  <SCORE.INTRA.REPUL.0>
0

>  <SCORE.INTRA.SOLV>
17.2048

>  <SCORE.INTRA.SOLV.lig_0>
-101.981

>  <SCORE.INTRA.VDW>
2.98314

>  <SCORE.INTRA.VDW.0>
-5.72964

>  <SCORE.INTRA.norm>
0.0912119

>  <SCORE.RESTR>
26.0692

>  <SCORE.RESTR.CAVITY>
26.0692

>  <SCORE.RESTR.norm>
0.65173

>  <SCORE.SYSTEM>
0

>  <SCORE.SYSTEM.CONST>
0

>  <SCORE.SYSTEM.DIHEDRAL>
0

>  <SCORE.SYSTEM.SOLV>
0

>  <SCORE.SYSTEM.norm>
0

>  <SCORE.heavy>
40

>  <SCORE.norm>
1.6974

>  <RMSD>
15.448

$$$$
ligand
 OpenBabel11021811513D
libRbt.so/2013.1/901 2013/11/27
 40 42  0  0  0  0  0  0  0  0999 V2000
    8.8923   -5.7604    3.9690 C   0  0  2  0  0  0  0  0  0  0  0  0
   10.2808   -5.9900    4.2561 O   0  0  0  0  0  0  0  0  0  0  0  0
    8.7182   -4.4877    3.0584 C   0  0  1  0  0  0  0  0  0  0  0  0
    9.1474   -3.1893    3.8019 C   0  0  2  0  0  0  0  0  0  0  0  0
    8.2488   -3.0500    5.0714 C   0  0  2  0  0  0  0  0  0  0  0  0
    8.6023   -1.8393    5.7739 O   0  0  0  0  0  0  0  0  0  0  0  0
    8.4779   -4.3261    5.9936 C   0  0  2  0  0  0  0  0  0  0  0  0
    8.1100   -5.5733    5.2325 O   0  0  0  0  0  0  0  0  0  0  0  0
    7.6259   -4.2948    7.2551 C   0  0  0  0  0  0  0  0  0  0  0  0
    8.0609   -3.2056    8.1852 N   0  0  0  0  0  0  0  0  0  0  0  0
   10.1658   -9.6083    6.7509 C   0  0  2  0  0  0  0  0  0  0  0  0
   10.6140  -10.6823    7.6065 N   0  0  0  0  0  0  0  0  0  0  0  0
   10.9417   -9.6699    5.3736 C   0  0  0  0  0  0  0  0  0  0  0  0
   10.4606   -8.4868    4.4198 C   0  0  2  0  0  0  0  0  0  0  0  0
   11.1787   -8.5560    3.1202 N   0  0  0  0  0  0  0  0  0  0  0  0
   10.7181   -7.0870    5.1487 C   0  0  2  0  0  0  0  0  0  0  0  0
    9.9221   -7.0748    6.5229 C   0  0  2  0  0  0  0  0  0  0  0  0
   10.1430   -5.8251    7.1808 O   0  0  0  0  0  0  0  0  0  0  0  0
   10.4059   -8.2542    7.4558 C   0  0  1  0  0  0  0  0  0  0  0  0
    9.6559   -8.2417    8.6959 O   0  0  0  0  0  0  0  0  0  0  0  0
    8.3005   -7.9687    8.8108 C   0  0  2  0  0  0  0  0  0  0  0  0
    7.6247   -9.2116    9.4916 C   0  0  2  0  0  0  0  0  0  0  0  0
    8.2202   -9.4524   10.7255 O   0  0  0  0  0  0  0  0  0  0  0  0
    7.6867  -10.4987    8.5636 C   0  0  1  0  0  0  0  0  0  0  0  0
    7.0269  -11.6663    9.2255 N   0  0  0  0  0  0  0  0  0  0  0  0
    6.9870  -10.1597    7.1756 C   0  0  2  0  0  0  0  0  0  0  0  0
    7.0060  -11.2976    6.3049 O   0  0  0  0  0  0  0  0  0  0  0  0
    7.7376   -8.9283    6.5357 C   0  0  2  0  0  0  0  0  0  0  0  0
    7.7038   -7.7279    7.4719 O   0  0  0  0  0  0  0  0  0  0  0  0
    7.1137   -8.5338    5.2183 C   0  0  0  0  0  0  0  0  0  0  0  0
    7.1006   -9.6121    4.2643 O   0  0  0  0  0  0  0  0  0  0  0  0
    9.5122   -4.6769    1.8510 O   0  0  0  0  0  0  0  0  0  0  0  0
    8.9634   -2.1127    2.9684 O   0  0  0  0  0  0  0  0  0  0  0  0
   10.4126  -12.0479    7.1807 C   0  0  0  0  0  0  0  0  0  0  0  0
    9.5055  -12.3172    6.3382 O   0  0  0  0  0  0  0  0  0  0  0  0
   11.3342  -13.1471    7.7930 C   0  0  2  0  0  0  0  0  0  0  0  0
   10.5706  -11.1457   10.0171 N   0  0  0  0  0  0  0  0  0  0  0  0
   10.8969  -13.4950    9.2494 C   0  0  0  0  0  0  0  0  0  0  0  0
    9.9230  -12.4692    9.8530 C   0  0  0  0  0  0  0  0  0  0  0  0
   12.5470  -12.7747    7.8840 O   0  0  0  0  0  0  0  0  0  0  0  0
  1  2  1  1  0  0  0
  1  3  1  0  0  0  0
  1  8  1  0  0  0  0
  3  4  1  0  0  0  0
  3 32  1  6  0  0  0
  4  5  1  0  0  0  0
  4 33  1  6  0  0  0
  5  6  1  1  0  0  0
  5  7  1  0  0  0  0
  7  8  1  0  0  0  0
  7  9  1  1  0  0  0
  9 10  1  0  0  0  0
 11 12  1  1  0  0  0
 11 13  1  0  0  0  0
 11 19  1  0  0  0  0
 12 34  1  0  0  0  0
 13 14  1  0  0  0  0
 14 15  1  6  0  0  0
 14 16  1  0  0  0  0
 16  2  1  6  0  0  0
 16 17  1  0  0  0  0
 17 18  1  1  0  0  0
 17 19  1  0  0  0  0
 19 20  1  1  0  0  0
 21 20  1  6  0  0  0
 21 22  1  0  0  0  0
 21 29  1  0  0  0  0
 22 23  1  1  0  0  0
 22 24  1  0  0  0  0
 24 25  1  1  0  0  0
 24 26  1  0  0  0  0
 26 27  1  6  0  0  0
 26 28  1  0  0  0  0
 28 29  1  0  0  0  0
 28 30  1  6  0  0  0
 30 31  1  0  0  0  0
 34 35  2  0  0  0  0
 36 34  1  1  0  0  0
 36 38  1  0  0  0  0
 36 40  1  0  0  0  0
 37 39  1  0  0  0  0
 38 39  1  0  0  0  0
M  END
>  <CHROM.1>
176.96800343,69.79294116,-67.96576191,-61.96920553,-80.70265785,122.06933904
-57.70740957,76.47636437,-14.12659809,-65.04125859,9.15610546,-8.08439373
6.52849002,-1.78645581,-1.07880882,2.49193247

>  <Name>
ligand

>  <RI>
0

>  <Rbt.Current_Directory>
/home/itssahil/PROJECTS/Mol_Feturizer/New_Systems/rnas/4P20

>  <Rbt.Executable>
rbdock ($Id: //depot/dev/client3/rdock/2013.1/src/exe/rbdock.cxx#4 $)

>  <Rbt.Library>
libRbt.so (2013.1, Build901 2013/11/27)

>  <Rbt.Parameter_File>
/export/apps/rDock/src/rDock_2013.1_src/data/scripts/dock_solv.prm

>  <Rbt.Receptor>
prm/blind_docking_80.prm

>  <SCORE>
42.3897

>  <SCORE.INTER>
5.5457

>  <SCORE.INTER.CONST>
1

>  <SCORE.INTER.POLAR>
0

>  <SCORE.INTER.ROT>
10

>  <SCORE.INTER.SOLV>
22.7212

>  <SCORE.INTER.VDW>
-14.1433

>  <SCORE.INTER.norm>
0.138643

>  <SCORE.INTRA>
14.1602

>  <SCORE.INTRA.DIHEDRAL>
-12.7879

>  <SCORE.INTRA.DIHEDRAL.0>
28.2802

>  <SCORE.INTRA.POLAR>
0

>  <SCORE.INTRA.POLAR.0>
0

>  <SCORE.INTRA.REPUL>
0.457829

>  <SCORE.INTRA.REPUL.0>
0

>  <SCORE.INTRA.SOLV>
15.4809

>  <SCORE.INTRA.SOLV.lig_0>
-101.981

>  <SCORE.INTRA.VDW>
10.5246

>  <SCORE.INTRA.VDW.0>
-5.72964

>  <SCORE.INTRA.norm>
0.354005

>  <SCORE.RESTR>
22.6838

>  <SCORE.RESTR.CAVITY>
22.6838

>  <SCORE.RESTR.norm>
0.567096

>  <SCORE.SYSTEM>
0

>  <SCORE.SYSTEM.CONST>
0

>  <SCORE.SYSTEM.DIHEDRAL>
0

>  <SCORE.SYSTEM.SOLV>
0

>  <SCORE.SYSTEM.norm>
0

>  <SCORE.heavy>
40

>  <SCORE.norm>
1.05974

>  <RMSD>
15.464

$$$$
ligand
 OpenBabel11021811513D
libRbt.so/2013.1/901 2013/11/27
 40 42  0  0  0  0  0  0  0  0999 V2000
    8.7260   -2.7058    5.8250 C   0  0  2  0  0  0  0  0  0  0  0  0
    9.4965   -3.5475    6.6974 O   0  0  0  0  0  0  0  0  0  0  0  0
    7.4365   -3.4589    5.3256 C   0  0  1  0  0  0  0  0  0  0  0  0
    7.7975   -4.6734    4.4213 C   0  0  2  0  0  0  0  0  0  0  0  0
    8.5939   -4.1305    3.1928 C   0  0  2  0  0  0  0  0  0  0  0  0
    8.9239   -5.2294    2.3164 O   0  0  0  0  0  0  0  0  0  0  0  0
    9.9122   -3.4147    3.7229 C   0  0  2  0  0  0  0  0  0  0  0  0
    9.5378   -2.2798    4.6405 O   0  0  0  0  0  0  0  0  0  0  0  0
   10.7524   -2.8303    2.5956 C   0  0  0  0  0  0  0  0  0  0  0  0
   10.0622   -1.6772    1.9366 N   0  0  0  0  0  0  0  0  0  0  0  0
    9.5909   -7.6571    8.2568 C   0  0  2  0  0  0  0  0  0  0  0  0
    9.1807   -9.0144    8.5325 N   0  0  0  0  0  0  0  0  0  0  0  0
    8.5270   -6.6508    8.8554 C   0  0  0  0  0  0  0  0  0  0  0  0
    8.9641   -5.1477    8.5546 C   0  0  2  0  0  0  0  0  0  0  0  0
    7.9721   -4.2033    9.1320 N   0  0  0  0  0  0  0  0  0  0  0  0
    9.1015   -4.9471    6.9741 C   0  0  2  0  0  0  0  0  0  0  0  0
   10.1761   -5.9777    6.4218 C   0  0  2  0  0  0  0  0  0  0  0  0
   10.3089   -5.8036    5.0093 O   0  0  0  0  0  0  0  0  0  0  0  0
    9.7323   -7.4620    6.7303 C   0  0  1  0  0  0  0  0  0  0  0  0
   10.7328   -8.3884    6.2389 O   0  0  0  0  0  0  0  0  0  0  0  0
   10.6989   -9.0264    5.0074 C   0  0  2  0  0  0  0  0  0  0  0  0
    9.2023   -9.0593    4.5339 C   0  0  2  0  0  0  0  0  0  0  0  0
    8.7018   -7.7630    4.4698 O   0  0  0  0  0  0  0  0  0  0  0  0
    8.3066   -9.9745    5.4728 C   0  0  1  0  0  0  0  0  0  0  0  0
    6.8890  -10.0016    4.9969 N   0  0  0  0  0  0  0  0  0  0  0  0
    8.9276  -11.4390    5.4988 C   0  0  2  0  0  0  0  0  0  0  0  0
    8.1447  -12.3091    6.3255 O   0  0  0  0  0  0  0  0  0  0  0  0
   10.4144  -11.3323    6.0154 C   0  0  2  0  0  0  0  0  0  0  0  0
   11.2321  -10.4080    5.1234 O   0  0  0  0  0  0  0  0  0  0  0  0
   11.0790  -12.6879    6.0481 C   0  0  0  0  0  0  0  0  0  0  0  0
   11.1764  -13.2910    4.7444 O   0  0  0  0  0  0  0  0  0  0  0  0
    6.6789   -3.8922    6.4927 O   0  0  0  0  0  0  0  0  0  0  0  0
    6.6390   -5.2836    4.0053 O   0  0  0  0  0  0  0  0  0  0  0  0
   10.1909  -10.0087    8.8112 C   0  0  0  0  0  0  0  0  0  0  0  0
   11.3770   -9.8326    8.4024 O   0  0  0  0  0  0  0  0  0  0  0  0
    9.7651  -11.2775    9.6121 C   0  0  2  0  0  0  0  0  0  0  0  0
    6.9497  -10.2514    7.9167 N   0  0  0  0  0  0  0  0  0  0  0  0
    8.4597  -11.8971    9.0242 C   0  0  0  0  0  0  0  0  0  0  0  0
    7.2320  -10.9833    9.1748 C   0  0  0  0  0  0  0  0  0  0  0  0
    9.4997  -11.0222   10.8296 O   0  0  0  0  0  0  0  0  0  0  0  0
  1  2  1  1  0  0  0
  1  3  1  0  0  0  0
  1  8  1  0  0  0  0
  3  4  1  0  0  0  0
  3 32  1  1  0  0  0
  4  5  1  0  0  0  0
  4 33  1  6  0  0  0
  5  6  1  6  0  0  0
  5  7  1  0  0  0  0
  7  8  1  0  0  0  0
  7  9  1  6  0  0  0
  9 10  1  0  0  0  0
 11 12  1  6  0  0  0
 11 13  1  0  0  0  0
 11 19  1  0  0  0  0
 12 34  1  0  0  0  0
 13 14  1  0  0  0  0
 14 15  1  6  0  0  0
 14 16  1  0  0  0  0
 16  2  1  1  0  0  0
 16 17  1  0  0  0  0
 17 18  1  6  0  0  0
 17 19  1  0  0  0  0
 19 20  1  1  0  0  0
 21 20  1  1  0  0  0
 21 22  1  0  0  0  0
 21 29  1  0  0  0  0
 22 23  1  1  0  0  0
 22 24  1  0  0  0  0
 24 25  1  6  0  0  0
 24 26  1  0  0  0  0
 26 27  1  1  0  0  0
 26 28  1  0  0  0  0
 28 29  1  0  0  0  0
 28 30  1  6  0  0  0
 30 31  1  0  0  0  0
 34 35  2  0  0  0  0
 36 34  1  6  0  0  0
 36 38  1  0  0  0  0
 36 40  1  0  0  0  0
 37 39  1  0  0  0  0
 38 39  1  0  0  0  0
M  END
>  <CHROM.1>
3.21256976,-124.56419676,67.92254684,-144.72373526,144.89140794,-23.05352455
62.25081202,47.99440464,-65.42736437,99.40083938,9.18384547,-7.53452052,6.17589120
1.80751923,1.29808452,-0.59389950

>  <Name>
ligand

>  <RI>
0

>  <Rbt.Current_Directory>
/home/itssahil/PROJECTS/Mol_Feturizer/New_Systems/rnas/4P20

>  <Rbt.Executable>
rbdock ($Id: //depot/dev/client3/rdock/2013.1/src/exe/rbdock.cxx#4 $)

>  <Rbt.Library>
libRbt.so (2013.1, Build901 2013/11/27)

>  <Rbt.Parameter_File>
/export/apps/rDock/src/rDock_2013.1_src/data/scripts/dock_solv.prm

>  <Rbt.Receptor>
prm/blind_docking_80.prm

>  <SCORE>
44.6513

>  <SCORE.INTER>
5.73082

>  <SCORE.INTER.CONST>
1

>  <SCORE.INTER.POLAR>
0

>  <SCORE.INTER.ROT>
10

>  <SCORE.INTER.SOLV>
20.1358

>  <SCORE.INTER.VDW>
-13.1581

>  <SCORE.INTER.norm>
0.143271

>  <SCORE.INTRA>
13.0699

>  <SCORE.INTRA.DIHEDRAL>
1.54166

>  <SCORE.INTRA.DIHEDRAL.0>
28.2802

>  <SCORE.INTRA.POLAR>
0

>  <SCORE.INTRA.POLAR.0>
0

>  <SCORE.INTRA.REPUL>
0

>  <SCORE.INTRA.REPUL.0>
0

>  <SCORE.INTRA.SOLV>
15.9495

>  <SCORE.INTRA.SOLV.lig_0>
-101.981

>  <SCORE.INTRA.VDW>
4.32437

>  <SCORE.INTRA.VDW.0>
-5.72964

>  <SCORE.INTRA.norm>
0.326748

>  <SCORE.RESTR>
25.8505

>  <SCORE.RESTR.CAVITY>
25.8505

>  <SCORE.RESTR.norm>
0.646263

>  <SCORE.SYSTEM>
0

>  <SCORE.SYSTEM.CONST>
0

>  <SCORE.SYSTEM.DIHEDRAL>
0

>  <SCORE.SYSTEM.SOLV>
0

>  <SCORE.SYSTEM.norm>
0

>  <SCORE.heavy>
40

>  <SCORE.norm>
1.11628

>  <RMSD>
15.469

$$$$
ligand
 OpenBabel11021811513D
libRbt.so/2013.1/901 2013/11/27
 40 42  0  0  0  0  0  0  0  0999 V2000
    8.1182   -4.7329    3.6892 C   0  0  2  0  0  0  0  0  0  0  0  0
    8.9715   -5.8846    3.5972 O   0  0  0  0  0  0  0  0  0  0  0  0
    8.9313   -3.4165    3.3969 C   0  0  1  0  0  0  0  0  0  0  0  0
   10.0052   -3.1523    4.4923 C   0  0  2  0  0  0  0  0  0  0  0  0
    9.2646   -3.0158    5.8602 C   0  0  2  0  0  0  0  0  0  0  0  0
   10.2300   -2.7436    6.8987 O   0  0  0  0  0  0  0  0  0  0  0  0
    8.4890   -4.3742    6.1514 C   0  0  2  0  0  0  0  0  0  0  0  0
    7.4965   -4.6366    5.0486 O   0  0  0  0  0  0  0  0  0  0  0  0
    7.7140   -4.3343    7.4613 C   0  0  0  0  0  0  0  0  0  0  0  0
    6.3797   -3.6776    7.2907 N   0  0  0  0  0  0  0  0  0  0  0  0
   10.1305   -9.4584    5.8807 C   0  0  2  0  0  0  0  0  0  0  0  0
   10.1760  -10.4337    6.9451 N   0  0  0  0  0  0  0  0  0  0  0  0
   10.5445   -8.0396    6.4449 C   0  0  0  0  0  0  0  0  0  0  0  0
   10.4943   -6.9509    5.2816 C   0  0  2  0  0  0  0  0  0  0  0  0
   10.8994   -5.6218    5.8097 N   0  0  0  0  0  0  0  0  0  0  0  0
    9.0179   -6.9043    4.6694 C   0  0  2  0  0  0  0  0  0  0  0  0
    8.6490   -8.3477    4.1196 C   0  0  2  0  0  0  0  0  0  0  0  0
    7.3314   -8.3154    3.5664 O   0  0  0  0  0  0  0  0  0  0  0  0
    8.7067   -9.4164    5.2814 C   0  0  1  0  0  0  0  0  0  0  0  0
    8.3884  -10.7304    4.7594 O   0  0  0  0  0  0  0  0  0  0  0  0
    7.3032  -11.5047    5.1436 C   0  0  2  0  0  0  0  0  0  0  0  0
    6.4181  -10.6333    6.1040 C   0  0  2  0  0  0  0  0  0  0  0  0
    6.0292   -9.4664    5.4540 O   0  0  0  0  0  0  0  0  0  0  0  0
    7.1682  -10.3091    7.4654 C   0  0  1  0  0  0  0  0  0  0  0  0
    6.3034   -9.4896    8.3695 N   0  0  0  0  0  0  0  0  0  0  0  0
    7.5800  -11.6805    8.1589 C   0  0  2  0  0  0  0  0  0  0  0  0
    8.2512  -11.4407    9.4021 O   0  0  0  0  0  0  0  0  0  0  0  0
    8.4926  -12.4839    7.1536 C   0  0  2  0  0  0  0  0  0  0  0  0
    7.7625  -12.7333    5.8409 O   0  0  0  0  0  0  0  0  0  0  0  0
    8.9086  -13.8130    7.7375 C   0  0  0  0  0  0  0  0  0  0  0  0
    7.7868  -14.6652    8.0346 O   0  0  0  0  0  0  0  0  0  0  0  0
    9.5533   -3.5447    2.0852 O   0  0  0  0  0  0  0  0  0  0  0  0
   10.6734   -1.9893    4.1949 O   0  0  0  0  0  0  0  0  0  0  0  0
   11.1189  -11.5246    6.8561 C   0  0  0  0  0  0  0  0  0  0  0  0
   11.5668  -11.8786    5.7251 O   0  0  0  0  0  0  0  0  0  0  0  0
   11.5447  -12.2314    8.1795 C   0  0  2  0  0  0  0  0  0  0  0  0
   10.0493   -9.5757   10.6026 N   0  0  0  0  0  0  0  0  0  0  0  0
   10.7819  -11.6341    9.4022 C   0  0  0  0  0  0  0  0  0  0  0  0
   10.8544  -10.0996    9.4733 C   0  0  0  0  0  0  0  0  0  0  0  0
   12.7795  -12.0759    8.4427 O   0  0  0  0  0  0  0  0  0  0  0  0
  1  2  1  1  0  0  0
  1  3  1  0  0  0  0
  1  8  1  0  0  0  0
  3  4  1  0  0  0  0
  3 32  1  6  0  0  0
  4  5  1  0  0  0  0
  4 33  1  6  0  0  0
  5  6  1  1  0  0  0
  5  7  1  0  0  0  0
  7  8  1  0  0  0  0
  7  9  1  1  0  0  0
  9 10  1  0  0  0  0
 11 12  1  1  0  0  0
 11 13  1  0  0  0  0
 11 19  1  0  0  0  0
 12 34  1  0  0  0  0
 13 14  1  0  0  0  0
 14 15  1  1  0  0  0
 14 16  1  0  0  0  0
 16  2  1  6  0  0  0
 16 17  1  0  0  0  0
 17 18  1  1  0  0  0
 17 19  1  0  0  0  0
 19 20  1  6  0  0  0
 21 20  1  1  0  0  0
 21 22  1  0  0  0  0
 21 29  1  0  0  0  0
 22 23  1  6  0  0  0
 22 24  1  0  0  0  0
 24 25  1  1  0  0  0
 24 26  1  0  0  0  0
 26 27  1  1  0  0  0
 26 28  1  0  0  0  0
 28 29  1  0  0  0  0
 28 30  1  1  0  0  0
 30 31  1  0  0  0  0
 34 35  2  0  0  0  0
 36 34  1  6  0  0  0
 36 38  1  0  0  0  0
 36 40  1  0  0  0  0
 37 39  1  0  0  0  0
 38 39  1  0  0  0  0
M  END
>  <CHROM.1>
129.75270285,-117.87512560,83.20987728,-116.37972269,122.40198021,6.35496593
60.75480237,2.65861479,-50.84259204,176.60021061,9.01975955,-8.42612826,6.24662903
1.58811391,-0.65142586,-0.32784865

>  <Name>
ligand

>  <RI>
0

>  <Rbt.Current_Directory>
/home/itssahil/PROJECTS/Mol_Feturizer/New_Systems/rnas/4P20

>  <Rbt.Executable>
rbdock ($Id: //depot/dev/client3/rdock/2013.1/src/exe/rbdock.cxx#4 $)

>  <Rbt.Library>
libRbt.so (2013.1, Build901 2013/11/27)

>  <Rbt.Parameter_File>
/export/apps/rDock/src/rDock_2013.1_src/data/scripts/dock_solv.prm

>  <Rbt.Receptor>
prm/blind_docking_80.prm

>  <SCORE>
56.9651

>  <SCORE.INTER>
17.1804

>  <SCORE.INTER.CONST>
1

>  <SCORE.INTER.POLAR>
0

>  <SCORE.INTER.ROT>
10

>  <SCORE.INTER.SOLV>
36.4238

>  <SCORE.INTER.VDW>
-10.9543

>  <SCORE.INTER.norm>
0.429511

>  <SCORE.INTRA>
17.0117

>  <SCORE.INTRA.DIHEDRAL>
5.50408

>  <SCORE.INTRA.DIHEDRAL.0>
28.2802

>  <SCORE.INTRA.POLAR>
0

>  <SCORE.INTRA.POLAR.0>
0

>  <SCORE.INTRA.REPUL>
0

>  <SCORE.INTRA.REPUL.0>
0

>  <SCORE.INTRA.SOLV>
11.4637

>  <SCORE.INTRA.SOLV.lig_0>
-101.981

>  <SCORE.INTRA.VDW>
8.5278

>  <SCORE.INTRA.VDW.0>
-5.72964

>  <SCORE.INTRA.norm>
0.425293

>  <SCORE.RESTR>
22.773

>  <SCORE.RESTR.CAVITY>
22.773

>  <SCORE.RESTR.norm>
0.569324

>  <SCORE.SYSTEM>
0

>  <SCORE.SYSTEM.CONST>
0

>  <SCORE.SYSTEM.DIHEDRAL>
0

>  <SCORE.SYSTEM.SOLV>
0

>  <SCORE.SYSTEM.norm>
0

>  <SCORE.heavy>
40

>  <SCORE.norm>
1.42413

>  <RMSD>
15.520

$$$$
ligand
 OpenBabel11021811513D
libRbt.so/2013.1/901 2013/11/27
 40 42  0  0  0  0  0  0  0  0999 V2000
    8.8574   -2.8413    6.1668 C   0  0  2  0  0  0  0  0  0  0  0  0
    9.6407   -3.7670    6.9365 O   0  0  0  0  0  0  0  0  0  0  0  0
    7.5524   -3.5365    5.6255 C   0  0  1  0  0  0  0  0  0  0  0  0
    7.8855   -4.6593    4.6003 C   0  0  2  0  0  0  0  0  0  0  0  0
    8.6590   -4.0038    3.4127 C   0  0  2  0  0  0  0  0  0  0  0  0
    8.9626   -5.0142    2.4272 O   0  0  0  0  0  0  0  0  0  0  0  0
    9.9933   -3.3488    3.9804 C   0  0  2  0  0  0  0  0  0  0  0  0
    9.6464   -2.3064    5.0114 O   0  0  0  0  0  0  0  0  0  0  0  0
   10.8130   -2.6621    2.8966 C   0  0  0  0  0  0  0  0  0  0  0  0
   10.1481   -1.4106    2.4146 N   0  0  0  0  0  0  0  0  0  0  0  0
    9.5977   -7.9397    8.3211 C   0  0  2  0  0  0  0  0  0  0  0  0
    9.1573   -9.3018    8.5136 N   0  0  0  0  0  0  0  0  0  0  0  0
    8.5110   -6.9455    8.8984 C   0  0  0  0  0  0  0  0  0  0  0  0
    8.9813   -5.4369    8.6887 C   0  0  2  0  0  0  0  0  0  0  0  0
    7.9668   -4.5046    9.2463 N   0  0  0  0  0  0  0  0  0  0  0  0
    9.2149   -5.1718    7.1292 C   0  0  2  0  0  0  0  0  0  0  0  0
   10.3093   -6.1923    6.5976 C   0  0  2  0  0  0  0  0  0  0  0  0
   10.5281   -5.9606    5.2042 O   0  0  0  0  0  0  0  0  0  0  0  0
    9.8320   -7.6823    6.8155 C   0  0  1  0  0  0  0  0  0  0  0  0
   10.8500   -8.6003    6.3448 O   0  0  0  0  0  0  0  0  0  0  0  0
   10.6517   -9.6084    5.4124 C   0  0  2  0  0  0  0  0  0  0  0  0
   10.1019   -8.9387    4.1031 C   0  0  2  0  0  0  0  0  0  0  0  0
   11.0007   -7.9760    3.6553 O   0  0  0  0  0  0  0  0  0  0  0  0
    8.6568   -8.3175    4.3203 C   0  0  1  0  0  0  0  0  0  0  0  0
    8.1475   -7.6966    3.0586 N   0  0  0  0  0  0  0  0  0  0  0  0
    7.6793   -9.4667    4.8254 C   0  0  2  0  0  0  0  0  0  0  0  0
    6.3548   -8.9572    5.0243 O   0  0  0  0  0  0  0  0  0  0  0  0
    8.2750  -10.0672    6.1572 C   0  0  2  0  0  0  0  0  0  0  0  0
    9.6798  -10.6073    5.9263 O   0  0  0  0  0  0  0  0  0  0  0  0
    7.4072  -11.1832    6.6881 C   0  0  0  0  0  0  0  0  0  0  0  0
    7.4855  -12.3772    5.8875 O   0  0  0  0  0  0  0  0  0  0  0  0
    6.8170   -4.0772    6.7617 O   0  0  0  0  0  0  0  0  0  0  0  0
    6.7142   -5.2211    4.1529 O   0  0  0  0  0  0  0  0  0  0  0  0
    9.8447  -10.1310    9.4763 C   0  0  0  0  0  0  0  0  0  0  0  0
   11.0348   -9.8533    9.8102 O   0  0  0  0  0  0  0  0  0  0  0  0
    9.0775  -11.3542   10.0661 C   0  0  2  0  0  0  0  0  0  0  0  0
   11.0396  -11.8656    7.6525 N   0  0  0  0  0  0  0  0  0  0  0  0
    9.7221  -12.6958    9.5993 C   0  0  0  0  0  0  0  0  0  0  0  0
    9.9428  -12.7674    8.0790 C   0  0  0  0  0  0  0  0  0  0  0  0
    7.8674  -11.4073    9.6775 O   0  0  0  0  0  0  0  0  0  0  0  0
  1  2  1  6  0  0  0
  1  3  1  0  0  0  0
  1  8  1  0  0  0  0
  3  4  1  0  0  0  0
  3 32  1  1  0  0  0
  4  5  1  0  0  0  0
  4 33  1  6  0  0  0
  5  6  1  6  0  0  0
  5  7  1  0  0  0  0
  7  8  1  0  0  0  0
  7  9  1  6  0  0  0
  9 10  1  0  0  0  0
 11 12  1  6  0  0  0
 11 13  1  0  0  0  0
 11 19  1  0  0  0  0
 12 34  1  0  0  0  0
 13 14  1  0  0  0  0
 14 15  1  6  0  0  0
 14 16  1  0  0  0  0
 16  2  1  1  0  0  0
 16 17  1  0  0  0  0
 17 18  1  6  0  0  0
 17 19  1  0  0  0  0
 19 20  1  1  0  0  0
 21 20  1  1  0  0  0
 21 22  1  0  0  0  0
 21 29  1  0  0  0  0
 22 23  1  1  0  0  0
 22 24  1  0  0  0  0
 24 25  1  6  0  0  0
 24 26  1  0  0  0  0
 26 27  1  1  0  0  0
 26 28  1  0  0  0  0
 28 29  1  0  0  0  0
 28 30  1  6  0  0  0
 30 31  1  0  0  0  0
 34 35  2  0  0  0  0
 36 34  1  6  0  0  0
 36 38  1  0  0  0  0
 36 40  1  0  0  0  0
 37 39  1  0  0  0  0
 38 39  1  0  0  0  0
M  END
>  <CHROM.1>
0.78557736,-118.07318905,70.70090422,-110.02134134,115.12858319,57.42058412
71.51427910,113.06477638,-50.16699505,71.29848254,9.10682827,-7.40398273
6.21917281,-2.27502172,1.54545301,-2.88207586

>  <Name>
ligand

>  <RI>
0

>  <Rbt.Current_Directory>
/home/itssahil/PROJECTS/Mol_Feturizer/New_Systems/rnas/4P20

>  <Rbt.Executable>
rbdock ($Id: //depot/dev/client3/rdock/2013.1/src/exe/rbdock.cxx#4 $)

>  <Rbt.Library>
libRbt.so (2013.1, Build901 2013/11/27)

>  <Rbt.Parameter_File>
/export/apps/rDock/src/rDock_2013.1_src/data/scripts/dock_solv.prm

>  <Rbt.Receptor>
prm/blind_docking_80.prm

>  <SCORE>
43.1625

>  <SCORE.INTER>
8.05768

>  <SCORE.INTER.CONST>
1

>  <SCORE.INTER.POLAR>
0

>  <SCORE.INTER.ROT>
10

>  <SCORE.INTER.SOLV>
18.1505

>  <SCORE.INTER.VDW>
-10.9451

>  <SCORE.INTER.norm>
0.201442

>  <SCORE.INTRA>
9.59509

>  <SCORE.INTRA.DIHEDRAL>
-1.58709

>  <SCORE.INTRA.DIHEDRAL.0>
28.2802

>  <SCORE.INTRA.POLAR>
0

>  <SCORE.INTRA.POLAR.0>
0

>  <SCORE.INTRA.REPUL>
0

>  <SCORE.INTRA.REPUL.0>
0

>  <SCORE.INTRA.SOLV>
17.5846

>  <SCORE.INTRA.SOLV.lig_0>
-101.981

>  <SCORE.INTRA.VDW>
1.59635

>  <SCORE.INTRA.VDW.0>
-5.72964

>  <SCORE.INTRA.norm>
0.239877

>  <SCORE.RESTR>
25.5097

>  <SCORE.RESTR.CAVITY>
25.5097

>  <SCORE.RESTR.norm>
0.637743

>  <SCORE.SYSTEM>
0

>  <SCORE.SYSTEM.CONST>
0

>  <SCORE.SYSTEM.DIHEDRAL>
0

>  <SCORE.SYSTEM.SOLV>
0

>  <SCORE.SYSTEM.norm>
0

>  <SCORE.heavy>
40

>  <SCORE.norm>
1.07906

>  <RMSD>
15.527

$$$$
ligand
 OpenBabel11021811513D
libRbt.so/2013.1/901 2013/11/27
 40 42  0  0  0  0  0  0  0  0999 V2000
    8.9835   -2.9383    6.2691 C   0  0  2  0  0  0  0  0  0  0  0  0
    9.7643   -3.9387    6.9417 O   0  0  0  0  0  0  0  0  0  0  0  0
    7.6292   -3.5501    5.7487 C   0  0  1  0  0  0  0  0  0  0  0  0
    7.8715   -4.6167    4.6412 C   0  0  2  0  0  0  0  0  0  0  0  0
    8.6152   -3.9152    3.4609 C   0  0  2  0  0  0  0  0  0  0  0  0
    8.8342   -4.8711    2.4014 O   0  0  0  0  0  0  0  0  0  0  0  0
    9.9983   -3.3461    4.0037 C   0  0  2  0  0  0  0  0  0  0  0  0
    9.7395   -2.3596    5.1127 O   0  0  0  0  0  0  0  0  0  0  0  0
   10.7941   -2.6217    2.9266 C   0  0  0  0  0  0  0  0  0  0  0  0
   10.0219   -1.4769    2.3491 N   0  0  0  0  0  0  0  0  0  0  0  0
    9.3571   -8.0260    8.5097 C   0  0  2  0  0  0  0  0  0  0  0  0
    8.8359   -9.3584    8.7079 N   0  0  0  0  0  0  0  0  0  0  0  0
    8.2487   -6.9624    8.8881 C   0  0  0  0  0  0  0  0  0  0  0  0
    8.8083   -5.4859    8.6697 C   0  0  2  0  0  0  0  0  0  0  0  0
    7.7713   -4.4878    9.0412 N   0  0  0  0  0  0  0  0  0  0  0  0
    9.2557   -5.3142    7.1441 C   0  0  2  0  0  0  0  0  0  0  0  0
   10.3645   -6.4019    6.8134 C   0  0  2  0  0  0  0  0  0  0  0  0
   10.7740   -6.2541    5.4519 O   0  0  0  0  0  0  0  0  0  0  0  0
    9.7979   -7.8592    7.0380 C   0  0  1  0  0  0  0  0  0  0  0  0
   10.8275   -8.8384    6.7524 O   0  0  0  0  0  0  0  0  0  0  0  0
   10.7792   -9.7791    5.7337 C   0  0  2  0  0  0  0  0  0  0  0  0
   10.8227   -9.0013    4.3706 C   0  0  2  0  0  0  0  0  0  0  0  0
   11.9723   -8.2202    4.3125 O   0  0  0  0  0  0  0  0  0  0  0  0
    9.5193   -8.1212    4.1517 C   0  0  1  0  0  0  0  0  0  0  0  0
    9.5760   -7.3994    2.8430 N   0  0  0  0  0  0  0  0  0  0  0  0
    8.2453   -9.0713    4.2244 C   0  0  2  0  0  0  0  0  0  0  0  0
    7.0403   -8.3234    4.0193 O   0  0  0  0  0  0  0  0  0  0  0  0
    8.2488   -9.7901    5.6288 C   0  0  2  0  0  0  0  0  0  0  0  0
    9.5335  -10.5829    5.8277 O   0  0  0  0  0  0  0  0  0  0  0  0
    7.0736  -10.7288    5.7640 C   0  0  0  0  0  0  0  0  0  0  0  0
    5.8136  -10.0834    5.5016 O   0  0  0  0  0  0  0  0  0  0  0  0
    6.9257   -4.1352    6.8831 O   0  0  0  0  0  0  0  0  0  0  0  0
    6.6601   -5.1063    4.2163 O   0  0  0  0  0  0  0  0  0  0  0  0
    9.7473  -10.4217    9.0626 C   0  0  0  0  0  0  0  0  0  0  0  0
   10.9779  -10.3159    8.7809 O   0  0  0  0  0  0  0  0  0  0  0  0
    9.1621  -11.6747    9.7837 C   0  0  2  0  0  0  0  0  0  0  0  0
   10.4573  -13.2115    7.6608 N   0  0  0  0  0  0  0  0  0  0  0  0
    8.3365  -12.5538    8.7943 C   0  0  0  0  0  0  0  0  0  0  0  0
    9.0502  -12.7932    7.4532 C   0  0  0  0  0  0  0  0  0  0  0  0
    8.3554  -11.3697   10.7187 O   0  0  0  0  0  0  0  0  0  0  0  0
  1  2  1  6  0  0  0
  1  3  1  0  0  0  0
  1  8  1  0  0  0  0
  3  4  1  0  0  0  0
  3 32  1  1  0  0  0
  4  5  1  0  0  0  0
  4 33  1  6  0  0  0
  5  6  1  6  0  0  0
  5  7  1  0  0  0  0
  7  8  1  0  0  0  0
  7  9  1  6  0  0  0
  9 10  1  0  0  0  0
 11 12  1  6  0  0  0
 11 13  1  0  0  0  0
 11 19  1  0  0  0  0
 12 34  1  0  0  0  0
 13 14  1  0  0  0  0
 14 15  1  6  0  0  0
 14 16  1  0  0  0  0
 16  2  1  1  0  0  0
 16 17  1  0  0  0  0
 17 18  1  6  0  0  0
 17 19  1  0  0  0  0
 19 20  1  1  0  0  0
 21 20  1  1  0  0  0
 21 22  1  0  0  0  0
 21 29  1  0  0  0  0
 22 23  1  1  0  0  0
 22 24  1  0  0  0  0
 24 25  1  6  0  0  0
 24 26  1  0  0  0  0
 26 27  1  1  0  0  0
 26 28  1  0  0  0  0
 28 29  1  0  0  0  0
 28 30  1  6  0  0  0
 30 31  1  0  0  0  0
 34 35  2  0  0  0  0
 36 34  1  6  0  0  0
 36 38  1  0  0  0  0
 36 40  1  0  0  0  0
 37 39  1  0  0  0  0
 38 39  1  0  0  0  0
M  END
>  <CHROM.1>
-3.23985788,-104.26716079,58.62572776,-150.29864053,123.99489237,65.91110975
-53.81627976,72.91409442,46.18453759,47.78854675,9.10515699,-7.38280419,6.14793908
1.57594342,1.42820505,-0.44458961

>  <Name>
ligand

>  <RI>
0

>  <Rbt.Current_Directory>
/home/itssahil/PROJECTS/Mol_Feturizer/New_Systems/rnas/4P20

>  <Rbt.Executable>
rbdock ($Id: //depot/dev/client3/rdock/2013.1/src/exe/rbdock.cxx#4 $)

>  <Rbt.Library>
libRbt.so (2013.1, Build901 2013/11/27)

>  <Rbt.Parameter_File>
/export/apps/rDock/src/rDock_2013.1_src/data/scripts/dock_solv.prm

>  <Rbt.Receptor>
prm/blind_docking_80.prm

>  <SCORE>
41.9468

>  <SCORE.INTER>
7.58298

>  <SCORE.INTER.CONST>
1

>  <SCORE.INTER.POLAR>
0

>  <SCORE.INTER.ROT>
10

>  <SCORE.INTER.SOLV>
19.5774

>  <SCORE.INTER.VDW>
-11.7372

>  <SCORE.INTER.norm>
0.189574

>  <SCORE.INTRA>
9.53305

>  <SCORE.INTRA.DIHEDRAL>
-4.86537

>  <SCORE.INTRA.DIHEDRAL.0>
28.2802

>  <SCORE.INTRA.POLAR>
0

>  <SCORE.INTRA.POLAR.0>
0

>  <SCORE.INTRA.REPUL>
0.0220113

>  <SCORE.INTRA.REPUL.0>
0

>  <SCORE.INTRA.SOLV>
14.3888

>  <SCORE.INTRA.SOLV.lig_0>
-101.981

>  <SCORE.INTRA.VDW>
4.66128

>  <SCORE.INTRA.VDW.0>
-5.72964

>  <SCORE.INTRA.norm>
0.238326

>  <SCORE.RESTR>
24.8308

>  <SCORE.RESTR.CAVITY>
24.8308

>  <SCORE.RESTR.norm>
0.620769

>  <SCORE.SYSTEM>
0

>  <SCORE.SYSTEM.CONST>
0

>  <SCORE.SYSTEM.DIHEDRAL>
0

>  <SCORE.SYSTEM.SOLV>
0

>  <SCORE.SYSTEM.norm>
0

>  <SCORE.heavy>
40

>  <SCORE.norm>
1.04867

>  <RMSD>
15.535

$$$$
ligand
 OpenBabel11021811513D
libRbt.so/2013.1/901 2013/11/27
 40 42  0  0  0  0  0  0  0  0999 V2000
    9.1460  -12.1904    9.5667 C   0  0  2  0  0  0  0  0  0  0  0  0
    9.9015  -11.0989   10.1154 O   0  0  0  0  0  0  0  0  0  0  0  0
   10.0879  -13.1732    8.7754 C   0  0  1  0  0  0  0  0  0  0  0  0
   10.6960  -12.4920    7.5148 C   0  0  2  0  0  0  0  0  0  0  0  0
    9.5128  -12.0500    6.5967 C   0  0  2  0  0  0  0  0  0  0  0  0
   10.0416  -11.4356    5.4019 O   0  0  0  0  0  0  0  0  0  0  0  0
    8.6035  -11.0245    7.4047 C   0  0  2  0  0  0  0  0  0  0  0  0
    8.0738  -11.6892    8.6488 O   0  0  0  0  0  0  0  0  0  0  0  0
    7.4039  -10.5471    6.5977 C   0  0  0  0  0  0  0  0  0  0  0  0
    6.5124   -9.6607    7.4103 N   0  0  0  0  0  0  0  0  0  0  0  0
    8.4338   -7.6681    7.7904 C   0  0  2  0  0  0  0  0  0  0  0  0
    8.2539   -6.3048    7.3483 N   0  0  0  0  0  0  0  0  0  0  0  0
    7.9861   -7.7977    9.3022 C   0  0  0  0  0  0  0  0  0  0  0  0
    8.1836   -9.2971    9.8060 C   0  0  2  0  0  0  0  0  0  0  0  0
    7.7472   -9.4207   11.2216 N   0  0  0  0  0  0  0  0  0  0  0  0
    9.7190   -9.7101    9.6362 C   0  0  2  0  0  0  0  0  0  0  0  0
   10.1198   -9.5622    8.1067 C   0  0  2  0  0  0  0  0  0  0  0  0
   11.4906   -9.9331    7.9439 O   0  0  0  0  0  0  0  0  0  0  0  0
    9.9153   -8.0733    7.6203 C   0  0  1  0  0  0  0  0  0  0  0  0
   10.2652   -7.9598    6.2183 O   0  0  0  0  0  0  0  0  0  0  0  0
    9.7890   -8.7780    5.2041 C   0  0  2  0  0  0  0  0  0  0  0  0
   10.7970   -8.6780    4.0045 C   0  0  2  0  0  0  0  0  0  0  0  0
   12.0689   -9.0495    4.4281 O   0  0  0  0  0  0  0  0  0  0  0  0
   10.8075   -7.2257    3.3625 C   0  0  1  0  0  0  0  0  0  0  0  0
   11.7641   -7.1562    2.2150 N   0  0  0  0  0  0  0  0  0  0  0  0
    9.3299   -6.8647    2.8959 C   0  0  2  0  0  0  0  0  0  0  0  0
    9.2893   -5.5640    2.2959 O   0  0  0  0  0  0  0  0  0  0  0  0
    8.3829   -6.9517    4.1547 C   0  0  2  0  0  0  0  0  0  0  0  0
    8.4354   -8.3407    4.7763 O   0  0  0  0  0  0  0  0  0  0  0  0
    6.9527   -6.6398    3.7838 C   0  0  0  0  0  0  0  0  0  0  0  0
    6.7445   -5.2446    3.4960 O   0  0  0  0  0  0  0  0  0  0  0  0
   11.1409  -13.6231    9.6770 O   0  0  0  0  0  0  0  0  0  0  0  0
   11.4961  -13.3953    6.8580 O   0  0  0  0  0  0  0  0  0  0  0  0
    9.3686   -5.3895    7.4283 C   0  0  0  0  0  0  0  0  0  0  0  0
   10.3113   -5.6155    8.2440 O   0  0  0  0  0  0  0  0  0  0  0  0
    9.3566   -4.1409    6.4937 C   0  0  2  0  0  0  0  0  0  0  0  0
   10.3807   -2.3098    4.2086 N   0  0  0  0  0  0  0  0  0  0  0  0
    9.6350   -4.5482    5.0138 C   0  0  0  0  0  0  0  0  0  0  0  0
    9.3992   -3.4038    4.0139 C   0  0  0  0  0  0  0  0  0  0  0  0
   10.2634   -3.2991    6.7890 O   0  0  0  0  0  0  0  0  0  0  0  0
  1  2  1  6  0  0  0
  1  3  1  0  0  0  0
  1  8  1  0  0  0  0
  3  4  1  0  0  0  0
  3 32  1  1  0  0  0
  4  5  1  0  0  0  0
  4 33  1  6  0  0  0
  5  6  1  6  0  0  0
  5  7  1  0  0  0  0
  7  8  1  0  0  0  0
  7  9  1  6  0  0  0
  9 10  1  0  0  0  0
 11 12  1  1  0  0  0
 11 13  1  0  0  0  0
 11 19  1  0  0  0  0
 12 34  1  0  0  0  0
 13 14  1  0  0  0  0
 14 15  1  1  0  0  0
 14 16  1  0  0  0  0
 16  2  1  6  0  0  0
 16 17  1  0  0  0  0
 17 18  1  1  0  0  0
 17 19  1  0  0  0  0
 19 20  1  6  0  0  0
 21 20  1  1  0  0  0
 21 22  1  0  0  0  0
 21 29  1  0  0  0  0
 22 23  1  1  0  0  0
 22 24  1  0  0  0  0
 24 25  1  6  0  0  0
 24 26  1  0  0  0  0
 26 27  1  1  0  0  0
 26 28  1  0  0  0  0
 28 29  1  0  0  0  0
 28 30  1  6  0  0  0
 30 31  1  0  0  0  0
 34 35  2  0  0  0  0
 36 34  1  1  0  0  0
 36 38  1  0  0  0  0
 36 40  1  0  0  0  0
 37 39  1  0  0  0  0
 38 39  1  0  0  0  0
M  END
>  <CHROM.1>
113.05910624,56.91793877,175.96727530,93.83315206,-68.99165831,-158.72769601
-72.01533021,-72.52082643,170.13372480,66.44190687,9.46578600,-8.44372463
6.54779403,1.47071850,-1.21380640,2.47475856

>  <Name>
ligand

>  <RI>
0

>  <Rbt.Current_Directory>
/home/itssahil/PROJECTS/Mol_Feturizer/New_Systems/rnas/4P20

>  <Rbt.Executable>
rbdock ($Id: //depot/dev/client3/rdock/2013.1/src/exe/rbdock.cxx#4 $)

>  <Rbt.Library>
libRbt.so (2013.1, Build901 2013/11/27)

>  <Rbt.Parameter_File>
/export/apps/rDock/src/rDock_2013.1_src/data/scripts/dock_solv.prm

>  <Rbt.Receptor>
prm/blind_docking_80.prm

>  <SCORE>
52.1187

>  <SCORE.INTER>
10.7167

>  <SCORE.INTER.CONST>
1

>  <SCORE.INTER.POLAR>
0

>  <SCORE.INTER.ROT>
10

>  <SCORE.INTER.SOLV>
21.7735

>  <SCORE.INTER.VDW>
-10.3801

>  <SCORE.INTER.norm>
0.267916

>  <SCORE.INTRA>
17.445

>  <SCORE.INTRA.DIHEDRAL>
-16.1209

>  <SCORE.INTRA.DIHEDRAL.0>
28.2802

>  <SCORE.INTRA.POLAR>
0

>  <SCORE.INTRA.POLAR.0>
0

>  <SCORE.INTRA.REPUL>
0

>  <SCORE.INTRA.REPUL.0>
0

>  <SCORE.INTRA.SOLV>
13.4921

>  <SCORE.INTRA.SOLV.lig_0>
-101.981

>  <SCORE.INTRA.VDW>
18.7595

>  <SCORE.INTRA.VDW.0>
-5.72964

>  <SCORE.INTRA.norm>
0.436126

>  <SCORE.RESTR>
23.957

>  <SCORE.RESTR.CAVITY>
23.957

>  <SCORE.RESTR.norm>
0.598926

>  <SCORE.SYSTEM>
0

>  <SCORE.SYSTEM.CONST>
0

>  <SCORE.SYSTEM.DIHEDRAL>
0

>  <SCORE.SYSTEM.SOLV>
0

>  <SCORE.SYSTEM.norm>
0

>  <SCORE.heavy>
40

>  <SCORE.norm>
1.30297

>  <RMSD>
15.536

$$$$
ligand
 OpenBabel11021811513D
libRbt.so/2013.1/901 2013/11/27
 40 42  0  0  0  0  0  0  0  0999 V2000
    9.7009   -3.5139    5.8958 C   0  0  2  0  0  0  0  0  0  0  0  0
    9.2153   -4.7377    6.4697 O   0  0  0  0  0  0  0  0  0  0  0  0
    8.5316   -2.4698    5.7471 C   0  0  1  0  0  0  0  0  0  0  0  0
    7.4657   -2.9474    4.7181 C   0  0  2  0  0  0  0  0  0  0  0  0
    8.1818   -3.1289    3.3424 C   0  0  2  0  0  0  0  0  0  0  0  0
    7.2155   -3.5476    2.3547 O   0  0  0  0  0  0  0  0  0  0  0  0
    9.3274   -4.2202    3.5104 C   0  0  2  0  0  0  0  0  0  0  0  0
   10.3146   -3.7612    4.5520 O   0  0  0  0  0  0  0  0  0  0  0  0
   10.1024   -4.4557    2.2212 C   0  0  0  0  0  0  0  0  0  0  0  0
   11.2053   -3.4579    2.0528 N   0  0  0  0  0  0  0  0  0  0  0  0
    9.0289   -9.0478    5.6221 C   0  0  2  0  0  0  0  0  0  0  0  0
    9.2708  -10.3156    4.9736 N   0  0  0  0  0  0  0  0  0  0  0  0
    8.3497   -8.0509    4.5985 C   0  0  0  0  0  0  0  0  0  0  0  0
    8.0809   -6.6445    5.2991 C   0  0  2  0  0  0  0  0  0  0  0  0
    7.4278   -5.7145    4.3409 N   0  0  0  0  0  0  0  0  0  0  0  0
    9.4666   -6.0488    5.8298 C   0  0  2  0  0  0  0  0  0  0  0  0
   10.1083   -7.0834    6.8494 C   0  0  2  0  0  0  0  0  0  0  0  0
   11.3466   -6.5578    7.3327 O   0  0  0  0  0  0  0  0  0  0  0  0
   10.3653   -8.4728    6.1432 C   0  0  1  0  0  0  0  0  0  0  0  0
   10.9310   -9.4113    7.0918 O   0  0  0  0  0  0  0  0  0  0  0  0
   10.9944   -9.2237    8.4650 C   0  0  2  0  0  0  0  0  0  0  0  0
   11.3715  -10.6032    9.1129 C   0  0  2  0  0  0  0  0  0  0  0  0
   12.5773  -11.0550    8.5866 O   0  0  0  0  0  0  0  0  0  0  0  0
   10.2210  -11.6803    8.9185 C   0  0  1  0  0  0  0  0  0  0  0  0
   10.5953  -12.9817    9.5534 N   0  0  0  0  0  0  0  0  0  0  0  0
    8.8754  -11.1066    9.5440 C   0  0  2  0  0  0  0  0  0  0  0  0
    7.8064  -12.0506    9.4045 O   0  0  0  0  0  0  0  0  0  0  0  0
    8.5418   -9.7432    8.8237 C   0  0  2  0  0  0  0  0  0  0  0  0
    9.6858   -8.7515    8.9857 O   0  0  0  0  0  0  0  0  0  0  0  0
    7.2817   -9.1257    9.3815 C   0  0  0  0  0  0  0  0  0  0  0  0
    6.1227   -9.9580    9.1897 O   0  0  0  0  0  0  0  0  0  0  0  0
    7.9284   -2.2685    7.0585 O   0  0  0  0  0  0  0  0  0  0  0  0
    6.4792   -1.9963    4.6191 O   0  0  0  0  0  0  0  0  0  0  0  0
    8.8462  -11.5305    5.6299 C   0  0  0  0  0  0  0  0  0  0  0  0
    8.6825  -11.5431    6.8861 O   0  0  0  0  0  0  0  0  0  0  0  0
    8.6101  -12.7936    4.7460 C   0  0  2  0  0  0  0  0  0  0  0  0
    6.2912  -10.9953    5.6648 N   0  0  0  0  0  0  0  0  0  0  0  0
    7.0888  -13.1200    4.6331 C   0  0  0  0  0  0  0  0  0  0  0  0
    6.2094  -11.8690    4.4698 C   0  0  0  0  0  0  0  0  0  0  0  0
    9.1449  -13.8397    5.2335 O   0  0  0  0  0  0  0  0  0  0  0  0
  1  2  1  6  0  0  0
  1  3  1  0  0  0  0
  1  8  1  0  0  0  0
  3  4  1  0  0  0  0
  3 32  1  1  0  0  0
  4  5  1  0  0  0  0
  4 33  1  6  0  0  0
  5  6  1  6  0  0  0
  5  7  1  0  0  0  0
  7  8  1  0  0  0  0
  7  9  1  6  0  0  0
  9 10  1  0  0  0  0
 11 12  1  6  0  0  0
 11 13  1  0  0  0  0
 11 19  1  0  0  0  0
 12 34  1  0  0  0  0
 13 14  1  0  0  0  0
 14 15  1  6  0  0  0
 14 16  1  0  0  0  0
 16  2  1  1  0  0  0
 16 17  1  0  0  0  0
 17 18  1  6  0  0  0
 17 19  1  0  0  0  0
 19 20  1  1  0  0  0
 21 20  1  6  0  0  0
 21 22  1  0  0  0  0
 21 29  1  0  0  0  0
 22 23  1  6  0  0  0
 22 24  1  0  0  0  0
 24 25  1  1  0  0  0
 24 26  1  0  0  0  0
 26 27  1  6  0  0  0
 26 28  1  0  0  0  0
 28 29  1  0  0  0  0
 28 30  1  1  0  0  0
 30 31  1  0  0  0  0
 34 35  2  0  0  0  0
 36 34  1  1  0  0  0
 36 38  1  0  0  0  0
 36 40  1  0  0  0  0
 37 39  1  0  0  0  0
 38 39  1  0  0  0  0
M  END
>  <CHROM.1>
127.75383022,-112.39866126,84.70558091,-130.51895806,-108.07893248,167.23070446
-61.68793077,-108.51872982,40.36000276,-63.75471276,8.96855951,-7.98374539
6.21741750,-1.66049416,1.05558179,2.84172718

>  <Name>
ligand

>  <RI>
0

>  <Rbt.Current_Directory>
/home/itssahil/PROJECTS/Mol_Feturizer/New_Systems/rnas/4P20

>  <Rbt.Executable>
rbdock ($Id: //depot/dev/client3/rdock/2013.1/src/exe/rbdock.cxx#4 $)

>  <Rbt.Library>
libRbt.so (2013.1, Build901 2013/11/27)

>  <Rbt.Parameter_File>
/export/apps/rDock/src/rDock_2013.1_src/data/scripts/dock_solv.prm

>  <Rbt.Receptor>
prm/blind_docking_80.prm

>  <SCORE>
56.6764

>  <SCORE.INTER>
16.3485

>  <SCORE.INTER.CONST>
1

>  <SCORE.INTER.POLAR>
0

>  <SCORE.INTER.ROT>
10

>  <SCORE.INTER.SOLV>
22.1728

>  <SCORE.INTER.VDW>
-6.75862

>  <SCORE.INTER.norm>
0.408712

>  <SCORE.INTRA>
12.7954

>  <SCORE.INTRA.DIHEDRAL>
-0.504848

>  <SCORE.INTRA.DIHEDRAL.0>
28.2802

>  <SCORE.INTRA.POLAR>
0

>  <SCORE.INTRA.POLAR.0>
0

>  <SCORE.INTRA.REPUL>
0

>  <SCORE.INTRA.REPUL.0>
0

>  <SCORE.INTRA.SOLV>
14.4446

>  <SCORE.INTRA.SOLV.lig_0>
-101.981

>  <SCORE.INTRA.VDW>
5.82555

>  <SCORE.INTRA.VDW.0>
-5.72964

>  <SCORE.INTRA.norm>
0.319886

>  <SCORE.RESTR>
27.5325

>  <SCORE.RESTR.CAVITY>
27.5325

>  <SCORE.RESTR.norm>
0.688313

>  <SCORE.SYSTEM>
0

>  <SCORE.SYSTEM.CONST>
0

>  <SCORE.SYSTEM.DIHEDRAL>
0

>  <SCORE.SYSTEM.SOLV>
0

>  <SCORE.SYSTEM.norm>
0

>  <SCORE.heavy>
40

>  <SCORE.norm>
1.41691

>  <RMSD>
15.547

$$$$
ligand
 OpenBabel11021811513D
libRbt.so/2013.1/901 2013/11/27
 40 42  0  0  0  0  0  0  0  0999 V2000
    8.4235   -4.9693    4.0218 C   0  0  2  0  0  0  0  0  0  0  0  0
    9.5387   -5.8286    3.7372 O   0  0  0  0  0  0  0  0  0  0  0  0
    8.8528   -3.4570    3.9325 C   0  0  1  0  0  0  0  0  0  0  0  0
    9.8795   -3.0873    5.0425 C   0  0  2  0  0  0  0  0  0  0  0  0
    9.2032   -3.3574    6.4238 C   0  0  2  0  0  0  0  0  0  0  0  0
   10.1200   -3.0001    7.4803 O   0  0  0  0  0  0  0  0  0  0  0  0
    8.8208   -4.8997    6.5048 C   0  0  2  0  0  0  0  0  0  0  0  0
    7.8718   -5.2453    5.3867 O   0  0  0  0  0  0  0  0  0  0  0  0
    8.1331   -5.2623    7.8140 C   0  0  0  0  0  0  0  0  0  0  0  0
    9.1251   -5.4870    8.9121 N   0  0  0  0  0  0  0  0  0  0  0  0
    8.5832   -9.6615    5.6674 C   0  0  2  0  0  0  0  0  0  0  0  0
    8.5270  -11.0851    5.9050 N   0  0  0  0  0  0  0  0  0  0  0  0
    7.9020   -9.3294    4.2787 C   0  0  0  0  0  0  0  0  0  0  0  0
    7.9608   -7.7610    4.0002 C   0  0  2  0  0  0  0  0  0  0  0  0
    7.3058   -7.4489    2.7029 N   0  0  0  0  0  0  0  0  0  0  0  0
    9.4867   -7.2832    4.0072 C   0  0  2  0  0  0  0  0  0  0  0  0
   10.1250   -7.6391    5.4171 C   0  0  2  0  0  0  0  0  0  0  0  0
   11.4891   -7.2122    5.4347 O   0  0  0  0  0  0  0  0  0  0  0  0
   10.0563   -9.1949    5.6814 C   0  0  1  0  0  0  0  0  0  0  0  0
   10.6233   -9.5004    6.9798 O   0  0  0  0  0  0  0  0  0  0  0  0
   10.2872   -8.8713    8.1698 C   0  0  2  0  0  0  0  0  0  0  0  0
   10.8153   -9.7696    9.3442 C   0  0  2  0  0  0  0  0  0  0  0  0
   12.1882   -9.9525    9.2142 O   0  0  0  0  0  0  0  0  0  0  0  0
   10.0547  -11.1619    9.4098 C   0  0  1  0  0  0  0  0  0  0  0  0
   10.5642  -11.9958   10.5420 N   0  0  0  0  0  0  0  0  0  0  0  0
    8.4957  -10.8836    9.5630 C   0  0  2  0  0  0  0  0  0  0  0  0
    7.7644  -12.1135    9.6399 O   0  0  0  0  0  0  0  0  0  0  0  0
    8.0306  -10.0090    8.3352 C   0  0  2  0  0  0  0  0  0  0  0  0
    8.8145   -8.7052    8.2716 O   0  0  0  0  0  0  0  0  0  0  0  0
    6.5580   -9.6859    8.4224 C   0  0  0  0  0  0  0  0  0  0  0  0
    6.1461   -9.3243    9.7537 O   0  0  0  0  0  0  0  0  0  0  0  0
    9.4156   -3.2185    2.6094 O   0  0  0  0  0  0  0  0  0  0  0  0
   10.2084   -1.7584    4.9256 O   0  0  0  0  0  0  0  0  0  0  0  0
    9.4960  -11.9417    5.2613 C   0  0  0  0  0  0  0  0  0  0  0  0
   10.0769  -11.5521    4.2050 O   0  0  0  0  0  0  0  0  0  0  0  0
    9.7826  -13.3329    5.9054 C   0  0  2  0  0  0  0  0  0  0  0  0
   12.6139  -12.4858    8.4290 N   0  0  0  0  0  0  0  0  0  0  0  0
   10.5150  -13.1746    7.2737 C   0  0  0  0  0  0  0  0  0  0  0  0
   11.8382  -12.3982    7.1685 C   0  0  0  0  0  0  0  0  0  0  0  0
   10.5505  -14.0540    5.1924 O   0  0  0  0  0  0  0  0  0  0  0  0
  1  2  1  1  0  0  0
  1  3  1  0  0  0  0
  1  8  1  0  0  0  0
  3  4  1  0  0  0  0
  3 32  1  6  0  0  0
  4  5  1  0  0  0  0
  4 33  1  1  0  0  0
  5  6  1  1  0  0  0
  5  7  1  0  0  0  0
  7  8  1  0  0  0  0
  7  9  1  1  0  0  0
  9 10  1  0  0  0  0
 11 12  1  6  0  0  0
 11 13  1  0  0  0  0
 11 19  1  0  0  0  0
 12 34  1  0  0  0  0
 13 14  1  0  0  0  0
 14 15  1  6  0  0  0
 14 16  1  0  0  0  0
 16  2  1  1  0  0  0
 16 17  1  0  0  0  0
 17 18  1  6  0  0  0
 17 19  1  0  0  0  0
 19 20  1  1  0  0  0
 21 20  1  6  0  0  0
 21 22  1  0  0  0  0
 21 29  1  0  0  0  0
 22 23  1  6  0  0  0
 22 24  1  0  0  0  0
 24 25  1  1  0  0  0
 24 26  1  0  0  0  0
 26 27  1  6  0  0  0
 26 28  1  0  0  0  0
 28 29  1  0  0  0  0
 28 30  1  1  0  0  0
 30 31  1  0  0  0  0
 34 35  2  0  0  0  0
 36 34  1  6  0  0  0
 36 38  1  0  0  0  0
 36 40  1  0  0  0  0
 37 39  1  0  0  0  0
 38 39  1  0  0  0  0
M  END
>  <CHROM.1>
167.85484082,24.48735479,-82.16556526,80.20617849,-69.59707590,164.10326800
42.37011039,-68.40047215,-57.41114093,-169.60439029,9.41741919,-8.40353503
6.52687150,-2.54593123,-1.46054359,1.81287646

>  <Name>
ligand

>  <RI>
0

>  <Rbt.Current_Directory>
/home/itssahil/PROJECTS/Mol_Feturizer/New_Systems/rnas/4P20

>  <Rbt.Executable>
rbdock ($Id: //depot/dev/client3/rdock/2013.1/src/exe/rbdock.cxx#4 $)

>  <Rbt.Library>
libRbt.so (2013.1, Build901 2013/11/27)

>  <Rbt.Parameter_File>
/export/apps/rDock/src/rDock_2013.1_src/data/scripts/dock_solv.prm

>  <Rbt.Receptor>
prm/blind_docking_80.prm

>  <SCORE>
36.6243

>  <SCORE.INTER>
11.5231

>  <SCORE.INTER.CONST>
1

>  <SCORE.INTER.POLAR>
0

>  <SCORE.INTER.ROT>
10

>  <SCORE.INTER.SOLV>
22.7366

>  <SCORE.INTER.VDW>
-10.1635

>  <SCORE.INTER.norm>
0.288078

>  <SCORE.INTRA>
-0.21265

>  <SCORE.INTRA.DIHEDRAL>
-17.0949

>  <SCORE.INTRA.DIHEDRAL.0>
28.2802

>  <SCORE.INTRA.POLAR>
0

>  <SCORE.INTRA.POLAR.0>
0

>  <SCORE.INTRA.REPUL>
0

>  <SCORE.INTRA.REPUL.0>
0

>  <SCORE.INTRA.SOLV>
11.3924

>  <SCORE.INTRA.SOLV.lig_0>
-101.981

>  <SCORE.INTRA.VDW>
2.6386

>  <SCORE.INTRA.VDW.0>
-5.72964

>  <SCORE.INTRA.norm>
-0.00531625

>  <SCORE.RESTR>
25.3139

>  <SCORE.RESTR.CAVITY>
25.3139

>  <SCORE.RESTR.norm>
0.632847

>  <SCORE.SYSTEM>
0

>  <SCORE.SYSTEM.CONST>
0

>  <SCORE.SYSTEM.DIHEDRAL>
0

>  <SCORE.SYSTEM.SOLV>
0

>  <SCORE.SYSTEM.norm>
0

>  <SCORE.heavy>
40

>  <SCORE.norm>
0.915608

>  <RMSD>
15.585

$$$$
ligand
 OpenBabel11021811513D
libRbt.so/2013.1/901 2013/11/27
 40 42  0  0  0  0  0  0  0  0999 V2000
    8.5220   -5.0810    3.8187 C   0  0  2  0  0  0  0  0  0  0  0  0
    9.9241   -5.3764    3.9176 O   0  0  0  0  0  0  0  0  0  0  0  0
    8.2994   -3.6567    3.1854 C   0  0  1  0  0  0  0  0  0  0  0  0
    8.8365   -2.5279    4.1130 C   0  0  2  0  0  0  0  0  0  0  0  0
    8.0683   -2.6222    5.4692 C   0  0  2  0  0  0  0  0  0  0  0  0
    8.5236   -1.5709    6.3479 O   0  0  0  0  0  0  0  0  0  0  0  0
    8.3466   -4.0527    6.1078 C   0  0  2  0  0  0  0  0  0  0  0  0
    7.8703   -5.1285    5.1665 O   0  0  0  0  0  0  0  0  0  0  0  0
    7.6208   -4.2519    7.4314 C   0  0  0  0  0  0  0  0  0  0  0  0
    8.2151   -3.4092    8.5164 N   0  0  0  0  0  0  0  0  0  0  0  0
    9.9387   -9.2659    5.9672 C   0  0  2  0  0  0  0  0  0  0  0  0
   10.4361  -10.4582    6.6134 N   0  0  0  0  0  0  0  0  0  0  0  0
   10.4954   -9.1942    4.4881 C   0  0  0  0  0  0  0  0  0  0  0  0
    9.9584   -7.8800    3.7632 C   0  0  2  0  0  0  0  0  0  0  0  0
   10.4690   -7.8226    2.3684 N   0  0  0  0  0  0  0  0  0  0  0  0
   10.4146   -6.5956    4.5992 C   0  0  2  0  0  0  0  0  0  0  0  0
    9.8344   -6.7149    6.0726 C   0  0  2  0  0  0  0  0  0  0  0  0
   10.2339   -5.5686    6.8274 O   0  0  0  0  0  0  0  0  0  0  0  0
   10.3712   -8.0229    6.7770 C   0  0  1  0  0  0  0  0  0  0  0  0
    9.8164   -8.1276    8.1119 O   0  0  0  0  0  0  0  0  0  0  0  0
    8.4823   -7.9396    8.4429 C   0  0  2  0  0  0  0  0  0  0  0  0
    8.2352   -8.6431    9.8246 C   0  0  2  0  0  0  0  0  0  0  0  0
    9.0952   -8.1137   10.7813 O   0  0  0  0  0  0  0  0  0  0  0  0
    8.3934  -10.2196    9.7205 C   0  0  1  0  0  0  0  0  0  0  0  0
    8.1418  -10.8700   11.0435 N   0  0  0  0  0  0  0  0  0  0  0  0
    7.3827  -10.7610    8.6174 C   0  0  2  0  0  0  0  0  0  0  0  0
    7.4786  -12.1855    8.4947 O   0  0  0  0  0  0  0  0  0  0  0  0
    7.7118  -10.0387    7.2539 C   0  0  2  0  0  0  0  0  0  0  0  0
    7.6008   -8.5273    7.4017 O   0  0  0  0  0  0  0  0  0  0  0  0
    6.7752  -10.4892    6.1583 C   0  0  0  0  0  0  0  0  0  0  0  0
    7.0660   -9.8729    4.8901 O   0  0  0  0  0  0  0  0  0  0  0  0
    8.9680   -3.6220    1.8908 O   0  0  0  0  0  0  0  0  0  0  0  0
    8.6057   -1.3107    3.5192 O   0  0  0  0  0  0  0  0  0  0  0  0
   10.1249  -11.7473    6.0405 C   0  0  0  0  0  0  0  0  0  0  0  0
    9.1138  -11.8740    5.2878 O   0  0  0  0  0  0  0  0  0  0  0  0
   11.0621  -12.9452    6.3860 C   0  0  2  0  0  0  0  0  0  0  0  0
   12.0096  -11.0738    8.4975 N   0  0  0  0  0  0  0  0  0  0  0  0
   11.0048  -13.2781    7.9089 C   0  0  0  0  0  0  0  0  0  0  0  0
   10.9168  -12.0287    8.8013 C   0  0  0  0  0  0  0  0  0  0  0  0
   12.2852  -12.6972    6.1400 O   0  0  0  0  0  0  0  0  0  0  0  0
  1  2  1  1  0  0  0
  1  3  1  0  0  0  0
  1  8  1  0  0  0  0
  3  4  1  0  0  0  0
  3 32  1  6  0  0  0
  4  5  1  0  0  0  0
  4 33  1  6  0  0  0
  5  6  1  1  0  0  0
  5  7  1  0  0  0  0
  7  8  1  0  0  0  0
  7  9  1  1  0  0  0
  9 10  1  0  0  0  0
 11 12  1  1  0  0  0
 11 13  1  0  0  0  0
 11 19  1  0  0  0  0
 12 34  1  0  0  0  0
 13 14  1  0  0  0  0
 14 15  1  6  0  0  0
 14 16  1  0  0  0  0
 16  2  1  6  0  0  0
 16 17  1  0  0  0  0
 17 18  1  1  0  0  0
 17 19  1  0  0  0  0
 19 20  1  1  0  0  0
 21 20  1  6  0  0  0
 21 22  1  0  0  0  0
 21 29  1  0  0  0  0
 22 23  1  1  0  0  0
 22 24  1  0  0  0  0
 24 25  1  1  0  0  0
 24 26  1  0  0  0  0
 26 27  1  6  0  0  0
 26 28  1  0  0  0  0
 28 29  1  0  0  0  0
 28 30  1  6  0  0  0
 30 31  1  0  0  0  0
 34 35  2  0  0  0  0
 36 34  1  1  0  0  0
 36 38  1  0  0  0  0
 36 40  1  0  0  0  0
 37 39  1  0  0  0  0
 38 39  1  0  0  0  0
M  END
>  <CHROM.1>
173.90499296,66.53670769,-70.52003527,-59.62343100,-73.59795293,159.58620883
-178.65139517,64.40690993,-38.48975485,-53.63615913,9.15869632,-7.86193557
6.40862488,-1.87709134,-1.19301216,2.47643616

>  <Name>
ligand

>  <RI>
0

>  <Rbt.Current_Directory>
/home/itssahil/PROJECTS/Mol_Feturizer/New_Systems/rnas/4P20

>  <Rbt.Executable>
rbdock ($Id: //depot/dev/client3/rdock/2013.1/src/exe/rbdock.cxx#4 $)

>  <Rbt.Library>
libRbt.so (2013.1, Build901 2013/11/27)

>  <Rbt.Parameter_File>
/export/apps/rDock/src/rDock_2013.1_src/data/scripts/dock_solv.prm

>  <Rbt.Receptor>
prm/blind_docking_80.prm

>  <SCORE>
31.1485

>  <SCORE.INTER>
5.58746

>  <SCORE.INTER.CONST>
1

>  <SCORE.INTER.POLAR>
0

>  <SCORE.INTER.ROT>
10

>  <SCORE.INTER.SOLV>
20.443

>  <SCORE.INTER.VDW>
-13.356

>  <SCORE.INTER.norm>
0.139686

>  <SCORE.INTRA>
0.108048

>  <SCORE.INTRA.DIHEDRAL>
-22.3117

>  <SCORE.INTRA.DIHEDRAL.0>
28.2802

>  <SCORE.INTRA.POLAR>
0

>  <SCORE.INTRA.POLAR.0>
0

>  <SCORE.INTRA.REPUL>
0.136953

>  <SCORE.INTRA.REPUL.0>
0

>  <SCORE.INTRA.SOLV>
10.6971

>  <SCORE.INTRA.SOLV.lig_0>
-101.981

>  <SCORE.INTRA.VDW>
5.23056

>  <SCORE.INTRA.VDW.0>
-5.72964

>  <SCORE.INTRA.norm>
0.00270119

>  <SCORE.RESTR>
25.453

>  <SCORE.RESTR.CAVITY>
25.453

>  <SCORE.RESTR.norm>
0.636325

>  <SCORE.SYSTEM>
0

>  <SCORE.SYSTEM.CONST>
0

>  <SCORE.SYSTEM.DIHEDRAL>
0

>  <SCORE.SYSTEM.SOLV>
0

>  <SCORE.SYSTEM.norm>
0

>  <SCORE.heavy>
40

>  <SCORE.norm>
0.778712

>  <RMSD>
15.651

$$$$
ligand
 OpenBabel11021811513D
libRbt.so/2013.1/901 2013/11/27
 40 42  0  0  0  0  0  0  0  0999 V2000
   10.0017   -3.3701    5.2496 C   0  0  2  0  0  0  0  0  0  0  0  0
    9.3427   -3.5217    6.5168 O   0  0  0  0  0  0  0  0  0  0  0  0
    9.4246   -2.1295    4.4704 C   0  0  1  0  0  0  0  0  0  0  0  0
    7.9350   -2.3456    4.0735 C   0  0  2  0  0  0  0  0  0  0  0  0
    7.8652   -3.6126    3.1634 C   0  0  2  0  0  0  0  0  0  0  0  0
    6.4978   -3.8292    2.7537 O   0  0  0  0  0  0  0  0  0  0  0  0
    8.4117   -4.8576    3.9897 C   0  0  2  0  0  0  0  0  0  0  0  0
    9.8352   -4.5999    4.4110 O   0  0  0  0  0  0  0  0  0  0  0  0
    8.4034   -6.1456    3.1779 C   0  0  0  0  0  0  0  0  0  0  0  0
    9.5226   -6.1764    2.1844 N   0  0  0  0  0  0  0  0  0  0  0  0
    9.9591   -7.7800    7.4204 C   0  0  2  0  0  0  0  0  0  0  0  0
    9.9854   -9.0213    8.1586 N   0  0  0  0  0  0  0  0  0  0  0  0
   10.8869   -6.7181    8.1375 C   0  0  0  0  0  0  0  0  0  0  0  0
   10.8642   -5.3403    7.3363 C   0  0  2  0  0  0  0  0  0  0  0  0
   11.7491   -4.3488    8.0022 N   0  0  0  0  0  0  0  0  0  0  0  0
    9.3591   -4.8068    7.2516 C   0  0  2  0  0  0  0  0  0  0  0  0
    8.4697   -5.9053    6.5276 C   0  0  2  0  0  0  0  0  0  0  0  0
    7.1222   -5.4358    6.4437 O   0  0  0  0  0  0  0  0  0  0  0  0
    8.5047   -7.2656    7.3298 C   0  0  1  0  0  0  0  0  0  0  0  0
    7.7059   -8.2627    6.6455 O   0  0  0  0  0  0  0  0  0  0  0  0
    7.6933   -8.4778    5.2750 C   0  0  2  0  0  0  0  0  0  0  0  0
    7.2097   -9.9518    5.0330 C   0  0  2  0  0  0  0  0  0  0  0  0
    5.9557  -10.1344    5.6066 O   0  0  0  0  0  0  0  0  0  0  0  0
    8.2535  -11.0132    5.5854 C   0  0  1  0  0  0  0  0  0  0  0  0
    7.7795  -12.4092    5.3335 N   0  0  0  0  0  0  0  0  0  0  0  0
    9.6602  -10.7541    4.8887 C   0  0  2  0  0  0  0  0  0  0  0  0
   10.6363  -11.6983    5.3464 O   0  0  0  0  0  0  0  0  0  0  0  0
   10.0973   -9.2711    5.2026 C   0  0  2  0  0  0  0  0  0  0  0  0
    9.0514   -8.2821    4.7060 O   0  0  0  0  0  0  0  0  0  0  0  0
   11.4212   -8.9438    4.5538 C   0  0  0  0  0  0  0  0  0  0  0  0
   11.2840   -8.5623    3.1724 O   0  0  0  0  0  0  0  0  0  0  0  0
    9.5671   -0.9512    5.3161 O   0  0  0  0  0  0  0  0  0  0  0  0
    7.4882   -1.2421    3.3878 O   0  0  0  0  0  0  0  0  0  0  0  0
    8.9174   -9.3061    9.0888 C   0  0  0  0  0  0  0  0  0  0  0  0
    8.2376   -8.3550    9.5768 O   0  0  0  0  0  0  0  0  0  0  0  0
    8.6502  -10.7973    9.4592 C   0  0  2  0  0  0  0  0  0  0  0  0
   12.1114  -12.2277    8.4006 N   0  0  0  0  0  0  0  0  0  0  0  0
    9.9850  -11.6005    9.5409 C   0  0  0  0  0  0  0  0  0  0  0  0
   10.7918  -11.5733    8.2319 C   0  0  0  0  0  0  0  0  0  0  0  0
    7.9459  -11.4000    8.5881 O   0  0  0  0  0  0  0  0  0  0  0  0
  1  2  1  1  0  0  0
  1  3  1  0  0  0  0
  1  8  1  0  0  0  0
  3  4  1  0  0  0  0
  3 32  1  1  0  0  0
  4  5  1  0  0  0  0
  4 33  1  6  0  0  0
  5  6  1  1  0  0  0
  5  7  1  0  0  0  0
  7  8  1  0  0  0  0
  7  9  1  6  0  0  0
  9 10  1  0  0  0  0
 11 12  1  1  0  0  0
 11 13  1  0  0  0  0
 11 19  1  0  0  0  0
 12 34  1  0  0  0  0
 13 14  1  0  0  0  0
 14 15  1  1  0  0  0
 14 16  1  0  0  0  0
 16  2  1  6  0  0  0
 16 17  1  0  0  0  0
 17 18  1  1  0  0  0
 17 19  1  0  0  0  0
 19 20  1  6  0  0  0
 21 20  1  1  0  0  0
 21 22  1  0  0  0  0
 21 29  1  0  0  0  0
 22 23  1  1  0  0  0
 22 24  1  0  0  0  0
 24 25  1  6  0  0  0
 24 26  1  0  0  0  0
 26 27  1  1  0  0  0
 26 28  1  0  0  0  0
 28 29  1  0  0  0  0
 28 30  1  6  0  0  0
 30 31  1  0  0  0  0
 34 35  2  0  0  0  0
 36 34  1  6  0  0  0
 36 38  1  0  0  0  0
 36 40  1  0  0  0  0
 37 39  1  0  0  0  0
 38 39  1  0  0  0  0
M  END
>  <CHROM.1>
160.04073272,49.65882364,75.68066710,97.79353851,-77.41246544,156.67434589
82.81721426,36.29264903,-58.31620370,174.09733802,9.09410459,-7.28932111
5.96500161,-1.79784900,1.19447623,2.99357370

>  <Name>
ligand

>  <RI>
0

>  <Rbt.Current_Directory>
/home/itssahil/PROJECTS/Mol_Feturizer/New_Systems/rnas/4P20

>  <Rbt.Executable>
rbdock ($Id: //depot/dev/client3/rdock/2013.1/src/exe/rbdock.cxx#4 $)

>  <Rbt.Library>
libRbt.so (2013.1, Build901 2013/11/27)

>  <Rbt.Parameter_File>
/export/apps/rDock/src/rDock_2013.1_src/data/scripts/dock_solv.prm

>  <Rbt.Receptor>
prm/blind_docking_80.prm

>  <SCORE>
58.4328

>  <SCORE.INTER>
31.2735

>  <SCORE.INTER.CONST>
1

>  <SCORE.INTER.POLAR>
0

>  <SCORE.INTER.ROT>
10

>  <SCORE.INTER.SOLV>
22.1008

>  <SCORE.INTER.VDW>
3.21538

>  <SCORE.INTER.norm>
0.781836

>  <SCORE.INTRA>
2.82968

>  <SCORE.INTRA.DIHEDRAL>
-17.3427

>  <SCORE.INTRA.DIHEDRAL.0>
28.2802

>  <SCORE.INTRA.POLAR>
0

>  <SCORE.INTRA.POLAR.0>
0

>  <SCORE.INTRA.REPUL>
0

>  <SCORE.INTRA.REPUL.0>
0

>  <SCORE.INTRA.SOLV>
8.43272

>  <SCORE.INTRA.SOLV.lig_0>
-101.981

>  <SCORE.INTRA.VDW>
7.28469

>  <SCORE.INTRA.VDW.0>
-5.72964

>  <SCORE.INTRA.norm>
0.0707421

>  <SCORE.RESTR>
24.3297

>  <SCORE.RESTR.CAVITY>
24.3297

>  <SCORE.RESTR.norm>
0.608242

>  <SCORE.SYSTEM>
0

>  <SCORE.SYSTEM.CONST>
0

>  <SCORE.SYSTEM.DIHEDRAL>
0

>  <SCORE.SYSTEM.SOLV>
0

>  <SCORE.SYSTEM.norm>
0

>  <SCORE.heavy>
40

>  <SCORE.norm>
1.46082

>  <RMSD>
15.669

$$$$
ligand
 OpenBabel11021811513D
libRbt.so/2013.1/901 2013/11/27
 40 42  0  0  0  0  0  0  0  0999 V2000
    9.2103   -5.9113    4.1128 C   0  0  2  0  0  0  0  0  0  0  0  0
   10.5515   -6.3993    4.2736 O   0  0  0  0  0  0  0  0  0  0  0  0
    9.1755   -4.7142    3.0905 C   0  0  1  0  0  0  0  0  0  0  0  0
    9.9425   -3.4741    3.6353 C   0  0  2  0  0  0  0  0  0  0  0  0
    9.2577   -3.0410    4.9701 C   0  0  2  0  0  0  0  0  0  0  0  0
    9.9288   -1.8742    5.4922 O   0  0  0  0  0  0  0  0  0  0  0  0
    9.3468   -4.2518    5.9984 C   0  0  2  0  0  0  0  0  0  0  0  0
    8.6471   -5.4562    5.4240 O   0  0  0  0  0  0  0  0  0  0  0  0
    8.6851   -3.9342    7.3324 C   0  0  0  0  0  0  0  0  0  0  0  0
    7.5009   -4.8151    7.5821 N   0  0  0  0  0  0  0  0  0  0  0  0
   10.0182   -9.9572    6.8008 C   0  0  2  0  0  0  0  0  0  0  0  0
   10.3407  -11.0770    7.6543 N   0  0  0  0  0  0  0  0  0  0  0  0
   10.7445  -10.1287    5.4058 C   0  0  0  0  0  0  0  0  0  0  0  0
   10.4016   -8.8969    4.4540 C   0  0  2  0  0  0  0  0  0  0  0  0
   11.0715   -9.0678    3.1381 N   0  0  0  0  0  0  0  0  0  0  0  0
   10.8610   -7.5402    5.1647 C   0  0  2  0  0  0  0  0  0  0  0  0
   10.1082   -7.4150    6.5574 C   0  0  2  0  0  0  0  0  0  0  0  0
   10.5096   -6.2026    7.1993 O   0  0  0  0  0  0  0  0  0  0  0  0
   10.4537   -8.6436    7.4883 C   0  0  1  0  0  0  0  0  0  0  0  0
    9.7431   -8.5250    8.7459 O   0  0  0  0  0  0  0  0  0  0  0  0
    8.4411   -8.0686    8.8914 C   0  0  2  0  0  0  0  0  0  0  0  0
    7.6057   -9.2258    9.5457 C   0  0  2  0  0  0  0  0  0  0  0  0
    8.1765   -9.5870   10.7617 O   0  0  0  0  0  0  0  0  0  0  0  0
    7.4748  -10.4784    8.5786 C   0  0  1  0  0  0  0  0  0  0  0  0
    6.6656  -11.5627    9.2160 N   0  0  0  0  0  0  0  0  0  0  0  0
    6.8128  -10.0004    7.2131 C   0  0  2  0  0  0  0  0  0  0  0  0
    6.6610  -11.1013    6.3085 O   0  0  0  0  0  0  0  0  0  0  0  0
    7.7211   -8.8664    6.5982 C   0  0  2  0  0  0  0  0  0  0  0  0
    7.8678   -7.7038    7.5705 O   0  0  0  0  0  0  0  0  0  0  0  0
    7.1427   -8.3464    5.3038 C   0  0  0  0  0  0  0  0  0  0  0  0
    7.2269   -9.3046    4.2326 O   0  0  0  0  0  0  0  0  0  0  0  0
    9.7566   -5.1688    1.8336 O   0  0  0  0  0  0  0  0  0  0  0  0
    9.8694   -2.4594    2.7119 O   0  0  0  0  0  0  0  0  0  0  0  0
    9.8055  -12.3798    7.3331 C   0  0  0  0  0  0  0  0  0  0  0  0
    8.7604  -12.4733    6.6233 O   0  0  0  0  0  0  0  0  0  0  0  0
   10.5499  -13.6323    7.8895 C   0  0  2  0  0  0  0  0  0  0  0  0
   13.7766  -11.8118    9.0821 N   0  0  0  0  0  0  0  0  0  0  0  0
   11.7318  -13.2132    8.8174 C   0  0  0  0  0  0  0  0  0  0  0  0
   12.7498  -12.2909    8.1259 C   0  0  0  0  0  0  0  0  0  0  0  0
   11.0752  -14.3383    6.9710 O   0  0  0  0  0  0  0  0  0  0  0  0
  1  2  1  1  0  0  0
  1  3  1  0  0  0  0
  1  8  1  0  0  0  0
  3  4  1  0  0  0  0
  3 32  1  6  0  0  0
  4  5  1  0  0  0  0
  4 33  1  6  0  0  0
  5  6  1  1  0  0  0
  5  7  1  0  0  0  0
  7  8  1  0  0  0  0
  7  9  1  1  0  0  0
  9 10  1  0  0  0  0
 11 12  1  1  0  0  0
 11 13  1  0  0  0  0
 11 19  1  0  0  0  0
 12 34  1  0  0  0  0
 13 14  1  0  0  0  0
 14 15  1  6  0  0  0
 14 16  1  0  0  0  0
 16  2  1  6  0  0  0
 16 17  1  0  0  0  0
 17 18  1  1  0  0  0
 17 19  1  0  0  0  0
 19 20  1  1  0  0  0
 21 20  1  6  0  0  0
 21 22  1  0  0  0  0
 21 29  1  0  0  0  0
 22 23  1  1  0  0  0
 22 24  1  0  0  0  0
 24 25  1  1  0  0  0
 24 26  1  0  0  0  0
 26 27  1  6  0  0  0
 26 28  1  0  0  0  0
 28 29  1  0  0  0  0
 28 30  1  6  0  0  0
 30 31  1  0  0  0  0
 34 35  2  0  0  0  0
 36 34  1  6  0  0  0
 36 38  1  0  0  0  0
 36 40  1  0  0  0  0
 37 39  1  0  0  0  0
 38 39  1  0  0  0  0
M  END
>  <CHROM.1>
-178.97537361,75.54185007,115.56126951,-69.69300424,-80.95382562,119.93933816
-70.00034225,4.23007091,-56.96173404,174.30307285,9.40106108,-8.30835138
6.43399737,-1.65635481,-0.82410524,2.65206426

>  <Name>
ligand

>  <RI>
0

>  <Rbt.Current_Directory>
/home/itssahil/PROJECTS/Mol_Feturizer/New_Systems/rnas/4P20

>  <Rbt.Executable>
rbdock ($Id: //depot/dev/client3/rdock/2013.1/src/exe/rbdock.cxx#4 $)

>  <Rbt.Library>
libRbt.so (2013.1, Build901 2013/11/27)

>  <Rbt.Parameter_File>
/export/apps/rDock/src/rDock_2013.1_src/data/scripts/dock_solv.prm

>  <Rbt.Receptor>
prm/blind_docking_80.prm

>  <SCORE>
44.3391

>  <SCORE.INTER>
6.94491

>  <SCORE.INTER.CONST>
1

>  <SCORE.INTER.POLAR>
0

>  <SCORE.INTER.ROT>
10

>  <SCORE.INTER.SOLV>
25.9228

>  <SCORE.INTER.VDW>
-14.2777

>  <SCORE.INTER.norm>
0.173623

>  <SCORE.INTRA>
13.0263

>  <SCORE.INTRA.DIHEDRAL>
-9.75885

>  <SCORE.INTRA.DIHEDRAL.0>
28.2802

>  <SCORE.INTRA.POLAR>
0

>  <SCORE.INTRA.POLAR.0>
0

>  <SCORE.INTRA.REPUL>
0.469176

>  <SCORE.INTRA.REPUL.0>
0

>  <SCORE.INTRA.SOLV>
9.07288

>  <SCORE.INTRA.SOLV.lig_0>
-101.981

>  <SCORE.INTRA.VDW>
11.0234

>  <SCORE.INTRA.VDW.0>
-5.72964

>  <SCORE.INTRA.norm>
0.325657

>  <SCORE.RESTR>
24.3679

>  <SCORE.RESTR.CAVITY>
24.3679

>  <SCORE.RESTR.norm>
0.609198

>  <SCORE.SYSTEM>
0

>  <SCORE.SYSTEM.CONST>
0

>  <SCORE.SYSTEM.DIHEDRAL>
0

>  <SCORE.SYSTEM.SOLV>
0

>  <SCORE.SYSTEM.norm>
0

>  <SCORE.heavy>
40

>  <SCORE.norm>
1.10848

>  <RMSD>
15.684

$$$$
ligand
 OpenBabel11021811513D
libRbt.so/2013.1/901 2013/11/27
 40 42  0  0  0  0  0  0  0  0999 V2000
    8.4810   -4.9588    3.9317 C   0  0  2  0  0  0  0  0  0  0  0  0
    9.6752   -5.6396    3.5152 O   0  0  0  0  0  0  0  0  0  0  0  0
    8.7035   -3.4000    3.9312 C   0  0  1  0  0  0  0  0  0  0  0  0
    9.7493   -2.9711    5.0013 C   0  0  2  0  0  0  0  0  0  0  0  0
    9.2129   -3.4217    6.3969 C   0  0  2  0  0  0  0  0  0  0  0  0
   10.1479   -3.0162    7.4195 O   0  0  0  0  0  0  0  0  0  0  0  0
    9.0401   -5.0033    6.3839 C   0  0  2  0  0  0  0  0  0  0  0  0
    8.0674   -5.3973    5.3029 O   0  0  0  0  0  0  0  0  0  0  0  0
    8.4992   -5.5419    7.7013 C   0  0  0  0  0  0  0  0  0  0  0  0
    7.2484   -4.8307    8.1138 N   0  0  0  0  0  0  0  0  0  0  0  0
    9.1706   -9.6724    5.1919 C   0  0  2  0  0  0  0  0  0  0  0  0
    9.3589  -11.0892    5.4008 N   0  0  0  0  0  0  0  0  0  0  0  0
    8.7045   -9.4146    3.7023 C   0  0  0  0  0  0  0  0  0  0  0  0
    8.4970   -7.8536    3.4550 C   0  0  2  0  0  0  0  0  0  0  0  0
    8.0433   -7.6144    2.0599 N   0  0  0  0  0  0  0  0  0  0  0  0
    9.8678   -7.0874    3.7565 C   0  0  2  0  0  0  0  0  0  0  0  0
   10.2937   -7.3780    5.2585 C   0  0  2  0  0  0  0  0  0  0  0  0
   11.5170   -6.6939    5.5391 O   0  0  0  0  0  0  0  0  0  0  0  0
   10.4916   -8.9280    5.4900 C   0  0  1  0  0  0  0  0  0  0  0  0
   10.8592   -9.1779    6.8696 O   0  0  0  0  0  0  0  0  0  0  0  0
   10.2356   -8.6246    7.9785 C   0  0  2  0  0  0  0  0  0  0  0  0
   10.5416   -9.5553    9.2054 C   0  0  2  0  0  0  0  0  0  0  0  0
   11.9175   -9.6690    9.3765 O   0  0  0  0  0  0  0  0  0  0  0  0
    9.8632  -10.9822    9.0470 C   0  0  1  0  0  0  0  0  0  0  0  0
   10.1568  -11.8473   10.2312 N   0  0  0  0  0  0  0  0  0  0  0  0
    8.2958  -10.7829    8.8610 C   0  0  2  0  0  0  0  0  0  0  0  0
    7.6345  -12.0470    8.7263 O   0  0  0  0  0  0  0  0  0  0  0  0
    8.0642   -9.8703    7.5951 C   0  0  2  0  0  0  0  0  0  0  0  0
    8.7697   -8.5307    7.7573 O   0  0  0  0  0  0  0  0  0  0  0  0
    6.5929   -9.6191    7.3656 C   0  0  0  0  0  0  0  0  0  0  0  0
    6.2867   -9.3269    5.9895 O   0  0  0  0  0  0  0  0  0  0  0  0
    9.1359   -2.9999    2.5982 O   0  0  0  0  0  0  0  0  0  0  0  0
    9.8943   -1.6054    4.9657 O   0  0  0  0  0  0  0  0  0  0  0  0
   10.6685  -11.6609    5.1881 C   0  0  0  0  0  0  0  0  0  0  0  0
   11.4983  -11.0700    4.4349 O   0  0  0  0  0  0  0  0  0  0  0  0
   11.0033  -13.0053    5.9041 C   0  0  2  0  0  0  0  0  0  0  0  0
    7.3954  -13.9124    7.0459 N   0  0  0  0  0  0  0  0  0  0  0  0
    9.8356  -13.4456    6.8402 C   0  0  0  0  0  0  0  0  0  0  0  0
    8.5032  -13.6428    6.0981 C   0  0  0  0  0  0  0  0  0  0  0  0
   12.0253  -12.9184    6.6565 O   0  0  0  0  0  0  0  0  0  0  0  0
  1  2  1  1  0  0  0
  1  3  1  0  0  0  0
  1  8  1  0  0  0  0
  3  4  1  0  0  0  0
  3 32  1  6  0  0  0
  4  5  1  0  0  0  0
  4 33  1  1  0  0  0
  5  6  1  1  0  0  0
  5  7  1  0  0  0  0
  7  8  1  0  0  0  0
  7  9  1  1  0  0  0
  9 10  1  0  0  0  0
 11 12  1  6  0  0  0
 11 13  1  0  0  0  0
 11 19  1  0  0  0  0
 12 34  1  0  0  0  0
 13 14  1  0  0  0  0
 14 15  1  6  0  0  0
 14 16  1  0  0  0  0
 16  2  1  1  0  0  0
 16 17  1  0  0  0  0
 17 18  1  6  0  0  0
 17 19  1  0  0  0  0
 19 20  1  1  0  0  0
 21 20  1  6  0  0  0
 21 22  1  0  0  0  0
 21 29  1  0  0  0  0
 22 23  1  6  0  0  0
 22 24  1  0  0  0  0
 24 25  1  1  0  0  0
 24 26  1  0  0  0  0
 26 27  1  6  0  0  0
 26 28  1  0  0  0  0
 28 29  1  0  0  0  0
 28 30  1  1  0  0  0
 30 31  1  0  0  0  0
 34 35  2  0  0  0  0
 36 34  1  1  0  0  0
 36 38  1  0  0  0  0
 36 40  1  0  0  0  0
 37 39  1  0  0  0  0
 38 39  1  0  0  0  0
M  END
>  <CHROM.1>
163.80661200,41.56731829,52.37105332,92.13183129,-73.37807509,158.01160449
-154.46154393,-4.20384978,59.24851796,-173.70138139,9.36118048,-8.32470835
6.15942710,3.10517950,-1.52693695,1.24415296

>  <Name>
ligand

>  <RI>
0

>  <Rbt.Current_Directory>
/home/itssahil/PROJECTS/Mol_Feturizer/New_Systems/rnas/4P20

>  <Rbt.Executable>
rbdock ($Id: //depot/dev/client3/rdock/2013.1/src/exe/rbdock.cxx#4 $)

>  <Rbt.Library>
libRbt.so (2013.1, Build901 2013/11/27)

>  <Rbt.Parameter_File>
/export/apps/rDock/src/rDock_2013.1_src/data/scripts/dock_solv.prm

>  <Rbt.Receptor>
prm/blind_docking_80.prm

>  <SCORE>
32.0517

>  <SCORE.INTER>
8.29749

>  <SCORE.INTER.CONST>
1

>  <SCORE.INTER.POLAR>
0

>  <SCORE.INTER.ROT>
10

>  <SCORE.INTER.SOLV>
23.5238

>  <SCORE.INTER.VDW>
-12.5763

>  <SCORE.INTER.norm>
0.207437

>  <SCORE.INTRA>
-0.263933

>  <SCORE.INTRA.DIHEDRAL>
-17.0219

>  <SCORE.INTRA.DIHEDRAL.0>
28.2802

>  <SCORE.INTRA.POLAR>
0

>  <SCORE.INTRA.POLAR.0>
0

>  <SCORE.INTRA.REPUL>
0

>  <SCORE.INTRA.REPUL.0>
0

>  <SCORE.INTRA.SOLV>
8.0511

>  <SCORE.INTRA.SOLV.lig_0>
-101.981

>  <SCORE.INTRA.VDW>
4.22145

>  <SCORE.INTRA.VDW.0>
-5.72964

>  <SCORE.INTRA.norm>
-0.00659832

>  <SCORE.RESTR>
24.0182

>  <SCORE.RESTR.CAVITY>
24.0182

>  <SCORE.RESTR.norm>
0.600454

>  <SCORE.SYSTEM>
0

>  <SCORE.SYSTEM.CONST>
0

>  <SCORE.SYSTEM.DIHEDRAL>
0

>  <SCORE.SYSTEM.SOLV>
0

>  <SCORE.SYSTEM.norm>
0

>  <SCORE.heavy>
40

>  <SCORE.norm>
0.801293

>  <RMSD>
15.698

$$$$
ligand
 OpenBabel11021811513D
libRbt.so/2013.1/901 2013/11/27
 40 42  0  0  0  0  0  0  0  0999 V2000
    8.5942   -5.0694    3.8983 C   0  0  2  0  0  0  0  0  0  0  0  0
    9.8518   -5.7119    3.6360 O   0  0  0  0  0  0  0  0  0  0  0  0
    8.7530   -3.5034    3.8560 C   0  0  1  0  0  0  0  0  0  0  0  0
    9.6629   -2.9894    5.0096 C   0  0  2  0  0  0  0  0  0  0  0  0
    9.0015   -3.4110    6.3599 C   0  0  2  0  0  0  0  0  0  0  0  0
    9.8072   -2.9270    7.4558 O   0  0  0  0  0  0  0  0  0  0  0  0
    8.8944   -4.9981    6.3949 C   0  0  2  0  0  0  0  0  0  0  0  0
    8.0569   -5.4745    5.2365 O   0  0  0  0  0  0  0  0  0  0  0  0
    8.2402   -5.5107    7.6706 C   0  0  0  0  0  0  0  0  0  0  0  0
    9.1272   -5.3142    8.8603 N   0  0  0  0  0  0  0  0  0  0  0  0
    9.3507   -9.7040    5.4086 C   0  0  2  0  0  0  0  0  0  0  0  0
    9.5657  -11.1068    5.6775 N   0  0  0  0  0  0  0  0  0  0  0  0
    8.9820   -9.5080    3.8827 C   0  0  0  0  0  0  0  0  0  0  0  0
    8.7464   -7.9629    3.5695 C   0  0  2  0  0  0  0  0  0  0  0  0
    8.3840   -7.7823    2.1393 N   0  0  0  0  0  0  0  0  0  0  0  0
   10.0697   -7.1446    3.9384 C   0  0  2  0  0  0  0  0  0  0  0  0
   10.3983   -7.3741    5.4750 C   0  0  2  0  0  0  0  0  0  0  0  0
   11.5784   -6.6430    5.8157 O   0  0  0  0  0  0  0  0  0  0  0  0
   10.6252   -8.9090    5.7715 C   0  0  1  0  0  0  0  0  0  0  0  0
   10.9031   -9.1035    7.1806 O   0  0  0  0  0  0  0  0  0  0  0  0
   10.2451   -8.4671    8.2232 C   0  0  2  0  0  0  0  0  0  0  0  0
   10.5606   -9.2654    9.5378 C   0  0  2  0  0  0  0  0  0  0  0  0
   11.9365   -9.3173    9.7365 O   0  0  0  0  0  0  0  0  0  0  0  0
    9.9297  -10.7223    9.5090 C   0  0  1  0  0  0  0  0  0  0  0  0
   10.2314  -11.4599   10.7746 N   0  0  0  0  0  0  0  0  0  0  0  0
    8.3599  -10.5928    9.2847 C   0  0  2  0  0  0  0  0  0  0  0  0
    7.7406  -11.8849    9.2640 O   0  0  0  0  0  0  0  0  0  0  0  0
    8.1199   -9.8139    7.9339 C   0  0  2  0  0  0  0  0  0  0  0  0
    8.7807   -8.4427    7.9753 O   0  0  0  0  0  0  0  0  0  0  0  0
    6.6453   -9.6339    7.6627 C   0  0  0  0  0  0  0  0  0  0  0  0
    6.3717   -9.2687    6.2972 O   0  0  0  0  0  0  0  0  0  0  0  0
    9.3065   -3.1345    2.5593 O   0  0  0  0  0  0  0  0  0  0  0  0
    9.7561   -1.6208    4.9324 O   0  0  0  0  0  0  0  0  0  0  0  0
   10.8571  -11.6858    5.3878 C   0  0  0  0  0  0  0  0  0  0  0  0
   11.6174  -11.1348    4.5375 O   0  0  0  0  0  0  0  0  0  0  0  0
   11.2596  -12.9884    6.1453 C   0  0  2  0  0  0  0  0  0  0  0  0
    8.5164  -14.3939    6.5436 N   0  0  0  0  0  0  0  0  0  0  0  0
   10.4553  -13.1331    7.4741 C   0  0  0  0  0  0  0  0  0  0  0  0
    8.9325  -13.1657    7.2623 C   0  0  0  0  0  0  0  0  0  0  0  0
   12.4843  -12.9969    6.4888 O   0  0  0  0  0  0  0  0  0  0  0  0
  1  2  1  1  0  0  0
  1  3  1  0  0  0  0
  1  8  1  0  0  0  0
  3  4  1  0  0  0  0
  3 32  1  6  0  0  0
  4  5  1  0  0  0  0
  4 33  1  1  0  0  0
  5  6  1  1  0  0  0
  5  7  1  0  0  0  0
  7  8  1  0  0  0  0
  7  9  1  1  0  0  0
  9 10  1  0  0  0  0
 11 12  1  6  0  0  0
 11 13  1  0  0  0  0
 11 19  1  0  0  0  0
 12 34  1  0  0  0  0
 13 14  1  0  0  0  0
 14 15  1  6  0  0  0
 14 16  1  0  0  0  0
 16  2  1  1  0  0  0
 16 17  1  0  0  0  0
 17 18  1  6  0  0  0
 17 19  1  0  0  0  0
 19 20  1  1  0  0  0
 21 20  1  6  0  0  0
 21 22  1  0  0  0  0
 21 29  1  0  0  0  0
 22 23  1  6  0  0  0
 22 24  1  0  0  0  0
 24 25  1  1  0  0  0
 24 26  1  0  0  0  0
 26 27  1  6  0  0  0
 26 28  1  0  0  0  0
 28 29  1  0  0  0  0
 28 30  1  1  0  0  0
 30 31  1  0  0  0  0
 34 35  2  0  0  0  0
 36 34  1  1  0  0  0
 36 38  1  0  0  0  0
 36 40  1  0  0  0  0
 37 39  1  0  0  0  0
 38 39  1  0  0  0  0
M  END
>  <CHROM.1>
164.66975140,39.09150041,-69.98940803,83.19391039,-77.90393397,163.72326102
-163.97369037,-22.52680319,58.64884624,66.99986407,9.52777301,-8.30102897
6.36954880,-2.37948874,-1.46857065,2.00240495

>  <Name>
ligand

>  <RI>
0

>  <Rbt.Current_Directory>
/home/itssahil/PROJECTS/Mol_Feturizer/New_Systems/rnas/4P20

>  <Rbt.Executable>
rbdock ($Id: //depot/dev/client3/rdock/2013.1/src/exe/rbdock.cxx#4 $)

>  <Rbt.Library>
libRbt.so (2013.1, Build901 2013/11/27)

>  <Rbt.Parameter_File>
/export/apps/rDock/src/rDock_2013.1_src/data/scripts/dock_solv.prm

>  <Rbt.Receptor>
prm/blind_docking_80.prm

>  <SCORE>
30.6898

>  <SCORE.INTER>
7.69456

>  <SCORE.INTER.CONST>
1

>  <SCORE.INTER.POLAR>
0

>  <SCORE.INTER.ROT>
10

>  <SCORE.INTER.SOLV>
18.9437

>  <SCORE.INTER.VDW>
-11.4515

>  <SCORE.INTER.norm>
0.192364

>  <SCORE.INTRA>
-2.46095

>  <SCORE.INTRA.DIHEDRAL>
-18.7512

>  <SCORE.INTRA.DIHEDRAL.0>
28.2802

>  <SCORE.INTRA.POLAR>
0

>  <SCORE.INTRA.POLAR.0>
0

>  <SCORE.INTRA.REPUL>
0

>  <SCORE.INTRA.REPUL.0>
0

>  <SCORE.INTRA.SOLV>
8.38603

>  <SCORE.INTRA.SOLV.lig_0>
-101.981

>  <SCORE.INTRA.VDW>
2.72161

>  <SCORE.INTRA.VDW.0>
-5.72964

>  <SCORE.INTRA.norm>
-0.0615238

>  <SCORE.RESTR>
25.4562

>  <SCORE.RESTR.CAVITY>
25.4562

>  <SCORE.RESTR.norm>
0.636405

>  <SCORE.SYSTEM>
0

>  <SCORE.SYSTEM.CONST>
0

>  <SCORE.SYSTEM.DIHEDRAL>
0

>  <SCORE.SYSTEM.SOLV>
0

>  <SCORE.SYSTEM.norm>
0

>  <SCORE.heavy>
40

>  <SCORE.norm>
0.767245

>  <RMSD>
15.713

$$$$
ligand
 OpenBabel11021811513D
libRbt.so/2013.1/901 2013/11/27
 40 42  0  0  0  0  0  0  0  0999 V2000
    8.3595   -3.8508    5.6513 C   0  0  2  0  0  0  0  0  0  0  0  0
    9.3469   -4.5369    6.4370 O   0  0  0  0  0  0  0  0  0  0  0  0
    8.1796   -4.5520    4.2529 C   0  0  1  0  0  0  0  0  0  0  0  0
    9.4671   -4.4373    3.3857 C   0  0  2  0  0  0  0  0  0  0  0  0
    9.7636   -2.9189    3.1743 C   0  0  2  0  0  0  0  0  0  0  0  0
   10.9400   -2.7741    2.3500 O   0  0  0  0  0  0  0  0  0  0  0  0
    9.9851   -2.2454    4.5987 C   0  0  2  0  0  0  0  0  0  0  0  0
    8.7466   -2.4196    5.4389 O   0  0  0  0  0  0  0  0  0  0  0  0
   10.2624   -0.7515    4.5009 C   0  0  0  0  0  0  0  0  0  0  0  0
    9.0797   -0.0069    3.9648 N   0  0  0  0  0  0  0  0  0  0  0  0
   10.4976   -8.6055    7.6422 C   0  0  2  0  0  0  0  0  0  0  0  0
   10.4157  -10.0309    7.8612 N   0  0  0  0  0  0  0  0  0  0  0  0
    9.3491   -7.8788    8.4519 C   0  0  0  0  0  0  0  0  0  0  0  0
    9.4237   -6.3041    8.2159 C   0  0  2  0  0  0  0  0  0  0  0  0
    8.3543   -5.6214    8.9903 N   0  0  0  0  0  0  0  0  0  0  0  0
    9.2885   -6.0005    6.6518 C   0  0  2  0  0  0  0  0  0  0  0  0
   10.4590   -6.7509    5.8846 C   0  0  2  0  0  0  0  0  0  0  0  0
   10.3490   -6.4825    4.4849 O   0  0  0  0  0  0  0  0  0  0  0  0
   10.3751   -8.3090    6.1305 C   0  0  1  0  0  0  0  0  0  0  0  0
   11.4615   -8.9765    5.4414 O   0  0  0  0  0  0  0  0  0  0  0  0
   11.3132   -9.9411    4.4553 C   0  0  2  0  0  0  0  0  0  0  0  0
   10.1516   -9.4733    3.5083 C   0  0  2  0  0  0  0  0  0  0  0  0
   10.4517   -8.2217    2.9804 O   0  0  0  0  0  0  0  0  0  0  0  0
    8.7506   -9.4600    4.2555 C   0  0  1  0  0  0  0  0  0  0  0  0
    7.6574   -9.0238    3.3327 N   0  0  0  0  0  0  0  0  0  0  0  0
    8.4656  -10.9163    4.8291 C   0  0  2  0  0  0  0  0  0  0  0  0
    7.2021  -10.9593    5.5037 O   0  0  0  0  0  0  0  0  0  0  0  0
    9.6513  -11.3038    5.7951 C   0  0  2  0  0  0  0  0  0  0  0  0
   10.9846  -11.2570    5.0610 O   0  0  0  0  0  0  0  0  0  0  0  0
    9.4598  -12.6889    6.3654 C   0  0  0  0  0  0  0  0  0  0  0  0
    8.2158  -12.8302    7.0764 O   0  0  0  0  0  0  0  0  0  0  0  0
    7.8353   -5.9493    4.4826 O   0  0  0  0  0  0  0  0  0  0  0  0
    9.2505   -5.0526    2.1765 O   0  0  0  0  0  0  0  0  0  0  0  0
   10.5376  -10.5410    9.2073 C   0  0  0  0  0  0  0  0  0  0  0  0
   11.1278   -9.8511   10.0908 O   0  0  0  0  0  0  0  0  0  0  0  0
    9.9305  -11.9446    9.5138 C   0  0  2  0  0  0  0  0  0  0  0  0
    6.3240  -10.5304    9.4919 N   0  0  0  0  0  0  0  0  0  0  0  0
    8.4160  -11.8324    9.8703 C   0  0  0  0  0  0  0  0  0  0  0  0
    7.6323  -10.9191    8.9128 C   0  0  0  0  0  0  0  0  0  0  0  0
   10.4737  -12.5045   10.5186 O   0  0  0  0  0  0  0  0  0  0  0  0
  1  2  1  1  0  0  0
  1  3  1  0  0  0  0
  1  8  1  0  0  0  0
  3  4  1  0  0  0  0
  3 32  1  1  0  0  0
  4  5  1  0  0  0  0
  4 33  1  6  0  0  0
  5  6  1  6  0  0  0
  5  7  1  0  0  0  0
  7  8  1  0  0  0  0
  7  9  1  6  0  0  0
  9 10  1  0  0  0  0
 11 12  1  6  0  0  0
 11 13  1  0  0  0  0
 11 19  1  0  0  0  0
 12 34  1  0  0  0  0
 13 14  1  0  0  0  0
 14 15  1  1  0  0  0
 14 16  1  0  0  0  0
 16  2  1  1  0  0  0
 16 17  1  0  0  0  0
 17 18  1  6  0  0  0
 17 19  1  0  0  0  0
 19 20  1  6  0  0  0
 21 20  1  1  0  0  0
 21 22  1  0  0  0  0
 21 29  1  0  0  0  0
 22 23  1  1  0  0  0
 22 24  1  0  0  0  0
 24 25  1  6  0  0  0
 24 26  1  0  0  0  0
 26 27  1  1  0  0  0
 26 28  1  0  0  0  0
 28 29  1  0  0  0  0
 28 30  1  6  0  0  0
 30 31  1  0  0  0  0
 34 35  2  0  0  0  0
 36 34  1  1  0  0  0
 36 38  1  0  0  0  0
 36 40  1  0  0  0  0
 37 39  1  0  0  0  0
 38 39  1  0  0  0  0
M  END
>  <CHROM.1>
-51.12205321,-129.57741163,65.17364504,-59.71275953,120.00133787,41.95254091
-57.48759565,-85.68869011,45.60683418,-163.67793634,9.45193699,-7.72310172
6.00521382,1.32675868,1.48968142,-0.19803058

>  <Name>
ligand

>  <RI>
0

>  <Rbt.Current_Directory>
/home/itssahil/PROJECTS/Mol_Feturizer/New_Systems/rnas/4P20

>  <Rbt.Executable>
rbdock ($Id: //depot/dev/client3/rdock/2013.1/src/exe/rbdock.cxx#4 $)

>  <Rbt.Library>
libRbt.so (2013.1, Build901 2013/11/27)

>  <Rbt.Parameter_File>
/export/apps/rDock/src/rDock_2013.1_src/data/scripts/dock_solv.prm

>  <Rbt.Receptor>
prm/blind_docking_80.prm

>  <SCORE>
43.3083

>  <SCORE.INTER>
7.59144

>  <SCORE.INTER.CONST>
1

>  <SCORE.INTER.POLAR>
0

>  <SCORE.INTER.ROT>
10

>  <SCORE.INTER.SOLV>
20.8435

>  <SCORE.INTER.VDW>
-12.1536

>  <SCORE.INTER.norm>
0.189786

>  <SCORE.INTRA>
7.77707

>  <SCORE.INTRA.DIHEDRAL>
-9.22313

>  <SCORE.INTRA.DIHEDRAL.0>
28.2802

>  <SCORE.INTRA.POLAR>
0

>  <SCORE.INTRA.POLAR.0>
0

>  <SCORE.INTRA.REPUL>
0

>  <SCORE.INTRA.REPUL.0>
0

>  <SCORE.INTRA.SOLV>
7.36632

>  <SCORE.INTRA.SOLV.lig_0>
-101.981

>  <SCORE.INTRA.VDW>
8.70548

>  <SCORE.INTRA.VDW.0>
-5.72964

>  <SCORE.INTRA.norm>
0.194427

>  <SCORE.RESTR>
27.9398

>  <SCORE.RESTR.CAVITY>
27.9398

>  <SCORE.RESTR.norm>
0.698496

>  <SCORE.SYSTEM>
0

>  <SCORE.SYSTEM.CONST>
0

>  <SCORE.SYSTEM.DIHEDRAL>
0

>  <SCORE.SYSTEM.SOLV>
0

>  <SCORE.SYSTEM.norm>
0

>  <SCORE.heavy>
40

>  <SCORE.norm>
1.08271

>  <RMSD>
15.736

$$$$
ligand
 OpenBabel11021811513D
libRbt.so/2013.1/901 2013/11/27
 40 42  0  0  0  0  0  0  0  0999 V2000
    8.6064   -4.8405    4.1474 C   0  0  2  0  0  0  0  0  0  0  0  0
    9.8204   -5.4732    3.7127 O   0  0  0  0  0  0  0  0  0  0  0  0
    8.6848   -3.2831    3.9290 C   0  0  1  0  0  0  0  0  0  0  0  0
    9.7700   -2.6322    4.8354 C   0  0  2  0  0  0  0  0  0  0  0  0
    9.3912   -2.9328    6.3201 C   0  0  2  0  0  0  0  0  0  0  0  0
   10.3646   -2.3203    7.1929 O   0  0  0  0  0  0  0  0  0  0  0  0
    9.3631   -4.5106    6.5237 C   0  0  2  0  0  0  0  0  0  0  0  0
    8.3465   -5.1226    5.5953 O   0  0  0  0  0  0  0  0  0  0  0  0
    8.9816   -4.9090    7.9428 C   0  0  0  0  0  0  0  0  0  0  0  0
    7.8906   -5.9338    7.9515 N   0  0  0  0  0  0  0  0  0  0  0  0
    9.4013   -9.5439    5.3201 C   0  0  2  0  0  0  0  0  0  0  0  0
    9.6766  -10.9395    5.5710 N   0  0  0  0  0  0  0  0  0  0  0  0
    9.1695   -9.3204    3.7712 C   0  0  0  0  0  0  0  0  0  0  0  0
    8.8691   -7.7827    3.4779 C   0  0  2  0  0  0  0  0  0  0  0  0
    8.6354   -7.5772    2.0245 N   0  0  0  0  0  0  0  0  0  0  0  0
   10.0972   -6.8996    3.9965 C   0  0  2  0  0  0  0  0  0  0  0  0
   10.2902   -7.1593    5.5512 C   0  0  2  0  0  0  0  0  0  0  0  0
   11.3842   -6.3709    6.0254 O   0  0  0  0  0  0  0  0  0  0  0  0
   10.5830   -8.6868    5.8273 C   0  0  1  0  0  0  0  0  0  0  0  0
   10.7357   -8.9105    7.2511 O   0  0  0  0  0  0  0  0  0  0  0  0
    9.8890   -8.4211    8.2352 C   0  0  2  0  0  0  0  0  0  0  0  0
   10.0193   -9.3657    9.4825 C   0  0  2  0  0  0  0  0  0  0  0  0
   11.3450   -9.4093    9.9017 O   0  0  0  0  0  0  0  0  0  0  0  0
    9.4651  -10.8226    9.1795 C   0  0  1  0  0  0  0  0  0  0  0  0
    9.5872  -11.7013   10.3836 N   0  0  0  0  0  0  0  0  0  0  0  0
    7.9491  -10.7035    8.7117 C   0  0  2  0  0  0  0  0  0  0  0  0
    7.3980  -11.9975    8.4377 O   0  0  0  0  0  0  0  0  0  0  0  0
    7.9001   -9.7719    7.4394 C   0  0  2  0  0  0  0  0  0  0  0  0
    8.4853   -8.4008    7.7497 O   0  0  0  0  0  0  0  0  0  0  0  0
    6.4834   -9.5947    6.9474 C   0  0  0  0  0  0  0  0  0  0  0  0
    6.1151  -10.5669    5.9514 O   0  0  0  0  0  0  0  0  0  0  0  0
    8.9700   -3.0322    2.5219 O   0  0  0  0  0  0  0  0  0  0  0  0
    9.7862   -1.2764    4.6138 O   0  0  0  0  0  0  0  0  0  0  0  0
   10.9853  -11.4634    5.2550 C   0  0  0  0  0  0  0  0  0  0  0  0
   11.7091  -10.8740    4.3984 O   0  0  0  0  0  0  0  0  0  0  0  0
   11.4518  -12.7561    5.9924 C   0  0  2  0  0  0  0  0  0  0  0  0
    8.0788  -12.7328    6.0074 N   0  0  0  0  0  0  0  0  0  0  0  0
   10.3184  -13.8277    6.0123 C   0  0  0  0  0  0  0  0  0  0  0  0
    9.0979  -13.4062    6.8476 C   0  0  0  0  0  0  0  0  0  0  0  0
   11.7403  -12.5465    7.2135 O   0  0  0  0  0  0  0  0  0  0  0  0
  1  2  1  1  0  0  0
  1  3  1  0  0  0  0
  1  8  1  0  0  0  0
  3  4  1  0  0  0  0
  3 32  1  6  0  0  0
  4  5  1  0  0  0  0
  4 33  1  1  0  0  0
  5  6  1  1  0  0  0
  5  7  1  0  0  0  0
  7  8  1  0  0  0  0
  7  9  1  1  0  0  0
  9 10  1  0  0  0  0
 11 12  1  6  0  0  0
 11 13  1  0  0  0  0
 11 19  1  0  0  0  0
 12 34  1  0  0  0  0
 13 14  1  0  0  0  0
 14 15  1  6  0  0  0
 14 16  1  0  0  0  0
 16  2  1  1  0  0  0
 16 17  1  0  0  0  0
 17 18  1  6  0  0  0
 17 19  1  0  0  0  0
 19 20  1  1  0  0  0
 21 20  1  6  0  0  0
 21 22  1  0  0  0  0
 21 29  1  0  0  0  0
 22 23  1  6  0  0  0
 22 24  1  0  0  0  0
 24 25  1  1  0  0  0
 24 26  1  0  0  0  0
 26 27  1  6  0  0  0
 26 28  1  0  0  0  0
 28 29  1  0  0  0  0
 28 30  1  1  0  0  0
 30 31  1  0  0  0  0
 34 35  2  0  0  0  0
 36 34  1  1  0  0  0
 36 38  1  0  0  0  0
 36 40  1  0  0  0  0
 37 39  1  0  0  0  0
 38 39  1  0  0  0  0
M  END
>  <CHROM.1>
170.36340715,53.49663081,129.96006774,76.49704222,-73.35975399,155.51835460
-91.84561531,45.38842443,-65.97000934,92.47966188,9.42663429,-8.16761045
6.20974878,-1.95590804,-1.52662235,2.47404857

>  <Name>
ligand

>  <RI>
0

>  <Rbt.Current_Directory>
/home/itssahil/PROJECTS/Mol_Feturizer/New_Systems/rnas/4P20

>  <Rbt.Executable>
rbdock ($Id: //depot/dev/client3/rdock/2013.1/src/exe/rbdock.cxx#4 $)

>  <Rbt.Library>
libRbt.so (2013.1, Build901 2013/11/27)

>  <Rbt.Parameter_File>
/export/apps/rDock/src/rDock_2013.1_src/data/scripts/dock_solv.prm

>  <Rbt.Receptor>
prm/blind_docking_80.prm

>  <SCORE>
41.1342

>  <SCORE.INTER>
9.28107

>  <SCORE.INTER.CONST>
1

>  <SCORE.INTER.POLAR>
0

>  <SCORE.INTER.ROT>
10

>  <SCORE.INTER.SOLV>
21.4391

>  <SCORE.INTER.VDW>
-11.2256

>  <SCORE.INTER.norm>
0.232027

>  <SCORE.INTRA>
8.01716

>  <SCORE.INTRA.DIHEDRAL>
-11.9121

>  <SCORE.INTRA.DIHEDRAL.0>
28.2802

>  <SCORE.INTRA.POLAR>
0

>  <SCORE.INTRA.POLAR.0>
0

>  <SCORE.INTRA.REPUL>
0.0962835

>  <SCORE.INTRA.REPUL.0>
0

>  <SCORE.INTRA.SOLV>
15.8718

>  <SCORE.INTRA.SOLV.lig_0>
-101.981

>  <SCORE.INTRA.VDW>
5.5559

>  <SCORE.INTRA.VDW.0>
-5.72964

>  <SCORE.INTRA.norm>
0.200429

>  <SCORE.RESTR>
23.836

>  <SCORE.RESTR.CAVITY>
23.836

>  <SCORE.RESTR.norm>
0.5959

>  <SCORE.SYSTEM>
0

>  <SCORE.SYSTEM.CONST>
0

>  <SCORE.SYSTEM.DIHEDRAL>
0

>  <SCORE.SYSTEM.SOLV>
0

>  <SCORE.SYSTEM.norm>
0

>  <SCORE.heavy>
40

>  <SCORE.norm>
1.02836

>  <RMSD>
15.742

$$$$
ligand
 OpenBabel11021811513D
libRbt.so/2013.1/901 2013/11/27
 40 42  0  0  0  0  0  0  0  0999 V2000
    8.6031   -5.5956    3.5192 C   0  0  2  0  0  0  0  0  0  0  0  0
    9.9756   -6.0114    3.4392 O   0  0  0  0  0  0  0  0  0  0  0  0
    8.4557   -4.0874    3.0914 C   0  0  1  0  0  0  0  0  0  0  0  0
    9.1747   -3.1361    4.0918 C   0  0  2  0  0  0  0  0  0  0  0  0
    8.5262   -3.3463    5.4966 C   0  0  2  0  0  0  0  0  0  0  0  0
    9.1527   -2.4586    6.4475 O   0  0  0  0  0  0  0  0  0  0  0  0
    8.7288   -4.8657    5.9232 C   0  0  2  0  0  0  0  0  0  0  0  0
    8.0736   -5.7676    4.9097 O   0  0  0  0  0  0  0  0  0  0  0  0
    8.1097   -5.1786    7.2786 C   0  0  0  0  0  0  0  0  0  0  0  0
    8.7934   -4.4315    8.3808 N   0  0  0  0  0  0  0  0  0  0  0  0
    9.9545   -9.7845    5.6960 C   0  0  2  0  0  0  0  0  0  0  0  0
   10.4236  -11.0185    6.2823 N   0  0  0  0  0  0  0  0  0  0  0  0
   10.1158   -9.8506    4.1237 C   0  0  0  0  0  0  0  0  0  0  0  0
    9.6063   -8.4926    3.4625 C   0  0  2  0  0  0  0  0  0  0  0  0
    9.7432   -8.5629    1.9841 N   0  0  0  0  0  0  0  0  0  0  0  0
   10.4433   -7.2697    4.0633 C   0  0  2  0  0  0  0  0  0  0  0  0
   10.2511   -7.2470    5.6395 C   0  0  2  0  0  0  0  0  0  0  0  0
   10.9930   -6.1542    6.1858 O   0  0  0  0  0  0  0  0  0  0  0  0
   10.7561   -8.5995    6.2804 C   0  0  1  0  0  0  0  0  0  0  0  0
   10.5546   -8.5710    7.7154 O   0  0  0  0  0  0  0  0  0  0  0  0
    9.4894   -7.9630    8.3638 C   0  0  2  0  0  0  0  0  0  0  0  0
    9.2556   -8.7333    9.7118 C   0  0  2  0  0  0  0  0  0  0  0  0
   10.4192   -8.7096   10.4737 O   0  0  0  0  0  0  0  0  0  0  0  0
    8.7631  -10.2222    9.4627 C   0  0  1  0  0  0  0  0  0  0  0  0
    8.5347  -10.9329   10.7586 N   0  0  0  0  0  0  0  0  0  0  0  0
    7.4312  -10.1791    8.5934 C   0  0  2  0  0  0  0  0  0  0  0  0
    6.9383  -11.5027    8.3517 O   0  0  0  0  0  0  0  0  0  0  0  0
    7.7496   -9.4244    7.2451 C   0  0  2  0  0  0  0  0  0  0  0  0
    8.2676   -8.0193    7.5207 O   0  0  0  0  0  0  0  0  0  0  0  0
    6.5214   -9.3260    6.3720 C   0  0  0  0  0  0  0  0  0  0  0  0
    6.1935  -10.5729    5.7313 O   0  0  0  0  0  0  0  0  0  0  0  0
    9.0055   -3.9363    1.7502 O   0  0  0  0  0  0  0  0  0  0  0  0
    9.0037   -1.8371    3.6784 O   0  0  0  0  0  0  0  0  0  0  0  0
    9.5174  -12.1399    6.3731 C   0  0  0  0  0  0  0  0  0  0  0  0
    8.2664  -11.9404    6.3641 O   0  0  0  0  0  0  0  0  0  0  0  0
   10.1328  -13.5685    6.4855 C   0  0  2  0  0  0  0  0  0  0  0  0
   12.0745  -11.3209    8.2551 N   0  0  0  0  0  0  0  0  0  0  0  0
   11.3934  -13.5631    7.4044 C   0  0  0  0  0  0  0  0  0  0  0  0
   11.3009  -12.5491    8.5570 C   0  0  0  0  0  0  0  0  0  0  0  0
   10.5331  -14.0191    5.3653 O   0  0  0  0  0  0  0  0  0  0  0  0
  1  2  1  1  0  0  0
  1  3  1  0  0  0  0
  1  8  1  0  0  0  0
  3  4  1  0  0  0  0
  3 32  1  6  0  0  0
  4  5  1  0  0  0  0
  4 33  1  6  0  0  0
  5  6  1  1  0  0  0
  5  7  1  0  0  0  0
  7  8  1  0  0  0  0
  7  9  1  1  0  0  0
  9 10  1  0  0  0  0
 11 12  1  1  0  0  0
 11 13  1  0  0  0  0
 11 19  1  0  0  0  0
 12 34  1  0  0  0  0
 13 14  1  0  0  0  0
 14 15  1  6  0  0  0
 14 16  1  0  0  0  0
 16  2  1  6  0  0  0
 16 17  1  0  0  0  0
 17 18  1  1  0  0  0
 17 19  1  0  0  0  0
 19 20  1  1  0  0  0
 21 20  1  6  0  0  0
 21 22  1  0  0  0  0
 21 29  1  0  0  0  0
 22 23  1  6  0  0  0
 22 24  1  0  0  0  0
 24 25  1  1  0  0  0
 24 26  1  0  0  0  0
 26 27  1  6  0  0  0
 26 28  1  0  0  0  0
 28 29  1  0  0  0  0
 28 30  1  6  0  0  0
 30 31  1  0  0  0  0
 34 35  2  0  0  0  0
 36 34  1  6  0  0  0
 36 38  1  0  0  0  0
 36 40  1  0  0  0  0
 37 39  1  0  0  0  0
 38 39  1  0  0  0  0
M  END
>  <CHROM.1>
166.13262474,57.79005363,-65.09795522,-85.25080763,-84.88267365,152.03071794
-75.22672100,39.11650587,33.49992915,-100.86919299,9.27041881,-8.24789513
6.26344087,-1.99859913,-1.39168399,2.31745998

>  <Name>
ligand

>  <RI>
0

>  <Rbt.Current_Directory>
/home/itssahil/PROJECTS/Mol_Feturizer/New_Systems/rnas/4P20

>  <Rbt.Executable>
rbdock ($Id: //depot/dev/client3/rdock/2013.1/src/exe/rbdock.cxx#4 $)

>  <Rbt.Library>
libRbt.so (2013.1, Build901 2013/11/27)

>  <Rbt.Parameter_File>
/export/apps/rDock/src/rDock_2013.1_src/data/scripts/dock_solv.prm

>  <Rbt.Receptor>
prm/blind_docking_80.prm

>  <SCORE>
35.0153

>  <SCORE.INTER>
6.63485

>  <SCORE.INTER.CONST>
1

>  <SCORE.INTER.POLAR>
0

>  <SCORE.INTER.ROT>
10

>  <SCORE.INTER.SOLV>
19.4304

>  <SCORE.INTER.VDW>
-12.3202

>  <SCORE.INTER.norm>
0.165871

>  <SCORE.INTRA>
4.82296

>  <SCORE.INTRA.DIHEDRAL>
-12.5479

>  <SCORE.INTRA.DIHEDRAL.0>
28.2802

>  <SCORE.INTRA.POLAR>
0

>  <SCORE.INTRA.POLAR.0>
0

>  <SCORE.INTRA.REPUL>
0.116608

>  <SCORE.INTRA.REPUL.0>
0

>  <SCORE.INTRA.SOLV>
12.3352

>  <SCORE.INTRA.SOLV.lig_0>
-101.981

>  <SCORE.INTRA.VDW>
4.34628

>  <SCORE.INTRA.VDW.0>
-5.72964

>  <SCORE.INTRA.norm>
0.120574

>  <SCORE.RESTR>
23.5575

>  <SCORE.RESTR.CAVITY>
23.5575

>  <SCORE.RESTR.norm>
0.588937

>  <SCORE.SYSTEM>
0

>  <SCORE.SYSTEM.CONST>
0

>  <SCORE.SYSTEM.DIHEDRAL>
0

>  <SCORE.SYSTEM.SOLV>
0

>  <SCORE.SYSTEM.norm>
0

>  <SCORE.heavy>
40

>  <SCORE.norm>
0.875382

>  <RMSD>
15.775

$$$$
ligand
 OpenBabel11021811513D
libRbt.so/2013.1/901 2013/11/27
 40 42  0  0  0  0  0  0  0  0999 V2000
    7.9991   -5.1269    4.6600 C   0  0  2  0  0  0  0  0  0  0  0  0
    8.9230   -6.0698    4.0940 O   0  0  0  0  0  0  0  0  0  0  0  0
    7.8076   -3.8943    3.6991 C   0  0  1  0  0  0  0  0  0  0  0  0
    9.1194   -3.0679    3.5603 C   0  0  2  0  0  0  0  0  0  0  0  0
    9.5157   -2.5636    4.9839 C   0  0  2  0  0  0  0  0  0  0  0  0
   10.7176   -1.7692    4.8897 O   0  0  0  0  0  0  0  0  0  0  0  0
    9.7464   -3.8287    5.9208 C   0  0  2  0  0  0  0  0  0  0  0  0
    8.4804   -4.6425    5.9931 O   0  0  0  0  0  0  0  0  0  0  0  0
   10.1194   -3.4399    7.3449 C   0  0  0  0  0  0  0  0  0  0  0  0
    8.9117   -3.0695    8.1478 N   0  0  0  0  0  0  0  0  0  0  0  0
   10.4525   -9.6914    6.0624 C   0  0  2  0  0  0  0  0  0  0  0  0
   11.2802  -10.5432    6.8845 N   0  0  0  0  0  0  0  0  0  0  0  0
   11.3396   -9.0143    4.9410 C   0  0  0  0  0  0  0  0  0  0  0  0
   10.4401   -8.0667    4.0280 C   0  0  2  0  0  0  0  0  0  0  0  0
   11.2718   -7.4442    2.9649 N   0  0  0  0  0  0  0  0  0  0  0  0
    9.7486   -6.9551    4.9462 C   0  0  2  0  0  0  0  0  0  0  0  0
    8.8734   -7.6823    6.0539 C   0  0  2  0  0  0  0  0  0  0  0  0
    8.2477   -6.6962    6.8781 O   0  0  0  0  0  0  0  0  0  0  0  0
    9.7764   -8.6205    6.9481 C   0  0  1  0  0  0  0  0  0  0  0  0
    8.9600   -9.2922    7.9395 O   0  0  0  0  0  0  0  0  0  0  0  0
    7.5990   -9.5364    7.8258 C   0  0  2  0  0  0  0  0  0  0  0  0
    7.2231  -10.6209    8.8970 C   0  0  2  0  0  0  0  0  0  0  0  0
    7.5732  -10.1691   10.1653 O   0  0  0  0  0  0  0  0  0  0  0  0
    7.8993  -12.0223    8.5802 C   0  0  1  0  0  0  0  0  0  0  0  0
    7.5182  -13.0428    9.6049 N   0  0  0  0  0  0  0  0  0  0  0  0
    7.4562  -12.4836    7.1235 C   0  0  2  0  0  0  0  0  0  0  0  0
    8.0323  -13.7538    6.7947 O   0  0  0  0  0  0  0  0  0  0  0  0
    7.8956  -11.3662    6.1001 C   0  0  2  0  0  0  0  0  0  0  0  0
    7.2712  -10.0253    6.4620 O   0  0  0  0  0  0  0  0  0  0  0  0
    7.4887  -11.7264    4.6912 C   0  0  0  0  0  0  0  0  0  0  0  0
    8.2641  -11.0349    3.6946 O   0  0  0  0  0  0  0  0  0  0  0  0
    7.3707   -4.3903    2.4002 O   0  0  0  0  0  0  0  0  0  0  0  0
    8.8923   -2.0018    2.7240 O   0  0  0  0  0  0  0  0  0  0  0  0
   11.4496  -11.9281    6.5100 C   0  0  0  0  0  0  0  0  0  0  0  0
   10.5838  -12.4924    5.7773 O   0  0  0  0  0  0  0  0  0  0  0  0
   12.7105  -12.6784    7.0390 C   0  0  2  0  0  0  0  0  0  0  0  0
   10.3504  -13.4614    9.7143 N   0  0  0  0  0  0  0  0  0  0  0  0
   12.5129  -13.1275    8.5198 C   0  0  0  0  0  0  0  0  0  0  0  0
   11.3113  -12.4543    9.2039 C   0  0  0  0  0  0  0  0  0  0  0  0
   13.7504  -11.9459    7.0438 O   0  0  0  0  0  0  0  0  0  0  0  0
  1  2  1  6  0  0  0
  1  3  1  0  0  0  0
  1  8  1  0  0  0  0
  3  4  1  0  0  0  0
  3 32  1  6  0  0  0
  4  5  1  0  0  0  0
  4 33  1  6  0  0  0
  5  6  1  6  0  0  0
  5  7  1  0  0  0  0
  7  8  1  0  0  0  0
  7  9  1  1  0  0  0
  9 10  1  0  0  0  0
 11 12  1  1  0  0  0
 11 13  1  0  0  0  0
 11 19  1  0  0  0  0
 12 34  1  0  0  0  0
 13 14  1  0  0  0  0
 14 15  1  6  0  0  0
 14 16  1  0  0  0  0
 16  2  1  6  0  0  0
 16 17  1  0  0  0  0
 17 18  1  1  0  0  0
 17 19  1  0  0  0  0
 19 20  1  1  0  0  0
 21 20  1  6  0  0  0
 21 22  1  0  0  0  0
 21 29  1  0  0  0  0
 22 23  1  1  0  0  0
 22 24  1  0  0  0  0
 24 25  1  1  0  0  0
 24 26  1  0  0  0  0
 26 27  1  6  0  0  0
 26 28  1  0  0  0  0
 28 29  1  0  0  0  0
 28 30  1  6  0  0  0
 30 31  1  0  0  0  0
 34 35  2  0  0  0  0
 36 34  1  1  0  0  0
 36 38  1  0  0  0  0
 36 40  1  0  0  0  0
 37 39  1  0  0  0  0
 38 39  1  0  0  0  0
M  END
>  <CHROM.1>
151.85447814,168.85757894,80.71748790,-89.89155799,-95.69237234,163.96205831
-158.39937172,79.34193174,-13.81549757,122.60143521,9.35816623,-8.52284489
6.22836473,1.65260162,0.53719064,-0.39187699

>  <Name>
ligand

>  <RI>
0

>  <Rbt.Current_Directory>
/home/itssahil/PROJECTS/Mol_Feturizer/New_Systems/rnas/4P20

>  <Rbt.Executable>
rbdock ($Id: //depot/dev/client3/rdock/2013.1/src/exe/rbdock.cxx#4 $)

>  <Rbt.Library>
libRbt.so (2013.1, Build901 2013/11/27)

>  <Rbt.Parameter_File>
/export/apps/rDock/src/rDock_2013.1_src/data/scripts/dock_solv.prm

>  <Rbt.Receptor>
prm/blind_docking_80.prm

>  <SCORE>
68.8596

>  <SCORE.INTER>
34.6509

>  <SCORE.INTER.CONST>
1

>  <SCORE.INTER.POLAR>
0

>  <SCORE.INTER.ROT>
10

>  <SCORE.INTER.SOLV>
23.744

>  <SCORE.INTER.VDW>
4.91924

>  <SCORE.INTER.norm>
0.866272

>  <SCORE.INTRA>
5.81556

>  <SCORE.INTRA.DIHEDRAL>
-3.88929

>  <SCORE.INTRA.DIHEDRAL.0>
28.2802

>  <SCORE.INTRA.POLAR>
0

>  <SCORE.INTRA.POLAR.0>
0

>  <SCORE.INTRA.REPUL>
0

>  <SCORE.INTRA.REPUL.0>
0

>  <SCORE.INTRA.SOLV>
7.59681

>  <SCORE.INTRA.SOLV.lig_0>
-101.981

>  <SCORE.INTRA.VDW>
3.96181

>  <SCORE.INTRA.VDW.0>
-5.72964

>  <SCORE.INTRA.norm>
0.145389

>  <SCORE.RESTR>
28.3931

>  <SCORE.RESTR.CAVITY>
28.3931

>  <SCORE.RESTR.norm>
0.709828

>  <SCORE.SYSTEM>
0

>  <SCORE.SYSTEM.CONST>
0

>  <SCORE.SYSTEM.DIHEDRAL>
0

>  <SCORE.SYSTEM.SOLV>
0

>  <SCORE.SYSTEM.norm>
0

>  <SCORE.heavy>
40

>  <SCORE.norm>
1.72149

>  <RMSD>
15.781

$$$$
ligand
 OpenBabel11021811513D
libRbt.so/2013.1/901 2013/11/27
 40 42  0  0  0  0  0  0  0  0999 V2000
    8.4870   -5.0274    3.9565 C   0  0  2  0  0  0  0  0  0  0  0  0
    9.6617   -5.7653    3.5845 O   0  0  0  0  0  0  0  0  0  0  0  0
    8.7716   -3.4792    3.9221 C   0  0  1  0  0  0  0  0  0  0  0  0
    9.8103   -3.0642    5.0046 C   0  0  2  0  0  0  0  0  0  0  0  0
    9.2261   -3.4569    6.3984 C   0  0  2  0  0  0  0  0  0  0  0  0
   10.1542   -3.0622    7.4315 O   0  0  0  0  0  0  0  0  0  0  0  0
    8.9905   -5.0303    6.4212 C   0  0  2  0  0  0  0  0  0  0  0  0
    8.0265   -5.4135    5.3285 O   0  0  0  0  0  0  0  0  0  0  0  0
    8.4000   -5.5127    7.7391 C   0  0  0  0  0  0  0  0  0  0  0  0
    7.1649   -4.7483    8.1005 N   0  0  0  0  0  0  0  0  0  0  0  0
    8.9937   -9.7372    5.3474 C   0  0  2  0  0  0  0  0  0  0  0  0
    9.1080  -11.1595    5.5723 N   0  0  0  0  0  0  0  0  0  0  0  0
    8.4822   -9.4738    3.8737 C   0  0  0  0  0  0  0  0  0  0  0  0
    8.3556   -7.9070    3.6090 C   0  0  2  0  0  0  0  0  0  0  0  0
    7.8593   -7.6617    2.2295 N   0  0  0  0  0  0  0  0  0  0  0  0
    9.7798   -7.2184    3.8420 C   0  0  2  0  0  0  0  0  0  0  0  0
   10.2498   -7.5119    5.3303 C   0  0  2  0  0  0  0  0  0  0  0  0
   11.5212   -6.8967    5.5497 O   0  0  0  0  0  0  0  0  0  0  0  0
   10.3668   -9.0673    5.5795 C   0  0  1  0  0  0  0  0  0  0  0  0
   10.7760   -9.3185    6.9470 O   0  0  0  0  0  0  0  0  0  0  0  0
   10.2089   -8.7394    8.0730 C   0  0  2  0  0  0  0  0  0  0  0  0
   10.5302   -9.6708    9.2954 C   0  0  2  0  0  0  0  0  0  0  0  0
   11.9073   -9.8249    9.4188 O   0  0  0  0  0  0  0  0  0  0  0  0
    9.8042  -11.0776    9.1719 C   0  0  1  0  0  0  0  0  0  0  0  0
   10.1136  -11.9434   10.3516 N   0  0  0  0  0  0  0  0  0  0  0  0
    8.2378  -10.8323    9.0397 C   0  0  2  0  0  0  0  0  0  0  0  0
    7.5346  -12.0767    8.9380 O   0  0  0  0  0  0  0  0  0  0  0  0
    7.9889   -9.9215    7.7758 C   0  0  2  0  0  0  0  0  0  0  0  0
    8.7396   -8.6028    7.9028 O   0  0  0  0  0  0  0  0  0  0  0  0
    6.5186   -9.6275    7.5964 C   0  0  0  0  0  0  0  0  0  0  0  0
    6.1746   -9.3249    6.2315 O   0  0  0  0  0  0  0  0  0  0  0  0
    9.2485   -3.1312    2.5896 O   0  0  0  0  0  0  0  0  0  0  0  0
   10.0106   -1.7066    4.9380 O   0  0  0  0  0  0  0  0  0  0  0  0
   10.4146  -11.7737    5.5237 C   0  0  0  0  0  0  0  0  0  0  0  0
   11.3515  -11.2103    4.8836 O   0  0  0  0  0  0  0  0  0  0  0  0
   10.6126  -13.1286    6.2704 C   0  0  2  0  0  0  0  0  0  0  0  0
   11.9813  -12.8645    9.0034 N   0  0  0  0  0  0  0  0  0  0  0  0
   12.1218  -13.3861    6.5697 C   0  0  0  0  0  0  0  0  0  0  0  0
   12.6651  -12.5352    7.7298 C   0  0  0  0  0  0  0  0  0  0  0  0
   10.2291  -14.1277    5.5827 O   0  0  0  0  0  0  0  0  0  0  0  0
  1  2  1  1  0  0  0
  1  3  1  0  0  0  0
  1  8  1  0  0  0  0
  3  4  1  0  0  0  0
  3 32  1  6  0  0  0
  4  5  1  0  0  0  0
  4 33  1  1  0  0  0
  5  6  1  1  0  0  0
  5  7  1  0  0  0  0
  7  8  1  0  0  0  0
  7  9  1  1  0  0  0
  9 10  1  0  0  0  0
 11 12  1  6  0  0  0
 11 13  1  0  0  0  0
 11 19  1  0  0  0  0
 12 34  1  0  0  0  0
 13 14  1  0  0  0  0
 14 15  1  6  0  0  0
 14 16  1  0  0  0  0
 16  2  1  1  0  0  0
 16 17  1  0  0  0  0
 17 18  1  6  0  0  0
 17 19  1  0  0  0  0
 19 20  1  1  0  0  0
 21 20  1  6  0  0  0
 21 22  1  0  0  0  0
 21 29  1  0  0  0  0
 22 23  1  6  0  0  0
 22 24  1  0  0  0  0
 24 25  1  1  0  0  0
 24 26  1  0  0  0  0
 26 27  1  6  0  0  0
 26 28  1  0  0  0  0
 28 29  1  0  0  0  0
 28 30  1  1  0  0  0
 30 31  1  0  0  0  0
 34 35  2  0  0  0  0
 36 34  1  6  0  0  0
 36 38  1  0  0  0  0
 36 40  1  0  0  0  0
 37 39  1  0  0  0  0
 38 39  1  0  0  0  0
M  END
>  <CHROM.1>
165.04788587,37.25379622,52.74726475,101.87875770,-71.63411280,157.97220459
-154.91827765,-159.16675135,75.40469694,63.06450393,9.52026404,-8.37481935
6.31292241,-2.76186663,-1.41389724,1.62143599

>  <Name>
ligand

>  <RI>
0

>  <Rbt.Current_Directory>
/home/itssahil/PROJECTS/Mol_Feturizer/New_Systems/rnas/4P20

>  <Rbt.Executable>
rbdock ($Id: //depot/dev/client3/rdock/2013.1/src/exe/rbdock.cxx#4 $)

>  <Rbt.Library>
libRbt.so (2013.1, Build901 2013/11/27)

>  <Rbt.Parameter_File>
/export/apps/rDock/src/rDock_2013.1_src/data/scripts/dock_solv.prm

>  <Rbt.Receptor>
prm/blind_docking_80.prm

>  <SCORE>
38.1019

>  <SCORE.INTER>
11.0656

>  <SCORE.INTER.CONST>
1

>  <SCORE.INTER.POLAR>
0

>  <SCORE.INTER.ROT>
10

>  <SCORE.INTER.SOLV>
27.5937

>  <SCORE.INTER.VDW>
-12.0875

>  <SCORE.INTER.norm>
0.276639

>  <SCORE.INTRA>
3.2817

>  <SCORE.INTRA.DIHEDRAL>
-16.9907

>  <SCORE.INTRA.DIHEDRAL.0>
28.2802

>  <SCORE.INTRA.POLAR>
0

>  <SCORE.INTRA.POLAR.0>
0

>  <SCORE.INTRA.REPUL>
0

>  <SCORE.INTRA.REPUL.0>
0

>  <SCORE.INTRA.SOLV>
11.3996

>  <SCORE.INTRA.SOLV.lig_0>
-101.981

>  <SCORE.INTRA.VDW>
6.07726

>  <SCORE.INTRA.VDW.0>
-5.72964

>  <SCORE.INTRA.norm>
0.0820426

>  <SCORE.RESTR>
23.7546

>  <SCORE.RESTR.CAVITY>
23.7546

>  <SCORE.RESTR.norm>
0.593866

>  <SCORE.SYSTEM>
0

>  <SCORE.SYSTEM.CONST>
0

>  <SCORE.SYSTEM.DIHEDRAL>
0

>  <SCORE.SYSTEM.SOLV>
0

>  <SCORE.SYSTEM.norm>
0

>  <SCORE.heavy>
40

>  <SCORE.norm>
0.952547

>  <RMSD>
15.809

$$$$
ligand
 OpenBabel11021811513D
libRbt.so/2013.1/901 2013/11/27
 40 42  0  0  0  0  0  0  0  0999 V2000
    7.5844   -3.9418    3.2157 C   0  0  2  0  0  0  0  0  0  0  0  0
    7.9359   -5.3256    3.0586 O   0  0  0  0  0  0  0  0  0  0  0  0
    8.8305   -3.0194    2.9410 C   0  0  1  0  0  0  0  0  0  0  0  0
    9.9431   -3.2276    4.0095 C   0  0  2  0  0  0  0  0  0  0  0  0
    9.3331   -2.8796    5.4042 C   0  0  2  0  0  0  0  0  0  0  0  0
   10.3473   -3.0369    6.4196 O   0  0  0  0  0  0  0  0  0  0  0  0
    8.1057   -3.8550    5.6752 C   0  0  2  0  0  0  0  0  0  0  0  0
    7.0690   -3.6756    4.5967 O   0  0  0  0  0  0  0  0  0  0  0  0
    7.4262   -3.5808    7.0098 C   0  0  0  0  0  0  0  0  0  0  0  0
    7.6180   -2.1608    7.4428 N   0  0  0  0  0  0  0  0  0  0  0  0
    9.9526   -8.5407    5.2780 C   0  0  2  0  0  0  0  0  0  0  0  0
   10.8377   -9.1977    6.2115 N   0  0  0  0  0  0  0  0  0  0  0  0
   10.8034   -7.6875    4.2528 C   0  0  0  0  0  0  0  0  0  0  0  0
    9.8391   -6.9521    3.2184 C   0  0  2  0  0  0  0  0  0  0  0  0
   10.6410   -6.1641    2.2459 N   0  0  0  0  0  0  0  0  0  0  0  0
    8.8225   -6.0157    4.0225 C   0  0  2  0  0  0  0  0  0  0  0  0
    7.9955   -6.9154    5.0367 C   0  0  2  0  0  0  0  0  0  0  0  0
    7.0805   -6.0875    5.7582 O   0  0  0  0  0  0  0  0  0  0  0  0
    8.9634   -7.6409    6.0525 C   0  0  1  0  0  0  0  0  0  0  0  0
    8.1955   -8.4735    6.9569 O   0  0  0  0  0  0  0  0  0  0  0  0
    6.9749   -9.0637    6.6624 C   0  0  2  0  0  0  0  0  0  0  0  0
    6.6980  -10.1491    7.7625 C   0  0  2  0  0  0  0  0  0  0  0  0
    6.7064   -9.5552    9.0204 O   0  0  0  0  0  0  0  0  0  0  0  0
    7.7391  -11.3456    7.6859 C   0  0  1  0  0  0  0  0  0  0  0  0
    7.4495  -12.3731    8.7334 N   0  0  0  0  0  0  0  0  0  0  0  0
    7.6763  -11.9826    6.2294 C   0  0  2  0  0  0  0  0  0  0  0  0
    8.5919  -13.0789    6.1135 O   0  0  0  0  0  0  0  0  0  0  0  0
    7.9977  -10.8466    5.1829 C   0  0  2  0  0  0  0  0  0  0  0  0
    7.0132   -9.6928    5.3173 O   0  0  0  0  0  0  0  0  0  0  0  0
    7.9366  -11.3742    3.7692 C   0  0  0  0  0  0  0  0  0  0  0  0
    7.8414  -10.3250    2.7879 O   0  0  0  0  0  0  0  0  0  0  0  0
    9.3350   -3.3172    1.6065 O   0  0  0  0  0  0  0  0  0  0  0  0
   10.9971   -2.3920    3.7293 O   0  0  0  0  0  0  0  0  0  0  0  0
   10.7503   -8.8630    7.6141 C   0  0  0  0  0  0  0  0  0  0  0  0
   10.2583   -7.7499    7.9660 O   0  0  0  0  0  0  0  0  0  0  0  0
   11.2799   -9.9042    8.6475 C   0  0  2  0  0  0  0  0  0  0  0  0
   12.6230  -13.4384    7.7189 N   0  0  0  0  0  0  0  0  0  0  0  0
   11.3206  -11.3352    8.0278 C   0  0  0  0  0  0  0  0  0  0  0  0
   12.5823  -12.1273    8.4098 C   0  0  0  0  0  0  0  0  0  0  0  0
   10.5329  -10.0008    9.6725 O   0  0  0  0  0  0  0  0  0  0  0  0
  1  2  1  1  0  0  0
  1  3  1  0  0  0  0
  1  8  1  0  0  0  0
  3  4  1  0  0  0  0
  3 32  1  6  0  0  0
  4  5  1  0  0  0  0
  4 33  1  6  0  0  0
  5  6  1  1  0  0  0
  5  7  1  0  0  0  0
  7  8  1  0  0  0  0
  7  9  1  1  0  0  0
  9 10  1  0  0  0  0
 11 12  1  1  0  0  0
 11 13  1  0  0  0  0
 11 19  1  0  0  0  0
 12 34  1  0  0  0  0
 13 14  1  0  0  0  0
 14 15  1  6  0  0  0
 14 16  1  0  0  0  0
 16  2  1  6  0  0  0
 16 17  1  0  0  0  0
 17 18  1  1  0  0  0
 17 19  1  0  0  0  0
 19 20  1  1  0  0  0
 21 20  1  1  0  0  0
 21 22  1  0  0  0  0
 21 29  1  0  0  0  0
 22 23  1  1  0  0  0
 22 24  1  0  0  0  0
 24 25  1  1  0  0  0
 24 26  1  0  0  0  0
 26 27  1  1  0  0  0
 26 28  1  0  0  0  0
 28 29  1  0  0  0  0
 28 30  1  6  0  0  0
 30 31  1  0  0  0  0
 34 35  2  0  0  0  0
 36 34  1  6  0  0  0
 36 38  1  0  0  0  0
 36 40  1  0  0  0  0
 37 39  1  0  0  0  0
 38 39  1  0  0  0  0
M  END
>  <CHROM.1>
70.07004150,-138.58752534,26.05183247,117.02715271,-91.89737829,165.66378355
163.30804578,-21.55803655,138.81570091,-175.81638563,8.97791341,-7.66488460
5.78213848,1.74325944,-1.20110965,-0.22398649

>  <Name>
ligand

>  <RI>
0

>  <Rbt.Current_Directory>
/home/itssahil/PROJECTS/Mol_Feturizer/New_Systems/rnas/4P20

>  <Rbt.Executable>
rbdock ($Id: //depot/dev/client3/rdock/2013.1/src/exe/rbdock.cxx#4 $)

>  <Rbt.Library>
libRbt.so (2013.1, Build901 2013/11/27)

>  <Rbt.Parameter_File>
/export/apps/rDock/src/rDock_2013.1_src/data/scripts/dock_solv.prm

>  <Rbt.Receptor>
prm/blind_docking_80.prm

>  <SCORE>
75.6545

>  <SCORE.INTER>
37.3075

>  <SCORE.INTER.CONST>
1

>  <SCORE.INTER.POLAR>
0

>  <SCORE.INTER.ROT>
10

>  <SCORE.INTER.SOLV>
30.2774

>  <SCORE.INTER.VDW>
4.51251

>  <SCORE.INTER.norm>
0.932686

>  <SCORE.INTRA>
12.6646

>  <SCORE.INTRA.DIHEDRAL>
-5.8968

>  <SCORE.INTRA.DIHEDRAL.0>
28.2802

>  <SCORE.INTRA.POLAR>
0

>  <SCORE.INTRA.POLAR.0>
0

>  <SCORE.INTRA.REPUL>
0

>  <SCORE.INTRA.REPUL.0>
0

>  <SCORE.INTRA.SOLV>
5.77899

>  <SCORE.INTRA.SOLV.lig_0>
-101.981

>  <SCORE.INTRA.VDW>
12.7235

>  <SCORE.INTRA.VDW.0>
-5.72964

>  <SCORE.INTRA.norm>
0.316614

>  <SCORE.RESTR>
25.6825

>  <SCORE.RESTR.CAVITY>
25.6825

>  <SCORE.RESTR.norm>
0.642061

>  <SCORE.SYSTEM>
0

>  <SCORE.SYSTEM.CONST>
0

>  <SCORE.SYSTEM.DIHEDRAL>
0

>  <SCORE.SYSTEM.SOLV>
0

>  <SCORE.SYSTEM.norm>
0

>  <SCORE.heavy>
40

>  <SCORE.norm>
1.89136

>  <RMSD>
15.840

$$$$
ligand
 OpenBabel11021811513D
libRbt.so/2013.1/901 2013/11/27
 40 42  0  0  0  0  0  0  0  0999 V2000
    7.7012  -11.0677    9.2764 C   0  0  2  0  0  0  0  0  0  0  0  0
    9.0032  -10.5748    9.6299 O   0  0  0  0  0  0  0  0  0  0  0  0
    7.7889  -12.5617    8.7868 C   0  0  1  0  0  0  0  0  0  0  0  0
    8.5882  -12.6817    7.4565 C   0  0  2  0  0  0  0  0  0  0  0  0
    7.8518  -11.8220    6.3809 C   0  0  2  0  0  0  0  0  0  0  0  0
    8.5529  -11.9308    5.1234 O   0  0  0  0  0  0  0  0  0  0  0  0
    7.8172  -10.3116    6.8799 C   0  0  2  0  0  0  0  0  0  0  0  0
    7.0886  -10.2301    8.1963 O   0  0  0  0  0  0  0  0  0  0  0  0
    7.0977   -9.3910    5.9037 C   0  0  0  0  0  0  0  0  0  0  0  0
    5.7691   -9.9492    5.4992 N   0  0  0  0  0  0  0  0  0  0  0  0
    9.3711   -6.8828    7.2711 C   0  0  2  0  0  0  0  0  0  0  0  0
    9.8417   -5.5855    6.8445 N   0  0  0  0  0  0  0  0  0  0  0  0
    8.7978   -6.7804    8.7420 C   0  0  0  0  0  0  0  0  0  0  0  0
    8.2787   -8.2068    9.2288 C   0  0  2  0  0  0  0  0  0  0  0  0
    7.7254   -8.1054   10.6046 N   0  0  0  0  0  0  0  0  0  0  0  0
    9.4854   -9.2540    9.1666 C   0  0  2  0  0  0  0  0  0  0  0  0
   10.0262   -9.3196    7.6749 C   0  0  2  0  0  0  0  0  0  0  0  0
   11.1035  -10.2567    7.6082 O   0  0  0  0  0  0  0  0  0  0  0  0
   10.5332   -7.8994    7.2047 C   0  0  1  0  0  0  0  0  0  0  0  0
   11.0034   -7.9717    5.8357 O   0  0  0  0  0  0  0  0  0  0  0  0
   10.4416   -8.7511    4.8348 C   0  0  2  0  0  0  0  0  0  0  0  0
   11.4600   -8.7916    3.6405 C   0  0  2  0  0  0  0  0  0  0  0  0
   12.6792   -9.2969    4.0803 O   0  0  0  0  0  0  0  0  0  0  0  0
   11.6392   -7.3636    2.9695 C   0  0  1  0  0  0  0  0  0  0  0  0
   12.6029   -7.4275    1.8275 N   0  0  0  0  0  0  0  0  0  0  0  0
   10.2147   -6.8462    2.4855 C   0  0  2  0  0  0  0  0  0  0  0  0
   10.3257   -5.5620    1.8592 O   0  0  0  0  0  0  0  0  0  0  0  0
    9.2582   -6.7985    3.7391 C   0  0  2  0  0  0  0  0  0  0  0  0
    9.1488   -8.1712    4.3889 O   0  0  0  0  0  0  0  0  0  0  0  0
    7.8746   -6.3333    3.3521 C   0  0  0  0  0  0  0  0  0  0  0  0
    6.8465   -6.8843    4.1959 O   0  0  0  0  0  0  0  0  0  0  0  0
    8.4163  -13.3518    9.8385 O   0  0  0  0  0  0  0  0  0  0  0  0
    8.6222  -13.9998    7.0703 O   0  0  0  0  0  0  0  0  0  0  0  0
    8.8866   -4.6228    6.3465 C   0  0  0  0  0  0  0  0  0  0  0  0
    7.7773   -5.0197    5.8808 O   0  0  0  0  0  0  0  0  0  0  0  0
    9.2752   -3.1133    6.4017 C   0  0  2  0  0  0  0  0  0  0  0  0
   10.1535   -2.8076    2.6280 N   0  0  0  0  0  0  0  0  0  0  0  0
    9.3496   -2.5029    4.9680 C   0  0  0  0  0  0  0  0  0  0  0  0
    9.8724   -3.4919    3.9128 C   0  0  0  0  0  0  0  0  0  0  0  0
   10.4250   -2.9216    6.9108 O   0  0  0  0  0  0  0  0  0  0  0  0
  1  2  1  6  0  0  0
  1  3  1  0  0  0  0
  1  8  1  0  0  0  0
  3  4  1  0  0  0  0
  3 32  1  1  0  0  0
  4  5  1  0  0  0  0
  4 33  1  6  0  0  0
  5  6  1  6  0  0  0
  5  7  1  0  0  0  0
  7  8  1  0  0  0  0
  7  9  1  6  0  0  0
  9 10  1  0  0  0  0
 11 12  1  1  0  0  0
 11 13  1  0  0  0  0
 11 19  1  0  0  0  0
 12 34  1  0  0  0  0
 13 14  1  0  0  0  0
 14 15  1  1  0  0  0
 14 16  1  0  0  0  0
 16  2  1  6  0  0  0
 16 17  1  0  0  0  0
 17 18  1  1  0  0  0
 17 19  1  0  0  0  0
 19 20  1  6  0  0  0
 21 20  1  1  0  0  0
 21 22  1  0  0  0  0
 21 29  1  0  0  0  0
 22 23  1  1  0  0  0
 22 24  1  0  0  0  0
 24 25  1  6  0  0  0
 24 26  1  0  0  0  0
 26 27  1  1  0  0  0
 26 28  1  0  0  0  0
 28 29  1  0  0  0  0
 28 30  1  6  0  0  0
 30 31  1  0  0  0  0
 34 35  2  0  0  0  0
 36 34  1  6  0  0  0
 36 38  1  0  0  0  0
 36 40  1  0  0  0  0
 37 39  1  0  0  0  0
 38 39  1  0  0  0  0
M  END
>  <CHROM.1>
133.29822502,39.51246575,49.30858457,-81.31501556,-83.51300924,-166.42153745
150.37258892,117.29860581,-34.88768402,-169.89588450,9.21859359,-8.14962197
6.10944483,2.12887449,-1.17545506,3.11662714

>  <Name>
ligand

>  <RI>
0

>  <Rbt.Current_Directory>
/home/itssahil/PROJECTS/Mol_Feturizer/New_Systems/rnas/4P20

>  <Rbt.Executable>
rbdock ($Id: //depot/dev/client3/rdock/2013.1/src/exe/rbdock.cxx#4 $)

>  <Rbt.Library>
libRbt.so (2013.1, Build901 2013/11/27)

>  <Rbt.Parameter_File>
/export/apps/rDock/src/rDock_2013.1_src/data/scripts/dock_solv.prm

>  <Rbt.Receptor>
prm/blind_docking_80.prm

>  <SCORE>
44.3731

>  <SCORE.INTER>
14.4741

>  <SCORE.INTER.CONST>
1

>  <SCORE.INTER.POLAR>
0

>  <SCORE.INTER.ROT>
10

>  <SCORE.INTER.SOLV>
24.6741

>  <SCORE.INTER.VDW>
-8.84201

>  <SCORE.INTER.norm>
0.361852

>  <SCORE.INTRA>
5.2403

>  <SCORE.INTRA.DIHEDRAL>
-8.74044

>  <SCORE.INTRA.DIHEDRAL.0>
28.2802

>  <SCORE.INTRA.POLAR>
0

>  <SCORE.INTRA.POLAR.0>
0

>  <SCORE.INTRA.REPUL>
0

>  <SCORE.INTRA.REPUL.0>
0

>  <SCORE.INTRA.SOLV>
7.56641

>  <SCORE.INTRA.SOLV.lig_0>
-101.981

>  <SCORE.INTRA.VDW>
5.82731

>  <SCORE.INTRA.VDW.0>
-5.72964

>  <SCORE.INTRA.norm>
0.131007

>  <SCORE.RESTR>
24.6588

>  <SCORE.RESTR.CAVITY>
24.6588

>  <SCORE.RESTR.norm>
0.61647

>  <SCORE.SYSTEM>
0

>  <SCORE.SYSTEM.CONST>
0

>  <SCORE.SYSTEM.DIHEDRAL>
0

>  <SCORE.SYSTEM.SOLV>
0

>  <SCORE.SYSTEM.norm>
0

>  <SCORE.heavy>
40

>  <SCORE.norm>
1.10933

>  <RMSD>
15.850

$$$$
ligand
 OpenBabel11021811513D
libRbt.so/2013.1/901 2013/11/27
 40 42  0  0  0  0  0  0  0  0999 V2000
    8.8676   -5.4053    3.2638 C   0  0  2  0  0  0  0  0  0  0  0  0
   10.1704   -6.0073    3.3217 O   0  0  0  0  0  0  0  0  0  0  0  0
    8.9715   -3.9042    2.7999 C   0  0  1  0  0  0  0  0  0  0  0  0
    9.7205   -3.0317    3.8490 C   0  0  2  0  0  0  0  0  0  0  0  0
    8.9222   -3.1103    5.1887 C   0  0  2  0  0  0  0  0  0  0  0  0
    9.5757   -2.2896    6.1807 O   0  0  0  0  0  0  0  0  0  0  0  0
    8.8713   -4.6300    5.6569 C   0  0  2  0  0  0  0  0  0  0  0  0
    8.1933   -5.4627    4.6000 O   0  0  0  0  0  0  0  0  0  0  0  0
    8.0923   -4.8158    6.9519 C   0  0  0  0  0  0  0  0  0  0  0  0
    8.7787   -4.1543    8.1059 N   0  0  0  0  0  0  0  0  0  0  0  0
    9.3964   -9.7256    5.5365 C   0  0  2  0  0  0  0  0  0  0  0  0
    9.6299  -11.0043    6.1664 N   0  0  0  0  0  0  0  0  0  0  0  0
    9.7329   -9.8263    3.9939 C   0  0  0  0  0  0  0  0  0  0  0  0
    9.4844   -8.4201    3.2856 C   0  0  2  0  0  0  0  0  0  0  0  0
    9.7852   -8.5208    1.8334 N   0  0  0  0  0  0  0  0  0  0  0  0
   10.3949   -7.3097    3.9890 C   0  0  2  0  0  0  0  0  0  0  0  0
   10.0220   -7.2480    5.5314 C   0  0  2  0  0  0  0  0  0  0  0  0
   10.8285   -6.2548    6.1687 O   0  0  0  0  0  0  0  0  0  0  0  0
   10.2690   -8.6484    6.2192 C   0  0  1  0  0  0  0  0  0  0  0  0
    9.9045   -8.5811    7.6203 O   0  0  0  0  0  0  0  0  0  0  0  0
    8.6936   -8.1158    8.1125 C   0  0  2  0  0  0  0  0  0  0  0  0
    8.0931   -9.2405    9.0287 C   0  0  2  0  0  0  0  0  0  0  0  0
    8.9920   -9.5478   10.0450 O   0  0  0  0  0  0  0  0  0  0  0  0
    7.7045  -10.5352    8.1955 C   0  0  1  0  0  0  0  0  0  0  0  0
    7.1234  -11.5879    9.0849 N   0  0  0  0  0  0  0  0  0  0  0  0
    6.6742  -10.1178    7.0573 C   0  0  2  0  0  0  0  0  0  0  0  0
    6.2818  -11.2581    6.2832 O   0  0  0  0  0  0  0  0  0  0  0  0
    7.3561   -9.0147    6.1588 C   0  0  2  0  0  0  0  0  0  0  0  0
    7.7624   -7.8098    6.9964 O   0  0  0  0  0  0  0  0  0  0  0  0
    6.4259   -8.5524    5.0628 C   0  0  0  0  0  0  0  0  0  0  0  0
    7.0820   -7.7137    4.0938 O   0  0  0  0  0  0  0  0  0  0  0  0
    9.6584   -3.8688    1.5150 O   0  0  0  0  0  0  0  0  0  0  0  0
    9.7708   -1.7341    3.4005 O   0  0  0  0  0  0  0  0  0  0  0  0
   10.8890  -11.6762    5.9425 C   0  0  0  0  0  0  0  0  0  0  0  0
   11.5732  -11.4035    4.9117 O   0  0  0  0  0  0  0  0  0  0  0  0
   11.3525  -12.7284    6.9962 C   0  0  2  0  0  0  0  0  0  0  0  0
    9.9261  -11.8359   10.4771 N   0  0  0  0  0  0  0  0  0  0  0  0
   10.3739  -12.7718    8.2103 C   0  0  0  0  0  0  0  0  0  0  0  0
   10.5075  -11.5558    9.1423 C   0  0  0  0  0  0  0  0  0  0  0  0
   12.4927  -12.4571    7.4907 O   0  0  0  0  0  0  0  0  0  0  0  0
  1  2  1  1  0  0  0
  1  3  1  0  0  0  0
  1  8  1  0  0  0  0
  3  4  1  0  0  0  0
  3 32  1  6  0  0  0
  4  5  1  0  0  0  0
  4 33  1  6  0  0  0
  5  6  1  1  0  0  0
  5  7  1  0  0  0  0
  7  8  1  0  0  0  0
  7  9  1  1  0  0  0
  9 10  1  0  0  0  0
 11 12  1  1  0  0  0
 11 13  1  0  0  0  0
 11 19  1  0  0  0  0
 12 34  1  0  0  0  0
 13 14  1  0  0  0  0
 14 15  1  6  0  0  0
 14 16  1  0  0  0  0
 16  2  1  6  0  0  0
 16 17  1  0  0  0  0
 17 18  1  1  0  0  0
 17 19  1  0  0  0  0
 19 20  1  1  0  0  0
 21 20  1  6  0  0  0
 21 22  1  0  0  0  0
 21 29  1  0  0  0  0
 22 23  1  1  0  0  0
 22 24  1  0  0  0  0
 24 25  1  1  0  0  0
 24 26  1  0  0  0  0
 26 27  1  6  0  0  0
 26 28  1  0  0  0  0
 28 29  1  0  0  0  0
 28 30  1  6  0  0  0
 30 31  1  0  0  0  0
 34 35  2  0  0  0  0
 36 34  1  6  0  0  0
 36 38  1  0  0  0  0
 36 40  1  0  0  0  0
 37 39  1  0  0  0  0
 38 39  1  0  0  0  0
M  END
>  <CHROM.1>
167.11837483,59.02452079,-65.90998665,50.12377890,-68.32827691,125.62925548
-170.38421102,-4.83930880,-73.77859432,-160.83249454,9.21610819,-8.01172449
5.95266654,-1.67071701,-1.18667379,2.57050243

>  <Name>
ligand

>  <RI>
0

>  <Rbt.Current_Directory>
/home/itssahil/PROJECTS/Mol_Feturizer/New_Systems/rnas/4P20

>  <Rbt.Executable>
rbdock ($Id: //depot/dev/client3/rdock/2013.1/src/exe/rbdock.cxx#4 $)

>  <Rbt.Library>
libRbt.so (2013.1, Build901 2013/11/27)

>  <Rbt.Parameter_File>
/export/apps/rDock/src/rDock_2013.1_src/data/scripts/dock_solv.prm

>  <Rbt.Receptor>
prm/blind_docking_80.prm

>  <SCORE>
51.811

>  <SCORE.INTER>
8.50959

>  <SCORE.INTER.CONST>
1

>  <SCORE.INTER.POLAR>
0

>  <SCORE.INTER.ROT>
10

>  <SCORE.INTER.SOLV>
22.3669

>  <SCORE.INTER.VDW>
-12.0493

>  <SCORE.INTER.norm>
0.21274

>  <SCORE.INTRA>
20.5587

>  <SCORE.INTRA.DIHEDRAL>
-15.2011

>  <SCORE.INTRA.DIHEDRAL.0>
28.2802

>  <SCORE.INTRA.POLAR>
0

>  <SCORE.INTRA.POLAR.0>
0

>  <SCORE.INTRA.REPUL>
0.262336

>  <SCORE.INTRA.REPUL.0>
0

>  <SCORE.INTRA.SOLV>
13.437

>  <SCORE.INTRA.SOLV.lig_0>
-101.981

>  <SCORE.INTRA.VDW>
20.129

>  <SCORE.INTRA.VDW.0>
-5.72964

>  <SCORE.INTRA.norm>
0.513967

>  <SCORE.RESTR>
22.7427

>  <SCORE.RESTR.CAVITY>
22.7427

>  <SCORE.RESTR.norm>
0.568567

>  <SCORE.SYSTEM>
0

>  <SCORE.SYSTEM.CONST>
0

>  <SCORE.SYSTEM.DIHEDRAL>
0

>  <SCORE.SYSTEM.SOLV>
0

>  <SCORE.SYSTEM.norm>
0

>  <SCORE.heavy>
40

>  <SCORE.norm>
1.29527

>  <RMSD>
15.880

$$$$
ligand
 OpenBabel11021811513D
libRbt.so/2013.1/901 2013/11/27
 40 42  0  0  0  0  0  0  0  0999 V2000
    8.8163   -5.8319    5.0209 C   0  0  2  0  0  0  0  0  0  0  0  0
   10.2093   -6.1713    5.1070 O   0  0  0  0  0  0  0  0  0  0  0  0
    8.6118   -4.5563    4.1208 C   0  0  1  0  0  0  0  0  0  0  0  0
    9.2471   -3.2914    4.7683 C   0  0  2  0  0  0  0  0  0  0  0  0
    8.5587   -3.0698    6.1522 C   0  0  2  0  0  0  0  0  0  0  0  0
    9.1064   -1.8864    6.7720 O   0  0  0  0  0  0  0  0  0  0  0  0
    8.8188   -4.3531    7.0560 C   0  0  2  0  0  0  0  0  0  0  0  0
    8.2454   -5.5721    6.3811 O   0  0  0  0  0  0  0  0  0  0  0  0
    8.1666   -4.2429    8.4274 C   0  0  0  0  0  0  0  0  0  0  0  0
    6.7018   -4.5444    8.3652 N   0  0  0  0  0  0  0  0  0  0  0  0
   10.1068  -10.5578    5.3875 C   0  0  2  0  0  0  0  0  0  0  0  0
   10.5660  -11.9266    5.4288 N   0  0  0  0  0  0  0  0  0  0  0  0
   10.5187   -9.9028    4.0076 C   0  0  0  0  0  0  0  0  0  0  0  0
   10.0224   -8.3891    3.9493 C   0  0  2  0  0  0  0  0  0  0  0  0
   10.3957   -7.7803    2.6457 N   0  0  0  0  0  0  0  0  0  0  0  0
   10.6629   -7.5791    5.1703 C   0  0  2  0  0  0  0  0  0  0  0  0
   10.2232   -8.2743    6.5287 C   0  0  2  0  0  0  0  0  0  0  0  0
   10.7881   -7.5548    7.6271 O   0  0  0  0  0  0  0  0  0  0  0  0
   10.7178   -9.7739    6.5709 C   0  0  1  0  0  0  0  0  0  0  0  0
   10.2909  -10.3997    7.8066 O   0  0  0  0  0  0  0  0  0  0  0  0
    9.0563  -10.2177    8.4129 C   0  0  2  0  0  0  0  0  0  0  0  0
    8.4497  -11.6401    8.6846 C   0  0  2  0  0  0  0  0  0  0  0  0
    9.3223  -12.3789    9.4770 O   0  0  0  0  0  0  0  0  0  0  0  0
    8.1130  -12.4054    7.3346 C   0  0  1  0  0  0  0  0  0  0  0  0
    7.5253  -13.7516    7.6164 N   0  0  0  0  0  0  0  0  0  0  0  0
    7.1108  -11.5131    6.4799 C   0  0  2  0  0  0  0  0  0  0  0  0
    6.7653  -12.1687    5.2534 O   0  0  0  0  0  0  0  0  0  0  0  0
    7.7985  -10.1178    6.2170 C   0  0  2  0  0  0  0  0  0  0  0  0
    8.1545   -9.4341    7.5301 O   0  0  0  0  0  0  0  0  0  0  0  0
    6.8940   -9.2048    5.4241 C   0  0  0  0  0  0  0  0  0  0  0  0
    6.7786   -9.5981    4.0440 O   0  0  0  0  0  0  0  0  0  0  0  0
    9.2022   -4.8187    2.8144 O   0  0  0  0  0  0  0  0  0  0  0  0
    9.0286   -2.2098    3.9497 O   0  0  0  0  0  0  0  0  0  0  0  0
   11.9056  -12.2301    4.9812 C   0  0  0  0  0  0  0  0  0  0  0  0
   12.4951  -11.4441    4.1814 O   0  0  0  0  0  0  0  0  0  0  0  0
   12.5732  -13.5371    5.5089 C   0  0  2  0  0  0  0  0  0  0  0  0
   11.6921  -12.9108    9.2498 N   0  0  0  0  0  0  0  0  0  0  0  0
   12.7305  -13.4969    7.0604 C   0  0  0  0  0  0  0  0  0  0  0  0
   11.5254  -12.8651    7.7773 C   0  0  0  0  0  0  0  0  0  0  0  0
   13.7493  -13.7047    5.0542 O   0  0  0  0  0  0  0  0  0  0  0  0
  1  2  1  1  0  0  0
  1  3  1  0  0  0  0
  1  8  1  0  0  0  0
  3  4  1  0  0  0  0
  3 32  1  6  0  0  0
  4  5  1  0  0  0  0
  4 33  1  6  0  0  0
  5  6  1  1  0  0  0
  5  7  1  0  0  0  0
  7  8  1  0  0  0  0
  7  9  1  1  0  0  0
  9 10  1  0  0  0  0
 11 12  1  6  0  0  0
 11 13  1  0  0  0  0
 11 19  1  0  0  0  0
 12 34  1  0  0  0  0
 13 14  1  0  0  0  0
 14 15  1  6  0  0  0
 14 16  1  0  0  0  0
 16  2  1  1  0  0  0
 16 17  1  0  0  0  0
 17 18  1  1  0  0  0
 17 19  1  0  0  0  0
 19 20  1  1  0  0  0
 21 20  1  6  0  0  0
 21 22  1  0  0  0  0
 21 29  1  0  0  0  0
 22 23  1  6  0  0  0
 22 24  1  0  0  0  0
 24 25  1  1  0  0  0
 24 26  1  0  0  0  0
 26 27  1  6  0  0  0
 26 28  1  0  0  0  0
 28 29  1  0  0  0  0
 28 30  1  1  0  0  0
 30 31  1  0  0  0  0
 34 35  2  0  0  0  0
 36 34  1  6  0  0  0
 36 38  1  0  0  0  0
 36 40  1  0  0  0  0
 37 39  1  0  0  0  0
 38 39  1  0  0  0  0
M  END
>  <CHROM.1>
-144.66203422,52.88806805,79.13838299,44.58842988,-80.02188023,127.96217233
-72.66657029,-61.97299822,39.32767653,177.18532863,9.53981114,-8.85474592
6.10133637,-1.87457924,-0.79432485,2.78374206

>  <Name>
ligand

>  <RI>
0

>  <Rbt.Current_Directory>
/home/itssahil/PROJECTS/Mol_Feturizer/New_Systems/rnas/4P20

>  <Rbt.Executable>
rbdock ($Id: //depot/dev/client3/rdock/2013.1/src/exe/rbdock.cxx#4 $)

>  <Rbt.Library>
libRbt.so (2013.1, Build901 2013/11/27)

>  <Rbt.Parameter_File>
/export/apps/rDock/src/rDock_2013.1_src/data/scripts/dock_solv.prm

>  <Rbt.Receptor>
prm/blind_docking_80.prm

>  <SCORE>
55.5747

>  <SCORE.INTER>
10.3107

>  <SCORE.INTER.CONST>
1

>  <SCORE.INTER.POLAR>
0

>  <SCORE.INTER.ROT>
10

>  <SCORE.INTER.SOLV>
24.8759

>  <SCORE.INTER.VDW>
-11.6848

>  <SCORE.INTER.norm>
0.257767

>  <SCORE.INTRA>
13.6778

>  <SCORE.INTRA.DIHEDRAL>
-10.5747

>  <SCORE.INTRA.DIHEDRAL.0>
28.2802

>  <SCORE.INTRA.POLAR>
0

>  <SCORE.INTRA.POLAR.0>
0

>  <SCORE.INTRA.REPUL>
0.145088

>  <SCORE.INTRA.REPUL.0>
0

>  <SCORE.INTRA.SOLV>
8.69111

>  <SCORE.INTRA.SOLV.lig_0>
-101.981

>  <SCORE.INTRA.VDW>
13.8942

>  <SCORE.INTRA.VDW.0>
-5.72964

>  <SCORE.INTRA.norm>
0.341945

>  <SCORE.RESTR>
31.5862

>  <SCORE.RESTR.CAVITY>
31.5862

>  <SCORE.RESTR.norm>
0.789655

>  <SCORE.SYSTEM>
0

>  <SCORE.SYSTEM.CONST>
0

>  <SCORE.SYSTEM.DIHEDRAL>
0

>  <SCORE.SYSTEM.SOLV>
0

>  <SCORE.SYSTEM.norm>
0

>  <SCORE.heavy>
40

>  <SCORE.norm>
1.38937

>  <RMSD>
15.900

$$$$
ligand
 OpenBabel11021811513D
libRbt.so/2013.1/901 2013/11/27
 40 42  0  0  0  0  0  0  0  0999 V2000
    8.5349   -4.3590    3.8125 C   0  0  2  0  0  0  0  0  0  0  0  0
    9.8378   -4.9496    3.6832 O   0  0  0  0  0  0  0  0  0  0  0  0
    8.6105   -2.8001    3.6040 C   0  0  1  0  0  0  0  0  0  0  0  0
    9.4277   -2.1107    4.7353 C   0  0  2  0  0  0  0  0  0  0  0  0
    8.7185   -2.4225    6.0910 C   0  0  2  0  0  0  0  0  0  0  0  0
    9.4366   -1.7753    7.1634 O   0  0  0  0  0  0  0  0  0  0  0  0
    8.6960   -4.0000    6.2971 C   0  0  2  0  0  0  0  0  0  0  0  0
    7.9492   -4.6483    5.1603 O   0  0  0  0  0  0  0  0  0  0  0  0
    8.0030   -4.4098    7.5894 C   0  0  0  0  0  0  0  0  0  0  0  0
    8.0011   -5.8964    7.7646 N   0  0  0  0  0  0  0  0  0  0  0  0
    9.1553   -9.0815    5.0218 C   0  0  2  0  0  0  0  0  0  0  0  0
    9.3955  -10.4823    5.2795 N   0  0  0  0  0  0  0  0  0  0  0  0
    9.2622   -8.8032    3.4681 C   0  0  0  0  0  0  0  0  0  0  0  0
    9.0041   -7.2591    3.1685 C   0  0  2  0  0  0  0  0  0  0  0  0
    9.0886   -7.0025    1.7069 N   0  0  0  0  0  0  0  0  0  0  0  0
   10.0729   -6.3824    3.9722 C   0  0  2  0  0  0  0  0  0  0  0  0
    9.9276   -6.6975    5.5219 C   0  0  2  0  0  0  0  0  0  0  0  0
   10.8770   -5.9152    6.2498 O   0  0  0  0  0  0  0  0  0  0  0  0
   10.1818   -8.2309    5.8034 C   0  0  1  0  0  0  0  0  0  0  0  0
   10.0250   -8.5055    7.2178 O   0  0  0  0  0  0  0  0  0  0  0  0
    8.8697   -8.2863    7.9541 C   0  0  2  0  0  0  0  0  0  0  0  0
    9.0821   -8.9325    9.3691 C   0  0  2  0  0  0  0  0  0  0  0  0
   10.2056   -8.3786    9.9741 O   0  0  0  0  0  0  0  0  0  0  0  0
    9.1970  -10.5140    9.2841 C   0  0  1  0  0  0  0  0  0  0  0  0
    9.3862  -11.1093   10.6430 N   0  0  0  0  0  0  0  0  0  0  0  0
    7.8836  -11.0833    8.5899 C   0  0  2  0  0  0  0  0  0  0  0  0
    7.9336  -12.5127    8.5012 O   0  0  0  0  0  0  0  0  0  0  0  0
    7.7546  -10.4188    7.1648 C   0  0  2  0  0  0  0  0  0  0  0  0
    7.6985   -8.9014    7.2783 O   0  0  0  0  0  0  0  0  0  0  0  0
    6.5138  -10.8981    6.4499 C   0  0  0  0  0  0  0  0  0  0  0  0
    6.1388  -10.0434    5.3536 O   0  0  0  0  0  0  0  0  0  0  0  0
    9.2120   -2.5412    2.3021 O   0  0  0  0  0  0  0  0  0  0  0  0
    9.4504   -0.7554    4.5109 O   0  0  0  0  0  0  0  0  0  0  0  0
   10.7486  -10.9845    5.2158 C   0  0  0  0  0  0  0  0  0  0  0  0
   11.6201  -10.3609    4.5402 O   0  0  0  0  0  0  0  0  0  0  0  0
   11.0774  -12.2971    5.9914 C   0  0  2  0  0  0  0  0  0  0  0  0
   13.0605  -13.2517    8.3469 N   0  0  0  0  0  0  0  0  0  0  0  0
   11.0261  -12.0628    7.5328 C   0  0  0  0  0  0  0  0  0  0  0  0
   11.5779  -13.2457    8.3460 C   0  0  0  0  0  0  0  0  0  0  0  0
   12.2511  -12.7258    5.7535 O   0  0  0  0  0  0  0  0  0  0  0  0
  1  2  1  1  0  0  0
  1  3  1  0  0  0  0
  1  8  1  0  0  0  0
  3  4  1  0  0  0  0
  3 32  1  6  0  0  0
  4  5  1  0  0  0  0
  4 33  1  6  0  0  0
  5  6  1  1  0  0  0
  5  7  1  0  0  0  0
  7  8  1  0  0  0  0
  7  9  1  1  0  0  0
  9 10  1  0  0  0  0
 11 12  1  6  0  0  0
 11 13  1  0  0  0  0
 11 19  1  0  0  0  0
 12 34  1  0  0  0  0
 13 14  1  0  0  0  0
 14 15  1  6  0  0  0
 14 16  1  0  0  0  0
 16  2  1  1  0  0  0
 16 17  1  0  0  0  0
 17 18  1  1  0  0  0
 17 19  1  0  0  0  0
 19 20  1  1  0  0  0
 21 20  1  6  0  0  0
 21 22  1  0  0  0  0
 21 29  1  0  0  0  0
 22 23  1  6  0  0  0
 22 24  1  0  0  0  0
 24 25  1  1  0  0  0
 24 26  1  0  0  0  0
 26 27  1  6  0  0  0
 26 28  1  0  0  0  0
 28 29  1  0  0  0  0
 28 30  1  1  0  0  0
 30 31  1  0  0  0  0
 34 35  2  0  0  0  0
 36 34  1  6  0  0  0
 36 38  1  0  0  0  0
 36 40  1  0  0  0  0
 37 39  1  0  0  0  0
 38 39  1  0  0  0  0
M  END
>  <CHROM.1>
173.51834306,50.97338177,-179.68496902,75.40483327,-60.48581372,171.22466879
162.33943122,-69.11514483,-169.91132572,78.13887000,9.37680976,-7.84831483
6.15911352,-1.96877208,-1.27883964,2.41945862

>  <Name>
ligand

>  <RI>
0

>  <Rbt.Current_Directory>
/home/itssahil/PROJECTS/Mol_Feturizer/New_Systems/rnas/4P20

>  <Rbt.Executable>
rbdock ($Id: //depot/dev/client3/rdock/2013.1/src/exe/rbdock.cxx#4 $)

>  <Rbt.Library>
libRbt.so (2013.1, Build901 2013/11/27)

>  <Rbt.Parameter_File>
/export/apps/rDock/src/rDock_2013.1_src/data/scripts/dock_solv.prm

>  <Rbt.Receptor>
prm/blind_docking_80.prm

>  <SCORE>
34.4813

>  <SCORE.INTER>
10.1028

>  <SCORE.INTER.CONST>
1

>  <SCORE.INTER.POLAR>
0

>  <SCORE.INTER.ROT>
10

>  <SCORE.INTER.SOLV>
22.9759

>  <SCORE.INTER.VDW>
-11.1901

>  <SCORE.INTER.norm>
0.25257

>  <SCORE.INTRA>
-1.60508

>  <SCORE.INTRA.DIHEDRAL>
-23.6805

>  <SCORE.INTRA.DIHEDRAL.0>
28.2802

>  <SCORE.INTRA.POLAR>
0

>  <SCORE.INTRA.POLAR.0>
0

>  <SCORE.INTRA.REPUL>
0

>  <SCORE.INTRA.REPUL.0>
0

>  <SCORE.INTRA.SOLV>
10.454

>  <SCORE.INTRA.SOLV.lig_0>
-101.981

>  <SCORE.INTRA.VDW>
5.00817

>  <SCORE.INTRA.VDW.0>
-5.72964

>  <SCORE.INTRA.norm>
-0.0401269

>  <SCORE.RESTR>
25.9835

>  <SCORE.RESTR.CAVITY>
25.9835

>  <SCORE.RESTR.norm>
0.649589

>  <SCORE.SYSTEM>
0

>  <SCORE.SYSTEM.CONST>
0

>  <SCORE.SYSTEM.DIHEDRAL>
0

>  <SCORE.SYSTEM.SOLV>
0

>  <SCORE.SYSTEM.norm>
0

>  <SCORE.heavy>
40

>  <SCORE.norm>
0.862032

>  <RMSD>
15.933

$$$$
ligand
 OpenBabel11021811513D
libRbt.so/2013.1/901 2013/11/27
 40 42  0  0  0  0  0  0  0  0999 V2000
    8.6671   -4.6346    5.2450 C   0  0  2  0  0  0  0  0  0  0  0  0
    9.7304   -5.3525    4.5993 O   0  0  0  0  0  0  0  0  0  0  0  0
    7.4368   -4.4766    4.2750 C   0  0  1  0  0  0  0  0  0  0  0  0
    7.7835   -3.5766    3.0533 C   0  0  2  0  0  0  0  0  0  0  0  0
    8.2011   -2.1747    3.5996 C   0  0  2  0  0  0  0  0  0  0  0  0
    8.5056   -1.3030    2.4897 O   0  0  0  0  0  0  0  0  0  0  0  0
    9.4717   -2.3579    4.5395 C   0  0  2  0  0  0  0  0  0  0  0  0
    9.1275   -3.2779    5.6820 O   0  0  0  0  0  0  0  0  0  0  0  0
    9.9467   -1.0426    5.1415 C   0  0  0  0  0  0  0  0  0  0  0  0
   11.2016   -1.2236    5.9371 N   0  0  0  0  0  0  0  0  0  0  0  0
   10.3716   -9.2423    6.5456 C   0  0  2  0  0  0  0  0  0  0  0  0
   11.0537  -10.3525    7.1690 N   0  0  0  0  0  0  0  0  0  0  0  0
   10.9280   -9.0353    5.0792 C   0  0  0  0  0  0  0  0  0  0  0  0
   10.1873   -7.8094    4.3796 C   0  0  2  0  0  0  0  0  0  0  0  0
   10.6996   -7.6267    2.9962 N   0  0  0  0  0  0  0  0  0  0  0  0
   10.4098   -6.4914    5.2573 C   0  0  2  0  0  0  0  0  0  0  0  0
    9.8383   -6.7490    6.7164 C   0  0  2  0  0  0  0  0  0  0  0  0
   10.0292   -5.5744    7.5081 O   0  0  0  0  0  0  0  0  0  0  0  0
   10.5780   -7.9683    7.3956 C   0  0  1  0  0  0  0  0  0  0  0  0
   10.0309   -8.2034    8.7170 O   0  0  0  0  0  0  0  0  0  0  0  0
    8.7091   -7.9991    9.0857 C   0  0  2  0  0  0  0  0  0  0  0  0
    8.3388   -9.0989   10.1433 C   0  0  2  0  0  0  0  0  0  0  0  0
    9.2068   -9.0187   11.2274 O   0  0  0  0  0  0  0  0  0  0  0  0
    8.3468  -10.5543    9.5082 C   0  0  1  0  0  0  0  0  0  0  0  0
    7.9795  -11.5841   10.5287 N   0  0  0  0  0  0  0  0  0  0  0  0
    7.3338  -10.5801    8.2817 C   0  0  2  0  0  0  0  0  0  0  0  0
    7.2953  -11.8804    7.6807 O   0  0  0  0  0  0  0  0  0  0  0  0
    7.7867   -9.4776    7.2481 C   0  0  2  0  0  0  0  0  0  0  0  0
    7.8176   -8.1029    7.9021 O   0  0  0  0  0  0  0  0  0  0  0  0
    6.8559   -9.4287    6.0599 C   0  0  0  0  0  0  0  0  0  0  0  0
    7.5020   -8.9465    4.8671 O   0  0  0  0  0  0  0  0  0  0  0  0
    7.0260   -5.8046    3.8371 O   0  0  0  0  0  0  0  0  0  0  0  0
    6.6747   -3.4631    2.2499 O   0  0  0  0  0  0  0  0  0  0  0  0
   10.6306  -11.6984    6.8585 C   0  0  0  0  0  0  0  0  0  0  0  0
    9.4571  -11.9058    6.4285 O   0  0  0  0  0  0  0  0  0  0  0  0
   11.6549  -12.8542    7.0761 C   0  0  2  0  0  0  0  0  0  0  0  0
   13.1022  -13.7613   10.5694 N   0  0  0  0  0  0  0  0  0  0  0  0
   12.4099  -12.6839    8.4305 C   0  0  0  0  0  0  0  0  0  0  0  0
   12.5717  -14.0020    9.2061 C   0  0  0  0  0  0  0  0  0  0  0  0
   12.5618  -12.8795    6.1845 O   0  0  0  0  0  0  0  0  0  0  0  0
  1  2  1  6  0  0  0
  1  3  1  0  0  0  0
  1  8  1  0  0  0  0
  3  4  1  0  0  0  0
  3 32  1  6  0  0  0
  4  5  1  0  0  0  0
  4 33  1  6  0  0  0
  5  6  1  6  0  0  0
  5  7  1  0  0  0  0
  7  8  1  0  0  0  0
  7  9  1  1  0  0  0
  9 10  1  0  0  0  0
 11 12  1  1  0  0  0
 11 13  1  0  0  0  0
 11 19  1  0  0  0  0
 12 34  1  0  0  0  0
 13 14  1  0  0  0  0
 14 15  1  6  0  0  0
 14 16  1  0  0  0  0
 16  2  1  6  0  0  0
 16 17  1  0  0  0  0
 17 18  1  1  0  0  0
 17 19  1  0  0  0  0
 19 20  1  1  0  0  0
 21 20  1  6  0  0  0
 21 22  1  0  0  0  0
 21 29  1  0  0  0  0
 22 23  1  1  0  0  0
 22 24  1  0  0  0  0
 24 25  1  1  0  0  0
 24 26  1  0  0  0  0
 26 27  1  6  0  0  0
 26 28  1  0  0  0  0
 28 29  1  0  0  0  0
 28 30  1  6  0  0  0
 30 31  1  0  0  0  0
 34 35  2  0  0  0  0
 36 34  1  6  0  0  0
 36 38  1  0  0  0  0
 36 40  1  0  0  0  0
 37 39  1  0  0  0  0
 38 39  1  0  0  0  0
M  END
>  <CHROM.1>
-131.20840735,118.54423950,-175.69830772,-80.45962138,-86.80498175,145.70380204
-152.97318833,43.58014841,137.57466918,-171.21532219,9.41566044,-7.83596540
6.47627592,1.85498790,0.89942180,-0.69318246

>  <Name>
ligand

>  <RI>
0

>  <Rbt.Current_Directory>
/home/itssahil/PROJECTS/Mol_Feturizer/New_Systems/rnas/4P20

>  <Rbt.Executable>
rbdock ($Id: //depot/dev/client3/rdock/2013.1/src/exe/rbdock.cxx#4 $)

>  <Rbt.Library>
libRbt.so (2013.1, Build901 2013/11/27)

>  <Rbt.Parameter_File>
/export/apps/rDock/src/rDock_2013.1_src/data/scripts/dock_solv.prm

>  <Rbt.Receptor>
prm/blind_docking_80.prm

>  <SCORE>
43.1798

>  <SCORE.INTER>
6.9631

>  <SCORE.INTER.CONST>
1

>  <SCORE.INTER.POLAR>
0

>  <SCORE.INTER.ROT>
10

>  <SCORE.INTER.SOLV>
18.2577

>  <SCORE.INTER.VDW>
-11.7105

>  <SCORE.INTER.norm>
0.174077

>  <SCORE.INTRA>
4.20114

>  <SCORE.INTRA.DIHEDRAL>
1.01569

>  <SCORE.INTRA.DIHEDRAL.0>
28.2802

>  <SCORE.INTRA.POLAR>
0

>  <SCORE.INTRA.POLAR.0>
0

>  <SCORE.INTRA.REPUL>
0.00789945

>  <SCORE.INTRA.REPUL.0>
0

>  <SCORE.INTRA.SOLV>
1.31594

>  <SCORE.INTRA.SOLV.lig_0>
-101.981

>  <SCORE.INTRA.VDW>
2.99583

>  <SCORE.INTRA.VDW.0>
-5.72964

>  <SCORE.INTRA.norm>
0.105029

>  <SCORE.RESTR>
32.0155

>  <SCORE.RESTR.CAVITY>
32.0155

>  <SCORE.RESTR.norm>
0.800388

>  <SCORE.SYSTEM>
0

>  <SCORE.SYSTEM.CONST>
0

>  <SCORE.SYSTEM.DIHEDRAL>
0

>  <SCORE.SYSTEM.SOLV>
0

>  <SCORE.SYSTEM.norm>
0

>  <SCORE.heavy>
40

>  <SCORE.norm>
1.07949

>  <RMSD>
15.936

$$$$
ligand
 OpenBabel11021811513D
libRbt.so/2013.1/901 2013/11/27
 40 42  0  0  0  0  0  0  0  0999 V2000
    9.6690   -4.8172    4.8570 C   0  0  2  0  0  0  0  0  0  0  0  0
   10.1342   -5.7480    3.8669 O   0  0  0  0  0  0  0  0  0  0  0  0
    8.1312   -5.0197    5.1280 C   0  0  1  0  0  0  0  0  0  0  0  0
    7.2779   -4.6635    3.8758 C   0  0  2  0  0  0  0  0  0  0  0  0
    7.5535   -3.1675    3.5232 C   0  0  2  0  0  0  0  0  0  0  0  0
    6.7567   -2.7939    2.3787 O   0  0  0  0  0  0  0  0  0  0  0  0
    9.1047   -3.0007    3.2107 C   0  0  2  0  0  0  0  0  0  0  0  0
    9.9105   -3.4058    4.4177 O   0  0  0  0  0  0  0  0  0  0  0  0
    9.4808   -1.5644    2.8735 C   0  0  0  0  0  0  0  0  0  0  0  0
    9.4999   -0.6999    4.0952 N   0  0  0  0  0  0  0  0  0  0  0  0
    9.4533   -9.7641    5.5214 C   0  0  2  0  0  0  0  0  0  0  0  0
    9.6460  -11.1682    5.8002 N   0  0  0  0  0  0  0  0  0  0  0  0
    9.2754   -9.5534    3.9636 C   0  0  0  0  0  0  0  0  0  0  0  0
    9.0664   -8.0067    3.6398 C   0  0  2  0  0  0  0  0  0  0  0  0
    8.8830   -7.8124    2.1775 N   0  0  0  0  0  0  0  0  0  0  0  0
   10.3260   -7.1824    4.1790 C   0  0  2  0  0  0  0  0  0  0  0  0
   10.4631   -7.4270    5.7421 C   0  0  2  0  0  0  0  0  0  0  0  0
   11.5849   -6.6908    6.2347 O   0  0  0  0  0  0  0  0  0  0  0  0
   10.6655   -8.9634    6.0484 C   0  0  1  0  0  0  0  0  0  0  0  0
   10.7677   -9.1721    7.4790 O   0  0  0  0  0  0  0  0  0  0  0  0
    9.9483   -8.5895    8.4351 C   0  0  2  0  0  0  0  0  0  0  0  0
    9.9777   -9.5104    9.7063 C   0  0  2  0  0  0  0  0  0  0  0  0
   11.2878   -9.6539   10.1517 O   0  0  0  0  0  0  0  0  0  0  0  0
    9.3088  -10.9231    9.4269 C   0  0  1  0  0  0  0  0  0  0  0  0
    9.3362  -11.7788   10.6532 N   0  0  0  0  0  0  0  0  0  0  0  0
    7.8163  -10.6898    8.9275 C   0  0  2  0  0  0  0  0  0  0  0  0
    7.1635  -11.9399    8.6733 O   0  0  0  0  0  0  0  0  0  0  0  0
    7.8672   -9.7893    7.6331 C   0  0  2  0  0  0  0  0  0  0  0  0
    8.5597   -8.4645    7.9226 O   0  0  0  0  0  0  0  0  0  0  0  0
    6.4789   -9.5070    7.1102 C   0  0  0  0  0  0  0  0  0  0  0  0
    6.1420  -10.3116    5.9649 O   0  0  0  0  0  0  0  0  0  0  0  0
    7.9147   -6.4059    5.5222 O   0  0  0  0  0  0  0  0  0  0  0  0
    5.9486   -4.8455    4.1715 O   0  0  0  0  0  0  0  0  0  0  0  0
   10.9148  -11.7789    5.4773 C   0  0  0  0  0  0  0  0  0  0  0  0
   11.6598  -11.2544    4.5971 O   0  0  0  0  0  0  0  0  0  0  0  0
   11.3125  -13.0815    6.2373 C   0  0  2  0  0  0  0  0  0  0  0  0
    7.7041  -14.2661    7.0212 N   0  0  0  0  0  0  0  0  0  0  0  0
   10.0971  -14.0522    6.3558 C   0  0  0  0  0  0  0  0  0  0  0  0
    8.9528  -13.4911    7.2165 C   0  0  0  0  0  0  0  0  0  0  0  0
   11.6837  -12.8571    7.4331 O   0  0  0  0  0  0  0  0  0  0  0  0
  1  2  1  6  0  0  0
  1  3  1  0  0  0  0
  1  8  1  0  0  0  0
  3  4  1  0  0  0  0
  3 32  1  6  0  0  0
  4  5  1  0  0  0  0
  4 33  1  1  0  0  0
  5  6  1  6  0  0  0
  5  7  1  0  0  0  0
  7  8  1  0  0  0  0
  7  9  1  1  0  0  0
  9 10  1  0  0  0  0
 11 12  1  6  0  0  0
 11 13  1  0  0  0  0
 11 19  1  0  0  0  0
 12 34  1  0  0  0  0
 13 14  1  0  0  0  0
 14 15  1  6  0  0  0
 14 16  1  0  0  0  0
 16  2  1  1  0  0  0
 16 17  1  0  0  0  0
 17 18  1  6  0  0  0
 17 19  1  0  0  0  0
 19 20  1  1  0  0  0
 21 20  1  6  0  0  0
 21 22  1  0  0  0  0
 21 29  1  0  0  0  0
 22 23  1  6  0  0  0
 22 24  1  0  0  0  0
 24 25  1  1  0  0  0
 24 26  1  0  0  0  0
 26 27  1  6  0  0  0
 26 28  1  0  0  0  0
 28 29  1  0  0  0  0
 28 30  1  1  0  0  0
 30 31  1  0  0  0  0
 34 35  2  0  0  0  0
 36 34  1  1  0  0  0
 36 38  1  0  0  0  0
 36 40  1  0  0  0  0
 37 39  1  0  0  0  0
 38 39  1  0  0  0  0
M  END
>  <CHROM.1>
-74.07010397,100.03517587,74.60999554,73.99246147,-75.46903687,156.04451933
-102.53437166,42.75958089,-64.94317391,165.33576673,9.18553382,-8.33164137
5.94651146,-1.73604898,-0.91751408,2.56083567

>  <Name>
ligand

>  <RI>
0

>  <Rbt.Current_Directory>
/home/itssahil/PROJECTS/Mol_Feturizer/New_Systems/rnas/4P20

>  <Rbt.Executable>
rbdock ($Id: //depot/dev/client3/rdock/2013.1/src/exe/rbdock.cxx#4 $)

>  <Rbt.Library>
libRbt.so (2013.1, Build901 2013/11/27)

>  <Rbt.Parameter_File>
/export/apps/rDock/src/rDock_2013.1_src/data/scripts/dock_solv.prm

>  <Rbt.Receptor>
prm/blind_docking_80.prm

>  <SCORE>
53.0696

>  <SCORE.INTER>
19.6782

>  <SCORE.INTER.CONST>
1

>  <SCORE.INTER.POLAR>
0

>  <SCORE.INTER.ROT>
10

>  <SCORE.INTER.SOLV>
19.0384

>  <SCORE.INTER.VDW>
-3.49401

>  <SCORE.INTER.norm>
0.491955

>  <SCORE.INTRA>
4.87928

>  <SCORE.INTRA.DIHEDRAL>
-11.2398

>  <SCORE.INTRA.DIHEDRAL.0>
28.2802

>  <SCORE.INTRA.POLAR>
0

>  <SCORE.INTRA.POLAR.0>
0

>  <SCORE.INTRA.REPUL>
0.451016

>  <SCORE.INTRA.REPUL.0>
0

>  <SCORE.INTRA.SOLV>
7.14153

>  <SCORE.INTRA.SOLV.lig_0>
-101.981

>  <SCORE.INTRA.VDW>
4.67336

>  <SCORE.INTRA.VDW.0>
-5.72964

>  <SCORE.INTRA.norm>
0.121982

>  <SCORE.RESTR>
28.5121

>  <SCORE.RESTR.CAVITY>
28.5121

>  <SCORE.RESTR.norm>
0.712804

>  <SCORE.SYSTEM>
0

>  <SCORE.SYSTEM.CONST>
0

>  <SCORE.SYSTEM.DIHEDRAL>
0

>  <SCORE.SYSTEM.SOLV>
0

>  <SCORE.SYSTEM.norm>
0

>  <SCORE.heavy>
40

>  <SCORE.norm>
1.32674

>  <RMSD>
16.004

$$$$
ligand
 OpenBabel11021811513D
libRbt.so/2013.1/901 2013/11/27
 40 42  0  0  0  0  0  0  0  0999 V2000
    8.2278  -12.0829    7.7673 C   0  0  2  0  0  0  0  0  0  0  0  0
    8.1936  -11.9553    6.3371 O   0  0  0  0  0  0  0  0  0  0  0  0
    7.8997  -10.7046    8.4542 C   0  0  1  0  0  0  0  0  0  0  0  0
    9.0022   -9.6445    8.1649 C   0  0  2  0  0  0  0  0  0  0  0  0
   10.3513  -10.1981    8.7231 C   0  0  2  0  0  0  0  0  0  0  0  0
   11.3949   -9.2268    8.4949 O   0  0  0  0  0  0  0  0  0  0  0  0
   10.6805  -11.5664    7.9808 C   0  0  2  0  0  0  0  0  0  0  0  0
    9.5719  -12.5561    8.2288 O   0  0  0  0  0  0  0  0  0  0  0  0
   11.9748  -12.2000    8.4721 C   0  0  0  0  0  0  0  0  0  0  0  0
   12.5713  -13.1037    7.4386 N   0  0  0  0  0  0  0  0  0  0  0  0
    7.6234   -8.9297    3.1985 C   0  0  2  0  0  0  0  0  0  0  0  0
    7.3991   -7.6465    2.5744 N   0  0  0  0  0  0  0  0  0  0  0  0
    6.3949   -9.2877    4.1288 C   0  0  0  0  0  0  0  0  0  0  0  0
    6.6304  -10.7003    4.8288 C   0  0  2  0  0  0  0  0  0  0  0  0
    5.4680  -11.0426    5.6896 N   0  0  0  0  0  0  0  0  0  0  0  0
    7.9834  -10.6458    5.6792 C   0  0  2  0  0  0  0  0  0  0  0  0
    9.1831  -10.2823    4.7043 C   0  0  2  0  0  0  0  0  0  0  0  0
   10.3986  -10.2349    5.4551 O   0  0  0  0  0  0  0  0  0  0  0  0
    8.9345   -8.8829    4.0150 C   0  0  1  0  0  0  0  0  0  0  0  0
   10.0271   -8.5759    3.1135 O   0  0  0  0  0  0  0  0  0  0  0  0
   10.6182   -7.3295    2.9649 C   0  0  2  0  0  0  0  0  0  0  0  0
   12.1384   -7.4820    3.3265 C   0  0  2  0  0  0  0  0  0  0  0  0
   12.7216   -8.4429    2.5070 O   0  0  0  0  0  0  0  0  0  0  0  0
   12.3474   -7.8331    4.8609 C   0  0  1  0  0  0  0  0  0  0  0  0
   13.8016   -7.9613    5.1860 N   0  0  0  0  0  0  0  0  0  0  0  0
   11.6643   -6.6971    5.7407 C   0  0  2  0  0  0  0  0  0  0  0  0
   11.8374   -6.9627    7.1382 O   0  0  0  0  0  0  0  0  0  0  0  0
   10.1376   -6.6251    5.3496 C   0  0  2  0  0  0  0  0  0  0  0  0
    9.9727   -6.3382    3.8633 O   0  0  0  0  0  0  0  0  0  0  0  0
    9.4239   -5.5497    6.1335 C   0  0  0  0  0  0  0  0  0  0  0  0
    8.5141   -6.0861    7.1119 O   0  0  0  0  0  0  0  0  0  0  0  0
    6.6043  -10.2475    7.9673 O   0  0  0  0  0  0  0  0  0  0  0  0
    8.6724   -8.4697    8.7964 O   0  0  0  0  0  0  0  0  0  0  0  0
    7.5385   -6.4475    3.3681 C   0  0  0  0  0  0  0  0  0  0  0  0
    7.4185   -6.5090    4.6278 O   0  0  0  0  0  0  0  0  0  0  0  0
    7.8301   -5.1086    2.6232 C   0  0  2  0  0  0  0  0  0  0  0  0
    9.7827   -3.2712    3.8500 N   0  0  0  0  0  0  0  0  0  0  0  0
    7.3939   -3.8835    3.4847 C   0  0  0  0  0  0  0  0  0  0  0  0
    8.4617   -3.4438    4.5004 C   0  0  0  0  0  0  0  0  0  0  0  0
    7.1826   -5.0032    1.5334 O   0  0  0  0  0  0  0  0  0  0  0  0
  1  2  1  6  0  0  0
  1  3  1  0  0  0  0
  1  8  1  0  0  0  0
  3  4  1  0  0  0  0
  3 32  1  6  0  0  0
  4  5  1  0  0  0  0
  4 33  1  1  0  0  0
  5  6  1  6  0  0  0
  5  7  1  0  0  0  0
  7  8  1  0  0  0  0
  7  9  1  1  0  0  0
  9 10  1  0  0  0  0
 11 12  1  1  0  0  0
 11 13  1  0  0  0  0
 11 19  1  0  0  0  0
 12 34  1  0  0  0  0
 13 14  1  0  0  0  0
 14 15  1  1  0  0  0
 14 16  1  0  0  0  0
 16  2  1  6  0  0  0
 16 17  1  0  0  0  0
 17 18  1  1  0  0  0
 17 19  1  0  0  0  0
 19 20  1  6  0  0  0
 21 20  1  1  0  0  0
 21 22  1  0  0  0  0
 21 29  1  0  0  0  0
 22 23  1  6  0  0  0
 22 24  1  0  0  0  0
 24 25  1  1  0  0  0
 24 26  1  0  0  0  0
 26 27  1  1  0  0  0
 26 28  1  0  0  0  0
 28 29  1  0  0  0  0
 28 30  1  1  0  0  0
 30 31  1  0  0  0  0
 34 35  2  0  0  0  0
 36 34  1  1  0  0  0
 36 38  1  0  0  0  0
 36 40  1  0  0  0  0
 37 39  1  0  0  0  0
 38 39  1  0  0  0  0
M  END
>  <CHROM.1>
4.64385750,-117.82017368,-155.70172423,74.33206571,101.06915796,120.27325782
-109.46339124,157.20817546,84.53441194,50.62714579,9.35606555,-8.47142109
5.47983239,1.44210102,0.17565226,2.53527714

>  <Name>
ligand

>  <RI>
0

>  <Rbt.Current_Directory>
/home/itssahil/PROJECTS/Mol_Feturizer/New_Systems/rnas/4P20

>  <Rbt.Executable>
rbdock ($Id: //depot/dev/client3/rdock/2013.1/src/exe/rbdock.cxx#4 $)

>  <Rbt.Library>
libRbt.so (2013.1, Build901 2013/11/27)

>  <Rbt.Parameter_File>
/export/apps/rDock/src/rDock_2013.1_src/data/scripts/dock_solv.prm

>  <Rbt.Receptor>
prm/blind_docking_80.prm

>  <SCORE>
85.1855

>  <SCORE.INTER>
44.0473

>  <SCORE.INTER.CONST>
1

>  <SCORE.INTER.POLAR>
0

>  <SCORE.INTER.ROT>
10

>  <SCORE.INTER.SOLV>
29.4869

>  <SCORE.INTER.VDW>
9.26926

>  <SCORE.INTER.norm>
1.10118

>  <SCORE.INTRA>
16.2929

>  <SCORE.INTRA.DIHEDRAL>
9.11767

>  <SCORE.INTRA.DIHEDRAL.0>
28.2802

>  <SCORE.INTRA.POLAR>
0

>  <SCORE.INTRA.POLAR.0>
0

>  <SCORE.INTRA.REPUL>
0.20554

>  <SCORE.INTRA.REPUL.0>
0

>  <SCORE.INTRA.SOLV>
10.6483

>  <SCORE.INTRA.SOLV.lig_0>
-101.981

>  <SCORE.INTRA.VDW>
5.38222

>  <SCORE.INTRA.VDW.0>
-5.72964

>  <SCORE.INTRA.norm>
0.407322

>  <SCORE.RESTR>
24.8453

>  <SCORE.RESTR.CAVITY>
24.8453

>  <SCORE.RESTR.norm>
0.621132

>  <SCORE.SYSTEM>
0

>  <SCORE.SYSTEM.CONST>
0

>  <SCORE.SYSTEM.DIHEDRAL>
0

>  <SCORE.SYSTEM.SOLV>
0

>  <SCORE.SYSTEM.norm>
0

>  <SCORE.heavy>
40

>  <SCORE.norm>
2.12964

>  <RMSD>
16.205

$$$$
ligand
 OpenBabel11021811513D
libRbt.so/2013.1/901 2013/11/27
 40 42  0  0  0  0  0  0  0  0999 V2000
    6.7677  -10.6068    8.9441 C   0  0  2  0  0  0  0  0  0  0  0  0
    7.1529   -9.2573    8.6385 O   0  0  0  0  0  0  0  0  0  0  0  0
    7.7826  -11.2563    9.9577 C   0  0  1  0  0  0  0  0  0  0  0  0
    9.1948  -11.4238    9.3250 C   0  0  2  0  0  0  0  0  0  0  0  0
    9.0476  -12.3437    8.0718 C   0  0  2  0  0  0  0  0  0  0  0  0
   10.3460  -12.5427    7.4726 O   0  0  0  0  0  0  0  0  0  0  0  0
    8.0532  -11.6431    7.0462 C   0  0  2  0  0  0  0  0  0  0  0  0
    6.7114  -11.4402    7.7008 O   0  0  0  0  0  0  0  0  0  0  0  0
    7.8266  -12.4759    5.7919 C   0  0  0  0  0  0  0  0  0  0  0  0
    7.0548  -11.7153    4.7592 N   0  0  0  0  0  0  0  0  0  0  0  0
   10.0978   -7.0046    6.2756 C   0  0  2  0  0  0  0  0  0  0  0  0
   11.2176   -6.7321    5.4049 N   0  0  0  0  0  0  0  0  0  0  0  0
   10.6010   -7.7849    7.5565 C   0  0  0  0  0  0  0  0  0  0  0  0
    9.3744   -8.0973    8.5254 C   0  0  2  0  0  0  0  0  0  0  0  0
    9.8514   -8.8159    9.7360 N   0  0  0  0  0  0  0  0  0  0  0  0
    8.2855   -8.9593    7.7329 C   0  0  2  0  0  0  0  0  0  0  0  0
    7.8142   -8.1367    6.4589 C   0  0  2  0  0  0  0  0  0  0  0  0
    6.8371   -8.8979    5.7453 O   0  0  0  0  0  0  0  0  0  0  0  0
    9.0397   -7.8310    5.5103 C   0  0  1  0  0  0  0  0  0  0  0  0
    8.5968   -7.0625    4.3640 O   0  0  0  0  0  0  0  0  0  0  0  0
    7.6650   -6.0351    4.3988 C   0  0  2  0  0  0  0  0  0  0  0  0
    7.7431   -5.2805    3.0242 C   0  0  2  0  0  0  0  0  0  0  0  0
    7.5047   -6.1734    1.9844 O   0  0  0  0  0  0  0  0  0  0  0  0
    9.1349   -4.5395    2.8363 C   0  0  1  0  0  0  0  0  0  0  0  0
    9.1830   -3.8176    1.5274 N   0  0  0  0  0  0  0  0  0  0  0  0
    9.3438   -3.5331    4.0507 C   0  0  2  0  0  0  0  0  0  0  0  0
   10.5845   -2.8282    3.9198 O   0  0  0  0  0  0  0  0  0  0  0  0
    9.2881   -4.3634    5.3911 C   0  0  2  0  0  0  0  0  0  0  0  0
    7.9623   -5.1018    5.5155 O   0  0  0  0  0  0  0  0  0  0  0  0
    9.4596   -3.4679    6.5949 C   0  0  0  0  0  0  0  0  0  0  0  0
    8.4538   -2.4406    6.6713 O   0  0  0  0  0  0  0  0  0  0  0  0
    7.8461  -10.4135   11.1450 O   0  0  0  0  0  0  0  0  0  0  0  0
   10.0334  -12.0045   10.2455 O   0  0  0  0  0  0  0  0  0  0  0  0
   11.8285   -7.8260    4.6859 C   0  0  0  0  0  0  0  0  0  0  0  0
   11.7040   -9.0105    5.1177 O   0  0  0  0  0  0  0  0  0  0  0  0
   12.6314   -7.4909    3.3914 C   0  0  2  0  0  0  0  0  0  0  0  0
   10.4672   -9.2123    2.3694 N   0  0  0  0  0  0  0  0  0  0  0  0
   11.6771   -7.0362    2.2442 C   0  0  0  0  0  0  0  0  0  0  0  0
   10.3106   -7.7410    2.2752 C   0  0  0  0  0  0  0  0  0  0  0  0
   13.2593   -8.4965    2.9302 O   0  0  0  0  0  0  0  0  0  0  0  0
  1  2  1  6  0  0  0
  1  3  1  0  0  0  0
  1  8  1  0  0  0  0
  3  4  1  0  0  0  0
  3 32  1  1  0  0  0
  4  5  1  0  0  0  0
  4 33  1  1  0  0  0
  5  6  1  6  0  0  0
  5  7  1  0  0  0  0
  7  8  1  0  0  0  0
  7  9  1  6  0  0  0
  9 10  1  0  0  0  0
 11 12  1  6  0  0  0
 11 13  1  0  0  0  0
 11 19  1  0  0  0  0
 12 34  1  0  0  0  0
 13 14  1  0  0  0  0
 14 15  1  1  0  0  0
 14 16  1  0  0  0  0
 16  2  1  1  0  0  0
 16 17  1  0  0  0  0
 17 18  1  6  0  0  0
 17 19  1  0  0  0  0
 19 20  1  6  0  0  0
 21 20  1  6  0  0  0
 21 22  1  0  0  0  0
 21 29  1  0  0  0  0
 22 23  1  6  0  0  0
 22 24  1  0  0  0  0
 24 25  1  6  0  0  0
 24 26  1  0  0  0  0
 26 27  1  6  0  0  0
 26 28  1  0  0  0  0
 28 29  1  0  0  0  0
 28 30  1  1  0  0  0
 30 31  1  0  0  0  0
 34 35  2  0  0  0  0
 36 34  1  1  0  0  0
 36 38  1  0  0  0  0
 36 40  1  0  0  0  0
 37 39  1  0  0  0  0
 38 39  1  0  0  0  0
M  END
>  <CHROM.1>
75.41825341,-120.83976849,-171.62494929,71.07690381,-80.17832045,166.99750759
58.82943607,-70.09101731,-33.63196173,-50.57606600,9.18552173,-8.02614590
5.89302239,1.91150751,-1.07070072,2.75975433

>  <Name>
ligand

>  <RI>
0

>  <Rbt.Current_Directory>
/home/itssahil/PROJECTS/Mol_Feturizer/New_Systems/rnas/4P20

>  <Rbt.Executable>
rbdock ($Id: //depot/dev/client3/rdock/2013.1/src/exe/rbdock.cxx#4 $)

>  <Rbt.Library>
libRbt.so (2013.1, Build901 2013/11/27)

>  <Rbt.Parameter_File>
/export/apps/rDock/src/rDock_2013.1_src/data/scripts/dock_solv.prm

>  <Rbt.Receptor>
prm/blind_docking_80.prm

>  <SCORE>
42.2859

>  <SCORE.INTER>
15.7088

>  <SCORE.INTER.CONST>
1

>  <SCORE.INTER.POLAR>
0

>  <SCORE.INTER.ROT>
10

>  <SCORE.INTER.SOLV>
22.38

>  <SCORE.INTER.VDW>
-7.25413

>  <SCORE.INTER.norm>
0.392721

>  <SCORE.INTRA>
0.964159

>  <SCORE.INTRA.DIHEDRAL>
-13.6716

>  <SCORE.INTRA.DIHEDRAL.0>
28.2802

>  <SCORE.INTRA.POLAR>
0

>  <SCORE.INTRA.POLAR.0>
0

>  <SCORE.INTRA.REPUL>
0

>  <SCORE.INTRA.REPUL.0>
0

>  <SCORE.INTRA.SOLV>
12.7194

>  <SCORE.INTRA.SOLV.lig_0>
-101.981

>  <SCORE.INTRA.VDW>
1.44022

>  <SCORE.INTRA.VDW.0>
-5.72964

>  <SCORE.INTRA.norm>
0.024104

>  <SCORE.RESTR>
25.6129

>  <SCORE.RESTR.CAVITY>
25.6129

>  <SCORE.RESTR.norm>
0.640323

>  <SCORE.SYSTEM>
0

>  <SCORE.SYSTEM.CONST>
0

>  <SCORE.SYSTEM.DIHEDRAL>
0

>  <SCORE.SYSTEM.SOLV>
0

>  <SCORE.SYSTEM.norm>
0

>  <SCORE.heavy>
40

>  <SCORE.norm>
1.05715

>  <RMSD>
16.207

$$$$
ligand
 OpenBabel11021811513D
libRbt.so/2013.1/901 2013/11/27
 40 42  0  0  0  0  0  0  0  0999 V2000
    7.8565  -11.4605    9.0931 C   0  0  2  0  0  0  0  0  0  0  0  0
    7.3659  -11.7452    7.7735 O   0  0  0  0  0  0  0  0  0  0  0  0
    7.5926   -9.9544    9.4690 C   0  0  1  0  0  0  0  0  0  0  0  0
    8.4141   -8.9874    8.5675 C   0  0  2  0  0  0  0  0  0  0  0  0
    9.9265   -9.3189    8.7702 C   0  0  2  0  0  0  0  0  0  0  0  0
   10.7221   -8.4214    7.9665 O   0  0  0  0  0  0  0  0  0  0  0  0
   10.1730  -10.8311    8.3410 C   0  0  2  0  0  0  0  0  0  0  0  0
    9.3244  -11.7426    9.1890 O   0  0  0  0  0  0  0  0  0  0  0  0
   11.6227  -11.2599    8.5220 C   0  0  0  0  0  0  0  0  0  0  0  0
   11.9823  -12.3840    7.6013 N   0  0  0  0  0  0  0  0  0  0  0  0
   10.3554   -9.7901    5.2103 C   0  0  2  0  0  0  0  0  0  0  0  0
   11.0368   -9.3420    4.0181 N   0  0  0  0  0  0  0  0  0  0  0  0
   10.2956  -11.3710    5.2231 C   0  0  0  0  0  0  0  0  0  0  0  0
    9.5414  -11.8806    6.5317 C   0  0  2  0  0  0  0  0  0  0  0  0
    9.5006  -13.3663    6.5504 N   0  0  0  0  0  0  0  0  0  0  0  0
    8.0675  -11.2612    6.5631 C   0  0  2  0  0  0  0  0  0  0  0  0
    8.1806   -9.6773    6.5472 C   0  0  2  0  0  0  0  0  0  0  0  0
    6.8673   -9.1138    6.5789 O   0  0  0  0  0  0  0  0  0  0  0  0
    8.9331   -9.1869    5.2478 C   0  0  1  0  0  0  0  0  0  0  0  0
    9.0464   -7.7421    5.2588 O   0  0  0  0  0  0  0  0  0  0  0  0
    8.0063   -6.8579    5.5065 C   0  0  2  0  0  0  0  0  0  0  0  0
    7.6130   -6.1966    4.1380 C   0  0  2  0  0  0  0  0  0  0  0  0
    7.2590   -7.1839    3.2242 O   0  0  0  0  0  0  0  0  0  0  0  0
    8.7781   -5.2797    3.5695 C   0  0  1  0  0  0  0  0  0  0  0  0
    8.3780   -4.6504    2.2731 N   0  0  0  0  0  0  0  0  0  0  0  0
    9.1308   -4.1724    4.6562 C   0  0  2  0  0  0  0  0  0  0  0  0
   10.1719   -3.3087    4.1833 O   0  0  0  0  0  0  0  0  0  0  0  0
    9.5485   -4.9076    5.9880 C   0  0  2  0  0  0  0  0  0  0  0  0
    8.4297   -5.8169    6.4779 O   0  0  0  0  0  0  0  0  0  0  0  0
    9.8799   -3.9159    7.0776 C   0  0  0  0  0  0  0  0  0  0  0  0
    8.7623   -3.0773    7.4247 O   0  0  0  0  0  0  0  0  0  0  0  0
    6.1647   -9.6936    9.3380 O   0  0  0  0  0  0  0  0  0  0  0  0
    8.1561   -7.6921    8.9461 O   0  0  0  0  0  0  0  0  0  0  0  0
   11.6598   -8.0387    4.0152 C   0  0  0  0  0  0  0  0  0  0  0  0
   11.2627   -7.1495    4.8256 O   0  0  0  0  0  0  0  0  0  0  0  0
   12.8090   -7.7811    2.9927 C   0  0  2  0  0  0  0  0  0  0  0  0
   13.7802   -9.1315    5.5303 N   0  0  0  0  0  0  0  0  0  0  0  0
   14.1455   -7.4503    3.7261 C   0  0  0  0  0  0  0  0  0  0  0  0
   14.7274   -8.6464    4.4980 C   0  0  0  0  0  0  0  0  0  0  0  0
   12.5802   -6.7815    2.2400 O   0  0  0  0  0  0  0  0  0  0  0  0
  1  2  1  6  0  0  0
  1  3  1  0  0  0  0
  1  8  1  0  0  0  0
  3  4  1  0  0  0  0
  3 32  1  6  0  0  0
  4  5  1  0  0  0  0
  4 33  1  1  0  0  0
  5  6  1  6  0  0  0
  5  7  1  0  0  0  0
  7  8  1  0  0  0  0
  7  9  1  1  0  0  0
  9 10  1  0  0  0  0
 11 12  1  6  0  0  0
 11 13  1  0  0  0  0
 11 19  1  0  0  0  0
 12 34  1  0  0  0  0
 13 14  1  0  0  0  0
 14 15  1  6  0  0  0
 14 16  1  0  0  0  0
 16  2  1  1  0  0  0
 16 17  1  0  0  0  0
 17 18  1  6  0  0  0
 17 19  1  0  0  0  0
 19 20  1  1  0  0  0
 21 20  1  6  0  0  0
 21 22  1  0  0  0  0
 21 29  1  0  0  0  0
 22 23  1  6  0  0  0
 22 24  1  0  0  0  0
 24 25  1  6  0  0  0
 24 26  1  0  0  0  0
 26 27  1  6  0  0  0
 26 28  1  0  0  0  0
 28 29  1  0  0  0  0
 28 30  1  1  0  0  0
 30 31  1  0  0  0  0
 34 35  2  0  0  0  0
 36 34  1  1  0  0  0
 36 38  1  0  0  0  0
 36 40  1  0  0  0  0
 37 39  1  0  0  0  0
 38 39  1  0  0  0  0
M  END
>  <CHROM.1>
73.79037861,60.91991052,-154.60554319,-156.47546599,-168.99546879,-106.42124675
61.31013850,-118.38351681,68.07600166,-59.65957842,9.67757063,-8.37572244
6.10696150,1.77663593,-0.57421701,2.67205819

>  <Name>
ligand

>  <RI>
0

>  <Rbt.Current_Directory>
/home/itssahil/PROJECTS/Mol_Feturizer/New_Systems/rnas/4P20

>  <Rbt.Executable>
rbdock ($Id: //depot/dev/client3/rdock/2013.1/src/exe/rbdock.cxx#4 $)

>  <Rbt.Library>
libRbt.so (2013.1, Build901 2013/11/27)

>  <Rbt.Parameter_File>
/export/apps/rDock/src/rDock_2013.1_src/data/scripts/dock_solv.prm

>  <Rbt.Receptor>
prm/blind_docking_80.prm

>  <SCORE>
65.0137

>  <SCORE.INTER>
7.42163

>  <SCORE.INTER.CONST>
1

>  <SCORE.INTER.POLAR>
0

>  <SCORE.INTER.ROT>
10

>  <SCORE.INTER.SOLV>
21.0744

>  <SCORE.INTER.VDW>
-12.3437

>  <SCORE.INTER.norm>
0.185541

>  <SCORE.INTRA>
34.5288

>  <SCORE.INTRA.DIHEDRAL>
-15.3617

>  <SCORE.INTRA.DIHEDRAL.0>
28.2802

>  <SCORE.INTRA.POLAR>
0

>  <SCORE.INTRA.POLAR.0>
0

>  <SCORE.INTRA.REPUL>
0.198356

>  <SCORE.INTRA.REPUL.0>
0

>  <SCORE.INTRA.SOLV>
16.126

>  <SCORE.INTRA.SOLV.lig_0>
-101.981

>  <SCORE.INTRA.VDW>
33.1548

>  <SCORE.INTRA.VDW.0>
-5.72964

>  <SCORE.INTRA.norm>
0.863219

>  <SCORE.RESTR>
23.0633

>  <SCORE.RESTR.CAVITY>
23.0633

>  <SCORE.RESTR.norm>
0.576582

>  <SCORE.SYSTEM>
0

>  <SCORE.SYSTEM.CONST>
0

>  <SCORE.SYSTEM.DIHEDRAL>
0

>  <SCORE.SYSTEM.SOLV>
0

>  <SCORE.SYSTEM.norm>
0

>  <SCORE.heavy>
40

>  <SCORE.norm>
1.62534

>  <RMSD>
16.334

$$$$
ligand
 OpenBabel11021811513D
libRbt.so/2013.1/901 2013/11/27
 40 42  0  0  0  0  0  0  0  0999 V2000
    9.4968   -3.0543    5.4125 C   0  0  2  0  0  0  0  0  0  0  0  0
    8.9902   -4.2160    6.0885 O   0  0  0  0  0  0  0  0  0  0  0  0
    8.3142   -2.1236    4.9493 C   0  0  1  0  0  0  0  0  0  0  0  0
    7.4356   -2.8120    3.8643 C   0  0  2  0  0  0  0  0  0  0  0  0
    8.3547   -3.1351    2.6440 C   0  0  2  0  0  0  0  0  0  0  0  0
    7.5656   -3.7528    1.6046 O   0  0  0  0  0  0  0  0  0  0  0  0
    9.5132   -4.1114    3.1298 C   0  0  2  0  0  0  0  0  0  0  0  0
   10.3131   -3.4450    4.2190 O   0  0  0  0  0  0  0  0  0  0  0  0
   10.4803   -4.4718    2.0104 C   0  0  0  0  0  0  0  0  0  0  0  0
   10.2836   -5.8813    1.5467 N   0  0  0  0  0  0  0  0  0  0  0  0
    8.9968   -8.6015    5.7770 C   0  0  2  0  0  0  0  0  0  0  0  0
    9.3285   -9.9293    5.3151 N   0  0  0  0  0  0  0  0  0  0  0  0
    8.3808   -7.7647    4.5841 C   0  0  0  0  0  0  0  0  0  0  0  0
    8.0138   -6.2942    5.0779 C   0  0  2  0  0  0  0  0  0  0  0  0
    7.4200   -5.5146    3.9603 N   0  0  0  0  0  0  0  0  0  0  0  0
    9.3318   -5.5853    5.6411 C   0  0  2  0  0  0  0  0  0  0  0  0
    9.9119   -6.4614    6.8318 C   0  0  2  0  0  0  0  0  0  0  0  0
   11.0890   -5.8335    7.3449 O   0  0  0  0  0  0  0  0  0  0  0  0
   10.2670   -7.9163    6.3294 C   0  0  1  0  0  0  0  0  0  0  0  0
   10.7749   -8.7087    7.4315 O   0  0  0  0  0  0  0  0  0  0  0  0
   10.2456   -8.7313    8.7138 C   0  0  2  0  0  0  0  0  0  0  0  0
   10.8930   -9.9453    9.4702 C   0  0  2  0  0  0  0  0  0  0  0  0
   12.2776   -9.8117    9.4739 O   0  0  0  0  0  0  0  0  0  0  0  0
   10.4523  -11.3351    8.8411 C   0  0  1  0  0  0  0  0  0  0  0  0
   11.0697  -12.4770    9.5839 N   0  0  0  0  0  0  0  0  0  0  0  0
    8.8643  -11.4270    8.8714 C   0  0  2  0  0  0  0  0  0  0  0  0
    8.4161  -12.6732    8.3242 O   0  0  0  0  0  0  0  0  0  0  0  0
    8.2864  -10.1996    8.0661 C   0  0  2  0  0  0  0  0  0  0  0  0
    8.7690   -8.8848    8.6636 O   0  0  0  0  0  0  0  0  0  0  0  0
    6.7763  -10.2082    8.0682 C   0  0  0  0  0  0  0  0  0  0  0  0
    6.2143   -9.3915    7.0242 O   0  0  0  0  0  0  0  0  0  0  0  0
    7.5152   -1.7823    6.1194 O   0  0  0  0  0  0  0  0  0  0  0  0
    6.4307   -1.9537    3.4890 O   0  0  0  0  0  0  0  0  0  0  0  0
   10.6413  -10.1715    4.7630 C   0  0  0  0  0  0  0  0  0  0  0  0
   11.3118   -9.2073    4.2878 O   0  0  0  0  0  0  0  0  0  0  0  0
   11.1790  -11.6355    4.7732 C   0  0  2  0  0  0  0  0  0  0  0  0
   11.9956  -14.0550    7.7133 N   0  0  0  0  0  0  0  0  0  0  0  0
   11.2795  -12.1835    6.2303 C   0  0  0  0  0  0  0  0  0  0  0  0
   11.9620  -13.5588    6.3166 C   0  0  0  0  0  0  0  0  0  0  0  0
   12.3540  -11.7293    4.2950 O   0  0  0  0  0  0  0  0  0  0  0  0
  1  2  1  6  0  0  0
  1  3  1  0  0  0  0
  1  8  1  0  0  0  0
  3  4  1  0  0  0  0
  3 32  1  1  0  0  0
  4  5  1  0  0  0  0
  4 33  1  6  0  0  0
  5  6  1  6  0  0  0
  5  7  1  0  0  0  0
  7  8  1  0  0  0  0
  7  9  1  6  0  0  0
  9 10  1  0  0  0  0
 11 12  1  6  0  0  0
 11 13  1  0  0  0  0
 11 19  1  0  0  0  0
 12 34  1  0  0  0  0
 13 14  1  0  0  0  0
 14 15  1  6  0  0  0
 14 16  1  0  0  0  0
 16  2  1  1  0  0  0
 16 17  1  0  0  0  0
 17 18  1  6  0  0  0
 17 19  1  0  0  0  0
 19 20  1  1  0  0  0
 21 20  1  6  0  0  0
 21 22  1  0  0  0  0
 21 29  1  0  0  0  0
 22 23  1  6  0  0  0
 22 24  1  0  0  0  0
 24 25  1  1  0  0  0
 24 26  1  0  0  0  0
 26 27  1  6  0  0  0
 26 28  1  0  0  0  0
 28 29  1  0  0  0  0
 28 30  1  1  0  0  0
 30 31  1  0  0  0  0
 34 35  2  0  0  0  0
 36 34  1  1  0  0  0
 36 38  1  0  0  0  0
 36 40  1  0  0  0  0
 37 39  1  0  0  0  0
 38 39  1  0  0  0  0
M  END
>  <CHROM.1>
124.08607632,-112.83857253,-106.69738889,89.44975927,-77.01252404,167.51389197
-161.35072810,-60.42874403,-173.03912002,-178.22787487,9.52455388,-7.75149990
5.92376324,2.01884751,1.01636388,-0.82020966

>  <Name>
ligand

>  <RI>
0

>  <Rbt.Current_Directory>
/home/itssahil/PROJECTS/Mol_Feturizer/New_Systems/rnas/4P20

>  <Rbt.Executable>
rbdock ($Id: //depot/dev/client3/rdock/2013.1/src/exe/rbdock.cxx#4 $)

>  <Rbt.Library>
libRbt.so (2013.1, Build901 2013/11/27)

>  <Rbt.Parameter_File>
/export/apps/rDock/src/rDock_2013.1_src/data/scripts/dock_solv.prm

>  <Rbt.Receptor>
prm/blind_docking_80.prm

>  <SCORE>
53.719

>  <SCORE.INTER>
14.3832

>  <SCORE.INTER.CONST>
1

>  <SCORE.INTER.POLAR>
0

>  <SCORE.INTER.ROT>
10

>  <SCORE.INTER.SOLV>
19.9323

>  <SCORE.INTER.VDW>
-7.32194

>  <SCORE.INTER.norm>
0.359581

>  <SCORE.INTRA>
8.66346

>  <SCORE.INTRA.DIHEDRAL>
-4.7388

>  <SCORE.INTRA.DIHEDRAL.0>
28.2802

>  <SCORE.INTRA.POLAR>
0

>  <SCORE.INTRA.POLAR.0>
0

>  <SCORE.INTRA.REPUL>
0

>  <SCORE.INTRA.REPUL.0>
0

>  <SCORE.INTRA.SOLV>
13.4946

>  <SCORE.INTRA.SOLV.lig_0>
-101.981

>  <SCORE.INTRA.VDW>
4.28555

>  <SCORE.INTRA.VDW.0>
-5.72964

>  <SCORE.INTRA.norm>
0.216587

>  <SCORE.RESTR>
30.6723

>  <SCORE.RESTR.CAVITY>
30.6723

>  <SCORE.RESTR.norm>
0.766807

>  <SCORE.SYSTEM>
0

>  <SCORE.SYSTEM.CONST>
0

>  <SCORE.SYSTEM.DIHEDRAL>
0

>  <SCORE.SYSTEM.SOLV>
0

>  <SCORE.SYSTEM.norm>
0

>  <SCORE.heavy>
40

>  <SCORE.norm>
1.34297

>  <RMSD>
16.366

$$$$
ligand
 OpenBabel11021811513D
libRbt.so/2013.1/901 2013/11/27
 40 42  0  0  0  0  0  0  0  0999 V2000
    6.7854  -10.5572    8.8326 C   0  0  2  0  0  0  0  0  0  0  0  0
    7.1889   -9.2159    8.5147 O   0  0  0  0  0  0  0  0  0  0  0  0
    7.7617  -11.1927    9.8920 C   0  0  1  0  0  0  0  0  0  0  0  0
    9.1934  -11.3799    9.3105 C   0  0  2  0  0  0  0  0  0  0  0  0
    9.0828  -12.3228    8.0708 C   0  0  2  0  0  0  0  0  0  0  0  0
   10.3994  -12.5403    7.5195 O   0  0  0  0  0  0  0  0  0  0  0  0
    8.1276  -11.6366    6.9992 C   0  0  2  0  0  0  0  0  0  0  0  0
    6.7658  -11.4139    7.6042 O   0  0  0  0  0  0  0  0  0  0  0  0
    7.9382  -12.4920    5.7540 C   0  0  0  0  0  0  0  0  0  0  0  0
    9.1666  -12.4973    4.8986 N   0  0  0  0  0  0  0  0  0  0  0  0
   10.1085   -7.0251    6.0639 C   0  0  2  0  0  0  0  0  0  0  0  0
   11.2179   -6.7752    5.1734 N   0  0  0  0  0  0  0  0  0  0  0  0
   10.6260   -7.7765    7.3563 C   0  0  0  0  0  0  0  0  0  0  0  0
    9.4109   -8.0636    8.3473 C   0  0  2  0  0  0  0  0  0  0  0  0
    9.9015   -8.7549    9.5683 N   0  0  0  0  0  0  0  0  0  0  0  0
    8.3107   -8.9414    7.5885 C   0  0  2  0  0  0  0  0  0  0  0  0
    7.8252   -8.1477    6.3016 C   0  0  2  0  0  0  0  0  0  0  0  0
    6.8380   -8.9232    5.6180 O   0  0  0  0  0  0  0  0  0  0  0  0
    9.0395   -7.8667    5.3311 C   0  0  1  0  0  0  0  0  0  0  0  0
    8.5839   -7.1242    4.1728 O   0  0  0  0  0  0  0  0  0  0  0  0
    7.6059   -6.1402    4.1848 C   0  0  2  0  0  0  0  0  0  0  0  0
    7.7725   -5.2932    2.8734 C   0  0  2  0  0  0  0  0  0  0  0  0
    7.6707   -6.1238    1.7622 O   0  0  0  0  0  0  0  0  0  0  0  0
    9.1394   -4.4852    2.8627 C   0  0  1  0  0  0  0  0  0  0  0  0
    9.2717   -3.6764    1.6116 N   0  0  0  0  0  0  0  0  0  0  0  0
    9.1907   -3.5543    4.1518 C   0  0  2  0  0  0  0  0  0  0  0  0
   10.4039   -2.7923    4.1813 O   0  0  0  0  0  0  0  0  0  0  0  0
    9.0530   -4.4735    5.4266 C   0  0  2  0  0  0  0  0  0  0  0  0
    7.7572   -5.2719    5.3806 O   0  0  0  0  0  0  0  0  0  0  0  0
    9.0731   -3.6539    6.6948 C   0  0  0  0  0  0  0  0  0  0  0  0
   10.2078   -2.7708    6.7680 O   0  0  0  0  0  0  0  0  0  0  0  0
    7.7904  -10.3276   11.0646 O   0  0  0  0  0  0  0  0  0  0  0  0
    9.9971  -11.9474   10.2696 O   0  0  0  0  0  0  0  0  0  0  0  0
   11.7575   -7.8709    4.4019 C   0  0  0  0  0  0  0  0  0  0  0  0
   11.5873   -9.0626    4.7967 O   0  0  0  0  0  0  0  0  0  0  0  0
   12.5429   -7.5289    3.0985 C   0  0  2  0  0  0  0  0  0  0  0  0
   14.9540   -8.4813    4.4932 N   0  0  0  0  0  0  0  0  0  0  0  0
   13.7501   -6.5893    3.4041 C   0  0  0  0  0  0  0  0  0  0  0  0
   14.5884   -7.0491    4.6087 C   0  0  0  0  0  0  0  0  0  0  0  0
   11.8333   -6.9021    2.2491 O   0  0  0  0  0  0  0  0  0  0  0  0
  1  2  1  6  0  0  0
  1  3  1  0  0  0  0
  1  8  1  0  0  0  0
  3  4  1  0  0  0  0
  3 32  1  1  0  0  0
  4  5  1  0  0  0  0
  4 33  1  1  0  0  0
  5  6  1  6  0  0  0
  5  7  1  0  0  0  0
  7  8  1  0  0  0  0
  7  9  1  6  0  0  0
  9 10  1  0  0  0  0
 11 12  1  6  0  0  0
 11 13  1  0  0  0  0
 11 19  1  0  0  0  0
 12 34  1  0  0  0  0
 13 14  1  0  0  0  0
 14 15  1  1  0  0  0
 14 16  1  0  0  0  0
 16  2  1  1  0  0  0
 16 17  1  0  0  0  0
 17 18  1  6  0  0  0
 17 19  1  0  0  0  0
 19 20  1  6  0  0  0
 21 20  1  1  0  0  0
 21 22  1  0  0  0  0
 21 29  1  0  0  0  0
 22 23  1  6  0  0  0
 22 24  1  0  0  0  0
 24 25  1  6  0  0  0
 24 26  1  0  0  0  0
 26 27  1  1  0  0  0
 26 28  1  0  0  0  0
 28 29  1  0  0  0  0
 28 30  1  1  0  0  0
 30 31  1  0  0  0  0
 34 35  2  0  0  0  0
 36 34  1  1  0  0  0
 36 38  1  0  0  0  0
 36 40  1  0  0  0  0
 37 39  1  0  0  0  0
 38 39  1  0  0  0  0
M  END
>  <CHROM.1>
78.52764497,-122.27705544,-73.08001620,75.35290277,-83.60269152,161.21979167
-52.43015931,57.77232073,46.80495722,50.08167335,9.49426249,-7.96730143,5.93745486
1.82175934,-0.46737658,2.60012254

>  <Name>
ligand

>  <RI>
0

>  <Rbt.Current_Directory>
/home/itssahil/PROJECTS/Mol_Feturizer/New_Systems/rnas/4P20

>  <Rbt.Executable>
rbdock ($Id: //depot/dev/client3/rdock/2013.1/src/exe/rbdock.cxx#4 $)

>  <Rbt.Library>
libRbt.so (2013.1, Build901 2013/11/27)

>  <Rbt.Parameter_File>
/export/apps/rDock/src/rDock_2013.1_src/data/scripts/dock_solv.prm

>  <Rbt.Receptor>
prm/blind_docking_80.prm

>  <SCORE>
41.4633

>  <SCORE.INTER>
13.836

>  <SCORE.INTER.CONST>
1

>  <SCORE.INTER.POLAR>
0

>  <SCORE.INTER.ROT>
10

>  <SCORE.INTER.SOLV>
19.4252

>  <SCORE.INTER.VDW>
-7.51773

>  <SCORE.INTER.norm>
0.3459

>  <SCORE.INTRA>
0.197097

>  <SCORE.INTRA.DIHEDRAL>
-12.7517

>  <SCORE.INTRA.DIHEDRAL.0>
28.2802

>  <SCORE.INTRA.POLAR>
0

>  <SCORE.INTRA.POLAR.0>
0

>  <SCORE.INTRA.REPUL>
0

>  <SCORE.INTRA.REPUL.0>
0

>  <SCORE.INTRA.SOLV>
8.50573

>  <SCORE.INTRA.SOLV.lig_0>
-101.981

>  <SCORE.INTRA.VDW>
2.32009

>  <SCORE.INTRA.VDW.0>
-5.72964

>  <SCORE.INTRA.norm>
0.00492743

>  <SCORE.RESTR>
27.4302

>  <SCORE.RESTR.CAVITY>
27.4302

>  <SCORE.RESTR.norm>
0.685755

>  <SCORE.SYSTEM>
0

>  <SCORE.SYSTEM.CONST>
0

>  <SCORE.SYSTEM.DIHEDRAL>
0

>  <SCORE.SYSTEM.SOLV>
0

>  <SCORE.SYSTEM.norm>
0

>  <SCORE.heavy>
40

>  <SCORE.norm>
1.03658

>  <RMSD>
16.493

$$$$
