@<TRIPOS>MOLECULE
4P20_rdock.pdb
 492 548 0 0 0
SMALL
GASTEIGER

@<TRIPOS>ATOM
      1  P         13.0590   -4.2080    4.5550 P.3    11  C11         0.1280
      2  C5'       15.0620   -5.8600    4.1950 C.3    11  C11         0.1795
      3  O5'       14.2540   -5.1090    5.1060 O.3    11  C11        -0.3259
      4  C4'       16.1510   -6.6160    4.9240 C.3    11  C11         0.1772
      5  O4'       17.1660   -5.6970    5.4110 O.3    11  C11        -0.3307
      6  C3'       15.7460   -7.3980    6.1580 C.3    11  C11         0.1860
      7  O3'       15.1590   -8.6450    5.8240 O.3    11  C11        -0.3112
      8  C2'       17.0880   -7.5610    6.8580 C.3    11  C11         0.2309
      9  O2'       17.9330   -8.5130    6.2350 O.3    11  C11        -0.2156
     10  C1'       17.6930   -6.1790    6.6360 C.3    11  C11         0.2420
     11  N1        17.3350   -5.2180    7.6860 N.ar   11  C11        -0.2535
     12  C2        17.9620   -5.3010    8.9380 C.ar   11  C11         0.3532
     13  O2        18.7400   -6.2430    9.1610 O.2    11  C11        -0.2443
     14  N3        17.6880   -4.3580    9.8720 N.ar   11  C11        -0.1739
     15  C4        16.8150   -3.3860    9.6000 C.ar   11  C11         0.1759
     16  N4        16.5990   -2.4650   10.5250 N.pl3  11  C11        -0.1070
     17  C5        16.1290   -3.3140    8.3600 C.ar   11  C11         0.0566
     18  C6        16.4170   -4.2390    7.4390 C.ar   11  C11         0.0850
     19  OP1       12.2100   -5.0130    3.6480 O.3    11  C11        -0.1955
     20  OP2       12.4290   -3.4880    5.6770 O.co2  11  C11        -0.7863
     21  P         14.0420   -9.2730    6.7900 P.3    12  G12         0.2141
     22  C5'       15.8710  -10.7190    7.9740 C.3    12  G12         0.1812
     23  O5'       14.8760   -9.7150    8.0700 O.3    12  G12        -0.3114
     24  C4'       16.5870  -10.8610    9.2900 C.3    12  G12         0.1773
     25  O4'       17.3630   -9.6620    9.5590 O.3    12  G12        -0.3307
     26  C3'       15.6870  -10.9680   10.4980 C.3    12  G12         0.1860
     27  O3'       15.2070  -12.2800   10.7020 O.3    12  G12        -0.3112
     28  C2'       16.6260  -10.5700   11.6190 C.3    12  G12         0.2309
     29  O2'       17.4410  -11.6460   12.0170 O.3    12  G12        -0.2156
     30  C1'       17.4270   -9.4500   10.9520 C.3    12  G12         0.2408
     31  N1        16.9190   -5.8430   14.4240 N.ar   12  G12        -0.1709
     32  C2        17.6840   -6.9810   14.4410 C.ar   12  G12         0.2606
     33  N2        18.4300   -7.1850   15.5370 N.pl3  12  G12        -0.0859
     34  N3        17.7260   -7.8530   13.4540 N.ar   12  G12        -0.1918
     35  C4        16.9510   -7.4800   12.4180 C.ar   12  G12         0.1723
     36  C5        16.1550   -6.3640   12.2920 C.ar   12  G12         0.1748
     37  C6        16.0980   -5.4450   13.3760 C.ar   12  G12         0.3023
     38  O6        15.4330   -4.4050   13.4790 O.2    12  G12        -0.2633
     39  N7        15.5220   -6.3480   11.0550 N.ar   12  G12        -0.2173
     40  C8        15.9410   -7.4390   10.4670 C.ar   12  G12         0.1817
     41  N9        16.8030   -8.1710   11.2490 N.ar   12  G12        -0.2693
     42  OP1       13.4890  -10.4730    6.1080 O.2    12  G12        -0.5172
     43  OP2       13.1210   -8.2030    7.2310 O.co2  12  G12        -0.4373
     44  P         13.8500  -12.4960   11.5340 P.3    13  G13         0.2141
     45  C5'       15.2110  -13.0000   13.7280 C.3    13  G13         0.1812
     46  O5'       14.2620  -12.1860   13.0440 O.3    13  G13        -0.3114
     47  C4'       15.5300  -12.4170   15.0910 C.3    13  G13         0.1773
     48  O4'       16.1630  -11.1160   14.9260 O.3    13  G13        -0.3307
     49  C3'       14.3480  -12.1420   16.0120 C.3    13  G13         0.1860
     50  O3'       13.9290  -13.3210   16.7020 O.3    13  G13        -0.3112
     51  C2'       14.9350  -11.1020   16.9590 C.3    13  G13         0.2309
     52  O2'       15.7560  -11.6970   17.9430 O.3    13  G13        -0.2156
     53  C1'       15.7920  -10.2670   16.0000 C.3    13  G13         0.2408
     54  N1        14.2010   -5.5440   16.9190 N.ar   13  G13        -0.1709
     55  C2        15.0000   -6.3680   17.6760 C.ar   13  G13         0.2606
     56  N2        15.4200   -5.8850   18.8530 N.pl3  13  G13        -0.0859
     57  N3        15.3670   -7.5800   17.3090 N.ar   13  G13        -0.1918
     58  C4        14.8810   -7.9120   16.0970 C.ar   13  G13         0.1723
     59  C5        14.0860   -7.1640   15.2490 C.ar   13  G13         0.1748
     60  C6        13.6770   -5.8630   15.6660 C.ar   13  G13         0.3023
     61  O6        12.9440   -5.0500   15.0740 O.2    13  G13        -0.2633
     62  N7        13.8140   -7.8660   14.0810 N.ar   13  G13        -0.2173
     63  C8        14.4270   -9.0120   14.2440 C.ar   13  G13         0.1817
     64  N9        15.0730   -9.1130   15.4570 N.ar   13  G13        -0.2693
     65  OP1       13.4720  -13.9280   11.4040 O.3    13  G13        -0.4373
     66  OP2       12.8880  -11.4400   11.1150 O.co2  13  G13        -0.5172
     67  P         12.4760  -13.3710   17.3950 P.3    14  U14         0.2141
     68  C5'       13.4390  -12.5650   19.6890 C.3    14  U14         0.1812
     69  O5'       12.5740  -12.3290   18.5900 O.3    14  U14        -0.3114
     70  C4'       13.3840  -11.3990   20.6380 C.3    14  U14         0.1773
     71  O4'       13.8160  -10.2030   19.9390 O.3    14  U14        -0.3307
     72  C3'       11.9990  -11.0230   21.1320 C.3    14  U14         0.1860
     73  O3'       11.6200  -11.8470   22.2200 O.3    14  U14        -0.3112
     74  C2'       12.2020   -9.5770   21.5680 C.3    14  U14         0.2309
     75  O2'       12.8250   -9.4520   22.8320 O.3    14  U14        -0.2156
     76  C1'       13.1520   -9.0680   20.4820 C.3    14  U14         0.2420
     77  N1        12.4380   -8.3770   19.4020 N.ar   14  U14        -0.2534
     78  C2        12.1690   -7.0300   19.5710 C.ar   14  U14         0.3546
     79  O2        12.5330   -6.4000   20.5530 O.2    14  U14        -0.2443
     80  N3        11.4620   -6.4470   18.5480 N.ar   14  U14        -0.1530
     81  C4        11.0140   -7.0570   17.4000 C.ar   14  U14         0.2846
     82  O4        10.3670   -6.4060   16.5790 O.2    14  U14        -0.2650
     83  C5        11.3520   -8.4430   17.2930 C.ar   14  U14         0.0814
     84  C6        12.0360   -9.0410   18.2730 C.ar   14  U14         0.0870
     85  OP1       12.3300  -14.7130   17.9970 O.3    14  U14        -0.4373
     86  OP2       11.4430  -12.8700   16.4590 O.co2  14  U14        -0.5172
     87  P         10.0690  -12.0720   22.5400 P.3    15  G15         0.2141
     88  C5'       10.1140  -10.0880   24.2570 C.3    15  G15         0.1812
     89  O5'        9.5760  -10.6480   23.0640 O.3    15  G15        -0.3114
     90  C4'        9.6560   -8.6550   24.4380 C.3    15  G15         0.1773
     91  O4'       10.1290   -7.8300   23.3430 O.3    15  G15        -0.3307
     92  C3'        8.1570   -8.4200   24.4550 C.3    15  G15         0.1860
     93  O3'        7.6430   -8.7110   25.7550 O.3    15  G15        -0.3112
     94  C2'        8.0710   -6.9280   24.1230 C.3    15  G15         0.2309
     95  O2'        8.3280   -6.0780   25.2270 O.3    15  G15        -0.2156
     96  C1'        9.2110   -6.7720   23.1140 C.3    15  G15         0.2408
     97  N1         7.0680   -4.2270   19.2690 N.ar   15  G15        -0.1709
     98  C2         7.2650   -3.8340   20.5740 C.ar   15  G15         0.2606
     99  N2         6.8390   -2.5950   20.8860 N.pl3  15  G15        -0.0859
    100  N3         7.8310   -4.5990   21.5020 N.ar   15  G15        -0.1918
    101  C4         8.1810   -5.8090   21.0120 C.ar   15  G15         0.1723
    102  C5         8.0200   -6.3000   19.7300 C.ar   15  G15         0.1748
    103  C6         7.4140   -5.4670   18.7460 C.ar   15  G15         0.3023
    104  O6         7.1730   -5.7200   17.5580 O.2    15  G15        -0.2633
    105  N7         8.4960   -7.6020   19.6380 N.ar   15  G15        -0.2173
    106  C8         8.9380   -7.8710   20.8390 C.ar   15  G15         0.1817
    107  N9         8.7890   -6.8210   21.7180 N.ar   15  G15        -0.2693
    108  OP1       10.0080  -13.0430   23.6620 O.3    15  G15        -0.4373
    109  OP2        9.3700  -12.3770   21.2640 O.co2  15  G15        -0.5172
    110  P          6.5270   -9.8660   25.9550 P.3    16  A16         0.2141
    111  C5'        4.5430   -8.1750   26.1190 C.3    16  A16         0.1812
    112  O5'        5.3890   -9.1130   26.7620 O.3    16  A16        -0.3114
    113  C4'        3.2090   -8.1760   26.8020 C.3    16  A16         0.1773
    114  O4'        3.4060   -7.7920   28.1860 O.3    16  A16        -0.3307
    115  C3'        2.1640   -7.2040   26.2990 C.3    16  A16         0.1860
    116  O3'        1.5410   -7.7200   25.1230 O.3    16  A16        -0.3112
    117  C2'        1.2380   -7.1290   27.5130 C.3    16  A16         0.2309
    118  O2'        0.4250   -8.2740   27.6870 O.3    16  A16        -0.2156
    119  C1'        2.2550   -7.1210   28.6560 C.3    16  A16         0.2408
    120  N1         0.7110   -2.8700   31.0280 N.ar   16  A16        -0.2040
    121  C2         0.1470   -4.0720   30.8590 C.ar   16  A16         0.2016
    122  N3         0.6250   -5.1470   30.2350 N.ar   16  A16        -0.2048
    123  C4         1.8520   -4.9050   29.7450 C.ar   16  A16         0.1692
    124  C5         2.5700   -3.7310   29.8390 C.ar   16  A16         0.1518
    125  C6         1.9480   -2.6590   30.5140 C.ar   16  A16         0.1919
    126  N6         2.5050   -1.4520   30.6660 N.pl3  16  A16        -0.1054
    127  N7         3.8060   -3.8630   29.2190 N.ar   16  A16        -0.2193
    128  C8         3.7990   -5.0910   28.7640 C.ar   16  A16         0.1816
    129  N9         2.6410   -5.7690   29.0370 N.ar   16  A16        -0.2693
    130  OP1        7.0570  -10.9460   26.8550 O.3    16  A16        -0.4373
    131  OP2        5.9580  -10.2310   24.6370 O.co2  16  A16        -0.5172
    132  P          0.9920   -6.7090   23.9950 P.3    17  A17         0.2141
    133  C5'       -1.4810   -6.8320   24.9090 C.3    17  A17         0.1812
    134  O5'       -0.3050   -6.0600   24.6600 O.3    17  A17        -0.3114
    135  C4'       -2.5950   -5.9270   25.3680 C.3    17  A17         0.1773
    136  O4'       -2.1660   -5.2850   26.5880 O.3    17  A17        -0.3307
    137  C3'       -2.9150   -4.7910   24.4060 C.3    17  A17         0.1860
    138  O3'       -3.9560   -5.1870   23.5200 O.3    17  A17        -0.3112
    139  C2'       -3.4150   -3.6860   25.3290 C.3    17  A17         0.2309
    140  O2'       -4.7920   -3.7780   25.6200 O.3    17  A17        -0.2156
    141  C1'       -2.6060   -3.9440   26.6010 C.3    17  A17         0.2408
    142  N1        -0.7760    0.1040   29.1270 N.ar   17  A17        -0.2040
    143  C2        -1.9370   -0.5630   29.1970 C.ar   17  A17         0.2016
    144  N3        -2.3390   -1.6270   28.5050 N.ar   17  A17        -0.2048
    145  C4        -1.3810   -2.0210   27.6430 C.ar   17  A17         0.1692
    146  C5        -0.1360   -1.4460   27.4580 C.ar   17  A17         0.1518
    147  C6         0.1640   -0.3180   28.2460 C.ar   17  A17         0.1919
    148  N6         1.3140    0.3560   28.1670 N.pl3  17  A17        -0.1054
    149  N7         0.5840   -2.1320   26.4860 N.ar   17  A17        -0.2193
    150  C8        -0.2350   -3.0850   26.1050 C.ar   17  A17         0.1816
    151  N9        -1.4450   -3.0700   26.7620 N.ar   17  A17        -0.2693
    152  OP1        0.5500   -7.5300   22.8440 O.2    17  A17        -0.5172
    153  OP2        1.9750   -5.6240   23.7750 O.co2  17  A17        -0.4373
    154  P         -3.6150   -5.5630   21.9990 P.3    18  G18         0.2141
    155  C5'       -4.6540   -3.1690   21.6480 C.3    18  G18         0.1812
    156  O5'       -4.4180   -4.4830   21.1490 O.3    18  G18        -0.3114
    157  C4'       -4.3870   -2.1490   20.5610 C.3    18  G18         0.1773
    158  O4'       -2.9560   -1.9640   20.4110 O.3    18  G18        -0.3307
    159  C3'       -4.8720   -2.5330   19.1700 C.3    18  G18         0.1860
    160  O3'       -6.2490   -2.2100   18.9710 O.3    18  G18        -0.3112
    161  C2'       -3.9600   -1.7140   18.2650 C.3    18  G18         0.2309
    162  O2'       -4.4210   -0.3900   18.0900 O.3    18  G18        -0.2156
    163  C1'       -2.6440   -1.7280   19.0500 C.3    18  G18         0.2408
    164  N1        -0.0550   -3.7500   15.1860 N.ar   18  G18        -0.1709
    165  C2        -0.8380   -2.6230   15.2090 C.ar   18  G18         0.2606
    166  N2        -0.9550   -1.9580   14.0510 N.pl3  18  G18        -0.0859
    167  N3        -1.4550   -2.1770   16.2880 N.ar   18  G18        -0.1918
    168  C4        -1.2120   -2.9550   17.3600 C.ar   18  G18         0.1723
    169  C5        -0.4360   -4.0890   17.4430 C.ar   18  G18         0.1748
    170  C6         0.2040   -4.5640   16.2850 C.ar   18  G18         0.3023
    171  O6         0.9220   -5.5690   16.1620 O.2    18  G18        -0.2633
    172  N7        -0.4350   -4.5950   18.7320 N.ar   18  G18        -0.2173
    173  C8        -1.2070   -3.7820   19.3980 C.ar   18  G18         0.1817
    174  N9        -1.7230   -2.7720   18.6220 N.ar   18  G18        -0.2693
    175  OP1       -4.2160   -6.9020   21.7340 O.2    18  G18        -0.5172
    176  OP2       -2.1640   -5.3510   21.7600 O.co2  18  G18        -0.4373
    177  P         -7.1880   -3.2220   18.1420 P.3    19  U19         0.2141
    178  C5'       -6.9380   -1.7030   16.0020 C.3    19  U19         0.1812
    179  O5'       -6.7800   -2.9810   16.6180 O.3    19  U19        -0.3114
    180  C4'       -6.3470   -1.7130   14.6070 C.3    19  U19         0.1773
    181  O4'       -4.9170   -1.9640   14.6900 O.3    19  U19        -0.3307
    182  C3'       -6.8200   -2.8260   13.6860 C.3    19  U19         0.1860
    183  O3'       -8.0830   -2.5730   13.0980 O.3    19  U19        -0.3112
    184  C2'       -5.7120   -2.8730   12.6420 C.3    19  U19         0.2309
    185  O2'       -5.8100   -1.8790   11.6430 O.3    19  U19        -0.2156
    186  C1'       -4.4800   -2.6350   13.5110 C.3    19  U19         0.2420
    187  N1        -3.8290   -3.9010   13.8810 N.ar   19  U19        -0.2534
    188  C2        -3.1070   -4.5320   12.8950 C.ar   19  U19         0.3546
    189  O2        -3.0130   -4.0770   11.7680 O.2    19  U19        -0.2443
    190  N3        -2.5050   -5.7130   13.2720 N.ar   19  U19        -0.1530
    191  C4        -2.5610   -6.3130   14.5190 C.ar   19  U19         0.2846
    192  O4        -1.9480   -7.3750   14.7170 O.2    19  U19        -0.2650
    193  C5        -3.3400   -5.5970   15.4860 C.ar   19  U19         0.0814
    194  C6        -3.9310   -4.4450   15.1450 C.ar   19  U19         0.0870
    195  OP1       -8.5970   -2.7980   18.3390 O.2    19  U19        -0.5172
    196  OP2       -6.7880   -4.6110   18.4880 O.co2  19  U19        -0.4373
    197  P         -8.9810   -3.8120   12.5980 P.3    20  C20         0.2141
    198  C5'       -8.3300   -3.6360   10.0810 C.3    20  C20         0.1812
    199  O5'       -8.2290   -4.3400   11.3040 O.3    20  C20        -0.3114
    200  C4'       -7.7670   -4.4750    8.9810 C.3    20  C20         0.1773
    201  O4'       -6.3590   -4.7050    9.2530 O.3    20  C20        -0.3307
    202  C3'       -8.3350   -5.8800    8.9240 C.3    20  C20         0.1860
    203  O3'       -9.5980   -5.9320    8.2710 O.3    20  C20        -0.3112
    204  C2'       -7.2420   -6.6090    8.1610 C.3    20  C20         0.2309
    205  O2'       -7.2510   -6.3260    6.7760 O.3    20  C20        -0.2156
    206  C1'       -5.9950   -5.9970    8.7970 C.3    20  C20         0.2420
    207  N1        -5.5230   -6.7950    9.9400 N.ar   20  C20        -0.2535
    208  C2        -4.6850   -7.8890    9.6760 C.ar   20  C20         0.3532
    209  O2        -4.3780   -8.1300    8.5000 O.2    20  C20        -0.2443
    210  N3        -4.2360   -8.6480   10.7010 N.ar   20  C20        -0.1739
    211  C4        -4.5900   -8.3500   11.9570 C.ar   20  C20         0.1759
    212  N4        -4.1100   -9.1220   12.9390 N.pl3  20  C20        -0.1070
    213  C5        -5.4480   -7.2420   12.2580 C.ar   20  C20         0.0566
    214  C6        -5.8870   -6.4980   11.2250 C.ar   20  C20         0.0850
    215  OP1      -10.2790   -3.2480   12.1590 O.2    20  C20        -0.5172
    216  OP2       -8.9520   -4.8980   13.6130 O.co2  20  C20        -0.4373
    217  P        -10.5940   -7.1590    8.5710 P.3    21  G21         0.2141
    218  C5'       -9.7300   -8.4050    6.4340 C.3    21  G21         0.1812
    219  O5'       -9.9060   -8.4010    7.8460 O.3    21  G21        -0.3114
    220  C4'       -8.7220   -9.4520    6.0250 C.3    21  G21         0.1773
    221  O4'       -7.4730   -9.2140    6.7270 O.3    21  G21        -0.3307
    222  C3'       -9.0580  -10.8860    6.3840 C.3    21  G21         0.1860
    223  O3'       -9.9390  -11.4650    5.4350 O.3    21  G21        -0.3112
    224  C2'       -7.6840  -11.5380    6.3430 C.3    21  G21         0.2309
    225  O2'       -7.2200  -11.7560    5.0280 O.3    21  G21        -0.2156
    226  C1'       -6.8330  -10.4540    7.0020 C.3    21  G21         0.2408
    227  N1        -5.1090  -13.4310   10.7190 N.ar   21  G21        -0.1709
    228  C2        -4.9950  -13.5660    9.3580 C.ar   21  G21         0.2606
    229  N2        -4.3570  -14.6520    8.9140 N.pl3  21  G21        -0.0859
    230  N3        -5.4790  -12.7010    8.4890 N.ar   21  G21        -0.1918
    231  C4        -6.1140  -11.6770    9.0930 C.ar   21  G21         0.1723
    232  C5        -6.2940  -11.4460   10.4390 C.ar   21  G21         0.1748
    233  C6        -5.7540  -12.3810   11.3700 C.ar   21  G21         0.3023
    234  O6        -5.7980  -12.3560   12.6140 O.2    21  G21        -0.2633
    235  N7        -7.0150  -10.2740   10.6480 N.ar   21  G21        -0.2173
    236  C8        -7.2560   -9.8250    9.4450 C.ar   21  G21         0.1817
    237  N9        -6.7400  -10.6340    8.4530 N.ar   21  G21        -0.2693
    238  OP1      -11.8620   -6.8650    7.8650 O.2    21  G21        -0.5172
    239  OP2      -10.6100   -7.4020   10.0370 O.co2  21  G21        -0.4373
    240  P        -10.8540  -12.7190    5.8600 P.3    22  C22         0.2141
    241  C5'       -9.0970  -14.5180    5.1490 C.3    22  C22         0.1813
    242  O5'       -9.8070  -13.8700    6.1900 O.3    22  C22        -0.3114
    243  C4'       -8.3200  -15.6770    5.7080 C.3    22  C22         0.1801
    244  O4'       -7.3900  -15.1790    6.7040 O.3    22  C22        -0.3306
    245  C3'       -9.1330  -16.7020    6.4770 C.3    22  C22         0.2161
    246  O3'       -9.8720  -17.5850    5.6480 O.3    22  C22        -0.2175
    247  C2'       -8.0630  -17.3730    7.3240 C.3    22  C22         0.2338
    248  O2'       -7.3000  -18.3150    6.5980 O.3    22  C22        -0.2155
    249  C1'       -7.1880  -16.1720    7.6940 C.3    22  C22         0.2421
    250  N1        -7.5590  -15.6160    9.0010 N.ar   22  C22        -0.2535
    251  C2        -7.1190  -16.2770   10.1220 C.ar   22  C22         0.3532
    252  O2        -6.4290  -17.2880    9.9630 O.2    22  C22        -0.2443
    253  N3        -7.4530  -15.8120   11.3480 N.ar   22  C22        -0.1739
    254  C4        -8.2090  -14.7200   11.4600 C.ar   22  C22         0.1759
    255  N4        -8.5390  -14.3080   12.6930 N.pl3  22  C22        -0.1070
    256  C5        -8.6680  -14.0070   10.3170 C.ar   22  C22         0.0566
    257  C6        -8.3220  -14.4860    9.1160 C.ar   22  C22         0.0850
    258  OP1      -11.6130  -13.1290    4.6470 O.2    22  C22        -0.5172
    259  OP2      -11.5840  -12.3880    7.1130 O.co2  22  C22        -0.4373
    260  P         -2.1940  -18.7440   21.1330 P.3    24  G24         0.1280
    261  C5'       -1.8820  -20.7720   19.4240 C.3    24  G24         0.1795
    262  O5'       -2.2600  -19.4000   19.6420 O.3    24  G24        -0.3259
    263  C4'       -2.1530  -21.1680   17.9920 C.3    24  G24         0.1772
    264  O4'       -3.5800  -21.1040   17.7390 O.3    24  G24        -0.3307
    265  C3'       -1.5500  -20.2640   16.9280 C.3    24  G24         0.1860
    266  O3'       -0.1900  -20.6010   16.6760 O.3    24  G24        -0.3112
    267  C2'       -2.4350  -20.5660   15.7280 C.3    24  G24         0.2309
    268  O2'       -2.0750  -21.7690   15.0840 O.3    24  G24        -0.2156
    269  C1'       -3.8050  -20.7170   16.3940 C.3    24  G24         0.2408
    270  N1        -6.0480  -17.2400   13.4970 N.ar   24  G24        -0.1709
    271  C2        -5.3510  -18.3730   13.1390 C.ar   24  G24         0.2606
    272  N2        -5.2190  -18.6240   11.8310 N.pl3  24  G24        -0.0859
    273  N3        -4.8140  -19.2070   14.0030 N.ar   24  G24        -0.1918
    274  C4        -5.0180  -18.8160   15.2730 C.ar   24  G24         0.1723
    275  C5        -5.6890  -17.7060   15.7400 C.ar   24  G24         0.1748
    276  C6        -6.2740  -16.8200   14.8070 C.ar   24  G24         0.3023
    277  O6        -6.9250  -15.7860   15.0260 O.2    24  G24        -0.2633
    278  N7        -5.6700  -17.6670   17.1240 N.ar   24  G24        -0.2173
    279  C8        -5.0010  -18.7360   17.4660 C.ar   24  G24         0.1817
    280  N9        -4.5760  -19.4750   16.3870 N.ar   24  G24        -0.2693
    281  OP1       -1.9900  -17.2540   20.9160 O.3    24  G24        -0.1955
    282  OP2       -1.0040  -19.4100   21.8140 O.co2  24  G24        -0.7863
    283  P          0.8320  -19.4740   16.1480 P.3    25  C25         0.2141
    284  C5'        0.4670  -20.3340   13.7130 C.3    25  C25         0.1812
    285  O5'        0.4010  -19.2600   14.6380 O.3    25  C25        -0.3114
    286  C4'        0.0380  -19.8580   12.3550 C.3    25  C25         0.1773
    287  O4'       -1.3770  -19.5410   12.3840 O.3    25  C25        -0.3307
    288  C3'        0.6970  -18.5610   11.9290 C.3    25  C25         0.1860
    289  O3'        1.9890  -18.8130   11.3870 O.3    25  C25        -0.3112
    290  C2'       -0.2940  -18.0180   10.9080 C.3    25  C25         0.2309
    291  O2'       -0.1490  -18.5960    9.6260 O.3    25  C25        -0.2156
    292  C1'       -1.6310  -18.4430   11.5240 C.3    25  C25         0.2420
    293  N1        -2.2960  -17.3790   12.2960 N.ar   25  C25        -0.2535
    294  C2        -2.9710  -16.3750   11.5960 C.ar   25  C25         0.3532
    295  O2        -2.9810  -16.4180   10.3560 O.2    25  C25        -0.2443
    296  N3        -3.5870  -15.3850   12.2840 N.ar   25  C25        -0.1739
    297  C4        -3.5410  -15.3700   13.6190 C.ar   25  C25         0.1759
    298  N4        -4.1580  -14.3650   14.2540 N.pl3  25  C25        -0.1070
    299  C5        -2.8600  -16.3820   14.3600 C.ar   25  C25         0.0566
    300  C6        -2.2570  -17.3600   13.6640 C.ar   25  C25         0.0850
    301  OP1        2.1840  -20.0820   16.1380 O.2    25  C25        -0.5172
    302  OP2        0.6000  -18.2000   16.8800 O.co2  25  C25        -0.4373
    303  P          3.0500  -17.6110   11.2580 P.3    26  G26         0.2141
    304  C5'        2.3410  -17.1870    8.7850 C.3    26  G26         0.1812
    305  O5'        2.4320  -16.6950   10.1150 O.3    26  G26        -0.3114
    306  C4'        1.7810  -16.1310    7.8790 C.3    26  G26         0.1773
    307  O4'        0.3590  -15.9720    8.1050 O.3    26  G26        -0.3307
    308  C3'        2.3350  -14.7450    8.1170 C.3    26  G26         0.1860
    309  O3'        3.6290  -14.6130    7.5400 O.3    26  G26        -0.3112
    310  C2'        1.2670  -13.8760    7.4640 C.3    26  G26         0.2309
    311  O2'        1.3610  -13.8170    6.0590 O.3    26  G26        -0.2156
    312  C1'       -0.0080  -14.6240    7.8600 C.3    26  G26         0.2408
    313  N1        -2.7110  -10.8600    9.9060 N.ar   26  G26        -0.1709
    314  C2        -2.4260  -11.1180    8.5800 C.ar   26  G26         0.2606
    315  N2        -2.8990  -10.2410    7.6810 N.pl3  26  G26        -0.0859
    316  N3        -1.7240  -12.1600    8.1640 N.ar   26  G26        -0.1918
    317  C4        -1.3270  -12.9400    9.1900 C.ar   26  G26         0.1723
    318  C5        -1.5600  -12.7770   10.5400 C.ar   26  G26         0.1748
    319  C6        -2.3040  -11.6520   10.9800 C.ar   26  G26         0.3023
    320  O6        -2.5960  -11.3280   12.1430 O.2    26  G26        -0.2633
    321  N7        -0.9850  -13.8090   11.2650 N.ar   26  G26        -0.2173
    322  C8        -0.4130  -14.5570   10.3620 C.ar   26  G26         0.1817
    323  N9        -0.5680  -14.0750    9.0860 N.ar   26  G26        -0.2693
    324  OP1        4.2940  -18.2240   10.7240 O.2    26  G26        -0.5172
    325  OP2        3.0990  -16.8220   12.5220 O.co2  26  G26        -0.4373
    326  P          4.5530  -13.3660    7.9450 P.3    27  U27         0.2141
    327  C5'        3.9220  -10.8180    7.7240 C.3    27  U27         0.1812
    328  O5'        3.8060  -12.1480    7.2440 O.3    27  U27        -0.3114
    329  C4'        2.9580   -9.9360    6.9770 C.3    27  U27         0.1773
    330  O4'        1.5950  -10.2870    7.3410 O.3    27  U27        -0.3307
    331  C3'        3.0180   -8.4560    7.2840 C.3    27  U27         0.1860
    332  O3'        4.0770   -7.8390    6.5790 O.3    27  U27        -0.3112
    333  C2'        1.6660   -7.9880    6.7710 C.3    27  U27         0.2309
    334  O2'        1.6240   -7.8740    5.3660 O.3    27  U27        -0.2156
    335  C1'        0.7660   -9.1380    7.2290 C.3    27  U27         0.2420
    336  N1         0.1980   -8.8360    8.5480 N.ar   27  U27        -0.2534
    337  C2        -0.5930   -7.7080    8.6490 C.ar   27  U27         0.3546
    338  O2        -0.8810   -7.0140    7.6860 O.2    27  U27        -0.2443
    339  N3        -1.0360   -7.4200    9.9150 N.ar   27  U27        -0.1530
    340  C4        -0.7870   -8.1330   11.0640 C.ar   27  U27         0.2846
    341  O4        -1.2020   -7.7000   12.1430 O.2    27  U27        -0.2650
    342  C5         0.0070   -9.3110   10.8750 C.ar   27  U27         0.0814
    343  C6         0.4590   -9.6180    9.6510 C.ar   27  U27         0.0870
    344  OP1        5.8640  -13.5810    7.2830 O.2    27  U27        -0.5172
    345  OP2        4.4930  -13.1940    9.4190 O.co2  27  U27        -0.4373
    346  P          4.9270   -6.6820    7.2910 P.3    28  C28         0.2141
    347  C5'        3.2930   -4.7280    6.7130 C.3    28  C28         0.1812
    348  O5'        3.8420   -5.5910    7.6950 O.3    28  C28        -0.3114
    349  C4'        2.3740   -3.7260    7.3580 C.3    28  C28         0.1773
    350  O4'        1.3010   -4.4400    8.0310 O.3    28  C28        -0.3307
    351  C3'        2.9750   -2.9010    8.4810 C.3    28  C28         0.1860
    352  O3'        3.7750   -1.8220    8.0170 O.3    28  C28        -0.3112
    353  C2'        1.7200   -2.4310    9.1980 C.3    28  C28         0.2309
    354  O2'        1.0150   -1.4370    8.4840 O.3    28  C28        -0.2156
    355  C1'        0.9020   -3.7160    9.1900 C.3    28  C28         0.2420
    356  N1         1.1780   -4.5330   10.3860 N.ar   28  C28        -0.2535
    357  C2         0.6650   -4.0960   11.6190 C.ar   28  C28         0.3532
    358  O2        -0.0060   -3.0420   11.6480 O.2    28  C28        -0.2443
    359  N3         0.9090   -4.8300   12.7360 N.ar   28  C28        -0.1739
    360  C4         1.6240   -5.9640   12.6480 C.ar   28  C28         0.1759
    361  N4         1.8290   -6.6670   13.7700 N.pl3  28  C28        -0.1070
    362  C5         2.1570   -6.4300   11.4040 C.ar   28  C28         0.0566
    363  C6         1.9130   -5.6890   10.3100 C.ar   28  C28         0.0850
    364  OP1        5.7910   -6.0800    6.2470 O.2    28  C28        -0.5172
    365  OP2        5.5370   -7.2480    8.5250 O.co2  28  C28        -0.4373
    366  P          4.9810   -1.2740    8.9390 P.3    29  A29         0.2141
    367  C5'        3.2620    0.4180    9.9770 C.3    29  A29         0.1812
    368  O5'        4.2410   -0.5960   10.1810 O.3    29  A29        -0.3114
    369  C4'        2.5870    0.7690   11.2770 C.3    29  A29         0.1773
    370  O4'        1.8720   -0.3880   11.7830 O.3    29  A29        -0.3307
    371  C3'        3.5110    1.1420   12.4210 C.3    29  A29         0.1860
    372  O3'        3.9040    2.4970   12.3290 O.3    29  A29        -0.3112
    373  C2'        2.6100    0.9110   13.6230 C.3    29  A29         0.2309
    374  O2'        1.6680    1.9570   13.7970 O.3    29  A29        -0.2156
    375  C1'        1.9060   -0.3810   13.2050 C.3    29  A29         0.2408
    376  N1         3.2070   -3.2870   17.2390 N.ar   29  A29        -0.2040
    377  C2         2.4730   -2.1710   17.1260 C.ar   29  A29         0.2016
    378  N3         2.1710   -1.4630   16.0350 N.ar   29  A29        -0.2048
    379  C4         2.7240   -2.0170   14.9430 C.ar   29  A29         0.1692
    380  C5         3.5040   -3.1620   14.8960 C.ar   29  A29         0.1518
    381  C6         3.7440   -3.8240   16.1230 C.ar   29  A29         0.1919
    382  N6         4.4680   -4.9430   16.2370 N.pl3  29  A29        -0.1054
    383  N7         3.9150   -3.4240   13.5920 N.ar   29  A29        -0.2193
    384  C8         3.3730   -2.4520   12.8940 C.ar   29  A29         0.1816
    385  N9         2.6380   -1.5670   13.6500 N.ar   29  A29        -0.2693
    386  OP1        5.6570   -0.2050    8.1590 O.2    29  A29        -0.5172
    387  OP2        5.7770   -2.4260    9.4490 O.co2  29  A29        -0.4373
    388  P          5.4370    2.8950   12.5750 P.3    30  C30         0.2141
    389  C5'        4.9060    3.7950   14.9790 C.3    30  C30         0.1812
    390  O5'        5.6020    2.8660   14.1570 O.3    30  C30        -0.3114
    391  C4'        4.9020    3.3170   16.4090 C.3    30  C30         0.1773
    392  O4'        4.2920    1.9990   16.4540 O.3    30  C30        -0.3307
    393  C3'        6.2680    3.0880   17.0340 C.3    30  C30         0.1860
    394  O3'        6.8430    4.3110   17.4890 O.3    30  C30        -0.3112
    395  C2'        5.9300    2.1230   18.1680 C.3    30  C30         0.2309
    396  O2'        5.3450    2.7410   19.3000 O.3    30  C30        -0.2156
    397  C1'        4.8860    1.2320   17.4920 C.3    30  C30         0.2420
    398  N1         5.4690    0.0070   16.9140 N.ar   30  C30        -0.2535
    399  C2         5.6290   -1.0980   17.7470 C.ar   30  C30         0.3532
    400  O2         5.2200   -1.0250   18.9140 O.2    30  C30        -0.2443
    401  N3         6.2200   -2.2160   17.2630 N.ar   30  C30        -0.1739
    402  C4         6.6390   -2.2540   15.9960 C.ar   30  C30         0.1759
    403  N4         7.2500   -3.3650   15.5780 N.pl3  30  C30        -0.1070
    404  C5         6.4550   -1.1530   15.1090 C.ar   30  C30         0.0566
    405  C6         5.8690   -0.0510   15.6060 C.ar   30  C30         0.0850
    406  OP1        5.5630    4.3000   12.1230 O.3    30  C30        -0.4373
    407  OP2        6.3130    1.8440   11.9870 O.co2  30  C30        -0.5172
    408  P          8.4310    4.5500   17.3500 P.3    31  A31         0.2141
    409  C5'        8.8360    4.1490   19.9110 C.3    31  A31         0.1812
    410  O5'        9.0390    3.7220   18.5660 O.3    31  A31        -0.3114
    411  C4'        9.4410    3.1550   20.8700 C.3    31  A31         0.1773
    412  O4'        8.6850    1.9200   20.8210 O.3    31  A31        -0.3307
    413  C3'       10.8670    2.7370   20.5540 C.3    31  A31         0.1860
    414  O3'       11.8000    3.6910   21.0650 O.3    31  A31        -0.3112
    415  C2'       10.9580    1.3840   21.2490 C.3    31  A31         0.2309
    416  O2'       11.1840    1.4830   22.6400 O.3    31  A31        -0.2156
    417  C1'        9.5560    0.8210   21.0080 C.3    31  A31         0.2408
    418  N1        10.6180   -3.8100   19.0120 N.ar   31  A31        -0.2040
    419  C2        10.7870   -3.3000   20.2420 C.ar   31  A31         0.2016
    420  N3        10.4790   -2.0860   20.7030 N.ar   31  A31        -0.2048
    421  C4         9.9170   -1.3390   19.7320 C.ar   31  A31         0.1692
    422  C5         9.6750   -1.7260   18.4240 C.ar   31  A31         0.1518
    423  C6        10.0620   -3.0290   18.0590 C.ar   31  A31         0.1919
    424  N6         9.9200   -3.5250   16.8300 N.pl3  31  A31        -0.1054
    425  N7         9.0740   -0.6960   17.7120 N.ar   31  A31        -0.2193
    426  C8         8.9740    0.2780   18.5880 C.ar   31  A31         0.1816
    427  N9         9.4760   -0.0370   19.8260 N.ar   31  A31        -0.2693
    428  OP1        8.6590    5.9930   17.6060 O.3    31  A31        -0.4373
    429  OP2        8.9260    3.9480   16.0870 O.co2  31  A31        -0.5172
    430  P         13.2220    3.8980   20.3330 P.3    32  C32         0.2141
    431  C5'       14.2020    2.3470   22.1970 C.3    32  C32         0.1812
    432  O5'       14.0710    2.6420   20.8130 O.3    32  C32        -0.3114
    433  C4'       14.5980    0.9040   22.3960 C.3    32  C32         0.1773
    434  O4'       13.5680    0.0440   21.8360 O.3    32  C32        -0.3307
    435  C3'       15.8580    0.4410   21.6800 C.3    32  C32         0.1860
    436  O3'       17.0420    0.8470   22.3660 O.3    32  C32        -0.3112
    437  C2'       15.6620   -1.0740   21.6580 C.3    32  C32         0.2309
    438  O2'       15.9690   -1.7190   22.8800 O.3    32  C32        -0.2156
    439  C1'       14.1560   -1.1770   21.4010 C.3    32  C32         0.2420
    440  N1        13.8210   -1.3970   19.9800 N.ar   32  C32        -0.2535
    441  C2        13.9150   -2.6970   19.4630 C.ar   32  C32         0.3532
    442  O2        14.2440   -3.6210   20.2270 O.2    32  C32        -0.2443
    443  N3        13.6390   -2.9130   18.1480 N.ar   32  C32        -0.1739
    444  C4        13.2660   -1.8930   17.3690 C.ar   32  C32         0.1759
    445  N4        12.9800   -2.1540   16.0900 N.pl3  32  C32        -0.1070
    446  C5        13.1580   -0.5630   17.8700 C.ar   32  C32         0.0566
    447  C6        13.4380   -0.3620   19.1710 C.ar   32  C32         0.0850
    448  OP1       13.8270    5.1180   20.9210 O.3    32  C32        -0.4373
    449  OP2       13.0420    3.8110   18.8590 O.co2  32  C32        -0.5172
    450  P         18.3970    1.1310   21.5340 P.3    33  C33         0.2141
    451  C5'       19.2230   -1.2570   22.2550 C.3    33  C33         0.1812
    452  O5'       18.9390   -0.3320   21.2070 O.3    33  C33        -0.3114
    453  C4'       19.5770   -2.6170   21.6880 C.3    33  C33         0.1773
    454  O4'       18.3820   -3.2810   21.1930 O.3    33  C33        -0.3307
    455  C3'       20.5140   -2.6300   20.4920 C.3    33  C33         0.1860
    456  O3'       21.8730   -2.5140   20.8780 O.3    33  C33        -0.3112
    457  C2'       20.2360   -4.0000   19.9020 C.3    33  C33         0.2309
    458  O2'       20.8700   -5.0070   20.6630 O.3    33  C33        -0.2156
    459  C1'       18.7200   -4.0960   20.0810 C.3    33  C33         0.2420
    460  N1        17.9800   -3.6180   18.9000 N.ar   33  C33        -0.2535
    461  C2        17.8910   -4.4560   17.7890 C.ar   33  C33         0.3532
    462  O2        18.4160   -5.5840   17.8440 O.2    33  C33        -0.2443
    463  N3        17.2430   -4.0200   16.6840 N.ar   33  C33        -0.1739
    464  C4        16.7060   -2.8010   16.6630 C.ar   33  C33         0.1759
    465  N4        16.1070   -2.4050   15.5390 N.pl3  33  C33        -0.1070
    466  C5        16.7670   -1.9320   17.7890 C.ar   33  C33         0.0566
    467  C6        17.4040   -2.3780   18.8770 C.ar   33  C33         0.0850
    468  OP1       19.3410    1.7780   22.4820 O.3    33  C33        -0.4373
    469  OP2       18.0760    1.8140   20.2530 O.co2  33  C33        -0.5172
    470  P         22.8960   -1.7530   19.9090 P.3    34  G34         0.2141
    471  C5'       23.7930   -4.0630   19.0690 C.3    34  G34         0.1813
    472  O5'       23.1940   -2.8120   18.7620 O.3    34  G34        -0.3114
    473  C4'       23.7840   -4.9600   17.8520 C.3    34  G34         0.1801
    474  O4'       22.4210   -5.3580   17.5420 O.3    34  G34        -0.3306
    475  C3'       24.2780   -4.3380   16.5570 C.3    34  G34         0.2161
    476  O3'       25.6860   -4.3880   16.4480 O.3    34  G34        -0.2175
    477  C2'       23.6650   -5.2680   15.5280 C.3    34  G34         0.2337
    478  O2'       24.3950   -6.4690   15.4250 O.3    34  G34        -0.2155
    479  C1'       22.2880   -5.5210   16.1410 C.3    34  G34         0.2409
    480  N1        19.3210   -4.2630   12.2470 N.ar   34  G34        -0.1709
    481  C2        20.1480   -5.3480   12.4140 C.ar   34  G34         0.2606
    482  N2        20.2080   -6.2170   11.4090 N.pl3  34  G34        -0.0859
    483  N3        20.8660   -5.5680   13.4940 N.ar   34  G34        -0.1918
    484  C4        20.6970   -4.6020   14.4220 C.ar   34  G34         0.1723
    485  C5        19.9040   -3.4780   14.3620 C.ar   34  G34         0.1748
    486  C6        19.1290   -3.2520   13.1900 C.ar   34  G34         0.3023
    487  O6        18.3580   -2.3150   12.9420 O.2    34  G34        -0.2633
    488  N7        20.0190   -2.7330   15.5270 N.ar   34  G34        -0.2173
    489  C8        20.8640   -3.4070   16.2610 C.ar   34  G34         0.1817
    490  N9        21.3190   -4.5490   15.6430 N.ar   34  G34        -0.2693
    491  OP1       24.1420   -1.5120   20.6640 O.3    34  G34        -0.4373
    492  OP2       22.1790   -0.6140   19.2900 O.co2  34  G34        -0.5172
@<TRIPOS>BOND
     1    19     1    1
     2     2     4    1
     3     2     3    1
     4     1     3    1
     5     1    20    1
     6   258   240    2
     7     4     5    1
     8     4     6    1
     9   225   224    1
    10   241   243    1
    11   241   242    1
    12   334   333    1
    13     5    10    1
    14   223   240    1
    15   223   222    1
    16   246   245    1
    17   243   245    1
    18   243   244    1
    19     7     6    1
    20     7    21    1
    21   240   242    1
    22   240   259    1
    23   220   222    1
    24   220   218    1
    25   220   221    1
    26   311   310    1
    27    42    21    2
    28     6     8    1
    29     9     8    1
    30   364   346    2
    31   224   222    1
    32   224   226    1
    33   218   219    1
    34   245   247    1
    35   332   331    1
    36   332   346    1
    37   248   247    1
    38    10     8    1
    39    10    11    1
    40   244   249    1
    41   347   349    1
    42   347   348    1
    43   221   226    1
    44   333   335    1
    45   333   331    1
    46   205   204    1
    47    21    43    1
    48    21    23    1
    49   329   331    1
    50   329   330    1
    51   329   327    1
    52   226   237    1
    53   335   330    1
    54   335   336    1
    55   328   327    1
    56   328   326    1
    57   344   326    2
    58   346   348    1
    59   346   365    1
    60   247   249    1
    61   349   350    1
    62   349   351    1
    63    18    11   ar
    64    18    17   ar
    65   310   312    1
    66   310   308    1
    67   309   326    1
    68   309   308    1
    69   315   314    1
    70   338   337    2
    71    11    12   ar
    72   249   250    1
    73   219   217    1
    74   312   307    1
    75   312   323    1
    76   238   217    2
    77   306   307    1
    78   306   308    1
    79   306   304    1
    80   326   345    1
    81    22    23    1
    82    22    24    1
    83   352   351    1
    84   352   366    1
    85   350   355    1
    86   386   366    2
    87   204   206    1
    88   204   202    1
    89   316   314   ar
    90   316   317   ar
    91   203   217    1
    92   203   202    1
    93    17    15   ar
    94   237   231   ar
    95   237   236   ar
    96   351   353    1
    97   354   353    1
    98   230   231   ar
    99   230   228   ar
   100   209   208    2
   101   336   337   ar
   102   336   343   ar
   103   217   239    1
   104   314   313   ar
   105   337   339   ar
   106   304   305    1
   107   206   201    1
   108   206   207    1
   109   229   228    1
   110   202   200    1
   111    12    13    2
   112    12    14   ar
   113   366   387    1
   114   366   368    1
   115   200   201    1
   116   200   198    1
   117   250   257   ar
   118   250   251   ar
   119   323   317   ar
   120   323   322   ar
   121   231   232   ar
   122   257   256   ar
   123   355   353    1
   124   355   356    1
   125   317   318   ar
   126    24    25    1
   127    24    26    1
   128   228   227   ar
   129   236   235   ar
   130    25    30    1
   131    15    14   ar
   132    15    16    1
   133   291   290    1
   134   343   342   ar
   135   208   207   ar
   136   208   210   ar
   137   313   319   ar
   138   339   340   ar
   139   207   214   ar
   140   252   251    2
   141   367   368    1
   142   367   369    1
   143   198   199    1
   144   305   303    1
   145   251   253   ar
   146   363   356   ar
   147   363   362   ar
   148   256   254   ar
   149   295   294    2
   150   322   321   ar
   151   356   357   ar
   152   232   235   ar
   153   232   233   ar
   154    40    39   ar
   155    40    41   ar
   156    26    27    1
   157    26    28    1
   158   318   319   ar
   159   318   321   ar
   160   210   211   ar
   161    27    44    1
   162   227   233   ar
   163   324   303    2
   164   342   340   ar
   165   290   292    1
   166   290   288    1
   167    30    41    1
   168    30    28    1
   169   319   320    2
   170    39    36   ar
   171   340   341    2
   172    66    44    2
   173   214   213   ar
   174    41    35   ar
   175   303   289    1
   176   303   325    1
   177   369   370    1
   178   369   371    1
   179   199   197    1
   180   253   254   ar
   181   233   234    2
   182   289   288    1
   183    65    44    1
   184   362   360   ar
   185   482   481    1
   186   254   255    1
   187   292   293    1
   188   292   287    1
   189    44    46    1
   190   294   296   ar
   191   294   293   ar
   192    28    29    1
   193   357   358    2
   194   357   359   ar
   195   185   184    1
   196   189   188    2
   197   370   375    1
   198   272   271    1
   199   288   286    1
   200   211   213   ar
   201   211   212    1
   202   407   388    2
   203   406   388    1
   204   215   197    2
   205   480   481   ar
   206   480   486   ar
   207   296   297   ar
   208    36    35   ar
   209    36    37   ar
   210   293   300   ar
   211   372   371    1
   212   372   388    1
   213   286   287    1
   214   286   284    1
   215   481   483   ar
   216    35    34   ar
   217   371   373    1
   218   388   390    1
   219   197   183    1
   220   197   216    1
   221   184   186    1
   222   184   182    1
   223   360   359   ar
   224   360   361    1
   225   384   383   ar
   226   384   385   ar
   227   188   190   ar
   228   188   187   ar
   229   487   486    2
   230    46    45    1
   231   183   182    1
   232   271   270   ar
   233   271   273   ar
   234   486   485   ar
   235   375   373    1
   236   375   385    1
   237   190   191   ar
   238    37    38    2
   239    37    31   ar
   240    34    32   ar
   241   483   484   ar
   242   270   276   ar
   243   186   187    1
   244   186   181    1
   245   383   380   ar
   246   297   298    1
   247   297   299   ar
   248   373   374    1
   249   385   379   ar
   250   300   299   ar
   251   182   180    1
   252   284   285    1
   253    45    47    1
   254   187   194   ar
   255   273   274   ar
   256   166   165    1
   257    62    63   ar
   258    62    59   ar
   259   390   389    1
   260    63    64   ar
   261   485   484   ar
   262   485   488   ar
   263   484   490   ar
   264    31    32   ar
   265    32    33    1
   266   191   192    2
   267   191   193   ar
   268   180   181    1
   269   180   178    1
   270   285   283    1
   271   276   277    2
   272   276   275   ar
   273   380   379   ar
   274   380   381   ar
   275    48    47    1
   276    48    53    1
   277   379   378   ar
   278   389   391    1
   279    61    60    2
   280   268   267    1
   281    47    49    1
   282   404   405   ar
   283   404   402   ar
   284   194   193   ar
   285   164   165   ar
   286   164   170   ar
   287   165   167   ar
   288    59    60   ar
   289    59    58   ar
   290   274   275   ar
   291   274   280   ar
   292   478   477    1
   293    64    53    1
   294    64    58   ar
   295   488   489   ar
   296   477   479    1
   297   477   475    1
   298   465   464    1
   299   403   402    1
   300   405   398   ar
   301   490   479    1
   302   490   489   ar
   303    60    54   ar
   304   267   269    1
   305   267   265    1
   306   275   278   ar
   307   402   401   ar
   308    53    51    1
   309   178   179    1
   310    49    50    1
   311    49    51    1
   312   378   377   ar
   313   429   408    2
   314   445   444    1
   315    58    57   ar
   316   381   382    1
   317   381   376   ar
   318   301   283    2
   319   479   474    1
   320   283   266    1
   321   283   302    1
   322   171   170    2
   323   170   169   ar
   324   167   168   ar
   325   280   269    1
   326   280   279   ar
   327   269   264    1
   328   391   392    1
   329   391   393    1
   330   476   475    1
   331   392   397    1
   332    86    67    2
   333   475   473    1
   334    82    81    2
   335   179   177    1
   336   464   463   ar
   337   464   466   ar
   338   266   265    1
   339   463   461   ar
   340    50    67    1
   341   424   423    1
   342   398   397    1
   343   398   399   ar
   344    54    55   ar
   345   265   263    1
   346    51    52    1
   347   393   394    1
   348   393   395    1
   349   278   279   ar
   350   377   376   ar
   351   401   399   ar
   352    83    81   ar
   353    83    84   ar
   354    57    55   ar
   355   408   394    1
   356   408   428    1
   357   408   410    1
   358   168   169   ar
   359   168   174   ar
   360   444   446   ar
   361   444   443   ar
   362    67    85    1
   363    67    69    1
   364    81    80   ar
   365   169   172   ar
   366   397   395    1
   367   474   473    1
   368   104   103    2
   369    55    56    1
   370   425   422   ar
   371   425   426   ar
   372   264   263    1
   373   399   400    2
   374   466   467   ar
   375   461   462    2
   376   461   460   ar
   377   473   471    1
   378   446   447   ar
   379   263   261    1
   380   423   422   ar
   381   423   418   ar
   382   162   161    1
   383   177   195    2
   384   177   196    1
   385   177   160    1
   386   443   441   ar
   387   395   396    1
   388   161   163    1
   389   161   159    1
   390    84    77   ar
   391   422   421   ar
   392    80    78   ar
   393   410   409    1
   394   426   427   ar
   395    69    68    1
   396   174   163    1
   397   174   173   ar
   398   172   173   ar
   399   103    97   ar
   400   103   102   ar
   401   472   471    1
   402   472   470    1
   403   449   430    2
   404   467   460   ar
   405   460   459    1
   406   160   159    1
   407   418   419   ar
   408   163   158    1
   409   159   157    1
   410   447   440   ar
   411    97    98   ar
   412   492   470    2
   413    77    78   ar
   414    77    76    1
   415   261   262    1
   416   441   440   ar
   417   441   442    2
   418    78    79    2
   419   105   102   ar
   420   105   106   ar
   421   262   260    1
   422    68    70    1
   423   102   101   ar
   424   421   427   ar
   425   421   420   ar
   426   427   417    1
   427   457   459    1
   428   457   455    1
   429   457   458    1
   430   470   491    1
   431   470   456    1
   432   409   411    1
   433    71    76    1
   434    71    70    1
   435   440   439    1
   436   459   454    1
   437   419   420   ar
   438   469   450    2
   439   430   432    1
   440   430   448    1
   441   430   414    1
   442   158   157    1
   443    76    74    1
   444   455   456    1
   445   455   453    1
   446   413   411    1
   447   413   414    1
   448   413   415    1
   449   157   155    1
   450    98    99    1
   451    98   100   ar
   452    70    72    1
   453   432   431    1
   454   412   411    1
   455   412   417    1
   456   106   107   ar
   457   281   260    1
   458   417   415    1
   459   101   100   ar
   460   101   107   ar
   461    72    74    1
   462    72    73    1
   463   260   282    1
   464   156   155    1
   465   156   154    1
   466   454   453    1
   467   452   450    1
   468   452   451    1
   469   415   416    1
   470   109    87    2
   471   439   437    1
   472   439   434    1
   473   450   436    1
   474   450   468    1
   475    74    75    1
   476   437   435    1
   477   437   438    1
   478   435   436    1
   479   435   433    1
   480   453   451    1
   481   107    96    1
   482   175   154    2
   483   176   154    1
   484   434   433    1
   485   154   138    1
   486   431   433    1
   487    73    87    1
   488    87    89    1
   489    87   108    1
   490   152   132    2
   491    89    88    1
   492    96    91    1
   493    96    94    1
   494    91    90    1
   495   138   137    1
   496   153   132    1
   497   132   134    1
   498   132   116    1
   499    94    92    1
   500    94    95    1
   501    88    90    1
   502   137   139    1
   503   137   135    1
   504    90    92    1
   505    92    93    1
   506   131   110    2
   507   134   133    1
   508   133   135    1
   509   116   115    1
   510   139   140    1
   511   139   141    1
   512   135   136    1
   513    93   110    1
   514   110   112    1
   515   110   130    1
   516   150   149   ar
   517   150   151   ar
   518   111   112    1
   519   111   113    1
   520   115   113    1
   521   115   117    1
   522   149   146   ar
   523   136   141    1
   524   141   151    1
   525   151   145   ar
   526   113   114    1
   527   146   145   ar
   528   146   147   ar
   529   117   118    1
   530   117   119    1
   531   145   144   ar
   532   148   147    1
   533   114   119    1
   534   147   142   ar
   535   144   143   ar
   536   119   129    1
   537   128   129   ar
   538   128   127   ar
   539   129   123   ar
   540   142   143   ar
   541   127   124   ar
   542   123   124   ar
   543   123   122   ar
   544   124   125   ar
   545   122   121   ar
   546   125   126    1
   547   125   120   ar
   548   121   120   ar
