ligand
 OpenBabel11021811483D
libRbt.so/2013.1/901 2013/11/27
 11 12  0  0  0  0  0  0  0  0999 V2000
   36.9757   -8.8216  -37.4136 N   0  0  0  0  0  0  0  0  0  0  0  0
   37.8990   -9.2714  -36.5506 C   0  0  0  0  0  0  0  0  0  0  0  0
   38.9194   -8.3807  -36.0973 N   0  0  0  0  0  0  0  0  0  0  0  0
   37.8821  -10.5332  -36.1082 N   0  0  0  0  0  0  0  0  0  0  0  0
   36.9046  -11.4109  -36.5348 C   0  0  0  0  0  0  0  0  0  0  0  0
   35.9548  -10.9682  -37.4181 C   0  0  0  0  0  0  0  0  0  0  0  0
   35.9880   -9.6120  -37.8802 C   0  0  0  0  0  0  0  0  0  0  0  0
   34.7783   -8.9933  -39.0144 S   0  0  0  0  0  0  0  0  0  0  0  0
   35.1125  -12.0179  -37.6817 N   0  0  0  0  0  0  0  0  0  0  0  0
   35.5388  -13.0941  -36.9703 C   0  0  0  0  0  0  0  0  0  0  0  0
   36.6438  -12.7406  -36.2553 N   0  0  0  0  0  0  0  0  0  0  0  0
  1  2  2  0  0  0  0
  1  7  1  0  0  0  0
  2  3  1  0  0  0  0
  2  4  1  0  0  0  0
  4  5  2  0  0  0  0
  5  6  1  0  0  0  0
  5 11  1  0  0  0  0
  6  7  2  0  0  0  0
  6  9  1  0  0  0  0
  7  8  1  0  0  0  0
  9 10  1  0  0  0  0
 10 11  2  0  0  0  0
M  END
>  <CHROM.1>
36.39566858,-10.33078648,-37.31038489,-1.40072573,0.61991271,2.79724058

>  <Name>
ligand

>  <RI>
0

>  <Rbt.Current_Directory>
/home/itssahil/PROJECTS/Mol_Feturizer/New_Systems/rnas/3RKF

>  <Rbt.Executable>
rbdock ($Id: //depot/dev/client3/rdock/2013.1/src/exe/rbdock.cxx#4 $)

>  <Rbt.Library>
libRbt.so (2013.1, Build901 2013/11/27)

>  <Rbt.Parameter_File>
/export/apps/rDock/src/rDock_2013.1_src/data/scripts/dock_solv.prm

>  <Rbt.Receptor>
prm/pocket_docking_5.prm

>  <SCORE>
-14.3322

>  <SCORE.INTER>
-14.3322

>  <SCORE.INTER.CONST>
1

>  <SCORE.INTER.POLAR>
0

>  <SCORE.INTER.ROT>
0

>  <SCORE.INTER.SOLV>
12.6634

>  <SCORE.INTER.VDW>
-17.3759

>  <SCORE.INTER.norm>
-1.30293

>  <SCORE.INTRA>
0

>  <SCORE.INTRA.DIHEDRAL>
0

>  <SCORE.INTRA.DIHEDRAL.0>
0

>  <SCORE.INTRA.POLAR>
0

>  <SCORE.INTRA.POLAR.0>
0

>  <SCORE.INTRA.REPUL>
0

>  <SCORE.INTRA.REPUL.0>
0

>  <SCORE.INTRA.SOLV>
0

>  <SCORE.INTRA.SOLV.lig_0>
-28.6198

>  <SCORE.INTRA.VDW>
0

>  <SCORE.INTRA.VDW.0>
0

>  <SCORE.INTRA.norm>
0

>  <SCORE.RESTR>
0

>  <SCORE.RESTR.CAVITY>
0

>  <SCORE.RESTR.norm>
0

>  <SCORE.SYSTEM>
0

>  <SCORE.SYSTEM.CONST>
0

>  <SCORE.SYSTEM.DIHEDRAL>
0

>  <SCORE.SYSTEM.SOLV>
0

>  <SCORE.SYSTEM.norm>
0

>  <SCORE.heavy>
11

>  <SCORE.norm>
-1.30293

>  <RMSD>
0.777

$$$$
ligand
 OpenBabel11021811483D
libRbt.so/2013.1/901 2013/11/27
 11 12  0  0  0  0  0  0  0  0999 V2000
   36.9545   -8.8405  -37.3252 N   0  0  0  0  0  0  0  0  0  0  0  0
   37.8619   -9.3123  -36.4573 C   0  0  0  0  0  0  0  0  0  0  0  0
   38.8847   -8.4386  -35.9770 N   0  0  0  0  0  0  0  0  0  0  0  0
   37.8271  -10.5805  -36.0347 N   0  0  0  0  0  0  0  0  0  0  0  0
   36.8471  -11.4421  -36.4875 C   0  0  0  0  0  0  0  0  0  0  0  0
   35.9134  -10.9767  -37.3763 C   0  0  0  0  0  0  0  0  0  0  0  0
   35.9656   -9.6140  -37.8169 C   0  0  0  0  0  0  0  0  0  0  0  0
   34.7769   -8.9662  -38.9572 S   0  0  0  0  0  0  0  0  0  0  0  0
   35.0647  -12.0141  -37.6671 N   0  0  0  0  0  0  0  0  0  0  0  0
   35.4712  -13.1051  -36.9668 C   0  0  0  0  0  0  0  0  0  0  0  0
   36.5700  -12.7732  -36.2320 N   0  0  0  0  0  0  0  0  0  0  0  0
  1  2  2  0  0  0  0
  1  7  1  0  0  0  0
  2  3  1  0  0  0  0
  2  4  1  0  0  0  0
  4  5  2  0  0  0  0
  5  6  1  0  0  0  0
  5 11  1  0  0  0  0
  6  7  2  0  0  0  0
  6  9  1  0  0  0  0
  7  8  1  0  0  0  0
  9 10  1  0  0  0  0
 10 11  2  0  0  0  0
M  END
>  <CHROM.1>
36.35877340,-10.34531847,-37.25295760,-1.38412609,0.62910594,2.80289415

>  <Name>
ligand

>  <RI>
0

>  <Rbt.Current_Directory>
/home/itssahil/PROJECTS/Mol_Feturizer/New_Systems/rnas/3RKF

>  <Rbt.Executable>
rbdock ($Id: //depot/dev/client3/rdock/2013.1/src/exe/rbdock.cxx#4 $)

>  <Rbt.Library>
libRbt.so (2013.1, Build901 2013/11/27)

>  <Rbt.Parameter_File>
/export/apps/rDock/src/rDock_2013.1_src/data/scripts/dock_solv.prm

>  <Rbt.Receptor>
prm/blind_docking_60.prm

>  <SCORE>
-14.2564

>  <SCORE.INTER>
-14.2564

>  <SCORE.INTER.CONST>
1

>  <SCORE.INTER.POLAR>
0

>  <SCORE.INTER.ROT>
0

>  <SCORE.INTER.SOLV>
12.7391

>  <SCORE.INTER.VDW>
-17.3507

>  <SCORE.INTER.norm>
-1.29604

>  <SCORE.INTRA>
0

>  <SCORE.INTRA.DIHEDRAL>
0

>  <SCORE.INTRA.DIHEDRAL.0>
0

>  <SCORE.INTRA.POLAR>
0

>  <SCORE.INTRA.POLAR.0>
0

>  <SCORE.INTRA.REPUL>
0

>  <SCORE.INTRA.REPUL.0>
0

>  <SCORE.INTRA.SOLV>
0

>  <SCORE.INTRA.SOLV.lig_0>
-28.6198

>  <SCORE.INTRA.VDW>
0

>  <SCORE.INTRA.VDW.0>
0

>  <SCORE.INTRA.norm>
0

>  <SCORE.RESTR>
0

>  <SCORE.RESTR.CAVITY>
0

>  <SCORE.RESTR.norm>
0

>  <SCORE.SYSTEM>
0

>  <SCORE.SYSTEM.CONST>
0

>  <SCORE.SYSTEM.DIHEDRAL>
0

>  <SCORE.SYSTEM.SOLV>
0

>  <SCORE.SYSTEM.norm>
0

>  <SCORE.heavy>
11

>  <SCORE.norm>
-1.29604

>  <RMSD>
0.839

$$$$
ligand
 OpenBabel11021811483D
libRbt.so/2013.1/901 2013/11/27
 11 12  0  0  0  0  0  0  0  0999 V2000
   37.0002   -8.8688  -37.3480 N   0  0  0  0  0  0  0  0  0  0  0  0
   37.9103   -9.3241  -36.4741 C   0  0  0  0  0  0  0  0  0  0  0  0
   38.9351   -8.4417  -36.0143 N   0  0  0  0  0  0  0  0  0  0  0  0
   37.8765  -10.5838  -36.0268 N   0  0  0  0  0  0  0  0  0  0  0  0
   36.8946  -11.4536  -36.4595 C   0  0  0  0  0  0  0  0  0  0  0  0
   35.9581  -11.0052  -37.3540 C   0  0  0  0  0  0  0  0  0  0  0  0
   36.0093   -9.6513  -37.8212 C   0  0  0  0  0  0  0  0  0  0  0  0
   34.8171   -9.0253  -38.9699 S   0  0  0  0  0  0  0  0  0  0  0  0
   35.1079  -12.0475  -37.6217 N   0  0  0  0  0  0  0  0  0  0  0  0
   35.5164  -13.1249  -36.9017 C   0  0  0  0  0  0  0  0  0  0  0  0
   36.6178  -12.7794  -36.1772 N   0  0  0  0  0  0  0  0  0  0  0  0
  1  2  2  0  0  0  0
  1  7  1  0  0  0  0
  2  3  1  0  0  0  0
  2  4  1  0  0  0  0
  4  5  2  0  0  0  0
  5  6  1  0  0  0  0
  5 11  1  0  0  0  0
  6  7  2  0  0  0  0
  6  9  1  0  0  0  0
  7  8  1  0  0  0  0
  9 10  1  0  0  0  0
 10 11  2  0  0  0  0
M  END
>  <CHROM.1>
36.40412598,-10.37167879,-37.24445257,-1.38504771,0.62578239,2.78398768

>  <Name>
ligand

>  <RI>
0

>  <Rbt.Current_Directory>
/home/itssahil/PROJECTS/Mol_Feturizer/New_Systems/rnas/3RKF

>  <Rbt.Executable>
rbdock ($Id: //depot/dev/client3/rdock/2013.1/src/exe/rbdock.cxx#4 $)

>  <Rbt.Library>
libRbt.so (2013.1, Build901 2013/11/27)

>  <Rbt.Parameter_File>
/export/apps/rDock/src/rDock_2013.1_src/data/scripts/dock_solv.prm

>  <Rbt.Receptor>
prm/blind_docking_60.prm

>  <SCORE>
-14.2584

>  <SCORE.INTER>
-14.2584

>  <SCORE.INTER.CONST>
1

>  <SCORE.INTER.POLAR>
0

>  <SCORE.INTER.ROT>
0

>  <SCORE.INTER.SOLV>
12.8732

>  <SCORE.INTER.VDW>
-17.3967

>  <SCORE.INTER.norm>
-1.29622

>  <SCORE.INTRA>
0

>  <SCORE.INTRA.DIHEDRAL>
0

>  <SCORE.INTRA.DIHEDRAL.0>
0

>  <SCORE.INTRA.POLAR>
0

>  <SCORE.INTRA.POLAR.0>
0

>  <SCORE.INTRA.REPUL>
0

>  <SCORE.INTRA.REPUL.0>
0

>  <SCORE.INTRA.SOLV>
0

>  <SCORE.INTRA.SOLV.lig_0>
-28.6198

>  <SCORE.INTRA.VDW>
0

>  <SCORE.INTRA.VDW.0>
0

>  <SCORE.INTRA.norm>
0

>  <SCORE.RESTR>
0

>  <SCORE.RESTR.CAVITY>
0

>  <SCORE.RESTR.norm>
0

>  <SCORE.SYSTEM>
0

>  <SCORE.SYSTEM.CONST>
0

>  <SCORE.SYSTEM.DIHEDRAL>
0

>  <SCORE.SYSTEM.SOLV>
0

>  <SCORE.SYSTEM.norm>
0

>  <SCORE.heavy>
11

>  <SCORE.norm>
-1.29622

>  <RMSD>
0.846

$$$$
ligand
 OpenBabel11021811483D
libRbt.so/2013.1/901 2013/11/27
 11 12  0  0  0  0  0  0  0  0999 V2000
   37.0505   -8.8868  -37.3286 N   0  0  0  0  0  0  0  0  0  0  0  0
   37.9431   -9.3827  -36.4586 C   0  0  0  0  0  0  0  0  0  0  0  0
   38.9940   -8.5397  -35.9841 N   0  0  0  0  0  0  0  0  0  0  0  0
   37.8679  -10.6467  -36.0287 N   0  0  0  0  0  0  0  0  0  0  0  0
   36.8601  -11.4788  -36.4759 C   0  0  0  0  0  0  0  0  0  0  0  0
   35.9411  -10.9887  -37.3665 C   0  0  0  0  0  0  0  0  0  0  0  0
   36.0367   -9.6309  -37.8150 C   0  0  0  0  0  0  0  0  0  0  0  0
   34.8684   -8.9517  -38.9581 S   0  0  0  0  0  0  0  0  0  0  0  0
   35.0591  -11.9998  -37.6507 N   0  0  0  0  0  0  0  0  0  0  0  0
   35.4310  -13.0993  -36.9445 C   0  0  0  0  0  0  0  0  0  0  0  0
   36.5405  -12.7989  -36.2125 N   0  0  0  0  0  0  0  0  0  0  0  0
  1  2  2  0  0  0  0
  1  7  1  0  0  0  0
  2  3  1  0  0  0  0
  2  4  1  0  0  0  0
  4  5  2  0  0  0  0
  5  6  1  0  0  0  0
  5 11  1  0  0  0  0
  6  7  2  0  0  0  0
  6  9  1  0  0  0  0
  7  8  1  0  0  0  0
  9 10  1  0  0  0  0
 10 11  2  0  0  0  0
M  END
>  <CHROM.1>
36.40669785,-10.37126761,-37.24717871,-1.34724952,0.61716063,2.77564538

>  <Name>
ligand

>  <RI>
0

>  <Rbt.Current_Directory>
/home/itssahil/PROJECTS/Mol_Feturizer/New_Systems/rnas/3RKF

>  <Rbt.Executable>
rbdock ($Id: //depot/dev/client3/rdock/2013.1/src/exe/rbdock.cxx#4 $)

>  <Rbt.Library>
libRbt.so (2013.1, Build901 2013/11/27)

>  <Rbt.Parameter_File>
/export/apps/rDock/src/rDock_2013.1_src/data/scripts/dock_solv.prm

>  <Rbt.Receptor>
prm/pocket_docking_7.prm

>  <SCORE>
-14.2509

>  <SCORE.INTER>
-14.2509

>  <SCORE.INTER.CONST>
1

>  <SCORE.INTER.POLAR>
0

>  <SCORE.INTER.ROT>
0

>  <SCORE.INTER.SOLV>
13.1215

>  <SCORE.INTER.VDW>
-17.4744

>  <SCORE.INTER.norm>
-1.29553

>  <SCORE.INTRA>
0

>  <SCORE.INTRA.DIHEDRAL>
0

>  <SCORE.INTRA.DIHEDRAL.0>
0

>  <SCORE.INTRA.POLAR>
0

>  <SCORE.INTRA.POLAR.0>
0

>  <SCORE.INTRA.REPUL>
0

>  <SCORE.INTRA.REPUL.0>
0

>  <SCORE.INTRA.SOLV>
0

>  <SCORE.INTRA.SOLV.lig_0>
-28.6198

>  <SCORE.INTRA.VDW>
0

>  <SCORE.INTRA.VDW.0>
0

>  <SCORE.INTRA.norm>
0

>  <SCORE.RESTR>
0

>  <SCORE.RESTR.CAVITY>
0

>  <SCORE.RESTR.norm>
0

>  <SCORE.SYSTEM>
0

>  <SCORE.SYSTEM.CONST>
0

>  <SCORE.SYSTEM.DIHEDRAL>
0

>  <SCORE.SYSTEM.SOLV>
0

>  <SCORE.SYSTEM.norm>
0

>  <SCORE.heavy>
11

>  <SCORE.norm>
-1.29553

>  <RMSD>
0.875

$$$$
ligand
 OpenBabel11021811483D
libRbt.so/2013.1/901 2013/11/27
 11 12  0  0  0  0  0  0  0  0999 V2000
   37.0569   -8.8932  -37.3221 N   0  0  0  0  0  0  0  0  0  0  0  0
   37.9575   -9.3799  -36.4553 C   0  0  0  0  0  0  0  0  0  0  0  0
   38.9996   -8.5252  -35.9822 N   0  0  0  0  0  0  0  0  0  0  0  0
   37.8984  -10.6453  -36.0271 N   0  0  0  0  0  0  0  0  0  0  0  0
   36.8994  -11.4886  -36.4730 C   0  0  0  0  0  0  0  0  0  0  0  0
   35.9722  -11.0080  -37.3604 C   0  0  0  0  0  0  0  0  0  0  0  0
   36.0507   -9.6485  -37.8070 C   0  0  0  0  0  0  0  0  0  0  0  0
   34.8714   -8.9814  -38.9460 S   0  0  0  0  0  0  0  0  0  0  0  0
   35.1015  -12.0290  -37.6439 N   0  0  0  0  0  0  0  0  0  0  0  0
   35.4882  -13.1252  -36.9404 C   0  0  0  0  0  0  0  0  0  0  0  0
   36.5961  -12.8128  -36.2108 N   0  0  0  0  0  0  0  0  0  0  0  0
  1  2  2  0  0  0  0
  1  7  1  0  0  0  0
  2  3  1  0  0  0  0
  2  4  1  0  0  0  0
  4  5  2  0  0  0  0
  5  6  1  0  0  0  0
  5 11  1  0  0  0  0
  6  7  2  0  0  0  0
  6  9  1  0  0  0  0
  7  8  1  0  0  0  0
  9 10  1  0  0  0  0
 10 11  2  0  0  0  0
M  END
>  <CHROM.1>
36.43085996,-10.38532409,-37.24133871,-1.36196722,0.61887333,2.78573457

>  <Name>
ligand

>  <RI>
0

>  <Rbt.Current_Directory>
/home/itssahil/PROJECTS/Mol_Feturizer/New_Systems/rnas/3RKF

>  <Rbt.Executable>
rbdock ($Id: //depot/dev/client3/rdock/2013.1/src/exe/rbdock.cxx#4 $)

>  <Rbt.Library>
libRbt.so (2013.1, Build901 2013/11/27)

>  <Rbt.Parameter_File>
/export/apps/rDock/src/rDock_2013.1_src/data/scripts/dock_solv.prm

>  <Rbt.Receptor>
prm/pocket_docking_8.prm

>  <SCORE>
-14.3053

>  <SCORE.INTER>
-14.3053

>  <SCORE.INTER.CONST>
1

>  <SCORE.INTER.POLAR>
0

>  <SCORE.INTER.ROT>
0

>  <SCORE.INTER.SOLV>
13.1297

>  <SCORE.INTER.VDW>
-17.5135

>  <SCORE.INTER.norm>
-1.30048

>  <SCORE.INTRA>
0

>  <SCORE.INTRA.DIHEDRAL>
0

>  <SCORE.INTRA.DIHEDRAL.0>
0

>  <SCORE.INTRA.POLAR>
0

>  <SCORE.INTRA.POLAR.0>
0

>  <SCORE.INTRA.REPUL>
0

>  <SCORE.INTRA.REPUL.0>
0

>  <SCORE.INTRA.SOLV>
0

>  <SCORE.INTRA.SOLV.lig_0>
-28.6198

>  <SCORE.INTRA.VDW>
0

>  <SCORE.INTRA.VDW.0>
0

>  <SCORE.INTRA.norm>
0

>  <SCORE.RESTR>
0

>  <SCORE.RESTR.CAVITY>
0

>  <SCORE.RESTR.norm>
0

>  <SCORE.SYSTEM>
0

>  <SCORE.SYSTEM.CONST>
0

>  <SCORE.SYSTEM.DIHEDRAL>
0

>  <SCORE.SYSTEM.SOLV>
0

>  <SCORE.SYSTEM.norm>
0

>  <SCORE.heavy>
11

>  <SCORE.norm>
-1.30048

>  <RMSD>
0.880

$$$$
ligand
 OpenBabel11021811483D
libRbt.so/2013.1/901 2013/11/27
 11 12  0  0  0  0  0  0  0  0999 V2000
   37.0646   -8.8901  -37.3204 N   0  0  0  0  0  0  0  0  0  0  0  0
   37.9607   -9.3850  -36.4535 C   0  0  0  0  0  0  0  0  0  0  0  0
   39.0038   -8.5366  -35.9715 N   0  0  0  0  0  0  0  0  0  0  0  0
   37.8961  -10.6529  -36.0335 N   0  0  0  0  0  0  0  0  0  0  0  0
   36.8960  -11.4902  -36.4881 C   0  0  0  0  0  0  0  0  0  0  0  0
   35.9735  -11.0011  -37.3758 C   0  0  0  0  0  0  0  0  0  0  0  0
   36.0578   -9.6391  -37.8136 C   0  0  0  0  0  0  0  0  0  0  0  0
   34.8846   -8.9612  -38.9524 S   0  0  0  0  0  0  0  0  0  0  0  0
   35.1006  -12.0176  -37.6686 N   0  0  0  0  0  0  0  0  0  0  0  0
   35.4814  -13.1193  -36.9707 C   0  0  0  0  0  0  0  0  0  0  0  0
   36.5877  -12.8150  -36.2353 N   0  0  0  0  0  0  0  0  0  0  0  0
  1  2  2  0  0  0  0
  1  7  1  0  0  0  0
  2  3  1  0  0  0  0
  2  4  1  0  0  0  0
  4  5  2  0  0  0  0
  5  6  1  0  0  0  0
  5 11  1  0  0  0  0
  6  7  2  0  0  0  0
  6  9  1  0  0  0  0
  7  8  1  0  0  0  0
  9 10  1  0  0  0  0
 10 11  2  0  0  0  0
M  END
>  <CHROM.1>
36.43365169,-10.38066252,-37.25117538,-1.35683721,0.62105997,2.78901445

>  <Name>
ligand

>  <RI>
0

>  <Rbt.Current_Directory>
/home/itssahil/PROJECTS/Mol_Feturizer/New_Systems/rnas/3RKF

>  <Rbt.Executable>
rbdock ($Id: //depot/dev/client3/rdock/2013.1/src/exe/rbdock.cxx#4 $)

>  <Rbt.Library>
libRbt.so (2013.1, Build901 2013/11/27)

>  <Rbt.Parameter_File>
/export/apps/rDock/src/rDock_2013.1_src/data/scripts/dock_solv.prm

>  <Rbt.Receptor>
prm/blind_docking_80.prm

>  <SCORE>
-14.2737

>  <SCORE.INTER>
-14.2737

>  <SCORE.INTER.CONST>
1

>  <SCORE.INTER.POLAR>
0

>  <SCORE.INTER.ROT>
0

>  <SCORE.INTER.SOLV>
13.1578

>  <SCORE.INTER.VDW>
-17.5018

>  <SCORE.INTER.norm>
-1.29761

>  <SCORE.INTRA>
0

>  <SCORE.INTRA.DIHEDRAL>
0

>  <SCORE.INTRA.DIHEDRAL.0>
0

>  <SCORE.INTRA.POLAR>
0

>  <SCORE.INTRA.POLAR.0>
0

>  <SCORE.INTRA.REPUL>
0

>  <SCORE.INTRA.REPUL.0>
0

>  <SCORE.INTRA.SOLV>
0

>  <SCORE.INTRA.SOLV.lig_0>
-28.6198

>  <SCORE.INTRA.VDW>
0

>  <SCORE.INTRA.VDW.0>
0

>  <SCORE.INTRA.norm>
0

>  <SCORE.RESTR>
0

>  <SCORE.RESTR.CAVITY>
0

>  <SCORE.RESTR.norm>
0

>  <SCORE.SYSTEM>
0

>  <SCORE.SYSTEM.CONST>
0

>  <SCORE.SYSTEM.DIHEDRAL>
0

>  <SCORE.SYSTEM.SOLV>
0

>  <SCORE.SYSTEM.norm>
0

>  <SCORE.heavy>
11

>  <SCORE.norm>
-1.29761

>  <RMSD>
0.881

$$$$
ligand
 OpenBabel11021811483D
libRbt.so/2013.1/901 2013/11/27
 11 12  0  0  0  0  0  0  0  0999 V2000
   37.0761   -8.8960  -37.3291 N   0  0  0  0  0  0  0  0  0  0  0  0
   37.9703   -9.3847  -36.4567 C   0  0  0  0  0  0  0  0  0  0  0  0
   39.0139   -8.5336  -35.9805 N   0  0  0  0  0  0  0  0  0  0  0  0
   37.9033  -10.6488  -36.0259 N   0  0  0  0  0  0  0  0  0  0  0  0
   36.9027  -11.4886  -36.4746 C   0  0  0  0  0  0  0  0  0  0  0  0
   35.9821  -11.0059  -37.3678 C   0  0  0  0  0  0  0  0  0  0  0  0
   36.0689   -9.6478  -37.8172 C   0  0  0  0  0  0  0  0  0  0  0  0
   34.8983   -8.9781  -38.9635 S   0  0  0  0  0  0  0  0  0  0  0  0
   35.1081  -12.0236  -37.6531 N   0  0  0  0  0  0  0  0  0  0  0  0
   35.4864  -13.1198  -36.9451 C   0  0  0  0  0  0  0  0  0  0  0  0
   36.5921  -12.8107  -36.2108 N   0  0  0  0  0  0  0  0  0  0  0  0
  1  2  2  0  0  0  0
  1  7  1  0  0  0  0
  2  3  1  0  0  0  0
  2  4  1  0  0  0  0
  4  5  2  0  0  0  0
  5  6  1  0  0  0  0
  5 11  1  0  0  0  0
  6  7  2  0  0  0  0
  6  9  1  0  0  0  0
  7  8  1  0  0  0  0
  9 10  1  0  0  0  0
 10 11  2  0  0  0  0
M  END
>  <CHROM.1>
36.44294215,-10.38499655,-37.24787861,-1.35460567,0.62188221,2.77908194

>  <Name>
ligand

>  <RI>
0

>  <Rbt.Current_Directory>
/home/itssahil/PROJECTS/Mol_Feturizer/New_Systems/rnas/3RKF

>  <Rbt.Executable>
rbdock ($Id: //depot/dev/client3/rdock/2013.1/src/exe/rbdock.cxx#4 $)

>  <Rbt.Library>
libRbt.so (2013.1, Build901 2013/11/27)

>  <Rbt.Parameter_File>
/export/apps/rDock/src/rDock_2013.1_src/data/scripts/dock_solv.prm

>  <Rbt.Receptor>
prm/pocket_docking_7.prm

>  <SCORE>
-14.308

>  <SCORE.INTER>
-14.308

>  <SCORE.INTER.CONST>
1

>  <SCORE.INTER.POLAR>
0

>  <SCORE.INTER.ROT>
0

>  <SCORE.INTER.SOLV>
13.2

>  <SCORE.INTER.VDW>
-17.5387

>  <SCORE.INTER.norm>
-1.30072

>  <SCORE.INTRA>
0

>  <SCORE.INTRA.DIHEDRAL>
0

>  <SCORE.INTRA.DIHEDRAL.0>
0

>  <SCORE.INTRA.POLAR>
0

>  <SCORE.INTRA.POLAR.0>
0

>  <SCORE.INTRA.REPUL>
0

>  <SCORE.INTRA.REPUL.0>
0

>  <SCORE.INTRA.SOLV>
0

>  <SCORE.INTRA.SOLV.lig_0>
-28.6198

>  <SCORE.INTRA.VDW>
0

>  <SCORE.INTRA.VDW.0>
0

>  <SCORE.INTRA.norm>
0

>  <SCORE.RESTR>
0

>  <SCORE.RESTR.CAVITY>
0

>  <SCORE.RESTR.norm>
0

>  <SCORE.SYSTEM>
0

>  <SCORE.SYSTEM.CONST>
0

>  <SCORE.SYSTEM.DIHEDRAL>
0

>  <SCORE.SYSTEM.SOLV>
0

>  <SCORE.SYSTEM.norm>
0

>  <SCORE.heavy>
11

>  <SCORE.norm>
-1.30072

>  <RMSD>
0.881

$$$$
ligand
 OpenBabel11021811483D
libRbt.so/2013.1/901 2013/11/27
 11 12  0  0  0  0  0  0  0  0999 V2000
   37.0692   -8.8959  -37.3202 N   0  0  0  0  0  0  0  0  0  0  0  0
   37.9697   -9.3855  -36.4549 C   0  0  0  0  0  0  0  0  0  0  0  0
   39.0132   -8.5332  -35.9808 N   0  0  0  0  0  0  0  0  0  0  0  0
   37.9091  -10.6517  -36.0293 N   0  0  0  0  0  0  0  0  0  0  0  0
   36.9087  -11.4927  -36.4762 C   0  0  0  0  0  0  0  0  0  0  0  0
   35.9817  -11.0091  -37.3621 C   0  0  0  0  0  0  0  0  0  0  0  0
   36.0617   -9.6488  -37.8061 C   0  0  0  0  0  0  0  0  0  0  0  0
   34.8826   -8.9778  -38.9430 S   0  0  0  0  0  0  0  0  0  0  0  0
   35.1094  -12.0284  -37.6471 N   0  0  0  0  0  0  0  0  0  0  0  0
   35.4950  -13.1264  -36.9460 C   0  0  0  0  0  0  0  0  0  0  0  0
   36.6038  -12.8170  -36.2165 N   0  0  0  0  0  0  0  0  0  0  0  0
  1  2  2  0  0  0  0
  1  7  1  0  0  0  0
  2  3  1  0  0  0  0
  2  4  1  0  0  0  0
  4  5  2  0  0  0  0
  5  6  1  0  0  0  0
  5 11  1  0  0  0  0
  6  7  2  0  0  0  0
  6  9  1  0  0  0  0
  7  8  1  0  0  0  0
  9 10  1  0  0  0  0
 10 11  2  0  0  0  0
M  END
>  <CHROM.1>
36.44119242,-10.38726598,-37.24205211,-1.36064852,0.61783973,2.78695605

>  <Name>
ligand

>  <RI>
0

>  <Rbt.Current_Directory>
/home/itssahil/PROJECTS/Mol_Feturizer/New_Systems/rnas/3RKF

>  <Rbt.Executable>
rbdock ($Id: //depot/dev/client3/rdock/2013.1/src/exe/rbdock.cxx#4 $)

>  <Rbt.Library>
libRbt.so (2013.1, Build901 2013/11/27)

>  <Rbt.Parameter_File>
/export/apps/rDock/src/rDock_2013.1_src/data/scripts/dock_solv.prm

>  <Rbt.Receptor>
prm/pocket_docking_6.prm

>  <SCORE>
-14.3053

>  <SCORE.INTER>
-14.3053

>  <SCORE.INTER.CONST>
1

>  <SCORE.INTER.POLAR>
0

>  <SCORE.INTER.ROT>
0

>  <SCORE.INTER.SOLV>
13.1731

>  <SCORE.INTER.VDW>
-17.5279

>  <SCORE.INTER.norm>
-1.30048

>  <SCORE.INTRA>
0

>  <SCORE.INTRA.DIHEDRAL>
0

>  <SCORE.INTRA.DIHEDRAL.0>
0

>  <SCORE.INTRA.POLAR>
0

>  <SCORE.INTRA.POLAR.0>
0

>  <SCORE.INTRA.REPUL>
0

>  <SCORE.INTRA.REPUL.0>
0

>  <SCORE.INTRA.SOLV>
0

>  <SCORE.INTRA.SOLV.lig_0>
-28.6198

>  <SCORE.INTRA.VDW>
0

>  <SCORE.INTRA.VDW.0>
0

>  <SCORE.INTRA.norm>
0

>  <SCORE.RESTR>
0

>  <SCORE.RESTR.CAVITY>
0

>  <SCORE.RESTR.norm>
0

>  <SCORE.SYSTEM>
0

>  <SCORE.SYSTEM.CONST>
0

>  <SCORE.SYSTEM.DIHEDRAL>
0

>  <SCORE.SYSTEM.SOLV>
0

>  <SCORE.SYSTEM.norm>
0

>  <SCORE.heavy>
11

>  <SCORE.norm>
-1.30048

>  <RMSD>
0.883

$$$$
ligand
 OpenBabel11021811483D
libRbt.so/2013.1/901 2013/11/27
 11 12  0  0  0  0  0  0  0  0999 V2000
   37.0747   -8.8937  -37.3208 N   0  0  0  0  0  0  0  0  0  0  0  0
   37.9708   -9.3854  -36.4521 C   0  0  0  0  0  0  0  0  0  0  0  0
   39.0158   -8.5362  -35.9756 N   0  0  0  0  0  0  0  0  0  0  0  0
   37.9044  -10.6509  -36.0252 N   0  0  0  0  0  0  0  0  0  0  0  0
   36.9025  -11.4890  -36.4743 C   0  0  0  0  0  0  0  0  0  0  0  0
   35.9799  -11.0031  -37.3637 C   0  0  0  0  0  0  0  0  0  0  0  0
   36.0661   -9.6436  -37.8090 C   0  0  0  0  0  0  0  0  0  0  0  0
   34.8931   -8.9698  -38.9504 S   0  0  0  0  0  0  0  0  0  0  0  0
   35.1050  -12.0196  -37.6503 N   0  0  0  0  0  0  0  0  0  0  0  0
   35.4846  -13.1182  -36.9468 C   0  0  0  0  0  0  0  0  0  0  0  0
   36.5921  -12.8118  -36.2141 N   0  0  0  0  0  0  0  0  0  0  0  0
  1  2  2  0  0  0  0
  1  7  1  0  0  0  0
  2  3  1  0  0  0  0
  2  4  1  0  0  0  0
  4  5  2  0  0  0  0
  5  6  1  0  0  0  0
  5 11  1  0  0  0  0
  6  7  2  0  0  0  0
  6  9  1  0  0  0  0
  7  8  1  0  0  0  0
  9 10  1  0  0  0  0
 10 11  2  0  0  0  0
M  END
>  <CHROM.1>
36.44127346,-10.38275653,-37.24292911,-1.35527068,0.61959240,2.78269817

>  <Name>
ligand

>  <RI>
0

>  <Rbt.Current_Directory>
/home/itssahil/PROJECTS/Mol_Feturizer/New_Systems/rnas/3RKF

>  <Rbt.Executable>
rbdock ($Id: //depot/dev/client3/rdock/2013.1/src/exe/rbdock.cxx#4 $)

>  <Rbt.Library>
libRbt.so (2013.1, Build901 2013/11/27)

>  <Rbt.Parameter_File>
/export/apps/rDock/src/rDock_2013.1_src/data/scripts/dock_solv.prm

>  <Rbt.Receptor>
prm/pocket_docking_8.prm

>  <SCORE>
-14.3077

>  <SCORE.INTER>
-14.3077

>  <SCORE.INTER.CONST>
1

>  <SCORE.INTER.POLAR>
0

>  <SCORE.INTER.ROT>
0

>  <SCORE.INTER.SOLV>
13.1981

>  <SCORE.INTER.VDW>
-17.5378

>  <SCORE.INTER.norm>
-1.3007

>  <SCORE.INTRA>
0

>  <SCORE.INTRA.DIHEDRAL>
0

>  <SCORE.INTRA.DIHEDRAL.0>
0

>  <SCORE.INTRA.POLAR>
0

>  <SCORE.INTRA.POLAR.0>
0

>  <SCORE.INTRA.REPUL>
0

>  <SCORE.INTRA.REPUL.0>
0

>  <SCORE.INTRA.SOLV>
0

>  <SCORE.INTRA.SOLV.lig_0>
-28.6198

>  <SCORE.INTRA.VDW>
0

>  <SCORE.INTRA.VDW.0>
0

>  <SCORE.INTRA.norm>
0

>  <SCORE.RESTR>
0

>  <SCORE.RESTR.CAVITY>
0

>  <SCORE.RESTR.norm>
0

>  <SCORE.SYSTEM>
0

>  <SCORE.SYSTEM.CONST>
0

>  <SCORE.SYSTEM.DIHEDRAL>
0

>  <SCORE.SYSTEM.SOLV>
0

>  <SCORE.SYSTEM.norm>
0

>  <SCORE.heavy>
11

>  <SCORE.norm>
-1.3007

>  <RMSD>
0.883

$$$$
ligand
 OpenBabel11021811483D
libRbt.so/2013.1/901 2013/11/27
 11 12  0  0  0  0  0  0  0  0999 V2000
   37.0863   -8.9040  -37.3224 N   0  0  0  0  0  0  0  0  0  0  0  0
   37.9819   -9.3984  -36.4546 C   0  0  0  0  0  0  0  0  0  0  0  0
   39.0306   -8.5526  -35.9802 N   0  0  0  0  0  0  0  0  0  0  0  0
   37.9116  -10.6633  -36.0266 N   0  0  0  0  0  0  0  0  0  0  0  0
   36.9060  -11.4981  -36.4737 C   0  0  0  0  0  0  0  0  0  0  0  0
   35.9839  -11.0095  -37.3621 C   0  0  0  0  0  0  0  0  0  0  0  0
   36.0743   -9.6507  -37.8085 C   0  0  0  0  0  0  0  0  0  0  0  0
   34.9021   -8.9735  -38.9487 S   0  0  0  0  0  0  0  0  0  0  0  0
   35.1049  -12.0231  -37.6467 N   0  0  0  0  0  0  0  0  0  0  0  0
   35.4815  -13.1226  -36.9429 C   0  0  0  0  0  0  0  0  0  0  0  0
   36.5912  -12.8196  -36.2120 N   0  0  0  0  0  0  0  0  0  0  0  0
  1  2  2  0  0  0  0
  1  7  1  0  0  0  0
  2  3  1  0  0  0  0
  2  4  1  0  0  0  0
  4  5  2  0  0  0  0
  5  6  1  0  0  0  0
  5 11  1  0  0  0  0
  6  7  2  0  0  0  0
  6  9  1  0  0  0  0
  7  8  1  0  0  0  0
  9 10  1  0  0  0  0
 10 11  2  0  0  0  0
M  END
>  <CHROM.1>
36.44763613,-10.39076877,-37.24245968,-1.35174883,0.61695946,2.77990356

>  <Name>
ligand

>  <RI>
0

>  <Rbt.Current_Directory>
/home/itssahil/PROJECTS/Mol_Feturizer/New_Systems/rnas/3RKF

>  <Rbt.Executable>
rbdock ($Id: //depot/dev/client3/rdock/2013.1/src/exe/rbdock.cxx#4 $)

>  <Rbt.Library>
libRbt.so (2013.1, Build901 2013/11/27)

>  <Rbt.Parameter_File>
/export/apps/rDock/src/rDock_2013.1_src/data/scripts/dock_solv.prm

>  <Rbt.Receptor>
prm/pocket_docking_8.prm

>  <SCORE>
-14.309

>  <SCORE.INTER>
-14.309

>  <SCORE.INTER.CONST>
1

>  <SCORE.INTER.POLAR>
0

>  <SCORE.INTER.ROT>
0

>  <SCORE.INTER.SOLV>
13.2475

>  <SCORE.INTER.VDW>
-17.5552

>  <SCORE.INTER.norm>
-1.30082

>  <SCORE.INTRA>
0

>  <SCORE.INTRA.DIHEDRAL>
0

>  <SCORE.INTRA.DIHEDRAL.0>
0

>  <SCORE.INTRA.POLAR>
0

>  <SCORE.INTRA.POLAR.0>
0

>  <SCORE.INTRA.REPUL>
0

>  <SCORE.INTRA.REPUL.0>
0

>  <SCORE.INTRA.SOLV>
0

>  <SCORE.INTRA.SOLV.lig_0>
-28.6198

>  <SCORE.INTRA.VDW>
0

>  <SCORE.INTRA.VDW.0>
0

>  <SCORE.INTRA.norm>
0

>  <SCORE.RESTR>
0

>  <SCORE.RESTR.CAVITY>
0

>  <SCORE.RESTR.norm>
0

>  <SCORE.SYSTEM>
0

>  <SCORE.SYSTEM.CONST>
0

>  <SCORE.SYSTEM.DIHEDRAL>
0

>  <SCORE.SYSTEM.SOLV>
0

>  <SCORE.SYSTEM.norm>
0

>  <SCORE.heavy>
11

>  <SCORE.norm>
-1.30082

>  <RMSD>
0.890

$$$$
ligand
 OpenBabel11021811483D
libRbt.so/2013.1/901 2013/11/27
 11 12  0  0  0  0  0  0  0  0999 V2000
   37.0862   -8.9159  -37.3271 N   0  0  0  0  0  0  0  0  0  0  0  0
   37.9875   -9.4057  -36.4628 C   0  0  0  0  0  0  0  0  0  0  0  0
   39.0336   -8.5544  -35.9921 N   0  0  0  0  0  0  0  0  0  0  0  0
   37.9255  -10.6710  -36.0348 N   0  0  0  0  0  0  0  0  0  0  0  0
   36.9226  -11.5110  -36.4784 C   0  0  0  0  0  0  0  0  0  0  0  0
   35.9947  -11.0271  -37.3633 C   0  0  0  0  0  0  0  0  0  0  0  0
   36.0764   -9.6678  -37.8097 C   0  0  0  0  0  0  0  0  0  0  0  0
   34.8963   -8.9965  -38.9454 S   0  0  0  0  0  0  0  0  0  0  0  0
   35.1201  -12.0453  -37.6448 N   0  0  0  0  0  0  0  0  0  0  0  0
   35.5051  -13.1429  -36.9427 C   0  0  0  0  0  0  0  0  0  0  0  0
   36.6158  -12.8342  -36.2158 N   0  0  0  0  0  0  0  0  0  0  0  0
  1  2  2  0  0  0  0
  1  7  1  0  0  0  0
  2  3  1  0  0  0  0
  2  4  1  0  0  0  0
  4  5  2  0  0  0  0
  5  6  1  0  0  0  0
  5 11  1  0  0  0  0
  6  7  2  0  0  0  0
  6  9  1  0  0  0  0
  7  8  1  0  0  0  0
  9 10  1  0  0  0  0
 10 11  2  0  0  0  0
M  END
>  <CHROM.1>
36.45565147,-10.40595368,-37.24519564,-1.35938751,0.61535898,2.78453904

>  <Name>
ligand

>  <RI>
0

>  <Rbt.Current_Directory>
/home/itssahil/PROJECTS/Mol_Feturizer/New_Systems/rnas/3RKF

>  <Rbt.Executable>
rbdock ($Id: //depot/dev/client3/rdock/2013.1/src/exe/rbdock.cxx#4 $)

>  <Rbt.Library>
libRbt.so (2013.1, Build901 2013/11/27)

>  <Rbt.Parameter_File>
/export/apps/rDock/src/rDock_2013.1_src/data/scripts/dock_solv.prm

>  <Rbt.Receptor>
prm/blind_docking_100.prm

>  <SCORE>
-14.2992

>  <SCORE.INTER>
-14.2992

>  <SCORE.INTER.CONST>
1

>  <SCORE.INTER.POLAR>
0

>  <SCORE.INTER.ROT>
0

>  <SCORE.INTER.SOLV>
13.2394

>  <SCORE.INTER.VDW>
-17.546

>  <SCORE.INTER.norm>
-1.29993

>  <SCORE.INTRA>
0

>  <SCORE.INTRA.DIHEDRAL>
0

>  <SCORE.INTRA.DIHEDRAL.0>
0

>  <SCORE.INTRA.POLAR>
0

>  <SCORE.INTRA.POLAR.0>
0

>  <SCORE.INTRA.REPUL>
0

>  <SCORE.INTRA.REPUL.0>
0

>  <SCORE.INTRA.SOLV>
0

>  <SCORE.INTRA.SOLV.lig_0>
-28.6198

>  <SCORE.INTRA.VDW>
0

>  <SCORE.INTRA.VDW.0>
0

>  <SCORE.INTRA.norm>
0

>  <SCORE.RESTR>
0

>  <SCORE.RESTR.CAVITY>
0

>  <SCORE.RESTR.norm>
0

>  <SCORE.SYSTEM>
0

>  <SCORE.SYSTEM.CONST>
0

>  <SCORE.SYSTEM.DIHEDRAL>
0

>  <SCORE.SYSTEM.SOLV>
0

>  <SCORE.SYSTEM.norm>
0

>  <SCORE.heavy>
11

>  <SCORE.norm>
-1.29993

>  <RMSD>
0.896

$$$$
ligand
 OpenBabel11021811483D
libRbt.so/2013.1/901 2013/11/27
 11 12  0  0  0  0  0  0  0  0999 V2000
   37.0776   -8.9079  -37.3148 N   0  0  0  0  0  0  0  0  0  0  0  0
   37.9740   -9.4007  -36.4469 C   0  0  0  0  0  0  0  0  0  0  0  0
   39.0188   -8.5518  -35.9693 N   0  0  0  0  0  0  0  0  0  0  0  0
   37.9081  -10.6668  -36.0219 N   0  0  0  0  0  0  0  0  0  0  0  0
   36.9064  -11.5045  -36.4721 C   0  0  0  0  0  0  0  0  0  0  0  0
   35.9836  -11.0177  -37.3606 C   0  0  0  0  0  0  0  0  0  0  0  0
   36.0692   -9.6575  -37.8039 C   0  0  0  0  0  0  0  0  0  0  0  0
   34.8958   -8.9824  -38.9441 S   0  0  0  0  0  0  0  0  0  0  0  0
   35.1089  -12.0341  -37.6486 N   0  0  0  0  0  0  0  0  0  0  0  0
   35.4890  -13.1336  -36.9467 C   0  0  0  0  0  0  0  0  0  0  0  0
   36.5965  -12.8279  -36.2137 N   0  0  0  0  0  0  0  0  0  0  0  0
  1  2  2  0  0  0  0
  1  7  1  0  0  0  0
  2  3  1  0  0  0  0
  2  4  1  0  0  0  0
  4  5  2  0  0  0  0
  5  6  1  0  0  0  0
  5 11  1  0  0  0  0
  6  7  2  0  0  0  0
  6  9  1  0  0  0  0
  7  8  1  0  0  0  0
  9 10  1  0  0  0  0
 10 11  2  0  0  0  0
M  END
>  <CHROM.1>
36.44469398,-10.39736009,-37.23899336,-1.35572255,0.61957132,2.78442521

>  <Name>
ligand

>  <RI>
0

>  <Rbt.Current_Directory>
/home/itssahil/PROJECTS/Mol_Feturizer/New_Systems/rnas/3RKF

>  <Rbt.Executable>
rbdock ($Id: //depot/dev/client3/rdock/2013.1/src/exe/rbdock.cxx#4 $)

>  <Rbt.Library>
libRbt.so (2013.1, Build901 2013/11/27)

>  <Rbt.Parameter_File>
/export/apps/rDock/src/rDock_2013.1_src/data/scripts/dock_solv.prm

>  <Rbt.Receptor>
prm/pocket_docking_7.prm

>  <SCORE>
-14.3038

>  <SCORE.INTER>
-14.3038

>  <SCORE.INTER.CONST>
1

>  <SCORE.INTER.POLAR>
0

>  <SCORE.INTER.ROT>
0

>  <SCORE.INTER.SOLV>
13.2268

>  <SCORE.INTER.VDW>
-17.5448

>  <SCORE.INTER.norm>
-1.30035

>  <SCORE.INTRA>
0

>  <SCORE.INTRA.DIHEDRAL>
0

>  <SCORE.INTRA.DIHEDRAL.0>
0

>  <SCORE.INTRA.POLAR>
0

>  <SCORE.INTRA.POLAR.0>
0

>  <SCORE.INTRA.REPUL>
0

>  <SCORE.INTRA.REPUL.0>
0

>  <SCORE.INTRA.SOLV>
0

>  <SCORE.INTRA.SOLV.lig_0>
-28.6198

>  <SCORE.INTRA.VDW>
0

>  <SCORE.INTRA.VDW.0>
0

>  <SCORE.INTRA.norm>
0

>  <SCORE.RESTR>
0

>  <SCORE.RESTR.CAVITY>
0

>  <SCORE.RESTR.norm>
0

>  <SCORE.SYSTEM>
0

>  <SCORE.SYSTEM.CONST>
0

>  <SCORE.SYSTEM.DIHEDRAL>
0

>  <SCORE.SYSTEM.SOLV>
0

>  <SCORE.SYSTEM.norm>
0

>  <SCORE.heavy>
11

>  <SCORE.norm>
-1.30035

>  <RMSD>
0.896

$$$$
ligand
 OpenBabel11021811483D
libRbt.so/2013.1/901 2013/11/27
 11 12  0  0  0  0  0  0  0  0999 V2000
   37.0820   -8.9142  -37.3179 N   0  0  0  0  0  0  0  0  0  0  0  0
   37.9832   -9.4080  -36.4558 C   0  0  0  0  0  0  0  0  0  0  0  0
   39.0324   -8.5606  -35.9853 N   0  0  0  0  0  0  0  0  0  0  0  0
   37.9183  -10.6739  -36.0300 N   0  0  0  0  0  0  0  0  0  0  0  0
   36.9124  -11.5103  -36.4734 C   0  0  0  0  0  0  0  0  0  0  0  0
   35.9845  -11.0224  -37.3561 C   0  0  0  0  0  0  0  0  0  0  0  0
   36.0693   -9.6624  -37.8003 C   0  0  0  0  0  0  0  0  0  0  0  0
   34.8894   -8.9859  -38.9331 S   0  0  0  0  0  0  0  0  0  0  0  0
   35.1066  -12.0375  -37.6381 N   0  0  0  0  0  0  0  0  0  0  0  0
   35.4895  -13.1374  -36.9384 C   0  0  0  0  0  0  0  0  0  0  0  0
   36.6023  -12.8332  -36.2127 N   0  0  0  0  0  0  0  0  0  0  0  0
  1  2  2  0  0  0  0
  1  7  1  0  0  0  0
  2  3  1  0  0  0  0
  2  4  1  0  0  0  0
  4  5  2  0  0  0  0
  5  6  1  0  0  0  0
  5 11  1  0  0  0  0
  6  7  2  0  0  0  0
  6  9  1  0  0  0  0
  7  8  1  0  0  0  0
  9 10  1  0  0  0  0
 10 11  2  0  0  0  0
M  END
>  <CHROM.1>
36.44736359,-10.40267258,-37.23765389,-1.35681898,0.61295396,2.78479362

>  <Name>
ligand

>  <RI>
0

>  <Rbt.Current_Directory>
/home/itssahil/PROJECTS/Mol_Feturizer/New_Systems/rnas/3RKF

>  <Rbt.Executable>
rbdock ($Id: //depot/dev/client3/rdock/2013.1/src/exe/rbdock.cxx#4 $)

>  <Rbt.Library>
libRbt.so (2013.1, Build901 2013/11/27)

>  <Rbt.Parameter_File>
/export/apps/rDock/src/rDock_2013.1_src/data/scripts/dock_solv.prm

>  <Rbt.Receptor>
prm/blind_docking_80.prm

>  <SCORE>
-14.3037

>  <SCORE.INTER>
-14.3037

>  <SCORE.INTER.CONST>
1

>  <SCORE.INTER.POLAR>
0

>  <SCORE.INTER.ROT>
0

>  <SCORE.INTER.SOLV>
13.237

>  <SCORE.INTER.VDW>
-17.5481

>  <SCORE.INTER.norm>
-1.30033

>  <SCORE.INTRA>
0

>  <SCORE.INTRA.DIHEDRAL>
0

>  <SCORE.INTRA.DIHEDRAL.0>
0

>  <SCORE.INTRA.POLAR>
0

>  <SCORE.INTRA.POLAR.0>
0

>  <SCORE.INTRA.REPUL>
0

>  <SCORE.INTRA.REPUL.0>
0

>  <SCORE.INTRA.SOLV>
0

>  <SCORE.INTRA.SOLV.lig_0>
-28.6198

>  <SCORE.INTRA.VDW>
0

>  <SCORE.INTRA.VDW.0>
0

>  <SCORE.INTRA.norm>
0

>  <SCORE.RESTR>
0

>  <SCORE.RESTR.CAVITY>
0

>  <SCORE.RESTR.norm>
0

>  <SCORE.SYSTEM>
0

>  <SCORE.SYSTEM.CONST>
0

>  <SCORE.SYSTEM.DIHEDRAL>
0

>  <SCORE.SYSTEM.SOLV>
0

>  <SCORE.SYSTEM.norm>
0

>  <SCORE.heavy>
11

>  <SCORE.norm>
-1.30033

>  <RMSD>
0.898

$$$$
ligand
 OpenBabel11021811483D
libRbt.so/2013.1/901 2013/11/27
 11 12  0  0  0  0  0  0  0  0999 V2000
   37.1285   -8.9184  -37.3193 N   0  0  0  0  0  0  0  0  0  0  0  0
   38.0306   -9.4199  -36.4625 C   0  0  0  0  0  0  0  0  0  0  0  0
   39.0840   -8.5785  -35.9907 N   0  0  0  0  0  0  0  0  0  0  0  0
   37.9625  -10.6878  -36.0431 N   0  0  0  0  0  0  0  0  0  0  0  0
   36.9524  -11.5184  -36.4880 C   0  0  0  0  0  0  0  0  0  0  0  0
   36.0236  -11.0226  -37.3653 C   0  0  0  0  0  0  0  0  0  0  0  0
   36.1118   -9.6606  -37.8026 C   0  0  0  0  0  0  0  0  0  0  0  0
   34.9309   -8.9741  -38.9282 S   0  0  0  0  0  0  0  0  0  0  0  0
   35.1413  -12.0332  -37.6499 N   0  0  0  0  0  0  0  0  0  0  0  0
   35.5225  -13.1381  -36.9572 C   0  0  0  0  0  0  0  0  0  0  0  0
   36.6385  -12.8415  -36.2333 N   0  0  0  0  0  0  0  0  0  0  0  0
  1  2  2  0  0  0  0
  1  7  1  0  0  0  0
  2  3  1  0  0  0  0
  2  4  1  0  0  0  0
  4  5  2  0  0  0  0
  5  6  1  0  0  0  0
  5 11  1  0  0  0  0
  6  7  2  0  0  0  0
  6  9  1  0  0  0  0
  7  8  1  0  0  0  0
  9 10  1  0  0  0  0
 10 11  2  0  0  0  0
M  END
>  <CHROM.1>
36.48893748,-10.40509341,-37.24494505,-1.35412835,0.60895385,2.78850568

>  <Name>
ligand

>  <RI>
0

>  <Rbt.Current_Directory>
/home/itssahil/PROJECTS/Mol_Feturizer/New_Systems/rnas/3RKF

>  <Rbt.Executable>
rbdock ($Id: //depot/dev/client3/rdock/2013.1/src/exe/rbdock.cxx#4 $)

>  <Rbt.Library>
libRbt.so (2013.1, Build901 2013/11/27)

>  <Rbt.Parameter_File>
/export/apps/rDock/src/rDock_2013.1_src/data/scripts/dock_solv.prm

>  <Rbt.Receptor>
prm/blind_docking_80.prm

>  <SCORE>
-14.3359

>  <SCORE.INTER>
-14.3359

>  <SCORE.INTER.CONST>
1

>  <SCORE.INTER.POLAR>
0

>  <SCORE.INTER.ROT>
0

>  <SCORE.INTER.SOLV>
13.3819

>  <SCORE.INTER.VDW>
-17.6179

>  <SCORE.INTER.norm>
-1.30327

>  <SCORE.INTRA>
0

>  <SCORE.INTRA.DIHEDRAL>
0

>  <SCORE.INTRA.DIHEDRAL.0>
0

>  <SCORE.INTRA.POLAR>
0

>  <SCORE.INTRA.POLAR.0>
0

>  <SCORE.INTRA.REPUL>
0

>  <SCORE.INTRA.REPUL.0>
0

>  <SCORE.INTRA.SOLV>
0

>  <SCORE.INTRA.SOLV.lig_0>
-28.6198

>  <SCORE.INTRA.VDW>
0

>  <SCORE.INTRA.VDW.0>
0

>  <SCORE.INTRA.norm>
0

>  <SCORE.RESTR>
0

>  <SCORE.RESTR.CAVITY>
0

>  <SCORE.RESTR.norm>
0

>  <SCORE.SYSTEM>
0

>  <SCORE.SYSTEM.CONST>
0

>  <SCORE.SYSTEM.DIHEDRAL>
0

>  <SCORE.SYSTEM.SOLV>
0

>  <SCORE.SYSTEM.norm>
0

>  <SCORE.heavy>
11

>  <SCORE.norm>
-1.30327

>  <RMSD>
0.903

$$$$
ligand
 OpenBabel11021811483D
libRbt.so/2013.1/901 2013/11/27
 11 12  0  0  0  0  0  0  0  0999 V2000
   37.1094   -8.9198  -37.3134 N   0  0  0  0  0  0  0  0  0  0  0  0
   38.0022   -9.4213  -36.4470 C   0  0  0  0  0  0  0  0  0  0  0  0
   39.0554   -8.5824  -35.9701 N   0  0  0  0  0  0  0  0  0  0  0  0
   37.9253  -10.6870  -36.0227 N   0  0  0  0  0  0  0  0  0  0  0  0
   36.9154  -11.5153  -36.4722 C   0  0  0  0  0  0  0  0  0  0  0  0
   35.9960  -11.0194  -37.3594 C   0  0  0  0  0  0  0  0  0  0  0  0
   36.0936   -9.6597  -37.8018 C   0  0  0  0  0  0  0  0  0  0  0  0
   34.9250   -8.9731  -38.9402 S   0  0  0  0  0  0  0  0  0  0  0  0
   35.1117  -12.0275  -37.6470 N   0  0  0  0  0  0  0  0  0  0  0  0
   35.4825  -13.1309  -36.9463 C   0  0  0  0  0  0  0  0  0  0  0  0
   36.5937  -12.8359  -36.2144 N   0  0  0  0  0  0  0  0  0  0  0  0
  1  2  2  0  0  0  0
  1  7  1  0  0  0  0
  2  3  1  0  0  0  0
  2  4  1  0  0  0  0
  4  5  2  0  0  0  0
  5  6  1  0  0  0  0
  5 11  1  0  0  0  0
  6  7  2  0  0  0  0
  6  9  1  0  0  0  0
  7  8  1  0  0  0  0
  9 10  1  0  0  0  0
 10 11  2  0  0  0  0
M  END
>  <CHROM.1>
36.46294862,-10.40335847,-37.23787935,-1.34570077,0.61521827,2.77930407

>  <Name>
ligand

>  <RI>
0

>  <Rbt.Current_Directory>
/home/itssahil/PROJECTS/Mol_Feturizer/New_Systems/rnas/3RKF

>  <Rbt.Executable>
rbdock ($Id: //depot/dev/client3/rdock/2013.1/src/exe/rbdock.cxx#4 $)

>  <Rbt.Library>
libRbt.so (2013.1, Build901 2013/11/27)

>  <Rbt.Parameter_File>
/export/apps/rDock/src/rDock_2013.1_src/data/scripts/dock_solv.prm

>  <Rbt.Receptor>
prm/blind_docking_100.prm

>  <SCORE>
-14.3028

>  <SCORE.INTER>
-14.3028

>  <SCORE.INTER.CONST>
1

>  <SCORE.INTER.POLAR>
0

>  <SCORE.INTER.ROT>
0

>  <SCORE.INTER.SOLV>
13.3469

>  <SCORE.INTER.VDW>
-17.5842

>  <SCORE.INTER.norm>
-1.30025

>  <SCORE.INTRA>
0

>  <SCORE.INTRA.DIHEDRAL>
0

>  <SCORE.INTRA.DIHEDRAL.0>
0

>  <SCORE.INTRA.POLAR>
0

>  <SCORE.INTRA.POLAR.0>
0

>  <SCORE.INTRA.REPUL>
0

>  <SCORE.INTRA.REPUL.0>
0

>  <SCORE.INTRA.SOLV>
0

>  <SCORE.INTRA.SOLV.lig_0>
-28.6198

>  <SCORE.INTRA.VDW>
0

>  <SCORE.INTRA.VDW.0>
0

>  <SCORE.INTRA.norm>
0

>  <SCORE.RESTR>
0

>  <SCORE.RESTR.CAVITY>
0

>  <SCORE.RESTR.norm>
0

>  <SCORE.SYSTEM>
0

>  <SCORE.SYSTEM.CONST>
0

>  <SCORE.SYSTEM.DIHEDRAL>
0

>  <SCORE.SYSTEM.SOLV>
0

>  <SCORE.SYSTEM.norm>
0

>  <SCORE.heavy>
11

>  <SCORE.norm>
-1.30025

>  <RMSD>
0.908

$$$$
ligand
 OpenBabel11021811483D
libRbt.so/2013.1/901 2013/11/27
 11 12  0  0  0  0  0  0  0  0999 V2000
   37.0858   -8.9347  -37.3388 N   0  0  0  0  0  0  0  0  0  0  0  0
   37.9747   -9.4484  -36.4755 C   0  0  0  0  0  0  0  0  0  0  0  0
   39.0329   -8.6198  -35.9917 N   0  0  0  0  0  0  0  0  0  0  0  0
   37.8892  -10.7167  -36.0605 N   0  0  0  0  0  0  0  0  0  0  0  0
   36.8743  -11.5350  -36.5169 C   0  0  0  0  0  0  0  0  0  0  0  0
   35.9588  -11.0266  -37.4010 C   0  0  0  0  0  0  0  0  0  0  0  0
   36.0656   -9.6645  -37.8334 C   0  0  0  0  0  0  0  0  0  0  0  0
   34.9024   -8.9620  -38.9676 S   0  0  0  0  0  0  0  0  0  0  0  0
   35.0682  -12.0269  -37.6966 N   0  0  0  0  0  0  0  0  0  0  0  0
   35.4313  -13.1378  -37.0038 C   0  0  0  0  0  0  0  0  0  0  0  0
   36.5438  -12.8554  -36.2690 N   0  0  0  0  0  0  0  0  0  0  0  0
  1  2  2  0  0  0  0
  1  7  1  0  0  0  0
  2  3  1  0  0  0  0
  2  4  1  0  0  0  0
  4  5  2  0  0  0  0
  5  6  1  0  0  0  0
  5 11  1  0  0  0  0
  6  7  2  0  0  0  0
  6  9  1  0  0  0  0
  7  8  1  0  0  0  0
  9 10  1  0  0  0  0
 10 11  2  0  0  0  0
M  END
>  <CHROM.1>
36.42966183,-10.41459577,-37.27467492,-1.33793396,0.61362744,2.78215236

>  <Name>
ligand

>  <RI>
0

>  <Rbt.Current_Directory>
/home/itssahil/PROJECTS/Mol_Feturizer/New_Systems/rnas/3RKF

>  <Rbt.Executable>
rbdock ($Id: //depot/dev/client3/rdock/2013.1/src/exe/rbdock.cxx#4 $)

>  <Rbt.Library>
libRbt.so (2013.1, Build901 2013/11/27)

>  <Rbt.Parameter_File>
/export/apps/rDock/src/rDock_2013.1_src/data/scripts/dock_solv.prm

>  <Rbt.Receptor>
prm/pocket_docking_3.prm

>  <SCORE>
-14.2807

>  <SCORE.INTER>
-14.2807

>  <SCORE.INTER.CONST>
1

>  <SCORE.INTER.POLAR>
0

>  <SCORE.INTER.ROT>
0

>  <SCORE.INTER.SOLV>
13.2638

>  <SCORE.INTER.VDW>
-17.5417

>  <SCORE.INTER.norm>
-1.29824

>  <SCORE.INTRA>
0

>  <SCORE.INTRA.DIHEDRAL>
0

>  <SCORE.INTRA.DIHEDRAL.0>
0

>  <SCORE.INTRA.POLAR>
0

>  <SCORE.INTRA.POLAR.0>
0

>  <SCORE.INTRA.REPUL>
0

>  <SCORE.INTRA.REPUL.0>
0

>  <SCORE.INTRA.SOLV>
0

>  <SCORE.INTRA.SOLV.lig_0>
-28.6198

>  <SCORE.INTRA.VDW>
0

>  <SCORE.INTRA.VDW.0>
0

>  <SCORE.INTRA.norm>
0

>  <SCORE.RESTR>
0

>  <SCORE.RESTR.CAVITY>
0

>  <SCORE.RESTR.norm>
0

>  <SCORE.SYSTEM>
0

>  <SCORE.SYSTEM.CONST>
0

>  <SCORE.SYSTEM.DIHEDRAL>
0

>  <SCORE.SYSTEM.SOLV>
0

>  <SCORE.SYSTEM.norm>
0

>  <SCORE.heavy>
11

>  <SCORE.norm>
-1.29824

>  <RMSD>
0.911

$$$$
ligand
 OpenBabel11021811483D
libRbt.so/2013.1/901 2013/11/27
 11 12  0  0  0  0  0  0  0  0999 V2000
   37.0622   -8.9499  -37.3216 N   0  0  0  0  0  0  0  0  0  0  0  0
   37.9784   -9.4160  -36.4598 C   0  0  0  0  0  0  0  0  0  0  0  0
   39.0209   -8.5464  -36.0156 N   0  0  0  0  0  0  0  0  0  0  0  0
   37.9343  -10.6745  -36.0102 N   0  0  0  0  0  0  0  0  0  0  0  0
   36.9352  -11.5320  -36.4280 C   0  0  0  0  0  0  0  0  0  0  0  0
   35.9922  -11.0724  -37.3100 C   0  0  0  0  0  0  0  0  0  0  0  0
   36.0547   -9.7199  -37.7799 C   0  0  0  0  0  0  0  0  0  0  0  0
   34.8548   -9.0798  -38.9128 S   0  0  0  0  0  0  0  0  0  0  0  0
   35.1250  -12.1039  -37.5644 N   0  0  0  0  0  0  0  0  0  0  0  0
   35.5293  -13.1857  -36.8486 C   0  0  0  0  0  0  0  0  0  0  0  0
   36.6451  -12.8537  -36.1400 N   0  0  0  0  0  0  0  0  0  0  0  0
  1  2  2  0  0  0  0
  1  7  1  0  0  0  0
  2  3  1  0  0  0  0
  2  4  1  0  0  0  0
  4  5  2  0  0  0  0
  5  6  1  0  0  0  0
  5 11  1  0  0  0  0
  6  7  2  0  0  0  0
  6  9  1  0  0  0  0
  7  8  1  0  0  0  0
  9 10  1  0  0  0  0
 10 11  2  0  0  0  0
M  END
>  <CHROM.1>
36.44803563,-10.44469996,-37.20764121,-1.37607109,0.60815361,2.77745193

>  <Name>
ligand

>  <RI>
0

>  <Rbt.Current_Directory>
/home/itssahil/PROJECTS/Mol_Feturizer/New_Systems/rnas/3RKF

>  <Rbt.Executable>
rbdock ($Id: //depot/dev/client3/rdock/2013.1/src/exe/rbdock.cxx#4 $)

>  <Rbt.Library>
libRbt.so (2013.1, Build901 2013/11/27)

>  <Rbt.Parameter_File>
/export/apps/rDock/src/rDock_2013.1_src/data/scripts/dock_solv.prm

>  <Rbt.Receptor>
prm/blind_docking_100.prm

>  <SCORE>
-14.2997

>  <SCORE.INTER>
-14.2997

>  <SCORE.INTER.CONST>
1

>  <SCORE.INTER.POLAR>
0

>  <SCORE.INTER.ROT>
0

>  <SCORE.INTER.SOLV>
13.1943

>  <SCORE.INTER.VDW>
-17.5313

>  <SCORE.INTER.norm>
-1.29998

>  <SCORE.INTRA>
0

>  <SCORE.INTRA.DIHEDRAL>
0

>  <SCORE.INTRA.DIHEDRAL.0>
0

>  <SCORE.INTRA.POLAR>
0

>  <SCORE.INTRA.POLAR.0>
0

>  <SCORE.INTRA.REPUL>
0

>  <SCORE.INTRA.REPUL.0>
0

>  <SCORE.INTRA.SOLV>
0

>  <SCORE.INTRA.SOLV.lig_0>
-28.6198

>  <SCORE.INTRA.VDW>
0

>  <SCORE.INTRA.VDW.0>
0

>  <SCORE.INTRA.norm>
0

>  <SCORE.RESTR>
0

>  <SCORE.RESTR.CAVITY>
0

>  <SCORE.RESTR.norm>
0

>  <SCORE.SYSTEM>
0

>  <SCORE.SYSTEM.CONST>
0

>  <SCORE.SYSTEM.DIHEDRAL>
0

>  <SCORE.SYSTEM.SOLV>
0

>  <SCORE.SYSTEM.norm>
0

>  <SCORE.heavy>
11

>  <SCORE.norm>
-1.29998

>  <RMSD>
0.918

$$$$
ligand
 OpenBabel11021811483D
libRbt.so/2013.1/901 2013/11/27
 11 12  0  0  0  0  0  0  0  0999 V2000
   37.0620   -8.9505  -37.2897 N   0  0  0  0  0  0  0  0  0  0  0  0
   37.9815   -9.4268  -36.4371 C   0  0  0  0  0  0  0  0  0  0  0  0
   39.0243   -8.5618  -35.9846 N   0  0  0  0  0  0  0  0  0  0  0  0
   37.9406  -10.6913  -36.0042 N   0  0  0  0  0  0  0  0  0  0  0  0
   36.9413  -11.5444  -36.4302 C   0  0  0  0  0  0  0  0  0  0  0  0
   35.9949  -11.0745  -37.3029 C   0  0  0  0  0  0  0  0  0  0  0  0
   36.0540   -9.7158  -37.7549 C   0  0  0  0  0  0  0  0  0  0  0  0
   34.8497   -9.0623  -38.8754 S   0  0  0  0  0  0  0  0  0  0  0  0
   35.1282  -12.1037  -37.5683 N   0  0  0  0  0  0  0  0  0  0  0  0
   35.5363  -13.1943  -36.8683 C   0  0  0  0  0  0  0  0  0  0  0  0
   36.6538  -12.8702  -36.1588 N   0  0  0  0  0  0  0  0  0  0  0  0
  1  2  2  0  0  0  0
  1  7  1  0  0  0  0
  2  3  1  0  0  0  0
  2  4  1  0  0  0  0
  4  5  2  0  0  0  0
  5  6  1  0  0  0  0
  5 11  1  0  0  0  0
  6  7  2  0  0  0  0
  6  9  1  0  0  0  0
  7  8  1  0  0  0  0
  9 10  1  0  0  0  0
 10 11  2  0  0  0  0
M  END
>  <CHROM.1>
36.45017684,-10.44755860,-37.19365259,-1.37897285,0.60564142,2.79242728

>  <Name>
ligand

>  <RI>
0

>  <Rbt.Current_Directory>
/home/itssahil/PROJECTS/Mol_Feturizer/New_Systems/rnas/3RKF

>  <Rbt.Executable>
rbdock ($Id: //depot/dev/client3/rdock/2013.1/src/exe/rbdock.cxx#4 $)

>  <Rbt.Library>
libRbt.so (2013.1, Build901 2013/11/27)

>  <Rbt.Parameter_File>
/export/apps/rDock/src/rDock_2013.1_src/data/scripts/dock_solv.prm

>  <Rbt.Receptor>
prm/pocket_docking_8.prm

>  <SCORE>
-14.3038

>  <SCORE.INTER>
-14.3038

>  <SCORE.INTER.CONST>
1

>  <SCORE.INTER.POLAR>
0

>  <SCORE.INTER.ROT>
0

>  <SCORE.INTER.SOLV>
13.2065

>  <SCORE.INTER.VDW>
-17.538

>  <SCORE.INTER.norm>
-1.30035

>  <SCORE.INTRA>
0

>  <SCORE.INTRA.DIHEDRAL>
0

>  <SCORE.INTRA.DIHEDRAL.0>
0

>  <SCORE.INTRA.POLAR>
0

>  <SCORE.INTRA.POLAR.0>
0

>  <SCORE.INTRA.REPUL>
0

>  <SCORE.INTRA.REPUL.0>
0

>  <SCORE.INTRA.SOLV>
0

>  <SCORE.INTRA.SOLV.lig_0>
-28.6198

>  <SCORE.INTRA.VDW>
0

>  <SCORE.INTRA.VDW.0>
0

>  <SCORE.INTRA.norm>
0

>  <SCORE.RESTR>
0

>  <SCORE.RESTR.CAVITY>
0

>  <SCORE.RESTR.norm>
0

>  <SCORE.SYSTEM>
0

>  <SCORE.SYSTEM.CONST>
0

>  <SCORE.SYSTEM.DIHEDRAL>
0

>  <SCORE.SYSTEM.SOLV>
0

>  <SCORE.SYSTEM.norm>
0

>  <SCORE.heavy>
11

>  <SCORE.norm>
-1.30035

>  <RMSD>
0.932

$$$$
ligand
 OpenBabel11021811483D
libRbt.so/2013.1/901 2013/11/27
 11 12  0  0  0  0  0  0  0  0999 V2000
   36.6058   -8.5849  -37.8636 N   0  0  0  0  0  0  0  0  0  0  0  0
   35.4764   -9.1679  -38.2926 C   0  0  0  0  0  0  0  0  0  0  0  0
   34.5952   -8.4340  -39.1441 N   0  0  0  0  0  0  0  0  0  0  0  0
   35.1612  -10.4185  -37.9397 N   0  0  0  0  0  0  0  0  0  0  0  0
   35.9991  -11.1452  -37.1163 C   0  0  0  0  0  0  0  0  0  0  0  0
   37.1560  -10.5638  -36.6673 C   0  0  0  0  0  0  0  0  0  0  0  0
   37.4781   -9.2229  -37.0573 C   0  0  0  0  0  0  0  0  0  0  0  0
   38.9644   -8.4336  -36.5091 S   0  0  0  0  0  0  0  0  0  0  0  0
   37.8008  -11.4803  -35.8766 N   0  0  0  0  0  0  0  0  0  0  0  0
   37.0497  -12.6118  -35.8383 C   0  0  0  0  0  0  0  0  0  0  0  0
   35.9332  -12.4260  -36.5974 N   0  0  0  0  0  0  0  0  0  0  0  0
  1  2  2  0  0  0  0
  1  7  1  0  0  0  0
  2  3  1  0  0  0  0
  2  4  1  0  0  0  0
  4  5  2  0  0  0  0
  5  6  1  0  0  0  0
  5 11  1  0  0  0  0
  6  7  2  0  0  0  0
  6  9  1  0  0  0  0
  7  8  1  0  0  0  0
  9 10  1  0  0  0  0
 10 11  2  0  0  0  0
M  END
>  <CHROM.1>
36.84165398,-9.99750795,-37.10630502,1.45275493,-0.50547914,-0.41157117

>  <Name>
ligand

>  <RI>
0

>  <Rbt.Current_Directory>
/home/itssahil/PROJECTS/Mol_Feturizer/New_Systems/rnas/3RKF

>  <Rbt.Executable>
rbdock ($Id: //depot/dev/client3/rdock/2013.1/src/exe/rbdock.cxx#4 $)

>  <Rbt.Library>
libRbt.so (2013.1, Build901 2013/11/27)

>  <Rbt.Parameter_File>
/export/apps/rDock/src/rDock_2013.1_src/data/scripts/dock_solv.prm

>  <Rbt.Receptor>
prm/blind_docking_100.prm

>  <SCORE>
-15.711

>  <SCORE.INTER>
-15.711

>  <SCORE.INTER.CONST>
1

>  <SCORE.INTER.POLAR>
0

>  <SCORE.INTER.ROT>
0

>  <SCORE.INTER.SOLV>
9.61974

>  <SCORE.INTER.VDW>
-17.2806

>  <SCORE.INTER.norm>
-1.42827

>  <SCORE.INTRA>
0

>  <SCORE.INTRA.DIHEDRAL>
0

>  <SCORE.INTRA.DIHEDRAL.0>
0

>  <SCORE.INTRA.POLAR>
0

>  <SCORE.INTRA.POLAR.0>
0

>  <SCORE.INTRA.REPUL>
0

>  <SCORE.INTRA.REPUL.0>
0

>  <SCORE.INTRA.SOLV>
0

>  <SCORE.INTRA.SOLV.lig_0>
-28.6198

>  <SCORE.INTRA.VDW>
0

>  <SCORE.INTRA.VDW.0>
0

>  <SCORE.INTRA.norm>
0

>  <SCORE.RESTR>
0

>  <SCORE.RESTR.CAVITY>
0

>  <SCORE.RESTR.norm>
0

>  <SCORE.SYSTEM>
0

>  <SCORE.SYSTEM.CONST>
0

>  <SCORE.SYSTEM.DIHEDRAL>
0

>  <SCORE.SYSTEM.SOLV>
0

>  <SCORE.SYSTEM.norm>
0

>  <SCORE.heavy>
11

>  <SCORE.norm>
-1.42827

>  <RMSD>
2.883

$$$$
ligand
 OpenBabel11021811483D
libRbt.so/2013.1/901 2013/11/27
 11 12  0  0  0  0  0  0  0  0999 V2000
   36.6178   -8.5664  -37.8843 N   0  0  0  0  0  0  0  0  0  0  0  0
   35.4929   -9.1623  -38.3072 C   0  0  0  0  0  0  0  0  0  0  0  0
   34.6122   -8.4483  -39.1759 N   0  0  0  0  0  0  0  0  0  0  0  0
   35.1816  -10.4076  -37.9324 N   0  0  0  0  0  0  0  0  0  0  0  0
   36.0191  -11.1151  -37.0922 C   0  0  0  0  0  0  0  0  0  0  0  0
   37.1715  -10.5204  -36.6491 C   0  0  0  0  0  0  0  0  0  0  0  0
   37.4894   -9.1855  -37.0625 C   0  0  0  0  0  0  0  0  0  0  0  0
   38.9699   -8.3796  -36.5227 S   0  0  0  0  0  0  0  0  0  0  0  0
   37.8168  -11.4192  -35.8388 N   0  0  0  0  0  0  0  0  0  0  0  0
   37.0706  -12.5532  -35.7827 C   0  0  0  0  0  0  0  0  0  0  0  0
   35.9566  -12.3864  -36.5499 N   0  0  0  0  0  0  0  0  0  0  0  0
  1  2  2  0  0  0  0
  1  7  1  0  0  0  0
  2  3  1  0  0  0  0
  2  4  1  0  0  0  0
  4  5  2  0  0  0  0
  5  6  1  0  0  0  0
  5 11  1  0  0  0  0
  6  7  2  0  0  0  0
  6  9  1  0  0  0  0
  7  8  1  0  0  0  0
  9 10  1  0  0  0  0
 10 11  2  0  0  0  0
M  END
>  <CHROM.1>
36.85657312,-9.96372163,-37.09986139,1.45534710,-0.51121159,-0.42885969

>  <Name>
ligand

>  <RI>
0

>  <Rbt.Current_Directory>
/home/itssahil/PROJECTS/Mol_Feturizer/New_Systems/rnas/3RKF

>  <Rbt.Executable>
rbdock ($Id: //depot/dev/client3/rdock/2013.1/src/exe/rbdock.cxx#4 $)

>  <Rbt.Library>
libRbt.so (2013.1, Build901 2013/11/27)

>  <Rbt.Parameter_File>
/export/apps/rDock/src/rDock_2013.1_src/data/scripts/dock_solv.prm

>  <Rbt.Receptor>
prm/pocket_docking_3.prm

>  <SCORE>
-15.7213

>  <SCORE.INTER>
-15.7213

>  <SCORE.INTER.CONST>
1

>  <SCORE.INTER.POLAR>
0

>  <SCORE.INTER.ROT>
0

>  <SCORE.INTER.SOLV>
9.78305

>  <SCORE.INTER.VDW>
-17.3419

>  <SCORE.INTER.norm>
-1.42921

>  <SCORE.INTRA>
0

>  <SCORE.INTRA.DIHEDRAL>
0

>  <SCORE.INTRA.DIHEDRAL.0>
0

>  <SCORE.INTRA.POLAR>
0

>  <SCORE.INTRA.POLAR.0>
0

>  <SCORE.INTRA.REPUL>
0

>  <SCORE.INTRA.REPUL.0>
0

>  <SCORE.INTRA.SOLV>
0

>  <SCORE.INTRA.SOLV.lig_0>
-28.6198

>  <SCORE.INTRA.VDW>
0

>  <SCORE.INTRA.VDW.0>
0

>  <SCORE.INTRA.norm>
0

>  <SCORE.RESTR>
0

>  <SCORE.RESTR.CAVITY>
0

>  <SCORE.RESTR.norm>
0

>  <SCORE.SYSTEM>
0

>  <SCORE.SYSTEM.CONST>
0

>  <SCORE.SYSTEM.DIHEDRAL>
0

>  <SCORE.SYSTEM.SOLV>
0

>  <SCORE.SYSTEM.norm>
0

>  <SCORE.heavy>
11

>  <SCORE.norm>
-1.42921

>  <RMSD>
2.884

$$$$
ligand
 OpenBabel11021811483D
libRbt.so/2013.1/901 2013/11/27
 11 12  0  0  0  0  0  0  0  0999 V2000
   36.6258   -8.6163  -37.8657 N   0  0  0  0  0  0  0  0  0  0  0  0
   35.4964   -9.1979  -38.2965 C   0  0  0  0  0  0  0  0  0  0  0  0
   34.6109   -8.4582  -39.1386 N   0  0  0  0  0  0  0  0  0  0  0  0
   35.1850  -10.4523  -37.9540 N   0  0  0  0  0  0  0  0  0  0  0  0
   36.0269  -11.1846  -37.1398 C   0  0  0  0  0  0  0  0  0  0  0  0
   37.1840  -10.6048  -36.6891 C   0  0  0  0  0  0  0  0  0  0  0  0
   37.5019   -9.2597  -37.0679 C   0  0  0  0  0  0  0  0  0  0  0  0
   38.9883   -8.4722  -36.5170 S   0  0  0  0  0  0  0  0  0  0  0  0
   37.8332  -11.5271  -35.9087 N   0  0  0  0  0  0  0  0  0  0  0  0
   37.0847  -12.6605  -35.8785 C   0  0  0  0  0  0  0  0  0  0  0  0
   35.9655  -12.4702  -36.6324 N   0  0  0  0  0  0  0  0  0  0  0  0
  1  2  2  0  0  0  0
  1  7  1  0  0  0  0
  2  3  1  0  0  0  0
  2  4  1  0  0  0  0
  4  5  2  0  0  0  0
  5  6  1  0  0  0  0
  5 11  1  0  0  0  0
  6  7  2  0  0  0  0
  6  9  1  0  0  0  0
  7  8  1  0  0  0  0
  9 10  1  0  0  0  0
 10 11  2  0  0  0  0
M  END
>  <CHROM.1>
36.86704321,-10.03523086,-37.12195622,1.45642714,-0.50352786,-0.40068461

>  <Name>
ligand

>  <RI>
0

>  <Rbt.Current_Directory>
/home/itssahil/PROJECTS/Mol_Feturizer/New_Systems/rnas/3RKF

>  <Rbt.Executable>
rbdock ($Id: //depot/dev/client3/rdock/2013.1/src/exe/rbdock.cxx#4 $)

>  <Rbt.Library>
libRbt.so (2013.1, Build901 2013/11/27)

>  <Rbt.Parameter_File>
/export/apps/rDock/src/rDock_2013.1_src/data/scripts/dock_solv.prm

>  <Rbt.Receptor>
prm/blind_docking_100.prm

>  <SCORE>
-15.6655

>  <SCORE.INTER>
-15.6655

>  <SCORE.INTER.CONST>
1

>  <SCORE.INTER.POLAR>
0

>  <SCORE.INTER.ROT>
0

>  <SCORE.INTER.SOLV>
9.66999

>  <SCORE.INTER.VDW>
-17.267

>  <SCORE.INTER.norm>
-1.42413

>  <SCORE.INTRA>
0

>  <SCORE.INTRA.DIHEDRAL>
0

>  <SCORE.INTRA.DIHEDRAL.0>
0

>  <SCORE.INTRA.POLAR>
0

>  <SCORE.INTRA.POLAR.0>
0

>  <SCORE.INTRA.REPUL>
0

>  <SCORE.INTRA.REPUL.0>
0

>  <SCORE.INTRA.SOLV>
0

>  <SCORE.INTRA.SOLV.lig_0>
-28.6198

>  <SCORE.INTRA.VDW>
0

>  <SCORE.INTRA.VDW.0>
0

>  <SCORE.INTRA.norm>
0

>  <SCORE.RESTR>
0

>  <SCORE.RESTR.CAVITY>
0

>  <SCORE.RESTR.norm>
0

>  <SCORE.SYSTEM>
0

>  <SCORE.SYSTEM.CONST>
0

>  <SCORE.SYSTEM.DIHEDRAL>
0

>  <SCORE.SYSTEM.SOLV>
0

>  <SCORE.SYSTEM.norm>
0

>  <SCORE.heavy>
11

>  <SCORE.norm>
-1.42413

>  <RMSD>
2.885

$$$$
ligand
 OpenBabel11021811483D
libRbt.so/2013.1/901 2013/11/27
 11 12  0  0  0  0  0  0  0  0999 V2000
   36.6127   -8.5714  -37.8848 N   0  0  0  0  0  0  0  0  0  0  0  0
   35.4878   -9.1691  -38.3053 C   0  0  0  0  0  0  0  0  0  0  0  0
   34.6047   -8.4570  -39.1732 N   0  0  0  0  0  0  0  0  0  0  0  0
   35.1788  -10.4145  -37.9289 N   0  0  0  0  0  0  0  0  0  0  0  0
   36.0185  -11.1202  -37.0894 C   0  0  0  0  0  0  0  0  0  0  0  0
   37.1710  -10.5235  -36.6488 C   0  0  0  0  0  0  0  0  0  0  0  0
   37.4864   -9.1886  -37.0640 C   0  0  0  0  0  0  0  0  0  0  0  0
   38.9668   -8.3803  -36.5274 S   0  0  0  0  0  0  0  0  0  0  0  0
   37.8188  -11.4208  -35.8388 N   0  0  0  0  0  0  0  0  0  0  0  0
   37.0741  -12.5557  -35.7805 C   0  0  0  0  0  0  0  0  0  0  0  0
   35.9586  -12.3910  -36.5459 N   0  0  0  0  0  0  0  0  0  0  0  0
  1  2  2  0  0  0  0
  1  7  1  0  0  0  0
  2  3  1  0  0  0  0
  2  4  1  0  0  0  0
  4  5  2  0  0  0  0
  5  6  1  0  0  0  0
  5 11  1  0  0  0  0
  6  7  2  0  0  0  0
  6  9  1  0  0  0  0
  7  8  1  0  0  0  0
  9 10  1  0  0  0  0
 10 11  2  0  0  0  0
M  END
>  <CHROM.1>
36.85453847,-9.96770603,-37.09957333,1.45748858,-0.51021898,-0.42870214

>  <Name>
ligand

>  <RI>
0

>  <Rbt.Current_Directory>
/home/itssahil/PROJECTS/Mol_Feturizer/New_Systems/rnas/3RKF

>  <Rbt.Executable>
rbdock ($Id: //depot/dev/client3/rdock/2013.1/src/exe/rbdock.cxx#4 $)

>  <Rbt.Library>
libRbt.so (2013.1, Build901 2013/11/27)

>  <Rbt.Parameter_File>
/export/apps/rDock/src/rDock_2013.1_src/data/scripts/dock_solv.prm

>  <Rbt.Receptor>
prm/blind_docking_100.prm

>  <SCORE>
-15.7218

>  <SCORE.INTER>
-15.7218

>  <SCORE.INTER.CONST>
1

>  <SCORE.INTER.POLAR>
0

>  <SCORE.INTER.ROT>
0

>  <SCORE.INTER.SOLV>
9.7678

>  <SCORE.INTER.VDW>
-17.3371

>  <SCORE.INTER.norm>
-1.42925

>  <SCORE.INTRA>
0

>  <SCORE.INTRA.DIHEDRAL>
0

>  <SCORE.INTRA.DIHEDRAL.0>
0

>  <SCORE.INTRA.POLAR>
0

>  <SCORE.INTRA.POLAR.0>
0

>  <SCORE.INTRA.REPUL>
0

>  <SCORE.INTRA.REPUL.0>
0

>  <SCORE.INTRA.SOLV>
0

>  <SCORE.INTRA.SOLV.lig_0>
-28.6198

>  <SCORE.INTRA.VDW>
0

>  <SCORE.INTRA.VDW.0>
0

>  <SCORE.INTRA.norm>
0

>  <SCORE.RESTR>
0

>  <SCORE.RESTR.CAVITY>
0

>  <SCORE.RESTR.norm>
0

>  <SCORE.SYSTEM>
0

>  <SCORE.SYSTEM.CONST>
0

>  <SCORE.SYSTEM.DIHEDRAL>
0

>  <SCORE.SYSTEM.SOLV>
0

>  <SCORE.SYSTEM.norm>
0

>  <SCORE.heavy>
11

>  <SCORE.norm>
-1.42925

>  <RMSD>
2.886

$$$$
ligand
 OpenBabel11021811483D
libRbt.so/2013.1/901 2013/11/27
 11 12  0  0  0  0  0  0  0  0999 V2000
   36.6128   -8.5723  -37.8818 N   0  0  0  0  0  0  0  0  0  0  0  0
   35.4911   -9.1730  -38.3064 C   0  0  0  0  0  0  0  0  0  0  0  0
   34.6071   -8.4618  -39.1741 N   0  0  0  0  0  0  0  0  0  0  0  0
   35.1860  -10.4206  -37.9342 N   0  0  0  0  0  0  0  0  0  0  0  0
   36.0267  -11.1255  -37.0950 C   0  0  0  0  0  0  0  0  0  0  0  0
   37.1759  -10.5258  -36.6502 C   0  0  0  0  0  0  0  0  0  0  0  0
   37.4871   -9.1885  -37.0609 C   0  0  0  0  0  0  0  0  0  0  0  0
   38.9633   -8.3761  -36.5188 S   0  0  0  0  0  0  0  0  0  0  0  0
   37.8254  -11.4229  -35.8414 N   0  0  0  0  0  0  0  0  0  0  0  0
   37.0849  -12.5608  -35.7880 C   0  0  0  0  0  0  0  0  0  0  0  0
   35.9704  -12.3982  -36.5553 N   0  0  0  0  0  0  0  0  0  0  0  0
  1  2  2  0  0  0  0
  1  7  1  0  0  0  0
  2  3  1  0  0  0  0
  2  4  1  0  0  0  0
  4  5  2  0  0  0  0
  5  6  1  0  0  0  0
  5 11  1  0  0  0  0
  6  7  2  0  0  0  0
  6  9  1  0  0  0  0
  7  8  1  0  0  0  0
  9 10  1  0  0  0  0
 10 11  2  0  0  0  0
M  END
>  <CHROM.1>
36.85830453,-9.96986637,-37.10005166,1.46046887,-0.51372616,-0.42435798

>  <Name>
ligand

>  <RI>
0

>  <Rbt.Current_Directory>
/home/itssahil/PROJECTS/Mol_Feturizer/New_Systems/rnas/3RKF

>  <Rbt.Executable>
rbdock ($Id: //depot/dev/client3/rdock/2013.1/src/exe/rbdock.cxx#4 $)

>  <Rbt.Library>
libRbt.so (2013.1, Build901 2013/11/27)

>  <Rbt.Parameter_File>
/export/apps/rDock/src/rDock_2013.1_src/data/scripts/dock_solv.prm

>  <Rbt.Receptor>
prm/blind_docking_60.prm

>  <SCORE>
-15.7191

>  <SCORE.INTER>
-15.7191

>  <SCORE.INTER.CONST>
1

>  <SCORE.INTER.POLAR>
0

>  <SCORE.INTER.ROT>
0

>  <SCORE.INTER.SOLV>
9.77885

>  <SCORE.INTER.VDW>
-17.339

>  <SCORE.INTER.norm>
-1.42901

>  <SCORE.INTRA>
0

>  <SCORE.INTRA.DIHEDRAL>
0

>  <SCORE.INTRA.DIHEDRAL.0>
0

>  <SCORE.INTRA.POLAR>
0

>  <SCORE.INTRA.POLAR.0>
0

>  <SCORE.INTRA.REPUL>
0

>  <SCORE.INTRA.REPUL.0>
0

>  <SCORE.INTRA.SOLV>
0

>  <SCORE.INTRA.SOLV.lig_0>
-28.6198

>  <SCORE.INTRA.VDW>
0

>  <SCORE.INTRA.VDW.0>
0

>  <SCORE.INTRA.norm>
0

>  <SCORE.RESTR>
0

>  <SCORE.RESTR.CAVITY>
0

>  <SCORE.RESTR.norm>
0

>  <SCORE.SYSTEM>
0

>  <SCORE.SYSTEM.CONST>
0

>  <SCORE.SYSTEM.DIHEDRAL>
0

>  <SCORE.SYSTEM.SOLV>
0

>  <SCORE.SYSTEM.norm>
0

>  <SCORE.heavy>
11

>  <SCORE.norm>
-1.42901

>  <RMSD>
2.886

$$$$
ligand
 OpenBabel11021811483D
libRbt.so/2013.1/901 2013/11/27
 11 12  0  0  0  0  0  0  0  0999 V2000
   36.6087   -8.5731  -37.8827 N   0  0  0  0  0  0  0  0  0  0  0  0
   35.4823   -9.1697  -38.3004 C   0  0  0  0  0  0  0  0  0  0  0  0
   34.5975   -8.4567  -39.1659 N   0  0  0  0  0  0  0  0  0  0  0  0
   35.1731  -10.4149  -37.9234 N   0  0  0  0  0  0  0  0  0  0  0  0
   36.0144  -11.1214  -37.0862 C   0  0  0  0  0  0  0  0  0  0  0  0
   37.1685  -10.5259  -36.6484 C   0  0  0  0  0  0  0  0  0  0  0  0
   37.4840   -9.1912  -37.0642 C   0  0  0  0  0  0  0  0  0  0  0  0
   38.9664   -8.3842  -36.5312 S   0  0  0  0  0  0  0  0  0  0  0  0
   37.8176  -11.4238  -35.8402 N   0  0  0  0  0  0  0  0  0  0  0  0
   37.0720  -12.5581  -35.7802 C   0  0  0  0  0  0  0  0  0  0  0  0
   35.9547  -12.3923  -36.5428 N   0  0  0  0  0  0  0  0  0  0  0  0
  1  2  2  0  0  0  0
  1  7  1  0  0  0  0
  2  3  1  0  0  0  0
  2  4  1  0  0  0  0
  4  5  2  0  0  0  0
  5  6  1  0  0  0  0
  5 11  1  0  0  0  0
  6  7  2  0  0  0  0
  6  9  1  0  0  0  0
  7  8  1  0  0  0  0
  9 10  1  0  0  0  0
 10 11  2  0  0  0  0
M  END
>  <CHROM.1>
36.85136309,-9.96968495,-37.09828169,1.45781563,-0.50753868,-0.42837046

>  <Name>
ligand

>  <RI>
0

>  <Rbt.Current_Directory>
/home/itssahil/PROJECTS/Mol_Feturizer/New_Systems/rnas/3RKF

>  <Rbt.Executable>
rbdock ($Id: //depot/dev/client3/rdock/2013.1/src/exe/rbdock.cxx#4 $)

>  <Rbt.Library>
libRbt.so (2013.1, Build901 2013/11/27)

>  <Rbt.Parameter_File>
/export/apps/rDock/src/rDock_2013.1_src/data/scripts/dock_solv.prm

>  <Rbt.Receptor>
prm/pocket_docking_3.prm

>  <SCORE>
-15.7214

>  <SCORE.INTER>
-15.7214

>  <SCORE.INTER.CONST>
1

>  <SCORE.INTER.POLAR>
0

>  <SCORE.INTER.ROT>
0

>  <SCORE.INTER.SOLV>
9.72544

>  <SCORE.INTER.VDW>
-17.3227

>  <SCORE.INTER.norm>
-1.42922

>  <SCORE.INTRA>
0

>  <SCORE.INTRA.DIHEDRAL>
0

>  <SCORE.INTRA.DIHEDRAL.0>
0

>  <SCORE.INTRA.POLAR>
0

>  <SCORE.INTRA.POLAR.0>
0

>  <SCORE.INTRA.REPUL>
0

>  <SCORE.INTRA.REPUL.0>
0

>  <SCORE.INTRA.SOLV>
0

>  <SCORE.INTRA.SOLV.lig_0>
-28.6198

>  <SCORE.INTRA.VDW>
0

>  <SCORE.INTRA.VDW.0>
0

>  <SCORE.INTRA.norm>
0

>  <SCORE.RESTR>
0

>  <SCORE.RESTR.CAVITY>
0

>  <SCORE.RESTR.norm>
0

>  <SCORE.SYSTEM>
0

>  <SCORE.SYSTEM.CONST>
0

>  <SCORE.SYSTEM.DIHEDRAL>
0

>  <SCORE.SYSTEM.SOLV>
0

>  <SCORE.SYSTEM.norm>
0

>  <SCORE.heavy>
11

>  <SCORE.norm>
-1.42922

>  <RMSD>
2.886

$$$$
ligand
 OpenBabel11021811483D
libRbt.so/2013.1/901 2013/11/27
 11 12  0  0  0  0  0  0  0  0999 V2000
   36.6318   -8.5678  -37.8817 N   0  0  0  0  0  0  0  0  0  0  0  0
   35.5042   -9.1640  -38.2970 C   0  0  0  0  0  0  0  0  0  0  0  0
   34.6247   -8.4556  -39.1716 N   0  0  0  0  0  0  0  0  0  0  0  0
   35.1891  -10.4043  -37.9092 N   0  0  0  0  0  0  0  0  0  0  0  0
   36.0253  -11.1062  -37.0630 C   0  0  0  0  0  0  0  0  0  0  0  0
   37.1805  -10.5111  -36.6277 C   0  0  0  0  0  0  0  0  0  0  0  0
   37.5024   -9.1816  -37.0551 C   0  0  0  0  0  0  0  0  0  0  0  0
   38.9865   -8.3755  -36.5255 S   0  0  0  0  0  0  0  0  0  0  0  0
   37.8238  -11.4040  -35.8092 N   0  0  0  0  0  0  0  0  0  0  0  0
   37.0736  -12.5347  -35.7407 C   0  0  0  0  0  0  0  0  0  0  0  0
   35.9591  -12.3717  -36.5078 N   0  0  0  0  0  0  0  0  0  0  0  0
  1  2  2  0  0  0  0
  1  7  1  0  0  0  0
  2  3  1  0  0  0  0
  2  4  1  0  0  0  0
  4  5  2  0  0  0  0
  5  6  1  0  0  0  0
  5 11  1  0  0  0  0
  6  7  2  0  0  0  0
  6  9  1  0  0  0  0
  7  8  1  0  0  0  0
  9 10  1  0  0  0  0
 10 11  2  0  0  0  0
M  END
>  <CHROM.1>
36.86679475,-9.95793352,-37.08359589,1.45238942,-0.50839513,-0.44041185

>  <Name>
ligand

>  <RI>
0

>  <Rbt.Current_Directory>
/home/itssahil/PROJECTS/Mol_Feturizer/New_Systems/rnas/3RKF

>  <Rbt.Executable>
rbdock ($Id: //depot/dev/client3/rdock/2013.1/src/exe/rbdock.cxx#4 $)

>  <Rbt.Library>
libRbt.so (2013.1, Build901 2013/11/27)

>  <Rbt.Parameter_File>
/export/apps/rDock/src/rDock_2013.1_src/data/scripts/dock_solv.prm

>  <Rbt.Receptor>
prm/pocket_docking_5.prm

>  <SCORE>
-15.6975

>  <SCORE.INTER>
-15.6975

>  <SCORE.INTER.CONST>
1

>  <SCORE.INTER.POLAR>
0

>  <SCORE.INTER.ROT>
0

>  <SCORE.INTER.SOLV>
9.83956

>  <SCORE.INTER.VDW>
-17.3448

>  <SCORE.INTER.norm>
-1.42704

>  <SCORE.INTRA>
0

>  <SCORE.INTRA.DIHEDRAL>
0

>  <SCORE.INTRA.DIHEDRAL.0>
0

>  <SCORE.INTRA.POLAR>
0

>  <SCORE.INTRA.POLAR.0>
0

>  <SCORE.INTRA.REPUL>
0

>  <SCORE.INTRA.REPUL.0>
0

>  <SCORE.INTRA.SOLV>
0

>  <SCORE.INTRA.SOLV.lig_0>
-28.6198

>  <SCORE.INTRA.VDW>
0

>  <SCORE.INTRA.VDW.0>
0

>  <SCORE.INTRA.norm>
0

>  <SCORE.RESTR>
0

>  <SCORE.RESTR.CAVITY>
0

>  <SCORE.RESTR.norm>
0

>  <SCORE.SYSTEM>
0

>  <SCORE.SYSTEM.CONST>
0

>  <SCORE.SYSTEM.DIHEDRAL>
0

>  <SCORE.SYSTEM.SOLV>
0

>  <SCORE.SYSTEM.norm>
0

>  <SCORE.heavy>
11

>  <SCORE.norm>
-1.42704

>  <RMSD>
2.886

$$$$
ligand
 OpenBabel11021811483D
libRbt.so/2013.1/901 2013/11/27
 11 12  0  0  0  0  0  0  0  0999 V2000
   36.6857   -8.7123  -37.9639 N   0  0  0  0  0  0  0  0  0  0  0  0
   35.5861   -9.3073  -38.4501 C   0  0  0  0  0  0  0  0  0  0  0  0
   34.7636   -8.5972  -39.3772 N   0  0  0  0  0  0  0  0  0  0  0  0
   35.2467  -10.5480  -38.0847 N   0  0  0  0  0  0  0  0  0  0  0  0
   36.0278  -11.2516  -37.1887 C   0  0  0  0  0  0  0  0  0  0  0  0
   37.1536  -10.6577  -36.6807 C   0  0  0  0  0  0  0  0  0  0  0  0
   37.5023   -9.3277  -37.0851 C   0  0  0  0  0  0  0  0  0  0  0  0
   38.9506   -8.5232  -36.4621 S   0  0  0  0  0  0  0  0  0  0  0  0
   37.7438  -11.5520  -35.8248 N   0  0  0  0  0  0  0  0  0  0  0  0
   36.9904  -12.6824  -35.8051 C   0  0  0  0  0  0  0  0  0  0  0  0
   35.9263  -12.5178  -36.6406 N   0  0  0  0  0  0  0  0  0  0  0  0
  1  2  2  0  0  0  0
  1  7  1  0  0  0  0
  2  3  1  0  0  0  0
  2  4  1  0  0  0  0
  4  5  2  0  0  0  0
  5  6  1  0  0  0  0
  5 11  1  0  0  0  0
  6  7  2  0  0  0  0
  6  9  1  0  0  0  0
  7  8  1  0  0  0  0
  9 10  1  0  0  0  0
 10 11  2  0  0  0  0
M  END
>  <CHROM.1>
36.86942815,-10.10367352,-37.15462656,1.42021265,-0.56488068,-0.45541660

>  <Name>
ligand

>  <RI>
0

>  <Rbt.Current_Directory>
/home/itssahil/PROJECTS/Mol_Feturizer/New_Systems/rnas/3RKF

>  <Rbt.Executable>
rbdock ($Id: //depot/dev/client3/rdock/2013.1/src/exe/rbdock.cxx#4 $)

>  <Rbt.Library>
libRbt.so (2013.1, Build901 2013/11/27)

>  <Rbt.Parameter_File>
/export/apps/rDock/src/rDock_2013.1_src/data/scripts/dock_solv.prm

>  <Rbt.Receptor>
prm/pocket_docking_3.prm

>  <SCORE>
-15.649

>  <SCORE.INTER>
-15.649

>  <SCORE.INTER.CONST>
1

>  <SCORE.INTER.POLAR>
0

>  <SCORE.INTER.ROT>
0

>  <SCORE.INTER.SOLV>
11.2174

>  <SCORE.INTER.VDW>
-17.7718

>  <SCORE.INTER.norm>
-1.42263

>  <SCORE.INTRA>
0

>  <SCORE.INTRA.DIHEDRAL>
0

>  <SCORE.INTRA.DIHEDRAL.0>
0

>  <SCORE.INTRA.POLAR>
0

>  <SCORE.INTRA.POLAR.0>
0

>  <SCORE.INTRA.REPUL>
0

>  <SCORE.INTRA.REPUL.0>
0

>  <SCORE.INTRA.SOLV>
0

>  <SCORE.INTRA.SOLV.lig_0>
-28.6198

>  <SCORE.INTRA.VDW>
0

>  <SCORE.INTRA.VDW.0>
0

>  <SCORE.INTRA.norm>
0

>  <SCORE.RESTR>
0

>  <SCORE.RESTR.CAVITY>
0

>  <SCORE.RESTR.norm>
0

>  <SCORE.SYSTEM>
0

>  <SCORE.SYSTEM.CONST>
0

>  <SCORE.SYSTEM.DIHEDRAL>
0

>  <SCORE.SYSTEM.SOLV>
0

>  <SCORE.SYSTEM.norm>
0

>  <SCORE.heavy>
11

>  <SCORE.norm>
-1.42263

>  <RMSD>
2.887

$$$$
ligand
 OpenBabel11021811483D
libRbt.so/2013.1/901 2013/11/27
 11 12  0  0  0  0  0  0  0  0999 V2000
   36.5998   -8.6067  -37.8690 N   0  0  0  0  0  0  0  0  0  0  0  0
   35.4720   -9.1939  -38.2963 C   0  0  0  0  0  0  0  0  0  0  0  0
   34.5952   -8.4694  -39.1604 N   0  0  0  0  0  0  0  0  0  0  0  0
   35.1541  -10.4400  -37.9301 N   0  0  0  0  0  0  0  0  0  0  0  0
   35.9876  -11.1576  -37.0944 C   0  0  0  0  0  0  0  0  0  0  0  0
   37.1429  -10.5718  -36.6469 C   0  0  0  0  0  0  0  0  0  0  0  0
   37.4678   -9.2358  -37.0512 C   0  0  0  0  0  0  0  0  0  0  0  0
   38.9523   -8.4413  -36.5054 S   0  0  0  0  0  0  0  0  0  0  0  0
   37.7833  -11.4795  -35.8426 N   0  0  0  0  0  0  0  0  0  0  0  0
   37.0312  -12.6099  -35.7945 C   0  0  0  0  0  0  0  0  0  0  0  0
   35.9183  -12.4322  -36.5609 N   0  0  0  0  0  0  0  0  0  0  0  0
  1  2  2  0  0  0  0
  1  7  1  0  0  0  0
  2  3  1  0  0  0  0
  2  4  1  0  0  0  0
  4  5  2  0  0  0  0
  5  6  1  0  0  0  0
  5 11  1  0  0  0  0
  6  7  2  0  0  0  0
  6  9  1  0  0  0  0
  7  8  1  0  0  0  0
  9 10  1  0  0  0  0
 10 11  2  0  0  0  0
M  END
>  <CHROM.1>
36.83102755,-10.01049232,-37.09402043,1.44981043,-0.50937971,-0.42474006

>  <Name>
ligand

>  <RI>
0

>  <Rbt.Current_Directory>
/home/itssahil/PROJECTS/Mol_Feturizer/New_Systems/rnas/3RKF

>  <Rbt.Executable>
rbdock ($Id: //depot/dev/client3/rdock/2013.1/src/exe/rbdock.cxx#4 $)

>  <Rbt.Library>
libRbt.so (2013.1, Build901 2013/11/27)

>  <Rbt.Parameter_File>
/export/apps/rDock/src/rDock_2013.1_src/data/scripts/dock_solv.prm

>  <Rbt.Receptor>
prm/pocket_docking_6.prm

>  <SCORE>
-15.7111

>  <SCORE.INTER>
-15.7111

>  <SCORE.INTER.CONST>
1

>  <SCORE.INTER.POLAR>
0

>  <SCORE.INTER.ROT>
0

>  <SCORE.INTER.SOLV>
9.70211

>  <SCORE.INTER.VDW>
-17.3081

>  <SCORE.INTER.norm>
-1.42829

>  <SCORE.INTRA>
0

>  <SCORE.INTRA.DIHEDRAL>
0

>  <SCORE.INTRA.DIHEDRAL.0>
0

>  <SCORE.INTRA.POLAR>
0

>  <SCORE.INTRA.POLAR.0>
0

>  <SCORE.INTRA.REPUL>
0

>  <SCORE.INTRA.REPUL.0>
0

>  <SCORE.INTRA.SOLV>
0

>  <SCORE.INTRA.SOLV.lig_0>
-28.6198

>  <SCORE.INTRA.VDW>
0

>  <SCORE.INTRA.VDW.0>
0

>  <SCORE.INTRA.norm>
0

>  <SCORE.RESTR>
0

>  <SCORE.RESTR.CAVITY>
0

>  <SCORE.RESTR.norm>
0

>  <SCORE.SYSTEM>
0

>  <SCORE.SYSTEM.CONST>
0

>  <SCORE.SYSTEM.DIHEDRAL>
0

>  <SCORE.SYSTEM.SOLV>
0

>  <SCORE.SYSTEM.norm>
0

>  <SCORE.heavy>
11

>  <SCORE.norm>
-1.42829

>  <RMSD>
2.887

$$$$
ligand
 OpenBabel11021811483D
libRbt.so/2013.1/901 2013/11/27
 11 12  0  0  0  0  0  0  0  0999 V2000
   36.5975   -8.5888  -37.8567 N   0  0  0  0  0  0  0  0  0  0  0  0
   35.4771   -9.1886  -38.2862 C   0  0  0  0  0  0  0  0  0  0  0  0
   34.5846   -8.4673  -39.1369 N   0  0  0  0  0  0  0  0  0  0  0  0
   35.1811  -10.4442  -37.9345 N   0  0  0  0  0  0  0  0  0  0  0  0
   36.0301  -11.1589  -37.1120 C   0  0  0  0  0  0  0  0  0  0  0  0
   37.1780  -10.5603  -36.6625 C   0  0  0  0  0  0  0  0  0  0  0  0
   37.4795   -9.2142  -37.0512 C   0  0  0  0  0  0  0  0  0  0  0  0
   38.9537   -8.4029  -36.5022 S   0  0  0  0  0  0  0  0  0  0  0  0
   37.8368  -11.4677  -35.8728 N   0  0  0  0  0  0  0  0  0  0  0  0
   37.1031  -12.6106  -35.8357 C   0  0  0  0  0  0  0  0  0  0  0  0
   35.9838  -12.4410  -36.5944 N   0  0  0  0  0  0  0  0  0  0  0  0
  1  2  2  0  0  0  0
  1  7  1  0  0  0  0
  2  3  1  0  0  0  0
  2  4  1  0  0  0  0
  4  5  2  0  0  0  0
  5  6  1  0  0  0  0
  5 11  1  0  0  0  0
  6  7  2  0  0  0  0
  6  9  1  0  0  0  0
  7  8  1  0  0  0  0
  9 10  1  0  0  0  0
 10 11  2  0  0  0  0
M  END
>  <CHROM.1>
36.85497894,-9.99842873,-37.10090214,1.46887279,-0.51144100,-0.40268706

>  <Name>
ligand

>  <RI>
0

>  <Rbt.Current_Directory>
/home/itssahil/PROJECTS/Mol_Feturizer/New_Systems/rnas/3RKF

>  <Rbt.Executable>
rbdock ($Id: //depot/dev/client3/rdock/2013.1/src/exe/rbdock.cxx#4 $)

>  <Rbt.Library>
libRbt.so (2013.1, Build901 2013/11/27)

>  <Rbt.Parameter_File>
/export/apps/rDock/src/rDock_2013.1_src/data/scripts/dock_solv.prm

>  <Rbt.Receptor>
prm/blind_docking_100.prm

>  <SCORE>
-15.7215

>  <SCORE.INTER>
-15.7215

>  <SCORE.INTER.CONST>
1

>  <SCORE.INTER.POLAR>
0

>  <SCORE.INTER.ROT>
0

>  <SCORE.INTER.SOLV>
9.59863

>  <SCORE.INTER.VDW>
-17.2806

>  <SCORE.INTER.norm>
-1.42923

>  <SCORE.INTRA>
0

>  <SCORE.INTRA.DIHEDRAL>
0

>  <SCORE.INTRA.DIHEDRAL.0>
0

>  <SCORE.INTRA.POLAR>
0

>  <SCORE.INTRA.POLAR.0>
0

>  <SCORE.INTRA.REPUL>
0

>  <SCORE.INTRA.REPUL.0>
0

>  <SCORE.INTRA.SOLV>
0

>  <SCORE.INTRA.SOLV.lig_0>
-28.6198

>  <SCORE.INTRA.VDW>
0

>  <SCORE.INTRA.VDW.0>
0

>  <SCORE.INTRA.norm>
0

>  <SCORE.RESTR>
0

>  <SCORE.RESTR.CAVITY>
0

>  <SCORE.RESTR.norm>
0

>  <SCORE.SYSTEM>
0

>  <SCORE.SYSTEM.CONST>
0

>  <SCORE.SYSTEM.DIHEDRAL>
0

>  <SCORE.SYSTEM.SOLV>
0

>  <SCORE.SYSTEM.norm>
0

>  <SCORE.heavy>
11

>  <SCORE.norm>
-1.42923

>  <RMSD>
2.888

$$$$
ligand
 OpenBabel11021811483D
libRbt.so/2013.1/901 2013/11/27
 11 12  0  0  0  0  0  0  0  0999 V2000
   36.6382   -8.6372  -37.9143 N   0  0  0  0  0  0  0  0  0  0  0  0
   35.5163   -9.2292  -38.3504 C   0  0  0  0  0  0  0  0  0  0  0  0
   34.6566   -8.5184  -39.2426 N   0  0  0  0  0  0  0  0  0  0  0  0
   35.1887  -10.4678  -37.9673 N   0  0  0  0  0  0  0  0  0  0  0  0
   36.0056  -11.1721  -37.1045 C   0  0  0  0  0  0  0  0  0  0  0  0
   37.1546  -10.5812  -36.6476 C   0  0  0  0  0  0  0  0  0  0  0  0
   37.4901   -9.2535  -37.0703 C   0  0  0  0  0  0  0  0  0  0  0  0
   38.9671   -8.4529  -36.5133 S   0  0  0  0  0  0  0  0  0  0  0  0
   37.7784  -11.4756  -35.8160 N   0  0  0  0  0  0  0  0  0  0  0  0
   37.0224  -12.6032  -35.7605 C   0  0  0  0  0  0  0  0  0  0  0  0
   35.9235  -12.4366  -36.5492 N   0  0  0  0  0  0  0  0  0  0  0  0
  1  2  2  0  0  0  0
  1  7  1  0  0  0  0
  2  3  1  0  0  0  0
  2  4  1  0  0  0  0
  4  5  2  0  0  0  0
  5  6  1  0  0  0  0
  5 11  1  0  0  0  0
  6  7  2  0  0  0  0
  6  9  1  0  0  0  0
  7  8  1  0  0  0  0
  9 10  1  0  0  0  0
 10 11  2  0  0  0  0
M  END
>  <CHROM.1>
36.85203437,-10.02726887,-37.11015394,1.43863296,-0.52399045,-0.44838663

>  <Name>
ligand

>  <RI>
0

>  <Rbt.Current_Directory>
/home/itssahil/PROJECTS/Mol_Feturizer/New_Systems/rnas/3RKF

>  <Rbt.Executable>
rbdock ($Id: //depot/dev/client3/rdock/2013.1/src/exe/rbdock.cxx#4 $)

>  <Rbt.Library>
libRbt.so (2013.1, Build901 2013/11/27)

>  <Rbt.Parameter_File>
/export/apps/rDock/src/rDock_2013.1_src/data/scripts/dock_solv.prm

>  <Rbt.Receptor>
prm/blind_docking_100.prm

>  <SCORE>
-15.6815

>  <SCORE.INTER>
-15.6815

>  <SCORE.INTER.CONST>
1

>  <SCORE.INTER.POLAR>
0

>  <SCORE.INTER.ROT>
0

>  <SCORE.INTER.SOLV>
10.2292

>  <SCORE.INTER.VDW>
-17.4641

>  <SCORE.INTER.norm>
-1.42559

>  <SCORE.INTRA>
0

>  <SCORE.INTRA.DIHEDRAL>
0

>  <SCORE.INTRA.DIHEDRAL.0>
0

>  <SCORE.INTRA.POLAR>
0

>  <SCORE.INTRA.POLAR.0>
0

>  <SCORE.INTRA.REPUL>
0

>  <SCORE.INTRA.REPUL.0>
0

>  <SCORE.INTRA.SOLV>
0

>  <SCORE.INTRA.SOLV.lig_0>
-28.6198

>  <SCORE.INTRA.VDW>
0

>  <SCORE.INTRA.VDW.0>
0

>  <SCORE.INTRA.norm>
0

>  <SCORE.RESTR>
0

>  <SCORE.RESTR.CAVITY>
0

>  <SCORE.RESTR.norm>
0

>  <SCORE.SYSTEM>
0

>  <SCORE.SYSTEM.CONST>
0

>  <SCORE.SYSTEM.DIHEDRAL>
0

>  <SCORE.SYSTEM.SOLV>
0

>  <SCORE.SYSTEM.norm>
0

>  <SCORE.heavy>
11

>  <SCORE.norm>
-1.42559

>  <RMSD>
2.888

$$$$
ligand
 OpenBabel11021811483D
libRbt.so/2013.1/901 2013/11/27
 11 12  0  0  0  0  0  0  0  0999 V2000
   36.6329   -8.5746  -37.8756 N   0  0  0  0  0  0  0  0  0  0  0  0
   35.5141   -9.1830  -38.2970 C   0  0  0  0  0  0  0  0  0  0  0  0
   34.6178   -8.4742  -39.1541 N   0  0  0  0  0  0  0  0  0  0  0  0
   35.2231  -10.4358  -37.9313 N   0  0  0  0  0  0  0  0  0  0  0  0
   36.0758  -11.1384  -37.1023 C   0  0  0  0  0  0  0  0  0  0  0  0
   37.2223  -10.5310  -36.6610 C   0  0  0  0  0  0  0  0  0  0  0  0
   37.5183   -9.1881  -37.0646 C   0  0  0  0  0  0  0  0  0  0  0  0
   38.9903   -8.3656  -36.5266 S   0  0  0  0  0  0  0  0  0  0  0  0
   37.8854  -11.4274  -35.8625 N   0  0  0  0  0  0  0  0  0  0  0  0
   37.1560  -12.5724  -35.8119 C   0  0  0  0  0  0  0  0  0  0  0  0
   36.0350  -12.4151  -36.5709 N   0  0  0  0  0  0  0  0  0  0  0  0
  1  2  2  0  0  0  0
  1  7  1  0  0  0  0
  2  3  1  0  0  0  0
  2  4  1  0  0  0  0
  4  5  2  0  0  0  0
  5  6  1  0  0  0  0
  5 11  1  0  0  0  0
  6  7  2  0  0  0  0
  6  9  1  0  0  0  0
  7  8  1  0  0  0  0
  9 10  1  0  0  0  0
 10 11  2  0  0  0  0
M  END
>  <CHROM.1>
36.89656256,-9.97501730,-37.10496428,1.47331982,-0.51153786,-0.41132269

>  <Name>
ligand

>  <RI>
0

>  <Rbt.Current_Directory>
/home/itssahil/PROJECTS/Mol_Feturizer/New_Systems/rnas/3RKF

>  <Rbt.Executable>
rbdock ($Id: //depot/dev/client3/rdock/2013.1/src/exe/rbdock.cxx#4 $)

>  <Rbt.Library>
libRbt.so (2013.1, Build901 2013/11/27)

>  <Rbt.Parameter_File>
/export/apps/rDock/src/rDock_2013.1_src/data/scripts/dock_solv.prm

>  <Rbt.Receptor>
prm/blind_docking_80.prm

>  <SCORE>
-15.7643

>  <SCORE.INTER>
-15.7643

>  <SCORE.INTER.CONST>
1

>  <SCORE.INTER.POLAR>
0

>  <SCORE.INTER.ROT>
0

>  <SCORE.INTER.SOLV>
9.7702

>  <SCORE.INTER.VDW>
-17.3663

>  <SCORE.INTER.norm>
-1.43312

>  <SCORE.INTRA>
0

>  <SCORE.INTRA.DIHEDRAL>
0

>  <SCORE.INTRA.DIHEDRAL.0>
0

>  <SCORE.INTRA.POLAR>
0

>  <SCORE.INTRA.POLAR.0>
0

>  <SCORE.INTRA.REPUL>
0

>  <SCORE.INTRA.REPUL.0>
0

>  <SCORE.INTRA.SOLV>
0

>  <SCORE.INTRA.SOLV.lig_0>
-28.6198

>  <SCORE.INTRA.VDW>
0

>  <SCORE.INTRA.VDW.0>
0

>  <SCORE.INTRA.norm>
0

>  <SCORE.RESTR>
0

>  <SCORE.RESTR.CAVITY>
0

>  <SCORE.RESTR.norm>
0

>  <SCORE.SYSTEM>
0

>  <SCORE.SYSTEM.CONST>
0

>  <SCORE.SYSTEM.DIHEDRAL>
0

>  <SCORE.SYSTEM.SOLV>
0

>  <SCORE.SYSTEM.norm>
0

>  <SCORE.heavy>
11

>  <SCORE.norm>
-1.43312

>  <RMSD>
2.888

$$$$
ligand
 OpenBabel11021811483D
libRbt.so/2013.1/901 2013/11/27
 11 12  0  0  0  0  0  0  0  0999 V2000
   36.6077   -8.5789  -37.8736 N   0  0  0  0  0  0  0  0  0  0  0  0
   35.4922   -9.1892  -38.3010 C   0  0  0  0  0  0  0  0  0  0  0  0
   34.5899   -8.4754  -39.1476 N   0  0  0  0  0  0  0  0  0  0  0  0
   35.2101  -10.4485  -37.9511 N   0  0  0  0  0  0  0  0  0  0  0  0
   36.0688  -11.1561  -37.1326 C   0  0  0  0  0  0  0  0  0  0  0  0
   37.2119  -10.5468  -36.6852 C   0  0  0  0  0  0  0  0  0  0  0  0
   37.4984   -9.1969  -37.0719 C   0  0  0  0  0  0  0  0  0  0  0  0
   38.9659   -8.3716  -36.5256 S   0  0  0  0  0  0  0  0  0  0  0  0
   37.8823  -11.4490  -35.8993 N   0  0  0  0  0  0  0  0  0  0  0  0
   37.1605  -12.5994  -35.8624 C   0  0  0  0  0  0  0  0  0  0  0  0
   36.0372  -12.4398  -36.6175 N   0  0  0  0  0  0  0  0  0  0  0  0
  1  2  2  0  0  0  0
  1  7  1  0  0  0  0
  2  3  1  0  0  0  0
  2  4  1  0  0  0  0
  4  5  2  0  0  0  0
  5  6  1  0  0  0  0
  5 11  1  0  0  0  0
  6  7  2  0  0  0  0
  6  9  1  0  0  0  0
  7  8  1  0  0  0  0
  9 10  1  0  0  0  0
 10 11  2  0  0  0  0
M  END
>  <CHROM.1>
36.88183665,-9.98734698,-37.12145827,1.48101039,-0.51269466,-0.39466710

>  <Name>
ligand

>  <RI>
0

>  <Rbt.Current_Directory>
/home/itssahil/PROJECTS/Mol_Feturizer/New_Systems/rnas/3RKF

>  <Rbt.Executable>
rbdock ($Id: //depot/dev/client3/rdock/2013.1/src/exe/rbdock.cxx#4 $)

>  <Rbt.Library>
libRbt.so (2013.1, Build901 2013/11/27)

>  <Rbt.Parameter_File>
/export/apps/rDock/src/rDock_2013.1_src/data/scripts/dock_solv.prm

>  <Rbt.Receptor>
prm/pocket_docking_3.prm

>  <SCORE>
-15.759

>  <SCORE.INTER>
-15.759

>  <SCORE.INTER.CONST>
1

>  <SCORE.INTER.POLAR>
0

>  <SCORE.INTER.ROT>
0

>  <SCORE.INTER.SOLV>
9.66164

>  <SCORE.INTER.VDW>
-17.3265

>  <SCORE.INTER.norm>
-1.43264

>  <SCORE.INTRA>
0

>  <SCORE.INTRA.DIHEDRAL>
0

>  <SCORE.INTRA.DIHEDRAL.0>
0

>  <SCORE.INTRA.POLAR>
0

>  <SCORE.INTRA.POLAR.0>
0

>  <SCORE.INTRA.REPUL>
0

>  <SCORE.INTRA.REPUL.0>
0

>  <SCORE.INTRA.SOLV>
0

>  <SCORE.INTRA.SOLV.lig_0>
-28.6198

>  <SCORE.INTRA.VDW>
0

>  <SCORE.INTRA.VDW.0>
0

>  <SCORE.INTRA.norm>
0

>  <SCORE.RESTR>
0

>  <SCORE.RESTR.CAVITY>
0

>  <SCORE.RESTR.norm>
0

>  <SCORE.SYSTEM>
0

>  <SCORE.SYSTEM.CONST>
0

>  <SCORE.SYSTEM.DIHEDRAL>
0

>  <SCORE.SYSTEM.SOLV>
0

>  <SCORE.SYSTEM.norm>
0

>  <SCORE.heavy>
11

>  <SCORE.norm>
-1.43264

>  <RMSD>
2.888

$$$$
ligand
 OpenBabel11021811483D
libRbt.so/2013.1/901 2013/11/27
 11 12  0  0  0  0  0  0  0  0999 V2000
   36.6381   -8.6376  -37.9122 N   0  0  0  0  0  0  0  0  0  0  0  0
   35.5168   -9.2316  -38.3473 C   0  0  0  0  0  0  0  0  0  0  0  0
   34.6541   -8.5214  -39.2371 N   0  0  0  0  0  0  0  0  0  0  0  0
   35.1926  -10.4713  -37.9653 N   0  0  0  0  0  0  0  0  0  0  0  0
   36.0125  -11.1750  -37.1048 C   0  0  0  0  0  0  0  0  0  0  0  0
   37.1610  -10.5822  -36.6491 C   0  0  0  0  0  0  0  0  0  0  0  0
   37.4929   -9.2532  -37.0705 C   0  0  0  0  0  0  0  0  0  0  0  0
   38.9690   -8.4501  -36.5148 S   0  0  0  0  0  0  0  0  0  0  0  0
   37.7881  -11.4764  -35.8196 N   0  0  0  0  0  0  0  0  0  0  0  0
   37.0347  -12.6057  -35.7644 C   0  0  0  0  0  0  0  0  0  0  0  0
   35.9341  -12.4404  -36.5510 N   0  0  0  0  0  0  0  0  0  0  0  0
  1  2  2  0  0  0  0
  1  7  1  0  0  0  0
  2  3  1  0  0  0  0
  2  4  1  0  0  0  0
  4  5  2  0  0  0  0
  5  6  1  0  0  0  0
  5 11  1  0  0  0  0
  6  7  2  0  0  0  0
  6  9  1  0  0  0  0
  7  8  1  0  0  0  0
  9 10  1  0  0  0  0
 10 11  2  0  0  0  0
M  END
>  <CHROM.1>
36.85641571,-10.02832613,-37.11031892,1.44176187,-0.52343035,-0.44548022

>  <Name>
ligand

>  <RI>
0

>  <Rbt.Current_Directory>
/home/itssahil/PROJECTS/Mol_Feturizer/New_Systems/rnas/3RKF

>  <Rbt.Executable>
rbdock ($Id: //depot/dev/client3/rdock/2013.1/src/exe/rbdock.cxx#4 $)

>  <Rbt.Library>
libRbt.so (2013.1, Build901 2013/11/27)

>  <Rbt.Parameter_File>
/export/apps/rDock/src/rDock_2013.1_src/data/scripts/dock_solv.prm

>  <Rbt.Receptor>
prm/pocket_docking_3.prm

>  <SCORE>
-15.6828

>  <SCORE.INTER>
-15.6828

>  <SCORE.INTER.CONST>
1

>  <SCORE.INTER.POLAR>
0

>  <SCORE.INTER.ROT>
0

>  <SCORE.INTER.SOLV>
10.2113

>  <SCORE.INTER.VDW>
-17.459

>  <SCORE.INTER.norm>
-1.42571

>  <SCORE.INTRA>
0

>  <SCORE.INTRA.DIHEDRAL>
0

>  <SCORE.INTRA.DIHEDRAL.0>
0

>  <SCORE.INTRA.POLAR>
0

>  <SCORE.INTRA.POLAR.0>
0

>  <SCORE.INTRA.REPUL>
0

>  <SCORE.INTRA.REPUL.0>
0

>  <SCORE.INTRA.SOLV>
0

>  <SCORE.INTRA.SOLV.lig_0>
-28.6198

>  <SCORE.INTRA.VDW>
0

>  <SCORE.INTRA.VDW.0>
0

>  <SCORE.INTRA.norm>
0

>  <SCORE.RESTR>
0

>  <SCORE.RESTR.CAVITY>
0

>  <SCORE.RESTR.norm>
0

>  <SCORE.SYSTEM>
0

>  <SCORE.SYSTEM.CONST>
0

>  <SCORE.SYSTEM.DIHEDRAL>
0

>  <SCORE.SYSTEM.SOLV>
0

>  <SCORE.SYSTEM.norm>
0

>  <SCORE.heavy>
11

>  <SCORE.norm>
-1.42571

>  <RMSD>
2.888

$$$$
ligand
 OpenBabel11021811483D
libRbt.so/2013.1/901 2013/11/27
 11 12  0  0  0  0  0  0  0  0999 V2000
   36.6346   -8.6124  -37.8691 N   0  0  0  0  0  0  0  0  0  0  0  0
   35.5073   -9.2014  -38.2952 C   0  0  0  0  0  0  0  0  0  0  0  0
   34.6257   -8.4763  -39.1540 N   0  0  0  0  0  0  0  0  0  0  0  0
   35.1944  -10.4499  -37.9329 N   0  0  0  0  0  0  0  0  0  0  0  0
   36.0326  -11.1681  -37.1024 C   0  0  0  0  0  0  0  0  0  0  0  0
   37.1874  -10.5805  -36.6562 C   0  0  0  0  0  0  0  0  0  0  0  0
   37.5070   -9.2420  -37.0563 C   0  0  0  0  0  0  0  0  0  0  0  0
   38.9906   -8.4449  -36.5119 S   0  0  0  0  0  0  0  0  0  0  0  0
   37.8330  -11.4892  -35.8572 N   0  0  0  0  0  0  0  0  0  0  0  0
   37.0845  -12.6221  -35.8112 C   0  0  0  0  0  0  0  0  0  0  0  0
   35.9688  -12.4449  -36.5735 N   0  0  0  0  0  0  0  0  0  0  0  0
  1  2  2  0  0  0  0
  1  7  1  0  0  0  0
  2  3  1  0  0  0  0
  2  4  1  0  0  0  0
  4  5  2  0  0  0  0
  5  6  1  0  0  0  0
  5 11  1  0  0  0  0
  6  7  2  0  0  0  0
  6  9  1  0  0  0  0
  7  8  1  0  0  0  0
  9 10  1  0  0  0  0
 10 11  2  0  0  0  0
M  END
>  <CHROM.1>
36.87245598,-10.01841567,-37.10018727,1.45443222,-0.50789711,-0.41868886

>  <Name>
ligand

>  <RI>
0

>  <Rbt.Current_Directory>
/home/itssahil/PROJECTS/Mol_Feturizer/New_Systems/rnas/3RKF

>  <Rbt.Executable>
rbdock ($Id: //depot/dev/client3/rdock/2013.1/src/exe/rbdock.cxx#4 $)

>  <Rbt.Library>
libRbt.so (2013.1, Build901 2013/11/27)

>  <Rbt.Parameter_File>
/export/apps/rDock/src/rDock_2013.1_src/data/scripts/dock_solv.prm

>  <Rbt.Receptor>
prm/pocket_docking_6.prm

>  <SCORE>
-15.705

>  <SCORE.INTER>
-15.705

>  <SCORE.INTER.CONST>
1

>  <SCORE.INTER.POLAR>
0

>  <SCORE.INTER.ROT>
0

>  <SCORE.INTER.SOLV>
9.78845

>  <SCORE.INTER.VDW>
-17.3328

>  <SCORE.INTER.norm>
-1.42773

>  <SCORE.INTRA>
0

>  <SCORE.INTRA.DIHEDRAL>
0

>  <SCORE.INTRA.DIHEDRAL.0>
0

>  <SCORE.INTRA.POLAR>
0

>  <SCORE.INTRA.POLAR.0>
0

>  <SCORE.INTRA.REPUL>
0

>  <SCORE.INTRA.REPUL.0>
0

>  <SCORE.INTRA.SOLV>
0

>  <SCORE.INTRA.SOLV.lig_0>
-28.6198

>  <SCORE.INTRA.VDW>
0

>  <SCORE.INTRA.VDW.0>
0

>  <SCORE.INTRA.norm>
0

>  <SCORE.RESTR>
0

>  <SCORE.RESTR.CAVITY>
0

>  <SCORE.RESTR.norm>
0

>  <SCORE.SYSTEM>
0

>  <SCORE.SYSTEM.CONST>
0

>  <SCORE.SYSTEM.DIHEDRAL>
0

>  <SCORE.SYSTEM.SOLV>
0

>  <SCORE.SYSTEM.norm>
0

>  <SCORE.heavy>
11

>  <SCORE.norm>
-1.42773

>  <RMSD>
2.888

$$$$
ligand
 OpenBabel11021811483D
libRbt.so/2013.1/901 2013/11/27
 11 12  0  0  0  0  0  0  0  0999 V2000
   36.5876   -8.5898  -37.8334 N   0  0  0  0  0  0  0  0  0  0  0  0
   35.4612   -9.1845  -38.2542 C   0  0  0  0  0  0  0  0  0  0  0  0
   34.5563   -8.4528  -39.0825 N   0  0  0  0  0  0  0  0  0  0  0  0
   35.1705  -10.4446  -37.9141 N   0  0  0  0  0  0  0  0  0  0  0  0
   36.0315  -11.1693  -37.1132 C   0  0  0  0  0  0  0  0  0  0  0  0
   37.1858  -10.5762  -36.6729 C   0  0  0  0  0  0  0  0  0  0  0  0
   37.4813   -9.2252  -37.0488 C   0  0  0  0  0  0  0  0  0  0  0  0
   38.9633   -8.4204  -36.5111 S   0  0  0  0  0  0  0  0  0  0  0  0
   37.8561  -11.4933  -35.9044 N   0  0  0  0  0  0  0  0  0  0  0  0
   37.1232  -12.6368  -35.8711 C   0  0  0  0  0  0  0  0  0  0  0  0
   35.9930  -12.4580  -36.6113 N   0  0  0  0  0  0  0  0  0  0  0  0
  1  2  2  0  0  0  0
  1  7  1  0  0  0  0
  2  3  1  0  0  0  0
  2  4  1  0  0  0  0
  4  5  2  0  0  0  0
  5  6  1  0  0  0  0
  5 11  1  0  0  0  0
  6  7  2  0  0  0  0
  6  9  1  0  0  0  0
  7  8  1  0  0  0  0
  9 10  1  0  0  0  0
 10 11  2  0  0  0  0
M  END
>  <CHROM.1>
36.85630508,-10.00886957,-37.09936718,1.47551324,-0.49809924,-0.38678420

>  <Name>
ligand

>  <RI>
0

>  <Rbt.Current_Directory>
/home/itssahil/PROJECTS/Mol_Feturizer/New_Systems/rnas/3RKF

>  <Rbt.Executable>
rbdock ($Id: //depot/dev/client3/rdock/2013.1/src/exe/rbdock.cxx#4 $)

>  <Rbt.Library>
libRbt.so (2013.1, Build901 2013/11/27)

>  <Rbt.Parameter_File>
/export/apps/rDock/src/rDock_2013.1_src/data/scripts/dock_solv.prm

>  <Rbt.Receptor>
prm/pocket_docking_3.prm

>  <SCORE>
-15.7608

>  <SCORE.INTER>
-15.7608

>  <SCORE.INTER.CONST>
1

>  <SCORE.INTER.POLAR>
0

>  <SCORE.INTER.ROT>
0

>  <SCORE.INTER.SOLV>
9.39252

>  <SCORE.INTER.VDW>
-17.2381

>  <SCORE.INTER.norm>
-1.4328

>  <SCORE.INTRA>
0

>  <SCORE.INTRA.DIHEDRAL>
0

>  <SCORE.INTRA.DIHEDRAL.0>
0

>  <SCORE.INTRA.POLAR>
0

>  <SCORE.INTRA.POLAR.0>
0

>  <SCORE.INTRA.REPUL>
0

>  <SCORE.INTRA.REPUL.0>
0

>  <SCORE.INTRA.SOLV>
0

>  <SCORE.INTRA.SOLV.lig_0>
-28.6198

>  <SCORE.INTRA.VDW>
0

>  <SCORE.INTRA.VDW.0>
0

>  <SCORE.INTRA.norm>
0

>  <SCORE.RESTR>
0

>  <SCORE.RESTR.CAVITY>
0

>  <SCORE.RESTR.norm>
0

>  <SCORE.SYSTEM>
0

>  <SCORE.SYSTEM.CONST>
0

>  <SCORE.SYSTEM.DIHEDRAL>
0

>  <SCORE.SYSTEM.SOLV>
0

>  <SCORE.SYSTEM.norm>
0

>  <SCORE.heavy>
11

>  <SCORE.norm>
-1.4328

>  <RMSD>
2.889

$$$$
ligand
 OpenBabel11021811483D
libRbt.so/2013.1/901 2013/11/27
 11 12  0  0  0  0  0  0  0  0999 V2000
   36.6261   -8.5792  -37.8692 N   0  0  0  0  0  0  0  0  0  0  0  0
   35.5089   -9.1878  -38.2943 C   0  0  0  0  0  0  0  0  0  0  0  0
   34.6128   -8.4776  -39.1505 N   0  0  0  0  0  0  0  0  0  0  0  0
   35.2192  -10.4423  -37.9332 N   0  0  0  0  0  0  0  0  0  0  0  0
   36.0717  -11.1464  -37.1052 C   0  0  0  0  0  0  0  0  0  0  0  0
   37.2166  -10.5386  -36.6601 C   0  0  0  0  0  0  0  0  0  0  0  0
   37.5112   -9.1940  -37.0589 C   0  0  0  0  0  0  0  0  0  0  0  0
   38.9812   -8.3710  -36.5159 S   0  0  0  0  0  0  0  0  0  0  0  0
   37.8799  -11.4367  -35.8636 N   0  0  0  0  0  0  0  0  0  0  0  0
   37.1520  -12.5830  -35.8179 C   0  0  0  0  0  0  0  0  0  0  0  0
   36.0320  -12.4249  -36.5780 N   0  0  0  0  0  0  0  0  0  0  0  0
  1  2  2  0  0  0  0
  1  7  1  0  0  0  0
  2  3  1  0  0  0  0
  2  4  1  0  0  0  0
  4  5  2  0  0  0  0
  5  6  1  0  0  0  0
  5 11  1  0  0  0  0
  6  7  2  0  0  0  0
  6  9  1  0  0  0  0
  7  8  1  0  0  0  0
  9 10  1  0  0  0  0
 10 11  2  0  0  0  0
M  END
>  <CHROM.1>
36.89070255,-9.98173123,-37.10278642,1.47419779,-0.51355184,-0.40759983

>  <Name>
ligand

>  <RI>
0

>  <Rbt.Current_Directory>
/home/itssahil/PROJECTS/Mol_Feturizer/New_Systems/rnas/3RKF

>  <Rbt.Executable>
rbdock ($Id: //depot/dev/client3/rdock/2013.1/src/exe/rbdock.cxx#4 $)

>  <Rbt.Library>
libRbt.so (2013.1, Build901 2013/11/27)

>  <Rbt.Parameter_File>
/export/apps/rDock/src/rDock_2013.1_src/data/scripts/dock_solv.prm

>  <Rbt.Receptor>
prm/pocket_docking_4.prm

>  <SCORE>
-15.7639

>  <SCORE.INTER>
-15.7639

>  <SCORE.INTER.CONST>
1

>  <SCORE.INTER.POLAR>
0

>  <SCORE.INTER.ROT>
0

>  <SCORE.INTER.SOLV>
9.74248

>  <SCORE.INTER.VDW>
-17.3568

>  <SCORE.INTER.norm>
-1.43308

>  <SCORE.INTRA>
0

>  <SCORE.INTRA.DIHEDRAL>
0

>  <SCORE.INTRA.DIHEDRAL.0>
0

>  <SCORE.INTRA.POLAR>
0

>  <SCORE.INTRA.POLAR.0>
0

>  <SCORE.INTRA.REPUL>
0

>  <SCORE.INTRA.REPUL.0>
0

>  <SCORE.INTRA.SOLV>
0

>  <SCORE.INTRA.SOLV.lig_0>
-28.6198

>  <SCORE.INTRA.VDW>
0

>  <SCORE.INTRA.VDW.0>
0

>  <SCORE.INTRA.norm>
0

>  <SCORE.RESTR>
0

>  <SCORE.RESTR.CAVITY>
0

>  <SCORE.RESTR.norm>
0

>  <SCORE.SYSTEM>
0

>  <SCORE.SYSTEM.CONST>
0

>  <SCORE.SYSTEM.DIHEDRAL>
0

>  <SCORE.SYSTEM.SOLV>
0

>  <SCORE.SYSTEM.norm>
0

>  <SCORE.heavy>
11

>  <SCORE.norm>
-1.43308

>  <RMSD>
2.889

$$$$
ligand
 OpenBabel11021811483D
libRbt.so/2013.1/901 2013/11/27
 11 12  0  0  0  0  0  0  0  0999 V2000
   36.6221   -8.5797  -37.8686 N   0  0  0  0  0  0  0  0  0  0  0  0
   35.5051   -9.1892  -38.2929 C   0  0  0  0  0  0  0  0  0  0  0  0
   34.6080   -8.4796  -39.1485 N   0  0  0  0  0  0  0  0  0  0  0  0
   35.2166  -10.4439  -37.9315 N   0  0  0  0  0  0  0  0  0  0  0  0
   36.0701  -11.1473  -37.1041 C   0  0  0  0  0  0  0  0  0  0  0  0
   37.2148  -10.5387  -36.6598 C   0  0  0  0  0  0  0  0  0  0  0  0
   37.5082   -9.1938  -37.0588 C   0  0  0  0  0  0  0  0  0  0  0  0
   38.9779   -8.3698  -36.5168 S   0  0  0  0  0  0  0  0  0  0  0  0
   37.8793  -11.4362  -35.8636 N   0  0  0  0  0  0  0  0  0  0  0  0
   37.1523  -12.5830  -35.8174 C   0  0  0  0  0  0  0  0  0  0  0  0
   36.0317  -12.4258  -36.5768 N   0  0  0  0  0  0  0  0  0  0  0  0
  1  2  2  0  0  0  0
  1  7  1  0  0  0  0
  2  3  1  0  0  0  0
  2  4  1  0  0  0  0
  4  5  2  0  0  0  0
  5  6  1  0  0  0  0
  5 11  1  0  0  0  0
  6  7  2  0  0  0  0
  6  9  1  0  0  0  0
  7  8  1  0  0  0  0
  9 10  1  0  0  0  0
 10 11  2  0  0  0  0
M  END
>  <CHROM.1>
36.88826341,-9.98201194,-37.10222125,1.47526915,-0.51324047,-0.40711838

>  <Name>
ligand

>  <RI>
0

>  <Rbt.Current_Directory>
/home/itssahil/PROJECTS/Mol_Feturizer/New_Systems/rnas/3RKF

>  <Rbt.Executable>
rbdock ($Id: //depot/dev/client3/rdock/2013.1/src/exe/rbdock.cxx#4 $)

>  <Rbt.Library>
libRbt.so (2013.1, Build901 2013/11/27)

>  <Rbt.Parameter_File>
/export/apps/rDock/src/rDock_2013.1_src/data/scripts/dock_solv.prm

>  <Rbt.Receptor>
prm/pocket_docking_5.prm

>  <SCORE>
-15.7647

>  <SCORE.INTER>
-15.7647

>  <SCORE.INTER.CONST>
1

>  <SCORE.INTER.POLAR>
0

>  <SCORE.INTER.ROT>
0

>  <SCORE.INTER.SOLV>
9.72543

>  <SCORE.INTER.VDW>
-17.3516

>  <SCORE.INTER.norm>
-1.43315

>  <SCORE.INTRA>
0

>  <SCORE.INTRA.DIHEDRAL>
0

>  <SCORE.INTRA.DIHEDRAL.0>
0

>  <SCORE.INTRA.POLAR>
0

>  <SCORE.INTRA.POLAR.0>
0

>  <SCORE.INTRA.REPUL>
0

>  <SCORE.INTRA.REPUL.0>
0

>  <SCORE.INTRA.SOLV>
0

>  <SCORE.INTRA.SOLV.lig_0>
-28.6198

>  <SCORE.INTRA.VDW>
0

>  <SCORE.INTRA.VDW.0>
0

>  <SCORE.INTRA.norm>
0

>  <SCORE.RESTR>
0

>  <SCORE.RESTR.CAVITY>
0

>  <SCORE.RESTR.norm>
0

>  <SCORE.SYSTEM>
0

>  <SCORE.SYSTEM.CONST>
0

>  <SCORE.SYSTEM.DIHEDRAL>
0

>  <SCORE.SYSTEM.SOLV>
0

>  <SCORE.SYSTEM.norm>
0

>  <SCORE.heavy>
11

>  <SCORE.norm>
-1.43315

>  <RMSD>
2.889

$$$$
ligand
 OpenBabel11021811483D
libRbt.so/2013.1/901 2013/11/27
 11 12  0  0  0  0  0  0  0  0999 V2000
   36.6160   -8.5799  -37.8511 N   0  0  0  0  0  0  0  0  0  0  0  0
   35.5006   -9.1883  -38.2811 C   0  0  0  0  0  0  0  0  0  0  0  0
   34.5953   -8.4690  -39.1197 N   0  0  0  0  0  0  0  0  0  0  0  0
   35.2211  -10.4510  -37.9410 N   0  0  0  0  0  0  0  0  0  0  0  0
   36.0827  -11.1640  -37.1303 C   0  0  0  0  0  0  0  0  0  0  0  0
   37.2259  -10.5566  -36.6804 C   0  0  0  0  0  0  0  0  0  0  0  0
   37.5095   -9.2031  -37.0566 C   0  0  0  0  0  0  0  0  0  0  0  0
   38.9769   -8.3802  -36.5067 S   0  0  0  0  0  0  0  0  0  0  0  0
   37.8994  -11.4643  -35.9035 N   0  0  0  0  0  0  0  0  0  0  0  0
   37.1794  -12.6161  -35.8746 C   0  0  0  0  0  0  0  0  0  0  0  0
   36.0542  -12.4519  -36.6259 N   0  0  0  0  0  0  0  0  0  0  0  0
  1  2  2  0  0  0  0
  1  7  1  0  0  0  0
  2  3  1  0  0  0  0
  2  4  1  0  0  0  0
  4  5  2  0  0  0  0
  5  6  1  0  0  0  0
  5 11  1  0  0  0  0
  6  7  2  0  0  0  0
  6  9  1  0  0  0  0
  7  8  1  0  0  0  0
  9 10  1  0  0  0  0
 10 11  2  0  0  0  0
M  END
>  <CHROM.1>
36.89397979,-9.99411011,-37.11128763,1.48359828,-0.51122423,-0.38510952

>  <Name>
ligand

>  <RI>
0

>  <Rbt.Current_Directory>
/home/itssahil/PROJECTS/Mol_Feturizer/New_Systems/rnas/3RKF

>  <Rbt.Executable>
rbdock ($Id: //depot/dev/client3/rdock/2013.1/src/exe/rbdock.cxx#4 $)

>  <Rbt.Library>
libRbt.so (2013.1, Build901 2013/11/27)

>  <Rbt.Parameter_File>
/export/apps/rDock/src/rDock_2013.1_src/data/scripts/dock_solv.prm

>  <Rbt.Receptor>
prm/pocket_docking_7.prm

>  <SCORE>
-15.7773

>  <SCORE.INTER>
-15.7773

>  <SCORE.INTER.CONST>
1

>  <SCORE.INTER.POLAR>
0

>  <SCORE.INTER.ROT>
0

>  <SCORE.INTER.SOLV>
9.58355

>  <SCORE.INTER.VDW>
-17.3127

>  <SCORE.INTER.norm>
-1.4343

>  <SCORE.INTRA>
0

>  <SCORE.INTRA.DIHEDRAL>
0

>  <SCORE.INTRA.DIHEDRAL.0>
0

>  <SCORE.INTRA.POLAR>
0

>  <SCORE.INTRA.POLAR.0>
0

>  <SCORE.INTRA.REPUL>
0

>  <SCORE.INTRA.REPUL.0>
0

>  <SCORE.INTRA.SOLV>
0

>  <SCORE.INTRA.SOLV.lig_0>
-28.6198

>  <SCORE.INTRA.VDW>
0

>  <SCORE.INTRA.VDW.0>
0

>  <SCORE.INTRA.norm>
0

>  <SCORE.RESTR>
0

>  <SCORE.RESTR.CAVITY>
0

>  <SCORE.RESTR.norm>
0

>  <SCORE.SYSTEM>
0

>  <SCORE.SYSTEM.CONST>
0

>  <SCORE.SYSTEM.DIHEDRAL>
0

>  <SCORE.SYSTEM.SOLV>
0

>  <SCORE.SYSTEM.norm>
0

>  <SCORE.heavy>
11

>  <SCORE.norm>
-1.4343

>  <RMSD>
2.889

$$$$
ligand
 OpenBabel11021811483D
libRbt.so/2013.1/901 2013/11/27
 11 12  0  0  0  0  0  0  0  0999 V2000
   36.6277   -8.5928  -37.8397 N   0  0  0  0  0  0  0  0  0  0  0  0
   35.4963   -9.1840  -38.2516 C   0  0  0  0  0  0  0  0  0  0  0  0
   34.5859   -8.4486  -39.0705 N   0  0  0  0  0  0  0  0  0  0  0  0
   35.2057  -10.4442  -37.9116 N   0  0  0  0  0  0  0  0  0  0  0  0
   36.0720  -11.1725  -37.1197 C   0  0  0  0  0  0  0  0  0  0  0  0
   37.2315  -10.5829  -36.6884 C   0  0  0  0  0  0  0  0  0  0  0  0
   37.5269   -9.2318  -37.0642 C   0  0  0  0  0  0  0  0  0  0  0  0
   39.0153   -8.4315  -36.5380 S   0  0  0  0  0  0  0  0  0  0  0  0
   37.9065  -11.5031  -35.9278 N   0  0  0  0  0  0  0  0  0  0  0  0
   37.1713  -12.6450  -35.8903 C   0  0  0  0  0  0  0  0  0  0  0  0
   36.0349  -12.4621  -36.6201 N   0  0  0  0  0  0  0  0  0  0  0  0
  1  2  2  0  0  0  0
  1  7  1  0  0  0  0
  2  3  1  0  0  0  0
  2  4  1  0  0  0  0
  4  5  2  0  0  0  0
  5  6  1  0  0  0  0
  5 11  1  0  0  0  0
  6  7  2  0  0  0  0
  6  9  1  0  0  0  0
  7  8  1  0  0  0  0
  9 10  1  0  0  0  0
 10 11  2  0  0  0  0
M  END
>  <CHROM.1>
36.89960677,-10.01396125,-37.11083905,1.47684849,-0.48905526,-0.38413538

>  <Name>
ligand

>  <RI>
0

>  <Rbt.Current_Directory>
/home/itssahil/PROJECTS/Mol_Feturizer/New_Systems/rnas/3RKF

>  <Rbt.Executable>
rbdock ($Id: //depot/dev/client3/rdock/2013.1/src/exe/rbdock.cxx#4 $)

>  <Rbt.Library>
libRbt.so (2013.1, Build901 2013/11/27)

>  <Rbt.Parameter_File>
/export/apps/rDock/src/rDock_2013.1_src/data/scripts/dock_solv.prm

>  <Rbt.Receptor>
prm/pocket_docking_8.prm

>  <SCORE>
-15.7956

>  <SCORE.INTER>
-15.7956

>  <SCORE.INTER.CONST>
1

>  <SCORE.INTER.POLAR>
0

>  <SCORE.INTER.ROT>
0

>  <SCORE.INTER.SOLV>
9.43938

>  <SCORE.INTER.VDW>
-17.2769

>  <SCORE.INTER.norm>
-1.43596

>  <SCORE.INTRA>
0

>  <SCORE.INTRA.DIHEDRAL>
0

>  <SCORE.INTRA.DIHEDRAL.0>
0

>  <SCORE.INTRA.POLAR>
0

>  <SCORE.INTRA.POLAR.0>
0

>  <SCORE.INTRA.REPUL>
0

>  <SCORE.INTRA.REPUL.0>
0

>  <SCORE.INTRA.SOLV>
0

>  <SCORE.INTRA.SOLV.lig_0>
-28.6198

>  <SCORE.INTRA.VDW>
0

>  <SCORE.INTRA.VDW.0>
0

>  <SCORE.INTRA.norm>
0

>  <SCORE.RESTR>
0

>  <SCORE.RESTR.CAVITY>
0

>  <SCORE.RESTR.norm>
0

>  <SCORE.SYSTEM>
0

>  <SCORE.SYSTEM.CONST>
0

>  <SCORE.SYSTEM.DIHEDRAL>
0

>  <SCORE.SYSTEM.SOLV>
0

>  <SCORE.SYSTEM.norm>
0

>  <SCORE.heavy>
11

>  <SCORE.norm>
-1.43596

>  <RMSD>
2.889

$$$$
ligand
 OpenBabel11021811483D
libRbt.so/2013.1/901 2013/11/27
 11 12  0  0  0  0  0  0  0  0999 V2000
   36.6748   -8.5417  -37.8398 N   0  0  0  0  0  0  0  0  0  0  0  0
   35.5525   -9.1434  -38.2616 C   0  0  0  0  0  0  0  0  0  0  0  0
   34.6801   -8.4434  -39.1500 N   0  0  0  0  0  0  0  0  0  0  0  0
   35.2363  -10.3815  -37.8678 N   0  0  0  0  0  0  0  0  0  0  0  0
   36.0657  -11.0754  -37.0083 C   0  0  0  0  0  0  0  0  0  0  0  0
   37.2153  -10.4745  -36.5661 C   0  0  0  0  0  0  0  0  0  0  0  0
   37.5385   -9.1475  -37.0002 C   0  0  0  0  0  0  0  0  0  0  0  0
   39.0157   -8.3342  -36.4622 S   0  0  0  0  0  0  0  0  0  0  0  0
   37.8525  -11.3599  -35.7349 N   0  0  0  0  0  0  0  0  0  0  0  0
   37.1041  -12.4917  -35.6653 C   0  0  0  0  0  0  0  0  0  0  0  0
   35.9968  -12.3368  -36.4445 N   0  0  0  0  0  0  0  0  0  0  0  0
  1  2  2  0  0  0  0
  1  7  1  0  0  0  0
  2  3  1  0  0  0  0
  2  4  1  0  0  0  0
  4  5  2  0  0  0  0
  5  6  1  0  0  0  0
  5 11  1  0  0  0  0
  6  7  2  0  0  0  0
  6  9  1  0  0  0  0
  7  8  1  0  0  0  0
  9 10  1  0  0  0  0
 10 11  2  0  0  0  0
M  END
>  <CHROM.1>
36.90491617,-9.92537470,-37.02916860,1.44982497,-0.51813600,-0.44903926

>  <Name>
ligand

>  <RI>
0

>  <Rbt.Current_Directory>
/home/itssahil/PROJECTS/Mol_Feturizer/New_Systems/rnas/3RKF

>  <Rbt.Executable>
rbdock ($Id: //depot/dev/client3/rdock/2013.1/src/exe/rbdock.cxx#4 $)

>  <Rbt.Library>
libRbt.so (2013.1, Build901 2013/11/27)

>  <Rbt.Parameter_File>
/export/apps/rDock/src/rDock_2013.1_src/data/scripts/dock_solv.prm

>  <Rbt.Receptor>
prm/blind_docking_80.prm

>  <SCORE>
-15.6865

>  <SCORE.INTER>
-15.6865

>  <SCORE.INTER.CONST>
1

>  <SCORE.INTER.POLAR>
0

>  <SCORE.INTER.ROT>
0

>  <SCORE.INTER.SOLV>
9.94726

>  <SCORE.INTER.VDW>
-17.3734

>  <SCORE.INTER.norm>
-1.42604

>  <SCORE.INTRA>
0

>  <SCORE.INTRA.DIHEDRAL>
0

>  <SCORE.INTRA.DIHEDRAL.0>
0

>  <SCORE.INTRA.POLAR>
0

>  <SCORE.INTRA.POLAR.0>
0

>  <SCORE.INTRA.REPUL>
0

>  <SCORE.INTRA.REPUL.0>
0

>  <SCORE.INTRA.SOLV>
0

>  <SCORE.INTRA.SOLV.lig_0>
-28.6198

>  <SCORE.INTRA.VDW>
0

>  <SCORE.INTRA.VDW.0>
0

>  <SCORE.INTRA.norm>
0

>  <SCORE.RESTR>
0

>  <SCORE.RESTR.CAVITY>
0

>  <SCORE.RESTR.norm>
0

>  <SCORE.SYSTEM>
0

>  <SCORE.SYSTEM.CONST>
0

>  <SCORE.SYSTEM.DIHEDRAL>
0

>  <SCORE.SYSTEM.SOLV>
0

>  <SCORE.SYSTEM.norm>
0

>  <SCORE.heavy>
11

>  <SCORE.norm>
-1.42604

>  <RMSD>
2.890

$$$$
ligand
 OpenBabel11021811483D
libRbt.so/2013.1/901 2013/11/27
 11 12  0  0  0  0  0  0  0  0999 V2000
   36.6197   -8.6109  -37.8562 N   0  0  0  0  0  0  0  0  0  0  0  0
   35.4952   -9.2079  -38.2788 C   0  0  0  0  0  0  0  0  0  0  0  0
   34.5992   -8.4843  -39.1237 N   0  0  0  0  0  0  0  0  0  0  0  0
   35.1984  -10.4629  -37.9256 N   0  0  0  0  0  0  0  0  0  0  0  0
   36.0508  -11.1798  -37.1086 C   0  0  0  0  0  0  0  0  0  0  0  0
   37.2030  -10.5841  -36.6661 C   0  0  0  0  0  0  0  0  0  0  0  0
   37.5052   -9.2387  -37.0563 C   0  0  0  0  0  0  0  0  0  0  0  0
   38.9848   -8.4310  -36.5164 S   0  0  0  0  0  0  0  0  0  0  0  0
   37.8645  -11.4933  -35.8808 N   0  0  0  0  0  0  0  0  0  0  0  0
   37.1283  -12.6344  -35.8393 C   0  0  0  0  0  0  0  0  0  0  0  0
   36.0047  -12.4620  -36.5911 N   0  0  0  0  0  0  0  0  0  0  0  0
  1  2  2  0  0  0  0
  1  7  1  0  0  0  0
  2  3  1  0  0  0  0
  2  4  1  0  0  0  0
  4  5  2  0  0  0  0
  5  6  1  0  0  0  0
  5 11  1  0  0  0  0
  6  7  2  0  0  0  0
  6  9  1  0  0  0  0
  7  8  1  0  0  0  0
  9 10  1  0  0  0  0
 10 11  2  0  0  0  0
M  END
>  <CHROM.1>
36.87854587,-10.02135352,-37.10233959,1.46914911,-0.50474038,-0.40229222

>  <Name>
ligand

>  <RI>
0

>  <Rbt.Current_Directory>
/home/itssahil/PROJECTS/Mol_Feturizer/New_Systems/rnas/3RKF

>  <Rbt.Executable>
rbdock ($Id: //depot/dev/client3/rdock/2013.1/src/exe/rbdock.cxx#4 $)

>  <Rbt.Library>
libRbt.so (2013.1, Build901 2013/11/27)

>  <Rbt.Parameter_File>
/export/apps/rDock/src/rDock_2013.1_src/data/scripts/dock_solv.prm

>  <Rbt.Receptor>
prm/pocket_docking_3.prm

>  <SCORE>
-15.7483

>  <SCORE.INTER>
-15.7483

>  <SCORE.INTER.CONST>
1

>  <SCORE.INTER.POLAR>
0

>  <SCORE.INTER.ROT>
0

>  <SCORE.INTER.SOLV>
9.64173

>  <SCORE.INTER.VDW>
-17.3128

>  <SCORE.INTER.norm>
-1.43166

>  <SCORE.INTRA>
0

>  <SCORE.INTRA.DIHEDRAL>
0

>  <SCORE.INTRA.DIHEDRAL.0>
0

>  <SCORE.INTRA.POLAR>
0

>  <SCORE.INTRA.POLAR.0>
0

>  <SCORE.INTRA.REPUL>
0

>  <SCORE.INTRA.REPUL.0>
0

>  <SCORE.INTRA.SOLV>
0

>  <SCORE.INTRA.SOLV.lig_0>
-28.6198

>  <SCORE.INTRA.VDW>
0

>  <SCORE.INTRA.VDW.0>
0

>  <SCORE.INTRA.norm>
0

>  <SCORE.RESTR>
0

>  <SCORE.RESTR.CAVITY>
0

>  <SCORE.RESTR.norm>
0

>  <SCORE.SYSTEM>
0

>  <SCORE.SYSTEM.CONST>
0

>  <SCORE.SYSTEM.DIHEDRAL>
0

>  <SCORE.SYSTEM.SOLV>
0

>  <SCORE.SYSTEM.norm>
0

>  <SCORE.heavy>
11

>  <SCORE.norm>
-1.43166

>  <RMSD>
2.890

$$$$
ligand
 OpenBabel11021811483D
libRbt.so/2013.1/901 2013/11/27
 11 12  0  0  0  0  0  0  0  0999 V2000
   36.6042   -8.5756  -37.8416 N   0  0  0  0  0  0  0  0  0  0  0  0
   35.4757   -9.1764  -38.2479 C   0  0  0  0  0  0  0  0  0  0  0  0
   34.5656   -8.4562  -39.0805 N   0  0  0  0  0  0  0  0  0  0  0  0
   35.1879  -10.4321  -37.8897 N   0  0  0  0  0  0  0  0  0  0  0  0
   36.0540  -11.1458  -37.0844 C   0  0  0  0  0  0  0  0  0  0  0  0
   37.2104  -10.5462  -36.6586 C   0  0  0  0  0  0  0  0  0  0  0  0
   37.5029   -9.2001  -37.0539 C   0  0  0  0  0  0  0  0  0  0  0  0
   38.9874   -8.3874  -36.5355 S   0  0  0  0  0  0  0  0  0  0  0  0
   37.8858  -11.4527  -35.8821 N   0  0  0  0  0  0  0  0  0  0  0  0
   37.1539  -12.5962  -35.8296 C   0  0  0  0  0  0  0  0  0  0  0  0
   36.0193  -12.4278  -36.5654 N   0  0  0  0  0  0  0  0  0  0  0  0
  1  2  2  0  0  0  0
  1  7  1  0  0  0  0
  2  3  1  0  0  0  0
  2  4  1  0  0  0  0
  4  5  2  0  0  0  0
  5  6  1  0  0  0  0
  5 11  1  0  0  0  0
  6  7  2  0  0  0  0
  6  9  1  0  0  0  0
  7  8  1  0  0  0  0
  9 10  1  0  0  0  0
 10 11  2  0  0  0  0
M  END
>  <CHROM.1>
36.87808733,-9.98474693,-37.09059763,1.47871464,-0.49295789,-0.39838410

>  <Name>
ligand

>  <RI>
0

>  <Rbt.Current_Directory>
/home/itssahil/PROJECTS/Mol_Feturizer/New_Systems/rnas/3RKF

>  <Rbt.Executable>
rbdock ($Id: //depot/dev/client3/rdock/2013.1/src/exe/rbdock.cxx#4 $)

>  <Rbt.Library>
libRbt.so (2013.1, Build901 2013/11/27)

>  <Rbt.Parameter_File>
/export/apps/rDock/src/rDock_2013.1_src/data/scripts/dock_solv.prm

>  <Rbt.Receptor>
prm/pocket_docking_4.prm

>  <SCORE>
-15.7552

>  <SCORE.INTER>
-15.7552

>  <SCORE.INTER.CONST>
1

>  <SCORE.INTER.POLAR>
0

>  <SCORE.INTER.ROT>
0

>  <SCORE.INTER.SOLV>
9.43724

>  <SCORE.INTER.VDW>
-17.2492

>  <SCORE.INTER.norm>
-1.43229

>  <SCORE.INTRA>
0

>  <SCORE.INTRA.DIHEDRAL>
0

>  <SCORE.INTRA.DIHEDRAL.0>
0

>  <SCORE.INTRA.POLAR>
0

>  <SCORE.INTRA.POLAR.0>
0

>  <SCORE.INTRA.REPUL>
0

>  <SCORE.INTRA.REPUL.0>
0

>  <SCORE.INTRA.SOLV>
0

>  <SCORE.INTRA.SOLV.lig_0>
-28.6198

>  <SCORE.INTRA.VDW>
0

>  <SCORE.INTRA.VDW.0>
0

>  <SCORE.INTRA.norm>
0

>  <SCORE.RESTR>
0

>  <SCORE.RESTR.CAVITY>
0

>  <SCORE.RESTR.norm>
0

>  <SCORE.SYSTEM>
0

>  <SCORE.SYSTEM.CONST>
0

>  <SCORE.SYSTEM.DIHEDRAL>
0

>  <SCORE.SYSTEM.SOLV>
0

>  <SCORE.SYSTEM.norm>
0

>  <SCORE.heavy>
11

>  <SCORE.norm>
-1.43229

>  <RMSD>
2.890

$$$$
ligand
 OpenBabel11021811483D
libRbt.so/2013.1/901 2013/11/27
 11 12  0  0  0  0  0  0  0  0999 V2000
   36.5961   -8.5712  -37.8383 N   0  0  0  0  0  0  0  0  0  0  0  0
   35.4696   -9.1732  -38.2479 C   0  0  0  0  0  0  0  0  0  0  0  0
   34.5601   -8.4533  -39.0815 N   0  0  0  0  0  0  0  0  0  0  0  0
   35.1830  -10.4299  -37.8922 N   0  0  0  0  0  0  0  0  0  0  0  0
   36.0485  -11.1433  -37.0859 C   0  0  0  0  0  0  0  0  0  0  0  0
   37.2030  -10.5424  -36.6568 C   0  0  0  0  0  0  0  0  0  0  0  0
   37.4941   -9.1953  -37.0495 C   0  0  0  0  0  0  0  0  0  0  0  0
   38.9762   -8.3809  -36.5267 S   0  0  0  0  0  0  0  0  0  0  0  0
   37.8782  -11.4490  -35.8801 N   0  0  0  0  0  0  0  0  0  0  0  0
   37.1480  -12.5937  -35.8308 C   0  0  0  0  0  0  0  0  0  0  0  0
   36.0147  -12.4261  -36.5689 N   0  0  0  0  0  0  0  0  0  0  0  0
  1  2  2  0  0  0  0
  1  7  1  0  0  0  0
  2  3  1  0  0  0  0
  2  4  1  0  0  0  0
  4  5  2  0  0  0  0
  5  6  1  0  0  0  0
  5 11  1  0  0  0  0
  6  7  2  0  0  0  0
  6  9  1  0  0  0  0
  7  8  1  0  0  0  0
  9 10  1  0  0  0  0
 10 11  2  0  0  0  0
M  END
>  <CHROM.1>
36.87070255,-9.98091127,-37.08867075,1.47945717,-0.49559994,-0.39659147

>  <Name>
ligand

>  <RI>
0

>  <Rbt.Current_Directory>
/home/itssahil/PROJECTS/Mol_Feturizer/New_Systems/rnas/3RKF

>  <Rbt.Executable>
rbdock ($Id: //depot/dev/client3/rdock/2013.1/src/exe/rbdock.cxx#4 $)

>  <Rbt.Library>
libRbt.so (2013.1, Build901 2013/11/27)

>  <Rbt.Parameter_File>
/export/apps/rDock/src/rDock_2013.1_src/data/scripts/dock_solv.prm

>  <Rbt.Receptor>
prm/pocket_docking_4.prm

>  <SCORE>
-15.7562

>  <SCORE.INTER>
-15.7562

>  <SCORE.INTER.CONST>
1

>  <SCORE.INTER.POLAR>
0

>  <SCORE.INTER.ROT>
0

>  <SCORE.INTER.SOLV>
9.41918

>  <SCORE.INTER.VDW>
-17.2439

>  <SCORE.INTER.norm>
-1.43239

>  <SCORE.INTRA>
0

>  <SCORE.INTRA.DIHEDRAL>
0

>  <SCORE.INTRA.DIHEDRAL.0>
0

>  <SCORE.INTRA.POLAR>
0

>  <SCORE.INTRA.POLAR.0>
0

>  <SCORE.INTRA.REPUL>
0

>  <SCORE.INTRA.REPUL.0>
0

>  <SCORE.INTRA.SOLV>
0

>  <SCORE.INTRA.SOLV.lig_0>
-28.6198

>  <SCORE.INTRA.VDW>
0

>  <SCORE.INTRA.VDW.0>
0

>  <SCORE.INTRA.norm>
0

>  <SCORE.RESTR>
0

>  <SCORE.RESTR.CAVITY>
0

>  <SCORE.RESTR.norm>
0

>  <SCORE.SYSTEM>
0

>  <SCORE.SYSTEM.CONST>
0

>  <SCORE.SYSTEM.DIHEDRAL>
0

>  <SCORE.SYSTEM.SOLV>
0

>  <SCORE.SYSTEM.norm>
0

>  <SCORE.heavy>
11

>  <SCORE.norm>
-1.43239

>  <RMSD>
2.890

$$$$
ligand
 OpenBabel11021811483D
libRbt.so/2013.1/901 2013/11/27
 11 12  0  0  0  0  0  0  0  0999 V2000
   36.6543   -8.6203  -37.9211 N   0  0  0  0  0  0  0  0  0  0  0  0
   35.5457   -9.2368  -38.3575 C   0  0  0  0  0  0  0  0  0  0  0  0
   34.6642   -8.5402  -39.2396 N   0  0  0  0  0  0  0  0  0  0  0  0
   35.2514  -10.4866  -37.9840 N   0  0  0  0  0  0  0  0  0  0  0  0
   36.0899  -11.1775  -37.1311 C   0  0  0  0  0  0  0  0  0  0  0  0
   37.2257  -10.5616  -36.6741 C   0  0  0  0  0  0  0  0  0  0  0  0
   37.5255   -9.2222  -37.0864 C   0  0  0  0  0  0  0  0  0  0  0  0
   38.9843   -8.3892  -36.5288 S   0  0  0  0  0  0  0  0  0  0  0  0
   37.8758  -11.4472  -35.8531 N   0  0  0  0  0  0  0  0  0  0  0  0
   37.1489  -12.5940  -35.8044 C   0  0  0  0  0  0  0  0  0  0  0  0
   36.0425  -12.4485  -36.5867 N   0  0  0  0  0  0  0  0  0  0  0  0
  1  2  2  0  0  0  0
  1  7  1  0  0  0  0
  2  3  1  0  0  0  0
  2  4  1  0  0  0  0
  4  5  2  0  0  0  0
  5  6  1  0  0  0  0
  5 11  1  0  0  0  0
  6  7  2  0  0  0  0
  6  9  1  0  0  0  0
  7  8  1  0  0  0  0
  9 10  1  0  0  0  0
 10 11  2  0  0  0  0
M  END
>  <CHROM.1>
36.90703973,-10.01151868,-37.13030421,1.46746070,-0.53063060,-0.42505114

>  <Name>
ligand

>  <RI>
0

>  <Rbt.Current_Directory>
/home/itssahil/PROJECTS/Mol_Feturizer/New_Systems/rnas/3RKF

>  <Rbt.Executable>
rbdock ($Id: //depot/dev/client3/rdock/2013.1/src/exe/rbdock.cxx#4 $)

>  <Rbt.Library>
libRbt.so (2013.1, Build901 2013/11/27)

>  <Rbt.Parameter_File>
/export/apps/rDock/src/rDock_2013.1_src/data/scripts/dock_solv.prm

>  <Rbt.Receptor>
prm/pocket_docking_5.prm

>  <SCORE>
-15.707

>  <SCORE.INTER>
-15.707

>  <SCORE.INTER.CONST>
1

>  <SCORE.INTER.POLAR>
0

>  <SCORE.INTER.ROT>
0

>  <SCORE.INTER.SOLV>
10.2988

>  <SCORE.INTER.VDW>
-17.5043

>  <SCORE.INTER.norm>
-1.42791

>  <SCORE.INTRA>
0

>  <SCORE.INTRA.DIHEDRAL>
0

>  <SCORE.INTRA.DIHEDRAL.0>
0

>  <SCORE.INTRA.POLAR>
0

>  <SCORE.INTRA.POLAR.0>
0

>  <SCORE.INTRA.REPUL>
0

>  <SCORE.INTRA.REPUL.0>
0

>  <SCORE.INTRA.SOLV>
0

>  <SCORE.INTRA.SOLV.lig_0>
-28.6198

>  <SCORE.INTRA.VDW>
0

>  <SCORE.INTRA.VDW.0>
0

>  <SCORE.INTRA.norm>
0

>  <SCORE.RESTR>
0

>  <SCORE.RESTR.CAVITY>
0

>  <SCORE.RESTR.norm>
0

>  <SCORE.SYSTEM>
0

>  <SCORE.SYSTEM.CONST>
0

>  <SCORE.SYSTEM.DIHEDRAL>
0

>  <SCORE.SYSTEM.SOLV>
0

>  <SCORE.SYSTEM.norm>
0

>  <SCORE.heavy>
11

>  <SCORE.norm>
-1.42791

>  <RMSD>
2.890

$$$$
ligand
 OpenBabel11021811483D
libRbt.so/2013.1/901 2013/11/27
 11 12  0  0  0  0  0  0  0  0999 V2000
   36.6355   -8.6040  -37.8607 N   0  0  0  0  0  0  0  0  0  0  0  0
   35.5153   -9.2049  -38.2890 C   0  0  0  0  0  0  0  0  0  0  0  0
   34.6218   -8.4852  -39.1398 N   0  0  0  0  0  0  0  0  0  0  0  0
   35.2204  -10.4605  -37.9358 N   0  0  0  0  0  0  0  0  0  0  0  0
   36.0703  -11.1737  -37.1131 C   0  0  0  0  0  0  0  0  0  0  0  0
   37.2182  -10.5739  -36.6649 C   0  0  0  0  0  0  0  0  0  0  0  0
   37.5184   -9.2280  -37.0551 C   0  0  0  0  0  0  0  0  0  0  0  0
   38.9924   -8.4151  -36.5078 S   0  0  0  0  0  0  0  0  0  0  0  0
   37.8781  -11.4800  -35.8747 N   0  0  0  0  0  0  0  0  0  0  0  0
   37.1452  -12.6234  -35.8360 C   0  0  0  0  0  0  0  0  0  0  0  0
   36.0253  -12.4554  -36.5942 N   0  0  0  0  0  0  0  0  0  0  0  0
  1  2  2  0  0  0  0
  1  7  1  0  0  0  0
  2  3  1  0  0  0  0
  2  4  1  0  0  0  0
  4  5  2  0  0  0  0
  5  6  1  0  0  0  0
  5 11  1  0  0  0  0
  6  7  2  0  0  0  0
  6  9  1  0  0  0  0
  7  8  1  0  0  0  0
  9 10  1  0  0  0  0
 10 11  2  0  0  0  0
M  END
>  <CHROM.1>
36.89445268,-10.01266388,-37.10364498,1.46987547,-0.51116293,-0.40319547

>  <Name>
ligand

>  <RI>
0

>  <Rbt.Current_Directory>
/home/itssahil/PROJECTS/Mol_Feturizer/New_Systems/rnas/3RKF

>  <Rbt.Executable>
rbdock ($Id: //depot/dev/client3/rdock/2013.1/src/exe/rbdock.cxx#4 $)

>  <Rbt.Library>
libRbt.so (2013.1, Build901 2013/11/27)

>  <Rbt.Parameter_File>
/export/apps/rDock/src/rDock_2013.1_src/data/scripts/dock_solv.prm

>  <Rbt.Receptor>
prm/pocket_docking_5.prm

>  <SCORE>
-15.7537

>  <SCORE.INTER>
-15.7537

>  <SCORE.INTER.CONST>
1

>  <SCORE.INTER.POLAR>
0

>  <SCORE.INTER.ROT>
0

>  <SCORE.INTER.SOLV>
9.7416

>  <SCORE.INTER.VDW>
-17.3497

>  <SCORE.INTER.norm>
-1.43216

>  <SCORE.INTRA>
0

>  <SCORE.INTRA.DIHEDRAL>
0

>  <SCORE.INTRA.DIHEDRAL.0>
0

>  <SCORE.INTRA.POLAR>
0

>  <SCORE.INTRA.POLAR.0>
0

>  <SCORE.INTRA.REPUL>
0

>  <SCORE.INTRA.REPUL.0>
0

>  <SCORE.INTRA.SOLV>
0

>  <SCORE.INTRA.SOLV.lig_0>
-28.6198

>  <SCORE.INTRA.VDW>
0

>  <SCORE.INTRA.VDW.0>
0

>  <SCORE.INTRA.norm>
0

>  <SCORE.RESTR>
0

>  <SCORE.RESTR.CAVITY>
0

>  <SCORE.RESTR.norm>
0

>  <SCORE.SYSTEM>
0

>  <SCORE.SYSTEM.CONST>
0

>  <SCORE.SYSTEM.DIHEDRAL>
0

>  <SCORE.SYSTEM.SOLV>
0

>  <SCORE.SYSTEM.norm>
0

>  <SCORE.heavy>
11

>  <SCORE.norm>
-1.43216

>  <RMSD>
2.890

$$$$
ligand
 OpenBabel11021811483D
libRbt.so/2013.1/901 2013/11/27
 11 12  0  0  0  0  0  0  0  0999 V2000
   36.6110   -8.5750  -37.8708 N   0  0  0  0  0  0  0  0  0  0  0  0
   35.4869   -9.1812  -38.2813 C   0  0  0  0  0  0  0  0  0  0  0  0
   34.5926   -8.4771  -39.1442 N   0  0  0  0  0  0  0  0  0  0  0  0
   35.1889  -10.4275  -37.8994 N   0  0  0  0  0  0  0  0  0  0  0  0
   36.0396  -11.1256  -37.0645 C   0  0  0  0  0  0  0  0  0  0  0  0
   37.1914  -10.5203  -36.6342 C   0  0  0  0  0  0  0  0  0  0  0  0
   37.4949   -9.1844  -37.0551 C   0  0  0  0  0  0  0  0  0  0  0  0
   38.9740   -8.3650  -36.5317 S   0  0  0  0  0  0  0  0  0  0  0  0
   37.8512  -11.4112  -35.8268 N   0  0  0  0  0  0  0  0  0  0  0  0
   37.1145  -12.5507  -35.7600 C   0  0  0  0  0  0  0  0  0  0  0  0
   35.9921  -12.3954  -36.5173 N   0  0  0  0  0  0  0  0  0  0  0  0
  1  2  2  0  0  0  0
  1  7  1  0  0  0  0
  2  3  1  0  0  0  0
  2  4  1  0  0  0  0
  4  5  2  0  0  0  0
  5  6  1  0  0  0  0
  5 11  1  0  0  0  0
  6  7  2  0  0  0  0
  6  9  1  0  0  0  0
  7  8  1  0  0  0  0
  9 10  1  0  0  0  0
 10 11  2  0  0  0  0
M  END
>  <CHROM.1>
36.86795117,-9.96765972,-37.08389701,1.46792444,-0.50604517,-0.42617231

>  <Name>
ligand

>  <RI>
0

>  <Rbt.Current_Directory>
/home/itssahil/PROJECTS/Mol_Feturizer/New_Systems/rnas/3RKF

>  <Rbt.Executable>
rbdock ($Id: //depot/dev/client3/rdock/2013.1/src/exe/rbdock.cxx#4 $)

>  <Rbt.Library>
libRbt.so (2013.1, Build901 2013/11/27)

>  <Rbt.Parameter_File>
/export/apps/rDock/src/rDock_2013.1_src/data/scripts/dock_solv.prm

>  <Rbt.Receptor>
prm/pocket_docking_5.prm

>  <SCORE>
-15.7293

>  <SCORE.INTER>
-15.7293

>  <SCORE.INTER.CONST>
1

>  <SCORE.INTER.POLAR>
0

>  <SCORE.INTER.ROT>
0

>  <SCORE.INTER.SOLV>
9.69327

>  <SCORE.INTER.VDW>
-17.3173

>  <SCORE.INTER.norm>
-1.42994

>  <SCORE.INTRA>
0

>  <SCORE.INTRA.DIHEDRAL>
0

>  <SCORE.INTRA.DIHEDRAL.0>
0

>  <SCORE.INTRA.POLAR>
0

>  <SCORE.INTRA.POLAR.0>
0

>  <SCORE.INTRA.REPUL>
0

>  <SCORE.INTRA.REPUL.0>
0

>  <SCORE.INTRA.SOLV>
0

>  <SCORE.INTRA.SOLV.lig_0>
-28.6198

>  <SCORE.INTRA.VDW>
0

>  <SCORE.INTRA.VDW.0>
0

>  <SCORE.INTRA.norm>
0

>  <SCORE.RESTR>
5.8297e-05

>  <SCORE.RESTR.CAVITY>
5.8297e-05

>  <SCORE.RESTR.norm>
5.29973e-06

>  <SCORE.SYSTEM>
0

>  <SCORE.SYSTEM.CONST>
0

>  <SCORE.SYSTEM.DIHEDRAL>
0

>  <SCORE.SYSTEM.SOLV>
0

>  <SCORE.SYSTEM.norm>
0

>  <SCORE.heavy>
11

>  <SCORE.norm>
-1.42993

>  <RMSD>
2.890

$$$$
ligand
 OpenBabel11021811483D
libRbt.so/2013.1/901 2013/11/27
 11 12  0  0  0  0  0  0  0  0999 V2000
   36.6203   -8.5966  -37.8302 N   0  0  0  0  0  0  0  0  0  0  0  0
   35.4942   -9.1925  -38.2496 C   0  0  0  0  0  0  0  0  0  0  0  0
   34.5846   -8.4600  -39.0721 N   0  0  0  0  0  0  0  0  0  0  0  0
   35.2080  -10.4548  -37.9138 N   0  0  0  0  0  0  0  0  0  0  0  0
   36.0735  -11.1804  -37.1186 C   0  0  0  0  0  0  0  0  0  0  0  0
   37.2277  -10.5859  -36.6797 C   0  0  0  0  0  0  0  0  0  0  0  0
   37.5183   -9.2326  -37.0511 C   0  0  0  0  0  0  0  0  0  0  0  0
   38.9999   -8.4260  -36.5150 S   0  0  0  0  0  0  0  0  0  0  0  0
   37.9030  -11.5043  -35.9172 N   0  0  0  0  0  0  0  0  0  0  0  0
   37.1733  -12.6500  -35.8861 C   0  0  0  0  0  0  0  0  0  0  0  0
   36.0401  -12.4712  -36.6218 N   0  0  0  0  0  0  0  0  0  0  0  0
  1  2  2  0  0  0  0
  1  7  1  0  0  0  0
  2  3  1  0  0  0  0
  2  4  1  0  0  0  0
  4  5  2  0  0  0  0
  5  6  1  0  0  0  0
  5 11  1  0  0  0  0
  6  7  2  0  0  0  0
  6  9  1  0  0  0  0
  7  8  1  0  0  0  0
  9 10  1  0  0  0  0
 10 11  2  0  0  0  0
M  END
>  <CHROM.1>
36.89525223,-10.01782876,-37.10279922,1.47975486,-0.49604693,-0.38072084

>  <Name>
ligand

>  <RI>
0

>  <Rbt.Current_Directory>
/home/itssahil/PROJECTS/Mol_Feturizer/New_Systems/rnas/3RKF

>  <Rbt.Executable>
rbdock ($Id: //depot/dev/client3/rdock/2013.1/src/exe/rbdock.cxx#4 $)

>  <Rbt.Library>
libRbt.so (2013.1, Build901 2013/11/27)

>  <Rbt.Parameter_File>
/export/apps/rDock/src/rDock_2013.1_src/data/scripts/dock_solv.prm

>  <Rbt.Receptor>
prm/pocket_docking_6.prm

>  <SCORE>
-15.8116

>  <SCORE.INTER>
-15.8116

>  <SCORE.INTER.CONST>
1

>  <SCORE.INTER.POLAR>
0

>  <SCORE.INTER.ROT>
0

>  <SCORE.INTER.SOLV>
9.43728

>  <SCORE.INTER.VDW>
-17.2868

>  <SCORE.INTER.norm>
-1.43742

>  <SCORE.INTRA>
0

>  <SCORE.INTRA.DIHEDRAL>
0

>  <SCORE.INTRA.DIHEDRAL.0>
0

>  <SCORE.INTRA.POLAR>
0

>  <SCORE.INTRA.POLAR.0>
0

>  <SCORE.INTRA.REPUL>
0

>  <SCORE.INTRA.REPUL.0>
0

>  <SCORE.INTRA.SOLV>
0

>  <SCORE.INTRA.SOLV.lig_0>
-28.6198

>  <SCORE.INTRA.VDW>
0

>  <SCORE.INTRA.VDW.0>
0

>  <SCORE.INTRA.norm>
0

>  <SCORE.RESTR>
0

>  <SCORE.RESTR.CAVITY>
0

>  <SCORE.RESTR.norm>
0

>  <SCORE.SYSTEM>
0

>  <SCORE.SYSTEM.CONST>
0

>  <SCORE.SYSTEM.DIHEDRAL>
0

>  <SCORE.SYSTEM.SOLV>
0

>  <SCORE.SYSTEM.norm>
0

>  <SCORE.heavy>
11

>  <SCORE.norm>
-1.43742

>  <RMSD>
2.890

$$$$
ligand
 OpenBabel11021811483D
libRbt.so/2013.1/901 2013/11/27
 11 12  0  0  0  0  0  0  0  0999 V2000
   36.6327   -8.5912  -37.8429 N   0  0  0  0  0  0  0  0  0  0  0  0
   35.5126   -9.1937  -38.2692 C   0  0  0  0  0  0  0  0  0  0  0  0
   34.6078   -8.4692  -39.1039 N   0  0  0  0  0  0  0  0  0  0  0  0
   35.2281  -10.4552  -37.9289 N   0  0  0  0  0  0  0  0  0  0  0  0
   36.0891  -11.1731  -37.1219 C   0  0  0  0  0  0  0  0  0  0  0  0
   37.2370  -10.5718  -36.6759 C   0  0  0  0  0  0  0  0  0  0  0  0
   37.5260   -9.2195  -37.0522 C   0  0  0  0  0  0  0  0  0  0  0  0
   38.9995   -8.4043  -36.5073 S   0  0  0  0  0  0  0  0  0  0  0  0
   37.9089  -11.4834  -35.9022 N   0  0  0  0  0  0  0  0  0  0  0  0
   37.1832  -12.6316  -35.8713 C   0  0  0  0  0  0  0  0  0  0  0  0
   36.0561  -12.4612  -36.6182 N   0  0  0  0  0  0  0  0  0  0  0  0
  1  2  2  0  0  0  0
  1  7  1  0  0  0  0
  2  3  1  0  0  0  0
  2  4  1  0  0  0  0
  4  5  2  0  0  0  0
  5  6  1  0  0  0  0
  5 11  1  0  0  0  0
  6  7  2  0  0  0  0
  6  9  1  0  0  0  0
  7  8  1  0  0  0  0
  9 10  1  0  0  0  0
 10 11  2  0  0  0  0
M  END
>  <CHROM.1>
36.90633486,-10.00731407,-37.10512286,1.47989137,-0.50585385,-0.38622670

>  <Name>
ligand

>  <RI>
0

>  <Rbt.Current_Directory>
/home/itssahil/PROJECTS/Mol_Feturizer/New_Systems/rnas/3RKF

>  <Rbt.Executable>
rbdock ($Id: //depot/dev/client3/rdock/2013.1/src/exe/rbdock.cxx#4 $)

>  <Rbt.Library>
libRbt.so (2013.1, Build901 2013/11/27)

>  <Rbt.Parameter_File>
/export/apps/rDock/src/rDock_2013.1_src/data/scripts/dock_solv.prm

>  <Rbt.Receptor>
prm/pocket_docking_6.prm

>  <SCORE>
-15.7698

>  <SCORE.INTER>
-15.7698

>  <SCORE.INTER.CONST>
1

>  <SCORE.INTER.POLAR>
0

>  <SCORE.INTER.ROT>
0

>  <SCORE.INTER.SOLV>
9.58352

>  <SCORE.INTER.VDW>
-17.3077

>  <SCORE.INTER.norm>
-1.43362

>  <SCORE.INTRA>
0

>  <SCORE.INTRA.DIHEDRAL>
0

>  <SCORE.INTRA.DIHEDRAL.0>
0

>  <SCORE.INTRA.POLAR>
0

>  <SCORE.INTRA.POLAR.0>
0

>  <SCORE.INTRA.REPUL>
0

>  <SCORE.INTRA.REPUL.0>
0

>  <SCORE.INTRA.SOLV>
0

>  <SCORE.INTRA.SOLV.lig_0>
-28.6198

>  <SCORE.INTRA.VDW>
0

>  <SCORE.INTRA.VDW.0>
0

>  <SCORE.INTRA.norm>
0

>  <SCORE.RESTR>
0

>  <SCORE.RESTR.CAVITY>
0

>  <SCORE.RESTR.norm>
0

>  <SCORE.SYSTEM>
0

>  <SCORE.SYSTEM.CONST>
0

>  <SCORE.SYSTEM.DIHEDRAL>
0

>  <SCORE.SYSTEM.SOLV>
0

>  <SCORE.SYSTEM.norm>
0

>  <SCORE.heavy>
11

>  <SCORE.norm>
-1.43362

>  <RMSD>
2.890

$$$$
ligand
 OpenBabel11021811483D
libRbt.so/2013.1/901 2013/11/27
 11 12  0  0  0  0  0  0  0  0999 V2000
   36.6237   -8.5974  -37.8302 N   0  0  0  0  0  0  0  0  0  0  0  0
   35.4968   -9.1919  -38.2498 C   0  0  0  0  0  0  0  0  0  0  0  0
   34.5881   -8.4580  -39.0720 N   0  0  0  0  0  0  0  0  0  0  0  0
   35.2091  -10.4539  -37.9143 N   0  0  0  0  0  0  0  0  0  0  0  0
   36.0737  -11.1808  -37.1193 C   0  0  0  0  0  0  0  0  0  0  0  0
   37.2286  -10.5878  -36.6802 C   0  0  0  0  0  0  0  0  0  0  0  0
   37.5209   -9.2347  -37.0512 C   0  0  0  0  0  0  0  0  0  0  0  0
   39.0034   -8.4301  -36.5150 S   0  0  0  0  0  0  0  0  0  0  0  0
   37.9028  -11.5072  -35.9179 N   0  0  0  0  0  0  0  0  0  0  0  0
   37.1717  -12.6519  -35.8871 C   0  0  0  0  0  0  0  0  0  0  0  0
   36.0388  -12.4716  -36.6228 N   0  0  0  0  0  0  0  0  0  0  0  0
  1  2  2  0  0  0  0
  1  7  1  0  0  0  0
  2  3  1  0  0  0  0
  2  4  1  0  0  0  0
  4  5  2  0  0  0  0
  5  6  1  0  0  0  0
  5 11  1  0  0  0  0
  6  7  2  0  0  0  0
  6  9  1  0  0  0  0
  7  8  1  0  0  0  0
  9 10  1  0  0  0  0
 10 11  2  0  0  0  0
M  END
>  <CHROM.1>
36.89688540,-10.01915063,-37.10316054,1.47847008,-0.49560447,-0.38107526

>  <Name>
ligand

>  <RI>
0

>  <Rbt.Current_Directory>
/home/itssahil/PROJECTS/Mol_Feturizer/New_Systems/rnas/3RKF

>  <Rbt.Executable>
rbdock ($Id: //depot/dev/client3/rdock/2013.1/src/exe/rbdock.cxx#4 $)

>  <Rbt.Library>
libRbt.so (2013.1, Build901 2013/11/27)

>  <Rbt.Parameter_File>
/export/apps/rDock/src/rDock_2013.1_src/data/scripts/dock_solv.prm

>  <Rbt.Receptor>
prm/pocket_docking_6.prm

>  <SCORE>
-15.8104

>  <SCORE.INTER>
-15.8104

>  <SCORE.INTER.CONST>
1

>  <SCORE.INTER.POLAR>
0

>  <SCORE.INTER.ROT>
0

>  <SCORE.INTER.SOLV>
9.44248

>  <SCORE.INTER.VDW>
-17.2878

>  <SCORE.INTER.norm>
-1.43731

>  <SCORE.INTRA>
0

>  <SCORE.INTRA.DIHEDRAL>
0

>  <SCORE.INTRA.DIHEDRAL.0>
0

>  <SCORE.INTRA.POLAR>
0

>  <SCORE.INTRA.POLAR.0>
0

>  <SCORE.INTRA.REPUL>
0

>  <SCORE.INTRA.REPUL.0>
0

>  <SCORE.INTRA.SOLV>
0

>  <SCORE.INTRA.SOLV.lig_0>
-28.6198

>  <SCORE.INTRA.VDW>
0

>  <SCORE.INTRA.VDW.0>
0

>  <SCORE.INTRA.norm>
0

>  <SCORE.RESTR>
0

>  <SCORE.RESTR.CAVITY>
0

>  <SCORE.RESTR.norm>
0

>  <SCORE.SYSTEM>
0

>  <SCORE.SYSTEM.CONST>
0

>  <SCORE.SYSTEM.DIHEDRAL>
0

>  <SCORE.SYSTEM.SOLV>
0

>  <SCORE.SYSTEM.norm>
0

>  <SCORE.heavy>
11

>  <SCORE.norm>
-1.43731

>  <RMSD>
2.890

$$$$
ligand
 OpenBabel11021811483D
libRbt.so/2013.1/901 2013/11/27
 11 12  0  0  0  0  0  0  0  0999 V2000
   36.5965   -8.5872  -37.8513 N   0  0  0  0  0  0  0  0  0  0  0  0
   35.4851   -9.1997  -38.2861 C   0  0  0  0  0  0  0  0  0  0  0  0
   34.5784   -8.4819  -39.1246 N   0  0  0  0  0  0  0  0  0  0  0  0
   35.2109  -10.4647  -37.9508 N   0  0  0  0  0  0  0  0  0  0  0  0
   36.0739  -11.1762  -37.1402 C   0  0  0  0  0  0  0  0  0  0  0  0
   37.2130  -10.5648  -36.6855 C   0  0  0  0  0  0  0  0  0  0  0  0
   37.4909   -9.2088  -37.0565 C   0  0  0  0  0  0  0  0  0  0  0  0
   38.9530   -8.3805  -36.5003 S   0  0  0  0  0  0  0  0  0  0  0  0
   37.8889  -11.4717  -35.9099 N   0  0  0  0  0  0  0  0  0  0  0  0
   37.1744  -12.6271  -35.8865 C   0  0  0  0  0  0  0  0  0  0  0  0
   36.0504  -12.4659  -36.6400 N   0  0  0  0  0  0  0  0  0  0  0  0
  1  2  2  0  0  0  0
  1  7  1  0  0  0  0
  2  3  1  0  0  0  0
  2  4  1  0  0  0  0
  4  5  2  0  0  0  0
  5  6  1  0  0  0  0
  5 11  1  0  0  0  0
  6  7  2  0  0  0  0
  6  9  1  0  0  0  0
  7  8  1  0  0  0  0
  9 10  1  0  0  0  0
 10 11  2  0  0  0  0
M  END
>  <CHROM.1>
36.87943283,-10.00250173,-37.11535561,1.48766989,-0.51535205,-0.37985267

>  <Name>
ligand

>  <RI>
0

>  <Rbt.Current_Directory>
/home/itssahil/PROJECTS/Mol_Feturizer/New_Systems/rnas/3RKF

>  <Rbt.Executable>
rbdock ($Id: //depot/dev/client3/rdock/2013.1/src/exe/rbdock.cxx#4 $)

>  <Rbt.Library>
libRbt.so (2013.1, Build901 2013/11/27)

>  <Rbt.Parameter_File>
/export/apps/rDock/src/rDock_2013.1_src/data/scripts/dock_solv.prm

>  <Rbt.Receptor>
prm/pocket_docking_8.prm

>  <SCORE>
-15.7645

>  <SCORE.INTER>
-15.7645

>  <SCORE.INTER.CONST>
1

>  <SCORE.INTER.POLAR>
0

>  <SCORE.INTER.ROT>
0

>  <SCORE.INTER.SOLV>
9.56282

>  <SCORE.INTER.VDW>
-17.2973

>  <SCORE.INTER.norm>
-1.43314

>  <SCORE.INTRA>
0

>  <SCORE.INTRA.DIHEDRAL>
0

>  <SCORE.INTRA.DIHEDRAL.0>
0

>  <SCORE.INTRA.POLAR>
0

>  <SCORE.INTRA.POLAR.0>
0

>  <SCORE.INTRA.REPUL>
0

>  <SCORE.INTRA.REPUL.0>
0

>  <SCORE.INTRA.SOLV>
0

>  <SCORE.INTRA.SOLV.lig_0>
-28.6198

>  <SCORE.INTRA.VDW>
0

>  <SCORE.INTRA.VDW.0>
0

>  <SCORE.INTRA.norm>
0

>  <SCORE.RESTR>
0

>  <SCORE.RESTR.CAVITY>
0

>  <SCORE.RESTR.norm>
0

>  <SCORE.SYSTEM>
0

>  <SCORE.SYSTEM.CONST>
0

>  <SCORE.SYSTEM.DIHEDRAL>
0

>  <SCORE.SYSTEM.SOLV>
0

>  <SCORE.SYSTEM.norm>
0

>  <SCORE.heavy>
11

>  <SCORE.norm>
-1.43314

>  <RMSD>
2.890

$$$$
ligand
 OpenBabel11021811483D
libRbt.so/2013.1/901 2013/11/27
 11 12  0  0  0  0  0  0  0  0999 V2000
   36.6170   -8.5799  -37.8691 N   0  0  0  0  0  0  0  0  0  0  0  0
   35.4976   -9.1893  -38.2874 C   0  0  0  0  0  0  0  0  0  0  0  0
   34.5974   -8.4806  -39.1404 N   0  0  0  0  0  0  0  0  0  0  0  0
   35.2096  -10.4430  -37.9225 N   0  0  0  0  0  0  0  0  0  0  0  0
   36.0662  -11.1456  -37.0974 C   0  0  0  0  0  0  0  0  0  0  0  0
   37.2133  -10.5371  -36.6592 C   0  0  0  0  0  0  0  0  0  0  0  0
   37.5060   -9.1933  -37.0620 C   0  0  0  0  0  0  0  0  0  0  0  0
   38.9788   -8.3695  -36.5279 S   0  0  0  0  0  0  0  0  0  0  0  0
   37.8805  -11.4337  -35.8643 N   0  0  0  0  0  0  0  0  0  0  0  0
   37.1528  -12.5799  -35.8128 C   0  0  0  0  0  0  0  0  0  0  0  0
   36.0289  -12.4231  -36.5676 N   0  0  0  0  0  0  0  0  0  0  0  0
  1  2  2  0  0  0  0
  1  7  1  0  0  0  0
  2  3  1  0  0  0  0
  2  4  1  0  0  0  0
  4  5  2  0  0  0  0
  5  6  1  0  0  0  0
  5 11  1  0  0  0  0
  6  7  2  0  0  0  0
  6  9  1  0  0  0  0
  7  8  1  0  0  0  0
  9 10  1  0  0  0  0
 10 11  2  0  0  0  0
M  END
>  <CHROM.1>
36.88528681,-9.98104121,-37.10127962,1.47636080,-0.50893074,-0.40844849

>  <Name>
ligand

>  <RI>
0

>  <Rbt.Current_Directory>
/home/itssahil/PROJECTS/Mol_Feturizer/New_Systems/rnas/3RKF

>  <Rbt.Executable>
rbdock ($Id: //depot/dev/client3/rdock/2013.1/src/exe/rbdock.cxx#4 $)

>  <Rbt.Library>
libRbt.so (2013.1, Build901 2013/11/27)

>  <Rbt.Parameter_File>
/export/apps/rDock/src/rDock_2013.1_src/data/scripts/dock_solv.prm

>  <Rbt.Receptor>
prm/pocket_docking_8.prm

>  <SCORE>
-15.7657

>  <SCORE.INTER>
-15.7657

>  <SCORE.INTER.CONST>
1

>  <SCORE.INTER.POLAR>
0

>  <SCORE.INTER.ROT>
0

>  <SCORE.INTER.SOLV>
9.68399

>  <SCORE.INTER.VDW>
-17.3385

>  <SCORE.INTER.norm>
-1.43325

>  <SCORE.INTRA>
0

>  <SCORE.INTRA.DIHEDRAL>
0

>  <SCORE.INTRA.DIHEDRAL.0>
0

>  <SCORE.INTRA.POLAR>
0

>  <SCORE.INTRA.POLAR.0>
0

>  <SCORE.INTRA.REPUL>
0

>  <SCORE.INTRA.REPUL.0>
0

>  <SCORE.INTRA.SOLV>
0

>  <SCORE.INTRA.SOLV.lig_0>
-28.6198

>  <SCORE.INTRA.VDW>
0

>  <SCORE.INTRA.VDW.0>
0

>  <SCORE.INTRA.norm>
0

>  <SCORE.RESTR>
0

>  <SCORE.RESTR.CAVITY>
0

>  <SCORE.RESTR.norm>
0

>  <SCORE.SYSTEM>
0

>  <SCORE.SYSTEM.CONST>
0

>  <SCORE.SYSTEM.DIHEDRAL>
0

>  <SCORE.SYSTEM.SOLV>
0

>  <SCORE.SYSTEM.norm>
0

>  <SCORE.heavy>
11

>  <SCORE.norm>
-1.43325

>  <RMSD>
2.890

$$$$
ligand
 OpenBabel11021811483D
libRbt.so/2013.1/901 2013/11/27
 11 12  0  0  0  0  0  0  0  0999 V2000
   36.6311   -8.5923  -37.8402 N   0  0  0  0  0  0  0  0  0  0  0  0
   35.5097   -9.1935  -38.2651 C   0  0  0  0  0  0  0  0  0  0  0  0
   34.6045   -8.4678  -39.0982 N   0  0  0  0  0  0  0  0  0  0  0  0
   35.2244  -10.4548  -37.9247 N   0  0  0  0  0  0  0  0  0  0  0  0
   36.0858  -11.1739  -37.1192 C   0  0  0  0  0  0  0  0  0  0  0  0
   37.2349  -10.5739  -36.6746 C   0  0  0  0  0  0  0  0  0  0  0  0
   37.5248   -9.2218  -37.0509 C   0  0  0  0  0  0  0  0  0  0  0  0
   39.0000   -8.4084  -36.5078 S   0  0  0  0  0  0  0  0  0  0  0  0
   37.9069  -11.4865  -35.9021 N   0  0  0  0  0  0  0  0  0  0  0  0
   37.1800  -12.6339  -35.8706 C   0  0  0  0  0  0  0  0  0  0  0  0
   36.0521  -12.4621  -36.6159 N   0  0  0  0  0  0  0  0  0  0  0  0
  1  2  2  0  0  0  0
  1  7  1  0  0  0  0
  2  3  1  0  0  0  0
  2  4  1  0  0  0  0
  4  5  2  0  0  0  0
  5  6  1  0  0  0  0
  5 11  1  0  0  0  0
  6  7  2  0  0  0  0
  6  9  1  0  0  0  0
  7  8  1  0  0  0  0
  9 10  1  0  0  0  0
 10 11  2  0  0  0  0
M  END
>  <CHROM.1>
36.90424008,-10.00897096,-37.10323054,1.47936662,-0.50413932,-0.38616470

>  <Name>
ligand

>  <RI>
0

>  <Rbt.Current_Directory>
/home/itssahil/PROJECTS/Mol_Feturizer/New_Systems/rnas/3RKF

>  <Rbt.Executable>
rbdock ($Id: //depot/dev/client3/rdock/2013.1/src/exe/rbdock.cxx#4 $)

>  <Rbt.Library>
libRbt.so (2013.1, Build901 2013/11/27)

>  <Rbt.Parameter_File>
/export/apps/rDock/src/rDock_2013.1_src/data/scripts/dock_solv.prm

>  <Rbt.Receptor>
prm/pocket_docking_8.prm

>  <SCORE>
-15.7715

>  <SCORE.INTER>
-15.7715

>  <SCORE.INTER.CONST>
1

>  <SCORE.INTER.POLAR>
0

>  <SCORE.INTER.ROT>
0

>  <SCORE.INTER.SOLV>
9.55772

>  <SCORE.INTER.VDW>
-17.3003

>  <SCORE.INTER.norm>
-1.43378

>  <SCORE.INTRA>
0

>  <SCORE.INTRA.DIHEDRAL>
0

>  <SCORE.INTRA.DIHEDRAL.0>
0

>  <SCORE.INTRA.POLAR>
0

>  <SCORE.INTRA.POLAR.0>
0

>  <SCORE.INTRA.REPUL>
0

>  <SCORE.INTRA.REPUL.0>
0

>  <SCORE.INTRA.SOLV>
0

>  <SCORE.INTRA.SOLV.lig_0>
-28.6198

>  <SCORE.INTRA.VDW>
0

>  <SCORE.INTRA.VDW.0>
0

>  <SCORE.INTRA.norm>
0

>  <SCORE.RESTR>
0

>  <SCORE.RESTR.CAVITY>
0

>  <SCORE.RESTR.norm>
0

>  <SCORE.SYSTEM>
0

>  <SCORE.SYSTEM.CONST>
0

>  <SCORE.SYSTEM.DIHEDRAL>
0

>  <SCORE.SYSTEM.SOLV>
0

>  <SCORE.SYSTEM.norm>
0

>  <SCORE.heavy>
11

>  <SCORE.norm>
-1.43378

>  <RMSD>
2.890

$$$$
ligand
 OpenBabel11021811483D
libRbt.so/2013.1/901 2013/11/27
 11 12  0  0  0  0  0  0  0  0999 V2000
   36.6251   -8.5962  -37.8320 N   0  0  0  0  0  0  0  0  0  0  0  0
   35.4962   -9.1904  -38.2467 C   0  0  0  0  0  0  0  0  0  0  0  0
   34.5857   -8.4574  -39.0676 N   0  0  0  0  0  0  0  0  0  0  0  0
   35.2082  -10.4514  -37.9074 N   0  0  0  0  0  0  0  0  0  0  0  0
   36.0746  -11.1774  -37.1135 C   0  0  0  0  0  0  0  0  0  0  0  0
   37.2316  -10.5846  -36.6795 C   0  0  0  0  0  0  0  0  0  0  0  0
   37.5241   -9.2328  -37.0545 C   0  0  0  0  0  0  0  0  0  0  0  0
   39.0092   -8.4285  -36.5248 S   0  0  0  0  0  0  0  0  0  0  0  0
   37.9072  -11.5031  -35.9173 N   0  0  0  0  0  0  0  0  0  0  0  0
   37.1750  -12.6470  -35.8816 C   0  0  0  0  0  0  0  0  0  0  0  0
   36.0399  -12.4671  -36.6140 N   0  0  0  0  0  0  0  0  0  0  0  0
  1  2  2  0  0  0  0
  1  7  1  0  0  0  0
  2  3  1  0  0  0  0
  2  4  1  0  0  0  0
  4  5  2  0  0  0  0
  5  6  1  0  0  0  0
  5 11  1  0  0  0  0
  6  7  2  0  0  0  0
  6  9  1  0  0  0  0
  7  8  1  0  0  0  0
  9 10  1  0  0  0  0
 10 11  2  0  0  0  0
M  END
>  <CHROM.1>
36.89909484,-10.01662041,-37.10264133,1.47869718,-0.49223219,-0.38321840

>  <Name>
ligand

>  <RI>
0

>  <Rbt.Current_Directory>
/home/itssahil/PROJECTS/Mol_Feturizer/New_Systems/rnas/3RKF

>  <Rbt.Executable>
rbdock ($Id: //depot/dev/client3/rdock/2013.1/src/exe/rbdock.cxx#4 $)

>  <Rbt.Library>
libRbt.so (2013.1, Build901 2013/11/27)

>  <Rbt.Parameter_File>
/export/apps/rDock/src/rDock_2013.1_src/data/scripts/dock_solv.prm

>  <Rbt.Receptor>
prm/pocket_docking_8.prm

>  <SCORE>
-15.8094

>  <SCORE.INTER>
-15.8094

>  <SCORE.INTER.CONST>
1

>  <SCORE.INTER.POLAR>
0

>  <SCORE.INTER.ROT>
0

>  <SCORE.INTER.SOLV>
9.4333

>  <SCORE.INTER.VDW>
-17.284

>  <SCORE.INTER.norm>
-1.43722

>  <SCORE.INTRA>
0

>  <SCORE.INTRA.DIHEDRAL>
0

>  <SCORE.INTRA.DIHEDRAL.0>
0

>  <SCORE.INTRA.POLAR>
0

>  <SCORE.INTRA.POLAR.0>
0

>  <SCORE.INTRA.REPUL>
0

>  <SCORE.INTRA.REPUL.0>
0

>  <SCORE.INTRA.SOLV>
0

>  <SCORE.INTRA.SOLV.lig_0>
-28.6198

>  <SCORE.INTRA.VDW>
0

>  <SCORE.INTRA.VDW.0>
0

>  <SCORE.INTRA.norm>
0

>  <SCORE.RESTR>
0

>  <SCORE.RESTR.CAVITY>
0

>  <SCORE.RESTR.norm>
0

>  <SCORE.SYSTEM>
0

>  <SCORE.SYSTEM.CONST>
0

>  <SCORE.SYSTEM.DIHEDRAL>
0

>  <SCORE.SYSTEM.SOLV>
0

>  <SCORE.SYSTEM.norm>
0

>  <SCORE.heavy>
11

>  <SCORE.norm>
-1.43722

>  <RMSD>
2.890

$$$$
ligand
 OpenBabel11021811483D
libRbt.so/2013.1/901 2013/11/27
 11 12  0  0  0  0  0  0  0  0999 V2000
   36.6141   -8.5979  -37.8319 N   0  0  0  0  0  0  0  0  0  0  0  0
   35.4923   -9.1986  -38.2562 C   0  0  0  0  0  0  0  0  0  0  0  0
   34.5812   -8.4686  -39.0791 N   0  0  0  0  0  0  0  0  0  0  0  0
   35.2119  -10.4634  -37.9247 N   0  0  0  0  0  0  0  0  0  0  0  0
   36.0791  -11.1866  -37.1292 C   0  0  0  0  0  0  0  0  0  0  0  0
   37.2288  -10.5873  -36.6853 C   0  0  0  0  0  0  0  0  0  0  0  0
   37.5133   -9.2314  -37.0520 C   0  0  0  0  0  0  0  0  0  0  0  0
   38.9890   -8.4184  -36.5095 S   0  0  0  0  0  0  0  0  0  0  0  0
   37.9069  -11.5042  -35.9235 N   0  0  0  0  0  0  0  0  0  0  0  0
   37.1832  -12.6538  -35.8977 C   0  0  0  0  0  0  0  0  0  0  0  0
   36.0512  -12.4790  -36.6362 N   0  0  0  0  0  0  0  0  0  0  0  0
  1  2  2  0  0  0  0
  1  7  1  0  0  0  0
  2  3  1  0  0  0  0
  2  4  1  0  0  0  0
  4  5  2  0  0  0  0
  5  6  1  0  0  0  0
  5 11  1  0  0  0  0
  6  7  2  0  0  0  0
  6  9  1  0  0  0  0
  7  8  1  0  0  0  0
  9 10  1  0  0  0  0
 10 11  2  0  0  0  0
M  END
>  <CHROM.1>
36.89457424,-10.01972902,-37.10774644,1.48420400,-0.50064366,-0.37574407

>  <Name>
ligand

>  <RI>
0

>  <Rbt.Current_Directory>
/home/itssahil/PROJECTS/Mol_Feturizer/New_Systems/rnas/3RKF

>  <Rbt.Executable>
rbdock ($Id: //depot/dev/client3/rdock/2013.1/src/exe/rbdock.cxx#4 $)

>  <Rbt.Library>
libRbt.so (2013.1, Build901 2013/11/27)

>  <Rbt.Parameter_File>
/export/apps/rDock/src/rDock_2013.1_src/data/scripts/dock_solv.prm

>  <Rbt.Receptor>
prm/blind_docking_100.prm

>  <SCORE>
-15.801

>  <SCORE.INTER>
-15.801

>  <SCORE.INTER.CONST>
1

>  <SCORE.INTER.POLAR>
0

>  <SCORE.INTER.ROT>
0

>  <SCORE.INTER.SOLV>
9.44843

>  <SCORE.INTER.VDW>
-17.2835

>  <SCORE.INTER.norm>
-1.43645

>  <SCORE.INTRA>
0

>  <SCORE.INTRA.DIHEDRAL>
0

>  <SCORE.INTRA.DIHEDRAL.0>
0

>  <SCORE.INTRA.POLAR>
0

>  <SCORE.INTRA.POLAR.0>
0

>  <SCORE.INTRA.REPUL>
0

>  <SCORE.INTRA.REPUL.0>
0

>  <SCORE.INTRA.SOLV>
0

>  <SCORE.INTRA.SOLV.lig_0>
-28.6198

>  <SCORE.INTRA.VDW>
0

>  <SCORE.INTRA.VDW.0>
0

>  <SCORE.INTRA.norm>
0

>  <SCORE.RESTR>
0

>  <SCORE.RESTR.CAVITY>
0

>  <SCORE.RESTR.norm>
0

>  <SCORE.SYSTEM>
0

>  <SCORE.SYSTEM.CONST>
0

>  <SCORE.SYSTEM.DIHEDRAL>
0

>  <SCORE.SYSTEM.SOLV>
0

>  <SCORE.SYSTEM.norm>
0

>  <SCORE.heavy>
11

>  <SCORE.norm>
-1.43645

>  <RMSD>
2.891

$$$$
ligand
 OpenBabel11021811483D
libRbt.so/2013.1/901 2013/11/27
 11 12  0  0  0  0  0  0  0  0999 V2000
   36.6217   -8.5965  -37.8294 N   0  0  0  0  0  0  0  0  0  0  0  0
   35.4956   -9.1930  -38.2485 C   0  0  0  0  0  0  0  0  0  0  0  0
   34.5862   -8.4615  -39.0720 N   0  0  0  0  0  0  0  0  0  0  0  0
   35.2094  -10.4549  -37.9113 N   0  0  0  0  0  0  0  0  0  0  0  0
   36.0748  -11.1796  -37.1151 C   0  0  0  0  0  0  0  0  0  0  0  0
   37.2288  -10.5845  -36.6765 C   0  0  0  0  0  0  0  0  0  0  0  0
   37.5195   -9.2316  -37.0494 C   0  0  0  0  0  0  0  0  0  0  0  0
   39.0008   -8.4243  -36.5138 S   0  0  0  0  0  0  0  0  0  0  0  0
   37.9040  -11.5020  -35.9128 N   0  0  0  0  0  0  0  0  0  0  0  0
   37.1744  -12.6477  -35.8806 C   0  0  0  0  0  0  0  0  0  0  0  0
   36.0414  -12.4698  -36.6168 N   0  0  0  0  0  0  0  0  0  0  0  0
  1  2  2  0  0  0  0
  1  7  1  0  0  0  0
  2  3  1  0  0  0  0
  2  4  1  0  0  0  0
  4  5  2  0  0  0  0
  5  6  1  0  0  0  0
  5 11  1  0  0  0  0
  6  7  2  0  0  0  0
  6  9  1  0  0  0  0
  7  8  1  0  0  0  0
  9 10  1  0  0  0  0
 10 11  2  0  0  0  0
M  END
>  <CHROM.1>
36.89648381,-10.01692229,-37.10033175,1.47971633,-0.49631663,-0.38186743

>  <Name>
ligand

>  <RI>
0

>  <Rbt.Current_Directory>
/home/itssahil/PROJECTS/Mol_Feturizer/New_Systems/rnas/3RKF

>  <Rbt.Executable>
rbdock ($Id: //depot/dev/client3/rdock/2013.1/src/exe/rbdock.cxx#4 $)

>  <Rbt.Library>
libRbt.so (2013.1, Build901 2013/11/27)

>  <Rbt.Parameter_File>
/export/apps/rDock/src/rDock_2013.1_src/data/scripts/dock_solv.prm

>  <Rbt.Receptor>
prm/pocket_docking_3.prm

>  <SCORE>
-15.8169

>  <SCORE.INTER>
-15.8169

>  <SCORE.INTER.CONST>
1

>  <SCORE.INTER.POLAR>
0

>  <SCORE.INTER.ROT>
0

>  <SCORE.INTER.SOLV>
9.44284

>  <SCORE.INTER.VDW>
-17.2922

>  <SCORE.INTER.norm>
-1.4379

>  <SCORE.INTRA>
0

>  <SCORE.INTRA.DIHEDRAL>
0

>  <SCORE.INTRA.DIHEDRAL.0>
0

>  <SCORE.INTRA.POLAR>
0

>  <SCORE.INTRA.POLAR.0>
0

>  <SCORE.INTRA.REPUL>
0

>  <SCORE.INTRA.REPUL.0>
0

>  <SCORE.INTRA.SOLV>
0

>  <SCORE.INTRA.SOLV.lig_0>
-28.6198

>  <SCORE.INTRA.VDW>
0

>  <SCORE.INTRA.VDW.0>
0

>  <SCORE.INTRA.norm>
0

>  <SCORE.RESTR>
0

>  <SCORE.RESTR.CAVITY>
0

>  <SCORE.RESTR.norm>
0

>  <SCORE.SYSTEM>
0

>  <SCORE.SYSTEM.CONST>
0

>  <SCORE.SYSTEM.DIHEDRAL>
0

>  <SCORE.SYSTEM.SOLV>
0

>  <SCORE.SYSTEM.norm>
0

>  <SCORE.heavy>
11

>  <SCORE.norm>
-1.4379

>  <RMSD>
2.891

$$$$
ligand
 OpenBabel11021811483D
libRbt.so/2013.1/901 2013/11/27
 11 12  0  0  0  0  0  0  0  0999 V2000
   36.6388   -8.5925  -37.8229 N   0  0  0  0  0  0  0  0  0  0  0  0
   35.5034   -9.1819  -38.2268 C   0  0  0  0  0  0  0  0  0  0  0  0
   34.5967   -8.4510  -39.0538 N   0  0  0  0  0  0  0  0  0  0  0  0
   35.2055  -10.4360  -37.8712 N   0  0  0  0  0  0  0  0  0  0  0  0
   36.0681  -11.1599  -37.0712 C   0  0  0  0  0  0  0  0  0  0  0  0
   37.2316  -10.5720  -36.6480 C   0  0  0  0  0  0  0  0  0  0  0  0
   37.5347   -9.2274  -37.0405 C   0  0  0  0  0  0  0  0  0  0  0  0
   39.0284   -8.4297  -36.5252 S   0  0  0  0  0  0  0  0  0  0  0  0
   37.9017  -11.4869  -35.8768 N   0  0  0  0  0  0  0  0  0  0  0  0
   37.1596  -12.6239  -35.8248 C   0  0  0  0  0  0  0  0  0  0  0  0
   36.0238  -12.4430  -36.5559 N   0  0  0  0  0  0  0  0  0  0  0  0
  1  2  2  0  0  0  0
  1  7  1  0  0  0  0
  2  3  1  0  0  0  0
  2  4  1  0  0  0  0
  4  5  2  0  0  0  0
  5  6  1  0  0  0  0
  5 11  1  0  0  0  0
  6  7  2  0  0  0  0
  6  9  1  0  0  0  0
  7  8  1  0  0  0  0
  9 10  1  0  0  0  0
 10 11  2  0  0  0  0
M  END
>  <CHROM.1>
36.90270623,-10.00630992,-37.07708763,1.47092160,-0.48598522,-0.39908631

>  <Name>
ligand

>  <RI>
0

>  <Rbt.Current_Directory>
/home/itssahil/PROJECTS/Mol_Feturizer/New_Systems/rnas/3RKF

>  <Rbt.Executable>
rbdock ($Id: //depot/dev/client3/rdock/2013.1/src/exe/rbdock.cxx#4 $)

>  <Rbt.Library>
libRbt.so (2013.1, Build901 2013/11/27)

>  <Rbt.Parameter_File>
/export/apps/rDock/src/rDock_2013.1_src/data/scripts/dock_solv.prm

>  <Rbt.Receptor>
prm/pocket_docking_3.prm

>  <SCORE>
-15.7328

>  <SCORE.INTER>
-15.7328

>  <SCORE.INTER.CONST>
1

>  <SCORE.INTER.POLAR>
0

>  <SCORE.INTER.ROT>
0

>  <SCORE.INTER.SOLV>
9.44274

>  <SCORE.INTER.VDW>
-17.2361

>  <SCORE.INTER.norm>
-1.43026

>  <SCORE.INTRA>
0

>  <SCORE.INTRA.DIHEDRAL>
0

>  <SCORE.INTRA.DIHEDRAL.0>
0

>  <SCORE.INTRA.POLAR>
0

>  <SCORE.INTRA.POLAR.0>
0

>  <SCORE.INTRA.REPUL>
0

>  <SCORE.INTRA.REPUL.0>
0

>  <SCORE.INTRA.SOLV>
0

>  <SCORE.INTRA.SOLV.lig_0>
-28.6198

>  <SCORE.INTRA.VDW>
0

>  <SCORE.INTRA.VDW.0>
0

>  <SCORE.INTRA.norm>
0

>  <SCORE.RESTR>
0

>  <SCORE.RESTR.CAVITY>
0

>  <SCORE.RESTR.norm>
0

>  <SCORE.SYSTEM>
0

>  <SCORE.SYSTEM.CONST>
0

>  <SCORE.SYSTEM.DIHEDRAL>
0

>  <SCORE.SYSTEM.SOLV>
0

>  <SCORE.SYSTEM.norm>
0

>  <SCORE.heavy>
11

>  <SCORE.norm>
-1.43026

>  <RMSD>
2.891

$$$$
ligand
 OpenBabel11021811483D
libRbt.so/2013.1/901 2013/11/27
 11 12  0  0  0  0  0  0  0  0999 V2000
   36.6422   -8.5890  -37.8411 N   0  0  0  0  0  0  0  0  0  0  0  0
   35.5099   -9.1843  -38.2446 C   0  0  0  0  0  0  0  0  0  0  0  0
   34.5985   -8.4579  -39.0704 N   0  0  0  0  0  0  0  0  0  0  0  0
   35.2194  -10.4405  -37.8899 N   0  0  0  0  0  0  0  0  0  0  0  0
   36.0867  -11.1601  -37.0912 C   0  0  0  0  0  0  0  0  0  0  0  0
   37.2471  -10.5661  -36.6684 C   0  0  0  0  0  0  0  0  0  0  0  0
   37.5423   -9.2194  -37.0599 C   0  0  0  0  0  0  0  0  0  0  0  0
   39.0319   -8.4138  -36.5450 S   0  0  0  0  0  0  0  0  0  0  0  0
   37.9229  -11.4779  -35.8984 N   0  0  0  0  0  0  0  0  0  0  0  0
   37.1873  -12.6190  -35.8469 C   0  0  0  0  0  0  0  0  0  0  0  0
   36.0499  -12.4439  -36.5770 N   0  0  0  0  0  0  0  0  0  0  0  0
  1  2  2  0  0  0  0
  1  7  1  0  0  0  0
  2  3  1  0  0  0  0
  2  4  1  0  0  0  0
  4  5  2  0  0  0  0
  5  6  1  0  0  0  0
  5 11  1  0  0  0  0
  6  7  2  0  0  0  0
  6  9  1  0  0  0  0
  7  8  1  0  0  0  0
  9 10  1  0  0  0  0
 10 11  2  0  0  0  0
M  END
>  <CHROM.1>
36.91468289,-10.00185338,-37.09669940,1.47713483,-0.48749504,-0.39531148

>  <Name>
ligand

>  <RI>
0

>  <Rbt.Current_Directory>
/home/itssahil/PROJECTS/Mol_Feturizer/New_Systems/rnas/3RKF

>  <Rbt.Executable>
rbdock ($Id: //depot/dev/client3/rdock/2013.1/src/exe/rbdock.cxx#4 $)

>  <Rbt.Library>
libRbt.so (2013.1, Build901 2013/11/27)

>  <Rbt.Parameter_File>
/export/apps/rDock/src/rDock_2013.1_src/data/scripts/dock_solv.prm

>  <Rbt.Receptor>
prm/pocket_docking_3.prm

>  <SCORE>
-15.7497

>  <SCORE.INTER>
-15.7497

>  <SCORE.INTER.CONST>
1

>  <SCORE.INTER.POLAR>
0

>  <SCORE.INTER.ROT>
0

>  <SCORE.INTER.SOLV>
9.49005

>  <SCORE.INTER.VDW>
-17.2631

>  <SCORE.INTER.norm>
-1.43179

>  <SCORE.INTRA>
0

>  <SCORE.INTRA.DIHEDRAL>
0

>  <SCORE.INTRA.DIHEDRAL.0>
0

>  <SCORE.INTRA.POLAR>
0

>  <SCORE.INTRA.POLAR.0>
0

>  <SCORE.INTRA.REPUL>
0

>  <SCORE.INTRA.REPUL.0>
0

>  <SCORE.INTRA.SOLV>
0

>  <SCORE.INTRA.SOLV.lig_0>
-28.6198

>  <SCORE.INTRA.VDW>
0

>  <SCORE.INTRA.VDW.0>
0

>  <SCORE.INTRA.norm>
0

>  <SCORE.RESTR>
0

>  <SCORE.RESTR.CAVITY>
0

>  <SCORE.RESTR.norm>
0

>  <SCORE.SYSTEM>
0

>  <SCORE.SYSTEM.CONST>
0

>  <SCORE.SYSTEM.DIHEDRAL>
0

>  <SCORE.SYSTEM.SOLV>
0

>  <SCORE.SYSTEM.norm>
0

>  <SCORE.heavy>
11

>  <SCORE.norm>
-1.43179

>  <RMSD>
2.891

$$$$
ligand
 OpenBabel11021811483D
libRbt.so/2013.1/901 2013/11/27
 11 12  0  0  0  0  0  0  0  0999 V2000
   36.6086   -8.5786  -37.8411 N   0  0  0  0  0  0  0  0  0  0  0  0
   35.4853   -9.1847  -38.2537 C   0  0  0  0  0  0  0  0  0  0  0  0
   34.5712   -8.4651  -39.0824 N   0  0  0  0  0  0  0  0  0  0  0  0
   35.2062  -10.4452  -37.9053 N   0  0  0  0  0  0  0  0  0  0  0  0
   36.0763  -11.1583  -37.1039 C   0  0  0  0  0  0  0  0  0  0  0  0
   37.2276  -10.5533  -36.6718 C   0  0  0  0  0  0  0  0  0  0  0  0
   37.5107   -9.2022  -37.0566 C   0  0  0  0  0  0  0  0  0  0  0  0
   38.9883   -8.3824  -36.5297 S   0  0  0  0  0  0  0  0  0  0  0  0
   37.9085  -11.4606  -35.9009 N   0  0  0  0  0  0  0  0  0  0  0  0
   37.1850  -12.6098  -35.8580 C   0  0  0  0  0  0  0  0  0  0  0  0
   36.0503  -12.4444  -36.5945 N   0  0  0  0  0  0  0  0  0  0  0  0
  1  2  2  0  0  0  0
  1  7  1  0  0  0  0
  2  3  1  0  0  0  0
  2  4  1  0  0  0  0
  4  5  2  0  0  0  0
  5  6  1  0  0  0  0
  5 11  1  0  0  0  0
  6  7  2  0  0  0  0
  6  9  1  0  0  0  0
  7  8  1  0  0  0  0
  9 10  1  0  0  0  0
 10 11  2  0  0  0  0
M  END
>  <CHROM.1>
36.89180639,-9.99119159,-37.10009007,1.48580509,-0.49730143,-0.38757924

>  <Name>
ligand

>  <RI>
0

>  <Rbt.Current_Directory>
/home/itssahil/PROJECTS/Mol_Feturizer/New_Systems/rnas/3RKF

>  <Rbt.Executable>
rbdock ($Id: //depot/dev/client3/rdock/2013.1/src/exe/rbdock.cxx#4 $)

>  <Rbt.Library>
libRbt.so (2013.1, Build901 2013/11/27)

>  <Rbt.Parameter_File>
/export/apps/rDock/src/rDock_2013.1_src/data/scripts/dock_solv.prm

>  <Rbt.Receptor>
prm/pocket_docking_5.prm

>  <SCORE>
-15.7615

>  <SCORE.INTER>
-15.7615

>  <SCORE.INTER.CONST>
1

>  <SCORE.INTER.POLAR>
0

>  <SCORE.INTER.ROT>
0

>  <SCORE.INTER.SOLV>
9.45171

>  <SCORE.INTER.VDW>
-17.2583

>  <SCORE.INTER.norm>
-1.43287

>  <SCORE.INTRA>
0

>  <SCORE.INTRA.DIHEDRAL>
0

>  <SCORE.INTRA.DIHEDRAL.0>
0

>  <SCORE.INTRA.POLAR>
0

>  <SCORE.INTRA.POLAR.0>
0

>  <SCORE.INTRA.REPUL>
0

>  <SCORE.INTRA.REPUL.0>
0

>  <SCORE.INTRA.SOLV>
0

>  <SCORE.INTRA.SOLV.lig_0>
-28.6198

>  <SCORE.INTRA.VDW>
0

>  <SCORE.INTRA.VDW.0>
0

>  <SCORE.INTRA.norm>
0

>  <SCORE.RESTR>
0

>  <SCORE.RESTR.CAVITY>
0

>  <SCORE.RESTR.norm>
0

>  <SCORE.SYSTEM>
0

>  <SCORE.SYSTEM.CONST>
0

>  <SCORE.SYSTEM.DIHEDRAL>
0

>  <SCORE.SYSTEM.SOLV>
0

>  <SCORE.SYSTEM.norm>
0

>  <SCORE.heavy>
11

>  <SCORE.norm>
-1.43287

>  <RMSD>
2.891

$$$$
ligand
 OpenBabel11021811483D
libRbt.so/2013.1/901 2013/11/27
 11 12  0  0  0  0  0  0  0  0999 V2000
   36.6130   -8.5984  -37.8282 N   0  0  0  0  0  0  0  0  0  0  0  0
   35.4868   -9.1963  -38.2447 C   0  0  0  0  0  0  0  0  0  0  0  0
   34.5748   -8.4658  -39.0663 N   0  0  0  0  0  0  0  0  0  0  0  0
   35.2027  -10.4585  -37.9067 N   0  0  0  0  0  0  0  0  0  0  0  0
   36.0707  -11.1821  -37.1123 C   0  0  0  0  0  0  0  0  0  0  0  0
   37.2250  -10.5857  -36.6764 C   0  0  0  0  0  0  0  0  0  0  0  0
   37.5133   -9.2325  -37.0500 C   0  0  0  0  0  0  0  0  0  0  0  0
   38.9949   -8.4234  -36.5177 S   0  0  0  0  0  0  0  0  0  0  0  0
   37.9028  -11.5023  -35.9140 N   0  0  0  0  0  0  0  0  0  0  0  0
   37.1746  -12.6488  -35.8801 C   0  0  0  0  0  0  0  0  0  0  0  0
   36.0398  -12.4723  -36.6139 N   0  0  0  0  0  0  0  0  0  0  0  0
  1  2  2  0  0  0  0
  1  7  1  0  0  0  0
  2  3  1  0  0  0  0
  2  4  1  0  0  0  0
  4  5  2  0  0  0  0
  5  6  1  0  0  0  0
  5 11  1  0  0  0  0
  6  7  2  0  0  0  0
  6  9  1  0  0  0  0
  7  8  1  0  0  0  0
  9 10  1  0  0  0  0
 10 11  2  0  0  0  0
M  END
>  <CHROM.1>
36.89104780,-10.01847192,-37.09951611,1.48183048,-0.49472155,-0.38096358

>  <Name>
ligand

>  <RI>
0

>  <Rbt.Current_Directory>
/home/itssahil/PROJECTS/Mol_Feturizer/New_Systems/rnas/3RKF

>  <Rbt.Executable>
rbdock ($Id: //depot/dev/client3/rdock/2013.1/src/exe/rbdock.cxx#4 $)

>  <Rbt.Library>
libRbt.so (2013.1, Build901 2013/11/27)

>  <Rbt.Parameter_File>
/export/apps/rDock/src/rDock_2013.1_src/data/scripts/dock_solv.prm

>  <Rbt.Receptor>
prm/pocket_docking_5.prm

>  <SCORE>
-15.8145

>  <SCORE.INTER>
-15.8145

>  <SCORE.INTER.CONST>
1

>  <SCORE.INTER.POLAR>
0

>  <SCORE.INTER.ROT>
0

>  <SCORE.INTER.SOLV>
9.41167

>  <SCORE.INTER.VDW>
-17.2802

>  <SCORE.INTER.norm>
-1.43768

>  <SCORE.INTRA>
0

>  <SCORE.INTRA.DIHEDRAL>
0

>  <SCORE.INTRA.DIHEDRAL.0>
0

>  <SCORE.INTRA.POLAR>
0

>  <SCORE.INTRA.POLAR.0>
0

>  <SCORE.INTRA.REPUL>
0

>  <SCORE.INTRA.REPUL.0>
0

>  <SCORE.INTRA.SOLV>
0

>  <SCORE.INTRA.SOLV.lig_0>
-28.6198

>  <SCORE.INTRA.VDW>
0

>  <SCORE.INTRA.VDW.0>
0

>  <SCORE.INTRA.norm>
0

>  <SCORE.RESTR>
0

>  <SCORE.RESTR.CAVITY>
0

>  <SCORE.RESTR.norm>
0

>  <SCORE.SYSTEM>
0

>  <SCORE.SYSTEM.CONST>
0

>  <SCORE.SYSTEM.DIHEDRAL>
0

>  <SCORE.SYSTEM.SOLV>
0

>  <SCORE.SYSTEM.norm>
0

>  <SCORE.heavy>
11

>  <SCORE.norm>
-1.43768

>  <RMSD>
2.891

$$$$
ligand
 OpenBabel11021811483D
libRbt.so/2013.1/901 2013/11/27
 11 12  0  0  0  0  0  0  0  0999 V2000
   36.6238   -8.5971  -37.8292 N   0  0  0  0  0  0  0  0  0  0  0  0
   35.4980   -9.1936  -38.2488 C   0  0  0  0  0  0  0  0  0  0  0  0
   34.5893   -8.4622  -39.0732 N   0  0  0  0  0  0  0  0  0  0  0  0
   35.2113  -10.4553  -37.9113 N   0  0  0  0  0  0  0  0  0  0  0  0
   36.0760  -11.1798  -37.1142 C   0  0  0  0  0  0  0  0  0  0  0  0
   37.2298  -10.5848  -36.6750 C   0  0  0  0  0  0  0  0  0  0  0  0
   37.5210   -9.2321  -37.0482 C   0  0  0  0  0  0  0  0  0  0  0  0
   39.0020   -8.4248  -36.5118 S   0  0  0  0  0  0  0  0  0  0  0  0
   37.9042  -11.5021  -35.9104 N   0  0  0  0  0  0  0  0  0  0  0  0
   37.1744  -12.6476  -35.8783 C   0  0  0  0  0  0  0  0  0  0  0  0
   36.0420  -12.4698  -36.6154 N   0  0  0  0  0  0  0  0  0  0  0  0
  1  2  2  0  0  0  0
  1  7  1  0  0  0  0
  2  3  1  0  0  0  0
  2  4  1  0  0  0  0
  4  5  2  0  0  0  0
  5  6  1  0  0  0  0
  5 11  1  0  0  0  0
  6  7  2  0  0  0  0
  6  9  1  0  0  0  0
  7  8  1  0  0  0  0
  9 10  1  0  0  0  0
 10 11  2  0  0  0  0
M  END
>  <CHROM.1>
36.89784529,-10.01727178,-37.09928939,1.47922527,-0.49694015,-0.38249651

>  <Name>
ligand

>  <RI>
0

>  <Rbt.Current_Directory>
/home/itssahil/PROJECTS/Mol_Feturizer/New_Systems/rnas/3RKF

>  <Rbt.Executable>
rbdock ($Id: //depot/dev/client3/rdock/2013.1/src/exe/rbdock.cxx#4 $)

>  <Rbt.Library>
libRbt.so (2013.1, Build901 2013/11/27)

>  <Rbt.Parameter_File>
/export/apps/rDock/src/rDock_2013.1_src/data/scripts/dock_solv.prm

>  <Rbt.Receptor>
prm/pocket_docking_5.prm

>  <SCORE>
-15.8201

>  <SCORE.INTER>
-15.8201

>  <SCORE.INTER.CONST>
1

>  <SCORE.INTER.POLAR>
0

>  <SCORE.INTER.ROT>
0

>  <SCORE.INTER.SOLV>
9.45258

>  <SCORE.INTER.VDW>
-17.2976

>  <SCORE.INTER.norm>
-1.43819

>  <SCORE.INTRA>
0

>  <SCORE.INTRA.DIHEDRAL>
0

>  <SCORE.INTRA.DIHEDRAL.0>
0

>  <SCORE.INTRA.POLAR>
0

>  <SCORE.INTRA.POLAR.0>
0

>  <SCORE.INTRA.REPUL>
0

>  <SCORE.INTRA.REPUL.0>
0

>  <SCORE.INTRA.SOLV>
0

>  <SCORE.INTRA.SOLV.lig_0>
-28.6198

>  <SCORE.INTRA.VDW>
0

>  <SCORE.INTRA.VDW.0>
0

>  <SCORE.INTRA.norm>
0

>  <SCORE.RESTR>
0

>  <SCORE.RESTR.CAVITY>
0

>  <SCORE.RESTR.norm>
0

>  <SCORE.SYSTEM>
0

>  <SCORE.SYSTEM.CONST>
0

>  <SCORE.SYSTEM.DIHEDRAL>
0

>  <SCORE.SYSTEM.SOLV>
0

>  <SCORE.SYSTEM.norm>
0

>  <SCORE.heavy>
11

>  <SCORE.norm>
-1.43819

>  <RMSD>
2.891

$$$$
ligand
 OpenBabel11021811483D
libRbt.so/2013.1/901 2013/11/27
 11 12  0  0  0  0  0  0  0  0999 V2000
   36.6269   -8.5973  -37.8306 N   0  0  0  0  0  0  0  0  0  0  0  0
   35.5010   -9.1936  -38.2501 C   0  0  0  0  0  0  0  0  0  0  0  0
   34.5922   -8.4620  -39.0741 N   0  0  0  0  0  0  0  0  0  0  0  0
   35.2144  -10.4555  -37.9130 N   0  0  0  0  0  0  0  0  0  0  0  0
   36.0793  -11.1803  -37.1163 C   0  0  0  0  0  0  0  0  0  0  0  0
   37.2332  -10.5854  -36.6772 C   0  0  0  0  0  0  0  0  0  0  0  0
   37.5243   -9.2325  -37.0500 C   0  0  0  0  0  0  0  0  0  0  0  0
   39.0055   -8.4255  -36.5138 S   0  0  0  0  0  0  0  0  0  0  0  0
   37.9078  -11.5029  -35.9131 N   0  0  0  0  0  0  0  0  0  0  0  0
   37.1779  -12.6484  -35.8812 C   0  0  0  0  0  0  0  0  0  0  0  0
   36.0454  -12.4704  -36.6180 N   0  0  0  0  0  0  0  0  0  0  0  0
  1  2  2  0  0  0  0
  1  7  1  0  0  0  0
  2  3  1  0  0  0  0
  2  4  1  0  0  0  0
  4  5  2  0  0  0  0
  5  6  1  0  0  0  0
  5 11  1  0  0  0  0
  6  7  2  0  0  0  0
  6  9  1  0  0  0  0
  7  8  1  0  0  0  0
  9 10  1  0  0  0  0
 10 11  2  0  0  0  0
M  END
>  <CHROM.1>
36.90114641,-10.01772002,-37.10124032,1.47931313,-0.49670338,-0.38211731

>  <Name>
ligand

>  <RI>
0

>  <Rbt.Current_Directory>
/home/itssahil/PROJECTS/Mol_Feturizer/New_Systems/rnas/3RKF

>  <Rbt.Executable>
rbdock ($Id: //depot/dev/client3/rdock/2013.1/src/exe/rbdock.cxx#4 $)

>  <Rbt.Library>
libRbt.so (2013.1, Build901 2013/11/27)

>  <Rbt.Parameter_File>
/export/apps/rDock/src/rDock_2013.1_src/data/scripts/dock_solv.prm

>  <Rbt.Receptor>
prm/pocket_docking_5.prm

>  <SCORE>
-15.8151

>  <SCORE.INTER>
-15.8151

>  <SCORE.INTER.CONST>
1

>  <SCORE.INTER.POLAR>
0

>  <SCORE.INTER.ROT>
0

>  <SCORE.INTER.SOLV>
9.46059

>  <SCORE.INTER.VDW>
-17.297

>  <SCORE.INTER.norm>
-1.43774

>  <SCORE.INTRA>
0

>  <SCORE.INTRA.DIHEDRAL>
0

>  <SCORE.INTRA.DIHEDRAL.0>
0

>  <SCORE.INTRA.POLAR>
0

>  <SCORE.INTRA.POLAR.0>
0

>  <SCORE.INTRA.REPUL>
0

>  <SCORE.INTRA.REPUL.0>
0

>  <SCORE.INTRA.SOLV>
0

>  <SCORE.INTRA.SOLV.lig_0>
-28.6198

>  <SCORE.INTRA.VDW>
0

>  <SCORE.INTRA.VDW.0>
0

>  <SCORE.INTRA.norm>
0

>  <SCORE.RESTR>
0

>  <SCORE.RESTR.CAVITY>
0

>  <SCORE.RESTR.norm>
0

>  <SCORE.SYSTEM>
0

>  <SCORE.SYSTEM.CONST>
0

>  <SCORE.SYSTEM.DIHEDRAL>
0

>  <SCORE.SYSTEM.SOLV>
0

>  <SCORE.SYSTEM.norm>
0

>  <SCORE.heavy>
11

>  <SCORE.norm>
-1.43774

>  <RMSD>
2.891

$$$$
ligand
 OpenBabel11021811483D
libRbt.so/2013.1/901 2013/11/27
 11 12  0  0  0  0  0  0  0  0999 V2000
   36.6253   -8.5990  -37.8269 N   0  0  0  0  0  0  0  0  0  0  0  0
   35.4994   -9.1958  -38.2459 C   0  0  0  0  0  0  0  0  0  0  0  0
   34.5901   -8.4646  -39.0699 N   0  0  0  0  0  0  0  0  0  0  0  0
   35.2133  -10.4576  -37.9083 N   0  0  0  0  0  0  0  0  0  0  0  0
   36.0785  -11.1819  -37.1116 C   0  0  0  0  0  0  0  0  0  0  0  0
   37.2324  -10.5865  -36.6731 C   0  0  0  0  0  0  0  0  0  0  0  0
   37.5230   -9.2337  -37.0464 C   0  0  0  0  0  0  0  0  0  0  0  0
   39.0042   -8.4261  -36.5108 S   0  0  0  0  0  0  0  0  0  0  0  0
   37.9075  -11.5037  -35.9088 N   0  0  0  0  0  0  0  0  0  0  0  0
   37.1780  -12.6494  -35.8764 C   0  0  0  0  0  0  0  0  0  0  0  0
   36.0452  -12.4719  -36.6129 N   0  0  0  0  0  0  0  0  0  0  0  0
  1  2  2  0  0  0  0
  1  7  1  0  0  0  0
  2  3  1  0  0  0  0
  2  4  1  0  0  0  0
  4  5  2  0  0  0  0
  5  6  1  0  0  0  0
  5 11  1  0  0  0  0
  6  7  2  0  0  0  0
  6  9  1  0  0  0  0
  7  8  1  0  0  0  0
  9 10  1  0  0  0  0
 10 11  2  0  0  0  0
M  END
>  <CHROM.1>
36.90010599,-10.01910970,-37.09716496,1.47973300,-0.49654286,-0.38224028

>  <Name>
ligand

>  <RI>
0

>  <Rbt.Current_Directory>
/home/itssahil/PROJECTS/Mol_Feturizer/New_Systems/rnas/3RKF

>  <Rbt.Executable>
rbdock ($Id: //depot/dev/client3/rdock/2013.1/src/exe/rbdock.cxx#4 $)

>  <Rbt.Library>
libRbt.so (2013.1, Build901 2013/11/27)

>  <Rbt.Parameter_File>
/export/apps/rDock/src/rDock_2013.1_src/data/scripts/dock_solv.prm

>  <Rbt.Receptor>
prm/pocket_docking_5.prm

>  <SCORE>
-15.8188

>  <SCORE.INTER>
-15.8188

>  <SCORE.INTER.CONST>
1

>  <SCORE.INTER.POLAR>
0

>  <SCORE.INTER.ROT>
0

>  <SCORE.INTER.SOLV>
9.449

>  <SCORE.INTER.VDW>
-17.2955

>  <SCORE.INTER.norm>
-1.43807

>  <SCORE.INTRA>
0

>  <SCORE.INTRA.DIHEDRAL>
0

>  <SCORE.INTRA.DIHEDRAL.0>
0

>  <SCORE.INTRA.POLAR>
0

>  <SCORE.INTRA.POLAR.0>
0

>  <SCORE.INTRA.REPUL>
0

>  <SCORE.INTRA.REPUL.0>
0

>  <SCORE.INTRA.SOLV>
0

>  <SCORE.INTRA.SOLV.lig_0>
-28.6198

>  <SCORE.INTRA.VDW>
0

>  <SCORE.INTRA.VDW.0>
0

>  <SCORE.INTRA.norm>
0

>  <SCORE.RESTR>
0

>  <SCORE.RESTR.CAVITY>
0

>  <SCORE.RESTR.norm>
0

>  <SCORE.SYSTEM>
0

>  <SCORE.SYSTEM.CONST>
0

>  <SCORE.SYSTEM.DIHEDRAL>
0

>  <SCORE.SYSTEM.SOLV>
0

>  <SCORE.SYSTEM.norm>
0

>  <SCORE.heavy>
11

>  <SCORE.norm>
-1.43807

>  <RMSD>
2.891

$$$$
ligand
 OpenBabel11021811483D
libRbt.so/2013.1/901 2013/11/27
 11 12  0  0  0  0  0  0  0  0999 V2000
   36.6124   -8.5978  -37.8287 N   0  0  0  0  0  0  0  0  0  0  0  0
   35.4865   -9.1962  -38.2453 C   0  0  0  0  0  0  0  0  0  0  0  0
   34.5732   -8.4655  -39.0652 N   0  0  0  0  0  0  0  0  0  0  0  0
   35.2039  -10.4591  -37.9089 N   0  0  0  0  0  0  0  0  0  0  0  0
   36.0731  -11.1830  -37.1161 C   0  0  0  0  0  0  0  0  0  0  0  0
   37.2271  -10.5860  -36.6801 C   0  0  0  0  0  0  0  0  0  0  0  0
   37.5138   -9.2320  -37.0520 C   0  0  0  0  0  0  0  0  0  0  0  0
   38.9950   -8.4223  -36.5196 S   0  0  0  0  0  0  0  0  0  0  0  0
   37.9064  -11.5031  -35.9195 N   0  0  0  0  0  0  0  0  0  0  0  0
   37.1793  -12.6503  -35.8867 C   0  0  0  0  0  0  0  0  0  0  0  0
   36.0438  -12.4739  -36.6195 N   0  0  0  0  0  0  0  0  0  0  0  0
  1  2  2  0  0  0  0
  1  7  1  0  0  0  0
  2  3  1  0  0  0  0
  2  4  1  0  0  0  0
  4  5  2  0  0  0  0
  5  6  1  0  0  0  0
  5 11  1  0  0  0  0
  6  7  2  0  0  0  0
  6  9  1  0  0  0  0
  7  8  1  0  0  0  0
  9 10  1  0  0  0  0
 10 11  2  0  0  0  0
M  END
>  <CHROM.1>
36.89233940,-10.01856870,-37.10221070,1.48315307,-0.49445673,-0.37893617

>  <Name>
ligand

>  <RI>
0

>  <Rbt.Current_Directory>
/home/itssahil/PROJECTS/Mol_Feturizer/New_Systems/rnas/3RKF

>  <Rbt.Executable>
rbdock ($Id: //depot/dev/client3/rdock/2013.1/src/exe/rbdock.cxx#4 $)

>  <Rbt.Library>
libRbt.so (2013.1, Build901 2013/11/27)

>  <Rbt.Parameter_File>
/export/apps/rDock/src/rDock_2013.1_src/data/scripts/dock_solv.prm

>  <Rbt.Receptor>
prm/pocket_docking_6.prm

>  <SCORE>
-15.8052

>  <SCORE.INTER>
-15.8052

>  <SCORE.INTER.CONST>
1

>  <SCORE.INTER.POLAR>
0

>  <SCORE.INTER.ROT>
0

>  <SCORE.INTER.SOLV>
9.40494

>  <SCORE.INTER.VDW>
-17.2718

>  <SCORE.INTER.norm>
-1.43683

>  <SCORE.INTRA>
0

>  <SCORE.INTRA.DIHEDRAL>
0

>  <SCORE.INTRA.DIHEDRAL.0>
0

>  <SCORE.INTRA.POLAR>
0

>  <SCORE.INTRA.POLAR.0>
0

>  <SCORE.INTRA.REPUL>
0

>  <SCORE.INTRA.REPUL.0>
0

>  <SCORE.INTRA.SOLV>
0

>  <SCORE.INTRA.SOLV.lig_0>
-28.6198

>  <SCORE.INTRA.VDW>
0

>  <SCORE.INTRA.VDW.0>
0

>  <SCORE.INTRA.norm>
0

>  <SCORE.RESTR>
0

>  <SCORE.RESTR.CAVITY>
0

>  <SCORE.RESTR.norm>
0

>  <SCORE.SYSTEM>
0

>  <SCORE.SYSTEM.CONST>
0

>  <SCORE.SYSTEM.DIHEDRAL>
0

>  <SCORE.SYSTEM.SOLV>
0

>  <SCORE.SYSTEM.norm>
0

>  <SCORE.heavy>
11

>  <SCORE.norm>
-1.43683

>  <RMSD>
2.891

$$$$
ligand
 OpenBabel11021811483D
libRbt.so/2013.1/901 2013/11/27
 11 12  0  0  0  0  0  0  0  0999 V2000
   36.6285   -8.5988  -37.8267 N   0  0  0  0  0  0  0  0  0  0  0  0
   35.5012   -9.1938  -38.2445 C   0  0  0  0  0  0  0  0  0  0  0  0
   34.5923   -8.4614  -39.0677 N   0  0  0  0  0  0  0  0  0  0  0  0
   35.2134  -10.4551  -37.9063 N   0  0  0  0  0  0  0  0  0  0  0  0
   36.0782  -11.1806  -37.1103 C   0  0  0  0  0  0  0  0  0  0  0  0
   37.2335  -10.5870  -36.6730 C   0  0  0  0  0  0  0  0  0  0  0  0
   37.5259   -9.2348  -37.0469 C   0  0  0  0  0  0  0  0  0  0  0  0
   39.0089   -8.4294  -36.5129 S   0  0  0  0  0  0  0  0  0  0  0  0
   37.9078  -11.5051  -35.9092 N   0  0  0  0  0  0  0  0  0  0  0  0
   37.1765  -12.6496  -35.8758 C   0  0  0  0  0  0  0  0  0  0  0  0
   36.0432  -12.4705  -36.6113 N   0  0  0  0  0  0  0  0  0  0  0  0
  1  2  2  0  0  0  0
  1  7  1  0  0  0  0
  2  3  1  0  0  0  0
  2  4  1  0  0  0  0
  4  5  2  0  0  0  0
  5  6  1  0  0  0  0
  5 11  1  0  0  0  0
  6  7  2  0  0  0  0
  6  9  1  0  0  0  0
  7  8  1  0  0  0  0
  9 10  1  0  0  0  0
 10 11  2  0  0  0  0
M  END
>  <CHROM.1>
36.90168329,-10.01917830,-37.09690914,1.47842668,-0.49505572,-0.38308556

>  <Name>
ligand

>  <RI>
0

>  <Rbt.Current_Directory>
/home/itssahil/PROJECTS/Mol_Feturizer/New_Systems/rnas/3RKF

>  <Rbt.Executable>
rbdock ($Id: //depot/dev/client3/rdock/2013.1/src/exe/rbdock.cxx#4 $)

>  <Rbt.Library>
libRbt.so (2013.1, Build901 2013/11/27)

>  <Rbt.Parameter_File>
/export/apps/rDock/src/rDock_2013.1_src/data/scripts/dock_solv.prm

>  <Rbt.Receptor>
prm/pocket_docking_6.prm

>  <SCORE>
-15.8173

>  <SCORE.INTER>
-15.8173

>  <SCORE.INTER.CONST>
1

>  <SCORE.INTER.POLAR>
0

>  <SCORE.INTER.ROT>
0

>  <SCORE.INTER.SOLV>
9.4471

>  <SCORE.INTER.VDW>
-17.2939

>  <SCORE.INTER.norm>
-1.43794

>  <SCORE.INTRA>
0

>  <SCORE.INTRA.DIHEDRAL>
0

>  <SCORE.INTRA.DIHEDRAL.0>
0

>  <SCORE.INTRA.POLAR>
0

>  <SCORE.INTRA.POLAR.0>
0

>  <SCORE.INTRA.REPUL>
0

>  <SCORE.INTRA.REPUL.0>
0

>  <SCORE.INTRA.SOLV>
0

>  <SCORE.INTRA.SOLV.lig_0>
-28.6198

>  <SCORE.INTRA.VDW>
0

>  <SCORE.INTRA.VDW.0>
0

>  <SCORE.INTRA.norm>
0

>  <SCORE.RESTR>
0

>  <SCORE.RESTR.CAVITY>
0

>  <SCORE.RESTR.norm>
0

>  <SCORE.SYSTEM>
0

>  <SCORE.SYSTEM.CONST>
0

>  <SCORE.SYSTEM.DIHEDRAL>
0

>  <SCORE.SYSTEM.SOLV>
0

>  <SCORE.SYSTEM.norm>
0

>  <SCORE.heavy>
11

>  <SCORE.norm>
-1.43794

>  <RMSD>
2.891

$$$$
ligand
 OpenBabel11021811483D
libRbt.so/2013.1/901 2013/11/27
 11 12  0  0  0  0  0  0  0  0999 V2000
   36.6027   -8.5863  -37.8558 N   0  0  0  0  0  0  0  0  0  0  0  0
   35.4836   -9.1958  -38.2748 C   0  0  0  0  0  0  0  0  0  0  0  0
   34.5718   -8.4788  -39.1084 N   0  0  0  0  0  0  0  0  0  0  0  0
   35.2065  -10.4572  -37.9282 N   0  0  0  0  0  0  0  0  0  0  0  0
   36.0744  -11.1678  -37.1221 C   0  0  0  0  0  0  0  0  0  0  0  0
   37.2214  -10.5594  -36.6835 C   0  0  0  0  0  0  0  0  0  0  0  0
   37.5024   -9.2072  -37.0664 C   0  0  0  0  0  0  0  0  0  0  0  0
   38.9744   -8.3830  -36.5312 S   0  0  0  0  0  0  0  0  0  0  0  0
   37.9008  -11.4647  -35.9091 N   0  0  0  0  0  0  0  0  0  0  0  0
   37.1807  -12.6161  -35.8705 C   0  0  0  0  0  0  0  0  0  0  0  0
   36.0496  -12.4541  -36.6132 N   0  0  0  0  0  0  0  0  0  0  0  0
  1  2  2  0  0  0  0
  1  7  1  0  0  0  0
  2  3  1  0  0  0  0
  2  4  1  0  0  0  0
  4  5  2  0  0  0  0
  5  6  1  0  0  0  0
  5 11  1  0  0  0  0
  6  7  2  0  0  0  0
  6  9  1  0  0  0  0
  7  8  1  0  0  0  0
  9 10  1  0  0  0  0
 10 11  2  0  0  0  0
M  END
>  <CHROM.1>
36.88618550,-9.99815171,-37.11355850,1.48671044,-0.50360802,-0.38691140

>  <Name>
ligand

>  <RI>
0

>  <Rbt.Current_Directory>
/home/itssahil/PROJECTS/Mol_Feturizer/New_Systems/rnas/3RKF

>  <Rbt.Executable>
rbdock ($Id: //depot/dev/client3/rdock/2013.1/src/exe/rbdock.cxx#4 $)

>  <Rbt.Library>
libRbt.so (2013.1, Build901 2013/11/27)

>  <Rbt.Parameter_File>
/export/apps/rDock/src/rDock_2013.1_src/data/scripts/dock_solv.prm

>  <Rbt.Receptor>
prm/pocket_docking_7.prm

>  <SCORE>
-15.7746

>  <SCORE.INTER>
-15.7746

>  <SCORE.INTER.CONST>
1

>  <SCORE.INTER.POLAR>
0

>  <SCORE.INTER.ROT>
0

>  <SCORE.INTER.SOLV>
9.52233

>  <SCORE.INTER.VDW>
-17.2905

>  <SCORE.INTER.norm>
-1.43406

>  <SCORE.INTRA>
0

>  <SCORE.INTRA.DIHEDRAL>
0

>  <SCORE.INTRA.DIHEDRAL.0>
0

>  <SCORE.INTRA.POLAR>
0

>  <SCORE.INTRA.POLAR.0>
0

>  <SCORE.INTRA.REPUL>
0

>  <SCORE.INTRA.REPUL.0>
0

>  <SCORE.INTRA.SOLV>
0

>  <SCORE.INTRA.SOLV.lig_0>
-28.6198

>  <SCORE.INTRA.VDW>
0

>  <SCORE.INTRA.VDW.0>
0

>  <SCORE.INTRA.norm>
0

>  <SCORE.RESTR>
0

>  <SCORE.RESTR.CAVITY>
0

>  <SCORE.RESTR.norm>
0

>  <SCORE.SYSTEM>
0

>  <SCORE.SYSTEM.CONST>
0

>  <SCORE.SYSTEM.DIHEDRAL>
0

>  <SCORE.SYSTEM.SOLV>
0

>  <SCORE.SYSTEM.norm>
0

>  <SCORE.heavy>
11

>  <SCORE.norm>
-1.43406

>  <RMSD>
2.891

$$$$
ligand
 OpenBabel11021811483D
libRbt.so/2013.1/901 2013/11/27
 11 12  0  0  0  0  0  0  0  0999 V2000
   36.6214   -8.5984  -37.8286 N   0  0  0  0  0  0  0  0  0  0  0  0
   35.4967   -9.1963  -38.2492 C   0  0  0  0  0  0  0  0  0  0  0  0
   34.5877   -8.4660  -39.0744 N   0  0  0  0  0  0  0  0  0  0  0  0
   35.2114  -10.4584  -37.9120 N   0  0  0  0  0  0  0  0  0  0  0  0
   36.0763  -11.1818  -37.1142 C   0  0  0  0  0  0  0  0  0  0  0  0
   37.2290  -10.5853  -36.6741 C   0  0  0  0  0  0  0  0  0  0  0  0
   37.5187   -9.2322  -37.0470 C   0  0  0  0  0  0  0  0  0  0  0  0
   38.9983   -8.4230  -36.5094 S   0  0  0  0  0  0  0  0  0  0  0  0
   37.9040  -11.5018  -35.9090 N   0  0  0  0  0  0  0  0  0  0  0  0
   37.1756  -12.6482  -35.8776 C   0  0  0  0  0  0  0  0  0  0  0  0
   36.0436  -12.4719  -36.6156 N   0  0  0  0  0  0  0  0  0  0  0  0
  1  2  2  0  0  0  0
  1  7  1  0  0  0  0
  2  3  1  0  0  0  0
  2  4  1  0  0  0  0
  4  5  2  0  0  0  0
  5  6  1  0  0  0  0
  5 11  1  0  0  0  0
  6  7  2  0  0  0  0
  6  9  1  0  0  0  0
  7  8  1  0  0  0  0
  9 10  1  0  0  0  0
 10 11  2  0  0  0  0
M  END
>  <CHROM.1>
36.89666909,-10.01820650,-37.09863272,1.48024967,-0.49816903,-0.38195460

>  <Name>
ligand

>  <RI>
0

>  <Rbt.Current_Directory>
/home/itssahil/PROJECTS/Mol_Feturizer/New_Systems/rnas/3RKF

>  <Rbt.Executable>
rbdock ($Id: //depot/dev/client3/rdock/2013.1/src/exe/rbdock.cxx#4 $)

>  <Rbt.Library>
libRbt.so (2013.1, Build901 2013/11/27)

>  <Rbt.Parameter_File>
/export/apps/rDock/src/rDock_2013.1_src/data/scripts/dock_solv.prm

>  <Rbt.Receptor>
prm/pocket_docking_8.prm

>  <SCORE>
-15.822

>  <SCORE.INTER>
-15.822

>  <SCORE.INTER.CONST>
1

>  <SCORE.INTER.POLAR>
0

>  <SCORE.INTER.ROT>
0

>  <SCORE.INTER.SOLV>
9.4543

>  <SCORE.INTER.VDW>
-17.2994

>  <SCORE.INTER.norm>
-1.43836

>  <SCORE.INTRA>
0

>  <SCORE.INTRA.DIHEDRAL>
0

>  <SCORE.INTRA.DIHEDRAL.0>
0

>  <SCORE.INTRA.POLAR>
0

>  <SCORE.INTRA.POLAR.0>
0

>  <SCORE.INTRA.REPUL>
0

>  <SCORE.INTRA.REPUL.0>
0

>  <SCORE.INTRA.SOLV>
0

>  <SCORE.INTRA.SOLV.lig_0>
-28.6198

>  <SCORE.INTRA.VDW>
0

>  <SCORE.INTRA.VDW.0>
0

>  <SCORE.INTRA.norm>
0

>  <SCORE.RESTR>
0

>  <SCORE.RESTR.CAVITY>
0

>  <SCORE.RESTR.norm>
0

>  <SCORE.SYSTEM>
0

>  <SCORE.SYSTEM.CONST>
0

>  <SCORE.SYSTEM.DIHEDRAL>
0

>  <SCORE.SYSTEM.SOLV>
0

>  <SCORE.SYSTEM.norm>
0

>  <SCORE.heavy>
11

>  <SCORE.norm>
-1.43836

>  <RMSD>
2.891

$$$$
ligand
 OpenBabel11021811483D
libRbt.so/2013.1/901 2013/11/27
 11 12  0  0  0  0  0  0  0  0999 V2000
   36.6197   -8.5955  -37.8203 N   0  0  0  0  0  0  0  0  0  0  0  0
   35.5021   -9.1974  -38.2539 C   0  0  0  0  0  0  0  0  0  0  0  0
   34.5927   -8.4655  -39.0772 N   0  0  0  0  0  0  0  0  0  0  0  0
   35.2242  -10.4650  -37.9314 N   0  0  0  0  0  0  0  0  0  0  0  0
   36.0896  -11.1901  -37.1356 C   0  0  0  0  0  0  0  0  0  0  0  0
   37.2351  -10.5895  -36.6823 C   0  0  0  0  0  0  0  0  0  0  0  0
   37.5169   -9.2306  -37.0395 C   0  0  0  0  0  0  0  0  0  0  0  0
   38.9871   -8.4160  -36.4846 S   0  0  0  0  0  0  0  0  0  0  0  0
   37.9122  -11.5088  -35.9224 N   0  0  0  0  0  0  0  0  0  0  0  0
   37.1923  -12.6609  -35.9072 C   0  0  0  0  0  0  0  0  0  0  0  0
   36.0635  -12.4854  -36.6504 N   0  0  0  0  0  0  0  0  0  0  0  0
  1  2  2  0  0  0  0
  1  7  1  0  0  0  0
  2  3  1  0  0  0  0
  2  4  1  0  0  0  0
  4  5  2  0  0  0  0
  5  6  1  0  0  0  0
  5 11  1  0  0  0  0
  6  7  2  0  0  0  0
  6  9  1  0  0  0  0
  7  8  1  0  0  0  0
  9 10  1  0  0  0  0
 10 11  2  0  0  0  0
M  END
>  <CHROM.1>
36.90109950,-10.02062370,-37.10308009,1.48558802,-0.50664864,-0.36916467

>  <Name>
ligand

>  <RI>
0

>  <Rbt.Current_Directory>
/home/itssahil/PROJECTS/Mol_Feturizer/New_Systems/rnas/3RKF

>  <Rbt.Executable>
rbdock ($Id: //depot/dev/client3/rdock/2013.1/src/exe/rbdock.cxx#4 $)

>  <Rbt.Library>
libRbt.so (2013.1, Build901 2013/11/27)

>  <Rbt.Parameter_File>
/export/apps/rDock/src/rDock_2013.1_src/data/scripts/dock_solv.prm

>  <Rbt.Receptor>
prm/pocket_docking_8.prm

>  <SCORE>
-15.7386

>  <SCORE.INTER>
-15.7386

>  <SCORE.INTER.CONST>
1

>  <SCORE.INTER.POLAR>
0

>  <SCORE.INTER.ROT>
0

>  <SCORE.INTER.SOLV>
9.45069

>  <SCORE.INTER.VDW>
-17.2426

>  <SCORE.INTER.norm>
-1.43078

>  <SCORE.INTRA>
0

>  <SCORE.INTRA.DIHEDRAL>
0

>  <SCORE.INTRA.DIHEDRAL.0>
0

>  <SCORE.INTRA.POLAR>
0

>  <SCORE.INTRA.POLAR.0>
0

>  <SCORE.INTRA.REPUL>
0

>  <SCORE.INTRA.REPUL.0>
0

>  <SCORE.INTRA.SOLV>
0

>  <SCORE.INTRA.SOLV.lig_0>
-28.6198

>  <SCORE.INTRA.VDW>
0

>  <SCORE.INTRA.VDW.0>
0

>  <SCORE.INTRA.norm>
0

>  <SCORE.RESTR>
0

>  <SCORE.RESTR.CAVITY>
0

>  <SCORE.RESTR.norm>
0

>  <SCORE.SYSTEM>
0

>  <SCORE.SYSTEM.CONST>
0

>  <SCORE.SYSTEM.DIHEDRAL>
0

>  <SCORE.SYSTEM.SOLV>
0

>  <SCORE.SYSTEM.norm>
0

>  <SCORE.heavy>
11

>  <SCORE.norm>
-1.43078

>  <RMSD>
2.891

$$$$
ligand
 OpenBabel11021811483D
libRbt.so/2013.1/901 2013/11/27
 11 12  0  0  0  0  0  0  0  0999 V2000
   36.6166   -8.6014  -37.8304 N   0  0  0  0  0  0  0  0  0  0  0  0
   35.4937   -9.2017  -38.2524 C   0  0  0  0  0  0  0  0  0  0  0  0
   34.5846   -8.4737  -39.0794 N   0  0  0  0  0  0  0  0  0  0  0  0
   35.2102  -10.4642  -37.9149 N   0  0  0  0  0  0  0  0  0  0  0  0
   36.0753  -11.1855  -37.1153 C   0  0  0  0  0  0  0  0  0  0  0  0
   37.2261  -10.5865  -36.6737 C   0  0  0  0  0  0  0  0  0  0  0  0
   37.5139   -9.2331  -37.0469 C   0  0  0  0  0  0  0  0  0  0  0  0
   38.9911   -8.4208  -36.5076 S   0  0  0  0  0  0  0  0  0  0  0  0
   37.9017  -11.5012  -35.9070 N   0  0  0  0  0  0  0  0  0  0  0  0
   37.1754  -12.6490  -35.8760 C   0  0  0  0  0  0  0  0  0  0  0  0
   36.0442  -12.4753  -36.6159 N   0  0  0  0  0  0  0  0  0  0  0  0
  1  2  2  0  0  0  0
  1  7  1  0  0  0  0
  2  3  1  0  0  0  0
  2  4  1  0  0  0  0
  4  5  2  0  0  0  0
  5  6  1  0  0  0  0
  5 11  1  0  0  0  0
  6  7  2  0  0  0  0
  6  9  1  0  0  0  0
  7  8  1  0  0  0  0
  9 10  1  0  0  0  0
 10 11  2  0  0  0  0
M  END
>  <CHROM.1>
36.89340768,-10.02029583,-37.09910253,1.48158472,-0.50034534,-0.38193485

>  <Name>
ligand

>  <RI>
0

>  <Rbt.Current_Directory>
/home/itssahil/PROJECTS/Mol_Feturizer/New_Systems/rnas/3RKF

>  <Rbt.Executable>
rbdock ($Id: //depot/dev/client3/rdock/2013.1/src/exe/rbdock.cxx#4 $)

>  <Rbt.Library>
libRbt.so (2013.1, Build901 2013/11/27)

>  <Rbt.Parameter_File>
/export/apps/rDock/src/rDock_2013.1_src/data/scripts/dock_solv.prm

>  <Rbt.Receptor>
prm/blind_docking_100.prm

>  <SCORE>
-15.7922

>  <SCORE.INTER>
-15.7922

>  <SCORE.INTER.CONST>
1

>  <SCORE.INTER.POLAR>
0

>  <SCORE.INTER.ROT>
0

>  <SCORE.INTER.SOLV>
9.46578

>  <SCORE.INTER.VDW>
-17.2834

>  <SCORE.INTER.norm>
-1.43565

>  <SCORE.INTRA>
0

>  <SCORE.INTRA.DIHEDRAL>
0

>  <SCORE.INTRA.DIHEDRAL.0>
0

>  <SCORE.INTRA.POLAR>
0

>  <SCORE.INTRA.POLAR.0>
0

>  <SCORE.INTRA.REPUL>
0

>  <SCORE.INTRA.REPUL.0>
0

>  <SCORE.INTRA.SOLV>
0

>  <SCORE.INTRA.SOLV.lig_0>
-28.6198

>  <SCORE.INTRA.VDW>
0

>  <SCORE.INTRA.VDW.0>
0

>  <SCORE.INTRA.norm>
0

>  <SCORE.RESTR>
0

>  <SCORE.RESTR.CAVITY>
0

>  <SCORE.RESTR.norm>
0

>  <SCORE.SYSTEM>
0

>  <SCORE.SYSTEM.CONST>
0

>  <SCORE.SYSTEM.DIHEDRAL>
0

>  <SCORE.SYSTEM.SOLV>
0

>  <SCORE.SYSTEM.norm>
0

>  <SCORE.heavy>
11

>  <SCORE.norm>
-1.43565

>  <RMSD>
2.892

$$$$
ligand
 OpenBabel11021811483D
libRbt.so/2013.1/901 2013/11/27
 11 12  0  0  0  0  0  0  0  0999 V2000
   36.6137   -8.6014  -37.8235 N   0  0  0  0  0  0  0  0  0  0  0  0
   35.4871   -9.1996  -38.2388 C   0  0  0  0  0  0  0  0  0  0  0  0
   34.5746   -8.4699  -39.0605 N   0  0  0  0  0  0  0  0  0  0  0  0
   35.2032  -10.4614  -37.8994 N   0  0  0  0  0  0  0  0  0  0  0  0
   36.0716  -11.1843  -37.1048 C   0  0  0  0  0  0  0  0  0  0  0  0
   37.2262  -10.5874  -36.6701 C   0  0  0  0  0  0  0  0  0  0  0  0
   37.5144   -9.2346  -37.0453 C   0  0  0  0  0  0  0  0  0  0  0  0
   38.9963   -8.4251  -36.5148 S   0  0  0  0  0  0  0  0  0  0  0  0
   37.9045  -11.5034  -35.9073 N   0  0  0  0  0  0  0  0  0  0  0  0
   37.1762  -12.6498  -35.8718 C   0  0  0  0  0  0  0  0  0  0  0  0
   36.0410  -12.4740  -36.6051 N   0  0  0  0  0  0  0  0  0  0  0  0
  1  2  2  0  0  0  0
  1  7  1  0  0  0  0
  2  3  1  0  0  0  0
  2  4  1  0  0  0  0
  4  5  2  0  0  0  0
  5  6  1  0  0  0  0
  5 11  1  0  0  0  0
  6  7  2  0  0  0  0
  6  9  1  0  0  0  0
  7  8  1  0  0  0  0
  9 10  1  0  0  0  0
 10 11  2  0  0  0  0
M  END
>  <CHROM.1>
36.89206767,-10.02066173,-37.09366020,1.48204401,-0.49413642,-0.38185934

>  <Name>
ligand

>  <RI>
0

>  <Rbt.Current_Directory>
/home/itssahil/PROJECTS/Mol_Feturizer/New_Systems/rnas/3RKF

>  <Rbt.Executable>
rbdock ($Id: //depot/dev/client3/rdock/2013.1/src/exe/rbdock.cxx#4 $)

>  <Rbt.Library>
libRbt.so (2013.1, Build901 2013/11/27)

>  <Rbt.Parameter_File>
/export/apps/rDock/src/rDock_2013.1_src/data/scripts/dock_solv.prm

>  <Rbt.Receptor>
prm/blind_docking_60.prm

>  <SCORE>
-15.8197

>  <SCORE.INTER>
-15.8197

>  <SCORE.INTER.CONST>
1

>  <SCORE.INTER.POLAR>
0

>  <SCORE.INTER.ROT>
0

>  <SCORE.INTER.SOLV>
9.40407

>  <SCORE.INTER.VDW>
-17.2812

>  <SCORE.INTER.norm>
-1.43815

>  <SCORE.INTRA>
0

>  <SCORE.INTRA.DIHEDRAL>
0

>  <SCORE.INTRA.DIHEDRAL.0>
0

>  <SCORE.INTRA.POLAR>
0

>  <SCORE.INTRA.POLAR.0>
0

>  <SCORE.INTRA.REPUL>
0

>  <SCORE.INTRA.REPUL.0>
0

>  <SCORE.INTRA.SOLV>
0

>  <SCORE.INTRA.SOLV.lig_0>
-28.6198

>  <SCORE.INTRA.VDW>
0

>  <SCORE.INTRA.VDW.0>
0

>  <SCORE.INTRA.norm>
0

>  <SCORE.RESTR>
0

>  <SCORE.RESTR.CAVITY>
0

>  <SCORE.RESTR.norm>
0

>  <SCORE.SYSTEM>
0

>  <SCORE.SYSTEM.CONST>
0

>  <SCORE.SYSTEM.DIHEDRAL>
0

>  <SCORE.SYSTEM.SOLV>
0

>  <SCORE.SYSTEM.norm>
0

>  <SCORE.heavy>
11

>  <SCORE.norm>
-1.43815

>  <RMSD>
2.892

$$$$
ligand
 OpenBabel11021811483D
libRbt.so/2013.1/901 2013/11/27
 11 12  0  0  0  0  0  0  0  0999 V2000
   36.6351   -8.6275  -37.8686 N   0  0  0  0  0  0  0  0  0  0  0  0
   35.5122   -9.2272  -38.2915 C   0  0  0  0  0  0  0  0  0  0  0  0
   34.6201   -8.5098  -39.1457 N   0  0  0  0  0  0  0  0  0  0  0  0
   35.2134  -10.4794  -37.9300 N   0  0  0  0  0  0  0  0  0  0  0  0
   36.0619  -11.1904  -37.1038 C   0  0  0  0  0  0  0  0  0  0  0  0
   37.2125  -10.5918  -36.6610 C   0  0  0  0  0  0  0  0  0  0  0  0
   37.5169   -9.2494  -37.0601 C   0  0  0  0  0  0  0  0  0  0  0  0
   38.9944   -8.4382  -36.5200 S   0  0  0  0  0  0  0  0  0  0  0  0
   37.8702  -11.4952  -35.8659 N   0  0  0  0  0  0  0  0  0  0  0  0
   37.1334  -12.6357  -35.8189 C   0  0  0  0  0  0  0  0  0  0  0  0
   36.0131  -12.4686  -36.5767 N   0  0  0  0  0  0  0  0  0  0  0  0
  1  2  2  0  0  0  0
  1  7  1  0  0  0  0
  2  3  1  0  0  0  0
  2  4  1  0  0  0  0
  4  5  2  0  0  0  0
  5  6  1  0  0  0  0
  5 11  1  0  0  0  0
  6  7  2  0  0  0  0
  6  9  1  0  0  0  0
  7  8  1  0  0  0  0
  9 10  1  0  0  0  0
 10 11  2  0  0  0  0
M  END
>  <CHROM.1>
36.89011766,-10.03222705,-37.10285882,1.46678551,-0.50855119,-0.41106882

>  <Name>
ligand

>  <RI>
0

>  <Rbt.Current_Directory>
/home/itssahil/PROJECTS/Mol_Feturizer/New_Systems/rnas/3RKF

>  <Rbt.Executable>
rbdock ($Id: //depot/dev/client3/rdock/2013.1/src/exe/rbdock.cxx#4 $)

>  <Rbt.Library>
libRbt.so (2013.1, Build901 2013/11/27)

>  <Rbt.Parameter_File>
/export/apps/rDock/src/rDock_2013.1_src/data/scripts/dock_solv.prm

>  <Rbt.Receptor>
prm/blind_docking_60.prm

>  <SCORE>
-15.7556

>  <SCORE.INTER>
-15.7556

>  <SCORE.INTER.CONST>
1

>  <SCORE.INTER.POLAR>
0

>  <SCORE.INTER.ROT>
0

>  <SCORE.INTER.SOLV>
9.81911

>  <SCORE.INTER.VDW>
-17.3768

>  <SCORE.INTER.norm>
-1.43232

>  <SCORE.INTRA>
0

>  <SCORE.INTRA.DIHEDRAL>
0

>  <SCORE.INTRA.DIHEDRAL.0>
0

>  <SCORE.INTRA.POLAR>
0

>  <SCORE.INTRA.POLAR.0>
0

>  <SCORE.INTRA.REPUL>
0

>  <SCORE.INTRA.REPUL.0>
0

>  <SCORE.INTRA.SOLV>
0

>  <SCORE.INTRA.SOLV.lig_0>
-28.6198

>  <SCORE.INTRA.VDW>
0

>  <SCORE.INTRA.VDW.0>
0

>  <SCORE.INTRA.norm>
0

>  <SCORE.RESTR>
0

>  <SCORE.RESTR.CAVITY>
0

>  <SCORE.RESTR.norm>
0

>  <SCORE.SYSTEM>
0

>  <SCORE.SYSTEM.CONST>
0

>  <SCORE.SYSTEM.DIHEDRAL>
0

>  <SCORE.SYSTEM.SOLV>
0

>  <SCORE.SYSTEM.norm>
0

>  <SCORE.heavy>
11

>  <SCORE.norm>
-1.43232

>  <RMSD>
2.892

$$$$
ligand
 OpenBabel11021811483D
libRbt.so/2013.1/901 2013/11/27
 11 12  0  0  0  0  0  0  0  0999 V2000
   36.6455   -8.6220  -37.8872 N   0  0  0  0  0  0  0  0  0  0  0  0
   35.5249   -9.2261  -38.3099 C   0  0  0  0  0  0  0  0  0  0  0  0
   34.6350   -8.5159  -39.1724 N   0  0  0  0  0  0  0  0  0  0  0  0
   35.2264  -10.4762  -37.9407 N   0  0  0  0  0  0  0  0  0  0  0  0
   36.0728  -11.1802  -37.1065 C   0  0  0  0  0  0  0  0  0  0  0  0
   37.2210  -10.5770  -36.6637 C   0  0  0  0  0  0  0  0  0  0  0  0
   37.5251   -9.2371  -37.0712 C   0  0  0  0  0  0  0  0  0  0  0  0
   38.9997   -8.4202  -36.5314 S   0  0  0  0  0  0  0  0  0  0  0  0
   37.8770  -11.4739  -35.8599 N   0  0  0  0  0  0  0  0  0  0  0  0
   37.1415  -12.6150  -35.8075 C   0  0  0  0  0  0  0  0  0  0  0  0
   36.0237  -12.4547  -36.5706 N   0  0  0  0  0  0  0  0  0  0  0  0
  1  2  2  0  0  0  0
  1  7  1  0  0  0  0
  2  3  1  0  0  0  0
  2  4  1  0  0  0  0
  4  5  2  0  0  0  0
  5  6  1  0  0  0  0
  5 11  1  0  0  0  0
  6  7  2  0  0  0  0
  6  9  1  0  0  0  0
  7  8  1  0  0  0  0
  9 10  1  0  0  0  0
 10 11  2  0  0  0  0
M  END
>  <CHROM.1>
36.89952829,-10.02096971,-37.11066114,1.46647171,-0.51238699,-0.41826236

>  <Name>
ligand

>  <RI>
0

>  <Rbt.Current_Directory>
/home/itssahil/PROJECTS/Mol_Feturizer/New_Systems/rnas/3RKF

>  <Rbt.Executable>
rbdock ($Id: //depot/dev/client3/rdock/2013.1/src/exe/rbdock.cxx#4 $)

>  <Rbt.Library>
libRbt.so (2013.1, Build901 2013/11/27)

>  <Rbt.Parameter_File>
/export/apps/rDock/src/rDock_2013.1_src/data/scripts/dock_solv.prm

>  <Rbt.Receptor>
prm/blind_docking_80.prm

>  <SCORE>
-15.7217

>  <SCORE.INTER>
-15.7217

>  <SCORE.INTER.CONST>
1

>  <SCORE.INTER.POLAR>
0

>  <SCORE.INTER.ROT>
0

>  <SCORE.INTER.SOLV>
9.96092

>  <SCORE.INTER.VDW>
-17.4014

>  <SCORE.INTER.norm>
-1.42924

>  <SCORE.INTRA>
0

>  <SCORE.INTRA.DIHEDRAL>
0

>  <SCORE.INTRA.DIHEDRAL.0>
0

>  <SCORE.INTRA.POLAR>
0

>  <SCORE.INTRA.POLAR.0>
0

>  <SCORE.INTRA.REPUL>
0

>  <SCORE.INTRA.REPUL.0>
0

>  <SCORE.INTRA.SOLV>
0

>  <SCORE.INTRA.SOLV.lig_0>
-28.6198

>  <SCORE.INTRA.VDW>
0

>  <SCORE.INTRA.VDW.0>
0

>  <SCORE.INTRA.norm>
0

>  <SCORE.RESTR>
0

>  <SCORE.RESTR.CAVITY>
0

>  <SCORE.RESTR.norm>
0

>  <SCORE.SYSTEM>
0

>  <SCORE.SYSTEM.CONST>
0

>  <SCORE.SYSTEM.DIHEDRAL>
0

>  <SCORE.SYSTEM.SOLV>
0

>  <SCORE.SYSTEM.norm>
0

>  <SCORE.heavy>
11

>  <SCORE.norm>
-1.42924

>  <RMSD>
2.892

$$$$
ligand
 OpenBabel11021811483D
libRbt.so/2013.1/901 2013/11/27
 11 12  0  0  0  0  0  0  0  0999 V2000
   36.6092   -8.5996  -37.8256 N   0  0  0  0  0  0  0  0  0  0  0  0
   35.4826   -9.1966  -38.2423 C   0  0  0  0  0  0  0  0  0  0  0  0
   34.5697   -8.4645  -39.0614 N   0  0  0  0  0  0  0  0  0  0  0  0
   35.1990  -10.4596  -37.9067 N   0  0  0  0  0  0  0  0  0  0  0  0
   36.0678  -11.1848  -37.1148 C   0  0  0  0  0  0  0  0  0  0  0  0
   37.2225  -10.5892  -36.6787 C   0  0  0  0  0  0  0  0  0  0  0  0
   37.5103   -9.2352  -37.0497 C   0  0  0  0  0  0  0  0  0  0  0  0
   38.9924   -8.4272  -36.5172 S   0  0  0  0  0  0  0  0  0  0  0  0
   37.9012  -11.5074  -35.9189 N   0  0  0  0  0  0  0  0  0  0  0  0
   37.1730  -12.6540  -35.8867 C   0  0  0  0  0  0  0  0  0  0  0  0
   36.0375  -12.4761  -36.6190 N   0  0  0  0  0  0  0  0  0  0  0  0
  1  2  2  0  0  0  0
  1  7  1  0  0  0  0
  2  3  1  0  0  0  0
  2  4  1  0  0  0  0
  4  5  2  0  0  0  0
  5  6  1  0  0  0  0
  5 11  1  0  0  0  0
  6  7  2  0  0  0  0
  6  9  1  0  0  0  0
  7  8  1  0  0  0  0
  9 10  1  0  0  0  0
 10 11  2  0  0  0  0
M  END
>  <CHROM.1>
36.88809348,-10.02114712,-37.10027393,1.48233665,-0.49382756,-0.37859768

>  <Name>
ligand

>  <RI>
0

>  <Rbt.Current_Directory>
/home/itssahil/PROJECTS/Mol_Feturizer/New_Systems/rnas/3RKF

>  <Rbt.Executable>
rbdock ($Id: //depot/dev/client3/rdock/2013.1/src/exe/rbdock.cxx#4 $)

>  <Rbt.Library>
libRbt.so (2013.1, Build901 2013/11/27)

>  <Rbt.Parameter_File>
/export/apps/rDock/src/rDock_2013.1_src/data/scripts/dock_solv.prm

>  <Rbt.Receptor>
prm/pocket_docking_3.prm

>  <SCORE>
-15.806

>  <SCORE.INTER>
-15.806

>  <SCORE.INTER.CONST>
1

>  <SCORE.INTER.POLAR>
0

>  <SCORE.INTER.ROT>
0

>  <SCORE.INTER.SOLV>
9.38659

>  <SCORE.INTER.VDW>
-17.2662

>  <SCORE.INTER.norm>
-1.43691

>  <SCORE.INTRA>
0

>  <SCORE.INTRA.DIHEDRAL>
0

>  <SCORE.INTRA.DIHEDRAL.0>
0

>  <SCORE.INTRA.POLAR>
0

>  <SCORE.INTRA.POLAR.0>
0

>  <SCORE.INTRA.REPUL>
0

>  <SCORE.INTRA.REPUL.0>
0

>  <SCORE.INTRA.SOLV>
0

>  <SCORE.INTRA.SOLV.lig_0>
-28.6198

>  <SCORE.INTRA.VDW>
0

>  <SCORE.INTRA.VDW.0>
0

>  <SCORE.INTRA.norm>
0

>  <SCORE.RESTR>
0

>  <SCORE.RESTR.CAVITY>
0

>  <SCORE.RESTR.norm>
0

>  <SCORE.SYSTEM>
0

>  <SCORE.SYSTEM.CONST>
0

>  <SCORE.SYSTEM.DIHEDRAL>
0

>  <SCORE.SYSTEM.SOLV>
0

>  <SCORE.SYSTEM.norm>
0

>  <SCORE.heavy>
11

>  <SCORE.norm>
-1.43691

>  <RMSD>
2.892

$$$$
ligand
 OpenBabel11021811483D
libRbt.so/2013.1/901 2013/11/27
 11 12  0  0  0  0  0  0  0  0999 V2000
   36.6140   -8.6013  -37.8236 N   0  0  0  0  0  0  0  0  0  0  0  0
   35.4875   -9.1978  -38.2415 C   0  0  0  0  0  0  0  0  0  0  0  0
   34.5749   -8.4645  -39.0599 N   0  0  0  0  0  0  0  0  0  0  0  0
   35.2039  -10.4612  -37.9079 N   0  0  0  0  0  0  0  0  0  0  0  0
   36.0724  -11.1876  -37.1167 C   0  0  0  0  0  0  0  0  0  0  0  0
   37.2269  -10.5926  -36.6794 C   0  0  0  0  0  0  0  0  0  0  0  0
   37.5148   -9.2380  -37.0483 C   0  0  0  0  0  0  0  0  0  0  0  0
   38.9966   -8.4307  -36.5141 S   0  0  0  0  0  0  0  0  0  0  0  0
   37.9054  -11.5119  -35.9208 N   0  0  0  0  0  0  0  0  0  0  0  0
   37.1773  -12.6586  -35.8905 C   0  0  0  0  0  0  0  0  0  0  0  0
   36.0421  -12.4796  -36.6229 N   0  0  0  0  0  0  0  0  0  0  0  0
  1  2  2  0  0  0  0
  1  7  1  0  0  0  0
  2  3  1  0  0  0  0
  2  4  1  0  0  0  0
  4  5  2  0  0  0  0
  5  6  1  0  0  0  0
  5 11  1  0  0  0  0
  6  7  2  0  0  0  0
  6  9  1  0  0  0  0
  7  8  1  0  0  0  0
  9 10  1  0  0  0  0
 10 11  2  0  0  0  0
M  END
>  <CHROM.1>
36.89266066,-10.02391681,-37.10026393,1.48225484,-0.49415585,-0.37715556

>  <Name>
ligand

>  <RI>
0

>  <Rbt.Current_Directory>
/home/itssahil/PROJECTS/Mol_Feturizer/New_Systems/rnas/3RKF

>  <Rbt.Executable>
rbdock ($Id: //depot/dev/client3/rdock/2013.1/src/exe/rbdock.cxx#4 $)

>  <Rbt.Library>
libRbt.so (2013.1, Build901 2013/11/27)

>  <Rbt.Parameter_File>
/export/apps/rDock/src/rDock_2013.1_src/data/scripts/dock_solv.prm

>  <Rbt.Receptor>
prm/pocket_docking_3.prm

>  <SCORE>
-15.8

>  <SCORE.INTER>
-15.8

>  <SCORE.INTER.CONST>
1

>  <SCORE.INTER.POLAR>
0

>  <SCORE.INTER.ROT>
0

>  <SCORE.INTER.SOLV>
9.39174

>  <SCORE.INTER.VDW>
-17.2639

>  <SCORE.INTER.norm>
-1.43637

>  <SCORE.INTRA>
0

>  <SCORE.INTRA.DIHEDRAL>
0

>  <SCORE.INTRA.DIHEDRAL.0>
0

>  <SCORE.INTRA.POLAR>
0

>  <SCORE.INTRA.POLAR.0>
0

>  <SCORE.INTRA.REPUL>
0

>  <SCORE.INTRA.REPUL.0>
0

>  <SCORE.INTRA.SOLV>
0

>  <SCORE.INTRA.SOLV.lig_0>
-28.6198

>  <SCORE.INTRA.VDW>
0

>  <SCORE.INTRA.VDW.0>
0

>  <SCORE.INTRA.norm>
0

>  <SCORE.RESTR>
0

>  <SCORE.RESTR.CAVITY>
0

>  <SCORE.RESTR.norm>
0

>  <SCORE.SYSTEM>
0

>  <SCORE.SYSTEM.CONST>
0

>  <SCORE.SYSTEM.DIHEDRAL>
0

>  <SCORE.SYSTEM.SOLV>
0

>  <SCORE.SYSTEM.norm>
0

>  <SCORE.heavy>
11

>  <SCORE.norm>
-1.43637

>  <RMSD>
2.892

$$$$
ligand
 OpenBabel11021811483D
libRbt.so/2013.1/901 2013/11/27
 11 12  0  0  0  0  0  0  0  0999 V2000
   36.6477   -8.6303  -37.8780 N   0  0  0  0  0  0  0  0  0  0  0  0
   35.5241   -9.2287  -38.3011 C   0  0  0  0  0  0  0  0  0  0  0  0
   34.6353   -8.5117  -39.1591 N   0  0  0  0  0  0  0  0  0  0  0  0
   35.2216  -10.4791  -37.9363 N   0  0  0  0  0  0  0  0  0  0  0  0
   36.0670  -11.1895  -37.1065 C   0  0  0  0  0  0  0  0  0  0  0  0
   37.2181  -10.5923  -36.6633 C   0  0  0  0  0  0  0  0  0  0  0  0
   37.5265   -9.2519  -37.0660 C   0  0  0  0  0  0  0  0  0  0  0  0
   39.0050   -8.4426  -36.5257 S   0  0  0  0  0  0  0  0  0  0  0  0
   37.8723  -11.4948  -35.8642 N   0  0  0  0  0  0  0  0  0  0  0  0
   37.1326  -12.6334  -35.8151 C   0  0  0  0  0  0  0  0  0  0  0  0
   36.0141  -12.4660  -36.5755 N   0  0  0  0  0  0  0  0  0  0  0  0
  1  2  2  0  0  0  0
  1  7  1  0  0  0  0
  2  3  1  0  0  0  0
  2  4  1  0  0  0  0
  4  5  2  0  0  0  0
  5  6  1  0  0  0  0
  5 11  1  0  0  0  0
  6  7  2  0  0  0  0
  6  9  1  0  0  0  0
  7  8  1  0  0  0  0
  9 10  1  0  0  0  0
 10 11  2  0  0  0  0
M  END
>  <CHROM.1>
36.89792829,-10.03334458,-37.10749694,1.46342996,-0.50925989,-0.41576463

>  <Name>
ligand

>  <RI>
0

>  <Rbt.Current_Directory>
/home/itssahil/PROJECTS/Mol_Feturizer/New_Systems/rnas/3RKF

>  <Rbt.Executable>
rbdock ($Id: //depot/dev/client3/rdock/2013.1/src/exe/rbdock.cxx#4 $)

>  <Rbt.Library>
libRbt.so (2013.1, Build901 2013/11/27)

>  <Rbt.Parameter_File>
/export/apps/rDock/src/rDock_2013.1_src/data/scripts/dock_solv.prm

>  <Rbt.Receptor>
prm/pocket_docking_3.prm

>  <SCORE>
-15.754

>  <SCORE.INTER>
-15.754

>  <SCORE.INTER.CONST>
1

>  <SCORE.INTER.POLAR>
0

>  <SCORE.INTER.ROT>
0

>  <SCORE.INTER.SOLV>
9.90783

>  <SCORE.INTER.VDW>
-17.4053

>  <SCORE.INTER.norm>
-1.43219

>  <SCORE.INTRA>
0

>  <SCORE.INTRA.DIHEDRAL>
0

>  <SCORE.INTRA.DIHEDRAL.0>
0

>  <SCORE.INTRA.POLAR>
0

>  <SCORE.INTRA.POLAR.0>
0

>  <SCORE.INTRA.REPUL>
0

>  <SCORE.INTRA.REPUL.0>
0

>  <SCORE.INTRA.SOLV>
0

>  <SCORE.INTRA.SOLV.lig_0>
-28.6198

>  <SCORE.INTRA.VDW>
0

>  <SCORE.INTRA.VDW.0>
0

>  <SCORE.INTRA.norm>
0

>  <SCORE.RESTR>
2.34401e-05

>  <SCORE.RESTR.CAVITY>
2.34401e-05

>  <SCORE.RESTR.norm>
2.13092e-06

>  <SCORE.SYSTEM>
0

>  <SCORE.SYSTEM.CONST>
0

>  <SCORE.SYSTEM.DIHEDRAL>
0

>  <SCORE.SYSTEM.SOLV>
0

>  <SCORE.SYSTEM.norm>
0

>  <SCORE.heavy>
11

>  <SCORE.norm>
-1.43218

>  <RMSD>
2.892

$$$$
ligand
 OpenBabel11021811483D
libRbt.so/2013.1/901 2013/11/27
 11 12  0  0  0  0  0  0  0  0999 V2000
   36.5920   -8.5671  -37.8400 N   0  0  0  0  0  0  0  0  0  0  0  0
   35.4600   -9.1676  -38.2365 C   0  0  0  0  0  0  0  0  0  0  0  0
   34.5547   -8.4561  -39.0818 N   0  0  0  0  0  0  0  0  0  0  0  0
   35.1641  -10.4152  -37.8570 N   0  0  0  0  0  0  0  0  0  0  0  0
   36.0254  -11.1204  -37.0391 C   0  0  0  0  0  0  0  0  0  0  0  0
   37.1854  -10.5208  -36.6231 C   0  0  0  0  0  0  0  0  0  0  0  0
   37.4864   -9.1835  -37.0412 C   0  0  0  0  0  0  0  0  0  0  0  0
   38.9757   -8.3714  -36.5360 S   0  0  0  0  0  0  0  0  0  0  0  0
   37.8548  -11.4181  -35.8308 N   0  0  0  0  0  0  0  0  0  0  0  0
   37.1157  -12.5559  -35.7591 C   0  0  0  0  0  0  0  0  0  0  0  0
   35.9824  -12.3930  -36.4983 N   0  0  0  0  0  0  0  0  0  0  0  0
  1  2  2  0  0  0  0
  1  7  1  0  0  0  0
  2  3  1  0  0  0  0
  2  4  1  0  0  0  0
  4  5  2  0  0  0  0
  5  6  1  0  0  0  0
  5 11  1  0  0  0  0
  6  7  2  0  0  0  0
  6  9  1  0  0  0  0
  7  8  1  0  0  0  0
  9 10  1  0  0  0  0
 10 11  2  0  0  0  0
M  END
>  <CHROM.1>
36.85673370,-9.96478341,-37.06477918,1.47198637,-0.49089307,-0.41869116

>  <Name>
ligand

>  <RI>
0

>  <Rbt.Current_Directory>
/home/itssahil/PROJECTS/Mol_Feturizer/New_Systems/rnas/3RKF

>  <Rbt.Executable>
rbdock ($Id: //depot/dev/client3/rdock/2013.1/src/exe/rbdock.cxx#4 $)

>  <Rbt.Library>
libRbt.so (2013.1, Build901 2013/11/27)

>  <Rbt.Parameter_File>
/export/apps/rDock/src/rDock_2013.1_src/data/scripts/dock_solv.prm

>  <Rbt.Receptor>
prm/pocket_docking_3.prm

>  <SCORE>
-15.7615

>  <SCORE.INTER>
-15.7619

>  <SCORE.INTER.CONST>
1

>  <SCORE.INTER.POLAR>
0

>  <SCORE.INTER.ROT>
0

>  <SCORE.INTER.SOLV>
9.44001

>  <SCORE.INTER.VDW>
-17.2546

>  <SCORE.INTER.norm>
-1.4329

>  <SCORE.INTRA>
0

>  <SCORE.INTRA.DIHEDRAL>
0

>  <SCORE.INTRA.DIHEDRAL.0>
0

>  <SCORE.INTRA.POLAR>
0

>  <SCORE.INTRA.POLAR.0>
0

>  <SCORE.INTRA.REPUL>
0

>  <SCORE.INTRA.REPUL.0>
0

>  <SCORE.INTRA.SOLV>
0

>  <SCORE.INTRA.SOLV.lig_0>
-28.6198

>  <SCORE.INTRA.VDW>
0

>  <SCORE.INTRA.VDW.0>
0

>  <SCORE.INTRA.norm>
0

>  <SCORE.RESTR>
0.00037322

>  <SCORE.RESTR.CAVITY>
0.00037322

>  <SCORE.RESTR.norm>
3.39291e-05

>  <SCORE.SYSTEM>
0

>  <SCORE.SYSTEM.CONST>
0

>  <SCORE.SYSTEM.DIHEDRAL>
0

>  <SCORE.SYSTEM.SOLV>
0

>  <SCORE.SYSTEM.norm>
0

>  <SCORE.heavy>
11

>  <SCORE.norm>
-1.43286

>  <RMSD>
2.892

$$$$
ligand
 OpenBabel11021811483D
libRbt.so/2013.1/901 2013/11/27
 11 12  0  0  0  0  0  0  0  0999 V2000
   36.6183   -8.5996  -37.8270 N   0  0  0  0  0  0  0  0  0  0  0  0
   35.4927   -9.1974  -38.2454 C   0  0  0  0  0  0  0  0  0  0  0  0
   34.5825   -8.4672  -39.0692 N   0  0  0  0  0  0  0  0  0  0  0  0
   35.2077  -10.4594  -37.9074 N   0  0  0  0  0  0  0  0  0  0  0  0
   36.0739  -11.1828  -37.1109 C   0  0  0  0  0  0  0  0  0  0  0  0
   37.2275  -10.5864  -36.6729 C   0  0  0  0  0  0  0  0  0  0  0  0
   37.5168   -9.2334  -37.0467 C   0  0  0  0  0  0  0  0  0  0  0  0
   38.9975   -8.4244  -36.5119 S   0  0  0  0  0  0  0  0  0  0  0  0
   37.9037  -11.5027  -35.9087 N   0  0  0  0  0  0  0  0  0  0  0  0
   37.1751  -12.6490  -35.8757 C   0  0  0  0  0  0  0  0  0  0  0  0
   36.0418  -12.4727  -36.6119 N   0  0  0  0  0  0  0  0  0  0  0  0
  1  2  2  0  0  0  0
  1  7  1  0  0  0  0
  2  3  1  0  0  0  0
  2  4  1  0  0  0  0
  4  5  2  0  0  0  0
  5  6  1  0  0  0  0
  5 11  1  0  0  0  0
  6  7  2  0  0  0  0
  6  9  1  0  0  0  0
  7  8  1  0  0  0  0
  9 10  1  0  0  0  0
 10 11  2  0  0  0  0
M  END
>  <CHROM.1>
36.89453238,-10.01932026,-37.09704221,1.48077707,-0.49649523,-0.38198124

>  <Name>
ligand

>  <RI>
0

>  <Rbt.Current_Directory>
/home/itssahil/PROJECTS/Mol_Feturizer/New_Systems/rnas/3RKF

>  <Rbt.Executable>
rbdock ($Id: //depot/dev/client3/rdock/2013.1/src/exe/rbdock.cxx#4 $)

>  <Rbt.Library>
libRbt.so (2013.1, Build901 2013/11/27)

>  <Rbt.Parameter_File>
/export/apps/rDock/src/rDock_2013.1_src/data/scripts/dock_solv.prm

>  <Rbt.Receptor>
prm/pocket_docking_3.prm

>  <SCORE>
-15.8212

>  <SCORE.INTER>
-15.8212

>  <SCORE.INTER.CONST>
1

>  <SCORE.INTER.POLAR>
0

>  <SCORE.INTER.ROT>
0

>  <SCORE.INTER.SOLV>
9.43448

>  <SCORE.INTER.VDW>
-17.2923

>  <SCORE.INTER.norm>
-1.43829

>  <SCORE.INTRA>
0

>  <SCORE.INTRA.DIHEDRAL>
0

>  <SCORE.INTRA.DIHEDRAL.0>
0

>  <SCORE.INTRA.POLAR>
0

>  <SCORE.INTRA.POLAR.0>
0

>  <SCORE.INTRA.REPUL>
0

>  <SCORE.INTRA.REPUL.0>
0

>  <SCORE.INTRA.SOLV>
0

>  <SCORE.INTRA.SOLV.lig_0>
-28.6198

>  <SCORE.INTRA.VDW>
0

>  <SCORE.INTRA.VDW.0>
0

>  <SCORE.INTRA.norm>
0

>  <SCORE.RESTR>
0

>  <SCORE.RESTR.CAVITY>
0

>  <SCORE.RESTR.norm>
0

>  <SCORE.SYSTEM>
0

>  <SCORE.SYSTEM.CONST>
0

>  <SCORE.SYSTEM.DIHEDRAL>
0

>  <SCORE.SYSTEM.SOLV>
0

>  <SCORE.SYSTEM.norm>
0

>  <SCORE.heavy>
11

>  <SCORE.norm>
-1.43829

>  <RMSD>
2.892

$$$$
ligand
 OpenBabel11021811483D
libRbt.so/2013.1/901 2013/11/27
 11 12  0  0  0  0  0  0  0  0999 V2000
   36.6177   -8.6119  -37.8529 N   0  0  0  0  0  0  0  0  0  0  0  0
   35.4924   -9.2107  -38.2707 C   0  0  0  0  0  0  0  0  0  0  0  0
   34.5896   -8.4871  -39.1083 N   0  0  0  0  0  0  0  0  0  0  0  0
   35.2010  -10.4675  -37.9195 N   0  0  0  0  0  0  0  0  0  0  0  0
   36.0600  -11.1845  -37.1095 C   0  0  0  0  0  0  0  0  0  0  0  0
   37.2132  -10.5870  -36.6719 C   0  0  0  0  0  0  0  0  0  0  0  0
   37.5095   -9.2396  -37.0599 C   0  0  0  0  0  0  0  0  0  0  0  0
   38.9900   -8.4295  -36.5262 S   0  0  0  0  0  0  0  0  0  0  0  0
   37.8817  -11.4966  -35.8931 N   0  0  0  0  0  0  0  0  0  0  0  0
   37.1488  -12.6399  -35.8507 C   0  0  0  0  0  0  0  0  0  0  0  0
   36.0204  -12.4683  -36.5954 N   0  0  0  0  0  0  0  0  0  0  0  0
  1  2  2  0  0  0  0
  1  7  1  0  0  0  0
  2  3  1  0  0  0  0
  2  4  1  0  0  0  0
  4  5  2  0  0  0  0
  5  6  1  0  0  0  0
  5 11  1  0  0  0  0
  6  7  2  0  0  0  0
  6  9  1  0  0  0  0
  7  8  1  0  0  0  0
  9 10  1  0  0  0  0
 10 11  2  0  0  0  0
M  END
>  <CHROM.1>
36.88468442,-10.02380961,-37.10461789,1.47454842,-0.50047985,-0.39678532

>  <Name>
ligand

>  <RI>
0

>  <Rbt.Current_Directory>
/home/itssahil/PROJECTS/Mol_Feturizer/New_Systems/rnas/3RKF

>  <Rbt.Executable>
rbdock ($Id: //depot/dev/client3/rdock/2013.1/src/exe/rbdock.cxx#4 $)

>  <Rbt.Library>
libRbt.so (2013.1, Build901 2013/11/27)

>  <Rbt.Parameter_File>
/export/apps/rDock/src/rDock_2013.1_src/data/scripts/dock_solv.prm

>  <Rbt.Receptor>
prm/pocket_docking_3.prm

>  <SCORE>
-15.7642

>  <SCORE.INTER>
-15.7642

>  <SCORE.INTER.CONST>
1

>  <SCORE.INTER.POLAR>
0

>  <SCORE.INTER.ROT>
0

>  <SCORE.INTER.SOLV>
9.58571

>  <SCORE.INTER.VDW>
-17.3047

>  <SCORE.INTER.norm>
-1.43311

>  <SCORE.INTRA>
0

>  <SCORE.INTRA.DIHEDRAL>
0

>  <SCORE.INTRA.DIHEDRAL.0>
0

>  <SCORE.INTRA.POLAR>
0

>  <SCORE.INTRA.POLAR.0>
0

>  <SCORE.INTRA.REPUL>
0

>  <SCORE.INTRA.REPUL.0>
0

>  <SCORE.INTRA.SOLV>
0

>  <SCORE.INTRA.SOLV.lig_0>
-28.6198

>  <SCORE.INTRA.VDW>
0

>  <SCORE.INTRA.VDW.0>
0

>  <SCORE.INTRA.norm>
0

>  <SCORE.RESTR>
0

>  <SCORE.RESTR.CAVITY>
0

>  <SCORE.RESTR.norm>
0

>  <SCORE.SYSTEM>
0

>  <SCORE.SYSTEM.CONST>
0

>  <SCORE.SYSTEM.DIHEDRAL>
0

>  <SCORE.SYSTEM.SOLV>
0

>  <SCORE.SYSTEM.norm>
0

>  <SCORE.heavy>
11

>  <SCORE.norm>
-1.43311

>  <RMSD>
2.892

$$$$
ligand
 OpenBabel11021811483D
libRbt.so/2013.1/901 2013/11/27
 11 12  0  0  0  0  0  0  0  0999 V2000
   36.5917   -8.5919  -37.8405 N   0  0  0  0  0  0  0  0  0  0  0  0
   35.4704   -9.1976  -38.2593 C   0  0  0  0  0  0  0  0  0  0  0  0
   34.5607   -8.4774  -39.0923 N   0  0  0  0  0  0  0  0  0  0  0  0
   35.1894  -10.4582  -37.9131 N   0  0  0  0  0  0  0  0  0  0  0  0
   36.0553  -11.1720  -37.1076 C   0  0  0  0  0  0  0  0  0  0  0  0
   37.2044  -10.5675  -36.6692 C   0  0  0  0  0  0  0  0  0  0  0  0
   37.4896   -9.2161  -37.0517 C   0  0  0  0  0  0  0  0  0  0  0  0
   38.9645   -8.3968  -36.5167 S   0  0  0  0  0  0  0  0  0  0  0  0
   37.8812  -11.4753  -35.8954 N   0  0  0  0  0  0  0  0  0  0  0  0
   37.1573  -12.6244  -35.8570 C   0  0  0  0  0  0  0  0  0  0  0  0
   36.0265  -12.4584  -36.5992 N   0  0  0  0  0  0  0  0  0  0  0  0
  1  2  2  0  0  0  0
  1  7  1  0  0  0  0
  2  3  1  0  0  0  0
  2  4  1  0  0  0  0
  4  5  2  0  0  0  0
  5  6  1  0  0  0  0
  5 11  1  0  0  0  0
  6  7  2  0  0  0  0
  6  9  1  0  0  0  0
  7  8  1  0  0  0  0
  9 10  1  0  0  0  0
 10 11  2  0  0  0  0
M  END
>  <CHROM.1>
36.87083917,-10.00498886,-37.09890361,1.48345400,-0.50203555,-0.38807828

>  <Name>
ligand

>  <RI>
0

>  <Rbt.Current_Directory>
/home/itssahil/PROJECTS/Mol_Feturizer/New_Systems/rnas/3RKF

>  <Rbt.Executable>
rbdock ($Id: //depot/dev/client3/rdock/2013.1/src/exe/rbdock.cxx#4 $)

>  <Rbt.Library>
libRbt.so (2013.1, Build901 2013/11/27)

>  <Rbt.Parameter_File>
/export/apps/rDock/src/rDock_2013.1_src/data/scripts/dock_solv.prm

>  <Rbt.Receptor>
prm/pocket_docking_3.prm

>  <SCORE>
-15.7757

>  <SCORE.INTER>
-15.7757

>  <SCORE.INTER.CONST>
1

>  <SCORE.INTER.POLAR>
0

>  <SCORE.INTER.ROT>
0

>  <SCORE.INTER.SOLV>
9.45515

>  <SCORE.INTER.VDW>
-17.2689

>  <SCORE.INTER.norm>
-1.43416

>  <SCORE.INTRA>
0

>  <SCORE.INTRA.DIHEDRAL>
0

>  <SCORE.INTRA.DIHEDRAL.0>
0

>  <SCORE.INTRA.POLAR>
0

>  <SCORE.INTRA.POLAR.0>
0

>  <SCORE.INTRA.REPUL>
0

>  <SCORE.INTRA.REPUL.0>
0

>  <SCORE.INTRA.SOLV>
0

>  <SCORE.INTRA.SOLV.lig_0>
-28.6198

>  <SCORE.INTRA.VDW>
0

>  <SCORE.INTRA.VDW.0>
0

>  <SCORE.INTRA.norm>
0

>  <SCORE.RESTR>
0

>  <SCORE.RESTR.CAVITY>
0

>  <SCORE.RESTR.norm>
0

>  <SCORE.SYSTEM>
0

>  <SCORE.SYSTEM.CONST>
0

>  <SCORE.SYSTEM.DIHEDRAL>
0

>  <SCORE.SYSTEM.SOLV>
0

>  <SCORE.SYSTEM.norm>
0

>  <SCORE.heavy>
11

>  <SCORE.norm>
-1.43416

>  <RMSD>
2.892

$$$$
ligand
 OpenBabel11021811483D
libRbt.so/2013.1/901 2013/11/27
 11 12  0  0  0  0  0  0  0  0999 V2000
   36.6162   -8.6003  -37.8256 N   0  0  0  0  0  0  0  0  0  0  0  0
   35.4921   -9.1998  -38.2454 C   0  0  0  0  0  0  0  0  0  0  0  0
   34.5815   -8.4709  -39.0700 N   0  0  0  0  0  0  0  0  0  0  0  0
   35.2088  -10.4624  -37.9080 N   0  0  0  0  0  0  0  0  0  0  0  0
   36.0754  -11.1845  -37.1108 C   0  0  0  0  0  0  0  0  0  0  0  0
   37.2275  -10.5863  -36.6715 C   0  0  0  0  0  0  0  0  0  0  0  0
   37.5150   -9.2328  -37.0446 C   0  0  0  0  0  0  0  0  0  0  0  0
   38.9938   -8.4215  -36.5080 S   0  0  0  0  0  0  0  0  0  0  0  0
   37.9044  -11.5018  -35.9069 N   0  0  0  0  0  0  0  0  0  0  0  0
   37.1776  -12.6493  -35.8749 C   0  0  0  0  0  0  0  0  0  0  0  0
   36.0448  -12.4747  -36.6122 N   0  0  0  0  0  0  0  0  0  0  0  0
  1  2  2  0  0  0  0
  1  7  1  0  0  0  0
  2  3  1  0  0  0  0
  2  4  1  0  0  0  0
  4  5  2  0  0  0  0
  5  6  1  0  0  0  0
  5 11  1  0  0  0  0
  6  7  2  0  0  0  0
  6  9  1  0  0  0  0
  7  8  1  0  0  0  0
  9 10  1  0  0  0  0
 10 11  2  0  0  0  0
M  END
>  <CHROM.1>
36.89404489,-10.01974005,-37.09580619,1.48205992,-0.49807675,-0.38109903

>  <Name>
ligand

>  <RI>
0

>  <Rbt.Current_Directory>
/home/itssahil/PROJECTS/Mol_Feturizer/New_Systems/rnas/3RKF

>  <Rbt.Executable>
rbdock ($Id: //depot/dev/client3/rdock/2013.1/src/exe/rbdock.cxx#4 $)

>  <Rbt.Library>
libRbt.so (2013.1, Build901 2013/11/27)

>  <Rbt.Parameter_File>
/export/apps/rDock/src/rDock_2013.1_src/data/scripts/dock_solv.prm

>  <Rbt.Receptor>
prm/pocket_docking_5.prm

>  <SCORE>
-15.8225

>  <SCORE.INTER>
-15.8225

>  <SCORE.INTER.CONST>
1

>  <SCORE.INTER.POLAR>
0

>  <SCORE.INTER.ROT>
0

>  <SCORE.INTER.SOLV>
9.43595

>  <SCORE.INTER.VDW>
-17.2937

>  <SCORE.INTER.norm>
-1.43841

>  <SCORE.INTRA>
0

>  <SCORE.INTRA.DIHEDRAL>
0

>  <SCORE.INTRA.DIHEDRAL.0>
0

>  <SCORE.INTRA.POLAR>
0

>  <SCORE.INTRA.POLAR.0>
0

>  <SCORE.INTRA.REPUL>
0

>  <SCORE.INTRA.REPUL.0>
0

>  <SCORE.INTRA.SOLV>
0

>  <SCORE.INTRA.SOLV.lig_0>
-28.6198

>  <SCORE.INTRA.VDW>
0

>  <SCORE.INTRA.VDW.0>
0

>  <SCORE.INTRA.norm>
0

>  <SCORE.RESTR>
0

>  <SCORE.RESTR.CAVITY>
0

>  <SCORE.RESTR.norm>
0

>  <SCORE.SYSTEM>
0

>  <SCORE.SYSTEM.CONST>
0

>  <SCORE.SYSTEM.DIHEDRAL>
0

>  <SCORE.SYSTEM.SOLV>
0

>  <SCORE.SYSTEM.norm>
0

>  <SCORE.heavy>
11

>  <SCORE.norm>
-1.43841

>  <RMSD>
2.892

$$$$
ligand
 OpenBabel11021811483D
libRbt.so/2013.1/901 2013/11/27
 11 12  0  0  0  0  0  0  0  0999 V2000
   36.6172   -8.5949  -37.8385 N   0  0  0  0  0  0  0  0  0  0  0  0
   35.4929   -9.1983  -38.2522 C   0  0  0  0  0  0  0  0  0  0  0  0
   34.5772   -8.4740  -39.0751 N   0  0  0  0  0  0  0  0  0  0  0  0
   35.2141  -10.4606  -37.9101 N   0  0  0  0  0  0  0  0  0  0  0  0
   36.0856  -11.1784  -37.1143 C   0  0  0  0  0  0  0  0  0  0  0  0
   37.2380  -10.5761  -36.6813 C   0  0  0  0  0  0  0  0  0  0  0  0
   37.5207   -9.2230  -37.0593 C   0  0  0  0  0  0  0  0  0  0  0  0
   38.9996   -8.4065  -36.5310 S   0  0  0  0  0  0  0  0  0  0  0  0
   37.9201  -11.4878  -35.9168 N   0  0  0  0  0  0  0  0  0  0  0  0
   37.1964  -12.6370  -35.8787 C   0  0  0  0  0  0  0  0  0  0  0  0
   36.0602  -12.4672  -36.6119 N   0  0  0  0  0  0  0  0  0  0  0  0
  1  2  2  0  0  0  0
  1  7  1  0  0  0  0
  2  3  1  0  0  0  0
  2  4  1  0  0  0  0
  4  5  2  0  0  0  0
  5  6  1  0  0  0  0
  5 11  1  0  0  0  0
  6  7  2  0  0  0  0
  6  9  1  0  0  0  0
  7  8  1  0  0  0  0
  9 10  1  0  0  0  0
 10 11  2  0  0  0  0
M  END
>  <CHROM.1>
36.90143758,-10.01154964,-37.10584855,1.48635470,-0.49528825,-0.38186334

>  <Name>
ligand

>  <RI>
0

>  <Rbt.Current_Directory>
/home/itssahil/PROJECTS/Mol_Feturizer/New_Systems/rnas/3RKF

>  <Rbt.Executable>
rbdock ($Id: //depot/dev/client3/rdock/2013.1/src/exe/rbdock.cxx#4 $)

>  <Rbt.Library>
libRbt.so (2013.1, Build901 2013/11/27)

>  <Rbt.Parameter_File>
/export/apps/rDock/src/rDock_2013.1_src/data/scripts/dock_solv.prm

>  <Rbt.Receptor>
prm/pocket_docking_5.prm

>  <SCORE>
-15.7718

>  <SCORE.INTER>
-15.7718

>  <SCORE.INTER.CONST>
1

>  <SCORE.INTER.POLAR>
0

>  <SCORE.INTER.ROT>
0

>  <SCORE.INTER.SOLV>
9.45246

>  <SCORE.INTER.VDW>
-17.2654

>  <SCORE.INTER.norm>
-1.4338

>  <SCORE.INTRA>
0

>  <SCORE.INTRA.DIHEDRAL>
0

>  <SCORE.INTRA.DIHEDRAL.0>
0

>  <SCORE.INTRA.POLAR>
0

>  <SCORE.INTRA.POLAR.0>
0

>  <SCORE.INTRA.REPUL>
0

>  <SCORE.INTRA.REPUL.0>
0

>  <SCORE.INTRA.SOLV>
0

>  <SCORE.INTRA.SOLV.lig_0>
-28.6198

>  <SCORE.INTRA.VDW>
0

>  <SCORE.INTRA.VDW.0>
0

>  <SCORE.INTRA.norm>
0

>  <SCORE.RESTR>
0

>  <SCORE.RESTR.CAVITY>
0

>  <SCORE.RESTR.norm>
0

>  <SCORE.SYSTEM>
0

>  <SCORE.SYSTEM.CONST>
0

>  <SCORE.SYSTEM.DIHEDRAL>
0

>  <SCORE.SYSTEM.SOLV>
0

>  <SCORE.SYSTEM.norm>
0

>  <SCORE.heavy>
11

>  <SCORE.norm>
-1.4338

>  <RMSD>
2.892

$$$$
ligand
 OpenBabel11021811483D
libRbt.so/2013.1/901 2013/11/27
 11 12  0  0  0  0  0  0  0  0999 V2000
   36.6171   -8.5996  -37.8246 N   0  0  0  0  0  0  0  0  0  0  0  0
   35.4918   -9.1980  -38.2428 C   0  0  0  0  0  0  0  0  0  0  0  0
   34.5811   -8.4683  -39.0665 N   0  0  0  0  0  0  0  0  0  0  0  0
   35.2075  -10.4601  -37.9046 N   0  0  0  0  0  0  0  0  0  0  0  0
   36.0741  -11.1830  -37.1081 C   0  0  0  0  0  0  0  0  0  0  0  0
   37.2275  -10.5860  -36.6704 C   0  0  0  0  0  0  0  0  0  0  0  0
   37.5161   -9.2329  -37.0444 C   0  0  0  0  0  0  0  0  0  0  0  0
   38.9965   -8.4232  -36.5099 S   0  0  0  0  0  0  0  0  0  0  0  0
   37.9042  -11.5020  -35.9063 N   0  0  0  0  0  0  0  0  0  0  0  0
   37.1761  -12.6486  -35.8730 C   0  0  0  0  0  0  0  0  0  0  0  0
   36.0427  -12.4729  -36.6090 N   0  0  0  0  0  0  0  0  0  0  0  0
  1  2  2  0  0  0  0
  1  7  1  0  0  0  0
  2  3  1  0  0  0  0
  2  4  1  0  0  0  0
  4  5  2  0  0  0  0
  5  6  1  0  0  0  0
  5 11  1  0  0  0  0
  6  7  2  0  0  0  0
  6  9  1  0  0  0  0
  7  8  1  0  0  0  0
  9 10  1  0  0  0  0
 10 11  2  0  0  0  0
M  END
>  <CHROM.1>
36.89417981,-10.01913852,-37.09455031,1.48132807,-0.49651538,-0.38182491

>  <Name>
ligand

>  <RI>
0

>  <Rbt.Current_Directory>
/home/itssahil/PROJECTS/Mol_Feturizer/New_Systems/rnas/3RKF

>  <Rbt.Executable>
rbdock ($Id: //depot/dev/client3/rdock/2013.1/src/exe/rbdock.cxx#4 $)

>  <Rbt.Library>
libRbt.so (2013.1, Build901 2013/11/27)

>  <Rbt.Parameter_File>
/export/apps/rDock/src/rDock_2013.1_src/data/scripts/dock_solv.prm

>  <Rbt.Receptor>
prm/pocket_docking_5.prm

>  <SCORE>
-15.8227

>  <SCORE.INTER>
-15.8227

>  <SCORE.INTER.CONST>
1

>  <SCORE.INTER.POLAR>
0

>  <SCORE.INTER.ROT>
0

>  <SCORE.INTER.SOLV>
9.42636

>  <SCORE.INTER.VDW>
-17.2906

>  <SCORE.INTER.norm>
-1.43842

>  <SCORE.INTRA>
0

>  <SCORE.INTRA.DIHEDRAL>
0

>  <SCORE.INTRA.DIHEDRAL.0>
0

>  <SCORE.INTRA.POLAR>
0

>  <SCORE.INTRA.POLAR.0>
0

>  <SCORE.INTRA.REPUL>
0

>  <SCORE.INTRA.REPUL.0>
0

>  <SCORE.INTRA.SOLV>
0

>  <SCORE.INTRA.SOLV.lig_0>
-28.6198

>  <SCORE.INTRA.VDW>
0

>  <SCORE.INTRA.VDW.0>
0

>  <SCORE.INTRA.norm>
0

>  <SCORE.RESTR>
0

>  <SCORE.RESTR.CAVITY>
0

>  <SCORE.RESTR.norm>
0

>  <SCORE.SYSTEM>
0

>  <SCORE.SYSTEM.CONST>
0

>  <SCORE.SYSTEM.DIHEDRAL>
0

>  <SCORE.SYSTEM.SOLV>
0

>  <SCORE.SYSTEM.norm>
0

>  <SCORE.heavy>
11

>  <SCORE.norm>
-1.43842

>  <RMSD>
2.892

$$$$
ligand
 OpenBabel11021811483D
libRbt.so/2013.1/901 2013/11/27
 11 12  0  0  0  0  0  0  0  0999 V2000
   36.6661   -8.6433  -37.9088 N   0  0  0  0  0  0  0  0  0  0  0  0
   35.5571   -9.2551  -38.3505 C   0  0  0  0  0  0  0  0  0  0  0  0
   34.6701   -8.5460  -39.2170 N   0  0  0  0  0  0  0  0  0  0  0  0
   35.2673  -10.5116  -37.9966 N   0  0  0  0  0  0  0  0  0  0  0  0
   36.1111  -11.2146  -37.1589 C   0  0  0  0  0  0  0  0  0  0  0  0
   37.2476  -10.6037  -36.6968 C   0  0  0  0  0  0  0  0  0  0  0  0
   37.5425   -9.2569  -37.0881 C   0  0  0  0  0  0  0  0  0  0  0  0
   39.0018   -8.4299  -36.5232 S   0  0  0  0  0  0  0  0  0  0  0  0
   37.9034  -11.5013  -35.8936 N   0  0  0  0  0  0  0  0  0  0  0  0
   37.1793  -12.6504  -35.8607 C   0  0  0  0  0  0  0  0  0  0  0  0
   36.0691  -12.4945  -36.6355 N   0  0  0  0  0  0  0  0  0  0  0  0
  1  2  2  0  0  0  0
  1  7  1  0  0  0  0
  2  3  1  0  0  0  0
  2  4  1  0  0  0  0
  4  5  2  0  0  0  0
  5  6  1  0  0  0  0
  5 11  1  0  0  0  0
  6  7  2  0  0  0  0
  6  9  1  0  0  0  0
  7  8  1  0  0  0  0
  9 10  1  0  0  0  0
 10 11  2  0  0  0  0
M  END
>  <CHROM.1>
36.92562514,-10.04686257,-37.14241905,1.47199288,-0.52748652,-0.40614125

>  <Name>
ligand

>  <RI>
0

>  <Rbt.Current_Directory>
/home/itssahil/PROJECTS/Mol_Feturizer/New_Systems/rnas/3RKF

>  <Rbt.Executable>
rbdock ($Id: //depot/dev/client3/rdock/2013.1/src/exe/rbdock.cxx#4 $)

>  <Rbt.Library>
libRbt.so (2013.1, Build901 2013/11/27)

>  <Rbt.Parameter_File>
/export/apps/rDock/src/rDock_2013.1_src/data/scripts/dock_solv.prm

>  <Rbt.Receptor>
prm/pocket_docking_5.prm

>  <SCORE>
-15.7111

>  <SCORE.INTER>
-15.7111

>  <SCORE.INTER.CONST>
1

>  <SCORE.INTER.POLAR>
0

>  <SCORE.INTER.ROT>
0

>  <SCORE.INTER.SOLV>
10.2452

>  <SCORE.INTER.VDW>
-17.4892

>  <SCORE.INTER.norm>
-1.42829

>  <SCORE.INTRA>
0

>  <SCORE.INTRA.DIHEDRAL>
0

>  <SCORE.INTRA.DIHEDRAL.0>
0

>  <SCORE.INTRA.POLAR>
0

>  <SCORE.INTRA.POLAR.0>
0

>  <SCORE.INTRA.REPUL>
0

>  <SCORE.INTRA.REPUL.0>
0

>  <SCORE.INTRA.SOLV>
0

>  <SCORE.INTRA.SOLV.lig_0>
-28.6198

>  <SCORE.INTRA.VDW>
0

>  <SCORE.INTRA.VDW.0>
0

>  <SCORE.INTRA.norm>
0

>  <SCORE.RESTR>
0

>  <SCORE.RESTR.CAVITY>
0

>  <SCORE.RESTR.norm>
0

>  <SCORE.SYSTEM>
0

>  <SCORE.SYSTEM.CONST>
0

>  <SCORE.SYSTEM.DIHEDRAL>
0

>  <SCORE.SYSTEM.SOLV>
0

>  <SCORE.SYSTEM.norm>
0

>  <SCORE.heavy>
11

>  <SCORE.norm>
-1.42829

>  <RMSD>
2.892

$$$$
ligand
 OpenBabel11021811483D
libRbt.so/2013.1/901 2013/11/27
 11 12  0  0  0  0  0  0  0  0999 V2000
   36.5950   -8.5896  -37.8502 N   0  0  0  0  0  0  0  0  0  0  0  0
   35.4735   -9.1981  -38.2642 C   0  0  0  0  0  0  0  0  0  0  0  0
   34.5581   -8.4799  -39.0928 N   0  0  0  0  0  0  0  0  0  0  0  0
   35.1973  -10.4596  -37.9173 N   0  0  0  0  0  0  0  0  0  0  0  0
   36.0687  -11.1714  -37.1161 C   0  0  0  0  0  0  0  0  0  0  0  0
   37.2182  -10.5640  -36.6826 C   0  0  0  0  0  0  0  0  0  0  0  0
   37.4981   -9.2118  -37.0658 C   0  0  0  0  0  0  0  0  0  0  0  0
   38.9733   -8.3888  -36.5370 S   0  0  0  0  0  0  0  0  0  0  0  0
   37.9008  -11.4704  -35.9122 N   0  0  0  0  0  0  0  0  0  0  0  0
   37.1802  -12.6214  -35.8710 C   0  0  0  0  0  0  0  0  0  0  0  0
   36.0456  -12.4581  -36.6081 N   0  0  0  0  0  0  0  0  0  0  0  0
  1  2  2  0  0  0  0
  1  7  1  0  0  0  0
  2  3  1  0  0  0  0
  2  4  1  0  0  0  0
  4  5  2  0  0  0  0
  5  6  1  0  0  0  0
  5 11  1  0  0  0  0
  6  7  2  0  0  0  0
  6  9  1  0  0  0  0
  7  8  1  0  0  0  0
  9 10  1  0  0  0  0
 10 11  2  0  0  0  0
M  END
>  <CHROM.1>
36.88122660,-10.00226848,-37.11051739,1.48816497,-0.49885269,-0.38540006

>  <Name>
ligand

>  <RI>
0

>  <Rbt.Current_Directory>
/home/itssahil/PROJECTS/Mol_Feturizer/New_Systems/rnas/3RKF

>  <Rbt.Executable>
rbdock ($Id: //depot/dev/client3/rdock/2013.1/src/exe/rbdock.cxx#4 $)

>  <Rbt.Library>
libRbt.so (2013.1, Build901 2013/11/27)

>  <Rbt.Parameter_File>
/export/apps/rDock/src/rDock_2013.1_src/data/scripts/dock_solv.prm

>  <Rbt.Receptor>
prm/pocket_docking_5.prm

>  <SCORE>
-15.7909

>  <SCORE.INTER>
-15.7909

>  <SCORE.INTER.CONST>
1

>  <SCORE.INTER.POLAR>
0

>  <SCORE.INTER.ROT>
0

>  <SCORE.INTER.SOLV>
9.46106

>  <SCORE.INTER.VDW>
-17.281

>  <SCORE.INTER.norm>
-1.43554

>  <SCORE.INTRA>
0

>  <SCORE.INTRA.DIHEDRAL>
0

>  <SCORE.INTRA.DIHEDRAL.0>
0

>  <SCORE.INTRA.POLAR>
0

>  <SCORE.INTRA.POLAR.0>
0

>  <SCORE.INTRA.REPUL>
0

>  <SCORE.INTRA.REPUL.0>
0

>  <SCORE.INTRA.SOLV>
0

>  <SCORE.INTRA.SOLV.lig_0>
-28.6198

>  <SCORE.INTRA.VDW>
0

>  <SCORE.INTRA.VDW.0>
0

>  <SCORE.INTRA.norm>
0

>  <SCORE.RESTR>
0

>  <SCORE.RESTR.CAVITY>
0

>  <SCORE.RESTR.norm>
0

>  <SCORE.SYSTEM>
0

>  <SCORE.SYSTEM.CONST>
0

>  <SCORE.SYSTEM.DIHEDRAL>
0

>  <SCORE.SYSTEM.SOLV>
0

>  <SCORE.SYSTEM.norm>
0

>  <SCORE.heavy>
11

>  <SCORE.norm>
-1.43554

>  <RMSD>
2.892

$$$$
ligand
 OpenBabel11021811483D
libRbt.so/2013.1/901 2013/11/27
 11 12  0  0  0  0  0  0  0  0999 V2000
   36.6042   -8.5897  -37.8492 N   0  0  0  0  0  0  0  0  0  0  0  0
   35.4888   -9.2019  -38.2740 C   0  0  0  0  0  0  0  0  0  0  0  0
   34.5791   -8.4868  -39.1115 N   0  0  0  0  0  0  0  0  0  0  0  0
   35.2133  -10.4643  -37.9296 N   0  0  0  0  0  0  0  0  0  0  0  0
   36.0792  -11.1732  -37.1199 C   0  0  0  0  0  0  0  0  0  0  0  0
   37.2224  -10.5620  -36.6753 C   0  0  0  0  0  0  0  0  0  0  0  0
   37.5017   -9.2089  -37.0559 C   0  0  0  0  0  0  0  0  0  0  0  0
   38.9690   -8.3811  -36.5130 S   0  0  0  0  0  0  0  0  0  0  0  0
   37.9005  -11.4661  -35.8983 N   0  0  0  0  0  0  0  0  0  0  0  0
   37.1832  -12.6195  -35.8639 C   0  0  0  0  0  0  0  0  0  0  0  0
   36.0553  -12.4598  -36.6120 N   0  0  0  0  0  0  0  0  0  0  0  0
  1  2  2  0  0  0  0
  1  7  1  0  0  0  0
  2  3  1  0  0  0  0
  2  4  1  0  0  0  0
  4  5  2  0  0  0  0
  5  6  1  0  0  0  0
  5 11  1  0  0  0  0
  6  7  2  0  0  0  0
  6  9  1  0  0  0  0
  7  8  1  0  0  0  0
  9 10  1  0  0  0  0
 10 11  2  0  0  0  0
M  END
>  <CHROM.1>
36.88781967,-10.00139479,-37.10657034,1.48742499,-0.50906837,-0.38586351

>  <Name>
ligand

>  <RI>
0

>  <Rbt.Current_Directory>
/home/itssahil/PROJECTS/Mol_Feturizer/New_Systems/rnas/3RKF

>  <Rbt.Executable>
rbdock ($Id: //depot/dev/client3/rdock/2013.1/src/exe/rbdock.cxx#4 $)

>  <Rbt.Library>
libRbt.so (2013.1, Build901 2013/11/27)

>  <Rbt.Parameter_File>
/export/apps/rDock/src/rDock_2013.1_src/data/scripts/dock_solv.prm

>  <Rbt.Receptor>
prm/pocket_docking_5.prm

>  <SCORE>
-15.7803

>  <SCORE.INTER>
-15.7803

>  <SCORE.INTER.CONST>
1

>  <SCORE.INTER.POLAR>
0

>  <SCORE.INTER.ROT>
0

>  <SCORE.INTER.SOLV>
9.55347

>  <SCORE.INTER.VDW>
-17.3047

>  <SCORE.INTER.norm>
-1.43457

>  <SCORE.INTRA>
0

>  <SCORE.INTRA.DIHEDRAL>
0

>  <SCORE.INTRA.DIHEDRAL.0>
0

>  <SCORE.INTRA.POLAR>
0

>  <SCORE.INTRA.POLAR.0>
0

>  <SCORE.INTRA.REPUL>
0

>  <SCORE.INTRA.REPUL.0>
0

>  <SCORE.INTRA.SOLV>
0

>  <SCORE.INTRA.SOLV.lig_0>
-28.6198

>  <SCORE.INTRA.VDW>
0

>  <SCORE.INTRA.VDW.0>
0

>  <SCORE.INTRA.norm>
0

>  <SCORE.RESTR>
0

>  <SCORE.RESTR.CAVITY>
0

>  <SCORE.RESTR.norm>
0

>  <SCORE.SYSTEM>
0

>  <SCORE.SYSTEM.CONST>
0

>  <SCORE.SYSTEM.DIHEDRAL>
0

>  <SCORE.SYSTEM.SOLV>
0

>  <SCORE.SYSTEM.norm>
0

>  <SCORE.heavy>
11

>  <SCORE.norm>
-1.43457

>  <RMSD>
2.892

$$$$
ligand
 OpenBabel11021811483D
libRbt.so/2013.1/901 2013/11/27
 11 12  0  0  0  0  0  0  0  0999 V2000
   36.6025   -8.5822  -37.8564 N   0  0  0  0  0  0  0  0  0  0  0  0
   35.4867   -9.1985  -38.2742 C   0  0  0  0  0  0  0  0  0  0  0  0
   34.5742   -8.4903  -39.1145 N   0  0  0  0  0  0  0  0  0  0  0  0
   35.2135  -10.4587  -37.9203 N   0  0  0  0  0  0  0  0  0  0  0  0
   36.0821  -11.1610  -37.1076 C   0  0  0  0  0  0  0  0  0  0  0  0
   37.2257  -10.5454  -36.6701 C   0  0  0  0  0  0  0  0  0  0  0  0
   37.5025   -9.1947  -37.0609 C   0  0  0  0  0  0  0  0  0  0  0  0
   38.9702   -8.3615  -36.5274 S   0  0  0  0  0  0  0  0  0  0  0  0
   37.9066  -11.4432  -35.8883 N   0  0  0  0  0  0  0  0  0  0  0  0
   37.1907  -12.5971  -35.8442 C   0  0  0  0  0  0  0  0  0  0  0  0
   36.0608  -12.4440  -36.5906 N   0  0  0  0  0  0  0  0  0  0  0  0
  1  2  2  0  0  0  0
  1  7  1  0  0  0  0
  2  3  1  0  0  0  0
  2  4  1  0  0  0  0
  4  5  2  0  0  0  0
  5  6  1  0  0  0  0
  5 11  1  0  0  0  0
  6  7  2  0  0  0  0
  6  9  1  0  0  0  0
  7  8  1  0  0  0  0
  9 10  1  0  0  0  0
 10 11  2  0  0  0  0
M  END
>  <CHROM.1>
36.88943794,-9.98822040,-37.10452268,1.48963657,-0.50727427,-0.39184389

>  <Name>
ligand

>  <RI>
0

>  <Rbt.Current_Directory>
/home/itssahil/PROJECTS/Mol_Feturizer/New_Systems/rnas/3RKF

>  <Rbt.Executable>
rbdock ($Id: //depot/dev/client3/rdock/2013.1/src/exe/rbdock.cxx#4 $)

>  <Rbt.Library>
libRbt.so (2013.1, Build901 2013/11/27)

>  <Rbt.Parameter_File>
/export/apps/rDock/src/rDock_2013.1_src/data/scripts/dock_solv.prm

>  <Rbt.Receptor>
prm/pocket_docking_5.prm

>  <SCORE>
-15.7536

>  <SCORE.INTER>
-15.7536

>  <SCORE.INTER.CONST>
1

>  <SCORE.INTER.POLAR>
0

>  <SCORE.INTER.ROT>
0

>  <SCORE.INTER.SOLV>
9.56559

>  <SCORE.INTER.VDW>
-17.2909

>  <SCORE.INTER.norm>
-1.43214

>  <SCORE.INTRA>
0

>  <SCORE.INTRA.DIHEDRAL>
0

>  <SCORE.INTRA.DIHEDRAL.0>
0

>  <SCORE.INTRA.POLAR>
0

>  <SCORE.INTRA.POLAR.0>
0

>  <SCORE.INTRA.REPUL>
0

>  <SCORE.INTRA.REPUL.0>
0

>  <SCORE.INTRA.SOLV>
0

>  <SCORE.INTRA.SOLV.lig_0>
-28.6198

>  <SCORE.INTRA.VDW>
0

>  <SCORE.INTRA.VDW.0>
0

>  <SCORE.INTRA.norm>
0

>  <SCORE.RESTR>
0

>  <SCORE.RESTR.CAVITY>
0

>  <SCORE.RESTR.norm>
0

>  <SCORE.SYSTEM>
0

>  <SCORE.SYSTEM.CONST>
0

>  <SCORE.SYSTEM.DIHEDRAL>
0

>  <SCORE.SYSTEM.SOLV>
0

>  <SCORE.SYSTEM.norm>
0

>  <SCORE.heavy>
11

>  <SCORE.norm>
-1.43214

>  <RMSD>
2.892

$$$$
ligand
 OpenBabel11021811483D
libRbt.so/2013.1/901 2013/11/27
 11 12  0  0  0  0  0  0  0  0999 V2000
   36.6501   -8.6238  -37.8644 N   0  0  0  0  0  0  0  0  0  0  0  0
   35.5295   -9.2264  -38.2893 C   0  0  0  0  0  0  0  0  0  0  0  0
   34.6299   -8.5061  -39.1333 N   0  0  0  0  0  0  0  0  0  0  0  0
   35.2398  -10.4840  -37.9392 N   0  0  0  0  0  0  0  0  0  0  0  0
   36.0957  -11.1977  -37.1232 C   0  0  0  0  0  0  0  0  0  0  0  0
   37.2440  -10.5963  -36.6784 C   0  0  0  0  0  0  0  0  0  0  0  0
   37.5386   -9.2482  -37.0652 C   0  0  0  0  0  0  0  0  0  0  0  0
   39.0130   -8.4331  -36.5223 S   0  0  0  0  0  0  0  0  0  0  0  0
   37.9102  -11.5034  -35.8946 N   0  0  0  0  0  0  0  0  0  0  0  0
   37.1808  -12.6490  -35.8564 C   0  0  0  0  0  0  0  0  0  0  0  0
   36.0568  -12.4814  -36.6087 N   0  0  0  0  0  0  0  0  0  0  0  0
  1  2  2  0  0  0  0
  1  7  1  0  0  0  0
  2  3  1  0  0  0  0
  2  4  1  0  0  0  0
  4  5  2  0  0  0  0
  5  6  1  0  0  0  0
  5 11  1  0  0  0  0
  6  7  2  0  0  0  0
  6  9  1  0  0  0  0
  7  8  1  0  0  0  0
  9 10  1  0  0  0  0
 10 11  2  0  0  0  0
M  END
>  <CHROM.1>
36.91662239,-10.03445896,-37.11358484,1.47497961,-0.50778208,-0.39715547

>  <Name>
ligand

>  <RI>
0

>  <Rbt.Current_Directory>
/home/itssahil/PROJECTS/Mol_Feturizer/New_Systems/rnas/3RKF

>  <Rbt.Executable>
rbdock ($Id: //depot/dev/client3/rdock/2013.1/src/exe/rbdock.cxx#4 $)

>  <Rbt.Library>
libRbt.so (2013.1, Build901 2013/11/27)

>  <Rbt.Parameter_File>
/export/apps/rDock/src/rDock_2013.1_src/data/scripts/dock_solv.prm

>  <Rbt.Receptor>
prm/pocket_docking_6.prm

>  <SCORE>
-15.7365

>  <SCORE.INTER>
-15.7365

>  <SCORE.INTER.CONST>
1

>  <SCORE.INTER.POLAR>
0

>  <SCORE.INTER.ROT>
0

>  <SCORE.INTER.SOLV>
9.78953

>  <SCORE.INTER.VDW>
-17.3541

>  <SCORE.INTER.norm>
-1.43059

>  <SCORE.INTRA>
0

>  <SCORE.INTRA.DIHEDRAL>
0

>  <SCORE.INTRA.DIHEDRAL.0>
0

>  <SCORE.INTRA.POLAR>
0

>  <SCORE.INTRA.POLAR.0>
0

>  <SCORE.INTRA.REPUL>
0

>  <SCORE.INTRA.REPUL.0>
0

>  <SCORE.INTRA.SOLV>
0

>  <SCORE.INTRA.SOLV.lig_0>
-28.6198

>  <SCORE.INTRA.VDW>
0

>  <SCORE.INTRA.VDW.0>
0

>  <SCORE.INTRA.norm>
0

>  <SCORE.RESTR>
0

>  <SCORE.RESTR.CAVITY>
0

>  <SCORE.RESTR.norm>
0

>  <SCORE.SYSTEM>
0

>  <SCORE.SYSTEM.CONST>
0

>  <SCORE.SYSTEM.DIHEDRAL>
0

>  <SCORE.SYSTEM.SOLV>
0

>  <SCORE.SYSTEM.norm>
0

>  <SCORE.heavy>
11

>  <SCORE.norm>
-1.43059

>  <RMSD>
2.892

$$$$
ligand
 OpenBabel11021811483D
libRbt.so/2013.1/901 2013/11/27
 11 12  0  0  0  0  0  0  0  0999 V2000
   36.6198   -8.6107  -37.8361 N   0  0  0  0  0  0  0  0  0  0  0  0
   35.4931   -9.2078  -38.2525 C   0  0  0  0  0  0  0  0  0  0  0  0
   34.5884   -8.4815  -39.0858 N   0  0  0  0  0  0  0  0  0  0  0  0
   35.2019  -10.4654  -37.9038 N   0  0  0  0  0  0  0  0  0  0  0  0
   36.0626  -11.1849  -37.0980 C   0  0  0  0  0  0  0  0  0  0  0  0
   37.2173  -10.5892  -36.6620 C   0  0  0  0  0  0  0  0  0  0  0  0
   37.5134   -9.2410  -37.0473 C   0  0  0  0  0  0  0  0  0  0  0  0
   38.9957   -8.4331  -36.5154 S   0  0  0  0  0  0  0  0  0  0  0  0
   37.8874  -11.5013  -35.8873 N   0  0  0  0  0  0  0  0  0  0  0  0
   37.1540  -12.6442  -35.8460 C   0  0  0  0  0  0  0  0  0  0  0  0
   36.0237  -12.4701  -36.5872 N   0  0  0  0  0  0  0  0  0  0  0  0
  1  2  2  0  0  0  0
  1  7  1  0  0  0  0
  2  3  1  0  0  0  0
  2  4  1  0  0  0  0
  4  5  2  0  0  0  0
  5  6  1  0  0  0  0
  5 11  1  0  0  0  0
  6  7  2  0  0  0  0
  6  9  1  0  0  0  0
  7  8  1  0  0  0  0
  9 10  1  0  0  0  0
 10 11  2  0  0  0  0
M  END
>  <CHROM.1>
36.88797808,-10.02475956,-37.09231728,1.47512985,-0.49777893,-0.39389144

>  <Name>
ligand

>  <RI>
0

>  <Rbt.Current_Directory>
/home/itssahil/PROJECTS/Mol_Feturizer/New_Systems/rnas/3RKF

>  <Rbt.Executable>
rbdock ($Id: //depot/dev/client3/rdock/2013.1/src/exe/rbdock.cxx#4 $)

>  <Rbt.Library>
libRbt.so (2013.1, Build901 2013/11/27)

>  <Rbt.Parameter_File>
/export/apps/rDock/src/rDock_2013.1_src/data/scripts/dock_solv.prm

>  <Rbt.Receptor>
prm/pocket_docking_7.prm

>  <SCORE>
-15.7882

>  <SCORE.INTER>
-15.7882

>  <SCORE.INTER.CONST>
1

>  <SCORE.INTER.POLAR>
0

>  <SCORE.INTER.ROT>
0

>  <SCORE.INTER.SOLV>
9.51336

>  <SCORE.INTER.VDW>
-17.2966

>  <SCORE.INTER.norm>
-1.43529

>  <SCORE.INTRA>
0

>  <SCORE.INTRA.DIHEDRAL>
0

>  <SCORE.INTRA.DIHEDRAL.0>
0

>  <SCORE.INTRA.POLAR>
0

>  <SCORE.INTRA.POLAR.0>
0

>  <SCORE.INTRA.REPUL>
0

>  <SCORE.INTRA.REPUL.0>
0

>  <SCORE.INTRA.SOLV>
0

>  <SCORE.INTRA.SOLV.lig_0>
-28.6198

>  <SCORE.INTRA.VDW>
0

>  <SCORE.INTRA.VDW.0>
0

>  <SCORE.INTRA.norm>
0

>  <SCORE.RESTR>
0

>  <SCORE.RESTR.CAVITY>
0

>  <SCORE.RESTR.norm>
0

>  <SCORE.SYSTEM>
0

>  <SCORE.SYSTEM.CONST>
0

>  <SCORE.SYSTEM.DIHEDRAL>
0

>  <SCORE.SYSTEM.SOLV>
0

>  <SCORE.SYSTEM.norm>
0

>  <SCORE.heavy>
11

>  <SCORE.norm>
-1.43529

>  <RMSD>
2.892

$$$$
ligand
 OpenBabel11021811483D
libRbt.so/2013.1/901 2013/11/27
 11 12  0  0  0  0  0  0  0  0999 V2000
   36.6202   -8.6056  -37.8373 N   0  0  0  0  0  0  0  0  0  0  0  0
   35.4954   -9.2050  -38.2554 C   0  0  0  0  0  0  0  0  0  0  0  0
   34.5860   -8.4777  -39.0826 N   0  0  0  0  0  0  0  0  0  0  0  0
   35.2104  -10.4661  -37.9139 N   0  0  0  0  0  0  0  0  0  0  0  0
   36.0758  -11.1867  -37.1140 C   0  0  0  0  0  0  0  0  0  0  0  0
   37.2286  -10.5885  -36.6764 C   0  0  0  0  0  0  0  0  0  0  0  0
   37.5180   -9.2367  -37.0538 C   0  0  0  0  0  0  0  0  0  0  0  0
   38.9977   -8.4255  -36.5196 S   0  0  0  0  0  0  0  0  0  0  0  0
   37.9041  -11.5023  -35.9085 N   0  0  0  0  0  0  0  0  0  0  0  0
   37.1758  -12.6488  -35.8729 C   0  0  0  0  0  0  0  0  0  0  0  0
   36.0435  -12.4751  -36.6111 N   0  0  0  0  0  0  0  0  0  0  0  0
  1  2  2  0  0  0  0
  1  7  1  0  0  0  0
  2  3  1  0  0  0  0
  2  4  1  0  0  0  0
  4  5  2  0  0  0  0
  5  6  1  0  0  0  0
  5 11  1  0  0  0  0
  6  7  2  0  0  0  0
  6  9  1  0  0  0  0
  7  8  1  0  0  0  0
  9 10  1  0  0  0  0
 10 11  2  0  0  0  0
M  END
>  <CHROM.1>
36.89600109,-10.02291983,-37.10264711,1.48057380,-0.49785281,-0.38513939

>  <Name>
ligand

>  <RI>
0

>  <Rbt.Current_Directory>
/home/itssahil/PROJECTS/Mol_Feturizer/New_Systems/rnas/3RKF

>  <Rbt.Executable>
rbdock ($Id: //depot/dev/client3/rdock/2013.1/src/exe/rbdock.cxx#4 $)

>  <Rbt.Library>
libRbt.so (2013.1, Build901 2013/11/27)

>  <Rbt.Parameter_File>
/export/apps/rDock/src/rDock_2013.1_src/data/scripts/dock_solv.prm

>  <Rbt.Receptor>
prm/pocket_docking_7.prm

>  <SCORE>
-15.7936

>  <SCORE.INTER>
-15.7936

>  <SCORE.INTER.CONST>
1

>  <SCORE.INTER.POLAR>
0

>  <SCORE.INTER.ROT>
0

>  <SCORE.INTER.SOLV>
9.48789

>  <SCORE.INTER.VDW>
-17.2917

>  <SCORE.INTER.norm>
-1.43578

>  <SCORE.INTRA>
0

>  <SCORE.INTRA.DIHEDRAL>
0

>  <SCORE.INTRA.DIHEDRAL.0>
0

>  <SCORE.INTRA.POLAR>
0

>  <SCORE.INTRA.POLAR.0>
0

>  <SCORE.INTRA.REPUL>
0

>  <SCORE.INTRA.REPUL.0>
0

>  <SCORE.INTRA.SOLV>
0

>  <SCORE.INTRA.SOLV.lig_0>
-28.6198

>  <SCORE.INTRA.VDW>
0

>  <SCORE.INTRA.VDW.0>
0

>  <SCORE.INTRA.norm>
0

>  <SCORE.RESTR>
0

>  <SCORE.RESTR.CAVITY>
0

>  <SCORE.RESTR.norm>
0

>  <SCORE.SYSTEM>
0

>  <SCORE.SYSTEM.CONST>
0

>  <SCORE.SYSTEM.DIHEDRAL>
0

>  <SCORE.SYSTEM.SOLV>
0

>  <SCORE.SYSTEM.norm>
0

>  <SCORE.heavy>
11

>  <SCORE.norm>
-1.43578

>  <RMSD>
2.892

$$$$
ligand
 OpenBabel11021811483D
libRbt.so/2013.1/901 2013/11/27
 11 12  0  0  0  0  0  0  0  0999 V2000
   36.6241   -8.5969  -37.8321 N   0  0  0  0  0  0  0  0  0  0  0  0
   35.5004   -9.1984  -38.2503 C   0  0  0  0  0  0  0  0  0  0  0  0
   34.5886   -8.4717  -39.0755 N   0  0  0  0  0  0  0  0  0  0  0  0
   35.2187  -10.4607  -37.9108 N   0  0  0  0  0  0  0  0  0  0  0  0
   36.0865  -11.1806  -37.1129 C   0  0  0  0  0  0  0  0  0  0  0  0
   37.2382  -10.5805  -36.6752 C   0  0  0  0  0  0  0  0  0  0  0  0
   37.5240   -9.2272  -37.0506 C   0  0  0  0  0  0  0  0  0  0  0  0
   39.0022   -8.4134  -36.5161 S   0  0  0  0  0  0  0  0  0  0  0  0
   37.9165  -11.4940  -35.9095 N   0  0  0  0  0  0  0  0  0  0  0  0
   37.1911  -12.6422  -35.8753 C   0  0  0  0  0  0  0  0  0  0  0  0
   36.0577  -12.4700  -36.6122 N   0  0  0  0  0  0  0  0  0  0  0  0
  1  2  2  0  0  0  0
  1  7  1  0  0  0  0
  2  3  1  0  0  0  0
  2  4  1  0  0  0  0
  4  5  2  0  0  0  0
  5  6  1  0  0  0  0
  5 11  1  0  0  0  0
  6  7  2  0  0  0  0
  6  9  1  0  0  0  0
  7  8  1  0  0  0  0
  9 10  1  0  0  0  0
 10 11  2  0  0  0  0
M  END
>  <CHROM.1>
36.90392775,-10.01488791,-37.10020787,1.48346797,-0.49796884,-0.38200134

>  <Name>
ligand

>  <RI>
0

>  <Rbt.Current_Directory>
/home/itssahil/PROJECTS/Mol_Feturizer/New_Systems/rnas/3RKF

>  <Rbt.Executable>
rbdock ($Id: //depot/dev/client3/rdock/2013.1/src/exe/rbdock.cxx#4 $)

>  <Rbt.Library>
libRbt.so (2013.1, Build901 2013/11/27)

>  <Rbt.Parameter_File>
/export/apps/rDock/src/rDock_2013.1_src/data/scripts/dock_solv.prm

>  <Rbt.Receptor>
prm/pocket_docking_8.prm

>  <SCORE>
-15.7803

>  <SCORE.INTER>
-15.7803

>  <SCORE.INTER.CONST>
1

>  <SCORE.INTER.POLAR>
0

>  <SCORE.INTER.ROT>
0

>  <SCORE.INTER.SOLV>
9.46858

>  <SCORE.INTER.VDW>
-17.2764

>  <SCORE.INTER.norm>
-1.43458

>  <SCORE.INTRA>
0

>  <SCORE.INTRA.DIHEDRAL>
0

>  <SCORE.INTRA.DIHEDRAL.0>
0

>  <SCORE.INTRA.POLAR>
0

>  <SCORE.INTRA.POLAR.0>
0

>  <SCORE.INTRA.REPUL>
0

>  <SCORE.INTRA.REPUL.0>
0

>  <SCORE.INTRA.SOLV>
0

>  <SCORE.INTRA.SOLV.lig_0>
-28.6198

>  <SCORE.INTRA.VDW>
0

>  <SCORE.INTRA.VDW.0>
0

>  <SCORE.INTRA.norm>
0

>  <SCORE.RESTR>
0

>  <SCORE.RESTR.CAVITY>
0

>  <SCORE.RESTR.norm>
0

>  <SCORE.SYSTEM>
0

>  <SCORE.SYSTEM.CONST>
0

>  <SCORE.SYSTEM.DIHEDRAL>
0

>  <SCORE.SYSTEM.SOLV>
0

>  <SCORE.SYSTEM.norm>
0

>  <SCORE.heavy>
11

>  <SCORE.norm>
-1.43458

>  <RMSD>
2.892

$$$$
ligand
 OpenBabel11021811483D
libRbt.so/2013.1/901 2013/11/27
 11 12  0  0  0  0  0  0  0  0999 V2000
   36.6142   -8.6014  -37.8234 N   0  0  0  0  0  0  0  0  0  0  0  0
   35.4875   -9.1995  -38.2385 C   0  0  0  0  0  0  0  0  0  0  0  0
   34.5743   -8.4692  -39.0589 N   0  0  0  0  0  0  0  0  0  0  0  0
   35.2042  -10.4617  -37.9002 N   0  0  0  0  0  0  0  0  0  0  0  0
   36.0733  -11.1852  -37.1069 C   0  0  0  0  0  0  0  0  0  0  0  0
   37.2280  -10.5886  -36.6725 C   0  0  0  0  0  0  0  0  0  0  0  0
   37.5156   -9.2353  -37.0464 C   0  0  0  0  0  0  0  0  0  0  0  0
   38.9977   -8.4260  -36.5161 S   0  0  0  0  0  0  0  0  0  0  0  0
   37.9071  -11.5051  -35.9110 N   0  0  0  0  0  0  0  0  0  0  0  0
   37.1790  -12.6517  -35.8762 C   0  0  0  0  0  0  0  0  0  0  0  0
   36.0433  -12.4754  -36.6085 N   0  0  0  0  0  0  0  0  0  0  0  0
  1  2  2  0  0  0  0
  1  7  1  0  0  0  0
  2  3  1  0  0  0  0
  2  4  1  0  0  0  0
  4  5  2  0  0  0  0
  5  6  1  0  0  0  0
  5 11  1  0  0  0  0
  6  7  2  0  0  0  0
  6  9  1  0  0  0  0
  7  8  1  0  0  0  0
  9 10  1  0  0  0  0
 10 11  2  0  0  0  0
M  END
>  <CHROM.1>
36.89345544,-10.02142353,-37.09516260,1.48257609,-0.49358264,-0.38058722

>  <Name>
ligand

>  <RI>
0

>  <Rbt.Current_Directory>
/home/itssahil/PROJECTS/Mol_Feturizer/New_Systems/rnas/3RKF

>  <Rbt.Executable>
rbdock ($Id: //depot/dev/client3/rdock/2013.1/src/exe/rbdock.cxx#4 $)

>  <Rbt.Library>
libRbt.so (2013.1, Build901 2013/11/27)

>  <Rbt.Parameter_File>
/export/apps/rDock/src/rDock_2013.1_src/data/scripts/dock_solv.prm

>  <Rbt.Receptor>
prm/pocket_docking_8.prm

>  <SCORE>
-15.813

>  <SCORE.INTER>
-15.813

>  <SCORE.INTER.CONST>
1

>  <SCORE.INTER.POLAR>
0

>  <SCORE.INTER.ROT>
0

>  <SCORE.INTER.SOLV>
9.39838

>  <SCORE.INTER.VDW>
-17.2748

>  <SCORE.INTER.norm>
-1.43755

>  <SCORE.INTRA>
0

>  <SCORE.INTRA.DIHEDRAL>
0

>  <SCORE.INTRA.DIHEDRAL.0>
0

>  <SCORE.INTRA.POLAR>
0

>  <SCORE.INTRA.POLAR.0>
0

>  <SCORE.INTRA.REPUL>
0

>  <SCORE.INTRA.REPUL.0>
0

>  <SCORE.INTRA.SOLV>
0

>  <SCORE.INTRA.SOLV.lig_0>
-28.6198

>  <SCORE.INTRA.VDW>
0

>  <SCORE.INTRA.VDW.0>
0

>  <SCORE.INTRA.norm>
0

>  <SCORE.RESTR>
0

>  <SCORE.RESTR.CAVITY>
0

>  <SCORE.RESTR.norm>
0

>  <SCORE.SYSTEM>
0

>  <SCORE.SYSTEM.CONST>
0

>  <SCORE.SYSTEM.DIHEDRAL>
0

>  <SCORE.SYSTEM.SOLV>
0

>  <SCORE.SYSTEM.norm>
0

>  <SCORE.heavy>
11

>  <SCORE.norm>
-1.43755

>  <RMSD>
2.892

$$$$
ligand
 OpenBabel11021811483D
libRbt.so/2013.1/901 2013/11/27
 11 12  0  0  0  0  0  0  0  0999 V2000
   36.6639   -8.7186  -37.9480 N   0  0  0  0  0  0  0  0  0  0  0  0
   35.5601   -9.3164  -38.4209 C   0  0  0  0  0  0  0  0  0  0  0  0
   34.7270   -8.6101  -39.3415 N   0  0  0  0  0  0  0  0  0  0  0  0
   35.2262  -10.5565  -38.0485 N   0  0  0  0  0  0  0  0  0  0  0  0
   36.0175  -11.2565  -37.1587 C   0  0  0  0  0  0  0  0  0  0  0  0
   37.1477  -10.6597  -36.6642 C   0  0  0  0  0  0  0  0  0  0  0  0
   37.4905   -9.3305  -37.0760 C   0  0  0  0  0  0  0  0  0  0  0  0
   38.9441   -8.5223  -36.4705 S   0  0  0  0  0  0  0  0  0  0  0  0
   37.7481  -11.5509  -35.8119 N   0  0  0  0  0  0  0  0  0  0  0  0
   36.9963  -12.6822  -35.7812 C   0  0  0  0  0  0  0  0  0  0  0  0
   35.9234  -12.5213  -36.6059 N   0  0  0  0  0  0  0  0  0  0  0  0
  1  2  2  0  0  0  0
  1  7  1  0  0  0  0
  2  3  1  0  0  0  0
  2  4  1  0  0  0  0
  4  5  2  0  0  0  0
  5  6  1  0  0  0  0
  5 11  1  0  0  0  0
  6  7  2  0  0  0  0
  6  9  1  0  0  0  0
  7  8  1  0  0  0  0
  9 10  1  0  0  0  0
 10 11  2  0  0  0  0
M  END
>  <CHROM.1>
36.85793442,-10.10745893,-37.13668322,1.42700896,-0.55606964,-0.45466734

>  <Name>
ligand

>  <RI>
0

>  <Rbt.Current_Directory>
/home/itssahil/PROJECTS/Mol_Feturizer/New_Systems/rnas/3RKF

>  <Rbt.Executable>
rbdock ($Id: //depot/dev/client3/rdock/2013.1/src/exe/rbdock.cxx#4 $)

>  <Rbt.Library>
libRbt.so (2013.1, Build901 2013/11/27)

>  <Rbt.Parameter_File>
/export/apps/rDock/src/rDock_2013.1_src/data/scripts/dock_solv.prm

>  <Rbt.Receptor>
prm/pocket_docking_8.prm

>  <SCORE>
-15.6261

>  <SCORE.INTER>
-15.6261

>  <SCORE.INTER.CONST>
1

>  <SCORE.INTER.POLAR>
0

>  <SCORE.INTER.ROT>
0

>  <SCORE.INTER.SOLV>
11.0191

>  <SCORE.INTER.VDW>
-17.6904

>  <SCORE.INTER.norm>
-1.42055

>  <SCORE.INTRA>
0

>  <SCORE.INTRA.DIHEDRAL>
0

>  <SCORE.INTRA.DIHEDRAL.0>
0

>  <SCORE.INTRA.POLAR>
0

>  <SCORE.INTRA.POLAR.0>
0

>  <SCORE.INTRA.REPUL>
0

>  <SCORE.INTRA.REPUL.0>
0

>  <SCORE.INTRA.SOLV>
0

>  <SCORE.INTRA.SOLV.lig_0>
-28.6198

>  <SCORE.INTRA.VDW>
0

>  <SCORE.INTRA.VDW.0>
0

>  <SCORE.INTRA.norm>
0

>  <SCORE.RESTR>
0

>  <SCORE.RESTR.CAVITY>
0

>  <SCORE.RESTR.norm>
0

>  <SCORE.SYSTEM>
0

>  <SCORE.SYSTEM.CONST>
0

>  <SCORE.SYSTEM.DIHEDRAL>
0

>  <SCORE.SYSTEM.SOLV>
0

>  <SCORE.SYSTEM.norm>
0

>  <SCORE.heavy>
11

>  <SCORE.norm>
-1.42055

>  <RMSD>
2.892

$$$$
ligand
 OpenBabel11021811483D
libRbt.so/2013.1/901 2013/11/27
 11 12  0  0  0  0  0  0  0  0999 V2000
   36.6148   -8.6009  -37.8246 N   0  0  0  0  0  0  0  0  0  0  0  0
   35.4910   -9.2011  -38.2446 C   0  0  0  0  0  0  0  0  0  0  0  0
   34.5792   -8.4720  -39.0676 N   0  0  0  0  0  0  0  0  0  0  0  0
   35.2093  -10.4644  -37.9087 N   0  0  0  0  0  0  0  0  0  0  0  0
   36.0771  -11.1867  -37.1129 C   0  0  0  0  0  0  0  0  0  0  0  0
   37.2288  -10.5878  -36.6734 C   0  0  0  0  0  0  0  0  0  0  0  0
   37.5147   -9.2335  -37.0449 C   0  0  0  0  0  0  0  0  0  0  0  0
   38.9929   -8.4213  -36.5081 S   0  0  0  0  0  0  0  0  0  0  0  0
   37.9071  -11.5036  -35.9104 N   0  0  0  0  0  0  0  0  0  0  0  0
   37.1817  -12.6519  -35.8796 C   0  0  0  0  0  0  0  0  0  0  0  0
   36.0483  -12.4775  -36.6160 N   0  0  0  0  0  0  0  0  0  0  0  0
  1  2  2  0  0  0  0
  1  7  1  0  0  0  0
  2  3  1  0  0  0  0
  2  4  1  0  0  0  0
  4  5  2  0  0  0  0
  5  6  1  0  0  0  0
  5 11  1  0  0  0  0
  6  7  2  0  0  0  0
  6  9  1  0  0  0  0
  7  8  1  0  0  0  0
  9 10  1  0  0  0  0
 10 11  2  0  0  0  0
M  END
>  <CHROM.1>
36.89454756,-10.02099936,-37.09680471,1.48344673,-0.49795286,-0.37910372

>  <Name>
ligand

>  <RI>
0

>  <Rbt.Current_Directory>
/home/itssahil/PROJECTS/Mol_Feturizer/New_Systems/rnas/3RKF

>  <Rbt.Executable>
rbdock ($Id: //depot/dev/client3/rdock/2013.1/src/exe/rbdock.cxx#4 $)

>  <Rbt.Library>
libRbt.so (2013.1, Build901 2013/11/27)

>  <Rbt.Parameter_File>
/export/apps/rDock/src/rDock_2013.1_src/data/scripts/dock_solv.prm

>  <Rbt.Receptor>
prm/pocket_docking_8.prm

>  <SCORE>
-15.8151

>  <SCORE.INTER>
-15.8151

>  <SCORE.INTER.CONST>
1

>  <SCORE.INTER.POLAR>
0

>  <SCORE.INTER.ROT>
0

>  <SCORE.INTER.SOLV>
9.42554

>  <SCORE.INTER.VDW>
-17.2853

>  <SCORE.INTER.norm>
-1.43774

>  <SCORE.INTRA>
0

>  <SCORE.INTRA.DIHEDRAL>
0

>  <SCORE.INTRA.DIHEDRAL.0>
0

>  <SCORE.INTRA.POLAR>
0

>  <SCORE.INTRA.POLAR.0>
0

>  <SCORE.INTRA.REPUL>
0

>  <SCORE.INTRA.REPUL.0>
0

>  <SCORE.INTRA.SOLV>
0

>  <SCORE.INTRA.SOLV.lig_0>
-28.6198

>  <SCORE.INTRA.VDW>
0

>  <SCORE.INTRA.VDW.0>
0

>  <SCORE.INTRA.norm>
0

>  <SCORE.RESTR>
0

>  <SCORE.RESTR.CAVITY>
0

>  <SCORE.RESTR.norm>
0

>  <SCORE.SYSTEM>
0

>  <SCORE.SYSTEM.CONST>
0

>  <SCORE.SYSTEM.DIHEDRAL>
0

>  <SCORE.SYSTEM.SOLV>
0

>  <SCORE.SYSTEM.norm>
0

>  <SCORE.heavy>
11

>  <SCORE.norm>
-1.43774

>  <RMSD>
2.892

$$$$
ligand
 OpenBabel11021811483D
libRbt.so/2013.1/901 2013/11/27
 11 12  0  0  0  0  0  0  0  0999 V2000
   36.6299   -8.6058  -37.8395 N   0  0  0  0  0  0  0  0  0  0  0  0
   35.5016   -9.2021  -38.2525 C   0  0  0  0  0  0  0  0  0  0  0  0
   34.5920   -8.4732  -39.0781 N   0  0  0  0  0  0  0  0  0  0  0  0
   35.2132  -10.4614  -37.9074 N   0  0  0  0  0  0  0  0  0  0  0  0
   36.0787  -11.1835  -37.1090 C   0  0  0  0  0  0  0  0  0  0  0  0
   37.2351  -10.5886  -36.6765 C   0  0  0  0  0  0  0  0  0  0  0  0
   37.5281   -9.2386  -37.0578 C   0  0  0  0  0  0  0  0  0  0  0  0
   39.0125   -8.4316  -36.5303 S   0  0  0  0  0  0  0  0  0  0  0  0
   37.9099  -11.5032  -35.9091 N   0  0  0  0  0  0  0  0  0  0  0  0
   37.1777  -12.6470  -35.8686 C   0  0  0  0  0  0  0  0  0  0  0  0
   36.0435  -12.4707  -36.6033 N   0  0  0  0  0  0  0  0  0  0  0  0
  1  2  2  0  0  0  0
  1  7  1  0  0  0  0
  2  3  1  0  0  0  0
  2  4  1  0  0  0  0
  4  5  2  0  0  0  0
  5  6  1  0  0  0  0
  5 11  1  0  0  0  0
  6  7  2  0  0  0  0
  6  9  1  0  0  0  0
  7  8  1  0  0  0  0
  9 10  1  0  0  0  0
 10 11  2  0  0  0  0
M  END
>  <CHROM.1>
36.90314241,-10.02266615,-37.10285315,1.47824102,-0.49331753,-0.38832501

>  <Name>
ligand

>  <RI>
0

>  <Rbt.Current_Directory>
/home/itssahil/PROJECTS/Mol_Feturizer/New_Systems/rnas/3RKF

>  <Rbt.Executable>
rbdock ($Id: //depot/dev/client3/rdock/2013.1/src/exe/rbdock.cxx#4 $)

>  <Rbt.Library>
libRbt.so (2013.1, Build901 2013/11/27)

>  <Rbt.Parameter_File>
/export/apps/rDock/src/rDock_2013.1_src/data/scripts/dock_solv.prm

>  <Rbt.Receptor>
prm/pocket_docking_8.prm

>  <SCORE>
-15.7887

>  <SCORE.INTER>
-15.7887

>  <SCORE.INTER.CONST>
1

>  <SCORE.INTER.POLAR>
0

>  <SCORE.INTER.ROT>
0

>  <SCORE.INTER.SOLV>
9.49272

>  <SCORE.INTER.VDW>
-17.2901

>  <SCORE.INTER.norm>
-1.43534

>  <SCORE.INTRA>
0

>  <SCORE.INTRA.DIHEDRAL>
0

>  <SCORE.INTRA.DIHEDRAL.0>
0

>  <SCORE.INTRA.POLAR>
0

>  <SCORE.INTRA.POLAR.0>
0

>  <SCORE.INTRA.REPUL>
0

>  <SCORE.INTRA.REPUL.0>
0

>  <SCORE.INTRA.SOLV>
0

>  <SCORE.INTRA.SOLV.lig_0>
-28.6198

>  <SCORE.INTRA.VDW>
0

>  <SCORE.INTRA.VDW.0>
0

>  <SCORE.INTRA.norm>
0

>  <SCORE.RESTR>
0

>  <SCORE.RESTR.CAVITY>
0

>  <SCORE.RESTR.norm>
0

>  <SCORE.SYSTEM>
0

>  <SCORE.SYSTEM.CONST>
0

>  <SCORE.SYSTEM.DIHEDRAL>
0

>  <SCORE.SYSTEM.SOLV>
0

>  <SCORE.SYSTEM.norm>
0

>  <SCORE.heavy>
11

>  <SCORE.norm>
-1.43534

>  <RMSD>
2.892

$$$$
ligand
 OpenBabel11021811483D
libRbt.so/2013.1/901 2013/11/27
 11 12  0  0  0  0  0  0  0  0999 V2000
   36.6350   -8.6309  -37.8726 N   0  0  0  0  0  0  0  0  0  0  0  0
   35.5125   -9.2323  -38.2941 C   0  0  0  0  0  0  0  0  0  0  0  0
   34.6196   -8.5172  -39.1493 N   0  0  0  0  0  0  0  0  0  0  0  0
   35.2148  -10.4842  -37.9302 N   0  0  0  0  0  0  0  0  0  0  0  0
   36.0642  -11.1929  -37.1031 C   0  0  0  0  0  0  0  0  0  0  0  0
   37.2143  -10.5925  -36.6616 C   0  0  0  0  0  0  0  0  0  0  0  0
   37.5176   -9.2507  -37.0632 C   0  0  0  0  0  0  0  0  0  0  0  0
   38.9946   -8.4372  -36.5250 S   0  0  0  0  0  0  0  0  0  0  0  0
   37.8731  -11.4939  -35.8651 N   0  0  0  0  0  0  0  0  0  0  0  0
   37.1373  -12.6350  -35.8158 C   0  0  0  0  0  0  0  0  0  0  0  0
   36.0166  -12.4702  -36.5736 N   0  0  0  0  0  0  0  0  0  0  0  0
  1  2  2  0  0  0  0
  1  7  1  0  0  0  0
  2  3  1  0  0  0  0
  2  4  1  0  0  0  0
  4  5  2  0  0  0  0
  5  6  1  0  0  0  0
  5 11  1  0  0  0  0
  6  7  2  0  0  0  0
  6  9  1  0  0  0  0
  7  8  1  0  0  0  0
  9 10  1  0  0  0  0
 10 11  2  0  0  0  0
M  END
>  <CHROM.1>
36.89141689,-10.03405338,-37.10440240,1.46779977,-0.50862521,-0.41237965

>  <Name>
ligand

>  <RI>
0

>  <Rbt.Current_Directory>
/home/itssahil/PROJECTS/Mol_Feturizer/New_Systems/rnas/3RKF

>  <Rbt.Executable>
rbdock ($Id: //depot/dev/client3/rdock/2013.1/src/exe/rbdock.cxx#4 $)

>  <Rbt.Library>
libRbt.so (2013.1, Build901 2013/11/27)

>  <Rbt.Parameter_File>
/export/apps/rDock/src/rDock_2013.1_src/data/scripts/dock_solv.prm

>  <Rbt.Receptor>
prm/blind_docking_100.prm

>  <SCORE>
-15.7522

>  <SCORE.INTER>
-15.7522

>  <SCORE.INTER.CONST>
1

>  <SCORE.INTER.POLAR>
0

>  <SCORE.INTER.ROT>
0

>  <SCORE.INTER.SOLV>
9.8499

>  <SCORE.INTER.VDW>
-17.3848

>  <SCORE.INTER.norm>
-1.43202

>  <SCORE.INTRA>
0

>  <SCORE.INTRA.DIHEDRAL>
0

>  <SCORE.INTRA.DIHEDRAL.0>
0

>  <SCORE.INTRA.POLAR>
0

>  <SCORE.INTRA.POLAR.0>
0

>  <SCORE.INTRA.REPUL>
0

>  <SCORE.INTRA.REPUL.0>
0

>  <SCORE.INTRA.SOLV>
0

>  <SCORE.INTRA.SOLV.lig_0>
-28.6198

>  <SCORE.INTRA.VDW>
0

>  <SCORE.INTRA.VDW.0>
0

>  <SCORE.INTRA.norm>
0

>  <SCORE.RESTR>
0

>  <SCORE.RESTR.CAVITY>
0

>  <SCORE.RESTR.norm>
0

>  <SCORE.SYSTEM>
0

>  <SCORE.SYSTEM.CONST>
0

>  <SCORE.SYSTEM.DIHEDRAL>
0

>  <SCORE.SYSTEM.SOLV>
0

>  <SCORE.SYSTEM.norm>
0

>  <SCORE.heavy>
11

>  <SCORE.norm>
-1.43202

>  <RMSD>
2.893

$$$$
ligand
 OpenBabel11021811483D
libRbt.so/2013.1/901 2013/11/27
 11 12  0  0  0  0  0  0  0  0999 V2000
   36.6274   -8.6104  -37.8355 N   0  0  0  0  0  0  0  0  0  0  0  0
   35.5011   -9.2098  -38.2498 C   0  0  0  0  0  0  0  0  0  0  0  0
   34.5910   -8.4836  -39.0772 N   0  0  0  0  0  0  0  0  0  0  0  0
   35.2154  -10.4696  -37.9044 N   0  0  0  0  0  0  0  0  0  0  0  0
   36.0815  -11.1890  -37.1042 C   0  0  0  0  0  0  0  0  0  0  0  0
   37.2358  -10.5910  -36.6704 C   0  0  0  0  0  0  0  0  0  0  0  0
   37.5259   -9.2404  -37.0520 C   0  0  0  0  0  0  0  0  0  0  0  0
   39.0075   -8.4294  -36.5228 S   0  0  0  0  0  0  0  0  0  0  0  0
   37.9117  -11.5034  -35.9013 N   0  0  0  0  0  0  0  0  0  0  0  0
   37.1823  -12.6490  -35.8613 C   0  0  0  0  0  0  0  0  0  0  0  0
   36.0487  -12.4760  -36.5978 N   0  0  0  0  0  0  0  0  0  0  0  0
  1  2  2  0  0  0  0
  1  7  1  0  0  0  0
  2  3  1  0  0  0  0
  2  4  1  0  0  0  0
  4  5  2  0  0  0  0
  5  6  1  0  0  0  0
  5 11  1  0  0  0  0
  6  7  2  0  0  0  0
  6  9  1  0  0  0  0
  7  8  1  0  0  0  0
  9 10  1  0  0  0  0
 10 11  2  0  0  0  0
M  END
>  <CHROM.1>
36.90301841,-10.02611376,-37.09754354,1.48022780,-0.49566595,-0.38799505

>  <Name>
ligand

>  <RI>
0

>  <Rbt.Current_Directory>
/home/itssahil/PROJECTS/Mol_Feturizer/New_Systems/rnas/3RKF

>  <Rbt.Executable>
rbdock ($Id: //depot/dev/client3/rdock/2013.1/src/exe/rbdock.cxx#4 $)

>  <Rbt.Library>
libRbt.so (2013.1, Build901 2013/11/27)

>  <Rbt.Parameter_File>
/export/apps/rDock/src/rDock_2013.1_src/data/scripts/dock_solv.prm

>  <Rbt.Receptor>
prm/blind_docking_100.prm

>  <SCORE>
-15.7945

>  <SCORE.INTER>
-15.7945

>  <SCORE.INTER.CONST>
1

>  <SCORE.INTER.POLAR>
0

>  <SCORE.INTER.ROT>
0

>  <SCORE.INTER.SOLV>
9.50235

>  <SCORE.INTER.VDW>
-17.2971

>  <SCORE.INTER.norm>
-1.43586

>  <SCORE.INTRA>
0

>  <SCORE.INTRA.DIHEDRAL>
0

>  <SCORE.INTRA.DIHEDRAL.0>
0

>  <SCORE.INTRA.POLAR>
0

>  <SCORE.INTRA.POLAR.0>
0

>  <SCORE.INTRA.REPUL>
0

>  <SCORE.INTRA.REPUL.0>
0

>  <SCORE.INTRA.SOLV>
0

>  <SCORE.INTRA.SOLV.lig_0>
-28.6198

>  <SCORE.INTRA.VDW>
0

>  <SCORE.INTRA.VDW.0>
0

>  <SCORE.INTRA.norm>
0

>  <SCORE.RESTR>
0

>  <SCORE.RESTR.CAVITY>
0

>  <SCORE.RESTR.norm>
0

>  <SCORE.SYSTEM>
0

>  <SCORE.SYSTEM.CONST>
0

>  <SCORE.SYSTEM.DIHEDRAL>
0

>  <SCORE.SYSTEM.SOLV>
0

>  <SCORE.SYSTEM.norm>
0

>  <SCORE.heavy>
11

>  <SCORE.norm>
-1.43586

>  <RMSD>
2.893

$$$$
ligand
 OpenBabel11021811483D
libRbt.so/2013.1/901 2013/11/27
 11 12  0  0  0  0  0  0  0  0999 V2000
   36.6127   -8.6023  -37.8217 N   0  0  0  0  0  0  0  0  0  0  0  0
   35.4873   -9.2025  -38.2370 C   0  0  0  0  0  0  0  0  0  0  0  0
   34.5729   -8.4740  -39.0577 N   0  0  0  0  0  0  0  0  0  0  0  0
   35.2062  -10.4652  -37.8986 N   0  0  0  0  0  0  0  0  0  0  0  0
   36.0764  -11.1869  -37.1050 C   0  0  0  0  0  0  0  0  0  0  0  0
   37.2299  -10.5881  -36.6703 C   0  0  0  0  0  0  0  0  0  0  0  0
   37.5151   -9.2343  -37.0444 C   0  0  0  0  0  0  0  0  0  0  0  0
   38.9955   -8.4222  -36.5137 S   0  0  0  0  0  0  0  0  0  0  0  0
   37.9105  -11.5032  -35.9085 N   0  0  0  0  0  0  0  0  0  0  0  0
   37.1846  -12.6512  -35.8738 C   0  0  0  0  0  0  0  0  0  0  0  0
   36.0487  -12.4771  -36.6064 N   0  0  0  0  0  0  0  0  0  0  0  0
  1  2  2  0  0  0  0
  1  7  1  0  0  0  0
  2  3  1  0  0  0  0
  2  4  1  0  0  0  0
  4  5  2  0  0  0  0
  5  6  1  0  0  0  0
  5 11  1  0  0  0  0
  6  7  2  0  0  0  0
  6  9  1  0  0  0  0
  7  8  1  0  0  0  0
  9 10  1  0  0  0  0
 10 11  2  0  0  0  0
M  END
>  <CHROM.1>
36.89441122,-10.02162818,-37.09317747,1.48443094,-0.49453350,-0.37983951

>  <Name>
ligand

>  <RI>
0

>  <Rbt.Current_Directory>
/home/itssahil/PROJECTS/Mol_Feturizer/New_Systems/rnas/3RKF

>  <Rbt.Executable>
rbdock ($Id: //depot/dev/client3/rdock/2013.1/src/exe/rbdock.cxx#4 $)

>  <Rbt.Library>
libRbt.so (2013.1, Build901 2013/11/27)

>  <Rbt.Parameter_File>
/export/apps/rDock/src/rDock_2013.1_src/data/scripts/dock_solv.prm

>  <Rbt.Receptor>
prm/blind_docking_100.prm

>  <SCORE>
-15.8134

>  <SCORE.INTER>
-15.8134

>  <SCORE.INTER.CONST>
1

>  <SCORE.INTER.POLAR>
0

>  <SCORE.INTER.ROT>
0

>  <SCORE.INTER.SOLV>
9.39723

>  <SCORE.INTER.VDW>
-17.2747

>  <SCORE.INTER.norm>
-1.43758

>  <SCORE.INTRA>
0

>  <SCORE.INTRA.DIHEDRAL>
0

>  <SCORE.INTRA.DIHEDRAL.0>
0

>  <SCORE.INTRA.POLAR>
0

>  <SCORE.INTRA.POLAR.0>
0

>  <SCORE.INTRA.REPUL>
0

>  <SCORE.INTRA.REPUL.0>
0

>  <SCORE.INTRA.SOLV>
0

>  <SCORE.INTRA.SOLV.lig_0>
-28.6198

>  <SCORE.INTRA.VDW>
0

>  <SCORE.INTRA.VDW.0>
0

>  <SCORE.INTRA.norm>
0

>  <SCORE.RESTR>
0

>  <SCORE.RESTR.CAVITY>
0

>  <SCORE.RESTR.norm>
0

>  <SCORE.SYSTEM>
0

>  <SCORE.SYSTEM.CONST>
0

>  <SCORE.SYSTEM.DIHEDRAL>
0

>  <SCORE.SYSTEM.SOLV>
0

>  <SCORE.SYSTEM.norm>
0

>  <SCORE.heavy>
11

>  <SCORE.norm>
-1.43758

>  <RMSD>
2.893

$$$$
ligand
 OpenBabel11021811483D
libRbt.so/2013.1/901 2013/11/27
 11 12  0  0  0  0  0  0  0  0999 V2000
   36.6115   -8.6015  -37.8237 N   0  0  0  0  0  0  0  0  0  0  0  0
   35.4862   -9.2012  -38.2401 C   0  0  0  0  0  0  0  0  0  0  0  0
   34.5732   -8.4725  -39.0622 N   0  0  0  0  0  0  0  0  0  0  0  0
   35.2040  -10.4637  -37.9017 N   0  0  0  0  0  0  0  0  0  0  0  0
   36.0729  -11.1857  -37.1068 C   0  0  0  0  0  0  0  0  0  0  0  0
   37.2262  -10.5873  -36.6709 C   0  0  0  0  0  0  0  0  0  0  0  0
   37.5126   -9.2339  -37.0451 C   0  0  0  0  0  0  0  0  0  0  0  0
   38.9929   -8.4223  -36.5130 S   0  0  0  0  0  0  0  0  0  0  0  0
   37.9054  -11.5026  -35.9081 N   0  0  0  0  0  0  0  0  0  0  0  0
   37.1788  -12.6502  -35.8738 C   0  0  0  0  0  0  0  0  0  0  0  0
   36.0439  -12.4757  -36.6078 N   0  0  0  0  0  0  0  0  0  0  0  0
  1  2  2  0  0  0  0
  1  7  1  0  0  0  0
  2  3  1  0  0  0  0
  2  4  1  0  0  0  0
  4  5  2  0  0  0  0
  5  6  1  0  0  0  0
  5 11  1  0  0  0  0
  6  7  2  0  0  0  0
  6  9  1  0  0  0  0
  7  8  1  0  0  0  0
  9 10  1  0  0  0  0
 10 11  2  0  0  0  0
M  END
>  <CHROM.1>
36.89154293,-10.02081562,-37.09440292,1.48336010,-0.49541467,-0.38067404

>  <Name>
ligand

>  <RI>
0

>  <Rbt.Current_Directory>
/home/itssahil/PROJECTS/Mol_Feturizer/New_Systems/rnas/3RKF

>  <Rbt.Executable>
rbdock ($Id: //depot/dev/client3/rdock/2013.1/src/exe/rbdock.cxx#4 $)

>  <Rbt.Library>
libRbt.so (2013.1, Build901 2013/11/27)

>  <Rbt.Parameter_File>
/export/apps/rDock/src/rDock_2013.1_src/data/scripts/dock_solv.prm

>  <Rbt.Receptor>
prm/blind_docking_100.prm

>  <SCORE>
-15.8183

>  <SCORE.INTER>
-15.8183

>  <SCORE.INTER.CONST>
1

>  <SCORE.INTER.POLAR>
0

>  <SCORE.INTER.ROT>
0

>  <SCORE.INTER.SOLV>
9.40549

>  <SCORE.INTER.VDW>
-17.2807

>  <SCORE.INTER.norm>
-1.43803

>  <SCORE.INTRA>
0

>  <SCORE.INTRA.DIHEDRAL>
0

>  <SCORE.INTRA.DIHEDRAL.0>
0

>  <SCORE.INTRA.POLAR>
0

>  <SCORE.INTRA.POLAR.0>
0

>  <SCORE.INTRA.REPUL>
0

>  <SCORE.INTRA.REPUL.0>
0

>  <SCORE.INTRA.SOLV>
0

>  <SCORE.INTRA.SOLV.lig_0>
-28.6198

>  <SCORE.INTRA.VDW>
0

>  <SCORE.INTRA.VDW.0>
0

>  <SCORE.INTRA.norm>
0

>  <SCORE.RESTR>
0

>  <SCORE.RESTR.CAVITY>
0

>  <SCORE.RESTR.norm>
0

>  <SCORE.SYSTEM>
0

>  <SCORE.SYSTEM.CONST>
0

>  <SCORE.SYSTEM.DIHEDRAL>
0

>  <SCORE.SYSTEM.SOLV>
0

>  <SCORE.SYSTEM.norm>
0

>  <SCORE.heavy>
11

>  <SCORE.norm>
-1.43803

>  <RMSD>
2.893

$$$$
ligand
 OpenBabel11021811483D
libRbt.so/2013.1/901 2013/11/27
 11 12  0  0  0  0  0  0  0  0999 V2000
   36.6383   -8.6220  -37.8606 N   0  0  0  0  0  0  0  0  0  0  0  0
   35.5216   -9.2282  -38.2905 C   0  0  0  0  0  0  0  0  0  0  0  0
   34.6213   -8.5093  -39.1349 N   0  0  0  0  0  0  0  0  0  0  0  0
   35.2363  -10.4880  -37.9449 N   0  0  0  0  0  0  0  0  0  0  0  0
   36.0930  -11.2004  -37.1285 C   0  0  0  0  0  0  0  0  0  0  0  0
   37.2375  -10.5954  -36.6787 C   0  0  0  0  0  0  0  0  0  0  0  0
   37.5273   -9.2449  -37.0607 C   0  0  0  0  0  0  0  0  0  0  0  0
   38.9966   -8.4250  -36.5112 S   0  0  0  0  0  0  0  0  0  0  0  0
   37.9054  -11.5019  -35.8957 N   0  0  0  0  0  0  0  0  0  0  0  0
   37.1808  -12.6507  -35.8629 C   0  0  0  0  0  0  0  0  0  0  0  0
   36.0582  -12.4858  -36.6179 N   0  0  0  0  0  0  0  0  0  0  0  0
  1  2  2  0  0  0  0
  1  7  1  0  0  0  0
  2  3  1  0  0  0  0
  2  4  1  0  0  0  0
  4  5  2  0  0  0  0
  5  6  1  0  0  0  0
  5 11  1  0  0  0  0
  6  7  2  0  0  0  0
  6  9  1  0  0  0  0
  7  8  1  0  0  0  0
  9 10  1  0  0  0  0
 10 11  2  0  0  0  0
M  END
>  <CHROM.1>
36.90885549,-10.03367691,-37.11316935,1.47830495,-0.51207761,-0.39259399

>  <Name>
ligand

>  <RI>
0

>  <Rbt.Current_Directory>
/home/itssahil/PROJECTS/Mol_Feturizer/New_Systems/rnas/3RKF

>  <Rbt.Executable>
rbdock ($Id: //depot/dev/client3/rdock/2013.1/src/exe/rbdock.cxx#4 $)

>  <Rbt.Library>
libRbt.so (2013.1, Build901 2013/11/27)

>  <Rbt.Parameter_File>
/export/apps/rDock/src/rDock_2013.1_src/data/scripts/dock_solv.prm

>  <Rbt.Receptor>
prm/blind_docking_100.prm

>  <SCORE>
-15.7371

>  <SCORE.INTER>
-15.7371

>  <SCORE.INTER.CONST>
1

>  <SCORE.INTER.POLAR>
0

>  <SCORE.INTER.ROT>
0

>  <SCORE.INTER.SOLV>
9.77097

>  <SCORE.INTER.VDW>
-17.3484

>  <SCORE.INTER.norm>
-1.43065

>  <SCORE.INTRA>
0

>  <SCORE.INTRA.DIHEDRAL>
0

>  <SCORE.INTRA.DIHEDRAL.0>
0

>  <SCORE.INTRA.POLAR>
0

>  <SCORE.INTRA.POLAR.0>
0

>  <SCORE.INTRA.REPUL>
0

>  <SCORE.INTRA.REPUL.0>
0

>  <SCORE.INTRA.SOLV>
0

>  <SCORE.INTRA.SOLV.lig_0>
-28.6198

>  <SCORE.INTRA.VDW>
0

>  <SCORE.INTRA.VDW.0>
0

>  <SCORE.INTRA.norm>
0

>  <SCORE.RESTR>
0

>  <SCORE.RESTR.CAVITY>
0

>  <SCORE.RESTR.norm>
0

>  <SCORE.SYSTEM>
0

>  <SCORE.SYSTEM.CONST>
0

>  <SCORE.SYSTEM.DIHEDRAL>
0

>  <SCORE.SYSTEM.SOLV>
0

>  <SCORE.SYSTEM.norm>
0

>  <SCORE.heavy>
11

>  <SCORE.norm>
-1.43065

>  <RMSD>
2.893

$$$$
ligand
 OpenBabel11021811483D
libRbt.so/2013.1/901 2013/11/27
 11 12  0  0  0  0  0  0  0  0999 V2000
   36.6097   -8.6122  -37.8325 N   0  0  0  0  0  0  0  0  0  0  0  0
   35.4879   -9.2145  -38.2546 C   0  0  0  0  0  0  0  0  0  0  0  0
   34.5778   -8.4881  -39.0820 N   0  0  0  0  0  0  0  0  0  0  0  0
   35.2064  -10.4773  -37.9167 N   0  0  0  0  0  0  0  0  0  0  0  0
   36.0725  -11.1969  -37.1167 C   0  0  0  0  0  0  0  0  0  0  0  0
   37.2223  -10.5960  -36.6751 C   0  0  0  0  0  0  0  0  0  0  0  0
   37.5079   -9.2422  -37.0487 C   0  0  0  0  0  0  0  0  0  0  0  0
   38.9837   -8.4273  -36.5092 S   0  0  0  0  0  0  0  0  0  0  0  0
   37.8991  -11.5094  -35.9080 N   0  0  0  0  0  0  0  0  0  0  0  0
   37.1747  -12.6584  -35.8768 C   0  0  0  0  0  0  0  0  0  0  0  0
   36.0434  -12.4867  -36.6170 N   0  0  0  0  0  0  0  0  0  0  0  0
  1  2  2  0  0  0  0
  1  7  1  0  0  0  0
  2  3  1  0  0  0  0
  2  4  1  0  0  0  0
  4  5  2  0  0  0  0
  5  6  1  0  0  0  0
  5 11  1  0  0  0  0
  6  7  2  0  0  0  0
  6  9  1  0  0  0  0
  7  8  1  0  0  0  0
  9 10  1  0  0  0  0
 10 11  2  0  0  0  0
M  END
>  <CHROM.1>
36.88869264,-10.03042845,-37.10073305,1.48320550,-0.50113839,-0.38143513

>  <Name>
ligand

>  <RI>
0

>  <Rbt.Current_Directory>
/home/itssahil/PROJECTS/Mol_Feturizer/New_Systems/rnas/3RKF

>  <Rbt.Executable>
rbdock ($Id: //depot/dev/client3/rdock/2013.1/src/exe/rbdock.cxx#4 $)

>  <Rbt.Library>
libRbt.so (2013.1, Build901 2013/11/27)

>  <Rbt.Parameter_File>
/export/apps/rDock/src/rDock_2013.1_src/data/scripts/dock_solv.prm

>  <Rbt.Receptor>
prm/blind_docking_100.prm

>  <SCORE>
-15.7921

>  <SCORE.INTER>
-15.7921

>  <SCORE.INTER.CONST>
1

>  <SCORE.INTER.POLAR>
0

>  <SCORE.INTER.ROT>
0

>  <SCORE.INTER.SOLV>
9.47374

>  <SCORE.INTER.VDW>
-17.286

>  <SCORE.INTER.norm>
-1.43565

>  <SCORE.INTRA>
0

>  <SCORE.INTRA.DIHEDRAL>
0

>  <SCORE.INTRA.DIHEDRAL.0>
0

>  <SCORE.INTRA.POLAR>
0

>  <SCORE.INTRA.POLAR.0>
0

>  <SCORE.INTRA.REPUL>
0

>  <SCORE.INTRA.REPUL.0>
0

>  <SCORE.INTRA.SOLV>
0

>  <SCORE.INTRA.SOLV.lig_0>
-28.6198

>  <SCORE.INTRA.VDW>
0

>  <SCORE.INTRA.VDW.0>
0

>  <SCORE.INTRA.norm>
0

>  <SCORE.RESTR>
0

>  <SCORE.RESTR.CAVITY>
0

>  <SCORE.RESTR.norm>
0

>  <SCORE.SYSTEM>
0

>  <SCORE.SYSTEM.CONST>
0

>  <SCORE.SYSTEM.DIHEDRAL>
0

>  <SCORE.SYSTEM.SOLV>
0

>  <SCORE.SYSTEM.norm>
0

>  <SCORE.heavy>
11

>  <SCORE.norm>
-1.43565

>  <RMSD>
2.893

$$$$
ligand
 OpenBabel11021811483D
libRbt.so/2013.1/901 2013/11/27
 11 12  0  0  0  0  0  0  0  0999 V2000
   36.6228   -8.5946  -37.8370 N   0  0  0  0  0  0  0  0  0  0  0  0
   35.4972   -9.1990  -38.2456 C   0  0  0  0  0  0  0  0  0  0  0  0
   34.5821   -8.4787  -39.0727 N   0  0  0  0  0  0  0  0  0  0  0  0
   35.2166  -10.4585  -37.8949 N   0  0  0  0  0  0  0  0  0  0  0  0
   36.0876  -11.1723  -37.0950 C   0  0  0  0  0  0  0  0  0  0  0  0
   37.2413  -10.5691  -36.6669 C   0  0  0  0  0  0  0  0  0  0  0  0
   37.5259   -9.2190  -37.0542 C   0  0  0  0  0  0  0  0  0  0  0  0
   39.0066   -8.4014  -36.5326 S   0  0  0  0  0  0  0  0  0  0  0  0
   37.9226  -11.4767  -35.8969 N   0  0  0  0  0  0  0  0  0  0  0  0
   37.1970  -12.6244  -35.8505 C   0  0  0  0  0  0  0  0  0  0  0  0
   36.0605  -12.4577  -36.5839 N   0  0  0  0  0  0  0  0  0  0  0  0
  1  2  2  0  0  0  0
  1  7  1  0  0  0  0
  2  3  1  0  0  0  0
  2  4  1  0  0  0  0
  4  5  2  0  0  0  0
  5  6  1  0  0  0  0
  5 11  1  0  0  0  0
  6  7  2  0  0  0  0
  6  9  1  0  0  0  0
  7  8  1  0  0  0  0
  9 10  1  0  0  0  0
 10 11  2  0  0  0  0
M  END
>  <CHROM.1>
36.90534579,-10.00680967,-37.09500403,1.48496924,-0.49392331,-0.38924350

>  <Name>
ligand

>  <RI>
0

>  <Rbt.Current_Directory>
/home/itssahil/PROJECTS/Mol_Feturizer/New_Systems/rnas/3RKF

>  <Rbt.Executable>
rbdock ($Id: //depot/dev/client3/rdock/2013.1/src/exe/rbdock.cxx#4 $)

>  <Rbt.Library>
libRbt.so (2013.1, Build901 2013/11/27)

>  <Rbt.Parameter_File>
/export/apps/rDock/src/rDock_2013.1_src/data/scripts/dock_solv.prm

>  <Rbt.Receptor>
prm/blind_docking_60.prm

>  <SCORE>
-15.7574

>  <SCORE.INTER>
-15.7574

>  <SCORE.INTER.CONST>
1

>  <SCORE.INTER.POLAR>
0

>  <SCORE.INTER.ROT>
0

>  <SCORE.INTER.SOLV>
9.47044

>  <SCORE.INTER.VDW>
-17.2617

>  <SCORE.INTER.norm>
-1.43249

>  <SCORE.INTRA>
0

>  <SCORE.INTRA.DIHEDRAL>
0

>  <SCORE.INTRA.DIHEDRAL.0>
0

>  <SCORE.INTRA.POLAR>
0

>  <SCORE.INTRA.POLAR.0>
0

>  <SCORE.INTRA.REPUL>
0

>  <SCORE.INTRA.REPUL.0>
0

>  <SCORE.INTRA.SOLV>
0

>  <SCORE.INTRA.SOLV.lig_0>
-28.6198

>  <SCORE.INTRA.VDW>
0

>  <SCORE.INTRA.VDW.0>
0

>  <SCORE.INTRA.norm>
0

>  <SCORE.RESTR>
0

>  <SCORE.RESTR.CAVITY>
0

>  <SCORE.RESTR.norm>
0

>  <SCORE.SYSTEM>
0

>  <SCORE.SYSTEM.CONST>
0

>  <SCORE.SYSTEM.DIHEDRAL>
0

>  <SCORE.SYSTEM.SOLV>
0

>  <SCORE.SYSTEM.norm>
0

>  <SCORE.heavy>
11

>  <SCORE.norm>
-1.43249

>  <RMSD>
2.893

$$$$
ligand
 OpenBabel11021811483D
libRbt.so/2013.1/901 2013/11/27
 11 12  0  0  0  0  0  0  0  0999 V2000
   36.5947   -8.5932  -37.8381 N   0  0  0  0  0  0  0  0  0  0  0  0
   35.4788   -9.2054  -38.2614 C   0  0  0  0  0  0  0  0  0  0  0  0
   34.5665   -8.4894  -39.0954 N   0  0  0  0  0  0  0  0  0  0  0  0
   35.2052  -10.4687  -37.9189 N   0  0  0  0  0  0  0  0  0  0  0  0
   36.0735  -11.1785  -37.1126 C   0  0  0  0  0  0  0  0  0  0  0  0
   37.2173  -10.5673  -36.6696 C   0  0  0  0  0  0  0  0  0  0  0  0
   37.4946   -9.2132  -37.0482 C   0  0  0  0  0  0  0  0  0  0  0  0
   38.9625   -8.3853  -36.5071 S   0  0  0  0  0  0  0  0  0  0  0  0
   37.8980  -11.4723  -35.8959 N   0  0  0  0  0  0  0  0  0  0  0  0
   37.1818  -12.6264  -35.8622 C   0  0  0  0  0  0  0  0  0  0  0  0
   36.0519  -12.4662  -36.6072 N   0  0  0  0  0  0  0  0  0  0  0  0
  1  2  2  0  0  0  0
  1  7  1  0  0  0  0
  2  3  1  0  0  0  0
  2  4  1  0  0  0  0
  4  5  2  0  0  0  0
  5  6  1  0  0  0  0
  5 11  1  0  0  0  0
  6  7  2  0  0  0  0
  6  9  1  0  0  0  0
  7  8  1  0  0  0  0
  9 10  1  0  0  0  0
 10 11  2  0  0  0  0
M  END
>  <CHROM.1>
36.88124763,-10.00609582,-37.09894615,1.48932197,-0.50716292,-0.38297256

>  <Name>
ligand

>  <RI>
0

>  <Rbt.Current_Directory>
/home/itssahil/PROJECTS/Mol_Feturizer/New_Systems/rnas/3RKF

>  <Rbt.Executable>
rbdock ($Id: //depot/dev/client3/rdock/2013.1/src/exe/rbdock.cxx#4 $)

>  <Rbt.Library>
libRbt.so (2013.1, Build901 2013/11/27)

>  <Rbt.Parameter_File>
/export/apps/rDock/src/rDock_2013.1_src/data/scripts/dock_solv.prm

>  <Rbt.Receptor>
prm/pocket_docking_3.prm

>  <SCORE>
-15.8047

>  <SCORE.INTER>
-15.8047

>  <SCORE.INTER.CONST>
1

>  <SCORE.INTER.POLAR>
0

>  <SCORE.INTER.ROT>
0

>  <SCORE.INTER.SOLV>
9.48093

>  <SCORE.INTER.VDW>
-17.2968

>  <SCORE.INTER.norm>
-1.43679

>  <SCORE.INTRA>
0

>  <SCORE.INTRA.DIHEDRAL>
0

>  <SCORE.INTRA.DIHEDRAL.0>
0

>  <SCORE.INTRA.POLAR>
0

>  <SCORE.INTRA.POLAR.0>
0

>  <SCORE.INTRA.REPUL>
0

>  <SCORE.INTRA.REPUL.0>
0

>  <SCORE.INTRA.SOLV>
0

>  <SCORE.INTRA.SOLV.lig_0>
-28.6198

>  <SCORE.INTRA.VDW>
0

>  <SCORE.INTRA.VDW.0>
0

>  <SCORE.INTRA.norm>
0

>  <SCORE.RESTR>
0

>  <SCORE.RESTR.CAVITY>
0

>  <SCORE.RESTR.norm>
0

>  <SCORE.SYSTEM>
0

>  <SCORE.SYSTEM.CONST>
0

>  <SCORE.SYSTEM.DIHEDRAL>
0

>  <SCORE.SYSTEM.SOLV>
0

>  <SCORE.SYSTEM.norm>
0

>  <SCORE.heavy>
11

>  <SCORE.norm>
-1.43679

>  <RMSD>
2.893

$$$$
ligand
 OpenBabel11021811483D
libRbt.so/2013.1/901 2013/11/27
 11 12  0  0  0  0  0  0  0  0999 V2000
   36.6007   -8.5806  -37.8457 N   0  0  0  0  0  0  0  0  0  0  0  0
   35.4818   -9.1949  -38.2581 C   0  0  0  0  0  0  0  0  0  0  0  0
   34.5663   -8.4848  -39.0935 N   0  0  0  0  0  0  0  0  0  0  0  0
   35.2084  -10.4548  -37.9035 N   0  0  0  0  0  0  0  0  0  0  0  0
   36.0799  -11.1589  -37.0955 C   0  0  0  0  0  0  0  0  0  0  0  0
   37.2267  -10.5454  -36.6635 C   0  0  0  0  0  0  0  0  0  0  0  0
   37.5038   -9.1950  -37.0551 C   0  0  0  0  0  0  0  0  0  0  0  0
   38.9754   -8.3644  -36.5285 S   0  0  0  0  0  0  0  0  0  0  0  0
   37.9102  -11.4447  -35.8857 N   0  0  0  0  0  0  0  0  0  0  0  0
   37.1926  -12.5975  -35.8384 C   0  0  0  0  0  0  0  0  0  0  0  0
   36.0592  -12.4422  -36.5791 N   0  0  0  0  0  0  0  0  0  0  0  0
  1  2  2  0  0  0  0
  1  7  1  0  0  0  0
  2  3  1  0  0  0  0
  2  4  1  0  0  0  0
  4  5  2  0  0  0  0
  5  6  1  0  0  0  0
  5 11  1  0  0  0  0
  6  7  2  0  0  0  0
  6  9  1  0  0  0  0
  7  8  1  0  0  0  0
  9 10  1  0  0  0  0
 10 11  2  0  0  0  0
M  END
>  <CHROM.1>
36.88918184,-9.98746107,-37.09595276,1.49013484,-0.50198083,-0.39109838

>  <Name>
ligand

>  <RI>
0

>  <Rbt.Current_Directory>
/home/itssahil/PROJECTS/Mol_Feturizer/New_Systems/rnas/3RKF

>  <Rbt.Executable>
rbdock ($Id: //depot/dev/client3/rdock/2013.1/src/exe/rbdock.cxx#4 $)

>  <Rbt.Library>
libRbt.so (2013.1, Build901 2013/11/27)

>  <Rbt.Parameter_File>
/export/apps/rDock/src/rDock_2013.1_src/data/scripts/dock_solv.prm

>  <Rbt.Receptor>
prm/pocket_docking_3.prm

>  <SCORE>
-15.7795

>  <SCORE.INTER>
-15.7795

>  <SCORE.INTER.CONST>
1

>  <SCORE.INTER.POLAR>
0

>  <SCORE.INTER.ROT>
0

>  <SCORE.INTER.SOLV>
9.48853

>  <SCORE.INTER.VDW>
-17.2825

>  <SCORE.INTER.norm>
-1.4345

>  <SCORE.INTRA>
0

>  <SCORE.INTRA.DIHEDRAL>
0

>  <SCORE.INTRA.DIHEDRAL.0>
0

>  <SCORE.INTRA.POLAR>
0

>  <SCORE.INTRA.POLAR.0>
0

>  <SCORE.INTRA.REPUL>
0

>  <SCORE.INTRA.REPUL.0>
0

>  <SCORE.INTRA.SOLV>
0

>  <SCORE.INTRA.SOLV.lig_0>
-28.6198

>  <SCORE.INTRA.VDW>
0

>  <SCORE.INTRA.VDW.0>
0

>  <SCORE.INTRA.norm>
0

>  <SCORE.RESTR>
0

>  <SCORE.RESTR.CAVITY>
0

>  <SCORE.RESTR.norm>
0

>  <SCORE.SYSTEM>
0

>  <SCORE.SYSTEM.CONST>
0

>  <SCORE.SYSTEM.DIHEDRAL>
0

>  <SCORE.SYSTEM.SOLV>
0

>  <SCORE.SYSTEM.norm>
0

>  <SCORE.heavy>
11

>  <SCORE.norm>
-1.4345

>  <RMSD>
2.893

$$$$
ligand
 OpenBabel11021811483D
libRbt.so/2013.1/901 2013/11/27
 11 12  0  0  0  0  0  0  0  0999 V2000
   36.6175   -8.6184  -37.8441 N   0  0  0  0  0  0  0  0  0  0  0  0
   35.4877   -9.2136  -38.2546 C   0  0  0  0  0  0  0  0  0  0  0  0
   34.5837   -8.4885  -39.0897 N   0  0  0  0  0  0  0  0  0  0  0  0
   35.1928  -10.4682  -37.8984 N   0  0  0  0  0  0  0  0  0  0  0  0
   36.0528  -11.1865  -37.0907 C   0  0  0  0  0  0  0  0  0  0  0  0
   37.2106  -10.5926  -36.6606 C   0  0  0  0  0  0  0  0  0  0  0  0
   37.5107   -9.2476  -37.0538 C   0  0  0  0  0  0  0  0  0  0  0  0
   38.9972   -8.4423  -36.5298 S   0  0  0  0  0  0  0  0  0  0  0  0
   37.8792  -11.5029  -35.8826 N   0  0  0  0  0  0  0  0  0  0  0  0
   37.1418  -12.6430  -35.8334 C   0  0  0  0  0  0  0  0  0  0  0  0
   36.0104  -12.4687  -36.5729 N   0  0  0  0  0  0  0  0  0  0  0  0
  1  2  2  0  0  0  0
  1  7  1  0  0  0  0
  2  3  1  0  0  0  0
  2  4  1  0  0  0  0
  4  5  2  0  0  0  0
  5  6  1  0  0  0  0
  5 11  1  0  0  0  0
  6  7  2  0  0  0  0
  6  9  1  0  0  0  0
  7  8  1  0  0  0  0
  9 10  1  0  0  0  0
 10 11  2  0  0  0  0
M  END
>  <CHROM.1>
36.88235024,-10.02932978,-37.09322579,1.47235704,-0.49424019,-0.40060996

>  <Name>
ligand

>  <RI>
0

>  <Rbt.Current_Directory>
/home/itssahil/PROJECTS/Mol_Feturizer/New_Systems/rnas/3RKF

>  <Rbt.Executable>
rbdock ($Id: //depot/dev/client3/rdock/2013.1/src/exe/rbdock.cxx#4 $)

>  <Rbt.Library>
libRbt.so (2013.1, Build901 2013/11/27)

>  <Rbt.Parameter_File>
/export/apps/rDock/src/rDock_2013.1_src/data/scripts/dock_solv.prm

>  <Rbt.Receptor>
prm/pocket_docking_3.prm

>  <SCORE>
-15.7992

>  <SCORE.INTER>
-15.7992

>  <SCORE.INTER.CONST>
1

>  <SCORE.INTER.POLAR>
0

>  <SCORE.INTER.ROT>
0

>  <SCORE.INTER.SOLV>
9.53212

>  <SCORE.INTER.VDW>
-17.3102

>  <SCORE.INTER.norm>
-1.43629

>  <SCORE.INTRA>
0

>  <SCORE.INTRA.DIHEDRAL>
0

>  <SCORE.INTRA.DIHEDRAL.0>
0

>  <SCORE.INTRA.POLAR>
0

>  <SCORE.INTRA.POLAR.0>
0

>  <SCORE.INTRA.REPUL>
0

>  <SCORE.INTRA.REPUL.0>
0

>  <SCORE.INTRA.SOLV>
0

>  <SCORE.INTRA.SOLV.lig_0>
-28.6198

>  <SCORE.INTRA.VDW>
0

>  <SCORE.INTRA.VDW.0>
0

>  <SCORE.INTRA.norm>
0

>  <SCORE.RESTR>
0

>  <SCORE.RESTR.CAVITY>
0

>  <SCORE.RESTR.norm>
0

>  <SCORE.SYSTEM>
0

>  <SCORE.SYSTEM.CONST>
0

>  <SCORE.SYSTEM.DIHEDRAL>
0

>  <SCORE.SYSTEM.SOLV>
0

>  <SCORE.SYSTEM.norm>
0

>  <SCORE.heavy>
11

>  <SCORE.norm>
-1.43629

>  <RMSD>
2.893

$$$$
ligand
 OpenBabel11021811483D
libRbt.so/2013.1/901 2013/11/27
 11 12  0  0  0  0  0  0  0  0999 V2000
   36.6062   -8.6119  -37.8359 N   0  0  0  0  0  0  0  0  0  0  0  0
   35.4838   -9.2141  -38.2567 C   0  0  0  0  0  0  0  0  0  0  0  0
   34.5729   -8.4877  -39.0831 N   0  0  0  0  0  0  0  0  0  0  0  0
   35.2026  -10.4768  -37.9185 N   0  0  0  0  0  0  0  0  0  0  0  0
   36.0695  -11.1965  -37.1194 C   0  0  0  0  0  0  0  0  0  0  0  0
   37.2198  -10.5957  -36.6791 C   0  0  0  0  0  0  0  0  0  0  0  0
   37.5052   -9.2419  -37.0531 C   0  0  0  0  0  0  0  0  0  0  0  0
   38.9816   -8.4272  -36.5153 S   0  0  0  0  0  0  0  0  0  0  0  0
   37.8975  -11.5091  -35.9127 N   0  0  0  0  0  0  0  0  0  0  0  0
   37.1730  -12.6580  -35.8806 C   0  0  0  0  0  0  0  0  0  0  0  0
   36.0409  -12.4863  -36.6196 N   0  0  0  0  0  0  0  0  0  0  0  0
  1  2  2  0  0  0  0
  1  7  1  0  0  0  0
  2  3  1  0  0  0  0
  2  4  1  0  0  0  0
  4  5  2  0  0  0  0
  5  6  1  0  0  0  0
  5 11  1  0  0  0  0
  6  7  2  0  0  0  0
  6  9  1  0  0  0  0
  7  8  1  0  0  0  0
  9 10  1  0  0  0  0
 10 11  2  0  0  0  0
M  END
>  <CHROM.1>
36.88583588,-10.03011101,-37.10439115,1.48359827,-0.50005340,-0.38129687

>  <Name>
ligand

>  <RI>
0

>  <Rbt.Current_Directory>
/home/itssahil/PROJECTS/Mol_Feturizer/New_Systems/rnas/3RKF

>  <Rbt.Executable>
rbdock ($Id: //depot/dev/client3/rdock/2013.1/src/exe/rbdock.cxx#4 $)

>  <Rbt.Library>
libRbt.so (2013.1, Build901 2013/11/27)

>  <Rbt.Parameter_File>
/export/apps/rDock/src/rDock_2013.1_src/data/scripts/dock_solv.prm

>  <Rbt.Receptor>
prm/pocket_docking_4.prm

>  <SCORE>
-15.7893

>  <SCORE.INTER>
-15.7893

>  <SCORE.INTER.CONST>
1

>  <SCORE.INTER.POLAR>
0

>  <SCORE.INTER.ROT>
0

>  <SCORE.INTER.SOLV>
9.46442

>  <SCORE.INTER.VDW>
-17.281

>  <SCORE.INTER.norm>
-1.43539

>  <SCORE.INTRA>
0

>  <SCORE.INTRA.DIHEDRAL>
0

>  <SCORE.INTRA.DIHEDRAL.0>
0

>  <SCORE.INTRA.POLAR>
0

>  <SCORE.INTRA.POLAR.0>
0

>  <SCORE.INTRA.REPUL>
0

>  <SCORE.INTRA.REPUL.0>
0

>  <SCORE.INTRA.SOLV>
0

>  <SCORE.INTRA.SOLV.lig_0>
-28.6198

>  <SCORE.INTRA.VDW>
0

>  <SCORE.INTRA.VDW.0>
0

>  <SCORE.INTRA.norm>
0

>  <SCORE.RESTR>
0

>  <SCORE.RESTR.CAVITY>
0

>  <SCORE.RESTR.norm>
0

>  <SCORE.SYSTEM>
0

>  <SCORE.SYSTEM.CONST>
0

>  <SCORE.SYSTEM.DIHEDRAL>
0

>  <SCORE.SYSTEM.SOLV>
0

>  <SCORE.SYSTEM.norm>
0

>  <SCORE.heavy>
11

>  <SCORE.norm>
-1.43539

>  <RMSD>
2.893

$$$$
ligand
 OpenBabel11021811483D
libRbt.so/2013.1/901 2013/11/27
 11 12  0  0  0  0  0  0  0  0999 V2000
   36.5901   -8.5832  -37.8475 N   0  0  0  0  0  0  0  0  0  0  0  0
   35.4675   -9.1924  -38.2572 C   0  0  0  0  0  0  0  0  0  0  0  0
   34.5560   -8.4801  -39.0952 N   0  0  0  0  0  0  0  0  0  0  0  0
   35.1865  -10.4492  -37.8975 N   0  0  0  0  0  0  0  0  0  0  0  0
   36.0540  -11.1553  -37.0870 C   0  0  0  0  0  0  0  0  0  0  0  0
   37.2046  -10.5471  -36.6577 C   0  0  0  0  0  0  0  0  0  0  0  0
   37.4897   -9.1999  -37.0546 C   0  0  0  0  0  0  0  0  0  0  0  0
   38.9665   -8.3761  -36.5317 S   0  0  0  0  0  0  0  0  0  0  0  0
   37.8828  -11.4474  -35.8764 N   0  0  0  0  0  0  0  0  0  0  0  0
   37.1583  -12.5956  -35.8244 C   0  0  0  0  0  0  0  0  0  0  0  0
   36.0257  -12.4364  -36.5654 N   0  0  0  0  0  0  0  0  0  0  0  0
  1  2  2  0  0  0  0
  1  7  1  0  0  0  0
  2  3  1  0  0  0  0
  2  4  1  0  0  0  0
  4  5  2  0  0  0  0
  5  6  1  0  0  0  0
  5 11  1  0  0  0  0
  6  7  2  0  0  0  0
  6  9  1  0  0  0  0
  7  8  1  0  0  0  0
  9 10  1  0  0  0  0
 10 11  2  0  0  0  0
M  END
>  <CHROM.1>
36.87030827,-9.98879626,-37.09224135,1.48388239,-0.49944345,-0.39806822

>  <Name>
ligand

>  <RI>
0

>  <Rbt.Current_Directory>
/home/itssahil/PROJECTS/Mol_Feturizer/New_Systems/rnas/3RKF

>  <Rbt.Executable>
rbdock ($Id: //depot/dev/client3/rdock/2013.1/src/exe/rbdock.cxx#4 $)

>  <Rbt.Library>
libRbt.so (2013.1, Build901 2013/11/27)

>  <Rbt.Parameter_File>
/export/apps/rDock/src/rDock_2013.1_src/data/scripts/dock_solv.prm

>  <Rbt.Receptor>
prm/pocket_docking_4.prm

>  <SCORE>
-15.7632

>  <SCORE.INTER>
-15.7632

>  <SCORE.INTER.CONST>
1

>  <SCORE.INTER.POLAR>
0

>  <SCORE.INTER.ROT>
0

>  <SCORE.INTER.SOLV>
9.47063

>  <SCORE.INTER.VDW>
-17.2656

>  <SCORE.INTER.norm>
-1.43301

>  <SCORE.INTRA>
0

>  <SCORE.INTRA.DIHEDRAL>
0

>  <SCORE.INTRA.DIHEDRAL.0>
0

>  <SCORE.INTRA.POLAR>
0

>  <SCORE.INTRA.POLAR.0>
0

>  <SCORE.INTRA.REPUL>
0

>  <SCORE.INTRA.REPUL.0>
0

>  <SCORE.INTRA.SOLV>
0

>  <SCORE.INTRA.SOLV.lig_0>
-28.6198

>  <SCORE.INTRA.VDW>
0

>  <SCORE.INTRA.VDW.0>
0

>  <SCORE.INTRA.norm>
0

>  <SCORE.RESTR>
0

>  <SCORE.RESTR.CAVITY>
0

>  <SCORE.RESTR.norm>
0

>  <SCORE.SYSTEM>
0

>  <SCORE.SYSTEM.CONST>
0

>  <SCORE.SYSTEM.DIHEDRAL>
0

>  <SCORE.SYSTEM.SOLV>
0

>  <SCORE.SYSTEM.norm>
0

>  <SCORE.heavy>
11

>  <SCORE.norm>
-1.43301

>  <RMSD>
2.893

$$$$
ligand
 OpenBabel11021811483D
libRbt.so/2013.1/901 2013/11/27
 11 12  0  0  0  0  0  0  0  0999 V2000
   36.6465   -8.6316  -37.8733 N   0  0  0  0  0  0  0  0  0  0  0  0
   35.5315   -9.2399  -38.3047 C   0  0  0  0  0  0  0  0  0  0  0  0
   34.6345   -8.5252  -39.1561 N   0  0  0  0  0  0  0  0  0  0  0  0
   35.2449  -10.4981  -37.9542 N   0  0  0  0  0  0  0  0  0  0  0  0
   36.0984  -11.2066  -37.1310 C   0  0  0  0  0  0  0  0  0  0  0  0
   37.2410  -10.5992  -36.6796 C   0  0  0  0  0  0  0  0  0  0  0  0
   37.5323   -9.2506  -37.0670 C   0  0  0  0  0  0  0  0  0  0  0  0
   38.9993   -8.4279  -36.5155 S   0  0  0  0  0  0  0  0  0  0  0  0
   37.9059  -11.5019  -35.8896 N   0  0  0  0  0  0  0  0  0  0  0  0
   37.1813  -12.6506  -35.8541 C   0  0  0  0  0  0  0  0  0  0  0  0
   36.0617  -12.4894  -36.6143 N   0  0  0  0  0  0  0  0  0  0  0  0
  1  2  2  0  0  0  0
  1  7  1  0  0  0  0
  2  3  1  0  0  0  0
  2  4  1  0  0  0  0
  4  5  2  0  0  0  0
  5  6  1  0  0  0  0
  5 11  1  0  0  0  0
  6  7  2  0  0  0  0
  6  9  1  0  0  0  0
  7  8  1  0  0  0  0
  9 10  1  0  0  0  0
 10 11  2  0  0  0  0
M  END
>  <CHROM.1>
36.91412514,-10.03965509,-37.11803711,1.47663513,-0.51575501,-0.39822780

>  <Name>
ligand

>  <RI>
0

>  <Rbt.Current_Directory>
/home/itssahil/PROJECTS/Mol_Feturizer/New_Systems/rnas/3RKF

>  <Rbt.Executable>
rbdock ($Id: //depot/dev/client3/rdock/2013.1/src/exe/rbdock.cxx#4 $)

>  <Rbt.Library>
libRbt.so (2013.1, Build901 2013/11/27)

>  <Rbt.Parameter_File>
/export/apps/rDock/src/rDock_2013.1_src/data/scripts/dock_solv.prm

>  <Rbt.Receptor>
prm/pocket_docking_5.prm

>  <SCORE>
-15.7354

>  <SCORE.INTER>
-15.7354

>  <SCORE.INTER.CONST>
1

>  <SCORE.INTER.POLAR>
0

>  <SCORE.INTER.ROT>
0

>  <SCORE.INTER.SOLV>
9.91116

>  <SCORE.INTER.VDW>
-17.394

>  <SCORE.INTER.norm>
-1.43049

>  <SCORE.INTRA>
0

>  <SCORE.INTRA.DIHEDRAL>
0

>  <SCORE.INTRA.DIHEDRAL.0>
0

>  <SCORE.INTRA.POLAR>
0

>  <SCORE.INTRA.POLAR.0>
0

>  <SCORE.INTRA.REPUL>
0

>  <SCORE.INTRA.REPUL.0>
0

>  <SCORE.INTRA.SOLV>
0

>  <SCORE.INTRA.SOLV.lig_0>
-28.6198

>  <SCORE.INTRA.VDW>
0

>  <SCORE.INTRA.VDW.0>
0

>  <SCORE.INTRA.norm>
0

>  <SCORE.RESTR>
0

>  <SCORE.RESTR.CAVITY>
0

>  <SCORE.RESTR.norm>
0

>  <SCORE.SYSTEM>
0

>  <SCORE.SYSTEM.CONST>
0

>  <SCORE.SYSTEM.DIHEDRAL>
0

>  <SCORE.SYSTEM.SOLV>
0

>  <SCORE.SYSTEM.norm>
0

>  <SCORE.heavy>
11

>  <SCORE.norm>
-1.43049

>  <RMSD>
2.893

$$$$
ligand
 OpenBabel11021811483D
libRbt.so/2013.1/901 2013/11/27
 11 12  0  0  0  0  0  0  0  0999 V2000
   36.6172   -8.6151  -37.7856 N   0  0  0  0  0  0  0  0  0  0  0  0
   35.4933   -9.2055  -38.2185 C   0  0  0  0  0  0  0  0  0  0  0  0
   34.5824   -8.4588  -39.0266 N   0  0  0  0  0  0  0  0  0  0  0  0
   35.2105  -10.4753  -37.9093 N   0  0  0  0  0  0  0  0  0  0  0  0
   36.0773  -11.2148  -37.1284 C   0  0  0  0  0  0  0  0  0  0  0  0
   37.2292  -10.6261  -36.6759 C   0  0  0  0  0  0  0  0  0  0  0  0
   37.5163   -9.2646  -37.0188 C   0  0  0  0  0  0  0  0  0  0  0  0
   38.9948   -8.4649  -36.4644 S   0  0  0  0  0  0  0  0  0  0  0  0
   37.9064  -11.5581  -35.9318 N   0  0  0  0  0  0  0  0  0  0  0  0
   37.1801  -12.7063  -35.9253 C   0  0  0  0  0  0  0  0  0  0  0  0
   36.0472  -12.5157  -36.6585 N   0  0  0  0  0  0  0  0  0  0  0  0
  1  2  2  0  0  0  0
  1  7  1  0  0  0  0
  2  3  1  0  0  0  0
  2  4  1  0  0  0  0
  4  5  2  0  0  0  0
  5  6  1  0  0  0  0
  5 11  1  0  0  0  0
  6  7  2  0  0  0  0
  6  9  1  0  0  0  0
  7  8  1  0  0  0  0
  9 10  1  0  0  0  0
 10 11  2  0  0  0  0
M  END
>  <CHROM.1>
36.89557782,-10.05032495,-37.08747866,1.48243272,-0.49814510,-0.35868744

>  <Name>
ligand

>  <RI>
0

>  <Rbt.Current_Directory>
/home/itssahil/PROJECTS/Mol_Feturizer/New_Systems/rnas/3RKF

>  <Rbt.Executable>
rbdock ($Id: //depot/dev/client3/rdock/2013.1/src/exe/rbdock.cxx#4 $)

>  <Rbt.Library>
libRbt.so (2013.1, Build901 2013/11/27)

>  <Rbt.Parameter_File>
/export/apps/rDock/src/rDock_2013.1_src/data/scripts/dock_solv.prm

>  <Rbt.Receptor>
prm/pocket_docking_5.prm

>  <SCORE>
-15.679

>  <SCORE.INTER>
-15.679

>  <SCORE.INTER.CONST>
1

>  <SCORE.INTER.POLAR>
0

>  <SCORE.INTER.ROT>
0

>  <SCORE.INTER.SOLV>
9.29326

>  <SCORE.INTER.VDW>
-17.1504

>  <SCORE.INTER.norm>
-1.42536

>  <SCORE.INTRA>
0

>  <SCORE.INTRA.DIHEDRAL>
0

>  <SCORE.INTRA.DIHEDRAL.0>
0

>  <SCORE.INTRA.POLAR>
0

>  <SCORE.INTRA.POLAR.0>
0

>  <SCORE.INTRA.REPUL>
0

>  <SCORE.INTRA.REPUL.0>
0

>  <SCORE.INTRA.SOLV>
0

>  <SCORE.INTRA.SOLV.lig_0>
-28.6198

>  <SCORE.INTRA.VDW>
0

>  <SCORE.INTRA.VDW.0>
0

>  <SCORE.INTRA.norm>
0

>  <SCORE.RESTR>
0

>  <SCORE.RESTR.CAVITY>
0

>  <SCORE.RESTR.norm>
0

>  <SCORE.SYSTEM>
0

>  <SCORE.SYSTEM.CONST>
0

>  <SCORE.SYSTEM.DIHEDRAL>
0

>  <SCORE.SYSTEM.SOLV>
0

>  <SCORE.SYSTEM.norm>
0

>  <SCORE.heavy>
11

>  <SCORE.norm>
-1.42536

>  <RMSD>
2.893

$$$$
ligand
 OpenBabel11021811483D
libRbt.so/2013.1/901 2013/11/27
 11 12  0  0  0  0  0  0  0  0999 V2000
   36.6173   -8.6305  -37.8723 N   0  0  0  0  0  0  0  0  0  0  0  0
   35.4993   -9.2370  -38.2984 C   0  0  0  0  0  0  0  0  0  0  0  0
   34.6042   -8.5242  -39.1535 N   0  0  0  0  0  0  0  0  0  0  0  0
   35.2079  -10.4917  -37.9394 N   0  0  0  0  0  0  0  0  0  0  0  0
   36.0594  -11.1982  -37.1125 C   0  0  0  0  0  0  0  0  0  0  0  0
   37.2051  -10.5927  -36.6663 C   0  0  0  0  0  0  0  0  0  0  0  0
   37.5015   -9.2478  -37.0629 C   0  0  0  0  0  0  0  0  0  0  0  0
   38.9725   -8.4277  -36.5185 S   0  0  0  0  0  0  0  0  0  0  0  0
   37.8671  -11.4929  -35.8712 N   0  0  0  0  0  0  0  0  0  0  0  0
   37.1378  -12.6384  -35.8274 C   0  0  0  0  0  0  0  0  0  0  0  0
   36.0180  -12.4775  -36.5874 N   0  0  0  0  0  0  0  0  0  0  0  0
  1  2  2  0  0  0  0
  1  7  1  0  0  0  0
  2  3  1  0  0  0  0
  2  4  1  0  0  0  0
  4  5  2  0  0  0  0
  5  6  1  0  0  0  0
  5 11  1  0  0  0  0
  6  7  2  0  0  0  0
  6  9  1  0  0  0  0
  7  8  1  0  0  0  0
  9 10  1  0  0  0  0
 10 11  2  0  0  0  0
M  END
>  <CHROM.1>
36.87996127,-10.03465486,-37.10809715,1.47278191,-0.51309766,-0.40666735

>  <Name>
ligand

>  <RI>
0

>  <Rbt.Current_Directory>
/home/itssahil/PROJECTS/Mol_Feturizer/New_Systems/rnas/3RKF

>  <Rbt.Executable>
rbdock ($Id: //depot/dev/client3/rdock/2013.1/src/exe/rbdock.cxx#4 $)

>  <Rbt.Library>
libRbt.so (2013.1, Build901 2013/11/27)

>  <Rbt.Parameter_File>
/export/apps/rDock/src/rDock_2013.1_src/data/scripts/dock_solv.prm

>  <Rbt.Receptor>
prm/pocket_docking_5.prm

>  <SCORE>
-15.7427

>  <SCORE.INTER>
-15.7427

>  <SCORE.INTER.CONST>
1

>  <SCORE.INTER.POLAR>
0

>  <SCORE.INTER.ROT>
0

>  <SCORE.INTER.SOLV>
9.83148

>  <SCORE.INTER.VDW>
-17.3723

>  <SCORE.INTER.norm>
-1.43116

>  <SCORE.INTRA>
0

>  <SCORE.INTRA.DIHEDRAL>
0

>  <SCORE.INTRA.DIHEDRAL.0>
0

>  <SCORE.INTRA.POLAR>
0

>  <SCORE.INTRA.POLAR.0>
0

>  <SCORE.INTRA.REPUL>
0

>  <SCORE.INTRA.REPUL.0>
0

>  <SCORE.INTRA.SOLV>
0

>  <SCORE.INTRA.SOLV.lig_0>
-28.6198

>  <SCORE.INTRA.VDW>
0

>  <SCORE.INTRA.VDW.0>
0

>  <SCORE.INTRA.norm>
0

>  <SCORE.RESTR>
0

>  <SCORE.RESTR.CAVITY>
0

>  <SCORE.RESTR.norm>
0

>  <SCORE.SYSTEM>
0

>  <SCORE.SYSTEM.CONST>
0

>  <SCORE.SYSTEM.DIHEDRAL>
0

>  <SCORE.SYSTEM.SOLV>
0

>  <SCORE.SYSTEM.norm>
0

>  <SCORE.heavy>
11

>  <SCORE.norm>
-1.43116

>  <RMSD>
2.893

$$$$
ligand
 OpenBabel11021811483D
libRbt.so/2013.1/901 2013/11/27
 11 12  0  0  0  0  0  0  0  0999 V2000
   36.6121   -8.6023  -37.8194 N   0  0  0  0  0  0  0  0  0  0  0  0
   35.4866   -9.2014  -38.2363 C   0  0  0  0  0  0  0  0  0  0  0  0
   34.5742   -8.4720  -39.0585 N   0  0  0  0  0  0  0  0  0  0  0  0
   35.2037  -10.4638  -37.8982 N   0  0  0  0  0  0  0  0  0  0  0  0
   36.0720  -11.1863  -37.1033 C   0  0  0  0  0  0  0  0  0  0  0  0
   37.2255  -10.5886  -36.6669 C   0  0  0  0  0  0  0  0  0  0  0  0
   37.5126   -9.2352  -37.0407 C   0  0  0  0  0  0  0  0  0  0  0  0
   38.9931   -8.4246  -36.5079 S   0  0  0  0  0  0  0  0  0  0  0  0
   37.9040  -11.5044  -35.9041 N   0  0  0  0  0  0  0  0  0  0  0  0
   37.1769  -12.6516  -35.8703 C   0  0  0  0  0  0  0  0  0  0  0  0
   36.0422  -12.4765  -36.6046 N   0  0  0  0  0  0  0  0  0  0  0  0
  1  2  2  0  0  0  0
  1  7  1  0  0  0  0
  2  3  1  0  0  0  0
  2  4  1  0  0  0  0
  4  5  2  0  0  0  0
  5  6  1  0  0  0  0
  5 11  1  0  0  0  0
  6  7  2  0  0  0  0
  6  9  1  0  0  0  0
  7  8  1  0  0  0  0
  9 10  1  0  0  0  0
 10 11  2  0  0  0  0
M  END
>  <CHROM.1>
36.89122099,-10.02187640,-37.09035431,1.48271595,-0.49552235,-0.38074833

>  <Name>
ligand

>  <RI>
0

>  <Rbt.Current_Directory>
/home/itssahil/PROJECTS/Mol_Feturizer/New_Systems/rnas/3RKF

>  <Rbt.Executable>
rbdock ($Id: //depot/dev/client3/rdock/2013.1/src/exe/rbdock.cxx#4 $)

>  <Rbt.Library>
libRbt.so (2013.1, Build901 2013/11/27)

>  <Rbt.Parameter_File>
/export/apps/rDock/src/rDock_2013.1_src/data/scripts/dock_solv.prm

>  <Rbt.Receptor>
prm/pocket_docking_6.prm

>  <SCORE>
-15.8214

>  <SCORE.INTER>
-15.8214

>  <SCORE.INTER.CONST>
1

>  <SCORE.INTER.POLAR>
0

>  <SCORE.INTER.ROT>
0

>  <SCORE.INTER.SOLV>
9.39796

>  <SCORE.INTER.VDW>
-17.2803

>  <SCORE.INTER.norm>
-1.43831

>  <SCORE.INTRA>
0

>  <SCORE.INTRA.DIHEDRAL>
0

>  <SCORE.INTRA.DIHEDRAL.0>
0

>  <SCORE.INTRA.POLAR>
0

>  <SCORE.INTRA.POLAR.0>
0

>  <SCORE.INTRA.REPUL>
0

>  <SCORE.INTRA.REPUL.0>
0

>  <SCORE.INTRA.SOLV>
0

>  <SCORE.INTRA.SOLV.lig_0>
-28.6198

>  <SCORE.INTRA.VDW>
0

>  <SCORE.INTRA.VDW.0>
0

>  <SCORE.INTRA.norm>
0

>  <SCORE.RESTR>
0

>  <SCORE.RESTR.CAVITY>
0

>  <SCORE.RESTR.norm>
0

>  <SCORE.SYSTEM>
0

>  <SCORE.SYSTEM.CONST>
0

>  <SCORE.SYSTEM.DIHEDRAL>
0

>  <SCORE.SYSTEM.SOLV>
0

>  <SCORE.SYSTEM.norm>
0

>  <SCORE.heavy>
11

>  <SCORE.norm>
-1.43831

>  <RMSD>
2.893

$$$$
ligand
 OpenBabel11021811483D
libRbt.so/2013.1/901 2013/11/27
 11 12  0  0  0  0  0  0  0  0999 V2000
   36.6142   -8.6107  -37.8357 N   0  0  0  0  0  0  0  0  0  0  0  0
   35.4926   -9.2134  -38.2577 C   0  0  0  0  0  0  0  0  0  0  0  0
   34.5837   -8.4884  -39.0875 N   0  0  0  0  0  0  0  0  0  0  0  0
   35.2104  -10.4755  -37.9178 N   0  0  0  0  0  0  0  0  0  0  0  0
   36.0754  -11.1939  -37.1155 C   0  0  0  0  0  0  0  0  0  0  0  0
   37.2249  -10.5925  -36.6738 C   0  0  0  0  0  0  0  0  0  0  0  0
   37.5114   -9.2395  -37.0497 C   0  0  0  0  0  0  0  0  0  0  0  0
   38.9869   -8.4241  -36.5103 S   0  0  0  0  0  0  0  0  0  0  0  0
   37.9007  -11.5046  -35.9042 N   0  0  0  0  0  0  0  0  0  0  0  0
   37.1758  -12.6533  -35.8716 C   0  0  0  0  0  0  0  0  0  0  0  0
   36.0453  -12.4827  -36.6133 N   0  0  0  0  0  0  0  0  0  0  0  0
  1  2  2  0  0  0  0
  1  7  1  0  0  0  0
  2  3  1  0  0  0  0
  2  4  1  0  0  0  0
  4  5  2  0  0  0  0
  5  6  1  0  0  0  0
  5 11  1  0  0  0  0
  6  7  2  0  0  0  0
  6  9  1  0  0  0  0
  7  8  1  0  0  0  0
  9 10  1  0  0  0  0
 10 11  2  0  0  0  0
M  END
>  <CHROM.1>
36.89196456,-10.02763001,-37.10088783,1.48240356,-0.50196793,-0.38376168

>  <Name>
ligand

>  <RI>
0

>  <Rbt.Current_Directory>
/home/itssahil/PROJECTS/Mol_Feturizer/New_Systems/rnas/3RKF

>  <Rbt.Executable>
rbdock ($Id: //depot/dev/client3/rdock/2013.1/src/exe/rbdock.cxx#4 $)

>  <Rbt.Library>
libRbt.so (2013.1, Build901 2013/11/27)

>  <Rbt.Parameter_File>
/export/apps/rDock/src/rDock_2013.1_src/data/scripts/dock_solv.prm

>  <Rbt.Receptor>
prm/pocket_docking_6.prm

>  <SCORE>
-15.7972

>  <SCORE.INTER>
-15.7972

>  <SCORE.INTER.CONST>
1

>  <SCORE.INTER.POLAR>
0

>  <SCORE.INTER.ROT>
0

>  <SCORE.INTER.SOLV>
9.506

>  <SCORE.INTER.VDW>
-17.3001

>  <SCORE.INTER.norm>
-1.43611

>  <SCORE.INTRA>
0

>  <SCORE.INTRA.DIHEDRAL>
0

>  <SCORE.INTRA.DIHEDRAL.0>
0

>  <SCORE.INTRA.POLAR>
0

>  <SCORE.INTRA.POLAR.0>
0

>  <SCORE.INTRA.REPUL>
0

>  <SCORE.INTRA.REPUL.0>
0

>  <SCORE.INTRA.SOLV>
0

>  <SCORE.INTRA.SOLV.lig_0>
-28.6198

>  <SCORE.INTRA.VDW>
0

>  <SCORE.INTRA.VDW.0>
0

>  <SCORE.INTRA.norm>
0

>  <SCORE.RESTR>
0

>  <SCORE.RESTR.CAVITY>
0

>  <SCORE.RESTR.norm>
0

>  <SCORE.SYSTEM>
0

>  <SCORE.SYSTEM.CONST>
0

>  <SCORE.SYSTEM.DIHEDRAL>
0

>  <SCORE.SYSTEM.SOLV>
0

>  <SCORE.SYSTEM.norm>
0

>  <SCORE.heavy>
11

>  <SCORE.norm>
-1.43611

>  <RMSD>
2.893

$$$$
ligand
 OpenBabel11021811483D
libRbt.so/2013.1/901 2013/11/27
 11 12  0  0  0  0  0  0  0  0999 V2000
   36.6313   -8.6218  -37.8555 N   0  0  0  0  0  0  0  0  0  0  0  0
   35.5124   -9.2272  -38.2807 C   0  0  0  0  0  0  0  0  0  0  0  0
   34.6089   -8.5078  -39.1211 N   0  0  0  0  0  0  0  0  0  0  0  0
   35.2278  -10.4869  -37.9340 N   0  0  0  0  0  0  0  0  0  0  0  0
   36.0875  -11.2000  -37.1214 C   0  0  0  0  0  0  0  0  0  0  0  0
   37.2343  -10.5957  -36.6764 C   0  0  0  0  0  0  0  0  0  0  0  0
   37.5234   -9.2453  -37.0596 C   0  0  0  0  0  0  0  0  0  0  0  0
   38.9955   -8.4264  -36.5163 S   0  0  0  0  0  0  0  0  0  0  0  0
   37.9050  -11.5027  -35.8964 N   0  0  0  0  0  0  0  0  0  0  0  0
   37.1798  -12.6510  -35.8606 C   0  0  0  0  0  0  0  0  0  0  0  0
   36.0541  -12.4853  -36.6107 N   0  0  0  0  0  0  0  0  0  0  0  0
  1  2  2  0  0  0  0
  1  7  1  0  0  0  0
  2  3  1  0  0  0  0
  2  4  1  0  0  0  0
  4  5  2  0  0  0  0
  5  6  1  0  0  0  0
  5 11  1  0  0  0  0
  6  7  2  0  0  0  0
  6  9  1  0  0  0  0
  7  8  1  0  0  0  0
  9 10  1  0  0  0  0
 10 11  2  0  0  0  0
M  END
>  <CHROM.1>
36.90418188,-10.03372745,-37.10941101,1.47952782,-0.50785571,-0.39190507

>  <Name>
ligand

>  <RI>
0

>  <Rbt.Current_Directory>
/home/itssahil/PROJECTS/Mol_Feturizer/New_Systems/rnas/3RKF

>  <Rbt.Executable>
rbdock ($Id: //depot/dev/client3/rdock/2013.1/src/exe/rbdock.cxx#4 $)

>  <Rbt.Library>
libRbt.so (2013.1, Build901 2013/11/27)

>  <Rbt.Parameter_File>
/export/apps/rDock/src/rDock_2013.1_src/data/scripts/dock_solv.prm

>  <Rbt.Receptor>
prm/pocket_docking_6.prm

>  <SCORE>
-15.7402

>  <SCORE.INTER>
-15.7402

>  <SCORE.INTER.CONST>
1

>  <SCORE.INTER.POLAR>
0

>  <SCORE.INTER.ROT>
0

>  <SCORE.INTER.SOLV>
9.69715

>  <SCORE.INTER.VDW>
-17.3258

>  <SCORE.INTER.norm>
-1.43093

>  <SCORE.INTRA>
0

>  <SCORE.INTRA.DIHEDRAL>
0

>  <SCORE.INTRA.DIHEDRAL.0>
0

>  <SCORE.INTRA.POLAR>
0

>  <SCORE.INTRA.POLAR.0>
0

>  <SCORE.INTRA.REPUL>
0

>  <SCORE.INTRA.REPUL.0>
0

>  <SCORE.INTRA.SOLV>
0

>  <SCORE.INTRA.SOLV.lig_0>
-28.6198

>  <SCORE.INTRA.VDW>
0

>  <SCORE.INTRA.VDW.0>
0

>  <SCORE.INTRA.norm>
0

>  <SCORE.RESTR>
0

>  <SCORE.RESTR.CAVITY>
0

>  <SCORE.RESTR.norm>
0

>  <SCORE.SYSTEM>
0

>  <SCORE.SYSTEM.CONST>
0

>  <SCORE.SYSTEM.DIHEDRAL>
0

>  <SCORE.SYSTEM.SOLV>
0

>  <SCORE.SYSTEM.norm>
0

>  <SCORE.heavy>
11

>  <SCORE.norm>
-1.43093

>  <RMSD>
2.893

$$$$
ligand
 OpenBabel11021811483D
libRbt.so/2013.1/901 2013/11/27
 11 12  0  0  0  0  0  0  0  0999 V2000
   36.6470   -8.6349  -37.8814 N   0  0  0  0  0  0  0  0  0  0  0  0
   35.5365   -9.2466  -38.3195 C   0  0  0  0  0  0  0  0  0  0  0  0
   34.6429   -8.5349  -39.1770 N   0  0  0  0  0  0  0  0  0  0  0  0
   35.2513  -10.5055  -37.9703 N   0  0  0  0  0  0  0  0  0  0  0  0
   36.1016  -11.2111  -37.1413 C   0  0  0  0  0  0  0  0  0  0  0  0
   37.2395  -10.6003  -36.6829 C   0  0  0  0  0  0  0  0  0  0  0  0
   37.5295   -9.2510  -37.0691 C   0  0  0  0  0  0  0  0  0  0  0  0
   38.9906   -8.4239  -36.5087 S   0  0  0  0  0  0  0  0  0  0  0  0
   37.9019  -11.5007  -35.8883 N   0  0  0  0  0  0  0  0  0  0  0  0
   37.1803  -12.6514  -35.8569 C   0  0  0  0  0  0  0  0  0  0  0  0
   36.0652  -12.4938  -36.6242 N   0  0  0  0  0  0  0  0  0  0  0  0
  1  2  2  0  0  0  0
  1  7  1  0  0  0  0
  2  3  1  0  0  0  0
  2  4  1  0  0  0  0
  4  5  2  0  0  0  0
  5  6  1  0  0  0  0
  5 11  1  0  0  0  0
  6  7  2  0  0  0  0
  6  9  1  0  0  0  0
  7  8  1  0  0  0  0
  9 10  1  0  0  0  0
 10 11  2  0  0  0  0
M  END
>  <CHROM.1>
36.91384268,-10.04185486,-37.12371971,1.47680931,-0.52273161,-0.39861784

>  <Name>
ligand

>  <RI>
0

>  <Rbt.Current_Directory>
/home/itssahil/PROJECTS/Mol_Feturizer/New_Systems/rnas/3RKF

>  <Rbt.Executable>
rbdock ($Id: //depot/dev/client3/rdock/2013.1/src/exe/rbdock.cxx#4 $)

>  <Rbt.Library>
libRbt.so (2013.1, Build901 2013/11/27)

>  <Rbt.Parameter_File>
/export/apps/rDock/src/rDock_2013.1_src/data/scripts/dock_solv.prm

>  <Rbt.Receptor>
prm/pocket_docking_6.prm

>  <SCORE>
-15.7324

>  <SCORE.INTER>
-15.7324

>  <SCORE.INTER.CONST>
1

>  <SCORE.INTER.POLAR>
0

>  <SCORE.INTER.ROT>
0

>  <SCORE.INTER.SOLV>
10.0125

>  <SCORE.INTER.VDW>
-17.4257

>  <SCORE.INTER.norm>
-1.43022

>  <SCORE.INTRA>
0

>  <SCORE.INTRA.DIHEDRAL>
0

>  <SCORE.INTRA.DIHEDRAL.0>
0

>  <SCORE.INTRA.POLAR>
0

>  <SCORE.INTRA.POLAR.0>
0

>  <SCORE.INTRA.REPUL>
0

>  <SCORE.INTRA.REPUL.0>
0

>  <SCORE.INTRA.SOLV>
0

>  <SCORE.INTRA.SOLV.lig_0>
-28.6198

>  <SCORE.INTRA.VDW>
0

>  <SCORE.INTRA.VDW.0>
0

>  <SCORE.INTRA.norm>
0

>  <SCORE.RESTR>
0

>  <SCORE.RESTR.CAVITY>
0

>  <SCORE.RESTR.norm>
0

>  <SCORE.SYSTEM>
0

>  <SCORE.SYSTEM.CONST>
0

>  <SCORE.SYSTEM.DIHEDRAL>
0

>  <SCORE.SYSTEM.SOLV>
0

>  <SCORE.SYSTEM.norm>
0

>  <SCORE.heavy>
11

>  <SCORE.norm>
-1.43022

>  <RMSD>
2.893

$$$$
ligand
 OpenBabel11021811483D
libRbt.so/2013.1/901 2013/11/27
 11 12  0  0  0  0  0  0  0  0999 V2000
   36.6228   -8.6073  -37.8309 N   0  0  0  0  0  0  0  0  0  0  0  0
   35.4968   -9.2066  -38.2462 C   0  0  0  0  0  0  0  0  0  0  0  0
   34.5864   -8.4798  -39.0728 N   0  0  0  0  0  0  0  0  0  0  0  0
   35.2116  -10.4670  -37.9025 N   0  0  0  0  0  0  0  0  0  0  0  0
   36.0779  -11.1871  -37.1032 C   0  0  0  0  0  0  0  0  0  0  0  0
   37.2319  -10.5892  -36.6684 C   0  0  0  0  0  0  0  0  0  0  0  0
   37.5215   -9.2380  -37.0482 C   0  0  0  0  0  0  0  0  0  0  0  0
   39.0027   -8.4271  -36.5177 S   0  0  0  0  0  0  0  0  0  0  0  0
   37.9081  -11.5024  -35.9005 N   0  0  0  0  0  0  0  0  0  0  0  0
   37.1792  -12.6483  -35.8621 C   0  0  0  0  0  0  0  0  0  0  0  0
   36.0456  -12.4749  -36.5985 N   0  0  0  0  0  0  0  0  0  0  0  0
  1  2  2  0  0  0  0
  1  7  1  0  0  0  0
  2  3  1  0  0  0  0
  2  4  1  0  0  0  0
  4  5  2  0  0  0  0
  5  6  1  0  0  0  0
  5 11  1  0  0  0  0
  6  7  2  0  0  0  0
  6  9  1  0  0  0  0
  7  8  1  0  0  0  0
  9 10  1  0  0  0  0
 10 11  2  0  0  0  0
M  END
>  <CHROM.1>
36.89891467,-10.02389718,-37.09486640,1.48063121,-0.49593901,-0.38645375

>  <Name>
ligand

>  <RI>
0

>  <Rbt.Current_Directory>
/home/itssahil/PROJECTS/Mol_Feturizer/New_Systems/rnas/3RKF

>  <Rbt.Executable>
rbdock ($Id: //depot/dev/client3/rdock/2013.1/src/exe/rbdock.cxx#4 $)

>  <Rbt.Library>
libRbt.so (2013.1, Build901 2013/11/27)

>  <Rbt.Parameter_File>
/export/apps/rDock/src/rDock_2013.1_src/data/scripts/dock_solv.prm

>  <Rbt.Receptor>
prm/pocket_docking_6.prm

>  <SCORE>
-15.7979

>  <SCORE.INTER>
-15.7979

>  <SCORE.INTER.CONST>
1

>  <SCORE.INTER.POLAR>
0

>  <SCORE.INTER.ROT>
0

>  <SCORE.INTER.SOLV>
9.47

>  <SCORE.INTER.VDW>
-17.2886

>  <SCORE.INTER.norm>
-1.43617

>  <SCORE.INTRA>
0

>  <SCORE.INTRA.DIHEDRAL>
0

>  <SCORE.INTRA.DIHEDRAL.0>
0

>  <SCORE.INTRA.POLAR>
0

>  <SCORE.INTRA.POLAR.0>
0

>  <SCORE.INTRA.REPUL>
0

>  <SCORE.INTRA.REPUL.0>
0

>  <SCORE.INTRA.SOLV>
0

>  <SCORE.INTRA.SOLV.lig_0>
-28.6198

>  <SCORE.INTRA.VDW>
0

>  <SCORE.INTRA.VDW.0>
0

>  <SCORE.INTRA.norm>
0

>  <SCORE.RESTR>
0

>  <SCORE.RESTR.CAVITY>
0

>  <SCORE.RESTR.norm>
0

>  <SCORE.SYSTEM>
0

>  <SCORE.SYSTEM.CONST>
0

>  <SCORE.SYSTEM.DIHEDRAL>
0

>  <SCORE.SYSTEM.SOLV>
0

>  <SCORE.SYSTEM.norm>
0

>  <SCORE.heavy>
11

>  <SCORE.norm>
-1.43617

>  <RMSD>
2.893

$$$$
ligand
 OpenBabel11021811483D
libRbt.so/2013.1/901 2013/11/27
 11 12  0  0  0  0  0  0  0  0999 V2000
   36.6155   -8.6108  -37.8391 N   0  0  0  0  0  0  0  0  0  0  0  0
   35.4931   -9.2138  -38.2587 C   0  0  0  0  0  0  0  0  0  0  0  0
   34.5836   -8.4900  -39.0889 N   0  0  0  0  0  0  0  0  0  0  0  0
   35.2107  -10.4751  -37.9160 N   0  0  0  0  0  0  0  0  0  0  0  0
   36.0762  -11.1923  -37.1133 C   0  0  0  0  0  0  0  0  0  0  0  0
   37.2265  -10.5906  -36.6740 C   0  0  0  0  0  0  0  0  0  0  0  0
   37.5132   -9.2385  -37.0528 C   0  0  0  0  0  0  0  0  0  0  0  0
   38.9896   -8.4227  -36.5166 S   0  0  0  0  0  0  0  0  0  0  0  0
   37.9027  -11.5015  -35.9034 N   0  0  0  0  0  0  0  0  0  0  0  0
   37.1773  -12.6498  -35.8677 C   0  0  0  0  0  0  0  0  0  0  0  0
   36.0461  -12.4801  -36.6085 N   0  0  0  0  0  0  0  0  0  0  0  0
  1  2  2  0  0  0  0
  1  7  1  0  0  0  0
  2  3  1  0  0  0  0
  2  4  1  0  0  0  0
  4  5  2  0  0  0  0
  5  6  1  0  0  0  0
  5 11  1  0  0  0  0
  6  7  2  0  0  0  0
  6  9  1  0  0  0  0
  7  8  1  0  0  0  0
  9 10  1  0  0  0  0
 10 11  2  0  0  0  0
M  END
>  <CHROM.1>
36.89335040,-10.02642577,-37.10180771,1.48238364,-0.50080474,-0.38571584

>  <Name>
ligand

>  <RI>
0

>  <Rbt.Current_Directory>
/home/itssahil/PROJECTS/Mol_Feturizer/New_Systems/rnas/3RKF

>  <Rbt.Executable>
rbdock ($Id: //depot/dev/client3/rdock/2013.1/src/exe/rbdock.cxx#4 $)

>  <Rbt.Library>
libRbt.so (2013.1, Build901 2013/11/27)

>  <Rbt.Parameter_File>
/export/apps/rDock/src/rDock_2013.1_src/data/scripts/dock_solv.prm

>  <Rbt.Receptor>
prm/pocket_docking_6.prm

>  <SCORE>
-15.7993

>  <SCORE.INTER>
-15.7993

>  <SCORE.INTER.CONST>
1

>  <SCORE.INTER.POLAR>
0

>  <SCORE.INTER.ROT>
0

>  <SCORE.INTER.SOLV>
9.51642

>  <SCORE.INTER.VDW>
-17.305

>  <SCORE.INTER.norm>
-1.4363

>  <SCORE.INTRA>
0

>  <SCORE.INTRA.DIHEDRAL>
0

>  <SCORE.INTRA.DIHEDRAL.0>
0

>  <SCORE.INTRA.POLAR>
0

>  <SCORE.INTRA.POLAR.0>
0

>  <SCORE.INTRA.REPUL>
0

>  <SCORE.INTRA.REPUL.0>
0

>  <SCORE.INTRA.SOLV>
0

>  <SCORE.INTRA.SOLV.lig_0>
-28.6198

>  <SCORE.INTRA.VDW>
0

>  <SCORE.INTRA.VDW.0>
0

>  <SCORE.INTRA.norm>
0

>  <SCORE.RESTR>
0

>  <SCORE.RESTR.CAVITY>
0

>  <SCORE.RESTR.norm>
0

>  <SCORE.SYSTEM>
0

>  <SCORE.SYSTEM.CONST>
0

>  <SCORE.SYSTEM.DIHEDRAL>
0

>  <SCORE.SYSTEM.SOLV>
0

>  <SCORE.SYSTEM.norm>
0

>  <SCORE.heavy>
11

>  <SCORE.norm>
-1.4363

>  <RMSD>
2.893

$$$$
ligand
 OpenBabel11021811483D
libRbt.so/2013.1/901 2013/11/27
 11 12  0  0  0  0  0  0  0  0999 V2000
   36.5898   -8.5916  -37.8414 N   0  0  0  0  0  0  0  0  0  0  0  0
   35.4746   -9.2058  -38.2638 C   0  0  0  0  0  0  0  0  0  0  0  0
   34.5613   -8.4919  -39.0984 N   0  0  0  0  0  0  0  0  0  0  0  0
   35.2028  -10.4690  -37.9198 N   0  0  0  0  0  0  0  0  0  0  0  0
   36.0723  -11.1768  -37.1129 C   0  0  0  0  0  0  0  0  0  0  0  0
   37.2153  -10.5635  -36.6708 C   0  0  0  0  0  0  0  0  0  0  0  0
   37.4907   -9.2095  -37.0510 C   0  0  0  0  0  0  0  0  0  0  0  0
   38.9576   -8.3790  -36.5112 S   0  0  0  0  0  0  0  0  0  0  0  0
   37.8974  -11.4668  -35.8963 N   0  0  0  0  0  0  0  0  0  0  0  0
   37.1827  -12.6217  -35.8611 C   0  0  0  0  0  0  0  0  0  0  0  0
   36.0525  -12.4639  -36.6061 N   0  0  0  0  0  0  0  0  0  0  0  0
  1  2  2  0  0  0  0
  1  7  1  0  0  0  0
  2  3  1  0  0  0  0
  2  4  1  0  0  0  0
  4  5  2  0  0  0  0
  5  6  1  0  0  0  0
  5 11  1  0  0  0  0
  6  7  2  0  0  0  0
  6  9  1  0  0  0  0
  7  8  1  0  0  0  0
  9 10  1  0  0  0  0
 10 11  2  0  0  0  0
M  END
>  <CHROM.1>
36.87842077,-10.00325714,-37.10072038,1.49082371,-0.50747332,-0.38336326

>  <Name>
ligand

>  <RI>
0

>  <Rbt.Current_Directory>
/home/itssahil/PROJECTS/Mol_Feturizer/New_Systems/rnas/3RKF

>  <Rbt.Executable>
rbdock ($Id: //depot/dev/client3/rdock/2013.1/src/exe/rbdock.cxx#4 $)

>  <Rbt.Library>
libRbt.so (2013.1, Build901 2013/11/27)

>  <Rbt.Parameter_File>
/export/apps/rDock/src/rDock_2013.1_src/data/scripts/dock_solv.prm

>  <Rbt.Receptor>
prm/pocket_docking_6.prm

>  <SCORE>
-15.8045

>  <SCORE.INTER>
-15.8045

>  <SCORE.INTER.CONST>
1

>  <SCORE.INTER.POLAR>
0

>  <SCORE.INTER.ROT>
0

>  <SCORE.INTER.SOLV>
9.47988

>  <SCORE.INTER.VDW>
-17.2963

>  <SCORE.INTER.norm>
-1.43677

>  <SCORE.INTRA>
0

>  <SCORE.INTRA.DIHEDRAL>
0

>  <SCORE.INTRA.DIHEDRAL.0>
0

>  <SCORE.INTRA.POLAR>
0

>  <SCORE.INTRA.POLAR.0>
0

>  <SCORE.INTRA.REPUL>
0

>  <SCORE.INTRA.REPUL.0>
0

>  <SCORE.INTRA.SOLV>
0

>  <SCORE.INTRA.SOLV.lig_0>
-28.6198

>  <SCORE.INTRA.VDW>
0

>  <SCORE.INTRA.VDW.0>
0

>  <SCORE.INTRA.norm>
0

>  <SCORE.RESTR>
0

>  <SCORE.RESTR.CAVITY>
0

>  <SCORE.RESTR.norm>
0

>  <SCORE.SYSTEM>
0

>  <SCORE.SYSTEM.CONST>
0

>  <SCORE.SYSTEM.DIHEDRAL>
0

>  <SCORE.SYSTEM.SOLV>
0

>  <SCORE.SYSTEM.norm>
0

>  <SCORE.heavy>
11

>  <SCORE.norm>
-1.43677

>  <RMSD>
2.893

$$$$
ligand
 OpenBabel11021811483D
libRbt.so/2013.1/901 2013/11/27
 11 12  0  0  0  0  0  0  0  0999 V2000
   36.5918   -8.5930  -37.8420 N   0  0  0  0  0  0  0  0  0  0  0  0
   35.4764   -9.2071  -38.2639 C   0  0  0  0  0  0  0  0  0  0  0  0
   34.5632   -8.4936  -39.0990 N   0  0  0  0  0  0  0  0  0  0  0  0
   35.2042  -10.4700  -37.9190 N   0  0  0  0  0  0  0  0  0  0  0  0
   36.0734  -11.1774  -37.1115 C   0  0  0  0  0  0  0  0  0  0  0  0
   37.2167  -10.5642  -36.6699 C   0  0  0  0  0  0  0  0  0  0  0  0
   37.4924   -9.2105  -37.0511 C   0  0  0  0  0  0  0  0  0  0  0  0
   38.9596   -8.3801  -36.5120 S   0  0  0  0  0  0  0  0  0  0  0  0
   37.8984  -11.4670  -35.8947 N   0  0  0  0  0  0  0  0  0  0  0  0
   37.1834  -12.6217  -35.8585 C   0  0  0  0  0  0  0  0  0  0  0  0
   36.0532  -12.4641  -36.6036 N   0  0  0  0  0  0  0  0  0  0  0  0
  1  2  2  0  0  0  0
  1  7  1  0  0  0  0
  2  3  1  0  0  0  0
  2  4  1  0  0  0  0
  4  5  2  0  0  0  0
  5  6  1  0  0  0  0
  5 11  1  0  0  0  0
  6  7  2  0  0  0  0
  6  9  1  0  0  0  0
  7  8  1  0  0  0  0
  9 10  1  0  0  0  0
 10 11  2  0  0  0  0
M  END
>  <CHROM.1>
36.87992617,-10.00413443,-37.10023207,1.49050040,-0.50734599,-0.38430168

>  <Name>
ligand

>  <RI>
0

>  <Rbt.Current_Directory>
/home/itssahil/PROJECTS/Mol_Feturizer/New_Systems/rnas/3RKF

>  <Rbt.Executable>
rbdock ($Id: //depot/dev/client3/rdock/2013.1/src/exe/rbdock.cxx#4 $)

>  <Rbt.Library>
libRbt.so (2013.1, Build901 2013/11/27)

>  <Rbt.Parameter_File>
/export/apps/rDock/src/rDock_2013.1_src/data/scripts/dock_solv.prm

>  <Rbt.Receptor>
prm/pocket_docking_7.prm

>  <SCORE>
-15.8066

>  <SCORE.INTER>
-15.8066

>  <SCORE.INTER.CONST>
1

>  <SCORE.INTER.POLAR>
0

>  <SCORE.INTER.ROT>
0

>  <SCORE.INTER.SOLV>
9.4908

>  <SCORE.INTER.VDW>
-17.3013

>  <SCORE.INTER.norm>
-1.43696

>  <SCORE.INTRA>
0

>  <SCORE.INTRA.DIHEDRAL>
0

>  <SCORE.INTRA.DIHEDRAL.0>
0

>  <SCORE.INTRA.POLAR>
0

>  <SCORE.INTRA.POLAR.0>
0

>  <SCORE.INTRA.REPUL>
0

>  <SCORE.INTRA.REPUL.0>
0

>  <SCORE.INTRA.SOLV>
0

>  <SCORE.INTRA.SOLV.lig_0>
-28.6198

>  <SCORE.INTRA.VDW>
0

>  <SCORE.INTRA.VDW.0>
0

>  <SCORE.INTRA.norm>
0

>  <SCORE.RESTR>
0

>  <SCORE.RESTR.CAVITY>
0

>  <SCORE.RESTR.norm>
0

>  <SCORE.SYSTEM>
0

>  <SCORE.SYSTEM.CONST>
0

>  <SCORE.SYSTEM.DIHEDRAL>
0

>  <SCORE.SYSTEM.SOLV>
0

>  <SCORE.SYSTEM.norm>
0

>  <SCORE.heavy>
11

>  <SCORE.norm>
-1.43696

>  <RMSD>
2.893

$$$$
ligand
 OpenBabel11021811483D
libRbt.so/2013.1/901 2013/11/27
 11 12  0  0  0  0  0  0  0  0999 V2000
   36.6211   -8.6113  -37.8429 N   0  0  0  0  0  0  0  0  0  0  0  0
   35.4960   -9.2116  -38.2590 C   0  0  0  0  0  0  0  0  0  0  0  0
   34.5863   -8.4861  -39.0875 N   0  0  0  0  0  0  0  0  0  0  0  0
   35.2110  -10.4717  -37.9141 N   0  0  0  0  0  0  0  0  0  0  0  0
   36.0767  -11.1905  -37.1130 C   0  0  0  0  0  0  0  0  0  0  0  0
   37.2298  -10.5915  -36.6774 C   0  0  0  0  0  0  0  0  0  0  0  0
   37.5192   -9.2406  -37.0584 C   0  0  0  0  0  0  0  0  0  0  0  0
   38.9993   -8.4284  -36.5270 S   0  0  0  0  0  0  0  0  0  0  0  0
   37.9055  -11.5035  -35.9076 N   0  0  0  0  0  0  0  0  0  0  0  0
   37.1771  -12.6497  -35.8688 C   0  0  0  0  0  0  0  0  0  0  0  0
   36.0444  -12.4777  -36.6068 N   0  0  0  0  0  0  0  0  0  0  0  0
  1  2  2  0  0  0  0
  1  7  1  0  0  0  0
  2  3  1  0  0  0  0
  2  4  1  0  0  0  0
  4  5  2  0  0  0  0
  5  6  1  0  0  0  0
  5 11  1  0  0  0  0
  6  7  2  0  0  0  0
  6  9  1  0  0  0  0
  7  8  1  0  0  0  0
  9 10  1  0  0  0  0
 10 11  2  0  0  0  0
M  END
>  <CHROM.1>
36.89706911,-10.02685827,-37.10491505,1.48061286,-0.49728671,-0.38761591

>  <Name>
ligand

>  <RI>
0

>  <Rbt.Current_Directory>
/home/itssahil/PROJECTS/Mol_Feturizer/New_Systems/rnas/3RKF

>  <Rbt.Executable>
rbdock ($Id: //depot/dev/client3/rdock/2013.1/src/exe/rbdock.cxx#4 $)

>  <Rbt.Library>
libRbt.so (2013.1, Build901 2013/11/27)

>  <Rbt.Parameter_File>
/export/apps/rDock/src/rDock_2013.1_src/data/scripts/dock_solv.prm

>  <Rbt.Receptor>
prm/pocket_docking_8.prm

>  <SCORE>
-15.7944

>  <SCORE.INTER>
-15.7944

>  <SCORE.INTER.CONST>
1

>  <SCORE.INTER.POLAR>
0

>  <SCORE.INTER.ROT>
0

>  <SCORE.INTER.SOLV>
9.51965

>  <SCORE.INTER.VDW>
-17.3028

>  <SCORE.INTER.norm>
-1.43586

>  <SCORE.INTRA>
0

>  <SCORE.INTRA.DIHEDRAL>
0

>  <SCORE.INTRA.DIHEDRAL.0>
0

>  <SCORE.INTRA.POLAR>
0

>  <SCORE.INTRA.POLAR.0>
0

>  <SCORE.INTRA.REPUL>
0

>  <SCORE.INTRA.REPUL.0>
0

>  <SCORE.INTRA.SOLV>
0

>  <SCORE.INTRA.SOLV.lig_0>
-28.6198

>  <SCORE.INTRA.VDW>
0

>  <SCORE.INTRA.VDW.0>
0

>  <SCORE.INTRA.norm>
0

>  <SCORE.RESTR>
0

>  <SCORE.RESTR.CAVITY>
0

>  <SCORE.RESTR.norm>
0

>  <SCORE.SYSTEM>
0

>  <SCORE.SYSTEM.CONST>
0

>  <SCORE.SYSTEM.DIHEDRAL>
0

>  <SCORE.SYSTEM.SOLV>
0

>  <SCORE.SYSTEM.norm>
0

>  <SCORE.heavy>
11

>  <SCORE.norm>
-1.43586

>  <RMSD>
2.893

$$$$
ligand
 OpenBabel11021811483D
libRbt.so/2013.1/901 2013/11/27
 11 12  0  0  0  0  0  0  0  0999 V2000
   36.6397   -8.6452  -37.8959 N   0  0  0  0  0  0  0  0  0  0  0  0
   35.5231   -9.2517  -38.3257 C   0  0  0  0  0  0  0  0  0  0  0  0
   34.6370   -8.5433  -39.1935 N   0  0  0  0  0  0  0  0  0  0  0  0
   35.2249  -10.5025  -37.9585 N   0  0  0  0  0  0  0  0  0  0  0  0
   36.0678  -11.2048  -37.1192 C   0  0  0  0  0  0  0  0  0  0  0  0
   37.2119  -10.5992  -36.6692 C   0  0  0  0  0  0  0  0  0  0  0  0
   37.5157   -9.2586  -37.0746 C   0  0  0  0  0  0  0  0  0  0  0  0
   38.9851   -8.4386  -36.5257 S   0  0  0  0  0  0  0  0  0  0  0  0
   37.8648  -11.4948  -35.8615 N   0  0  0  0  0  0  0  0  0  0  0  0
   37.1315  -12.6375  -35.8139 C   0  0  0  0  0  0  0  0  0  0  0  0
   36.0181  -12.4795  -36.5838 N   0  0  0  0  0  0  0  0  0  0  0  0
  1  2  2  0  0  0  0
  1  7  1  0  0  0  0
  2  3  1  0  0  0  0
  2  4  1  0  0  0  0
  4  5  2  0  0  0  0
  5  6  1  0  0  0  0
  5 11  1  0  0  0  0
  6  7  2  0  0  0  0
  6  9  1  0  0  0  0
  7  8  1  0  0  0  0
  9 10  1  0  0  0  0
 10 11  2  0  0  0  0
M  END
>  <CHROM.1>
36.89198230,-10.04379728,-37.11808167,1.46585067,-0.51889933,-0.41841694

>  <Name>
ligand

>  <RI>
0

>  <Rbt.Current_Directory>
/home/itssahil/PROJECTS/Mol_Feturizer/New_Systems/rnas/3RKF

>  <Rbt.Executable>
rbdock ($Id: //depot/dev/client3/rdock/2013.1/src/exe/rbdock.cxx#4 $)

>  <Rbt.Library>
libRbt.so (2013.1, Build901 2013/11/27)

>  <Rbt.Parameter_File>
/export/apps/rDock/src/rDock_2013.1_src/data/scripts/dock_solv.prm

>  <Rbt.Receptor>
prm/pocket_docking_8.prm

>  <SCORE>
-15.7848

>  <SCORE.INTER>
-15.7849

>  <SCORE.INTER.CONST>
1

>  <SCORE.INTER.POLAR>
0

>  <SCORE.INTER.ROT>
0

>  <SCORE.INTER.SOLV>
10.0877

>  <SCORE.INTER.VDW>
-17.4858

>  <SCORE.INTER.norm>
-1.43499

>  <SCORE.INTRA>
0

>  <SCORE.INTRA.DIHEDRAL>
0

>  <SCORE.INTRA.DIHEDRAL.0>
0

>  <SCORE.INTRA.POLAR>
0

>  <SCORE.INTRA.POLAR.0>
0

>  <SCORE.INTRA.REPUL>
0

>  <SCORE.INTRA.REPUL.0>
0

>  <SCORE.INTRA.SOLV>
0

>  <SCORE.INTRA.SOLV.lig_0>
-28.6198

>  <SCORE.INTRA.VDW>
0

>  <SCORE.INTRA.VDW.0>
0

>  <SCORE.INTRA.norm>
0

>  <SCORE.RESTR>
2.21998e-05

>  <SCORE.RESTR.CAVITY>
2.21998e-05

>  <SCORE.RESTR.norm>
2.01816e-06

>  <SCORE.SYSTEM>
0

>  <SCORE.SYSTEM.CONST>
0

>  <SCORE.SYSTEM.DIHEDRAL>
0

>  <SCORE.SYSTEM.SOLV>
0

>  <SCORE.SYSTEM.norm>
0

>  <SCORE.heavy>
11

>  <SCORE.norm>
-1.43498

>  <RMSD>
2.893

$$$$
ligand
 OpenBabel11021811483D
libRbt.so/2013.1/901 2013/11/27
 11 12  0  0  0  0  0  0  0  0999 V2000
   36.6259   -8.6133  -37.8428 N   0  0  0  0  0  0  0  0  0  0  0  0
   35.4986   -9.2123  -38.2551 C   0  0  0  0  0  0  0  0  0  0  0  0
   34.5883   -8.4865  -39.0827 N   0  0  0  0  0  0  0  0  0  0  0  0
   35.2121  -10.4712  -37.9074 N   0  0  0  0  0  0  0  0  0  0  0  0
   36.0784  -11.1903  -37.1071 C   0  0  0  0  0  0  0  0  0  0  0  0
   37.2336  -10.5926  -36.6753 C   0  0  0  0  0  0  0  0  0  0  0  0
   37.5246   -9.2429  -37.0593 C   0  0  0  0  0  0  0  0  0  0  0  0
   39.0075   -8.4325  -36.5328 S   0  0  0  0  0  0  0  0  0  0  0  0
   37.9095  -11.5046  -35.9055 N   0  0  0  0  0  0  0  0  0  0  0  0
   37.1790  -12.6494  -35.8630 C   0  0  0  0  0  0  0  0  0  0  0  0
   36.0449  -12.4765  -36.5986 N   0  0  0  0  0  0  0  0  0  0  0  0
  1  2  2  0  0  0  0
  1  7  1  0  0  0  0
  2  3  1  0  0  0  0
  2  4  1  0  0  0  0
  4  5  2  0  0  0  0
  5  6  1  0  0  0  0
  5 11  1  0  0  0  0
  6  7  2  0  0  0  0
  6  9  1  0  0  0  0
  7  8  1  0  0  0  0
  9 10  1  0  0  0  0
 10 11  2  0  0  0  0
M  END
>  <CHROM.1>
36.90091901,-10.02812602,-37.10299673,1.47968619,-0.49438327,-0.38977178

>  <Name>
ligand

>  <RI>
0

>  <Rbt.Current_Directory>
/home/itssahil/PROJECTS/Mol_Feturizer/New_Systems/rnas/3RKF

>  <Rbt.Executable>
rbdock ($Id: //depot/dev/client3/rdock/2013.1/src/exe/rbdock.cxx#4 $)

>  <Rbt.Library>
libRbt.so (2013.1, Build901 2013/11/27)

>  <Rbt.Parameter_File>
/export/apps/rDock/src/rDock_2013.1_src/data/scripts/dock_solv.prm

>  <Rbt.Receptor>
prm/pocket_docking_8.prm

>  <SCORE>
-15.7933

>  <SCORE.INTER>
-15.7933

>  <SCORE.INTER.CONST>
1

>  <SCORE.INTER.POLAR>
0

>  <SCORE.INTER.ROT>
0

>  <SCORE.INTER.SOLV>
9.51849

>  <SCORE.INTER.VDW>
-17.3017

>  <SCORE.INTER.norm>
-1.43575

>  <SCORE.INTRA>
0

>  <SCORE.INTRA.DIHEDRAL>
0

>  <SCORE.INTRA.DIHEDRAL.0>
0

>  <SCORE.INTRA.POLAR>
0

>  <SCORE.INTRA.POLAR.0>
0

>  <SCORE.INTRA.REPUL>
0

>  <SCORE.INTRA.REPUL.0>
0

>  <SCORE.INTRA.SOLV>
0

>  <SCORE.INTRA.SOLV.lig_0>
-28.6198

>  <SCORE.INTRA.VDW>
0

>  <SCORE.INTRA.VDW.0>
0

>  <SCORE.INTRA.norm>
0

>  <SCORE.RESTR>
0

>  <SCORE.RESTR.CAVITY>
0

>  <SCORE.RESTR.norm>
0

>  <SCORE.SYSTEM>
0

>  <SCORE.SYSTEM.CONST>
0

>  <SCORE.SYSTEM.DIHEDRAL>
0

>  <SCORE.SYSTEM.SOLV>
0

>  <SCORE.SYSTEM.norm>
0

>  <SCORE.heavy>
11

>  <SCORE.norm>
-1.43575

>  <RMSD>
2.893

$$$$
ligand
 OpenBabel11021811483D
libRbt.so/2013.1/901 2013/11/27
 11 12  0  0  0  0  0  0  0  0999 V2000
   36.6213   -8.6117  -37.8397 N   0  0  0  0  0  0  0  0  0  0  0  0
   35.4978   -9.2134  -38.2579 C   0  0  0  0  0  0  0  0  0  0  0  0
   34.5888   -8.4891  -39.0883 N   0  0  0  0  0  0  0  0  0  0  0  0
   35.2136  -10.4739  -37.9136 N   0  0  0  0  0  0  0  0  0  0  0  0
   36.0786  -11.1915  -37.1107 C   0  0  0  0  0  0  0  0  0  0  0  0
   37.2301  -10.5911  -36.6729 C   0  0  0  0  0  0  0  0  0  0  0  0
   37.5186   -9.2398  -37.0534 C   0  0  0  0  0  0  0  0  0  0  0  0
   38.9967   -8.4257  -36.5191 S   0  0  0  0  0  0  0  0  0  0  0  0
   37.9054  -11.5022  -35.9018 N   0  0  0  0  0  0  0  0  0  0  0  0
   37.1784  -12.6493  -35.8643 C   0  0  0  0  0  0  0  0  0  0  0  0
   36.0469  -12.4787  -36.6046 N   0  0  0  0  0  0  0  0  0  0  0  0
  1  2  2  0  0  0  0
  1  7  1  0  0  0  0
  2  3  1  0  0  0  0
  2  4  1  0  0  0  0
  4  5  2  0  0  0  0
  5  6  1  0  0  0  0
  5 11  1  0  0  0  0
  6  7  2  0  0  0  0
  6  9  1  0  0  0  0
  7  8  1  0  0  0  0
  9 10  1  0  0  0  0
 10 11  2  0  0  0  0
M  END
>  <CHROM.1>
36.89753771,-10.02687204,-37.10110605,1.48106827,-0.49958299,-0.38743322

>  <Name>
ligand

>  <RI>
0

>  <Rbt.Current_Directory>
/home/itssahil/PROJECTS/Mol_Feturizer/New_Systems/rnas/3RKF

>  <Rbt.Executable>
rbdock ($Id: //depot/dev/client3/rdock/2013.1/src/exe/rbdock.cxx#4 $)

>  <Rbt.Library>
libRbt.so (2013.1, Build901 2013/11/27)

>  <Rbt.Parameter_File>
/export/apps/rDock/src/rDock_2013.1_src/data/scripts/dock_solv.prm

>  <Rbt.Receptor>
prm/pocket_docking_8.prm

>  <SCORE>
-15.7997

>  <SCORE.INTER>
-15.7997

>  <SCORE.INTER.CONST>
1

>  <SCORE.INTER.POLAR>
0

>  <SCORE.INTER.ROT>
0

>  <SCORE.INTER.SOLV>
9.52963

>  <SCORE.INTER.VDW>
-17.3097

>  <SCORE.INTER.norm>
-1.43634

>  <SCORE.INTRA>
0

>  <SCORE.INTRA.DIHEDRAL>
0

>  <SCORE.INTRA.DIHEDRAL.0>
0

>  <SCORE.INTRA.POLAR>
0

>  <SCORE.INTRA.POLAR.0>
0

>  <SCORE.INTRA.REPUL>
0

>  <SCORE.INTRA.REPUL.0>
0

>  <SCORE.INTRA.SOLV>
0

>  <SCORE.INTRA.SOLV.lig_0>
-28.6198

>  <SCORE.INTRA.VDW>
0

>  <SCORE.INTRA.VDW.0>
0

>  <SCORE.INTRA.norm>
0

>  <SCORE.RESTR>
0

>  <SCORE.RESTR.CAVITY>
0

>  <SCORE.RESTR.norm>
0

>  <SCORE.SYSTEM>
0

>  <SCORE.SYSTEM.CONST>
0

>  <SCORE.SYSTEM.DIHEDRAL>
0

>  <SCORE.SYSTEM.SOLV>
0

>  <SCORE.SYSTEM.norm>
0

>  <SCORE.heavy>
11

>  <SCORE.norm>
-1.43634

>  <RMSD>
2.893

$$$$
ligand
 OpenBabel11021811483D
libRbt.so/2013.1/901 2013/11/27
 11 12  0  0  0  0  0  0  0  0999 V2000
   36.5955   -8.5894  -37.8310 N   0  0  0  0  0  0  0  0  0  0  0  0
   35.4750   -9.1972  -38.2487 C   0  0  0  0  0  0  0  0  0  0  0  0
   34.5699   -8.4835  -39.0924 N   0  0  0  0  0  0  0  0  0  0  0  0
   35.1903  -10.4540  -37.8916 N   0  0  0  0  0  0  0  0  0  0  0  0
   36.0516  -11.1614  -37.0757 C   0  0  0  0  0  0  0  0  0  0  0  0
   37.1999  -10.5546  -36.6382 C   0  0  0  0  0  0  0  0  0  0  0  0
   37.4890   -9.2075  -37.0325 C   0  0  0  0  0  0  0  0  0  0  0  0
   38.9631   -8.3856  -36.4992 S   0  0  0  0  0  0  0  0  0  0  0  0
   37.8719  -11.4561  -35.8529 N   0  0  0  0  0  0  0  0  0  0  0  0
   37.1459  -12.6036  -35.8065 C   0  0  0  0  0  0  0  0  0  0  0  0
   36.0184  -12.4428  -36.5550 N   0  0  0  0  0  0  0  0  0  0  0  0
  1  2  2  0  0  0  0
  1  7  1  0  0  0  0
  2  3  1  0  0  0  0
  2  4  1  0  0  0  0
  4  5  2  0  0  0  0
  5  6  1  0  0  0  0
  5 11  1  0  0  0  0
  6  7  2  0  0  0  0
  6  9  1  0  0  0  0
  7  8  1  0  0  0  0
  9 10  1  0  0  0  0
 10 11  2  0  0  0  0
M  END
>  <CHROM.1>
36.86912998,-9.99573486,-37.07473636,1.47981037,-0.50524203,-0.39946439

>  <Name>
ligand

>  <RI>
0

>  <Rbt.Current_Directory>
/home/itssahil/PROJECTS/Mol_Feturizer/New_Systems/rnas/3RKF

>  <Rbt.Executable>
rbdock ($Id: //depot/dev/client3/rdock/2013.1/src/exe/rbdock.cxx#4 $)

>  <Rbt.Library>
libRbt.so (2013.1, Build901 2013/11/27)

>  <Rbt.Parameter_File>
/export/apps/rDock/src/rDock_2013.1_src/data/scripts/dock_solv.prm

>  <Rbt.Receptor>
prm/pocket_docking_8.prm

>  <SCORE>
-15.7503

>  <SCORE.INTER>
-15.7503

>  <SCORE.INTER.CONST>
1

>  <SCORE.INTER.POLAR>
0

>  <SCORE.INTER.ROT>
0

>  <SCORE.INTER.SOLV>
9.48621

>  <SCORE.INTER.VDW>
-17.2623

>  <SCORE.INTER.norm>
-1.43184

>  <SCORE.INTRA>
0

>  <SCORE.INTRA.DIHEDRAL>
0

>  <SCORE.INTRA.DIHEDRAL.0>
0

>  <SCORE.INTRA.POLAR>
0

>  <SCORE.INTRA.POLAR.0>
0

>  <SCORE.INTRA.REPUL>
0

>  <SCORE.INTRA.REPUL.0>
0

>  <SCORE.INTRA.SOLV>
0

>  <SCORE.INTRA.SOLV.lig_0>
-28.6198

>  <SCORE.INTRA.VDW>
0

>  <SCORE.INTRA.VDW.0>
0

>  <SCORE.INTRA.norm>
0

>  <SCORE.RESTR>
0

>  <SCORE.RESTR.CAVITY>
0

>  <SCORE.RESTR.norm>
0

>  <SCORE.SYSTEM>
0

>  <SCORE.SYSTEM.CONST>
0

>  <SCORE.SYSTEM.DIHEDRAL>
0

>  <SCORE.SYSTEM.SOLV>
0

>  <SCORE.SYSTEM.norm>
0

>  <SCORE.heavy>
11

>  <SCORE.norm>
-1.43184

>  <RMSD>
2.893

$$$$
ligand
 OpenBabel11021811483D
libRbt.so/2013.1/901 2013/11/27
 11 12  0  0  0  0  0  0  0  0999 V2000
   36.6209   -8.6109  -37.8327 N   0  0  0  0  0  0  0  0  0  0  0  0
   35.4955   -9.2117  -38.2474 C   0  0  0  0  0  0  0  0  0  0  0  0
   34.5847   -8.4866  -39.0750 N   0  0  0  0  0  0  0  0  0  0  0  0
   35.2113  -10.4718  -37.9022 N   0  0  0  0  0  0  0  0  0  0  0  0
   36.0781  -11.1903  -37.1018 C   0  0  0  0  0  0  0  0  0  0  0  0
   37.2315  -10.5908  -36.6676 C   0  0  0  0  0  0  0  0  0  0  0  0
   37.5201   -9.2398  -37.0491 C   0  0  0  0  0  0  0  0  0  0  0  0
   39.0005   -8.4271  -36.5194 S   0  0  0  0  0  0  0  0  0  0  0  0
   37.9084  -11.5025  -35.8985 N   0  0  0  0  0  0  0  0  0  0  0  0
   37.1804  -12.6489  -35.8587 C   0  0  0  0  0  0  0  0  0  0  0  0
   36.0468  -12.4774  -36.5955 N   0  0  0  0  0  0  0  0  0  0  0  0
  1  2  2  0  0  0  0
  1  7  1  0  0  0  0
  2  3  1  0  0  0  0
  2  4  1  0  0  0  0
  4  5  2  0  0  0  0
  5  6  1  0  0  0  0
  5 11  1  0  0  0  0
  6  7  2  0  0  0  0
  6  9  1  0  0  0  0
  7  8  1  0  0  0  0
  9 10  1  0  0  0  0
 10 11  2  0  0  0  0
M  END
>  <CHROM.1>
36.89813106,-10.02632354,-37.09484756,1.48143734,-0.49639268,-0.38733511

>  <Name>
ligand

>  <RI>
0

>  <Rbt.Current_Directory>
/home/itssahil/PROJECTS/Mol_Feturizer/New_Systems/rnas/3RKF

>  <Rbt.Executable>
rbdock ($Id: //depot/dev/client3/rdock/2013.1/src/exe/rbdock.cxx#4 $)

>  <Rbt.Library>
libRbt.so (2013.1, Build901 2013/11/27)

>  <Rbt.Parameter_File>
/export/apps/rDock/src/rDock_2013.1_src/data/scripts/dock_solv.prm

>  <Rbt.Receptor>
prm/blind_docking_100.prm

>  <SCORE>
-15.8002

>  <SCORE.INTER>
-15.8002

>  <SCORE.INTER.CONST>
1

>  <SCORE.INTER.POLAR>
0

>  <SCORE.INTER.ROT>
0

>  <SCORE.INTER.SOLV>
9.48353

>  <SCORE.INTER.VDW>
-17.2946

>  <SCORE.INTER.norm>
-1.43638

>  <SCORE.INTRA>
0

>  <SCORE.INTRA.DIHEDRAL>
0

>  <SCORE.INTRA.DIHEDRAL.0>
0

>  <SCORE.INTRA.POLAR>
0

>  <SCORE.INTRA.POLAR.0>
0

>  <SCORE.INTRA.REPUL>
0

>  <SCORE.INTRA.REPUL.0>
0

>  <SCORE.INTRA.SOLV>
0

>  <SCORE.INTRA.SOLV.lig_0>
-28.6198

>  <SCORE.INTRA.VDW>
0

>  <SCORE.INTRA.VDW.0>
0

>  <SCORE.INTRA.norm>
0

>  <SCORE.RESTR>
0

>  <SCORE.RESTR.CAVITY>
0

>  <SCORE.RESTR.norm>
0

>  <SCORE.SYSTEM>
0

>  <SCORE.SYSTEM.CONST>
0

>  <SCORE.SYSTEM.DIHEDRAL>
0

>  <SCORE.SYSTEM.SOLV>
0

>  <SCORE.SYSTEM.norm>
0

>  <SCORE.heavy>
11

>  <SCORE.norm>
-1.43638

>  <RMSD>
2.894

$$$$
ligand
 OpenBabel11021811483D
libRbt.so/2013.1/901 2013/11/27
 11 12  0  0  0  0  0  0  0  0999 V2000
   36.6084   -8.6164  -37.8440 N   0  0  0  0  0  0  0  0  0  0  0  0
   35.4807   -9.2153  -38.2553 C   0  0  0  0  0  0  0  0  0  0  0  0
   34.5747   -8.4931  -39.0905 N   0  0  0  0  0  0  0  0  0  0  0  0
   35.1899  -10.4711  -37.8995 N   0  0  0  0  0  0  0  0  0  0  0  0
   36.0521  -11.1866  -37.0917 C   0  0  0  0  0  0  0  0  0  0  0  0
   37.2077  -10.5890  -36.6609 C   0  0  0  0  0  0  0  0  0  0  0  0
   37.5033   -9.2428  -37.0536 C   0  0  0  0  0  0  0  0  0  0  0  0
   38.9868   -8.4325  -36.5286 S   0  0  0  0  0  0  0  0  0  0  0  0
   37.8790  -11.4972  -35.8828 N   0  0  0  0  0  0  0  0  0  0  0  0
   37.1454  -12.6398  -35.8342 C   0  0  0  0  0  0  0  0  0  0  0  0
   36.0138  -12.4692  -36.5742 N   0  0  0  0  0  0  0  0  0  0  0  0
  1  2  2  0  0  0  0
  1  7  1  0  0  0  0
  2  3  1  0  0  0  0
  2  4  1  0  0  0  0
  4  5  2  0  0  0  0
  5  6  1  0  0  0  0
  5 11  1  0  0  0  0
  6  7  2  0  0  0  0
  6  9  1  0  0  0  0
  7  8  1  0  0  0  0
  9 10  1  0  0  0  0
 10 11  2  0  0  0  0
M  END
>  <CHROM.1>
36.87766157,-10.02664563,-37.09346264,1.47572552,-0.49597747,-0.39871877

>  <Name>
ligand

>  <RI>
0

>  <Rbt.Current_Directory>
/home/itssahil/PROJECTS/Mol_Feturizer/New_Systems/rnas/3RKF

>  <Rbt.Executable>
rbdock ($Id: //depot/dev/client3/rdock/2013.1/src/exe/rbdock.cxx#4 $)

>  <Rbt.Library>
libRbt.so (2013.1, Build901 2013/11/27)

>  <Rbt.Parameter_File>
/export/apps/rDock/src/rDock_2013.1_src/data/scripts/dock_solv.prm

>  <Rbt.Receptor>
prm/blind_docking_100.prm

>  <SCORE>
-15.8002

>  <SCORE.INTER>
-15.8002

>  <SCORE.INTER.CONST>
1

>  <SCORE.INTER.POLAR>
0

>  <SCORE.INTER.ROT>
0

>  <SCORE.INTER.SOLV>
9.51606

>  <SCORE.INTER.VDW>
-17.3055

>  <SCORE.INTER.norm>
-1.43638

>  <SCORE.INTRA>
0

>  <SCORE.INTRA.DIHEDRAL>
0

>  <SCORE.INTRA.DIHEDRAL.0>
0

>  <SCORE.INTRA.POLAR>
0

>  <SCORE.INTRA.POLAR.0>
0

>  <SCORE.INTRA.REPUL>
0

>  <SCORE.INTRA.REPUL.0>
0

>  <SCORE.INTRA.SOLV>
0

>  <SCORE.INTRA.SOLV.lig_0>
-28.6198

>  <SCORE.INTRA.VDW>
0

>  <SCORE.INTRA.VDW.0>
0

>  <SCORE.INTRA.norm>
0

>  <SCORE.RESTR>
0

>  <SCORE.RESTR.CAVITY>
0

>  <SCORE.RESTR.norm>
0

>  <SCORE.SYSTEM>
0

>  <SCORE.SYSTEM.CONST>
0

>  <SCORE.SYSTEM.DIHEDRAL>
0

>  <SCORE.SYSTEM.SOLV>
0

>  <SCORE.SYSTEM.norm>
0

>  <SCORE.heavy>
11

>  <SCORE.norm>
-1.43638

>  <RMSD>
2.894

$$$$
ligand
 OpenBabel11021811483D
libRbt.so/2013.1/901 2013/11/27
 11 12  0  0  0  0  0  0  0  0999 V2000
   36.6181   -8.6110  -37.8311 N   0  0  0  0  0  0  0  0  0  0  0  0
   35.4965   -9.2148  -38.2517 C   0  0  0  0  0  0  0  0  0  0  0  0
   34.5857   -8.4906  -39.0802 N   0  0  0  0  0  0  0  0  0  0  0  0
   35.2158  -10.4771  -37.9113 N   0  0  0  0  0  0  0  0  0  0  0  0
   36.0826  -11.1947  -37.1102 C   0  0  0  0  0  0  0  0  0  0  0  0
   37.2322  -10.5922  -36.6701 C   0  0  0  0  0  0  0  0  0  0  0  0
   37.5169   -9.2390  -37.0464 C   0  0  0  0  0  0  0  0  0  0  0  0
   38.9924   -8.4222  -36.5090 S   0  0  0  0  0  0  0  0  0  0  0  0
   37.9098  -11.5037  -35.9014 N   0  0  0  0  0  0  0  0  0  0  0  0
   37.1861  -12.6531  -35.8678 C   0  0  0  0  0  0  0  0  0  0  0  0
   36.0544  -12.4835  -36.6080 N   0  0  0  0  0  0  0  0  0  0  0  0
  1  2  2  0  0  0  0
  1  7  1  0  0  0  0
  2  3  1  0  0  0  0
  2  4  1  0  0  0  0
  4  5  2  0  0  0  0
  5  6  1  0  0  0  0
  5 11  1  0  0  0  0
  6  7  2  0  0  0  0
  6  9  1  0  0  0  0
  7  8  1  0  0  0  0
  9 10  1  0  0  0  0
 10 11  2  0  0  0  0
M  END
>  <CHROM.1>
36.89813523,-10.02768490,-37.09672462,1.48396902,-0.50105405,-0.38299963

>  <Name>
ligand

>  <RI>
0

>  <Rbt.Current_Directory>
/home/itssahil/PROJECTS/Mol_Feturizer/New_Systems/rnas/3RKF

>  <Rbt.Executable>
rbdock ($Id: //depot/dev/client3/rdock/2013.1/src/exe/rbdock.cxx#4 $)

>  <Rbt.Library>
libRbt.so (2013.1, Build901 2013/11/27)

>  <Rbt.Parameter_File>
/export/apps/rDock/src/rDock_2013.1_src/data/scripts/dock_solv.prm

>  <Rbt.Receptor>
prm/blind_docking_100.prm

>  <SCORE>
-15.7925

>  <SCORE.INTER>
-15.7925

>  <SCORE.INTER.CONST>
1

>  <SCORE.INTER.POLAR>
0

>  <SCORE.INTER.ROT>
0

>  <SCORE.INTER.SOLV>
9.49739

>  <SCORE.INTER.VDW>
-17.2941

>  <SCORE.INTER.norm>
-1.43568

>  <SCORE.INTRA>
0

>  <SCORE.INTRA.DIHEDRAL>
0

>  <SCORE.INTRA.DIHEDRAL.0>
0

>  <SCORE.INTRA.POLAR>
0

>  <SCORE.INTRA.POLAR.0>
0

>  <SCORE.INTRA.REPUL>
0

>  <SCORE.INTRA.REPUL.0>
0

>  <SCORE.INTRA.SOLV>
0

>  <SCORE.INTRA.SOLV.lig_0>
-28.6198

>  <SCORE.INTRA.VDW>
0

>  <SCORE.INTRA.VDW.0>
0

>  <SCORE.INTRA.norm>
0

>  <SCORE.RESTR>
0

>  <SCORE.RESTR.CAVITY>
0

>  <SCORE.RESTR.norm>
0

>  <SCORE.SYSTEM>
0

>  <SCORE.SYSTEM.CONST>
0

>  <SCORE.SYSTEM.DIHEDRAL>
0

>  <SCORE.SYSTEM.SOLV>
0

>  <SCORE.SYSTEM.norm>
0

>  <SCORE.heavy>
11

>  <SCORE.norm>
-1.43568

>  <RMSD>
2.894

$$$$
ligand
 OpenBabel11021811483D
libRbt.so/2013.1/901 2013/11/27
 11 12  0  0  0  0  0  0  0  0999 V2000
   36.6129   -8.6036  -37.8185 N   0  0  0  0  0  0  0  0  0  0  0  0
   35.4878   -9.2056  -38.2321 C   0  0  0  0  0  0  0  0  0  0  0  0
   34.5692   -8.4772  -39.0482 N   0  0  0  0  0  0  0  0  0  0  0  0
   35.2108  -10.4699  -37.8963 N   0  0  0  0  0  0  0  0  0  0  0  0
   36.0852  -11.1916  -37.1072 C   0  0  0  0  0  0  0  0  0  0  0  0
   37.2385  -10.5910  -36.6742 C   0  0  0  0  0  0  0  0  0  0  0  0
   37.5191   -9.2355  -37.0455 C   0  0  0  0  0  0  0  0  0  0  0  0
   38.9991   -8.4210  -36.5170 S   0  0  0  0  0  0  0  0  0  0  0  0
   37.9235  -11.5064  -35.9169 N   0  0  0  0  0  0  0  0  0  0  0  0
   37.2006  -12.6563  -35.8831 C   0  0  0  0  0  0  0  0  0  0  0  0
   36.0622  -12.4832  -36.6120 N   0  0  0  0  0  0  0  0  0  0  0  0
  1  2  2  0  0  0  0
  1  7  1  0  0  0  0
  2  3  1  0  0  0  0
  2  4  1  0  0  0  0
  4  5  2  0  0  0  0
  5  6  1  0  0  0  0
  5 11  1  0  0  0  0
  6  7  2  0  0  0  0
  6  9  1  0  0  0  0
  7  8  1  0  0  0  0
  9 10  1  0  0  0  0
 10 11  2  0  0  0  0
M  END
>  <CHROM.1>
36.90029289,-10.02422837,-37.09460245,1.48831435,-0.49275185,-0.37532837

>  <Name>
ligand

>  <RI>
0

>  <Rbt.Current_Directory>
/home/itssahil/PROJECTS/Mol_Feturizer/New_Systems/rnas/3RKF

>  <Rbt.Executable>
rbdock ($Id: //depot/dev/client3/rdock/2013.1/src/exe/rbdock.cxx#4 $)

>  <Rbt.Library>
libRbt.so (2013.1, Build901 2013/11/27)

>  <Rbt.Parameter_File>
/export/apps/rDock/src/rDock_2013.1_src/data/scripts/dock_solv.prm

>  <Rbt.Receptor>
prm/blind_docking_80.prm

>  <SCORE>
-15.7911

>  <SCORE.INTER>
-15.7911

>  <SCORE.INTER.CONST>
1

>  <SCORE.INTER.POLAR>
0

>  <SCORE.INTER.ROT>
0

>  <SCORE.INTER.SOLV>
9.37057

>  <SCORE.INTER.VDW>
-17.2509

>  <SCORE.INTER.norm>
-1.43555

>  <SCORE.INTRA>
0

>  <SCORE.INTRA.DIHEDRAL>
0

>  <SCORE.INTRA.DIHEDRAL.0>
0

>  <SCORE.INTRA.POLAR>
0

>  <SCORE.INTRA.POLAR.0>
0

>  <SCORE.INTRA.REPUL>
0

>  <SCORE.INTRA.REPUL.0>
0

>  <SCORE.INTRA.SOLV>
0

>  <SCORE.INTRA.SOLV.lig_0>
-28.6198

>  <SCORE.INTRA.VDW>
0

>  <SCORE.INTRA.VDW.0>
0

>  <SCORE.INTRA.norm>
0

>  <SCORE.RESTR>
0

>  <SCORE.RESTR.CAVITY>
0

>  <SCORE.RESTR.norm>
0

>  <SCORE.SYSTEM>
0

>  <SCORE.SYSTEM.CONST>
0

>  <SCORE.SYSTEM.DIHEDRAL>
0

>  <SCORE.SYSTEM.SOLV>
0

>  <SCORE.SYSTEM.norm>
0

>  <SCORE.heavy>
11

>  <SCORE.norm>
-1.43555

>  <RMSD>
2.894

$$$$
ligand
 OpenBabel11021811483D
libRbt.so/2013.1/901 2013/11/27
 11 12  0  0  0  0  0  0  0  0999 V2000
   36.6126   -8.6137  -37.8350 N   0  0  0  0  0  0  0  0  0  0  0  0
   35.4882   -9.2165  -38.2495 C   0  0  0  0  0  0  0  0  0  0  0  0
   34.5760   -8.4931  -39.0771 N   0  0  0  0  0  0  0  0  0  0  0  0
   35.2062  -10.4771  -37.9041 N   0  0  0  0  0  0  0  0  0  0  0  0
   36.0744  -11.1939  -37.1038 C   0  0  0  0  0  0  0  0  0  0  0  0
   37.2268  -10.5924  -36.6698 C   0  0  0  0  0  0  0  0  0  0  0  0
   37.5129   -9.2410  -37.0514 C   0  0  0  0  0  0  0  0  0  0  0  0
   38.9920   -8.4256  -36.5220 S   0  0  0  0  0  0  0  0  0  0  0  0
   37.9053  -11.5028  -35.9006 N   0  0  0  0  0  0  0  0  0  0  0  0
   37.1794  -12.6506  -35.8607 C   0  0  0  0  0  0  0  0  0  0  0  0
   36.0454  -12.4810  -36.5973 N   0  0  0  0  0  0  0  0  0  0  0  0
  1  2  2  0  0  0  0
  1  7  1  0  0  0  0
  2  3  1  0  0  0  0
  2  4  1  0  0  0  0
  4  5  2  0  0  0  0
  5  6  1  0  0  0  0
  5 11  1  0  0  0  0
  6  7  2  0  0  0  0
  6  9  1  0  0  0  0
  7  8  1  0  0  0  0
  9 10  1  0  0  0  0
 10 11  2  0  0  0  0
M  END
>  <CHROM.1>
36.89238933,-10.02855770,-37.09700135,1.48332348,-0.49693816,-0.38653515

>  <Name>
ligand

>  <RI>
0

>  <Rbt.Current_Directory>
/home/itssahil/PROJECTS/Mol_Feturizer/New_Systems/rnas/3RKF

>  <Rbt.Executable>
rbdock ($Id: //depot/dev/client3/rdock/2013.1/src/exe/rbdock.cxx#4 $)

>  <Rbt.Library>
libRbt.so (2013.1, Build901 2013/11/27)

>  <Rbt.Parameter_File>
/export/apps/rDock/src/rDock_2013.1_src/data/scripts/dock_solv.prm

>  <Rbt.Receptor>
prm/blind_docking_80.prm

>  <SCORE>
-15.8007

>  <SCORE.INTER>
-15.8007

>  <SCORE.INTER.CONST>
1

>  <SCORE.INTER.POLAR>
0

>  <SCORE.INTER.ROT>
0

>  <SCORE.INTER.SOLV>
9.47584

>  <SCORE.INTER.VDW>
-17.2924

>  <SCORE.INTER.norm>
-1.43643

>  <SCORE.INTRA>
0

>  <SCORE.INTRA.DIHEDRAL>
0

>  <SCORE.INTRA.DIHEDRAL.0>
0

>  <SCORE.INTRA.POLAR>
0

>  <SCORE.INTRA.POLAR.0>
0

>  <SCORE.INTRA.REPUL>
0

>  <SCORE.INTRA.REPUL.0>
0

>  <SCORE.INTRA.SOLV>
0

>  <SCORE.INTRA.SOLV.lig_0>
-28.6198

>  <SCORE.INTRA.VDW>
0

>  <SCORE.INTRA.VDW.0>
0

>  <SCORE.INTRA.norm>
0

>  <SCORE.RESTR>
0

>  <SCORE.RESTR.CAVITY>
0

>  <SCORE.RESTR.norm>
0

>  <SCORE.SYSTEM>
0

>  <SCORE.SYSTEM.CONST>
0

>  <SCORE.SYSTEM.DIHEDRAL>
0

>  <SCORE.SYSTEM.SOLV>
0

>  <SCORE.SYSTEM.norm>
0

>  <SCORE.heavy>
11

>  <SCORE.norm>
-1.43643

>  <RMSD>
2.894

$$$$
ligand
 OpenBabel11021811483D
libRbt.so/2013.1/901 2013/11/27
 11 12  0  0  0  0  0  0  0  0999 V2000
   36.6188   -8.6127  -37.8354 N   0  0  0  0  0  0  0  0  0  0  0  0
   35.4949   -9.2151  -38.2517 C   0  0  0  0  0  0  0  0  0  0  0  0
   34.5843   -8.4914  -39.0808 N   0  0  0  0  0  0  0  0  0  0  0  0
   35.2119  -10.4756  -37.9066 N   0  0  0  0  0  0  0  0  0  0  0  0
   36.0785  -11.1927  -37.1049 C   0  0  0  0  0  0  0  0  0  0  0  0
   37.2304  -10.5915  -36.6690 C   0  0  0  0  0  0  0  0  0  0  0  0
   37.5177   -9.2403  -37.0503 C   0  0  0  0  0  0  0  0  0  0  0  0
   38.9962   -8.4253  -36.5185 S   0  0  0  0  0  0  0  0  0  0  0  0
   37.9074  -11.5022  -35.8987 N   0  0  0  0  0  0  0  0  0  0  0  0
   37.1809  -12.6496  -35.8599 C   0  0  0  0  0  0  0  0  0  0  0  0
   36.0482  -12.4797  -36.5984 N   0  0  0  0  0  0  0  0  0  0  0  0
  1  2  2  0  0  0  0
  1  7  1  0  0  0  0
  2  3  1  0  0  0  0
  2  4  1  0  0  0  0
  4  5  2  0  0  0  0
  5  6  1  0  0  0  0
  5 11  1  0  0  0  0
  6  7  2  0  0  0  0
  6  9  1  0  0  0  0
  7  8  1  0  0  0  0
  9 10  1  0  0  0  0
 10 11  2  0  0  0  0
M  END
>  <CHROM.1>
36.89689463,-10.02760799,-37.09683218,1.48225127,-0.49830782,-0.38710916

>  <Name>
ligand

>  <RI>
0

>  <Rbt.Current_Directory>
/home/itssahil/PROJECTS/Mol_Feturizer/New_Systems/rnas/3RKF

>  <Rbt.Executable>
rbdock ($Id: //depot/dev/client3/rdock/2013.1/src/exe/rbdock.cxx#4 $)

>  <Rbt.Library>
libRbt.so (2013.1, Build901 2013/11/27)

>  <Rbt.Parameter_File>
/export/apps/rDock/src/rDock_2013.1_src/data/scripts/dock_solv.prm

>  <Rbt.Receptor>
prm/pocket_docking_3.prm

>  <SCORE>
-15.8008

>  <SCORE.INTER>
-15.8008

>  <SCORE.INTER.CONST>
1

>  <SCORE.INTER.POLAR>
0

>  <SCORE.INTER.ROT>
0

>  <SCORE.INTER.SOLV>
9.50343

>  <SCORE.INTER.VDW>
-17.3017

>  <SCORE.INTER.norm>
-1.43643

>  <SCORE.INTRA>
0

>  <SCORE.INTRA.DIHEDRAL>
0

>  <SCORE.INTRA.DIHEDRAL.0>
0

>  <SCORE.INTRA.POLAR>
0

>  <SCORE.INTRA.POLAR.0>
0

>  <SCORE.INTRA.REPUL>
0

>  <SCORE.INTRA.REPUL.0>
0

>  <SCORE.INTRA.SOLV>
0

>  <SCORE.INTRA.SOLV.lig_0>
-28.6198

>  <SCORE.INTRA.VDW>
0

>  <SCORE.INTRA.VDW.0>
0

>  <SCORE.INTRA.norm>
0

>  <SCORE.RESTR>
0

>  <SCORE.RESTR.CAVITY>
0

>  <SCORE.RESTR.norm>
0

>  <SCORE.SYSTEM>
0

>  <SCORE.SYSTEM.CONST>
0

>  <SCORE.SYSTEM.DIHEDRAL>
0

>  <SCORE.SYSTEM.SOLV>
0

>  <SCORE.SYSTEM.norm>
0

>  <SCORE.heavy>
11

>  <SCORE.norm>
-1.43643

>  <RMSD>
2.894

$$$$
ligand
 OpenBabel11021811483D
libRbt.so/2013.1/901 2013/11/27
 11 12  0  0  0  0  0  0  0  0999 V2000
   36.5956   -8.5960  -37.8327 N   0  0  0  0  0  0  0  0  0  0  0  0
   35.4814   -9.2100  -38.2580 C   0  0  0  0  0  0  0  0  0  0  0  0
   34.5695   -8.4956  -39.0937 N   0  0  0  0  0  0  0  0  0  0  0  0
   35.2093  -10.4738  -37.9160 N   0  0  0  0  0  0  0  0  0  0  0  0
   36.0773  -11.1821  -37.1080 C   0  0  0  0  0  0  0  0  0  0  0  0
   37.2193  -10.5690  -36.6629 C   0  0  0  0  0  0  0  0  0  0  0  0
   37.4950   -9.2144  -37.0411 C   0  0  0  0  0  0  0  0  0  0  0  0
   38.9605   -8.3841  -36.4974 S   0  0  0  0  0  0  0  0  0  0  0  0
   37.9000  -11.4728  -35.8880 N   0  0  0  0  0  0  0  0  0  0  0  0
   37.1856  -12.6280  -35.8554 C   0  0  0  0  0  0  0  0  0  0  0  0
   36.0569  -12.4698  -36.6026 N   0  0  0  0  0  0  0  0  0  0  0  0
  1  2  2  0  0  0  0
  1  7  1  0  0  0  0
  2  3  1  0  0  0  0
  2  4  1  0  0  0  0
  4  5  2  0  0  0  0
  5  6  1  0  0  0  0
  5 11  1  0  0  0  0
  6  7  2  0  0  0  0
  6  9  1  0  0  0  0
  7  8  1  0  0  0  0
  9 10  1  0  0  0  0
 10 11  2  0  0  0  0
M  END
>  <CHROM.1>
36.88306115,-10.00833733,-37.09293594,1.49027748,-0.50947528,-0.38256762

>  <Name>
ligand

>  <RI>
0

>  <Rbt.Current_Directory>
/home/itssahil/PROJECTS/Mol_Feturizer/New_Systems/rnas/3RKF

>  <Rbt.Executable>
rbdock ($Id: //depot/dev/client3/rdock/2013.1/src/exe/rbdock.cxx#4 $)

>  <Rbt.Library>
libRbt.so (2013.1, Build901 2013/11/27)

>  <Rbt.Parameter_File>
/export/apps/rDock/src/rDock_2013.1_src/data/scripts/dock_solv.prm

>  <Rbt.Receptor>
prm/pocket_docking_3.prm

>  <SCORE>
-15.8072

>  <SCORE.INTER>
-15.8072

>  <SCORE.INTER.CONST>
1

>  <SCORE.INTER.POLAR>
0

>  <SCORE.INTER.ROT>
0

>  <SCORE.INTER.SOLV>
9.49147

>  <SCORE.INTER.VDW>
-17.302

>  <SCORE.INTER.norm>
-1.43702

>  <SCORE.INTRA>
0

>  <SCORE.INTRA.DIHEDRAL>
0

>  <SCORE.INTRA.DIHEDRAL.0>
0

>  <SCORE.INTRA.POLAR>
0

>  <SCORE.INTRA.POLAR.0>
0

>  <SCORE.INTRA.REPUL>
0

>  <SCORE.INTRA.REPUL.0>
0

>  <SCORE.INTRA.SOLV>
0

>  <SCORE.INTRA.SOLV.lig_0>
-28.6198

>  <SCORE.INTRA.VDW>
0

>  <SCORE.INTRA.VDW.0>
0

>  <SCORE.INTRA.norm>
0

>  <SCORE.RESTR>
0

>  <SCORE.RESTR.CAVITY>
0

>  <SCORE.RESTR.norm>
0

>  <SCORE.SYSTEM>
0

>  <SCORE.SYSTEM.CONST>
0

>  <SCORE.SYSTEM.DIHEDRAL>
0

>  <SCORE.SYSTEM.SOLV>
0

>  <SCORE.SYSTEM.norm>
0

>  <SCORE.heavy>
11

>  <SCORE.norm>
-1.43702

>  <RMSD>
2.894

$$$$
ligand
 OpenBabel11021811483D
libRbt.so/2013.1/901 2013/11/27
 11 12  0  0  0  0  0  0  0  0999 V2000
   36.6085   -8.6199  -37.8466 N   0  0  0  0  0  0  0  0  0  0  0  0
   35.4886   -9.2254  -38.2691 C   0  0  0  0  0  0  0  0  0  0  0  0
   34.5778   -8.5024  -39.0986 N   0  0  0  0  0  0  0  0  0  0  0  0
   35.2097  -10.4884  -37.9298 N   0  0  0  0  0  0  0  0  0  0  0  0
   36.0766  -11.2049  -37.1278 C   0  0  0  0  0  0  0  0  0  0  0  0
   37.2244  -10.6006  -36.6857 C   0  0  0  0  0  0  0  0  0  0  0  0
   37.5073   -9.2466  -37.0608 C   0  0  0  0  0  0  0  0  0  0  0  0
   38.9805   -8.4275  -36.5208 S   0  0  0  0  0  0  0  0  0  0  0  0
   37.9026  -11.5113  -35.9165 N   0  0  0  0  0  0  0  0  0  0  0  0
   37.1808  -12.6619  -35.8845 C   0  0  0  0  0  0  0  0  0  0  0  0
   36.0500  -12.4940  -36.6263 N   0  0  0  0  0  0  0  0  0  0  0  0
  1  2  2  0  0  0  0
  1  7  1  0  0  0  0
  2  3  1  0  0  0  0
  2  4  1  0  0  0  0
  4  5  2  0  0  0  0
  5  6  1  0  0  0  0
  5 11  1  0  0  0  0
  6  7  2  0  0  0  0
  6  9  1  0  0  0  0
  7  8  1  0  0  0  0
  9 10  1  0  0  0  0
 10 11  2  0  0  0  0
M  END
>  <CHROM.1>
36.89001420,-10.03641063,-37.11247997,1.48522045,-0.50309803,-0.38187903

>  <Name>
ligand

>  <RI>
0

>  <Rbt.Current_Directory>
/home/itssahil/PROJECTS/Mol_Feturizer/New_Systems/rnas/3RKF

>  <Rbt.Executable>
rbdock ($Id: //depot/dev/client3/rdock/2013.1/src/exe/rbdock.cxx#4 $)

>  <Rbt.Library>
libRbt.so (2013.1, Build901 2013/11/27)

>  <Rbt.Parameter_File>
/export/apps/rDock/src/rDock_2013.1_src/data/scripts/dock_solv.prm

>  <Rbt.Receptor>
prm/pocket_docking_3.prm

>  <SCORE>
-15.7421

>  <SCORE.INTER>
-15.7421

>  <SCORE.INTER.CONST>
1

>  <SCORE.INTER.POLAR>
0

>  <SCORE.INTER.ROT>
0

>  <SCORE.INTER.SOLV>
9.542

>  <SCORE.INTER.VDW>
-17.2754

>  <SCORE.INTER.norm>
-1.4311

>  <SCORE.INTRA>
0

>  <SCORE.INTRA.DIHEDRAL>
0

>  <SCORE.INTRA.DIHEDRAL.0>
0

>  <SCORE.INTRA.POLAR>
0

>  <SCORE.INTRA.POLAR.0>
0

>  <SCORE.INTRA.REPUL>
0

>  <SCORE.INTRA.REPUL.0>
0

>  <SCORE.INTRA.SOLV>
0

>  <SCORE.INTRA.SOLV.lig_0>
-28.6198

>  <SCORE.INTRA.VDW>
0

>  <SCORE.INTRA.VDW.0>
0

>  <SCORE.INTRA.norm>
0

>  <SCORE.RESTR>
0

>  <SCORE.RESTR.CAVITY>
0

>  <SCORE.RESTR.norm>
0

>  <SCORE.SYSTEM>
0

>  <SCORE.SYSTEM.CONST>
0

>  <SCORE.SYSTEM.DIHEDRAL>
0

>  <SCORE.SYSTEM.SOLV>
0

>  <SCORE.SYSTEM.norm>
0

>  <SCORE.heavy>
11

>  <SCORE.norm>
-1.4311

>  <RMSD>
2.894

$$$$
ligand
 OpenBabel11021811483D
libRbt.so/2013.1/901 2013/11/27
 11 12  0  0  0  0  0  0  0  0999 V2000
   36.6397   -8.6491  -37.8940 N   0  0  0  0  0  0  0  0  0  0  0  0
   35.5272   -9.2596  -38.3289 C   0  0  0  0  0  0  0  0  0  0  0  0
   34.6436   -8.5550  -39.2023 N   0  0  0  0  0  0  0  0  0  0  0  0
   35.2310  -10.5108  -37.9617 N   0  0  0  0  0  0  0  0  0  0  0  0
   36.0714  -11.2094  -37.1170 C   0  0  0  0  0  0  0  0  0  0  0  0
   37.2113  -10.5998  -36.6617 C   0  0  0  0  0  0  0  0  0  0  0  0
   37.5131   -9.2588  -37.0672 C   0  0  0  0  0  0  0  0  0  0  0  0
   38.9771   -8.4336  -36.5115 S   0  0  0  0  0  0  0  0  0  0  0  0
   37.8627  -11.4924  -35.8494 N   0  0  0  0  0  0  0  0  0  0  0  0
   37.1326  -12.6373  -35.8042 C   0  0  0  0  0  0  0  0  0  0  0  0
   36.0229  -12.4836  -36.5802 N   0  0  0  0  0  0  0  0  0  0  0  0
  1  2  2  0  0  0  0
  1  7  1  0  0  0  0
  2  3  1  0  0  0  0
  2  4  1  0  0  0  0
  4  5  2  0  0  0  0
  5  6  1  0  0  0  0
  5 11  1  0  0  0  0
  6  7  2  0  0  0  0
  6  9  1  0  0  0  0
  7  8  1  0  0  0  0
  9 10  1  0  0  0  0
 10 11  2  0  0  0  0
M  END
>  <CHROM.1>
36.89208616,-10.04593954,-37.11299752,1.46658028,-0.52502010,-0.41932317

>  <Name>
ligand

>  <RI>
0

>  <Rbt.Current_Directory>
/home/itssahil/PROJECTS/Mol_Feturizer/New_Systems/rnas/3RKF

>  <Rbt.Executable>
rbdock ($Id: //depot/dev/client3/rdock/2013.1/src/exe/rbdock.cxx#4 $)

>  <Rbt.Library>
libRbt.so (2013.1, Build901 2013/11/27)

>  <Rbt.Parameter_File>
/export/apps/rDock/src/rDock_2013.1_src/data/scripts/dock_solv.prm

>  <Rbt.Receptor>
prm/pocket_docking_4.prm

>  <SCORE>
-15.7873

>  <SCORE.INTER>
-15.7873

>  <SCORE.INTER.CONST>
1

>  <SCORE.INTER.POLAR>
0

>  <SCORE.INTER.ROT>
0

>  <SCORE.INTER.SOLV>
10.1603

>  <SCORE.INTER.VDW>
-17.5116

>  <SCORE.INTER.norm>
-1.43521

>  <SCORE.INTRA>
0

>  <SCORE.INTRA.DIHEDRAL>
0

>  <SCORE.INTRA.DIHEDRAL.0>
0

>  <SCORE.INTRA.POLAR>
0

>  <SCORE.INTRA.POLAR.0>
0

>  <SCORE.INTRA.REPUL>
0

>  <SCORE.INTRA.REPUL.0>
0

>  <SCORE.INTRA.SOLV>
0

>  <SCORE.INTRA.SOLV.lig_0>
-28.6198

>  <SCORE.INTRA.VDW>
0

>  <SCORE.INTRA.VDW.0>
0

>  <SCORE.INTRA.norm>
0

>  <SCORE.RESTR>
0

>  <SCORE.RESTR.CAVITY>
0

>  <SCORE.RESTR.norm>
0

>  <SCORE.SYSTEM>
0

>  <SCORE.SYSTEM.CONST>
0

>  <SCORE.SYSTEM.DIHEDRAL>
0

>  <SCORE.SYSTEM.SOLV>
0

>  <SCORE.SYSTEM.norm>
0

>  <SCORE.heavy>
11

>  <SCORE.norm>
-1.43521

>  <RMSD>
2.894

$$$$
ligand
 OpenBabel11021811483D
libRbt.so/2013.1/901 2013/11/27
 11 12  0  0  0  0  0  0  0  0999 V2000
   36.6650   -8.5416  -37.8063 N   0  0  0  0  0  0  0  0  0  0  0  0
   35.5501   -9.1568  -38.2281 C   0  0  0  0  0  0  0  0  0  0  0  0
   34.6551   -8.4572  -39.0940 N   0  0  0  0  0  0  0  0  0  0  0  0
   35.2618  -10.4080  -37.8547 N   0  0  0  0  0  0  0  0  0  0  0  0
   36.1133  -11.1018  -37.0171 C   0  0  0  0  0  0  0  0  0  0  0  0
   37.2558  -10.4873  -36.5753 C   0  0  0  0  0  0  0  0  0  0  0  0
   37.5490   -9.1463  -36.9872 C   0  0  0  0  0  0  0  0  0  0  0  0
   39.0160   -8.3150  -36.4488 S   0  0  0  0  0  0  0  0  0  0  0  0
   37.9185  -11.3757  -35.7676 N   0  0  0  0  0  0  0  0  0  0  0  0
   37.1927  -12.5229  -35.7119 C   0  0  0  0  0  0  0  0  0  0  0  0
   36.0745  -12.3748  -36.4767 N   0  0  0  0  0  0  0  0  0  0  0  0
  1  2  2  0  0  0  0
  1  7  1  0  0  0  0
  2  3  1  0  0  0  0
  2  4  1  0  0  0  0
  4  5  2  0  0  0  0
  5  6  1  0  0  0  0
  5 11  1  0  0  0  0
  6  7  2  0  0  0  0
  6  9  1  0  0  0  0
  7  8  1  0  0  0  0
  9 10  1  0  0  0  0
 10 11  2  0  0  0  0
M  END
>  <CHROM.1>
36.93010968,-9.93562198,-37.02456953,1.47489901,-0.51681121,-0.41767473

>  <Name>
ligand

>  <RI>
0

>  <Rbt.Current_Directory>
/home/itssahil/PROJECTS/Mol_Feturizer/New_Systems/rnas/3RKF

>  <Rbt.Executable>
rbdock ($Id: //depot/dev/client3/rdock/2013.1/src/exe/rbdock.cxx#4 $)

>  <Rbt.Library>
libRbt.so (2013.1, Build901 2013/11/27)

>  <Rbt.Parameter_File>
/export/apps/rDock/src/rDock_2013.1_src/data/scripts/dock_solv.prm

>  <Rbt.Receptor>
prm/pocket_docking_4.prm

>  <SCORE>
-15.675

>  <SCORE.INTER>
-15.675

>  <SCORE.INTER.CONST>
1

>  <SCORE.INTER.POLAR>
0

>  <SCORE.INTER.ROT>
0

>  <SCORE.INTER.SOLV>
9.71872

>  <SCORE.INTER.VDW>
-17.2896

>  <SCORE.INTER.norm>
-1.425

>  <SCORE.INTRA>
0

>  <SCORE.INTRA.DIHEDRAL>
0

>  <SCORE.INTRA.DIHEDRAL.0>
0

>  <SCORE.INTRA.POLAR>
0

>  <SCORE.INTRA.POLAR.0>
0

>  <SCORE.INTRA.REPUL>
0

>  <SCORE.INTRA.REPUL.0>
0

>  <SCORE.INTRA.SOLV>
0

>  <SCORE.INTRA.SOLV.lig_0>
-28.6198

>  <SCORE.INTRA.VDW>
0

>  <SCORE.INTRA.VDW.0>
0

>  <SCORE.INTRA.norm>
0

>  <SCORE.RESTR>
0

>  <SCORE.RESTR.CAVITY>
0

>  <SCORE.RESTR.norm>
0

>  <SCORE.SYSTEM>
0

>  <SCORE.SYSTEM.CONST>
0

>  <SCORE.SYSTEM.DIHEDRAL>
0

>  <SCORE.SYSTEM.SOLV>
0

>  <SCORE.SYSTEM.norm>
0

>  <SCORE.heavy>
11

>  <SCORE.norm>
-1.425

>  <RMSD>
2.894

$$$$
ligand
 OpenBabel11021811483D
libRbt.so/2013.1/901 2013/11/27
 11 12  0  0  0  0  0  0  0  0999 V2000
   36.6114   -8.6116  -37.8319 N   0  0  0  0  0  0  0  0  0  0  0  0
   35.4892   -9.2152  -38.2510 C   0  0  0  0  0  0  0  0  0  0  0  0
   34.5783   -8.4916  -39.0797 N   0  0  0  0  0  0  0  0  0  0  0  0
   35.2082  -10.4770  -37.9090 N   0  0  0  0  0  0  0  0  0  0  0  0
   36.0751  -11.1942  -37.1077 C   0  0  0  0  0  0  0  0  0  0  0  0
   37.2253  -10.5917  -36.6690 C   0  0  0  0  0  0  0  0  0  0  0  0
   37.5104   -9.2391  -37.0470 C   0  0  0  0  0  0  0  0  0  0  0  0
   38.9866   -8.4224  -36.5115 S   0  0  0  0  0  0  0  0  0  0  0  0
   37.9030  -11.5027  -35.8998 N   0  0  0  0  0  0  0  0  0  0  0  0
   37.1788  -12.6517  -35.8644 C   0  0  0  0  0  0  0  0  0  0  0  0
   36.0467  -12.4824  -36.6040 N   0  0  0  0  0  0  0  0  0  0  0  0
  1  2  2  0  0  0  0
  1  7  1  0  0  0  0
  2  3  1  0  0  0  0
  2  4  1  0  0  0  0
  4  5  2  0  0  0  0
  5  6  1  0  0  0  0
  5 11  1  0  0  0  0
  6  7  2  0  0  0  0
  6  9  1  0  0  0  0
  7  8  1  0  0  0  0
  9 10  1  0  0  0  0
 10 11  2  0  0  0  0
M  END
>  <CHROM.1>
36.89123197,-10.02752026,-37.09605803,1.48374674,-0.50027584,-0.38423651

>  <Name>
ligand

>  <RI>
0

>  <Rbt.Current_Directory>
/home/itssahil/PROJECTS/Mol_Feturizer/New_Systems/rnas/3RKF

>  <Rbt.Executable>
rbdock ($Id: //depot/dev/client3/rdock/2013.1/src/exe/rbdock.cxx#4 $)

>  <Rbt.Library>
libRbt.so (2013.1, Build901 2013/11/27)

>  <Rbt.Parameter_File>
/export/apps/rDock/src/rDock_2013.1_src/data/scripts/dock_solv.prm

>  <Rbt.Receptor>
prm/pocket_docking_5.prm

>  <SCORE>
-15.8005

>  <SCORE.INTER>
-15.8005

>  <SCORE.INTER.CONST>
1

>  <SCORE.INTER.POLAR>
0

>  <SCORE.INTER.ROT>
0

>  <SCORE.INTER.SOLV>
9.4798

>  <SCORE.INTER.VDW>
-17.2936

>  <SCORE.INTER.norm>
-1.43641

>  <SCORE.INTRA>
0

>  <SCORE.INTRA.DIHEDRAL>
0

>  <SCORE.INTRA.DIHEDRAL.0>
0

>  <SCORE.INTRA.POLAR>
0

>  <SCORE.INTRA.POLAR.0>
0

>  <SCORE.INTRA.REPUL>
0

>  <SCORE.INTRA.REPUL.0>
0

>  <SCORE.INTRA.SOLV>
0

>  <SCORE.INTRA.SOLV.lig_0>
-28.6198

>  <SCORE.INTRA.VDW>
0

>  <SCORE.INTRA.VDW.0>
0

>  <SCORE.INTRA.norm>
0

>  <SCORE.RESTR>
0

>  <SCORE.RESTR.CAVITY>
0

>  <SCORE.RESTR.norm>
0

>  <SCORE.SYSTEM>
0

>  <SCORE.SYSTEM.CONST>
0

>  <SCORE.SYSTEM.DIHEDRAL>
0

>  <SCORE.SYSTEM.SOLV>
0

>  <SCORE.SYSTEM.norm>
0

>  <SCORE.heavy>
11

>  <SCORE.norm>
-1.43641

>  <RMSD>
2.894

$$$$
ligand
 OpenBabel11021811483D
libRbt.so/2013.1/901 2013/11/27
 11 12  0  0  0  0  0  0  0  0999 V2000
   36.6051   -8.5865  -37.8488 N   0  0  0  0  0  0  0  0  0  0  0  0
   35.4847   -9.1994  -38.2590 C   0  0  0  0  0  0  0  0  0  0  0  0
   34.5691   -8.4888  -39.0940 N   0  0  0  0  0  0  0  0  0  0  0  0
   35.2096  -10.4585  -37.9024 N   0  0  0  0  0  0  0  0  0  0  0  0
   36.0810  -11.1630  -37.0949 C   0  0  0  0  0  0  0  0  0  0  0  0
   37.2295  -10.5510  -36.6651 C   0  0  0  0  0  0  0  0  0  0  0  0
   37.5082   -9.2014  -37.0587 C   0  0  0  0  0  0  0  0  0  0  0  0
   38.9820   -8.3727  -36.5352 S   0  0  0  0  0  0  0  0  0  0  0  0
   37.9125  -11.4505  -35.8871 N   0  0  0  0  0  0  0  0  0  0  0  0
   37.1931  -12.6020  -35.8375 C   0  0  0  0  0  0  0  0  0  0  0  0
   36.0589  -12.4457  -36.5768 N   0  0  0  0  0  0  0  0  0  0  0  0
  1  2  2  0  0  0  0
  1  7  1  0  0  0  0
  2  3  1  0  0  0  0
  2  4  1  0  0  0  0
  4  5  2  0  0  0  0
  5  6  1  0  0  0  0
  5 11  1  0  0  0  0
  6  7  2  0  0  0  0
  6  9  1  0  0  0  0
  7  8  1  0  0  0  0
  9 10  1  0  0  0  0
 10 11  2  0  0  0  0
M  END
>  <CHROM.1>
36.89226490,-9.99295887,-37.09779349,1.48896406,-0.50007023,-0.39287853

>  <Name>
ligand

>  <RI>
0

>  <Rbt.Current_Directory>
/home/itssahil/PROJECTS/Mol_Feturizer/New_Systems/rnas/3RKF

>  <Rbt.Executable>
rbdock ($Id: //depot/dev/client3/rdock/2013.1/src/exe/rbdock.cxx#4 $)

>  <Rbt.Library>
libRbt.so (2013.1, Build901 2013/11/27)

>  <Rbt.Parameter_File>
/export/apps/rDock/src/rDock_2013.1_src/data/scripts/dock_solv.prm

>  <Rbt.Receptor>
prm/pocket_docking_5.prm

>  <SCORE>
-15.78

>  <SCORE.INTER>
-15.78

>  <SCORE.INTER.CONST>
1

>  <SCORE.INTER.POLAR>
0

>  <SCORE.INTER.ROT>
0

>  <SCORE.INTER.SOLV>
9.50538

>  <SCORE.INTER.VDW>
-17.2885

>  <SCORE.INTER.norm>
-1.43455

>  <SCORE.INTRA>
0

>  <SCORE.INTRA.DIHEDRAL>
0

>  <SCORE.INTRA.DIHEDRAL.0>
0

>  <SCORE.INTRA.POLAR>
0

>  <SCORE.INTRA.POLAR.0>
0

>  <SCORE.INTRA.REPUL>
0

>  <SCORE.INTRA.REPUL.0>
0

>  <SCORE.INTRA.SOLV>
0

>  <SCORE.INTRA.SOLV.lig_0>
-28.6198

>  <SCORE.INTRA.VDW>
0

>  <SCORE.INTRA.VDW.0>
0

>  <SCORE.INTRA.norm>
0

>  <SCORE.RESTR>
0

>  <SCORE.RESTR.CAVITY>
0

>  <SCORE.RESTR.norm>
0

>  <SCORE.SYSTEM>
0

>  <SCORE.SYSTEM.CONST>
0

>  <SCORE.SYSTEM.DIHEDRAL>
0

>  <SCORE.SYSTEM.SOLV>
0

>  <SCORE.SYSTEM.norm>
0

>  <SCORE.heavy>
11

>  <SCORE.norm>
-1.43455

>  <RMSD>
2.894

$$$$
ligand
 OpenBabel11021811483D
libRbt.so/2013.1/901 2013/11/27
 11 12  0  0  0  0  0  0  0  0999 V2000
   36.6128   -8.6124  -37.8382 N   0  0  0  0  0  0  0  0  0  0  0  0
   35.4884   -9.2145  -38.2536 C   0  0  0  0  0  0  0  0  0  0  0  0
   34.5764   -8.4902  -39.0806 N   0  0  0  0  0  0  0  0  0  0  0  0
   35.2061  -10.4755  -37.9094 N   0  0  0  0  0  0  0  0  0  0  0  0
   36.0740  -11.1932  -37.1097 C   0  0  0  0  0  0  0  0  0  0  0  0
   37.2264  -10.5923  -36.6749 C   0  0  0  0  0  0  0  0  0  0  0  0
   37.5129   -9.2405  -37.0551 C   0  0  0  0  0  0  0  0  0  0  0  0
   38.9920   -8.4259  -36.5246 S   0  0  0  0  0  0  0  0  0  0  0  0
   37.9047  -11.5036  -35.9065 N   0  0  0  0  0  0  0  0  0  0  0  0
   37.1786  -12.6513  -35.8678 C   0  0  0  0  0  0  0  0  0  0  0  0
   36.0447  -12.4808  -36.6045 N   0  0  0  0  0  0  0  0  0  0  0  0
  1  2  2  0  0  0  0
  1  7  1  0  0  0  0
  2  3  1  0  0  0  0
  2  4  1  0  0  0  0
  4  5  2  0  0  0  0
  5  6  1  0  0  0  0
  5 11  1  0  0  0  0
  6  7  2  0  0  0  0
  6  9  1  0  0  0  0
  7  8  1  0  0  0  0
  9 10  1  0  0  0  0
 10 11  2  0  0  0  0
M  END
>  <CHROM.1>
36.89219922,-10.02797151,-37.10161399,1.48309593,-0.49705361,-0.38564420

>  <Name>
ligand

>  <RI>
0

>  <Rbt.Current_Directory>
/home/itssahil/PROJECTS/Mol_Feturizer/New_Systems/rnas/3RKF

>  <Rbt.Executable>
rbdock ($Id: //depot/dev/client3/rdock/2013.1/src/exe/rbdock.cxx#4 $)

>  <Rbt.Library>
libRbt.so (2013.1, Build901 2013/11/27)

>  <Rbt.Parameter_File>
/export/apps/rDock/src/rDock_2013.1_src/data/scripts/dock_solv.prm

>  <Rbt.Receptor>
prm/pocket_docking_5.prm

>  <SCORE>
-15.7953

>  <SCORE.INTER>
-15.7953

>  <SCORE.INTER.CONST>
1

>  <SCORE.INTER.POLAR>
0

>  <SCORE.INTER.ROT>
0

>  <SCORE.INTER.SOLV>
9.48063

>  <SCORE.INTER.VDW>
-17.2904

>  <SCORE.INTER.norm>
-1.43593

>  <SCORE.INTRA>
0

>  <SCORE.INTRA.DIHEDRAL>
0

>  <SCORE.INTRA.DIHEDRAL.0>
0

>  <SCORE.INTRA.POLAR>
0

>  <SCORE.INTRA.POLAR.0>
0

>  <SCORE.INTRA.REPUL>
0

>  <SCORE.INTRA.REPUL.0>
0

>  <SCORE.INTRA.SOLV>
0

>  <SCORE.INTRA.SOLV.lig_0>
-28.6198

>  <SCORE.INTRA.VDW>
0

>  <SCORE.INTRA.VDW.0>
0

>  <SCORE.INTRA.norm>
0

>  <SCORE.RESTR>
0

>  <SCORE.RESTR.CAVITY>
0

>  <SCORE.RESTR.norm>
0

>  <SCORE.SYSTEM>
0

>  <SCORE.SYSTEM.CONST>
0

>  <SCORE.SYSTEM.DIHEDRAL>
0

>  <SCORE.SYSTEM.SOLV>
0

>  <SCORE.SYSTEM.norm>
0

>  <SCORE.heavy>
11

>  <SCORE.norm>
-1.43593

>  <RMSD>
2.894

$$$$
ligand
 OpenBabel11021811483D
libRbt.so/2013.1/901 2013/11/27
 11 12  0  0  0  0  0  0  0  0999 V2000
   36.6147   -8.6123  -37.8354 N   0  0  0  0  0  0  0  0  0  0  0  0
   35.4898   -9.2144  -38.2497 C   0  0  0  0  0  0  0  0  0  0  0  0
   34.5779   -8.4905  -39.0772 N   0  0  0  0  0  0  0  0  0  0  0  0
   35.2072  -10.4748  -37.9041 N   0  0  0  0  0  0  0  0  0  0  0  0
   36.0751  -11.1921  -37.1040 C   0  0  0  0  0  0  0  0  0  0  0  0
   37.2279  -10.5913  -36.6702 C   0  0  0  0  0  0  0  0  0  0  0  0
   37.5148   -9.2400  -37.0520 C   0  0  0  0  0  0  0  0  0  0  0  0
   38.9944   -8.4255  -36.5229 S   0  0  0  0  0  0  0  0  0  0  0  0
   37.9060  -11.5020  -35.9011 N   0  0  0  0  0  0  0  0  0  0  0  0
   37.1794  -12.6493  -35.8609 C   0  0  0  0  0  0  0  0  0  0  0  0
   36.0454  -12.4792  -36.5974 N   0  0  0  0  0  0  0  0  0  0  0  0
  1  2  2  0  0  0  0
  1  7  1  0  0  0  0
  2  3  1  0  0  0  0
  2  4  1  0  0  0  0
  4  5  2  0  0  0  0
  5  6  1  0  0  0  0
  5 11  1  0  0  0  0
  6  7  2  0  0  0  0
  6  9  1  0  0  0  0
  7  8  1  0  0  0  0
  9 10  1  0  0  0  0
 10 11  2  0  0  0  0
M  END
>  <CHROM.1>
36.89373228,-10.02725080,-37.09741888,1.48278518,-0.49653980,-0.38686044

>  <Name>
ligand

>  <RI>
0

>  <Rbt.Current_Directory>
/home/itssahil/PROJECTS/Mol_Feturizer/New_Systems/rnas/3RKF

>  <Rbt.Executable>
rbdock ($Id: //depot/dev/client3/rdock/2013.1/src/exe/rbdock.cxx#4 $)

>  <Rbt.Library>
libRbt.so (2013.1, Build901 2013/11/27)

>  <Rbt.Parameter_File>
/export/apps/rDock/src/rDock_2013.1_src/data/scripts/dock_solv.prm

>  <Rbt.Receptor>
prm/pocket_docking_5.prm

>  <SCORE>
-15.8002

>  <SCORE.INTER>
-15.8002

>  <SCORE.INTER.CONST>
1

>  <SCORE.INTER.POLAR>
0

>  <SCORE.INTER.ROT>
0

>  <SCORE.INTER.SOLV>
9.4776

>  <SCORE.INTER.VDW>
-17.2927

>  <SCORE.INTER.norm>
-1.43638

>  <SCORE.INTRA>
0

>  <SCORE.INTRA.DIHEDRAL>
0

>  <SCORE.INTRA.DIHEDRAL.0>
0

>  <SCORE.INTRA.POLAR>
0

>  <SCORE.INTRA.POLAR.0>
0

>  <SCORE.INTRA.REPUL>
0

>  <SCORE.INTRA.REPUL.0>
0

>  <SCORE.INTRA.SOLV>
0

>  <SCORE.INTRA.SOLV.lig_0>
-28.6198

>  <SCORE.INTRA.VDW>
0

>  <SCORE.INTRA.VDW.0>
0

>  <SCORE.INTRA.norm>
0

>  <SCORE.RESTR>
0

>  <SCORE.RESTR.CAVITY>
0

>  <SCORE.RESTR.norm>
0

>  <SCORE.SYSTEM>
0

>  <SCORE.SYSTEM.CONST>
0

>  <SCORE.SYSTEM.DIHEDRAL>
0

>  <SCORE.SYSTEM.SOLV>
0

>  <SCORE.SYSTEM.norm>
0

>  <SCORE.heavy>
11

>  <SCORE.norm>
-1.43638

>  <RMSD>
2.894

$$$$
ligand
 OpenBabel11021811483D
libRbt.so/2013.1/901 2013/11/27
 11 12  0  0  0  0  0  0  0  0999 V2000
   36.6361   -8.6456  -37.8949 N   0  0  0  0  0  0  0  0  0  0  0  0
   35.5177   -9.2519  -38.3202 C   0  0  0  0  0  0  0  0  0  0  0  0
   34.6290   -8.5438  -39.1857 N   0  0  0  0  0  0  0  0  0  0  0  0
   35.2201  -10.5021  -37.9508 N   0  0  0  0  0  0  0  0  0  0  0  0
   36.0655  -11.2041  -37.1138 C   0  0  0  0  0  0  0  0  0  0  0  0
   37.2114  -10.5987  -36.6683 C   0  0  0  0  0  0  0  0  0  0  0  0
   37.5145   -9.2587  -37.0760 C   0  0  0  0  0  0  0  0  0  0  0  0
   38.9862   -8.4389  -36.5328 S   0  0  0  0  0  0  0  0  0  0  0  0
   37.8667  -11.4940  -35.8620 N   0  0  0  0  0  0  0  0  0  0  0  0
   37.1329  -12.6363  -35.8108 C   0  0  0  0  0  0  0  0  0  0  0  0
   36.0170  -12.4783  -36.5770 N   0  0  0  0  0  0  0  0  0  0  0  0
  1  2  2  0  0  0  0
  1  7  1  0  0  0  0
  2  3  1  0  0  0  0
  2  4  1  0  0  0  0
  4  5  2  0  0  0  0
  5  6  1  0  0  0  0
  5 11  1  0  0  0  0
  6  7  2  0  0  0  0
  6  9  1  0  0  0  0
  7  8  1  0  0  0  0
  9 10  1  0  0  0  0
 10 11  2  0  0  0  0
M  END
>  <CHROM.1>
36.89029779,-10.04359364,-37.11659301,1.46689630,-0.51555544,-0.41882123

>  <Name>
ligand

>  <RI>
0

>  <Rbt.Current_Directory>
/home/itssahil/PROJECTS/Mol_Feturizer/New_Systems/rnas/3RKF

>  <Rbt.Executable>
rbdock ($Id: //depot/dev/client3/rdock/2013.1/src/exe/rbdock.cxx#4 $)

>  <Rbt.Library>
libRbt.so (2013.1, Build901 2013/11/27)

>  <Rbt.Parameter_File>
/export/apps/rDock/src/rDock_2013.1_src/data/scripts/dock_solv.prm

>  <Rbt.Receptor>
prm/pocket_docking_5.prm

>  <SCORE>
-15.7835

>  <SCORE.INTER>
-15.7835

>  <SCORE.INTER.CONST>
1

>  <SCORE.INTER.POLAR>
0

>  <SCORE.INTER.ROT>
0

>  <SCORE.INTER.SOLV>
10.0506

>  <SCORE.INTER.VDW>
-17.4726

>  <SCORE.INTER.norm>
-1.43487

>  <SCORE.INTRA>
0

>  <SCORE.INTRA.DIHEDRAL>
0

>  <SCORE.INTRA.DIHEDRAL.0>
0

>  <SCORE.INTRA.POLAR>
0

>  <SCORE.INTRA.POLAR.0>
0

>  <SCORE.INTRA.REPUL>
0

>  <SCORE.INTRA.REPUL.0>
0

>  <SCORE.INTRA.SOLV>
0

>  <SCORE.INTRA.SOLV.lig_0>
-28.6198

>  <SCORE.INTRA.VDW>
0

>  <SCORE.INTRA.VDW.0>
0

>  <SCORE.INTRA.norm>
0

>  <SCORE.RESTR>
0

>  <SCORE.RESTR.CAVITY>
0

>  <SCORE.RESTR.norm>
0

>  <SCORE.SYSTEM>
0

>  <SCORE.SYSTEM.CONST>
0

>  <SCORE.SYSTEM.DIHEDRAL>
0

>  <SCORE.SYSTEM.SOLV>
0

>  <SCORE.SYSTEM.norm>
0

>  <SCORE.heavy>
11

>  <SCORE.norm>
-1.43487

>  <RMSD>
2.894

$$$$
ligand
 OpenBabel11021811483D
libRbt.so/2013.1/901 2013/11/27
 11 12  0  0  0  0  0  0  0  0999 V2000
   36.5904   -8.5935  -37.8351 N   0  0  0  0  0  0  0  0  0  0  0  0
   35.4745   -9.2070  -38.2569 C   0  0  0  0  0  0  0  0  0  0  0  0
   34.5607   -8.4923  -39.0902 N   0  0  0  0  0  0  0  0  0  0  0  0
   35.2025  -10.4704  -37.9134 N   0  0  0  0  0  0  0  0  0  0  0  0
   36.0724  -11.1789  -37.1076 C   0  0  0  0  0  0  0  0  0  0  0  0
   37.2161  -10.5664  -36.6662 C   0  0  0  0  0  0  0  0  0  0  0  0
   37.4916   -9.2122  -37.0458 C   0  0  0  0  0  0  0  0  0  0  0  0
   38.9594   -8.3827  -36.5068 S   0  0  0  0  0  0  0  0  0  0  0  0
   37.8984  -11.4704  -35.8928 N   0  0  0  0  0  0  0  0  0  0  0  0
   37.1833  -12.6251  -35.8576 C   0  0  0  0  0  0  0  0  0  0  0  0
   36.0525  -12.4663  -36.6015 N   0  0  0  0  0  0  0  0  0  0  0  0
  1  2  2  0  0  0  0
  1  7  1  0  0  0  0
  2  3  1  0  0  0  0
  2  4  1  0  0  0  0
  4  5  2  0  0  0  0
  5  6  1  0  0  0  0
  5 11  1  0  0  0  0
  6  7  2  0  0  0  0
  6  9  1  0  0  0  0
  7  8  1  0  0  0  0
  9 10  1  0  0  0  0
 10 11  2  0  0  0  0
M  END
>  <CHROM.1>
36.87900991,-10.00575052,-37.09548891,1.49076191,-0.50650766,-0.38282560

>  <Name>
ligand

>  <RI>
0

>  <Rbt.Current_Directory>
/home/itssahil/PROJECTS/Mol_Feturizer/New_Systems/rnas/3RKF

>  <Rbt.Executable>
rbdock ($Id: //depot/dev/client3/rdock/2013.1/src/exe/rbdock.cxx#4 $)

>  <Rbt.Library>
libRbt.so (2013.1, Build901 2013/11/27)

>  <Rbt.Parameter_File>
/export/apps/rDock/src/rDock_2013.1_src/data/scripts/dock_solv.prm

>  <Rbt.Receptor>
prm/pocket_docking_5.prm

>  <SCORE>
-15.8056

>  <SCORE.INTER>
-15.8056

>  <SCORE.INTER.CONST>
1

>  <SCORE.INTER.POLAR>
0

>  <SCORE.INTER.ROT>
0

>  <SCORE.INTER.SOLV>
9.45982

>  <SCORE.INTER.VDW>
-17.2903

>  <SCORE.INTER.norm>
-1.43687

>  <SCORE.INTRA>
0

>  <SCORE.INTRA.DIHEDRAL>
0

>  <SCORE.INTRA.DIHEDRAL.0>
0

>  <SCORE.INTRA.POLAR>
0

>  <SCORE.INTRA.POLAR.0>
0

>  <SCORE.INTRA.REPUL>
0

>  <SCORE.INTRA.REPUL.0>
0

>  <SCORE.INTRA.SOLV>
0

>  <SCORE.INTRA.SOLV.lig_0>
-28.6198

>  <SCORE.INTRA.VDW>
0

>  <SCORE.INTRA.VDW.0>
0

>  <SCORE.INTRA.norm>
0

>  <SCORE.RESTR>
0

>  <SCORE.RESTR.CAVITY>
0

>  <SCORE.RESTR.norm>
0

>  <SCORE.SYSTEM>
0

>  <SCORE.SYSTEM.CONST>
0

>  <SCORE.SYSTEM.DIHEDRAL>
0

>  <SCORE.SYSTEM.SOLV>
0

>  <SCORE.SYSTEM.norm>
0

>  <SCORE.heavy>
11

>  <SCORE.norm>
-1.43687

>  <RMSD>
2.894

$$$$
ligand
 OpenBabel11021811483D
libRbt.so/2013.1/901 2013/11/27
 11 12  0  0  0  0  0  0  0  0999 V2000
   36.6112   -8.6032  -37.8188 N   0  0  0  0  0  0  0  0  0  0  0  0
   35.4844   -9.2028  -38.2313 C   0  0  0  0  0  0  0  0  0  0  0  0
   34.5687   -8.4741  -39.0502 N   0  0  0  0  0  0  0  0  0  0  0  0
   35.2033  -10.4653  -37.8917 N   0  0  0  0  0  0  0  0  0  0  0  0
   36.0748  -11.1873  -37.0998 C   0  0  0  0  0  0  0  0  0  0  0  0
   37.2297  -10.5890  -36.6680 C   0  0  0  0  0  0  0  0  0  0  0  0
   37.5150   -9.2356  -37.0433 C   0  0  0  0  0  0  0  0  0  0  0  0
   38.9972   -8.4242  -36.5164 S   0  0  0  0  0  0  0  0  0  0  0  0
   37.9114  -11.5043  -35.9074 N   0  0  0  0  0  0  0  0  0  0  0  0
   37.1849  -12.6518  -35.8705 C   0  0  0  0  0  0  0  0  0  0  0  0
   36.0474  -12.4772  -36.6006 N   0  0  0  0  0  0  0  0  0  0  0  0
  1  2  2  0  0  0  0
  1  7  1  0  0  0  0
  2  3  1  0  0  0  0
  2  4  1  0  0  0  0
  4  5  2  0  0  0  0
  5  6  1  0  0  0  0
  5 11  1  0  0  0  0
  6  7  2  0  0  0  0
  6  9  1  0  0  0  0
  7  8  1  0  0  0  0
  9 10  1  0  0  0  0
 10 11  2  0  0  0  0
M  END
>  <CHROM.1>
36.89364625,-10.02250318,-37.09034591,1.48469154,-0.49213735,-0.38012963

>  <Name>
ligand

>  <RI>
0

>  <Rbt.Current_Directory>
/home/itssahil/PROJECTS/Mol_Feturizer/New_Systems/rnas/3RKF

>  <Rbt.Executable>
rbdock ($Id: //depot/dev/client3/rdock/2013.1/src/exe/rbdock.cxx#4 $)

>  <Rbt.Library>
libRbt.so (2013.1, Build901 2013/11/27)

>  <Rbt.Parameter_File>
/export/apps/rDock/src/rDock_2013.1_src/data/scripts/dock_solv.prm

>  <Rbt.Receptor>
prm/pocket_docking_6.prm

>  <SCORE>
-15.8117

>  <SCORE.INTER>
-15.8117

>  <SCORE.INTER.CONST>
1

>  <SCORE.INTER.POLAR>
0

>  <SCORE.INTER.ROT>
0

>  <SCORE.INTER.SOLV>
9.37438

>  <SCORE.INTER.VDW>
-17.266

>  <SCORE.INTER.norm>
-1.43743

>  <SCORE.INTRA>
0

>  <SCORE.INTRA.DIHEDRAL>
0

>  <SCORE.INTRA.DIHEDRAL.0>
0

>  <SCORE.INTRA.POLAR>
0

>  <SCORE.INTRA.POLAR.0>
0

>  <SCORE.INTRA.REPUL>
0

>  <SCORE.INTRA.REPUL.0>
0

>  <SCORE.INTRA.SOLV>
0

>  <SCORE.INTRA.SOLV.lig_0>
-28.6198

>  <SCORE.INTRA.VDW>
0

>  <SCORE.INTRA.VDW.0>
0

>  <SCORE.INTRA.norm>
0

>  <SCORE.RESTR>
0

>  <SCORE.RESTR.CAVITY>
0

>  <SCORE.RESTR.norm>
0

>  <SCORE.SYSTEM>
0

>  <SCORE.SYSTEM.CONST>
0

>  <SCORE.SYSTEM.DIHEDRAL>
0

>  <SCORE.SYSTEM.SOLV>
0

>  <SCORE.SYSTEM.norm>
0

>  <SCORE.heavy>
11

>  <SCORE.norm>
-1.43743

>  <RMSD>
2.894

$$$$
ligand
 OpenBabel11021811483D
libRbt.so/2013.1/901 2013/11/27
 11 12  0  0  0  0  0  0  0  0999 V2000
   36.6198   -8.6147  -37.8400 N   0  0  0  0  0  0  0  0  0  0  0  0
   35.4925   -9.2149  -38.2503 C   0  0  0  0  0  0  0  0  0  0  0  0
   34.5802   -8.4904  -39.0768 N   0  0  0  0  0  0  0  0  0  0  0  0
   35.2077  -10.4740  -37.9016 N   0  0  0  0  0  0  0  0  0  0  0  0
   36.0759  -11.1918  -37.1023 C   0  0  0  0  0  0  0  0  0  0  0  0
   37.2312  -10.5929  -36.6725 C   0  0  0  0  0  0  0  0  0  0  0  0
   37.5204   -9.2431  -37.0576 C   0  0  0  0  0  0  0  0  0  0  0  0
   39.0033   -8.4311  -36.5338 S   0  0  0  0  0  0  0  0  0  0  0  0
   37.9091  -11.5039  -35.9034 N   0  0  0  0  0  0  0  0  0  0  0  0
   37.1799  -12.6493  -35.8592 C   0  0  0  0  0  0  0  0  0  0  0  0
   36.0444  -12.4779  -36.5932 N   0  0  0  0  0  0  0  0  0  0  0  0
  1  2  2  0  0  0  0
  1  7  1  0  0  0  0
  2  3  1  0  0  0  0
  2  4  1  0  0  0  0
  4  5  2  0  0  0  0
  5  6  1  0  0  0  0
  5 11  1  0  0  0  0
  6  7  2  0  0  0  0
  6  9  1  0  0  0  0
  7  8  1  0  0  0  0
  9 10  1  0  0  0  0
 10 11  2  0  0  0  0
M  END
>  <CHROM.1>
36.89736394,-10.02891845,-37.09997840,1.48134204,-0.49330472,-0.38944717

>  <Name>
ligand

>  <RI>
0

>  <Rbt.Current_Directory>
/home/itssahil/PROJECTS/Mol_Feturizer/New_Systems/rnas/3RKF

>  <Rbt.Executable>
rbdock ($Id: //depot/dev/client3/rdock/2013.1/src/exe/rbdock.cxx#4 $)

>  <Rbt.Library>
libRbt.so (2013.1, Build901 2013/11/27)

>  <Rbt.Parameter_File>
/export/apps/rDock/src/rDock_2013.1_src/data/scripts/dock_solv.prm

>  <Rbt.Receptor>
prm/pocket_docking_6.prm

>  <SCORE>
-15.7962

>  <SCORE.INTER>
-15.7962

>  <SCORE.INTER.CONST>
1

>  <SCORE.INTER.POLAR>
0

>  <SCORE.INTER.ROT>
0

>  <SCORE.INTER.SOLV>
9.48947

>  <SCORE.INTER.VDW>
-17.294

>  <SCORE.INTER.norm>
-1.43602

>  <SCORE.INTRA>
0

>  <SCORE.INTRA.DIHEDRAL>
0

>  <SCORE.INTRA.DIHEDRAL.0>
0

>  <SCORE.INTRA.POLAR>
0

>  <SCORE.INTRA.POLAR.0>
0

>  <SCORE.INTRA.REPUL>
0

>  <SCORE.INTRA.REPUL.0>
0

>  <SCORE.INTRA.SOLV>
0

>  <SCORE.INTRA.SOLV.lig_0>
-28.6198

>  <SCORE.INTRA.VDW>
0

>  <SCORE.INTRA.VDW.0>
0

>  <SCORE.INTRA.norm>
0

>  <SCORE.RESTR>
0

>  <SCORE.RESTR.CAVITY>
0

>  <SCORE.RESTR.norm>
0

>  <SCORE.SYSTEM>
0

>  <SCORE.SYSTEM.CONST>
0

>  <SCORE.SYSTEM.DIHEDRAL>
0

>  <SCORE.SYSTEM.SOLV>
0

>  <SCORE.SYSTEM.norm>
0

>  <SCORE.heavy>
11

>  <SCORE.norm>
-1.43602

>  <RMSD>
2.894

$$$$
ligand
 OpenBabel11021811483D
libRbt.so/2013.1/901 2013/11/27
 11 12  0  0  0  0  0  0  0  0999 V2000
   36.6222   -8.6123  -37.8324 N   0  0  0  0  0  0  0  0  0  0  0  0
   35.4971   -9.2138  -38.2465 C   0  0  0  0  0  0  0  0  0  0  0  0
   34.5837   -8.4884  -39.0710 N   0  0  0  0  0  0  0  0  0  0  0  0
   35.2154  -10.4752  -37.9036 N   0  0  0  0  0  0  0  0  0  0  0  0
   36.0847  -11.1940  -37.1063 C   0  0  0  0  0  0  0  0  0  0  0  0
   37.2379  -10.5937  -36.6727 C   0  0  0  0  0  0  0  0  0  0  0  0
   37.5237   -9.2415  -37.0517 C   0  0  0  0  0  0  0  0  0  0  0  0
   39.0037   -8.4276  -36.5227 S   0  0  0  0  0  0  0  0  0  0  0  0
   37.9174  -11.5061  -35.9067 N   0  0  0  0  0  0  0  0  0  0  0  0
   37.1913  -12.6537  -35.8683 C   0  0  0  0  0  0  0  0  0  0  0  0
   36.0562  -12.4823  -36.6028 N   0  0  0  0  0  0  0  0  0  0  0  0
  1  2  2  0  0  0  0
  1  7  1  0  0  0  0
  2  3  1  0  0  0  0
  2  4  1  0  0  0  0
  4  5  2  0  0  0  0
  5  6  1  0  0  0  0
  5 11  1  0  0  0  0
  6  7  2  0  0  0  0
  6  9  1  0  0  0  0
  7  8  1  0  0  0  0
  9 10  1  0  0  0  0
 10 11  2  0  0  0  0
M  END
>  <CHROM.1>
36.90288710,-10.02884593,-37.09812724,1.48379828,-0.49541049,-0.38400465

>  <Name>
ligand

>  <RI>
0

>  <Rbt.Current_Directory>
/home/itssahil/PROJECTS/Mol_Feturizer/New_Systems/rnas/3RKF

>  <Rbt.Executable>
rbdock ($Id: //depot/dev/client3/rdock/2013.1/src/exe/rbdock.cxx#4 $)

>  <Rbt.Library>
libRbt.so (2013.1, Build901 2013/11/27)

>  <Rbt.Parameter_File>
/export/apps/rDock/src/rDock_2013.1_src/data/scripts/dock_solv.prm

>  <Rbt.Receptor>
prm/pocket_docking_6.prm

>  <SCORE>
-15.7831

>  <SCORE.INTER>
-15.7831

>  <SCORE.INTER.CONST>
1

>  <SCORE.INTER.POLAR>
0

>  <SCORE.INTER.ROT>
0

>  <SCORE.INTER.SOLV>
9.47245

>  <SCORE.INTER.VDW>
-17.2796

>  <SCORE.INTER.norm>
-1.43483

>  <SCORE.INTRA>
0

>  <SCORE.INTRA.DIHEDRAL>
0

>  <SCORE.INTRA.DIHEDRAL.0>
0

>  <SCORE.INTRA.POLAR>
0

>  <SCORE.INTRA.POLAR.0>
0

>  <SCORE.INTRA.REPUL>
0

>  <SCORE.INTRA.REPUL.0>
0

>  <SCORE.INTRA.SOLV>
0

>  <SCORE.INTRA.SOLV.lig_0>
-28.6198

>  <SCORE.INTRA.VDW>
0

>  <SCORE.INTRA.VDW.0>
0

>  <SCORE.INTRA.norm>
0

>  <SCORE.RESTR>
0

>  <SCORE.RESTR.CAVITY>
0

>  <SCORE.RESTR.norm>
0

>  <SCORE.SYSTEM>
0

>  <SCORE.SYSTEM.CONST>
0

>  <SCORE.SYSTEM.DIHEDRAL>
0

>  <SCORE.SYSTEM.SOLV>
0

>  <SCORE.SYSTEM.norm>
0

>  <SCORE.heavy>
11

>  <SCORE.norm>
-1.43483

>  <RMSD>
2.894

$$$$
ligand
 OpenBabel11021811483D
libRbt.so/2013.1/901 2013/11/27
 11 12  0  0  0  0  0  0  0  0999 V2000
   36.5975   -8.5832  -37.8471 N   0  0  0  0  0  0  0  0  0  0  0  0
   35.4800   -9.1996  -38.2598 C   0  0  0  0  0  0  0  0  0  0  0  0
   34.5641   -8.4918  -39.0968 N   0  0  0  0  0  0  0  0  0  0  0  0
   35.2081  -10.4596  -37.9040 N   0  0  0  0  0  0  0  0  0  0  0  0
   36.0799  -11.1615  -37.0946 C   0  0  0  0  0  0  0  0  0  0  0  0
   37.2254  -10.5458  -36.6622 C   0  0  0  0  0  0  0  0  0  0  0  0
   37.5008   -9.1954  -37.0550 C   0  0  0  0  0  0  0  0  0  0  0  0
   38.9708   -8.3621  -36.5281 S   0  0  0  0  0  0  0  0  0  0  0  0
   37.9095  -11.4433  -35.8827 N   0  0  0  0  0  0  0  0  0  0  0  0
   37.1936  -12.5970  -35.8349 C   0  0  0  0  0  0  0  0  0  0  0  0
   36.0606  -12.4442  -36.5767 N   0  0  0  0  0  0  0  0  0  0  0  0
  1  2  2  0  0  0  0
  1  7  1  0  0  0  0
  2  3  1  0  0  0  0
  2  4  1  0  0  0  0
  4  5  2  0  0  0  0
  5  6  1  0  0  0  0
  5 11  1  0  0  0  0
  6  7  2  0  0  0  0
  6  9  1  0  0  0  0
  7  8  1  0  0  0  0
  9 10  1  0  0  0  0
 10 11  2  0  0  0  0
M  END
>  <CHROM.1>
36.88744425,-9.98882400,-37.09555360,1.49130876,-0.50335976,-0.39164038

>  <Name>
ligand

>  <RI>
0

>  <Rbt.Current_Directory>
/home/itssahil/PROJECTS/Mol_Feturizer/New_Systems/rnas/3RKF

>  <Rbt.Executable>
rbdock ($Id: //depot/dev/client3/rdock/2013.1/src/exe/rbdock.cxx#4 $)

>  <Rbt.Library>
libRbt.so (2013.1, Build901 2013/11/27)

>  <Rbt.Parameter_File>
/export/apps/rDock/src/rDock_2013.1_src/data/scripts/dock_solv.prm

>  <Rbt.Receptor>
prm/pocket_docking_6.prm

>  <SCORE>
-15.7823

>  <SCORE.INTER>
-15.7823

>  <SCORE.INTER.CONST>
1

>  <SCORE.INTER.POLAR>
0

>  <SCORE.INTER.ROT>
0

>  <SCORE.INTER.SOLV>
9.49976

>  <SCORE.INTER.VDW>
-17.2881

>  <SCORE.INTER.norm>
-1.43476

>  <SCORE.INTRA>
0

>  <SCORE.INTRA.DIHEDRAL>
0

>  <SCORE.INTRA.DIHEDRAL.0>
0

>  <SCORE.INTRA.POLAR>
0

>  <SCORE.INTRA.POLAR.0>
0

>  <SCORE.INTRA.REPUL>
0

>  <SCORE.INTRA.REPUL.0>
0

>  <SCORE.INTRA.SOLV>
0

>  <SCORE.INTRA.SOLV.lig_0>
-28.6198

>  <SCORE.INTRA.VDW>
0

>  <SCORE.INTRA.VDW.0>
0

>  <SCORE.INTRA.norm>
0

>  <SCORE.RESTR>
0

>  <SCORE.RESTR.CAVITY>
0

>  <SCORE.RESTR.norm>
0

>  <SCORE.SYSTEM>
0

>  <SCORE.SYSTEM.CONST>
0

>  <SCORE.SYSTEM.DIHEDRAL>
0

>  <SCORE.SYSTEM.SOLV>
0

>  <SCORE.SYSTEM.norm>
0

>  <SCORE.heavy>
11

>  <SCORE.norm>
-1.43476

>  <RMSD>
2.894

$$$$
ligand
 OpenBabel11021811483D
libRbt.so/2013.1/901 2013/11/27
 11 12  0  0  0  0  0  0  0  0999 V2000
   36.6323   -8.6357  -37.8777 N   0  0  0  0  0  0  0  0  0  0  0  0
   35.5084   -9.2373  -38.2953 C   0  0  0  0  0  0  0  0  0  0  0  0
   34.6148   -8.5241  -39.1514 N   0  0  0  0  0  0  0  0  0  0  0  0
   35.2099  -10.4876  -37.9267 N   0  0  0  0  0  0  0  0  0  0  0  0
   36.0600  -11.1945  -37.0986 C   0  0  0  0  0  0  0  0  0  0  0  0
   37.2116  -10.5939  -36.6612 C   0  0  0  0  0  0  0  0  0  0  0  0
   37.5156   -9.2538  -37.0679 C   0  0  0  0  0  0  0  0  0  0  0  0
   38.9944   -8.4402  -36.5350 S   0  0  0  0  0  0  0  0  0  0  0  0
   37.8707  -11.4934  -35.8628 N   0  0  0  0  0  0  0  0  0  0  0  0
   37.1337  -12.6335  -35.8084 C   0  0  0  0  0  0  0  0  0  0  0  0
   36.0119  -12.4699  -36.5648 N   0  0  0  0  0  0  0  0  0  0  0  0
  1  2  2  0  0  0  0
  1  7  1  0  0  0  0
  2  3  1  0  0  0  0
  2  4  1  0  0  0  0
  4  5  2  0  0  0  0
  5  6  1  0  0  0  0
  5 11  1  0  0  0  0
  6  7  2  0  0  0  0
  6  9  1  0  0  0  0
  7  8  1  0  0  0  0
  9 10  1  0  0  0  0
 10 11  2  0  0  0  0
M  END
>  <CHROM.1>
36.88848913,-10.03658578,-37.10530360,1.46743361,-0.50658402,-0.41592263

>  <Name>
ligand

>  <RI>
0

>  <Rbt.Current_Directory>
/home/itssahil/PROJECTS/Mol_Feturizer/New_Systems/rnas/3RKF

>  <Rbt.Executable>
rbdock ($Id: //depot/dev/client3/rdock/2013.1/src/exe/rbdock.cxx#4 $)

>  <Rbt.Library>
libRbt.so (2013.1, Build901 2013/11/27)

>  <Rbt.Parameter_File>
/export/apps/rDock/src/rDock_2013.1_src/data/scripts/dock_solv.prm

>  <Rbt.Receptor>
prm/pocket_docking_7.prm

>  <SCORE>
-15.7526

>  <SCORE.INTER>
-15.7526

>  <SCORE.INTER.CONST>
1

>  <SCORE.INTER.POLAR>
0

>  <SCORE.INTER.ROT>
0

>  <SCORE.INTER.SOLV>
9.86778

>  <SCORE.INTER.VDW>
-17.391

>  <SCORE.INTER.norm>
-1.43206

>  <SCORE.INTRA>
0

>  <SCORE.INTRA.DIHEDRAL>
0

>  <SCORE.INTRA.DIHEDRAL.0>
0

>  <SCORE.INTRA.POLAR>
0

>  <SCORE.INTRA.POLAR.0>
0

>  <SCORE.INTRA.REPUL>
0

>  <SCORE.INTRA.REPUL.0>
0

>  <SCORE.INTRA.SOLV>
0

>  <SCORE.INTRA.SOLV.lig_0>
-28.6198

>  <SCORE.INTRA.VDW>
0

>  <SCORE.INTRA.VDW.0>
0

>  <SCORE.INTRA.norm>
0

>  <SCORE.RESTR>
0

>  <SCORE.RESTR.CAVITY>
0

>  <SCORE.RESTR.norm>
0

>  <SCORE.SYSTEM>
0

>  <SCORE.SYSTEM.CONST>
0

>  <SCORE.SYSTEM.DIHEDRAL>
0

>  <SCORE.SYSTEM.SOLV>
0

>  <SCORE.SYSTEM.norm>
0

>  <SCORE.heavy>
11

>  <SCORE.norm>
-1.43206

>  <RMSD>
2.894

$$$$
ligand
 OpenBabel11021811483D
libRbt.so/2013.1/901 2013/11/27
 11 12  0  0  0  0  0  0  0  0999 V2000
   36.6059   -8.6177  -37.8402 N   0  0  0  0  0  0  0  0  0  0  0  0
   35.4766   -9.2150  -38.2494 C   0  0  0  0  0  0  0  0  0  0  0  0
   34.5697   -8.4912  -39.0824 N   0  0  0  0  0  0  0  0  0  0  0  0
   35.1850  -10.4705  -37.8936 N   0  0  0  0  0  0  0  0  0  0  0  0
   36.0479  -11.1876  -37.0879 C   0  0  0  0  0  0  0  0  0  0  0  0
   37.2052  -10.5916  -36.6593 C   0  0  0  0  0  0  0  0  0  0  0  0
   37.5017   -9.2456  -37.0520 C   0  0  0  0  0  0  0  0  0  0  0  0
   38.9873   -8.4375  -36.5298 S   0  0  0  0  0  0  0  0  0  0  0  0
   37.8770  -11.5010  -35.8830 N   0  0  0  0  0  0  0  0  0  0  0  0
   37.1421  -12.6427  -35.8335 C   0  0  0  0  0  0  0  0  0  0  0  0
   36.0091  -12.4703  -36.5710 N   0  0  0  0  0  0  0  0  0  0  0  0
  1  2  2  0  0  0  0
  1  7  1  0  0  0  0
  2  3  1  0  0  0  0
  2  4  1  0  0  0  0
  4  5  2  0  0  0  0
  5  6  1  0  0  0  0
  5 11  1  0  0  0  0
  6  7  2  0  0  0  0
  6  9  1  0  0  0  0
  7  8  1  0  0  0  0
  9 10  1  0  0  0  0
 10 11  2  0  0  0  0
M  END
>  <CHROM.1>
36.87495625,-10.02863797,-37.09090662,1.47533110,-0.49353726,-0.39844377

>  <Name>
ligand

>  <RI>
0

>  <Rbt.Current_Directory>
/home/itssahil/PROJECTS/Mol_Feturizer/New_Systems/rnas/3RKF

>  <Rbt.Executable>
rbdock ($Id: //depot/dev/client3/rdock/2013.1/src/exe/rbdock.cxx#4 $)

>  <Rbt.Library>
libRbt.so (2013.1, Build901 2013/11/27)

>  <Rbt.Parameter_File>
/export/apps/rDock/src/rDock_2013.1_src/data/scripts/dock_solv.prm

>  <Rbt.Receptor>
prm/pocket_docking_8.prm

>  <SCORE>
-15.7995

>  <SCORE.INTER>
-15.7995

>  <SCORE.INTER.CONST>
1

>  <SCORE.INTER.POLAR>
0

>  <SCORE.INTER.ROT>
0

>  <SCORE.INTER.SOLV>
9.4799

>  <SCORE.INTER.VDW>
-17.293

>  <SCORE.INTER.norm>
-1.43632

>  <SCORE.INTRA>
0

>  <SCORE.INTRA.DIHEDRAL>
0

>  <SCORE.INTRA.DIHEDRAL.0>
0

>  <SCORE.INTRA.POLAR>
0

>  <SCORE.INTRA.POLAR.0>
0

>  <SCORE.INTRA.REPUL>
0

>  <SCORE.INTRA.REPUL.0>
0

>  <SCORE.INTRA.SOLV>
0

>  <SCORE.INTRA.SOLV.lig_0>
-28.6198

>  <SCORE.INTRA.VDW>
0

>  <SCORE.INTRA.VDW.0>
0

>  <SCORE.INTRA.norm>
0

>  <SCORE.RESTR>
0

>  <SCORE.RESTR.CAVITY>
0

>  <SCORE.RESTR.norm>
0

>  <SCORE.SYSTEM>
0

>  <SCORE.SYSTEM.CONST>
0

>  <SCORE.SYSTEM.DIHEDRAL>
0

>  <SCORE.SYSTEM.SOLV>
0

>  <SCORE.SYSTEM.norm>
0

>  <SCORE.heavy>
11

>  <SCORE.norm>
-1.43632

>  <RMSD>
2.894

$$$$
ligand
 OpenBabel11021811483D
libRbt.so/2013.1/901 2013/11/27
 11 12  0  0  0  0  0  0  0  0999 V2000
   36.6141   -8.6131  -37.8356 N   0  0  0  0  0  0  0  0  0  0  0  0
   35.4901   -9.2159  -38.2512 C   0  0  0  0  0  0  0  0  0  0  0  0
   34.5786   -8.4924  -39.0796 N   0  0  0  0  0  0  0  0  0  0  0  0
   35.2079  -10.4765  -37.9062 N   0  0  0  0  0  0  0  0  0  0  0  0
   36.0753  -11.1934  -37.1051 C   0  0  0  0  0  0  0  0  0  0  0  0
   37.2273  -10.5918  -36.6700 C   0  0  0  0  0  0  0  0  0  0  0  0
   37.5137   -9.2404  -37.0512 C   0  0  0  0  0  0  0  0  0  0  0  0
   38.9922   -8.4249  -36.5203 S   0  0  0  0  0  0  0  0  0  0  0  0
   37.9052  -11.5023  -35.9002 N   0  0  0  0  0  0  0  0  0  0  0  0
   37.1792  -12.6501  -35.8611 C   0  0  0  0  0  0  0  0  0  0  0  0
   36.0459  -12.4805  -36.5988 N   0  0  0  0  0  0  0  0  0  0  0  0
  1  2  2  0  0  0  0
  1  7  1  0  0  0  0
  2  3  1  0  0  0  0
  2  4  1  0  0  0  0
  4  5  2  0  0  0  0
  5  6  1  0  0  0  0
  5 11  1  0  0  0  0
  6  7  2  0  0  0  0
  6  9  1  0  0  0  0
  7  8  1  0  0  0  0
  9 10  1  0  0  0  0
 10 11  2  0  0  0  0
M  END
>  <CHROM.1>
36.89323995,-10.02796558,-37.09744741,1.48299198,-0.49784425,-0.38659223

>  <Name>
ligand

>  <RI>
0

>  <Rbt.Current_Directory>
/home/itssahil/PROJECTS/Mol_Feturizer/New_Systems/rnas/3RKF

>  <Rbt.Executable>
rbdock ($Id: //depot/dev/client3/rdock/2013.1/src/exe/rbdock.cxx#4 $)

>  <Rbt.Library>
libRbt.so (2013.1, Build901 2013/11/27)

>  <Rbt.Parameter_File>
/export/apps/rDock/src/rDock_2013.1_src/data/scripts/dock_solv.prm

>  <Rbt.Receptor>
prm/pocket_docking_8.prm

>  <SCORE>
-15.8011

>  <SCORE.INTER>
-15.8011

>  <SCORE.INTER.CONST>
1

>  <SCORE.INTER.POLAR>
0

>  <SCORE.INTER.ROT>
0

>  <SCORE.INTER.SOLV>
9.48721

>  <SCORE.INTER.VDW>
-17.2965

>  <SCORE.INTER.norm>
-1.43647

>  <SCORE.INTRA>
0

>  <SCORE.INTRA.DIHEDRAL>
0

>  <SCORE.INTRA.DIHEDRAL.0>
0

>  <SCORE.INTRA.POLAR>
0

>  <SCORE.INTRA.POLAR.0>
0

>  <SCORE.INTRA.REPUL>
0

>  <SCORE.INTRA.REPUL.0>
0

>  <SCORE.INTRA.SOLV>
0

>  <SCORE.INTRA.SOLV.lig_0>
-28.6198

>  <SCORE.INTRA.VDW>
0

>  <SCORE.INTRA.VDW.0>
0

>  <SCORE.INTRA.norm>
0

>  <SCORE.RESTR>
0

>  <SCORE.RESTR.CAVITY>
0

>  <SCORE.RESTR.norm>
0

>  <SCORE.SYSTEM>
0

>  <SCORE.SYSTEM.CONST>
0

>  <SCORE.SYSTEM.DIHEDRAL>
0

>  <SCORE.SYSTEM.SOLV>
0

>  <SCORE.SYSTEM.norm>
0

>  <SCORE.heavy>
11

>  <SCORE.norm>
-1.43647

>  <RMSD>
2.894

$$$$
ligand
 OpenBabel11021811483D
libRbt.so/2013.1/901 2013/11/27
 11 12  0  0  0  0  0  0  0  0999 V2000
   36.6115   -8.6130  -37.8384 N   0  0  0  0  0  0  0  0  0  0  0  0
   35.4841   -9.2141  -38.2472 C   0  0  0  0  0  0  0  0  0  0  0  0
   34.5696   -8.4899  -39.0716 N   0  0  0  0  0  0  0  0  0  0  0  0
   35.2012  -10.4737  -37.8990 N   0  0  0  0  0  0  0  0  0  0  0  0
   36.0715  -11.1913  -37.1018 C   0  0  0  0  0  0  0  0  0  0  0  0
   37.2270  -10.5915  -36.6736 C   0  0  0  0  0  0  0  0  0  0  0  0
   37.5141   -9.2412  -37.0582 C   0  0  0  0  0  0  0  0  0  0  0  0
   38.9971   -8.4280  -36.5363 S   0  0  0  0  0  0  0  0  0  0  0  0
   37.9072  -11.5024  -35.9064 N   0  0  0  0  0  0  0  0  0  0  0  0
   37.1792  -12.6487  -35.8619 C   0  0  0  0  0  0  0  0  0  0  0  0
   36.0423  -12.4778  -36.5936 N   0  0  0  0  0  0  0  0  0  0  0  0
  1  2  2  0  0  0  0
  1  7  1  0  0  0  0
  2  3  1  0  0  0  0
  2  4  1  0  0  0  0
  4  5  2  0  0  0  0
  5  6  1  0  0  0  0
  5 11  1  0  0  0  0
  6  7  2  0  0  0  0
  6  9  1  0  0  0  0
  7  8  1  0  0  0  0
  9 10  1  0  0  0  0
 10 11  2  0  0  0  0
M  END
>  <CHROM.1>
36.89183202,-10.02755848,-37.10003285,1.48318547,-0.49205906,-0.38779057

>  <Name>
ligand

>  <RI>
0

>  <Rbt.Current_Directory>
/home/itssahil/PROJECTS/Mol_Feturizer/New_Systems/rnas/3RKF

>  <Rbt.Executable>
rbdock ($Id: //depot/dev/client3/rdock/2013.1/src/exe/rbdock.cxx#4 $)

>  <Rbt.Library>
libRbt.so (2013.1, Build901 2013/11/27)

>  <Rbt.Parameter_File>
/export/apps/rDock/src/rDock_2013.1_src/data/scripts/dock_solv.prm

>  <Rbt.Receptor>
prm/pocket_docking_8.prm

>  <SCORE>
-15.7937

>  <SCORE.INTER>
-15.7937

>  <SCORE.INTER.CONST>
1

>  <SCORE.INTER.POLAR>
0

>  <SCORE.INTER.ROT>
0

>  <SCORE.INTER.SOLV>
9.45055

>  <SCORE.INTER.VDW>
-17.2793

>  <SCORE.INTER.norm>
-1.43579

>  <SCORE.INTRA>
0

>  <SCORE.INTRA.DIHEDRAL>
0

>  <SCORE.INTRA.DIHEDRAL.0>
0

>  <SCORE.INTRA.POLAR>
0

>  <SCORE.INTRA.POLAR.0>
0

>  <SCORE.INTRA.REPUL>
0

>  <SCORE.INTRA.REPUL.0>
0

>  <SCORE.INTRA.SOLV>
0

>  <SCORE.INTRA.SOLV.lig_0>
-28.6198

>  <SCORE.INTRA.VDW>
0

>  <SCORE.INTRA.VDW.0>
0

>  <SCORE.INTRA.norm>
0

>  <SCORE.RESTR>
0

>  <SCORE.RESTR.CAVITY>
0

>  <SCORE.RESTR.norm>
0

>  <SCORE.SYSTEM>
0

>  <SCORE.SYSTEM.CONST>
0

>  <SCORE.SYSTEM.DIHEDRAL>
0

>  <SCORE.SYSTEM.SOLV>
0

>  <SCORE.SYSTEM.norm>
0

>  <SCORE.heavy>
11

>  <SCORE.norm>
-1.43579

>  <RMSD>
2.894

$$$$
ligand
 OpenBabel11021811483D
libRbt.so/2013.1/901 2013/11/27
 11 12  0  0  0  0  0  0  0  0999 V2000
   36.6177   -8.6134  -37.8357 N   0  0  0  0  0  0  0  0  0  0  0  0
   35.4936   -9.2158  -38.2515 C   0  0  0  0  0  0  0  0  0  0  0  0
   34.5828   -8.4923  -39.0804 N   0  0  0  0  0  0  0  0  0  0  0  0
   35.2107  -10.4762  -37.9061 N   0  0  0  0  0  0  0  0  0  0  0  0
   36.0776  -11.1932  -37.1045 C   0  0  0  0  0  0  0  0  0  0  0  0
   37.2297  -10.5920  -36.6692 C   0  0  0  0  0  0  0  0  0  0  0  0
   37.5168   -9.2408  -37.0509 C   0  0  0  0  0  0  0  0  0  0  0  0
   38.9956   -8.4259  -36.5198 S   0  0  0  0  0  0  0  0  0  0  0  0
   37.9069  -11.5025  -35.8989 N   0  0  0  0  0  0  0  0  0  0  0  0
   37.1804  -12.6499  -35.8596 C   0  0  0  0  0  0  0  0  0  0  0  0
   36.0474  -12.4801  -36.5977 N   0  0  0  0  0  0  0  0  0  0  0  0
  1  2  2  0  0  0  0
  1  7  1  0  0  0  0
  2  3  1  0  0  0  0
  2  4  1  0  0  0  0
  4  5  2  0  0  0  0
  5  6  1  0  0  0  0
  5 11  1  0  0  0  0
  6  7  2  0  0  0  0
  6  9  1  0  0  0  0
  7  8  1  0  0  0  0
  9 10  1  0  0  0  0
 10 11  2  0  0  0  0
M  END
>  <CHROM.1>
36.89601658,-10.02815305,-37.09699768,1.48236173,-0.49795110,-0.38726165

>  <Name>
ligand

>  <RI>
0

>  <Rbt.Current_Directory>
/home/itssahil/PROJECTS/Mol_Feturizer/New_Systems/rnas/3RKF

>  <Rbt.Executable>
rbdock ($Id: //depot/dev/client3/rdock/2013.1/src/exe/rbdock.cxx#4 $)

>  <Rbt.Library>
libRbt.so (2013.1, Build901 2013/11/27)

>  <Rbt.Parameter_File>
/export/apps/rDock/src/rDock_2013.1_src/data/scripts/dock_solv.prm

>  <Rbt.Receptor>
prm/pocket_docking_8.prm

>  <SCORE>
-15.8011

>  <SCORE.INTER>
-15.8011

>  <SCORE.INTER.CONST>
1

>  <SCORE.INTER.POLAR>
0

>  <SCORE.INTER.ROT>
0

>  <SCORE.INTER.SOLV>
9.50037

>  <SCORE.INTER.VDW>
-17.3009

>  <SCORE.INTER.norm>
-1.43647

>  <SCORE.INTRA>
0

>  <SCORE.INTRA.DIHEDRAL>
0

>  <SCORE.INTRA.DIHEDRAL.0>
0

>  <SCORE.INTRA.POLAR>
0

>  <SCORE.INTRA.POLAR.0>
0

>  <SCORE.INTRA.REPUL>
0

>  <SCORE.INTRA.REPUL.0>
0

>  <SCORE.INTRA.SOLV>
0

>  <SCORE.INTRA.SOLV.lig_0>
-28.6198

>  <SCORE.INTRA.VDW>
0

>  <SCORE.INTRA.VDW.0>
0

>  <SCORE.INTRA.norm>
0

>  <SCORE.RESTR>
0

>  <SCORE.RESTR.CAVITY>
0

>  <SCORE.RESTR.norm>
0

>  <SCORE.SYSTEM>
0

>  <SCORE.SYSTEM.CONST>
0

>  <SCORE.SYSTEM.DIHEDRAL>
0

>  <SCORE.SYSTEM.SOLV>
0

>  <SCORE.SYSTEM.norm>
0

>  <SCORE.heavy>
11

>  <SCORE.norm>
-1.43647

>  <RMSD>
2.894

$$$$
ligand
 OpenBabel11021811483D
libRbt.so/2013.1/901 2013/11/27
 11 12  0  0  0  0  0  0  0  0999 V2000
   36.5924   -8.5932  -37.8390 N   0  0  0  0  0  0  0  0  0  0  0  0
   35.4765   -9.2067  -38.2606 C   0  0  0  0  0  0  0  0  0  0  0  0
   34.5631   -8.4925  -39.0947 N   0  0  0  0  0  0  0  0  0  0  0  0
   35.2041  -10.4697  -37.9161 N   0  0  0  0  0  0  0  0  0  0  0  0
   36.0736  -11.1779  -37.1096 C   0  0  0  0  0  0  0  0  0  0  0  0
   37.2174  -10.5652  -36.6683 C   0  0  0  0  0  0  0  0  0  0  0  0
   37.4933   -9.2115  -37.0490 C   0  0  0  0  0  0  0  0  0  0  0  0
   38.9611   -8.3818  -36.5102 S   0  0  0  0  0  0  0  0  0  0  0  0
   37.8993  -11.4688  -35.8940 N   0  0  0  0  0  0  0  0  0  0  0  0
   37.1839  -12.6233  -35.8581 C   0  0  0  0  0  0  0  0  0  0  0  0
   36.0533  -12.4649  -36.6024 N   0  0  0  0  0  0  0  0  0  0  0  0
  1  2  2  0  0  0  0
  1  7  1  0  0  0  0
  2  3  1  0  0  0  0
  2  4  1  0  0  0  0
  4  5  2  0  0  0  0
  5  6  1  0  0  0  0
  5 11  1  0  0  0  0
  6  7  2  0  0  0  0
  6  9  1  0  0  0  0
  7  8  1  0  0  0  0
  9 10  1  0  0  0  0
 10 11  2  0  0  0  0
M  END
>  <CHROM.1>
36.88052568,-10.00485422,-37.09813553,1.49040341,-0.50666236,-0.38379274

>  <Name>
ligand

>  <RI>
0

>  <Rbt.Current_Directory>
/home/itssahil/PROJECTS/Mol_Feturizer/New_Systems/rnas/3RKF

>  <Rbt.Executable>
rbdock ($Id: //depot/dev/client3/rdock/2013.1/src/exe/rbdock.cxx#4 $)

>  <Rbt.Library>
libRbt.so (2013.1, Build901 2013/11/27)

>  <Rbt.Parameter_File>
/export/apps/rDock/src/rDock_2013.1_src/data/scripts/dock_solv.prm

>  <Rbt.Receptor>
prm/pocket_docking_8.prm

>  <SCORE>
-15.8065

>  <SCORE.INTER>
-15.8065

>  <SCORE.INTER.CONST>
1

>  <SCORE.INTER.POLAR>
0

>  <SCORE.INTER.ROT>
0

>  <SCORE.INTER.SOLV>
9.47741

>  <SCORE.INTER.VDW>
-17.2968

>  <SCORE.INTER.norm>
-1.43696

>  <SCORE.INTRA>
0

>  <SCORE.INTRA.DIHEDRAL>
0

>  <SCORE.INTRA.DIHEDRAL.0>
0

>  <SCORE.INTRA.POLAR>
0

>  <SCORE.INTRA.POLAR.0>
0

>  <SCORE.INTRA.REPUL>
0

>  <SCORE.INTRA.REPUL.0>
0

>  <SCORE.INTRA.SOLV>
0

>  <SCORE.INTRA.SOLV.lig_0>
-28.6198

>  <SCORE.INTRA.VDW>
0

>  <SCORE.INTRA.VDW.0>
0

>  <SCORE.INTRA.norm>
0

>  <SCORE.RESTR>
0

>  <SCORE.RESTR.CAVITY>
0

>  <SCORE.RESTR.norm>
0

>  <SCORE.SYSTEM>
0

>  <SCORE.SYSTEM.CONST>
0

>  <SCORE.SYSTEM.DIHEDRAL>
0

>  <SCORE.SYSTEM.SOLV>
0

>  <SCORE.SYSTEM.norm>
0

>  <SCORE.heavy>
11

>  <SCORE.norm>
-1.43696

>  <RMSD>
2.894

$$$$
ligand
 OpenBabel11021811483D
libRbt.so/2013.1/901 2013/11/27
 11 12  0  0  0  0  0  0  0  0999 V2000
   36.6086   -8.6132  -37.8285 N   0  0  0  0  0  0  0  0  0  0  0  0
   35.4857   -9.2176  -38.2446 C   0  0  0  0  0  0  0  0  0  0  0  0
   34.5729   -8.4951  -39.0724 N   0  0  0  0  0  0  0  0  0  0  0  0
   35.2057  -10.4791  -37.9006 N   0  0  0  0  0  0  0  0  0  0  0  0
   36.0744  -11.1950  -37.1001 C   0  0  0  0  0  0  0  0  0  0  0  0
   37.2253  -10.5917  -36.6644 C   0  0  0  0  0  0  0  0  0  0  0  0
   37.5093   -9.2395  -37.0446 C   0  0  0  0  0  0  0  0  0  0  0  0
   38.9864   -8.4218  -36.5130 S   0  0  0  0  0  0  0  0  0  0  0  0
   37.9048  -11.5016  -35.8955 N   0  0  0  0  0  0  0  0  0  0  0  0
   37.1809  -12.6507  -35.8572 C   0  0  0  0  0  0  0  0  0  0  0  0
   36.0473  -12.4826  -36.5948 N   0  0  0  0  0  0  0  0  0  0  0  0
  1  2  2  0  0  0  0
  1  7  1  0  0  0  0
  2  3  1  0  0  0  0
  2  4  1  0  0  0  0
  4  5  2  0  0  0  0
  5  6  1  0  0  0  0
  5 11  1  0  0  0  0
  6  7  2  0  0  0  0
  6  9  1  0  0  0  0
  7  8  1  0  0  0  0
  9 10  1  0  0  0  0
 10 11  2  0  0  0  0
M  END
>  <CHROM.1>
36.89024647,-10.02814081,-37.09148836,1.48486636,-0.49852206,-0.38489593

>  <Name>
ligand

>  <RI>
0

>  <Rbt.Current_Directory>
/home/itssahil/PROJECTS/Mol_Feturizer/New_Systems/rnas/3RKF

>  <Rbt.Executable>
rbdock ($Id: //depot/dev/client3/rdock/2013.1/src/exe/rbdock.cxx#4 $)

>  <Rbt.Library>
libRbt.so (2013.1, Build901 2013/11/27)

>  <Rbt.Parameter_File>
/export/apps/rDock/src/rDock_2013.1_src/data/scripts/dock_solv.prm

>  <Rbt.Receptor>
prm/blind_docking_100.prm

>  <SCORE>
-15.8041

>  <SCORE.INTER>
-15.8041

>  <SCORE.INTER.CONST>
1

>  <SCORE.INTER.POLAR>
0

>  <SCORE.INTER.ROT>
0

>  <SCORE.INTER.SOLV>
9.4554

>  <SCORE.INTER.VDW>
-17.2878

>  <SCORE.INTER.norm>
-1.43673

>  <SCORE.INTRA>
0

>  <SCORE.INTRA.DIHEDRAL>
0

>  <SCORE.INTRA.DIHEDRAL.0>
0

>  <SCORE.INTRA.POLAR>
0

>  <SCORE.INTRA.POLAR.0>
0

>  <SCORE.INTRA.REPUL>
0

>  <SCORE.INTRA.REPUL.0>
0

>  <SCORE.INTRA.SOLV>
0

>  <SCORE.INTRA.SOLV.lig_0>
-28.6198

>  <SCORE.INTRA.VDW>
0

>  <SCORE.INTRA.VDW.0>
0

>  <SCORE.INTRA.norm>
0

>  <SCORE.RESTR>
0

>  <SCORE.RESTR.CAVITY>
0

>  <SCORE.RESTR.norm>
0

>  <SCORE.SYSTEM>
0

>  <SCORE.SYSTEM.CONST>
0

>  <SCORE.SYSTEM.DIHEDRAL>
0

>  <SCORE.SYSTEM.SOLV>
0

>  <SCORE.SYSTEM.norm>
0

>  <SCORE.heavy>
11

>  <SCORE.norm>
-1.43673

>  <RMSD>
2.895

$$$$
ligand
 OpenBabel11021811483D
libRbt.so/2013.1/901 2013/11/27
 11 12  0  0  0  0  0  0  0  0999 V2000
   36.6181   -8.6094  -37.8330 N   0  0  0  0  0  0  0  0  0  0  0  0
   35.4936   -9.2153  -38.2424 C   0  0  0  0  0  0  0  0  0  0  0  0
   34.5746   -8.4939  -39.0642 N   0  0  0  0  0  0  0  0  0  0  0  0
   35.2176  -10.4773  -37.8971 N   0  0  0  0  0  0  0  0  0  0  0  0
   36.0923  -11.1923  -37.1023 C   0  0  0  0  0  0  0  0  0  0  0  0
   37.2449  -10.5875  -36.6736 C   0  0  0  0  0  0  0  0  0  0  0  0
   37.5246   -9.2346  -37.0549 C   0  0  0  0  0  0  0  0  0  0  0  0
   39.0037   -8.4150  -36.5322 S   0  0  0  0  0  0  0  0  0  0  0  0
   37.9305  -11.4967  -35.9092 N   0  0  0  0  0  0  0  0  0  0  0  0
   37.2086  -12.6469  -35.8669 C   0  0  0  0  0  0  0  0  0  0  0  0
   36.0702  -12.4801  -36.5974 N   0  0  0  0  0  0  0  0  0  0  0  0
  1  2  2  0  0  0  0
  1  7  1  0  0  0  0
  2  3  1  0  0  0  0
  2  4  1  0  0  0  0
  4  5  2  0  0  0  0
  5  6  1  0  0  0  0
  5 11  1  0  0  0  0
  6  7  2  0  0  0  0
  6  9  1  0  0  0  0
  7  8  1  0  0  0  0
  9 10  1  0  0  0  0
 10 11  2  0  0  0  0
M  END
>  <CHROM.1>
36.90641785,-10.02421981,-37.09830582,1.48905614,-0.49333056,-0.38250755

>  <Name>
ligand

>  <RI>
0

>  <Rbt.Current_Directory>
/home/itssahil/PROJECTS/Mol_Feturizer/New_Systems/rnas/3RKF

>  <Rbt.Executable>
rbdock ($Id: //depot/dev/client3/rdock/2013.1/src/exe/rbdock.cxx#4 $)

>  <Rbt.Library>
libRbt.so (2013.1, Build901 2013/11/27)

>  <Rbt.Parameter_File>
/export/apps/rDock/src/rDock_2013.1_src/data/scripts/dock_solv.prm

>  <Rbt.Receptor>
prm/blind_docking_100.prm

>  <SCORE>
-15.7362

>  <SCORE.INTER>
-15.7362

>  <SCORE.INTER.CONST>
1

>  <SCORE.INTER.POLAR>
0

>  <SCORE.INTER.ROT>
0

>  <SCORE.INTER.SOLV>
9.44472

>  <SCORE.INTER.VDW>
-17.2391

>  <SCORE.INTER.norm>
-1.43057

>  <SCORE.INTRA>
0

>  <SCORE.INTRA.DIHEDRAL>
0

>  <SCORE.INTRA.DIHEDRAL.0>
0

>  <SCORE.INTRA.POLAR>
0

>  <SCORE.INTRA.POLAR.0>
0

>  <SCORE.INTRA.REPUL>
0

>  <SCORE.INTRA.REPUL.0>
0

>  <SCORE.INTRA.SOLV>
0

>  <SCORE.INTRA.SOLV.lig_0>
-28.6198

>  <SCORE.INTRA.VDW>
0

>  <SCORE.INTRA.VDW.0>
0

>  <SCORE.INTRA.norm>
0

>  <SCORE.RESTR>
0

>  <SCORE.RESTR.CAVITY>
0

>  <SCORE.RESTR.norm>
0

>  <SCORE.SYSTEM>
0

>  <SCORE.SYSTEM.CONST>
0

>  <SCORE.SYSTEM.DIHEDRAL>
0

>  <SCORE.SYSTEM.SOLV>
0

>  <SCORE.SYSTEM.norm>
0

>  <SCORE.heavy>
11

>  <SCORE.norm>
-1.43057

>  <RMSD>
2.895

$$$$
ligand
 OpenBabel11021811483D
libRbt.so/2013.1/901 2013/11/27
 11 12  0  0  0  0  0  0  0  0999 V2000
   36.5882   -8.5821  -37.8145 N   0  0  0  0  0  0  0  0  0  0  0  0
   35.4590   -9.1879  -38.2112 C   0  0  0  0  0  0  0  0  0  0  0  0
   34.5336   -8.4682  -39.0273 N   0  0  0  0  0  0  0  0  0  0  0  0
   35.1844  -10.4482  -37.8586 N   0  0  0  0  0  0  0  0  0  0  0  0
   36.0653  -11.1614  -37.0692 C   0  0  0  0  0  0  0  0  0  0  0  0
   37.2228  -10.5567  -36.6533 C   0  0  0  0  0  0  0  0  0  0  0  0
   37.5009   -9.2058  -37.0425 C   0  0  0  0  0  0  0  0  0  0  0  0
   38.9860   -8.3863  -36.5365 S   0  0  0  0  0  0  0  0  0  0  0  0
   37.9140  -11.4640  -35.8918 N   0  0  0  0  0  0  0  0  0  0  0  0
   37.1908  -12.6129  -35.8385 C   0  0  0  0  0  0  0  0  0  0  0  0
   36.0460  -12.4473  -36.5591 N   0  0  0  0  0  0  0  0  0  0  0  0
  1  2  2  0  0  0  0
  1  7  1  0  0  0  0
  2  3  1  0  0  0  0
  2  4  1  0  0  0  0
  4  5  2  0  0  0  0
  5  6  1  0  0  0  0
  5 11  1  0  0  0  0
  6  7  2  0  0  0  0
  6  9  1  0  0  0  0
  7  8  1  0  0  0  0
  9 10  1  0  0  0  0
 10 11  2  0  0  0  0
M  END
>  <CHROM.1>
36.88119845,-9.99455399,-37.07710328,1.49140095,-0.48423099,-0.38524053

>  <Name>
ligand

>  <RI>
0

>  <Rbt.Current_Directory>
/home/itssahil/PROJECTS/Mol_Feturizer/New_Systems/rnas/3RKF

>  <Rbt.Executable>
rbdock ($Id: //depot/dev/client3/rdock/2013.1/src/exe/rbdock.cxx#4 $)

>  <Rbt.Library>
libRbt.so (2013.1, Build901 2013/11/27)

>  <Rbt.Parameter_File>
/export/apps/rDock/src/rDock_2013.1_src/data/scripts/dock_solv.prm

>  <Rbt.Receptor>
prm/pocket_docking_3.prm

>  <SCORE>
-15.7361

>  <SCORE.INTER>
-15.7361

>  <SCORE.INTER.CONST>
1

>  <SCORE.INTER.POLAR>
0

>  <SCORE.INTER.ROT>
0

>  <SCORE.INTER.SOLV>
9.26292

>  <SCORE.INTER.VDW>
-17.1784

>  <SCORE.INTER.norm>
-1.43055

>  <SCORE.INTRA>
0

>  <SCORE.INTRA.DIHEDRAL>
0

>  <SCORE.INTRA.DIHEDRAL.0>
0

>  <SCORE.INTRA.POLAR>
0

>  <SCORE.INTRA.POLAR.0>
0

>  <SCORE.INTRA.REPUL>
0

>  <SCORE.INTRA.REPUL.0>
0

>  <SCORE.INTRA.SOLV>
0

>  <SCORE.INTRA.SOLV.lig_0>
-28.6198

>  <SCORE.INTRA.VDW>
0

>  <SCORE.INTRA.VDW.0>
0

>  <SCORE.INTRA.norm>
0

>  <SCORE.RESTR>
0

>  <SCORE.RESTR.CAVITY>
0

>  <SCORE.RESTR.norm>
0

>  <SCORE.SYSTEM>
0

>  <SCORE.SYSTEM.CONST>
0

>  <SCORE.SYSTEM.DIHEDRAL>
0

>  <SCORE.SYSTEM.SOLV>
0

>  <SCORE.SYSTEM.norm>
0

>  <SCORE.heavy>
11

>  <SCORE.norm>
-1.43055

>  <RMSD>
2.895

$$$$
ligand
 OpenBabel11021811483D
libRbt.so/2013.1/901 2013/11/27
 11 12  0  0  0  0  0  0  0  0999 V2000
   36.6287   -8.5856  -37.8549 N   0  0  0  0  0  0  0  0  0  0  0  0
   35.5001   -9.1885  -38.2575 C   0  0  0  0  0  0  0  0  0  0  0  0
   34.6126   -8.4901  -39.1320 N   0  0  0  0  0  0  0  0  0  0  0  0
   35.1914  -10.4265  -37.8573 N   0  0  0  0  0  0  0  0  0  0  0  0
   36.0355  -11.1189  -37.0110 C   0  0  0  0  0  0  0  0  0  0  0  0
   37.1918  -10.5167  -36.5885 C   0  0  0  0  0  0  0  0  0  0  0  0
   37.5067   -9.1899  -37.0291 C   0  0  0  0  0  0  0  0  0  0  0  0
   38.9920   -8.3750  -36.5163 S   0  0  0  0  0  0  0  0  0  0  0  0
   37.8433  -11.4008  -35.7670 N   0  0  0  0  0  0  0  0  0  0  0  0
   37.0971  -12.5331  -35.6840 C   0  0  0  0  0  0  0  0  0  0  0  0
   35.9769  -12.3799  -36.4449 N   0  0  0  0  0  0  0  0  0  0  0  0
  1  2  2  0  0  0  0
  1  7  1  0  0  0  0
  2  3  1  0  0  0  0
  2  4  1  0  0  0  0
  4  5  2  0  0  0  0
  5  6  1  0  0  0  0
  5 11  1  0  0  0  0
  6  7  2  0  0  0  0
  6  9  1  0  0  0  0
  7  8  1  0  0  0  0
  9 10  1  0  0  0  0
 10 11  2  0  0  0  0
M  END
>  <CHROM.1>
36.87334090,-9.96827796,-37.04682619,1.45882436,-0.50356056,-0.44561347

>  <Name>
ligand

>  <RI>
0

>  <Rbt.Current_Directory>
/home/itssahil/PROJECTS/Mol_Feturizer/New_Systems/rnas/3RKF

>  <Rbt.Executable>
rbdock ($Id: //depot/dev/client3/rdock/2013.1/src/exe/rbdock.cxx#4 $)

>  <Rbt.Library>
libRbt.so (2013.1, Build901 2013/11/27)

>  <Rbt.Parameter_File>
/export/apps/rDock/src/rDock_2013.1_src/data/scripts/dock_solv.prm

>  <Rbt.Receptor>
prm/pocket_docking_4.prm

>  <SCORE>
-15.8285

>  <SCORE.INTER>
-15.8285

>  <SCORE.INTER.CONST>
1

>  <SCORE.INTER.POLAR>
0

>  <SCORE.INTER.ROT>
0

>  <SCORE.INTER.SOLV>
9.76383

>  <SCORE.INTER.VDW>
-17.4069

>  <SCORE.INTER.norm>
-1.43895

>  <SCORE.INTRA>
0

>  <SCORE.INTRA.DIHEDRAL>
0

>  <SCORE.INTRA.DIHEDRAL.0>
0

>  <SCORE.INTRA.POLAR>
0

>  <SCORE.INTRA.POLAR.0>
0

>  <SCORE.INTRA.REPUL>
0

>  <SCORE.INTRA.REPUL.0>
0

>  <SCORE.INTRA.SOLV>
0

>  <SCORE.INTRA.SOLV.lig_0>
-28.6198

>  <SCORE.INTRA.VDW>
0

>  <SCORE.INTRA.VDW.0>
0

>  <SCORE.INTRA.norm>
0

>  <SCORE.RESTR>
0

>  <SCORE.RESTR.CAVITY>
0

>  <SCORE.RESTR.norm>
0

>  <SCORE.SYSTEM>
0

>  <SCORE.SYSTEM.CONST>
0

>  <SCORE.SYSTEM.DIHEDRAL>
0

>  <SCORE.SYSTEM.SOLV>
0

>  <SCORE.SYSTEM.norm>
0

>  <SCORE.heavy>
11

>  <SCORE.norm>
-1.43895

>  <RMSD>
2.895

$$$$
ligand
 OpenBabel11021811483D
libRbt.so/2013.1/901 2013/11/27
 11 12  0  0  0  0  0  0  0  0999 V2000
   36.6349   -8.6307  -37.8618 N   0  0  0  0  0  0  0  0  0  0  0  0
   35.5163   -9.2382  -38.2849 C   0  0  0  0  0  0  0  0  0  0  0  0
   34.6131   -8.5226  -39.1291 N   0  0  0  0  0  0  0  0  0  0  0  0
   35.2317  -10.4964  -37.9329 N   0  0  0  0  0  0  0  0  0  0  0  0
   36.0911  -11.2057  -37.1166 C   0  0  0  0  0  0  0  0  0  0  0  0
   37.2375  -10.5992  -36.6736 C   0  0  0  0  0  0  0  0  0  0  0  0
   37.5265   -9.2505  -37.0626 C   0  0  0  0  0  0  0  0  0  0  0  0
   38.9982   -8.4290  -36.5220 S   0  0  0  0  0  0  0  0  0  0  0  0
   37.9079  -11.5027  -35.8892 N   0  0  0  0  0  0  0  0  0  0  0  0
   37.1829  -12.6510  -35.8488 C   0  0  0  0  0  0  0  0  0  0  0  0
   36.0576  -12.4888  -36.6003 N   0  0  0  0  0  0  0  0  0  0  0  0
  1  2  2  0  0  0  0
  1  7  1  0  0  0  0
  2  3  1  0  0  0  0
  2  4  1  0  0  0  0
  4  5  2  0  0  0  0
  5  6  1  0  0  0  0
  5 11  1  0  0  0  0
  6  7  2  0  0  0  0
  6  9  1  0  0  0  0
  7  8  1  0  0  0  0
  9 10  1  0  0  0  0
 10 11  2  0  0  0  0
M  END
>  <CHROM.1>
36.90754173,-10.03925418,-37.10930273,1.47946381,-0.50848256,-0.39632856

>  <Name>
ligand

>  <RI>
0

>  <Rbt.Current_Directory>
/home/itssahil/PROJECTS/Mol_Feturizer/New_Systems/rnas/3RKF

>  <Rbt.Executable>
rbdock ($Id: //depot/dev/client3/rdock/2013.1/src/exe/rbdock.cxx#4 $)

>  <Rbt.Library>
libRbt.so (2013.1, Build901 2013/11/27)

>  <Rbt.Parameter_File>
/export/apps/rDock/src/rDock_2013.1_src/data/scripts/dock_solv.prm

>  <Rbt.Receptor>
prm/pocket_docking_4.prm

>  <SCORE>
-15.7398

>  <SCORE.INTER>
-15.7398

>  <SCORE.INTER.CONST>
1

>  <SCORE.INTER.POLAR>
0

>  <SCORE.INTER.ROT>
0

>  <SCORE.INTER.SOLV>
9.77333

>  <SCORE.INTER.VDW>
-17.351

>  <SCORE.INTER.norm>
-1.43089

>  <SCORE.INTRA>
0

>  <SCORE.INTRA.DIHEDRAL>
0

>  <SCORE.INTRA.DIHEDRAL.0>
0

>  <SCORE.INTRA.POLAR>
0

>  <SCORE.INTRA.POLAR.0>
0

>  <SCORE.INTRA.REPUL>
0

>  <SCORE.INTRA.REPUL.0>
0

>  <SCORE.INTRA.SOLV>
0

>  <SCORE.INTRA.SOLV.lig_0>
-28.6198

>  <SCORE.INTRA.VDW>
0

>  <SCORE.INTRA.VDW.0>
0

>  <SCORE.INTRA.norm>
0

>  <SCORE.RESTR>
0

>  <SCORE.RESTR.CAVITY>
0

>  <SCORE.RESTR.norm>
0

>  <SCORE.SYSTEM>
0

>  <SCORE.SYSTEM.CONST>
0

>  <SCORE.SYSTEM.DIHEDRAL>
0

>  <SCORE.SYSTEM.SOLV>
0

>  <SCORE.SYSTEM.norm>
0

>  <SCORE.heavy>
11

>  <SCORE.norm>
-1.43089

>  <RMSD>
2.895

$$$$
ligand
 OpenBabel11021811483D
libRbt.so/2013.1/901 2013/11/27
 11 12  0  0  0  0  0  0  0  0999 V2000
   36.6028   -8.6139  -37.8308 N   0  0  0  0  0  0  0  0  0  0  0  0
   35.4786   -9.2184  -38.2435 C   0  0  0  0  0  0  0  0  0  0  0  0
   34.5637   -8.4962  -39.0691 N   0  0  0  0  0  0  0  0  0  0  0  0
   35.1994  -10.4796  -37.8980 N   0  0  0  0  0  0  0  0  0  0  0  0
   36.0701  -11.1953  -37.0996 C   0  0  0  0  0  0  0  0  0  0  0  0
   37.2223  -10.5920  -36.6674 C   0  0  0  0  0  0  0  0  0  0  0  0
   37.5055   -9.2400  -37.0491 C   0  0  0  0  0  0  0  0  0  0  0  0
   38.9842   -8.4223  -36.5220 S   0  0  0  0  0  0  0  0  0  0  0  0
   37.9038  -11.5016  -35.8998 N   0  0  0  0  0  0  0  0  0  0  0  0
   37.1798  -12.6506  -35.8590 C   0  0  0  0  0  0  0  0  0  0  0  0
   36.0442  -12.4827  -36.5935 N   0  0  0  0  0  0  0  0  0  0  0  0
  1  2  2  0  0  0  0
  1  7  1  0  0  0  0
  2  3  1  0  0  0  0
  2  4  1  0  0  0  0
  4  5  2  0  0  0  0
  5  6  1  0  0  0  0
  5 11  1  0  0  0  0
  6  7  2  0  0  0  0
  6  9  1  0  0  0  0
  7  8  1  0  0  0  0
  9 10  1  0  0  0  0
 10 11  2  0  0  0  0
M  END
>  <CHROM.1>
36.88620858,-10.02859942,-37.09384454,1.48585151,-0.49588334,-0.38495687

>  <Name>
ligand

>  <RI>
0

>  <Rbt.Current_Directory>
/home/itssahil/PROJECTS/Mol_Feturizer/New_Systems/rnas/3RKF

>  <Rbt.Executable>
rbdock ($Id: //depot/dev/client3/rdock/2013.1/src/exe/rbdock.cxx#4 $)

>  <Rbt.Library>
libRbt.so (2013.1, Build901 2013/11/27)

>  <Rbt.Parameter_File>
/export/apps/rDock/src/rDock_2013.1_src/data/scripts/dock_solv.prm

>  <Rbt.Receptor>
prm/pocket_docking_5.prm

>  <SCORE>
-15.8002

>  <SCORE.INTER>
-15.8002

>  <SCORE.INTER.CONST>
1

>  <SCORE.INTER.POLAR>
0

>  <SCORE.INTER.ROT>
0

>  <SCORE.INTER.SOLV>
9.43104

>  <SCORE.INTER.VDW>
-17.2772

>  <SCORE.INTER.norm>
-1.43638

>  <SCORE.INTRA>
0

>  <SCORE.INTRA.DIHEDRAL>
0

>  <SCORE.INTRA.DIHEDRAL.0>
0

>  <SCORE.INTRA.POLAR>
0

>  <SCORE.INTRA.POLAR.0>
0

>  <SCORE.INTRA.REPUL>
0

>  <SCORE.INTRA.REPUL.0>
0

>  <SCORE.INTRA.SOLV>
0

>  <SCORE.INTRA.SOLV.lig_0>
-28.6198

>  <SCORE.INTRA.VDW>
0

>  <SCORE.INTRA.VDW.0>
0

>  <SCORE.INTRA.norm>
0

>  <SCORE.RESTR>
0

>  <SCORE.RESTR.CAVITY>
0

>  <SCORE.RESTR.norm>
0

>  <SCORE.SYSTEM>
0

>  <SCORE.SYSTEM.CONST>
0

>  <SCORE.SYSTEM.DIHEDRAL>
0

>  <SCORE.SYSTEM.SOLV>
0

>  <SCORE.SYSTEM.norm>
0

>  <SCORE.heavy>
11

>  <SCORE.norm>
-1.43638

>  <RMSD>
2.895

$$$$
ligand
 OpenBabel11021811483D
libRbt.so/2013.1/901 2013/11/27
 11 12  0  0  0  0  0  0  0  0999 V2000
   36.6137   -8.6135  -37.8315 N   0  0  0  0  0  0  0  0  0  0  0  0
   35.4903   -9.2167  -38.2479 C   0  0  0  0  0  0  0  0  0  0  0  0
   34.5787   -8.4934  -39.0763 N   0  0  0  0  0  0  0  0  0  0  0  0
   35.2086  -10.4777  -37.9036 N   0  0  0  0  0  0  0  0  0  0  0  0
   36.0761  -11.1944  -37.1026 C   0  0  0  0  0  0  0  0  0  0  0  0
   37.2276  -10.5924  -36.6666 C   0  0  0  0  0  0  0  0  0  0  0  0
   37.5134   -9.2406  -37.0471 C   0  0  0  0  0  0  0  0  0  0  0  0
   38.9912   -8.4246  -36.5152 S   0  0  0  0  0  0  0  0  0  0  0  0
   37.9056  -11.5029  -35.8971 N   0  0  0  0  0  0  0  0  0  0  0  0
   37.1803  -12.6511  -35.8588 C   0  0  0  0  0  0  0  0  0  0  0  0
   36.0473  -12.4818  -36.5969 N   0  0  0  0  0  0  0  0  0  0  0  0
  1  2  2  0  0  0  0
  1  7  1  0  0  0  0
  2  3  1  0  0  0  0
  2  4  1  0  0  0  0
  4  5  2  0  0  0  0
  5  6  1  0  0  0  0
  5 11  1  0  0  0  0
  6  7  2  0  0  0  0
  6  9  1  0  0  0  0
  7  8  1  0  0  0  0
  9 10  1  0  0  0  0
 10 11  2  0  0  0  0
M  END
>  <CHROM.1>
36.89337092,-10.02854762,-37.09400225,1.48341665,-0.49842960,-0.38590772

>  <Name>
ligand

>  <RI>
0

>  <Rbt.Current_Directory>
/home/itssahil/PROJECTS/Mol_Feturizer/New_Systems/rnas/3RKF

>  <Rbt.Executable>
rbdock ($Id: //depot/dev/client3/rdock/2013.1/src/exe/rbdock.cxx#4 $)

>  <Rbt.Library>
libRbt.so (2013.1, Build901 2013/11/27)

>  <Rbt.Parameter_File>
/export/apps/rDock/src/rDock_2013.1_src/data/scripts/dock_solv.prm

>  <Rbt.Receptor>
prm/pocket_docking_5.prm

>  <SCORE>
-15.8025

>  <SCORE.INTER>
-15.8025

>  <SCORE.INTER.CONST>
1

>  <SCORE.INTER.POLAR>
0

>  <SCORE.INTER.ROT>
0

>  <SCORE.INTER.SOLV>
9.47881

>  <SCORE.INTER.VDW>
-17.2946

>  <SCORE.INTER.norm>
-1.43659

>  <SCORE.INTRA>
0

>  <SCORE.INTRA.DIHEDRAL>
0

>  <SCORE.INTRA.DIHEDRAL.0>
0

>  <SCORE.INTRA.POLAR>
0

>  <SCORE.INTRA.POLAR.0>
0

>  <SCORE.INTRA.REPUL>
0

>  <SCORE.INTRA.REPUL.0>
0

>  <SCORE.INTRA.SOLV>
0

>  <SCORE.INTRA.SOLV.lig_0>
-28.6198

>  <SCORE.INTRA.VDW>
0

>  <SCORE.INTRA.VDW.0>
0

>  <SCORE.INTRA.norm>
0

>  <SCORE.RESTR>
0

>  <SCORE.RESTR.CAVITY>
0

>  <SCORE.RESTR.norm>
0

>  <SCORE.SYSTEM>
0

>  <SCORE.SYSTEM.CONST>
0

>  <SCORE.SYSTEM.DIHEDRAL>
0

>  <SCORE.SYSTEM.SOLV>
0

>  <SCORE.SYSTEM.norm>
0

>  <SCORE.heavy>
11

>  <SCORE.norm>
-1.43659

>  <RMSD>
2.895

$$$$
ligand
 OpenBabel11021811483D
libRbt.so/2013.1/901 2013/11/27
 11 12  0  0  0  0  0  0  0  0999 V2000
   36.6469   -8.6482  -37.8967 N   0  0  0  0  0  0  0  0  0  0  0  0
   35.5352   -9.2617  -38.3291 C   0  0  0  0  0  0  0  0  0  0  0  0
   34.6402   -8.5544  -39.1888 N   0  0  0  0  0  0  0  0  0  0  0  0
   35.2500  -10.5184  -37.9721 N   0  0  0  0  0  0  0  0  0  0  0  0
   36.1015  -11.2197  -37.1408 C   0  0  0  0  0  0  0  0  0  0  0  0
   37.2408  -10.6070  -36.6882 C   0  0  0  0  0  0  0  0  0  0  0  0
   37.5307   -9.2601  -37.0827 C   0  0  0  0  0  0  0  0  0  0  0  0
   38.9934   -8.4307  -36.5301 S   0  0  0  0  0  0  0  0  0  0  0  0
   37.9043  -11.5032  -35.8898 N   0  0  0  0  0  0  0  0  0  0  0  0
   37.1821  -12.6533  -35.8504 C   0  0  0  0  0  0  0  0  0  0  0  0
   36.0654  -12.4994  -36.6164 N   0  0  0  0  0  0  0  0  0  0  0  0
  1  2  2  0  0  0  0
  1  7  1  0  0  0  0
  2  3  1  0  0  0  0
  2  4  1  0  0  0  0
  4  5  2  0  0  0  0
  5  6  1  0  0  0  0
  5 11  1  0  0  0  0
  6  7  2  0  0  0  0
  6  9  1  0  0  0  0
  7  8  1  0  0  0  0
  9 10  1  0  0  0  0
 10 11  2  0  0  0  0
M  END
>  <CHROM.1>
36.91448646,-10.05089416,-37.13158561,1.47712029,-0.52064031,-0.40418364

>  <Name>
ligand

>  <RI>
0

>  <Rbt.Current_Directory>
/home/itssahil/PROJECTS/Mol_Feturizer/New_Systems/rnas/3RKF

>  <Rbt.Executable>
rbdock ($Id: //depot/dev/client3/rdock/2013.1/src/exe/rbdock.cxx#4 $)

>  <Rbt.Library>
libRbt.so (2013.1, Build901 2013/11/27)

>  <Rbt.Parameter_File>
/export/apps/rDock/src/rDock_2013.1_src/data/scripts/dock_solv.prm

>  <Rbt.Receptor>
prm/pocket_docking_5.prm

>  <SCORE>
-15.7589

>  <SCORE.INTER>
-15.7589

>  <SCORE.INTER.CONST>
1

>  <SCORE.INTER.POLAR>
0

>  <SCORE.INTER.ROT>
0

>  <SCORE.INTER.SOLV>
10.1055

>  <SCORE.INTER.VDW>
-17.4744

>  <SCORE.INTER.norm>
-1.43263

>  <SCORE.INTRA>
0

>  <SCORE.INTRA.DIHEDRAL>
0

>  <SCORE.INTRA.DIHEDRAL.0>
0

>  <SCORE.INTRA.POLAR>
0

>  <SCORE.INTRA.POLAR.0>
0

>  <SCORE.INTRA.REPUL>
0

>  <SCORE.INTRA.REPUL.0>
0

>  <SCORE.INTRA.SOLV>
0

>  <SCORE.INTRA.SOLV.lig_0>
-28.6198

>  <SCORE.INTRA.VDW>
0

>  <SCORE.INTRA.VDW.0>
0

>  <SCORE.INTRA.norm>
0

>  <SCORE.RESTR>
0

>  <SCORE.RESTR.CAVITY>
0

>  <SCORE.RESTR.norm>
0

>  <SCORE.SYSTEM>
0

>  <SCORE.SYSTEM.CONST>
0

>  <SCORE.SYSTEM.DIHEDRAL>
0

>  <SCORE.SYSTEM.SOLV>
0

>  <SCORE.SYSTEM.norm>
0

>  <SCORE.heavy>
11

>  <SCORE.norm>
-1.43263

>  <RMSD>
2.895

$$$$
ligand
 OpenBabel11021811483D
libRbt.so/2013.1/901 2013/11/27
 11 12  0  0  0  0  0  0  0  0999 V2000
   36.6126   -8.6142  -37.8356 N   0  0  0  0  0  0  0  0  0  0  0  0
   35.4868   -9.2165  -38.2470 C   0  0  0  0  0  0  0  0  0  0  0  0
   34.5733   -8.4932  -39.0733 N   0  0  0  0  0  0  0  0  0  0  0  0
   35.2046  -10.4766  -37.8997 N   0  0  0  0  0  0  0  0  0  0  0  0
   36.0740  -11.1933  -37.1007 C   0  0  0  0  0  0  0  0  0  0  0  0
   37.2278  -10.5922  -36.6698 C   0  0  0  0  0  0  0  0  0  0  0  0
   37.5141   -9.2414  -37.0534 C   0  0  0  0  0  0  0  0  0  0  0  0
   38.9950   -8.4266  -36.5280 S   0  0  0  0  0  0  0  0  0  0  0  0
   37.9074  -11.5024  -35.9012 N   0  0  0  0  0  0  0  0  0  0  0  0
   37.1806  -12.6495  -35.8585 C   0  0  0  0  0  0  0  0  0  0  0  0
   36.0451  -12.4799  -36.5928 N   0  0  0  0  0  0  0  0  0  0  0  0
  1  2  2  0  0  0  0
  1  7  1  0  0  0  0
  2  3  1  0  0  0  0
  2  4  1  0  0  0  0
  4  5  2  0  0  0  0
  5  6  1  0  0  0  0
  5 11  1  0  0  0  0
  6  7  2  0  0  0  0
  6  9  1  0  0  0  0
  7  8  1  0  0  0  0
  9 10  1  0  0  0  0
 10 11  2  0  0  0  0
M  END
>  <CHROM.1>
36.89287774,-10.02852146,-37.09681379,1.48346854,-0.49460240,-0.38744621

>  <Name>
ligand

>  <RI>
0

>  <Rbt.Current_Directory>
/home/itssahil/PROJECTS/Mol_Feturizer/New_Systems/rnas/3RKF

>  <Rbt.Executable>
rbdock ($Id: //depot/dev/client3/rdock/2013.1/src/exe/rbdock.cxx#4 $)

>  <Rbt.Library>
libRbt.so (2013.1, Build901 2013/11/27)

>  <Rbt.Parameter_File>
/export/apps/rDock/src/rDock_2013.1_src/data/scripts/dock_solv.prm

>  <Rbt.Receptor>
prm/pocket_docking_6.prm

>  <SCORE>
-15.7997

>  <SCORE.INTER>
-15.7997

>  <SCORE.INTER.CONST>
1

>  <SCORE.INTER.POLAR>
0

>  <SCORE.INTER.ROT>
0

>  <SCORE.INTER.SOLV>
9.46292

>  <SCORE.INTER.VDW>
-17.2875

>  <SCORE.INTER.norm>
-1.43634

>  <SCORE.INTRA>
0

>  <SCORE.INTRA.DIHEDRAL>
0

>  <SCORE.INTRA.DIHEDRAL.0>
0

>  <SCORE.INTRA.POLAR>
0

>  <SCORE.INTRA.POLAR.0>
0

>  <SCORE.INTRA.REPUL>
0

>  <SCORE.INTRA.REPUL.0>
0

>  <SCORE.INTRA.SOLV>
0

>  <SCORE.INTRA.SOLV.lig_0>
-28.6198

>  <SCORE.INTRA.VDW>
0

>  <SCORE.INTRA.VDW.0>
0

>  <SCORE.INTRA.norm>
0

>  <SCORE.RESTR>
0

>  <SCORE.RESTR.CAVITY>
0

>  <SCORE.RESTR.norm>
0

>  <SCORE.SYSTEM>
0

>  <SCORE.SYSTEM.CONST>
0

>  <SCORE.SYSTEM.DIHEDRAL>
0

>  <SCORE.SYSTEM.SOLV>
0

>  <SCORE.SYSTEM.norm>
0

>  <SCORE.heavy>
11

>  <SCORE.norm>
-1.43634

>  <RMSD>
2.895

$$$$
ligand
 OpenBabel11021811483D
libRbt.so/2013.1/901 2013/11/27
 11 12  0  0  0  0  0  0  0  0999 V2000
   36.6190   -8.6042  -37.8150 N   0  0  0  0  0  0  0  0  0  0  0  0
   35.4989   -9.2119  -38.2340 C   0  0  0  0  0  0  0  0  0  0  0  0
   34.5718   -8.4825  -39.0395 N   0  0  0  0  0  0  0  0  0  0  0  0
   35.2347  -10.4828  -37.9131 N   0  0  0  0  0  0  0  0  0  0  0  0
   36.1174  -11.2056  -37.1344 C   0  0  0  0  0  0  0  0  0  0  0  0
   37.2657  -10.5992  -36.6961 C   0  0  0  0  0  0  0  0  0  0  0  0
   37.5326   -9.2367  -37.0513 C   0  0  0  0  0  0  0  0  0  0  0  0
   39.0057   -8.4146  -36.5156 S   0  0  0  0  0  0  0  0  0  0  0  0
   37.9609  -11.5172  -35.9512 N   0  0  0  0  0  0  0  0  0  0  0  0
   37.2491  -12.6743  -35.9302 C   0  0  0  0  0  0  0  0  0  0  0  0
   36.1077  -12.5033  -36.6549 N   0  0  0  0  0  0  0  0  0  0  0  0
  1  2  2  0  0  0  0
  1  7  1  0  0  0  0
  2  3  1  0  0  0  0
  2  4  1  0  0  0  0
  4  5  2  0  0  0  0
  5  6  1  0  0  0  0
  5 11  1  0  0  0  0
  6  7  2  0  0  0  0
  6  9  1  0  0  0  0
  7  8  1  0  0  0  0
  9 10  1  0  0  0  0
 10 11  2  0  0  0  0
M  END
>  <CHROM.1>
36.92129350,-10.03069548,-37.10899092,1.49922890,-0.49450657,-0.35798203

>  <Name>
ligand

>  <RI>
0

>  <Rbt.Current_Directory>
/home/itssahil/PROJECTS/Mol_Feturizer/New_Systems/rnas/3RKF

>  <Rbt.Executable>
rbdock ($Id: //depot/dev/client3/rdock/2013.1/src/exe/rbdock.cxx#4 $)

>  <Rbt.Library>
libRbt.so (2013.1, Build901 2013/11/27)

>  <Rbt.Parameter_File>
/export/apps/rDock/src/rDock_2013.1_src/data/scripts/dock_solv.prm

>  <Rbt.Receptor>
prm/pocket_docking_6.prm

>  <SCORE>
-15.7196

>  <SCORE.INTER>
-15.7196

>  <SCORE.INTER.CONST>
1

>  <SCORE.INTER.POLAR>
0

>  <SCORE.INTER.ROT>
0

>  <SCORE.INTER.SOLV>
9.34691

>  <SCORE.INTER.VDW>
-17.1954

>  <SCORE.INTER.norm>
-1.42906

>  <SCORE.INTRA>
0

>  <SCORE.INTRA.DIHEDRAL>
0

>  <SCORE.INTRA.DIHEDRAL.0>
0

>  <SCORE.INTRA.POLAR>
0

>  <SCORE.INTRA.POLAR.0>
0

>  <SCORE.INTRA.REPUL>
0

>  <SCORE.INTRA.REPUL.0>
0

>  <SCORE.INTRA.SOLV>
0

>  <SCORE.INTRA.SOLV.lig_0>
-28.6198

>  <SCORE.INTRA.VDW>
0

>  <SCORE.INTRA.VDW.0>
0

>  <SCORE.INTRA.norm>
0

>  <SCORE.RESTR>
0

>  <SCORE.RESTR.CAVITY>
0

>  <SCORE.RESTR.norm>
0

>  <SCORE.SYSTEM>
0

>  <SCORE.SYSTEM.CONST>
0

>  <SCORE.SYSTEM.DIHEDRAL>
0

>  <SCORE.SYSTEM.SOLV>
0

>  <SCORE.SYSTEM.norm>
0

>  <SCORE.heavy>
11

>  <SCORE.norm>
-1.42906

>  <RMSD>
2.895

$$$$
ligand
 OpenBabel11021811483D
libRbt.so/2013.1/901 2013/11/27
 11 12  0  0  0  0  0  0  0  0999 V2000
   36.6971   -8.6820  -38.0038 N   0  0  0  0  0  0  0  0  0  0  0  0
   35.6061   -9.3169  -38.4578 C   0  0  0  0  0  0  0  0  0  0  0  0
   34.7565   -8.6550  -39.3961 N   0  0  0  0  0  0  0  0  0  0  0  0
   35.3001  -10.5531  -38.0502 N   0  0  0  0  0  0  0  0  0  0  0  0
   36.1078  -11.2104  -37.1428 C   0  0  0  0  0  0  0  0  0  0  0  0
   37.2252  -10.5753  -36.6673 C   0  0  0  0  0  0  0  0  0  0  0  0
   37.5381   -9.2509  -37.1167 C   0  0  0  0  0  0  0  0  0  0  0  0
   38.9743   -8.3943  -36.5367 S   0  0  0  0  0  0  0  0  0  0  0  0
   37.8462  -11.4289  -35.7916 N   0  0  0  0  0  0  0  0  0  0  0  0
   37.1196  -12.5752  -35.7279 C   0  0  0  0  0  0  0  0  0  0  0  0
   36.0423  -12.4610  -36.5548 N   0  0  0  0  0  0  0  0  0  0  0  0
  1  2  2  0  0  0  0
  1  7  1  0  0  0  0
  2  3  1  0  0  0  0
  2  4  1  0  0  0  0
  4  5  2  0  0  0  0
  5  6  1  0  0  0  0
  5 11  1  0  0  0  0
  6  7  2  0  0  0  0
  6  9  1  0  0  0  0
  7  8  1  0  0  0  0
  9 10  1  0  0  0  0
 10 11  2  0  0  0  0
M  END
>  <CHROM.1>
36.92272130,-10.04299412,-37.15446900,1.45111990,-0.56445321,-0.46978269

>  <Name>
ligand

>  <RI>
0

>  <Rbt.Current_Directory>
/home/itssahil/PROJECTS/Mol_Feturizer/New_Systems/rnas/3RKF

>  <Rbt.Executable>
rbdock ($Id: //depot/dev/client3/rdock/2013.1/src/exe/rbdock.cxx#4 $)

>  <Rbt.Library>
libRbt.so (2013.1, Build901 2013/11/27)

>  <Rbt.Parameter_File>
/export/apps/rDock/src/rDock_2013.1_src/data/scripts/dock_solv.prm

>  <Rbt.Receptor>
prm/pocket_docking_7.prm

>  <SCORE>
-15.6867

>  <SCORE.INTER>
-15.6867

>  <SCORE.INTER.CONST>
1

>  <SCORE.INTER.POLAR>
0

>  <SCORE.INTER.ROT>
0

>  <SCORE.INTER.SOLV>
11.4741

>  <SCORE.INTER.VDW>
-17.8825

>  <SCORE.INTER.norm>
-1.42606

>  <SCORE.INTRA>
0

>  <SCORE.INTRA.DIHEDRAL>
0

>  <SCORE.INTRA.DIHEDRAL.0>
0

>  <SCORE.INTRA.POLAR>
0

>  <SCORE.INTRA.POLAR.0>
0

>  <SCORE.INTRA.REPUL>
0

>  <SCORE.INTRA.REPUL.0>
0

>  <SCORE.INTRA.SOLV>
0

>  <SCORE.INTRA.SOLV.lig_0>
-28.6198

>  <SCORE.INTRA.VDW>
0

>  <SCORE.INTRA.VDW.0>
0

>  <SCORE.INTRA.norm>
0

>  <SCORE.RESTR>
0

>  <SCORE.RESTR.CAVITY>
0

>  <SCORE.RESTR.norm>
0

>  <SCORE.SYSTEM>
0

>  <SCORE.SYSTEM.CONST>
0

>  <SCORE.SYSTEM.DIHEDRAL>
0

>  <SCORE.SYSTEM.SOLV>
0

>  <SCORE.SYSTEM.norm>
0

>  <SCORE.heavy>
11

>  <SCORE.norm>
-1.42606

>  <RMSD>
2.895

$$$$
ligand
 OpenBabel11021811483D
libRbt.so/2013.1/901 2013/11/27
 11 12  0  0  0  0  0  0  0  0999 V2000
   36.6170   -8.6165  -37.8358 N   0  0  0  0  0  0  0  0  0  0  0  0
   35.4895   -9.2178  -38.2440 C   0  0  0  0  0  0  0  0  0  0  0  0
   34.5757   -8.4947  -39.0700 N   0  0  0  0  0  0  0  0  0  0  0  0
   35.2060  -10.4768  -37.8938 N   0  0  0  0  0  0  0  0  0  0  0  0
   36.0757  -11.1934  -37.0950 C   0  0  0  0  0  0  0  0  0  0  0  0
   37.2312  -10.5933  -36.6673 C   0  0  0  0  0  0  0  0  0  0  0  0
   37.5190   -9.2437  -37.0540 C   0  0  0  0  0  0  0  0  0  0  0  0
   39.0021   -8.4302  -36.5329 S   0  0  0  0  0  0  0  0  0  0  0  0
   37.9107  -11.5031  -35.8983 N   0  0  0  0  0  0  0  0  0  0  0  0
   37.1822  -12.6490  -35.8521 C   0  0  0  0  0  0  0  0  0  0  0  0
   36.0457  -12.4789  -36.5847 N   0  0  0  0  0  0  0  0  0  0  0  0
  1  2  2  0  0  0  0
  1  7  1  0  0  0  0
  2  3  1  0  0  0  0
  2  4  1  0  0  0  0
  4  5  2  0  0  0  0
  5  6  1  0  0  0  0
  5 11  1  0  0  0  0
  6  7  2  0  0  0  0
  6  9  1  0  0  0  0
  7  8  1  0  0  0  0
  9 10  1  0  0  0  0
 10 11  2  0  0  0  0
M  END
>  <CHROM.1>
36.89641843,-10.02992076,-37.09484253,1.48258440,-0.49233632,-0.38976395

>  <Name>
ligand

>  <RI>
0

>  <Rbt.Current_Directory>
/home/itssahil/PROJECTS/Mol_Feturizer/New_Systems/rnas/3RKF

>  <Rbt.Executable>
rbdock ($Id: //depot/dev/client3/rdock/2013.1/src/exe/rbdock.cxx#4 $)

>  <Rbt.Library>
libRbt.so (2013.1, Build901 2013/11/27)

>  <Rbt.Parameter_File>
/export/apps/rDock/src/rDock_2013.1_src/data/scripts/dock_solv.prm

>  <Rbt.Receptor>
prm/pocket_docking_7.prm

>  <SCORE>
-15.8003

>  <SCORE.INTER>
-15.8003

>  <SCORE.INTER.CONST>
1

>  <SCORE.INTER.POLAR>
0

>  <SCORE.INTER.ROT>
0

>  <SCORE.INTER.SOLV>
9.46802

>  <SCORE.INTER.VDW>
-17.2895

>  <SCORE.INTER.norm>
-1.43639

>  <SCORE.INTRA>
0

>  <SCORE.INTRA.DIHEDRAL>
0

>  <SCORE.INTRA.DIHEDRAL.0>
0

>  <SCORE.INTRA.POLAR>
0

>  <SCORE.INTRA.POLAR.0>
0

>  <SCORE.INTRA.REPUL>
0

>  <SCORE.INTRA.REPUL.0>
0

>  <SCORE.INTRA.SOLV>
0

>  <SCORE.INTRA.SOLV.lig_0>
-28.6198

>  <SCORE.INTRA.VDW>
0

>  <SCORE.INTRA.VDW.0>
0

>  <SCORE.INTRA.norm>
0

>  <SCORE.RESTR>
0

>  <SCORE.RESTR.CAVITY>
0

>  <SCORE.RESTR.norm>
0

>  <SCORE.SYSTEM>
0

>  <SCORE.SYSTEM.CONST>
0

>  <SCORE.SYSTEM.DIHEDRAL>
0

>  <SCORE.SYSTEM.SOLV>
0

>  <SCORE.SYSTEM.norm>
0

>  <SCORE.heavy>
11

>  <SCORE.norm>
-1.43639

>  <RMSD>
2.895

$$$$
ligand
 OpenBabel11021811483D
libRbt.so/2013.1/901 2013/11/27
 11 12  0  0  0  0  0  0  0  0999 V2000
   36.6080   -8.6242  -37.8504 N   0  0  0  0  0  0  0  0  0  0  0  0
   35.4809   -9.2247  -38.2610 C   0  0  0  0  0  0  0  0  0  0  0  0
   34.5759   -8.5054  -39.1000 N   0  0  0  0  0  0  0  0  0  0  0  0
   35.1897  -10.4792  -37.9013 N   0  0  0  0  0  0  0  0  0  0  0  0
   36.0508  -11.1919  -37.0898 C   0  0  0  0  0  0  0  0  0  0  0  0
   37.2058  -10.5926  -36.6595 C   0  0  0  0  0  0  0  0  0  0  0  0
   37.5019   -9.2478  -37.0565 C   0  0  0  0  0  0  0  0  0  0  0  0
   38.9846   -8.4356  -36.5324 S   0  0  0  0  0  0  0  0  0  0  0  0
   37.8761  -11.4981  -35.8774 N   0  0  0  0  0  0  0  0  0  0  0  0
   37.1426  -12.6405  -35.8258 C   0  0  0  0  0  0  0  0  0  0  0  0
   36.0119  -12.4726  -36.5679 N   0  0  0  0  0  0  0  0  0  0  0  0
  1  2  2  0  0  0  0
  1  7  1  0  0  0  0
  2  3  1  0  0  0  0
  2  4  1  0  0  0  0
  4  5  2  0  0  0  0
  5  6  1  0  0  0  0
  5 11  1  0  0  0  0
  6  7  2  0  0  0  0
  6  9  1  0  0  0  0
  7  8  1  0  0  0  0
  9 10  1  0  0  0  0
 10 11  2  0  0  0  0
M  END
>  <CHROM.1>
36.87635227,-10.03184034,-37.09452765,1.47520153,-0.49723667,-0.40246493

>  <Name>
ligand

>  <RI>
0

>  <Rbt.Current_Directory>
/home/itssahil/PROJECTS/Mol_Feturizer/New_Systems/rnas/3RKF

>  <Rbt.Executable>
rbdock ($Id: //depot/dev/client3/rdock/2013.1/src/exe/rbdock.cxx#4 $)

>  <Rbt.Library>
libRbt.so (2013.1, Build901 2013/11/27)

>  <Rbt.Parameter_File>
/export/apps/rDock/src/rDock_2013.1_src/data/scripts/dock_solv.prm

>  <Rbt.Receptor>
prm/pocket_docking_7.prm

>  <SCORE>
-15.7677

>  <SCORE.INTER>
-15.7677

>  <SCORE.INTER.CONST>
1

>  <SCORE.INTER.POLAR>
0

>  <SCORE.INTER.ROT>
0

>  <SCORE.INTER.SOLV>
9.56674

>  <SCORE.INTER.VDW>
-17.3007

>  <SCORE.INTER.norm>
-1.43343

>  <SCORE.INTRA>
0

>  <SCORE.INTRA.DIHEDRAL>
0

>  <SCORE.INTRA.DIHEDRAL.0>
0

>  <SCORE.INTRA.POLAR>
0

>  <SCORE.INTRA.POLAR.0>
0

>  <SCORE.INTRA.REPUL>
0

>  <SCORE.INTRA.REPUL.0>
0

>  <SCORE.INTRA.SOLV>
0

>  <SCORE.INTRA.SOLV.lig_0>
-28.6198

>  <SCORE.INTRA.VDW>
0

>  <SCORE.INTRA.VDW.0>
0

>  <SCORE.INTRA.norm>
0

>  <SCORE.RESTR>
0

>  <SCORE.RESTR.CAVITY>
0

>  <SCORE.RESTR.norm>
0

>  <SCORE.SYSTEM>
0

>  <SCORE.SYSTEM.CONST>
0

>  <SCORE.SYSTEM.DIHEDRAL>
0

>  <SCORE.SYSTEM.SOLV>
0

>  <SCORE.SYSTEM.norm>
0

>  <SCORE.heavy>
11

>  <SCORE.norm>
-1.43343

>  <RMSD>
2.895

$$$$
ligand
 OpenBabel11021811483D
libRbt.so/2013.1/901 2013/11/27
 11 12  0  0  0  0  0  0  0  0999 V2000
   36.6249   -8.5895  -37.8492 N   0  0  0  0  0  0  0  0  0  0  0  0
   35.4965   -9.1933  -38.2511 C   0  0  0  0  0  0  0  0  0  0  0  0
   34.6067   -8.4946  -39.1231 N   0  0  0  0  0  0  0  0  0  0  0  0
   35.1900  -10.4323  -37.8524 N   0  0  0  0  0  0  0  0  0  0  0  0
   36.0362  -11.1249  -37.0085 C   0  0  0  0  0  0  0  0  0  0  0  0
   37.1923  -10.5219  -36.5867 C   0  0  0  0  0  0  0  0  0  0  0  0
   37.5049   -9.1940  -37.0256 C   0  0  0  0  0  0  0  0  0  0  0  0
   38.9899   -8.3780  -36.5138 S   0  0  0  0  0  0  0  0  0  0  0  0
   37.8463  -11.4065  -35.7676 N   0  0  0  0  0  0  0  0  0  0  0  0
   37.1016  -12.5399  -35.6852 C   0  0  0  0  0  0  0  0  0  0  0  0
   35.9800  -12.3869  -36.4442 N   0  0  0  0  0  0  0  0  0  0  0  0
  1  2  2  0  0  0  0
  1  7  1  0  0  0  0
  2  3  1  0  0  0  0
  2  4  1  0  0  0  0
  4  5  2  0  0  0  0
  5  6  1  0  0  0  0
  5 11  1  0  0  0  0
  6  7  2  0  0  0  0
  6  9  1  0  0  0  0
  7  8  1  0  0  0  0
  9 10  1  0  0  0  0
 10 11  2  0  0  0  0
M  END
>  <CHROM.1>
36.87252048,-9.97319657,-37.04368380,1.46087694,-0.50276680,-0.44302542

>  <Name>
ligand

>  <RI>
0

>  <Rbt.Current_Directory>
/home/itssahil/PROJECTS/Mol_Feturizer/New_Systems/rnas/3RKF

>  <Rbt.Executable>
rbdock ($Id: //depot/dev/client3/rdock/2013.1/src/exe/rbdock.cxx#4 $)

>  <Rbt.Library>
libRbt.so (2013.1, Build901 2013/11/27)

>  <Rbt.Parameter_File>
/export/apps/rDock/src/rDock_2013.1_src/data/scripts/dock_solv.prm

>  <Rbt.Receptor>
prm/blind_docking_60.prm

>  <SCORE>
-15.8273

>  <SCORE.INTER>
-15.8273

>  <SCORE.INTER.CONST>
1

>  <SCORE.INTER.POLAR>
0

>  <SCORE.INTER.ROT>
0

>  <SCORE.INTER.SOLV>
9.73204

>  <SCORE.INTER.VDW>
-17.3955

>  <SCORE.INTER.norm>
-1.43884

>  <SCORE.INTRA>
0

>  <SCORE.INTRA.DIHEDRAL>
0

>  <SCORE.INTRA.DIHEDRAL.0>
0

>  <SCORE.INTRA.POLAR>
0

>  <SCORE.INTRA.POLAR.0>
0

>  <SCORE.INTRA.REPUL>
0

>  <SCORE.INTRA.REPUL.0>
0

>  <SCORE.INTRA.SOLV>
0

>  <SCORE.INTRA.SOLV.lig_0>
-28.6198

>  <SCORE.INTRA.VDW>
0

>  <SCORE.INTRA.VDW.0>
0

>  <SCORE.INTRA.norm>
0

>  <SCORE.RESTR>
0

>  <SCORE.RESTR.CAVITY>
0

>  <SCORE.RESTR.norm>
0

>  <SCORE.SYSTEM>
0

>  <SCORE.SYSTEM.CONST>
0

>  <SCORE.SYSTEM.DIHEDRAL>
0

>  <SCORE.SYSTEM.SOLV>
0

>  <SCORE.SYSTEM.norm>
0

>  <SCORE.heavy>
11

>  <SCORE.norm>
-1.43884

>  <RMSD>
2.896

$$$$
ligand
 OpenBabel11021811483D
libRbt.so/2013.1/901 2013/11/27
 11 12  0  0  0  0  0  0  0  0999 V2000
   36.6091   -8.5886  -37.8402 N   0  0  0  0  0  0  0  0  0  0  0  0
   35.4905   -9.2051  -38.2500 C   0  0  0  0  0  0  0  0  0  0  0  0
   34.5752   -8.4994  -39.0893 N   0  0  0  0  0  0  0  0  0  0  0  0
   35.2171  -10.4633  -37.8892 N   0  0  0  0  0  0  0  0  0  0  0  0
   36.0884  -11.1632  -37.0774 C   0  0  0  0  0  0  0  0  0  0  0  0
   37.2349  -10.5475  -36.6480 C   0  0  0  0  0  0  0  0  0  0  0  0
   37.5119   -9.1989  -37.0461 C   0  0  0  0  0  0  0  0  0  0  0  0
   38.9833   -8.3656  -36.5231 S   0  0  0  0  0  0  0  0  0  0  0  0
   37.9182  -11.4428  -35.8653 N   0  0  0  0  0  0  0  0  0  0  0  0
   37.2008  -12.5954  -35.8126 C   0  0  0  0  0  0  0  0  0  0  0  0
   36.0676  -12.4439  -36.5545 N   0  0  0  0  0  0  0  0  0  0  0  0
  1  2  2  0  0  0  0
  1  7  1  0  0  0  0
  2  3  1  0  0  0  0
  2  4  1  0  0  0  0
  4  5  2  0  0  0  0
  5  6  1  0  0  0  0
  5 11  1  0  0  0  0
  6  7  2  0  0  0  0
  6  9  1  0  0  0  0
  7  8  1  0  0  0  0
  9 10  1  0  0  0  0
 10 11  2  0  0  0  0
M  END
>  <CHROM.1>
36.89749577,-9.99169616,-37.08332141,1.49009195,-0.50242776,-0.39611664

>  <Name>
ligand

>  <RI>
0

>  <Rbt.Current_Directory>
/home/itssahil/PROJECTS/Mol_Feturizer/New_Systems/rnas/3RKF

>  <Rbt.Executable>
rbdock ($Id: //depot/dev/client3/rdock/2013.1/src/exe/rbdock.cxx#4 $)

>  <Rbt.Library>
libRbt.so (2013.1, Build901 2013/11/27)

>  <Rbt.Parameter_File>
/export/apps/rDock/src/rDock_2013.1_src/data/scripts/dock_solv.prm

>  <Rbt.Receptor>
prm/blind_docking_60.prm

>  <SCORE>
-15.7536

>  <SCORE.INTER>
-15.7536

>  <SCORE.INTER.CONST>
1

>  <SCORE.INTER.POLAR>
0

>  <SCORE.INTER.ROT>
0

>  <SCORE.INTER.SOLV>
9.52755

>  <SCORE.INTER.VDW>
-17.2782

>  <SCORE.INTER.norm>
-1.43214

>  <SCORE.INTRA>
0

>  <SCORE.INTRA.DIHEDRAL>
0

>  <SCORE.INTRA.DIHEDRAL.0>
0

>  <SCORE.INTRA.POLAR>
0

>  <SCORE.INTRA.POLAR.0>
0

>  <SCORE.INTRA.REPUL>
0

>  <SCORE.INTRA.REPUL.0>
0

>  <SCORE.INTRA.SOLV>
0

>  <SCORE.INTRA.SOLV.lig_0>
-28.6198

>  <SCORE.INTRA.VDW>
0

>  <SCORE.INTRA.VDW.0>
0

>  <SCORE.INTRA.norm>
0

>  <SCORE.RESTR>
0

>  <SCORE.RESTR.CAVITY>
0

>  <SCORE.RESTR.norm>
0

>  <SCORE.SYSTEM>
0

>  <SCORE.SYSTEM.CONST>
0

>  <SCORE.SYSTEM.DIHEDRAL>
0

>  <SCORE.SYSTEM.SOLV>
0

>  <SCORE.SYSTEM.norm>
0

>  <SCORE.heavy>
11

>  <SCORE.norm>
-1.43214

>  <RMSD>
2.896

$$$$
ligand
 OpenBabel11021811483D
libRbt.so/2013.1/901 2013/11/27
 11 12  0  0  0  0  0  0  0  0999 V2000
   36.6139   -8.6246  -37.8430 N   0  0  0  0  0  0  0  0  0  0  0  0
   35.4917   -9.2299  -38.2596 C   0  0  0  0  0  0  0  0  0  0  0  0
   34.5810   -8.5097  -39.0917 N   0  0  0  0  0  0  0  0  0  0  0  0
   35.2103  -10.4901  -37.9120 N   0  0  0  0  0  0  0  0  0  0  0  0
   36.0770  -11.2038  -37.1073 C   0  0  0  0  0  0  0  0  0  0  0  0
   37.2272  -10.5996  -36.6712 C   0  0  0  0  0  0  0  0  0  0  0  0
   37.5127   -9.2487  -37.0552 C   0  0  0  0  0  0  0  0  0  0  0  0
   38.9890   -8.4300  -36.5232 S   0  0  0  0  0  0  0  0  0  0  0  0
   37.9046  -11.5073  -35.8978 N   0  0  0  0  0  0  0  0  0  0  0  0
   37.1801  -12.6559  -35.8573 C   0  0  0  0  0  0  0  0  0  0  0  0
   36.0482  -12.4897  -36.5978 N   0  0  0  0  0  0  0  0  0  0  0  0
  1  2  2  0  0  0  0
  1  7  1  0  0  0  0
  2  3  1  0  0  0  0
  2  4  1  0  0  0  0
  4  5  2  0  0  0  0
  5  6  1  0  0  0  0
  5 11  1  0  0  0  0
  6  7  2  0  0  0  0
  6  9  1  0  0  0  0
  7  8  1  0  0  0  0
  9 10  1  0  0  0  0
 10 11  2  0  0  0  0
M  END
>  <CHROM.1>
36.89336024,-10.03727216,-37.10080043,1.48344968,-0.50031003,-0.38888091

>  <Name>
ligand

>  <RI>
0

>  <Rbt.Current_Directory>
/home/itssahil/PROJECTS/Mol_Feturizer/New_Systems/rnas/3RKF

>  <Rbt.Executable>
rbdock ($Id: //depot/dev/client3/rdock/2013.1/src/exe/rbdock.cxx#4 $)

>  <Rbt.Library>
libRbt.so (2013.1, Build901 2013/11/27)

>  <Rbt.Parameter_File>
/export/apps/rDock/src/rDock_2013.1_src/data/scripts/dock_solv.prm

>  <Rbt.Receptor>
prm/pocket_docking_3.prm

>  <SCORE>
-15.7639

>  <SCORE.INTER>
-15.7639

>  <SCORE.INTER.CONST>
1

>  <SCORE.INTER.POLAR>
0

>  <SCORE.INTER.ROT>
0

>  <SCORE.INTER.SOLV>
9.55338

>  <SCORE.INTER.VDW>
-17.2937

>  <SCORE.INTER.norm>
-1.43308

>  <SCORE.INTRA>
0

>  <SCORE.INTRA.DIHEDRAL>
0

>  <SCORE.INTRA.DIHEDRAL.0>
0

>  <SCORE.INTRA.POLAR>
0

>  <SCORE.INTRA.POLAR.0>
0

>  <SCORE.INTRA.REPUL>
0

>  <SCORE.INTRA.REPUL.0>
0

>  <SCORE.INTRA.SOLV>
0

>  <SCORE.INTRA.SOLV.lig_0>
-28.6198

>  <SCORE.INTRA.VDW>
0

>  <SCORE.INTRA.VDW.0>
0

>  <SCORE.INTRA.norm>
0

>  <SCORE.RESTR>
0

>  <SCORE.RESTR.CAVITY>
0

>  <SCORE.RESTR.norm>
0

>  <SCORE.SYSTEM>
0

>  <SCORE.SYSTEM.CONST>
0

>  <SCORE.SYSTEM.DIHEDRAL>
0

>  <SCORE.SYSTEM.SOLV>
0

>  <SCORE.SYSTEM.norm>
0

>  <SCORE.heavy>
11

>  <SCORE.norm>
-1.43308

>  <RMSD>
2.896

$$$$
ligand
 OpenBabel11021811483D
libRbt.so/2013.1/901 2013/11/27
 11 12  0  0  0  0  0  0  0  0999 V2000
   36.6337   -8.5864  -37.8525 N   0  0  0  0  0  0  0  0  0  0  0  0
   35.5046   -9.1907  -38.2519 C   0  0  0  0  0  0  0  0  0  0  0  0
   34.6144   -8.4940  -39.1250 N   0  0  0  0  0  0  0  0  0  0  0  0
   35.1979  -10.4285  -37.8496 N   0  0  0  0  0  0  0  0  0  0  0  0
   36.0445  -11.1192  -37.0046 C   0  0  0  0  0  0  0  0  0  0  0  0
   37.2012  -10.5156  -36.5854 C   0  0  0  0  0  0  0  0  0  0  0  0
   37.5141   -9.1890  -37.0281 C   0  0  0  0  0  0  0  0  0  0  0  0
   38.9998   -8.3723  -36.5198 S   0  0  0  0  0  0  0  0  0  0  0  0
   37.8555  -11.3983  -35.7645 N   0  0  0  0  0  0  0  0  0  0  0  0
   37.1104  -12.5312  -35.6785 C   0  0  0  0  0  0  0  0  0  0  0  0
   35.9883  -12.3797  -36.4369 N   0  0  0  0  0  0  0  0  0  0  0  0
  1  2  2  0  0  0  0
  1  7  1  0  0  0  0
  2  3  1  0  0  0  0
  2  4  1  0  0  0  0
  4  5  2  0  0  0  0
  5  6  1  0  0  0  0
  5 11  1  0  0  0  0
  6  7  2  0  0  0  0
  6  9  1  0  0  0  0
  7  8  1  0  0  0  0
  9 10  1  0  0  0  0
 10 11  2  0  0  0  0
M  END
>  <CHROM.1>
36.88129947,-9.96798532,-37.04357324,1.46083615,-0.50181469,-0.44571927

>  <Name>
ligand

>  <RI>
0

>  <Rbt.Current_Directory>
/home/itssahil/PROJECTS/Mol_Feturizer/New_Systems/rnas/3RKF

>  <Rbt.Executable>
rbdock ($Id: //depot/dev/client3/rdock/2013.1/src/exe/rbdock.cxx#4 $)

>  <Rbt.Library>
libRbt.so (2013.1, Build901 2013/11/27)

>  <Rbt.Parameter_File>
/export/apps/rDock/src/rDock_2013.1_src/data/scripts/dock_solv.prm

>  <Rbt.Receptor>
prm/pocket_docking_4.prm

>  <SCORE>
-15.828

>  <SCORE.INTER>
-15.828

>  <SCORE.INTER.CONST>
1

>  <SCORE.INTER.POLAR>
0

>  <SCORE.INTER.ROT>
0

>  <SCORE.INTER.SOLV>
9.76245

>  <SCORE.INTER.VDW>
-17.4061

>  <SCORE.INTER.norm>
-1.43891

>  <SCORE.INTRA>
0

>  <SCORE.INTRA.DIHEDRAL>
0

>  <SCORE.INTRA.DIHEDRAL.0>
0

>  <SCORE.INTRA.POLAR>
0

>  <SCORE.INTRA.POLAR.0>
0

>  <SCORE.INTRA.REPUL>
0

>  <SCORE.INTRA.REPUL.0>
0

>  <SCORE.INTRA.SOLV>
0

>  <SCORE.INTRA.SOLV.lig_0>
-28.6198

>  <SCORE.INTRA.VDW>
0

>  <SCORE.INTRA.VDW.0>
0

>  <SCORE.INTRA.norm>
0

>  <SCORE.RESTR>
0

>  <SCORE.RESTR.CAVITY>
0

>  <SCORE.RESTR.norm>
0

>  <SCORE.SYSTEM>
0

>  <SCORE.SYSTEM.CONST>
0

>  <SCORE.SYSTEM.DIHEDRAL>
0

>  <SCORE.SYSTEM.SOLV>
0

>  <SCORE.SYSTEM.norm>
0

>  <SCORE.heavy>
11

>  <SCORE.norm>
-1.43891

>  <RMSD>
2.896

$$$$
ligand
 OpenBabel11021811483D
libRbt.so/2013.1/901 2013/11/27
 11 12  0  0  0  0  0  0  0  0999 V2000
   36.6305   -8.6013  -37.8198 N   0  0  0  0  0  0  0  0  0  0  0  0
   35.5062   -9.2094  -38.2264 C   0  0  0  0  0  0  0  0  0  0  0  0
   34.5927   -8.4959  -39.0612 N   0  0  0  0  0  0  0  0  0  0  0  0
   35.2253  -10.4662  -37.8666 N   0  0  0  0  0  0  0  0  0  0  0  0
   36.0947  -11.1735  -37.0592 C   0  0  0  0  0  0  0  0  0  0  0  0
   37.2471  -10.5664  -36.6330 C   0  0  0  0  0  0  0  0  0  0  0  0
   37.5320   -9.2192  -37.0301 C   0  0  0  0  0  0  0  0  0  0  0  0
   39.0111   -8.3969  -36.5112 S   0  0  0  0  0  0  0  0  0  0  0  0
   37.9270  -11.4677  -35.8544 N   0  0  0  0  0  0  0  0  0  0  0  0
   37.2018  -12.6154  -35.8008 C   0  0  0  0  0  0  0  0  0  0  0  0
   36.0670  -12.4549  -36.5383 N   0  0  0  0  0  0  0  0  0  0  0  0
  1  2  2  0  0  0  0
  1  7  1  0  0  0  0
  2  3  1  0  0  0  0
  2  4  1  0  0  0  0
  4  5  2  0  0  0  0
  5  6  1  0  0  0  0
  5 11  1  0  0  0  0
  6  7  2  0  0  0  0
  6  9  1  0  0  0  0
  7  8  1  0  0  0  0
  9 10  1  0  0  0  0
 10 11  2  0  0  0  0
M  END
>  <CHROM.1>
36.91193208,-10.00761143,-37.06624061,1.48441379,-0.49630399,-0.39723237

>  <Name>
ligand

>  <RI>
0

>  <Rbt.Current_Directory>
/home/itssahil/PROJECTS/Mol_Feturizer/New_Systems/rnas/3RKF

>  <Rbt.Executable>
rbdock ($Id: //depot/dev/client3/rdock/2013.1/src/exe/rbdock.cxx#4 $)

>  <Rbt.Library>
libRbt.so (2013.1, Build901 2013/11/27)

>  <Rbt.Parameter_File>
/export/apps/rDock/src/rDock_2013.1_src/data/scripts/dock_solv.prm

>  <Rbt.Receptor>
prm/blind_docking_80.prm

>  <SCORE>
-15.7486

>  <SCORE.INTER>
-15.7486

>  <SCORE.INTER.CONST>
1

>  <SCORE.INTER.POLAR>
0

>  <SCORE.INTER.ROT>
0

>  <SCORE.INTER.SOLV>
9.49931

>  <SCORE.INTER.VDW>
-17.2655

>  <SCORE.INTER.norm>
-1.43169

>  <SCORE.INTRA>
0

>  <SCORE.INTRA.DIHEDRAL>
0

>  <SCORE.INTRA.DIHEDRAL.0>
0

>  <SCORE.INTRA.POLAR>
0

>  <SCORE.INTRA.POLAR.0>
0

>  <SCORE.INTRA.REPUL>
0

>  <SCORE.INTRA.REPUL.0>
0

>  <SCORE.INTRA.SOLV>
0

>  <SCORE.INTRA.SOLV.lig_0>
-28.6198

>  <SCORE.INTRA.VDW>
0

>  <SCORE.INTRA.VDW.0>
0

>  <SCORE.INTRA.norm>
0

>  <SCORE.RESTR>
0

>  <SCORE.RESTR.CAVITY>
0

>  <SCORE.RESTR.norm>
0

>  <SCORE.SYSTEM>
0

>  <SCORE.SYSTEM.CONST>
0

>  <SCORE.SYSTEM.DIHEDRAL>
0

>  <SCORE.SYSTEM.SOLV>
0

>  <SCORE.SYSTEM.norm>
0

>  <SCORE.heavy>
11

>  <SCORE.norm>
-1.43169

>  <RMSD>
2.897

$$$$
ligand
 OpenBabel11021811483D
libRbt.so/2013.1/901 2013/11/27
 11 12  0  0  0  0  0  0  0  0999 V2000
   36.6984   -8.6828  -37.9888 N   0  0  0  0  0  0  0  0  0  0  0  0
   35.6082   -9.3213  -38.4396 C   0  0  0  0  0  0  0  0  0  0  0  0
   34.7615   -8.6679  -39.3864 N   0  0  0  0  0  0  0  0  0  0  0  0
   35.3002  -10.5533  -38.0210 N   0  0  0  0  0  0  0  0  0  0  0  0
   36.1051  -11.2024  -37.1050 C   0  0  0  0  0  0  0  0  0  0  0  0
   37.2217  -10.5635  -36.6327 C   0  0  0  0  0  0  0  0  0  0  0  0
   37.5366   -9.2437  -37.0939 C   0  0  0  0  0  0  0  0  0  0  0  0
   38.9719   -8.3825  -36.5184 S   0  0  0  0  0  0  0  0  0  0  0  0
   37.8397  -11.4090  -35.7472 N   0  0  0  0  0  0  0  0  0  0  0  0
   37.1122  -12.5542  -35.6744 C   0  0  0  0  0  0  0  0  0  0  0  0
   36.0372  -12.4473  -36.5052 N   0  0  0  0  0  0  0  0  0  0  0  0
  1  2  2  0  0  0  0
  1  7  1  0  0  0  0
  2  3  1  0  0  0  0
  2  4  1  0  0  0  0
  4  5  2  0  0  0  0
  5  6  1  0  0  0  0
  5 11  1  0  0  0  0
  6  7  2  0  0  0  0
  6  9  1  0  0  0  0
  7  8  1  0  0  0  0
  9 10  1  0  0  0  0
 10 11  2  0  0  0  0
M  END
>  <CHROM.1>
36.92082909,-10.03568317,-37.12576292,1.44896962,-0.56653955,-0.48054567

>  <Name>
ligand

>  <RI>
0

>  <Rbt.Current_Directory>
/home/itssahil/PROJECTS/Mol_Feturizer/New_Systems/rnas/3RKF

>  <Rbt.Executable>
rbdock ($Id: //depot/dev/client3/rdock/2013.1/src/exe/rbdock.cxx#4 $)

>  <Rbt.Library>
libRbt.so (2013.1, Build901 2013/11/27)

>  <Rbt.Parameter_File>
/export/apps/rDock/src/rDock_2013.1_src/data/scripts/dock_solv.prm

>  <Rbt.Receptor>
prm/pocket_docking_4.prm

>  <SCORE>
-15.6745

>  <SCORE.INTER>
-15.6745

>  <SCORE.INTER.CONST>
1

>  <SCORE.INTER.POLAR>
0

>  <SCORE.INTER.ROT>
0

>  <SCORE.INTER.SOLV>
11.4962

>  <SCORE.INTER.VDW>
-17.8817

>  <SCORE.INTER.norm>
-1.42495

>  <SCORE.INTRA>
0

>  <SCORE.INTRA.DIHEDRAL>
0

>  <SCORE.INTRA.DIHEDRAL.0>
0

>  <SCORE.INTRA.POLAR>
0

>  <SCORE.INTRA.POLAR.0>
0

>  <SCORE.INTRA.REPUL>
0

>  <SCORE.INTRA.REPUL.0>
0

>  <SCORE.INTRA.SOLV>
0

>  <SCORE.INTRA.SOLV.lig_0>
-28.6198

>  <SCORE.INTRA.VDW>
0

>  <SCORE.INTRA.VDW.0>
0

>  <SCORE.INTRA.norm>
0

>  <SCORE.RESTR>
0

>  <SCORE.RESTR.CAVITY>
0

>  <SCORE.RESTR.norm>
0

>  <SCORE.SYSTEM>
0

>  <SCORE.SYSTEM.CONST>
0

>  <SCORE.SYSTEM.DIHEDRAL>
0

>  <SCORE.SYSTEM.SOLV>
0

>  <SCORE.SYSTEM.norm>
0

>  <SCORE.heavy>
11

>  <SCORE.norm>
-1.42495

>  <RMSD>
2.897

$$$$
ligand
 OpenBabel11021811483D
libRbt.so/2013.1/901 2013/11/27
 11 12  0  0  0  0  0  0  0  0999 V2000
   36.6314   -8.5755  -37.8483 N   0  0  0  0  0  0  0  0  0  0  0  0
   35.5107   -9.1898  -38.2558 C   0  0  0  0  0  0  0  0  0  0  0  0
   34.6238   -8.5033  -39.1404 N   0  0  0  0  0  0  0  0  0  0  0  0
   35.2092  -10.4281  -37.8512 N   0  0  0  0  0  0  0  0  0  0  0  0
   36.0527  -11.1091  -36.9952 C   0  0  0  0  0  0  0  0  0  0  0  0
   37.2010  -10.4952  -36.5676 C   0  0  0  0  0  0  0  0  0  0  0  0
   37.5083   -9.1682  -37.0130 C   0  0  0  0  0  0  0  0  0  0  0  0
   38.9831   -8.3385  -36.4940 S   0  0  0  0  0  0  0  0  0  0  0  0
   37.8538  -11.3696  -35.7368 N   0  0  0  0  0  0  0  0  0  0  0  0
   37.1162  -12.5076  -35.6530 C   0  0  0  0  0  0  0  0  0  0  0  0
   36.0003  -12.3675  -36.4228 N   0  0  0  0  0  0  0  0  0  0  0  0
  1  2  2  0  0  0  0
  1  7  1  0  0  0  0
  2  3  1  0  0  0  0
  2  4  1  0  0  0  0
  4  5  2  0  0  0  0
  5  6  1  0  0  0  0
  5 11  1  0  0  0  0
  6  7  2  0  0  0  0
  6  9  1  0  0  0  0
  7  8  1  0  0  0  0
  9 10  1  0  0  0  0
 10 11  2  0  0  0  0
M  END
>  <CHROM.1>
36.88141797,-9.95187996,-37.03116032,1.46369716,-0.51358652,-0.44855036

>  <Name>
ligand

>  <RI>
0

>  <Rbt.Current_Directory>
/home/itssahil/PROJECTS/Mol_Feturizer/New_Systems/rnas/3RKF

>  <Rbt.Executable>
rbdock ($Id: //depot/dev/client3/rdock/2013.1/src/exe/rbdock.cxx#4 $)

>  <Rbt.Library>
libRbt.so (2013.1, Build901 2013/11/27)

>  <Rbt.Parameter_File>
/export/apps/rDock/src/rDock_2013.1_src/data/scripts/dock_solv.prm

>  <Rbt.Receptor>
prm/pocket_docking_4.prm

>  <SCORE>
-15.7599

>  <SCORE.INTER>
-15.7599

>  <SCORE.INTER.CONST>
1

>  <SCORE.INTER.POLAR>
0

>  <SCORE.INTER.ROT>
0

>  <SCORE.INTER.SOLV>
9.84663

>  <SCORE.INTER.VDW>
-17.3888

>  <SCORE.INTER.norm>
-1.43272

>  <SCORE.INTRA>
0

>  <SCORE.INTRA.DIHEDRAL>
0

>  <SCORE.INTRA.DIHEDRAL.0>
0

>  <SCORE.INTRA.POLAR>
0

>  <SCORE.INTRA.POLAR.0>
0

>  <SCORE.INTRA.REPUL>
0

>  <SCORE.INTRA.REPUL.0>
0

>  <SCORE.INTRA.SOLV>
0

>  <SCORE.INTRA.SOLV.lig_0>
-28.6198

>  <SCORE.INTRA.VDW>
0

>  <SCORE.INTRA.VDW.0>
0

>  <SCORE.INTRA.norm>
0

>  <SCORE.RESTR>
0

>  <SCORE.RESTR.CAVITY>
0

>  <SCORE.RESTR.norm>
0

>  <SCORE.SYSTEM>
0

>  <SCORE.SYSTEM.CONST>
0

>  <SCORE.SYSTEM.DIHEDRAL>
0

>  <SCORE.SYSTEM.SOLV>
0

>  <SCORE.SYSTEM.norm>
0

>  <SCORE.heavy>
11

>  <SCORE.norm>
-1.43272

>  <RMSD>
2.897

$$$$
ligand
 OpenBabel11021811483D
libRbt.so/2013.1/901 2013/11/27
 11 12  0  0  0  0  0  0  0  0999 V2000
   36.6004   -8.6292  -37.8442 N   0  0  0  0  0  0  0  0  0  0  0  0
   35.4841   -9.2418  -38.2660 C   0  0  0  0  0  0  0  0  0  0  0  0
   34.5733   -8.5281  -39.1035 N   0  0  0  0  0  0  0  0  0  0  0  0
   35.2089  -10.5035  -37.9188 N   0  0  0  0  0  0  0  0  0  0  0  0
   36.0758  -11.2110  -37.1090 C   0  0  0  0  0  0  0  0  0  0  0  0
   37.2199  -10.5993  -36.6674 C   0  0  0  0  0  0  0  0  0  0  0  0
   37.4989   -9.2470  -37.0511 C   0  0  0  0  0  0  0  0  0  0  0  0
   38.9673   -8.4185  -36.5121 S   0  0  0  0  0  0  0  0  0  0  0  0
   37.8990  -11.5020  -35.8896 N   0  0  0  0  0  0  0  0  0  0  0  0
   37.1815  -12.6551  -35.8519 C   0  0  0  0  0  0  0  0  0  0  0  0
   36.0524  -12.4967  -36.5985 N   0  0  0  0  0  0  0  0  0  0  0  0
  1  2  2  0  0  0  0
  1  7  1  0  0  0  0
  2  3  1  0  0  0  0
  2  4  1  0  0  0  0
  4  5  2  0  0  0  0
  5  6  1  0  0  0  0
  5 11  1  0  0  0  0
  6  7  2  0  0  0  0
  6  9  1  0  0  0  0
  7  8  1  0  0  0  0
  9 10  1  0  0  0  0
 10 11  2  0  0  0  0
M  END
>  <CHROM.1>
36.88478116,-10.03942493,-37.09924039,1.48782420,-0.50751151,-0.38764501

>  <Name>
ligand

>  <RI>
0

>  <Rbt.Current_Directory>
/home/itssahil/PROJECTS/Mol_Feturizer/New_Systems/rnas/3RKF

>  <Rbt.Executable>
rbdock ($Id: //depot/dev/client3/rdock/2013.1/src/exe/rbdock.cxx#4 $)

>  <Rbt.Library>
libRbt.so (2013.1, Build901 2013/11/27)

>  <Rbt.Parameter_File>
/export/apps/rDock/src/rDock_2013.1_src/data/scripts/dock_solv.prm

>  <Rbt.Receptor>
prm/pocket_docking_5.prm

>  <SCORE>
-15.7319

>  <SCORE.INTER>
-15.7319

>  <SCORE.INTER.CONST>
1

>  <SCORE.INTER.POLAR>
0

>  <SCORE.INTER.ROT>
0

>  <SCORE.INTER.SOLV>
9.59726

>  <SCORE.INTER.VDW>
-17.287

>  <SCORE.INTER.norm>
-1.43017

>  <SCORE.INTRA>
0

>  <SCORE.INTRA.DIHEDRAL>
0

>  <SCORE.INTRA.DIHEDRAL.0>
0

>  <SCORE.INTRA.POLAR>
0

>  <SCORE.INTRA.POLAR.0>
0

>  <SCORE.INTRA.REPUL>
0

>  <SCORE.INTRA.REPUL.0>
0

>  <SCORE.INTRA.SOLV>
0

>  <SCORE.INTRA.SOLV.lig_0>
-28.6198

>  <SCORE.INTRA.VDW>
0

>  <SCORE.INTRA.VDW.0>
0

>  <SCORE.INTRA.norm>
0

>  <SCORE.RESTR>
0

>  <SCORE.RESTR.CAVITY>
0

>  <SCORE.RESTR.norm>
0

>  <SCORE.SYSTEM>
0

>  <SCORE.SYSTEM.CONST>
0

>  <SCORE.SYSTEM.DIHEDRAL>
0

>  <SCORE.SYSTEM.SOLV>
0

>  <SCORE.SYSTEM.norm>
0

>  <SCORE.heavy>
11

>  <SCORE.norm>
-1.43017

>  <RMSD>
2.897

$$$$
ligand
 OpenBabel11021811483D
libRbt.so/2013.1/901 2013/11/27
 11 12  0  0  0  0  0  0  0  0999 V2000
   36.6056   -8.5827  -37.8373 N   0  0  0  0  0  0  0  0  0  0  0  0
   35.4809   -9.1955  -38.2358 C   0  0  0  0  0  0  0  0  0  0  0  0
   34.5696   -8.4940  -39.0830 N   0  0  0  0  0  0  0  0  0  0  0  0
   35.1977  -10.4461  -37.8565 N   0  0  0  0  0  0  0  0  0  0  0  0
   36.0649  -11.1417  -37.0368 C   0  0  0  0  0  0  0  0  0  0  0  0
   37.2176  -10.5297  -36.6187 C   0  0  0  0  0  0  0  0  0  0  0  0
   37.5051   -9.1893  -37.0367 C   0  0  0  0  0  0  0  0  0  0  0  0
   38.9847   -8.3612  -36.5289 S   0  0  0  0  0  0  0  0  0  0  0  0
   37.8951  -11.4195  -35.8249 N   0  0  0  0  0  0  0  0  0  0  0  0
   37.1681  -12.5652  -35.7542 C   0  0  0  0  0  0  0  0  0  0  0  0
   36.0345  -12.4146  -36.4956 N   0  0  0  0  0  0  0  0  0  0  0  0
  1  2  2  0  0  0  0
  1  7  1  0  0  0  0
  2  3  1  0  0  0  0
  2  4  1  0  0  0  0
  4  5  2  0  0  0  0
  5  6  1  0  0  0  0
  5 11  1  0  0  0  0
  6  7  2  0  0  0  0
  6  9  1  0  0  0  0
  7  8  1  0  0  0  0
  9 10  1  0  0  0  0
 10 11  2  0  0  0  0
M  END
>  <CHROM.1>
36.88387442,-9.97732104,-37.06116827,1.48223516,-0.49697556,-0.41411978

>  <Name>
ligand

>  <RI>
0

>  <Rbt.Current_Directory>
/home/itssahil/PROJECTS/Mol_Feturizer/New_Systems/rnas/3RKF

>  <Rbt.Executable>
rbdock ($Id: //depot/dev/client3/rdock/2013.1/src/exe/rbdock.cxx#4 $)

>  <Rbt.Library>
libRbt.so (2013.1, Build901 2013/11/27)

>  <Rbt.Parameter_File>
/export/apps/rDock/src/rDock_2013.1_src/data/scripts/dock_solv.prm

>  <Rbt.Receptor>
prm/pocket_docking_7.prm

>  <SCORE>
-15.8068

>  <SCORE.INTER>
-15.8068

>  <SCORE.INTER.CONST>
1

>  <SCORE.INTER.POLAR>
0

>  <SCORE.INTER.ROT>
0

>  <SCORE.INTER.SOLV>
9.51196

>  <SCORE.INTER.VDW>
-17.3085

>  <SCORE.INTER.norm>
-1.43698

>  <SCORE.INTRA>
0

>  <SCORE.INTRA.DIHEDRAL>
0

>  <SCORE.INTRA.DIHEDRAL.0>
0

>  <SCORE.INTRA.POLAR>
0

>  <SCORE.INTRA.POLAR.0>
0

>  <SCORE.INTRA.REPUL>
0

>  <SCORE.INTRA.REPUL.0>
0

>  <SCORE.INTRA.SOLV>
0

>  <SCORE.INTRA.SOLV.lig_0>
-28.6198

>  <SCORE.INTRA.VDW>
0

>  <SCORE.INTRA.VDW.0>
0

>  <SCORE.INTRA.norm>
0

>  <SCORE.RESTR>
0

>  <SCORE.RESTR.CAVITY>
0

>  <SCORE.RESTR.norm>
0

>  <SCORE.SYSTEM>
0

>  <SCORE.SYSTEM.CONST>
0

>  <SCORE.SYSTEM.DIHEDRAL>
0

>  <SCORE.SYSTEM.SOLV>
0

>  <SCORE.SYSTEM.norm>
0

>  <SCORE.heavy>
11

>  <SCORE.norm>
-1.43698

>  <RMSD>
2.897

$$$$
ligand
 OpenBabel11021811483D
libRbt.so/2013.1/901 2013/11/27
 11 12  0  0  0  0  0  0  0  0999 V2000
   36.6097   -8.6504  -37.8844 N   0  0  0  0  0  0  0  0  0  0  0  0
   35.4972   -9.2690  -38.3074 C   0  0  0  0  0  0  0  0  0  0  0  0
   34.5910   -8.5653  -39.1583 N   0  0  0  0  0  0  0  0  0  0  0  0
   35.2214  -10.5274  -37.9490 N   0  0  0  0  0  0  0  0  0  0  0  0
   36.0838  -11.2253  -37.1261 C   0  0  0  0  0  0  0  0  0  0  0  0
   37.2241  -10.6074  -36.6832 C   0  0  0  0  0  0  0  0  0  0  0  0
   37.5038   -9.2587  -37.0790 C   0  0  0  0  0  0  0  0  0  0  0  0
   38.9673   -8.4226  -36.5388 S   0  0  0  0  0  0  0  0  0  0  0  0
   37.8992  -11.5011  -35.8917 N   0  0  0  0  0  0  0  0  0  0  0  0
   37.1830  -12.6548  -35.8469 C   0  0  0  0  0  0  0  0  0  0  0  0
   36.0588  -12.5057  -36.6026 N   0  0  0  0  0  0  0  0  0  0  0  0
  1  2  2  0  0  0  0
  1  7  1  0  0  0  0
  2  3  1  0  0  0  0
  2  4  1  0  0  0  0
  4  5  2  0  0  0  0
  5  6  1  0  0  0  0
  5 11  1  0  0  0  0
  6  7  2  0  0  0  0
  6  9  1  0  0  0  0
  7  8  1  0  0  0  0
  9 10  1  0  0  0  0
 10 11  2  0  0  0  0
M  END
>  <CHROM.1>
36.89108697,-10.05248860,-37.12308354,1.48638947,-0.51425418,-0.39865005

>  <Name>
ligand

>  <RI>
0

>  <Rbt.Current_Directory>
/home/itssahil/PROJECTS/Mol_Feturizer/New_Systems/rnas/3RKF

>  <Rbt.Executable>
rbdock ($Id: //depot/dev/client3/rdock/2013.1/src/exe/rbdock.cxx#4 $)

>  <Rbt.Library>
libRbt.so (2013.1, Build901 2013/11/27)

>  <Rbt.Parameter_File>
/export/apps/rDock/src/rDock_2013.1_src/data/scripts/dock_solv.prm

>  <Rbt.Receptor>
prm/blind_docking_100.prm

>  <SCORE>
-15.7251

>  <SCORE.INTER>
-15.7251

>  <SCORE.INTER.CONST>
1

>  <SCORE.INTER.POLAR>
0

>  <SCORE.INTER.ROT>
0

>  <SCORE.INTER.SOLV>
9.91253

>  <SCORE.INTER.VDW>
-17.3876

>  <SCORE.INTER.norm>
-1.42956

>  <SCORE.INTRA>
0

>  <SCORE.INTRA.DIHEDRAL>
0

>  <SCORE.INTRA.DIHEDRAL.0>
0

>  <SCORE.INTRA.POLAR>
0

>  <SCORE.INTRA.POLAR.0>
0

>  <SCORE.INTRA.REPUL>
0

>  <SCORE.INTRA.REPUL.0>
0

>  <SCORE.INTRA.SOLV>
0

>  <SCORE.INTRA.SOLV.lig_0>
-28.6198

>  <SCORE.INTRA.VDW>
0

>  <SCORE.INTRA.VDW.0>
0

>  <SCORE.INTRA.norm>
0

>  <SCORE.RESTR>
0

>  <SCORE.RESTR.CAVITY>
0

>  <SCORE.RESTR.norm>
0

>  <SCORE.SYSTEM>
0

>  <SCORE.SYSTEM.CONST>
0

>  <SCORE.SYSTEM.DIHEDRAL>
0

>  <SCORE.SYSTEM.SOLV>
0

>  <SCORE.SYSTEM.norm>
0

>  <SCORE.heavy>
11

>  <SCORE.norm>
-1.42956

>  <RMSD>
2.898

$$$$
ligand
 OpenBabel11021811483D
libRbt.so/2013.1/901 2013/11/27
 11 12  0  0  0  0  0  0  0  0999 V2000
   36.6398   -8.5761  -37.8200 N   0  0  0  0  0  0  0  0  0  0  0  0
   35.5242   -9.1911  -38.2402 C   0  0  0  0  0  0  0  0  0  0  0  0
   34.6424   -8.5019  -39.1278 N   0  0  0  0  0  0  0  0  0  0  0  0
   35.2230  -10.4327  -37.8454 N   0  0  0  0  0  0  0  0  0  0  0  0
   36.0616  -11.1163  -36.9866 C   0  0  0  0  0  0  0  0  0  0  0  0
   37.2046  -10.5017  -36.5461 C   0  0  0  0  0  0  0  0  0  0  0  0
   37.5116   -9.1712  -36.9812 C   0  0  0  0  0  0  0  0  0  0  0  0
   38.9798   -8.3404  -36.4454 S   0  0  0  0  0  0  0  0  0  0  0  0
   37.8533  -11.3792  -35.7153 N   0  0  0  0  0  0  0  0  0  0  0  0
   37.1183  -12.5197  -35.6442 C   0  0  0  0  0  0  0  0  0  0  0  0
   36.0083  -12.3783  -36.4221 N   0  0  0  0  0  0  0  0  0  0  0  0
  1  2  2  0  0  0  0
  1  7  1  0  0  0  0
  2  3  1  0  0  0  0
  2  4  1  0  0  0  0
  4  5  2  0  0  0  0
  5  6  1  0  0  0  0
  5 11  1  0  0  0  0
  6  7  2  0  0  0  0
  6  9  1  0  0  0  0
  7  8  1  0  0  0  0
  9 10  1  0  0  0  0
 10 11  2  0  0  0  0
M  END
>  <CHROM.1>
36.88721096,-9.95655025,-37.00904052,1.46269963,-0.52210591,-0.44311115

>  <Name>
ligand

>  <RI>
0

>  <Rbt.Current_Directory>
/home/itssahil/PROJECTS/Mol_Feturizer/New_Systems/rnas/3RKF

>  <Rbt.Executable>
rbdock ($Id: //depot/dev/client3/rdock/2013.1/src/exe/rbdock.cxx#4 $)

>  <Rbt.Library>
libRbt.so (2013.1, Build901 2013/11/27)

>  <Rbt.Parameter_File>
/export/apps/rDock/src/rDock_2013.1_src/data/scripts/dock_solv.prm

>  <Rbt.Receptor>
prm/blind_docking_60.prm

>  <SCORE>
-15.721

>  <SCORE.INTER>
-15.721

>  <SCORE.INTER.CONST>
1

>  <SCORE.INTER.POLAR>
0

>  <SCORE.INTER.ROT>
0

>  <SCORE.INTER.SOLV>
9.82962

>  <SCORE.INTER.VDW>
-17.3572

>  <SCORE.INTER.norm>
-1.42918

>  <SCORE.INTRA>
0

>  <SCORE.INTRA.DIHEDRAL>
0

>  <SCORE.INTRA.DIHEDRAL.0>
0

>  <SCORE.INTRA.POLAR>
0

>  <SCORE.INTRA.POLAR.0>
0

>  <SCORE.INTRA.REPUL>
0

>  <SCORE.INTRA.REPUL.0>
0

>  <SCORE.INTRA.SOLV>
0

>  <SCORE.INTRA.SOLV.lig_0>
-28.6198

>  <SCORE.INTRA.VDW>
0

>  <SCORE.INTRA.VDW.0>
0

>  <SCORE.INTRA.norm>
0

>  <SCORE.RESTR>
0

>  <SCORE.RESTR.CAVITY>
0

>  <SCORE.RESTR.norm>
0

>  <SCORE.SYSTEM>
0

>  <SCORE.SYSTEM.CONST>
0

>  <SCORE.SYSTEM.DIHEDRAL>
0

>  <SCORE.SYSTEM.SOLV>
0

>  <SCORE.SYSTEM.norm>
0

>  <SCORE.heavy>
11

>  <SCORE.norm>
-1.42918

>  <RMSD>
2.898

$$$$
ligand
 OpenBabel11021811483D
libRbt.so/2013.1/901 2013/11/27
 11 12  0  0  0  0  0  0  0  0999 V2000
   36.6061   -8.5809  -37.8347 N   0  0  0  0  0  0  0  0  0  0  0  0
   35.4757   -9.1864  -38.2282 C   0  0  0  0  0  0  0  0  0  0  0  0
   34.5776   -8.4885  -39.0924 N   0  0  0  0  0  0  0  0  0  0  0  0
   35.1747  -10.4264  -37.8283 N   0  0  0  0  0  0  0  0  0  0  0  0
   36.0289  -11.1183  -36.9919 C   0  0  0  0  0  0  0  0  0  0  0  0
   37.1872  -10.5135  -36.5787 C   0  0  0  0  0  0  0  0  0  0  0  0
   37.4938   -9.1845  -37.0188 C   0  0  0  0  0  0  0  0  0  0  0  0
   38.9812   -8.3662  -36.5180 S   0  0  0  0  0  0  0  0  0  0  0  0
   37.8493  -11.3977  -35.7658 N   0  0  0  0  0  0  0  0  0  0  0  0
   37.1075  -12.5326  -35.6787 C   0  0  0  0  0  0  0  0  0  0  0  0
   35.9796  -12.3809  -36.4286 N   0  0  0  0  0  0  0  0  0  0  0  0
  1  2  2  0  0  0  0
  1  7  1  0  0  0  0
  2  3  1  0  0  0  0
  2  4  1  0  0  0  0
  4  5  2  0  0  0  0
  5  6  1  0  0  0  0
  5 11  1  0  0  0  0
  6  7  2  0  0  0  0
  6  9  1  0  0  0  0
  7  8  1  0  0  0  0
  9 10  1  0  0  0  0
 10 11  2  0  0  0  0
M  END
>  <CHROM.1>
36.86271856,-9.96493319,-37.03260957,1.46671876,-0.49637421,-0.43919487

>  <Name>
ligand

>  <RI>
0

>  <Rbt.Current_Directory>
/home/itssahil/PROJECTS/Mol_Feturizer/New_Systems/rnas/3RKF

>  <Rbt.Executable>
rbdock ($Id: //depot/dev/client3/rdock/2013.1/src/exe/rbdock.cxx#4 $)

>  <Rbt.Library>
libRbt.so (2013.1, Build901 2013/11/27)

>  <Rbt.Parameter_File>
/export/apps/rDock/src/rDock_2013.1_src/data/scripts/dock_solv.prm

>  <Rbt.Receptor>
prm/blind_docking_60.prm

>  <SCORE>
-15.8429

>  <SCORE.INTER>
-15.8429

>  <SCORE.INTER.CONST>
1

>  <SCORE.INTER.POLAR>
0

>  <SCORE.INTER.ROT>
0

>  <SCORE.INTER.SOLV>
9.57742

>  <SCORE.INTER.VDW>
-17.3544

>  <SCORE.INTER.norm>
-1.44026

>  <SCORE.INTRA>
0

>  <SCORE.INTRA.DIHEDRAL>
0

>  <SCORE.INTRA.DIHEDRAL.0>
0

>  <SCORE.INTRA.POLAR>
0

>  <SCORE.INTRA.POLAR.0>
0

>  <SCORE.INTRA.REPUL>
0

>  <SCORE.INTRA.REPUL.0>
0

>  <SCORE.INTRA.SOLV>
0

>  <SCORE.INTRA.SOLV.lig_0>
-28.6198

>  <SCORE.INTRA.VDW>
0

>  <SCORE.INTRA.VDW.0>
0

>  <SCORE.INTRA.norm>
0

>  <SCORE.RESTR>
0

>  <SCORE.RESTR.CAVITY>
0

>  <SCORE.RESTR.norm>
0

>  <SCORE.SYSTEM>
0

>  <SCORE.SYSTEM.CONST>
0

>  <SCORE.SYSTEM.DIHEDRAL>
0

>  <SCORE.SYSTEM.SOLV>
0

>  <SCORE.SYSTEM.norm>
0

>  <SCORE.heavy>
11

>  <SCORE.norm>
-1.44026

>  <RMSD>
2.898

$$$$
ligand
 OpenBabel11021811483D
libRbt.so/2013.1/901 2013/11/27
 11 12  0  0  0  0  0  0  0  0999 V2000
   36.6254   -8.5891  -37.8277 N   0  0  0  0  0  0  0  0  0  0  0  0
   35.4930   -9.1913  -38.2204 C   0  0  0  0  0  0  0  0  0  0  0  0
   34.5963   -8.4908  -39.0839 N   0  0  0  0  0  0  0  0  0  0  0  0
   35.1887  -10.4304  -37.8204 N   0  0  0  0  0  0  0  0  0  0  0  0
   36.0415  -11.1248  -36.9846 C   0  0  0  0  0  0  0  0  0  0  0  0
   37.2019  -10.5234  -36.5722 C   0  0  0  0  0  0  0  0  0  0  0  0
   37.5120   -9.1953  -37.0125 C   0  0  0  0  0  0  0  0  0  0  0  0
   39.0021   -8.3813  -36.5128 S   0  0  0  0  0  0  0  0  0  0  0  0
   37.8621  -11.4094  -35.7598 N   0  0  0  0  0  0  0  0  0  0  0  0
   37.1170  -12.5422  -35.6722 C   0  0  0  0  0  0  0  0  0  0  0  0
   35.9891  -12.3873  -36.4212 N   0  0  0  0  0  0  0  0  0  0  0  0
  1  2  2  0  0  0  0
  1  7  1  0  0  0  0
  2  3  1  0  0  0  0
  2  4  1  0  0  0  0
  4  5  2  0  0  0  0
  5  6  1  0  0  0  0
  5 11  1  0  0  0  0
  6  7  2  0  0  0  0
  6  9  1  0  0  0  0
  7  8  1  0  0  0  0
  9 10  1  0  0  0  0
 10 11  2  0  0  0  0
M  END
>  <CHROM.1>
36.87865229,-9.97382776,-37.02587862,1.46411627,-0.49448287,-0.44041769

>  <Name>
ligand

>  <RI>
0

>  <Rbt.Current_Directory>
/home/itssahil/PROJECTS/Mol_Feturizer/New_Systems/rnas/3RKF

>  <Rbt.Executable>
rbdock ($Id: //depot/dev/client3/rdock/2013.1/src/exe/rbdock.cxx#4 $)

>  <Rbt.Library>
libRbt.so (2013.1, Build901 2013/11/27)

>  <Rbt.Parameter_File>
/export/apps/rDock/src/rDock_2013.1_src/data/scripts/dock_solv.prm

>  <Rbt.Receptor>
prm/blind_docking_80.prm

>  <SCORE>
-15.8447

>  <SCORE.INTER>
-15.8447

>  <SCORE.INTER.CONST>
1

>  <SCORE.INTER.POLAR>
0

>  <SCORE.INTER.ROT>
0

>  <SCORE.INTER.SOLV>
9.61135

>  <SCORE.INTER.VDW>
-17.3669

>  <SCORE.INTER.norm>
-1.44042

>  <SCORE.INTRA>
0

>  <SCORE.INTRA.DIHEDRAL>
0

>  <SCORE.INTRA.DIHEDRAL.0>
0

>  <SCORE.INTRA.POLAR>
0

>  <SCORE.INTRA.POLAR.0>
0

>  <SCORE.INTRA.REPUL>
0

>  <SCORE.INTRA.REPUL.0>
0

>  <SCORE.INTRA.SOLV>
0

>  <SCORE.INTRA.SOLV.lig_0>
-28.6198

>  <SCORE.INTRA.VDW>
0

>  <SCORE.INTRA.VDW.0>
0

>  <SCORE.INTRA.norm>
0

>  <SCORE.RESTR>
0

>  <SCORE.RESTR.CAVITY>
0

>  <SCORE.RESTR.norm>
0

>  <SCORE.SYSTEM>
0

>  <SCORE.SYSTEM.CONST>
0

>  <SCORE.SYSTEM.DIHEDRAL>
0

>  <SCORE.SYSTEM.SOLV>
0

>  <SCORE.SYSTEM.norm>
0

>  <SCORE.heavy>
11

>  <SCORE.norm>
-1.44042

>  <RMSD>
2.898

$$$$
ligand
 OpenBabel11021811483D
libRbt.so/2013.1/901 2013/11/27
 11 12  0  0  0  0  0  0  0  0999 V2000
   36.6100   -8.5787  -37.8366 N   0  0  0  0  0  0  0  0  0  0  0  0
   35.4793   -9.1862  -38.2261 C   0  0  0  0  0  0  0  0  0  0  0  0
   34.5777   -8.4906  -39.0885 N   0  0  0  0  0  0  0  0  0  0  0  0
   35.1812  -10.4262  -37.8239 N   0  0  0  0  0  0  0  0  0  0  0  0
   36.0388  -11.1159  -36.9893 C   0  0  0  0  0  0  0  0  0  0  0  0
   37.1975  -10.5091  -36.5801 C   0  0  0  0  0  0  0  0  0  0  0  0
   37.5009   -9.1802  -37.0226 C   0  0  0  0  0  0  0  0  0  0  0  0
   38.9886   -8.3592  -36.5271 S   0  0  0  0  0  0  0  0  0  0  0  0
   37.8632  -11.3914  -35.7682 N   0  0  0  0  0  0  0  0  0  0  0  0
   37.1232  -12.5272  -35.6776 C   0  0  0  0  0  0  0  0  0  0  0  0
   35.9930  -12.3780  -36.4243 N   0  0  0  0  0  0  0  0  0  0  0  0
  1  2  2  0  0  0  0
  1  7  1  0  0  0  0
  2  3  1  0  0  0  0
  2  4  1  0  0  0  0
  4  5  2  0  0  0  0
  5  6  1  0  0  0  0
  5 11  1  0  0  0  0
  6  7  2  0  0  0  0
  6  9  1  0  0  0  0
  7  8  1  0  0  0  0
  9 10  1  0  0  0  0
 10 11  2  0  0  0  0
M  END
>  <CHROM.1>
36.87089088,-9.96146360,-37.03369138,1.46957361,-0.49432787,-0.43897828

>  <Name>
ligand

>  <RI>
0

>  <Rbt.Current_Directory>
/home/itssahil/PROJECTS/Mol_Feturizer/New_Systems/rnas/3RKF

>  <Rbt.Executable>
rbdock ($Id: //depot/dev/client3/rdock/2013.1/src/exe/rbdock.cxx#4 $)

>  <Rbt.Library>
libRbt.so (2013.1, Build901 2013/11/27)

>  <Rbt.Parameter_File>
/export/apps/rDock/src/rDock_2013.1_src/data/scripts/dock_solv.prm

>  <Rbt.Receptor>
prm/blind_docking_80.prm

>  <SCORE>
-15.8416

>  <SCORE.INTER>
-15.8416

>  <SCORE.INTER.CONST>
1

>  <SCORE.INTER.POLAR>
0

>  <SCORE.INTER.ROT>
0

>  <SCORE.INTER.SOLV>
9.57718

>  <SCORE.INTER.VDW>
-17.3535

>  <SCORE.INTER.norm>
-1.44015

>  <SCORE.INTRA>
0

>  <SCORE.INTRA.DIHEDRAL>
0

>  <SCORE.INTRA.DIHEDRAL.0>
0

>  <SCORE.INTRA.POLAR>
0

>  <SCORE.INTRA.POLAR.0>
0

>  <SCORE.INTRA.REPUL>
0

>  <SCORE.INTRA.REPUL.0>
0

>  <SCORE.INTRA.SOLV>
0

>  <SCORE.INTRA.SOLV.lig_0>
-28.6198

>  <SCORE.INTRA.VDW>
0

>  <SCORE.INTRA.VDW.0>
0

>  <SCORE.INTRA.norm>
0

>  <SCORE.RESTR>
0

>  <SCORE.RESTR.CAVITY>
0

>  <SCORE.RESTR.norm>
0

>  <SCORE.SYSTEM>
0

>  <SCORE.SYSTEM.CONST>
0

>  <SCORE.SYSTEM.DIHEDRAL>
0

>  <SCORE.SYSTEM.SOLV>
0

>  <SCORE.SYSTEM.norm>
0

>  <SCORE.heavy>
11

>  <SCORE.norm>
-1.44015

>  <RMSD>
2.898

$$$$
ligand
 OpenBabel11021811483D
libRbt.so/2013.1/901 2013/11/27
 11 12  0  0  0  0  0  0  0  0999 V2000
   36.6625   -8.6688  -37.8895 N   0  0  0  0  0  0  0  0  0  0  0  0
   35.5447   -9.2770  -38.3136 C   0  0  0  0  0  0  0  0  0  0  0  0
   34.6619   -8.5762  -39.1909 N   0  0  0  0  0  0  0  0  0  0  0  0
   35.2423  -10.5224  -37.9321 N   0  0  0  0  0  0  0  0  0  0  0  0
   36.0819  -11.2173  -37.0835 C   0  0  0  0  0  0  0  0  0  0  0  0
   37.2272  -10.6098  -36.6391 C   0  0  0  0  0  0  0  0  0  0  0  0
   37.5355   -9.2750  -37.0598 C   0  0  0  0  0  0  0  0  0  0  0  0
   39.0067   -8.4530  -36.5186 S   0  0  0  0  0  0  0  0  0  0  0  0
   37.8765  -11.4978  -35.8200 N   0  0  0  0  0  0  0  0  0  0  0  0
   37.1396  -12.6378  -35.7600 C   0  0  0  0  0  0  0  0  0  0  0  0
   36.0278  -12.4855  -36.5332 N   0  0  0  0  0  0  0  0  0  0  0  0
  1  2  2  0  0  0  0
  1  7  1  0  0  0  0
  2  3  1  0  0  0  0
  2  4  1  0  0  0  0
  4  5  2  0  0  0  0
  5  6  1  0  0  0  0
  5 11  1  0  0  0  0
  6  7  2  0  0  0  0
  6  9  1  0  0  0  0
  7  8  1  0  0  0  0
  9 10  1  0  0  0  0
 10 11  2  0  0  0  0
M  END
>  <CHROM.1>
36.90959104,-10.05884235,-37.09491476,1.46209042,-0.51890415,-0.43204382

>  <Name>
ligand

>  <RI>
0

>  <Rbt.Current_Directory>
/home/itssahil/PROJECTS/Mol_Feturizer/New_Systems/rnas/3RKF

>  <Rbt.Executable>
rbdock ($Id: //depot/dev/client3/rdock/2013.1/src/exe/rbdock.cxx#4 $)

>  <Rbt.Library>
libRbt.so (2013.1, Build901 2013/11/27)

>  <Rbt.Parameter_File>
/export/apps/rDock/src/rDock_2013.1_src/data/scripts/dock_solv.prm

>  <Rbt.Receptor>
prm/blind_docking_80.prm

>  <SCORE>
-15.715

>  <SCORE.INTER>
-15.715

>  <SCORE.INTER.CONST>
1

>  <SCORE.INTER.POLAR>
0

>  <SCORE.INTER.ROT>
0

>  <SCORE.INTER.SOLV>
10.2508

>  <SCORE.INTER.VDW>
-17.4936

>  <SCORE.INTER.norm>
-1.42864

>  <SCORE.INTRA>
0

>  <SCORE.INTRA.DIHEDRAL>
0

>  <SCORE.INTRA.DIHEDRAL.0>
0

>  <SCORE.INTRA.POLAR>
0

>  <SCORE.INTRA.POLAR.0>
0

>  <SCORE.INTRA.REPUL>
0

>  <SCORE.INTRA.REPUL.0>
0

>  <SCORE.INTRA.SOLV>
0

>  <SCORE.INTRA.SOLV.lig_0>
-28.6198

>  <SCORE.INTRA.VDW>
0

>  <SCORE.INTRA.VDW.0>
0

>  <SCORE.INTRA.norm>
0

>  <SCORE.RESTR>
0

>  <SCORE.RESTR.CAVITY>
0

>  <SCORE.RESTR.norm>
0

>  <SCORE.SYSTEM>
0

>  <SCORE.SYSTEM.CONST>
0

>  <SCORE.SYSTEM.DIHEDRAL>
0

>  <SCORE.SYSTEM.SOLV>
0

>  <SCORE.SYSTEM.norm>
0

>  <SCORE.heavy>
11

>  <SCORE.norm>
-1.42864

>  <RMSD>
2.898

$$$$
ligand
 OpenBabel11021811483D
libRbt.so/2013.1/901 2013/11/27
 11 12  0  0  0  0  0  0  0  0999 V2000
   36.6171   -8.5896  -37.8459 N   0  0  0  0  0  0  0  0  0  0  0  0
   35.4893   -9.1983  -38.2418 C   0  0  0  0  0  0  0  0  0  0  0  0
   34.5938   -8.5051  -39.1124 N   0  0  0  0  0  0  0  0  0  0  0  0
   35.1885  -10.4373  -37.8385 N   0  0  0  0  0  0  0  0  0  0  0  0
   36.0403  -11.1247  -36.9960 C   0  0  0  0  0  0  0  0  0  0  0  0
   37.1960  -10.5166  -36.5803 C   0  0  0  0  0  0  0  0  0  0  0  0
   37.5023   -9.1888  -37.0241 C   0  0  0  0  0  0  0  0  0  0  0  0
   38.9864   -8.3663  -36.5202 S   0  0  0  0  0  0  0  0  0  0  0  0
   37.8561  -11.3966  -35.7613 N   0  0  0  0  0  0  0  0  0  0  0  0
   37.1156  -12.5323  -35.6729 C   0  0  0  0  0  0  0  0  0  0  0  0
   35.9906  -12.3852  -36.4281 N   0  0  0  0  0  0  0  0  0  0  0  0
  1  2  2  0  0  0  0
  1  7  1  0  0  0  0
  2  3  1  0  0  0  0
  2  4  1  0  0  0  0
  4  5  2  0  0  0  0
  5  6  1  0  0  0  0
  5 11  1  0  0  0  0
  6  7  2  0  0  0  0
  6  9  1  0  0  0  0
  7  8  1  0  0  0  0
  9 10  1  0  0  0  0
 10 11  2  0  0  0  0
M  END
>  <CHROM.1>
36.87253438,-9.97018820,-37.03758638,1.46627766,-0.50078118,-0.44320483

>  <Name>
ligand

>  <RI>
0

>  <Rbt.Current_Directory>
/home/itssahil/PROJECTS/Mol_Feturizer/New_Systems/rnas/3RKF

>  <Rbt.Executable>
rbdock ($Id: //depot/dev/client3/rdock/2013.1/src/exe/rbdock.cxx#4 $)

>  <Rbt.Library>
libRbt.so (2013.1, Build901 2013/11/27)

>  <Rbt.Parameter_File>
/export/apps/rDock/src/rDock_2013.1_src/data/scripts/dock_solv.prm

>  <Rbt.Receptor>
prm/pocket_docking_4.prm

>  <SCORE>
-15.8248

>  <SCORE.INTER>
-15.8248

>  <SCORE.INTER.CONST>
1

>  <SCORE.INTER.POLAR>
0

>  <SCORE.INTER.ROT>
0

>  <SCORE.INTER.SOLV>
9.69692

>  <SCORE.INTER.VDW>
-17.3821

>  <SCORE.INTER.norm>
-1.43861

>  <SCORE.INTRA>
0

>  <SCORE.INTRA.DIHEDRAL>
0

>  <SCORE.INTRA.DIHEDRAL.0>
0

>  <SCORE.INTRA.POLAR>
0

>  <SCORE.INTRA.POLAR.0>
0

>  <SCORE.INTRA.REPUL>
0

>  <SCORE.INTRA.REPUL.0>
0

>  <SCORE.INTRA.SOLV>
0

>  <SCORE.INTRA.SOLV.lig_0>
-28.6198

>  <SCORE.INTRA.VDW>
0

>  <SCORE.INTRA.VDW.0>
0

>  <SCORE.INTRA.norm>
0

>  <SCORE.RESTR>
0

>  <SCORE.RESTR.CAVITY>
0

>  <SCORE.RESTR.norm>
0

>  <SCORE.SYSTEM>
0

>  <SCORE.SYSTEM.CONST>
0

>  <SCORE.SYSTEM.DIHEDRAL>
0

>  <SCORE.SYSTEM.SOLV>
0

>  <SCORE.SYSTEM.norm>
0

>  <SCORE.heavy>
11

>  <SCORE.norm>
-1.43861

>  <RMSD>
2.898

$$$$
ligand
 OpenBabel11021811483D
libRbt.so/2013.1/901 2013/11/27
 11 12  0  0  0  0  0  0  0  0999 V2000
   36.6206   -8.5899  -37.8313 N   0  0  0  0  0  0  0  0  0  0  0  0
   35.4885   -9.1926  -38.2244 C   0  0  0  0  0  0  0  0  0  0  0  0
   34.5925   -8.4930  -39.0892 N   0  0  0  0  0  0  0  0  0  0  0  0
   35.1841  -10.4314  -37.8236 N   0  0  0  0  0  0  0  0  0  0  0  0
   36.0363  -11.1250  -36.9866 C   0  0  0  0  0  0  0  0  0  0  0  0
   37.1963  -10.5231  -36.5738 C   0  0  0  0  0  0  0  0  0  0  0  0
   37.5066   -9.1953  -37.0149 C   0  0  0  0  0  0  0  0  0  0  0  0
   38.9963   -8.3807  -36.5147 S   0  0  0  0  0  0  0  0  0  0  0  0
   37.8559  -11.4084  -35.7601 N   0  0  0  0  0  0  0  0  0  0  0  0
   37.1110  -12.5412  -35.6721 C   0  0  0  0  0  0  0  0  0  0  0  0
   35.9836  -12.3870  -36.4222 N   0  0  0  0  0  0  0  0  0  0  0  0
  1  2  2  0  0  0  0
  1  7  1  0  0  0  0
  2  3  1  0  0  0  0
  2  4  1  0  0  0  0
  4  5  2  0  0  0  0
  5  6  1  0  0  0  0
  5 11  1  0  0  0  0
  6  7  2  0  0  0  0
  6  9  1  0  0  0  0
  7  8  1  0  0  0  0
  9 10  1  0  0  0  0
 10 11  2  0  0  0  0
M  END
>  <CHROM.1>
36.87337193,-9.97396335,-37.02813774,1.46385121,-0.49524787,-0.44137808

>  <Name>
ligand

>  <RI>
0

>  <Rbt.Current_Directory>
/home/itssahil/PROJECTS/Mol_Feturizer/New_Systems/rnas/3RKF

>  <Rbt.Executable>
rbdock ($Id: //depot/dev/client3/rdock/2013.1/src/exe/rbdock.cxx#4 $)

>  <Rbt.Library>
libRbt.so (2013.1, Build901 2013/11/27)

>  <Rbt.Parameter_File>
/export/apps/rDock/src/rDock_2013.1_src/data/scripts/dock_solv.prm

>  <Rbt.Receptor>
prm/pocket_docking_4.prm

>  <SCORE>
-15.8452

>  <SCORE.INTER>
-15.8452

>  <SCORE.INTER.CONST>
1

>  <SCORE.INTER.POLAR>
0

>  <SCORE.INTER.ROT>
0

>  <SCORE.INTER.SOLV>
9.61789

>  <SCORE.INTER.VDW>
-17.3694

>  <SCORE.INTER.norm>
-1.44047

>  <SCORE.INTRA>
0

>  <SCORE.INTRA.DIHEDRAL>
0

>  <SCORE.INTRA.DIHEDRAL.0>
0

>  <SCORE.INTRA.POLAR>
0

>  <SCORE.INTRA.POLAR.0>
0

>  <SCORE.INTRA.REPUL>
0

>  <SCORE.INTRA.REPUL.0>
0

>  <SCORE.INTRA.SOLV>
0

>  <SCORE.INTRA.SOLV.lig_0>
-28.6198

>  <SCORE.INTRA.VDW>
0

>  <SCORE.INTRA.VDW.0>
0

>  <SCORE.INTRA.norm>
0

>  <SCORE.RESTR>
0

>  <SCORE.RESTR.CAVITY>
0

>  <SCORE.RESTR.norm>
0

>  <SCORE.SYSTEM>
0

>  <SCORE.SYSTEM.CONST>
0

>  <SCORE.SYSTEM.DIHEDRAL>
0

>  <SCORE.SYSTEM.SOLV>
0

>  <SCORE.SYSTEM.norm>
0

>  <SCORE.heavy>
11

>  <SCORE.norm>
-1.44047

>  <RMSD>
2.898

$$$$
ligand
 OpenBabel11021811483D
libRbt.so/2013.1/901 2013/11/27
 11 12  0  0  0  0  0  0  0  0999 V2000
   36.6099   -8.5970  -37.8304 N   0  0  0  0  0  0  0  0  0  0  0  0
   35.4864   -9.2090  -38.2336 C   0  0  0  0  0  0  0  0  0  0  0  0
   34.5785   -8.5063  -39.0835 N   0  0  0  0  0  0  0  0  0  0  0  0
   35.2014  -10.4598  -37.8566 N   0  0  0  0  0  0  0  0  0  0  0  0
   36.0653  -11.1566  -37.0343 C   0  0  0  0  0  0  0  0  0  0  0  0
   37.2168  -10.5453  -36.6115 C   0  0  0  0  0  0  0  0  0  0  0  0
   37.5062   -9.2047  -37.0271 C   0  0  0  0  0  0  0  0  0  0  0  0
   38.9843   -8.3775  -36.5131 S   0  0  0  0  0  0  0  0  0  0  0  0
   37.8910  -11.4362  -35.8161 N   0  0  0  0  0  0  0  0  0  0  0  0
   37.1634  -12.5816  -35.7491 C   0  0  0  0  0  0  0  0  0  0  0  0
   36.0326  -12.4300  -36.4946 N   0  0  0  0  0  0  0  0  0  0  0  0
  1  2  2  0  0  0  0
  1  7  1  0  0  0  0
  2  3  1  0  0  0  0
  2  4  1  0  0  0  0
  4  5  2  0  0  0  0
  5  6  1  0  0  0  0
  5 11  1  0  0  0  0
  6  7  2  0  0  0  0
  6  9  1  0  0  0  0
  7  8  1  0  0  0  0
  9 10  1  0  0  0  0
 10 11  2  0  0  0  0
M  END
>  <CHROM.1>
36.88483756,-9.99241725,-37.05464852,1.48019866,-0.50016031,-0.41413131

>  <Name>
ligand

>  <RI>
0

>  <Rbt.Current_Directory>
/home/itssahil/PROJECTS/Mol_Feturizer/New_Systems/rnas/3RKF

>  <Rbt.Executable>
rbdock ($Id: //depot/dev/client3/rdock/2013.1/src/exe/rbdock.cxx#4 $)

>  <Rbt.Library>
libRbt.so (2013.1, Build901 2013/11/27)

>  <Rbt.Parameter_File>
/export/apps/rDock/src/rDock_2013.1_src/data/scripts/dock_solv.prm

>  <Rbt.Receptor>
prm/pocket_docking_7.prm

>  <SCORE>
-15.7759

>  <SCORE.INTER>
-15.7759

>  <SCORE.INTER.CONST>
1

>  <SCORE.INTER.POLAR>
0

>  <SCORE.INTER.ROT>
0

>  <SCORE.INTER.SOLV>
9.54962

>  <SCORE.INTER.VDW>
-17.3005

>  <SCORE.INTER.norm>
-1.43418

>  <SCORE.INTRA>
0

>  <SCORE.INTRA.DIHEDRAL>
0

>  <SCORE.INTRA.DIHEDRAL.0>
0

>  <SCORE.INTRA.POLAR>
0

>  <SCORE.INTRA.POLAR.0>
0

>  <SCORE.INTRA.REPUL>
0

>  <SCORE.INTRA.REPUL.0>
0

>  <SCORE.INTRA.SOLV>
0

>  <SCORE.INTRA.SOLV.lig_0>
-28.6198

>  <SCORE.INTRA.VDW>
0

>  <SCORE.INTRA.VDW.0>
0

>  <SCORE.INTRA.norm>
0

>  <SCORE.RESTR>
0

>  <SCORE.RESTR.CAVITY>
0

>  <SCORE.RESTR.norm>
0

>  <SCORE.SYSTEM>
0

>  <SCORE.SYSTEM.CONST>
0

>  <SCORE.SYSTEM.DIHEDRAL>
0

>  <SCORE.SYSTEM.SOLV>
0

>  <SCORE.SYSTEM.norm>
0

>  <SCORE.heavy>
11

>  <SCORE.norm>
-1.43418

>  <RMSD>
2.898

$$$$
ligand
 OpenBabel11021811483D
libRbt.so/2013.1/901 2013/11/27
 11 12  0  0  0  0  0  0  0  0999 V2000
   36.6133   -8.5950  -37.8305 N   0  0  0  0  0  0  0  0  0  0  0  0
   35.4814   -9.1965  -38.2262 C   0  0  0  0  0  0  0  0  0  0  0  0
   34.5878   -8.4958  -39.0926 N   0  0  0  0  0  0  0  0  0  0  0  0
   35.1750  -10.4353  -37.8265 N   0  0  0  0  0  0  0  0  0  0  0  0
   36.0249  -11.1300  -36.9880 C   0  0  0  0  0  0  0  0  0  0  0  0
   37.1846  -10.5293  -36.5726 C   0  0  0  0  0  0  0  0  0  0  0  0
   37.4970   -9.2016  -37.0126 C   0  0  0  0  0  0  0  0  0  0  0  0
   38.9864   -8.3886  -36.5089 S   0  0  0  0  0  0  0  0  0  0  0  0
   37.8418  -11.4155  -35.7580 N   0  0  0  0  0  0  0  0  0  0  0  0
   37.0956  -12.5477  -35.6720 C   0  0  0  0  0  0  0  0  0  0  0  0
   35.9699  -12.3922  -36.4243 N   0  0  0  0  0  0  0  0  0  0  0  0
  1  2  2  0  0  0  0
  1  7  1  0  0  0  0
  2  3  1  0  0  0  0
  2  4  1  0  0  0  0
  4  5  2  0  0  0  0
  5  6  1  0  0  0  0
  5 11  1  0  0  0  0
  6  7  2  0  0  0  0
  6  9  1  0  0  0  0
  7  8  1  0  0  0  0
  9 10  1  0  0  0  0
 10 11  2  0  0  0  0
M  END
>  <CHROM.1>
36.86310168,-9.97968871,-37.02741526,1.46192062,-0.49671591,-0.44187990

>  <Name>
ligand

>  <RI>
0

>  <Rbt.Current_Directory>
/home/itssahil/PROJECTS/Mol_Feturizer/New_Systems/rnas/3RKF

>  <Rbt.Executable>
rbdock ($Id: //depot/dev/client3/rdock/2013.1/src/exe/rbdock.cxx#4 $)

>  <Rbt.Library>
libRbt.so (2013.1, Build901 2013/11/27)

>  <Rbt.Parameter_File>
/export/apps/rDock/src/rDock_2013.1_src/data/scripts/dock_solv.prm

>  <Rbt.Receptor>
prm/pocket_docking_7.prm

>  <SCORE>
-15.8441

>  <SCORE.INTER>
-15.8441

>  <SCORE.INTER.CONST>
1

>  <SCORE.INTER.POLAR>
0

>  <SCORE.INTER.ROT>
0

>  <SCORE.INTER.SOLV>
9.61409

>  <SCORE.INTER.VDW>
-17.3674

>  <SCORE.INTER.norm>
-1.44037

>  <SCORE.INTRA>
0

>  <SCORE.INTRA.DIHEDRAL>
0

>  <SCORE.INTRA.DIHEDRAL.0>
0

>  <SCORE.INTRA.POLAR>
0

>  <SCORE.INTRA.POLAR.0>
0

>  <SCORE.INTRA.REPUL>
0

>  <SCORE.INTRA.REPUL.0>
0

>  <SCORE.INTRA.SOLV>
0

>  <SCORE.INTRA.SOLV.lig_0>
-28.6198

>  <SCORE.INTRA.VDW>
0

>  <SCORE.INTRA.VDW.0>
0

>  <SCORE.INTRA.norm>
0

>  <SCORE.RESTR>
0

>  <SCORE.RESTR.CAVITY>
0

>  <SCORE.RESTR.norm>
0

>  <SCORE.SYSTEM>
0

>  <SCORE.SYSTEM.CONST>
0

>  <SCORE.SYSTEM.DIHEDRAL>
0

>  <SCORE.SYSTEM.SOLV>
0

>  <SCORE.SYSTEM.norm>
0

>  <SCORE.heavy>
11

>  <SCORE.norm>
-1.44037

>  <RMSD>
2.898

$$$$
ligand
 OpenBabel11021811483D
libRbt.so/2013.1/901 2013/11/27
 11 12  0  0  0  0  0  0  0  0999 V2000
   36.6231   -8.5959  -37.8305 N   0  0  0  0  0  0  0  0  0  0  0  0
   35.4931   -9.2012  -38.2257 C   0  0  0  0  0  0  0  0  0  0  0  0
   34.5963   -8.5030  -39.0909 N   0  0  0  0  0  0  0  0  0  0  0  0
   35.1915  -10.4413  -37.8267 N   0  0  0  0  0  0  0  0  0  0  0  0
   36.0445  -11.1335  -36.9894 C   0  0  0  0  0  0  0  0  0  0  0  0
   37.2024  -10.5290  -36.5744 C   0  0  0  0  0  0  0  0  0  0  0  0
   37.5096   -9.1999  -37.0136 C   0  0  0  0  0  0  0  0  0  0  0  0
   38.9964   -8.3818  -36.5105 S   0  0  0  0  0  0  0  0  0  0  0  0
   37.8633  -11.4134  -35.7609 N   0  0  0  0  0  0  0  0  0  0  0  0
   37.1213  -12.5483  -35.6752 C   0  0  0  0  0  0  0  0  0  0  0  0
   35.9945  -12.3963  -36.4265 N   0  0  0  0  0  0  0  0  0  0  0  0
  1  2  2  0  0  0  0
  1  7  1  0  0  0  0
  2  3  1  0  0  0  0
  2  4  1  0  0  0  0
  4  5  2  0  0  0  0
  5  6  1  0  0  0  0
  5 11  1  0  0  0  0
  6  7  2  0  0  0  0
  6  9  1  0  0  0  0
  7  8  1  0  0  0  0
  9 10  1  0  0  0  0
 10 11  2  0  0  0  0
M  END
>  <CHROM.1>
36.87852424,-9.98020136,-37.02857539,1.46599232,-0.49756453,-0.43921353

>  <Name>
ligand

>  <RI>
0

>  <Rbt.Current_Directory>
/home/itssahil/PROJECTS/Mol_Feturizer/New_Systems/rnas/3RKF

>  <Rbt.Executable>
rbdock ($Id: //depot/dev/client3/rdock/2013.1/src/exe/rbdock.cxx#4 $)

>  <Rbt.Library>
libRbt.so (2013.1, Build901 2013/11/27)

>  <Rbt.Parameter_File>
/export/apps/rDock/src/rDock_2013.1_src/data/scripts/dock_solv.prm

>  <Rbt.Receptor>
prm/blind_docking_60.prm

>  <SCORE>
-15.8474

>  <SCORE.INTER>
-15.8474

>  <SCORE.INTER.CONST>
1

>  <SCORE.INTER.POLAR>
0

>  <SCORE.INTER.ROT>
0

>  <SCORE.INTER.SOLV>
9.64392

>  <SCORE.INTER.VDW>
-17.3796

>  <SCORE.INTER.norm>
-1.44068

>  <SCORE.INTRA>
0

>  <SCORE.INTRA.DIHEDRAL>
0

>  <SCORE.INTRA.DIHEDRAL.0>
0

>  <SCORE.INTRA.POLAR>
0

>  <SCORE.INTRA.POLAR.0>
0

>  <SCORE.INTRA.REPUL>
0

>  <SCORE.INTRA.REPUL.0>
0

>  <SCORE.INTRA.SOLV>
0

>  <SCORE.INTRA.SOLV.lig_0>
-28.6198

>  <SCORE.INTRA.VDW>
0

>  <SCORE.INTRA.VDW.0>
0

>  <SCORE.INTRA.norm>
0

>  <SCORE.RESTR>
0

>  <SCORE.RESTR.CAVITY>
0

>  <SCORE.RESTR.norm>
0

>  <SCORE.SYSTEM>
0

>  <SCORE.SYSTEM.CONST>
0

>  <SCORE.SYSTEM.DIHEDRAL>
0

>  <SCORE.SYSTEM.SOLV>
0

>  <SCORE.SYSTEM.norm>
0

>  <SCORE.heavy>
11

>  <SCORE.norm>
-1.44068

>  <RMSD>
2.899

$$$$
ligand
 OpenBabel11021811483D
libRbt.so/2013.1/901 2013/11/27
 11 12  0  0  0  0  0  0  0  0999 V2000
   36.6382   -8.6941  -37.9493 N   0  0  0  0  0  0  0  0  0  0  0  0
   35.5463   -9.3270  -38.4039 C   0  0  0  0  0  0  0  0  0  0  0  0
   34.6632   -8.6395  -39.2915 N   0  0  0  0  0  0  0  0  0  0  0  0
   35.2700  -10.5846  -38.0434 N   0  0  0  0  0  0  0  0  0  0  0  0
   36.1104  -11.2670  -37.1854 C   0  0  0  0  0  0  0  0  0  0  0  0
   37.2292  -10.6344  -36.7099 C   0  0  0  0  0  0  0  0  0  0  0  0
   37.5099   -9.2867  -37.1084 C   0  0  0  0  0  0  0  0  0  0  0  0
   38.9465   -8.4320  -36.5267 S   0  0  0  0  0  0  0  0  0  0  0  0
   37.8852  -11.5145  -35.8876 N   0  0  0  0  0  0  0  0  0  0  0  0
   37.1785  -12.6745  -35.8564 C   0  0  0  0  0  0  0  0  0  0  0  0
   36.0792  -12.5428  -36.6512 N   0  0  0  0  0  0  0  0  0  0  0  0
  1  2  2  0  0  0  0
  1  7  1  0  0  0  0
  2  3  1  0  0  0  0
  2  4  1  0  0  0  0
  4  5  2  0  0  0  0
  5  6  1  0  0  0  0
  5 11  1  0  0  0  0
  6  7  2  0  0  0  0
  6  9  1  0  0  0  0
  7  8  1  0  0  0  0
  9 10  1  0  0  0  0
 10 11  2  0  0  0  0
M  END
>  <CHROM.1>
36.90631319,-10.08660204,-37.16585069,1.48079340,-0.54910922,-0.41060266

>  <Name>
ligand

>  <RI>
0

>  <Rbt.Current_Directory>
/home/itssahil/PROJECTS/Mol_Feturizer/New_Systems/rnas/3RKF

>  <Rbt.Executable>
rbdock ($Id: //depot/dev/client3/rdock/2013.1/src/exe/rbdock.cxx#4 $)

>  <Rbt.Library>
libRbt.so (2013.1, Build901 2013/11/27)

>  <Rbt.Parameter_File>
/export/apps/rDock/src/rDock_2013.1_src/data/scripts/dock_solv.prm

>  <Rbt.Receptor>
prm/blind_docking_60.prm

>  <SCORE>
-15.7232

>  <SCORE.INTER>
-15.7232

>  <SCORE.INTER.CONST>
1

>  <SCORE.INTER.POLAR>
0

>  <SCORE.INTER.ROT>
0

>  <SCORE.INTER.SOLV>
10.7383

>  <SCORE.INTER.VDW>
-17.6616

>  <SCORE.INTER.norm>
-1.42938

>  <SCORE.INTRA>
0

>  <SCORE.INTRA.DIHEDRAL>
0

>  <SCORE.INTRA.DIHEDRAL.0>
0

>  <SCORE.INTRA.POLAR>
0

>  <SCORE.INTRA.POLAR.0>
0

>  <SCORE.INTRA.REPUL>
0

>  <SCORE.INTRA.REPUL.0>
0

>  <SCORE.INTRA.SOLV>
0

>  <SCORE.INTRA.SOLV.lig_0>
-28.6198

>  <SCORE.INTRA.VDW>
0

>  <SCORE.INTRA.VDW.0>
0

>  <SCORE.INTRA.norm>
0

>  <SCORE.RESTR>
0

>  <SCORE.RESTR.CAVITY>
0

>  <SCORE.RESTR.norm>
0

>  <SCORE.SYSTEM>
0

>  <SCORE.SYSTEM.CONST>
0

>  <SCORE.SYSTEM.DIHEDRAL>
0

>  <SCORE.SYSTEM.SOLV>
0

>  <SCORE.SYSTEM.norm>
0

>  <SCORE.heavy>
11

>  <SCORE.norm>
-1.42938

>  <RMSD>
2.899

$$$$
ligand
 OpenBabel11021811483D
libRbt.so/2013.1/901 2013/11/27
 11 12  0  0  0  0  0  0  0  0999 V2000
   36.6077   -8.5869  -37.8335 N   0  0  0  0  0  0  0  0  0  0  0  0
   35.4784   -9.1952  -38.2259 C   0  0  0  0  0  0  0  0  0  0  0  0
   34.5773   -8.4992  -39.0885 N   0  0  0  0  0  0  0  0  0  0  0  0
   35.1813  -10.4362  -37.8264 N   0  0  0  0  0  0  0  0  0  0  0  0
   36.0385  -11.1263  -36.9916 C   0  0  0  0  0  0  0  0  0  0  0  0
   37.1957  -10.5187  -36.5796 C   0  0  0  0  0  0  0  0  0  0  0  0
   37.4981   -9.1886  -37.0192 C   0  0  0  0  0  0  0  0  0  0  0  0
   38.9840   -8.3666  -36.5199 S   0  0  0  0  0  0  0  0  0  0  0  0
   37.8613  -11.4016  -35.7681 N   0  0  0  0  0  0  0  0  0  0  0  0
   37.1226  -12.5385  -35.6807 C   0  0  0  0  0  0  0  0  0  0  0  0
   35.9934  -12.3895  -36.4290 N   0  0  0  0  0  0  0  0  0  0  0  0
  1  2  2  0  0  0  0
  1  7  1  0  0  0  0
  2  3  1  0  0  0  0
  2  4  1  0  0  0  0
  4  5  2  0  0  0  0
  5  6  1  0  0  0  0
  5 11  1  0  0  0  0
  6  7  2  0  0  0  0
  6  9  1  0  0  0  0
  7  8  1  0  0  0  0
  9 10  1  0  0  0  0
 10 11  2  0  0  0  0
M  END
>  <CHROM.1>
36.86914751,-9.97070561,-37.03269068,1.47014230,-0.49630067,-0.43694234

>  <Name>
ligand

>  <RI>
0

>  <Rbt.Current_Directory>
/home/itssahil/PROJECTS/Mol_Feturizer/New_Systems/rnas/3RKF

>  <Rbt.Executable>
rbdock ($Id: //depot/dev/client3/rdock/2013.1/src/exe/rbdock.cxx#4 $)

>  <Rbt.Library>
libRbt.so (2013.1, Build901 2013/11/27)

>  <Rbt.Parameter_File>
/export/apps/rDock/src/rDock_2013.1_src/data/scripts/dock_solv.prm

>  <Rbt.Receptor>
prm/blind_docking_80.prm

>  <SCORE>
-15.8434

>  <SCORE.INTER>
-15.8434

>  <SCORE.INTER.CONST>
1

>  <SCORE.INTER.POLAR>
0

>  <SCORE.INTER.ROT>
0

>  <SCORE.INTER.SOLV>
9.58396

>  <SCORE.INTER.VDW>
-17.3569

>  <SCORE.INTER.norm>
-1.44031

>  <SCORE.INTRA>
0

>  <SCORE.INTRA.DIHEDRAL>
0

>  <SCORE.INTRA.DIHEDRAL.0>
0

>  <SCORE.INTRA.POLAR>
0

>  <SCORE.INTRA.POLAR.0>
0

>  <SCORE.INTRA.REPUL>
0

>  <SCORE.INTRA.REPUL.0>
0

>  <SCORE.INTRA.SOLV>
0

>  <SCORE.INTRA.SOLV.lig_0>
-28.6198

>  <SCORE.INTRA.VDW>
0

>  <SCORE.INTRA.VDW.0>
0

>  <SCORE.INTRA.norm>
0

>  <SCORE.RESTR>
0

>  <SCORE.RESTR.CAVITY>
0

>  <SCORE.RESTR.norm>
0

>  <SCORE.SYSTEM>
0

>  <SCORE.SYSTEM.CONST>
0

>  <SCORE.SYSTEM.DIHEDRAL>
0

>  <SCORE.SYSTEM.SOLV>
0

>  <SCORE.SYSTEM.norm>
0

>  <SCORE.heavy>
11

>  <SCORE.norm>
-1.44031

>  <RMSD>
2.899

$$$$
ligand
 OpenBabel11021811483D
libRbt.so/2013.1/901 2013/11/27
 11 12  0  0  0  0  0  0  0  0999 V2000
   36.6115   -8.5981  -37.8271 N   0  0  0  0  0  0  0  0  0  0  0  0
   35.4827   -9.2024  -38.2271 C   0  0  0  0  0  0  0  0  0  0  0  0
   34.5873   -8.5013  -39.0915 N   0  0  0  0  0  0  0  0  0  0  0  0
   35.1809  -10.4443  -37.8336 N   0  0  0  0  0  0  0  0  0  0  0  0
   36.0325  -11.1393  -36.9972 C   0  0  0  0  0  0  0  0  0  0  0  0
   37.1891  -10.5358  -36.5774 C   0  0  0  0  0  0  0  0  0  0  0  0
   37.4966   -9.2048  -37.0108 C   0  0  0  0  0  0  0  0  0  0  0  0
   38.9819   -8.3880  -36.5013 S   0  0  0  0  0  0  0  0  0  0  0  0
   37.8488  -11.4231  -35.7660 N   0  0  0  0  0  0  0  0  0  0  0  0
   37.1072  -12.5587  -35.6863 C   0  0  0  0  0  0  0  0  0  0  0  0
   35.9819  -12.4044  -36.4394 N   0  0  0  0  0  0  0  0  0  0  0  0
  1  2  2  0  0  0  0
  1  7  1  0  0  0  0
  2  3  1  0  0  0  0
  2  4  1  0  0  0  0
  4  5  2  0  0  0  0
  5  6  1  0  0  0  0
  5 11  1  0  0  0  0
  6  7  2  0  0  0  0
  6  9  1  0  0  0  0
  7  8  1  0  0  0  0
  9 10  1  0  0  0  0
 10 11  2  0  0  0  0
M  END
>  <CHROM.1>
36.86596944,-9.98544251,-37.03011453,1.46552047,-0.49970144,-0.43551030

>  <Name>
ligand

>  <RI>
0

>  <Rbt.Current_Directory>
/home/itssahil/PROJECTS/Mol_Feturizer/New_Systems/rnas/3RKF

>  <Rbt.Executable>
rbdock ($Id: //depot/dev/client3/rdock/2013.1/src/exe/rbdock.cxx#4 $)

>  <Rbt.Library>
libRbt.so (2013.1, Build901 2013/11/27)

>  <Rbt.Parameter_File>
/export/apps/rDock/src/rDock_2013.1_src/data/scripts/dock_solv.prm

>  <Rbt.Receptor>
prm/blind_docking_80.prm

>  <SCORE>
-15.8475

>  <SCORE.INTER>
-15.8475

>  <SCORE.INTER.CONST>
1

>  <SCORE.INTER.POLAR>
0

>  <SCORE.INTER.ROT>
0

>  <SCORE.INTER.SOLV>
9.60829

>  <SCORE.INTER.VDW>
-17.3677

>  <SCORE.INTER.norm>
-1.44068

>  <SCORE.INTRA>
0

>  <SCORE.INTRA.DIHEDRAL>
0

>  <SCORE.INTRA.DIHEDRAL.0>
0

>  <SCORE.INTRA.POLAR>
0

>  <SCORE.INTRA.POLAR.0>
0

>  <SCORE.INTRA.REPUL>
0

>  <SCORE.INTRA.REPUL.0>
0

>  <SCORE.INTRA.SOLV>
0

>  <SCORE.INTRA.SOLV.lig_0>
-28.6198

>  <SCORE.INTRA.VDW>
0

>  <SCORE.INTRA.VDW.0>
0

>  <SCORE.INTRA.norm>
0

>  <SCORE.RESTR>
0

>  <SCORE.RESTR.CAVITY>
0

>  <SCORE.RESTR.norm>
0

>  <SCORE.SYSTEM>
0

>  <SCORE.SYSTEM.CONST>
0

>  <SCORE.SYSTEM.DIHEDRAL>
0

>  <SCORE.SYSTEM.SOLV>
0

>  <SCORE.SYSTEM.norm>
0

>  <SCORE.heavy>
11

>  <SCORE.norm>
-1.44068

>  <RMSD>
2.899

$$$$
ligand
 OpenBabel11021811483D
libRbt.so/2013.1/901 2013/11/27
 11 12  0  0  0  0  0  0  0  0999 V2000
   36.6142   -8.5980  -37.8245 N   0  0  0  0  0  0  0  0  0  0  0  0
   35.4832   -9.2012  -38.2200 C   0  0  0  0  0  0  0  0  0  0  0  0
   34.5864   -8.5003  -39.0829 N   0  0  0  0  0  0  0  0  0  0  0  0
   35.1807  -10.4419  -37.8233 N   0  0  0  0  0  0  0  0  0  0  0  0
   36.0338  -11.1368  -36.9882 C   0  0  0  0  0  0  0  0  0  0  0  0
   37.1926  -10.5343  -36.5730 C   0  0  0  0  0  0  0  0  0  0  0  0
   37.5008   -9.2046  -37.0097 C   0  0  0  0  0  0  0  0  0  0  0  0
   38.9890   -8.3891  -36.5063 S   0  0  0  0  0  0  0  0  0  0  0  0
   37.8534  -11.4211  -35.7620 N   0  0  0  0  0  0  0  0  0  0  0  0
   37.1103  -12.5554  -35.6780 C   0  0  0  0  0  0  0  0  0  0  0  0
   35.9829  -12.4007  -36.4280 N   0  0  0  0  0  0  0  0  0  0  0  0
  1  2  2  0  0  0  0
  1  7  1  0  0  0  0
  2  3  1  0  0  0  0
  2  4  1  0  0  0  0
  4  5  2  0  0  0  0
  5  6  1  0  0  0  0
  5 11  1  0  0  0  0
  6  7  2  0  0  0  0
  6  9  1  0  0  0  0
  7  8  1  0  0  0  0
  9 10  1  0  0  0  0
 10 11  2  0  0  0  0
M  END
>  <CHROM.1>
36.86892821,-9.98421798,-37.02573436,1.46537562,-0.49630980,-0.43739339

>  <Name>
ligand

>  <RI>
0

>  <Rbt.Current_Directory>
/home/itssahil/PROJECTS/Mol_Feturizer/New_Systems/rnas/3RKF

>  <Rbt.Executable>
rbdock ($Id: //depot/dev/client3/rdock/2013.1/src/exe/rbdock.cxx#4 $)

>  <Rbt.Library>
libRbt.so (2013.1, Build901 2013/11/27)

>  <Rbt.Parameter_File>
/export/apps/rDock/src/rDock_2013.1_src/data/scripts/dock_solv.prm

>  <Rbt.Receptor>
prm/blind_docking_80.prm

>  <SCORE>
-15.8453

>  <SCORE.INTER>
-15.8453

>  <SCORE.INTER.CONST>
1

>  <SCORE.INTER.POLAR>
0

>  <SCORE.INTER.ROT>
0

>  <SCORE.INTER.SOLV>
9.59037

>  <SCORE.INTER.VDW>
-17.3604

>  <SCORE.INTER.norm>
-1.44049

>  <SCORE.INTRA>
0

>  <SCORE.INTRA.DIHEDRAL>
0

>  <SCORE.INTRA.DIHEDRAL.0>
0

>  <SCORE.INTRA.POLAR>
0

>  <SCORE.INTRA.POLAR.0>
0

>  <SCORE.INTRA.REPUL>
0

>  <SCORE.INTRA.REPUL.0>
0

>  <SCORE.INTRA.SOLV>
0

>  <SCORE.INTRA.SOLV.lig_0>
-28.6198

>  <SCORE.INTRA.VDW>
0

>  <SCORE.INTRA.VDW.0>
0

>  <SCORE.INTRA.norm>
0

>  <SCORE.RESTR>
0

>  <SCORE.RESTR.CAVITY>
0

>  <SCORE.RESTR.norm>
0

>  <SCORE.SYSTEM>
0

>  <SCORE.SYSTEM.CONST>
0

>  <SCORE.SYSTEM.DIHEDRAL>
0

>  <SCORE.SYSTEM.SOLV>
0

>  <SCORE.SYSTEM.norm>
0

>  <SCORE.heavy>
11

>  <SCORE.norm>
-1.44049

>  <RMSD>
2.899

$$$$
ligand
 OpenBabel11021811483D
libRbt.so/2013.1/901 2013/11/27
 11 12  0  0  0  0  0  0  0  0999 V2000
   36.6183   -8.5937  -37.8348 N   0  0  0  0  0  0  0  0  0  0  0  0
   35.4885   -9.2002  -38.2284 C   0  0  0  0  0  0  0  0  0  0  0  0
   34.5914   -8.5044  -39.0953 N   0  0  0  0  0  0  0  0  0  0  0  0
   35.1871  -10.4393  -37.8262 N   0  0  0  0  0  0  0  0  0  0  0  0
   36.0403  -11.1293  -36.9872 C   0  0  0  0  0  0  0  0  0  0  0  0
   37.1981  -10.5235  -36.5739 C   0  0  0  0  0  0  0  0  0  0  0  0
   37.5051   -9.1954  -37.0165 C   0  0  0  0  0  0  0  0  0  0  0  0
   38.9918   -8.3759  -36.5157 S   0  0  0  0  0  0  0  0  0  0  0  0
   37.8593  -11.4058  -35.7582 N   0  0  0  0  0  0  0  0  0  0  0  0
   37.1175  -12.5405  -35.6695 C   0  0  0  0  0  0  0  0  0  0  0  0
   35.9906  -12.3907  -36.4211 N   0  0  0  0  0  0  0  0  0  0  0  0
  1  2  2  0  0  0  0
  1  7  1  0  0  0  0
  2  3  1  0  0  0  0
  2  4  1  0  0  0  0
  4  5  2  0  0  0  0
  5  6  1  0  0  0  0
  5 11  1  0  0  0  0
  6  7  2  0  0  0  0
  6  9  1  0  0  0  0
  7  8  1  0  0  0  0
  9 10  1  0  0  0  0
 10 11  2  0  0  0  0
M  END
>  <CHROM.1>
36.87412368,-9.97592547,-37.02940419,1.46622992,-0.49753915,-0.44164413

>  <Name>
ligand

>  <RI>
0

>  <Rbt.Current_Directory>
/home/itssahil/PROJECTS/Mol_Feturizer/New_Systems/rnas/3RKF

>  <Rbt.Executable>
rbdock ($Id: //depot/dev/client3/rdock/2013.1/src/exe/rbdock.cxx#4 $)

>  <Rbt.Library>
libRbt.so (2013.1, Build901 2013/11/27)

>  <Rbt.Parameter_File>
/export/apps/rDock/src/rDock_2013.1_src/data/scripts/dock_solv.prm

>  <Rbt.Receptor>
prm/blind_docking_80.prm

>  <SCORE>
-15.8476

>  <SCORE.INTER>
-15.8476

>  <SCORE.INTER.CONST>
1

>  <SCORE.INTER.POLAR>
0

>  <SCORE.INTER.ROT>
0

>  <SCORE.INTER.SOLV>
9.64849

>  <SCORE.INTER.VDW>
-17.3812

>  <SCORE.INTER.norm>
-1.44069

>  <SCORE.INTRA>
0

>  <SCORE.INTRA.DIHEDRAL>
0

>  <SCORE.INTRA.DIHEDRAL.0>
0

>  <SCORE.INTRA.POLAR>
0

>  <SCORE.INTRA.POLAR.0>
0

>  <SCORE.INTRA.REPUL>
0

>  <SCORE.INTRA.REPUL.0>
0

>  <SCORE.INTRA.SOLV>
0

>  <SCORE.INTRA.SOLV.lig_0>
-28.6198

>  <SCORE.INTRA.VDW>
0

>  <SCORE.INTRA.VDW.0>
0

>  <SCORE.INTRA.norm>
0

>  <SCORE.RESTR>
0

>  <SCORE.RESTR.CAVITY>
0

>  <SCORE.RESTR.norm>
0

>  <SCORE.SYSTEM>
0

>  <SCORE.SYSTEM.CONST>
0

>  <SCORE.SYSTEM.DIHEDRAL>
0

>  <SCORE.SYSTEM.SOLV>
0

>  <SCORE.SYSTEM.norm>
0

>  <SCORE.heavy>
11

>  <SCORE.norm>
-1.44069

>  <RMSD>
2.899

$$$$
ligand
 OpenBabel11021811483D
libRbt.so/2013.1/901 2013/11/27
 11 12  0  0  0  0  0  0  0  0999 V2000
   36.6408   -8.6729  -37.8260 N   0  0  0  0  0  0  0  0  0  0  0  0
   35.5270   -9.2745  -38.2694 C   0  0  0  0  0  0  0  0  0  0  0  0
   34.6249   -8.5423  -39.1003 N   0  0  0  0  0  0  0  0  0  0  0  0
   35.2461  -10.5422  -37.9497 N   0  0  0  0  0  0  0  0  0  0  0  0
   36.1046  -11.2676  -37.1467 C   0  0  0  0  0  0  0  0  0  0  0  0
   37.2461  -10.6673  -36.6833 C   0  0  0  0  0  0  0  0  0  0  0  0
   37.5312   -9.3083  -37.0377 C   0  0  0  0  0  0  0  0  0  0  0  0
   38.9966   -8.4940  -36.4698 S   0  0  0  0  0  0  0  0  0  0  0  0
   37.9166  -11.5868  -35.9178 N   0  0  0  0  0  0  0  0  0  0  0  0
   37.1964  -12.7389  -35.9092 C   0  0  0  0  0  0  0  0  0  0  0  0
   36.0742  -12.5631  -36.6621 N   0  0  0  0  0  0  0  0  0  0  0  0
  1  2  2  0  0  0  0
  1  7  1  0  0  0  0
  2  3  1  0  0  0  0
  2  4  1  0  0  0  0
  4  5  2  0  0  0  0
  5  6  1  0  0  0  0
  5 11  1  0  0  0  0
  6  7  2  0  0  0  0
  6  9  1  0  0  0  0
  7  8  1  0  0  0  0
  9 10  1  0  0  0  0
 10 11  2  0  0  0  0
M  END
>  <CHROM.1>
36.91590120,-10.09826417,-37.10677971,1.48189337,-0.51467669,-0.37068214

>  <Name>
ligand

>  <RI>
0

>  <Rbt.Current_Directory>
/home/itssahil/PROJECTS/Mol_Feturizer/New_Systems/rnas/3RKF

>  <Rbt.Executable>
rbdock ($Id: //depot/dev/client3/rdock/2013.1/src/exe/rbdock.cxx#4 $)

>  <Rbt.Library>
libRbt.so (2013.1, Build901 2013/11/27)

>  <Rbt.Parameter_File>
/export/apps/rDock/src/rDock_2013.1_src/data/scripts/dock_solv.prm

>  <Rbt.Receptor>
prm/pocket_docking_3.prm

>  <SCORE>
-15.6896

>  <SCORE.INTER>
-15.6896

>  <SCORE.INTER.CONST>
1

>  <SCORE.INTER.POLAR>
0

>  <SCORE.INTER.ROT>
0

>  <SCORE.INTER.SOLV>
9.7104

>  <SCORE.INTER.VDW>
-17.2965

>  <SCORE.INTER.norm>
-1.42632

>  <SCORE.INTRA>
0

>  <SCORE.INTRA.DIHEDRAL>
0

>  <SCORE.INTRA.DIHEDRAL.0>
0

>  <SCORE.INTRA.POLAR>
0

>  <SCORE.INTRA.POLAR.0>
0

>  <SCORE.INTRA.REPUL>
0

>  <SCORE.INTRA.REPUL.0>
0

>  <SCORE.INTRA.SOLV>
0

>  <SCORE.INTRA.SOLV.lig_0>
-28.6198

>  <SCORE.INTRA.VDW>
0

>  <SCORE.INTRA.VDW.0>
0

>  <SCORE.INTRA.norm>
0

>  <SCORE.RESTR>
0

>  <SCORE.RESTR.CAVITY>
0

>  <SCORE.RESTR.norm>
0

>  <SCORE.SYSTEM>
0

>  <SCORE.SYSTEM.CONST>
0

>  <SCORE.SYSTEM.DIHEDRAL>
0

>  <SCORE.SYSTEM.SOLV>
0

>  <SCORE.SYSTEM.norm>
0

>  <SCORE.heavy>
11

>  <SCORE.norm>
-1.42632

>  <RMSD>
2.899

$$$$
ligand
 OpenBabel11021811483D
libRbt.so/2013.1/901 2013/11/27
 11 12  0  0  0  0  0  0  0  0999 V2000
   36.6329   -8.5966  -37.8287 N   0  0  0  0  0  0  0  0  0  0  0  0
   35.5013   -9.1996  -38.2228 C   0  0  0  0  0  0  0  0  0  0  0  0
   34.6046   -8.4991  -39.0863 N   0  0  0  0  0  0  0  0  0  0  0  0
   35.1980  -10.4395  -37.8244 N   0  0  0  0  0  0  0  0  0  0  0  0
   36.0510  -11.1339  -36.9888 C   0  0  0  0  0  0  0  0  0  0  0  0
   37.2104  -10.5318  -36.5749 C   0  0  0  0  0  0  0  0  0  0  0  0
   37.5195   -9.2029  -37.0135 C   0  0  0  0  0  0  0  0  0  0  0  0
   39.0084   -8.3879  -36.5118 S   0  0  0  0  0  0  0  0  0  0  0  0
   37.8709  -11.4181  -35.7630 N   0  0  0  0  0  0  0  0  0  0  0  0
   37.1269  -12.5517  -35.6772 C   0  0  0  0  0  0  0  0  0  0  0  0
   35.9994  -12.3971  -36.4269 N   0  0  0  0  0  0  0  0  0  0  0  0
  1  2  2  0  0  0  0
  1  7  1  0  0  0  0
  2  3  1  0  0  0  0
  2  4  1  0  0  0  0
  4  5  2  0  0  0  0
  5  6  1  0  0  0  0
  5 11  1  0  0  0  0
  6  7  2  0  0  0  0
  6  9  1  0  0  0  0
  7  8  1  0  0  0  0
  9 10  1  0  0  0  0
 10 11  2  0  0  0  0
M  END
>  <CHROM.1>
36.88695620,-9.98205169,-37.02817853,1.46480098,-0.49557278,-0.43898011

>  <Name>
ligand

>  <RI>
0

>  <Rbt.Current_Directory>
/home/itssahil/PROJECTS/Mol_Feturizer/New_Systems/rnas/3RKF

>  <Rbt.Executable>
rbdock ($Id: //depot/dev/client3/rdock/2013.1/src/exe/rbdock.cxx#4 $)

>  <Rbt.Library>
libRbt.so (2013.1, Build901 2013/11/27)

>  <Rbt.Parameter_File>
/export/apps/rDock/src/rDock_2013.1_src/data/scripts/dock_solv.prm

>  <Rbt.Receptor>
prm/pocket_docking_4.prm

>  <SCORE>
-15.8077

>  <SCORE.INTER>
-15.8077

>  <SCORE.INTER.CONST>
1

>  <SCORE.INTER.POLAR>
0

>  <SCORE.INTER.ROT>
0

>  <SCORE.INTER.SOLV>
9.64848

>  <SCORE.INTER.VDW>
-17.3546

>  <SCORE.INTER.norm>
-1.43706

>  <SCORE.INTRA>
0

>  <SCORE.INTRA.DIHEDRAL>
0

>  <SCORE.INTRA.DIHEDRAL.0>
0

>  <SCORE.INTRA.POLAR>
0

>  <SCORE.INTRA.POLAR.0>
0

>  <SCORE.INTRA.REPUL>
0

>  <SCORE.INTRA.REPUL.0>
0

>  <SCORE.INTRA.SOLV>
0

>  <SCORE.INTRA.SOLV.lig_0>
-28.6198

>  <SCORE.INTRA.VDW>
0

>  <SCORE.INTRA.VDW.0>
0

>  <SCORE.INTRA.norm>
0

>  <SCORE.RESTR>
0

>  <SCORE.RESTR.CAVITY>
0

>  <SCORE.RESTR.norm>
0

>  <SCORE.SYSTEM>
0

>  <SCORE.SYSTEM.CONST>
0

>  <SCORE.SYSTEM.DIHEDRAL>
0

>  <SCORE.SYSTEM.SOLV>
0

>  <SCORE.SYSTEM.norm>
0

>  <SCORE.heavy>
11

>  <SCORE.norm>
-1.43706

>  <RMSD>
2.899

$$$$
ligand
 OpenBabel11021811483D
libRbt.so/2013.1/901 2013/11/27
 11 12  0  0  0  0  0  0  0  0999 V2000
   36.6074   -8.5959  -37.8314 N   0  0  0  0  0  0  0  0  0  0  0  0
   35.4797   -9.2032  -38.2298 C   0  0  0  0  0  0  0  0  0  0  0  0
   34.5823   -8.5053  -39.0946 N   0  0  0  0  0  0  0  0  0  0  0  0
   35.1809  -10.4451  -37.8343 N   0  0  0  0  0  0  0  0  0  0  0  0
   36.0345  -11.1371  -36.9974 C   0  0  0  0  0  0  0  0  0  0  0  0
   37.1900  -10.5305  -36.5792 C   0  0  0  0  0  0  0  0  0  0  0  0
   37.4944   -9.1994  -37.0146 C   0  0  0  0  0  0  0  0  0  0  0  0
   38.9782   -8.3786  -36.5073 S   0  0  0  0  0  0  0  0  0  0  0  0
   37.8522  -11.4151  -35.7668 N   0  0  0  0  0  0  0  0  0  0  0  0
   37.1131  -12.5522  -35.6850 C   0  0  0  0  0  0  0  0  0  0  0  0
   35.9870  -12.4014  -36.4377 N   0  0  0  0  0  0  0  0  0  0  0  0
  1  2  2  0  0  0  0
  1  7  1  0  0  0  0
  2  3  1  0  0  0  0
  2  4  1  0  0  0  0
  4  5  2  0  0  0  0
  5  6  1  0  0  0  0
  5 11  1  0  0  0  0
  6  7  2  0  0  0  0
  6  9  1  0  0  0  0
  7  8  1  0  0  0  0
  9 10  1  0  0  0  0
 10 11  2  0  0  0  0
M  END
>  <CHROM.1>
36.86540841,-9.98144169,-37.03244163,1.46805340,-0.50007048,-0.43576584

>  <Name>
ligand

>  <RI>
0

>  <Rbt.Current_Directory>
/home/itssahil/PROJECTS/Mol_Feturizer/New_Systems/rnas/3RKF

>  <Rbt.Executable>
rbdock ($Id: //depot/dev/client3/rdock/2013.1/src/exe/rbdock.cxx#4 $)

>  <Rbt.Library>
libRbt.so (2013.1, Build901 2013/11/27)

>  <Rbt.Parameter_File>
/export/apps/rDock/src/rDock_2013.1_src/data/scripts/dock_solv.prm

>  <Rbt.Receptor>
prm/pocket_docking_7.prm

>  <SCORE>
-15.847

>  <SCORE.INTER>
-15.847

>  <SCORE.INTER.CONST>
1

>  <SCORE.INTER.POLAR>
0

>  <SCORE.INTER.ROT>
0

>  <SCORE.INTER.SOLV>
9.61219

>  <SCORE.INTER.VDW>
-17.3687

>  <SCORE.INTER.norm>
-1.44064

>  <SCORE.INTRA>
0

>  <SCORE.INTRA.DIHEDRAL>
0

>  <SCORE.INTRA.DIHEDRAL.0>
0

>  <SCORE.INTRA.POLAR>
0

>  <SCORE.INTRA.POLAR.0>
0

>  <SCORE.INTRA.REPUL>
0

>  <SCORE.INTRA.REPUL.0>
0

>  <SCORE.INTRA.SOLV>
0

>  <SCORE.INTRA.SOLV.lig_0>
-28.6198

>  <SCORE.INTRA.VDW>
0

>  <SCORE.INTRA.VDW.0>
0

>  <SCORE.INTRA.norm>
0

>  <SCORE.RESTR>
0

>  <SCORE.RESTR.CAVITY>
0

>  <SCORE.RESTR.norm>
0

>  <SCORE.SYSTEM>
0

>  <SCORE.SYSTEM.CONST>
0

>  <SCORE.SYSTEM.DIHEDRAL>
0

>  <SCORE.SYSTEM.SOLV>
0

>  <SCORE.SYSTEM.norm>
0

>  <SCORE.heavy>
11

>  <SCORE.norm>
-1.44064

>  <RMSD>
2.899

$$$$
ligand
 OpenBabel11021811483D
libRbt.so/2013.1/901 2013/11/27
 11 12  0  0  0  0  0  0  0  0999 V2000
   36.6192   -8.5789  -37.8256 N   0  0  0  0  0  0  0  0  0  0  0  0
   35.4952   -9.1940  -38.2225 C   0  0  0  0  0  0  0  0  0  0  0  0
   34.5950   -8.5048  -39.0914 N   0  0  0  0  0  0  0  0  0  0  0  0
   35.2026  -10.4357  -37.8218 N   0  0  0  0  0  0  0  0  0  0  0  0
   36.0590  -11.1194  -36.9809 C   0  0  0  0  0  0  0  0  0  0  0  0
   37.2109  -10.5047  -36.5642 C   0  0  0  0  0  0  0  0  0  0  0  0
   37.5085   -9.1741  -37.0053 C   0  0  0  0  0  0  0  0  0  0  0  0
   38.9874   -8.3431  -36.5001 S   0  0  0  0  0  0  0  0  0  0  0  0
   37.8769  -11.3822  -35.7473 N   0  0  0  0  0  0  0  0  0  0  0  0
   37.1438  -12.5229  -35.6612 C   0  0  0  0  0  0  0  0  0  0  0  0
   36.0177  -12.3815  -36.4157 N   0  0  0  0  0  0  0  0  0  0  0  0
  1  2  2  0  0  0  0
  1  7  1  0  0  0  0
  2  3  1  0  0  0  0
  2  4  1  0  0  0  0
  4  5  2  0  0  0  0
  5  6  1  0  0  0  0
  5 11  1  0  0  0  0
  6  7  2  0  0  0  0
  6  9  1  0  0  0  0
  7  8  1  0  0  0  0
  9 10  1  0  0  0  0
 10 11  2  0  0  0  0
M  END
>  <CHROM.1>
36.88379731,-9.95949514,-37.02030417,1.47309793,-0.50327793,-0.43779176

>  <Name>
ligand

>  <RI>
0

>  <Rbt.Current_Directory>
/home/itssahil/PROJECTS/Mol_Feturizer/New_Systems/rnas/3RKF

>  <Rbt.Executable>
rbdock ($Id: //depot/dev/client3/rdock/2013.1/src/exe/rbdock.cxx#4 $)

>  <Rbt.Library>
libRbt.so (2013.1, Build901 2013/11/27)

>  <Rbt.Parameter_File>
/export/apps/rDock/src/rDock_2013.1_src/data/scripts/dock_solv.prm

>  <Rbt.Receptor>
prm/blind_docking_60.prm

>  <SCORE>
-15.7761

>  <SCORE.INTER>
-15.7761

>  <SCORE.INTER.CONST>
1

>  <SCORE.INTER.POLAR>
0

>  <SCORE.INTER.ROT>
0

>  <SCORE.INTER.SOLV>
9.64604

>  <SCORE.INTER.VDW>
-17.3327

>  <SCORE.INTER.norm>
-1.43419

>  <SCORE.INTRA>
0

>  <SCORE.INTRA.DIHEDRAL>
0

>  <SCORE.INTRA.DIHEDRAL.0>
0

>  <SCORE.INTRA.POLAR>
0

>  <SCORE.INTRA.POLAR.0>
0

>  <SCORE.INTRA.REPUL>
0

>  <SCORE.INTRA.REPUL.0>
0

>  <SCORE.INTRA.SOLV>
0

>  <SCORE.INTRA.SOLV.lig_0>
-28.6198

>  <SCORE.INTRA.VDW>
0

>  <SCORE.INTRA.VDW.0>
0

>  <SCORE.INTRA.norm>
0

>  <SCORE.RESTR>
0

>  <SCORE.RESTR.CAVITY>
0

>  <SCORE.RESTR.norm>
0

>  <SCORE.SYSTEM>
0

>  <SCORE.SYSTEM.CONST>
0

>  <SCORE.SYSTEM.DIHEDRAL>
0

>  <SCORE.SYSTEM.SOLV>
0

>  <SCORE.SYSTEM.norm>
0

>  <SCORE.heavy>
11

>  <SCORE.norm>
-1.43419

>  <RMSD>
2.900

$$$$
ligand
 OpenBabel11021811483D
libRbt.so/2013.1/901 2013/11/27
 11 12  0  0  0  0  0  0  0  0999 V2000
   36.6241   -8.5959  -37.8343 N   0  0  0  0  0  0  0  0  0  0  0  0
   35.4929   -9.2013  -38.2258 C   0  0  0  0  0  0  0  0  0  0  0  0
   34.5958   -8.5053  -39.0924 N   0  0  0  0  0  0  0  0  0  0  0  0
   35.1903  -10.4396  -37.8218 N   0  0  0  0  0  0  0  0  0  0  0  0
   36.0437  -11.1298  -36.9831 C   0  0  0  0  0  0  0  0  0  0  0  0
   37.2027  -10.5251  -36.5719 C   0  0  0  0  0  0  0  0  0  0  0  0
   37.5110   -9.1980  -37.0163 C   0  0  0  0  0  0  0  0  0  0  0  0
   38.9994   -8.3798  -36.5182 S   0  0  0  0  0  0  0  0  0  0  0  0
   37.8637  -11.4073  -35.7560 N   0  0  0  0  0  0  0  0  0  0  0  0
   37.1205  -12.5410  -35.6651 C   0  0  0  0  0  0  0  0  0  0  0  0
   35.9929  -12.3905  -36.4156 N   0  0  0  0  0  0  0  0  0  0  0  0
  1  2  2  0  0  0  0
  1  7  1  0  0  0  0
  2  3  1  0  0  0  0
  2  4  1  0  0  0  0
  4  5  2  0  0  0  0
  5  6  1  0  0  0  0
  5 11  1  0  0  0  0
  6  7  2  0  0  0  0
  6  9  1  0  0  0  0
  7  8  1  0  0  0  0
  9 10  1  0  0  0  0
 10 11  2  0  0  0  0
M  END
>  <CHROM.1>
36.87893423,-9.97760020,-37.02758317,1.46542709,-0.49588297,-0.44314375

>  <Name>
ligand

>  <RI>
0

>  <Rbt.Current_Directory>
/home/itssahil/PROJECTS/Mol_Feturizer/New_Systems/rnas/3RKF

>  <Rbt.Executable>
rbdock ($Id: //depot/dev/client3/rdock/2013.1/src/exe/rbdock.cxx#4 $)

>  <Rbt.Library>
libRbt.so (2013.1, Build901 2013/11/27)

>  <Rbt.Parameter_File>
/export/apps/rDock/src/rDock_2013.1_src/data/scripts/dock_solv.prm

>  <Rbt.Receptor>
prm/blind_docking_60.prm

>  <SCORE>
-15.8458

>  <SCORE.INTER>
-15.8458

>  <SCORE.INTER.CONST>
1

>  <SCORE.INTER.POLAR>
0

>  <SCORE.INTER.ROT>
0

>  <SCORE.INTER.SOLV>
9.65779

>  <SCORE.INTER.VDW>
-17.3832

>  <SCORE.INTER.norm>
-1.44053

>  <SCORE.INTRA>
0

>  <SCORE.INTRA.DIHEDRAL>
0

>  <SCORE.INTRA.DIHEDRAL.0>
0

>  <SCORE.INTRA.POLAR>
0

>  <SCORE.INTRA.POLAR.0>
0

>  <SCORE.INTRA.REPUL>
0

>  <SCORE.INTRA.REPUL.0>
0

>  <SCORE.INTRA.SOLV>
0

>  <SCORE.INTRA.SOLV.lig_0>
-28.6198

>  <SCORE.INTRA.VDW>
0

>  <SCORE.INTRA.VDW.0>
0

>  <SCORE.INTRA.norm>
0

>  <SCORE.RESTR>
0

>  <SCORE.RESTR.CAVITY>
0

>  <SCORE.RESTR.norm>
0

>  <SCORE.SYSTEM>
0

>  <SCORE.SYSTEM.CONST>
0

>  <SCORE.SYSTEM.DIHEDRAL>
0

>  <SCORE.SYSTEM.SOLV>
0

>  <SCORE.SYSTEM.norm>
0

>  <SCORE.heavy>
11

>  <SCORE.norm>
-1.44053

>  <RMSD>
2.900

$$$$
ligand
 OpenBabel11021811483D
libRbt.so/2013.1/901 2013/11/27
 11 12  0  0  0  0  0  0  0  0999 V2000
   36.6073   -8.5973  -37.8344 N   0  0  0  0  0  0  0  0  0  0  0  0
   35.4801   -9.2064  -38.2318 C   0  0  0  0  0  0  0  0  0  0  0  0
   34.5827   -8.5113  -39.0988 N   0  0  0  0  0  0  0  0  0  0  0  0
   35.1818  -10.4474  -37.8332 N   0  0  0  0  0  0  0  0  0  0  0  0
   36.0355  -11.1368  -36.9941 C   0  0  0  0  0  0  0  0  0  0  0  0
   37.1905  -10.5283  -36.5770 C   0  0  0  0  0  0  0  0  0  0  0  0
   37.4942   -9.1983  -37.0157 C   0  0  0  0  0  0  0  0  0  0  0  0
   38.9773   -8.3752  -36.5098 S   0  0  0  0  0  0  0  0  0  0  0  0
   37.8528  -11.4105  -35.7621 N   0  0  0  0  0  0  0  0  0  0  0  0
   37.1143  -12.5478  -35.6777 C   0  0  0  0  0  0  0  0  0  0  0  0
   35.9885  -12.3997  -36.4312 N   0  0  0  0  0  0  0  0  0  0  0  0
  1  2  2  0  0  0  0
  1  7  1  0  0  0  0
  2  3  1  0  0  0  0
  2  4  1  0  0  0  0
  4  5  2  0  0  0  0
  5  6  1  0  0  0  0
  5 11  1  0  0  0  0
  6  7  2  0  0  0  0
  6  9  1  0  0  0  0
  7  8  1  0  0  0  0
  9 10  1  0  0  0  0
 10 11  2  0  0  0  0
M  END
>  <CHROM.1>
36.86572375,-9.98068526,-37.03179806,1.46846379,-0.50076098,-0.43813585

>  <Name>
ligand

>  <RI>
0

>  <Rbt.Current_Directory>
/home/itssahil/PROJECTS/Mol_Feturizer/New_Systems/rnas/3RKF

>  <Rbt.Executable>
rbdock ($Id: //depot/dev/client3/rdock/2013.1/src/exe/rbdock.cxx#4 $)

>  <Rbt.Library>
libRbt.so (2013.1, Build901 2013/11/27)

>  <Rbt.Parameter_File>
/export/apps/rDock/src/rDock_2013.1_src/data/scripts/dock_solv.prm

>  <Rbt.Receptor>
prm/blind_docking_60.prm

>  <SCORE>
-15.8484

>  <SCORE.INTER>
-15.8484

>  <SCORE.INTER.CONST>
1

>  <SCORE.INTER.POLAR>
0

>  <SCORE.INTER.ROT>
0

>  <SCORE.INTER.SOLV>
9.63689

>  <SCORE.INTER.VDW>
-17.3779

>  <SCORE.INTER.norm>
-1.44076

>  <SCORE.INTRA>
0

>  <SCORE.INTRA.DIHEDRAL>
0

>  <SCORE.INTRA.DIHEDRAL.0>
0

>  <SCORE.INTRA.POLAR>
0

>  <SCORE.INTRA.POLAR.0>
0

>  <SCORE.INTRA.REPUL>
0

>  <SCORE.INTRA.REPUL.0>
0

>  <SCORE.INTRA.SOLV>
0

>  <SCORE.INTRA.SOLV.lig_0>
-28.6198

>  <SCORE.INTRA.VDW>
0

>  <SCORE.INTRA.VDW.0>
0

>  <SCORE.INTRA.norm>
0

>  <SCORE.RESTR>
0

>  <SCORE.RESTR.CAVITY>
0

>  <SCORE.RESTR.norm>
0

>  <SCORE.SYSTEM>
0

>  <SCORE.SYSTEM.CONST>
0

>  <SCORE.SYSTEM.DIHEDRAL>
0

>  <SCORE.SYSTEM.SOLV>
0

>  <SCORE.SYSTEM.norm>
0

>  <SCORE.heavy>
11

>  <SCORE.norm>
-1.44076

>  <RMSD>
2.900

$$$$
ligand
 OpenBabel11021811483D
libRbt.so/2013.1/901 2013/11/27
 11 12  0  0  0  0  0  0  0  0999 V2000
   36.6255   -8.5869  -37.8320 N   0  0  0  0  0  0  0  0  0  0  0  0
   35.5046   -9.2053  -38.2329 C   0  0  0  0  0  0  0  0  0  0  0  0
   34.5978   -8.5127  -39.0922 N   0  0  0  0  0  0  0  0  0  0  0  0
   35.2212  -10.4531  -37.8450 N   0  0  0  0  0  0  0  0  0  0  0  0
   36.0842  -11.1401  -37.0135 C   0  0  0  0  0  0  0  0  0  0  0  0
   37.2329  -10.5223  -36.5929 C   0  0  0  0  0  0  0  0  0  0  0  0
   37.5207   -9.1850  -37.0202 C   0  0  0  0  0  0  0  0  0  0  0  0
   38.9952   -8.3497  -36.5095 S   0  0  0  0  0  0  0  0  0  0  0  0
   37.9067  -11.4041  -35.7870 N   0  0  0  0  0  0  0  0  0  0  0  0
   37.1814  -12.5505  -35.7116 C   0  0  0  0  0  0  0  0  0  0  0  0
   36.0526  -12.4085  -36.4619 N   0  0  0  0  0  0  0  0  0  0  0  0
  1  2  2  0  0  0  0
  1  7  1  0  0  0  0
  2  3  1  0  0  0  0
  2  4  1  0  0  0  0
  4  5  2  0  0  0  0
  5  6  1  0  0  0  0
  5 11  1  0  0  0  0
  6  7  2  0  0  0  0
  6  9  1  0  0  0  0
  7  8  1  0  0  0  0
  9 10  1  0  0  0  0
 10 11  2  0  0  0  0
M  END
>  <CHROM.1>
36.90110637,-9.97438372,-37.04226892,1.48111441,-0.50393701,-0.42310712

>  <Name>
ligand

>  <RI>
0

>  <Rbt.Current_Directory>
/home/itssahil/PROJECTS/Mol_Feturizer/New_Systems/rnas/3RKF

>  <Rbt.Executable>
rbdock ($Id: //depot/dev/client3/rdock/2013.1/src/exe/rbdock.cxx#4 $)

>  <Rbt.Library>
libRbt.so (2013.1, Build901 2013/11/27)

>  <Rbt.Parameter_File>
/export/apps/rDock/src/rDock_2013.1_src/data/scripts/dock_solv.prm

>  <Rbt.Receptor>
prm/blind_docking_60.prm

>  <SCORE>
-15.7849

>  <SCORE.INTER>
-15.7849

>  <SCORE.INTER.CONST>
1

>  <SCORE.INTER.POLAR>
0

>  <SCORE.INTER.ROT>
0

>  <SCORE.INTER.SOLV>
9.64855

>  <SCORE.INTER.VDW>
-17.3394

>  <SCORE.INTER.norm>
-1.43499

>  <SCORE.INTRA>
0

>  <SCORE.INTRA.DIHEDRAL>
0

>  <SCORE.INTRA.DIHEDRAL.0>
0

>  <SCORE.INTRA.POLAR>
0

>  <SCORE.INTRA.POLAR.0>
0

>  <SCORE.INTRA.REPUL>
0

>  <SCORE.INTRA.REPUL.0>
0

>  <SCORE.INTRA.SOLV>
0

>  <SCORE.INTRA.SOLV.lig_0>
-28.6198

>  <SCORE.INTRA.VDW>
0

>  <SCORE.INTRA.VDW.0>
0

>  <SCORE.INTRA.norm>
0

>  <SCORE.RESTR>
0

>  <SCORE.RESTR.CAVITY>
0

>  <SCORE.RESTR.norm>
0

>  <SCORE.SYSTEM>
0

>  <SCORE.SYSTEM.CONST>
0

>  <SCORE.SYSTEM.DIHEDRAL>
0

>  <SCORE.SYSTEM.SOLV>
0

>  <SCORE.SYSTEM.norm>
0

>  <SCORE.heavy>
11

>  <SCORE.norm>
-1.43499

>  <RMSD>
2.900

$$$$
ligand
 OpenBabel11021811483D
libRbt.so/2013.1/901 2013/11/27
 11 12  0  0  0  0  0  0  0  0999 V2000
   36.6323   -8.5831  -37.8193 N   0  0  0  0  0  0  0  0  0  0  0  0
   35.5059   -9.1965  -38.2121 C   0  0  0  0  0  0  0  0  0  0  0  0
   34.5964   -8.5004  -39.0656 N   0  0  0  0  0  0  0  0  0  0  0  0
   35.2194  -10.4428  -37.8213 N   0  0  0  0  0  0  0  0  0  0  0  0
   36.0849  -11.1332  -36.9953 C   0  0  0  0  0  0  0  0  0  0  0  0
   37.2392  -10.5204  -36.5829 C   0  0  0  0  0  0  0  0  0  0  0  0
   37.5302   -9.1847  -37.0132 C   0  0  0  0  0  0  0  0  0  0  0  0
   39.0120   -8.3558  -36.5131 S   0  0  0  0  0  0  0  0  0  0  0  0
   37.9144  -11.4048  -35.7811 N   0  0  0  0  0  0  0  0  0  0  0  0
   37.1844  -12.5477  -35.6999 C   0  0  0  0  0  0  0  0  0  0  0  0
   36.0512  -12.4010  -36.4426 N   0  0  0  0  0  0  0  0  0  0  0  0
  1  2  2  0  0  0  0
  1  7  1  0  0  0  0
  2  3  1  0  0  0  0
  2  4  1  0  0  0  0
  4  5  2  0  0  0  0
  5  6  1  0  0  0  0
  5 11  1  0  0  0  0
  6  7  2  0  0  0  0
  6  9  1  0  0  0  0
  7  8  1  0  0  0  0
  9 10  1  0  0  0  0
 10 11  2  0  0  0  0
M  END
>  <CHROM.1>
36.90690797,-9.97124728,-37.03043536,1.47954635,-0.49581785,-0.42455430

>  <Name>
ligand

>  <RI>
0

>  <Rbt.Current_Directory>
/home/itssahil/PROJECTS/Mol_Feturizer/New_Systems/rnas/3RKF

>  <Rbt.Executable>
rbdock ($Id: //depot/dev/client3/rdock/2013.1/src/exe/rbdock.cxx#4 $)

>  <Rbt.Library>
libRbt.so (2013.1, Build901 2013/11/27)

>  <Rbt.Parameter_File>
/export/apps/rDock/src/rDock_2013.1_src/data/scripts/dock_solv.prm

>  <Rbt.Receptor>
prm/blind_docking_80.prm

>  <SCORE>
-15.7803

>  <SCORE.INTER>
-15.7803

>  <SCORE.INTER.CONST>
1

>  <SCORE.INTER.POLAR>
0

>  <SCORE.INTER.ROT>
0

>  <SCORE.INTER.SOLV>
9.57018

>  <SCORE.INTER.VDW>
-17.3103

>  <SCORE.INTER.norm>
-1.43457

>  <SCORE.INTRA>
0

>  <SCORE.INTRA.DIHEDRAL>
0

>  <SCORE.INTRA.DIHEDRAL.0>
0

>  <SCORE.INTRA.POLAR>
0

>  <SCORE.INTRA.POLAR.0>
0

>  <SCORE.INTRA.REPUL>
0

>  <SCORE.INTRA.REPUL.0>
0

>  <SCORE.INTRA.SOLV>
0

>  <SCORE.INTRA.SOLV.lig_0>
-28.6198

>  <SCORE.INTRA.VDW>
0

>  <SCORE.INTRA.VDW.0>
0

>  <SCORE.INTRA.norm>
0

>  <SCORE.RESTR>
0

>  <SCORE.RESTR.CAVITY>
0

>  <SCORE.RESTR.norm>
0

>  <SCORE.SYSTEM>
0

>  <SCORE.SYSTEM.CONST>
0

>  <SCORE.SYSTEM.DIHEDRAL>
0

>  <SCORE.SYSTEM.SOLV>
0

>  <SCORE.SYSTEM.norm>
0

>  <SCORE.heavy>
11

>  <SCORE.norm>
-1.43457

>  <RMSD>
2.900

$$$$
ligand
 OpenBabel11021811483D
libRbt.so/2013.1/901 2013/11/27
 11 12  0  0  0  0  0  0  0  0999 V2000
   36.6160   -8.5982  -37.8304 N   0  0  0  0  0  0  0  0  0  0  0  0
   35.4867   -9.2043  -38.2262 C   0  0  0  0  0  0  0  0  0  0  0  0
   34.5909   -8.5076  -39.0935 N   0  0  0  0  0  0  0  0  0  0  0  0
   35.1849  -10.4439  -37.8257 N   0  0  0  0  0  0  0  0  0  0  0  0
   36.0371  -11.1347  -36.9863 C   0  0  0  0  0  0  0  0  0  0  0  0
   37.1942  -10.5293  -36.5708 C   0  0  0  0  0  0  0  0  0  0  0  0
   37.5017   -9.2007  -37.0115 C   0  0  0  0  0  0  0  0  0  0  0  0
   38.9877   -8.3816  -36.5078 S   0  0  0  0  0  0  0  0  0  0  0  0
   37.8544  -11.4124  -35.7551 N   0  0  0  0  0  0  0  0  0  0  0  0
   37.1125  -12.5473  -35.6686 C   0  0  0  0  0  0  0  0  0  0  0  0
   35.9866  -12.3967  -36.4216 N   0  0  0  0  0  0  0  0  0  0  0  0
  1  2  2  0  0  0  0
  1  7  1  0  0  0  0
  2  3  1  0  0  0  0
  2  4  1  0  0  0  0
  4  5  2  0  0  0  0
  5  6  1  0  0  0  0
  5 11  1  0  0  0  0
  6  7  2  0  0  0  0
  6  9  1  0  0  0  0
  7  8  1  0  0  0  0
  9 10  1  0  0  0  0
 10 11  2  0  0  0  0
M  END
>  <CHROM.1>
36.87081275,-9.98125427,-37.02612055,1.46563298,-0.49881048,-0.44086146

>  <Name>
ligand

>  <RI>
0

>  <Rbt.Current_Directory>
/home/itssahil/PROJECTS/Mol_Feturizer/New_Systems/rnas/3RKF

>  <Rbt.Executable>
rbdock ($Id: //depot/dev/client3/rdock/2013.1/src/exe/rbdock.cxx#4 $)

>  <Rbt.Library>
libRbt.so (2013.1, Build901 2013/11/27)

>  <Rbt.Parameter_File>
/export/apps/rDock/src/rDock_2013.1_src/data/scripts/dock_solv.prm

>  <Rbt.Receptor>
prm/blind_docking_80.prm

>  <SCORE>
-15.849

>  <SCORE.INTER>
-15.849

>  <SCORE.INTER.CONST>
1

>  <SCORE.INTER.POLAR>
0

>  <SCORE.INTER.ROT>
0

>  <SCORE.INTER.SOLV>
9.644

>  <SCORE.INTER.VDW>
-17.3806

>  <SCORE.INTER.norm>
-1.44081

>  <SCORE.INTRA>
0

>  <SCORE.INTRA.DIHEDRAL>
0

>  <SCORE.INTRA.DIHEDRAL.0>
0

>  <SCORE.INTRA.POLAR>
0

>  <SCORE.INTRA.POLAR.0>
0

>  <SCORE.INTRA.REPUL>
0

>  <SCORE.INTRA.REPUL.0>
0

>  <SCORE.INTRA.SOLV>
0

>  <SCORE.INTRA.SOLV.lig_0>
-28.6198

>  <SCORE.INTRA.VDW>
0

>  <SCORE.INTRA.VDW.0>
0

>  <SCORE.INTRA.norm>
0

>  <SCORE.RESTR>
0

>  <SCORE.RESTR.CAVITY>
0

>  <SCORE.RESTR.norm>
0

>  <SCORE.SYSTEM>
0

>  <SCORE.SYSTEM.CONST>
0

>  <SCORE.SYSTEM.DIHEDRAL>
0

>  <SCORE.SYSTEM.SOLV>
0

>  <SCORE.SYSTEM.norm>
0

>  <SCORE.heavy>
11

>  <SCORE.norm>
-1.44081

>  <RMSD>
2.900

$$$$
ligand
 OpenBabel11021811483D
libRbt.so/2013.1/901 2013/11/27
 11 12  0  0  0  0  0  0  0  0999 V2000
   36.6183   -8.5951  -37.8250 N   0  0  0  0  0  0  0  0  0  0  0  0
   35.4892   -9.2058  -38.2142 C   0  0  0  0  0  0  0  0  0  0  0  0
   34.5769   -8.5061  -39.0618 N   0  0  0  0  0  0  0  0  0  0  0  0
   35.2026  -10.4526  -37.8253 N   0  0  0  0  0  0  0  0  0  0  0  0
   36.0707  -11.1464  -37.0050 C   0  0  0  0  0  0  0  0  0  0  0  0
   37.2280  -10.5364  -36.5964 C   0  0  0  0  0  0  0  0  0  0  0  0
   37.5190   -9.2001  -37.0246 C   0  0  0  0  0  0  0  0  0  0  0  0
   39.0044   -8.3748  -36.5292 S   0  0  0  0  0  0  0  0  0  0  0  0
   37.9054  -11.4239  -35.7999 N   0  0  0  0  0  0  0  0  0  0  0  0
   37.1740  -12.5659  -35.7182 C   0  0  0  0  0  0  0  0  0  0  0  0
   36.0377  -12.4156  -36.4553 N   0  0  0  0  0  0  0  0  0  0  0  0
  1  2  2  0  0  0  0
  1  7  1  0  0  0  0
  2  3  1  0  0  0  0
  2  4  1  0  0  0  0
  4  5  2  0  0  0  0
  5  6  1  0  0  0  0
  5 11  1  0  0  0  0
  6  7  2  0  0  0  0
  6  9  1  0  0  0  0
  7  8  1  0  0  0  0
  9 10  1  0  0  0  0
 10 11  2  0  0  0  0
M  END
>  <CHROM.1>
36.89443411,-9.98565010,-37.04096210,1.48007787,-0.49100619,-0.42178122

>  <Name>
ligand

>  <RI>
0

>  <Rbt.Current_Directory>
/home/itssahil/PROJECTS/Mol_Feturizer/New_Systems/rnas/3RKF

>  <Rbt.Executable>
rbdock ($Id: //depot/dev/client3/rdock/2013.1/src/exe/rbdock.cxx#4 $)

>  <Rbt.Library>
libRbt.so (2013.1, Build901 2013/11/27)

>  <Rbt.Parameter_File>
/export/apps/rDock/src/rDock_2013.1_src/data/scripts/dock_solv.prm

>  <Rbt.Receptor>
prm/pocket_docking_4.prm

>  <SCORE>
-15.8139

>  <SCORE.INTER>
-15.8139

>  <SCORE.INTER.CONST>
1

>  <SCORE.INTER.POLAR>
0

>  <SCORE.INTER.ROT>
0

>  <SCORE.INTER.SOLV>
9.51668

>  <SCORE.INTER.VDW>
-17.3148

>  <SCORE.INTER.norm>
-1.43763

>  <SCORE.INTRA>
0

>  <SCORE.INTRA.DIHEDRAL>
0

>  <SCORE.INTRA.DIHEDRAL.0>
0

>  <SCORE.INTRA.POLAR>
0

>  <SCORE.INTRA.POLAR.0>
0

>  <SCORE.INTRA.REPUL>
0

>  <SCORE.INTRA.REPUL.0>
0

>  <SCORE.INTRA.SOLV>
0

>  <SCORE.INTRA.SOLV.lig_0>
-28.6198

>  <SCORE.INTRA.VDW>
0

>  <SCORE.INTRA.VDW.0>
0

>  <SCORE.INTRA.norm>
0

>  <SCORE.RESTR>
0

>  <SCORE.RESTR.CAVITY>
0

>  <SCORE.RESTR.norm>
0

>  <SCORE.SYSTEM>
0

>  <SCORE.SYSTEM.CONST>
0

>  <SCORE.SYSTEM.DIHEDRAL>
0

>  <SCORE.SYSTEM.SOLV>
0

>  <SCORE.SYSTEM.norm>
0

>  <SCORE.heavy>
11

>  <SCORE.norm>
-1.43763

>  <RMSD>
2.900

$$$$
ligand
 OpenBabel11021811483D
libRbt.so/2013.1/901 2013/11/27
 11 12  0  0  0  0  0  0  0  0999 V2000
   36.6142   -8.5968  -37.8343 N   0  0  0  0  0  0  0  0  0  0  0  0
   35.4852   -9.2047  -38.2284 C   0  0  0  0  0  0  0  0  0  0  0  0
   34.5879   -8.5100  -39.0959 N   0  0  0  0  0  0  0  0  0  0  0  0
   35.1851  -10.4442  -37.8263 N   0  0  0  0  0  0  0  0  0  0  0  0
   36.0387  -11.1330  -36.9867 C   0  0  0  0  0  0  0  0  0  0  0  0
   37.1955  -10.5258  -36.5728 C   0  0  0  0  0  0  0  0  0  0  0  0
   37.5011   -9.1974  -37.0154 C   0  0  0  0  0  0  0  0  0  0  0  0
   38.9866   -8.3761  -36.5137 S   0  0  0  0  0  0  0  0  0  0  0  0
   37.8572  -11.4072  -35.7566 N   0  0  0  0  0  0  0  0  0  0  0  0
   37.1167  -12.5429  -35.6682 C   0  0  0  0  0  0  0  0  0  0  0  0
   35.9901  -12.3944  -36.4205 N   0  0  0  0  0  0  0  0  0  0  0  0
  1  2  2  0  0  0  0
  1  7  1  0  0  0  0
  2  3  1  0  0  0  0
  2  4  1  0  0  0  0
  4  5  2  0  0  0  0
  5  6  1  0  0  0  0
  5 11  1  0  0  0  0
  6  7  2  0  0  0  0
  6  9  1  0  0  0  0
  7  8  1  0  0  0  0
  9 10  1  0  0  0  0
 10 11  2  0  0  0  0
M  END
>  <CHROM.1>
36.87109836,-9.97867874,-37.02854706,1.46716678,-0.49858048,-0.44130301

>  <Name>
ligand

>  <RI>
0

>  <Rbt.Current_Directory>
/home/itssahil/PROJECTS/Mol_Feturizer/New_Systems/rnas/3RKF

>  <Rbt.Executable>
rbdock ($Id: //depot/dev/client3/rdock/2013.1/src/exe/rbdock.cxx#4 $)

>  <Rbt.Library>
libRbt.so (2013.1, Build901 2013/11/27)

>  <Rbt.Parameter_File>
/export/apps/rDock/src/rDock_2013.1_src/data/scripts/dock_solv.prm

>  <Rbt.Receptor>
prm/pocket_docking_4.prm

>  <SCORE>
-15.8482

>  <SCORE.INTER>
-15.8482

>  <SCORE.INTER.CONST>
1

>  <SCORE.INTER.POLAR>
0

>  <SCORE.INTER.ROT>
0

>  <SCORE.INTER.SOLV>
9.64863

>  <SCORE.INTER.VDW>
-17.3817

>  <SCORE.INTER.norm>
-1.44075

>  <SCORE.INTRA>
0

>  <SCORE.INTRA.DIHEDRAL>
0

>  <SCORE.INTRA.DIHEDRAL.0>
0

>  <SCORE.INTRA.POLAR>
0

>  <SCORE.INTRA.POLAR.0>
0

>  <SCORE.INTRA.REPUL>
0

>  <SCORE.INTRA.REPUL.0>
0

>  <SCORE.INTRA.SOLV>
0

>  <SCORE.INTRA.SOLV.lig_0>
-28.6198

>  <SCORE.INTRA.VDW>
0

>  <SCORE.INTRA.VDW.0>
0

>  <SCORE.INTRA.norm>
0

>  <SCORE.RESTR>
0

>  <SCORE.RESTR.CAVITY>
0

>  <SCORE.RESTR.norm>
0

>  <SCORE.SYSTEM>
0

>  <SCORE.SYSTEM.CONST>
0

>  <SCORE.SYSTEM.DIHEDRAL>
0

>  <SCORE.SYSTEM.SOLV>
0

>  <SCORE.SYSTEM.norm>
0

>  <SCORE.heavy>
11

>  <SCORE.norm>
-1.44075

>  <RMSD>
2.900

$$$$
ligand
 OpenBabel11021811483D
libRbt.so/2013.1/901 2013/11/27
 11 12  0  0  0  0  0  0  0  0999 V2000
   36.6189   -8.5964  -37.8311 N   0  0  0  0  0  0  0  0  0  0  0  0
   35.4891   -9.2026  -38.2254 C   0  0  0  0  0  0  0  0  0  0  0  0
   34.5926   -8.5064  -39.0925 N   0  0  0  0  0  0  0  0  0  0  0  0
   35.1873  -10.4418  -37.8237 N   0  0  0  0  0  0  0  0  0  0  0  0
   36.0401  -11.1322  -36.9845 C   0  0  0  0  0  0  0  0  0  0  0  0
   37.1977  -10.5267  -36.5705 C   0  0  0  0  0  0  0  0  0  0  0  0
   37.5052   -9.1986  -37.0126 C   0  0  0  0  0  0  0  0  0  0  0  0
   38.9918   -8.3794  -36.5108 S   0  0  0  0  0  0  0  0  0  0  0  0
   37.8584  -11.4093  -35.7548 N   0  0  0  0  0  0  0  0  0  0  0  0
   37.1163  -12.5440  -35.6668 C   0  0  0  0  0  0  0  0  0  0  0  0
   35.9898  -12.3937  -36.4189 N   0  0  0  0  0  0  0  0  0  0  0  0
  1  2  2  0  0  0  0
  1  7  1  0  0  0  0
  2  3  1  0  0  0  0
  2  4  1  0  0  0  0
  4  5  2  0  0  0  0
  5  6  1  0  0  0  0
  5 11  1  0  0  0  0
  6  7  2  0  0  0  0
  6  9  1  0  0  0  0
  7  8  1  0  0  0  0
  9 10  1  0  0  0  0
 10 11  2  0  0  0  0
M  END
>  <CHROM.1>
36.87407320,-9.97895784,-37.02599366,1.46582304,-0.49788555,-0.44153874

>  <Name>
ligand

>  <RI>
0

>  <Rbt.Current_Directory>
/home/itssahil/PROJECTS/Mol_Feturizer/New_Systems/rnas/3RKF

>  <Rbt.Executable>
rbdock ($Id: //depot/dev/client3/rdock/2013.1/src/exe/rbdock.cxx#4 $)

>  <Rbt.Library>
libRbt.so (2013.1, Build901 2013/11/27)

>  <Rbt.Parameter_File>
/export/apps/rDock/src/rDock_2013.1_src/data/scripts/dock_solv.prm

>  <Rbt.Receptor>
prm/pocket_docking_4.prm

>  <SCORE>
-15.8483

>  <SCORE.INTER>
-15.8483

>  <SCORE.INTER.CONST>
1

>  <SCORE.INTER.POLAR>
0

>  <SCORE.INTER.ROT>
0

>  <SCORE.INTER.SOLV>
9.64678

>  <SCORE.INTER.VDW>
-17.3811

>  <SCORE.INTER.norm>
-1.44076

>  <SCORE.INTRA>
0

>  <SCORE.INTRA.DIHEDRAL>
0

>  <SCORE.INTRA.DIHEDRAL.0>
0

>  <SCORE.INTRA.POLAR>
0

>  <SCORE.INTRA.POLAR.0>
0

>  <SCORE.INTRA.REPUL>
0

>  <SCORE.INTRA.REPUL.0>
0

>  <SCORE.INTRA.SOLV>
0

>  <SCORE.INTRA.SOLV.lig_0>
-28.6198

>  <SCORE.INTRA.VDW>
0

>  <SCORE.INTRA.VDW.0>
0

>  <SCORE.INTRA.norm>
0

>  <SCORE.RESTR>
0

>  <SCORE.RESTR.CAVITY>
0

>  <SCORE.RESTR.norm>
0

>  <SCORE.SYSTEM>
0

>  <SCORE.SYSTEM.CONST>
0

>  <SCORE.SYSTEM.DIHEDRAL>
0

>  <SCORE.SYSTEM.SOLV>
0

>  <SCORE.SYSTEM.norm>
0

>  <SCORE.heavy>
11

>  <SCORE.norm>
-1.44076

>  <RMSD>
2.900

$$$$
ligand
 OpenBabel11021811483D
libRbt.so/2013.1/901 2013/11/27
 11 12  0  0  0  0  0  0  0  0999 V2000
   36.6627   -8.6915  -37.9724 N   0  0  0  0  0  0  0  0  0  0  0  0
   35.5626   -9.3240  -38.4074 C   0  0  0  0  0  0  0  0  0  0  0  0
   34.7035   -8.6641  -39.3383 N   0  0  0  0  0  0  0  0  0  0  0  0
   35.2563  -10.5562  -37.9878 N   0  0  0  0  0  0  0  0  0  0  0  0
   36.0732  -11.2116  -37.0872 C   0  0  0  0  0  0  0  0  0  0  0  0
   37.2000  -10.5789  -36.6309 C   0  0  0  0  0  0  0  0  0  0  0  0
   37.5129   -9.2589  -37.0930 C   0  0  0  0  0  0  0  0  0  0  0  0
   38.9610   -8.4055  -36.5381 S   0  0  0  0  0  0  0  0  0  0  0  0
   37.8287  -11.4298  -35.7583 N   0  0  0  0  0  0  0  0  0  0  0  0
   37.0976  -12.5722  -35.6774 C   0  0  0  0  0  0  0  0  0  0  0  0
   36.0098  -12.4581  -36.4903 N   0  0  0  0  0  0  0  0  0  0  0  0
  1  2  2  0  0  0  0
  1  7  1  0  0  0  0
  2  3  1  0  0  0  0
  2  4  1  0  0  0  0
  4  5  2  0  0  0  0
  5  6  1  0  0  0  0
  5 11  1  0  0  0  0
  6  7  2  0  0  0  0
  6  9  1  0  0  0  0
  7  8  1  0  0  0  0
  9 10  1  0  0  0  0
 10 11  2  0  0  0  0
M  END
>  <CHROM.1>
36.89338350,-10.04818422,-37.11739705,1.45338657,-0.55020073,-0.47496756

>  <Name>
ligand

>  <RI>
0

>  <Rbt.Current_Directory>
/home/itssahil/PROJECTS/Mol_Feturizer/New_Systems/rnas/3RKF

>  <Rbt.Executable>
rbdock ($Id: //depot/dev/client3/rdock/2013.1/src/exe/rbdock.cxx#4 $)

>  <Rbt.Library>
libRbt.so (2013.1, Build901 2013/11/27)

>  <Rbt.Parameter_File>
/export/apps/rDock/src/rDock_2013.1_src/data/scripts/dock_solv.prm

>  <Rbt.Receptor>
prm/pocket_docking_4.prm

>  <SCORE>
-15.6751

>  <SCORE.INTER>
-15.6751

>  <SCORE.INTER.CONST>
1

>  <SCORE.INTER.POLAR>
0

>  <SCORE.INTER.ROT>
0

>  <SCORE.INTER.SOLV>
11.1531

>  <SCORE.INTER.VDW>
-17.7678

>  <SCORE.INTER.norm>
-1.42501

>  <SCORE.INTRA>
0

>  <SCORE.INTRA.DIHEDRAL>
0

>  <SCORE.INTRA.DIHEDRAL.0>
0

>  <SCORE.INTRA.POLAR>
0

>  <SCORE.INTRA.POLAR.0>
0

>  <SCORE.INTRA.REPUL>
0

>  <SCORE.INTRA.REPUL.0>
0

>  <SCORE.INTRA.SOLV>
0

>  <SCORE.INTRA.SOLV.lig_0>
-28.6198

>  <SCORE.INTRA.VDW>
0

>  <SCORE.INTRA.VDW.0>
0

>  <SCORE.INTRA.norm>
0

>  <SCORE.RESTR>
0

>  <SCORE.RESTR.CAVITY>
0

>  <SCORE.RESTR.norm>
0

>  <SCORE.SYSTEM>
0

>  <SCORE.SYSTEM.CONST>
0

>  <SCORE.SYSTEM.DIHEDRAL>
0

>  <SCORE.SYSTEM.SOLV>
0

>  <SCORE.SYSTEM.norm>
0

>  <SCORE.heavy>
11

>  <SCORE.norm>
-1.42501

>  <RMSD>
2.900

$$$$
ligand
 OpenBabel11021811483D
libRbt.so/2013.1/901 2013/11/27
 11 12  0  0  0  0  0  0  0  0999 V2000
   36.6168   -8.5939  -37.8338 N   0  0  0  0  0  0  0  0  0  0  0  0
   35.4869   -9.2004  -38.2271 C   0  0  0  0  0  0  0  0  0  0  0  0
   34.5903   -8.5052  -39.0949 N   0  0  0  0  0  0  0  0  0  0  0  0
   35.1851  -10.4391  -37.8238 N   0  0  0  0  0  0  0  0  0  0  0  0
   36.0379  -11.1285  -36.9838 C   0  0  0  0  0  0  0  0  0  0  0  0
   37.1957  -10.5226  -36.5708 C   0  0  0  0  0  0  0  0  0  0  0  0
   37.5032   -9.1950  -37.0146 C   0  0  0  0  0  0  0  0  0  0  0  0
   38.9900   -8.3754  -36.5141 S   0  0  0  0  0  0  0  0  0  0  0  0
   37.8564  -11.4042  -35.7540 N   0  0  0  0  0  0  0  0  0  0  0  0
   37.1142  -12.5387  -35.6644 C   0  0  0  0  0  0  0  0  0  0  0  0
   35.9876  -12.3893  -36.4165 N   0  0  0  0  0  0  0  0  0  0  0  0
  1  2  2  0  0  0  0
  1  7  1  0  0  0  0
  2  3  1  0  0  0  0
  2  4  1  0  0  0  0
  4  5  2  0  0  0  0
  5  6  1  0  0  0  0
  5 11  1  0  0  0  0
  6  7  2  0  0  0  0
  6  9  1  0  0  0  0
  7  8  1  0  0  0  0
  9 10  1  0  0  0  0
 10 11  2  0  0  0  0
M  END
>  <CHROM.1>
36.87200129,-9.97536140,-37.02691369,1.46580174,-0.49770966,-0.44284143

>  <Name>
ligand

>  <RI>
0

>  <Rbt.Current_Directory>
/home/itssahil/PROJECTS/Mol_Feturizer/New_Systems/rnas/3RKF

>  <Rbt.Executable>
rbdock ($Id: //depot/dev/client3/rdock/2013.1/src/exe/rbdock.cxx#4 $)

>  <Rbt.Library>
libRbt.so (2013.1, Build901 2013/11/27)

>  <Rbt.Parameter_File>
/export/apps/rDock/src/rDock_2013.1_src/data/scripts/dock_solv.prm

>  <Rbt.Receptor>
prm/pocket_docking_4.prm

>  <SCORE>
-15.8477

>  <SCORE.INTER>
-15.8477

>  <SCORE.INTER.CONST>
1

>  <SCORE.INTER.POLAR>
0

>  <SCORE.INTER.ROT>
0

>  <SCORE.INTER.SOLV>
9.64773

>  <SCORE.INTER.VDW>
-17.3811

>  <SCORE.INTER.norm>
-1.4407

>  <SCORE.INTRA>
0

>  <SCORE.INTRA.DIHEDRAL>
0

>  <SCORE.INTRA.DIHEDRAL.0>
0

>  <SCORE.INTRA.POLAR>
0

>  <SCORE.INTRA.POLAR.0>
0

>  <SCORE.INTRA.REPUL>
0

>  <SCORE.INTRA.REPUL.0>
0

>  <SCORE.INTRA.SOLV>
0

>  <SCORE.INTRA.SOLV.lig_0>
-28.6198

>  <SCORE.INTRA.VDW>
0

>  <SCORE.INTRA.VDW.0>
0

>  <SCORE.INTRA.norm>
0

>  <SCORE.RESTR>
0

>  <SCORE.RESTR.CAVITY>
0

>  <SCORE.RESTR.norm>
0

>  <SCORE.SYSTEM>
0

>  <SCORE.SYSTEM.CONST>
0

>  <SCORE.SYSTEM.DIHEDRAL>
0

>  <SCORE.SYSTEM.SOLV>
0

>  <SCORE.SYSTEM.norm>
0

>  <SCORE.heavy>
11

>  <SCORE.norm>
-1.4407

>  <RMSD>
2.900

$$$$
ligand
 OpenBabel11021811483D
libRbt.so/2013.1/901 2013/11/27
 11 12  0  0  0  0  0  0  0  0999 V2000
   36.6250   -8.5945  -37.8342 N   0  0  0  0  0  0  0  0  0  0  0  0
   35.4950   -9.2014  -38.2269 C   0  0  0  0  0  0  0  0  0  0  0  0
   34.5972   -8.5060  -39.0933 N   0  0  0  0  0  0  0  0  0  0  0  0
   35.1942  -10.4405  -37.8241 N   0  0  0  0  0  0  0  0  0  0  0  0
   36.0482  -11.1300  -36.9855 C   0  0  0  0  0  0  0  0  0  0  0  0
   37.2060  -10.5238  -36.5731 C   0  0  0  0  0  0  0  0  0  0  0  0
   37.5124   -9.1958  -37.0163 C   0  0  0  0  0  0  0  0  0  0  0  0
   38.9993   -8.3757  -36.5167 S   0  0  0  0  0  0  0  0  0  0  0  0
   37.8680  -11.4057  -35.7577 N   0  0  0  0  0  0  0  0  0  0  0  0
   37.1265  -12.5406  -35.6682 C   0  0  0  0  0  0  0  0  0  0  0  0
   35.9991  -12.3913  -36.4191 N   0  0  0  0  0  0  0  0  0  0  0  0
  1  2  2  0  0  0  0
  1  7  1  0  0  0  0
  2  3  1  0  0  0  0
  2  4  1  0  0  0  0
  4  5  2  0  0  0  0
  5  6  1  0  0  0  0
  5 11  1  0  0  0  0
  6  7  2  0  0  0  0
  6  9  1  0  0  0  0
  7  8  1  0  0  0  0
  9 10  1  0  0  0  0
 10 11  2  0  0  0  0
M  END
>  <CHROM.1>
36.88163410,-9.97644561,-37.02857303,1.46680069,-0.49704775,-0.44164325

>  <Name>
ligand

>  <RI>
0

>  <Rbt.Current_Directory>
/home/itssahil/PROJECTS/Mol_Feturizer/New_Systems/rnas/3RKF

>  <Rbt.Executable>
rbdock ($Id: //depot/dev/client3/rdock/2013.1/src/exe/rbdock.cxx#4 $)

>  <Rbt.Library>
libRbt.so (2013.1, Build901 2013/11/27)

>  <Rbt.Parameter_File>
/export/apps/rDock/src/rDock_2013.1_src/data/scripts/dock_solv.prm

>  <Rbt.Receptor>
prm/pocket_docking_4.prm

>  <SCORE>
-15.8468

>  <SCORE.INTER>
-15.8468

>  <SCORE.INTER.CONST>
1

>  <SCORE.INTER.POLAR>
0

>  <SCORE.INTER.ROT>
0

>  <SCORE.INTER.SOLV>
9.66312

>  <SCORE.INTER.VDW>
-17.3856

>  <SCORE.INTER.norm>
-1.44062

>  <SCORE.INTRA>
0

>  <SCORE.INTRA.DIHEDRAL>
0

>  <SCORE.INTRA.DIHEDRAL.0>
0

>  <SCORE.INTRA.POLAR>
0

>  <SCORE.INTRA.POLAR.0>
0

>  <SCORE.INTRA.REPUL>
0

>  <SCORE.INTRA.REPUL.0>
0

>  <SCORE.INTRA.SOLV>
0

>  <SCORE.INTRA.SOLV.lig_0>
-28.6198

>  <SCORE.INTRA.VDW>
0

>  <SCORE.INTRA.VDW.0>
0

>  <SCORE.INTRA.norm>
0

>  <SCORE.RESTR>
0

>  <SCORE.RESTR.CAVITY>
0

>  <SCORE.RESTR.norm>
0

>  <SCORE.SYSTEM>
0

>  <SCORE.SYSTEM.CONST>
0

>  <SCORE.SYSTEM.DIHEDRAL>
0

>  <SCORE.SYSTEM.SOLV>
0

>  <SCORE.SYSTEM.norm>
0

>  <SCORE.heavy>
11

>  <SCORE.norm>
-1.44062

>  <RMSD>
2.900

$$$$
ligand
 OpenBabel11021811483D
libRbt.so/2013.1/901 2013/11/27
 11 12  0  0  0  0  0  0  0  0999 V2000
   36.6138   -8.6557  -37.8775 N   0  0  0  0  0  0  0  0  0  0  0  0
   35.5022   -9.2756  -38.3010 C   0  0  0  0  0  0  0  0  0  0  0  0
   34.5967   -8.5737  -39.1542 N   0  0  0  0  0  0  0  0  0  0  0  0
   35.2267  -10.5336  -37.9411 N   0  0  0  0  0  0  0  0  0  0  0  0
   36.0885  -11.2298  -37.1161 C   0  0  0  0  0  0  0  0  0  0  0  0
   37.2278  -10.6105  -36.6726 C   0  0  0  0  0  0  0  0  0  0  0  0
   37.5071   -9.2622  -37.0700 C   0  0  0  0  0  0  0  0  0  0  0  0
   38.9694   -8.4244  -36.5291 S   0  0  0  0  0  0  0  0  0  0  0  0
   37.9023  -11.5025  -35.8788 N   0  0  0  0  0  0  0  0  0  0  0  0
   37.1869  -12.6566  -35.8333 C   0  0  0  0  0  0  0  0  0  0  0  0
   36.0635  -12.5094  -36.5907 N   0  0  0  0  0  0  0  0  0  0  0  0
  1  2  2  0  0  0  0
  1  7  1  0  0  0  0
  2  3  1  0  0  0  0
  2  4  1  0  0  0  0
  4  5  2  0  0  0  0
  5  6  1  0  0  0  0
  5 11  1  0  0  0  0
  6  7  2  0  0  0  0
  6  9  1  0  0  0  0
  7  8  1  0  0  0  0
  9 10  1  0  0  0  0
 10 11  2  0  0  0  0
M  END
>  <CHROM.1>
36.89499143,-10.05644731,-37.11372393,1.48645744,-0.51572523,-0.40010629

>  <Name>
ligand

>  <RI>
0

>  <Rbt.Current_Directory>
/home/itssahil/PROJECTS/Mol_Feturizer/New_Systems/rnas/3RKF

>  <Rbt.Executable>
rbdock ($Id: //depot/dev/client3/rdock/2013.1/src/exe/rbdock.cxx#4 $)

>  <Rbt.Library>
libRbt.so (2013.1, Build901 2013/11/27)

>  <Rbt.Parameter_File>
/export/apps/rDock/src/rDock_2013.1_src/data/scripts/dock_solv.prm

>  <Rbt.Receptor>
prm/pocket_docking_5.prm

>  <SCORE>
-15.7329

>  <SCORE.INTER>
-15.7329

>  <SCORE.INTER.CONST>
1

>  <SCORE.INTER.POLAR>
0

>  <SCORE.INTER.ROT>
0

>  <SCORE.INTER.SOLV>
9.9317

>  <SCORE.INTER.VDW>
-17.3991

>  <SCORE.INTER.norm>
-1.43026

>  <SCORE.INTRA>
0

>  <SCORE.INTRA.DIHEDRAL>
0

>  <SCORE.INTRA.DIHEDRAL.0>
0

>  <SCORE.INTRA.POLAR>
0

>  <SCORE.INTRA.POLAR.0>
0

>  <SCORE.INTRA.REPUL>
0

>  <SCORE.INTRA.REPUL.0>
0

>  <SCORE.INTRA.SOLV>
0

>  <SCORE.INTRA.SOLV.lig_0>
-28.6198

>  <SCORE.INTRA.VDW>
0

>  <SCORE.INTRA.VDW.0>
0

>  <SCORE.INTRA.norm>
0

>  <SCORE.RESTR>
0

>  <SCORE.RESTR.CAVITY>
0

>  <SCORE.RESTR.norm>
0

>  <SCORE.SYSTEM>
0

>  <SCORE.SYSTEM.CONST>
0

>  <SCORE.SYSTEM.DIHEDRAL>
0

>  <SCORE.SYSTEM.SOLV>
0

>  <SCORE.SYSTEM.norm>
0

>  <SCORE.heavy>
11

>  <SCORE.norm>
-1.43026

>  <RMSD>
2.900

$$$$
ligand
 OpenBabel11021811483D
libRbt.so/2013.1/901 2013/11/27
 11 12  0  0  0  0  0  0  0  0999 V2000
   36.6220   -8.5946  -37.8379 N   0  0  0  0  0  0  0  0  0  0  0  0
   35.4917   -9.2029  -38.2275 C   0  0  0  0  0  0  0  0  0  0  0  0
   34.5928   -8.5104  -39.0952 N   0  0  0  0  0  0  0  0  0  0  0  0
   35.1915  -10.4408  -37.8205 N   0  0  0  0  0  0  0  0  0  0  0  0
   36.0465  -11.1275  -36.9806 C   0  0  0  0  0  0  0  0  0  0  0  0
   37.2047  -10.5198  -36.5714 C   0  0  0  0  0  0  0  0  0  0  0  0
   37.5104   -9.1932  -37.0191 C   0  0  0  0  0  0  0  0  0  0  0  0
   38.9976   -8.3713  -36.5236 S   0  0  0  0  0  0  0  0  0  0  0  0
   37.8677  -11.3990  -35.7539 N   0  0  0  0  0  0  0  0  0  0  0  0
   37.1265  -12.5338  -35.6600 C   0  0  0  0  0  0  0  0  0  0  0  0
   35.9983  -12.3870  -36.4102 N   0  0  0  0  0  0  0  0  0  0  0  0
  1  2  2  0  0  0  0
  1  7  1  0  0  0  0
  2  3  1  0  0  0  0
  2  4  1  0  0  0  0
  4  5  2  0  0  0  0
  5  6  1  0  0  0  0
  5 11  1  0  0  0  0
  6  7  2  0  0  0  0
  6  9  1  0  0  0  0
  7  8  1  0  0  0  0
  9 10  1  0  0  0  0
 10 11  2  0  0  0  0
M  END
>  <CHROM.1>
36.87973178,-9.97396653,-37.02823650,1.46750622,-0.49616261,-0.44445862

>  <Name>
ligand

>  <RI>
0

>  <Rbt.Current_Directory>
/home/itssahil/PROJECTS/Mol_Feturizer/New_Systems/rnas/3RKF

>  <Rbt.Executable>
rbdock ($Id: //depot/dev/client3/rdock/2013.1/src/exe/rbdock.cxx#4 $)

>  <Rbt.Library>
libRbt.so (2013.1, Build901 2013/11/27)

>  <Rbt.Parameter_File>
/export/apps/rDock/src/rDock_2013.1_src/data/scripts/dock_solv.prm

>  <Rbt.Receptor>
prm/pocket_docking_7.prm

>  <SCORE>
-15.8455

>  <SCORE.INTER>
-15.8455

>  <SCORE.INTER.CONST>
1

>  <SCORE.INTER.POLAR>
0

>  <SCORE.INTER.ROT>
0

>  <SCORE.INTER.SOLV>
9.6699

>  <SCORE.INTER.VDW>
-17.387

>  <SCORE.INTER.norm>
-1.4405

>  <SCORE.INTRA>
0

>  <SCORE.INTRA.DIHEDRAL>
0

>  <SCORE.INTRA.DIHEDRAL.0>
0

>  <SCORE.INTRA.POLAR>
0

>  <SCORE.INTRA.POLAR.0>
0

>  <SCORE.INTRA.REPUL>
0

>  <SCORE.INTRA.REPUL.0>
0

>  <SCORE.INTRA.SOLV>
0

>  <SCORE.INTRA.SOLV.lig_0>
-28.6198

>  <SCORE.INTRA.VDW>
0

>  <SCORE.INTRA.VDW.0>
0

>  <SCORE.INTRA.norm>
0

>  <SCORE.RESTR>
0

>  <SCORE.RESTR.CAVITY>
0

>  <SCORE.RESTR.norm>
0

>  <SCORE.SYSTEM>
0

>  <SCORE.SYSTEM.CONST>
0

>  <SCORE.SYSTEM.DIHEDRAL>
0

>  <SCORE.SYSTEM.SOLV>
0

>  <SCORE.SYSTEM.norm>
0

>  <SCORE.heavy>
11

>  <SCORE.norm>
-1.4405

>  <RMSD>
2.900

$$$$
ligand
 OpenBabel11021811483D
libRbt.so/2013.1/901 2013/11/27
 11 12  0  0  0  0  0  0  0  0999 V2000
   36.6214   -8.5928  -37.8323 N   0  0  0  0  0  0  0  0  0  0  0  0
   35.4942   -9.2042  -38.2261 C   0  0  0  0  0  0  0  0  0  0  0  0
   34.5958   -8.5135  -39.0956 N   0  0  0  0  0  0  0  0  0  0  0  0
   35.1970  -10.4437  -37.8218 N   0  0  0  0  0  0  0  0  0  0  0  0
   36.0516  -11.1287  -36.9802 C   0  0  0  0  0  0  0  0  0  0  0  0
   37.2066  -10.5178  -36.5667 C   0  0  0  0  0  0  0  0  0  0  0  0
   37.5092   -9.1895  -37.0116 C   0  0  0  0  0  0  0  0  0  0  0  0
   38.9923   -8.3634  -36.5105 S   0  0  0  0  0  0  0  0  0  0  0  0
   37.8700  -11.3960  -35.7483 N   0  0  0  0  0  0  0  0  0  0  0  0
   37.1323  -12.5333  -35.6583 C   0  0  0  0  0  0  0  0  0  0  0  0
   36.0058  -12.3891  -36.4116 N   0  0  0  0  0  0  0  0  0  0  0  0
  1  2  2  0  0  0  0
  1  7  1  0  0  0  0
  2  3  1  0  0  0  0
  2  4  1  0  0  0  0
  4  5  2  0  0  0  0
  5  6  1  0  0  0  0
  5 11  1  0  0  0  0
  6  7  2  0  0  0  0
  6  9  1  0  0  0  0
  7  8  1  0  0  0  0
  9 10  1  0  0  0  0
 10 11  2  0  0  0  0
M  END
>  <CHROM.1>
36.88119072,-9.97238582,-37.02372382,1.46940346,-0.50030903,-0.44217545

>  <Name>
ligand

>  <RI>
0

>  <Rbt.Current_Directory>
/home/itssahil/PROJECTS/Mol_Feturizer/New_Systems/rnas/3RKF

>  <Rbt.Executable>
rbdock ($Id: //depot/dev/client3/rdock/2013.1/src/exe/rbdock.cxx#4 $)

>  <Rbt.Library>
libRbt.so (2013.1, Build901 2013/11/27)

>  <Rbt.Parameter_File>
/export/apps/rDock/src/rDock_2013.1_src/data/scripts/dock_solv.prm

>  <Rbt.Receptor>
prm/blind_docking_60.prm

>  <SCORE>
-15.776

>  <SCORE.INTER>
-15.776

>  <SCORE.INTER.CONST>
1

>  <SCORE.INTER.POLAR>
0

>  <SCORE.INTER.ROT>
0

>  <SCORE.INTER.SOLV>
9.67764

>  <SCORE.INTER.VDW>
-17.3432

>  <SCORE.INTER.norm>
-1.43418

>  <SCORE.INTRA>
0

>  <SCORE.INTRA.DIHEDRAL>
0

>  <SCORE.INTRA.DIHEDRAL.0>
0

>  <SCORE.INTRA.POLAR>
0

>  <SCORE.INTRA.POLAR.0>
0

>  <SCORE.INTRA.REPUL>
0

>  <SCORE.INTRA.REPUL.0>
0

>  <SCORE.INTRA.SOLV>
0

>  <SCORE.INTRA.SOLV.lig_0>
-28.6198

>  <SCORE.INTRA.VDW>
0

>  <SCORE.INTRA.VDW.0>
0

>  <SCORE.INTRA.norm>
0

>  <SCORE.RESTR>
0

>  <SCORE.RESTR.CAVITY>
0

>  <SCORE.RESTR.norm>
0

>  <SCORE.SYSTEM>
0

>  <SCORE.SYSTEM.CONST>
0

>  <SCORE.SYSTEM.DIHEDRAL>
0

>  <SCORE.SYSTEM.SOLV>
0

>  <SCORE.SYSTEM.norm>
0

>  <SCORE.heavy>
11

>  <SCORE.norm>
-1.43418

>  <RMSD>
2.901

$$$$
ligand
 OpenBabel11021811483D
libRbt.so/2013.1/901 2013/11/27
 11 12  0  0  0  0  0  0  0  0999 V2000
   36.6221   -8.5916  -37.8284 N   0  0  0  0  0  0  0  0  0  0  0  0
   35.5037   -9.2131  -38.2313 C   0  0  0  0  0  0  0  0  0  0  0  0
   34.5971   -8.5237  -39.0933 N   0  0  0  0  0  0  0  0  0  0  0  0
   35.2226  -10.4613  -37.8428 N   0  0  0  0  0  0  0  0  0  0  0  0
   36.0854  -11.1453  -37.0087 C   0  0  0  0  0  0  0  0  0  0  0  0
   37.2316  -10.5242  -36.5860 C   0  0  0  0  0  0  0  0  0  0  0  0
   37.5169   -9.1866  -37.0140 C   0  0  0  0  0  0  0  0  0  0  0  0
   38.9882   -8.3470  -36.5007 S   0  0  0  0  0  0  0  0  0  0  0  0
   37.9057  -11.4035  -35.7778 N   0  0  0  0  0  0  0  0  0  0  0  0
   37.1832  -12.5517  -35.7029 C   0  0  0  0  0  0  0  0  0  0  0  0
   36.0558  -12.4132  -36.4559 N   0  0  0  0  0  0  0  0  0  0  0  0
  1  2  2  0  0  0  0
  1  7  1  0  0  0  0
  2  3  1  0  0  0  0
  2  4  1  0  0  0  0
  4  5  2  0  0  0  0
  5  6  1  0  0  0  0
  5 11  1  0  0  0  0
  6  7  2  0  0  0  0
  6  9  1  0  0  0  0
  7  8  1  0  0  0  0
  9 10  1  0  0  0  0
 10 11  2  0  0  0  0
M  END
>  <CHROM.1>
36.89944248,-9.97754144,-37.03670482,1.48268773,-0.50707004,-0.42331009

>  <Name>
ligand

>  <RI>
0

>  <Rbt.Current_Directory>
/home/itssahil/PROJECTS/Mol_Feturizer/New_Systems/rnas/3RKF

>  <Rbt.Executable>
rbdock ($Id: //depot/dev/client3/rdock/2013.1/src/exe/rbdock.cxx#4 $)

>  <Rbt.Library>
libRbt.so (2013.1, Build901 2013/11/27)

>  <Rbt.Parameter_File>
/export/apps/rDock/src/rDock_2013.1_src/data/scripts/dock_solv.prm

>  <Rbt.Receptor>
prm/blind_docking_80.prm

>  <SCORE>
-15.7882

>  <SCORE.INTER>
-15.7882

>  <SCORE.INTER.CONST>
1

>  <SCORE.INTER.POLAR>
0

>  <SCORE.INTER.ROT>
0

>  <SCORE.INTER.SOLV>
9.66532

>  <SCORE.INTER.VDW>
-17.3472

>  <SCORE.INTER.norm>
-1.43529

>  <SCORE.INTRA>
0

>  <SCORE.INTRA.DIHEDRAL>
0

>  <SCORE.INTRA.DIHEDRAL.0>
0

>  <SCORE.INTRA.POLAR>
0

>  <SCORE.INTRA.POLAR.0>
0

>  <SCORE.INTRA.REPUL>
0

>  <SCORE.INTRA.REPUL.0>
0

>  <SCORE.INTRA.SOLV>
0

>  <SCORE.INTRA.SOLV.lig_0>
-28.6198

>  <SCORE.INTRA.VDW>
0

>  <SCORE.INTRA.VDW.0>
0

>  <SCORE.INTRA.norm>
0

>  <SCORE.RESTR>
0

>  <SCORE.RESTR.CAVITY>
0

>  <SCORE.RESTR.norm>
0

>  <SCORE.SYSTEM>
0

>  <SCORE.SYSTEM.CONST>
0

>  <SCORE.SYSTEM.DIHEDRAL>
0

>  <SCORE.SYSTEM.SOLV>
0

>  <SCORE.SYSTEM.norm>
0

>  <SCORE.heavy>
11

>  <SCORE.norm>
-1.43529

>  <RMSD>
2.901

$$$$
ligand
 OpenBabel11021811483D
libRbt.so/2013.1/901 2013/11/27
 11 12  0  0  0  0  0  0  0  0999 V2000
   36.6478   -8.6087  -37.8360 N   0  0  0  0  0  0  0  0  0  0  0  0
   35.5195   -9.2179  -38.2302 C   0  0  0  0  0  0  0  0  0  0  0  0
   34.6157   -8.5200  -39.0882 N   0  0  0  0  0  0  0  0  0  0  0  0
   35.2260  -10.4617  -37.8366 N   0  0  0  0  0  0  0  0  0  0  0  0
   36.0859  -11.1538  -37.0062 C   0  0  0  0  0  0  0  0  0  0  0  0
   37.2421  -10.5453  -36.5924 C   0  0  0  0  0  0  0  0  0  0  0  0
   37.5406   -9.2123  -37.0257 C   0  0  0  0  0  0  0  0  0  0  0  0
   39.0250   -8.3890  -36.5240 S   0  0  0  0  0  0  0  0  0  0  0  0
   37.9109  -11.4305  -35.7861 N   0  0  0  0  0  0  0  0  0  0  0  0
   37.1752  -12.5698  -35.7036 C   0  0  0  0  0  0  0  0  0  0  0  0
   36.0447  -12.4198  -36.4498 N   0  0  0  0  0  0  0  0  0  0  0  0
  1  2  2  0  0  0  0
  1  7  1  0  0  0  0
  2  3  1  0  0  0  0
  2  4  1  0  0  0  0
  4  5  2  0  0  0  0
  5  6  1  0  0  0  0
  5 11  1  0  0  0  0
  6  7  2  0  0  0  0
  6  9  1  0  0  0  0
  7  8  1  0  0  0  0
  9 10  1  0  0  0  0
 10 11  2  0  0  0  0
M  END
>  <CHROM.1>
36.91362456,-9.99586604,-37.04241701,1.47331128,-0.49634184,-0.43043533

>  <Name>
ligand

>  <RI>
0

>  <Rbt.Current_Directory>
/home/itssahil/PROJECTS/Mol_Feturizer/New_Systems/rnas/3RKF

>  <Rbt.Executable>
rbdock ($Id: //depot/dev/client3/rdock/2013.1/src/exe/rbdock.cxx#4 $)

>  <Rbt.Library>
libRbt.so (2013.1, Build901 2013/11/27)

>  <Rbt.Parameter_File>
/export/apps/rDock/src/rDock_2013.1_src/data/scripts/dock_solv.prm

>  <Rbt.Receptor>
prm/blind_docking_80.prm

>  <SCORE>
-15.8155

>  <SCORE.INTER>
-15.8155

>  <SCORE.INTER.CONST>
1

>  <SCORE.INTER.POLAR>
0

>  <SCORE.INTER.ROT>
0

>  <SCORE.INTER.SOLV>
9.70731

>  <SCORE.INTER.VDW>
-17.3794

>  <SCORE.INTER.norm>
-1.43777

>  <SCORE.INTRA>
0

>  <SCORE.INTRA.DIHEDRAL>
0

>  <SCORE.INTRA.DIHEDRAL.0>
0

>  <SCORE.INTRA.POLAR>
0

>  <SCORE.INTRA.POLAR.0>
0

>  <SCORE.INTRA.REPUL>
0

>  <SCORE.INTRA.REPUL.0>
0

>  <SCORE.INTRA.SOLV>
0

>  <SCORE.INTRA.SOLV.lig_0>
-28.6198

>  <SCORE.INTRA.VDW>
0

>  <SCORE.INTRA.VDW.0>
0

>  <SCORE.INTRA.norm>
0

>  <SCORE.RESTR>
0

>  <SCORE.RESTR.CAVITY>
0

>  <SCORE.RESTR.norm>
0

>  <SCORE.SYSTEM>
0

>  <SCORE.SYSTEM.CONST>
0

>  <SCORE.SYSTEM.DIHEDRAL>
0

>  <SCORE.SYSTEM.SOLV>
0

>  <SCORE.SYSTEM.norm>
0

>  <SCORE.heavy>
11

>  <SCORE.norm>
-1.43777

>  <RMSD>
2.901

$$$$
ligand
 OpenBabel11021811483D
libRbt.so/2013.1/901 2013/11/27
 11 12  0  0  0  0  0  0  0  0999 V2000
   36.6125   -8.5873  -37.8280 N   0  0  0  0  0  0  0  0  0  0  0  0
   35.4911   -9.2050  -38.2285 C   0  0  0  0  0  0  0  0  0  0  0  0
   34.5921   -8.5177  -39.1001 N   0  0  0  0  0  0  0  0  0  0  0  0
   35.2000  -10.4473  -37.8288 N   0  0  0  0  0  0  0  0  0  0  0  0
   36.0553  -11.1292  -36.9853 C   0  0  0  0  0  0  0  0  0  0  0  0
   37.2044  -10.5120  -36.5650 C   0  0  0  0  0  0  0  0  0  0  0  0
   37.5005   -9.1806  -37.0050 C   0  0  0  0  0  0  0  0  0  0  0  0
   38.9759   -8.3463  -36.4950 S   0  0  0  0  0  0  0  0  0  0  0  0
   37.8698  -11.3880  -35.7460 N   0  0  0  0  0  0  0  0  0  0  0  0
   37.1390  -12.5304  -35.6623 C   0  0  0  0  0  0  0  0  0  0  0  0
   36.0150  -12.3914  -36.4203 N   0  0  0  0  0  0  0  0  0  0  0  0
  1  2  2  0  0  0  0
  1  7  1  0  0  0  0
  2  3  1  0  0  0  0
  2  4  1  0  0  0  0
  4  5  2  0  0  0  0
  5  6  1  0  0  0  0
  5 11  1  0  0  0  0
  6  7  2  0  0  0  0
  6  9  1  0  0  0  0
  7  8  1  0  0  0  0
  9 10  1  0  0  0  0
 10 11  2  0  0  0  0
M  END
>  <CHROM.1>
36.87758100,-9.96741085,-37.02199018,1.47388314,-0.50710006,-0.43731416

>  <Name>
ligand

>  <RI>
0

>  <Rbt.Current_Directory>
/home/itssahil/PROJECTS/Mol_Feturizer/New_Systems/rnas/3RKF

>  <Rbt.Executable>
rbdock ($Id: //depot/dev/client3/rdock/2013.1/src/exe/rbdock.cxx#4 $)

>  <Rbt.Library>
libRbt.so (2013.1, Build901 2013/11/27)

>  <Rbt.Parameter_File>
/export/apps/rDock/src/rDock_2013.1_src/data/scripts/dock_solv.prm

>  <Rbt.Receptor>
prm/blind_docking_80.prm

>  <SCORE>
-15.7788

>  <SCORE.INTER>
-15.7788

>  <SCORE.INTER.CONST>
1

>  <SCORE.INTER.POLAR>
0

>  <SCORE.INTER.ROT>
0

>  <SCORE.INTER.SOLV>
9.67497

>  <SCORE.INTER.VDW>
-17.3442

>  <SCORE.INTER.norm>
-1.43444

>  <SCORE.INTRA>
0

>  <SCORE.INTRA.DIHEDRAL>
0

>  <SCORE.INTRA.DIHEDRAL.0>
0

>  <SCORE.INTRA.POLAR>
0

>  <SCORE.INTRA.POLAR.0>
0

>  <SCORE.INTRA.REPUL>
0

>  <SCORE.INTRA.REPUL.0>
0

>  <SCORE.INTRA.SOLV>
0

>  <SCORE.INTRA.SOLV.lig_0>
-28.6198

>  <SCORE.INTRA.VDW>
0

>  <SCORE.INTRA.VDW.0>
0

>  <SCORE.INTRA.norm>
0

>  <SCORE.RESTR>
0

>  <SCORE.RESTR.CAVITY>
0

>  <SCORE.RESTR.norm>
0

>  <SCORE.SYSTEM>
0

>  <SCORE.SYSTEM.CONST>
0

>  <SCORE.SYSTEM.DIHEDRAL>
0

>  <SCORE.SYSTEM.SOLV>
0

>  <SCORE.SYSTEM.norm>
0

>  <SCORE.heavy>
11

>  <SCORE.norm>
-1.43444

>  <RMSD>
2.901

$$$$
ligand
 OpenBabel11021811483D
libRbt.so/2013.1/901 2013/11/27
 11 12  0  0  0  0  0  0  0  0999 V2000
   36.6152   -8.5883  -37.8277 N   0  0  0  0  0  0  0  0  0  0  0  0
   35.4918   -9.2038  -38.2259 C   0  0  0  0  0  0  0  0  0  0  0  0
   34.5947   -8.5165  -39.0995 N   0  0  0  0  0  0  0  0  0  0  0  0
   35.1970  -10.4440  -37.8223 N   0  0  0  0  0  0  0  0  0  0  0  0
   36.0504  -11.1259  -36.9769 C   0  0  0  0  0  0  0  0  0  0  0  0
   37.2016  -10.5108  -36.5588 C   0  0  0  0  0  0  0  0  0  0  0  0
   37.5016   -9.1818  -37.0030 C   0  0  0  0  0  0  0  0  0  0  0  0
   38.9797   -8.3504  -36.4960 S   0  0  0  0  0  0  0  0  0  0  0  0
   37.8645  -11.3864  -35.7373 N   0  0  0  0  0  0  0  0  0  0  0  0
   37.1302  -12.5262  -35.6498 C   0  0  0  0  0  0  0  0  0  0  0  0
   36.0065  -12.3862  -36.4080 N   0  0  0  0  0  0  0  0  0  0  0  0
  1  2  2  0  0  0  0
  1  7  1  0  0  0  0
  2  3  1  0  0  0  0
  2  4  1  0  0  0  0
  4  5  2  0  0  0  0
  5  6  1  0  0  0  0
  5 11  1  0  0  0  0
  6  7  2  0  0  0  0
  6  9  1  0  0  0  0
  7  8  1  0  0  0  0
  9 10  1  0  0  0  0
 10 11  2  0  0  0  0
M  END
>  <CHROM.1>
36.87626038,-9.96672151,-37.01740427,1.47084494,-0.50555395,-0.44190544

>  <Name>
ligand

>  <RI>
0

>  <Rbt.Current_Directory>
/home/itssahil/PROJECTS/Mol_Feturizer/New_Systems/rnas/3RKF

>  <Rbt.Executable>
rbdock ($Id: //depot/dev/client3/rdock/2013.1/src/exe/rbdock.cxx#4 $)

>  <Rbt.Library>
libRbt.so (2013.1, Build901 2013/11/27)

>  <Rbt.Parameter_File>
/export/apps/rDock/src/rDock_2013.1_src/data/scripts/dock_solv.prm

>  <Rbt.Receptor>
prm/pocket_docking_4.prm

>  <SCORE>
-15.7803

>  <SCORE.INTER>
-15.7803

>  <SCORE.INTER.CONST>
1

>  <SCORE.INTER.POLAR>
0

>  <SCORE.INTER.ROT>
0

>  <SCORE.INTER.SOLV>
9.68461

>  <SCORE.INTER.VDW>
-17.3484

>  <SCORE.INTER.norm>
-1.43457

>  <SCORE.INTRA>
0

>  <SCORE.INTRA.DIHEDRAL>
0

>  <SCORE.INTRA.DIHEDRAL.0>
0

>  <SCORE.INTRA.POLAR>
0

>  <SCORE.INTRA.POLAR.0>
0

>  <SCORE.INTRA.REPUL>
0

>  <SCORE.INTRA.REPUL.0>
0

>  <SCORE.INTRA.SOLV>
0

>  <SCORE.INTRA.SOLV.lig_0>
-28.6198

>  <SCORE.INTRA.VDW>
0

>  <SCORE.INTRA.VDW.0>
0

>  <SCORE.INTRA.norm>
0

>  <SCORE.RESTR>
0

>  <SCORE.RESTR.CAVITY>
0

>  <SCORE.RESTR.norm>
0

>  <SCORE.SYSTEM>
0

>  <SCORE.SYSTEM.CONST>
0

>  <SCORE.SYSTEM.DIHEDRAL>
0

>  <SCORE.SYSTEM.SOLV>
0

>  <SCORE.SYSTEM.norm>
0

>  <SCORE.heavy>
11

>  <SCORE.norm>
-1.43457

>  <RMSD>
2.901

$$$$
ligand
 OpenBabel11021811483D
libRbt.so/2013.1/901 2013/11/27
 11 12  0  0  0  0  0  0  0  0999 V2000
   36.6203   -8.5869  -37.8257 N   0  0  0  0  0  0  0  0  0  0  0  0
   35.5031   -9.2104  -38.2287 C   0  0  0  0  0  0  0  0  0  0  0  0
   34.5959   -8.5231  -39.0917 N   0  0  0  0  0  0  0  0  0  0  0  0
   35.2237  -10.4588  -37.8395 N   0  0  0  0  0  0  0  0  0  0  0  0
   36.0871  -11.1409  -37.0044 C   0  0  0  0  0  0  0  0  0  0  0  0
   37.2321  -10.5176  -36.5816 C   0  0  0  0  0  0  0  0  0  0  0  0
   37.5156   -9.1799  -37.0104 C   0  0  0  0  0  0  0  0  0  0  0  0
   38.9852   -8.3377  -36.4968 S   0  0  0  0  0  0  0  0  0  0  0  0
   37.9072  -11.3953  -35.7723 N   0  0  0  0  0  0  0  0  0  0  0  0
   37.1864  -12.5446  -35.6970 C   0  0  0  0  0  0  0  0  0  0  0  0
   36.0592  -12.4084  -36.4507 N   0  0  0  0  0  0  0  0  0  0  0  0
  1  2  2  0  0  0  0
  1  7  1  0  0  0  0
  2  3  1  0  0  0  0
  2  4  1  0  0  0  0
  4  5  2  0  0  0  0
  5  6  1  0  0  0  0
  5 11  1  0  0  0  0
  6  7  2  0  0  0  0
  6  9  1  0  0  0  0
  7  8  1  0  0  0  0
  9 10  1  0  0  0  0
 10 11  2  0  0  0  0
M  END
>  <CHROM.1>
36.89933712,-9.97182735,-37.03281012,1.48405404,-0.50820950,-0.42337236

>  <Name>
ligand

>  <RI>
0

>  <Rbt.Current_Directory>
/home/itssahil/PROJECTS/Mol_Feturizer/New_Systems/rnas/3RKF

>  <Rbt.Executable>
rbdock ($Id: //depot/dev/client3/rdock/2013.1/src/exe/rbdock.cxx#4 $)

>  <Rbt.Library>
libRbt.so (2013.1, Build901 2013/11/27)

>  <Rbt.Parameter_File>
/export/apps/rDock/src/rDock_2013.1_src/data/scripts/dock_solv.prm

>  <Rbt.Receptor>
prm/pocket_docking_4.prm

>  <SCORE>
-15.7884

>  <SCORE.INTER>
-15.7884

>  <SCORE.INTER.CONST>
1

>  <SCORE.INTER.POLAR>
0

>  <SCORE.INTER.ROT>
0

>  <SCORE.INTER.SOLV>
9.65814

>  <SCORE.INTER.VDW>
-17.345

>  <SCORE.INTER.norm>
-1.43531

>  <SCORE.INTRA>
0

>  <SCORE.INTRA.DIHEDRAL>
0

>  <SCORE.INTRA.DIHEDRAL.0>
0

>  <SCORE.INTRA.POLAR>
0

>  <SCORE.INTRA.POLAR.0>
0

>  <SCORE.INTRA.REPUL>
0

>  <SCORE.INTRA.REPUL.0>
0

>  <SCORE.INTRA.SOLV>
0

>  <SCORE.INTRA.SOLV.lig_0>
-28.6198

>  <SCORE.INTRA.VDW>
0

>  <SCORE.INTRA.VDW.0>
0

>  <SCORE.INTRA.norm>
0

>  <SCORE.RESTR>
0

>  <SCORE.RESTR.CAVITY>
0

>  <SCORE.RESTR.norm>
0

>  <SCORE.SYSTEM>
0

>  <SCORE.SYSTEM.CONST>
0

>  <SCORE.SYSTEM.DIHEDRAL>
0

>  <SCORE.SYSTEM.SOLV>
0

>  <SCORE.SYSTEM.norm>
0

>  <SCORE.heavy>
11

>  <SCORE.norm>
-1.43531

>  <RMSD>
2.901

$$$$
ligand
 OpenBabel11021811483D
libRbt.so/2013.1/901 2013/11/27
 11 12  0  0  0  0  0  0  0  0999 V2000
   36.6156   -8.5817  -37.8037 N   0  0  0  0  0  0  0  0  0  0  0  0
   35.5003   -9.2010  -38.2184 C   0  0  0  0  0  0  0  0  0  0  0  0
   34.6067   -8.5114  -39.0937 N   0  0  0  0  0  0  0  0  0  0  0  0
   35.2104  -10.4470  -37.8294 N   0  0  0  0  0  0  0  0  0  0  0  0
   36.0606  -11.1311  -36.9825 C   0  0  0  0  0  0  0  0  0  0  0  0
   37.2035  -10.5122  -36.5477 C   0  0  0  0  0  0  0  0  0  0  0  0
   37.4984   -9.1769  -36.9764 C   0  0  0  0  0  0  0  0  0  0  0  0
   38.9659   -8.3404  -36.4477 S   0  0  0  0  0  0  0  0  0  0  0  0
   37.8648  -11.3911  -35.7284 N   0  0  0  0  0  0  0  0  0  0  0  0
   37.1376  -12.5367  -35.6587 C   0  0  0  0  0  0  0  0  0  0  0  0
   36.0200  -12.3971  -36.4261 N   0  0  0  0  0  0  0  0  0  0  0  0
  1  2  2  0  0  0  0
  1  7  1  0  0  0  0
  2  3  1  0  0  0  0
  2  4  1  0  0  0  0
  4  5  2  0  0  0  0
  5  6  1  0  0  0  0
  5 11  1  0  0  0  0
  6  7  2  0  0  0  0
  6  9  1  0  0  0  0
  7  8  1  0  0  0  0
  9 10  1  0  0  0  0
 10 11  2  0  0  0  0
M  END
>  <CHROM.1>
36.87870740,-9.96598128,-37.00419615,1.47345164,-0.51695511,-0.43105525

>  <Name>
ligand

>  <RI>
0

>  <Rbt.Current_Directory>
/home/itssahil/PROJECTS/Mol_Feturizer/New_Systems/rnas/3RKF

>  <Rbt.Executable>
rbdock ($Id: //depot/dev/client3/rdock/2013.1/src/exe/rbdock.cxx#4 $)

>  <Rbt.Library>
libRbt.so (2013.1, Build901 2013/11/27)

>  <Rbt.Parameter_File>
/export/apps/rDock/src/rDock_2013.1_src/data/scripts/dock_solv.prm

>  <Rbt.Receptor>
prm/pocket_docking_4.prm

>  <SCORE>
-15.733

>  <SCORE.INTER>
-15.733

>  <SCORE.INTER.CONST>
1

>  <SCORE.INTER.POLAR>
0

>  <SCORE.INTER.ROT>
0

>  <SCORE.INTER.SOLV>
9.66533

>  <SCORE.INTER.VDW>
-17.3104

>  <SCORE.INTER.norm>
-1.43027

>  <SCORE.INTRA>
0

>  <SCORE.INTRA.DIHEDRAL>
0

>  <SCORE.INTRA.DIHEDRAL.0>
0

>  <SCORE.INTRA.POLAR>
0

>  <SCORE.INTRA.POLAR.0>
0

>  <SCORE.INTRA.REPUL>
0

>  <SCORE.INTRA.REPUL.0>
0

>  <SCORE.INTRA.SOLV>
0

>  <SCORE.INTRA.SOLV.lig_0>
-28.6198

>  <SCORE.INTRA.VDW>
0

>  <SCORE.INTRA.VDW.0>
0

>  <SCORE.INTRA.norm>
0

>  <SCORE.RESTR>
0

>  <SCORE.RESTR.CAVITY>
0

>  <SCORE.RESTR.norm>
0

>  <SCORE.SYSTEM>
0

>  <SCORE.SYSTEM.CONST>
0

>  <SCORE.SYSTEM.DIHEDRAL>
0

>  <SCORE.SYSTEM.SOLV>
0

>  <SCORE.SYSTEM.norm>
0

>  <SCORE.heavy>
11

>  <SCORE.norm>
-1.43027

>  <RMSD>
2.901

$$$$
ligand
 OpenBabel11021811483D
libRbt.so/2013.1/901 2013/11/27
 11 12  0  0  0  0  0  0  0  0999 V2000
   36.6112   -8.5898  -37.8256 N   0  0  0  0  0  0  0  0  0  0  0  0
   35.4859   -9.2017  -38.2241 C   0  0  0  0  0  0  0  0  0  0  0  0
   34.5892   -8.5100  -39.0946 N   0  0  0  0  0  0  0  0  0  0  0  0
   35.1889  -10.4424  -37.8235 N   0  0  0  0  0  0  0  0  0  0  0  0
   36.0419  -11.1284  -36.9810 C   0  0  0  0  0  0  0  0  0  0  0  0
   37.1949  -10.5170  -36.5626 C   0  0  0  0  0  0  0  0  0  0  0  0
   37.4973   -9.1874  -37.0036 C   0  0  0  0  0  0  0  0  0  0  0  0
   38.9779   -8.3607  -36.4963 S   0  0  0  0  0  0  0  0  0  0  0  0
   37.8569  -11.3963  -35.7443 N   0  0  0  0  0  0  0  0  0  0  0  0
   37.1203  -12.5347  -35.6590 C   0  0  0  0  0  0  0  0  0  0  0  0
   35.9958  -12.3901  -36.4154 N   0  0  0  0  0  0  0  0  0  0  0  0
  1  2  2  0  0  0  0
  1  7  1  0  0  0  0
  2  3  1  0  0  0  0
  2  4  1  0  0  0  0
  4  5  2  0  0  0  0
  5  6  1  0  0  0  0
  5 11  1  0  0  0  0
  6  7  2  0  0  0  0
  6  9  1  0  0  0  0
  7  8  1  0  0  0  0
  9 10  1  0  0  0  0
 10 11  2  0  0  0  0
M  END
>  <CHROM.1>
36.87023447,-9.97095341,-37.01938867,1.46916904,-0.50346928,-0.44001241

>  <Name>
ligand

>  <RI>
0

>  <Rbt.Current_Directory>
/home/itssahil/PROJECTS/Mol_Feturizer/New_Systems/rnas/3RKF

>  <Rbt.Executable>
rbdock ($Id: //depot/dev/client3/rdock/2013.1/src/exe/rbdock.cxx#4 $)

>  <Rbt.Library>
libRbt.so (2013.1, Build901 2013/11/27)

>  <Rbt.Parameter_File>
/export/apps/rDock/src/rDock_2013.1_src/data/scripts/dock_solv.prm

>  <Rbt.Receptor>
prm/pocket_docking_4.prm

>  <SCORE>
-15.7788

>  <SCORE.INTER>
-15.7788

>  <SCORE.INTER.CONST>
1

>  <SCORE.INTER.POLAR>
0

>  <SCORE.INTER.ROT>
0

>  <SCORE.INTER.SOLV>
9.64486

>  <SCORE.INTER.VDW>
-17.3342

>  <SCORE.INTER.norm>
-1.43444

>  <SCORE.INTRA>
0

>  <SCORE.INTRA.DIHEDRAL>
0

>  <SCORE.INTRA.DIHEDRAL.0>
0

>  <SCORE.INTRA.POLAR>
0

>  <SCORE.INTRA.POLAR.0>
0

>  <SCORE.INTRA.REPUL>
0

>  <SCORE.INTRA.REPUL.0>
0

>  <SCORE.INTRA.SOLV>
0

>  <SCORE.INTRA.SOLV.lig_0>
-28.6198

>  <SCORE.INTRA.VDW>
0

>  <SCORE.INTRA.VDW.0>
0

>  <SCORE.INTRA.norm>
0

>  <SCORE.RESTR>
0

>  <SCORE.RESTR.CAVITY>
0

>  <SCORE.RESTR.norm>
0

>  <SCORE.SYSTEM>
0

>  <SCORE.SYSTEM.CONST>
0

>  <SCORE.SYSTEM.DIHEDRAL>
0

>  <SCORE.SYSTEM.SOLV>
0

>  <SCORE.SYSTEM.norm>
0

>  <SCORE.heavy>
11

>  <SCORE.norm>
-1.43444

>  <RMSD>
2.901

$$$$
ligand
 OpenBabel11021811483D
libRbt.so/2013.1/901 2013/11/27
 11 12  0  0  0  0  0  0  0  0999 V2000
   36.6020   -8.6602  -37.8758 N   0  0  0  0  0  0  0  0  0  0  0  0
   35.4889   -9.2811  -38.2940 C   0  0  0  0  0  0  0  0  0  0  0  0
   34.5791   -8.5802  -39.1434 N   0  0  0  0  0  0  0  0  0  0  0  0
   35.2159  -10.5391  -37.9323 N   0  0  0  0  0  0  0  0  0  0  0  0
   36.0819  -11.2343  -37.1109 C   0  0  0  0  0  0  0  0  0  0  0  0
   37.2227  -10.6140  -36.6728 C   0  0  0  0  0  0  0  0  0  0  0  0
   37.4994   -9.2657  -37.0721 C   0  0  0  0  0  0  0  0  0  0  0  0
   38.9635   -8.4267  -36.5381 S   0  0  0  0  0  0  0  0  0  0  0  0
   37.9015  -11.5053  -35.8816 N   0  0  0  0  0  0  0  0  0  0  0  0
   37.1870  -12.6598  -35.8323 C   0  0  0  0  0  0  0  0  0  0  0  0
   36.0602  -12.5137  -36.5848 N   0  0  0  0  0  0  0  0  0  0  0  0
  1  2  2  0  0  0  0
  1  7  1  0  0  0  0
  2  3  1  0  0  0  0
  2  4  1  0  0  0  0
  4  5  2  0  0  0  0
  5  6  1  0  0  0  0
  5 11  1  0  0  0  0
  6  7  2  0  0  0  0
  6  9  1  0  0  0  0
  7  8  1  0  0  0  0
  9 10  1  0  0  0  0
 10 11  2  0  0  0  0
M  END
>  <CHROM.1>
36.88761033,-10.06040914,-37.11263832,1.48920080,-0.51184197,-0.39920766

>  <Name>
ligand

>  <RI>
0

>  <Rbt.Current_Directory>
/home/itssahil/PROJECTS/Mol_Feturizer/New_Systems/rnas/3RKF

>  <Rbt.Executable>
rbdock ($Id: //depot/dev/client3/rdock/2013.1/src/exe/rbdock.cxx#4 $)

>  <Rbt.Library>
libRbt.so (2013.1, Build901 2013/11/27)

>  <Rbt.Parameter_File>
/export/apps/rDock/src/rDock_2013.1_src/data/scripts/dock_solv.prm

>  <Rbt.Receptor>
prm/pocket_docking_6.prm

>  <SCORE>
-15.7289

>  <SCORE.INTER>
-15.7289

>  <SCORE.INTER.CONST>
1

>  <SCORE.INTER.POLAR>
0

>  <SCORE.INTER.ROT>
0

>  <SCORE.INTER.SOLV>
9.87253

>  <SCORE.INTER.VDW>
-17.3768

>  <SCORE.INTER.norm>
-1.4299

>  <SCORE.INTRA>
0

>  <SCORE.INTRA.DIHEDRAL>
0

>  <SCORE.INTRA.DIHEDRAL.0>
0

>  <SCORE.INTRA.POLAR>
0

>  <SCORE.INTRA.POLAR.0>
0

>  <SCORE.INTRA.REPUL>
0

>  <SCORE.INTRA.REPUL.0>
0

>  <SCORE.INTRA.SOLV>
0

>  <SCORE.INTRA.SOLV.lig_0>
-28.6198

>  <SCORE.INTRA.VDW>
0

>  <SCORE.INTRA.VDW.0>
0

>  <SCORE.INTRA.norm>
0

>  <SCORE.RESTR>
0

>  <SCORE.RESTR.CAVITY>
0

>  <SCORE.RESTR.norm>
0

>  <SCORE.SYSTEM>
0

>  <SCORE.SYSTEM.CONST>
0

>  <SCORE.SYSTEM.DIHEDRAL>
0

>  <SCORE.SYSTEM.SOLV>
0

>  <SCORE.SYSTEM.norm>
0

>  <SCORE.heavy>
11

>  <SCORE.norm>
-1.4299

>  <RMSD>
2.901

$$$$
ligand
 OpenBabel11021811483D
libRbt.so/2013.1/901 2013/11/27
 11 12  0  0  0  0  0  0  0  0999 V2000
   36.6423   -8.7158  -37.9369 N   0  0  0  0  0  0  0  0  0  0  0  0
   35.5422   -9.3406  -38.3828 C   0  0  0  0  0  0  0  0  0  0  0  0
   34.6698   -8.6553  -39.2825 N   0  0  0  0  0  0  0  0  0  0  0  0
   35.2481  -10.5884  -38.0026 N   0  0  0  0  0  0  0  0  0  0  0  0
   36.0779  -11.2685  -37.1326 C   0  0  0  0  0  0  0  0  0  0  0  0
   37.2049  -10.6439  -36.6658 C   0  0  0  0  0  0  0  0  0  0  0  0
   37.5047   -9.3068  -37.0856 C   0  0  0  0  0  0  0  0  0  0  0  0
   38.9525   -8.4630  -36.5157 S   0  0  0  0  0  0  0  0  0  0  0  0
   37.8477  -11.5198  -35.8287 N   0  0  0  0  0  0  0  0  0  0  0  0
   37.1249  -12.6692  -35.7798 C   0  0  0  0  0  0  0  0  0  0  0  0
   36.0284  -12.5350  -36.5780 N   0  0  0  0  0  0  0  0  0  0  0  0
  1  2  2  0  0  0  0
  1  7  1  0  0  0  0
  2  3  1  0  0  0  0
  2  4  1  0  0  0  0
  4  5  2  0  0  0  0
  5  6  1  0  0  0  0
  5 11  1  0  0  0  0
  6  7  2  0  0  0  0
  6  9  1  0  0  0  0
  7  8  1  0  0  0  0
  9 10  1  0  0  0  0
 10 11  2  0  0  0  0
M  END
>  <CHROM.1>
36.89016312,-10.09911178,-37.13094792,1.46537595,-0.54451570,-0.43466962

>  <Name>
ligand

>  <RI>
0

>  <Rbt.Current_Directory>
/home/itssahil/PROJECTS/Mol_Feturizer/New_Systems/rnas/3RKF

>  <Rbt.Executable>
rbdock ($Id: //depot/dev/client3/rdock/2013.1/src/exe/rbdock.cxx#4 $)

>  <Rbt.Library>
libRbt.so (2013.1, Build901 2013/11/27)

>  <Rbt.Parameter_File>
/export/apps/rDock/src/rDock_2013.1_src/data/scripts/dock_solv.prm

>  <Rbt.Receptor>
prm/blind_docking_60.prm

>  <SCORE>
-15.7347

>  <SCORE.INTER>
-15.7347

>  <SCORE.INTER.CONST>
1

>  <SCORE.INTER.POLAR>
0

>  <SCORE.INTER.ROT>
0

>  <SCORE.INTER.SOLV>
10.7864

>  <SCORE.INTER.VDW>
-17.6853

>  <SCORE.INTER.norm>
-1.43043

>  <SCORE.INTRA>
0

>  <SCORE.INTRA.DIHEDRAL>
0

>  <SCORE.INTRA.DIHEDRAL.0>
0

>  <SCORE.INTRA.POLAR>
0

>  <SCORE.INTRA.POLAR.0>
0

>  <SCORE.INTRA.REPUL>
0

>  <SCORE.INTRA.REPUL.0>
0

>  <SCORE.INTRA.SOLV>
0

>  <SCORE.INTRA.SOLV.lig_0>
-28.6198

>  <SCORE.INTRA.VDW>
0

>  <SCORE.INTRA.VDW.0>
0

>  <SCORE.INTRA.norm>
0

>  <SCORE.RESTR>
0

>  <SCORE.RESTR.CAVITY>
0

>  <SCORE.RESTR.norm>
0

>  <SCORE.SYSTEM>
0

>  <SCORE.SYSTEM.CONST>
0

>  <SCORE.SYSTEM.DIHEDRAL>
0

>  <SCORE.SYSTEM.SOLV>
0

>  <SCORE.SYSTEM.norm>
0

>  <SCORE.heavy>
11

>  <SCORE.norm>
-1.43043

>  <RMSD>
2.902

$$$$
ligand
 OpenBabel11021811483D
libRbt.so/2013.1/901 2013/11/27
 11 12  0  0  0  0  0  0  0  0999 V2000
   36.6161   -8.5927  -37.8273 N   0  0  0  0  0  0  0  0  0  0  0  0
   35.4930   -9.2083  -38.2262 C   0  0  0  0  0  0  0  0  0  0  0  0
   34.5947   -8.5199  -39.0977 N   0  0  0  0  0  0  0  0  0  0  0  0
   35.1996  -10.4496  -37.8249 N   0  0  0  0  0  0  0  0  0  0  0  0
   36.0542  -11.1325  -36.9815 C   0  0  0  0  0  0  0  0  0  0  0  0
   37.2051  -10.5173  -36.5628 C   0  0  0  0  0  0  0  0  0  0  0  0
   37.5036   -9.1870  -37.0044 C   0  0  0  0  0  0  0  0  0  0  0  0
   38.9813   -8.3555  -36.4967 S   0  0  0  0  0  0  0  0  0  0  0  0
   37.8693  -11.3940  -35.7435 N   0  0  0  0  0  0  0  0  0  0  0  0
   37.1361  -12.5346  -35.6580 C   0  0  0  0  0  0  0  0  0  0  0  0
   36.0117  -12.3940  -36.4152 N   0  0  0  0  0  0  0  0  0  0  0  0
  1  2  2  0  0  0  0
  1  7  1  0  0  0  0
  2  3  1  0  0  0  0
  2  4  1  0  0  0  0
  4  5  2  0  0  0  0
  5  6  1  0  0  0  0
  5 11  1  0  0  0  0
  6  7  2  0  0  0  0
  6  9  1  0  0  0  0
  7  8  1  0  0  0  0
  9 10  1  0  0  0  0
 10 11  2  0  0  0  0
M  END
>  <CHROM.1>
36.87897506,-9.97251085,-37.02009494,1.47207257,-0.50535103,-0.43922378

>  <Name>
ligand

>  <RI>
0

>  <Rbt.Current_Directory>
/home/itssahil/PROJECTS/Mol_Feturizer/New_Systems/rnas/3RKF

>  <Rbt.Executable>
rbdock ($Id: //depot/dev/client3/rdock/2013.1/src/exe/rbdock.cxx#4 $)

>  <Rbt.Library>
libRbt.so (2013.1, Build901 2013/11/27)

>  <Rbt.Parameter_File>
/export/apps/rDock/src/rDock_2013.1_src/data/scripts/dock_solv.prm

>  <Rbt.Receptor>
prm/blind_docking_80.prm

>  <SCORE>
-15.7796

>  <SCORE.INTER>
-15.7796

>  <SCORE.INTER.CONST>
1

>  <SCORE.INTER.POLAR>
0

>  <SCORE.INTER.ROT>
0

>  <SCORE.INTER.SOLV>
9.68245

>  <SCORE.INTER.VDW>
-17.3472

>  <SCORE.INTER.norm>
-1.43451

>  <SCORE.INTRA>
0

>  <SCORE.INTRA.DIHEDRAL>
0

>  <SCORE.INTRA.DIHEDRAL.0>
0

>  <SCORE.INTRA.POLAR>
0

>  <SCORE.INTRA.POLAR.0>
0

>  <SCORE.INTRA.REPUL>
0

>  <SCORE.INTRA.REPUL.0>
0

>  <SCORE.INTRA.SOLV>
0

>  <SCORE.INTRA.SOLV.lig_0>
-28.6198

>  <SCORE.INTRA.VDW>
0

>  <SCORE.INTRA.VDW.0>
0

>  <SCORE.INTRA.norm>
0

>  <SCORE.RESTR>
0

>  <SCORE.RESTR.CAVITY>
0

>  <SCORE.RESTR.norm>
0

>  <SCORE.SYSTEM>
0

>  <SCORE.SYSTEM.CONST>
0

>  <SCORE.SYSTEM.DIHEDRAL>
0

>  <SCORE.SYSTEM.SOLV>
0

>  <SCORE.SYSTEM.norm>
0

>  <SCORE.heavy>
11

>  <SCORE.norm>
-1.43451

>  <RMSD>
2.902

$$$$
ligand
 OpenBabel11021811483D
libRbt.so/2013.1/901 2013/11/27
 11 12  0  0  0  0  0  0  0  0999 V2000
   36.6602   -8.6106  -37.7858 N   0  0  0  0  0  0  0  0  0  0  0  0
   35.5388   -9.2183  -38.2013 C   0  0  0  0  0  0  0  0  0  0  0  0
   34.6447   -8.5134  -39.0639 N   0  0  0  0  0  0  0  0  0  0  0  0
   35.2433  -10.4668  -37.8248 N   0  0  0  0  0  0  0  0  0  0  0  0
   36.0938  -11.1656  -36.9904 C   0  0  0  0  0  0  0  0  0  0  0  0
   37.2428  -10.5588  -36.5549 C   0  0  0  0  0  0  0  0  0  0  0  0
   37.5437   -9.2205  -36.9701 C   0  0  0  0  0  0  0  0  0  0  0  0
   39.0192   -8.3991  -36.4399 S   0  0  0  0  0  0  0  0  0  0  0  0
   37.9030  -11.4509  -35.7492 N   0  0  0  0  0  0  0  0  0  0  0  0
   37.1692  -12.5927  -35.6885 C   0  0  0  0  0  0  0  0  0  0  0  0
   36.0484  -12.4376  -36.4481 N   0  0  0  0  0  0  0  0  0  0  0  0
  1  2  2  0  0  0  0
  1  7  1  0  0  0  0
  2  3  1  0  0  0  0
  2  4  1  0  0  0  0
  4  5  2  0  0  0  0
  5  6  1  0  0  0  0
  5 11  1  0  0  0  0
  6  7  2  0  0  0  0
  6  9  1  0  0  0  0
  7  8  1  0  0  0  0
  9 10  1  0  0  0  0
 10 11  2  0  0  0  0
M  END
>  <CHROM.1>
36.91895411,-10.00541232,-37.00337804,1.46959767,-0.50949122,-0.42163471

>  <Name>
ligand

>  <RI>
0

>  <Rbt.Current_Directory>
/home/itssahil/PROJECTS/Mol_Feturizer/New_Systems/rnas/3RKF

>  <Rbt.Executable>
rbdock ($Id: //depot/dev/client3/rdock/2013.1/src/exe/rbdock.cxx#4 $)

>  <Rbt.Library>
libRbt.so (2013.1, Build901 2013/11/27)

>  <Rbt.Parameter_File>
/export/apps/rDock/src/rDock_2013.1_src/data/scripts/dock_solv.prm

>  <Rbt.Receptor>
prm/blind_docking_80.prm

>  <SCORE>
-15.7007

>  <SCORE.INTER>
-15.7007

>  <SCORE.INTER.CONST>
1

>  <SCORE.INTER.POLAR>
0

>  <SCORE.INTER.ROT>
0

>  <SCORE.INTER.SOLV>
9.67717

>  <SCORE.INTER.VDW>
-17.2929

>  <SCORE.INTER.norm>
-1.42734

>  <SCORE.INTRA>
0

>  <SCORE.INTRA.DIHEDRAL>
0

>  <SCORE.INTRA.DIHEDRAL.0>
0

>  <SCORE.INTRA.POLAR>
0

>  <SCORE.INTRA.POLAR.0>
0

>  <SCORE.INTRA.REPUL>
0

>  <SCORE.INTRA.REPUL.0>
0

>  <SCORE.INTRA.SOLV>
0

>  <SCORE.INTRA.SOLV.lig_0>
-28.6198

>  <SCORE.INTRA.VDW>
0

>  <SCORE.INTRA.VDW.0>
0

>  <SCORE.INTRA.norm>
0

>  <SCORE.RESTR>
0

>  <SCORE.RESTR.CAVITY>
0

>  <SCORE.RESTR.norm>
0

>  <SCORE.SYSTEM>
0

>  <SCORE.SYSTEM.CONST>
0

>  <SCORE.SYSTEM.DIHEDRAL>
0

>  <SCORE.SYSTEM.SOLV>
0

>  <SCORE.SYSTEM.norm>
0

>  <SCORE.heavy>
11

>  <SCORE.norm>
-1.42734

>  <RMSD>
2.902

$$$$
ligand
 OpenBabel11021811483D
libRbt.so/2013.1/901 2013/11/27
 11 12  0  0  0  0  0  0  0  0999 V2000
   36.6393   -8.5867  -37.7830 N   0  0  0  0  0  0  0  0  0  0  0  0
   35.5286   -9.2081  -38.2068 C   0  0  0  0  0  0  0  0  0  0  0  0
   34.6323   -8.5142  -39.0759 N   0  0  0  0  0  0  0  0  0  0  0  0
   35.2457  -10.4603  -37.8326 N   0  0  0  0  0  0  0  0  0  0  0  0
   36.0986  -11.1486  -36.9920 C   0  0  0  0  0  0  0  0  0  0  0  0
   37.2369  -10.5277  -36.5480 C   0  0  0  0  0  0  0  0  0  0  0  0
   37.5243   -9.1858  -36.9609 C   0  0  0  0  0  0  0  0  0  0  0  0
   38.9856   -8.3463  -36.4199 S   0  0  0  0  0  0  0  0  0  0  0  0
   37.9021  -11.4117  -35.7375 N   0  0  0  0  0  0  0  0  0  0  0  0
   37.1820  -12.5625  -35.6822 C   0  0  0  0  0  0  0  0  0  0  0  0
   36.0649  -12.4211  -36.4500 N   0  0  0  0  0  0  0  0  0  0  0  0
  1  2  2  0  0  0  0
  1  7  1  0  0  0  0
  2  3  1  0  0  0  0
  2  4  1  0  0  0  0
  4  5  2  0  0  0  0
  5  6  1  0  0  0  0
  5 11  1  0  0  0  0
  6  7  2  0  0  0  0
  6  9  1  0  0  0  0
  7  8  1  0  0  0  0
  9 10  1  0  0  0  0
 10 11  2  0  0  0  0
M  END
>  <CHROM.1>
36.90950971,-9.97833440,-36.99883274,1.47909027,-0.52119614,-0.41688325

>  <Name>
ligand

>  <RI>
0

>  <Rbt.Current_Directory>
/home/itssahil/PROJECTS/Mol_Feturizer/New_Systems/rnas/3RKF

>  <Rbt.Executable>
rbdock ($Id: //depot/dev/client3/rdock/2013.1/src/exe/rbdock.cxx#4 $)

>  <Rbt.Library>
libRbt.so (2013.1, Build901 2013/11/27)

>  <Rbt.Parameter_File>
/export/apps/rDock/src/rDock_2013.1_src/data/scripts/dock_solv.prm

>  <Rbt.Receptor>
prm/pocket_docking_4.prm

>  <SCORE>
-15.7049

>  <SCORE.INTER>
-15.7049

>  <SCORE.INTER.CONST>
1

>  <SCORE.INTER.POLAR>
0

>  <SCORE.INTER.ROT>
0

>  <SCORE.INTER.SOLV>
9.66804

>  <SCORE.INTER.VDW>
-17.2926

>  <SCORE.INTER.norm>
-1.42772

>  <SCORE.INTRA>
0

>  <SCORE.INTRA.DIHEDRAL>
0

>  <SCORE.INTRA.DIHEDRAL.0>
0

>  <SCORE.INTRA.POLAR>
0

>  <SCORE.INTRA.POLAR.0>
0

>  <SCORE.INTRA.REPUL>
0

>  <SCORE.INTRA.REPUL.0>
0

>  <SCORE.INTRA.SOLV>
0

>  <SCORE.INTRA.SOLV.lig_0>
-28.6198

>  <SCORE.INTRA.VDW>
0

>  <SCORE.INTRA.VDW.0>
0

>  <SCORE.INTRA.norm>
0

>  <SCORE.RESTR>
0

>  <SCORE.RESTR.CAVITY>
0

>  <SCORE.RESTR.norm>
0

>  <SCORE.SYSTEM>
0

>  <SCORE.SYSTEM.CONST>
0

>  <SCORE.SYSTEM.DIHEDRAL>
0

>  <SCORE.SYSTEM.SOLV>
0

>  <SCORE.SYSTEM.norm>
0

>  <SCORE.heavy>
11

>  <SCORE.norm>
-1.42772

>  <RMSD>
2.902

$$$$
ligand
 OpenBabel11021811483D
libRbt.so/2013.1/901 2013/11/27
 11 12  0  0  0  0  0  0  0  0999 V2000
   36.6524   -8.7114  -37.9299 N   0  0  0  0  0  0  0  0  0  0  0  0
   35.5603   -9.3373  -38.3937 C   0  0  0  0  0  0  0  0  0  0  0  0
   34.6699   -8.6321  -39.2599 N   0  0  0  0  0  0  0  0  0  0  0  0
   35.2905  -10.6042  -38.0617 N   0  0  0  0  0  0  0  0  0  0  0  0
   36.1379  -11.3036  -37.2247 C   0  0  0  0  0  0  0  0  0  0  0  0
   37.2571  -10.6784  -36.7403 C   0  0  0  0  0  0  0  0  0  0  0  0
   37.5307   -9.3206  -37.1081 C   0  0  0  0  0  0  0  0  0  0  0  0
   38.9675   -8.4747  -36.5139 S   0  0  0  0  0  0  0  0  0  0  0  0
   37.9207  -11.5754  -35.9428 N   0  0  0  0  0  0  0  0  0  0  0  0
   37.2183  -12.7384  -35.9354 C   0  0  0  0  0  0  0  0  0  0  0  0
   36.1143  -12.5919  -36.7209 N   0  0  0  0  0  0  0  0  0  0  0  0
  1  2  2  0  0  0  0
  1  7  1  0  0  0  0
  2  3  1  0  0  0  0
  2  4  1  0  0  0  0
  4  5  2  0  0  0  0
  5  6  1  0  0  0  0
  5 11  1  0  0  0  0
  6  7  2  0  0  0  0
  6  9  1  0  0  0  0
  7  8  1  0  0  0  0
  9 10  1  0  0  0  0
 10 11  2  0  0  0  0
M  END
>  <CHROM.1>
36.92973411,-10.12111508,-37.18135817,1.48718014,-0.54551123,-0.38347347

>  <Name>
ligand

>  <RI>
0

>  <Rbt.Current_Directory>
/home/itssahil/PROJECTS/Mol_Feturizer/New_Systems/rnas/3RKF

>  <Rbt.Executable>
rbdock ($Id: //depot/dev/client3/rdock/2013.1/src/exe/rbdock.cxx#4 $)

>  <Rbt.Library>
libRbt.so (2013.1, Build901 2013/11/27)

>  <Rbt.Parameter_File>
/export/apps/rDock/src/rDock_2013.1_src/data/scripts/dock_solv.prm

>  <Rbt.Receptor>
prm/pocket_docking_4.prm

>  <SCORE>
-15.6779

>  <SCORE.INTER>
-15.6779

>  <SCORE.INTER.CONST>
1

>  <SCORE.INTER.POLAR>
0

>  <SCORE.INTER.ROT>
0

>  <SCORE.INTER.SOLV>
10.613

>  <SCORE.INTER.VDW>
-17.5896

>  <SCORE.INTER.norm>
-1.42527

>  <SCORE.INTRA>
0

>  <SCORE.INTRA.DIHEDRAL>
0

>  <SCORE.INTRA.DIHEDRAL.0>
0

>  <SCORE.INTRA.POLAR>
0

>  <SCORE.INTRA.POLAR.0>
0

>  <SCORE.INTRA.REPUL>
0

>  <SCORE.INTRA.REPUL.0>
0

>  <SCORE.INTRA.SOLV>
0

>  <SCORE.INTRA.SOLV.lig_0>
-28.6198

>  <SCORE.INTRA.VDW>
0

>  <SCORE.INTRA.VDW.0>
0

>  <SCORE.INTRA.norm>
0

>  <SCORE.RESTR>
0

>  <SCORE.RESTR.CAVITY>
0

>  <SCORE.RESTR.norm>
0

>  <SCORE.SYSTEM>
0

>  <SCORE.SYSTEM.CONST>
0

>  <SCORE.SYSTEM.DIHEDRAL>
0

>  <SCORE.SYSTEM.SOLV>
0

>  <SCORE.SYSTEM.norm>
0

>  <SCORE.heavy>
11

>  <SCORE.norm>
-1.42527

>  <RMSD>
2.902

$$$$
ligand
 OpenBabel11021811483D
libRbt.so/2013.1/901 2013/11/27
 11 12  0  0  0  0  0  0  0  0999 V2000
   36.6186   -8.5913  -37.8152 N   0  0  0  0  0  0  0  0  0  0  0  0
   35.4938   -9.2069  -38.2093 C   0  0  0  0  0  0  0  0  0  0  0  0
   34.5827   -8.5115  -39.0618 N   0  0  0  0  0  0  0  0  0  0  0  0
   35.2105  -10.4546  -37.8208 N   0  0  0  0  0  0  0  0  0  0  0  0
   36.0775  -11.1442  -36.9958 C   0  0  0  0  0  0  0  0  0  0  0  0
   37.2303  -10.5292  -36.5822 C   0  0  0  0  0  0  0  0  0  0  0  0
   37.5180   -9.1920  -37.0101 C   0  0  0  0  0  0  0  0  0  0  0  0
   38.9976   -8.3603  -36.5083 S   0  0  0  0  0  0  0  0  0  0  0  0
   37.9076  -11.4132  -35.7818 N   0  0  0  0  0  0  0  0  0  0  0  0
   37.1805  -12.5582  -35.7026 C   0  0  0  0  0  0  0  0  0  0  0  0
   36.0470  -12.4131  -36.4453 N   0  0  0  0  0  0  0  0  0  0  0  0
  1  2  2  0  0  0  0
  1  7  1  0  0  0  0
  2  3  1  0  0  0  0
  2  4  1  0  0  0  0
  4  5  2  0  0  0  0
  5  6  1  0  0  0  0
  5 11  1  0  0  0  0
  6  7  2  0  0  0  0
  6  9  1  0  0  0  0
  7  8  1  0  0  0  0
  9 10  1  0  0  0  0
 10 11  2  0  0  0  0
M  END
>  <CHROM.1>
36.89665491,-9.98009580,-37.02877369,1.48208442,-0.49700563,-0.42160597

>  <Name>
ligand

>  <RI>
0

>  <Rbt.Current_Directory>
/home/itssahil/PROJECTS/Mol_Feturizer/New_Systems/rnas/3RKF

>  <Rbt.Executable>
rbdock ($Id: //depot/dev/client3/rdock/2013.1/src/exe/rbdock.cxx#4 $)

>  <Rbt.Library>
libRbt.so (2013.1, Build901 2013/11/27)

>  <Rbt.Parameter_File>
/export/apps/rDock/src/rDock_2013.1_src/data/scripts/dock_solv.prm

>  <Rbt.Receptor>
prm/pocket_docking_4.prm

>  <SCORE>
-15.7838

>  <SCORE.INTER>
-15.7838

>  <SCORE.INTER.CONST>
1

>  <SCORE.INTER.POLAR>
0

>  <SCORE.INTER.ROT>
0

>  <SCORE.INTER.SOLV>
9.53758

>  <SCORE.INTER.VDW>
-17.3017

>  <SCORE.INTER.norm>
-1.43489

>  <SCORE.INTRA>
0

>  <SCORE.INTRA.DIHEDRAL>
0

>  <SCORE.INTRA.DIHEDRAL.0>
0

>  <SCORE.INTRA.POLAR>
0

>  <SCORE.INTRA.POLAR.0>
0

>  <SCORE.INTRA.REPUL>
0

>  <SCORE.INTRA.REPUL.0>
0

>  <SCORE.INTRA.SOLV>
0

>  <SCORE.INTRA.SOLV.lig_0>
-28.6198

>  <SCORE.INTRA.VDW>
0

>  <SCORE.INTRA.VDW.0>
0

>  <SCORE.INTRA.norm>
0

>  <SCORE.RESTR>
0

>  <SCORE.RESTR.CAVITY>
0

>  <SCORE.RESTR.norm>
0

>  <SCORE.SYSTEM>
0

>  <SCORE.SYSTEM.CONST>
0

>  <SCORE.SYSTEM.DIHEDRAL>
0

>  <SCORE.SYSTEM.SOLV>
0

>  <SCORE.SYSTEM.norm>
0

>  <SCORE.heavy>
11

>  <SCORE.norm>
-1.43489

>  <RMSD>
2.902

$$$$
ligand
 OpenBabel11021811483D
libRbt.so/2013.1/901 2013/11/27
 11 12  0  0  0  0  0  0  0  0999 V2000
   36.6108   -8.5779  -37.7925 N   0  0  0  0  0  0  0  0  0  0  0  0
   35.4928   -9.1974  -38.1995 C   0  0  0  0  0  0  0  0  0  0  0  0
   34.5841   -8.5016  -39.0541 N   0  0  0  0  0  0  0  0  0  0  0  0
   35.2140  -10.4496  -37.8220 N   0  0  0  0  0  0  0  0  0  0  0  0
   36.0789  -11.1398  -36.9953 C   0  0  0  0  0  0  0  0  0  0  0  0
   37.2247  -10.5209  -36.5684 C   0  0  0  0  0  0  0  0  0  0  0  0
   37.5076   -9.1790  -36.9846 C   0  0  0  0  0  0  0  0  0  0  0  0
   38.9782   -8.3420  -36.4656 S   0  0  0  0  0  0  0  0  0  0  0  0
   37.9012  -11.4065  -35.7690 N   0  0  0  0  0  0  0  0  0  0  0  0
   37.1804  -12.5563  -35.7036 C   0  0  0  0  0  0  0  0  0  0  0  0
   36.0518  -12.4127  -36.4539 N   0  0  0  0  0  0  0  0  0  0  0  0
  1  2  2  0  0  0  0
  1  7  1  0  0  0  0
  2  3  1  0  0  0  0
  2  4  1  0  0  0  0
  4  5  2  0  0  0  0
  5  6  1  0  0  0  0
  5 11  1  0  0  0  0
  6  7  2  0  0  0  0
  6  9  1  0  0  0  0
  7  8  1  0  0  0  0
  9 10  1  0  0  0  0
 10 11  2  0  0  0  0
M  END
>  <CHROM.1>
36.89118755,-9.97061842,-37.01369275,1.48480184,-0.50649305,-0.41322802

>  <Name>
ligand

>  <RI>
0

>  <Rbt.Current_Directory>
/home/itssahil/PROJECTS/Mol_Feturizer/New_Systems/rnas/3RKF

>  <Rbt.Executable>
rbdock ($Id: //depot/dev/client3/rdock/2013.1/src/exe/rbdock.cxx#4 $)

>  <Rbt.Library>
libRbt.so (2013.1, Build901 2013/11/27)

>  <Rbt.Parameter_File>
/export/apps/rDock/src/rDock_2013.1_src/data/scripts/dock_solv.prm

>  <Rbt.Receptor>
prm/pocket_docking_7.prm

>  <SCORE>
-15.7381

>  <SCORE.INTER>
-15.7381

>  <SCORE.INTER.CONST>
1

>  <SCORE.INTER.POLAR>
0

>  <SCORE.INTER.ROT>
0

>  <SCORE.INTER.SOLV>
9.48524

>  <SCORE.INTER.VDW>
-17.2538

>  <SCORE.INTER.norm>
-1.43074

>  <SCORE.INTRA>
0

>  <SCORE.INTRA.DIHEDRAL>
0

>  <SCORE.INTRA.DIHEDRAL.0>
0

>  <SCORE.INTRA.POLAR>
0

>  <SCORE.INTRA.POLAR.0>
0

>  <SCORE.INTRA.REPUL>
0

>  <SCORE.INTRA.REPUL.0>
0

>  <SCORE.INTRA.SOLV>
0

>  <SCORE.INTRA.SOLV.lig_0>
-28.6198

>  <SCORE.INTRA.VDW>
0

>  <SCORE.INTRA.VDW.0>
0

>  <SCORE.INTRA.norm>
0

>  <SCORE.RESTR>
0

>  <SCORE.RESTR.CAVITY>
0

>  <SCORE.RESTR.norm>
0

>  <SCORE.SYSTEM>
0

>  <SCORE.SYSTEM.CONST>
0

>  <SCORE.SYSTEM.DIHEDRAL>
0

>  <SCORE.SYSTEM.SOLV>
0

>  <SCORE.SYSTEM.norm>
0

>  <SCORE.heavy>
11

>  <SCORE.norm>
-1.43074

>  <RMSD>
2.902

$$$$
ligand
 OpenBabel11021811483D
libRbt.so/2013.1/901 2013/11/27
 11 12  0  0  0  0  0  0  0  0999 V2000
   36.6214   -8.5988  -37.8268 N   0  0  0  0  0  0  0  0  0  0  0  0
   35.4902   -9.2063  -38.2153 C   0  0  0  0  0  0  0  0  0  0  0  0
   34.5892   -8.5116  -39.0789 N   0  0  0  0  0  0  0  0  0  0  0  0
   35.1914  -10.4454  -37.8111 N   0  0  0  0  0  0  0  0  0  0  0  0
   36.0485  -11.1343  -36.9752 C   0  0  0  0  0  0  0  0  0  0  0  0
   37.2076  -10.5274  -36.5671 C   0  0  0  0  0  0  0  0  0  0  0  0
   37.5119   -9.1995  -37.0118 C   0  0  0  0  0  0  0  0  0  0  0  0
   39.0001   -8.3786  -36.5177 S   0  0  0  0  0  0  0  0  0  0  0  0
   37.8728  -11.4088  -35.7537 N   0  0  0  0  0  0  0  0  0  0  0  0
   37.1321  -12.5440  -35.6612 C   0  0  0  0  0  0  0  0  0  0  0  0
   36.0019  -12.3953  -36.4082 N   0  0  0  0  0  0  0  0  0  0  0  0
  1  2  2  0  0  0  0
  1  7  1  0  0  0  0
  2  3  1  0  0  0  0
  2  4  1  0  0  0  0
  4  5  2  0  0  0  0
  5  6  1  0  0  0  0
  5 11  1  0  0  0  0
  6  7  2  0  0  0  0
  6  9  1  0  0  0  0
  7  8  1  0  0  0  0
  9 10  1  0  0  0  0
 10 11  2  0  0  0  0
M  END
>  <CHROM.1>
36.88137885,-9.98037832,-37.02161832,1.46892243,-0.49406664,-0.44098527

>  <Name>
ligand

>  <RI>
0

>  <Rbt.Current_Directory>
/home/itssahil/PROJECTS/Mol_Feturizer/New_Systems/rnas/3RKF

>  <Rbt.Executable>
rbdock ($Id: //depot/dev/client3/rdock/2013.1/src/exe/rbdock.cxx#4 $)

>  <Rbt.Library>
libRbt.so (2013.1, Build901 2013/11/27)

>  <Rbt.Parameter_File>
/export/apps/rDock/src/rDock_2013.1_src/data/scripts/dock_solv.prm

>  <Rbt.Receptor>
prm/pocket_docking_7.prm

>  <SCORE>
-15.8425

>  <SCORE.INTER>
-15.8425

>  <SCORE.INTER.CONST>
1

>  <SCORE.INTER.POLAR>
0

>  <SCORE.INTER.ROT>
0

>  <SCORE.INTER.SOLV>
9.61949

>  <SCORE.INTER.VDW>
-17.3682

>  <SCORE.INTER.norm>
-1.44023

>  <SCORE.INTRA>
0

>  <SCORE.INTRA.DIHEDRAL>
0

>  <SCORE.INTRA.DIHEDRAL.0>
0

>  <SCORE.INTRA.POLAR>
0

>  <SCORE.INTRA.POLAR.0>
0

>  <SCORE.INTRA.REPUL>
0

>  <SCORE.INTRA.REPUL.0>
0

>  <SCORE.INTRA.SOLV>
0

>  <SCORE.INTRA.SOLV.lig_0>
-28.6198

>  <SCORE.INTRA.VDW>
0

>  <SCORE.INTRA.VDW.0>
0

>  <SCORE.INTRA.norm>
0

>  <SCORE.RESTR>
0

>  <SCORE.RESTR.CAVITY>
0

>  <SCORE.RESTR.norm>
0

>  <SCORE.SYSTEM>
0

>  <SCORE.SYSTEM.CONST>
0

>  <SCORE.SYSTEM.DIHEDRAL>
0

>  <SCORE.SYSTEM.SOLV>
0

>  <SCORE.SYSTEM.norm>
0

>  <SCORE.heavy>
11

>  <SCORE.norm>
-1.44023

>  <RMSD>
2.902

$$$$
ligand
 OpenBabel11021811483D
libRbt.so/2013.1/901 2013/11/27
 11 12  0  0  0  0  0  0  0  0999 V2000
   36.6226   -8.7208  -37.9211 N   0  0  0  0  0  0  0  0  0  0  0  0
   35.5186   -9.3401  -38.3648 C   0  0  0  0  0  0  0  0  0  0  0  0
   34.6266   -8.6360  -39.2303 N   0  0  0  0  0  0  0  0  0  0  0  0
   35.2382  -10.5996  -38.0137 N   0  0  0  0  0  0  0  0  0  0  0  0
   36.0869  -11.2979  -37.1771 C   0  0  0  0  0  0  0  0  0  0  0  0
   37.2184  -10.6793  -36.7129 C   0  0  0  0  0  0  0  0  0  0  0  0
   37.5032   -9.3295  -37.1012 C   0  0  0  0  0  0  0  0  0  0  0  0
   38.9558   -8.4924  -36.5336 S   0  0  0  0  0  0  0  0  0  0  0  0
   37.8806  -11.5735  -35.9112 N   0  0  0  0  0  0  0  0  0  0  0  0
   37.1653  -12.7283  -35.8812 C   0  0  0  0  0  0  0  0  0  0  0  0
   36.0544  -12.5792  -36.6564 N   0  0  0  0  0  0  0  0  0  0  0  0
  1  2  2  0  0  0  0
  1  7  1  0  0  0  0
  2  3  1  0  0  0  0
  2  4  1  0  0  0  0
  4  5  2  0  0  0  0
  5  6  1  0  0  0  0
  5 11  1  0  0  0  0
  6  7  2  0  0  0  0
  6  9  1  0  0  0  0
  7  8  1  0  0  0  0
  9 10  1  0  0  0  0
 10 11  2  0  0  0  0
M  END
>  <CHROM.1>
36.89242460,-10.12397888,-37.15754407,1.47989724,-0.53106120,-0.40001573

>  <Name>
ligand

>  <RI>
0

>  <Rbt.Current_Directory>
/home/itssahil/PROJECTS/Mol_Feturizer/New_Systems/rnas/3RKF

>  <Rbt.Executable>
rbdock ($Id: //depot/dev/client3/rdock/2013.1/src/exe/rbdock.cxx#4 $)

>  <Rbt.Library>
libRbt.so (2013.1, Build901 2013/11/27)

>  <Rbt.Parameter_File>
/export/apps/rDock/src/rDock_2013.1_src/data/scripts/dock_solv.prm

>  <Rbt.Receptor>
prm/blind_docking_60.prm

>  <SCORE>
-15.6661

>  <SCORE.INTER>
-15.6661

>  <SCORE.INTER.CONST>
1

>  <SCORE.INTER.POLAR>
0

>  <SCORE.INTER.ROT>
0

>  <SCORE.INTER.SOLV>
10.4364

>  <SCORE.INTER.VDW>
-17.5228

>  <SCORE.INTER.norm>
-1.42419

>  <SCORE.INTRA>
0

>  <SCORE.INTRA.DIHEDRAL>
0

>  <SCORE.INTRA.DIHEDRAL.0>
0

>  <SCORE.INTRA.POLAR>
0

>  <SCORE.INTRA.POLAR.0>
0

>  <SCORE.INTRA.REPUL>
0

>  <SCORE.INTRA.REPUL.0>
0

>  <SCORE.INTRA.SOLV>
0

>  <SCORE.INTRA.SOLV.lig_0>
-28.6198

>  <SCORE.INTRA.VDW>
0

>  <SCORE.INTRA.VDW.0>
0

>  <SCORE.INTRA.norm>
0

>  <SCORE.RESTR>
0

>  <SCORE.RESTR.CAVITY>
0

>  <SCORE.RESTR.norm>
0

>  <SCORE.SYSTEM>
0

>  <SCORE.SYSTEM.CONST>
0

>  <SCORE.SYSTEM.DIHEDRAL>
0

>  <SCORE.SYSTEM.SOLV>
0

>  <SCORE.SYSTEM.norm>
0

>  <SCORE.heavy>
11

>  <SCORE.norm>
-1.42419

>  <RMSD>
2.903

$$$$
ligand
 OpenBabel11021811483D
libRbt.so/2013.1/901 2013/11/27
 11 12  0  0  0  0  0  0  0  0999 V2000
   36.6176   -8.6031  -37.8121 N   0  0  0  0  0  0  0  0  0  0  0  0
   35.4893   -9.2147  -38.2022 C   0  0  0  0  0  0  0  0  0  0  0  0
   34.5771   -8.5157  -39.0505 N   0  0  0  0  0  0  0  0  0  0  0  0
   35.2034  -10.4618  -37.8136 N   0  0  0  0  0  0  0  0  0  0  0  0
   36.0715  -11.1549  -36.9926 C   0  0  0  0  0  0  0  0  0  0  0  0
   37.2279  -10.5440  -36.5830 C   0  0  0  0  0  0  0  0  0  0  0  0
   37.5182   -9.2074  -37.0109 C   0  0  0  0  0  0  0  0  0  0  0  0
   39.0025   -8.3808  -36.5143 S   0  0  0  0  0  0  0  0  0  0  0  0
   37.9054  -11.4308  -35.7859 N   0  0  0  0  0  0  0  0  0  0  0  0
   37.1749  -12.5735  -35.7049 C   0  0  0  0  0  0  0  0  0  0  0  0
   36.0390  -12.4241  -36.4429 N   0  0  0  0  0  0  0  0  0  0  0  0
  1  2  2  0  0  0  0
  1  7  1  0  0  0  0
  2  3  1  0  0  0  0
  2  4  1  0  0  0  0
  4  5  2  0  0  0  0
  5  6  1  0  0  0  0
  5 11  1  0  0  0  0
  6  7  2  0  0  0  0
  6  9  1  0  0  0  0
  7  8  1  0  0  0  0
  9 10  1  0  0  0  0
 10 11  2  0  0  0  0
M  END
>  <CHROM.1>
36.89426050,-9.99341993,-37.02782394,1.48055478,-0.49209449,-0.42151958

>  <Name>
ligand

>  <RI>
0

>  <Rbt.Current_Directory>
/home/itssahil/PROJECTS/Mol_Feturizer/New_Systems/rnas/3RKF

>  <Rbt.Executable>
rbdock ($Id: //depot/dev/client3/rdock/2013.1/src/exe/rbdock.cxx#4 $)

>  <Rbt.Library>
libRbt.so (2013.1, Build901 2013/11/27)

>  <Rbt.Parameter_File>
/export/apps/rDock/src/rDock_2013.1_src/data/scripts/dock_solv.prm

>  <Rbt.Receptor>
prm/blind_docking_60.prm

>  <SCORE>
-15.8187

>  <SCORE.INTER>
-15.8187

>  <SCORE.INTER.CONST>
1

>  <SCORE.INTER.POLAR>
0

>  <SCORE.INTER.ROT>
0

>  <SCORE.INTER.SOLV>
9.50293

>  <SCORE.INTER.VDW>
-17.3135

>  <SCORE.INTER.norm>
-1.43806

>  <SCORE.INTRA>
0

>  <SCORE.INTRA.DIHEDRAL>
0

>  <SCORE.INTRA.DIHEDRAL.0>
0

>  <SCORE.INTRA.POLAR>
0

>  <SCORE.INTRA.POLAR.0>
0

>  <SCORE.INTRA.REPUL>
0

>  <SCORE.INTRA.REPUL.0>
0

>  <SCORE.INTRA.SOLV>
0

>  <SCORE.INTRA.SOLV.lig_0>
-28.6198

>  <SCORE.INTRA.VDW>
0

>  <SCORE.INTRA.VDW.0>
0

>  <SCORE.INTRA.norm>
0

>  <SCORE.RESTR>
0

>  <SCORE.RESTR.CAVITY>
0

>  <SCORE.RESTR.norm>
0

>  <SCORE.SYSTEM>
0

>  <SCORE.SYSTEM.CONST>
0

>  <SCORE.SYSTEM.DIHEDRAL>
0

>  <SCORE.SYSTEM.SOLV>
0

>  <SCORE.SYSTEM.norm>
0

>  <SCORE.heavy>
11

>  <SCORE.norm>
-1.43806

>  <RMSD>
2.903

$$$$
ligand
 OpenBabel11021811483D
libRbt.so/2013.1/901 2013/11/27
 11 12  0  0  0  0  0  0  0  0999 V2000
   36.6406   -8.5983  -37.8196 N   0  0  0  0  0  0  0  0  0  0  0  0
   35.5009   -9.2020  -38.1885 C   0  0  0  0  0  0  0  0  0  0  0  0
   34.5835   -8.5012  -39.0297 N   0  0  0  0  0  0  0  0  0  0  0  0
   35.2085  -10.4430  -37.7852 N   0  0  0  0  0  0  0  0  0  0  0  0
   36.0815  -11.1377  -36.9708 C   0  0  0  0  0  0  0  0  0  0  0  0
   37.2495  -10.5348  -36.5829 C   0  0  0  0  0  0  0  0  0  0  0  0
   37.5466   -9.2047  -37.0263 C   0  0  0  0  0  0  0  0  0  0  0  0
   39.0457   -8.3886  -36.5578 S   0  0  0  0  0  0  0  0  0  0  0  0
   37.9297  -11.4216  -35.7881 N   0  0  0  0  0  0  0  0  0  0  0  0
   37.1894  -12.5563  -35.6870 C   0  0  0  0  0  0  0  0  0  0  0  0
   36.0446  -12.4019  -36.4101 N   0  0  0  0  0  0  0  0  0  0  0  0
  1  2  2  0  0  0  0
  1  7  1  0  0  0  0
  2  3  1  0  0  0  0
  2  4  1  0  0  0  0
  4  5  2  0  0  0  0
  5  6  1  0  0  0  0
  5 11  1  0  0  0  0
  6  7  2  0  0  0  0
  6  9  1  0  0  0  0
  7  8  1  0  0  0  0
  9 10  1  0  0  0  0
 10 11  2  0  0  0  0
M  END
>  <CHROM.1>
36.91488025,-9.98470124,-37.02762928,1.47718688,-0.47508290,-0.43149264

>  <Name>
ligand

>  <RI>
0

>  <Rbt.Current_Directory>
/home/itssahil/PROJECTS/Mol_Feturizer/New_Systems/rnas/3RKF

>  <Rbt.Executable>
rbdock ($Id: //depot/dev/client3/rdock/2013.1/src/exe/rbdock.cxx#4 $)

>  <Rbt.Library>
libRbt.so (2013.1, Build901 2013/11/27)

>  <Rbt.Parameter_File>
/export/apps/rDock/src/rDock_2013.1_src/data/scripts/dock_solv.prm

>  <Rbt.Receptor>
prm/blind_docking_60.prm

>  <SCORE>
-15.7432

>  <SCORE.INTER>
-15.7432

>  <SCORE.INTER.CONST>
1

>  <SCORE.INTER.POLAR>
0

>  <SCORE.INTER.ROT>
0

>  <SCORE.INTER.SOLV>
9.47567

>  <SCORE.INTER.VDW>
-17.254

>  <SCORE.INTER.norm>
-1.4312

>  <SCORE.INTRA>
0

>  <SCORE.INTRA.DIHEDRAL>
0

>  <SCORE.INTRA.DIHEDRAL.0>
0

>  <SCORE.INTRA.POLAR>
0

>  <SCORE.INTRA.POLAR.0>
0

>  <SCORE.INTRA.REPUL>
0

>  <SCORE.INTRA.REPUL.0>
0

>  <SCORE.INTRA.SOLV>
0

>  <SCORE.INTRA.SOLV.lig_0>
-28.6198

>  <SCORE.INTRA.VDW>
0

>  <SCORE.INTRA.VDW.0>
0

>  <SCORE.INTRA.norm>
0

>  <SCORE.RESTR>
0

>  <SCORE.RESTR.CAVITY>
0

>  <SCORE.RESTR.norm>
0

>  <SCORE.SYSTEM>
0

>  <SCORE.SYSTEM.CONST>
0

>  <SCORE.SYSTEM.DIHEDRAL>
0

>  <SCORE.SYSTEM.SOLV>
0

>  <SCORE.SYSTEM.norm>
0

>  <SCORE.heavy>
11

>  <SCORE.norm>
-1.4312

>  <RMSD>
2.903

$$$$
ligand
 OpenBabel11021811483D
libRbt.so/2013.1/901 2013/11/27
 11 12  0  0  0  0  0  0  0  0999 V2000
   36.6167   -8.5982  -37.8239 N   0  0  0  0  0  0  0  0  0  0  0  0
   35.4862   -9.2084  -38.2099 C   0  0  0  0  0  0  0  0  0  0  0  0
   34.5820   -8.5162  -39.0722 N   0  0  0  0  0  0  0  0  0  0  0  0
   35.1908  -10.4479  -37.8044 N   0  0  0  0  0  0  0  0  0  0  0  0
   36.0511  -11.1343  -36.9697 C   0  0  0  0  0  0  0  0  0  0  0  0
   37.2096  -10.5247  -36.5641 C   0  0  0  0  0  0  0  0  0  0  0  0
   37.5101   -9.1964  -37.0102 C   0  0  0  0  0  0  0  0  0  0  0  0
   38.9974   -8.3719  -36.5194 S   0  0  0  0  0  0  0  0  0  0  0  0
   37.8782  -11.4041  -35.7514 N   0  0  0  0  0  0  0  0  0  0  0  0
   37.1402  -12.5409  -35.6568 C   0  0  0  0  0  0  0  0  0  0  0  0
   36.0083  -12.3952  -36.4018 N   0  0  0  0  0  0  0  0  0  0  0  0
  1  2  2  0  0  0  0
  1  7  1  0  0  0  0
  2  3  1  0  0  0  0
  2  4  1  0  0  0  0
  4  5  2  0  0  0  0
  5  6  1  0  0  0  0
  5 11  1  0  0  0  0
  6  7  2  0  0  0  0
  6  9  1  0  0  0  0
  7  8  1  0  0  0  0
  9 10  1  0  0  0  0
 10 11  2  0  0  0  0
M  END
>  <CHROM.1>
36.88127572,-9.97866238,-37.01835032,1.47208700,-0.49330761,-0.44009530

>  <Name>
ligand

>  <RI>
0

>  <Rbt.Current_Directory>
/home/itssahil/PROJECTS/Mol_Feturizer/New_Systems/rnas/3RKF

>  <Rbt.Executable>
rbdock ($Id: //depot/dev/client3/rdock/2013.1/src/exe/rbdock.cxx#4 $)

>  <Rbt.Library>
libRbt.so (2013.1, Build901 2013/11/27)

>  <Rbt.Parameter_File>
/export/apps/rDock/src/rDock_2013.1_src/data/scripts/dock_solv.prm

>  <Rbt.Receptor>
prm/pocket_docking_4.prm

>  <SCORE>
-15.8404

>  <SCORE.INTER>
-15.8404

>  <SCORE.INTER.CONST>
1

>  <SCORE.INTER.POLAR>
0

>  <SCORE.INTER.ROT>
0

>  <SCORE.INTER.SOLV>
9.5942

>  <SCORE.INTER.VDW>
-17.3584

>  <SCORE.INTER.norm>
-1.44004

>  <SCORE.INTRA>
0

>  <SCORE.INTRA.DIHEDRAL>
0

>  <SCORE.INTRA.DIHEDRAL.0>
0

>  <SCORE.INTRA.POLAR>
0

>  <SCORE.INTRA.POLAR.0>
0

>  <SCORE.INTRA.REPUL>
0

>  <SCORE.INTRA.REPUL.0>
0

>  <SCORE.INTRA.SOLV>
0

>  <SCORE.INTRA.SOLV.lig_0>
-28.6198

>  <SCORE.INTRA.VDW>
0

>  <SCORE.INTRA.VDW.0>
0

>  <SCORE.INTRA.norm>
0

>  <SCORE.RESTR>
0

>  <SCORE.RESTR.CAVITY>
0

>  <SCORE.RESTR.norm>
0

>  <SCORE.SYSTEM>
0

>  <SCORE.SYSTEM.CONST>
0

>  <SCORE.SYSTEM.DIHEDRAL>
0

>  <SCORE.SYSTEM.SOLV>
0

>  <SCORE.SYSTEM.norm>
0

>  <SCORE.heavy>
11

>  <SCORE.norm>
-1.44004

>  <RMSD>
2.903

$$$$
ligand
 OpenBabel11021811483D
libRbt.so/2013.1/901 2013/11/27
 11 12  0  0  0  0  0  0  0  0999 V2000
   36.6176   -8.5999  -37.8167 N   0  0  0  0  0  0  0  0  0  0  0  0
   35.4880   -9.2117  -38.2025 C   0  0  0  0  0  0  0  0  0  0  0  0
   34.5741   -8.5143  -39.0503 N   0  0  0  0  0  0  0  0  0  0  0  0
   35.2022  -10.4576  -37.8099 N   0  0  0  0  0  0  0  0  0  0  0  0
   36.0718  -11.1492  -36.9893 C   0  0  0  0  0  0  0  0  0  0  0  0
   37.2296  -10.5381  -36.5842 C   0  0  0  0  0  0  0  0  0  0  0  0
   37.5197   -9.2028  -37.0162 C   0  0  0  0  0  0  0  0  0  0  0  0
   39.0058   -8.3760  -36.5254 S   0  0  0  0  0  0  0  0  0  0  0  0
   37.9085  -11.4234  -35.7865 N   0  0  0  0  0  0  0  0  0  0  0  0
   37.1774  -12.5653  -35.7008 C   0  0  0  0  0  0  0  0  0  0  0  0
   36.0398  -12.4170  -36.4364 N   0  0  0  0  0  0  0  0  0  0  0  0
  1  2  2  0  0  0  0
  1  7  1  0  0  0  0
  2  3  1  0  0  0  0
  2  4  1  0  0  0  0
  4  5  2  0  0  0  0
  5  6  1  0  0  0  0
  5 11  1  0  0  0  0
  6  7  2  0  0  0  0
  6  9  1  0  0  0  0
  7  8  1  0  0  0  0
  9 10  1  0  0  0  0
 10 11  2  0  0  0  0
M  END
>  <CHROM.1>
36.89524389,-9.98842641,-37.02958342,1.48099864,-0.48956414,-0.42386171

>  <Name>
ligand

>  <RI>
0

>  <Rbt.Current_Directory>
/home/itssahil/PROJECTS/Mol_Feturizer/New_Systems/rnas/3RKF

>  <Rbt.Executable>
rbdock ($Id: //depot/dev/client3/rdock/2013.1/src/exe/rbdock.cxx#4 $)

>  <Rbt.Library>
libRbt.so (2013.1, Build901 2013/11/27)

>  <Rbt.Parameter_File>
/export/apps/rDock/src/rDock_2013.1_src/data/scripts/dock_solv.prm

>  <Rbt.Receptor>
prm/pocket_docking_4.prm

>  <SCORE>
-15.8168

>  <SCORE.INTER>
-15.8168

>  <SCORE.INTER.CONST>
1

>  <SCORE.INTER.POLAR>
0

>  <SCORE.INTER.ROT>
0

>  <SCORE.INTER.SOLV>
9.49993

>  <SCORE.INTER.VDW>
-17.3111

>  <SCORE.INTER.norm>
-1.43789

>  <SCORE.INTRA>
0

>  <SCORE.INTRA.DIHEDRAL>
0

>  <SCORE.INTRA.DIHEDRAL.0>
0

>  <SCORE.INTRA.POLAR>
0

>  <SCORE.INTRA.POLAR.0>
0

>  <SCORE.INTRA.REPUL>
0

>  <SCORE.INTRA.REPUL.0>
0

>  <SCORE.INTRA.SOLV>
0

>  <SCORE.INTRA.SOLV.lig_0>
-28.6198

>  <SCORE.INTRA.VDW>
0

>  <SCORE.INTRA.VDW.0>
0

>  <SCORE.INTRA.norm>
0

>  <SCORE.RESTR>
0

>  <SCORE.RESTR.CAVITY>
0

>  <SCORE.RESTR.norm>
0

>  <SCORE.SYSTEM>
0

>  <SCORE.SYSTEM.CONST>
0

>  <SCORE.SYSTEM.DIHEDRAL>
0

>  <SCORE.SYSTEM.SOLV>
0

>  <SCORE.SYSTEM.norm>
0

>  <SCORE.heavy>
11

>  <SCORE.norm>
-1.43789

>  <RMSD>
2.903

$$$$
ligand
 OpenBabel11021811483D
libRbt.so/2013.1/901 2013/11/27
 11 12  0  0  0  0  0  0  0  0999 V2000
   36.5812   -8.6590  -37.8670 N   0  0  0  0  0  0  0  0  0  0  0  0
   35.4696   -9.2833  -38.2843 C   0  0  0  0  0  0  0  0  0  0  0  0
   34.5552   -8.5839  -39.1299 N   0  0  0  0  0  0  0  0  0  0  0  0
   35.2024  -10.5433  -37.9251 N   0  0  0  0  0  0  0  0  0  0  0  0
   36.0730  -11.2370  -37.1073 C   0  0  0  0  0  0  0  0  0  0  0  0
   37.2124  -10.6133  -36.6702 C   0  0  0  0  0  0  0  0  0  0  0  0
   37.4828   -9.2629  -37.0668 C   0  0  0  0  0  0  0  0  0  0  0  0
   38.9448   -8.4194  -36.5340 S   0  0  0  0  0  0  0  0  0  0  0  0
   37.8964  -11.5038  -35.8828 N   0  0  0  0  0  0  0  0  0  0  0  0
   37.1867  -12.6613  -35.8347 C   0  0  0  0  0  0  0  0  0  0  0  0
   36.0576  -12.5177  -36.5843 N   0  0  0  0  0  0  0  0  0  0  0  0
  1  2  2  0  0  0  0
  1  7  1  0  0  0  0
  2  3  1  0  0  0  0
  2  4  1  0  0  0  0
  4  5  2  0  0  0  0
  5  6  1  0  0  0  0
  5 11  1  0  0  0  0
  6  7  2  0  0  0  0
  6  9  1  0  0  0  0
  7  8  1  0  0  0  0
  9 10  1  0  0  0  0
 10 11  2  0  0  0  0
M  END
>  <CHROM.1>
36.87405770,-10.05993020,-37.10796345,1.49438571,-0.51131406,-0.39421040

>  <Name>
ligand

>  <RI>
0

>  <Rbt.Current_Directory>
/home/itssahil/PROJECTS/Mol_Feturizer/New_Systems/rnas/3RKF

>  <Rbt.Executable>
rbdock ($Id: //depot/dev/client3/rdock/2013.1/src/exe/rbdock.cxx#4 $)

>  <Rbt.Library>
libRbt.so (2013.1, Build901 2013/11/27)

>  <Rbt.Parameter_File>
/export/apps/rDock/src/rDock_2013.1_src/data/scripts/dock_solv.prm

>  <Rbt.Receptor>
prm/pocket_docking_6.prm

>  <SCORE>
-15.7405

>  <SCORE.INTER>
-15.7405

>  <SCORE.INTER.CONST>
1

>  <SCORE.INTER.POLAR>
0

>  <SCORE.INTER.ROT>
0

>  <SCORE.INTER.SOLV>
9.77133

>  <SCORE.INTER.VDW>
-17.3508

>  <SCORE.INTER.norm>
-1.43095

>  <SCORE.INTRA>
0

>  <SCORE.INTRA.DIHEDRAL>
0

>  <SCORE.INTRA.DIHEDRAL.0>
0

>  <SCORE.INTRA.POLAR>
0

>  <SCORE.INTRA.POLAR.0>
0

>  <SCORE.INTRA.REPUL>
0

>  <SCORE.INTRA.REPUL.0>
0

>  <SCORE.INTRA.SOLV>
0

>  <SCORE.INTRA.SOLV.lig_0>
-28.6198

>  <SCORE.INTRA.VDW>
0

>  <SCORE.INTRA.VDW.0>
0

>  <SCORE.INTRA.norm>
0

>  <SCORE.RESTR>
0

>  <SCORE.RESTR.CAVITY>
0

>  <SCORE.RESTR.norm>
0

>  <SCORE.SYSTEM>
0

>  <SCORE.SYSTEM.CONST>
0

>  <SCORE.SYSTEM.DIHEDRAL>
0

>  <SCORE.SYSTEM.SOLV>
0

>  <SCORE.SYSTEM.norm>
0

>  <SCORE.heavy>
11

>  <SCORE.norm>
-1.43095

>  <RMSD>
2.903

$$$$
ligand
 OpenBabel11021811483D
libRbt.so/2013.1/901 2013/11/27
 11 12  0  0  0  0  0  0  0  0999 V2000
   36.6187   -8.6006  -37.8140 N   0  0  0  0  0  0  0  0  0  0  0  0
   35.4889   -9.2122  -38.1999 C   0  0  0  0  0  0  0  0  0  0  0  0
   34.5753   -8.5146  -39.0478 N   0  0  0  0  0  0  0  0  0  0  0  0
   35.2029  -10.4581  -37.8076 N   0  0  0  0  0  0  0  0  0  0  0  0
   36.0724  -11.1499  -36.9870 C   0  0  0  0  0  0  0  0  0  0  0  0
   37.2303  -10.5390  -36.5817 C   0  0  0  0  0  0  0  0  0  0  0  0
   37.5207   -9.2037  -37.0136 C   0  0  0  0  0  0  0  0  0  0  0  0
   39.0068   -8.3771  -36.5225 S   0  0  0  0  0  0  0  0  0  0  0  0
   37.9090  -11.4245  -35.7841 N   0  0  0  0  0  0  0  0  0  0  0  0
   37.1778  -12.5663  -35.6985 C   0  0  0  0  0  0  0  0  0  0  0  0
   36.0402  -12.4178  -36.4342 N   0  0  0  0  0  0  0  0  0  0  0  0
  1  2  2  0  0  0  0
  1  7  1  0  0  0  0
  2  3  1  0  0  0  0
  2  4  1  0  0  0  0
  4  5  2  0  0  0  0
  5  6  1  0  0  0  0
  5 11  1  0  0  0  0
  6  7  2  0  0  0  0
  6  9  1  0  0  0  0
  7  8  1  0  0  0  0
  9 10  1  0  0  0  0
 10 11  2  0  0  0  0
M  END
>  <CHROM.1>
36.89604450,-9.98923959,-37.02704022,1.48082170,-0.48956153,-0.42383480

>  <Name>
ligand

>  <RI>
0

>  <Rbt.Current_Directory>
/home/itssahil/PROJECTS/Mol_Feturizer/New_Systems/rnas/3RKF

>  <Rbt.Executable>
rbdock ($Id: //depot/dev/client3/rdock/2013.1/src/exe/rbdock.cxx#4 $)

>  <Rbt.Library>
libRbt.so (2013.1, Build901 2013/11/27)

>  <Rbt.Parameter_File>
/export/apps/rDock/src/rDock_2013.1_src/data/scripts/dock_solv.prm

>  <Rbt.Receptor>
prm/pocket_docking_7.prm

>  <SCORE>
-15.8171

>  <SCORE.INTER>
-15.8171

>  <SCORE.INTER.CONST>
1

>  <SCORE.INTER.POLAR>
0

>  <SCORE.INTER.ROT>
0

>  <SCORE.INTER.SOLV>
9.49672

>  <SCORE.INTER.VDW>
-17.3103

>  <SCORE.INTER.norm>
-1.43791

>  <SCORE.INTRA>
0

>  <SCORE.INTRA.DIHEDRAL>
0

>  <SCORE.INTRA.DIHEDRAL.0>
0

>  <SCORE.INTRA.POLAR>
0

>  <SCORE.INTRA.POLAR.0>
0

>  <SCORE.INTRA.REPUL>
0

>  <SCORE.INTRA.REPUL.0>
0

>  <SCORE.INTRA.SOLV>
0

>  <SCORE.INTRA.SOLV.lig_0>
-28.6198

>  <SCORE.INTRA.VDW>
0

>  <SCORE.INTRA.VDW.0>
0

>  <SCORE.INTRA.norm>
0

>  <SCORE.RESTR>
0

>  <SCORE.RESTR.CAVITY>
0

>  <SCORE.RESTR.norm>
0

>  <SCORE.SYSTEM>
0

>  <SCORE.SYSTEM.CONST>
0

>  <SCORE.SYSTEM.DIHEDRAL>
0

>  <SCORE.SYSTEM.SOLV>
0

>  <SCORE.SYSTEM.norm>
0

>  <SCORE.heavy>
11

>  <SCORE.norm>
-1.43791

>  <RMSD>
2.903

$$$$
ligand
 OpenBabel11021811483D
libRbt.so/2013.1/901 2013/11/27
 11 12  0  0  0  0  0  0  0  0999 V2000
   36.6190   -8.5936  -37.8084 N   0  0  0  0  0  0  0  0  0  0  0  0
   35.5033   -9.2178  -38.2147 C   0  0  0  0  0  0  0  0  0  0  0  0
   34.5971   -8.5301  -39.0785 N   0  0  0  0  0  0  0  0  0  0  0  0
   35.2245  -10.4670  -37.8278 N   0  0  0  0  0  0  0  0  0  0  0  0
   36.0869  -11.1494  -36.9920 C   0  0  0  0  0  0  0  0  0  0  0  0
   37.2304  -10.5256  -36.5659 C   0  0  0  0  0  0  0  0  0  0  0  0
   37.5133   -9.1869  -36.9922 C   0  0  0  0  0  0  0  0  0  0  0  0
   38.9810   -8.3438  -36.4744 S   0  0  0  0  0  0  0  0  0  0  0  0
   37.9047  -11.4037  -35.7566 N   0  0  0  0  0  0  0  0  0  0  0  0
   37.1850  -12.5538  -35.6844 C   0  0  0  0  0  0  0  0  0  0  0  0
   36.0592  -12.4178  -36.4403 N   0  0  0  0  0  0  0  0  0  0  0  0
  1  2  2  0  0  0  0
  1  7  1  0  0  0  0
  2  3  1  0  0  0  0
  2  4  1  0  0  0  0
  4  5  2  0  0  0  0
  5  6  1  0  0  0  0
  5 11  1  0  0  0  0
  6  7  2  0  0  0  0
  6  9  1  0  0  0  0
  7  8  1  0  0  0  0
  9 10  1  0  0  0  0
 10 11  2  0  0  0  0
M  END
>  <CHROM.1>
36.89795107,-9.97941899,-37.01704755,1.48421363,-0.51050312,-0.42181391

>  <Name>
ligand

>  <RI>
0

>  <Rbt.Current_Directory>
/home/itssahil/PROJECTS/Mol_Feturizer/New_Systems/rnas/3RKF

>  <Rbt.Executable>
rbdock ($Id: //depot/dev/client3/rdock/2013.1/src/exe/rbdock.cxx#4 $)

>  <Rbt.Library>
libRbt.so (2013.1, Build901 2013/11/27)

>  <Rbt.Parameter_File>
/export/apps/rDock/src/rDock_2013.1_src/data/scripts/dock_solv.prm

>  <Rbt.Receptor>
prm/blind_docking_60.prm

>  <SCORE>
-15.7423

>  <SCORE.INTER>
-15.7423

>  <SCORE.INTER.CONST>
1

>  <SCORE.INTER.POLAR>
0

>  <SCORE.INTER.ROT>
0

>  <SCORE.INTER.SOLV>
9.63441

>  <SCORE.INTER.VDW>
-17.3063

>  <SCORE.INTER.norm>
-1.43112

>  <SCORE.INTRA>
0

>  <SCORE.INTRA.DIHEDRAL>
0

>  <SCORE.INTRA.DIHEDRAL.0>
0

>  <SCORE.INTRA.POLAR>
0

>  <SCORE.INTRA.POLAR.0>
0

>  <SCORE.INTRA.REPUL>
0

>  <SCORE.INTRA.REPUL.0>
0

>  <SCORE.INTRA.SOLV>
0

>  <SCORE.INTRA.SOLV.lig_0>
-28.6198

>  <SCORE.INTRA.VDW>
0

>  <SCORE.INTRA.VDW.0>
0

>  <SCORE.INTRA.norm>
0

>  <SCORE.RESTR>
0

>  <SCORE.RESTR.CAVITY>
0

>  <SCORE.RESTR.norm>
0

>  <SCORE.SYSTEM>
0

>  <SCORE.SYSTEM.CONST>
0

>  <SCORE.SYSTEM.DIHEDRAL>
0

>  <SCORE.SYSTEM.SOLV>
0

>  <SCORE.SYSTEM.norm>
0

>  <SCORE.heavy>
11

>  <SCORE.norm>
-1.43112

>  <RMSD>
2.904

$$$$
ligand
 OpenBabel11021811483D
libRbt.so/2013.1/901 2013/11/27
 11 12  0  0  0  0  0  0  0  0999 V2000
   36.6401   -8.6157  -37.8153 N   0  0  0  0  0  0  0  0  0  0  0  0
   35.5100   -9.2251  -38.2039 C   0  0  0  0  0  0  0  0  0  0  0  0
   34.6024   -8.5276  -39.0583 N   0  0  0  0  0  0  0  0  0  0  0  0
   35.2182  -10.4686  -37.8082 N   0  0  0  0  0  0  0  0  0  0  0  0
   36.0818  -11.1602  -36.9813 C   0  0  0  0  0  0  0  0  0  0  0  0
   37.2399  -10.5515  -36.5732 C   0  0  0  0  0  0  0  0  0  0  0  0
   37.5366   -9.2188  -37.0087 C   0  0  0  0  0  0  0  0  0  0  0  0
   39.0233   -8.3953  -36.5143 S   0  0  0  0  0  0  0  0  0  0  0  0
   37.9123  -11.4363  -35.7694 N   0  0  0  0  0  0  0  0  0  0  0  0
   37.1769  -12.5754  -35.6827 C   0  0  0  0  0  0  0  0  0  0  0  0
   36.0430  -12.4259  -36.4239 N   0  0  0  0  0  0  0  0  0  0  0  0
  1  2  2  0  0  0  0
  1  7  1  0  0  0  0
  2  3  1  0  0  0  0
  2  4  1  0  0  0  0
  4  5  2  0  0  0  0
  5  6  1  0  0  0  0
  5 11  1  0  0  0  0
  6  7  2  0  0  0  0
  6  9  1  0  0  0  0
  7  8  1  0  0  0  0
  9 10  1  0  0  0  0
 10 11  2  0  0  0  0
M  END
>  <CHROM.1>
36.90942981,-10.00236221,-37.02203762,1.47537605,-0.49216165,-0.43010950

>  <Name>
ligand

>  <RI>
0

>  <Rbt.Current_Directory>
/home/itssahil/PROJECTS/Mol_Feturizer/New_Systems/rnas/3RKF

>  <Rbt.Executable>
rbdock ($Id: //depot/dev/client3/rdock/2013.1/src/exe/rbdock.cxx#4 $)

>  <Rbt.Library>
libRbt.so (2013.1, Build901 2013/11/27)

>  <Rbt.Parameter_File>
/export/apps/rDock/src/rDock_2013.1_src/data/scripts/dock_solv.prm

>  <Rbt.Receptor>
prm/blind_docking_60.prm

>  <SCORE>
-15.7802

>  <SCORE.INTER>
-15.7802

>  <SCORE.INTER.CONST>
1

>  <SCORE.INTER.POLAR>
0

>  <SCORE.INTER.ROT>
0

>  <SCORE.INTER.SOLV>
9.61612

>  <SCORE.INTER.VDW>
-17.3255

>  <SCORE.INTER.norm>
-1.43456

>  <SCORE.INTRA>
0

>  <SCORE.INTRA.DIHEDRAL>
0

>  <SCORE.INTRA.DIHEDRAL.0>
0

>  <SCORE.INTRA.POLAR>
0

>  <SCORE.INTRA.POLAR.0>
0

>  <SCORE.INTRA.REPUL>
0

>  <SCORE.INTRA.REPUL.0>
0

>  <SCORE.INTRA.SOLV>
0

>  <SCORE.INTRA.SOLV.lig_0>
-28.6198

>  <SCORE.INTRA.VDW>
0

>  <SCORE.INTRA.VDW.0>
0

>  <SCORE.INTRA.norm>
0

>  <SCORE.RESTR>
0

>  <SCORE.RESTR.CAVITY>
0

>  <SCORE.RESTR.norm>
0

>  <SCORE.SYSTEM>
0

>  <SCORE.SYSTEM.CONST>
0

>  <SCORE.SYSTEM.DIHEDRAL>
0

>  <SCORE.SYSTEM.SOLV>
0

>  <SCORE.SYSTEM.norm>
0

>  <SCORE.heavy>
11

>  <SCORE.norm>
-1.43456

>  <RMSD>
2.904

$$$$
ligand
 OpenBabel11021811483D
libRbt.so/2013.1/901 2013/11/27
 11 12  0  0  0  0  0  0  0  0999 V2000
   36.6430   -8.6043  -37.7881 N   0  0  0  0  0  0  0  0  0  0  0  0
   35.5168   -9.2107  -38.1922 C   0  0  0  0  0  0  0  0  0  0  0  0
   34.6250   -8.5125  -39.0625 N   0  0  0  0  0  0  0  0  0  0  0  0
   35.2144  -10.4520  -37.7974 N   0  0  0  0  0  0  0  0  0  0  0  0
   36.0627  -11.1442  -36.9552 C   0  0  0  0  0  0  0  0  0  0  0  0
   37.2166  -10.5385  -36.5312 C   0  0  0  0  0  0  0  0  0  0  0  0
   37.5248   -9.2082  -36.9660 C   0  0  0  0  0  0  0  0  0  0  0  0
   39.0067   -8.3886  -36.4512 S   0  0  0  0  0  0  0  0  0  0  0  0
   37.8733  -11.4233  -35.7146 N   0  0  0  0  0  0  0  0  0  0  0  0
   37.1325  -12.5595  -35.6359 C   0  0  0  0  0  0  0  0  0  0  0  0
   36.0107  -12.4081  -36.3948 N   0  0  0  0  0  0  0  0  0  0  0  0
  1  2  2  0  0  0  0
  1  7  1  0  0  0  0
  2  3  1  0  0  0  0
  2  4  1  0  0  0  0
  4  5  2  0  0  0  0
  5  6  1  0  0  0  0
  5 11  1  0  0  0  0
  6  7  2  0  0  0  0
  6  9  1  0  0  0  0
  7  8  1  0  0  0  0
  9 10  1  0  0  0  0
 10 11  2  0  0  0  0
M  END
>  <CHROM.1>
36.89506974,-9.98952653,-36.98667891,1.46426717,-0.50457636,-0.43837780

>  <Name>
ligand

>  <RI>
0

>  <Rbt.Current_Directory>
/home/itssahil/PROJECTS/Mol_Feturizer/New_Systems/rnas/3RKF

>  <Rbt.Executable>
rbdock ($Id: //depot/dev/client3/rdock/2013.1/src/exe/rbdock.cxx#4 $)

>  <Rbt.Library>
libRbt.so (2013.1, Build901 2013/11/27)

>  <Rbt.Parameter_File>
/export/apps/rDock/src/rDock_2013.1_src/data/scripts/dock_solv.prm

>  <Rbt.Receptor>
prm/pocket_docking_7.prm

>  <SCORE>
-15.684

>  <SCORE.INTER>
-15.684

>  <SCORE.INTER.CONST>
1

>  <SCORE.INTER.POLAR>
0

>  <SCORE.INTER.ROT>
0

>  <SCORE.INTER.SOLV>
9.65222

>  <SCORE.INTER.VDW>
-17.2734

>  <SCORE.INTER.norm>
-1.42582

>  <SCORE.INTRA>
0

>  <SCORE.INTRA.DIHEDRAL>
0

>  <SCORE.INTRA.DIHEDRAL.0>
0

>  <SCORE.INTRA.POLAR>
0

>  <SCORE.INTRA.POLAR.0>
0

>  <SCORE.INTRA.REPUL>
0

>  <SCORE.INTRA.REPUL.0>
0

>  <SCORE.INTRA.SOLV>
0

>  <SCORE.INTRA.SOLV.lig_0>
-28.6198

>  <SCORE.INTRA.VDW>
0

>  <SCORE.INTRA.VDW.0>
0

>  <SCORE.INTRA.norm>
0

>  <SCORE.RESTR>
0

>  <SCORE.RESTR.CAVITY>
0

>  <SCORE.RESTR.norm>
0

>  <SCORE.SYSTEM>
0

>  <SCORE.SYSTEM.CONST>
0

>  <SCORE.SYSTEM.DIHEDRAL>
0

>  <SCORE.SYSTEM.SOLV>
0

>  <SCORE.SYSTEM.norm>
0

>  <SCORE.heavy>
11

>  <SCORE.norm>
-1.42582

>  <RMSD>
2.904

$$$$
ligand
 OpenBabel11021811483D
libRbt.so/2013.1/901 2013/11/27
 11 12  0  0  0  0  0  0  0  0999 V2000
   36.6445   -8.7379  -37.9265 N   0  0  0  0  0  0  0  0  0  0  0  0
   35.5413   -9.3587  -38.3703 C   0  0  0  0  0  0  0  0  0  0  0  0
   34.6647   -8.6667  -39.2609 N   0  0  0  0  0  0  0  0  0  0  0  0
   35.2477  -10.6085  -37.9964 N   0  0  0  0  0  0  0  0  0  0  0  0
   36.0815  -11.2950  -37.1353 C   0  0  0  0  0  0  0  0  0  0  0  0
   37.2118  -10.6747  -36.6707 C   0  0  0  0  0  0  0  0  0  0  0  0
   37.5109   -9.3354  -37.0836 C   0  0  0  0  0  0  0  0  0  0  0  0
   38.9627   -8.4968  -36.5163 S   0  0  0  0  0  0  0  0  0  0  0  0
   37.8581  -11.5566  -35.8427 N   0  0  0  0  0  0  0  0  0  0  0  0
   37.1342  -12.7055  -35.7972 C   0  0  0  0  0  0  0  0  0  0  0  0
   36.0336  -12.5650  -36.5885 N   0  0  0  0  0  0  0  0  0  0  0  0
  1  2  2  0  0  0  0
  1  7  1  0  0  0  0
  2  3  1  0  0  0  0
  2  4  1  0  0  0  0
  4  5  2  0  0  0  0
  5  6  1  0  0  0  0
  5 11  1  0  0  0  0
  6  7  2  0  0  0  0
  6  9  1  0  0  0  0
  7  8  1  0  0  0  0
  9 10  1  0  0  0  0
 10 11  2  0  0  0  0
M  END
>  <CHROM.1>
36.89512890,-10.12662804,-37.13066919,1.46682426,-0.53906738,-0.42757265

>  <Name>
ligand

>  <RI>
0

>  <Rbt.Current_Directory>
/home/itssahil/PROJECTS/Mol_Feturizer/New_Systems/rnas/3RKF

>  <Rbt.Executable>
rbdock ($Id: //depot/dev/client3/rdock/2013.1/src/exe/rbdock.cxx#4 $)

>  <Rbt.Library>
libRbt.so (2013.1, Build901 2013/11/27)

>  <Rbt.Parameter_File>
/export/apps/rDock/src/rDock_2013.1_src/data/scripts/dock_solv.prm

>  <Rbt.Receptor>
prm/pocket_docking_3.prm

>  <SCORE>
-15.6729

>  <SCORE.INTER>
-15.6729

>  <SCORE.INTER.CONST>
1

>  <SCORE.INTER.POLAR>
0

>  <SCORE.INTER.ROT>
0

>  <SCORE.INTER.SOLV>
10.7342

>  <SCORE.INTER.VDW>
-17.6266

>  <SCORE.INTER.norm>
-1.42481

>  <SCORE.INTRA>
0

>  <SCORE.INTRA.DIHEDRAL>
0

>  <SCORE.INTRA.DIHEDRAL.0>
0

>  <SCORE.INTRA.POLAR>
0

>  <SCORE.INTRA.POLAR.0>
0

>  <SCORE.INTRA.REPUL>
0

>  <SCORE.INTRA.REPUL.0>
0

>  <SCORE.INTRA.SOLV>
0

>  <SCORE.INTRA.SOLV.lig_0>
-28.6198

>  <SCORE.INTRA.VDW>
0

>  <SCORE.INTRA.VDW.0>
0

>  <SCORE.INTRA.norm>
0

>  <SCORE.RESTR>
0

>  <SCORE.RESTR.CAVITY>
0

>  <SCORE.RESTR.norm>
0

>  <SCORE.SYSTEM>
0

>  <SCORE.SYSTEM.CONST>
0

>  <SCORE.SYSTEM.DIHEDRAL>
0

>  <SCORE.SYSTEM.SOLV>
0

>  <SCORE.SYSTEM.norm>
0

>  <SCORE.heavy>
11

>  <SCORE.norm>
-1.42481

>  <RMSD>
2.905

$$$$
ligand
 OpenBabel11021811483D
libRbt.so/2013.1/901 2013/11/27
 11 12  0  0  0  0  0  0  0  0999 V2000
   36.6292   -8.6450  -37.8349 N   0  0  0  0  0  0  0  0  0  0  0  0
   35.4987   -9.2503  -38.2286 C   0  0  0  0  0  0  0  0  0  0  0  0
   34.6042   -8.5550  -39.0985 N   0  0  0  0  0  0  0  0  0  0  0  0
   35.1944  -10.4879  -37.8237 N   0  0  0  0  0  0  0  0  0  0  0  0
   36.0451  -11.1773  -36.9817 C   0  0  0  0  0  0  0  0  0  0  0  0
   37.2034  -10.5726  -36.5682 C   0  0  0  0  0  0  0  0  0  0  0  0
   37.5136   -9.2463  -37.0138 C   0  0  0  0  0  0  0  0  0  0  0  0
   39.0011   -8.4283  -36.5129 S   0  0  0  0  0  0  0  0  0  0  0  0
   37.8618  -11.4541  -35.7494 N   0  0  0  0  0  0  0  0  0  0  0  0
   37.1177  -12.5872  -35.6588 C   0  0  0  0  0  0  0  0  0  0  0  0
   35.9921  -12.4371  -36.4125 N   0  0  0  0  0  0  0  0  0  0  0  0
  1  2  2  0  0  0  0
  1  7  1  0  0  0  0
  2  3  1  0  0  0  0
  2  4  1  0  0  0  0
  4  5  2  0  0  0  0
  5  6  1  0  0  0  0
  5 11  1  0  0  0  0
  6  7  2  0  0  0  0
  6  9  1  0  0  0  0
  7  8  1  0  0  0  0
  9 10  1  0  0  0  0
 10 11  2  0  0  0  0
M  END
>  <CHROM.1>
36.88115278,-10.02561925,-37.02561195,1.46357502,-0.49804044,-0.44546364

>  <Name>
ligand

>  <RI>
0

>  <Rbt.Current_Directory>
/home/itssahil/PROJECTS/Mol_Feturizer/New_Systems/rnas/3RKF

>  <Rbt.Executable>
rbdock ($Id: //depot/dev/client3/rdock/2013.1/src/exe/rbdock.cxx#4 $)

>  <Rbt.Library>
libRbt.so (2013.1, Build901 2013/11/27)

>  <Rbt.Parameter_File>
/export/apps/rDock/src/rDock_2013.1_src/data/scripts/dock_solv.prm

>  <Rbt.Receptor>
prm/pocket_docking_4.prm

>  <SCORE>
-15.7173

>  <SCORE.INTER>
-15.7173

>  <SCORE.INTER.CONST>
1

>  <SCORE.INTER.POLAR>
0

>  <SCORE.INTER.ROT>
0

>  <SCORE.INTER.SOLV>
9.79039

>  <SCORE.INTER.VDW>
-17.3417

>  <SCORE.INTER.norm>
-1.42884

>  <SCORE.INTRA>
0

>  <SCORE.INTRA.DIHEDRAL>
0

>  <SCORE.INTRA.DIHEDRAL.0>
0

>  <SCORE.INTRA.POLAR>
0

>  <SCORE.INTRA.POLAR.0>
0

>  <SCORE.INTRA.REPUL>
0

>  <SCORE.INTRA.REPUL.0>
0

>  <SCORE.INTRA.SOLV>
0

>  <SCORE.INTRA.SOLV.lig_0>
-28.6198

>  <SCORE.INTRA.VDW>
0

>  <SCORE.INTRA.VDW.0>
0

>  <SCORE.INTRA.norm>
0

>  <SCORE.RESTR>
0

>  <SCORE.RESTR.CAVITY>
0

>  <SCORE.RESTR.norm>
0

>  <SCORE.SYSTEM>
0

>  <SCORE.SYSTEM.CONST>
0

>  <SCORE.SYSTEM.DIHEDRAL>
0

>  <SCORE.SYSTEM.SOLV>
0

>  <SCORE.SYSTEM.norm>
0

>  <SCORE.heavy>
11

>  <SCORE.norm>
-1.42884

>  <RMSD>
2.905

$$$$
ligand
 OpenBabel11021811483D
libRbt.so/2013.1/901 2013/11/27
 11 12  0  0  0  0  0  0  0  0999 V2000
   36.6482   -8.7001  -37.9552 N   0  0  0  0  0  0  0  0  0  0  0  0
   35.5493   -9.3380  -38.3851 C   0  0  0  0  0  0  0  0  0  0  0  0
   34.6835   -8.6829  -39.3133 N   0  0  0  0  0  0  0  0  0  0  0  0
   35.2501  -10.5709  -37.9628 N   0  0  0  0  0  0  0  0  0  0  0  0
   36.0734  -11.2217  -37.0647 C   0  0  0  0  0  0  0  0  0  0  0  0
   37.1992  -10.5835  -36.6137 C   0  0  0  0  0  0  0  0  0  0  0  0
   37.5045   -9.2627  -37.0786 C   0  0  0  0  0  0  0  0  0  0  0  0
   38.9510   -8.4023  -36.5305 S   0  0  0  0  0  0  0  0  0  0  0  0
   37.8352  -11.4306  -35.7427 N   0  0  0  0  0  0  0  0  0  0  0  0
   37.1095  -12.5761  -35.6575 C   0  0  0  0  0  0  0  0  0  0  0  0
   36.0179  -12.4678  -36.4662 N   0  0  0  0  0  0  0  0  0  0  0  0
  1  2  2  0  0  0  0
  1  7  1  0  0  0  0
  2  3  1  0  0  0  0
  2  4  1  0  0  0  0
  4  5  2  0  0  0  0
  5  6  1  0  0  0  0
  5 11  1  0  0  0  0
  6  7  2  0  0  0  0
  6  9  1  0  0  0  0
  7  8  1  0  0  0  0
  9 10  1  0  0  0  0
 10 11  2  0  0  0  0
M  END
>  <CHROM.1>
36.88835600,-10.05472582,-37.09958376,1.46013639,-0.54863648,-0.47261825

>  <Name>
ligand

>  <RI>
0

>  <Rbt.Current_Directory>
/home/itssahil/PROJECTS/Mol_Feturizer/New_Systems/rnas/3RKF

>  <Rbt.Executable>
rbdock ($Id: //depot/dev/client3/rdock/2013.1/src/exe/rbdock.cxx#4 $)

>  <Rbt.Library>
libRbt.so (2013.1, Build901 2013/11/27)

>  <Rbt.Parameter_File>
/export/apps/rDock/src/rDock_2013.1_src/data/scripts/dock_solv.prm

>  <Rbt.Receptor>
prm/pocket_docking_4.prm

>  <SCORE>
-15.689

>  <SCORE.INTER>
-15.689

>  <SCORE.INTER.CONST>
1

>  <SCORE.INTER.POLAR>
0

>  <SCORE.INTER.ROT>
0

>  <SCORE.INTER.SOLV>
11.0534

>  <SCORE.INTER.VDW>
-17.7438

>  <SCORE.INTER.norm>
-1.42628

>  <SCORE.INTRA>
0

>  <SCORE.INTRA.DIHEDRAL>
0

>  <SCORE.INTRA.DIHEDRAL.0>
0

>  <SCORE.INTRA.POLAR>
0

>  <SCORE.INTRA.POLAR.0>
0

>  <SCORE.INTRA.REPUL>
0

>  <SCORE.INTRA.REPUL.0>
0

>  <SCORE.INTRA.SOLV>
0

>  <SCORE.INTRA.SOLV.lig_0>
-28.6198

>  <SCORE.INTRA.VDW>
0

>  <SCORE.INTRA.VDW.0>
0

>  <SCORE.INTRA.norm>
0

>  <SCORE.RESTR>
0

>  <SCORE.RESTR.CAVITY>
0

>  <SCORE.RESTR.norm>
0

>  <SCORE.SYSTEM>
0

>  <SCORE.SYSTEM.CONST>
0

>  <SCORE.SYSTEM.DIHEDRAL>
0

>  <SCORE.SYSTEM.SOLV>
0

>  <SCORE.SYSTEM.norm>
0

>  <SCORE.heavy>
11

>  <SCORE.norm>
-1.42628

>  <RMSD>
2.905

$$$$
ligand
 OpenBabel11021811483D
libRbt.so/2013.1/901 2013/11/27
 11 12  0  0  0  0  0  0  0  0999 V2000
   36.6400   -8.6243  -37.8150 N   0  0  0  0  0  0  0  0  0  0  0  0
   35.5058   -9.2270  -38.2019 C   0  0  0  0  0  0  0  0  0  0  0  0
   34.6055   -8.5278  -39.0625 N   0  0  0  0  0  0  0  0  0  0  0  0
   35.2032  -10.4656  -37.7988 N   0  0  0  0  0  0  0  0  0  0  0  0
   36.0596  -11.1588  -36.9657 C   0  0  0  0  0  0  0  0  0  0  0  0
   37.2218  -10.5569  -36.5593 C   0  0  0  0  0  0  0  0  0  0  0  0
   37.5300   -9.2294  -37.0028 C   0  0  0  0  0  0  0  0  0  0  0  0
   39.0224   -8.4148  -36.5107 S   0  0  0  0  0  0  0  0  0  0  0  0
   37.8854  -11.4418  -35.7485 N   0  0  0  0  0  0  0  0  0  0  0  0
   37.1407  -12.5744  -35.6560 C   0  0  0  0  0  0  0  0  0  0  0  0
   36.0095  -12.4205  -36.4003 N   0  0  0  0  0  0  0  0  0  0  0  0
  1  2  2  0  0  0  0
  1  7  1  0  0  0  0
  2  3  1  0  0  0  0
  2  4  1  0  0  0  0
  4  5  2  0  0  0  0
  5  6  1  0  0  0  0
  5 11  1  0  0  0  0
  6  7  2  0  0  0  0
  6  9  1  0  0  0  0
  7  8  1  0  0  0  0
  9 10  1  0  0  0  0
 10 11  2  0  0  0  0
M  END
>  <CHROM.1>
36.89660681,-10.00797779,-37.01227307,1.46614208,-0.49053227,-0.44089063

>  <Name>
ligand

>  <RI>
0

>  <Rbt.Current_Directory>
/home/itssahil/PROJECTS/Mol_Feturizer/New_Systems/rnas/3RKF

>  <Rbt.Executable>
rbdock ($Id: //depot/dev/client3/rdock/2013.1/src/exe/rbdock.cxx#4 $)

>  <Rbt.Library>
libRbt.so (2013.1, Build901 2013/11/27)

>  <Rbt.Parameter_File>
/export/apps/rDock/src/rDock_2013.1_src/data/scripts/dock_solv.prm

>  <Rbt.Receptor>
prm/pocket_docking_7.prm

>  <SCORE>
-15.7855

>  <SCORE.INTER>
-15.7855

>  <SCORE.INTER.CONST>
1

>  <SCORE.INTER.POLAR>
0

>  <SCORE.INTER.ROT>
0

>  <SCORE.INTER.SOLV>
9.64447

>  <SCORE.INTER.VDW>
-17.3385

>  <SCORE.INTER.norm>
-1.43504

>  <SCORE.INTRA>
0

>  <SCORE.INTRA.DIHEDRAL>
0

>  <SCORE.INTRA.DIHEDRAL.0>
0

>  <SCORE.INTRA.POLAR>
0

>  <SCORE.INTRA.POLAR.0>
0

>  <SCORE.INTRA.REPUL>
0

>  <SCORE.INTRA.REPUL.0>
0

>  <SCORE.INTRA.SOLV>
0

>  <SCORE.INTRA.SOLV.lig_0>
-28.6198

>  <SCORE.INTRA.VDW>
0

>  <SCORE.INTRA.VDW.0>
0

>  <SCORE.INTRA.norm>
0

>  <SCORE.RESTR>
0

>  <SCORE.RESTR.CAVITY>
0

>  <SCORE.RESTR.norm>
0

>  <SCORE.SYSTEM>
0

>  <SCORE.SYSTEM.CONST>
0

>  <SCORE.SYSTEM.DIHEDRAL>
0

>  <SCORE.SYSTEM.SOLV>
0

>  <SCORE.SYSTEM.norm>
0

>  <SCORE.heavy>
11

>  <SCORE.norm>
-1.43504

>  <RMSD>
2.905

$$$$
ligand
 OpenBabel11021811483D
libRbt.so/2013.1/901 2013/11/27
 11 12  0  0  0  0  0  0  0  0999 V2000
   36.6425   -8.6699  -37.9083 N   0  0  0  0  0  0  0  0  0  0  0  0
   35.5349   -9.3026  -38.3233 C   0  0  0  0  0  0  0  0  0  0  0  0
   34.6446   -8.6323  -39.2168 N   0  0  0  0  0  0  0  0  0  0  0  0
   35.2495  -10.5445  -37.9180 N   0  0  0  0  0  0  0  0  0  0  0  0
   36.0965  -11.2101  -37.0534 C   0  0  0  0  0  0  0  0  0  0  0  0
   37.2315  -10.5773  -36.6180 C   0  0  0  0  0  0  0  0  0  0  0  0
   37.5217   -9.2467  -37.0643 C   0  0  0  0  0  0  0  0  0  0  0  0
   38.9790   -8.3927  -36.5354 S   0  0  0  0  0  0  0  0  0  0  0  0
   37.8911  -11.4393  -35.7796 N   0  0  0  0  0  0  0  0  0  0  0  0
   37.1707  -12.5884  -35.6989 C   0  0  0  0  0  0  0  0  0  0  0  0
   36.0592  -12.4678  -36.4781 N   0  0  0  0  0  0  0  0  0  0  0  0
  1  2  2  0  0  0  0
  1  7  1  0  0  0  0
  2  3  1  0  0  0  0
  2  4  1  0  0  0  0
  4  5  2  0  0  0  0
  5  6  1  0  0  0  0
  5 11  1  0  0  0  0
  6  7  2  0  0  0  0
  6  9  1  0  0  0  0
  7  8  1  0  0  0  0
  9 10  1  0  0  0  0
 10 11  2  0  0  0  0
M  END
>  <CHROM.1>
36.90730483,-10.04012271,-37.08555395,1.47590085,-0.52772934,-0.44500693

>  <Name>
ligand

>  <RI>
0

>  <Rbt.Current_Directory>
/home/itssahil/PROJECTS/Mol_Feturizer/New_Systems/rnas/3RKF

>  <Rbt.Executable>
rbdock ($Id: //depot/dev/client3/rdock/2013.1/src/exe/rbdock.cxx#4 $)

>  <Rbt.Library>
libRbt.so (2013.1, Build901 2013/11/27)

>  <Rbt.Parameter_File>
/export/apps/rDock/src/rDock_2013.1_src/data/scripts/dock_solv.prm

>  <Rbt.Receptor>
prm/pocket_docking_7.prm

>  <SCORE>
-15.7001

>  <SCORE.INTER>
-15.7001

>  <SCORE.INTER.CONST>
1

>  <SCORE.INTER.POLAR>
0

>  <SCORE.INTER.ROT>
0

>  <SCORE.INTER.SOLV>
10.4816

>  <SCORE.INTER.VDW>
-17.5606

>  <SCORE.INTER.norm>
-1.42728

>  <SCORE.INTRA>
0

>  <SCORE.INTRA.DIHEDRAL>
0

>  <SCORE.INTRA.DIHEDRAL.0>
0

>  <SCORE.INTRA.POLAR>
0

>  <SCORE.INTRA.POLAR.0>
0

>  <SCORE.INTRA.REPUL>
0

>  <SCORE.INTRA.REPUL.0>
0

>  <SCORE.INTRA.SOLV>
0

>  <SCORE.INTRA.SOLV.lig_0>
-28.6198

>  <SCORE.INTRA.VDW>
0

>  <SCORE.INTRA.VDW.0>
0

>  <SCORE.INTRA.norm>
0

>  <SCORE.RESTR>
0

>  <SCORE.RESTR.CAVITY>
0

>  <SCORE.RESTR.norm>
0

>  <SCORE.SYSTEM>
0

>  <SCORE.SYSTEM.CONST>
0

>  <SCORE.SYSTEM.DIHEDRAL>
0

>  <SCORE.SYSTEM.SOLV>
0

>  <SCORE.SYSTEM.norm>
0

>  <SCORE.heavy>
11

>  <SCORE.norm>
-1.42728

>  <RMSD>
2.905

$$$$
ligand
 OpenBabel11021811483D
libRbt.so/2013.1/901 2013/11/27
 11 12  0  0  0  0  0  0  0  0999 V2000
   36.6325   -8.6187  -37.8014 N   0  0  0  0  0  0  0  0  0  0  0  0
   35.4992   -9.2270  -38.1821 C   0  0  0  0  0  0  0  0  0  0  0  0
   34.5864   -8.5289  -39.0304 N   0  0  0  0  0  0  0  0  0  0  0  0
   35.2089  -10.4701  -37.7840 N   0  0  0  0  0  0  0  0  0  0  0  0
   36.0775  -11.1624  -36.9628 C   0  0  0  0  0  0  0  0  0  0  0  0
   37.2389  -10.5547  -36.5628 C   0  0  0  0  0  0  0  0  0  0  0  0
   37.5339   -9.2224  -37.0008 C   0  0  0  0  0  0  0  0  0  0  0  0
   39.0247   -8.4002  -36.5168 S   0  0  0  0  0  0  0  0  0  0  0  0
   37.9159  -11.4398  -35.7634 N   0  0  0  0  0  0  0  0  0  0  0  0
   37.1800  -12.5782  -35.6713 C   0  0  0  0  0  0  0  0  0  0  0  0
   36.0413  -12.4278  -36.4048 N   0  0  0  0  0  0  0  0  0  0  0  0
  1  2  2  0  0  0  0
  1  7  1  0  0  0  0
  2  3  1  0  0  0  0
  2  4  1  0  0  0  0
  4  5  2  0  0  0  0
  5  6  1  0  0  0  0
  5 11  1  0  0  0  0
  6  7  2  0  0  0  0
  6  9  1  0  0  0  0
  7  8  1  0  0  0  0
  9 10  1  0  0  0  0
 10 11  2  0  0  0  0
M  END
>  <CHROM.1>
36.90590102,-10.00534246,-37.00955139,1.47761031,-0.48553774,-0.42936281

>  <Name>
ligand

>  <RI>
0

>  <Rbt.Current_Directory>
/home/itssahil/PROJECTS/Mol_Feturizer/New_Systems/rnas/3RKF

>  <Rbt.Executable>
rbdock ($Id: //depot/dev/client3/rdock/2013.1/src/exe/rbdock.cxx#4 $)

>  <Rbt.Library>
libRbt.so (2013.1, Build901 2013/11/27)

>  <Rbt.Parameter_File>
/export/apps/rDock/src/rDock_2013.1_src/data/scripts/dock_solv.prm

>  <Rbt.Receptor>
prm/blind_docking_80.prm

>  <SCORE>
-15.8011

>  <SCORE.INTER>
-15.8011

>  <SCORE.INTER.CONST>
1

>  <SCORE.INTER.POLAR>
0

>  <SCORE.INTER.ROT>
0

>  <SCORE.INTER.SOLV>
9.51343

>  <SCORE.INTER.VDW>
-17.3052

>  <SCORE.INTER.norm>
-1.43646

>  <SCORE.INTRA>
0

>  <SCORE.INTRA.DIHEDRAL>
0

>  <SCORE.INTRA.DIHEDRAL.0>
0

>  <SCORE.INTRA.POLAR>
0

>  <SCORE.INTRA.POLAR.0>
0

>  <SCORE.INTRA.REPUL>
0

>  <SCORE.INTRA.REPUL.0>
0

>  <SCORE.INTRA.SOLV>
0

>  <SCORE.INTRA.SOLV.lig_0>
-28.6198

>  <SCORE.INTRA.VDW>
0

>  <SCORE.INTRA.VDW.0>
0

>  <SCORE.INTRA.norm>
0

>  <SCORE.RESTR>
0

>  <SCORE.RESTR.CAVITY>
0

>  <SCORE.RESTR.norm>
0

>  <SCORE.SYSTEM>
0

>  <SCORE.SYSTEM.CONST>
0

>  <SCORE.SYSTEM.DIHEDRAL>
0

>  <SCORE.SYSTEM.SOLV>
0

>  <SCORE.SYSTEM.norm>
0

>  <SCORE.heavy>
11

>  <SCORE.norm>
-1.43646

>  <RMSD>
2.907

$$$$
ligand
 OpenBabel11021811483D
libRbt.so/2013.1/901 2013/11/27
 11 12  0  0  0  0  0  0  0  0999 V2000
   38.3620   -9.7485  -36.0080 N   0  0  0  0  0  0  0  0  0  0  0  0
   38.5316   -8.5118  -36.4989 C   0  0  0  0  0  0  0  0  0  0  0  0
   39.6004   -7.7061  -36.0000 N   0  0  0  0  0  0  0  0  0  0  0  0
   37.7220   -8.0206  -37.4430 N   0  0  0  0  0  0  0  0  0  0  0  0
   36.6820   -8.7827  -37.9383 C   0  0  0  0  0  0  0  0  0  0  0  0
   36.4933  -10.0478  -37.4462 C   0  0  0  0  0  0  0  0  0  0  0  0
   37.3720  -10.5579  -36.4354 C   0  0  0  0  0  0  0  0  0  0  0  0
   37.1724  -12.1882  -35.7756 S   0  0  0  0  0  0  0  0  0  0  0  0
   35.4098  -10.5865  -38.0918 N   0  0  0  0  0  0  0  0  0  0  0  0
   34.9364   -9.6642  -38.9700 C   0  0  0  0  0  0  0  0  0  0  0  0
   35.7078   -8.5435  -38.8912 N   0  0  0  0  0  0  0  0  0  0  0  0
  1  2  2  0  0  0  0
  1  7  1  0  0  0  0
  2  3  1  0  0  0  0
  2  4  1  0  0  0  0
  4  5  2  0  0  0  0
  5  6  1  0  0  0  0
  5 11  1  0  0  0  0
  6  7  2  0  0  0  0
  6  9  1  0  0  0  0
  7  8  1  0  0  0  0
  9 10  1  0  0  0  0
 10 11  2  0  0  0  0
M  END
>  <CHROM.1>
37.11715812,-9.80105537,-37.04345197,-0.55044563,-0.64869476,-0.47346594

>  <Name>
ligand

>  <RI>
0

>  <Rbt.Current_Directory>
/home/itssahil/PROJECTS/Mol_Feturizer/New_Systems/rnas/3RKF

>  <Rbt.Executable>
rbdock ($Id: //depot/dev/client3/rdock/2013.1/src/exe/rbdock.cxx#4 $)

>  <Rbt.Library>
libRbt.so (2013.1, Build901 2013/11/27)

>  <Rbt.Parameter_File>
/export/apps/rDock/src/rDock_2013.1_src/data/scripts/dock_solv.prm

>  <Rbt.Receptor>
prm/pocket_docking_8.prm

>  <SCORE>
-13.1463

>  <SCORE.INTER>
-13.1467

>  <SCORE.INTER.CONST>
1

>  <SCORE.INTER.POLAR>
0

>  <SCORE.INTER.ROT>
0

>  <SCORE.INTER.SOLV>
14.7697

>  <SCORE.INTER.VDW>
-17.2877

>  <SCORE.INTER.norm>
-1.19515

>  <SCORE.INTRA>
0

>  <SCORE.INTRA.DIHEDRAL>
0

>  <SCORE.INTRA.DIHEDRAL.0>
0

>  <SCORE.INTRA.POLAR>
0

>  <SCORE.INTRA.POLAR.0>
0

>  <SCORE.INTRA.REPUL>
0

>  <SCORE.INTRA.REPUL.0>
0

>  <SCORE.INTRA.SOLV>
0

>  <SCORE.INTRA.SOLV.lig_0>
-28.6198

>  <SCORE.INTRA.VDW>
0

>  <SCORE.INTRA.VDW.0>
0

>  <SCORE.INTRA.norm>
0

>  <SCORE.RESTR>
0.000409922

>  <SCORE.RESTR.CAVITY>
0.000409922

>  <SCORE.RESTR.norm>
3.72657e-05

>  <SCORE.SYSTEM>
0

>  <SCORE.SYSTEM.CONST>
0

>  <SCORE.SYSTEM.DIHEDRAL>
0

>  <SCORE.SYSTEM.SOLV>
0

>  <SCORE.SYSTEM.norm>
0

>  <SCORE.heavy>
11

>  <SCORE.norm>
-1.19512

>  <RMSD>
2.911

$$$$
ligand
 OpenBabel11021811483D
libRbt.so/2013.1/901 2013/11/27
 11 12  0  0  0  0  0  0  0  0999 V2000
   36.6343   -8.7254  -37.9086 N   0  0  0  0  0  0  0  0  0  0  0  0
   35.5298   -9.3601  -38.3288 C   0  0  0  0  0  0  0  0  0  0  0  0
   34.6538   -8.6996  -39.2436 N   0  0  0  0  0  0  0  0  0  0  0  0
   35.2343  -10.5949  -37.9093 N   0  0  0  0  0  0  0  0  0  0  0  0
   36.0674  -11.2509  -37.0241 C   0  0  0  0  0  0  0  0  0  0  0  0
   37.1991  -10.6159  -36.5831 C   0  0  0  0  0  0  0  0  0  0  0  0
   37.5001   -9.2931  -37.0449 C   0  0  0  0  0  0  0  0  0  0  0  0
   38.9537   -8.4368  -36.5094 S   0  0  0  0  0  0  0  0  0  0  0  0
   37.8443  -11.4680  -35.7238 N   0  0  0  0  0  0  0  0  0  0  0  0
   37.1186  -12.6132  -35.6359 C   0  0  0  0  0  0  0  0  0  0  0  0
   36.0177  -12.4999  -36.4312 N   0  0  0  0  0  0  0  0  0  0  0  0
  1  2  2  0  0  0  0
  1  7  1  0  0  0  0
  2  3  1  0  0  0  0
  2  4  1  0  0  0  0
  4  5  2  0  0  0  0
  5  6  1  0  0  0  0
  5 11  1  0  0  0  0
  6  7  2  0  0  0  0
  6  9  1  0  0  0  0
  7  8  1  0  0  0  0
  9 10  1  0  0  0  0
 10 11  2  0  0  0  0
M  END
>  <CHROM.1>
36.88304710,-10.08446774,-37.06264171,1.46531956,-0.53782427,-0.46491671

>  <Name>
ligand

>  <RI>
0

>  <Rbt.Current_Directory>
/home/itssahil/PROJECTS/Mol_Feturizer/New_Systems/rnas/3RKF

>  <Rbt.Executable>
rbdock ($Id: //depot/dev/client3/rdock/2013.1/src/exe/rbdock.cxx#4 $)

>  <Rbt.Library>
libRbt.so (2013.1, Build901 2013/11/27)

>  <Rbt.Parameter_File>
/export/apps/rDock/src/rDock_2013.1_src/data/scripts/dock_solv.prm

>  <Rbt.Receptor>
prm/pocket_docking_7.prm

>  <SCORE>
-15.6946

>  <SCORE.INTER>
-15.6946

>  <SCORE.INTER.CONST>
1

>  <SCORE.INTER.POLAR>
0

>  <SCORE.INTER.ROT>
0

>  <SCORE.INTER.SOLV>
10.7879

>  <SCORE.INTER.VDW>
-17.6591

>  <SCORE.INTER.norm>
-1.42679

>  <SCORE.INTRA>
0

>  <SCORE.INTRA.DIHEDRAL>
0

>  <SCORE.INTRA.DIHEDRAL.0>
0

>  <SCORE.INTRA.POLAR>
0

>  <SCORE.INTRA.POLAR.0>
0

>  <SCORE.INTRA.REPUL>
0

>  <SCORE.INTRA.REPUL.0>
0

>  <SCORE.INTRA.SOLV>
0

>  <SCORE.INTRA.SOLV.lig_0>
-28.6198

>  <SCORE.INTRA.VDW>
0

>  <SCORE.INTRA.VDW.0>
0

>  <SCORE.INTRA.norm>
0

>  <SCORE.RESTR>
0

>  <SCORE.RESTR.CAVITY>
0

>  <SCORE.RESTR.norm>
0

>  <SCORE.SYSTEM>
0

>  <SCORE.SYSTEM.CONST>
0

>  <SCORE.SYSTEM.DIHEDRAL>
0

>  <SCORE.SYSTEM.SOLV>
0

>  <SCORE.SYSTEM.norm>
0

>  <SCORE.heavy>
11

>  <SCORE.norm>
-1.42679

>  <RMSD>
2.913

$$$$
ligand
 OpenBabel11021811483D
libRbt.so/2013.1/901 2013/11/27
 11 12  0  0  0  0  0  0  0  0999 V2000
   36.6055   -8.7331  -37.8757 N   0  0  0  0  0  0  0  0  0  0  0  0
   35.5094   -9.3711  -38.3124 C   0  0  0  0  0  0  0  0  0  0  0  0
   34.5949   -8.6789  -39.1639 N   0  0  0  0  0  0  0  0  0  0  0  0
   35.2574  -10.6381  -37.9670 N   0  0  0  0  0  0  0  0  0  0  0  0
   36.1283  -11.3250  -37.1438 C   0  0  0  0  0  0  0  0  0  0  0  0
   37.2520  -10.6874  -36.6870 C   0  0  0  0  0  0  0  0  0  0  0  0
   37.5062   -9.3296  -37.0689 C   0  0  0  0  0  0  0  0  0  0  0  0
   38.9479   -8.4679  -36.5104 S   0  0  0  0  0  0  0  0  0  0  0  0
   37.9399  -11.5737  -35.8982 N   0  0  0  0  0  0  0  0  0  0  0  0
   37.2478  -12.7425  -35.8689 C   0  0  0  0  0  0  0  0  0  0  0  0
   36.1263  -12.6102  -36.6317 N   0  0  0  0  0  0  0  0  0  0  0  0
  1  2  2  0  0  0  0
  1  7  1  0  0  0  0
  2  3  1  0  0  0  0
  2  4  1  0  0  0  0
  4  5  2  0  0  0  0
  5  6  1  0  0  0  0
  5 11  1  0  0  0  0
  6  7  2  0  0  0  0
  6  9  1  0  0  0  0
  7  8  1  0  0  0  0
  9 10  1  0  0  0  0
 10 11  2  0  0  0  0
M  END
>  <CHROM.1>
36.91069796,-10.13566306,-37.12450244,1.50550751,-0.52907867,-0.38032567

>  <Name>
ligand

>  <RI>
0

>  <Rbt.Current_Directory>
/home/itssahil/PROJECTS/Mol_Feturizer/New_Systems/rnas/3RKF

>  <Rbt.Executable>
rbdock ($Id: //depot/dev/client3/rdock/2013.1/src/exe/rbdock.cxx#4 $)

>  <Rbt.Library>
libRbt.so (2013.1, Build901 2013/11/27)

>  <Rbt.Parameter_File>
/export/apps/rDock/src/rDock_2013.1_src/data/scripts/dock_solv.prm

>  <Rbt.Receptor>
prm/pocket_docking_6.prm

>  <SCORE>
-15.7187

>  <SCORE.INTER>
-15.7187

>  <SCORE.INTER.CONST>
1

>  <SCORE.INTER.POLAR>
0

>  <SCORE.INTER.ROT>
0

>  <SCORE.INTER.SOLV>
10.2411

>  <SCORE.INTER.VDW>
-17.4928

>  <SCORE.INTER.norm>
-1.42897

>  <SCORE.INTRA>
0

>  <SCORE.INTRA.DIHEDRAL>
0

>  <SCORE.INTRA.DIHEDRAL.0>
0

>  <SCORE.INTRA.POLAR>
0

>  <SCORE.INTRA.POLAR.0>
0

>  <SCORE.INTRA.REPUL>
0

>  <SCORE.INTRA.REPUL.0>
0

>  <SCORE.INTRA.SOLV>
0

>  <SCORE.INTRA.SOLV.lig_0>
-28.6198

>  <SCORE.INTRA.VDW>
0

>  <SCORE.INTRA.VDW.0>
0

>  <SCORE.INTRA.norm>
0

>  <SCORE.RESTR>
0

>  <SCORE.RESTR.CAVITY>
0

>  <SCORE.RESTR.norm>
0

>  <SCORE.SYSTEM>
0

>  <SCORE.SYSTEM.CONST>
0

>  <SCORE.SYSTEM.DIHEDRAL>
0

>  <SCORE.SYSTEM.SOLV>
0

>  <SCORE.SYSTEM.norm>
0

>  <SCORE.heavy>
11

>  <SCORE.norm>
-1.42897

>  <RMSD>
2.914

$$$$
ligand
 OpenBabel11021811483D
libRbt.so/2013.1/901 2013/11/27
 11 12  0  0  0  0  0  0  0  0999 V2000
   36.6815   -8.7696  -37.9540 N   0  0  0  0  0  0  0  0  0  0  0  0
   35.5829   -9.4107  -38.3800 C   0  0  0  0  0  0  0  0  0  0  0  0
   34.7230   -8.7664  -39.3212 N   0  0  0  0  0  0  0  0  0  0  0  0
   35.2786  -10.6369  -37.9421 N   0  0  0  0  0  0  0  0  0  0  0  0
   36.0962  -11.2772  -37.0313 C   0  0  0  0  0  0  0  0  0  0  0  0
   37.2216  -10.6356  -36.5841 C   0  0  0  0  0  0  0  0  0  0  0  0
   37.5323   -9.3221  -37.0658 C   0  0  0  0  0  0  0  0  0  0  0  0
   38.9784   -8.4578  -36.5230 S   0  0  0  0  0  0  0  0  0  0  0  0
   37.8514  -11.4722  -35.6984 N   0  0  0  0  0  0  0  0  0  0  0  0
   37.1224  -12.6146  -35.6008 C   0  0  0  0  0  0  0  0  0  0  0  0
   36.0348  -12.5148  -36.4159 N   0  0  0  0  0  0  0  0  0  0  0  0
  1  2  2  0  0  0  0
  1  7  1  0  0  0  0
  2  3  1  0  0  0  0
  2  4  1  0  0  0  0
  4  5  2  0  0  0  0
  5  6  1  0  0  0  0
  5 11  1  0  0  0  0
  6  7  2  0  0  0  0
  6  9  1  0  0  0  0
  7  8  1  0  0  0  0
  9 10  1  0  0  0  0
 10 11  2  0  0  0  0
M  END
>  <CHROM.1>
36.91425257,-10.11287002,-37.07860636,1.45504284,-0.55154274,-0.48911802

>  <Name>
ligand

>  <RI>
0

>  <Rbt.Current_Directory>
/home/itssahil/PROJECTS/Mol_Feturizer/New_Systems/rnas/3RKF

>  <Rbt.Executable>
rbdock ($Id: //depot/dev/client3/rdock/2013.1/src/exe/rbdock.cxx#4 $)

>  <Rbt.Library>
libRbt.so (2013.1, Build901 2013/11/27)

>  <Rbt.Parameter_File>
/export/apps/rDock/src/rDock_2013.1_src/data/scripts/dock_solv.prm

>  <Rbt.Receptor>
prm/pocket_docking_7.prm

>  <SCORE>
-15.7541

>  <SCORE.INTER>
-15.7541

>  <SCORE.INTER.CONST>
1

>  <SCORE.INTER.POLAR>
0

>  <SCORE.INTER.ROT>
0

>  <SCORE.INTER.SOLV>
11.4328

>  <SCORE.INTER.VDW>
-17.9137

>  <SCORE.INTER.norm>
-1.43219

>  <SCORE.INTRA>
0

>  <SCORE.INTRA.DIHEDRAL>
0

>  <SCORE.INTRA.DIHEDRAL.0>
0

>  <SCORE.INTRA.POLAR>
0

>  <SCORE.INTRA.POLAR.0>
0

>  <SCORE.INTRA.REPUL>
0

>  <SCORE.INTRA.REPUL.0>
0

>  <SCORE.INTRA.SOLV>
0

>  <SCORE.INTRA.SOLV.lig_0>
-28.6198

>  <SCORE.INTRA.VDW>
0

>  <SCORE.INTRA.VDW.0>
0

>  <SCORE.INTRA.norm>
0

>  <SCORE.RESTR>
0

>  <SCORE.RESTR.CAVITY>
0

>  <SCORE.RESTR.norm>
0

>  <SCORE.SYSTEM>
0

>  <SCORE.SYSTEM.CONST>
0

>  <SCORE.SYSTEM.DIHEDRAL>
0

>  <SCORE.SYSTEM.SOLV>
0

>  <SCORE.SYSTEM.norm>
0

>  <SCORE.heavy>
11

>  <SCORE.norm>
-1.43219

>  <RMSD>
2.917

$$$$
ligand
 OpenBabel11021811483D
libRbt.so/2013.1/901 2013/11/27
 11 12  0  0  0  0  0  0  0  0999 V2000
   36.6533   -8.7770  -37.9520 N   0  0  0  0  0  0  0  0  0  0  0  0
   35.5594   -9.4240  -38.3810 C   0  0  0  0  0  0  0  0  0  0  0  0
   34.6959   -8.7825  -39.3207 N   0  0  0  0  0  0  0  0  0  0  0  0
   35.2631  -10.6537  -37.9472 N   0  0  0  0  0  0  0  0  0  0  0  0
   36.0842  -11.2914  -37.0378 C   0  0  0  0  0  0  0  0  0  0  0  0
   37.2049  -10.6437  -36.5876 C   0  0  0  0  0  0  0  0  0  0  0  0
   37.5072   -9.3266  -37.0649 C   0  0  0  0  0  0  0  0  0  0  0  0
   38.9471   -8.4544  -36.5182 S   0  0  0  0  0  0  0  0  0  0  0  0
   37.8397  -11.4789  -35.7042 N   0  0  0  0  0  0  0  0  0  0  0  0
   37.1183  -12.6264  -35.6107 C   0  0  0  0  0  0  0  0  0  0  0  0
   36.0306  -12.5313  -36.4264 N   0  0  0  0  0  0  0  0  0  0  0  0
  1  2  2  0  0  0  0
  1  7  1  0  0  0  0
  2  3  1  0  0  0  0
  2  4  1  0  0  0  0
  4  5  2  0  0  0  0
  5  6  1  0  0  0  0
  5 11  1  0  0  0  0
  6  7  2  0  0  0  0
  6  9  1  0  0  0  0
  7  8  1  0  0  0  0
  9 10  1  0  0  0  0
 10 11  2  0  0  0  0
M  END
>  <CHROM.1>
36.89447135,-10.12145246,-37.08074288,1.46159446,-0.55535881,-0.48248272

>  <Name>
ligand

>  <RI>
0

>  <Rbt.Current_Directory>
/home/itssahil/PROJECTS/Mol_Feturizer/New_Systems/rnas/3RKF

>  <Rbt.Executable>
rbdock ($Id: //depot/dev/client3/rdock/2013.1/src/exe/rbdock.cxx#4 $)

>  <Rbt.Library>
libRbt.so (2013.1, Build901 2013/11/27)

>  <Rbt.Parameter_File>
/export/apps/rDock/src/rDock_2013.1_src/data/scripts/dock_solv.prm

>  <Rbt.Receptor>
prm/blind_docking_60.prm

>  <SCORE>
-15.7821

>  <SCORE.INTER>
-15.7821

>  <SCORE.INTER.CONST>
1

>  <SCORE.INTER.POLAR>
0

>  <SCORE.INTER.ROT>
0

>  <SCORE.INTER.SOLV>
11.3743

>  <SCORE.INTER.VDW>
-17.9128

>  <SCORE.INTER.norm>
-1.43474

>  <SCORE.INTRA>
0

>  <SCORE.INTRA.DIHEDRAL>
0

>  <SCORE.INTRA.DIHEDRAL.0>
0

>  <SCORE.INTRA.POLAR>
0

>  <SCORE.INTRA.POLAR.0>
0

>  <SCORE.INTRA.REPUL>
0

>  <SCORE.INTRA.REPUL.0>
0

>  <SCORE.INTRA.SOLV>
0

>  <SCORE.INTRA.SOLV.lig_0>
-28.6198

>  <SCORE.INTRA.VDW>
0

>  <SCORE.INTRA.VDW.0>
0

>  <SCORE.INTRA.norm>
0

>  <SCORE.RESTR>
0

>  <SCORE.RESTR.CAVITY>
0

>  <SCORE.RESTR.norm>
0

>  <SCORE.SYSTEM>
0

>  <SCORE.SYSTEM.CONST>
0

>  <SCORE.SYSTEM.DIHEDRAL>
0

>  <SCORE.SYSTEM.SOLV>
0

>  <SCORE.SYSTEM.norm>
0

>  <SCORE.heavy>
11

>  <SCORE.norm>
-1.43474

>  <RMSD>
2.918

$$$$
ligand
 OpenBabel11021811483D
libRbt.so/2013.1/901 2013/11/27
 11 12  0  0  0  0  0  0  0  0999 V2000
   36.6051   -8.7761  -37.8388 N   0  0  0  0  0  0  0  0  0  0  0  0
   35.5112   -9.4049  -38.2942 C   0  0  0  0  0  0  0  0  0  0  0  0
   34.6177   -8.7055  -39.1619 N   0  0  0  0  0  0  0  0  0  0  0  0
   35.2425  -10.6695  -37.9528 N   0  0  0  0  0  0  0  0  0  0  0  0
   36.0929  -11.3634  -37.1142 C   0  0  0  0  0  0  0  0  0  0  0  0
   37.2140  -10.7351  -36.6381 C   0  0  0  0  0  0  0  0  0  0  0  0
   37.4864   -9.3798  -37.0162 C   0  0  0  0  0  0  0  0  0  0  0  0
   38.9255   -8.5302  -36.4330 S   0  0  0  0  0  0  0  0  0  0  0  0
   37.8803  -11.6268  -35.8371 N   0  0  0  0  0  0  0  0  0  0  0  0
   37.1779  -12.7896  -35.8192 C   0  0  0  0  0  0  0  0  0  0  0  0
   36.0709  -12.6482  -36.6016 N   0  0  0  0  0  0  0  0  0  0  0  0
  1  2  2  0  0  0  0
  1  7  1  0  0  0  0
  2  3  1  0  0  0  0
  2  4  1  0  0  0  0
  4  5  2  0  0  0  0
  5  6  1  0  0  0  0
  5 11  1  0  0  0  0
  6  7  2  0  0  0  0
  6  9  1  0  0  0  0
  7  8  1  0  0  0  0
  9 10  1  0  0  0  0
 10 11  2  0  0  0  0
M  END
>  <CHROM.1>
36.88503317,-10.18075015,-37.08176352,1.48865551,-0.54202862,-0.38946739

>  <Name>
ligand

>  <RI>
0

>  <Rbt.Current_Directory>
/home/itssahil/PROJECTS/Mol_Feturizer/New_Systems/rnas/3RKF

>  <Rbt.Executable>
rbdock ($Id: //depot/dev/client3/rdock/2013.1/src/exe/rbdock.cxx#4 $)

>  <Rbt.Library>
libRbt.so (2013.1, Build901 2013/11/27)

>  <Rbt.Parameter_File>
/export/apps/rDock/src/rDock_2013.1_src/data/scripts/dock_solv.prm

>  <Rbt.Receptor>
prm/pocket_docking_6.prm

>  <SCORE>
-15.6128

>  <SCORE.INTER>
-15.6128

>  <SCORE.INTER.CONST>
1

>  <SCORE.INTER.POLAR>
0

>  <SCORE.INTER.ROT>
0

>  <SCORE.INTER.SOLV>
10.3304

>  <SCORE.INTER.VDW>
-17.452

>  <SCORE.INTER.norm>
-1.41935

>  <SCORE.INTRA>
0

>  <SCORE.INTRA.DIHEDRAL>
0

>  <SCORE.INTRA.DIHEDRAL.0>
0

>  <SCORE.INTRA.POLAR>
0

>  <SCORE.INTRA.POLAR.0>
0

>  <SCORE.INTRA.REPUL>
0

>  <SCORE.INTRA.REPUL.0>
0

>  <SCORE.INTRA.SOLV>
0

>  <SCORE.INTRA.SOLV.lig_0>
-28.6198

>  <SCORE.INTRA.VDW>
0

>  <SCORE.INTRA.VDW.0>
0

>  <SCORE.INTRA.norm>
0

>  <SCORE.RESTR>
0

>  <SCORE.RESTR.CAVITY>
0

>  <SCORE.RESTR.norm>
0

>  <SCORE.SYSTEM>
0

>  <SCORE.SYSTEM.CONST>
0

>  <SCORE.SYSTEM.DIHEDRAL>
0

>  <SCORE.SYSTEM.SOLV>
0

>  <SCORE.SYSTEM.norm>
0

>  <SCORE.heavy>
11

>  <SCORE.norm>
-1.41935

>  <RMSD>
2.919

$$$$
ligand
 OpenBabel11021811483D
libRbt.so/2013.1/901 2013/11/27
 11 12  0  0  0  0  0  0  0  0999 V2000
   38.4378   -9.8831  -35.9840 N   0  0  0  0  0  0  0  0  0  0  0  0
   38.6618   -8.6601  -36.4876 C   0  0  0  0  0  0  0  0  0  0  0  0
   39.7690   -7.9000  -36.0013 N   0  0  0  0  0  0  0  0  0  0  0  0
   37.8711   -8.1411  -37.4329 N   0  0  0  0  0  0  0  0  0  0  0  0
   36.7946   -8.8591  -37.9161 C   0  0  0  0  0  0  0  0  0  0  0  0
   36.5503  -10.1094  -37.4109 C   0  0  0  0  0  0  0  0  0  0  0  0
   37.4094  -10.6499  -36.3992 C   0  0  0  0  0  0  0  0  0  0  0  0
   37.1382  -12.2629  -35.7227 S   0  0  0  0  0  0  0  0  0  0  0  0
   35.4399  -10.6036  -38.0464 N   0  0  0  0  0  0  0  0  0  0  0  0
   35.0052   -9.6689  -38.9313 C   0  0  0  0  0  0  0  0  0  0  0  0
   35.8279   -8.5842  -38.8668 N   0  0  0  0  0  0  0  0  0  0  0  0
  1  2  2  0  0  0  0
  1  7  1  0  0  0  0
  2  3  1  0  0  0  0
  2  4  1  0  0  0  0
  4  5  2  0  0  0  0
  5  6  1  0  0  0  0
  5 11  1  0  0  0  0
  6  7  2  0  0  0  0
  6  9  1  0  0  0  0
  7  8  1  0  0  0  0
  9 10  1  0  0  0  0
 10 11  2  0  0  0  0
M  END
>  <CHROM.1>
37.18677499,-9.88791145,-37.01334110,-0.59820111,-0.62274637,-0.51140834

>  <Name>
ligand

>  <RI>
0

>  <Rbt.Current_Directory>
/home/itssahil/PROJECTS/Mol_Feturizer/New_Systems/rnas/3RKF

>  <Rbt.Executable>
rbdock ($Id: //depot/dev/client3/rdock/2013.1/src/exe/rbdock.cxx#4 $)

>  <Rbt.Library>
libRbt.so (2013.1, Build901 2013/11/27)

>  <Rbt.Parameter_File>
/export/apps/rDock/src/rDock_2013.1_src/data/scripts/dock_solv.prm

>  <Rbt.Receptor>
prm/pocket_docking_6.prm

>  <SCORE>
-13.3219

>  <SCORE.INTER>
-13.3219

>  <SCORE.INTER.CONST>
1

>  <SCORE.INTER.POLAR>
0

>  <SCORE.INTER.ROT>
0

>  <SCORE.INTER.SOLV>
15.3168

>  <SCORE.INTER.VDW>
-17.5869

>  <SCORE.INTER.norm>
-1.21108

>  <SCORE.INTRA>
0

>  <SCORE.INTRA.DIHEDRAL>
0

>  <SCORE.INTRA.DIHEDRAL.0>
0

>  <SCORE.INTRA.POLAR>
0

>  <SCORE.INTRA.POLAR.0>
0

>  <SCORE.INTRA.REPUL>
0

>  <SCORE.INTRA.REPUL.0>
0

>  <SCORE.INTRA.SOLV>
0

>  <SCORE.INTRA.SOLV.lig_0>
-28.6198

>  <SCORE.INTRA.VDW>
0

>  <SCORE.INTRA.VDW.0>
0

>  <SCORE.INTRA.norm>
0

>  <SCORE.RESTR>
2.6957e-06

>  <SCORE.RESTR.CAVITY>
2.6957e-06

>  <SCORE.RESTR.norm>
2.45063e-07

>  <SCORE.SYSTEM>
0

>  <SCORE.SYSTEM.CONST>
0

>  <SCORE.SYSTEM.DIHEDRAL>
0

>  <SCORE.SYSTEM.SOLV>
0

>  <SCORE.SYSTEM.norm>
0

>  <SCORE.heavy>
11

>  <SCORE.norm>
-1.21108

>  <RMSD>
2.920

$$$$
ligand
 OpenBabel11021811483D
libRbt.so/2013.1/901 2013/11/27
 11 12  0  0  0  0  0  0  0  0999 V2000
   36.5599   -8.7220  -37.7012 N   0  0  0  0  0  0  0  0  0  0  0  0
   35.4428   -9.3300  -38.1274 C   0  0  0  0  0  0  0  0  0  0  0  0
   34.5191   -8.6000  -38.9361 N   0  0  0  0  0  0  0  0  0  0  0  0
   35.1785  -10.6020  -37.8108 N   0  0  0  0  0  0  0  0  0  0  0  0
   36.0580  -11.3255  -37.0291 C   0  0  0  0  0  0  0  0  0  0  0  0
   37.2032  -10.7187  -36.5835 C   0  0  0  0  0  0  0  0  0  0  0  0
   37.4704   -9.3551  -36.9342 C   0  0  0  0  0  0  0  0  0  0  0  0
   38.9396   -8.5324  -36.3888 S   0  0  0  0  0  0  0  0  0  0  0  0
   37.8957  -11.6376  -35.8370 N   0  0  0  0  0  0  0  0  0  0  0  0
   37.1853  -12.7956  -35.8223 C   0  0  0  0  0  0  0  0  0  0  0  0
   36.0474  -12.6243  -36.5526 N   0  0  0  0  0  0  0  0  0  0  0  0
  1  2  2  0  0  0  0
  1  7  1  0  0  0  0
  2  3  1  0  0  0  0
  2  4  1  0  0  0  0
  4  5  2  0  0  0  0
  5  6  1  0  0  0  0
  5 11  1  0  0  0  0
  6  7  2  0  0  0  0
  6  9  1  0  0  0  0
  7  8  1  0  0  0  0
  9 10  1  0  0  0  0
 10 11  2  0  0  0  0
M  END
>  <CHROM.1>
36.86034209,-10.14969593,-36.99682336,1.49845392,-0.49985411,-0.35606010

>  <Name>
ligand

>  <RI>
0

>  <Rbt.Current_Directory>
/home/itssahil/PROJECTS/Mol_Feturizer/New_Systems/rnas/3RKF

>  <Rbt.Executable>
rbdock ($Id: //depot/dev/client3/rdock/2013.1/src/exe/rbdock.cxx#4 $)

>  <Rbt.Library>
libRbt.so (2013.1, Build901 2013/11/27)

>  <Rbt.Parameter_File>
/export/apps/rDock/src/rDock_2013.1_src/data/scripts/dock_solv.prm

>  <Rbt.Receptor>
prm/pocket_docking_3.prm

>  <SCORE>
-15.7061

>  <SCORE.INTER>
-15.7061

>  <SCORE.INTER.CONST>
1

>  <SCORE.INTER.POLAR>
0

>  <SCORE.INTER.ROT>
0

>  <SCORE.INTER.SOLV>
9.09513

>  <SCORE.INTER.VDW>
-17.1024

>  <SCORE.INTER.norm>
-1.42783

>  <SCORE.INTRA>
0

>  <SCORE.INTRA.DIHEDRAL>
0

>  <SCORE.INTRA.DIHEDRAL.0>
0

>  <SCORE.INTRA.POLAR>
0

>  <SCORE.INTRA.POLAR.0>
0

>  <SCORE.INTRA.REPUL>
0

>  <SCORE.INTRA.REPUL.0>
0

>  <SCORE.INTRA.SOLV>
0

>  <SCORE.INTRA.SOLV.lig_0>
-28.6198

>  <SCORE.INTRA.VDW>
0

>  <SCORE.INTRA.VDW.0>
0

>  <SCORE.INTRA.norm>
0

>  <SCORE.RESTR>
0

>  <SCORE.RESTR.CAVITY>
0

>  <SCORE.RESTR.norm>
0

>  <SCORE.SYSTEM>
0

>  <SCORE.SYSTEM.CONST>
0

>  <SCORE.SYSTEM.DIHEDRAL>
0

>  <SCORE.SYSTEM.SOLV>
0

>  <SCORE.SYSTEM.norm>
0

>  <SCORE.heavy>
11

>  <SCORE.norm>
-1.42783

>  <RMSD>
2.921

$$$$
ligand
 OpenBabel11021811483D
libRbt.so/2013.1/901 2013/11/27
 11 12  0  0  0  0  0  0  0  0999 V2000
   38.4397   -9.8058  -35.9805 N   0  0  0  0  0  0  0  0  0  0  0  0
   38.6354   -8.5774  -36.4826 C   0  0  0  0  0  0  0  0  0  0  0  0
   39.7249   -7.7926  -35.9954 N   0  0  0  0  0  0  0  0  0  0  0  0
   37.8330   -8.0756  -37.4273 N   0  0  0  0  0  0  0  0  0  0  0  0
   36.7734   -8.8177  -37.9114 C   0  0  0  0  0  0  0  0  0  0  0  0
   36.5579  -10.0739  -37.4078 C   0  0  0  0  0  0  0  0  0  0  0  0
   37.4293  -10.5957  -36.3967 C   0  0  0  0  0  0  0  0  0  0  0  0
   37.1953  -12.2153  -35.7222 S   0  0  0  0  0  0  0  0  0  0  0  0
   35.4593  -10.5928  -38.0439 N   0  0  0  0  0  0  0  0  0  0  0  0
   35.0031   -9.6672  -38.9277 C   0  0  0  0  0  0  0  0  0  0  0  0
   35.8006   -8.5640  -38.8619 N   0  0  0  0  0  0  0  0  0  0  0  0
  1  2  2  0  0  0  0
  1  7  1  0  0  0  0
  2  3  1  0  0  0  0
  2  4  1  0  0  0  0
  4  5  2  0  0  0  0
  5  6  1  0  0  0  0
  5 11  1  0  0  0  0
  6  7  2  0  0  0  0
  6  9  1  0  0  0  0
  7  8  1  0  0  0  0
  9 10  1  0  0  0  0
 10 11  2  0  0  0  0
M  END
>  <CHROM.1>
37.18915959,-9.83825801,-37.00991950,-0.57324591,-0.63389540,-0.49551060

>  <Name>
ligand

>  <RI>
0

>  <Rbt.Current_Directory>
/home/itssahil/PROJECTS/Mol_Feturizer/New_Systems/rnas/3RKF

>  <Rbt.Executable>
rbdock ($Id: //depot/dev/client3/rdock/2013.1/src/exe/rbdock.cxx#4 $)

>  <Rbt.Library>
libRbt.so (2013.1, Build901 2013/11/27)

>  <Rbt.Parameter_File>
/export/apps/rDock/src/rDock_2013.1_src/data/scripts/dock_solv.prm

>  <Rbt.Receptor>
prm/blind_docking_80.prm

>  <SCORE>
-13.451

>  <SCORE.INTER>
-13.451

>  <SCORE.INTER.CONST>
1

>  <SCORE.INTER.POLAR>
0

>  <SCORE.INTER.ROT>
0

>  <SCORE.INTER.SOLV>
15.1309

>  <SCORE.INTER.VDW>
-17.611

>  <SCORE.INTER.norm>
-1.22282

>  <SCORE.INTRA>
0

>  <SCORE.INTRA.DIHEDRAL>
0

>  <SCORE.INTRA.DIHEDRAL.0>
0

>  <SCORE.INTRA.POLAR>
0

>  <SCORE.INTRA.POLAR.0>
0

>  <SCORE.INTRA.REPUL>
0

>  <SCORE.INTRA.REPUL.0>
0

>  <SCORE.INTRA.SOLV>
0

>  <SCORE.INTRA.SOLV.lig_0>
-28.6198

>  <SCORE.INTRA.VDW>
0

>  <SCORE.INTRA.VDW.0>
0

>  <SCORE.INTRA.norm>
0

>  <SCORE.RESTR>
0

>  <SCORE.RESTR.CAVITY>
0

>  <SCORE.RESTR.norm>
0

>  <SCORE.SYSTEM>
0

>  <SCORE.SYSTEM.CONST>
0

>  <SCORE.SYSTEM.DIHEDRAL>
0

>  <SCORE.SYSTEM.SOLV>
0

>  <SCORE.SYSTEM.norm>
0

>  <SCORE.heavy>
11

>  <SCORE.norm>
-1.22282

>  <RMSD>
2.922

$$$$
ligand
 OpenBabel11021811483D
libRbt.so/2013.1/901 2013/11/27
 11 12  0  0  0  0  0  0  0  0999 V2000
   36.6423   -8.7745  -37.9341 N   0  0  0  0  0  0  0  0  0  0  0  0
   35.5550   -9.4324  -38.3634 C   0  0  0  0  0  0  0  0  0  0  0  0
   34.6794   -8.7951  -39.2949 N   0  0  0  0  0  0  0  0  0  0  0  0
   35.2762  -10.6689  -37.9376 N   0  0  0  0  0  0  0  0  0  0  0  0
   36.1093  -11.3027  -37.0362 C   0  0  0  0  0  0  0  0  0  0  0  0
   37.2234  -10.6439  -36.5859 C   0  0  0  0  0  0  0  0  0  0  0  0
   37.5068   -9.3196  -37.0546 C   0  0  0  0  0  0  0  0  0  0  0  0
   38.9377   -8.4330  -36.5074 S   0  0  0  0  0  0  0  0  0  0  0  0
   37.8725  -11.4773  -35.7112 N   0  0  0  0  0  0  0  0  0  0  0  0
   37.1663  -12.6347  -35.6233 C   0  0  0  0  0  0  0  0  0  0  0  0
   36.0741  -12.5476  -36.4337 N   0  0  0  0  0  0  0  0  0  0  0  0
  1  2  2  0  0  0  0
  1  7  1  0  0  0  0
  2  3  1  0  0  0  0
  2  4  1  0  0  0  0
  4  5  2  0  0  0  0
  5  6  1  0  0  0  0
  5 11  1  0  0  0  0
  6  7  2  0  0  0  0
  6  9  1  0  0  0  0
  7  8  1  0  0  0  0
  9 10  1  0  0  0  0
 10 11  2  0  0  0  0
M  END
>  <CHROM.1>
36.90427728,-10.12208825,-37.07381047,1.47725385,-0.55756019,-0.46685151

>  <Name>
ligand

>  <RI>
0

>  <Rbt.Current_Directory>
/home/itssahil/PROJECTS/Mol_Feturizer/New_Systems/rnas/3RKF

>  <Rbt.Executable>
rbdock ($Id: //depot/dev/client3/rdock/2013.1/src/exe/rbdock.cxx#4 $)

>  <Rbt.Library>
libRbt.so (2013.1, Build901 2013/11/27)

>  <Rbt.Parameter_File>
/export/apps/rDock/src/rDock_2013.1_src/data/scripts/dock_solv.prm

>  <Rbt.Receptor>
prm/blind_docking_80.prm

>  <SCORE>
-15.7613

>  <SCORE.INTER>
-15.7613

>  <SCORE.INTER.CONST>
1

>  <SCORE.INTER.POLAR>
0

>  <SCORE.INTER.ROT>
0

>  <SCORE.INTER.SOLV>
11.2676

>  <SCORE.INTER.VDW>
-17.8634

>  <SCORE.INTER.norm>
-1.43285

>  <SCORE.INTRA>
0

>  <SCORE.INTRA.DIHEDRAL>
0

>  <SCORE.INTRA.DIHEDRAL.0>
0

>  <SCORE.INTRA.POLAR>
0

>  <SCORE.INTRA.POLAR.0>
0

>  <SCORE.INTRA.REPUL>
0

>  <SCORE.INTRA.REPUL.0>
0

>  <SCORE.INTRA.SOLV>
0

>  <SCORE.INTRA.SOLV.lig_0>
-28.6198

>  <SCORE.INTRA.VDW>
0

>  <SCORE.INTRA.VDW.0>
0

>  <SCORE.INTRA.norm>
0

>  <SCORE.RESTR>
0

>  <SCORE.RESTR.CAVITY>
0

>  <SCORE.RESTR.norm>
0

>  <SCORE.SYSTEM>
0

>  <SCORE.SYSTEM.CONST>
0

>  <SCORE.SYSTEM.DIHEDRAL>
0

>  <SCORE.SYSTEM.SOLV>
0

>  <SCORE.SYSTEM.norm>
0

>  <SCORE.heavy>
11

>  <SCORE.norm>
-1.43285

>  <RMSD>
2.922

$$$$
ligand
 OpenBabel11021811483D
libRbt.so/2013.1/901 2013/11/27
 11 12  0  0  0  0  0  0  0  0999 V2000
   36.6653   -8.7892  -37.9476 N   0  0  0  0  0  0  0  0  0  0  0  0
   35.5662   -9.4352  -38.3648 C   0  0  0  0  0  0  0  0  0  0  0  0
   34.6906   -8.7909  -39.2913 N   0  0  0  0  0  0  0  0  0  0  0  0
   35.2758  -10.6664  -37.9314 N   0  0  0  0  0  0  0  0  0  0  0  0
   36.1087  -11.3069  -37.0347 C   0  0  0  0  0  0  0  0  0  0  0  0
   37.2349  -10.6602  -36.5966 C   0  0  0  0  0  0  0  0  0  0  0  0
   37.5306   -9.3414  -37.0733 C   0  0  0  0  0  0  0  0  0  0  0  0
   38.9770   -8.4705  -36.5421 S   0  0  0  0  0  0  0  0  0  0  0  0
   37.8811  -11.4981  -35.7241 N   0  0  0  0  0  0  0  0  0  0  0  0
   37.1614  -12.6462  -35.6253 C   0  0  0  0  0  0  0  0  0  0  0  0
   36.0634  -12.5488  -36.4267 N   0  0  0  0  0  0  0  0  0  0  0  0
  1  2  2  0  0  0  0
  1  7  1  0  0  0  0
  2  3  1  0  0  0  0
  2  4  1  0  0  0  0
  4  5  2  0  0  0  0
  5  6  1  0  0  0  0
  5 11  1  0  0  0  0
  6  7  2  0  0  0  0
  6  9  1  0  0  0  0
  7  8  1  0  0  0  0
  9 10  1  0  0  0  0
 10 11  2  0  0  0  0
M  END
>  <CHROM.1>
36.91797791,-10.13644110,-37.08397634,1.46885288,-0.54423027,-0.47534901

>  <Name>
ligand

>  <RI>
0

>  <Rbt.Current_Directory>
/home/itssahil/PROJECTS/Mol_Feturizer/New_Systems/rnas/3RKF

>  <Rbt.Executable>
rbdock ($Id: //depot/dev/client3/rdock/2013.1/src/exe/rbdock.cxx#4 $)

>  <Rbt.Library>
libRbt.so (2013.1, Build901 2013/11/27)

>  <Rbt.Parameter_File>
/export/apps/rDock/src/rDock_2013.1_src/data/scripts/dock_solv.prm

>  <Rbt.Receptor>
prm/pocket_docking_4.prm

>  <SCORE>
-15.7397

>  <SCORE.INTER>
-15.7397

>  <SCORE.INTER.CONST>
1

>  <SCORE.INTER.POLAR>
0

>  <SCORE.INTER.ROT>
0

>  <SCORE.INTER.SOLV>
11.2979

>  <SCORE.INTER.VDW>
-17.8591

>  <SCORE.INTER.norm>
-1.43089

>  <SCORE.INTRA>
0

>  <SCORE.INTRA.DIHEDRAL>
0

>  <SCORE.INTRA.DIHEDRAL.0>
0

>  <SCORE.INTRA.POLAR>
0

>  <SCORE.INTRA.POLAR.0>
0

>  <SCORE.INTRA.REPUL>
0

>  <SCORE.INTRA.REPUL.0>
0

>  <SCORE.INTRA.SOLV>
0

>  <SCORE.INTRA.SOLV.lig_0>
-28.6198

>  <SCORE.INTRA.VDW>
0

>  <SCORE.INTRA.VDW.0>
0

>  <SCORE.INTRA.norm>
0

>  <SCORE.RESTR>
0

>  <SCORE.RESTR.CAVITY>
0

>  <SCORE.RESTR.norm>
0

>  <SCORE.SYSTEM>
0

>  <SCORE.SYSTEM.CONST>
0

>  <SCORE.SYSTEM.DIHEDRAL>
0

>  <SCORE.SYSTEM.SOLV>
0

>  <SCORE.SYSTEM.norm>
0

>  <SCORE.heavy>
11

>  <SCORE.norm>
-1.43089

>  <RMSD>
2.922

$$$$
ligand
 OpenBabel11021811483D
libRbt.so/2013.1/901 2013/11/27
 11 12  0  0  0  0  0  0  0  0999 V2000
   36.6709   -8.7918  -37.9308 N   0  0  0  0  0  0  0  0  0  0  0  0
   35.5742   -9.4386  -38.3531 C   0  0  0  0  0  0  0  0  0  0  0  0
   34.7015   -8.7942  -39.2823 N   0  0  0  0  0  0  0  0  0  0  0  0
   35.2837  -10.6708  -37.9224 N   0  0  0  0  0  0  0  0  0  0  0  0
   36.1139  -11.3113  -37.0232 C   0  0  0  0  0  0  0  0  0  0  0  0
   37.2375  -10.6638  -36.5800 C   0  0  0  0  0  0  0  0  0  0  0  0
   37.5334   -9.3440  -37.0538 C   0  0  0  0  0  0  0  0  0  0  0  0
   38.9767   -8.4720  -36.5159 S   0  0  0  0  0  0  0  0  0  0  0  0
   37.8813  -11.5020  -35.7060 N   0  0  0  0  0  0  0  0  0  0  0  0
   37.1626  -12.6511  -35.6115 C   0  0  0  0  0  0  0  0  0  0  0  0
   36.0677  -12.5540  -36.4170 N   0  0  0  0  0  0  0  0  0  0  0  0
  1  2  2  0  0  0  0
  1  7  1  0  0  0  0
  2  3  1  0  0  0  0
  2  4  1  0  0  0  0
  4  5  2  0  0  0  0
  5  6  1  0  0  0  0
  5 11  1  0  0  0  0
  6  7  2  0  0  0  0
  6  9  1  0  0  0  0
  7  8  1  0  0  0  0
  9 10  1  0  0  0  0
 10 11  2  0  0  0  0
M  END
>  <CHROM.1>
36.92184350,-10.13981084,-37.06792332,1.46804573,-0.54827462,-0.47451359

>  <Name>
ligand

>  <RI>
0

>  <Rbt.Current_Directory>
/home/itssahil/PROJECTS/Mol_Feturizer/New_Systems/rnas/3RKF

>  <Rbt.Executable>
rbdock ($Id: //depot/dev/client3/rdock/2013.1/src/exe/rbdock.cxx#4 $)

>  <Rbt.Library>
libRbt.so (2013.1, Build901 2013/11/27)

>  <Rbt.Parameter_File>
/export/apps/rDock/src/rDock_2013.1_src/data/scripts/dock_solv.prm

>  <Rbt.Receptor>
prm/pocket_docking_7.prm

>  <SCORE>
-15.8133

>  <SCORE.INTER>
-15.8133

>  <SCORE.INTER.CONST>
1

>  <SCORE.INTER.POLAR>
0

>  <SCORE.INTER.ROT>
0

>  <SCORE.INTER.SOLV>
11.2949

>  <SCORE.INTER.VDW>
-17.9071

>  <SCORE.INTER.norm>
-1.43757

>  <SCORE.INTRA>
0

>  <SCORE.INTRA.DIHEDRAL>
0

>  <SCORE.INTRA.DIHEDRAL.0>
0

>  <SCORE.INTRA.POLAR>
0

>  <SCORE.INTRA.POLAR.0>
0

>  <SCORE.INTRA.REPUL>
0

>  <SCORE.INTRA.REPUL.0>
0

>  <SCORE.INTRA.SOLV>
0

>  <SCORE.INTRA.SOLV.lig_0>
-28.6198

>  <SCORE.INTRA.VDW>
0

>  <SCORE.INTRA.VDW.0>
0

>  <SCORE.INTRA.norm>
0

>  <SCORE.RESTR>
0

>  <SCORE.RESTR.CAVITY>
0

>  <SCORE.RESTR.norm>
0

>  <SCORE.SYSTEM>
0

>  <SCORE.SYSTEM.CONST>
0

>  <SCORE.SYSTEM.DIHEDRAL>
0

>  <SCORE.SYSTEM.SOLV>
0

>  <SCORE.SYSTEM.norm>
0

>  <SCORE.heavy>
11

>  <SCORE.norm>
-1.43757

>  <RMSD>
2.924

$$$$
ligand
 OpenBabel11021811483D
libRbt.so/2013.1/901 2013/11/27
 11 12  0  0  0  0  0  0  0  0999 V2000
   38.5786   -9.6964  -36.0149 N   0  0  0  0  0  0  0  0  0  0  0  0
   38.8134   -8.4741  -36.5151 C   0  0  0  0  0  0  0  0  0  0  0  0
   39.9257   -7.7240  -36.0246 N   0  0  0  0  0  0  0  0  0  0  0  0
   38.0289   -7.9465  -37.4607 N   0  0  0  0  0  0  0  0  0  0  0  0
   36.9477   -8.6547  -37.9480 C   0  0  0  0  0  0  0  0  0  0  0  0
   36.6924   -9.9043  -37.4463 C   0  0  0  0  0  0  0  0  0  0  0  0
   37.5450  -10.4540  -36.4341 C   0  0  0  0  0  0  0  0  0  0  0  0
   37.2594  -12.0664  -35.7621 S   0  0  0  0  0  0  0  0  0  0  0  0
   35.5795  -10.3880  -38.0853 N   0  0  0  0  0  0  0  0  0  0  0  0
   35.1541   -9.4477  -38.9689 C   0  0  0  0  0  0  0  0  0  0  0  0
   35.9853   -8.3698  -38.9001 N   0  0  0  0  0  0  0  0  0  0  0  0
  1  2  2  0  0  0  0
  1  7  1  0  0  0  0
  2  3  1  0  0  0  0
  2  4  1  0  0  0  0
  4  5  2  0  0  0  0
  5  6  1  0  0  0  0
  5 11  1  0  0  0  0
  6  7  2  0  0  0  0
  6  9  1  0  0  0  0
  7  8  1  0  0  0  0
  9 10  1  0  0  0  0
 10 11  2  0  0  0  0
M  END
>  <CHROM.1>
37.32977620,-9.68877382,-37.04685632,-0.60804989,-0.62067566,-0.51475047

>  <Name>
ligand

>  <RI>
0

>  <Rbt.Current_Directory>
/home/itssahil/PROJECTS/Mol_Feturizer/New_Systems/rnas/3RKF

>  <Rbt.Executable>
rbdock ($Id: //depot/dev/client3/rdock/2013.1/src/exe/rbdock.cxx#4 $)

>  <Rbt.Library>
libRbt.so (2013.1, Build901 2013/11/27)

>  <Rbt.Parameter_File>
/export/apps/rDock/src/rDock_2013.1_src/data/scripts/dock_solv.prm

>  <Rbt.Receptor>
prm/pocket_docking_7.prm

>  <SCORE>
-13.3877

>  <SCORE.INTER>
-13.3877

>  <SCORE.INTER.CONST>
1

>  <SCORE.INTER.POLAR>
0

>  <SCORE.INTER.ROT>
0

>  <SCORE.INTER.SOLV>
15.5674

>  <SCORE.INTER.VDW>
-17.7143

>  <SCORE.INTER.norm>
-1.21706

>  <SCORE.INTRA>
0

>  <SCORE.INTRA.DIHEDRAL>
0

>  <SCORE.INTRA.DIHEDRAL.0>
0

>  <SCORE.INTRA.POLAR>
0

>  <SCORE.INTRA.POLAR.0>
0

>  <SCORE.INTRA.REPUL>
0

>  <SCORE.INTRA.REPUL.0>
0

>  <SCORE.INTRA.SOLV>
0

>  <SCORE.INTRA.SOLV.lig_0>
-28.6198

>  <SCORE.INTRA.VDW>
0

>  <SCORE.INTRA.VDW.0>
0

>  <SCORE.INTRA.norm>
0

>  <SCORE.RESTR>
0

>  <SCORE.RESTR.CAVITY>
0

>  <SCORE.RESTR.norm>
0

>  <SCORE.SYSTEM>
0

>  <SCORE.SYSTEM.CONST>
0

>  <SCORE.SYSTEM.DIHEDRAL>
0

>  <SCORE.SYSTEM.SOLV>
0

>  <SCORE.SYSTEM.norm>
0

>  <SCORE.heavy>
11

>  <SCORE.norm>
-1.21706

>  <RMSD>
2.983

$$$$
ligand
 OpenBabel11021811483D
libRbt.so/2013.1/901 2013/11/27
 11 12  0  0  0  0  0  0  0  0999 V2000
   38.6882   -9.6262  -36.0752 N   0  0  0  0  0  0  0  0  0  0  0  0
   38.8954   -8.3921  -36.5585 C   0  0  0  0  0  0  0  0  0  0  0  0
   40.0084   -7.6356  -36.0797 N   0  0  0  0  0  0  0  0  0  0  0  0
   38.0827   -7.8586  -37.4767 N   0  0  0  0  0  0  0  0  0  0  0  0
   37.0003   -8.5729  -37.9522 C   0  0  0  0  0  0  0  0  0  0  0  0
   36.7730   -9.8344  -37.4676 C   0  0  0  0  0  0  0  0  0  0  0  0
   37.6556  -10.3903  -36.4848 C   0  0  0  0  0  0  0  0  0  0  0  0
   37.4067  -12.0181  -35.8357 S   0  0  0  0  0  0  0  0  0  0  0  0
   35.6524  -10.3220  -38.0901 N   0  0  0  0  0  0  0  0  0  0  0  0
   35.1947   -9.3721  -38.9468 C   0  0  0  0  0  0  0  0  0  0  0  0
   36.0128   -8.2844  -38.8773 N   0  0  0  0  0  0  0  0  0  0  0  0
  1  2  2  0  0  0  0
  1  7  1  0  0  0  0
  2  3  1  0  0  0  0
  2  4  1  0  0  0  0
  4  5  2  0  0  0  0
  5  6  1  0  0  0  0
  5 11  1  0  0  0  0
  6  7  2  0  0  0  0
  6  9  1  0  0  0  0
  7  8  1  0  0  0  0
  9 10  1  0  0  0  0
 10 11  2  0  0  0  0
M  END
>  <CHROM.1>
37.41633670,-9.61736531,-37.07869851,-0.58037631,-0.60731806,-0.48093553

>  <Name>
ligand

>  <RI>
0

>  <Rbt.Current_Directory>
/home/itssahil/PROJECTS/Mol_Feturizer/New_Systems/rnas/3RKF

>  <Rbt.Executable>
rbdock ($Id: //depot/dev/client3/rdock/2013.1/src/exe/rbdock.cxx#4 $)

>  <Rbt.Library>
libRbt.so (2013.1, Build901 2013/11/27)

>  <Rbt.Parameter_File>
/export/apps/rDock/src/rDock_2013.1_src/data/scripts/dock_solv.prm

>  <Rbt.Receptor>
prm/pocket_docking_7.prm

>  <SCORE>
-13.4475

>  <SCORE.INTER>
-13.4475

>  <SCORE.INTER.CONST>
1

>  <SCORE.INTER.POLAR>
0

>  <SCORE.INTER.ROT>
0

>  <SCORE.INTER.SOLV>
15.5675

>  <SCORE.INTER.VDW>
-17.7542

>  <SCORE.INTER.norm>
-1.2225

>  <SCORE.INTRA>
0

>  <SCORE.INTRA.DIHEDRAL>
0

>  <SCORE.INTRA.DIHEDRAL.0>
0

>  <SCORE.INTRA.POLAR>
0

>  <SCORE.INTRA.POLAR.0>
0

>  <SCORE.INTRA.REPUL>
0

>  <SCORE.INTRA.REPUL.0>
0

>  <SCORE.INTRA.SOLV>
0

>  <SCORE.INTRA.SOLV.lig_0>
-28.6198

>  <SCORE.INTRA.VDW>
0

>  <SCORE.INTRA.VDW.0>
0

>  <SCORE.INTRA.norm>
0

>  <SCORE.RESTR>
0

>  <SCORE.RESTR.CAVITY>
0

>  <SCORE.RESTR.norm>
0

>  <SCORE.SYSTEM>
0

>  <SCORE.SYSTEM.CONST>
0

>  <SCORE.SYSTEM.DIHEDRAL>
0

>  <SCORE.SYSTEM.SOLV>
0

>  <SCORE.SYSTEM.norm>
0

>  <SCORE.heavy>
11

>  <SCORE.norm>
-1.2225

>  <RMSD>
3.015

$$$$
ligand
 OpenBabel11021811483D
libRbt.so/2013.1/901 2013/11/27
 11 12  0  0  0  0  0  0  0  0999 V2000
   34.9625   -9.9630  -38.6325 N   0  0  0  0  0  0  0  0  0  0  0  0
   35.2469   -8.6968  -38.9718 C   0  0  0  0  0  0  0  0  0  0  0  0
   34.3140   -7.9638  -39.7673 N   0  0  0  0  0  0  0  0  0  0  0  0
   36.3830   -8.1098  -38.5809 N   0  0  0  0  0  0  0  0  0  0  0  0
   37.2989   -8.8011  -37.8121 C   0  0  0  0  0  0  0  0  0  0  0  0
   37.0249  -10.0965  -37.4583 C   0  0  0  0  0  0  0  0  0  0  0  0
   35.8015  -10.7086  -37.8853 C   0  0  0  0  0  0  0  0  0  0  0  0
   35.4008  -12.3758  -37.4463 S   0  0  0  0  0  0  0  0  0  0  0  0
   38.0782  -10.5529  -36.7079 N   0  0  0  0  0  0  0  0  0  0  0  0
   38.9901   -9.5513  -36.6016 C   0  0  0  0  0  0  0  0  0  0  0  0
   38.5281   -8.4609  -37.2761 N   0  0  0  0  0  0  0  0  0  0  0  0
  1  2  2  0  0  0  0
  1  7  1  0  0  0  0
  2  3  1  0  0  0  0
  2  4  1  0  0  0  0
  4  5  2  0  0  0  0
  5  6  1  0  0  0  0
  5 11  1  0  0  0  0
  6  7  2  0  0  0  0
  6  9  1  0  0  0  0
  7  8  1  0  0  0  0
  9 10  1  0  0  0  0
 10 11  2  0  0  0  0
M  END
>  <CHROM.1>
36.39422133,-9.89863028,-37.87703622,2.99019036,0.46899164,2.76858657

>  <Name>
ligand

>  <RI>
0

>  <Rbt.Current_Directory>
/home/itssahil/PROJECTS/Mol_Feturizer/New_Systems/rnas/3RKF

>  <Rbt.Executable>
rbdock ($Id: //depot/dev/client3/rdock/2013.1/src/exe/rbdock.cxx#4 $)

>  <Rbt.Library>
libRbt.so (2013.1, Build901 2013/11/27)

>  <Rbt.Parameter_File>
/export/apps/rDock/src/rDock_2013.1_src/data/scripts/dock_solv.prm

>  <Rbt.Receptor>
prm/pocket_docking_5.prm

>  <SCORE>
-16.4725

>  <SCORE.INTER>
-16.4725

>  <SCORE.INTER.CONST>
1

>  <SCORE.INTER.POLAR>
0

>  <SCORE.INTER.ROT>
0

>  <SCORE.INTER.SOLV>
10.6761

>  <SCORE.INTER.VDW>
-18.1404

>  <SCORE.INTER.norm>
-1.4975

>  <SCORE.INTRA>
0

>  <SCORE.INTRA.DIHEDRAL>
0

>  <SCORE.INTRA.DIHEDRAL.0>
0

>  <SCORE.INTRA.POLAR>
0

>  <SCORE.INTRA.POLAR.0>
0

>  <SCORE.INTRA.REPUL>
0

>  <SCORE.INTRA.REPUL.0>
0

>  <SCORE.INTRA.SOLV>
0

>  <SCORE.INTRA.SOLV.lig_0>
-28.6198

>  <SCORE.INTRA.VDW>
0

>  <SCORE.INTRA.VDW.0>
0

>  <SCORE.INTRA.norm>
0

>  <SCORE.RESTR>
0

>  <SCORE.RESTR.CAVITY>
0

>  <SCORE.RESTR.norm>
0

>  <SCORE.SYSTEM>
0

>  <SCORE.SYSTEM.CONST>
0

>  <SCORE.SYSTEM.DIHEDRAL>
0

>  <SCORE.SYSTEM.SOLV>
0

>  <SCORE.SYSTEM.norm>
0

>  <SCORE.heavy>
11

>  <SCORE.norm>
-1.4975

>  <RMSD>
3.416

$$$$
ligand
 OpenBabel11021811483D
libRbt.so/2013.1/901 2013/11/27
 11 12  0  0  0  0  0  0  0  0999 V2000
   34.9637   -9.9268  -38.6718 N   0  0  0  0  0  0  0  0  0  0  0  0
   35.2453   -8.6589  -39.0076 C   0  0  0  0  0  0  0  0  0  0  0  0
   34.3151   -7.9289  -39.8089 N   0  0  0  0  0  0  0  0  0  0  0  0
   36.3760   -8.0677  -38.6078 N   0  0  0  0  0  0  0  0  0  0  0  0
   37.2893   -8.7562  -37.8332 C   0  0  0  0  0  0  0  0  0  0  0  0
   37.0181  -10.0531  -37.4829 C   0  0  0  0  0  0  0  0  0  0  0  0
   35.8004  -10.6697  -37.9195 C   0  0  0  0  0  0  0  0  0  0  0  0
   35.4035  -12.3391  -37.4853 S   0  0  0  0  0  0  0  0  0  0  0  0
   38.0679  -10.5060  -36.7254 N   0  0  0  0  0  0  0  0  0  0  0  0
   38.9747   -9.5007  -36.6113 C   0  0  0  0  0  0  0  0  0  0  0  0
   38.5131   -8.4115  -37.2878 N   0  0  0  0  0  0  0  0  0  0  0  0
  1  2  2  0  0  0  0
  1  7  1  0  0  0  0
  2  3  1  0  0  0  0
  2  4  1  0  0  0  0
  4  5  2  0  0  0  0
  5  6  1  0  0  0  0
  5 11  1  0  0  0  0
  6  7  2  0  0  0  0
  6  9  1  0  0  0  0
  7  8  1  0  0  0  0
  9 10  1  0  0  0  0
 10 11  2  0  0  0  0
M  END
>  <CHROM.1>
36.38963953,-9.85734289,-37.90592687,2.98877628,0.47726188,2.77042108

>  <Name>
ligand

>  <RI>
0

>  <Rbt.Current_Directory>
/home/itssahil/PROJECTS/Mol_Feturizer/New_Systems/rnas/3RKF

>  <Rbt.Executable>
rbdock ($Id: //depot/dev/client3/rdock/2013.1/src/exe/rbdock.cxx#4 $)

>  <Rbt.Library>
libRbt.so (2013.1, Build901 2013/11/27)

>  <Rbt.Parameter_File>
/export/apps/rDock/src/rDock_2013.1_src/data/scripts/dock_solv.prm

>  <Rbt.Receptor>
prm/pocket_docking_4.prm

>  <SCORE>
-16.5064

>  <SCORE.INTER>
-16.5064

>  <SCORE.INTER.CONST>
1

>  <SCORE.INTER.POLAR>
0

>  <SCORE.INTER.ROT>
0

>  <SCORE.INTER.SOLV>
10.7153

>  <SCORE.INTER.VDW>
-18.1761

>  <SCORE.INTER.norm>
-1.50058

>  <SCORE.INTRA>
0

>  <SCORE.INTRA.DIHEDRAL>
0

>  <SCORE.INTRA.DIHEDRAL.0>
0

>  <SCORE.INTRA.POLAR>
0

>  <SCORE.INTRA.POLAR.0>
0

>  <SCORE.INTRA.REPUL>
0

>  <SCORE.INTRA.REPUL.0>
0

>  <SCORE.INTRA.SOLV>
0

>  <SCORE.INTRA.SOLV.lig_0>
-28.6198

>  <SCORE.INTRA.VDW>
0

>  <SCORE.INTRA.VDW.0>
0

>  <SCORE.INTRA.norm>
0

>  <SCORE.RESTR>
0

>  <SCORE.RESTR.CAVITY>
0

>  <SCORE.RESTR.norm>
0

>  <SCORE.SYSTEM>
0

>  <SCORE.SYSTEM.CONST>
0

>  <SCORE.SYSTEM.DIHEDRAL>
0

>  <SCORE.SYSTEM.SOLV>
0

>  <SCORE.SYSTEM.norm>
0

>  <SCORE.heavy>
11

>  <SCORE.norm>
-1.50058

>  <RMSD>
3.426

$$$$
ligand
 OpenBabel11021811483D
libRbt.so/2013.1/901 2013/11/27
 11 12  0  0  0  0  0  0  0  0999 V2000
   34.9364   -9.9897  -38.6233 N   0  0  0  0  0  0  0  0  0  0  0  0
   35.2097   -8.7218  -38.9656 C   0  0  0  0  0  0  0  0  0  0  0  0
   34.2692   -7.9980  -39.7605 N   0  0  0  0  0  0  0  0  0  0  0  0
   36.3417   -8.1248  -38.5781 N   0  0  0  0  0  0  0  0  0  0  0  0
   37.2648   -8.8071  -37.8099 C   0  0  0  0  0  0  0  0  0  0  0  0
   37.0022  -10.1040  -37.4531 C   0  0  0  0  0  0  0  0  0  0  0  0
   35.7829  -10.7269  -37.8764 C   0  0  0  0  0  0  0  0  0  0  0  0
   35.3969  -12.3965  -37.4334 S   0  0  0  0  0  0  0  0  0  0  0  0
   38.0607  -10.5504  -36.7039 N   0  0  0  0  0  0  0  0  0  0  0  0
   38.9645   -9.5411  -36.6014 C   0  0  0  0  0  0  0  0  0  0  0  0
   38.4923   -8.4558  -37.2769 N   0  0  0  0  0  0  0  0  0  0  0  0
  1  2  2  0  0  0  0
  1  7  1  0  0  0  0
  2  3  1  0  0  0  0
  2  4  1  0  0  0  0
  4  5  2  0  0  0  0
  5  6  1  0  0  0  0
  5 11  1  0  0  0  0
  6  7  2  0  0  0  0
  6  9  1  0  0  0  0
  7  8  1  0  0  0  0
  9 10  1  0  0  0  0
 10 11  2  0  0  0  0
M  END
>  <CHROM.1>
36.36904124,-9.91213863,-37.87087756,2.98079923,0.47009847,2.77095002

>  <Name>
ligand

>  <RI>
0

>  <Rbt.Current_Directory>
/home/itssahil/PROJECTS/Mol_Feturizer/New_Systems/rnas/3RKF

>  <Rbt.Executable>
rbdock ($Id: //depot/dev/client3/rdock/2013.1/src/exe/rbdock.cxx#4 $)

>  <Rbt.Library>
libRbt.so (2013.1, Build901 2013/11/27)

>  <Rbt.Parameter_File>
/export/apps/rDock/src/rDock_2013.1_src/data/scripts/dock_solv.prm

>  <Rbt.Receptor>
prm/pocket_docking_4.prm

>  <SCORE>
-16.4577

>  <SCORE.INTER>
-16.4577

>  <SCORE.INTER.CONST>
1

>  <SCORE.INTER.POLAR>
0

>  <SCORE.INTER.ROT>
0

>  <SCORE.INTER.SOLV>
10.5715

>  <SCORE.INTER.VDW>
-18.0956

>  <SCORE.INTER.norm>
-1.49615

>  <SCORE.INTRA>
0

>  <SCORE.INTRA.DIHEDRAL>
0

>  <SCORE.INTRA.DIHEDRAL.0>
0

>  <SCORE.INTRA.POLAR>
0

>  <SCORE.INTRA.POLAR.0>
0

>  <SCORE.INTRA.REPUL>
0

>  <SCORE.INTRA.REPUL.0>
0

>  <SCORE.INTRA.SOLV>
0

>  <SCORE.INTRA.SOLV.lig_0>
-28.6198

>  <SCORE.INTRA.VDW>
0

>  <SCORE.INTRA.VDW.0>
0

>  <SCORE.INTRA.norm>
0

>  <SCORE.RESTR>
0

>  <SCORE.RESTR.CAVITY>
0

>  <SCORE.RESTR.norm>
0

>  <SCORE.SYSTEM>
0

>  <SCORE.SYSTEM.CONST>
0

>  <SCORE.SYSTEM.DIHEDRAL>
0

>  <SCORE.SYSTEM.SOLV>
0

>  <SCORE.SYSTEM.norm>
0

>  <SCORE.heavy>
11

>  <SCORE.norm>
-1.49615

>  <RMSD>
3.426

$$$$
ligand
 OpenBabel11021811483D
libRbt.so/2013.1/901 2013/11/27
 11 12  0  0  0  0  0  0  0  0999 V2000
   34.9305   -9.9771  -38.6429 N   0  0  0  0  0  0  0  0  0  0  0  0
   35.2067   -8.7100  -38.9857 C   0  0  0  0  0  0  0  0  0  0  0  0
   34.2694   -7.9856  -39.7838 N   0  0  0  0  0  0  0  0  0  0  0  0
   36.3385   -8.1143  -38.5958 N   0  0  0  0  0  0  0  0  0  0  0  0
   37.2586   -8.7974  -37.8245 C   0  0  0  0  0  0  0  0  0  0  0  0
   36.9930  -10.0935  -37.4671 C   0  0  0  0  0  0  0  0  0  0  0  0
   35.7739  -10.7149  -37.8930 C   0  0  0  0  0  0  0  0  0  0  0  0
   35.3841  -12.3835  -37.4494 S   0  0  0  0  0  0  0  0  0  0  0  0
   38.0488  -10.5407  -36.7147 N   0  0  0  0  0  0  0  0  0  0  0  0
   38.9539   -9.5328  -36.6108 C   0  0  0  0  0  0  0  0  0  0  0  0
   38.4852   -8.4474  -37.2887 N   0  0  0  0  0  0  0  0  0  0  0  0
  1  2  2  0  0  0  0
  1  7  1  0  0  0  0
  2  3  1  0  0  0  0
  2  4  1  0  0  0  0
  4  5  2  0  0  0  0
  5  6  1  0  0  0  0
  5 11  1  0  0  0  0
  6  7  2  0  0  0  0
  6  9  1  0  0  0  0
  7  8  1  0  0  0  0
  9 10  1  0  0  0  0
 10 11  2  0  0  0  0
M  END
>  <CHROM.1>
36.36123849,-9.90104044,-37.88674241,2.98349806,0.47198592,2.76871467

>  <Name>
ligand

>  <RI>
0

>  <Rbt.Current_Directory>
/home/itssahil/PROJECTS/Mol_Feturizer/New_Systems/rnas/3RKF

>  <Rbt.Executable>
rbdock ($Id: //depot/dev/client3/rdock/2013.1/src/exe/rbdock.cxx#4 $)

>  <Rbt.Library>
libRbt.so (2013.1, Build901 2013/11/27)

>  <Rbt.Parameter_File>
/export/apps/rDock/src/rDock_2013.1_src/data/scripts/dock_solv.prm

>  <Rbt.Receptor>
prm/pocket_docking_4.prm

>  <SCORE>
-16.4699

>  <SCORE.INTER>
-16.4699

>  <SCORE.INTER.CONST>
1

>  <SCORE.INTER.POLAR>
0

>  <SCORE.INTER.ROT>
0

>  <SCORE.INTER.SOLV>
10.6102

>  <SCORE.INTER.VDW>
-18.1167

>  <SCORE.INTER.norm>
-1.49727

>  <SCORE.INTRA>
0

>  <SCORE.INTRA.DIHEDRAL>
0

>  <SCORE.INTRA.DIHEDRAL.0>
0

>  <SCORE.INTRA.POLAR>
0

>  <SCORE.INTRA.POLAR.0>
0

>  <SCORE.INTRA.REPUL>
0

>  <SCORE.INTRA.REPUL.0>
0

>  <SCORE.INTRA.SOLV>
0

>  <SCORE.INTRA.SOLV.lig_0>
-28.6198

>  <SCORE.INTRA.VDW>
0

>  <SCORE.INTRA.VDW.0>
0

>  <SCORE.INTRA.norm>
0

>  <SCORE.RESTR>
0

>  <SCORE.RESTR.CAVITY>
0

>  <SCORE.RESTR.norm>
0

>  <SCORE.SYSTEM>
0

>  <SCORE.SYSTEM.CONST>
0

>  <SCORE.SYSTEM.DIHEDRAL>
0

>  <SCORE.SYSTEM.SOLV>
0

>  <SCORE.SYSTEM.norm>
0

>  <SCORE.heavy>
11

>  <SCORE.norm>
-1.49727

>  <RMSD>
3.427

$$$$
ligand
 OpenBabel11021811483D
libRbt.so/2013.1/901 2013/11/27
 11 12  0  0  0  0  0  0  0  0999 V2000
   35.4564  -11.1024  -37.6705 N   0  0  0  0  0  0  0  0  0  0  0  0
   36.2905  -11.8009  -36.8859 C   0  0  0  0  0  0  0  0  0  0  0  0
   35.9352  -13.1304  -36.5029 N   0  0  0  0  0  0  0  0  0  0  0  0
   37.4443  -11.2783  -36.4572 N   0  0  0  0  0  0  0  0  0  0  0  0
   37.8063   -9.9943  -36.8152 C   0  0  0  0  0  0  0  0  0  0  0  0
   36.9645   -9.2660  -37.6147 C   0  0  0  0  0  0  0  0  0  0  0  0
   35.7328   -9.8433  -38.0657 C   0  0  0  0  0  0  0  0  0  0  0  0
   34.6180   -8.9442  -39.1058 S   0  0  0  0  0  0  0  0  0  0  0  0
   37.5452   -8.0407  -37.8204 N   0  0  0  0  0  0  0  0  0  0  0  0
   38.7295   -8.0143  -37.1551 C   0  0  0  0  0  0  0  0  0  0  0  0
   38.9099   -9.2108  -36.5281 N   0  0  0  0  0  0  0  0  0  0  0  0
  1  2  2  0  0  0  0
  1  7  1  0  0  0  0
  2  3  1  0  0  0  0
  2  4  1  0  0  0  0
  4  5  2  0  0  0  0
  5  6  1  0  0  0  0
  5 11  1  0  0  0  0
  6  7  2  0  0  0  0
  6  9  1  0  0  0  0
  7  8  1  0  0  0  0
  9 10  1  0  0  0  0
 10 11  2  0  0  0  0
M  END
>  <CHROM.1>
36.58075975,-9.94358590,-37.53810598,-2.75552181,-0.48319235,-0.41503245

>  <Name>
ligand

>  <RI>
0

>  <Rbt.Current_Directory>
/home/itssahil/PROJECTS/Mol_Feturizer/New_Systems/rnas/3RKF

>  <Rbt.Executable>
rbdock ($Id: //depot/dev/client3/rdock/2013.1/src/exe/rbdock.cxx#4 $)

>  <Rbt.Library>
libRbt.so (2013.1, Build901 2013/11/27)

>  <Rbt.Parameter_File>
/export/apps/rDock/src/rDock_2013.1_src/data/scripts/dock_solv.prm

>  <Rbt.Receptor>
prm/blind_docking_100.prm

>  <SCORE>
-12.841

>  <SCORE.INTER>
-12.841

>  <SCORE.INTER.CONST>
1

>  <SCORE.INTER.POLAR>
0

>  <SCORE.INTER.ROT>
0

>  <SCORE.INTER.SOLV>
14.8987

>  <SCORE.INTER.VDW>
-17.1269

>  <SCORE.INTER.norm>
-1.16736

>  <SCORE.INTRA>
0

>  <SCORE.INTRA.DIHEDRAL>
0

>  <SCORE.INTRA.DIHEDRAL.0>
0

>  <SCORE.INTRA.POLAR>
0

>  <SCORE.INTRA.POLAR.0>
0

>  <SCORE.INTRA.REPUL>
0

>  <SCORE.INTRA.REPUL.0>
0

>  <SCORE.INTRA.SOLV>
0

>  <SCORE.INTRA.SOLV.lig_0>
-28.6198

>  <SCORE.INTRA.VDW>
0

>  <SCORE.INTRA.VDW.0>
0

>  <SCORE.INTRA.norm>
0

>  <SCORE.RESTR>
0

>  <SCORE.RESTR.CAVITY>
0

>  <SCORE.RESTR.norm>
0

>  <SCORE.SYSTEM>
0

>  <SCORE.SYSTEM.CONST>
0

>  <SCORE.SYSTEM.DIHEDRAL>
0

>  <SCORE.SYSTEM.SOLV>
0

>  <SCORE.SYSTEM.norm>
0

>  <SCORE.heavy>
11

>  <SCORE.norm>
-1.16736

>  <RMSD>
3.429

$$$$
ligand
 OpenBabel11021811483D
libRbt.so/2013.1/901 2013/11/27
 11 12  0  0  0  0  0  0  0  0999 V2000
   34.9626   -9.9245  -38.6608 N   0  0  0  0  0  0  0  0  0  0  0  0
   35.2422   -8.6579  -39.0023 C   0  0  0  0  0  0  0  0  0  0  0  0
   34.3074   -7.9304  -39.8006 N   0  0  0  0  0  0  0  0  0  0  0  0
   36.3754   -8.0654  -38.6111 N   0  0  0  0  0  0  0  0  0  0  0  0
   37.2931   -8.7515  -37.8397 C   0  0  0  0  0  0  0  0  0  0  0  0
   37.0239  -10.0472  -37.4835 C   0  0  0  0  0  0  0  0  0  0  0  0
   35.8035  -10.6651  -37.9109 C   0  0  0  0  0  0  0  0  0  0  0  0
   35.4091  -12.3331  -37.4689 S   0  0  0  0  0  0  0  0  0  0  0  0
   38.0780  -10.4977  -36.7307 N   0  0  0  0  0  0  0  0  0  0  0  0
   38.9856   -9.4922  -36.6253 C   0  0  0  0  0  0  0  0  0  0  0  0
   38.5202   -8.4051  -37.3027 N   0  0  0  0  0  0  0  0  0  0  0  0
  1  2  2  0  0  0  0
  1  7  1  0  0  0  0
  2  3  1  0  0  0  0
  2  4  1  0  0  0  0
  4  5  2  0  0  0  0
  5  6  1  0  0  0  0
  5 11  1  0  0  0  0
  6  7  2  0  0  0  0
  6  9  1  0  0  0  0
  7  8  1  0  0  0  0
  9 10  1  0  0  0  0
 10 11  2  0  0  0  0
M  END
>  <CHROM.1>
36.39295546,-9.85277397,-37.90348118,2.98648872,0.47174094,2.76817455

>  <Name>
ligand

>  <RI>
0

>  <Rbt.Current_Directory>
/home/itssahil/PROJECTS/Mol_Feturizer/New_Systems/rnas/3RKF

>  <Rbt.Executable>
rbdock ($Id: //depot/dev/client3/rdock/2013.1/src/exe/rbdock.cxx#4 $)

>  <Rbt.Library>
libRbt.so (2013.1, Build901 2013/11/27)

>  <Rbt.Parameter_File>
/export/apps/rDock/src/rDock_2013.1_src/data/scripts/dock_solv.prm

>  <Rbt.Receptor>
prm/pocket_docking_6.prm

>  <SCORE>
-16.5064

>  <SCORE.INTER>
-16.5064

>  <SCORE.INTER.CONST>
1

>  <SCORE.INTER.POLAR>
0

>  <SCORE.INTER.ROT>
0

>  <SCORE.INTER.SOLV>
10.6731

>  <SCORE.INTER.VDW>
-18.162

>  <SCORE.INTER.norm>
-1.50058

>  <SCORE.INTRA>
0

>  <SCORE.INTRA.DIHEDRAL>
0

>  <SCORE.INTRA.DIHEDRAL.0>
0

>  <SCORE.INTRA.POLAR>
0

>  <SCORE.INTRA.POLAR.0>
0

>  <SCORE.INTRA.REPUL>
0

>  <SCORE.INTRA.REPUL.0>
0

>  <SCORE.INTRA.SOLV>
0

>  <SCORE.INTRA.SOLV.lig_0>
-28.6198

>  <SCORE.INTRA.VDW>
0

>  <SCORE.INTRA.VDW.0>
0

>  <SCORE.INTRA.norm>
0

>  <SCORE.RESTR>
0

>  <SCORE.RESTR.CAVITY>
0

>  <SCORE.RESTR.norm>
0

>  <SCORE.SYSTEM>
0

>  <SCORE.SYSTEM.CONST>
0

>  <SCORE.SYSTEM.DIHEDRAL>
0

>  <SCORE.SYSTEM.SOLV>
0

>  <SCORE.SYSTEM.norm>
0

>  <SCORE.heavy>
11

>  <SCORE.norm>
-1.50058

>  <RMSD>
3.430

$$$$
ligand
 OpenBabel11021811483D
libRbt.so/2013.1/901 2013/11/27
 11 12  0  0  0  0  0  0  0  0999 V2000
   34.9615   -9.9254  -38.6684 N   0  0  0  0  0  0  0  0  0  0  0  0
   35.2393   -8.6577  -39.0078 C   0  0  0  0  0  0  0  0  0  0  0  0
   34.3052   -7.9316  -39.8083 N   0  0  0  0  0  0  0  0  0  0  0  0
   36.3698   -8.0629  -38.6125 N   0  0  0  0  0  0  0  0  0  0  0  0
   37.2867   -8.7475  -37.8388 C   0  0  0  0  0  0  0  0  0  0  0  0
   37.0195  -10.0442  -37.4848 C   0  0  0  0  0  0  0  0  0  0  0  0
   35.8019  -10.6647  -37.9166 C   0  0  0  0  0  0  0  0  0  0  0  0
   35.4101  -12.3340  -37.4774 S   0  0  0  0  0  0  0  0  0  0  0  0
   38.0723  -10.4930  -36.7291 N   0  0  0  0  0  0  0  0  0  0  0  0
   38.9772   -9.4854  -36.6199 C   0  0  0  0  0  0  0  0  0  0  0  0
   38.5112   -8.3988  -37.2976 N   0  0  0  0  0  0  0  0  0  0  0  0
  1  2  2  0  0  0  0
  1  7  1  0  0  0  0
  2  3  1  0  0  0  0
  2  4  1  0  0  0  0
  4  5  2  0  0  0  0
  5  6  1  0  0  0  0
  5 11  1  0  0  0  0
  6  7  2  0  0  0  0
  6  9  1  0  0  0  0
  7  8  1  0  0  0  0
  9 10  1  0  0  0  0
 10 11  2  0  0  0  0
M  END
>  <CHROM.1>
36.38938559,-9.85090730,-37.90655091,2.98526852,0.47553157,2.76971116

>  <Name>
ligand

>  <RI>
0

>  <Rbt.Current_Directory>
/home/itssahil/PROJECTS/Mol_Feturizer/New_Systems/rnas/3RKF

>  <Rbt.Executable>
rbdock ($Id: //depot/dev/client3/rdock/2013.1/src/exe/rbdock.cxx#4 $)

>  <Rbt.Library>
libRbt.so (2013.1, Build901 2013/11/27)

>  <Rbt.Parameter_File>
/export/apps/rDock/src/rDock_2013.1_src/data/scripts/dock_solv.prm

>  <Rbt.Receptor>
prm/pocket_docking_4.prm

>  <SCORE>
-16.5095

>  <SCORE.INTER>
-16.5095

>  <SCORE.INTER.CONST>
1

>  <SCORE.INTER.POLAR>
0

>  <SCORE.INTER.ROT>
0

>  <SCORE.INTER.SOLV>
10.6798

>  <SCORE.INTER.VDW>
-18.1663

>  <SCORE.INTER.norm>
-1.50086

>  <SCORE.INTRA>
0

>  <SCORE.INTRA.DIHEDRAL>
0

>  <SCORE.INTRA.DIHEDRAL.0>
0

>  <SCORE.INTRA.POLAR>
0

>  <SCORE.INTRA.POLAR.0>
0

>  <SCORE.INTRA.REPUL>
0

>  <SCORE.INTRA.REPUL.0>
0

>  <SCORE.INTRA.SOLV>
0

>  <SCORE.INTRA.SOLV.lig_0>
-28.6198

>  <SCORE.INTRA.VDW>
0

>  <SCORE.INTRA.VDW.0>
0

>  <SCORE.INTRA.norm>
0

>  <SCORE.RESTR>
0

>  <SCORE.RESTR.CAVITY>
0

>  <SCORE.RESTR.norm>
0

>  <SCORE.SYSTEM>
0

>  <SCORE.SYSTEM.CONST>
0

>  <SCORE.SYSTEM.DIHEDRAL>
0

>  <SCORE.SYSTEM.SOLV>
0

>  <SCORE.SYSTEM.norm>
0

>  <SCORE.heavy>
11

>  <SCORE.norm>
-1.50086

>  <RMSD>
3.432

$$$$
ligand
 OpenBabel11021811483D
libRbt.so/2013.1/901 2013/11/27
 11 12  0  0  0  0  0  0  0  0999 V2000
   34.9653   -9.9283  -38.6648 N   0  0  0  0  0  0  0  0  0  0  0  0
   35.2420   -8.6602  -39.0035 C   0  0  0  0  0  0  0  0  0  0  0  0
   34.3062   -7.9335  -39.8013 N   0  0  0  0  0  0  0  0  0  0  0  0
   36.3732   -8.0656  -38.6097 N   0  0  0  0  0  0  0  0  0  0  0  0
   37.2918   -8.7508  -37.8386 C   0  0  0  0  0  0  0  0  0  0  0  0
   37.0256  -10.0479  -37.4854 C   0  0  0  0  0  0  0  0  0  0  0  0
   35.8073  -10.6682  -37.9155 C   0  0  0  0  0  0  0  0  0  0  0  0
   35.4167  -12.3380  -37.4774 S   0  0  0  0  0  0  0  0  0  0  0  0
   38.0800  -10.4973  -36.7323 N   0  0  0  0  0  0  0  0  0  0  0  0
   38.9848   -9.4896  -36.6238 C   0  0  0  0  0  0  0  0  0  0  0  0
   38.5173   -8.4024  -37.2995 N   0  0  0  0  0  0  0  0  0  0  0  0
  1  2  2  0  0  0  0
  1  7  1  0  0  0  0
  2  3  1  0  0  0  0
  2  4  1  0  0  0  0
  4  5  2  0  0  0  0
  5  6  1  0  0  0  0
  5 11  1  0  0  0  0
  6  7  2  0  0  0  0
  6  9  1  0  0  0  0
  7  8  1  0  0  0  0
  9 10  1  0  0  0  0
 10 11  2  0  0  0  0
M  END
>  <CHROM.1>
36.39459295,-9.85431382,-37.90575149,2.98423202,0.47377166,2.77125916

>  <Name>
ligand

>  <RI>
0

>  <Rbt.Current_Directory>
/home/itssahil/PROJECTS/Mol_Feturizer/New_Systems/rnas/3RKF

>  <Rbt.Executable>
rbdock ($Id: //depot/dev/client3/rdock/2013.1/src/exe/rbdock.cxx#4 $)

>  <Rbt.Library>
libRbt.so (2013.1, Build901 2013/11/27)

>  <Rbt.Parameter_File>
/export/apps/rDock/src/rDock_2013.1_src/data/scripts/dock_solv.prm

>  <Rbt.Receptor>
prm/pocket_docking_5.prm

>  <SCORE>
-16.5086

>  <SCORE.INTER>
-16.5086

>  <SCORE.INTER.CONST>
1

>  <SCORE.INTER.POLAR>
0

>  <SCORE.INTER.ROT>
0

>  <SCORE.INTER.SOLV>
10.6776

>  <SCORE.INTER.VDW>
-18.165

>  <SCORE.INTER.norm>
-1.50079

>  <SCORE.INTRA>
0

>  <SCORE.INTRA.DIHEDRAL>
0

>  <SCORE.INTRA.DIHEDRAL.0>
0

>  <SCORE.INTRA.POLAR>
0

>  <SCORE.INTRA.POLAR.0>
0

>  <SCORE.INTRA.REPUL>
0

>  <SCORE.INTRA.REPUL.0>
0

>  <SCORE.INTRA.SOLV>
0

>  <SCORE.INTRA.SOLV.lig_0>
-28.6198

>  <SCORE.INTRA.VDW>
0

>  <SCORE.INTRA.VDW.0>
0

>  <SCORE.INTRA.norm>
0

>  <SCORE.RESTR>
0

>  <SCORE.RESTR.CAVITY>
0

>  <SCORE.RESTR.norm>
0

>  <SCORE.SYSTEM>
0

>  <SCORE.SYSTEM.CONST>
0

>  <SCORE.SYSTEM.DIHEDRAL>
0

>  <SCORE.SYSTEM.SOLV>
0

>  <SCORE.SYSTEM.norm>
0

>  <SCORE.heavy>
11

>  <SCORE.norm>
-1.50079

>  <RMSD>
3.432

$$$$
ligand
 OpenBabel11021811483D
libRbt.so/2013.1/901 2013/11/27
 11 12  0  0  0  0  0  0  0  0999 V2000
   34.9723   -9.9380  -38.6697 N   0  0  0  0  0  0  0  0  0  0  0  0
   35.2494   -8.6712  -39.0132 C   0  0  0  0  0  0  0  0  0  0  0  0
   34.3155   -7.9486  -39.8169 N   0  0  0  0  0  0  0  0  0  0  0  0
   36.3791   -8.0743  -38.6188 N   0  0  0  0  0  0  0  0  0  0  0  0
   37.2958   -8.7556  -37.8420 C   0  0  0  0  0  0  0  0  0  0  0  0
   37.0292  -10.0513  -37.4839 C   0  0  0  0  0  0  0  0  0  0  0  0
   35.8125  -10.6741  -37.9147 C   0  0  0  0  0  0  0  0  0  0  0  0
   35.4215  -12.3422  -37.4702 S   0  0  0  0  0  0  0  0  0  0  0  0
   38.0817  -10.4968  -36.7257 N   0  0  0  0  0  0  0  0  0  0  0  0
   38.9857   -9.4882  -36.6191 C   0  0  0  0  0  0  0  0  0  0  0  0
   38.5196   -8.4041  -37.3009 N   0  0  0  0  0  0  0  0  0  0  0  0
  1  2  2  0  0  0  0
  1  7  1  0  0  0  0
  2  3  1  0  0  0  0
  2  4  1  0  0  0  0
  4  5  2  0  0  0  0
  5  6  1  0  0  0  0
  5 11  1  0  0  0  0
  6  7  2  0  0  0  0
  6  9  1  0  0  0  0
  7  8  1  0  0  0  0
  9 10  1  0  0  0  0
 10 11  2  0  0  0  0
M  END
>  <CHROM.1>
36.39936591,-9.85989573,-37.90683686,2.98487060,0.47664624,2.76650712

>  <Name>
ligand

>  <RI>
0

>  <Rbt.Current_Directory>
/home/itssahil/PROJECTS/Mol_Feturizer/New_Systems/rnas/3RKF

>  <Rbt.Executable>
rbdock ($Id: //depot/dev/client3/rdock/2013.1/src/exe/rbdock.cxx#4 $)

>  <Rbt.Library>
libRbt.so (2013.1, Build901 2013/11/27)

>  <Rbt.Parameter_File>
/export/apps/rDock/src/rDock_2013.1_src/data/scripts/dock_solv.prm

>  <Rbt.Receptor>
prm/pocket_docking_3.prm

>  <SCORE>
-16.4995

>  <SCORE.INTER>
-16.4995

>  <SCORE.INTER.CONST>
1

>  <SCORE.INTER.POLAR>
0

>  <SCORE.INTER.ROT>
0

>  <SCORE.INTER.SOLV>
10.7669

>  <SCORE.INTER.VDW>
-18.1886

>  <SCORE.INTER.norm>
-1.49996

>  <SCORE.INTRA>
0

>  <SCORE.INTRA.DIHEDRAL>
0

>  <SCORE.INTRA.DIHEDRAL.0>
0

>  <SCORE.INTRA.POLAR>
0

>  <SCORE.INTRA.POLAR.0>
0

>  <SCORE.INTRA.REPUL>
0

>  <SCORE.INTRA.REPUL.0>
0

>  <SCORE.INTRA.SOLV>
0

>  <SCORE.INTRA.SOLV.lig_0>
-28.6198

>  <SCORE.INTRA.VDW>
0

>  <SCORE.INTRA.VDW.0>
0

>  <SCORE.INTRA.norm>
0

>  <SCORE.RESTR>
0

>  <SCORE.RESTR.CAVITY>
0

>  <SCORE.RESTR.norm>
0

>  <SCORE.SYSTEM>
0

>  <SCORE.SYSTEM.CONST>
0

>  <SCORE.SYSTEM.DIHEDRAL>
0

>  <SCORE.SYSTEM.SOLV>
0

>  <SCORE.SYSTEM.norm>
0

>  <SCORE.heavy>
11

>  <SCORE.norm>
-1.49996

>  <RMSD>
3.433

$$$$
ligand
 OpenBabel11021811483D
libRbt.so/2013.1/901 2013/11/27
 11 12  0  0  0  0  0  0  0  0999 V2000
   34.9686   -9.9327  -38.6627 N   0  0  0  0  0  0  0  0  0  0  0  0
   35.2439   -8.6644  -39.0018 C   0  0  0  0  0  0  0  0  0  0  0  0
   34.3069   -7.9388  -39.7991 N   0  0  0  0  0  0  0  0  0  0  0  0
   36.3748   -8.0686  -38.6090 N   0  0  0  0  0  0  0  0  0  0  0  0
   37.2946   -8.7528  -37.8384 C   0  0  0  0  0  0  0  0  0  0  0  0
   37.0299  -10.0501  -37.4848 C   0  0  0  0  0  0  0  0  0  0  0  0
   35.8119  -10.6716  -37.9138 C   0  0  0  0  0  0  0  0  0  0  0  0
   35.4232  -12.3418  -37.4750 S   0  0  0  0  0  0  0  0  0  0  0  0
   38.0853  -10.4983  -36.7323 N   0  0  0  0  0  0  0  0  0  0  0  0
   38.9893   -9.4897  -36.6247 C   0  0  0  0  0  0  0  0  0  0  0  0
   38.5202   -8.4031  -37.3003 N   0  0  0  0  0  0  0  0  0  0  0  0
  1  2  2  0  0  0  0
  1  7  1  0  0  0  0
  2  3  1  0  0  0  0
  2  4  1  0  0  0  0
  4  5  2  0  0  0  0
  5  6  1  0  0  0  0
  5 11  1  0  0  0  0
  6  7  2  0  0  0  0
  6  9  1  0  0  0  0
  7  8  1  0  0  0  0
  9 10  1  0  0  0  0
 10 11  2  0  0  0  0
M  END
>  <CHROM.1>
36.39843239,-9.85719461,-37.90463661,2.98293166,0.47343374,2.77161235

>  <Name>
ligand

>  <RI>
0

>  <Rbt.Current_Directory>
/home/itssahil/PROJECTS/Mol_Feturizer/New_Systems/rnas/3RKF

>  <Rbt.Executable>
rbdock ($Id: //depot/dev/client3/rdock/2013.1/src/exe/rbdock.cxx#4 $)

>  <Rbt.Library>
libRbt.so (2013.1, Build901 2013/11/27)

>  <Rbt.Parameter_File>
/export/apps/rDock/src/rDock_2013.1_src/data/scripts/dock_solv.prm

>  <Rbt.Receptor>
prm/pocket_docking_6.prm

>  <SCORE>
-16.5065

>  <SCORE.INTER>
-16.5065

>  <SCORE.INTER.CONST>
1

>  <SCORE.INTER.POLAR>
0

>  <SCORE.INTER.ROT>
0

>  <SCORE.INTER.SOLV>
10.6848

>  <SCORE.INTER.VDW>
-18.166

>  <SCORE.INTER.norm>
-1.50059

>  <SCORE.INTRA>
0

>  <SCORE.INTRA.DIHEDRAL>
0

>  <SCORE.INTRA.DIHEDRAL.0>
0

>  <SCORE.INTRA.POLAR>
0

>  <SCORE.INTRA.POLAR.0>
0

>  <SCORE.INTRA.REPUL>
0

>  <SCORE.INTRA.REPUL.0>
0

>  <SCORE.INTRA.SOLV>
0

>  <SCORE.INTRA.SOLV.lig_0>
-28.6198

>  <SCORE.INTRA.VDW>
0

>  <SCORE.INTRA.VDW.0>
0

>  <SCORE.INTRA.norm>
0

>  <SCORE.RESTR>
0

>  <SCORE.RESTR.CAVITY>
0

>  <SCORE.RESTR.norm>
0

>  <SCORE.SYSTEM>
0

>  <SCORE.SYSTEM.CONST>
0

>  <SCORE.SYSTEM.DIHEDRAL>
0

>  <SCORE.SYSTEM.SOLV>
0

>  <SCORE.SYSTEM.norm>
0

>  <SCORE.heavy>
11

>  <SCORE.norm>
-1.50059

>  <RMSD>
3.433

$$$$
ligand
 OpenBabel11021811483D
libRbt.so/2013.1/901 2013/11/27
 11 12  0  0  0  0  0  0  0  0999 V2000
   35.5090  -11.1071  -37.6902 N   0  0  0  0  0  0  0  0  0  0  0  0
   36.3499  -11.8245  -36.9302 C   0  0  0  0  0  0  0  0  0  0  0  0
   35.9922  -13.1586  -36.5665 N   0  0  0  0  0  0  0  0  0  0  0  0
   37.5126  -11.3162  -36.5084 N   0  0  0  0  0  0  0  0  0  0  0  0
   37.8771  -10.0279  -36.8481 C   0  0  0  0  0  0  0  0  0  0  0  0
   37.0285   -9.2804  -37.6223 C   0  0  0  0  0  0  0  0  0  0  0  0
   35.7872   -9.8425  -38.0664 C   0  0  0  0  0  0  0  0  0  0  0  0
   34.6633   -8.9184  -39.0742 S   0  0  0  0  0  0  0  0  0  0  0  0
   37.6133   -8.0548  -37.8139 N   0  0  0  0  0  0  0  0  0  0  0  0
   38.8069   -8.0472  -37.1649 C   0  0  0  0  0  0  0  0  0  0  0  0
   38.9890   -9.2559  -36.5623 N   0  0  0  0  0  0  0  0  0  0  0  0
  1  2  2  0  0  0  0
  1  7  1  0  0  0  0
  2  3  1  0  0  0  0
  2  4  1  0  0  0  0
  4  5  2  0  0  0  0
  5  6  1  0  0  0  0
  5 11  1  0  0  0  0
  6  7  2  0  0  0  0
  6  9  1  0  0  0  0
  7  8  1  0  0  0  0
  9 10  1  0  0  0  0
 10 11  2  0  0  0  0
M  END
>  <CHROM.1>
36.64185148,-9.95716174,-37.55263761,-2.75520474,-0.46809674,-0.39669752

>  <Name>
ligand

>  <RI>
0

>  <Rbt.Current_Directory>
/home/itssahil/PROJECTS/Mol_Feturizer/New_Systems/rnas/3RKF

>  <Rbt.Executable>
rbdock ($Id: //depot/dev/client3/rdock/2013.1/src/exe/rbdock.cxx#4 $)

>  <Rbt.Library>
libRbt.so (2013.1, Build901 2013/11/27)

>  <Rbt.Parameter_File>
/export/apps/rDock/src/rDock_2013.1_src/data/scripts/dock_solv.prm

>  <Rbt.Receptor>
prm/blind_docking_60.prm

>  <SCORE>
-12.8112

>  <SCORE.INTER>
-12.8124

>  <SCORE.INTER.CONST>
1

>  <SCORE.INTER.POLAR>
0

>  <SCORE.INTER.ROT>
0

>  <SCORE.INTER.SOLV>
14.7461

>  <SCORE.INTER.VDW>
-17.0569

>  <SCORE.INTER.norm>
-1.16476

>  <SCORE.INTRA>
0

>  <SCORE.INTRA.DIHEDRAL>
0

>  <SCORE.INTRA.DIHEDRAL.0>
0

>  <SCORE.INTRA.POLAR>
0

>  <SCORE.INTRA.POLAR.0>
0

>  <SCORE.INTRA.REPUL>
0

>  <SCORE.INTRA.REPUL.0>
0

>  <SCORE.INTRA.SOLV>
0

>  <SCORE.INTRA.SOLV.lig_0>
-28.6198

>  <SCORE.INTRA.VDW>
0

>  <SCORE.INTRA.VDW.0>
0

>  <SCORE.INTRA.norm>
0

>  <SCORE.RESTR>
0.0011955

>  <SCORE.RESTR.CAVITY>
0.0011955

>  <SCORE.RESTR.norm>
0.000108682

>  <SCORE.SYSTEM>
0

>  <SCORE.SYSTEM.CONST>
0

>  <SCORE.SYSTEM.DIHEDRAL>
0

>  <SCORE.SYSTEM.SOLV>
0

>  <SCORE.SYSTEM.norm>
0

>  <SCORE.heavy>
11

>  <SCORE.norm>
-1.16465

>  <RMSD>
3.434

$$$$
ligand
 OpenBabel11021811483D
libRbt.so/2013.1/901 2013/11/27
 11 12  0  0  0  0  0  0  0  0999 V2000
   34.9774   -9.9183  -38.6572 N   0  0  0  0  0  0  0  0  0  0  0  0
   35.2492   -8.6484  -38.9932 C   0  0  0  0  0  0  0  0  0  0  0  0
   34.3152   -7.9270  -39.7980 N   0  0  0  0  0  0  0  0  0  0  0  0
   36.3737   -8.0472  -38.5906 N   0  0  0  0  0  0  0  0  0  0  0  0
   37.2904   -8.7272  -37.8126 C   0  0  0  0  0  0  0  0  0  0  0  0
   37.0292  -10.0261  -37.4620 C   0  0  0  0  0  0  0  0  0  0  0  0
   35.8181  -10.6534  -37.9016 C   0  0  0  0  0  0  0  0  0  0  0  0
   35.4341  -12.3258  -37.4671 S   0  0  0  0  0  0  0  0  0  0  0  0
   38.0805  -10.4694  -36.7009 N   0  0  0  0  0  0  0  0  0  0  0  0
   38.9784   -9.4563  -36.5850 C   0  0  0  0  0  0  0  0  0  0  0  0
   38.5096   -8.3716  -37.2639 N   0  0  0  0  0  0  0  0  0  0  0  0
  1  2  2  0  0  0  0
  1  7  1  0  0  0  0
  2  3  1  0  0  0  0
  2  4  1  0  0  0  0
  4  5  2  0  0  0  0
  5  6  1  0  0  0  0
  5 11  1  0  0  0  0
  6  7  2  0  0  0  0
  6  9  1  0  0  0  0
  7  8  1  0  0  0  0
  9 10  1  0  0  0  0
 10 11  2  0  0  0  0
M  END
>  <CHROM.1>
36.40037531,-9.83604297,-37.88705860,2.98106637,0.48312215,2.77308099

>  <Name>
ligand

>  <RI>
0

>  <Rbt.Current_Directory>
/home/itssahil/PROJECTS/Mol_Feturizer/New_Systems/rnas/3RKF

>  <Rbt.Executable>
rbdock ($Id: //depot/dev/client3/rdock/2013.1/src/exe/rbdock.cxx#4 $)

>  <Rbt.Library>
libRbt.so (2013.1, Build901 2013/11/27)

>  <Rbt.Parameter_File>
/export/apps/rDock/src/rDock_2013.1_src/data/scripts/dock_solv.prm

>  <Rbt.Receptor>
prm/blind_docking_60.prm

>  <SCORE>
-16.4783

>  <SCORE.INTER>
-16.4783

>  <SCORE.INTER.CONST>
1

>  <SCORE.INTER.POLAR>
0

>  <SCORE.INTER.ROT>
0

>  <SCORE.INTER.SOLV>
10.644

>  <SCORE.INTER.VDW>
-18.1335

>  <SCORE.INTER.norm>
-1.49803

>  <SCORE.INTRA>
0

>  <SCORE.INTRA.DIHEDRAL>
0

>  <SCORE.INTRA.DIHEDRAL.0>
0

>  <SCORE.INTRA.POLAR>
0

>  <SCORE.INTRA.POLAR.0>
0

>  <SCORE.INTRA.REPUL>
0

>  <SCORE.INTRA.REPUL.0>
0

>  <SCORE.INTRA.SOLV>
0

>  <SCORE.INTRA.SOLV.lig_0>
-28.6198

>  <SCORE.INTRA.VDW>
0

>  <SCORE.INTRA.VDW.0>
0

>  <SCORE.INTRA.norm>
0

>  <SCORE.RESTR>
0

>  <SCORE.RESTR.CAVITY>
0

>  <SCORE.RESTR.norm>
0

>  <SCORE.SYSTEM>
0

>  <SCORE.SYSTEM.CONST>
0

>  <SCORE.SYSTEM.DIHEDRAL>
0

>  <SCORE.SYSTEM.SOLV>
0

>  <SCORE.SYSTEM.norm>
0

>  <SCORE.heavy>
11

>  <SCORE.norm>
-1.49803

>  <RMSD>
3.434

$$$$
ligand
 OpenBabel11021811483D
libRbt.so/2013.1/901 2013/11/27
 11 12  0  0  0  0  0  0  0  0999 V2000
   34.9722   -9.9266  -38.6667 N   0  0  0  0  0  0  0  0  0  0  0  0
   35.2485   -8.6586  -39.0064 C   0  0  0  0  0  0  0  0  0  0  0  0
   34.3110   -7.9320  -39.8022 N   0  0  0  0  0  0  0  0  0  0  0  0
   36.3807   -8.0642  -38.6155 N   0  0  0  0  0  0  0  0  0  0  0  0
   37.3009   -8.7494  -37.8463 C   0  0  0  0  0  0  0  0  0  0  0  0
   37.0352  -10.0464  -37.4921 C   0  0  0  0  0  0  0  0  0  0  0  0
   35.8158  -10.6665  -37.9191 C   0  0  0  0  0  0  0  0  0  0  0  0
   35.4258  -12.3361  -37.4796 S   0  0  0  0  0  0  0  0  0  0  0  0
   38.0913  -10.4958  -36.7413 N   0  0  0  0  0  0  0  0  0  0  0  0
   38.9967   -9.4883  -36.6352 C   0  0  0  0  0  0  0  0  0  0  0  0
   38.5278   -8.4011  -37.3101 N   0  0  0  0  0  0  0  0  0  0  0  0
  1  2  2  0  0  0  0
  1  7  1  0  0  0  0
  2  3  1  0  0  0  0
  2  4  1  0  0  0  0
  4  5  2  0  0  0  0
  5  6  1  0  0  0  0
  5 11  1  0  0  0  0
  6  7  2  0  0  0  0
  6  9  1  0  0  0  0
  7  8  1  0  0  0  0
  9 10  1  0  0  0  0
 10 11  2  0  0  0  0
M  END
>  <CHROM.1>
36.40331856,-9.85274352,-37.91099728,2.98353350,0.47149701,2.77126903

>  <Name>
ligand

>  <RI>
0

>  <Rbt.Current_Directory>
/home/itssahil/PROJECTS/Mol_Feturizer/New_Systems/rnas/3RKF

>  <Rbt.Executable>
rbdock ($Id: //depot/dev/client3/rdock/2013.1/src/exe/rbdock.cxx#4 $)

>  <Rbt.Library>
libRbt.so (2013.1, Build901 2013/11/27)

>  <Rbt.Parameter_File>
/export/apps/rDock/src/rDock_2013.1_src/data/scripts/dock_solv.prm

>  <Rbt.Receptor>
prm/pocket_docking_5.prm

>  <SCORE>
-16.504

>  <SCORE.INTER>
-16.504

>  <SCORE.INTER.CONST>
1

>  <SCORE.INTER.POLAR>
0

>  <SCORE.INTER.ROT>
0

>  <SCORE.INTER.SOLV>
10.7034

>  <SCORE.INTER.VDW>
-18.1704

>  <SCORE.INTER.norm>
-1.50036

>  <SCORE.INTRA>
0

>  <SCORE.INTRA.DIHEDRAL>
0

>  <SCORE.INTRA.DIHEDRAL.0>
0

>  <SCORE.INTRA.POLAR>
0

>  <SCORE.INTRA.POLAR.0>
0

>  <SCORE.INTRA.REPUL>
0

>  <SCORE.INTRA.REPUL.0>
0

>  <SCORE.INTRA.SOLV>
0

>  <SCORE.INTRA.SOLV.lig_0>
-28.6198

>  <SCORE.INTRA.VDW>
0

>  <SCORE.INTRA.VDW.0>
0

>  <SCORE.INTRA.norm>
0

>  <SCORE.RESTR>
0

>  <SCORE.RESTR.CAVITY>
0

>  <SCORE.RESTR.norm>
0

>  <SCORE.SYSTEM>
0

>  <SCORE.SYSTEM.CONST>
0

>  <SCORE.SYSTEM.DIHEDRAL>
0

>  <SCORE.SYSTEM.SOLV>
0

>  <SCORE.SYSTEM.norm>
0

>  <SCORE.heavy>
11

>  <SCORE.norm>
-1.50036

>  <RMSD>
3.434

$$$$
ligand
 OpenBabel11021811483D
libRbt.so/2013.1/901 2013/11/27
 11 12  0  0  0  0  0  0  0  0999 V2000
   34.9775   -9.9182  -38.6507 N   0  0  0  0  0  0  0  0  0  0  0  0
   35.2483   -8.6482  -38.9870 C   0  0  0  0  0  0  0  0  0  0  0  0
   34.3141   -7.9279  -39.7924 N   0  0  0  0  0  0  0  0  0  0  0  0
   36.3720   -8.0458  -38.5839 N   0  0  0  0  0  0  0  0  0  0  0  0
   37.2890   -8.7247  -37.8053 C   0  0  0  0  0  0  0  0  0  0  0  0
   37.0288  -10.0237  -37.4544 C   0  0  0  0  0  0  0  0  0  0  0  0
   35.8184  -10.6524  -37.8945 C   0  0  0  0  0  0  0  0  0  0  0  0
   35.4358  -12.3249  -37.4596 S   0  0  0  0  0  0  0  0  0  0  0  0
   38.0801  -10.4658  -36.6926 N   0  0  0  0  0  0  0  0  0  0  0  0
   38.9770   -9.4520  -36.5766 C   0  0  0  0  0  0  0  0  0  0  0  0
   38.5076   -8.3679  -37.2561 N   0  0  0  0  0  0  0  0  0  0  0  0
  1  2  2  0  0  0  0
  1  7  1  0  0  0  0
  2  3  1  0  0  0  0
  2  4  1  0  0  0  0
  4  5  2  0  0  0  0
  5  6  1  0  0  0  0
  5 11  1  0  0  0  0
  6  7  2  0  0  0  0
  6  9  1  0  0  0  0
  7  8  1  0  0  0  0
  9 10  1  0  0  0  0
 10 11  2  0  0  0  0
M  END
>  <CHROM.1>
36.40000957,-9.83442155,-37.87984702,2.98031023,0.48394801,2.77313459

>  <Name>
ligand

>  <RI>
0

>  <Rbt.Current_Directory>
/home/itssahil/PROJECTS/Mol_Feturizer/New_Systems/rnas/3RKF

>  <Rbt.Executable>
rbdock ($Id: //depot/dev/client3/rdock/2013.1/src/exe/rbdock.cxx#4 $)

>  <Rbt.Library>
libRbt.so (2013.1, Build901 2013/11/27)

>  <Rbt.Parameter_File>
/export/apps/rDock/src/rDock_2013.1_src/data/scripts/dock_solv.prm

>  <Rbt.Receptor>
prm/pocket_docking_6.prm

>  <SCORE>
-16.4769

>  <SCORE.INTER>
-16.4769

>  <SCORE.INTER.CONST>
1

>  <SCORE.INTER.POLAR>
0

>  <SCORE.INTER.ROT>
0

>  <SCORE.INTER.SOLV>
10.6183

>  <SCORE.INTER.VDW>
-18.124

>  <SCORE.INTER.norm>
-1.4979

>  <SCORE.INTRA>
0

>  <SCORE.INTRA.DIHEDRAL>
0

>  <SCORE.INTRA.DIHEDRAL.0>
0

>  <SCORE.INTRA.POLAR>
0

>  <SCORE.INTRA.POLAR.0>
0

>  <SCORE.INTRA.REPUL>
0

>  <SCORE.INTRA.REPUL.0>
0

>  <SCORE.INTRA.SOLV>
0

>  <SCORE.INTRA.SOLV.lig_0>
-28.6198

>  <SCORE.INTRA.VDW>
0

>  <SCORE.INTRA.VDW.0>
0

>  <SCORE.INTRA.norm>
0

>  <SCORE.RESTR>
0

>  <SCORE.RESTR.CAVITY>
0

>  <SCORE.RESTR.norm>
0

>  <SCORE.SYSTEM>
0

>  <SCORE.SYSTEM.CONST>
0

>  <SCORE.SYSTEM.DIHEDRAL>
0

>  <SCORE.SYSTEM.SOLV>
0

>  <SCORE.SYSTEM.norm>
0

>  <SCORE.heavy>
11

>  <SCORE.norm>
-1.4979

>  <RMSD>
3.434

$$$$
ligand
 OpenBabel11021811483D
libRbt.so/2013.1/901 2013/11/27
 11 12  0  0  0  0  0  0  0  0999 V2000
   35.5110  -11.0986  -37.6599 N   0  0  0  0  0  0  0  0  0  0  0  0
   36.3480  -11.8132  -36.8931 C   0  0  0  0  0  0  0  0  0  0  0  0
   35.9824  -13.1414  -36.5153 N   0  0  0  0  0  0  0  0  0  0  0  0
   37.5141  -11.3078  -36.4772 N   0  0  0  0  0  0  0  0  0  0  0  0
   37.8862  -10.0253  -36.8304 C   0  0  0  0  0  0  0  0  0  0  0  0
   37.0416   -9.2807  -37.6117 C   0  0  0  0  0  0  0  0  0  0  0  0
   35.7967   -9.8397  -38.0492 C   0  0  0  0  0  0  0  0  0  0  0  0
   34.6777   -8.9192  -39.0658 S   0  0  0  0  0  0  0  0  0  0  0  0
   37.6338   -8.0607  -37.8163 N   0  0  0  0  0  0  0  0  0  0  0  0
   38.8279   -8.0537  -37.1682 C   0  0  0  0  0  0  0  0  0  0  0  0
   39.0030   -9.2572  -36.5533 N   0  0  0  0  0  0  0  0  0  0  0  0
  1  2  2  0  0  0  0
  1  7  1  0  0  0  0
  2  3  1  0  0  0  0
  2  4  1  0  0  0  0
  4  5  2  0  0  0  0
  5  6  1  0  0  0  0
  5 11  1  0  0  0  0
  6  7  2  0  0  0  0
  6  9  1  0  0  0  0
  7  8  1  0  0  0  0
  9 10  1  0  0  0  0
 10 11  2  0  0  0  0
M  END
>  <CHROM.1>
36.65093122,-9.95426943,-37.53486388,-2.76120733,-0.46507966,-0.40970403

>  <Name>
ligand

>  <RI>
0

>  <Rbt.Current_Directory>
/home/itssahil/PROJECTS/Mol_Feturizer/New_Systems/rnas/3RKF

>  <Rbt.Executable>
rbdock ($Id: //depot/dev/client3/rdock/2013.1/src/exe/rbdock.cxx#4 $)

>  <Rbt.Library>
libRbt.so (2013.1, Build901 2013/11/27)

>  <Rbt.Parameter_File>
/export/apps/rDock/src/rDock_2013.1_src/data/scripts/dock_solv.prm

>  <Rbt.Receptor>
prm/blind_docking_100.prm

>  <SCORE>
-12.7624

>  <SCORE.INTER>
-12.7624

>  <SCORE.INTER.CONST>
1

>  <SCORE.INTER.POLAR>
0

>  <SCORE.INTER.ROT>
0

>  <SCORE.INTER.SOLV>
14.7843

>  <SCORE.INTER.VDW>
-17.0364

>  <SCORE.INTER.norm>
-1.16022

>  <SCORE.INTRA>
0

>  <SCORE.INTRA.DIHEDRAL>
0

>  <SCORE.INTRA.DIHEDRAL.0>
0

>  <SCORE.INTRA.POLAR>
0

>  <SCORE.INTRA.POLAR.0>
0

>  <SCORE.INTRA.REPUL>
0

>  <SCORE.INTRA.REPUL.0>
0

>  <SCORE.INTRA.SOLV>
0

>  <SCORE.INTRA.SOLV.lig_0>
-28.6198

>  <SCORE.INTRA.VDW>
0

>  <SCORE.INTRA.VDW.0>
0

>  <SCORE.INTRA.norm>
0

>  <SCORE.RESTR>
0

>  <SCORE.RESTR.CAVITY>
0

>  <SCORE.RESTR.norm>
0

>  <SCORE.SYSTEM>
0

>  <SCORE.SYSTEM.CONST>
0

>  <SCORE.SYSTEM.DIHEDRAL>
0

>  <SCORE.SYSTEM.SOLV>
0

>  <SCORE.SYSTEM.norm>
0

>  <SCORE.heavy>
11

>  <SCORE.norm>
-1.16022

>  <RMSD>
3.435

$$$$
ligand
 OpenBabel11021811483D
libRbt.so/2013.1/901 2013/11/27
 11 12  0  0  0  0  0  0  0  0999 V2000
   34.9714  -10.0098  -38.6610 N   0  0  0  0  0  0  0  0  0  0  0  0
   35.2418   -8.7435  -39.0115 C   0  0  0  0  0  0  0  0  0  0  0  0
   34.3053   -8.0311  -39.8212 N   0  0  0  0  0  0  0  0  0  0  0  0
   36.3672   -8.1377  -38.6185 N   0  0  0  0  0  0  0  0  0  0  0  0
   37.2864   -8.8090  -37.8359 C   0  0  0  0  0  0  0  0  0  0  0  0
   37.0266  -10.1041  -37.4705 C   0  0  0  0  0  0  0  0  0  0  0  0
   35.8144  -10.7365  -37.8999 C   0  0  0  0  0  0  0  0  0  0  0  0
   35.4323  -12.4042  -37.4464 S   0  0  0  0  0  0  0  0  0  0  0  0
   38.0802  -10.5389  -36.7077 N   0  0  0  0  0  0  0  0  0  0  0  0
   38.9782   -9.5244  -36.6054 C   0  0  0  0  0  0  0  0  0  0  0  0
   38.5070   -8.4472  -37.2946 N   0  0  0  0  0  0  0  0  0  0  0  0
  1  2  2  0  0  0  0
  1  7  1  0  0  0  0
  2  3  1  0  0  0  0
  2  4  1  0  0  0  0
  4  5  2  0  0  0  0
  5  6  1  0  0  0  0
  5 11  1  0  0  0  0
  6  7  2  0  0  0  0
  6  9  1  0  0  0  0
  7  8  1  0  0  0  0
  9 10  1  0  0  0  0
 10 11  2  0  0  0  0
M  END
>  <CHROM.1>
36.39651776,-9.91884508,-37.89585056,2.97955583,0.48058162,2.76302220

>  <Name>
ligand

>  <RI>
0

>  <Rbt.Current_Directory>
/home/itssahil/PROJECTS/Mol_Feturizer/New_Systems/rnas/3RKF

>  <Rbt.Executable>
rbdock ($Id: //depot/dev/client3/rdock/2013.1/src/exe/rbdock.cxx#4 $)

>  <Rbt.Library>
libRbt.so (2013.1, Build901 2013/11/27)

>  <Rbt.Parameter_File>
/export/apps/rDock/src/rDock_2013.1_src/data/scripts/dock_solv.prm

>  <Rbt.Receptor>
prm/blind_docking_80.prm

>  <SCORE>
-16.4858

>  <SCORE.INTER>
-16.4858

>  <SCORE.INTER.CONST>
1

>  <SCORE.INTER.POLAR>
0

>  <SCORE.INTER.ROT>
0

>  <SCORE.INTER.SOLV>
10.8687

>  <SCORE.INTER.VDW>
-18.2135

>  <SCORE.INTER.norm>
-1.49871

>  <SCORE.INTRA>
0

>  <SCORE.INTRA.DIHEDRAL>
0

>  <SCORE.INTRA.DIHEDRAL.0>
0

>  <SCORE.INTRA.POLAR>
0

>  <SCORE.INTRA.POLAR.0>
0

>  <SCORE.INTRA.REPUL>
0

>  <SCORE.INTRA.REPUL.0>
0

>  <SCORE.INTRA.SOLV>
0

>  <SCORE.INTRA.SOLV.lig_0>
-28.6198

>  <SCORE.INTRA.VDW>
0

>  <SCORE.INTRA.VDW.0>
0

>  <SCORE.INTRA.norm>
0

>  <SCORE.RESTR>
0

>  <SCORE.RESTR.CAVITY>
0

>  <SCORE.RESTR.norm>
0

>  <SCORE.SYSTEM>
0

>  <SCORE.SYSTEM.CONST>
0

>  <SCORE.SYSTEM.DIHEDRAL>
0

>  <SCORE.SYSTEM.SOLV>
0

>  <SCORE.SYSTEM.norm>
0

>  <SCORE.heavy>
11

>  <SCORE.norm>
-1.49871

>  <RMSD>
3.435

$$$$
ligand
 OpenBabel11021811483D
libRbt.so/2013.1/901 2013/11/27
 11 12  0  0  0  0  0  0  0  0999 V2000
   34.9315   -9.9790  -38.6358 N   0  0  0  0  0  0  0  0  0  0  0  0
   35.1965   -8.7084  -38.9746 C   0  0  0  0  0  0  0  0  0  0  0  0
   34.2496   -7.9875  -39.7645 N   0  0  0  0  0  0  0  0  0  0  0  0
   36.3261   -8.1061  -38.5883 N   0  0  0  0  0  0  0  0  0  0  0  0
   37.2553   -8.7857  -37.8249 C   0  0  0  0  0  0  0  0  0  0  0  0
   37.0012  -10.0852  -37.4717 C   0  0  0  0  0  0  0  0  0  0  0  0
   35.7844  -10.7138  -37.8937 C   0  0  0  0  0  0  0  0  0  0  0  0
   35.4093  -12.3871  -37.4552 S   0  0  0  0  0  0  0  0  0  0  0  0
   38.0644  -10.5279  -36.7269 N   0  0  0  0  0  0  0  0  0  0  0  0
   38.9626   -9.5138  -36.6236 C   0  0  0  0  0  0  0  0  0  0  0  0
   38.4822   -8.4290  -37.2942 N   0  0  0  0  0  0  0  0  0  0  0  0
  1  2  2  0  0  0  0
  1  7  1  0  0  0  0
  2  3  1  0  0  0  0
  2  4  1  0  0  0  0
  4  5  2  0  0  0  0
  5  6  1  0  0  0  0
  5 11  1  0  0  0  0
  6  7  2  0  0  0  0
  6  9  1  0  0  0  0
  7  8  1  0  0  0  0
  9 10  1  0  0  0  0
 10 11  2  0  0  0  0
M  END
>  <CHROM.1>
36.36576018,-9.89565372,-37.88706725,2.97360179,0.46956312,2.77751626

>  <Name>
ligand

>  <RI>
0

>  <Rbt.Current_Directory>
/home/itssahil/PROJECTS/Mol_Feturizer/New_Systems/rnas/3RKF

>  <Rbt.Executable>
rbdock ($Id: //depot/dev/client3/rdock/2013.1/src/exe/rbdock.cxx#4 $)

>  <Rbt.Library>
libRbt.so (2013.1, Build901 2013/11/27)

>  <Rbt.Parameter_File>
/export/apps/rDock/src/rDock_2013.1_src/data/scripts/dock_solv.prm

>  <Rbt.Receptor>
prm/pocket_docking_3.prm

>  <SCORE>
-16.4771

>  <SCORE.INTER>
-16.4771

>  <SCORE.INTER.CONST>
1

>  <SCORE.INTER.POLAR>
0

>  <SCORE.INTER.ROT>
0

>  <SCORE.INTER.SOLV>
10.5168

>  <SCORE.INTER.VDW>
-18.0903

>  <SCORE.INTER.norm>
-1.49792

>  <SCORE.INTRA>
0

>  <SCORE.INTRA.DIHEDRAL>
0

>  <SCORE.INTRA.DIHEDRAL.0>
0

>  <SCORE.INTRA.POLAR>
0

>  <SCORE.INTRA.POLAR.0>
0

>  <SCORE.INTRA.REPUL>
0

>  <SCORE.INTRA.REPUL.0>
0

>  <SCORE.INTRA.SOLV>
0

>  <SCORE.INTRA.SOLV.lig_0>
-28.6198

>  <SCORE.INTRA.VDW>
0

>  <SCORE.INTRA.VDW.0>
0

>  <SCORE.INTRA.norm>
0

>  <SCORE.RESTR>
0

>  <SCORE.RESTR.CAVITY>
0

>  <SCORE.RESTR.norm>
0

>  <SCORE.SYSTEM>
0

>  <SCORE.SYSTEM.CONST>
0

>  <SCORE.SYSTEM.DIHEDRAL>
0

>  <SCORE.SYSTEM.SOLV>
0

>  <SCORE.SYSTEM.norm>
0

>  <SCORE.heavy>
11

>  <SCORE.norm>
-1.49792

>  <RMSD>
3.435

$$$$
ligand
 OpenBabel11021811483D
libRbt.so/2013.1/901 2013/11/27
 11 12  0  0  0  0  0  0  0  0999 V2000
   34.9629   -9.9224  -38.6651 N   0  0  0  0  0  0  0  0  0  0  0  0
   35.2406   -8.6561  -39.0097 C   0  0  0  0  0  0  0  0  0  0  0  0
   34.3056   -7.9326  -39.8114 N   0  0  0  0  0  0  0  0  0  0  0  0
   36.3719   -8.0603  -38.6183 N   0  0  0  0  0  0  0  0  0  0  0  0
   37.2898   -8.7424  -37.8435 C   0  0  0  0  0  0  0  0  0  0  0  0
   37.0226  -10.0377  -37.4843 C   0  0  0  0  0  0  0  0  0  0  0  0
   35.8042  -10.6592  -37.9119 C   0  0  0  0  0  0  0  0  0  0  0  0
   35.4124  -12.3267  -37.4659 S   0  0  0  0  0  0  0  0  0  0  0  0
   38.0764  -10.4841  -36.7285 N   0  0  0  0  0  0  0  0  0  0  0  0
   38.9819   -9.4764  -36.6244 C   0  0  0  0  0  0  0  0  0  0  0  0
   38.5153   -8.3921  -37.3055 N   0  0  0  0  0  0  0  0  0  0  0  0
  1  2  2  0  0  0  0
  1  7  1  0  0  0  0
  2  3  1  0  0  0  0
  2  4  1  0  0  0  0
  4  5  2  0  0  0  0
  5  6  1  0  0  0  0
  5 11  1  0  0  0  0
  6  7  2  0  0  0  0
  6  9  1  0  0  0  0
  7  8  1  0  0  0  0
  9 10  1  0  0  0  0
 10 11  2  0  0  0  0
M  END
>  <CHROM.1>
36.39196319,-9.84566339,-37.90574965,2.98505291,0.47394525,2.76608998

>  <Name>
ligand

>  <RI>
0

>  <Rbt.Current_Directory>
/home/itssahil/PROJECTS/Mol_Feturizer/New_Systems/rnas/3RKF

>  <Rbt.Executable>
rbdock ($Id: //depot/dev/client3/rdock/2013.1/src/exe/rbdock.cxx#4 $)

>  <Rbt.Library>
libRbt.so (2013.1, Build901 2013/11/27)

>  <Rbt.Parameter_File>
/export/apps/rDock/src/rDock_2013.1_src/data/scripts/dock_solv.prm

>  <Rbt.Receptor>
prm/pocket_docking_7.prm

>  <SCORE>
-16.5073

>  <SCORE.INTER>
-16.5073

>  <SCORE.INTER.CONST>
1

>  <SCORE.INTER.POLAR>
0

>  <SCORE.INTER.ROT>
0

>  <SCORE.INTER.SOLV>
10.6858

>  <SCORE.INTER.VDW>
-18.1668

>  <SCORE.INTER.norm>
-1.50067

>  <SCORE.INTRA>
0

>  <SCORE.INTRA.DIHEDRAL>
0

>  <SCORE.INTRA.DIHEDRAL.0>
0

>  <SCORE.INTRA.POLAR>
0

>  <SCORE.INTRA.POLAR.0>
0

>  <SCORE.INTRA.REPUL>
0

>  <SCORE.INTRA.REPUL.0>
0

>  <SCORE.INTRA.SOLV>
0

>  <SCORE.INTRA.SOLV.lig_0>
-28.6198

>  <SCORE.INTRA.VDW>
0

>  <SCORE.INTRA.VDW.0>
0

>  <SCORE.INTRA.norm>
0

>  <SCORE.RESTR>
0

>  <SCORE.RESTR.CAVITY>
0

>  <SCORE.RESTR.norm>
0

>  <SCORE.SYSTEM>
0

>  <SCORE.SYSTEM.CONST>
0

>  <SCORE.SYSTEM.DIHEDRAL>
0

>  <SCORE.SYSTEM.SOLV>
0

>  <SCORE.SYSTEM.norm>
0

>  <SCORE.heavy>
11

>  <SCORE.norm>
-1.50067

>  <RMSD>
3.435

$$$$
ligand
 OpenBabel11021811483D
libRbt.so/2013.1/901 2013/11/27
 11 12  0  0  0  0  0  0  0  0999 V2000
   34.9546   -9.9709  -38.6320 N   0  0  0  0  0  0  0  0  0  0  0  0
   35.2264   -8.7053  -38.9839 C   0  0  0  0  0  0  0  0  0  0  0  0
   34.2845   -7.9884  -39.7834 N   0  0  0  0  0  0  0  0  0  0  0  0
   36.3581   -8.1043  -38.6017 N   0  0  0  0  0  0  0  0  0  0  0  0
   37.2825   -8.7800  -37.8292 C   0  0  0  0  0  0  0  0  0  0  0  0
   37.0214  -10.0745  -37.4625 C   0  0  0  0  0  0  0  0  0  0  0  0
   35.8025  -10.7017  -37.8803 C   0  0  0  0  0  0  0  0  0  0  0  0
   35.4185  -12.3684  -37.4247 S   0  0  0  0  0  0  0  0  0  0  0  0
   38.0810  -10.5142  -36.7109 N   0  0  0  0  0  0  0  0  0  0  0  0
   38.9838   -9.5033  -36.6165 C   0  0  0  0  0  0  0  0  0  0  0  0
   38.5100   -8.4235  -37.2998 N   0  0  0  0  0  0  0  0  0  0  0  0
  1  2  2  0  0  0  0
  1  7  1  0  0  0  0
  2  3  1  0  0  0  0
  2  4  1  0  0  0  0
  4  5  2  0  0  0  0
  5  6  1  0  0  0  0
  5 11  1  0  0  0  0
  6  7  2  0  0  0  0
  6  9  1  0  0  0  0
  7  8  1  0  0  0  0
  9 10  1  0  0  0  0
 10 11  2  0  0  0  0
M  END
>  <CHROM.1>
36.38776524,-9.88633035,-37.88126535,2.97942274,0.46975753,2.76415128

>  <Name>
ligand

>  <RI>
0

>  <Rbt.Current_Directory>
/home/itssahil/PROJECTS/Mol_Feturizer/New_Systems/rnas/3RKF

>  <Rbt.Executable>
rbdock ($Id: //depot/dev/client3/rdock/2013.1/src/exe/rbdock.cxx#4 $)

>  <Rbt.Library>
libRbt.so (2013.1, Build901 2013/11/27)

>  <Rbt.Parameter_File>
/export/apps/rDock/src/rDock_2013.1_src/data/scripts/dock_solv.prm

>  <Rbt.Receptor>
prm/pocket_docking_8.prm

>  <SCORE>
-16.4648

>  <SCORE.INTER>
-16.4648

>  <SCORE.INTER.CONST>
1

>  <SCORE.INTER.POLAR>
0

>  <SCORE.INTER.ROT>
0

>  <SCORE.INTER.SOLV>
10.649

>  <SCORE.INTER.VDW>
-18.1262

>  <SCORE.INTER.norm>
-1.4968

>  <SCORE.INTRA>
0

>  <SCORE.INTRA.DIHEDRAL>
0

>  <SCORE.INTRA.DIHEDRAL.0>
0

>  <SCORE.INTRA.POLAR>
0

>  <SCORE.INTRA.POLAR.0>
0

>  <SCORE.INTRA.REPUL>
0

>  <SCORE.INTRA.REPUL.0>
0

>  <SCORE.INTRA.SOLV>
0

>  <SCORE.INTRA.SOLV.lig_0>
-28.6198

>  <SCORE.INTRA.VDW>
0

>  <SCORE.INTRA.VDW.0>
0

>  <SCORE.INTRA.norm>
0

>  <SCORE.RESTR>
0

>  <SCORE.RESTR.CAVITY>
0

>  <SCORE.RESTR.norm>
0

>  <SCORE.SYSTEM>
0

>  <SCORE.SYSTEM.CONST>
0

>  <SCORE.SYSTEM.DIHEDRAL>
0

>  <SCORE.SYSTEM.SOLV>
0

>  <SCORE.SYSTEM.norm>
0

>  <SCORE.heavy>
11

>  <SCORE.norm>
-1.4968

>  <RMSD>
3.436

$$$$
ligand
 OpenBabel11021811483D
libRbt.so/2013.1/901 2013/11/27
 11 12  0  0  0  0  0  0  0  0999 V2000
   34.9341   -9.9857  -38.6492 N   0  0  0  0  0  0  0  0  0  0  0  0
   35.2017   -8.7170  -38.9932 C   0  0  0  0  0  0  0  0  0  0  0  0
   34.2610   -8.0007  -39.7947 N   0  0  0  0  0  0  0  0  0  0  0  0
   36.3282   -8.1124  -38.6014 N   0  0  0  0  0  0  0  0  0  0  0  0
   37.2513   -8.7875  -37.8269 C   0  0  0  0  0  0  0  0  0  0  0  0
   36.9945  -10.0850  -37.4682 C   0  0  0  0  0  0  0  0  0  0  0  0
   35.7811  -10.7161  -37.8962 C   0  0  0  0  0  0  0  0  0  0  0  0
   35.4026  -12.3869  -37.4511 S   0  0  0  0  0  0  0  0  0  0  0  0
   38.0518  -10.5233  -36.7125 N   0  0  0  0  0  0  0  0  0  0  0  0
   38.9491   -9.5085  -36.6079 C   0  0  0  0  0  0  0  0  0  0  0  0
   38.4740   -8.4277  -37.2886 N   0  0  0  0  0  0  0  0  0  0  0  0
  1  2  2  0  0  0  0
  1  7  1  0  0  0  0
  2  3  1  0  0  0  0
  2  4  1  0  0  0  0
  4  5  2  0  0  0  0
  5  6  1  0  0  0  0
  5 11  1  0  0  0  0
  6  7  2  0  0  0  0
  6  9  1  0  0  0  0
  7  8  1  0  0  0  0
  9 10  1  0  0  0  0
 10 11  2  0  0  0  0
M  END
>  <CHROM.1>
36.36236204,-9.89788287,-37.88969469,2.97672694,0.47697342,2.77035762

>  <Name>
ligand

>  <RI>
0

>  <Rbt.Current_Directory>
/home/itssahil/PROJECTS/Mol_Feturizer/New_Systems/rnas/3RKF

>  <Rbt.Executable>
rbdock ($Id: //depot/dev/client3/rdock/2013.1/src/exe/rbdock.cxx#4 $)

>  <Rbt.Library>
libRbt.so (2013.1, Build901 2013/11/27)

>  <Rbt.Parameter_File>
/export/apps/rDock/src/rDock_2013.1_src/data/scripts/dock_solv.prm

>  <Rbt.Receptor>
prm/pocket_docking_8.prm

>  <SCORE>
-16.4729

>  <SCORE.INTER>
-16.4729

>  <SCORE.INTER.CONST>
1

>  <SCORE.INTER.POLAR>
0

>  <SCORE.INTER.ROT>
0

>  <SCORE.INTER.SOLV>
10.6226

>  <SCORE.INTER.VDW>
-18.1228

>  <SCORE.INTER.norm>
-1.49753

>  <SCORE.INTRA>
0

>  <SCORE.INTRA.DIHEDRAL>
0

>  <SCORE.INTRA.DIHEDRAL.0>
0

>  <SCORE.INTRA.POLAR>
0

>  <SCORE.INTRA.POLAR.0>
0

>  <SCORE.INTRA.REPUL>
0

>  <SCORE.INTRA.REPUL.0>
0

>  <SCORE.INTRA.SOLV>
0

>  <SCORE.INTRA.SOLV.lig_0>
-28.6198

>  <SCORE.INTRA.VDW>
0

>  <SCORE.INTRA.VDW.0>
0

>  <SCORE.INTRA.norm>
0

>  <SCORE.RESTR>
0

>  <SCORE.RESTR.CAVITY>
0

>  <SCORE.RESTR.norm>
0

>  <SCORE.SYSTEM>
0

>  <SCORE.SYSTEM.CONST>
0

>  <SCORE.SYSTEM.DIHEDRAL>
0

>  <SCORE.SYSTEM.SOLV>
0

>  <SCORE.SYSTEM.norm>
0

>  <SCORE.heavy>
11

>  <SCORE.norm>
-1.49753

>  <RMSD>
3.436

$$$$
ligand
 OpenBabel11021811483D
libRbt.so/2013.1/901 2013/11/27
 11 12  0  0  0  0  0  0  0  0999 V2000
   34.9753   -9.9157  -38.6538 N   0  0  0  0  0  0  0  0  0  0  0  0
   35.2480   -8.6475  -38.9952 C   0  0  0  0  0  0  0  0  0  0  0  0
   34.3115   -7.9267  -39.7975 N   0  0  0  0  0  0  0  0  0  0  0  0
   36.3757   -8.0474  -38.6000 N   0  0  0  0  0  0  0  0  0  0  0  0
   37.2949   -8.7269  -37.8245 C   0  0  0  0  0  0  0  0  0  0  0  0
   37.0328  -10.0241  -37.4685 C   0  0  0  0  0  0  0  0  0  0  0  0
   35.8181  -10.6503  -37.9002 C   0  0  0  0  0  0  0  0  0  0  0  0
   35.4329  -12.3205  -37.4585 S   0  0  0  0  0  0  0  0  0  0  0  0
   38.0869  -10.4673  -36.7113 N   0  0  0  0  0  0  0  0  0  0  0  0
   38.9875   -9.4558  -36.6030 C   0  0  0  0  0  0  0  0  0  0  0  0
   38.5176   -8.3722  -37.2830 N   0  0  0  0  0  0  0  0  0  0  0  0
  1  2  2  0  0  0  0
  1  7  1  0  0  0  0
  2  3  1  0  0  0  0
  2  4  1  0  0  0  0
  4  5  2  0  0  0  0
  5  6  1  0  0  0  0
  5 11  1  0  0  0  0
  6  7  2  0  0  0  0
  6  9  1  0  0  0  0
  7  8  1  0  0  0  0
  9 10  1  0  0  0  0
 10 11  2  0  0  0  0
M  END
>  <CHROM.1>
36.40221217,-9.83411062,-37.89104759,2.98122829,0.47773650,2.76990093

>  <Name>
ligand

>  <RI>
0

>  <Rbt.Current_Directory>
/home/itssahil/PROJECTS/Mol_Feturizer/New_Systems/rnas/3RKF

>  <Rbt.Executable>
rbdock ($Id: //depot/dev/client3/rdock/2013.1/src/exe/rbdock.cxx#4 $)

>  <Rbt.Library>
libRbt.so (2013.1, Build901 2013/11/27)

>  <Rbt.Parameter_File>
/export/apps/rDock/src/rDock_2013.1_src/data/scripts/dock_solv.prm

>  <Rbt.Receptor>
prm/blind_docking_100.prm

>  <SCORE>
-16.4773

>  <SCORE.INTER>
-16.4773

>  <SCORE.INTER.CONST>
1

>  <SCORE.INTER.POLAR>
0

>  <SCORE.INTER.ROT>
0

>  <SCORE.INTER.SOLV>
10.6397

>  <SCORE.INTER.VDW>
-18.1315

>  <SCORE.INTER.norm>
-1.49794

>  <SCORE.INTRA>
0

>  <SCORE.INTRA.DIHEDRAL>
0

>  <SCORE.INTRA.DIHEDRAL.0>
0

>  <SCORE.INTRA.POLAR>
0

>  <SCORE.INTRA.POLAR.0>
0

>  <SCORE.INTRA.REPUL>
0

>  <SCORE.INTRA.REPUL.0>
0

>  <SCORE.INTRA.SOLV>
0

>  <SCORE.INTRA.SOLV.lig_0>
-28.6198

>  <SCORE.INTRA.VDW>
0

>  <SCORE.INTRA.VDW.0>
0

>  <SCORE.INTRA.norm>
0

>  <SCORE.RESTR>
0

>  <SCORE.RESTR.CAVITY>
0

>  <SCORE.RESTR.norm>
0

>  <SCORE.SYSTEM>
0

>  <SCORE.SYSTEM.CONST>
0

>  <SCORE.SYSTEM.DIHEDRAL>
0

>  <SCORE.SYSTEM.SOLV>
0

>  <SCORE.SYSTEM.norm>
0

>  <SCORE.heavy>
11

>  <SCORE.norm>
-1.49794

>  <RMSD>
3.437

$$$$
ligand
 OpenBabel11021811483D
libRbt.so/2013.1/901 2013/11/27
 11 12  0  0  0  0  0  0  0  0999 V2000
   34.9348   -9.9869  -38.6417 N   0  0  0  0  0  0  0  0  0  0  0  0
   35.1990   -8.7166  -38.9821 C   0  0  0  0  0  0  0  0  0  0  0  0
   34.2529   -7.9980  -39.7751 N   0  0  0  0  0  0  0  0  0  0  0  0
   36.3272   -8.1123  -38.5944 N   0  0  0  0  0  0  0  0  0  0  0  0
   37.2556   -8.7896  -37.8280 C   0  0  0  0  0  0  0  0  0  0  0  0
   37.0022  -10.0888  -37.4732 C   0  0  0  0  0  0  0  0  0  0  0  0
   35.7870  -10.7195  -37.8966 C   0  0  0  0  0  0  0  0  0  0  0  0
   35.4129  -12.3924  -37.4560 S   0  0  0  0  0  0  0  0  0  0  0  0
   38.0644  -10.5290  -36.7255 N   0  0  0  0  0  0  0  0  0  0  0  0
   38.9613   -9.5137  -36.6220 C   0  0  0  0  0  0  0  0  0  0  0  0
   38.4810   -8.4306  -37.2955 N   0  0  0  0  0  0  0  0  0  0  0  0
  1  2  2  0  0  0  0
  1  7  1  0  0  0  0
  2  3  1  0  0  0  0
  2  4  1  0  0  0  0
  4  5  2  0  0  0  0
  5  6  1  0  0  0  0
  5 11  1  0  0  0  0
  6  7  2  0  0  0  0
  6  9  1  0  0  0  0
  7  8  1  0  0  0  0
  9 10  1  0  0  0  0
 10 11  2  0  0  0  0
M  END
>  <CHROM.1>
36.36743764,-9.90064160,-37.89015647,2.97322584,0.47187622,2.77601751

>  <Name>
ligand

>  <RI>
0

>  <Rbt.Current_Directory>
/home/itssahil/PROJECTS/Mol_Feturizer/New_Systems/rnas/3RKF

>  <Rbt.Executable>
rbdock ($Id: //depot/dev/client3/rdock/2013.1/src/exe/rbdock.cxx#4 $)

>  <Rbt.Library>
libRbt.so (2013.1, Build901 2013/11/27)

>  <Rbt.Parameter_File>
/export/apps/rDock/src/rDock_2013.1_src/data/scripts/dock_solv.prm

>  <Rbt.Receptor>
prm/pocket_docking_3.prm

>  <SCORE>
-16.4751

>  <SCORE.INTER>
-16.4751

>  <SCORE.INTER.CONST>
1

>  <SCORE.INTER.POLAR>
0

>  <SCORE.INTER.ROT>
0

>  <SCORE.INTER.SOLV>
10.5666

>  <SCORE.INTER.VDW>
-18.1056

>  <SCORE.INTER.norm>
-1.49773

>  <SCORE.INTRA>
0

>  <SCORE.INTRA.DIHEDRAL>
0

>  <SCORE.INTRA.DIHEDRAL.0>
0

>  <SCORE.INTRA.POLAR>
0

>  <SCORE.INTRA.POLAR.0>
0

>  <SCORE.INTRA.REPUL>
0

>  <SCORE.INTRA.REPUL.0>
0

>  <SCORE.INTRA.SOLV>
0

>  <SCORE.INTRA.SOLV.lig_0>
-28.6198

>  <SCORE.INTRA.VDW>
0

>  <SCORE.INTRA.VDW.0>
0

>  <SCORE.INTRA.norm>
0

>  <SCORE.RESTR>
0

>  <SCORE.RESTR.CAVITY>
0

>  <SCORE.RESTR.norm>
0

>  <SCORE.SYSTEM>
0

>  <SCORE.SYSTEM.CONST>
0

>  <SCORE.SYSTEM.DIHEDRAL>
0

>  <SCORE.SYSTEM.SOLV>
0

>  <SCORE.SYSTEM.norm>
0

>  <SCORE.heavy>
11

>  <SCORE.norm>
-1.49773

>  <RMSD>
3.437

$$$$
ligand
 OpenBabel11021811483D
libRbt.so/2013.1/901 2013/11/27
 11 12  0  0  0  0  0  0  0  0999 V2000
   34.9621   -9.9499  -38.6693 N   0  0  0  0  0  0  0  0  0  0  0  0
   35.2356   -8.6832  -39.0157 C   0  0  0  0  0  0  0  0  0  0  0  0
   34.3007   -7.9657  -39.8228 N   0  0  0  0  0  0  0  0  0  0  0  0
   36.3628   -8.0816  -38.6212 N   0  0  0  0  0  0  0  0  0  0  0  0
   37.2805   -8.7579  -37.8412 C   0  0  0  0  0  0  0  0  0  0  0  0
   37.0175  -10.0535  -37.4800 C   0  0  0  0  0  0  0  0  0  0  0  0
   35.8035  -10.6813  -37.9110 C   0  0  0  0  0  0  0  0  0  0  0  0
   35.4172  -12.3495  -37.4627 S   0  0  0  0  0  0  0  0  0  0  0  0
   38.0703  -10.4935  -36.7190 N   0  0  0  0  0  0  0  0  0  0  0  0
   38.9709   -9.4818  -36.6137 C   0  0  0  0  0  0  0  0  0  0  0  0
   38.5023   -8.4011  -37.2992 N   0  0  0  0  0  0  0  0  0  0  0  0
  1  2  2  0  0  0  0
  1  7  1  0  0  0  0
  2  3  1  0  0  0  0
  2  4  1  0  0  0  0
  4  5  2  0  0  0  0
  5  6  1  0  0  0  0
  5 11  1  0  0  0  0
  6  7  2  0  0  0  0
  6  9  1  0  0  0  0
  7  8  1  0  0  0  0
  9 10  1  0  0  0  0
 10 11  2  0  0  0  0
M  END
>  <CHROM.1>
36.38773295,-9.86522004,-37.90444541,2.98214233,0.47924695,2.76511247

>  <Name>
ligand

>  <RI>
0

>  <Rbt.Current_Directory>
/home/itssahil/PROJECTS/Mol_Feturizer/New_Systems/rnas/3RKF

>  <Rbt.Executable>
rbdock ($Id: //depot/dev/client3/rdock/2013.1/src/exe/rbdock.cxx#4 $)

>  <Rbt.Library>
libRbt.so (2013.1, Build901 2013/11/27)

>  <Rbt.Parameter_File>
/export/apps/rDock/src/rDock_2013.1_src/data/scripts/dock_solv.prm

>  <Rbt.Receptor>
prm/pocket_docking_4.prm

>  <SCORE>
-16.4994

>  <SCORE.INTER>
-16.4994

>  <SCORE.INTER.CONST>
1

>  <SCORE.INTER.POLAR>
0

>  <SCORE.INTER.ROT>
0

>  <SCORE.INTER.SOLV>
10.7434

>  <SCORE.INTER.VDW>
-18.1807

>  <SCORE.INTER.norm>
-1.49994

>  <SCORE.INTRA>
0

>  <SCORE.INTRA.DIHEDRAL>
0

>  <SCORE.INTRA.DIHEDRAL.0>
0

>  <SCORE.INTRA.POLAR>
0

>  <SCORE.INTRA.POLAR.0>
0

>  <SCORE.INTRA.REPUL>
0

>  <SCORE.INTRA.REPUL.0>
0

>  <SCORE.INTRA.SOLV>
0

>  <SCORE.INTRA.SOLV.lig_0>
-28.6198

>  <SCORE.INTRA.VDW>
0

>  <SCORE.INTRA.VDW.0>
0

>  <SCORE.INTRA.norm>
0

>  <SCORE.RESTR>
0

>  <SCORE.RESTR.CAVITY>
0

>  <SCORE.RESTR.norm>
0

>  <SCORE.SYSTEM>
0

>  <SCORE.SYSTEM.CONST>
0

>  <SCORE.SYSTEM.DIHEDRAL>
0

>  <SCORE.SYSTEM.SOLV>
0

>  <SCORE.SYSTEM.norm>
0

>  <SCORE.heavy>
11

>  <SCORE.norm>
-1.49994

>  <RMSD>
3.437

$$$$
ligand
 OpenBabel11021811483D
libRbt.so/2013.1/901 2013/11/27
 11 12  0  0  0  0  0  0  0  0999 V2000
   34.9593   -9.9147  -38.6539 N   0  0  0  0  0  0  0  0  0  0  0  0
   35.2334   -8.6473  -38.9975 C   0  0  0  0  0  0  0  0  0  0  0  0
   34.2950   -7.9250  -39.7963 N   0  0  0  0  0  0  0  0  0  0  0  0
   36.3641   -8.0494  -38.6077 N   0  0  0  0  0  0  0  0  0  0  0  0
   37.2852   -8.7304  -37.8357 C   0  0  0  0  0  0  0  0  0  0  0  0
   37.0218  -10.0267  -37.4776 C   0  0  0  0  0  0  0  0  0  0  0  0
   35.8038  -10.6505  -37.9034 C   0  0  0  0  0  0  0  0  0  0  0  0
   35.4168  -12.3195  -37.4588 S   0  0  0  0  0  0  0  0  0  0  0  0
   38.0782  -10.4716  -36.7246 N   0  0  0  0  0  0  0  0  0  0  0  0
   38.9815   -9.4620  -36.6211 C   0  0  0  0  0  0  0  0  0  0  0  0
   38.5110   -8.3779  -37.2999 N   0  0  0  0  0  0  0  0  0  0  0  0
  1  2  2  0  0  0  0
  1  7  1  0  0  0  0
  2  3  1  0  0  0  0
  2  4  1  0  0  0  0
  4  5  2  0  0  0  0
  5  6  1  0  0  0  0
  5 11  1  0  0  0  0
  6  7  2  0  0  0  0
  6  9  1  0  0  0  0
  7  8  1  0  0  0  0
  9 10  1  0  0  0  0
 10 11  2  0  0  0  0
M  END
>  <CHROM.1>
36.38976796,-9.83563223,-37.89749361,2.98176695,0.47283716,2.76886605

>  <Name>
ligand

>  <RI>
0

>  <Rbt.Current_Directory>
/home/itssahil/PROJECTS/Mol_Feturizer/New_Systems/rnas/3RKF

>  <Rbt.Executable>
rbdock ($Id: //depot/dev/client3/rdock/2013.1/src/exe/rbdock.cxx#4 $)

>  <Rbt.Library>
libRbt.so (2013.1, Build901 2013/11/27)

>  <Rbt.Parameter_File>
/export/apps/rDock/src/rDock_2013.1_src/data/scripts/dock_solv.prm

>  <Rbt.Receptor>
prm/pocket_docking_6.prm

>  <SCORE>
-16.4708

>  <SCORE.INTER>
-16.4708

>  <SCORE.INTER.CONST>
1

>  <SCORE.INTER.POLAR>
0

>  <SCORE.INTER.ROT>
0

>  <SCORE.INTER.SOLV>
10.5985

>  <SCORE.INTER.VDW>
-18.1134

>  <SCORE.INTER.norm>
-1.49735

>  <SCORE.INTRA>
0

>  <SCORE.INTRA.DIHEDRAL>
0

>  <SCORE.INTRA.DIHEDRAL.0>
0

>  <SCORE.INTRA.POLAR>
0

>  <SCORE.INTRA.POLAR.0>
0

>  <SCORE.INTRA.REPUL>
0

>  <SCORE.INTRA.REPUL.0>
0

>  <SCORE.INTRA.SOLV>
0

>  <SCORE.INTRA.SOLV.lig_0>
-28.6198

>  <SCORE.INTRA.VDW>
0

>  <SCORE.INTRA.VDW.0>
0

>  <SCORE.INTRA.norm>
0

>  <SCORE.RESTR>
0

>  <SCORE.RESTR.CAVITY>
0

>  <SCORE.RESTR.norm>
0

>  <SCORE.SYSTEM>
0

>  <SCORE.SYSTEM.CONST>
0

>  <SCORE.SYSTEM.DIHEDRAL>
0

>  <SCORE.SYSTEM.SOLV>
0

>  <SCORE.SYSTEM.norm>
0

>  <SCORE.heavy>
11

>  <SCORE.norm>
-1.49735

>  <RMSD>
3.438

$$$$
ligand
 OpenBabel11021811483D
libRbt.so/2013.1/901 2013/11/27
 11 12  0  0  0  0  0  0  0  0999 V2000
   34.9790   -9.9223  -38.6566 N   0  0  0  0  0  0  0  0  0  0  0  0
   35.2483   -8.6526  -38.9953 C   0  0  0  0  0  0  0  0  0  0  0  0
   34.3113   -7.9337  -39.7987 N   0  0  0  0  0  0  0  0  0  0  0  0
   36.3730   -8.0494  -38.5964 N   0  0  0  0  0  0  0  0  0  0  0  0
   37.2926   -8.7270  -37.8197 C   0  0  0  0  0  0  0  0  0  0  0  0
   37.0340  -10.0256  -37.4664 C   0  0  0  0  0  0  0  0  0  0  0  0
   35.8225  -10.6553  -37.9020 C   0  0  0  0  0  0  0  0  0  0  0  0
   35.4419  -12.3274  -37.4640 S   0  0  0  0  0  0  0  0  0  0  0  0
   38.0878  -10.4664  -36.7073 N   0  0  0  0  0  0  0  0  0  0  0  0
   38.9847   -9.4520  -36.5953 C   0  0  0  0  0  0  0  0  0  0  0  0
   38.5127   -8.3690  -37.2747 N   0  0  0  0  0  0  0  0  0  0  0  0
  1  2  2  0  0  0  0
  1  7  1  0  0  0  0
  2  3  1  0  0  0  0
  2  4  1  0  0  0  0
  4  5  2  0  0  0  0
  5  6  1  0  0  0  0
  5 11  1  0  0  0  0
  6  7  2  0  0  0  0
  6  9  1  0  0  0  0
  7  8  1  0  0  0  0
  9 10  1  0  0  0  0
 10 11  2  0  0  0  0
M  END
>  <CHROM.1>
36.40381717,-9.83708925,-37.89019716,2.97866109,0.48122293,2.77266111

>  <Name>
ligand

>  <RI>
0

>  <Rbt.Current_Directory>
/home/itssahil/PROJECTS/Mol_Feturizer/New_Systems/rnas/3RKF

>  <Rbt.Executable>
rbdock ($Id: //depot/dev/client3/rdock/2013.1/src/exe/rbdock.cxx#4 $)

>  <Rbt.Library>
libRbt.so (2013.1, Build901 2013/11/27)

>  <Rbt.Parameter_File>
/export/apps/rDock/src/rDock_2013.1_src/data/scripts/dock_solv.prm

>  <Rbt.Receptor>
prm/pocket_docking_7.prm

>  <SCORE>
-16.4777

>  <SCORE.INTER>
-16.4777

>  <SCORE.INTER.CONST>
1

>  <SCORE.INTER.POLAR>
0

>  <SCORE.INTER.ROT>
0

>  <SCORE.INTER.SOLV>
10.6482

>  <SCORE.INTER.VDW>
-18.1345

>  <SCORE.INTER.norm>
-1.49797

>  <SCORE.INTRA>
0

>  <SCORE.INTRA.DIHEDRAL>
0

>  <SCORE.INTRA.DIHEDRAL.0>
0

>  <SCORE.INTRA.POLAR>
0

>  <SCORE.INTRA.POLAR.0>
0

>  <SCORE.INTRA.REPUL>
0

>  <SCORE.INTRA.REPUL.0>
0

>  <SCORE.INTRA.SOLV>
0

>  <SCORE.INTRA.SOLV.lig_0>
-28.6198

>  <SCORE.INTRA.VDW>
0

>  <SCORE.INTRA.VDW.0>
0

>  <SCORE.INTRA.norm>
0

>  <SCORE.RESTR>
0

>  <SCORE.RESTR.CAVITY>
0

>  <SCORE.RESTR.norm>
0

>  <SCORE.SYSTEM>
0

>  <SCORE.SYSTEM.CONST>
0

>  <SCORE.SYSTEM.DIHEDRAL>
0

>  <SCORE.SYSTEM.SOLV>
0

>  <SCORE.SYSTEM.norm>
0

>  <SCORE.heavy>
11

>  <SCORE.norm>
-1.49797

>  <RMSD>
3.438

$$$$
ligand
 OpenBabel11021811483D
libRbt.so/2013.1/901 2013/11/27
 11 12  0  0  0  0  0  0  0  0999 V2000
   34.9782   -9.9195  -38.6570 N   0  0  0  0  0  0  0  0  0  0  0  0
   35.2459   -8.6491  -38.9944 C   0  0  0  0  0  0  0  0  0  0  0  0
   34.3084   -7.9308  -39.7978 N   0  0  0  0  0  0  0  0  0  0  0  0
   36.3694   -8.0445  -38.5942 N   0  0  0  0  0  0  0  0  0  0  0  0
   37.2895   -8.7215  -37.8176 C   0  0  0  0  0  0  0  0  0  0  0  0
   37.0326  -10.0208  -37.4656 C   0  0  0  0  0  0  0  0  0  0  0  0
   35.8223  -10.6519  -37.9026 C   0  0  0  0  0  0  0  0  0  0  0  0
   35.4439  -12.3250  -37.4663 S   0  0  0  0  0  0  0  0  0  0  0  0
   38.0865  -10.4608  -36.7063 N   0  0  0  0  0  0  0  0  0  0  0  0
   38.9819   -9.4452  -36.5928 C   0  0  0  0  0  0  0  0  0  0  0  0
   38.5088   -8.3622  -37.2714 N   0  0  0  0  0  0  0  0  0  0  0  0
  1  2  2  0  0  0  0
  1  7  1  0  0  0  0
  2  3  1  0  0  0  0
  2  4  1  0  0  0  0
  4  5  2  0  0  0  0
  5  6  1  0  0  0  0
  5 11  1  0  0  0  0
  6  7  2  0  0  0  0
  6  9  1  0  0  0  0
  7  8  1  0  0  0  0
  9 10  1  0  0  0  0
 10 11  2  0  0  0  0
M  END
>  <CHROM.1>
36.40242857,-9.83284630,-37.88964402,2.97737844,0.48235468,2.77416626

>  <Name>
ligand

>  <RI>
0

>  <Rbt.Current_Directory>
/home/itssahil/PROJECTS/Mol_Feturizer/New_Systems/rnas/3RKF

>  <Rbt.Executable>
rbdock ($Id: //depot/dev/client3/rdock/2013.1/src/exe/rbdock.cxx#4 $)

>  <Rbt.Library>
libRbt.so (2013.1, Build901 2013/11/27)

>  <Rbt.Parameter_File>
/export/apps/rDock/src/rDock_2013.1_src/data/scripts/dock_solv.prm

>  <Rbt.Receptor>
prm/blind_docking_80.prm

>  <SCORE>
-16.4791

>  <SCORE.INTER>
-16.4791

>  <SCORE.INTER.CONST>
1

>  <SCORE.INTER.POLAR>
0

>  <SCORE.INTER.ROT>
0

>  <SCORE.INTER.SOLV>
10.6273

>  <SCORE.INTER.VDW>
-18.1285

>  <SCORE.INTER.norm>
-1.4981

>  <SCORE.INTRA>
0

>  <SCORE.INTRA.DIHEDRAL>
0

>  <SCORE.INTRA.DIHEDRAL.0>
0

>  <SCORE.INTRA.POLAR>
0

>  <SCORE.INTRA.POLAR.0>
0

>  <SCORE.INTRA.REPUL>
0

>  <SCORE.INTRA.REPUL.0>
0

>  <SCORE.INTRA.SOLV>
0

>  <SCORE.INTRA.SOLV.lig_0>
-28.6198

>  <SCORE.INTRA.VDW>
0

>  <SCORE.INTRA.VDW.0>
0

>  <SCORE.INTRA.norm>
0

>  <SCORE.RESTR>
0

>  <SCORE.RESTR.CAVITY>
0

>  <SCORE.RESTR.norm>
0

>  <SCORE.SYSTEM>
0

>  <SCORE.SYSTEM.CONST>
0

>  <SCORE.SYSTEM.DIHEDRAL>
0

>  <SCORE.SYSTEM.SOLV>
0

>  <SCORE.SYSTEM.norm>
0

>  <SCORE.heavy>
11

>  <SCORE.norm>
-1.4981

>  <RMSD>
3.439

$$$$
ligand
 OpenBabel11021811483D
libRbt.so/2013.1/901 2013/11/27
 11 12  0  0  0  0  0  0  0  0999 V2000
   34.9804  -10.0042  -38.6519 N   0  0  0  0  0  0  0  0  0  0  0  0
   35.2460   -8.7372  -39.0034 C   0  0  0  0  0  0  0  0  0  0  0  0
   34.3093   -8.0307  -39.8181 N   0  0  0  0  0  0  0  0  0  0  0  0
   36.3669   -8.1252  -38.6069 N   0  0  0  0  0  0  0  0  0  0  0  0
   37.2862   -8.7907  -37.8195 C   0  0  0  0  0  0  0  0  0  0  0  0
   37.0313  -10.0864  -37.4530 C   0  0  0  0  0  0  0  0  0  0  0  0
   35.8240  -10.7255  -37.8863 C   0  0  0  0  0  0  0  0  0  0  0  0
   35.4482  -12.3943  -37.4315 S   0  0  0  0  0  0  0  0  0  0  0  0
   38.0839  -10.5148  -36.6853 N   0  0  0  0  0  0  0  0  0  0  0  0
   38.9764   -9.4957  -36.5809 C   0  0  0  0  0  0  0  0  0  0  0  0
   38.5028   -8.4220  -37.2738 N   0  0  0  0  0  0  0  0  0  0  0  0
  1  2  2  0  0  0  0
  1  7  1  0  0  0  0
  2  3  1  0  0  0  0
  2  4  1  0  0  0  0
  4  5  2  0  0  0  0
  5  6  1  0  0  0  0
  5 11  1  0  0  0  0
  6  7  2  0  0  0  0
  6  9  1  0  0  0  0
  7  8  1  0  0  0  0
  9 10  1  0  0  0  0
 10 11  2  0  0  0  0
M  END
>  <CHROM.1>
36.40201185,-9.90497836,-37.88117571,2.97609034,0.48614873,2.76298567

>  <Name>
ligand

>  <RI>
0

>  <Rbt.Current_Directory>
/home/itssahil/PROJECTS/Mol_Feturizer/New_Systems/rnas/3RKF

>  <Rbt.Executable>
rbdock ($Id: //depot/dev/client3/rdock/2013.1/src/exe/rbdock.cxx#4 $)

>  <Rbt.Library>
libRbt.so (2013.1, Build901 2013/11/27)

>  <Rbt.Parameter_File>
/export/apps/rDock/src/rDock_2013.1_src/data/scripts/dock_solv.prm

>  <Rbt.Receptor>
prm/pocket_docking_5.prm

>  <SCORE>
-16.4622

>  <SCORE.INTER>
-16.4622

>  <SCORE.INTER.CONST>
1

>  <SCORE.INTER.POLAR>
0

>  <SCORE.INTER.ROT>
0

>  <SCORE.INTER.SOLV>
10.8379

>  <SCORE.INTER.VDW>
-18.1874

>  <SCORE.INTER.norm>
-1.49656

>  <SCORE.INTRA>
0

>  <SCORE.INTRA.DIHEDRAL>
0

>  <SCORE.INTRA.DIHEDRAL.0>
0

>  <SCORE.INTRA.POLAR>
0

>  <SCORE.INTRA.POLAR.0>
0

>  <SCORE.INTRA.REPUL>
0

>  <SCORE.INTRA.REPUL.0>
0

>  <SCORE.INTRA.SOLV>
0

>  <SCORE.INTRA.SOLV.lig_0>
-28.6198

>  <SCORE.INTRA.VDW>
0

>  <SCORE.INTRA.VDW.0>
0

>  <SCORE.INTRA.norm>
0

>  <SCORE.RESTR>
0

>  <SCORE.RESTR.CAVITY>
0

>  <SCORE.RESTR.norm>
0

>  <SCORE.SYSTEM>
0

>  <SCORE.SYSTEM.CONST>
0

>  <SCORE.SYSTEM.DIHEDRAL>
0

>  <SCORE.SYSTEM.SOLV>
0

>  <SCORE.SYSTEM.norm>
0

>  <SCORE.heavy>
11

>  <SCORE.norm>
-1.49656

>  <RMSD>
3.439

$$$$
ligand
 OpenBabel11021811483D
libRbt.so/2013.1/901 2013/11/27
 11 12  0  0  0  0  0  0  0  0999 V2000
   34.9307   -9.9782  -38.6350 N   0  0  0  0  0  0  0  0  0  0  0  0
   35.1932   -8.7074  -38.9750 C   0  0  0  0  0  0  0  0  0  0  0  0
   34.2450   -7.9890  -39.7656 N   0  0  0  0  0  0  0  0  0  0  0  0
   36.3216   -8.1026  -38.5891 N   0  0  0  0  0  0  0  0  0  0  0  0
   37.2522   -8.7796  -37.8251 C   0  0  0  0  0  0  0  0  0  0  0  0
   37.0005  -10.0794  -37.4707 C   0  0  0  0  0  0  0  0  0  0  0  0
   35.7850  -10.7107  -37.8923 C   0  0  0  0  0  0  0  0  0  0  0  0
   35.4131  -12.3843  -37.4522 S   0  0  0  0  0  0  0  0  0  0  0  0
   38.0645  -10.5193  -36.7255 N   0  0  0  0  0  0  0  0  0  0  0  0
   38.9608   -9.5033  -36.6231 C   0  0  0  0  0  0  0  0  0  0  0  0
   38.4783   -8.4201  -37.2947 N   0  0  0  0  0  0  0  0  0  0  0  0
  1  2  2  0  0  0  0
  1  7  1  0  0  0  0
  2  3  1  0  0  0  0
  2  4  1  0  0  0  0
  4  5  2  0  0  0  0
  5  6  1  0  0  0  0
  5 11  1  0  0  0  0
  6  7  2  0  0  0  0
  6  9  1  0  0  0  0
  7  8  1  0  0  0  0
  9 10  1  0  0  0  0
 10 11  2  0  0  0  0
M  END
>  <CHROM.1>
36.36477448,-9.89137329,-37.88633344,2.97158054,0.47030415,2.77752827

>  <Name>
ligand

>  <RI>
0

>  <Rbt.Current_Directory>
/home/itssahil/PROJECTS/Mol_Feturizer/New_Systems/rnas/3RKF

>  <Rbt.Executable>
rbdock ($Id: //depot/dev/client3/rdock/2013.1/src/exe/rbdock.cxx#4 $)

>  <Rbt.Library>
libRbt.so (2013.1, Build901 2013/11/27)

>  <Rbt.Parameter_File>
/export/apps/rDock/src/rDock_2013.1_src/data/scripts/dock_solv.prm

>  <Rbt.Receptor>
prm/pocket_docking_6.prm

>  <SCORE>
-16.4769

>  <SCORE.INTER>
-16.4769

>  <SCORE.INTER.CONST>
1

>  <SCORE.INTER.POLAR>
0

>  <SCORE.INTER.ROT>
0

>  <SCORE.INTER.SOLV>
10.5018

>  <SCORE.INTER.VDW>
-18.0852

>  <SCORE.INTER.norm>
-1.4979

>  <SCORE.INTRA>
0

>  <SCORE.INTRA.DIHEDRAL>
0

>  <SCORE.INTRA.DIHEDRAL.0>
0

>  <SCORE.INTRA.POLAR>
0

>  <SCORE.INTRA.POLAR.0>
0

>  <SCORE.INTRA.REPUL>
0

>  <SCORE.INTRA.REPUL.0>
0

>  <SCORE.INTRA.SOLV>
0

>  <SCORE.INTRA.SOLV.lig_0>
-28.6198

>  <SCORE.INTRA.VDW>
0

>  <SCORE.INTRA.VDW.0>
0

>  <SCORE.INTRA.norm>
0

>  <SCORE.RESTR>
0

>  <SCORE.RESTR.CAVITY>
0

>  <SCORE.RESTR.norm>
0

>  <SCORE.SYSTEM>
0

>  <SCORE.SYSTEM.CONST>
0

>  <SCORE.SYSTEM.DIHEDRAL>
0

>  <SCORE.SYSTEM.SOLV>
0

>  <SCORE.SYSTEM.norm>
0

>  <SCORE.heavy>
11

>  <SCORE.norm>
-1.4979

>  <RMSD>
3.439

$$$$
ligand
 OpenBabel11021811483D
libRbt.so/2013.1/901 2013/11/27
 11 12  0  0  0  0  0  0  0  0999 V2000
   34.9614   -9.9510  -38.6733 N   0  0  0  0  0  0  0  0  0  0  0  0
   35.2314   -8.6831  -39.0179 C   0  0  0  0  0  0  0  0  0  0  0  0
   34.2939   -7.9668  -39.8231 N   0  0  0  0  0  0  0  0  0  0  0  0
   36.3572   -8.0791  -38.6232 N   0  0  0  0  0  0  0  0  0  0  0  0
   37.2773   -8.7541  -37.8450 C   0  0  0  0  0  0  0  0  0  0  0  0
   37.0180  -10.0510  -37.4856 C   0  0  0  0  0  0  0  0  0  0  0  0
   35.8054  -10.6814  -37.9167 C   0  0  0  0  0  0  0  0  0  0  0  0
   35.4239  -12.3513  -37.4709 S   0  0  0  0  0  0  0  0  0  0  0  0
   38.0725  -10.4894  -36.7261 N   0  0  0  0  0  0  0  0  0  0  0  0
   38.9705   -9.4754  -36.6198 C   0  0  0  0  0  0  0  0  0  0  0  0
   38.4985   -8.3949  -37.3032 N   0  0  0  0  0  0  0  0  0  0  0  0
  1  2  2  0  0  0  0
  1  7  1  0  0  0  0
  2  3  1  0  0  0  0
  2  4  1  0  0  0  0
  4  5  2  0  0  0  0
  5  6  1  0  0  0  0
  5 11  1  0  0  0  0
  6  7  2  0  0  0  0
  6  9  1  0  0  0  0
  7  8  1  0  0  0  0
  9 10  1  0  0  0  0
 10 11  2  0  0  0  0
M  END
>  <CHROM.1>
36.38741293,-9.86374326,-37.90930483,2.97902825,0.47956622,2.76813834

>  <Name>
ligand

>  <RI>
0

>  <Rbt.Current_Directory>
/home/itssahil/PROJECTS/Mol_Feturizer/New_Systems/rnas/3RKF

>  <Rbt.Executable>
rbdock ($Id: //depot/dev/client3/rdock/2013.1/src/exe/rbdock.cxx#4 $)

>  <Rbt.Library>
libRbt.so (2013.1, Build901 2013/11/27)

>  <Rbt.Parameter_File>
/export/apps/rDock/src/rDock_2013.1_src/data/scripts/dock_solv.prm

>  <Rbt.Receptor>
prm/blind_docking_80.prm

>  <SCORE>
-16.4989

>  <SCORE.INTER>
-16.4989

>  <SCORE.INTER.CONST>
1

>  <SCORE.INTER.POLAR>
0

>  <SCORE.INTER.ROT>
0

>  <SCORE.INTER.SOLV>
10.731

>  <SCORE.INTER.VDW>
-18.1763

>  <SCORE.INTER.norm>
-1.4999

>  <SCORE.INTRA>
0

>  <SCORE.INTRA.DIHEDRAL>
0

>  <SCORE.INTRA.DIHEDRAL.0>
0

>  <SCORE.INTRA.POLAR>
0

>  <SCORE.INTRA.POLAR.0>
0

>  <SCORE.INTRA.REPUL>
0

>  <SCORE.INTRA.REPUL.0>
0

>  <SCORE.INTRA.SOLV>
0

>  <SCORE.INTRA.SOLV.lig_0>
-28.6198

>  <SCORE.INTRA.VDW>
0

>  <SCORE.INTRA.VDW.0>
0

>  <SCORE.INTRA.norm>
0

>  <SCORE.RESTR>
0

>  <SCORE.RESTR.CAVITY>
0

>  <SCORE.RESTR.norm>
0

>  <SCORE.SYSTEM>
0

>  <SCORE.SYSTEM.CONST>
0

>  <SCORE.SYSTEM.DIHEDRAL>
0

>  <SCORE.SYSTEM.SOLV>
0

>  <SCORE.SYSTEM.norm>
0

>  <SCORE.heavy>
11

>  <SCORE.norm>
-1.4999

>  <RMSD>
3.440

$$$$
ligand
 OpenBabel11021811483D
libRbt.so/2013.1/901 2013/11/27
 11 12  0  0  0  0  0  0  0  0999 V2000
   34.9473  -10.0171  -38.6597 N   0  0  0  0  0  0  0  0  0  0  0  0
   35.2152   -8.7514  -39.0143 C   0  0  0  0  0  0  0  0  0  0  0  0
   34.2753   -8.0421  -39.8229 N   0  0  0  0  0  0  0  0  0  0  0  0
   36.3413   -8.1434  -38.6266 N   0  0  0  0  0  0  0  0  0  0  0  0
   37.2638   -8.8118  -37.8454 C   0  0  0  0  0  0  0  0  0  0  0  0
   37.0066  -10.1062  -37.4758 C   0  0  0  0  0  0  0  0  0  0  0  0
   35.7936  -10.7410  -37.8996 C   0  0  0  0  0  0  0  0  0  0  0  0
   35.4147  -12.4079  -37.4405 S   0  0  0  0  0  0  0  0  0  0  0  0
   38.0631  -10.5379  -36.7154 N   0  0  0  0  0  0  0  0  0  0  0  0
   38.9603   -9.5222  -36.6186 C   0  0  0  0  0  0  0  0  0  0  0  0
   38.4858   -8.4473  -37.3090 N   0  0  0  0  0  0  0  0  0  0  0  0
  1  2  2  0  0  0  0
  1  7  1  0  0  0  0
  2  3  1  0  0  0  0
  2  4  1  0  0  0  0
  4  5  2  0  0  0  0
  5  6  1  0  0  0  0
  5 11  1  0  0  0  0
  6  7  2  0  0  0  0
  6  9  1  0  0  0  0
  7  8  1  0  0  0  0
  9 10  1  0  0  0  0
 10 11  2  0  0  0  0
M  END
>  <CHROM.1>
36.37487479,-9.92268704,-37.89953979,2.97709078,0.47790481,2.76159362

>  <Name>
ligand

>  <RI>
0

>  <Rbt.Current_Directory>
/home/itssahil/PROJECTS/Mol_Feturizer/New_Systems/rnas/3RKF

>  <Rbt.Executable>
rbdock ($Id: //depot/dev/client3/rdock/2013.1/src/exe/rbdock.cxx#4 $)

>  <Rbt.Library>
libRbt.so (2013.1, Build901 2013/11/27)

>  <Rbt.Parameter_File>
/export/apps/rDock/src/rDock_2013.1_src/data/scripts/dock_solv.prm

>  <Rbt.Receptor>
prm/pocket_docking_6.prm

>  <SCORE>
-16.4859

>  <SCORE.INTER>
-16.4859

>  <SCORE.INTER.CONST>
1

>  <SCORE.INTER.POLAR>
0

>  <SCORE.INTER.ROT>
0

>  <SCORE.INTER.SOLV>
10.8051

>  <SCORE.INTER.VDW>
-18.1923

>  <SCORE.INTER.norm>
-1.49872

>  <SCORE.INTRA>
0

>  <SCORE.INTRA.DIHEDRAL>
0

>  <SCORE.INTRA.DIHEDRAL.0>
0

>  <SCORE.INTRA.POLAR>
0

>  <SCORE.INTRA.POLAR.0>
0

>  <SCORE.INTRA.REPUL>
0

>  <SCORE.INTRA.REPUL.0>
0

>  <SCORE.INTRA.SOLV>
0

>  <SCORE.INTRA.SOLV.lig_0>
-28.6198

>  <SCORE.INTRA.VDW>
0

>  <SCORE.INTRA.VDW.0>
0

>  <SCORE.INTRA.norm>
0

>  <SCORE.RESTR>
0

>  <SCORE.RESTR.CAVITY>
0

>  <SCORE.RESTR.norm>
0

>  <SCORE.SYSTEM>
0

>  <SCORE.SYSTEM.CONST>
0

>  <SCORE.SYSTEM.DIHEDRAL>
0

>  <SCORE.SYSTEM.SOLV>
0

>  <SCORE.SYSTEM.norm>
0

>  <SCORE.heavy>
11

>  <SCORE.norm>
-1.49872

>  <RMSD>
3.440

$$$$
ligand
 OpenBabel11021811483D
libRbt.so/2013.1/901 2013/11/27
 11 12  0  0  0  0  0  0  0  0999 V2000
   34.9611   -9.9437  -38.6773 N   0  0  0  0  0  0  0  0  0  0  0  0
   35.2340   -8.6775  -39.0261 C   0  0  0  0  0  0  0  0  0  0  0  0
   34.2979   -7.9615  -39.8332 N   0  0  0  0  0  0  0  0  0  0  0  0
   36.3614   -8.0751  -38.6339 N   0  0  0  0  0  0  0  0  0  0  0  0
   37.2802   -8.7499  -37.8539 C   0  0  0  0  0  0  0  0  0  0  0  0
   37.0180  -10.0450  -37.4903 C   0  0  0  0  0  0  0  0  0  0  0  0
   35.8036  -10.6738  -37.9189 C   0  0  0  0  0  0  0  0  0  0  0  0
   35.4181  -12.3413  -37.4674 S   0  0  0  0  0  0  0  0  0  0  0  0
   38.0717  -10.4835  -36.7299 N   0  0  0  0  0  0  0  0  0  0  0  0
   38.9722   -9.4714  -36.6273 C   0  0  0  0  0  0  0  0  0  0  0  0
   38.5026   -8.3919  -37.3139 N   0  0  0  0  0  0  0  0  0  0  0  0
  1  2  2  0  0  0  0
  1  7  1  0  0  0  0
  2  3  1  0  0  0  0
  2  4  1  0  0  0  0
  4  5  2  0  0  0  0
  5  6  1  0  0  0  0
  5 11  1  0  0  0  0
  6  7  2  0  0  0  0
  6  9  1  0  0  0  0
  7  8  1  0  0  0  0
  9 10  1  0  0  0  0
 10 11  2  0  0  0  0
M  END
>  <CHROM.1>
36.38762082,-9.85749916,-37.91431299,2.98142080,0.47822242,2.76383057

>  <Name>
ligand

>  <RI>
0

>  <Rbt.Current_Directory>
/home/itssahil/PROJECTS/Mol_Feturizer/New_Systems/rnas/3RKF

>  <Rbt.Executable>
rbdock ($Id: //depot/dev/client3/rdock/2013.1/src/exe/rbdock.cxx#4 $)

>  <Rbt.Library>
libRbt.so (2013.1, Build901 2013/11/27)

>  <Rbt.Parameter_File>
/export/apps/rDock/src/rDock_2013.1_src/data/scripts/dock_solv.prm

>  <Rbt.Receptor>
prm/blind_docking_80.prm

>  <SCORE>
-16.4993

>  <SCORE.INTER>
-16.4993

>  <SCORE.INTER.CONST>
1

>  <SCORE.INTER.POLAR>
0

>  <SCORE.INTER.ROT>
0

>  <SCORE.INTER.SOLV>
10.7573

>  <SCORE.INTER.VDW>
-18.1853

>  <SCORE.INTER.norm>
-1.49994

>  <SCORE.INTRA>
0

>  <SCORE.INTRA.DIHEDRAL>
0

>  <SCORE.INTRA.DIHEDRAL.0>
0

>  <SCORE.INTRA.POLAR>
0

>  <SCORE.INTRA.POLAR.0>
0

>  <SCORE.INTRA.REPUL>
0

>  <SCORE.INTRA.REPUL.0>
0

>  <SCORE.INTRA.SOLV>
0

>  <SCORE.INTRA.SOLV.lig_0>
-28.6198

>  <SCORE.INTRA.VDW>
0

>  <SCORE.INTRA.VDW.0>
0

>  <SCORE.INTRA.norm>
0

>  <SCORE.RESTR>
0

>  <SCORE.RESTR.CAVITY>
0

>  <SCORE.RESTR.norm>
0

>  <SCORE.SYSTEM>
0

>  <SCORE.SYSTEM.CONST>
0

>  <SCORE.SYSTEM.DIHEDRAL>
0

>  <SCORE.SYSTEM.SOLV>
0

>  <SCORE.SYSTEM.norm>
0

>  <SCORE.heavy>
11

>  <SCORE.norm>
-1.49994

>  <RMSD>
3.441

$$$$
ligand
 OpenBabel11021811483D
libRbt.so/2013.1/901 2013/11/27
 11 12  0  0  0  0  0  0  0  0999 V2000
   34.9768  -10.0046  -38.6501 N   0  0  0  0  0  0  0  0  0  0  0  0
   35.2457   -8.7402  -39.0084 C   0  0  0  0  0  0  0  0  0  0  0  0
   34.3057   -8.0321  -39.8179 N   0  0  0  0  0  0  0  0  0  0  0  0
   36.3728   -8.1323  -38.6235 N   0  0  0  0  0  0  0  0  0  0  0  0
   37.2953   -8.7996  -37.8414 C   0  0  0  0  0  0  0  0  0  0  0  0
   37.0372  -10.0927  -37.4681 C   0  0  0  0  0  0  0  0  0  0  0  0
   35.8232  -10.7274  -37.8890 C   0  0  0  0  0  0  0  0  0  0  0  0
   35.4430  -12.3926  -37.4250 S   0  0  0  0  0  0  0  0  0  0  0  0
   38.0941  -10.5235  -36.7076 N   0  0  0  0  0  0  0  0  0  0  0  0
   38.9924   -9.5085  -36.6145 C   0  0  0  0  0  0  0  0  0  0  0  0
   38.5183   -8.4349  -37.3072 N   0  0  0  0  0  0  0  0  0  0  0  0
  1  2  2  0  0  0  0
  1  7  1  0  0  0  0
  2  3  1  0  0  0  0
  2  4  1  0  0  0  0
  4  5  2  0  0  0  0
  5  6  1  0  0  0  0
  5 11  1  0  0  0  0
  6  7  2  0  0  0  0
  6  9  1  0  0  0  0
  7  8  1  0  0  0  0
  9 10  1  0  0  0  0
 10 11  2  0  0  0  0
M  END
>  <CHROM.1>
36.40524037,-9.90970047,-37.89168552,2.97774271,0.47656766,2.75861121

>  <Name>
ligand

>  <RI>
0

>  <Rbt.Current_Directory>
/home/itssahil/PROJECTS/Mol_Feturizer/New_Systems/rnas/3RKF

>  <Rbt.Executable>
rbdock ($Id: //depot/dev/client3/rdock/2013.1/src/exe/rbdock.cxx#4 $)

>  <Rbt.Library>
libRbt.so (2013.1, Build901 2013/11/27)

>  <Rbt.Parameter_File>
/export/apps/rDock/src/rDock_2013.1_src/data/scripts/dock_solv.prm

>  <Rbt.Receptor>
prm/pocket_docking_3.prm

>  <SCORE>
-16.487

>  <SCORE.INTER>
-16.487

>  <SCORE.INTER.CONST>
1

>  <SCORE.INTER.POLAR>
0

>  <SCORE.INTER.ROT>
0

>  <SCORE.INTER.SOLV>
10.8584

>  <SCORE.INTER.VDW>
-18.2108

>  <SCORE.INTER.norm>
-1.49882

>  <SCORE.INTRA>
0

>  <SCORE.INTRA.DIHEDRAL>
0

>  <SCORE.INTRA.DIHEDRAL.0>
0

>  <SCORE.INTRA.POLAR>
0

>  <SCORE.INTRA.POLAR.0>
0

>  <SCORE.INTRA.REPUL>
0

>  <SCORE.INTRA.REPUL.0>
0

>  <SCORE.INTRA.SOLV>
0

>  <SCORE.INTRA.SOLV.lig_0>
-28.6198

>  <SCORE.INTRA.VDW>
0

>  <SCORE.INTRA.VDW.0>
0

>  <SCORE.INTRA.norm>
0

>  <SCORE.RESTR>
0

>  <SCORE.RESTR.CAVITY>
0

>  <SCORE.RESTR.norm>
0

>  <SCORE.SYSTEM>
0

>  <SCORE.SYSTEM.CONST>
0

>  <SCORE.SYSTEM.DIHEDRAL>
0

>  <SCORE.SYSTEM.SOLV>
0

>  <SCORE.SYSTEM.norm>
0

>  <SCORE.heavy>
11

>  <SCORE.norm>
-1.49882

>  <RMSD>
3.441

$$$$
ligand
 OpenBabel11021811483D
libRbt.so/2013.1/901 2013/11/27
 11 12  0  0  0  0  0  0  0  0999 V2000
   34.9732  -10.0048  -38.6542 N   0  0  0  0  0  0  0  0  0  0  0  0
   35.2416   -8.7401  -39.0119 C   0  0  0  0  0  0  0  0  0  0  0  0
   34.3025   -8.0327  -39.8231 N   0  0  0  0  0  0  0  0  0  0  0  0
   36.3674   -8.1312  -38.6248 N   0  0  0  0  0  0  0  0  0  0  0  0
   37.2891   -8.7977  -37.8410 C   0  0  0  0  0  0  0  0  0  0  0  0
   37.0314  -10.0911  -37.4683 C   0  0  0  0  0  0  0  0  0  0  0  0
   35.8187  -10.7268  -37.8915 C   0  0  0  0  0  0  0  0  0  0  0  0
   35.4392  -12.3925  -37.4284 S   0  0  0  0  0  0  0  0  0  0  0  0
   38.0872  -10.5210  -36.7058 N   0  0  0  0  0  0  0  0  0  0  0  0
   38.9845   -9.5052  -36.6109 C   0  0  0  0  0  0  0  0  0  0  0  0
   38.5107   -8.4320  -37.3044 N   0  0  0  0  0  0  0  0  0  0  0  0
  1  2  2  0  0  0  0
  1  7  1  0  0  0  0
  2  3  1  0  0  0  0
  2  4  1  0  0  0  0
  4  5  2  0  0  0  0
  5  6  1  0  0  0  0
  5 11  1  0  0  0  0
  6  7  2  0  0  0  0
  6  9  1  0  0  0  0
  7  8  1  0  0  0  0
  9 10  1  0  0  0  0
 10 11  2  0  0  0  0
M  END
>  <CHROM.1>
36.40010600,-9.90864742,-37.89304214,2.97760737,0.47866901,2.75877086

>  <Name>
ligand

>  <RI>
0

>  <Rbt.Current_Directory>
/home/itssahil/PROJECTS/Mol_Feturizer/New_Systems/rnas/3RKF

>  <Rbt.Executable>
rbdock ($Id: //depot/dev/client3/rdock/2013.1/src/exe/rbdock.cxx#4 $)

>  <Rbt.Library>
libRbt.so (2013.1, Build901 2013/11/27)

>  <Rbt.Parameter_File>
/export/apps/rDock/src/rDock_2013.1_src/data/scripts/dock_solv.prm

>  <Rbt.Receptor>
prm/pocket_docking_5.prm

>  <SCORE>
-16.4883

>  <SCORE.INTER>
-16.4883

>  <SCORE.INTER.CONST>
1

>  <SCORE.INTER.POLAR>
0

>  <SCORE.INTER.ROT>
0

>  <SCORE.INTER.SOLV>
10.8576

>  <SCORE.INTER.VDW>
-18.2114

>  <SCORE.INTER.norm>
-1.49893

>  <SCORE.INTRA>
0

>  <SCORE.INTRA.DIHEDRAL>
0

>  <SCORE.INTRA.DIHEDRAL.0>
0

>  <SCORE.INTRA.POLAR>
0

>  <SCORE.INTRA.POLAR.0>
0

>  <SCORE.INTRA.REPUL>
0

>  <SCORE.INTRA.REPUL.0>
0

>  <SCORE.INTRA.SOLV>
0

>  <SCORE.INTRA.SOLV.lig_0>
-28.6198

>  <SCORE.INTRA.VDW>
0

>  <SCORE.INTRA.VDW.0>
0

>  <SCORE.INTRA.norm>
0

>  <SCORE.RESTR>
0

>  <SCORE.RESTR.CAVITY>
0

>  <SCORE.RESTR.norm>
0

>  <SCORE.SYSTEM>
0

>  <SCORE.SYSTEM.CONST>
0

>  <SCORE.SYSTEM.DIHEDRAL>
0

>  <SCORE.SYSTEM.SOLV>
0

>  <SCORE.SYSTEM.norm>
0

>  <SCORE.heavy>
11

>  <SCORE.norm>
-1.49893

>  <RMSD>
3.441

$$$$
ligand
 OpenBabel11021811483D
libRbt.so/2013.1/901 2013/11/27
 11 12  0  0  0  0  0  0  0  0999 V2000
   35.5823  -11.0951  -37.6045 N   0  0  0  0  0  0  0  0  0  0  0  0
   36.4158  -11.7936  -36.8192 C   0  0  0  0  0  0  0  0  0  0  0  0
   36.0520  -13.1166  -36.4222 N   0  0  0  0  0  0  0  0  0  0  0  0
   37.5765  -11.2768  -36.4026 N   0  0  0  0  0  0  0  0  0  0  0  0
   37.9468   -9.9990  -36.7742 C   0  0  0  0  0  0  0  0  0  0  0  0
   37.1058   -9.2708  -37.5746 C   0  0  0  0  0  0  0  0  0  0  0  0
   35.8664   -9.8418  -38.0126 C   0  0  0  0  0  0  0  0  0  0  0  0
   34.7523   -8.9426  -39.0534 S   0  0  0  0  0  0  0  0  0  0  0  0
   37.6951   -8.0521  -37.7948 N   0  0  0  0  0  0  0  0  0  0  0  0
   38.8839   -8.0297  -37.1374 C   0  0  0  0  0  0  0  0  0  0  0  0
   39.0585   -9.2222  -36.5011 N   0  0  0  0  0  0  0  0  0  0  0  0
  1  2  2  0  0  0  0
  1  7  1  0  0  0  0
  2  3  1  0  0  0  0
  2  4  1  0  0  0  0
  4  5  2  0  0  0  0
  5  6  1  0  0  0  0
  5 11  1  0  0  0  0
  6  7  2  0  0  0  0
  6  9  1  0  0  0  0
  7  8  1  0  0  0  0
  9 10  1  0  0  0  0
 10 11  2  0  0  0  0
M  END
>  <CHROM.1>
36.71696079,-9.94447984,-37.48960704,-2.76100431,-0.47392832,-0.42633567

>  <Name>
ligand

>  <RI>
0

>  <Rbt.Current_Directory>
/home/itssahil/PROJECTS/Mol_Feturizer/New_Systems/rnas/3RKF

>  <Rbt.Executable>
rbdock ($Id: //depot/dev/client3/rdock/2013.1/src/exe/rbdock.cxx#4 $)

>  <Rbt.Library>
libRbt.so (2013.1, Build901 2013/11/27)

>  <Rbt.Parameter_File>
/export/apps/rDock/src/rDock_2013.1_src/data/scripts/dock_solv.prm

>  <Rbt.Receptor>
prm/blind_docking_100.prm

>  <SCORE>
-12.7517

>  <SCORE.INTER>
-12.7517

>  <SCORE.INTER.CONST>
1

>  <SCORE.INTER.POLAR>
0

>  <SCORE.INTER.ROT>
0

>  <SCORE.INTER.SOLV>
14.7494

>  <SCORE.INTER.VDW>
-17.0176

>  <SCORE.INTER.norm>
-1.15925

>  <SCORE.INTRA>
0

>  <SCORE.INTRA.DIHEDRAL>
0

>  <SCORE.INTRA.DIHEDRAL.0>
0

>  <SCORE.INTRA.POLAR>
0

>  <SCORE.INTRA.POLAR.0>
0

>  <SCORE.INTRA.REPUL>
0

>  <SCORE.INTRA.REPUL.0>
0

>  <SCORE.INTRA.SOLV>
0

>  <SCORE.INTRA.SOLV.lig_0>
-28.6198

>  <SCORE.INTRA.VDW>
0

>  <SCORE.INTRA.VDW.0>
0

>  <SCORE.INTRA.norm>
0

>  <SCORE.RESTR>
0

>  <SCORE.RESTR.CAVITY>
0

>  <SCORE.RESTR.norm>
0

>  <SCORE.SYSTEM>
0

>  <SCORE.SYSTEM.CONST>
0

>  <SCORE.SYSTEM.DIHEDRAL>
0

>  <SCORE.SYSTEM.SOLV>
0

>  <SCORE.SYSTEM.norm>
0

>  <SCORE.heavy>
11

>  <SCORE.norm>
-1.15925

>  <RMSD>
3.442

$$$$
ligand
 OpenBabel11021811483D
libRbt.so/2013.1/901 2013/11/27
 11 12  0  0  0  0  0  0  0  0999 V2000
   34.9625   -9.9434  -38.6823 N   0  0  0  0  0  0  0  0  0  0  0  0
   35.2325   -8.6753  -39.0265 C   0  0  0  0  0  0  0  0  0  0  0  0
   34.2965   -7.9596  -39.8339 N   0  0  0  0  0  0  0  0  0  0  0  0
   36.3572   -8.0707  -38.6294 N   0  0  0  0  0  0  0  0  0  0  0  0
   37.2759   -8.7452  -37.8490 C   0  0  0  0  0  0  0  0  0  0  0  0
   37.0165  -10.0421  -37.4901 C   0  0  0  0  0  0  0  0  0  0  0  0
   35.8052  -10.6732  -37.9238 C   0  0  0  0  0  0  0  0  0  0  0  0
   35.4235  -12.3432  -37.4785 S   0  0  0  0  0  0  0  0  0  0  0  0
   38.0696  -10.4799  -36.7282 N   0  0  0  0  0  0  0  0  0  0  0  0
   38.9668   -9.4654  -36.6201 C   0  0  0  0  0  0  0  0  0  0  0  0
   38.4958   -8.3852  -37.3047 N   0  0  0  0  0  0  0  0  0  0  0  0
  1  2  2  0  0  0  0
  1  7  1  0  0  0  0
  2  3  1  0  0  0  0
  2  4  1  0  0  0  0
  4  5  2  0  0  0  0
  5  6  1  0  0  0  0
  5 11  1  0  0  0  0
  6  7  2  0  0  0  0
  6  9  1  0  0  0  0
  7  8  1  0  0  0  0
  9 10  1  0  0  0  0
 10 11  2  0  0  0  0
M  END
>  <CHROM.1>
36.38676953,-9.85524155,-37.91518942,2.97940277,0.48179011,2.76783376

>  <Name>
ligand

>  <RI>
0

>  <Rbt.Current_Directory>
/home/itssahil/PROJECTS/Mol_Feturizer/New_Systems/rnas/3RKF

>  <Rbt.Executable>
rbdock ($Id: //depot/dev/client3/rdock/2013.1/src/exe/rbdock.cxx#4 $)

>  <Rbt.Library>
libRbt.so (2013.1, Build901 2013/11/27)

>  <Rbt.Parameter_File>
/export/apps/rDock/src/rDock_2013.1_src/data/scripts/dock_solv.prm

>  <Rbt.Receptor>
prm/pocket_docking_7.prm

>  <SCORE>
-16.5024

>  <SCORE.INTER>
-16.5024

>  <SCORE.INTER.CONST>
1

>  <SCORE.INTER.POLAR>
0

>  <SCORE.INTER.ROT>
0

>  <SCORE.INTER.SOLV>
10.7471

>  <SCORE.INTER.VDW>
-18.184

>  <SCORE.INTER.norm>
-1.50022

>  <SCORE.INTRA>
0

>  <SCORE.INTRA.DIHEDRAL>
0

>  <SCORE.INTRA.DIHEDRAL.0>
0

>  <SCORE.INTRA.POLAR>
0

>  <SCORE.INTRA.POLAR.0>
0

>  <SCORE.INTRA.REPUL>
0

>  <SCORE.INTRA.REPUL.0>
0

>  <SCORE.INTRA.SOLV>
0

>  <SCORE.INTRA.SOLV.lig_0>
-28.6198

>  <SCORE.INTRA.VDW>
0

>  <SCORE.INTRA.VDW.0>
0

>  <SCORE.INTRA.norm>
0

>  <SCORE.RESTR>
0

>  <SCORE.RESTR.CAVITY>
0

>  <SCORE.RESTR.norm>
0

>  <SCORE.SYSTEM>
0

>  <SCORE.SYSTEM.CONST>
0

>  <SCORE.SYSTEM.DIHEDRAL>
0

>  <SCORE.SYSTEM.SOLV>
0

>  <SCORE.SYSTEM.norm>
0

>  <SCORE.heavy>
11

>  <SCORE.norm>
-1.50022

>  <RMSD>
3.442

$$$$
ligand
 OpenBabel11021811483D
libRbt.so/2013.1/901 2013/11/27
 11 12  0  0  0  0  0  0  0  0999 V2000
   34.9584   -9.9391  -38.6793 N   0  0  0  0  0  0  0  0  0  0  0  0
   35.2318   -8.6731  -39.0283 C   0  0  0  0  0  0  0  0  0  0  0  0
   34.2976   -7.9580  -39.8384 N   0  0  0  0  0  0  0  0  0  0  0  0
   36.3580   -8.0700  -38.6336 N   0  0  0  0  0  0  0  0  0  0  0  0
   37.2750   -8.7439  -37.8507 C   0  0  0  0  0  0  0  0  0  0  0  0
   37.0122  -10.0388  -37.4868 C   0  0  0  0  0  0  0  0  0  0  0  0
   35.7991  -10.6683  -37.9181 C   0  0  0  0  0  0  0  0  0  0  0  0
   35.4131  -12.3356  -37.4664 S   0  0  0  0  0  0  0  0  0  0  0  0
   38.0641  -10.4765  -36.7234 N   0  0  0  0  0  0  0  0  0  0  0  0
   38.9640   -9.4640  -36.6191 C   0  0  0  0  0  0  0  0  0  0  0  0
   38.4959   -8.3851  -37.3078 N   0  0  0  0  0  0  0  0  0  0  0  0
  1  2  2  0  0  0  0
  1  7  1  0  0  0  0
  2  3  1  0  0  0  0
  2  4  1  0  0  0  0
  4  5  2  0  0  0  0
  5  6  1  0  0  0  0
  5 11  1  0  0  0  0
  6  7  2  0  0  0  0
  6  9  1  0  0  0  0
  7  8  1  0  0  0  0
  9 10  1  0  0  0  0
 10 11  2  0  0  0  0
M  END
>  <CHROM.1>
36.38291926,-9.85188058,-37.91263144,2.98216176,0.48077409,2.76273947

>  <Name>
ligand

>  <RI>
0

>  <Rbt.Current_Directory>
/home/itssahil/PROJECTS/Mol_Feturizer/New_Systems/rnas/3RKF

>  <Rbt.Executable>
rbdock ($Id: //depot/dev/client3/rdock/2013.1/src/exe/rbdock.cxx#4 $)

>  <Rbt.Library>
libRbt.so (2013.1, Build901 2013/11/27)

>  <Rbt.Parameter_File>
/export/apps/rDock/src/rDock_2013.1_src/data/scripts/dock_solv.prm

>  <Rbt.Receptor>
prm/pocket_docking_8.prm

>  <SCORE>
-16.5001

>  <SCORE.INTER>
-16.5001

>  <SCORE.INTER.CONST>
1

>  <SCORE.INTER.POLAR>
0

>  <SCORE.INTER.ROT>
0

>  <SCORE.INTER.SOLV>
10.7512

>  <SCORE.INTER.VDW>
-18.1838

>  <SCORE.INTER.norm>
-1.50001

>  <SCORE.INTRA>
0

>  <SCORE.INTRA.DIHEDRAL>
0

>  <SCORE.INTRA.DIHEDRAL.0>
0

>  <SCORE.INTRA.POLAR>
0

>  <SCORE.INTRA.POLAR.0>
0

>  <SCORE.INTRA.REPUL>
0

>  <SCORE.INTRA.REPUL.0>
0

>  <SCORE.INTRA.SOLV>
0

>  <SCORE.INTRA.SOLV.lig_0>
-28.6198

>  <SCORE.INTRA.VDW>
0

>  <SCORE.INTRA.VDW.0>
0

>  <SCORE.INTRA.norm>
0

>  <SCORE.RESTR>
0

>  <SCORE.RESTR.CAVITY>
0

>  <SCORE.RESTR.norm>
0

>  <SCORE.SYSTEM>
0

>  <SCORE.SYSTEM.CONST>
0

>  <SCORE.SYSTEM.DIHEDRAL>
0

>  <SCORE.SYSTEM.SOLV>
0

>  <SCORE.SYSTEM.norm>
0

>  <SCORE.heavy>
11

>  <SCORE.norm>
-1.50001

>  <RMSD>
3.442

$$$$
ligand
 OpenBabel11021811483D
libRbt.so/2013.1/901 2013/11/27
 11 12  0  0  0  0  0  0  0  0999 V2000
   34.9622   -9.9401  -38.6826 N   0  0  0  0  0  0  0  0  0  0  0  0
   35.2332   -8.6730  -39.0299 C   0  0  0  0  0  0  0  0  0  0  0  0
   34.2981   -7.9589  -39.8398 N   0  0  0  0  0  0  0  0  0  0  0  0
   36.3579   -8.0680  -38.6336 N   0  0  0  0  0  0  0  0  0  0  0  0
   37.2757   -8.7410  -37.8509 C   0  0  0  0  0  0  0  0  0  0  0  0
   37.0154  -10.0369  -37.4888 C   0  0  0  0  0  0  0  0  0  0  0  0
   35.8039  -10.6684  -37.9217 C   0  0  0  0  0  0  0  0  0  0  0  0
   35.4211  -12.3371  -37.4724 S   0  0  0  0  0  0  0  0  0  0  0  0
   38.0676  -10.4732  -36.7250 N   0  0  0  0  0  0  0  0  0  0  0  0
   38.9653   -9.4589  -36.6189 C   0  0  0  0  0  0  0  0  0  0  0  0
   38.4954   -8.3803  -37.3066 N   0  0  0  0  0  0  0  0  0  0  0  0
  1  2  2  0  0  0  0
  1  7  1  0  0  0  0
  2  3  1  0  0  0  0
  2  4  1  0  0  0  0
  4  5  2  0  0  0  0
  5  6  1  0  0  0  0
  5 11  1  0  0  0  0
  6  7  2  0  0  0  0
  6  9  1  0  0  0  0
  7  8  1  0  0  0  0
  9 10  1  0  0  0  0
 10 11  2  0  0  0  0
M  END
>  <CHROM.1>
36.38597668,-9.85072324,-37.91478586,2.98025381,0.48224729,2.76485704

>  <Name>
ligand

>  <RI>
0

>  <Rbt.Current_Directory>
/home/itssahil/PROJECTS/Mol_Feturizer/New_Systems/rnas/3RKF

>  <Rbt.Executable>
rbdock ($Id: //depot/dev/client3/rdock/2013.1/src/exe/rbdock.cxx#4 $)

>  <Rbt.Library>
libRbt.so (2013.1, Build901 2013/11/27)

>  <Rbt.Parameter_File>
/export/apps/rDock/src/rDock_2013.1_src/data/scripts/dock_solv.prm

>  <Rbt.Receptor>
prm/pocket_docking_3.prm

>  <SCORE>
-16.5021

>  <SCORE.INTER>
-16.5021

>  <SCORE.INTER.CONST>
1

>  <SCORE.INTER.POLAR>
0

>  <SCORE.INTER.ROT>
0

>  <SCORE.INTER.SOLV>
10.7583

>  <SCORE.INTER.VDW>
-18.1875

>  <SCORE.INTER.norm>
-1.50019

>  <SCORE.INTRA>
0

>  <SCORE.INTRA.DIHEDRAL>
0

>  <SCORE.INTRA.DIHEDRAL.0>
0

>  <SCORE.INTRA.POLAR>
0

>  <SCORE.INTRA.POLAR.0>
0

>  <SCORE.INTRA.REPUL>
0

>  <SCORE.INTRA.REPUL.0>
0

>  <SCORE.INTRA.SOLV>
0

>  <SCORE.INTRA.SOLV.lig_0>
-28.6198

>  <SCORE.INTRA.VDW>
0

>  <SCORE.INTRA.VDW.0>
0

>  <SCORE.INTRA.norm>
0

>  <SCORE.RESTR>
0

>  <SCORE.RESTR.CAVITY>
0

>  <SCORE.RESTR.norm>
0

>  <SCORE.SYSTEM>
0

>  <SCORE.SYSTEM.CONST>
0

>  <SCORE.SYSTEM.DIHEDRAL>
0

>  <SCORE.SYSTEM.SOLV>
0

>  <SCORE.SYSTEM.norm>
0

>  <SCORE.heavy>
11

>  <SCORE.norm>
-1.50019

>  <RMSD>
3.443

$$$$
ligand
 OpenBabel11021811483D
libRbt.so/2013.1/901 2013/11/27
 11 12  0  0  0  0  0  0  0  0999 V2000
   34.9652   -9.9465  -38.6743 N   0  0  0  0  0  0  0  0  0  0  0  0
   35.2345   -8.6791  -39.0214 C   0  0  0  0  0  0  0  0  0  0  0  0
   34.2974   -7.9654  -39.8294 N   0  0  0  0  0  0  0  0  0  0  0  0
   36.3593   -8.0732  -38.6268 N   0  0  0  0  0  0  0  0  0  0  0  0
   37.2791   -8.7458  -37.8459 C   0  0  0  0  0  0  0  0  0  0  0  0
   37.0205  -10.0421  -37.4840 C   0  0  0  0  0  0  0  0  0  0  0  0
   35.8089  -10.6745  -37.9152 C   0  0  0  0  0  0  0  0  0  0  0  0
   35.4283  -12.3437  -37.4660 S   0  0  0  0  0  0  0  0  0  0  0  0
   38.0745  -10.4779  -36.7223 N   0  0  0  0  0  0  0  0  0  0  0  0
   38.9715   -9.4628  -36.6172 C   0  0  0  0  0  0  0  0  0  0  0  0
   38.4994   -8.3842  -37.3036 N   0  0  0  0  0  0  0  0  0  0  0  0
  1  2  2  0  0  0  0
  1  7  1  0  0  0  0
  2  3  1  0  0  0  0
  2  4  1  0  0  0  0
  4  5  2  0  0  0  0
  5  6  1  0  0  0  0
  5 11  1  0  0  0  0
  6  7  2  0  0  0  0
  6  9  1  0  0  0  0
  7  8  1  0  0  0  0
  9 10  1  0  0  0  0
 10 11  2  0  0  0  0
M  END
>  <CHROM.1>
36.39025859,-9.85629085,-37.90887485,2.97860049,0.48097551,2.76611511

>  <Name>
ligand

>  <RI>
0

>  <Rbt.Current_Directory>
/home/itssahil/PROJECTS/Mol_Feturizer/New_Systems/rnas/3RKF

>  <Rbt.Executable>
rbdock ($Id: //depot/dev/client3/rdock/2013.1/src/exe/rbdock.cxx#4 $)

>  <Rbt.Library>
libRbt.so (2013.1, Build901 2013/11/27)

>  <Rbt.Parameter_File>
/export/apps/rDock/src/rDock_2013.1_src/data/scripts/dock_solv.prm

>  <Rbt.Receptor>
prm/pocket_docking_5.prm

>  <SCORE>
-16.5028

>  <SCORE.INTER>
-16.5028

>  <SCORE.INTER.CONST>
1

>  <SCORE.INTER.POLAR>
0

>  <SCORE.INTER.ROT>
0

>  <SCORE.INTER.SOLV>
10.7431

>  <SCORE.INTER.VDW>
-18.1829

>  <SCORE.INTER.norm>
-1.50025

>  <SCORE.INTRA>
0

>  <SCORE.INTRA.DIHEDRAL>
0

>  <SCORE.INTRA.DIHEDRAL.0>
0

>  <SCORE.INTRA.POLAR>
0

>  <SCORE.INTRA.POLAR.0>
0

>  <SCORE.INTRA.REPUL>
0

>  <SCORE.INTRA.REPUL.0>
0

>  <SCORE.INTRA.SOLV>
0

>  <SCORE.INTRA.SOLV.lig_0>
-28.6198

>  <SCORE.INTRA.VDW>
0

>  <SCORE.INTRA.VDW.0>
0

>  <SCORE.INTRA.norm>
0

>  <SCORE.RESTR>
0

>  <SCORE.RESTR.CAVITY>
0

>  <SCORE.RESTR.norm>
0

>  <SCORE.SYSTEM>
0

>  <SCORE.SYSTEM.CONST>
0

>  <SCORE.SYSTEM.DIHEDRAL>
0

>  <SCORE.SYSTEM.SOLV>
0

>  <SCORE.SYSTEM.norm>
0

>  <SCORE.heavy>
11

>  <SCORE.norm>
-1.50025

>  <RMSD>
3.443

$$$$
ligand
 OpenBabel11021811483D
libRbt.so/2013.1/901 2013/11/27
 11 12  0  0  0  0  0  0  0  0999 V2000
   34.9729   -9.9497  -38.6731 N   0  0  0  0  0  0  0  0  0  0  0  0
   35.2413   -8.6822  -39.0205 C   0  0  0  0  0  0  0  0  0  0  0  0
   34.3031   -7.9689  -39.8275 N   0  0  0  0  0  0  0  0  0  0  0  0
   36.3664   -8.0759  -38.6270 N   0  0  0  0  0  0  0  0  0  0  0  0
   37.2872   -8.7481  -37.8471 C   0  0  0  0  0  0  0  0  0  0  0  0
   37.0295  -10.0444  -37.4849 C   0  0  0  0  0  0  0  0  0  0  0  0
   35.8177  -10.6773  -37.9148 C   0  0  0  0  0  0  0  0  0  0  0  0
   35.4382  -12.3467  -37.4652 S   0  0  0  0  0  0  0  0  0  0  0  0
   38.0844  -10.4798  -36.7242 N   0  0  0  0  0  0  0  0  0  0  0  0
   38.9811   -9.4645  -36.6200 C   0  0  0  0  0  0  0  0  0  0  0  0
   38.5079   -8.3861  -37.3059 N   0  0  0  0  0  0  0  0  0  0  0  0
  1  2  2  0  0  0  0
  1  7  1  0  0  0  0
  2  3  1  0  0  0  0
  2  4  1  0  0  0  0
  4  5  2  0  0  0  0
  5  6  1  0  0  0  0
  5 11  1  0  0  0  0
  6  7  2  0  0  0  0
  6  9  1  0  0  0  0
  7  8  1  0  0  0  0
  9 10  1  0  0  0  0
 10 11  2  0  0  0  0
M  END
>  <CHROM.1>
36.39869868,-9.85892123,-37.90907003,2.97778862,0.48016906,2.76645475

>  <Name>
ligand

>  <RI>
0

>  <Rbt.Current_Directory>
/home/itssahil/PROJECTS/Mol_Feturizer/New_Systems/rnas/3RKF

>  <Rbt.Executable>
rbdock ($Id: //depot/dev/client3/rdock/2013.1/src/exe/rbdock.cxx#4 $)

>  <Rbt.Library>
libRbt.so (2013.1, Build901 2013/11/27)

>  <Rbt.Parameter_File>
/export/apps/rDock/src/rDock_2013.1_src/data/scripts/dock_solv.prm

>  <Rbt.Receptor>
prm/pocket_docking_7.prm

>  <SCORE>
-16.5016

>  <SCORE.INTER>
-16.5016

>  <SCORE.INTER.CONST>
1

>  <SCORE.INTER.POLAR>
0

>  <SCORE.INTER.ROT>
0

>  <SCORE.INTER.SOLV>
10.7678

>  <SCORE.INTER.VDW>
-18.1903

>  <SCORE.INTER.norm>
-1.50015

>  <SCORE.INTRA>
0

>  <SCORE.INTRA.DIHEDRAL>
0

>  <SCORE.INTRA.DIHEDRAL.0>
0

>  <SCORE.INTRA.POLAR>
0

>  <SCORE.INTRA.POLAR.0>
0

>  <SCORE.INTRA.REPUL>
0

>  <SCORE.INTRA.REPUL.0>
0

>  <SCORE.INTRA.SOLV>
0

>  <SCORE.INTRA.SOLV.lig_0>
-28.6198

>  <SCORE.INTRA.VDW>
0

>  <SCORE.INTRA.VDW.0>
0

>  <SCORE.INTRA.norm>
0

>  <SCORE.RESTR>
0

>  <SCORE.RESTR.CAVITY>
0

>  <SCORE.RESTR.norm>
0

>  <SCORE.SYSTEM>
0

>  <SCORE.SYSTEM.CONST>
0

>  <SCORE.SYSTEM.DIHEDRAL>
0

>  <SCORE.SYSTEM.SOLV>
0

>  <SCORE.SYSTEM.norm>
0

>  <SCORE.heavy>
11

>  <SCORE.norm>
-1.50015

>  <RMSD>
3.443

$$$$
ligand
 OpenBabel11021811483D
libRbt.so/2013.1/901 2013/11/27
 11 12  0  0  0  0  0  0  0  0999 V2000
   34.9621   -9.9458  -38.6799 N   0  0  0  0  0  0  0  0  0  0  0  0
   35.2302   -8.6770  -39.0228 C   0  0  0  0  0  0  0  0  0  0  0  0
   34.2914   -7.9608  -39.8267 N   0  0  0  0  0  0  0  0  0  0  0  0
   36.3553   -8.0720  -38.6276 N   0  0  0  0  0  0  0  0  0  0  0  0
   37.2766   -8.7469  -37.8507 C   0  0  0  0  0  0  0  0  0  0  0  0
   37.0193  -10.0447  -37.4932 C   0  0  0  0  0  0  0  0  0  0  0  0
   35.8073  -10.6761  -37.9248 C   0  0  0  0  0  0  0  0  0  0  0  0
   35.4283  -12.3472  -37.4812 S   0  0  0  0  0  0  0  0  0  0  0  0
   38.0746  -10.4828  -36.7347 N   0  0  0  0  0  0  0  0  0  0  0  0
   38.9712   -9.4677  -36.6272 C   0  0  0  0  0  0  0  0  0  0  0  0
   38.4975   -8.3868  -37.3089 N   0  0  0  0  0  0  0  0  0  0  0  0
  1  2  2  0  0  0  0
  1  7  1  0  0  0  0
  2  3  1  0  0  0  0
  2  4  1  0  0  0  0
  4  5  2  0  0  0  0
  5  6  1  0  0  0  0
  5 11  1  0  0  0  0
  6  7  2  0  0  0  0
  6  9  1  0  0  0  0
  7  8  1  0  0  0  0
  9 10  1  0  0  0  0
 10 11  2  0  0  0  0
M  END
>  <CHROM.1>
36.38824359,-9.85767604,-37.91636874,2.97743323,0.47973015,2.77034768

>  <Name>
ligand

>  <RI>
0

>  <Rbt.Current_Directory>
/home/itssahil/PROJECTS/Mol_Feturizer/New_Systems/rnas/3RKF

>  <Rbt.Executable>
rbdock ($Id: //depot/dev/client3/rdock/2013.1/src/exe/rbdock.cxx#4 $)

>  <Rbt.Library>
libRbt.so (2013.1, Build901 2013/11/27)

>  <Rbt.Parameter_File>
/export/apps/rDock/src/rDock_2013.1_src/data/scripts/dock_solv.prm

>  <Rbt.Receptor>
prm/pocket_docking_8.prm

>  <SCORE>
-16.5003

>  <SCORE.INTER>
-16.5003

>  <SCORE.INTER.CONST>
1

>  <SCORE.INTER.POLAR>
0

>  <SCORE.INTER.ROT>
0

>  <SCORE.INTER.SOLV>
10.727

>  <SCORE.INTER.VDW>
-18.1759

>  <SCORE.INTER.norm>
-1.50003

>  <SCORE.INTRA>
0

>  <SCORE.INTRA.DIHEDRAL>
0

>  <SCORE.INTRA.DIHEDRAL.0>
0

>  <SCORE.INTRA.POLAR>
0

>  <SCORE.INTRA.POLAR.0>
0

>  <SCORE.INTRA.REPUL>
0

>  <SCORE.INTRA.REPUL.0>
0

>  <SCORE.INTRA.SOLV>
0

>  <SCORE.INTRA.SOLV.lig_0>
-28.6198

>  <SCORE.INTRA.VDW>
0

>  <SCORE.INTRA.VDW.0>
0

>  <SCORE.INTRA.norm>
0

>  <SCORE.RESTR>
0

>  <SCORE.RESTR.CAVITY>
0

>  <SCORE.RESTR.norm>
0

>  <SCORE.SYSTEM>
0

>  <SCORE.SYSTEM.CONST>
0

>  <SCORE.SYSTEM.DIHEDRAL>
0

>  <SCORE.SYSTEM.SOLV>
0

>  <SCORE.SYSTEM.norm>
0

>  <SCORE.heavy>
11

>  <SCORE.norm>
-1.50003

>  <RMSD>
3.443

$$$$
ligand
 OpenBabel11021811483D
libRbt.so/2013.1/901 2013/11/27
 11 12  0  0  0  0  0  0  0  0999 V2000
   34.9610   -9.9238  -38.6734 N   0  0  0  0  0  0  0  0  0  0  0  0
   35.2312   -8.6560  -39.0184 C   0  0  0  0  0  0  0  0  0  0  0  0
   34.2933   -7.9394  -39.8229 N   0  0  0  0  0  0  0  0  0  0  0  0
   36.3576   -8.0525  -38.6248 N   0  0  0  0  0  0  0  0  0  0  0  0
   37.2781   -8.7279  -37.8473 C   0  0  0  0  0  0  0  0  0  0  0  0
   37.0186  -10.0246  -37.4876 C   0  0  0  0  0  0  0  0  0  0  0  0
   35.8053  -10.6545  -37.9176 C   0  0  0  0  0  0  0  0  0  0  0  0
   35.4234  -12.3242  -37.4712 S   0  0  0  0  0  0  0  0  0  0  0  0
   38.0735  -10.4634  -36.7290 N   0  0  0  0  0  0  0  0  0  0  0  0
   38.9721   -9.4498  -36.6236 C   0  0  0  0  0  0  0  0  0  0  0  0
   38.5000   -8.3691  -37.3067 N   0  0  0  0  0  0  0  0  0  0  0  0
  1  2  2  0  0  0  0
  1  7  1  0  0  0  0
  2  3  1  0  0  0  0
  2  4  1  0  0  0  0
  4  5  2  0  0  0  0
  5  6  1  0  0  0  0
  5 11  1  0  0  0  0
  6  7  2  0  0  0  0
  6  9  1  0  0  0  0
  7  8  1  0  0  0  0
  9 10  1  0  0  0  0
 10 11  2  0  0  0  0
M  END
>  <CHROM.1>
36.38769194,-9.83709132,-37.91078042,2.97912612,0.47857092,2.76798716

>  <Name>
ligand

>  <RI>
0

>  <Rbt.Current_Directory>
/home/itssahil/PROJECTS/Mol_Feturizer/New_Systems/rnas/3RKF

>  <Rbt.Executable>
rbdock ($Id: //depot/dev/client3/rdock/2013.1/src/exe/rbdock.cxx#4 $)

>  <Rbt.Library>
libRbt.so (2013.1, Build901 2013/11/27)

>  <Rbt.Parameter_File>
/export/apps/rDock/src/rDock_2013.1_src/data/scripts/dock_solv.prm

>  <Rbt.Receptor>
prm/blind_docking_60.prm

>  <SCORE>
-16.5099

>  <SCORE.INTER>
-16.5099

>  <SCORE.INTER.CONST>
1

>  <SCORE.INTER.POLAR>
0

>  <SCORE.INTER.ROT>
0

>  <SCORE.INTER.SOLV>
10.6742

>  <SCORE.INTER.VDW>
-18.1646

>  <SCORE.INTER.norm>
-1.5009

>  <SCORE.INTRA>
0

>  <SCORE.INTRA.DIHEDRAL>
0

>  <SCORE.INTRA.DIHEDRAL.0>
0

>  <SCORE.INTRA.POLAR>
0

>  <SCORE.INTRA.POLAR.0>
0

>  <SCORE.INTRA.REPUL>
0

>  <SCORE.INTRA.REPUL.0>
0

>  <SCORE.INTRA.SOLV>
0

>  <SCORE.INTRA.SOLV.lig_0>
-28.6198

>  <SCORE.INTRA.VDW>
0

>  <SCORE.INTRA.VDW.0>
0

>  <SCORE.INTRA.norm>
0

>  <SCORE.RESTR>
0

>  <SCORE.RESTR.CAVITY>
0

>  <SCORE.RESTR.norm>
0

>  <SCORE.SYSTEM>
0

>  <SCORE.SYSTEM.CONST>
0

>  <SCORE.SYSTEM.DIHEDRAL>
0

>  <SCORE.SYSTEM.SOLV>
0

>  <SCORE.SYSTEM.norm>
0

>  <SCORE.heavy>
11

>  <SCORE.norm>
-1.5009

>  <RMSD>
3.444

$$$$
ligand
 OpenBabel11021811483D
libRbt.so/2013.1/901 2013/11/27
 11 12  0  0  0  0  0  0  0  0999 V2000
   34.9376   -9.9934  -38.6424 N   0  0  0  0  0  0  0  0  0  0  0  0
   35.1991   -8.7249  -38.9913 C   0  0  0  0  0  0  0  0  0  0  0  0
   34.2498   -8.0126  -39.7862 N   0  0  0  0  0  0  0  0  0  0  0  0
   36.3274   -8.1166  -38.6105 N   0  0  0  0  0  0  0  0  0  0  0  0
   37.2589   -8.7878  -37.8424 C   0  0  0  0  0  0  0  0  0  0  0  0
   37.0084  -10.0852  -37.4789 C   0  0  0  0  0  0  0  0  0  0  0  0
   35.7929  -10.7202  -37.8952 C   0  0  0  0  0  0  0  0  0  0  0  0
   35.4224  -12.3909  -37.4433 S   0  0  0  0  0  0  0  0  0  0  0  0
   38.0732  -10.5193  -36.7314 N   0  0  0  0  0  0  0  0  0  0  0  0
   38.9689   -9.5021  -36.6366 C   0  0  0  0  0  0  0  0  0  0  0  0
   38.4852   -8.4238  -37.3154 N   0  0  0  0  0  0  0  0  0  0  0  0
  1  2  2  0  0  0  0
  1  7  1  0  0  0  0
  2  3  1  0  0  0  0
  2  4  1  0  0  0  0
  4  5  2  0  0  0  0
  5  6  1  0  0  0  0
  5 11  1  0  0  0  0
  6  7  2  0  0  0  0
  6  9  1  0  0  0  0
  7  8  1  0  0  0  0
  9 10  1  0  0  0  0
 10 11  2  0  0  0  0
M  END
>  <CHROM.1>
36.37217846,-9.90050503,-37.89531024,2.97062346,0.46987014,2.77104060

>  <Name>
ligand

>  <RI>
0

>  <Rbt.Current_Directory>
/home/itssahil/PROJECTS/Mol_Feturizer/New_Systems/rnas/3RKF

>  <Rbt.Executable>
rbdock ($Id: //depot/dev/client3/rdock/2013.1/src/exe/rbdock.cxx#4 $)

>  <Rbt.Library>
libRbt.so (2013.1, Build901 2013/11/27)

>  <Rbt.Parameter_File>
/export/apps/rDock/src/rDock_2013.1_src/data/scripts/dock_solv.prm

>  <Rbt.Receptor>
prm/blind_docking_60.prm

>  <SCORE>
-16.4685

>  <SCORE.INTER>
-16.4685

>  <SCORE.INTER.CONST>
1

>  <SCORE.INTER.POLAR>
0

>  <SCORE.INTER.ROT>
0

>  <SCORE.INTER.SOLV>
10.6076

>  <SCORE.INTER.VDW>
-18.1149

>  <SCORE.INTER.norm>
-1.49714

>  <SCORE.INTRA>
0

>  <SCORE.INTRA.DIHEDRAL>
0

>  <SCORE.INTRA.DIHEDRAL.0>
0

>  <SCORE.INTRA.POLAR>
0

>  <SCORE.INTRA.POLAR.0>
0

>  <SCORE.INTRA.REPUL>
0

>  <SCORE.INTRA.REPUL.0>
0

>  <SCORE.INTRA.SOLV>
0

>  <SCORE.INTRA.SOLV.lig_0>
-28.6198

>  <SCORE.INTRA.VDW>
0

>  <SCORE.INTRA.VDW.0>
0

>  <SCORE.INTRA.norm>
0

>  <SCORE.RESTR>
0

>  <SCORE.RESTR.CAVITY>
0

>  <SCORE.RESTR.norm>
0

>  <SCORE.SYSTEM>
0

>  <SCORE.SYSTEM.CONST>
0

>  <SCORE.SYSTEM.DIHEDRAL>
0

>  <SCORE.SYSTEM.SOLV>
0

>  <SCORE.SYSTEM.norm>
0

>  <SCORE.heavy>
11

>  <SCORE.norm>
-1.49714

>  <RMSD>
3.444

$$$$
ligand
 OpenBabel11021811483D
libRbt.so/2013.1/901 2013/11/27
 11 12  0  0  0  0  0  0  0  0999 V2000
   34.9623   -9.9429  -38.6798 N   0  0  0  0  0  0  0  0  0  0  0  0
   35.2316   -8.6751  -39.0256 C   0  0  0  0  0  0  0  0  0  0  0  0
   34.2946   -7.9607  -39.8331 N   0  0  0  0  0  0  0  0  0  0  0  0
   36.3563   -8.0695  -38.6301 N   0  0  0  0  0  0  0  0  0  0  0  0
   37.2759   -8.7428  -37.8497 C   0  0  0  0  0  0  0  0  0  0  0  0
   37.0174  -10.0394  -37.4891 C   0  0  0  0  0  0  0  0  0  0  0  0
   35.8059  -10.6715  -37.9211 C   0  0  0  0  0  0  0  0  0  0  0  0
   35.4253  -12.3412  -37.4737 S   0  0  0  0  0  0  0  0  0  0  0  0
   38.0711  -10.4759  -36.7276 N   0  0  0  0  0  0  0  0  0  0  0  0
   38.9680   -9.4609  -36.6213 C   0  0  0  0  0  0  0  0  0  0  0  0
   38.4961   -8.3817  -37.3067 N   0  0  0  0  0  0  0  0  0  0  0  0
  1  2  2  0  0  0  0
  1  7  1  0  0  0  0
  2  3  1  0  0  0  0
  2  4  1  0  0  0  0
  4  5  2  0  0  0  0
  5  6  1  0  0  0  0
  5 11  1  0  0  0  0
  6  7  2  0  0  0  0
  6  9  1  0  0  0  0
  7  8  1  0  0  0  0
  9 10  1  0  0  0  0
 10 11  2  0  0  0  0
M  END
>  <CHROM.1>
36.38716991,-9.85327821,-37.91391693,2.97863677,0.48121584,2.76706454

>  <Name>
ligand

>  <RI>
0

>  <Rbt.Current_Directory>
/home/itssahil/PROJECTS/Mol_Feturizer/New_Systems/rnas/3RKF

>  <Rbt.Executable>
rbdock ($Id: //depot/dev/client3/rdock/2013.1/src/exe/rbdock.cxx#4 $)

>  <Rbt.Library>
libRbt.so (2013.1, Build901 2013/11/27)

>  <Rbt.Parameter_File>
/export/apps/rDock/src/rDock_2013.1_src/data/scripts/dock_solv.prm

>  <Rbt.Receptor>
prm/blind_docking_60.prm

>  <SCORE>
-16.5028

>  <SCORE.INTER>
-16.5028

>  <SCORE.INTER.CONST>
1

>  <SCORE.INTER.POLAR>
0

>  <SCORE.INTER.ROT>
0

>  <SCORE.INTER.SOLV>
10.739

>  <SCORE.INTER.VDW>
-18.1815

>  <SCORE.INTER.norm>
-1.50025

>  <SCORE.INTRA>
0

>  <SCORE.INTRA.DIHEDRAL>
0

>  <SCORE.INTRA.DIHEDRAL.0>
0

>  <SCORE.INTRA.POLAR>
0

>  <SCORE.INTRA.POLAR.0>
0

>  <SCORE.INTRA.REPUL>
0

>  <SCORE.INTRA.REPUL.0>
0

>  <SCORE.INTRA.SOLV>
0

>  <SCORE.INTRA.SOLV.lig_0>
-28.6198

>  <SCORE.INTRA.VDW>
0

>  <SCORE.INTRA.VDW.0>
0

>  <SCORE.INTRA.norm>
0

>  <SCORE.RESTR>
0

>  <SCORE.RESTR.CAVITY>
0

>  <SCORE.RESTR.norm>
0

>  <SCORE.SYSTEM>
0

>  <SCORE.SYSTEM.CONST>
0

>  <SCORE.SYSTEM.DIHEDRAL>
0

>  <SCORE.SYSTEM.SOLV>
0

>  <SCORE.SYSTEM.norm>
0

>  <SCORE.heavy>
11

>  <SCORE.norm>
-1.50025

>  <RMSD>
3.444

$$$$
ligand
 OpenBabel11021811483D
libRbt.so/2013.1/901 2013/11/27
 11 12  0  0  0  0  0  0  0  0999 V2000
   34.9718   -9.9945  -38.6498 N   0  0  0  0  0  0  0  0  0  0  0  0
   35.2430   -8.7330  -39.0165 C   0  0  0  0  0  0  0  0  0  0  0  0
   34.3045   -8.0287  -39.8311 N   0  0  0  0  0  0  0  0  0  0  0  0
   36.3710   -8.1245  -38.6353 N   0  0  0  0  0  0  0  0  0  0  0  0
   37.2921   -8.7880  -37.8484 C   0  0  0  0  0  0  0  0  0  0  0  0
   37.0316  -10.0782  -37.4665 C   0  0  0  0  0  0  0  0  0  0  0  0
   35.8166  -10.7136  -37.8835 C   0  0  0  0  0  0  0  0  0  0  0  0
   35.4335  -12.3751  -37.4085 S   0  0  0  0  0  0  0  0  0  0  0  0
   38.0875  -10.5057  -36.7027 N   0  0  0  0  0  0  0  0  0  0  0  0
   38.9876   -9.4916  -36.6161 C   0  0  0  0  0  0  0  0  0  0  0  0
   38.5155   -8.4219  -37.3162 N   0  0  0  0  0  0  0  0  0  0  0  0
  1  2  2  0  0  0  0
  1  7  1  0  0  0  0
  2  3  1  0  0  0  0
  2  4  1  0  0  0  0
  4  5  2  0  0  0  0
  5  6  1  0  0  0  0
  5 11  1  0  0  0  0
  6  7  2  0  0  0  0
  6  9  1  0  0  0  0
  7  8  1  0  0  0  0
  9 10  1  0  0  0  0
 10 11  2  0  0  0  0
M  END
>  <CHROM.1>
36.40012244,-9.89696919,-37.89150866,2.97969034,0.47624604,2.75099657

>  <Name>
ligand

>  <RI>
0

>  <Rbt.Current_Directory>
/home/itssahil/PROJECTS/Mol_Feturizer/New_Systems/rnas/3RKF

>  <Rbt.Executable>
rbdock ($Id: //depot/dev/client3/rdock/2013.1/src/exe/rbdock.cxx#4 $)

>  <Rbt.Library>
libRbt.so (2013.1, Build901 2013/11/27)

>  <Rbt.Parameter_File>
/export/apps/rDock/src/rDock_2013.1_src/data/scripts/dock_solv.prm

>  <Rbt.Receptor>
prm/pocket_docking_6.prm

>  <SCORE>
-16.4832

>  <SCORE.INTER>
-16.4832

>  <SCORE.INTER.CONST>
1

>  <SCORE.INTER.POLAR>
0

>  <SCORE.INTER.ROT>
0

>  <SCORE.INTER.SOLV>
10.8644

>  <SCORE.INTER.VDW>
-18.2103

>  <SCORE.INTER.norm>
-1.49847

>  <SCORE.INTRA>
0

>  <SCORE.INTRA.DIHEDRAL>
0

>  <SCORE.INTRA.DIHEDRAL.0>
0

>  <SCORE.INTRA.POLAR>
0

>  <SCORE.INTRA.POLAR.0>
0

>  <SCORE.INTRA.REPUL>
0

>  <SCORE.INTRA.REPUL.0>
0

>  <SCORE.INTRA.SOLV>
0

>  <SCORE.INTRA.SOLV.lig_0>
-28.6198

>  <SCORE.INTRA.VDW>
0

>  <SCORE.INTRA.VDW.0>
0

>  <SCORE.INTRA.norm>
0

>  <SCORE.RESTR>
0

>  <SCORE.RESTR.CAVITY>
0

>  <SCORE.RESTR.norm>
0

>  <SCORE.SYSTEM>
0

>  <SCORE.SYSTEM.CONST>
0

>  <SCORE.SYSTEM.DIHEDRAL>
0

>  <SCORE.SYSTEM.SOLV>
0

>  <SCORE.SYSTEM.norm>
0

>  <SCORE.heavy>
11

>  <SCORE.norm>
-1.49847

>  <RMSD>
3.444

$$$$
ligand
 OpenBabel11021811483D
libRbt.so/2013.1/901 2013/11/27
 11 12  0  0  0  0  0  0  0  0999 V2000
   34.9638   -9.9485  -38.6748 N   0  0  0  0  0  0  0  0  0  0  0  0
   35.2304   -8.6796  -39.0187 C   0  0  0  0  0  0  0  0  0  0  0  0
   34.2915   -7.9657  -39.8244 N   0  0  0  0  0  0  0  0  0  0  0  0
   36.3542   -8.0726  -38.6230 N   0  0  0  0  0  0  0  0  0  0  0  0
   37.2756   -8.7453  -37.8443 C   0  0  0  0  0  0  0  0  0  0  0  0
   37.0198  -10.0430  -37.4856 C   0  0  0  0  0  0  0  0  0  0  0  0
   35.8093  -10.6768  -37.9179 C   0  0  0  0  0  0  0  0  0  0  0  0
   35.4322  -12.3479  -37.4729 S   0  0  0  0  0  0  0  0  0  0  0  0
   38.0749  -10.4787  -36.7255 N   0  0  0  0  0  0  0  0  0  0  0  0
   38.9700   -9.4622  -36.6182 C   0  0  0  0  0  0  0  0  0  0  0  0
   38.4954   -8.3828  -37.3015 N   0  0  0  0  0  0  0  0  0  0  0  0
  1  2  2  0  0  0  0
  1  7  1  0  0  0  0
  2  3  1  0  0  0  0
  2  4  1  0  0  0  0
  4  5  2  0  0  0  0
  5  6  1  0  0  0  0
  5 11  1  0  0  0  0
  6  7  2  0  0  0  0
  6  9  1  0  0  0  0
  7  8  1  0  0  0  0
  9 10  1  0  0  0  0
 10 11  2  0  0  0  0
M  END
>  <CHROM.1>
36.38897148,-9.85741381,-37.90972897,2.97633237,0.48129203,2.76976491

>  <Name>
ligand

>  <RI>
0

>  <Rbt.Current_Directory>
/home/itssahil/PROJECTS/Mol_Feturizer/New_Systems/rnas/3RKF

>  <Rbt.Executable>
rbdock ($Id: //depot/dev/client3/rdock/2013.1/src/exe/rbdock.cxx#4 $)

>  <Rbt.Library>
libRbt.so (2013.1, Build901 2013/11/27)

>  <Rbt.Parameter_File>
/export/apps/rDock/src/rDock_2013.1_src/data/scripts/dock_solv.prm

>  <Rbt.Receptor>
prm/pocket_docking_6.prm

>  <SCORE>
-16.5017

>  <SCORE.INTER>
-16.5017

>  <SCORE.INTER.CONST>
1

>  <SCORE.INTER.POLAR>
0

>  <SCORE.INTER.ROT>
0

>  <SCORE.INTER.SOLV>
10.7186

>  <SCORE.INTER.VDW>
-18.174

>  <SCORE.INTER.norm>
-1.50015

>  <SCORE.INTRA>
0

>  <SCORE.INTRA.DIHEDRAL>
0

>  <SCORE.INTRA.DIHEDRAL.0>
0

>  <SCORE.INTRA.POLAR>
0

>  <SCORE.INTRA.POLAR.0>
0

>  <SCORE.INTRA.REPUL>
0

>  <SCORE.INTRA.REPUL.0>
0

>  <SCORE.INTRA.SOLV>
0

>  <SCORE.INTRA.SOLV.lig_0>
-28.6198

>  <SCORE.INTRA.VDW>
0

>  <SCORE.INTRA.VDW.0>
0

>  <SCORE.INTRA.norm>
0

>  <SCORE.RESTR>
0

>  <SCORE.RESTR.CAVITY>
0

>  <SCORE.RESTR.norm>
0

>  <SCORE.SYSTEM>
0

>  <SCORE.SYSTEM.CONST>
0

>  <SCORE.SYSTEM.DIHEDRAL>
0

>  <SCORE.SYSTEM.SOLV>
0

>  <SCORE.SYSTEM.norm>
0

>  <SCORE.heavy>
11

>  <SCORE.norm>
-1.50015

>  <RMSD>
3.444

$$$$
ligand
 OpenBabel11021811483D
libRbt.so/2013.1/901 2013/11/27
 11 12  0  0  0  0  0  0  0  0999 V2000
   34.9656   -9.9465  -38.6722 N   0  0  0  0  0  0  0  0  0  0  0  0
   35.2348   -8.6794  -39.0207 C   0  0  0  0  0  0  0  0  0  0  0  0
   34.2967   -7.9659  -39.8275 N   0  0  0  0  0  0  0  0  0  0  0  0
   36.3607   -8.0739  -38.6285 N   0  0  0  0  0  0  0  0  0  0  0  0
   37.2815   -8.7464  -37.8488 C   0  0  0  0  0  0  0  0  0  0  0  0
   37.0229  -10.0423  -37.4855 C   0  0  0  0  0  0  0  0  0  0  0  0
   35.8102  -10.6744  -37.9140 C   0  0  0  0  0  0  0  0  0  0  0  0
   35.4295  -12.3430  -37.4630 S   0  0  0  0  0  0  0  0  0  0  0  0
   38.0780  -10.4781  -36.7253 N   0  0  0  0  0  0  0  0  0  0  0  0
   38.9757   -9.4634  -36.6226 C   0  0  0  0  0  0  0  0  0  0  0  0
   38.5030   -8.3851  -37.3089 N   0  0  0  0  0  0  0  0  0  0  0  0
  1  2  2  0  0  0  0
  1  7  1  0  0  0  0
  2  3  1  0  0  0  0
  2  4  1  0  0  0  0
  4  5  2  0  0  0  0
  5  6  1  0  0  0  0
  5 11  1  0  0  0  0
  6  7  2  0  0  0  0
  6  9  1  0  0  0  0
  7  8  1  0  0  0  0
  9 10  1  0  0  0  0
 10 11  2  0  0  0  0
M  END
>  <CHROM.1>
36.39197635,-9.85645602,-37.90936864,2.97842485,0.47912569,2.76546704

>  <Name>
ligand

>  <RI>
0

>  <Rbt.Current_Directory>
/home/itssahil/PROJECTS/Mol_Feturizer/New_Systems/rnas/3RKF

>  <Rbt.Executable>
rbdock ($Id: //depot/dev/client3/rdock/2013.1/src/exe/rbdock.cxx#4 $)

>  <Rbt.Library>
libRbt.so (2013.1, Build901 2013/11/27)

>  <Rbt.Parameter_File>
/export/apps/rDock/src/rDock_2013.1_src/data/scripts/dock_solv.prm

>  <Rbt.Receptor>
prm/pocket_docking_6.prm

>  <SCORE>
-16.5018

>  <SCORE.INTER>
-16.5018

>  <SCORE.INTER.CONST>
1

>  <SCORE.INTER.POLAR>
0

>  <SCORE.INTER.ROT>
0

>  <SCORE.INTER.SOLV>
10.7416

>  <SCORE.INTER.VDW>
-18.1817

>  <SCORE.INTER.norm>
-1.50016

>  <SCORE.INTRA>
0

>  <SCORE.INTRA.DIHEDRAL>
0

>  <SCORE.INTRA.DIHEDRAL.0>
0

>  <SCORE.INTRA.POLAR>
0

>  <SCORE.INTRA.POLAR.0>
0

>  <SCORE.INTRA.REPUL>
0

>  <SCORE.INTRA.REPUL.0>
0

>  <SCORE.INTRA.SOLV>
0

>  <SCORE.INTRA.SOLV.lig_0>
-28.6198

>  <SCORE.INTRA.VDW>
0

>  <SCORE.INTRA.VDW.0>
0

>  <SCORE.INTRA.norm>
0

>  <SCORE.RESTR>
0

>  <SCORE.RESTR.CAVITY>
0

>  <SCORE.RESTR.norm>
0

>  <SCORE.SYSTEM>
0

>  <SCORE.SYSTEM.CONST>
0

>  <SCORE.SYSTEM.DIHEDRAL>
0

>  <SCORE.SYSTEM.SOLV>
0

>  <SCORE.SYSTEM.norm>
0

>  <SCORE.heavy>
11

>  <SCORE.norm>
-1.50016

>  <RMSD>
3.444

$$$$
ligand
 OpenBabel11021811483D
libRbt.so/2013.1/901 2013/11/27
 11 12  0  0  0  0  0  0  0  0999 V2000
   34.9686   -9.9470  -38.6772 N   0  0  0  0  0  0  0  0  0  0  0  0
   35.2365   -8.6790  -39.0235 C   0  0  0  0  0  0  0  0  0  0  0  0
   34.2986   -7.9659  -39.8311 N   0  0  0  0  0  0  0  0  0  0  0  0
   36.3606   -8.0721  -38.6284 N   0  0  0  0  0  0  0  0  0  0  0  0
   37.2810   -8.7441  -37.8479 C   0  0  0  0  0  0  0  0  0  0  0  0
   37.0239  -10.0409  -37.4868 C   0  0  0  0  0  0  0  0  0  0  0  0
   35.8131  -10.6745  -37.9185 C   0  0  0  0  0  0  0  0  0  0  0  0
   35.4343  -12.3444  -37.4704 S   0  0  0  0  0  0  0  0  0  0  0  0
   38.0783  -10.4760  -36.7252 N   0  0  0  0  0  0  0  0  0  0  0  0
   38.9741   -9.4600  -36.6194 C   0  0  0  0  0  0  0  0  0  0  0  0
   38.5008   -8.3815  -37.3051 N   0  0  0  0  0  0  0  0  0  0  0  0
  1  2  2  0  0  0  0
  1  7  1  0  0  0  0
  2  3  1  0  0  0  0
  2  4  1  0  0  0  0
  4  5  2  0  0  0  0
  5  6  1  0  0  0  0
  5 11  1  0  0  0  0
  6  7  2  0  0  0  0
  6  9  1  0  0  0  0
  7  8  1  0  0  0  0
  9 10  1  0  0  0  0
 10 11  2  0  0  0  0
M  END
>  <CHROM.1>
36.39345520,-9.85561747,-37.91160369,2.97745007,0.48149686,2.76727789

>  <Name>
ligand

>  <RI>
0

>  <Rbt.Current_Directory>
/home/itssahil/PROJECTS/Mol_Feturizer/New_Systems/rnas/3RKF

>  <Rbt.Executable>
rbdock ($Id: //depot/dev/client3/rdock/2013.1/src/exe/rbdock.cxx#4 $)

>  <Rbt.Library>
libRbt.so (2013.1, Build901 2013/11/27)

>  <Rbt.Parameter_File>
/export/apps/rDock/src/rDock_2013.1_src/data/scripts/dock_solv.prm

>  <Rbt.Receptor>
prm/pocket_docking_7.prm

>  <SCORE>
-16.503

>  <SCORE.INTER>
-16.503

>  <SCORE.INTER.CONST>
1

>  <SCORE.INTER.POLAR>
0

>  <SCORE.INTER.ROT>
0

>  <SCORE.INTER.SOLV>
10.7541

>  <SCORE.INTER.VDW>
-18.1867

>  <SCORE.INTER.norm>
-1.50027

>  <SCORE.INTRA>
0

>  <SCORE.INTRA.DIHEDRAL>
0

>  <SCORE.INTRA.DIHEDRAL.0>
0

>  <SCORE.INTRA.POLAR>
0

>  <SCORE.INTRA.POLAR.0>
0

>  <SCORE.INTRA.REPUL>
0

>  <SCORE.INTRA.REPUL.0>
0

>  <SCORE.INTRA.SOLV>
0

>  <SCORE.INTRA.SOLV.lig_0>
-28.6198

>  <SCORE.INTRA.VDW>
0

>  <SCORE.INTRA.VDW.0>
0

>  <SCORE.INTRA.norm>
0

>  <SCORE.RESTR>
0

>  <SCORE.RESTR.CAVITY>
0

>  <SCORE.RESTR.norm>
0

>  <SCORE.SYSTEM>
0

>  <SCORE.SYSTEM.CONST>
0

>  <SCORE.SYSTEM.DIHEDRAL>
0

>  <SCORE.SYSTEM.SOLV>
0

>  <SCORE.SYSTEM.norm>
0

>  <SCORE.heavy>
11

>  <SCORE.norm>
-1.50027

>  <RMSD>
3.444

$$$$
ligand
 OpenBabel11021811483D
libRbt.so/2013.1/901 2013/11/27
 11 12  0  0  0  0  0  0  0  0999 V2000
   34.9649   -9.9445  -38.6721 N   0  0  0  0  0  0  0  0  0  0  0  0
   35.2348   -8.6782  -39.0226 C   0  0  0  0  0  0  0  0  0  0  0  0
   34.2972   -7.9655  -39.8310 N   0  0  0  0  0  0  0  0  0  0  0  0
   36.3608   -8.0724  -38.6310 N   0  0  0  0  0  0  0  0  0  0  0  0
   37.2810   -8.7439  -37.8499 C   0  0  0  0  0  0  0  0  0  0  0  0
   37.0218  -10.0391  -37.4845 C   0  0  0  0  0  0  0  0  0  0  0  0
   35.8090  -10.6714  -37.9124 C   0  0  0  0  0  0  0  0  0  0  0  0
   35.4275  -12.3392  -37.4587 S   0  0  0  0  0  0  0  0  0  0  0  0
   38.0764  -10.4741  -36.7233 N   0  0  0  0  0  0  0  0  0  0  0  0
   38.9745   -9.4597  -36.6219 C   0  0  0  0  0  0  0  0  0  0  0  0
   38.5025   -8.3823  -37.3101 N   0  0  0  0  0  0  0  0  0  0  0  0
  1  2  2  0  0  0  0
  1  7  1  0  0  0  0
  2  3  1  0  0  0  0
  2  4  1  0  0  0  0
  4  5  2  0  0  0  0
  5  6  1  0  0  0  0
  5 11  1  0  0  0  0
  6  7  2  0  0  0  0
  6  9  1  0  0  0  0
  7  8  1  0  0  0  0
  9 10  1  0  0  0  0
 10 11  2  0  0  0  0
M  END
>  <CHROM.1>
36.39110004,-9.85377452,-37.90890498,2.97899837,0.47930314,2.76352699

>  <Name>
ligand

>  <RI>
0

>  <Rbt.Current_Directory>
/home/itssahil/PROJECTS/Mol_Feturizer/New_Systems/rnas/3RKF

>  <Rbt.Executable>
rbdock ($Id: //depot/dev/client3/rdock/2013.1/src/exe/rbdock.cxx#4 $)

>  <Rbt.Library>
libRbt.so (2013.1, Build901 2013/11/27)

>  <Rbt.Parameter_File>
/export/apps/rDock/src/rDock_2013.1_src/data/scripts/dock_solv.prm

>  <Rbt.Receptor>
prm/pocket_docking_8.prm

>  <SCORE>
-16.5015

>  <SCORE.INTER>
-16.5015

>  <SCORE.INTER.CONST>
1

>  <SCORE.INTER.POLAR>
0

>  <SCORE.INTER.ROT>
0

>  <SCORE.INTER.SOLV>
10.7458

>  <SCORE.INTER.VDW>
-18.1829

>  <SCORE.INTER.norm>
-1.50013

>  <SCORE.INTRA>
0

>  <SCORE.INTRA.DIHEDRAL>
0

>  <SCORE.INTRA.DIHEDRAL.0>
0

>  <SCORE.INTRA.POLAR>
0

>  <SCORE.INTRA.POLAR.0>
0

>  <SCORE.INTRA.REPUL>
0

>  <SCORE.INTRA.REPUL.0>
0

>  <SCORE.INTRA.SOLV>
0

>  <SCORE.INTRA.SOLV.lig_0>
-28.6198

>  <SCORE.INTRA.VDW>
0

>  <SCORE.INTRA.VDW.0>
0

>  <SCORE.INTRA.norm>
0

>  <SCORE.RESTR>
0

>  <SCORE.RESTR.CAVITY>
0

>  <SCORE.RESTR.norm>
0

>  <SCORE.SYSTEM>
0

>  <SCORE.SYSTEM.CONST>
0

>  <SCORE.SYSTEM.DIHEDRAL>
0

>  <SCORE.SYSTEM.SOLV>
0

>  <SCORE.SYSTEM.norm>
0

>  <SCORE.heavy>
11

>  <SCORE.norm>
-1.50013

>  <RMSD>
3.444

$$$$
ligand
 OpenBabel11021811483D
libRbt.so/2013.1/901 2013/11/27
 11 12  0  0  0  0  0  0  0  0999 V2000
   34.9667   -9.9472  -38.6748 N   0  0  0  0  0  0  0  0  0  0  0  0
   35.2339   -8.6790  -39.0207 C   0  0  0  0  0  0  0  0  0  0  0  0
   34.2948   -7.9656  -39.8266 N   0  0  0  0  0  0  0  0  0  0  0  0
   36.3584   -8.0722  -38.6267 N   0  0  0  0  0  0  0  0  0  0  0  0
   37.2800   -8.7446  -37.8478 C   0  0  0  0  0  0  0  0  0  0  0  0
   37.0236  -10.0416  -37.4872 C   0  0  0  0  0  0  0  0  0  0  0  0
   35.8122  -10.6751  -37.9176 C   0  0  0  0  0  0  0  0  0  0  0  0
   35.4343  -12.3453  -37.4700 S   0  0  0  0  0  0  0  0  0  0  0  0
   38.0790  -10.4770  -36.7273 N   0  0  0  0  0  0  0  0  0  0  0  0
   38.9748   -9.4610  -36.6221 C   0  0  0  0  0  0  0  0  0  0  0  0
   38.5005   -8.3821  -37.3065 N   0  0  0  0  0  0  0  0  0  0  0  0
  1  2  2  0  0  0  0
  1  7  1  0  0  0  0
  2  3  1  0  0  0  0
  2  4  1  0  0  0  0
  4  5  2  0  0  0  0
  5  6  1  0  0  0  0
  5 11  1  0  0  0  0
  6  7  2  0  0  0  0
  6  9  1  0  0  0  0
  7  8  1  0  0  0  0
  9 10  1  0  0  0  0
 10 11  2  0  0  0  0
M  END
>  <CHROM.1>
36.39251179,-9.85612104,-37.91100701,2.97675484,0.48028415,2.76818910

>  <Name>
ligand

>  <RI>
0

>  <Rbt.Current_Directory>
/home/itssahil/PROJECTS/Mol_Feturizer/New_Systems/rnas/3RKF

>  <Rbt.Executable>
rbdock ($Id: //depot/dev/client3/rdock/2013.1/src/exe/rbdock.cxx#4 $)

>  <Rbt.Library>
libRbt.so (2013.1, Build901 2013/11/27)

>  <Rbt.Parameter_File>
/export/apps/rDock/src/rDock_2013.1_src/data/scripts/dock_solv.prm

>  <Rbt.Receptor>
prm/pocket_docking_8.prm

>  <SCORE>
-16.5025

>  <SCORE.INTER>
-16.5025

>  <SCORE.INTER.CONST>
1

>  <SCORE.INTER.POLAR>
0

>  <SCORE.INTER.ROT>
0

>  <SCORE.INTER.SOLV>
10.7349

>  <SCORE.INTER.VDW>
-18.18

>  <SCORE.INTER.norm>
-1.50023

>  <SCORE.INTRA>
0

>  <SCORE.INTRA.DIHEDRAL>
0

>  <SCORE.INTRA.DIHEDRAL.0>
0

>  <SCORE.INTRA.POLAR>
0

>  <SCORE.INTRA.POLAR.0>
0

>  <SCORE.INTRA.REPUL>
0

>  <SCORE.INTRA.REPUL.0>
0

>  <SCORE.INTRA.SOLV>
0

>  <SCORE.INTRA.SOLV.lig_0>
-28.6198

>  <SCORE.INTRA.VDW>
0

>  <SCORE.INTRA.VDW.0>
0

>  <SCORE.INTRA.norm>
0

>  <SCORE.RESTR>
0

>  <SCORE.RESTR.CAVITY>
0

>  <SCORE.RESTR.norm>
0

>  <SCORE.SYSTEM>
0

>  <SCORE.SYSTEM.CONST>
0

>  <SCORE.SYSTEM.DIHEDRAL>
0

>  <SCORE.SYSTEM.SOLV>
0

>  <SCORE.SYSTEM.norm>
0

>  <SCORE.heavy>
11

>  <SCORE.norm>
-1.50023

>  <RMSD>
3.444

$$$$
ligand
 OpenBabel11021811483D
libRbt.so/2013.1/901 2013/11/27
 11 12  0  0  0  0  0  0  0  0999 V2000
   34.9632   -9.9437  -38.6800 N   0  0  0  0  0  0  0  0  0  0  0  0
   35.2301   -8.6753  -39.0255 C   0  0  0  0  0  0  0  0  0  0  0  0
   34.2925   -7.9629  -39.8340 N   0  0  0  0  0  0  0  0  0  0  0  0
   36.3530   -8.0673  -38.6287 N   0  0  0  0  0  0  0  0  0  0  0  0
   37.2732   -8.7386  -37.8473 C   0  0  0  0  0  0  0  0  0  0  0  0
   37.0171  -10.0358  -37.4871 C   0  0  0  0  0  0  0  0  0  0  0  0
   35.8075  -10.6705  -37.9205 C   0  0  0  0  0  0  0  0  0  0  0  0
   35.4301  -12.3411  -37.4736 S   0  0  0  0  0  0  0  0  0  0  0  0
   38.0710  -10.4700  -36.7244 N   0  0  0  0  0  0  0  0  0  0  0  0
   38.9656   -9.4531  -36.6170 C   0  0  0  0  0  0  0  0  0  0  0  0
   38.4920   -8.3749  -37.3029 N   0  0  0  0  0  0  0  0  0  0  0  0
  1  2  2  0  0  0  0
  1  7  1  0  0  0  0
  2  3  1  0  0  0  0
  2  4  1  0  0  0  0
  4  5  2  0  0  0  0
  5  6  1  0  0  0  0
  5 11  1  0  0  0  0
  6  7  2  0  0  0  0
  6  9  1  0  0  0  0
  7  8  1  0  0  0  0
  9 10  1  0  0  0  0
 10 11  2  0  0  0  0
M  END
>  <CHROM.1>
36.38701609,-9.85103077,-37.91259633,2.97679338,0.48305497,2.76797599

>  <Name>
ligand

>  <RI>
0

>  <Rbt.Current_Directory>
/home/itssahil/PROJECTS/Mol_Feturizer/New_Systems/rnas/3RKF

>  <Rbt.Executable>
rbdock ($Id: //depot/dev/client3/rdock/2013.1/src/exe/rbdock.cxx#4 $)

>  <Rbt.Library>
libRbt.so (2013.1, Build901 2013/11/27)

>  <Rbt.Parameter_File>
/export/apps/rDock/src/rDock_2013.1_src/data/scripts/dock_solv.prm

>  <Rbt.Receptor>
prm/blind_docking_80.prm

>  <SCORE>
-16.5027

>  <SCORE.INTER>
-16.5027

>  <SCORE.INTER.CONST>
1

>  <SCORE.INTER.POLAR>
0

>  <SCORE.INTER.ROT>
0

>  <SCORE.INTER.SOLV>
10.7316

>  <SCORE.INTER.VDW>
-18.179

>  <SCORE.INTER.norm>
-1.50025

>  <SCORE.INTRA>
0

>  <SCORE.INTRA.DIHEDRAL>
0

>  <SCORE.INTRA.DIHEDRAL.0>
0

>  <SCORE.INTRA.POLAR>
0

>  <SCORE.INTRA.POLAR.0>
0

>  <SCORE.INTRA.REPUL>
0

>  <SCORE.INTRA.REPUL.0>
0

>  <SCORE.INTRA.SOLV>
0

>  <SCORE.INTRA.SOLV.lig_0>
-28.6198

>  <SCORE.INTRA.VDW>
0

>  <SCORE.INTRA.VDW.0>
0

>  <SCORE.INTRA.norm>
0

>  <SCORE.RESTR>
0

>  <SCORE.RESTR.CAVITY>
0

>  <SCORE.RESTR.norm>
0

>  <SCORE.SYSTEM>
0

>  <SCORE.SYSTEM.CONST>
0

>  <SCORE.SYSTEM.DIHEDRAL>
0

>  <SCORE.SYSTEM.SOLV>
0

>  <SCORE.SYSTEM.norm>
0

>  <SCORE.heavy>
11

>  <SCORE.norm>
-1.50025

>  <RMSD>
3.445

$$$$
ligand
 OpenBabel11021811483D
libRbt.so/2013.1/901 2013/11/27
 11 12  0  0  0  0  0  0  0  0999 V2000
   34.9789   -9.9995  -38.6463 N   0  0  0  0  0  0  0  0  0  0  0  0
   35.2467   -8.7362  -39.0095 C   0  0  0  0  0  0  0  0  0  0  0  0
   34.3053   -8.0314  -39.8202 N   0  0  0  0  0  0  0  0  0  0  0  0
   36.3740   -8.1265  -38.6282 N   0  0  0  0  0  0  0  0  0  0  0  0
   37.2979   -8.7905  -37.8450 C   0  0  0  0  0  0  0  0  0  0  0  0
   37.0409  -10.0824  -37.4668 C   0  0  0  0  0  0  0  0  0  0  0  0
   35.8266  -10.7191  -37.8838 C   0  0  0  0  0  0  0  0  0  0  0  0
   35.4478  -12.3829  -37.4133 S   0  0  0  0  0  0  0  0  0  0  0  0
   38.0990  -10.5100  -36.7062 N   0  0  0  0  0  0  0  0  0  0  0  0
   38.9970   -9.4943  -36.6178 C   0  0  0  0  0  0  0  0  0  0  0  0
   38.5215   -8.4234  -37.3138 N   0  0  0  0  0  0  0  0  0  0  0  0
  1  2  2  0  0  0  0
  1  7  1  0  0  0  0
  2  3  1  0  0  0  0
  2  4  1  0  0  0  0
  4  5  2  0  0  0  0
  5  6  1  0  0  0  0
  5 11  1  0  0  0  0
  6  7  2  0  0  0  0
  6  9  1  0  0  0  0
  7  8  1  0  0  0  0
  9 10  1  0  0  0  0
 10 11  2  0  0  0  0
M  END
>  <CHROM.1>
36.40828992,-9.90120347,-37.89014633,2.97670521,0.47549409,2.75553389

>  <Name>
ligand

>  <RI>
0

>  <Rbt.Current_Directory>
/home/itssahil/PROJECTS/Mol_Feturizer/New_Systems/rnas/3RKF

>  <Rbt.Executable>
rbdock ($Id: //depot/dev/client3/rdock/2013.1/src/exe/rbdock.cxx#4 $)

>  <Rbt.Library>
libRbt.so (2013.1, Build901 2013/11/27)

>  <Rbt.Parameter_File>
/export/apps/rDock/src/rDock_2013.1_src/data/scripts/dock_solv.prm

>  <Rbt.Receptor>
prm/pocket_docking_6.prm

>  <SCORE>
-16.4866

>  <SCORE.INTER>
-16.4866

>  <SCORE.INTER.CONST>
1

>  <SCORE.INTER.POLAR>
0

>  <SCORE.INTER.ROT>
0

>  <SCORE.INTER.SOLV>
10.8539

>  <SCORE.INTER.VDW>
-18.2091

>  <SCORE.INTER.norm>
-1.49878

>  <SCORE.INTRA>
0

>  <SCORE.INTRA.DIHEDRAL>
0

>  <SCORE.INTRA.DIHEDRAL.0>
0

>  <SCORE.INTRA.POLAR>
0

>  <SCORE.INTRA.POLAR.0>
0

>  <SCORE.INTRA.REPUL>
0

>  <SCORE.INTRA.REPUL.0>
0

>  <SCORE.INTRA.SOLV>
0

>  <SCORE.INTRA.SOLV.lig_0>
-28.6198

>  <SCORE.INTRA.VDW>
0

>  <SCORE.INTRA.VDW.0>
0

>  <SCORE.INTRA.norm>
0

>  <SCORE.RESTR>
0

>  <SCORE.RESTR.CAVITY>
0

>  <SCORE.RESTR.norm>
0

>  <SCORE.SYSTEM>
0

>  <SCORE.SYSTEM.CONST>
0

>  <SCORE.SYSTEM.DIHEDRAL>
0

>  <SCORE.SYSTEM.SOLV>
0

>  <SCORE.SYSTEM.norm>
0

>  <SCORE.heavy>
11

>  <SCORE.norm>
-1.49878

>  <RMSD>
3.445

$$$$
ligand
 OpenBabel11021811483D
libRbt.so/2013.1/901 2013/11/27
 11 12  0  0  0  0  0  0  0  0999 V2000
   34.9684   -9.9482  -38.6780 N   0  0  0  0  0  0  0  0  0  0  0  0
   35.2355   -8.6796  -39.0223 C   0  0  0  0  0  0  0  0  0  0  0  0
   34.2943   -7.9637  -39.8235 N   0  0  0  0  0  0  0  0  0  0  0  0
   36.3619   -8.0745  -38.6309 N   0  0  0  0  0  0  0  0  0  0  0  0
   37.2856   -8.7492  -37.8565 C   0  0  0  0  0  0  0  0  0  0  0  0
   37.0292  -10.0468  -37.4976 C   0  0  0  0  0  0  0  0  0  0  0  0
   35.8159  -10.6783  -37.9252 C   0  0  0  0  0  0  0  0  0  0  0  0
   35.4381  -12.3491  -37.4797 S   0  0  0  0  0  0  0  0  0  0  0  0
   38.0869  -10.4846  -36.7422 N   0  0  0  0  0  0  0  0  0  0  0  0
   38.9839   -9.4695  -36.6380 C   0  0  0  0  0  0  0  0  0  0  0  0
   38.5082   -8.3889  -37.3186 N   0  0  0  0  0  0  0  0  0  0  0  0
  1  2  2  0  0  0  0
  1  7  1  0  0  0  0
  2  3  1  0  0  0  0
  2  4  1  0  0  0  0
  4  5  2  0  0  0  0
  5  6  1  0  0  0  0
  5 11  1  0  0  0  0
  6  7  2  0  0  0  0
  6  9  1  0  0  0  0
  7  8  1  0  0  0  0
  9 10  1  0  0  0  0
 10 11  2  0  0  0  0
M  END
>  <CHROM.1>
36.39691250,-9.85988621,-37.91892561,2.97625679,0.47680527,2.77044797

>  <Name>
ligand

>  <RI>
0

>  <Rbt.Current_Directory>
/home/itssahil/PROJECTS/Mol_Feturizer/New_Systems/rnas/3RKF

>  <Rbt.Executable>
rbdock ($Id: //depot/dev/client3/rdock/2013.1/src/exe/rbdock.cxx#4 $)

>  <Rbt.Library>
libRbt.so (2013.1, Build901 2013/11/27)

>  <Rbt.Parameter_File>
/export/apps/rDock/src/rDock_2013.1_src/data/scripts/dock_solv.prm

>  <Rbt.Receptor>
prm/pocket_docking_7.prm

>  <SCORE>
-16.4963

>  <SCORE.INTER>
-16.4963

>  <SCORE.INTER.CONST>
1

>  <SCORE.INTER.POLAR>
0

>  <SCORE.INTER.ROT>
0

>  <SCORE.INTER.SOLV>
10.7442

>  <SCORE.INTER.VDW>
-18.1789

>  <SCORE.INTER.norm>
-1.49966

>  <SCORE.INTRA>
0

>  <SCORE.INTRA.DIHEDRAL>
0

>  <SCORE.INTRA.DIHEDRAL.0>
0

>  <SCORE.INTRA.POLAR>
0

>  <SCORE.INTRA.POLAR.0>
0

>  <SCORE.INTRA.REPUL>
0

>  <SCORE.INTRA.REPUL.0>
0

>  <SCORE.INTRA.SOLV>
0

>  <SCORE.INTRA.SOLV.lig_0>
-28.6198

>  <SCORE.INTRA.VDW>
0

>  <SCORE.INTRA.VDW.0>
0

>  <SCORE.INTRA.norm>
0

>  <SCORE.RESTR>
0

>  <SCORE.RESTR.CAVITY>
0

>  <SCORE.RESTR.norm>
0

>  <SCORE.SYSTEM>
0

>  <SCORE.SYSTEM.CONST>
0

>  <SCORE.SYSTEM.DIHEDRAL>
0

>  <SCORE.SYSTEM.SOLV>
0

>  <SCORE.SYSTEM.norm>
0

>  <SCORE.heavy>
11

>  <SCORE.norm>
-1.49966

>  <RMSD>
3.445

$$$$
ligand
 OpenBabel11021811483D
libRbt.so/2013.1/901 2013/11/27
 11 12  0  0  0  0  0  0  0  0999 V2000
   34.9650   -9.9474  -38.6667 N   0  0  0  0  0  0  0  0  0  0  0  0
   35.2341   -8.6811  -39.0178 C   0  0  0  0  0  0  0  0  0  0  0  0
   34.2953   -7.9689  -39.8251 N   0  0  0  0  0  0  0  0  0  0  0  0
   36.3604   -8.0750  -38.6278 N   0  0  0  0  0  0  0  0  0  0  0  0
   37.2818   -8.7461  -37.8477 C   0  0  0  0  0  0  0  0  0  0  0  0
   37.0234  -10.0413  -37.4817 C   0  0  0  0  0  0  0  0  0  0  0  0
   35.8102  -10.6740  -37.9079 C   0  0  0  0  0  0  0  0  0  0  0  0
   35.4297  -12.3418  -37.4534 S   0  0  0  0  0  0  0  0  0  0  0  0
   38.0791  -10.4758  -36.7217 N   0  0  0  0  0  0  0  0  0  0  0  0
   38.9770   -9.4611  -36.6216 C   0  0  0  0  0  0  0  0  0  0  0  0
   38.5038   -8.3840  -37.3095 N   0  0  0  0  0  0  0  0  0  0  0  0
  1  2  2  0  0  0  0
  1  7  1  0  0  0  0
  2  3  1  0  0  0  0
  2  4  1  0  0  0  0
  4  5  2  0  0  0  0
  5  6  1  0  0  0  0
  5 11  1  0  0  0  0
  6  7  2  0  0  0  0
  6  9  1  0  0  0  0
  7  8  1  0  0  0  0
  9 10  1  0  0  0  0
 10 11  2  0  0  0  0
M  END
>  <CHROM.1>
36.39209538,-9.85617103,-37.90533397,2.97818325,0.47823221,2.76369316

>  <Name>
ligand

>  <RI>
0

>  <Rbt.Current_Directory>
/home/itssahil/PROJECTS/Mol_Feturizer/New_Systems/rnas/3RKF

>  <Rbt.Executable>
rbdock ($Id: //depot/dev/client3/rdock/2013.1/src/exe/rbdock.cxx#4 $)

>  <Rbt.Library>
libRbt.so (2013.1, Build901 2013/11/27)

>  <Rbt.Parameter_File>
/export/apps/rDock/src/rDock_2013.1_src/data/scripts/dock_solv.prm

>  <Rbt.Receptor>
prm/pocket_docking_8.prm

>  <SCORE>
-16.4996

>  <SCORE.INTER>
-16.4996

>  <SCORE.INTER.CONST>
1

>  <SCORE.INTER.POLAR>
0

>  <SCORE.INTER.ROT>
0

>  <SCORE.INTER.SOLV>
10.7325

>  <SCORE.INTER.VDW>
-18.1773

>  <SCORE.INTER.norm>
-1.49996

>  <SCORE.INTRA>
0

>  <SCORE.INTRA.DIHEDRAL>
0

>  <SCORE.INTRA.DIHEDRAL.0>
0

>  <SCORE.INTRA.POLAR>
0

>  <SCORE.INTRA.POLAR.0>
0

>  <SCORE.INTRA.REPUL>
0

>  <SCORE.INTRA.REPUL.0>
0

>  <SCORE.INTRA.SOLV>
0

>  <SCORE.INTRA.SOLV.lig_0>
-28.6198

>  <SCORE.INTRA.VDW>
0

>  <SCORE.INTRA.VDW.0>
0

>  <SCORE.INTRA.norm>
0

>  <SCORE.RESTR>
0

>  <SCORE.RESTR.CAVITY>
0

>  <SCORE.RESTR.norm>
0

>  <SCORE.SYSTEM>
0

>  <SCORE.SYSTEM.CONST>
0

>  <SCORE.SYSTEM.DIHEDRAL>
0

>  <SCORE.SYSTEM.SOLV>
0

>  <SCORE.SYSTEM.norm>
0

>  <SCORE.heavy>
11

>  <SCORE.norm>
-1.49996

>  <RMSD>
3.445

$$$$
ligand
 OpenBabel11021811483D
libRbt.so/2013.1/901 2013/11/27
 11 12  0  0  0  0  0  0  0  0999 V2000
   34.9638   -9.9433  -38.6762 N   0  0  0  0  0  0  0  0  0  0  0  0
   35.2319   -8.6759  -39.0242 C   0  0  0  0  0  0  0  0  0  0  0  0
   34.2930   -7.9628  -39.8305 N   0  0  0  0  0  0  0  0  0  0  0  0
   36.3573   -8.0695  -38.6320 N   0  0  0  0  0  0  0  0  0  0  0  0
   37.2789   -8.7415  -37.8527 C   0  0  0  0  0  0  0  0  0  0  0  0
   37.0215  -10.0377  -37.4899 C   0  0  0  0  0  0  0  0  0  0  0  0
   35.8093  -10.6707  -37.9184 C   0  0  0  0  0  0  0  0  0  0  0  0
   35.4301  -12.3399  -37.4680 S   0  0  0  0  0  0  0  0  0  0  0  0
   38.0771  -10.4729  -36.7301 N   0  0  0  0  0  0  0  0  0  0  0  0
   38.9739   -9.4576  -36.6271 C   0  0  0  0  0  0  0  0  0  0  0  0
   38.5001   -8.3793  -37.3129 N   0  0  0  0  0  0  0  0  0  0  0  0
  1  2  2  0  0  0  0
  1  7  1  0  0  0  0
  2  3  1  0  0  0  0
  2  4  1  0  0  0  0
  4  5  2  0  0  0  0
  5  6  1  0  0  0  0
  5 11  1  0  0  0  0
  6  7  2  0  0  0  0
  6  9  1  0  0  0  0
  7  8  1  0  0  0  0
  9 10  1  0  0  0  0
 10 11  2  0  0  0  0
M  END
>  <CHROM.1>
36.39032493,-9.85232149,-37.91355840,2.97742296,0.47926975,2.76633722

>  <Name>
ligand

>  <RI>
0

>  <Rbt.Current_Directory>
/home/itssahil/PROJECTS/Mol_Feturizer/New_Systems/rnas/3RKF

>  <Rbt.Executable>
rbdock ($Id: //depot/dev/client3/rdock/2013.1/src/exe/rbdock.cxx#4 $)

>  <Rbt.Library>
libRbt.so (2013.1, Build901 2013/11/27)

>  <Rbt.Parameter_File>
/export/apps/rDock/src/rDock_2013.1_src/data/scripts/dock_solv.prm

>  <Rbt.Receptor>
prm/blind_docking_60.prm

>  <SCORE>
-16.5021

>  <SCORE.INTER>
-16.5021

>  <SCORE.INTER.CONST>
1

>  <SCORE.INTER.POLAR>
0

>  <SCORE.INTER.ROT>
0

>  <SCORE.INTER.SOLV>
10.7341

>  <SCORE.INTER.VDW>
-18.1794

>  <SCORE.INTER.norm>
-1.50019

>  <SCORE.INTRA>
0

>  <SCORE.INTRA.DIHEDRAL>
0

>  <SCORE.INTRA.DIHEDRAL.0>
0

>  <SCORE.INTRA.POLAR>
0

>  <SCORE.INTRA.POLAR.0>
0

>  <SCORE.INTRA.REPUL>
0

>  <SCORE.INTRA.REPUL.0>
0

>  <SCORE.INTRA.SOLV>
0

>  <SCORE.INTRA.SOLV.lig_0>
-28.6198

>  <SCORE.INTRA.VDW>
0

>  <SCORE.INTRA.VDW.0>
0

>  <SCORE.INTRA.norm>
0

>  <SCORE.RESTR>
0

>  <SCORE.RESTR.CAVITY>
0

>  <SCORE.RESTR.norm>
0

>  <SCORE.SYSTEM>
0

>  <SCORE.SYSTEM.CONST>
0

>  <SCORE.SYSTEM.DIHEDRAL>
0

>  <SCORE.SYSTEM.SOLV>
0

>  <SCORE.SYSTEM.norm>
0

>  <SCORE.heavy>
11

>  <SCORE.norm>
-1.50019

>  <RMSD>
3.446

$$$$
ligand
 OpenBabel11021811483D
libRbt.so/2013.1/901 2013/11/27
 11 12  0  0  0  0  0  0  0  0999 V2000
   34.9640   -9.9442  -38.6781 N   0  0  0  0  0  0  0  0  0  0  0  0
   35.2310   -8.6761  -39.0247 C   0  0  0  0  0  0  0  0  0  0  0  0
   34.2924   -7.9636  -39.8319 N   0  0  0  0  0  0  0  0  0  0  0  0
   36.3550   -8.0686  -38.6301 N   0  0  0  0  0  0  0  0  0  0  0  0
   37.2761   -8.7400  -37.8500 C   0  0  0  0  0  0  0  0  0  0  0  0
   37.0198  -10.0369  -37.4886 C   0  0  0  0  0  0  0  0  0  0  0  0
   35.8091  -10.6711  -37.9196 C   0  0  0  0  0  0  0  0  0  0  0  0
   35.4315  -12.3412  -37.4711 S   0  0  0  0  0  0  0  0  0  0  0  0
   38.0748  -10.4714  -36.7275 N   0  0  0  0  0  0  0  0  0  0  0  0
   38.9701   -9.4549  -36.6222 C   0  0  0  0  0  0  0  0  0  0  0  0
   38.4960   -8.3768  -37.3078 N   0  0  0  0  0  0  0  0  0  0  0  0
  1  2  2  0  0  0  0
  1  7  1  0  0  0  0
  2  3  1  0  0  0  0
  2  4  1  0  0  0  0
  4  5  2  0  0  0  0
  5  6  1  0  0  0  0
  5 11  1  0  0  0  0
  6  7  2  0  0  0  0
  6  9  1  0  0  0  0
  7  8  1  0  0  0  0
  9 10  1  0  0  0  0
 10 11  2  0  0  0  0
M  END
>  <CHROM.1>
36.38910590,-9.85199040,-37.91312271,2.97671814,0.48124693,2.76747519

>  <Name>
ligand

>  <RI>
0

>  <Rbt.Current_Directory>
/home/itssahil/PROJECTS/Mol_Feturizer/New_Systems/rnas/3RKF

>  <Rbt.Executable>
rbdock ($Id: //depot/dev/client3/rdock/2013.1/src/exe/rbdock.cxx#4 $)

>  <Rbt.Library>
libRbt.so (2013.1, Build901 2013/11/27)

>  <Rbt.Parameter_File>
/export/apps/rDock/src/rDock_2013.1_src/data/scripts/dock_solv.prm

>  <Rbt.Receptor>
prm/blind_docking_60.prm

>  <SCORE>
-16.5025

>  <SCORE.INTER>
-16.5025

>  <SCORE.INTER.CONST>
1

>  <SCORE.INTER.POLAR>
0

>  <SCORE.INTER.ROT>
0

>  <SCORE.INTER.SOLV>
10.7327

>  <SCORE.INTER.VDW>
-18.1792

>  <SCORE.INTER.norm>
-1.50023

>  <SCORE.INTRA>
0

>  <SCORE.INTRA.DIHEDRAL>
0

>  <SCORE.INTRA.DIHEDRAL.0>
0

>  <SCORE.INTRA.POLAR>
0

>  <SCORE.INTRA.POLAR.0>
0

>  <SCORE.INTRA.REPUL>
0

>  <SCORE.INTRA.REPUL.0>
0

>  <SCORE.INTRA.SOLV>
0

>  <SCORE.INTRA.SOLV.lig_0>
-28.6198

>  <SCORE.INTRA.VDW>
0

>  <SCORE.INTRA.VDW.0>
0

>  <SCORE.INTRA.norm>
0

>  <SCORE.RESTR>
0

>  <SCORE.RESTR.CAVITY>
0

>  <SCORE.RESTR.norm>
0

>  <SCORE.SYSTEM>
0

>  <SCORE.SYSTEM.CONST>
0

>  <SCORE.SYSTEM.DIHEDRAL>
0

>  <SCORE.SYSTEM.SOLV>
0

>  <SCORE.SYSTEM.norm>
0

>  <SCORE.heavy>
11

>  <SCORE.norm>
-1.50023

>  <RMSD>
3.446

$$$$
ligand
 OpenBabel11021811483D
libRbt.so/2013.1/901 2013/11/27
 11 12  0  0  0  0  0  0  0  0999 V2000
   34.9724   -9.9573  -38.6561 N   0  0  0  0  0  0  0  0  0  0  0  0
   35.2378   -8.6900  -39.0066 C   0  0  0  0  0  0  0  0  0  0  0  0
   34.2938   -7.9780  -39.8080 N   0  0  0  0  0  0  0  0  0  0  0  0
   36.3651   -8.0827  -38.6214 N   0  0  0  0  0  0  0  0  0  0  0  0
   37.2916   -8.7536  -37.8471 C   0  0  0  0  0  0  0  0  0  0  0  0
   37.0370  -10.0498  -37.4818 C   0  0  0  0  0  0  0  0  0  0  0  0
   35.8227  -10.6837  -37.9029 C   0  0  0  0  0  0  0  0  0  0  0  0
   35.4471  -12.3528  -37.4490 S   0  0  0  0  0  0  0  0  0  0  0  0
   38.0973  -10.4839  -36.7280 N   0  0  0  0  0  0  0  0  0  0  0  0
   38.9942   -9.4679  -36.6309 C   0  0  0  0  0  0  0  0  0  0  0  0
   38.5158   -8.3905  -37.3147 N   0  0  0  0  0  0  0  0  0  0  0  0
  1  2  2  0  0  0  0
  1  7  1  0  0  0  0
  2  3  1  0  0  0  0
  2  4  1  0  0  0  0
  4  5  2  0  0  0  0
  5  6  1  0  0  0  0
  5 11  1  0  0  0  0
  6  7  2  0  0  0  0
  6  9  1  0  0  0  0
  7  8  1  0  0  0  0
  9 10  1  0  0  0  0
 10 11  2  0  0  0  0
M  END
>  <CHROM.1>
36.40329417,-9.86500595,-37.90194666,2.97444667,0.47402441,2.76699022

>  <Name>
ligand

>  <RI>
0

>  <Rbt.Current_Directory>
/home/itssahil/PROJECTS/Mol_Feturizer/New_Systems/rnas/3RKF

>  <Rbt.Executable>
rbdock ($Id: //depot/dev/client3/rdock/2013.1/src/exe/rbdock.cxx#4 $)

>  <Rbt.Library>
libRbt.so (2013.1, Build901 2013/11/27)

>  <Rbt.Parameter_File>
/export/apps/rDock/src/rDock_2013.1_src/data/scripts/dock_solv.prm

>  <Rbt.Receptor>
prm/blind_docking_80.prm

>  <SCORE>
-16.4919

>  <SCORE.INTER>
-16.4919

>  <SCORE.INTER.CONST>
1

>  <SCORE.INTER.POLAR>
0

>  <SCORE.INTER.ROT>
0

>  <SCORE.INTER.SOLV>
10.7186

>  <SCORE.INTER.VDW>
-18.1675

>  <SCORE.INTER.norm>
-1.49926

>  <SCORE.INTRA>
0

>  <SCORE.INTRA.DIHEDRAL>
0

>  <SCORE.INTRA.DIHEDRAL.0>
0

>  <SCORE.INTRA.POLAR>
0

>  <SCORE.INTRA.POLAR.0>
0

>  <SCORE.INTRA.REPUL>
0

>  <SCORE.INTRA.REPUL.0>
0

>  <SCORE.INTRA.SOLV>
0

>  <SCORE.INTRA.SOLV.lig_0>
-28.6198

>  <SCORE.INTRA.VDW>
0

>  <SCORE.INTRA.VDW.0>
0

>  <SCORE.INTRA.norm>
0

>  <SCORE.RESTR>
0

>  <SCORE.RESTR.CAVITY>
0

>  <SCORE.RESTR.norm>
0

>  <SCORE.SYSTEM>
0

>  <SCORE.SYSTEM.CONST>
0

>  <SCORE.SYSTEM.DIHEDRAL>
0

>  <SCORE.SYSTEM.SOLV>
0

>  <SCORE.SYSTEM.norm>
0

>  <SCORE.heavy>
11

>  <SCORE.norm>
-1.49926

>  <RMSD>
3.446

$$$$
ligand
 OpenBabel11021811483D
libRbt.so/2013.1/901 2013/11/27
 11 12  0  0  0  0  0  0  0  0999 V2000
   34.9667   -9.9451  -38.6814 N   0  0  0  0  0  0  0  0  0  0  0  0
   35.2329   -8.6764  -39.0262 C   0  0  0  0  0  0  0  0  0  0  0  0
   34.2939   -7.9634  -39.8326 N   0  0  0  0  0  0  0  0  0  0  0  0
   36.3564   -8.0686  -38.6306 N   0  0  0  0  0  0  0  0  0  0  0  0
   37.2779   -8.7405  -37.8512 C   0  0  0  0  0  0  0  0  0  0  0  0
   37.0225  -10.0380  -37.4917 C   0  0  0  0  0  0  0  0  0  0  0  0
   35.8123  -10.6725  -37.9238 C   0  0  0  0  0  0  0  0  0  0  0  0
   35.4357  -12.3435  -37.4777 S   0  0  0  0  0  0  0  0  0  0  0  0
   38.0776  -10.4728  -36.7311 N   0  0  0  0  0  0  0  0  0  0  0  0
   38.9722   -9.4559  -36.6242 C   0  0  0  0  0  0  0  0  0  0  0  0
   38.4975   -8.3771  -37.3084 N   0  0  0  0  0  0  0  0  0  0  0  0
  1  2  2  0  0  0  0
  1  7  1  0  0  0  0
  2  3  1  0  0  0  0
  2  4  1  0  0  0  0
  4  5  2  0  0  0  0
  5  6  1  0  0  0  0
  5 11  1  0  0  0  0
  6  7  2  0  0  0  0
  6  9  1  0  0  0  0
  7  8  1  0  0  0  0
  9 10  1  0  0  0  0
 10 11  2  0  0  0  0
M  END
>  <CHROM.1>
36.39169351,-9.85295160,-37.91608685,2.97603533,0.48163260,2.76919186

>  <Name>
ligand

>  <RI>
0

>  <Rbt.Current_Directory>
/home/itssahil/PROJECTS/Mol_Feturizer/New_Systems/rnas/3RKF

>  <Rbt.Executable>
rbdock ($Id: //depot/dev/client3/rdock/2013.1/src/exe/rbdock.cxx#4 $)

>  <Rbt.Library>
libRbt.so (2013.1, Build901 2013/11/27)

>  <Rbt.Parameter_File>
/export/apps/rDock/src/rDock_2013.1_src/data/scripts/dock_solv.prm

>  <Rbt.Receptor>
prm/pocket_docking_4.prm

>  <SCORE>
-16.5018

>  <SCORE.INTER>
-16.5018

>  <SCORE.INTER.CONST>
1

>  <SCORE.INTER.POLAR>
0

>  <SCORE.INTER.ROT>
0

>  <SCORE.INTER.SOLV>
10.743

>  <SCORE.INTER.VDW>
-18.1822

>  <SCORE.INTER.norm>
-1.50016

>  <SCORE.INTRA>
0

>  <SCORE.INTRA.DIHEDRAL>
0

>  <SCORE.INTRA.DIHEDRAL.0>
0

>  <SCORE.INTRA.POLAR>
0

>  <SCORE.INTRA.POLAR.0>
0

>  <SCORE.INTRA.REPUL>
0

>  <SCORE.INTRA.REPUL.0>
0

>  <SCORE.INTRA.SOLV>
0

>  <SCORE.INTRA.SOLV.lig_0>
-28.6198

>  <SCORE.INTRA.VDW>
0

>  <SCORE.INTRA.VDW.0>
0

>  <SCORE.INTRA.norm>
0

>  <SCORE.RESTR>
0

>  <SCORE.RESTR.CAVITY>
0

>  <SCORE.RESTR.norm>
0

>  <SCORE.SYSTEM>
0

>  <SCORE.SYSTEM.CONST>
0

>  <SCORE.SYSTEM.DIHEDRAL>
0

>  <SCORE.SYSTEM.SOLV>
0

>  <SCORE.SYSTEM.norm>
0

>  <SCORE.heavy>
11

>  <SCORE.norm>
-1.50016

>  <RMSD>
3.446

$$$$
ligand
 OpenBabel11021811483D
libRbt.so/2013.1/901 2013/11/27
 11 12  0  0  0  0  0  0  0  0999 V2000
   34.9656   -9.9419  -38.6793 N   0  0  0  0  0  0  0  0  0  0  0  0
   35.2339   -8.6747  -39.0278 C   0  0  0  0  0  0  0  0  0  0  0  0
   34.2962   -7.9626  -39.8366 N   0  0  0  0  0  0  0  0  0  0  0  0
   36.3583   -8.0676  -38.6340 N   0  0  0  0  0  0  0  0  0  0  0  0
   37.2786   -8.7385  -37.8524 C   0  0  0  0  0  0  0  0  0  0  0  0
   37.0210  -10.0346  -37.4890 C   0  0  0  0  0  0  0  0  0  0  0  0
   35.8098  -10.6684  -37.9194 C   0  0  0  0  0  0  0  0  0  0  0  0
   35.4305  -12.3374  -37.4683 S   0  0  0  0  0  0  0  0  0  0  0  0
   38.0753  -10.4688  -36.7269 N   0  0  0  0  0  0  0  0  0  0  0  0
   38.9716   -9.4530  -36.6230 C   0  0  0  0  0  0  0  0  0  0  0  0
   38.4987   -8.3755  -37.3105 N   0  0  0  0  0  0  0  0  0  0  0  0
  1  2  2  0  0  0  0
  1  7  1  0  0  0  0
  2  3  1  0  0  0  0
  2  4  1  0  0  0  0
  4  5  2  0  0  0  0
  5  6  1  0  0  0  0
  5 11  1  0  0  0  0
  6  7  2  0  0  0  0
  6  9  1  0  0  0  0
  7  8  1  0  0  0  0
  9 10  1  0  0  0  0
 10 11  2  0  0  0  0
M  END
>  <CHROM.1>
36.39056966,-9.84976392,-37.91402917,2.97781306,0.48118707,2.76534026

>  <Name>
ligand

>  <RI>
0

>  <Rbt.Current_Directory>
/home/itssahil/PROJECTS/Mol_Feturizer/New_Systems/rnas/3RKF

>  <Rbt.Executable>
rbdock ($Id: //depot/dev/client3/rdock/2013.1/src/exe/rbdock.cxx#4 $)

>  <Rbt.Library>
libRbt.so (2013.1, Build901 2013/11/27)

>  <Rbt.Parameter_File>
/export/apps/rDock/src/rDock_2013.1_src/data/scripts/dock_solv.prm

>  <Rbt.Receptor>
prm/pocket_docking_7.prm

>  <SCORE>
-16.5032

>  <SCORE.INTER>
-16.5032

>  <SCORE.INTER.CONST>
1

>  <SCORE.INTER.POLAR>
0

>  <SCORE.INTER.ROT>
0

>  <SCORE.INTER.SOLV>
10.7505

>  <SCORE.INTER.VDW>
-18.1856

>  <SCORE.INTER.norm>
-1.50029

>  <SCORE.INTRA>
0

>  <SCORE.INTRA.DIHEDRAL>
0

>  <SCORE.INTRA.DIHEDRAL.0>
0

>  <SCORE.INTRA.POLAR>
0

>  <SCORE.INTRA.POLAR.0>
0

>  <SCORE.INTRA.REPUL>
0

>  <SCORE.INTRA.REPUL.0>
0

>  <SCORE.INTRA.SOLV>
0

>  <SCORE.INTRA.SOLV.lig_0>
-28.6198

>  <SCORE.INTRA.VDW>
0

>  <SCORE.INTRA.VDW.0>
0

>  <SCORE.INTRA.norm>
0

>  <SCORE.RESTR>
0

>  <SCORE.RESTR.CAVITY>
0

>  <SCORE.RESTR.norm>
0

>  <SCORE.SYSTEM>
0

>  <SCORE.SYSTEM.CONST>
0

>  <SCORE.SYSTEM.DIHEDRAL>
0

>  <SCORE.SYSTEM.SOLV>
0

>  <SCORE.SYSTEM.norm>
0

>  <SCORE.heavy>
11

>  <SCORE.norm>
-1.50029

>  <RMSD>
3.446

$$$$
ligand
 OpenBabel11021811483D
libRbt.so/2013.1/901 2013/11/27
 11 12  0  0  0  0  0  0  0  0999 V2000
   34.9471   -9.9421  -38.6719 N   0  0  0  0  0  0  0  0  0  0  0  0
   35.2123   -8.6736  -39.0183 C   0  0  0  0  0  0  0  0  0  0  0  0
   34.2734   -7.9628  -39.8266 N   0  0  0  0  0  0  0  0  0  0  0  0
   36.3348   -8.0642  -38.6226 N   0  0  0  0  0  0  0  0  0  0  0  0
   37.2563   -8.7339  -37.8413 C   0  0  0  0  0  0  0  0  0  0  0  0
   37.0019  -10.0312  -37.4801 C   0  0  0  0  0  0  0  0  0  0  0  0
   35.7927  -10.6676  -37.9124 C   0  0  0  0  0  0  0  0  0  0  0  0
   35.4174  -12.3382  -37.4643 S   0  0  0  0  0  0  0  0  0  0  0  0
   38.0567  -10.4638  -36.7178 N   0  0  0  0  0  0  0  0  0  0  0  0
   38.9502   -9.4458  -36.6116 C   0  0  0  0  0  0  0  0  0  0  0  0
   38.4750   -8.3685  -37.2979 N   0  0  0  0  0  0  0  0  0  0  0  0
  1  2  2  0  0  0  0
  1  7  1  0  0  0  0
  2  3  1  0  0  0  0
  2  4  1  0  0  0  0
  4  5  2  0  0  0  0
  5  6  1  0  0  0  0
  5 11  1  0  0  0  0
  6  7  2  0  0  0  0
  6  9  1  0  0  0  0
  7  8  1  0  0  0  0
  9 10  1  0  0  0  0
 10 11  2  0  0  0  0
M  END
>  <CHROM.1>
36.37127286,-9.84740524,-37.90537785,2.97536124,0.48289812,2.76803244

>  <Name>
ligand

>  <RI>
0

>  <Rbt.Current_Directory>
/home/itssahil/PROJECTS/Mol_Feturizer/New_Systems/rnas/3RKF

>  <Rbt.Executable>
rbdock ($Id: //depot/dev/client3/rdock/2013.1/src/exe/rbdock.cxx#4 $)

>  <Rbt.Library>
libRbt.so (2013.1, Build901 2013/11/27)

>  <Rbt.Parameter_File>
/export/apps/rDock/src/rDock_2013.1_src/data/scripts/dock_solv.prm

>  <Rbt.Receptor>
prm/blind_docking_80.prm

>  <SCORE>
-16.5291

>  <SCORE.INTER>
-16.5291

>  <SCORE.INTER.CONST>
1

>  <SCORE.INTER.POLAR>
0

>  <SCORE.INTER.ROT>
0

>  <SCORE.INTER.SOLV>
10.6458

>  <SCORE.INTER.VDW>
-18.168

>  <SCORE.INTER.norm>
-1.50264

>  <SCORE.INTRA>
0

>  <SCORE.INTRA.DIHEDRAL>
0

>  <SCORE.INTRA.DIHEDRAL.0>
0

>  <SCORE.INTRA.POLAR>
0

>  <SCORE.INTRA.POLAR.0>
0

>  <SCORE.INTRA.REPUL>
0

>  <SCORE.INTRA.REPUL.0>
0

>  <SCORE.INTRA.SOLV>
0

>  <SCORE.INTRA.SOLV.lig_0>
-28.6198

>  <SCORE.INTRA.VDW>
0

>  <SCORE.INTRA.VDW.0>
0

>  <SCORE.INTRA.norm>
0

>  <SCORE.RESTR>
0

>  <SCORE.RESTR.CAVITY>
0

>  <SCORE.RESTR.norm>
0

>  <SCORE.SYSTEM>
0

>  <SCORE.SYSTEM.CONST>
0

>  <SCORE.SYSTEM.DIHEDRAL>
0

>  <SCORE.SYSTEM.SOLV>
0

>  <SCORE.SYSTEM.norm>
0

>  <SCORE.heavy>
11

>  <SCORE.norm>
-1.50264

>  <RMSD>
3.447

$$$$
ligand
 OpenBabel11021811483D
libRbt.so/2013.1/901 2013/11/27
 11 12  0  0  0  0  0  0  0  0999 V2000
   34.9610   -9.9431  -38.6763 N   0  0  0  0  0  0  0  0  0  0  0  0
   35.2273   -8.6749  -39.0230 C   0  0  0  0  0  0  0  0  0  0  0  0
   34.2884   -7.9632  -39.8307 N   0  0  0  0  0  0  0  0  0  0  0  0
   36.3507   -8.0666  -38.6282 N   0  0  0  0  0  0  0  0  0  0  0  0
   37.2721   -8.7372  -37.8476 C   0  0  0  0  0  0  0  0  0  0  0  0
   37.0166  -10.0342  -37.4861 C   0  0  0  0  0  0  0  0  0  0  0  0
   35.8065  -10.6693  -37.9174 C   0  0  0  0  0  0  0  0  0  0  0  0
   35.4298  -12.3396  -37.4687 S   0  0  0  0  0  0  0  0  0  0  0  0
   38.0716  -10.4677  -36.7246 N   0  0  0  0  0  0  0  0  0  0  0  0
   38.9662   -9.4506  -36.6192 C   0  0  0  0  0  0  0  0  0  0  0  0
   38.4916   -8.3729  -37.3052 N   0  0  0  0  0  0  0  0  0  0  0  0
  1  2  2  0  0  0  0
  1  7  1  0  0  0  0
  2  3  1  0  0  0  0
  2  4  1  0  0  0  0
  4  5  2  0  0  0  0
  5  6  1  0  0  0  0
  5 11  1  0  0  0  0
  6  7  2  0  0  0  0
  6  9  1  0  0  0  0
  7  8  1  0  0  0  0
  9 10  1  0  0  0  0
 10 11  2  0  0  0  0
M  END
>  <CHROM.1>
36.38587351,-9.84975684,-37.91087292,2.97611373,0.48179161,2.76756692

>  <Name>
ligand

>  <RI>
0

>  <Rbt.Current_Directory>
/home/itssahil/PROJECTS/Mol_Feturizer/New_Systems/rnas/3RKF

>  <Rbt.Executable>
rbdock ($Id: //depot/dev/client3/rdock/2013.1/src/exe/rbdock.cxx#4 $)

>  <Rbt.Library>
libRbt.so (2013.1, Build901 2013/11/27)

>  <Rbt.Parameter_File>
/export/apps/rDock/src/rDock_2013.1_src/data/scripts/dock_solv.prm

>  <Rbt.Receptor>
prm/pocket_docking_3.prm

>  <SCORE>
-16.5023

>  <SCORE.INTER>
-16.5023

>  <SCORE.INTER.CONST>
1

>  <SCORE.INTER.POLAR>
0

>  <SCORE.INTER.ROT>
0

>  <SCORE.INTER.SOLV>
10.712

>  <SCORE.INTER.VDW>
-18.1722

>  <SCORE.INTER.norm>
-1.50021

>  <SCORE.INTRA>
0

>  <SCORE.INTRA.DIHEDRAL>
0

>  <SCORE.INTRA.DIHEDRAL.0>
0

>  <SCORE.INTRA.POLAR>
0

>  <SCORE.INTRA.POLAR.0>
0

>  <SCORE.INTRA.REPUL>
0

>  <SCORE.INTRA.REPUL.0>
0

>  <SCORE.INTRA.SOLV>
0

>  <SCORE.INTRA.SOLV.lig_0>
-28.6198

>  <SCORE.INTRA.VDW>
0

>  <SCORE.INTRA.VDW.0>
0

>  <SCORE.INTRA.norm>
0

>  <SCORE.RESTR>
0

>  <SCORE.RESTR.CAVITY>
0

>  <SCORE.RESTR.norm>
0

>  <SCORE.SYSTEM>
0

>  <SCORE.SYSTEM.CONST>
0

>  <SCORE.SYSTEM.DIHEDRAL>
0

>  <SCORE.SYSTEM.SOLV>
0

>  <SCORE.SYSTEM.norm>
0

>  <SCORE.heavy>
11

>  <SCORE.norm>
-1.50021

>  <RMSD>
3.447

$$$$
ligand
 OpenBabel11021811483D
libRbt.so/2013.1/901 2013/11/27
 11 12  0  0  0  0  0  0  0  0999 V2000
   34.9605   -9.9378  -38.6791 N   0  0  0  0  0  0  0  0  0  0  0  0
   35.2307   -8.6717  -39.0304 C   0  0  0  0  0  0  0  0  0  0  0  0
   34.2931   -7.9592  -39.8388 N   0  0  0  0  0  0  0  0  0  0  0  0
   36.3570   -8.0661  -38.6393 N   0  0  0  0  0  0  0  0  0  0  0  0
   37.2772   -8.7376  -37.8581 C   0  0  0  0  0  0  0  0  0  0  0  0
   37.0177  -10.0325  -37.4920 C   0  0  0  0  0  0  0  0  0  0  0  0
   35.8046  -10.6646  -37.9193 C   0  0  0  0  0  0  0  0  0  0  0  0
   35.4226  -12.3321  -37.4647 S   0  0  0  0  0  0  0  0  0  0  0  0
   38.0723  -10.4674  -36.7308 N   0  0  0  0  0  0  0  0  0  0  0  0
   38.9708   -9.4532  -36.6302 C   0  0  0  0  0  0  0  0  0  0  0  0
   38.4989   -8.3760  -37.3188 N   0  0  0  0  0  0  0  0  0  0  0  0
  1  2  2  0  0  0  0
  1  7  1  0  0  0  0
  2  3  1  0  0  0  0
  2  4  1  0  0  0  0
  4  5  2  0  0  0  0
  5  6  1  0  0  0  0
  5 11  1  0  0  0  0
  6  7  2  0  0  0  0
  6  9  1  0  0  0  0
  7  8  1  0  0  0  0
  9 10  1  0  0  0  0
 10 11  2  0  0  0  0
M  END
>  <CHROM.1>
36.38690632,-9.84715570,-37.91636673,2.97921501,0.47895759,2.76295245

>  <Name>
ligand

>  <RI>
0

>  <Rbt.Current_Directory>
/home/itssahil/PROJECTS/Mol_Feturizer/New_Systems/rnas/3RKF

>  <Rbt.Executable>
rbdock ($Id: //depot/dev/client3/rdock/2013.1/src/exe/rbdock.cxx#4 $)

>  <Rbt.Library>
libRbt.so (2013.1, Build901 2013/11/27)

>  <Rbt.Parameter_File>
/export/apps/rDock/src/rDock_2013.1_src/data/scripts/dock_solv.prm

>  <Rbt.Receptor>
prm/pocket_docking_4.prm

>  <SCORE>
-16.5001

>  <SCORE.INTER>
-16.5001

>  <SCORE.INTER.CONST>
1

>  <SCORE.INTER.POLAR>
0

>  <SCORE.INTER.ROT>
0

>  <SCORE.INTER.SOLV>
10.7444

>  <SCORE.INTER.VDW>
-18.1816

>  <SCORE.INTER.norm>
-1.50001

>  <SCORE.INTRA>
0

>  <SCORE.INTRA.DIHEDRAL>
0

>  <SCORE.INTRA.DIHEDRAL.0>
0

>  <SCORE.INTRA.POLAR>
0

>  <SCORE.INTRA.POLAR.0>
0

>  <SCORE.INTRA.REPUL>
0

>  <SCORE.INTRA.REPUL.0>
0

>  <SCORE.INTRA.SOLV>
0

>  <SCORE.INTRA.SOLV.lig_0>
-28.6198

>  <SCORE.INTRA.VDW>
0

>  <SCORE.INTRA.VDW.0>
0

>  <SCORE.INTRA.norm>
0

>  <SCORE.RESTR>
0

>  <SCORE.RESTR.CAVITY>
0

>  <SCORE.RESTR.norm>
0

>  <SCORE.SYSTEM>
0

>  <SCORE.SYSTEM.CONST>
0

>  <SCORE.SYSTEM.DIHEDRAL>
0

>  <SCORE.SYSTEM.SOLV>
0

>  <SCORE.SYSTEM.norm>
0

>  <SCORE.heavy>
11

>  <SCORE.norm>
-1.50001

>  <RMSD>
3.447

$$$$
ligand
 OpenBabel11021811483D
libRbt.so/2013.1/901 2013/11/27
 11 12  0  0  0  0  0  0  0  0999 V2000
   34.9727   -9.9466  -38.6766 N   0  0  0  0  0  0  0  0  0  0  0  0
   35.2392   -8.6788  -39.0246 C   0  0  0  0  0  0  0  0  0  0  0  0
   34.2991   -7.9666  -39.8303 N   0  0  0  0  0  0  0  0  0  0  0  0
   36.3642   -8.0713  -38.6330 N   0  0  0  0  0  0  0  0  0  0  0  0
   37.2869   -8.7424  -37.8544 C   0  0  0  0  0  0  0  0  0  0  0  0
   37.0311  -10.0390  -37.4915 C   0  0  0  0  0  0  0  0  0  0  0  0
   35.8193  -10.6732  -37.9195 C   0  0  0  0  0  0  0  0  0  0  0  0
   35.4422  -12.3429  -37.4690 S   0  0  0  0  0  0  0  0  0  0  0  0
   38.0876  -10.4732  -36.7324 N   0  0  0  0  0  0  0  0  0  0  0  0
   38.9835   -9.4569  -36.6298 C   0  0  0  0  0  0  0  0  0  0  0  0
   38.5081   -8.3791  -37.3152 N   0  0  0  0  0  0  0  0  0  0  0  0
  1  2  2  0  0  0  0
  1  7  1  0  0  0  0
  2  3  1  0  0  0  0
  2  4  1  0  0  0  0
  4  5  2  0  0  0  0
  5  6  1  0  0  0  0
  5 11  1  0  0  0  0
  6  7  2  0  0  0  0
  6  9  1  0  0  0  0
  7  8  1  0  0  0  0
  9 10  1  0  0  0  0
 10 11  2  0  0  0  0
M  END
>  <CHROM.1>
36.39952042,-9.85420565,-37.91480036,2.97606695,0.47910842,2.76709180

>  <Name>
ligand

>  <RI>
0

>  <Rbt.Current_Directory>
/home/itssahil/PROJECTS/Mol_Feturizer/New_Systems/rnas/3RKF

>  <Rbt.Executable>
rbdock ($Id: //depot/dev/client3/rdock/2013.1/src/exe/rbdock.cxx#4 $)

>  <Rbt.Library>
libRbt.so (2013.1, Build901 2013/11/27)

>  <Rbt.Parameter_File>
/export/apps/rDock/src/rDock_2013.1_src/data/scripts/dock_solv.prm

>  <Rbt.Receptor>
prm/pocket_docking_5.prm

>  <SCORE>
-16.5006

>  <SCORE.INTER>
-16.5006

>  <SCORE.INTER.CONST>
1

>  <SCORE.INTER.POLAR>
0

>  <SCORE.INTER.ROT>
0

>  <SCORE.INTER.SOLV>
10.762

>  <SCORE.INTER.VDW>
-18.1877

>  <SCORE.INTER.norm>
-1.50005

>  <SCORE.INTRA>
0

>  <SCORE.INTRA.DIHEDRAL>
0

>  <SCORE.INTRA.DIHEDRAL.0>
0

>  <SCORE.INTRA.POLAR>
0

>  <SCORE.INTRA.POLAR.0>
0

>  <SCORE.INTRA.REPUL>
0

>  <SCORE.INTRA.REPUL.0>
0

>  <SCORE.INTRA.SOLV>
0

>  <SCORE.INTRA.SOLV.lig_0>
-28.6198

>  <SCORE.INTRA.VDW>
0

>  <SCORE.INTRA.VDW.0>
0

>  <SCORE.INTRA.norm>
0

>  <SCORE.RESTR>
0

>  <SCORE.RESTR.CAVITY>
0

>  <SCORE.RESTR.norm>
0

>  <SCORE.SYSTEM>
0

>  <SCORE.SYSTEM.CONST>
0

>  <SCORE.SYSTEM.DIHEDRAL>
0

>  <SCORE.SYSTEM.SOLV>
0

>  <SCORE.SYSTEM.norm>
0

>  <SCORE.heavy>
11

>  <SCORE.norm>
-1.50005

>  <RMSD>
3.447

$$$$
ligand
 OpenBabel11021811483D
libRbt.so/2013.1/901 2013/11/27
 11 12  0  0  0  0  0  0  0  0999 V2000
   35.0127   -9.9938  -38.6393 N   0  0  0  0  0  0  0  0  0  0  0  0
   35.2667   -8.7246  -38.9912 C   0  0  0  0  0  0  0  0  0  0  0  0
   34.3310   -8.0320  -39.8190 N   0  0  0  0  0  0  0  0  0  0  0  0
   36.3750   -8.0975  -38.5832 N   0  0  0  0  0  0  0  0  0  0  0  0
   37.2931   -8.7494  -37.7831 C   0  0  0  0  0  0  0  0  0  0  0  0
   37.0500  -10.0473  -37.4160 C   0  0  0  0  0  0  0  0  0  0  0  0
   35.8560  -10.7025  -37.8618 C   0  0  0  0  0  0  0  0  0  0  0  0
   35.4957  -12.3747  -37.4067 S   0  0  0  0  0  0  0  0  0  0  0  0
   38.0987  -10.4604  -36.6346 N   0  0  0  0  0  0  0  0  0  0  0  0
   38.9772   -9.4300  -36.5226 C   0  0  0  0  0  0  0  0  0  0  0  0
   38.4985   -8.3641  -37.2240 N   0  0  0  0  0  0  0  0  0  0  0  0
  1  2  2  0  0  0  0
  1  7  1  0  0  0  0
  2  3  1  0  0  0  0
  2  4  1  0  0  0  0
  4  5  2  0  0  0  0
  5  6  1  0  0  0  0
  5 11  1  0  0  0  0
  6  7  2  0  0  0  0
  6  9  1  0  0  0  0
  7  8  1  0  0  0  0
  9 10  1  0  0  0  0
 10 11  2  0  0  0  0
M  END
>  <CHROM.1>
36.42366718,-9.87484994,-37.85211381,2.96789816,0.50179541,2.76413129

>  <Name>
ligand

>  <RI>
0

>  <Rbt.Current_Directory>
/home/itssahil/PROJECTS/Mol_Feturizer/New_Systems/rnas/3RKF

>  <Rbt.Executable>
rbdock ($Id: //depot/dev/client3/rdock/2013.1/src/exe/rbdock.cxx#4 $)

>  <Rbt.Library>
libRbt.so (2013.1, Build901 2013/11/27)

>  <Rbt.Parameter_File>
/export/apps/rDock/src/rDock_2013.1_src/data/scripts/dock_solv.prm

>  <Rbt.Receptor>
prm/pocket_docking_8.prm

>  <SCORE>
-16.4808

>  <SCORE.INTER>
-16.4808

>  <SCORE.INTER.CONST>
1

>  <SCORE.INTER.POLAR>
0

>  <SCORE.INTER.ROT>
0

>  <SCORE.INTER.SOLV>
10.8444

>  <SCORE.INTER.VDW>
-18.202

>  <SCORE.INTER.norm>
-1.49825

>  <SCORE.INTRA>
0

>  <SCORE.INTRA.DIHEDRAL>
0

>  <SCORE.INTRA.DIHEDRAL.0>
0

>  <SCORE.INTRA.POLAR>
0

>  <SCORE.INTRA.POLAR.0>
0

>  <SCORE.INTRA.REPUL>
0

>  <SCORE.INTRA.REPUL.0>
0

>  <SCORE.INTRA.SOLV>
0

>  <SCORE.INTRA.SOLV.lig_0>
-28.6198

>  <SCORE.INTRA.VDW>
0

>  <SCORE.INTRA.VDW.0>
0

>  <SCORE.INTRA.norm>
0

>  <SCORE.RESTR>
0

>  <SCORE.RESTR.CAVITY>
0

>  <SCORE.RESTR.norm>
0

>  <SCORE.SYSTEM>
0

>  <SCORE.SYSTEM.CONST>
0

>  <SCORE.SYSTEM.DIHEDRAL>
0

>  <SCORE.SYSTEM.SOLV>
0

>  <SCORE.SYSTEM.norm>
0

>  <SCORE.heavy>
11

>  <SCORE.norm>
-1.49825

>  <RMSD>
3.447

$$$$
ligand
 OpenBabel11021811483D
libRbt.so/2013.1/901 2013/11/27
 11 12  0  0  0  0  0  0  0  0999 V2000
   34.9755   -9.9487  -38.6727 N   0  0  0  0  0  0  0  0  0  0  0  0
   35.2411   -8.6814  -39.0231 C   0  0  0  0  0  0  0  0  0  0  0  0
   34.3009   -7.9716  -39.8308 N   0  0  0  0  0  0  0  0  0  0  0  0
   36.3653   -8.0722  -38.6318 N   0  0  0  0  0  0  0  0  0  0  0  0
   37.2880   -8.7409  -37.8512 C   0  0  0  0  0  0  0  0  0  0  0  0
   37.0331  -10.0370  -37.4861 C   0  0  0  0  0  0  0  0  0  0  0  0
   35.8222  -10.6732  -37.9136 C   0  0  0  0  0  0  0  0  0  0  0  0
   35.4463  -12.3423  -37.4602 S   0  0  0  0  0  0  0  0  0  0  0  0
   38.0895  -10.4688  -36.7254 N   0  0  0  0  0  0  0  0  0  0  0  0
   38.9843   -9.4515  -36.6241 C   0  0  0  0  0  0  0  0  0  0  0  0
   38.5085   -8.3755  -37.3119 N   0  0  0  0  0  0  0  0  0  0  0  0
  1  2  2  0  0  0  0
  1  7  1  0  0  0  0
  2  3  1  0  0  0  0
  2  4  1  0  0  0  0
  4  5  2  0  0  0  0
  5  6  1  0  0  0  0
  5 11  1  0  0  0  0
  6  7  2  0  0  0  0
  6  9  1  0  0  0  0
  7  8  1  0  0  0  0
  9 10  1  0  0  0  0
 10 11  2  0  0  0  0
M  END
>  <CHROM.1>
36.40166232,-9.85362471,-37.91014291,2.97543266,0.48010278,2.76545007

>  <Name>
ligand

>  <RI>
0

>  <Rbt.Current_Directory>
/home/itssahil/PROJECTS/Mol_Feturizer/New_Systems/rnas/3RKF

>  <Rbt.Executable>
rbdock ($Id: //depot/dev/client3/rdock/2013.1/src/exe/rbdock.cxx#4 $)

>  <Rbt.Library>
libRbt.so (2013.1, Build901 2013/11/27)

>  <Rbt.Parameter_File>
/export/apps/rDock/src/rDock_2013.1_src/data/scripts/dock_solv.prm

>  <Rbt.Receptor>
prm/blind_docking_60.prm

>  <SCORE>
-16.5006

>  <SCORE.INTER>
-16.5006

>  <SCORE.INTER.CONST>
1

>  <SCORE.INTER.POLAR>
0

>  <SCORE.INTER.ROT>
0

>  <SCORE.INTER.SOLV>
10.7678

>  <SCORE.INTER.VDW>
-18.1897

>  <SCORE.INTER.norm>
-1.50006

>  <SCORE.INTRA>
0

>  <SCORE.INTRA.DIHEDRAL>
0

>  <SCORE.INTRA.DIHEDRAL.0>
0

>  <SCORE.INTRA.POLAR>
0

>  <SCORE.INTRA.POLAR.0>
0

>  <SCORE.INTRA.REPUL>
0

>  <SCORE.INTRA.REPUL.0>
0

>  <SCORE.INTRA.SOLV>
0

>  <SCORE.INTRA.SOLV.lig_0>
-28.6198

>  <SCORE.INTRA.VDW>
0

>  <SCORE.INTRA.VDW.0>
0

>  <SCORE.INTRA.norm>
0

>  <SCORE.RESTR>
0

>  <SCORE.RESTR.CAVITY>
0

>  <SCORE.RESTR.norm>
0

>  <SCORE.SYSTEM>
0

>  <SCORE.SYSTEM.CONST>
0

>  <SCORE.SYSTEM.DIHEDRAL>
0

>  <SCORE.SYSTEM.SOLV>
0

>  <SCORE.SYSTEM.norm>
0

>  <SCORE.heavy>
11

>  <SCORE.norm>
-1.50006

>  <RMSD>
3.448

$$$$
ligand
 OpenBabel11021811483D
libRbt.so/2013.1/901 2013/11/27
 11 12  0  0  0  0  0  0  0  0999 V2000
   34.9711   -9.9474  -38.6696 N   0  0  0  0  0  0  0  0  0  0  0  0
   35.2380   -8.6806  -39.0208 C   0  0  0  0  0  0  0  0  0  0  0  0
   34.2964   -7.9691  -39.8256 N   0  0  0  0  0  0  0  0  0  0  0  0
   36.3645   -8.0733  -38.6332 N   0  0  0  0  0  0  0  0  0  0  0  0
   37.2885   -8.7437  -37.8556 C   0  0  0  0  0  0  0  0  0  0  0  0
   37.0324  -10.0393  -37.4895 C   0  0  0  0  0  0  0  0  0  0  0  0
   35.8190  -10.6733  -37.9132 C   0  0  0  0  0  0  0  0  0  0  0  0
   35.4415  -12.3417  -37.4585 S   0  0  0  0  0  0  0  0  0  0  0  0
   38.0904  -10.4730  -36.7322 N   0  0  0  0  0  0  0  0  0  0  0  0
   38.9874   -9.4573  -36.6338 C   0  0  0  0  0  0  0  0  0  0  0  0
   38.5114   -8.3804  -37.3201 N   0  0  0  0  0  0  0  0  0  0  0  0
  1  2  2  0  0  0  0
  1  7  1  0  0  0  0
  2  3  1  0  0  0  0
  2  4  1  0  0  0  0
  4  5  2  0  0  0  0
  5  6  1  0  0  0  0
  5 11  1  0  0  0  0
  6  7  2  0  0  0  0
  6  9  1  0  0  0  0
  7  8  1  0  0  0  0
  9 10  1  0  0  0  0
 10 11  2  0  0  0  0
M  END
>  <CHROM.1>
36.39993823,-9.85478298,-37.91157674,2.97599568,0.47645948,2.76513346

>  <Name>
ligand

>  <RI>
0

>  <Rbt.Current_Directory>
/home/itssahil/PROJECTS/Mol_Feturizer/New_Systems/rnas/3RKF

>  <Rbt.Executable>
rbdock ($Id: //depot/dev/client3/rdock/2013.1/src/exe/rbdock.cxx#4 $)

>  <Rbt.Library>
libRbt.so (2013.1, Build901 2013/11/27)

>  <Rbt.Parameter_File>
/export/apps/rDock/src/rDock_2013.1_src/data/scripts/dock_solv.prm

>  <Rbt.Receptor>
prm/blind_docking_80.prm

>  <SCORE>
-16.4982

>  <SCORE.INTER>
-16.4982

>  <SCORE.INTER.CONST>
1

>  <SCORE.INTER.POLAR>
0

>  <SCORE.INTER.ROT>
0

>  <SCORE.INTER.SOLV>
10.7481

>  <SCORE.INTER.VDW>
-18.1815

>  <SCORE.INTER.norm>
-1.49983

>  <SCORE.INTRA>
0

>  <SCORE.INTRA.DIHEDRAL>
0

>  <SCORE.INTRA.DIHEDRAL.0>
0

>  <SCORE.INTRA.POLAR>
0

>  <SCORE.INTRA.POLAR.0>
0

>  <SCORE.INTRA.REPUL>
0

>  <SCORE.INTRA.REPUL.0>
0

>  <SCORE.INTRA.SOLV>
0

>  <SCORE.INTRA.SOLV.lig_0>
-28.6198

>  <SCORE.INTRA.VDW>
0

>  <SCORE.INTRA.VDW.0>
0

>  <SCORE.INTRA.norm>
0

>  <SCORE.RESTR>
0

>  <SCORE.RESTR.CAVITY>
0

>  <SCORE.RESTR.norm>
0

>  <SCORE.SYSTEM>
0

>  <SCORE.SYSTEM.CONST>
0

>  <SCORE.SYSTEM.DIHEDRAL>
0

>  <SCORE.SYSTEM.SOLV>
0

>  <SCORE.SYSTEM.norm>
0

>  <SCORE.heavy>
11

>  <SCORE.norm>
-1.49983

>  <RMSD>
3.448

$$$$
ligand
 OpenBabel11021811483D
libRbt.so/2013.1/901 2013/11/27
 11 12  0  0  0  0  0  0  0  0999 V2000
   34.9668  -10.0019  -38.6528 N   0  0  0  0  0  0  0  0  0  0  0  0
   35.2314   -8.7381  -39.0162 C   0  0  0  0  0  0  0  0  0  0  0  0
   34.2899   -8.0369  -39.8300 N   0  0  0  0  0  0  0  0  0  0  0  0
   36.3557   -8.1243  -38.6323 N   0  0  0  0  0  0  0  0  0  0  0  0
   37.2797   -8.7847  -37.8461 C   0  0  0  0  0  0  0  0  0  0  0  0
   37.0258  -10.0772  -37.4676 C   0  0  0  0  0  0  0  0  0  0  0  0
   35.8148  -10.7182  -37.8874 C   0  0  0  0  0  0  0  0  0  0  0  0
   35.4402  -12.3829  -37.4168 S   0  0  0  0  0  0  0  0  0  0  0  0
   38.0832  -10.5007  -36.7038 N   0  0  0  0  0  0  0  0  0  0  0  0
   38.9777   -9.4820  -36.6137 C   0  0  0  0  0  0  0  0  0  0  0  0
   38.5005   -8.4132  -37.3118 N   0  0  0  0  0  0  0  0  0  0  0  0
  1  2  2  0  0  0  0
  1  7  1  0  0  0  0
  2  3  1  0  0  0  0
  2  4  1  0  0  0  0
  4  5  2  0  0  0  0
  5  6  1  0  0  0  0
  5 11  1  0  0  0  0
  6  7  2  0  0  0  0
  6  9  1  0  0  0  0
  7  8  1  0  0  0  0
  9 10  1  0  0  0  0
 10 11  2  0  0  0  0
M  END
>  <CHROM.1>
36.39379429,-9.89837371,-37.89279422,2.97442794,0.47926622,2.75583761

>  <Name>
ligand

>  <RI>
0

>  <Rbt.Current_Directory>
/home/itssahil/PROJECTS/Mol_Feturizer/New_Systems/rnas/3RKF

>  <Rbt.Executable>
rbdock ($Id: //depot/dev/client3/rdock/2013.1/src/exe/rbdock.cxx#4 $)

>  <Rbt.Library>
libRbt.so (2013.1, Build901 2013/11/27)

>  <Rbt.Parameter_File>
/export/apps/rDock/src/rDock_2013.1_src/data/scripts/dock_solv.prm

>  <Rbt.Receptor>
prm/blind_docking_80.prm

>  <SCORE>
-16.4833

>  <SCORE.INTER>
-16.4833

>  <SCORE.INTER.CONST>
1

>  <SCORE.INTER.POLAR>
0

>  <SCORE.INTER.ROT>
0

>  <SCORE.INTER.SOLV>
10.8291

>  <SCORE.INTER.VDW>
-18.1985

>  <SCORE.INTER.norm>
-1.49848

>  <SCORE.INTRA>
0

>  <SCORE.INTRA.DIHEDRAL>
0

>  <SCORE.INTRA.DIHEDRAL.0>
0

>  <SCORE.INTRA.POLAR>
0

>  <SCORE.INTRA.POLAR.0>
0

>  <SCORE.INTRA.REPUL>
0

>  <SCORE.INTRA.REPUL.0>
0

>  <SCORE.INTRA.SOLV>
0

>  <SCORE.INTRA.SOLV.lig_0>
-28.6198

>  <SCORE.INTRA.VDW>
0

>  <SCORE.INTRA.VDW.0>
0

>  <SCORE.INTRA.norm>
0

>  <SCORE.RESTR>
0

>  <SCORE.RESTR.CAVITY>
0

>  <SCORE.RESTR.norm>
0

>  <SCORE.SYSTEM>
0

>  <SCORE.SYSTEM.CONST>
0

>  <SCORE.SYSTEM.DIHEDRAL>
0

>  <SCORE.SYSTEM.SOLV>
0

>  <SCORE.SYSTEM.norm>
0

>  <SCORE.heavy>
11

>  <SCORE.norm>
-1.49848

>  <RMSD>
3.448

$$$$
ligand
 OpenBabel11021811483D
libRbt.so/2013.1/901 2013/11/27
 11 12  0  0  0  0  0  0  0  0999 V2000
   34.9653   -9.9449  -38.6715 N   0  0  0  0  0  0  0  0  0  0  0  0
   35.2321   -8.6779  -39.0218 C   0  0  0  0  0  0  0  0  0  0  0  0
   34.2917   -7.9666  -39.8280 N   0  0  0  0  0  0  0  0  0  0  0  0
   36.3576   -8.0702  -38.6319 N   0  0  0  0  0  0  0  0  0  0  0  0
   37.2806   -8.7404  -37.8528 C   0  0  0  0  0  0  0  0  0  0  0  0
   37.0245  -10.0363  -37.4877 C   0  0  0  0  0  0  0  0  0  0  0  0
   35.8121  -10.6707  -37.9137 C   0  0  0  0  0  0  0  0  0  0  0  0
   35.4346  -12.3395  -37.4603 S   0  0  0  0  0  0  0  0  0  0  0  0
   38.0813  -10.4697  -36.7286 N   0  0  0  0  0  0  0  0  0  0  0  0
   38.9776   -9.4536  -36.6282 C   0  0  0  0  0  0  0  0  0  0  0  0
   38.5023   -8.3767  -37.3150 N   0  0  0  0  0  0  0  0  0  0  0  0
  1  2  2  0  0  0  0
  1  7  1  0  0  0  0
  2  3  1  0  0  0  0
  2  4  1  0  0  0  0
  4  5  2  0  0  0  0
  5  6  1  0  0  0  0
  5 11  1  0  0  0  0
  6  7  2  0  0  0  0
  6  9  1  0  0  0  0
  7  8  1  0  0  0  0
  9 10  1  0  0  0  0
 10 11  2  0  0  0  0
M  END
>  <CHROM.1>
36.39263748,-9.85190142,-37.91080533,2.97623632,0.47832614,2.76537359

>  <Name>
ligand

>  <RI>
0

>  <Rbt.Current_Directory>
/home/itssahil/PROJECTS/Mol_Feturizer/New_Systems/rnas/3RKF

>  <Rbt.Executable>
rbdock ($Id: //depot/dev/client3/rdock/2013.1/src/exe/rbdock.cxx#4 $)

>  <Rbt.Library>
libRbt.so (2013.1, Build901 2013/11/27)

>  <Rbt.Parameter_File>
/export/apps/rDock/src/rDock_2013.1_src/data/scripts/dock_solv.prm

>  <Rbt.Receptor>
prm/pocket_docking_3.prm

>  <SCORE>
-16.5008

>  <SCORE.INTER>
-16.5008

>  <SCORE.INTER.CONST>
1

>  <SCORE.INTER.POLAR>
0

>  <SCORE.INTER.ROT>
0

>  <SCORE.INTER.SOLV>
10.7281

>  <SCORE.INTER.VDW>
-18.1766

>  <SCORE.INTER.norm>
-1.50007

>  <SCORE.INTRA>
0

>  <SCORE.INTRA.DIHEDRAL>
0

>  <SCORE.INTRA.DIHEDRAL.0>
0

>  <SCORE.INTRA.POLAR>
0

>  <SCORE.INTRA.POLAR.0>
0

>  <SCORE.INTRA.REPUL>
0

>  <SCORE.INTRA.REPUL.0>
0

>  <SCORE.INTRA.SOLV>
0

>  <SCORE.INTRA.SOLV.lig_0>
-28.6198

>  <SCORE.INTRA.VDW>
0

>  <SCORE.INTRA.VDW.0>
0

>  <SCORE.INTRA.norm>
0

>  <SCORE.RESTR>
0

>  <SCORE.RESTR.CAVITY>
0

>  <SCORE.RESTR.norm>
0

>  <SCORE.SYSTEM>
0

>  <SCORE.SYSTEM.CONST>
0

>  <SCORE.SYSTEM.DIHEDRAL>
0

>  <SCORE.SYSTEM.SOLV>
0

>  <SCORE.SYSTEM.norm>
0

>  <SCORE.heavy>
11

>  <SCORE.norm>
-1.50007

>  <RMSD>
3.448

$$$$
ligand
 OpenBabel11021811483D
libRbt.so/2013.1/901 2013/11/27
 11 12  0  0  0  0  0  0  0  0999 V2000
   34.9694   -9.9452  -38.6758 N   0  0  0  0  0  0  0  0  0  0  0  0
   35.2347   -8.6774  -39.0247 C   0  0  0  0  0  0  0  0  0  0  0  0
   34.2952   -7.9675  -39.8331 N   0  0  0  0  0  0  0  0  0  0  0  0
   36.3580   -8.0678  -38.6314 N   0  0  0  0  0  0  0  0  0  0  0  0
   37.2801   -8.7366  -37.8502 C   0  0  0  0  0  0  0  0  0  0  0  0
   37.0255  -10.0332  -37.4864 C   0  0  0  0  0  0  0  0  0  0  0  0
   35.8156  -10.6697  -37.9161 C   0  0  0  0  0  0  0  0  0  0  0  0
   35.4400  -12.3394  -37.4646 S   0  0  0  0  0  0  0  0  0  0  0  0
   38.0811  -10.4649  -36.7247 N   0  0  0  0  0  0  0  0  0  0  0  0
   38.9752   -9.4472  -36.6214 C   0  0  0  0  0  0  0  0  0  0  0  0
   38.4996   -8.3708  -37.3089 N   0  0  0  0  0  0  0  0  0  0  0  0
  1  2  2  0  0  0  0
  1  7  1  0  0  0  0
  2  3  1  0  0  0  0
  2  4  1  0  0  0  0
  4  5  2  0  0  0  0
  5  6  1  0  0  0  0
  5 11  1  0  0  0  0
  6  7  2  0  0  0  0
  6  9  1  0  0  0  0
  7  8  1  0  0  0  0
  9 10  1  0  0  0  0
 10 11  2  0  0  0  0
M  END
>  <CHROM.1>
36.39450257,-9.84978699,-37.91121238,2.97534454,0.48156811,2.76631086

>  <Name>
ligand

>  <RI>
0

>  <Rbt.Current_Directory>
/home/itssahil/PROJECTS/Mol_Feturizer/New_Systems/rnas/3RKF

>  <Rbt.Executable>
rbdock ($Id: //depot/dev/client3/rdock/2013.1/src/exe/rbdock.cxx#4 $)

>  <Rbt.Library>
libRbt.so (2013.1, Build901 2013/11/27)

>  <Rbt.Parameter_File>
/export/apps/rDock/src/rDock_2013.1_src/data/scripts/dock_solv.prm

>  <Rbt.Receptor>
prm/pocket_docking_4.prm

>  <SCORE>
-16.5029

>  <SCORE.INTER>
-16.5029

>  <SCORE.INTER.CONST>
1

>  <SCORE.INTER.POLAR>
0

>  <SCORE.INTER.ROT>
0

>  <SCORE.INTER.SOLV>
10.7445

>  <SCORE.INTER.VDW>
-18.1835

>  <SCORE.INTER.norm>
-1.50027

>  <SCORE.INTRA>
0

>  <SCORE.INTRA.DIHEDRAL>
0

>  <SCORE.INTRA.DIHEDRAL.0>
0

>  <SCORE.INTRA.POLAR>
0

>  <SCORE.INTRA.POLAR.0>
0

>  <SCORE.INTRA.REPUL>
0

>  <SCORE.INTRA.REPUL.0>
0

>  <SCORE.INTRA.SOLV>
0

>  <SCORE.INTRA.SOLV.lig_0>
-28.6198

>  <SCORE.INTRA.VDW>
0

>  <SCORE.INTRA.VDW.0>
0

>  <SCORE.INTRA.norm>
0

>  <SCORE.RESTR>
0

>  <SCORE.RESTR.CAVITY>
0

>  <SCORE.RESTR.norm>
0

>  <SCORE.SYSTEM>
0

>  <SCORE.SYSTEM.CONST>
0

>  <SCORE.SYSTEM.DIHEDRAL>
0

>  <SCORE.SYSTEM.SOLV>
0

>  <SCORE.SYSTEM.norm>
0

>  <SCORE.heavy>
11

>  <SCORE.norm>
-1.50027

>  <RMSD>
3.448

$$$$
ligand
 OpenBabel11021811483D
libRbt.so/2013.1/901 2013/11/27
 11 12  0  0  0  0  0  0  0  0999 V2000
   34.9471  -10.0164  -38.6544 N   0  0  0  0  0  0  0  0  0  0  0  0
   35.2069   -8.7494  -39.0103 C   0  0  0  0  0  0  0  0  0  0  0  0
   34.2606   -8.0456  -39.8161 N   0  0  0  0  0  0  0  0  0  0  0  0
   36.3308   -8.1351  -38.6264 N   0  0  0  0  0  0  0  0  0  0  0  0
   37.2594   -8.7981  -37.8478 C   0  0  0  0  0  0  0  0  0  0  0  0
   37.0106  -10.0937  -37.4770 C   0  0  0  0  0  0  0  0  0  0  0  0
   35.7998  -10.7353  -37.8967 C   0  0  0  0  0  0  0  0  0  0  0  0
   35.4315  -12.4041  -37.4358 S   0  0  0  0  0  0  0  0  0  0  0  0
   38.0719  -10.5193  -36.7197 N   0  0  0  0  0  0  0  0  0  0  0  0
   38.9638   -9.4987  -36.6261 C   0  0  0  0  0  0  0  0  0  0  0  0
   38.4812   -8.4267  -37.3154 N   0  0  0  0  0  0  0  0  0  0  0  0
  1  2  2  0  0  0  0
  1  7  1  0  0  0  0
  2  3  1  0  0  0  0
  2  4  1  0  0  0  0
  4  5  2  0  0  0  0
  5  6  1  0  0  0  0
  5 11  1  0  0  0  0
  6  7  2  0  0  0  0
  6  9  1  0  0  0  0
  7  8  1  0  0  0  0
  9 10  1  0  0  0  0
 10 11  2  0  0  0  0
M  END
>  <CHROM.1>
36.37650298,-9.91387541,-37.89873012,2.97002032,0.47700266,2.76447110

>  <Name>
ligand

>  <RI>
0

>  <Rbt.Current_Directory>
/home/itssahil/PROJECTS/Mol_Feturizer/New_Systems/rnas/3RKF

>  <Rbt.Executable>
rbdock ($Id: //depot/dev/client3/rdock/2013.1/src/exe/rbdock.cxx#4 $)

>  <Rbt.Library>
libRbt.so (2013.1, Build901 2013/11/27)

>  <Rbt.Parameter_File>
/export/apps/rDock/src/rDock_2013.1_src/data/scripts/dock_solv.prm

>  <Rbt.Receptor>
prm/pocket_docking_4.prm

>  <SCORE>
-16.4888

>  <SCORE.INTER>
-16.4888

>  <SCORE.INTER.CONST>
1

>  <SCORE.INTER.POLAR>
0

>  <SCORE.INTER.ROT>
0

>  <SCORE.INTER.SOLV>
10.7464

>  <SCORE.INTER.VDW>
-18.1746

>  <SCORE.INTER.norm>
-1.49898

>  <SCORE.INTRA>
0

>  <SCORE.INTRA.DIHEDRAL>
0

>  <SCORE.INTRA.DIHEDRAL.0>
0

>  <SCORE.INTRA.POLAR>
0

>  <SCORE.INTRA.POLAR.0>
0

>  <SCORE.INTRA.REPUL>
0

>  <SCORE.INTRA.REPUL.0>
0

>  <SCORE.INTRA.SOLV>
0

>  <SCORE.INTRA.SOLV.lig_0>
-28.6198

>  <SCORE.INTRA.VDW>
0

>  <SCORE.INTRA.VDW.0>
0

>  <SCORE.INTRA.norm>
0

>  <SCORE.RESTR>
0

>  <SCORE.RESTR.CAVITY>
0

>  <SCORE.RESTR.norm>
0

>  <SCORE.SYSTEM>
0

>  <SCORE.SYSTEM.CONST>
0

>  <SCORE.SYSTEM.DIHEDRAL>
0

>  <SCORE.SYSTEM.SOLV>
0

>  <SCORE.SYSTEM.norm>
0

>  <SCORE.heavy>
11

>  <SCORE.norm>
-1.49898

>  <RMSD>
3.448

$$$$
ligand
 OpenBabel11021811483D
libRbt.so/2013.1/901 2013/11/27
 11 12  0  0  0  0  0  0  0  0999 V2000
   34.9561   -9.9377  -38.6881 N   0  0  0  0  0  0  0  0  0  0  0  0
   35.2205   -8.6677  -39.0295 C   0  0  0  0  0  0  0  0  0  0  0  0
   34.2819   -7.9548  -39.8364 N   0  0  0  0  0  0  0  0  0  0  0  0
   36.3420   -8.0586  -38.6303 N   0  0  0  0  0  0  0  0  0  0  0  0
   37.2631   -8.7303  -37.8504 C   0  0  0  0  0  0  0  0  0  0  0  0
   37.0095  -10.0292  -37.4942 C   0  0  0  0  0  0  0  0  0  0  0  0
   35.8015  -10.6651  -37.9303 C   0  0  0  0  0  0  0  0  0  0  0  0
   35.4272  -12.3377  -37.4886 S   0  0  0  0  0  0  0  0  0  0  0  0
   38.0639  -10.4636  -36.7323 N   0  0  0  0  0  0  0  0  0  0  0  0
   38.9563   -9.4451  -36.6213 C   0  0  0  0  0  0  0  0  0  0  0  0
   38.4808   -8.3658  -37.3042 N   0  0  0  0  0  0  0  0  0  0  0  0
  1  2  2  0  0  0  0
  1  7  1  0  0  0  0
  2  3  1  0  0  0  0
  2  4  1  0  0  0  0
  4  5  2  0  0  0  0
  5  6  1  0  0  0  0
  5 11  1  0  0  0  0
  6  7  2  0  0  0  0
  6  9  1  0  0  0  0
  7  8  1  0  0  0  0
  9 10  1  0  0  0  0
 10 11  2  0  0  0  0
M  END
>  <CHROM.1>
36.37925173,-9.84441311,-37.91954569,2.97485871,0.48432407,2.77190331

>  <Name>
ligand

>  <RI>
0

>  <Rbt.Current_Directory>
/home/itssahil/PROJECTS/Mol_Feturizer/New_Systems/rnas/3RKF

>  <Rbt.Executable>
rbdock ($Id: //depot/dev/client3/rdock/2013.1/src/exe/rbdock.cxx#4 $)

>  <Rbt.Library>
libRbt.so (2013.1, Build901 2013/11/27)

>  <Rbt.Parameter_File>
/export/apps/rDock/src/rDock_2013.1_src/data/scripts/dock_solv.prm

>  <Rbt.Receptor>
prm/pocket_docking_7.prm

>  <SCORE>
-16.536

>  <SCORE.INTER>
-16.536

>  <SCORE.INTER.CONST>
1

>  <SCORE.INTER.POLAR>
0

>  <SCORE.INTER.ROT>
0

>  <SCORE.INTER.SOLV>
10.696

>  <SCORE.INTER.VDW>
-18.1893

>  <SCORE.INTER.norm>
-1.50328

>  <SCORE.INTRA>
0

>  <SCORE.INTRA.DIHEDRAL>
0

>  <SCORE.INTRA.DIHEDRAL.0>
0

>  <SCORE.INTRA.POLAR>
0

>  <SCORE.INTRA.POLAR.0>
0

>  <SCORE.INTRA.REPUL>
0

>  <SCORE.INTRA.REPUL.0>
0

>  <SCORE.INTRA.SOLV>
0

>  <SCORE.INTRA.SOLV.lig_0>
-28.6198

>  <SCORE.INTRA.VDW>
0

>  <SCORE.INTRA.VDW.0>
0

>  <SCORE.INTRA.norm>
0

>  <SCORE.RESTR>
0

>  <SCORE.RESTR.CAVITY>
0

>  <SCORE.RESTR.norm>
0

>  <SCORE.SYSTEM>
0

>  <SCORE.SYSTEM.CONST>
0

>  <SCORE.SYSTEM.DIHEDRAL>
0

>  <SCORE.SYSTEM.SOLV>
0

>  <SCORE.SYSTEM.norm>
0

>  <SCORE.heavy>
11

>  <SCORE.norm>
-1.50328

>  <RMSD>
3.448

$$$$
ligand
 OpenBabel11021811483D
libRbt.so/2013.1/901 2013/11/27
 11 12  0  0  0  0  0  0  0  0999 V2000
   34.9541   -9.9432  -38.6805 N   0  0  0  0  0  0  0  0  0  0  0  0
   35.2159   -8.6723  -39.0206 C   0  0  0  0  0  0  0  0  0  0  0  0
   34.2754   -7.9601  -39.8260 N   0  0  0  0  0  0  0  0  0  0  0  0
   36.3366   -8.0617  -38.6215 N   0  0  0  0  0  0  0  0  0  0  0  0
   37.2595   -8.7327  -37.8431 C   0  0  0  0  0  0  0  0  0  0  0  0
   37.0085  -10.0324  -37.4883 C   0  0  0  0  0  0  0  0  0  0  0  0
   35.8013  -10.6699  -37.9242 C   0  0  0  0  0  0  0  0  0  0  0  0
   35.4304  -12.3438  -37.4842 S   0  0  0  0  0  0  0  0  0  0  0  0
   38.0642  -10.4657  -36.7276 N   0  0  0  0  0  0  0  0  0  0  0  0
   38.9549   -9.4458  -36.6161 C   0  0  0  0  0  0  0  0  0  0  0  0
   38.4770   -8.3665  -37.2974 N   0  0  0  0  0  0  0  0  0  0  0  0
  1  2  2  0  0  0  0
  1  7  1  0  0  0  0
  2  3  1  0  0  0  0
  2  4  1  0  0  0  0
  4  5  2  0  0  0  0
  5  6  1  0  0  0  0
  5 11  1  0  0  0  0
  6  7  2  0  0  0  0
  6  9  1  0  0  0  0
  7  8  1  0  0  0  0
  9 10  1  0  0  0  0
 10 11  2  0  0  0  0
M  END
>  <CHROM.1>
36.37761090,-9.84824193,-37.91289955,2.97265634,0.48428491,2.77411128

>  <Name>
ligand

>  <RI>
0

>  <Rbt.Current_Directory>
/home/itssahil/PROJECTS/Mol_Feturizer/New_Systems/rnas/3RKF

>  <Rbt.Executable>
rbdock ($Id: //depot/dev/client3/rdock/2013.1/src/exe/rbdock.cxx#4 $)

>  <Rbt.Library>
libRbt.so (2013.1, Build901 2013/11/27)

>  <Rbt.Parameter_File>
/export/apps/rDock/src/rDock_2013.1_src/data/scripts/dock_solv.prm

>  <Rbt.Receptor>
prm/pocket_docking_7.prm

>  <SCORE>
-16.5341

>  <SCORE.INTER>
-16.5341

>  <SCORE.INTER.CONST>
1

>  <SCORE.INTER.POLAR>
0

>  <SCORE.INTER.ROT>
0

>  <SCORE.INTER.SOLV>
10.658

>  <SCORE.INTER.VDW>
-18.1754

>  <SCORE.INTER.norm>
-1.5031

>  <SCORE.INTRA>
0

>  <SCORE.INTRA.DIHEDRAL>
0

>  <SCORE.INTRA.DIHEDRAL.0>
0

>  <SCORE.INTRA.POLAR>
0

>  <SCORE.INTRA.POLAR.0>
0

>  <SCORE.INTRA.REPUL>
0

>  <SCORE.INTRA.REPUL.0>
0

>  <SCORE.INTRA.SOLV>
0

>  <SCORE.INTRA.SOLV.lig_0>
-28.6198

>  <SCORE.INTRA.VDW>
0

>  <SCORE.INTRA.VDW.0>
0

>  <SCORE.INTRA.norm>
0

>  <SCORE.RESTR>
0

>  <SCORE.RESTR.CAVITY>
0

>  <SCORE.RESTR.norm>
0

>  <SCORE.SYSTEM>
0

>  <SCORE.SYSTEM.CONST>
0

>  <SCORE.SYSTEM.DIHEDRAL>
0

>  <SCORE.SYSTEM.SOLV>
0

>  <SCORE.SYSTEM.norm>
0

>  <SCORE.heavy>
11

>  <SCORE.norm>
-1.5031

>  <RMSD>
3.448

$$$$
ligand
 OpenBabel11021811483D
libRbt.so/2013.1/901 2013/11/27
 11 12  0  0  0  0  0  0  0  0999 V2000
   34.9660   -9.9431  -38.6783 N   0  0  0  0  0  0  0  0  0  0  0  0
   35.2310   -8.6748  -39.0255 C   0  0  0  0  0  0  0  0  0  0  0  0
   34.2912   -7.9641  -39.8329 N   0  0  0  0  0  0  0  0  0  0  0  0
   36.3542   -8.0655  -38.6316 N   0  0  0  0  0  0  0  0  0  0  0  0
   37.2766   -8.7351  -37.8513 C   0  0  0  0  0  0  0  0  0  0  0  0
   37.0223  -10.0322  -37.4892 C   0  0  0  0  0  0  0  0  0  0  0  0
   35.8124  -10.6684  -37.9196 C   0  0  0  0  0  0  0  0  0  0  0  0
   35.4373  -12.3388  -37.4703 S   0  0  0  0  0  0  0  0  0  0  0  0
   38.0781  -10.4647  -36.7282 N   0  0  0  0  0  0  0  0  0  0  0  0
   38.9719   -9.4469  -36.6236 C   0  0  0  0  0  0  0  0  0  0  0  0
   38.4961   -8.3698  -37.3096 N   0  0  0  0  0  0  0  0  0  0  0  0
  1  2  2  0  0  0  0
  1  7  1  0  0  0  0
  2  3  1  0  0  0  0
  2  4  1  0  0  0  0
  4  5  2  0  0  0  0
  5  6  1  0  0  0  0
  5 11  1  0  0  0  0
  6  7  2  0  0  0  0
  6  9  1  0  0  0  0
  7  8  1  0  0  0  0
  9 10  1  0  0  0  0
 10 11  2  0  0  0  0
M  END
>  <CHROM.1>
36.39117892,-9.84841478,-37.91369386,2.97506658,0.48155470,2.76775934

>  <Name>
ligand

>  <RI>
0

>  <Rbt.Current_Directory>
/home/itssahil/PROJECTS/Mol_Feturizer/New_Systems/rnas/3RKF

>  <Rbt.Executable>
rbdock ($Id: //depot/dev/client3/rdock/2013.1/src/exe/rbdock.cxx#4 $)

>  <Rbt.Library>
libRbt.so (2013.1, Build901 2013/11/27)

>  <Rbt.Parameter_File>
/export/apps/rDock/src/rDock_2013.1_src/data/scripts/dock_solv.prm

>  <Rbt.Receptor>
prm/pocket_docking_8.prm

>  <SCORE>
-16.5028

>  <SCORE.INTER>
-16.5028

>  <SCORE.INTER.CONST>
1

>  <SCORE.INTER.POLAR>
0

>  <SCORE.INTER.ROT>
0

>  <SCORE.INTER.SOLV>
10.7299

>  <SCORE.INTER.VDW>
-18.1785

>  <SCORE.INTER.norm>
-1.50025

>  <SCORE.INTRA>
0

>  <SCORE.INTRA.DIHEDRAL>
0

>  <SCORE.INTRA.DIHEDRAL.0>
0

>  <SCORE.INTRA.POLAR>
0

>  <SCORE.INTRA.POLAR.0>
0

>  <SCORE.INTRA.REPUL>
0

>  <SCORE.INTRA.REPUL.0>
0

>  <SCORE.INTRA.SOLV>
0

>  <SCORE.INTRA.SOLV.lig_0>
-28.6198

>  <SCORE.INTRA.VDW>
0

>  <SCORE.INTRA.VDW.0>
0

>  <SCORE.INTRA.norm>
0

>  <SCORE.RESTR>
0

>  <SCORE.RESTR.CAVITY>
0

>  <SCORE.RESTR.norm>
0

>  <SCORE.SYSTEM>
0

>  <SCORE.SYSTEM.CONST>
0

>  <SCORE.SYSTEM.DIHEDRAL>
0

>  <SCORE.SYSTEM.SOLV>
0

>  <SCORE.SYSTEM.norm>
0

>  <SCORE.heavy>
11

>  <SCORE.norm>
-1.50025

>  <RMSD>
3.448

$$$$
ligand
 OpenBabel11021811483D
libRbt.so/2013.1/901 2013/11/27
 11 12  0  0  0  0  0  0  0  0999 V2000
   34.9562   -9.9359  -38.6843 N   0  0  0  0  0  0  0  0  0  0  0  0
   35.2212   -8.6674  -39.0308 C   0  0  0  0  0  0  0  0  0  0  0  0
   34.2819   -7.9567  -39.8390 N   0  0  0  0  0  0  0  0  0  0  0  0
   36.3436   -8.0577  -38.6354 N   0  0  0  0  0  0  0  0  0  0  0  0
   37.2654   -8.7272  -37.8543 C   0  0  0  0  0  0  0  0  0  0  0  0
   37.0112  -10.0246  -37.4930 C   0  0  0  0  0  0  0  0  0  0  0  0
   35.8021  -10.6611  -37.9250 C   0  0  0  0  0  0  0  0  0  0  0  0
   35.4272  -12.3318  -37.4766 S   0  0  0  0  0  0  0  0  0  0  0  0
   38.0663  -10.4569  -36.7309 N   0  0  0  0  0  0  0  0  0  0  0  0
   38.9597   -9.4387  -36.6250 C   0  0  0  0  0  0  0  0  0  0  0  0
   38.4841   -8.3616  -37.3112 N   0  0  0  0  0  0  0  0  0  0  0  0
  1  2  2  0  0  0  0
  1  7  1  0  0  0  0
  2  3  1  0  0  0  0
  2  4  1  0  0  0  0
  4  5  2  0  0  0  0
  5  6  1  0  0  0  0
  5 11  1  0  0  0  0
  6  7  2  0  0  0  0
  6  9  1  0  0  0  0
  7  8  1  0  0  0  0
  9 10  1  0  0  0  0
 10 11  2  0  0  0  0
M  END
>  <CHROM.1>
36.38052942,-9.84087596,-37.91810662,2.97509481,0.48274716,2.76809304

>  <Name>
ligand

>  <RI>
0

>  <Rbt.Current_Directory>
/home/itssahil/PROJECTS/Mol_Feturizer/New_Systems/rnas/3RKF

>  <Rbt.Executable>
rbdock ($Id: //depot/dev/client3/rdock/2013.1/src/exe/rbdock.cxx#4 $)

>  <Rbt.Library>
libRbt.so (2013.1, Build901 2013/11/27)

>  <Rbt.Parameter_File>
/export/apps/rDock/src/rDock_2013.1_src/data/scripts/dock_solv.prm

>  <Rbt.Receptor>
prm/blind_docking_60.prm

>  <SCORE>
-16.5372

>  <SCORE.INTER>
-16.5372

>  <SCORE.INTER.CONST>
1

>  <SCORE.INTER.POLAR>
0

>  <SCORE.INTER.ROT>
0

>  <SCORE.INTER.SOLV>
10.7014

>  <SCORE.INTER.VDW>
-18.1919

>  <SCORE.INTER.norm>
-1.50338

>  <SCORE.INTRA>
0

>  <SCORE.INTRA.DIHEDRAL>
0

>  <SCORE.INTRA.DIHEDRAL.0>
0

>  <SCORE.INTRA.POLAR>
0

>  <SCORE.INTRA.POLAR.0>
0

>  <SCORE.INTRA.REPUL>
0

>  <SCORE.INTRA.REPUL.0>
0

>  <SCORE.INTRA.SOLV>
0

>  <SCORE.INTRA.SOLV.lig_0>
-28.6198

>  <SCORE.INTRA.VDW>
0

>  <SCORE.INTRA.VDW.0>
0

>  <SCORE.INTRA.norm>
0

>  <SCORE.RESTR>
0

>  <SCORE.RESTR.CAVITY>
0

>  <SCORE.RESTR.norm>
0

>  <SCORE.SYSTEM>
0

>  <SCORE.SYSTEM.CONST>
0

>  <SCORE.SYSTEM.DIHEDRAL>
0

>  <SCORE.SYSTEM.SOLV>
0

>  <SCORE.SYSTEM.norm>
0

>  <SCORE.heavy>
11

>  <SCORE.norm>
-1.50338

>  <RMSD>
3.450

$$$$
ligand
 OpenBabel11021811483D
libRbt.so/2013.1/901 2013/11/27
 11 12  0  0  0  0  0  0  0  0999 V2000
   34.9637   -9.9416  -38.6858 N   0  0  0  0  0  0  0  0  0  0  0  0
   35.2244   -8.6708  -39.0272 C   0  0  0  0  0  0  0  0  0  0  0  0
   34.2832   -7.9604  -39.8333 N   0  0  0  0  0  0  0  0  0  0  0  0
   36.3444   -8.0587  -38.6287 N   0  0  0  0  0  0  0  0  0  0  0  0
   37.2680   -8.7280  -37.8496 C   0  0  0  0  0  0  0  0  0  0  0  0
   37.0182  -10.0276  -37.4934 C   0  0  0  0  0  0  0  0  0  0  0  0
   35.8116  -10.6667  -37.9287 C   0  0  0  0  0  0  0  0  0  0  0  0
   35.4423  -12.3405  -37.4870 S   0  0  0  0  0  0  0  0  0  0  0  0
   38.0743  -10.4591  -36.7323 N   0  0  0  0  0  0  0  0  0  0  0  0
   38.9640   -9.4382  -36.6218 C   0  0  0  0  0  0  0  0  0  0  0  0
   38.4851   -8.3601  -37.3042 N   0  0  0  0  0  0  0  0  0  0  0  0
  1  2  2  0  0  0  0
  1  7  1  0  0  0  0
  2  3  1  0  0  0  0
  2  4  1  0  0  0  0
  4  5  2  0  0  0  0
  5  6  1  0  0  0  0
  5 11  1  0  0  0  0
  6  7  2  0  0  0  0
  6  9  1  0  0  0  0
  7  8  1  0  0  0  0
  9 10  1  0  0  0  0
 10 11  2  0  0  0  0
M  END
>  <CHROM.1>
36.38715616,-9.84447391,-37.91824075,2.97164778,0.48465806,2.77353398

>  <Name>
ligand

>  <RI>
0

>  <Rbt.Current_Directory>
/home/itssahil/PROJECTS/Mol_Feturizer/New_Systems/rnas/3RKF

>  <Rbt.Executable>
rbdock ($Id: //depot/dev/client3/rdock/2013.1/src/exe/rbdock.cxx#4 $)

>  <Rbt.Library>
libRbt.so (2013.1, Build901 2013/11/27)

>  <Rbt.Parameter_File>
/export/apps/rDock/src/rDock_2013.1_src/data/scripts/dock_solv.prm

>  <Rbt.Receptor>
prm/pocket_docking_4.prm

>  <SCORE>
-16.5362

>  <SCORE.INTER>
-16.5362

>  <SCORE.INTER.CONST>
1

>  <SCORE.INTER.POLAR>
0

>  <SCORE.INTER.ROT>
0

>  <SCORE.INTER.SOLV>
10.7017

>  <SCORE.INTER.VDW>
-18.1914

>  <SCORE.INTER.norm>
-1.50329

>  <SCORE.INTRA>
0

>  <SCORE.INTRA.DIHEDRAL>
0

>  <SCORE.INTRA.DIHEDRAL.0>
0

>  <SCORE.INTRA.POLAR>
0

>  <SCORE.INTRA.POLAR.0>
0

>  <SCORE.INTRA.REPUL>
0

>  <SCORE.INTRA.REPUL.0>
0

>  <SCORE.INTRA.SOLV>
0

>  <SCORE.INTRA.SOLV.lig_0>
-28.6198

>  <SCORE.INTRA.VDW>
0

>  <SCORE.INTRA.VDW.0>
0

>  <SCORE.INTRA.norm>
0

>  <SCORE.RESTR>
0

>  <SCORE.RESTR.CAVITY>
0

>  <SCORE.RESTR.norm>
0

>  <SCORE.SYSTEM>
0

>  <SCORE.SYSTEM.CONST>
0

>  <SCORE.SYSTEM.DIHEDRAL>
0

>  <SCORE.SYSTEM.SOLV>
0

>  <SCORE.SYSTEM.norm>
0

>  <SCORE.heavy>
11

>  <SCORE.norm>
-1.50329

>  <RMSD>
3.450

$$$$
ligand
 OpenBabel11021811483D
libRbt.so/2013.1/901 2013/11/27
 11 12  0  0  0  0  0  0  0  0999 V2000
   34.9624   -9.9444  -38.6804 N   0  0  0  0  0  0  0  0  0  0  0  0
   35.2232   -8.6740  -39.0232 C   0  0  0  0  0  0  0  0  0  0  0  0
   34.2818   -7.9642  -39.8295 N   0  0  0  0  0  0  0  0  0  0  0  0
   36.3435   -8.0618  -38.6257 N   0  0  0  0  0  0  0  0  0  0  0  0
   37.2673   -8.7305  -37.8464 C   0  0  0  0  0  0  0  0  0  0  0  0
   37.0174  -10.0297  -37.4889 C   0  0  0  0  0  0  0  0  0  0  0  0
   35.8105  -10.6691  -37.9230 C   0  0  0  0  0  0  0  0  0  0  0  0
   35.4410  -12.3423  -37.4795 S   0  0  0  0  0  0  0  0  0  0  0  0
   38.0738  -10.4608  -36.7278 N   0  0  0  0  0  0  0  0  0  0  0  0
   38.9637   -9.4400  -36.6187 C   0  0  0  0  0  0  0  0  0  0  0  0
   38.4847   -8.3624  -37.3019 N   0  0  0  0  0  0  0  0  0  0  0  0
  1  2  2  0  0  0  0
  1  7  1  0  0  0  0
  2  3  1  0  0  0  0
  2  4  1  0  0  0  0
  4  5  2  0  0  0  0
  5  6  1  0  0  0  0
  5 11  1  0  0  0  0
  6  7  2  0  0  0  0
  6  9  1  0  0  0  0
  7  8  1  0  0  0  0
  9 10  1  0  0  0  0
 10 11  2  0  0  0  0
M  END
>  <CHROM.1>
36.38618448,-9.84691007,-37.91357675,2.97169058,0.48416812,2.77256991

>  <Name>
ligand

>  <RI>
0

>  <Rbt.Current_Directory>
/home/itssahil/PROJECTS/Mol_Feturizer/New_Systems/rnas/3RKF

>  <Rbt.Executable>
rbdock ($Id: //depot/dev/client3/rdock/2013.1/src/exe/rbdock.cxx#4 $)

>  <Rbt.Library>
libRbt.so (2013.1, Build901 2013/11/27)

>  <Rbt.Parameter_File>
/export/apps/rDock/src/rDock_2013.1_src/data/scripts/dock_solv.prm

>  <Rbt.Receptor>
prm/pocket_docking_6.prm

>  <SCORE>
-16.5371

>  <SCORE.INTER>
-16.5371

>  <SCORE.INTER.CONST>
1

>  <SCORE.INTER.POLAR>
0

>  <SCORE.INTER.ROT>
0

>  <SCORE.INTER.SOLV>
10.6911

>  <SCORE.INTER.VDW>
-18.1884

>  <SCORE.INTER.norm>
-1.50337

>  <SCORE.INTRA>
0

>  <SCORE.INTRA.DIHEDRAL>
0

>  <SCORE.INTRA.DIHEDRAL.0>
0

>  <SCORE.INTRA.POLAR>
0

>  <SCORE.INTRA.POLAR.0>
0

>  <SCORE.INTRA.REPUL>
0

>  <SCORE.INTRA.REPUL.0>
0

>  <SCORE.INTRA.SOLV>
0

>  <SCORE.INTRA.SOLV.lig_0>
-28.6198

>  <SCORE.INTRA.VDW>
0

>  <SCORE.INTRA.VDW.0>
0

>  <SCORE.INTRA.norm>
0

>  <SCORE.RESTR>
0

>  <SCORE.RESTR.CAVITY>
0

>  <SCORE.RESTR.norm>
0

>  <SCORE.SYSTEM>
0

>  <SCORE.SYSTEM.CONST>
0

>  <SCORE.SYSTEM.DIHEDRAL>
0

>  <SCORE.SYSTEM.SOLV>
0

>  <SCORE.SYSTEM.norm>
0

>  <SCORE.heavy>
11

>  <SCORE.norm>
-1.50337

>  <RMSD>
3.450

$$$$
ligand
 OpenBabel11021811483D
libRbt.so/2013.1/901 2013/11/27
 11 12  0  0  0  0  0  0  0  0999 V2000
   34.9472  -10.0153  -38.6378 N   0  0  0  0  0  0  0  0  0  0  0  0
   35.2089   -8.7509  -39.0015 C   0  0  0  0  0  0  0  0  0  0  0  0
   34.2597   -8.0478  -39.8045 N   0  0  0  0  0  0  0  0  0  0  0  0
   36.3374   -8.1386  -38.6279 N   0  0  0  0  0  0  0  0  0  0  0  0
   37.2688   -8.8009  -37.8522 C   0  0  0  0  0  0  0  0  0  0  0  0
   37.0180  -10.0939  -37.4735 C   0  0  0  0  0  0  0  0  0  0  0  0
   35.8024  -10.7335  -37.8822 C   0  0  0  0  0  0  0  0  0  0  0  0
   35.4315  -12.3987  -37.4108 S   0  0  0  0  0  0  0  0  0  0  0  0
   38.0828  -10.5195  -36.7211 N   0  0  0  0  0  0  0  0  0  0  0  0
   38.9787   -9.5015  -36.6383 C   0  0  0  0  0  0  0  0  0  0  0  0
   38.4953   -8.4311  -37.3296 N   0  0  0  0  0  0  0  0  0  0  0  0
  1  2  2  0  0  0  0
  1  7  1  0  0  0  0
  2  3  1  0  0  0  0
  2  4  1  0  0  0  0
  4  5  2  0  0  0  0
  5  6  1  0  0  0  0
  5 11  1  0  0  0  0
  6  7  2  0  0  0  0
  6  9  1  0  0  0  0
  7  8  1  0  0  0  0
  9 10  1  0  0  0  0
 10 11  2  0  0  0  0
M  END
>  <CHROM.1>
36.38182554,-9.91397623,-37.89198994,2.97083086,0.46967949,2.75926782

>  <Name>
ligand

>  <RI>
0

>  <Rbt.Current_Directory>
/home/itssahil/PROJECTS/Mol_Feturizer/New_Systems/rnas/3RKF

>  <Rbt.Executable>
rbdock ($Id: //depot/dev/client3/rdock/2013.1/src/exe/rbdock.cxx#4 $)

>  <Rbt.Library>
libRbt.so (2013.1, Build901 2013/11/27)

>  <Rbt.Parameter_File>
/export/apps/rDock/src/rDock_2013.1_src/data/scripts/dock_solv.prm

>  <Rbt.Receptor>
prm/pocket_docking_7.prm

>  <SCORE>
-16.4752

>  <SCORE.INTER>
-16.4752

>  <SCORE.INTER.CONST>
1

>  <SCORE.INTER.POLAR>
0

>  <SCORE.INTER.ROT>
0

>  <SCORE.INTER.SOLV>
10.7241

>  <SCORE.INTER.VDW>
-18.1582

>  <SCORE.INTER.norm>
-1.49774

>  <SCORE.INTRA>
0

>  <SCORE.INTRA.DIHEDRAL>
0

>  <SCORE.INTRA.DIHEDRAL.0>
0

>  <SCORE.INTRA.POLAR>
0

>  <SCORE.INTRA.POLAR.0>
0

>  <SCORE.INTRA.REPUL>
0

>  <SCORE.INTRA.REPUL.0>
0

>  <SCORE.INTRA.SOLV>
0

>  <SCORE.INTRA.SOLV.lig_0>
-28.6198

>  <SCORE.INTRA.VDW>
0

>  <SCORE.INTRA.VDW.0>
0

>  <SCORE.INTRA.norm>
0

>  <SCORE.RESTR>
0

>  <SCORE.RESTR.CAVITY>
0

>  <SCORE.RESTR.norm>
0

>  <SCORE.SYSTEM>
0

>  <SCORE.SYSTEM.CONST>
0

>  <SCORE.SYSTEM.DIHEDRAL>
0

>  <SCORE.SYSTEM.SOLV>
0

>  <SCORE.SYSTEM.norm>
0

>  <SCORE.heavy>
11

>  <SCORE.norm>
-1.49774

>  <RMSD>
3.450

$$$$
ligand
 OpenBabel11021811483D
libRbt.so/2013.1/901 2013/11/27
 11 12  0  0  0  0  0  0  0  0999 V2000
   34.9451  -10.0116  -38.6574 N   0  0  0  0  0  0  0  0  0  0  0  0
   35.2047   -8.7447  -39.0139 C   0  0  0  0  0  0  0  0  0  0  0  0
   34.2602   -8.0429  -39.8237 N   0  0  0  0  0  0  0  0  0  0  0  0
   36.3266   -8.1287  -38.6270 N   0  0  0  0  0  0  0  0  0  0  0  0
   37.2534   -8.7897  -37.8445 C   0  0  0  0  0  0  0  0  0  0  0  0
   37.0047  -10.0852  -37.4730 C   0  0  0  0  0  0  0  0  0  0  0  0
   35.7961  -10.7287  -37.8961 C   0  0  0  0  0  0  0  0  0  0  0  0
   35.4282  -12.3974  -37.4344 S   0  0  0  0  0  0  0  0  0  0  0  0
   38.0640  -10.5088  -36.7118 N   0  0  0  0  0  0  0  0  0  0  0  0
   38.9544   -9.4870  -36.6164 C   0  0  0  0  0  0  0  0  0  0  0  0
   38.4729   -8.4163  -37.3085 N   0  0  0  0  0  0  0  0  0  0  0  0
  1  2  2  0  0  0  0
  1  7  1  0  0  0  0
  2  3  1  0  0  0  0
  2  4  1  0  0  0  0
  4  5  2  0  0  0  0
  5  6  1  0  0  0  0
  5 11  1  0  0  0  0
  6  7  2  0  0  0  0
  6  9  1  0  0  0  0
  7  8  1  0  0  0  0
  9 10  1  0  0  0  0
 10 11  2  0  0  0  0
M  END
>  <CHROM.1>
36.37186664,-9.90657912,-37.89714010,2.97022039,0.48052373,2.76321941

>  <Name>
ligand

>  <RI>
0

>  <Rbt.Current_Directory>
/home/itssahil/PROJECTS/Mol_Feturizer/New_Systems/rnas/3RKF

>  <Rbt.Executable>
rbdock ($Id: //depot/dev/client3/rdock/2013.1/src/exe/rbdock.cxx#4 $)

>  <Rbt.Library>
libRbt.so (2013.1, Build901 2013/11/27)

>  <Rbt.Parameter_File>
/export/apps/rDock/src/rDock_2013.1_src/data/scripts/dock_solv.prm

>  <Rbt.Receptor>
prm/pocket_docking_7.prm

>  <SCORE>
-16.4921

>  <SCORE.INTER>
-16.4921

>  <SCORE.INTER.CONST>
1

>  <SCORE.INTER.POLAR>
0

>  <SCORE.INTER.ROT>
0

>  <SCORE.INTER.SOLV>
10.7438

>  <SCORE.INTER.VDW>
-18.176

>  <SCORE.INTER.norm>
-1.49928

>  <SCORE.INTRA>
0

>  <SCORE.INTRA.DIHEDRAL>
0

>  <SCORE.INTRA.DIHEDRAL.0>
0

>  <SCORE.INTRA.POLAR>
0

>  <SCORE.INTRA.POLAR.0>
0

>  <SCORE.INTRA.REPUL>
0

>  <SCORE.INTRA.REPUL.0>
0

>  <SCORE.INTRA.SOLV>
0

>  <SCORE.INTRA.SOLV.lig_0>
-28.6198

>  <SCORE.INTRA.VDW>
0

>  <SCORE.INTRA.VDW.0>
0

>  <SCORE.INTRA.norm>
0

>  <SCORE.RESTR>
0

>  <SCORE.RESTR.CAVITY>
0

>  <SCORE.RESTR.norm>
0

>  <SCORE.SYSTEM>
0

>  <SCORE.SYSTEM.CONST>
0

>  <SCORE.SYSTEM.DIHEDRAL>
0

>  <SCORE.SYSTEM.SOLV>
0

>  <SCORE.SYSTEM.norm>
0

>  <SCORE.heavy>
11

>  <SCORE.norm>
-1.49928

>  <RMSD>
3.450

$$$$
ligand
 OpenBabel11021811483D
libRbt.so/2013.1/901 2013/11/27
 11 12  0  0  0  0  0  0  0  0999 V2000
   34.9552   -9.9385  -38.6765 N   0  0  0  0  0  0  0  0  0  0  0  0
   35.2186   -8.6701  -39.0248 C   0  0  0  0  0  0  0  0  0  0  0  0
   34.2768   -7.9605  -39.8309 N   0  0  0  0  0  0  0  0  0  0  0  0
   36.3419   -8.0597  -38.6330 N   0  0  0  0  0  0  0  0  0  0  0  0
   37.2661   -8.7282  -37.8540 C   0  0  0  0  0  0  0  0  0  0  0  0
   37.0136  -10.0253  -37.4909 C   0  0  0  0  0  0  0  0  0  0  0  0
   35.8035  -10.6628  -37.9190 C   0  0  0  0  0  0  0  0  0  0  0  0
   35.4306  -12.3333  -37.4683 S   0  0  0  0  0  0  0  0  0  0  0  0
   38.0710  -10.4566  -36.7314 N   0  0  0  0  0  0  0  0  0  0  0  0
   38.9642   -9.4380  -36.6289 C   0  0  0  0  0  0  0  0  0  0  0  0
   38.4862   -8.3616  -37.3146 N   0  0  0  0  0  0  0  0  0  0  0  0
  1  2  2  0  0  0  0
  1  7  1  0  0  0  0
  2  3  1  0  0  0  0
  2  4  1  0  0  0  0
  4  5  2  0  0  0  0
  5  6  1  0  0  0  0
  5 11  1  0  0  0  0
  6  7  2  0  0  0  0
  6  9  1  0  0  0  0
  7  8  1  0  0  0  0
  9 10  1  0  0  0  0
 10 11  2  0  0  0  0
M  END
>  <CHROM.1>
36.38158132,-9.84225433,-37.91440860,2.97349113,0.48028827,2.76803096

>  <Name>
ligand

>  <RI>
0

>  <Rbt.Current_Directory>
/home/itssahil/PROJECTS/Mol_Feturizer/New_Systems/rnas/3RKF

>  <Rbt.Executable>
rbdock ($Id: //depot/dev/client3/rdock/2013.1/src/exe/rbdock.cxx#4 $)

>  <Rbt.Library>
libRbt.so (2013.1, Build901 2013/11/27)

>  <Rbt.Parameter_File>
/export/apps/rDock/src/rDock_2013.1_src/data/scripts/dock_solv.prm

>  <Rbt.Receptor>
prm/blind_docking_60.prm

>  <SCORE>
-16.5362

>  <SCORE.INTER>
-16.5362

>  <SCORE.INTER.CONST>
1

>  <SCORE.INTER.POLAR>
0

>  <SCORE.INTER.ROT>
0

>  <SCORE.INTER.SOLV>
10.6756

>  <SCORE.INTER.VDW>
-18.1827

>  <SCORE.INTER.norm>
-1.50329

>  <SCORE.INTRA>
0

>  <SCORE.INTRA.DIHEDRAL>
0

>  <SCORE.INTRA.DIHEDRAL.0>
0

>  <SCORE.INTRA.POLAR>
0

>  <SCORE.INTRA.POLAR.0>
0

>  <SCORE.INTRA.REPUL>
0

>  <SCORE.INTRA.REPUL.0>
0

>  <SCORE.INTRA.SOLV>
0

>  <SCORE.INTRA.SOLV.lig_0>
-28.6198

>  <SCORE.INTRA.VDW>
0

>  <SCORE.INTRA.VDW.0>
0

>  <SCORE.INTRA.norm>
0

>  <SCORE.RESTR>
0

>  <SCORE.RESTR.CAVITY>
0

>  <SCORE.RESTR.norm>
0

>  <SCORE.SYSTEM>
0

>  <SCORE.SYSTEM.CONST>
0

>  <SCORE.SYSTEM.DIHEDRAL>
0

>  <SCORE.SYSTEM.SOLV>
0

>  <SCORE.SYSTEM.norm>
0

>  <SCORE.heavy>
11

>  <SCORE.norm>
-1.50329

>  <RMSD>
3.451

$$$$
ligand
 OpenBabel11021811483D
libRbt.so/2013.1/901 2013/11/27
 11 12  0  0  0  0  0  0  0  0999 V2000
   34.9630   -9.9398  -38.6836 N   0  0  0  0  0  0  0  0  0  0  0  0
   35.2261   -8.6708  -39.0298 C   0  0  0  0  0  0  0  0  0  0  0  0
   34.2860   -7.9614  -39.8381 N   0  0  0  0  0  0  0  0  0  0  0  0
   36.3475   -8.0595  -38.6340 N   0  0  0  0  0  0  0  0  0  0  0  0
   37.2701   -8.7278  -37.8528 C   0  0  0  0  0  0  0  0  0  0  0  0
   37.0179  -10.0256  -37.4918 C   0  0  0  0  0  0  0  0  0  0  0  0
   35.8098  -10.6639  -37.9242 C   0  0  0  0  0  0  0  0  0  0  0  0
   35.4373  -12.3352  -37.4762 S   0  0  0  0  0  0  0  0  0  0  0  0
   38.0734  -10.4565  -36.7295 N   0  0  0  0  0  0  0  0  0  0  0  0
   38.9652   -9.4370  -36.6232 C   0  0  0  0  0  0  0  0  0  0  0  0
   38.4882   -8.3604  -37.3093 N   0  0  0  0  0  0  0  0  0  0  0  0
  1  2  2  0  0  0  0
  1  7  1  0  0  0  0
  2  3  1  0  0  0  0
  2  4  1  0  0  0  0
  4  5  2  0  0  0  0
  5  6  1  0  0  0  0
  5 11  1  0  0  0  0
  6  7  2  0  0  0  0
  6  9  1  0  0  0  0
  7  8  1  0  0  0  0
  9 10  1  0  0  0  0
 10 11  2  0  0  0  0
M  END
>  <CHROM.1>
36.38696122,-9.84274519,-37.91701212,2.97360480,0.48351603,2.76896510

>  <Name>
ligand

>  <RI>
0

>  <Rbt.Current_Directory>
/home/itssahil/PROJECTS/Mol_Feturizer/New_Systems/rnas/3RKF

>  <Rbt.Executable>
rbdock ($Id: //depot/dev/client3/rdock/2013.1/src/exe/rbdock.cxx#4 $)

>  <Rbt.Library>
libRbt.so (2013.1, Build901 2013/11/27)

>  <Rbt.Parameter_File>
/export/apps/rDock/src/rDock_2013.1_src/data/scripts/dock_solv.prm

>  <Rbt.Receptor>
prm/pocket_docking_3.prm

>  <SCORE>
-16.5385

>  <SCORE.INTER>
-16.5385

>  <SCORE.INTER.CONST>
1

>  <SCORE.INTER.POLAR>
0

>  <SCORE.INTER.ROT>
0

>  <SCORE.INTER.SOLV>
10.7183

>  <SCORE.INTER.VDW>
-18.1984

>  <SCORE.INTER.norm>
-1.5035

>  <SCORE.INTRA>
0

>  <SCORE.INTRA.DIHEDRAL>
0

>  <SCORE.INTRA.DIHEDRAL.0>
0

>  <SCORE.INTRA.POLAR>
0

>  <SCORE.INTRA.POLAR.0>
0

>  <SCORE.INTRA.REPUL>
0

>  <SCORE.INTRA.REPUL.0>
0

>  <SCORE.INTRA.SOLV>
0

>  <SCORE.INTRA.SOLV.lig_0>
-28.6198

>  <SCORE.INTRA.VDW>
0

>  <SCORE.INTRA.VDW.0>
0

>  <SCORE.INTRA.norm>
0

>  <SCORE.RESTR>
0

>  <SCORE.RESTR.CAVITY>
0

>  <SCORE.RESTR.norm>
0

>  <SCORE.SYSTEM>
0

>  <SCORE.SYSTEM.CONST>
0

>  <SCORE.SYSTEM.DIHEDRAL>
0

>  <SCORE.SYSTEM.SOLV>
0

>  <SCORE.SYSTEM.norm>
0

>  <SCORE.heavy>
11

>  <SCORE.norm>
-1.5035

>  <RMSD>
3.451

$$$$
ligand
 OpenBabel11021811483D
libRbt.so/2013.1/901 2013/11/27
 11 12  0  0  0  0  0  0  0  0999 V2000
   34.9448  -10.0113  -38.6545 N   0  0  0  0  0  0  0  0  0  0  0  0
   35.2048   -8.7455  -39.0143 C   0  0  0  0  0  0  0  0  0  0  0  0
   34.2588   -8.0442  -39.8228 N   0  0  0  0  0  0  0  0  0  0  0  0
   36.3285   -8.1299  -38.6318 N   0  0  0  0  0  0  0  0  0  0  0  0
   37.2567   -8.7903  -37.8507 C   0  0  0  0  0  0  0  0  0  0  0  0
   37.0077  -10.0848  -37.4759 C   0  0  0  0  0  0  0  0  0  0  0  0
   35.7972  -10.7278  -37.8941 C   0  0  0  0  0  0  0  0  0  0  0  0
   35.4287  -12.3951  -37.4281 S   0  0  0  0  0  0  0  0  0  0  0  0
   38.0687  -10.5080  -36.7168 N   0  0  0  0  0  0  0  0  0  0  0  0
   38.9605   -9.4871  -36.6260 C   0  0  0  0  0  0  0  0  0  0  0  0
   38.4782   -8.4172  -37.3189 N   0  0  0  0  0  0  0  0  0  0  0  0
  1  2  2  0  0  0  0
  1  7  1  0  0  0  0
  2  3  1  0  0  0  0
  2  4  1  0  0  0  0
  4  5  2  0  0  0  0
  5  6  1  0  0  0  0
  5 11  1  0  0  0  0
  6  7  2  0  0  0  0
  6  9  1  0  0  0  0
  7  8  1  0  0  0  0
  9 10  1  0  0  0  0
 10 11  2  0  0  0  0
M  END
>  <CHROM.1>
36.37386608,-9.90633436,-37.89852636,2.97018111,0.47743828,2.76122380

>  <Name>
ligand

>  <RI>
0

>  <Rbt.Current_Directory>
/home/itssahil/PROJECTS/Mol_Feturizer/New_Systems/rnas/3RKF

>  <Rbt.Executable>
rbdock ($Id: //depot/dev/client3/rdock/2013.1/src/exe/rbdock.cxx#4 $)

>  <Rbt.Library>
libRbt.so (2013.1, Build901 2013/11/27)

>  <Rbt.Parameter_File>
/export/apps/rDock/src/rDock_2013.1_src/data/scripts/dock_solv.prm

>  <Rbt.Receptor>
prm/pocket_docking_3.prm

>  <SCORE>
-16.4892

>  <SCORE.INTER>
-16.4892

>  <SCORE.INTER.CONST>
1

>  <SCORE.INTER.POLAR>
0

>  <SCORE.INTER.ROT>
0

>  <SCORE.INTER.SOLV>
10.7447

>  <SCORE.INTER.VDW>
-18.1744

>  <SCORE.INTER.norm>
-1.49902

>  <SCORE.INTRA>
0

>  <SCORE.INTRA.DIHEDRAL>
0

>  <SCORE.INTRA.DIHEDRAL.0>
0

>  <SCORE.INTRA.POLAR>
0

>  <SCORE.INTRA.POLAR.0>
0

>  <SCORE.INTRA.REPUL>
0

>  <SCORE.INTRA.REPUL.0>
0

>  <SCORE.INTRA.SOLV>
0

>  <SCORE.INTRA.SOLV.lig_0>
-28.6198

>  <SCORE.INTRA.VDW>
0

>  <SCORE.INTRA.VDW.0>
0

>  <SCORE.INTRA.norm>
0

>  <SCORE.RESTR>
0

>  <SCORE.RESTR.CAVITY>
0

>  <SCORE.RESTR.norm>
0

>  <SCORE.SYSTEM>
0

>  <SCORE.SYSTEM.CONST>
0

>  <SCORE.SYSTEM.DIHEDRAL>
0

>  <SCORE.SYSTEM.SOLV>
0

>  <SCORE.SYSTEM.norm>
0

>  <SCORE.heavy>
11

>  <SCORE.norm>
-1.49902

>  <RMSD>
3.451

$$$$
ligand
 OpenBabel11021811483D
libRbt.so/2013.1/901 2013/11/27
 11 12  0  0  0  0  0  0  0  0999 V2000
   34.9606   -9.9381  -38.6828 N   0  0  0  0  0  0  0  0  0  0  0  0
   35.2255   -8.6703  -39.0317 C   0  0  0  0  0  0  0  0  0  0  0  0
   34.2867   -7.9616  -39.8421 N   0  0  0  0  0  0  0  0  0  0  0  0
   36.3475   -8.0595  -38.6366 N   0  0  0  0  0  0  0  0  0  0  0  0
   37.2687   -8.7272  -37.8534 C   0  0  0  0  0  0  0  0  0  0  0  0
   37.0146  -10.0238  -37.4896 C   0  0  0  0  0  0  0  0  0  0  0  0
   35.8060  -10.6616  -37.9213 C   0  0  0  0  0  0  0  0  0  0  0  0
   35.4312  -12.3315  -37.4698 S   0  0  0  0  0  0  0  0  0  0  0  0
   38.0692  -10.4543  -36.7258 N   0  0  0  0  0  0  0  0  0  0  0  0
   38.9622   -9.4357  -36.6212 C   0  0  0  0  0  0  0  0  0  0  0  0
   38.4869   -8.3601  -37.3100 N   0  0  0  0  0  0  0  0  0  0  0  0
  1  2  2  0  0  0  0
  1  7  1  0  0  0  0
  2  3  1  0  0  0  0
  2  4  1  0  0  0  0
  4  5  2  0  0  0  0
  5  6  1  0  0  0  0
  5 11  1  0  0  0  0
  6  7  2  0  0  0  0
  6  9  1  0  0  0  0
  7  8  1  0  0  0  0
  9 10  1  0  0  0  0
 10 11  2  0  0  0  0
M  END
>  <CHROM.1>
36.38421679,-9.84118449,-37.91562275,2.97516260,0.48361027,2.76599682

>  <Name>
ligand

>  <RI>
0

>  <Rbt.Current_Directory>
/home/itssahil/PROJECTS/Mol_Feturizer/New_Systems/rnas/3RKF

>  <Rbt.Executable>
rbdock ($Id: //depot/dev/client3/rdock/2013.1/src/exe/rbdock.cxx#4 $)

>  <Rbt.Library>
libRbt.so (2013.1, Build901 2013/11/27)

>  <Rbt.Parameter_File>
/export/apps/rDock/src/rDock_2013.1_src/data/scripts/dock_solv.prm

>  <Rbt.Receptor>
prm/pocket_docking_5.prm

>  <SCORE>
-16.5379

>  <SCORE.INTER>
-16.5379

>  <SCORE.INTER.CONST>
1

>  <SCORE.INTER.POLAR>
0

>  <SCORE.INTER.ROT>
0

>  <SCORE.INTER.SOLV>
10.7242

>  <SCORE.INTER.VDW>
-18.2

>  <SCORE.INTER.norm>
-1.50344

>  <SCORE.INTRA>
0

>  <SCORE.INTRA.DIHEDRAL>
0

>  <SCORE.INTRA.DIHEDRAL.0>
0

>  <SCORE.INTRA.POLAR>
0

>  <SCORE.INTRA.POLAR.0>
0

>  <SCORE.INTRA.REPUL>
0

>  <SCORE.INTRA.REPUL.0>
0

>  <SCORE.INTRA.SOLV>
0

>  <SCORE.INTRA.SOLV.lig_0>
-28.6198

>  <SCORE.INTRA.VDW>
0

>  <SCORE.INTRA.VDW.0>
0

>  <SCORE.INTRA.norm>
0

>  <SCORE.RESTR>
0

>  <SCORE.RESTR.CAVITY>
0

>  <SCORE.RESTR.norm>
0

>  <SCORE.SYSTEM>
0

>  <SCORE.SYSTEM.CONST>
0

>  <SCORE.SYSTEM.DIHEDRAL>
0

>  <SCORE.SYSTEM.SOLV>
0

>  <SCORE.SYSTEM.norm>
0

>  <SCORE.heavy>
11

>  <SCORE.norm>
-1.50344

>  <RMSD>
3.451

$$$$
ligand
 OpenBabel11021811483D
libRbt.so/2013.1/901 2013/11/27
 11 12  0  0  0  0  0  0  0  0999 V2000
   34.9647   -9.9405  -38.6829 N   0  0  0  0  0  0  0  0  0  0  0  0
   35.2276   -8.6717  -39.0299 C   0  0  0  0  0  0  0  0  0  0  0  0
   34.2875   -7.9631  -39.8388 N   0  0  0  0  0  0  0  0  0  0  0  0
   36.3489   -8.0599  -38.6342 N   0  0  0  0  0  0  0  0  0  0  0  0
   37.2714   -8.7276  -37.8525 C   0  0  0  0  0  0  0  0  0  0  0  0
   37.0194  -10.0252  -37.4907 C   0  0  0  0  0  0  0  0  0  0  0  0
   35.8115  -10.6640  -37.9229 C   0  0  0  0  0  0  0  0  0  0  0  0
   35.4393  -12.3351  -37.4739 S   0  0  0  0  0  0  0  0  0  0  0  0
   38.0749  -10.4554  -36.7279 N   0  0  0  0  0  0  0  0  0  0  0  0
   38.9664   -9.4356  -36.6221 C   0  0  0  0  0  0  0  0  0  0  0  0
   38.4893   -8.3596  -37.3090 N   0  0  0  0  0  0  0  0  0  0  0  0
  1  2  2  0  0  0  0
  1  7  1  0  0  0  0
  2  3  1  0  0  0  0
  2  4  1  0  0  0  0
  4  5  2  0  0  0  0
  5  6  1  0  0  0  0
  5 11  1  0  0  0  0
  6  7  2  0  0  0  0
  6  9  1  0  0  0  0
  7  8  1  0  0  0  0
  9 10  1  0  0  0  0
 10 11  2  0  0  0  0
M  END
>  <CHROM.1>
36.38852127,-9.84273824,-37.91612705,2.97346845,0.48376461,2.76839892

>  <Name>
ligand

>  <RI>
0

>  <Rbt.Current_Directory>
/home/itssahil/PROJECTS/Mol_Feturizer/New_Systems/rnas/3RKF

>  <Rbt.Executable>
rbdock ($Id: //depot/dev/client3/rdock/2013.1/src/exe/rbdock.cxx#4 $)

>  <Rbt.Library>
libRbt.so (2013.1, Build901 2013/11/27)

>  <Rbt.Parameter_File>
/export/apps/rDock/src/rDock_2013.1_src/data/scripts/dock_solv.prm

>  <Rbt.Receptor>
prm/pocket_docking_5.prm

>  <SCORE>
-16.5387

>  <SCORE.INTER>
-16.5387

>  <SCORE.INTER.CONST>
1

>  <SCORE.INTER.POLAR>
0

>  <SCORE.INTER.ROT>
0

>  <SCORE.INTER.SOLV>
10.7251

>  <SCORE.INTER.VDW>
-18.2008

>  <SCORE.INTER.norm>
-1.50352

>  <SCORE.INTRA>
0

>  <SCORE.INTRA.DIHEDRAL>
0

>  <SCORE.INTRA.DIHEDRAL.0>
0

>  <SCORE.INTRA.POLAR>
0

>  <SCORE.INTRA.POLAR.0>
0

>  <SCORE.INTRA.REPUL>
0

>  <SCORE.INTRA.REPUL.0>
0

>  <SCORE.INTRA.SOLV>
0

>  <SCORE.INTRA.SOLV.lig_0>
-28.6198

>  <SCORE.INTRA.VDW>
0

>  <SCORE.INTRA.VDW.0>
0

>  <SCORE.INTRA.norm>
0

>  <SCORE.RESTR>
0

>  <SCORE.RESTR.CAVITY>
0

>  <SCORE.RESTR.norm>
0

>  <SCORE.SYSTEM>
0

>  <SCORE.SYSTEM.CONST>
0

>  <SCORE.SYSTEM.DIHEDRAL>
0

>  <SCORE.SYSTEM.SOLV>
0

>  <SCORE.SYSTEM.norm>
0

>  <SCORE.heavy>
11

>  <SCORE.norm>
-1.50352

>  <RMSD>
3.451

$$$$
ligand
 OpenBabel11021811483D
libRbt.so/2013.1/901 2013/11/27
 11 12  0  0  0  0  0  0  0  0999 V2000
   34.9612   -9.9401  -38.6818 N   0  0  0  0  0  0  0  0  0  0  0  0
   35.2237   -8.6707  -39.0270 C   0  0  0  0  0  0  0  0  0  0  0  0
   34.2830   -7.9609  -39.8342 N   0  0  0  0  0  0  0  0  0  0  0  0
   36.3451   -8.0594  -38.6310 N   0  0  0  0  0  0  0  0  0  0  0  0
   37.2682   -8.7281  -37.8509 C   0  0  0  0  0  0  0  0  0  0  0  0
   37.0165  -10.0263  -37.4909 C   0  0  0  0  0  0  0  0  0  0  0  0
   35.8085  -10.6646  -37.9235 C   0  0  0  0  0  0  0  0  0  0  0  0
   35.4368  -12.3365  -37.4769 S   0  0  0  0  0  0  0  0  0  0  0  0
   38.0725  -10.4575  -36.7295 N   0  0  0  0  0  0  0  0  0  0  0  0
   38.9640   -9.4378  -36.6226 C   0  0  0  0  0  0  0  0  0  0  0  0
   38.4863   -8.3608  -37.3075 N   0  0  0  0  0  0  0  0  0  0  0  0
  1  2  2  0  0  0  0
  1  7  1  0  0  0  0
  2  3  1  0  0  0  0
  2  4  1  0  0  0  0
  4  5  2  0  0  0  0
  5  6  1  0  0  0  0
  5 11  1  0  0  0  0
  6  7  2  0  0  0  0
  6  9  1  0  0  0  0
  7  8  1  0  0  0  0
  9 10  1  0  0  0  0
 10 11  2  0  0  0  0
M  END
>  <CHROM.1>
36.38538945,-9.84329795,-37.91574167,2.97307747,0.48328394,2.77014085

>  <Name>
ligand

>  <RI>
0

>  <Rbt.Current_Directory>
/home/itssahil/PROJECTS/Mol_Feturizer/New_Systems/rnas/3RKF

>  <Rbt.Executable>
rbdock ($Id: //depot/dev/client3/rdock/2013.1/src/exe/rbdock.cxx#4 $)

>  <Rbt.Library>
libRbt.so (2013.1, Build901 2013/11/27)

>  <Rbt.Parameter_File>
/export/apps/rDock/src/rDock_2013.1_src/data/scripts/dock_solv.prm

>  <Rbt.Receptor>
prm/pocket_docking_7.prm

>  <SCORE>
-16.5384

>  <SCORE.INTER>
-16.5384

>  <SCORE.INTER.CONST>
1

>  <SCORE.INTER.POLAR>
0

>  <SCORE.INTER.ROT>
0

>  <SCORE.INTER.SOLV>
10.7004

>  <SCORE.INTER.VDW>
-18.1924

>  <SCORE.INTER.norm>
-1.50349

>  <SCORE.INTRA>
0

>  <SCORE.INTRA.DIHEDRAL>
0

>  <SCORE.INTRA.DIHEDRAL.0>
0

>  <SCORE.INTRA.POLAR>
0

>  <SCORE.INTRA.POLAR.0>
0

>  <SCORE.INTRA.REPUL>
0

>  <SCORE.INTRA.REPUL.0>
0

>  <SCORE.INTRA.SOLV>
0

>  <SCORE.INTRA.SOLV.lig_0>
-28.6198

>  <SCORE.INTRA.VDW>
0

>  <SCORE.INTRA.VDW.0>
0

>  <SCORE.INTRA.norm>
0

>  <SCORE.RESTR>
0

>  <SCORE.RESTR.CAVITY>
0

>  <SCORE.RESTR.norm>
0

>  <SCORE.SYSTEM>
0

>  <SCORE.SYSTEM.CONST>
0

>  <SCORE.SYSTEM.DIHEDRAL>
0

>  <SCORE.SYSTEM.SOLV>
0

>  <SCORE.SYSTEM.norm>
0

>  <SCORE.heavy>
11

>  <SCORE.norm>
-1.50349

>  <RMSD>
3.451

$$$$
ligand
 OpenBabel11021811483D
libRbt.so/2013.1/901 2013/11/27
 11 12  0  0  0  0  0  0  0  0999 V2000
   34.9705   -9.9433  -38.6817 N   0  0  0  0  0  0  0  0  0  0  0  0
   35.2319   -8.6740  -39.0279 C   0  0  0  0  0  0  0  0  0  0  0  0
   34.2924   -7.9669  -39.8390 N   0  0  0  0  0  0  0  0  0  0  0  0
   36.3511   -8.0602  -38.6295 N   0  0  0  0  0  0  0  0  0  0  0  0
   37.2730   -8.7262  -37.8456 C   0  0  0  0  0  0  0  0  0  0  0  0
   37.0224  -10.0243  -37.4846 C   0  0  0  0  0  0  0  0  0  0  0  0
   35.8167  -10.6653  -37.9198 C   0  0  0  0  0  0  0  0  0  0  0  0
   35.4465  -12.3372  -37.4719 S   0  0  0  0  0  0  0  0  0  0  0  0
   38.0769  -10.4527  -36.7194 N   0  0  0  0  0  0  0  0  0  0  0  0
   38.9663   -9.4313  -36.6113 C   0  0  0  0  0  0  0  0  0  0  0  0
   38.4889   -8.3561  -37.2992 N   0  0  0  0  0  0  0  0  0  0  0  0
  1  2  2  0  0  0  0
  1  7  1  0  0  0  0
  2  3  1  0  0  0  0
  2  4  1  0  0  0  0
  4  5  2  0  0  0  0
  5  6  1  0  0  0  0
  5 11  1  0  0  0  0
  6  7  2  0  0  0  0
  6  9  1  0  0  0  0
  7  8  1  0  0  0  0
  9 10  1  0  0  0  0
 10 11  2  0  0  0  0
M  END
>  <CHROM.1>
36.39224285,-9.84299837,-37.91153720,2.97252978,0.48665969,2.76895335

>  <Name>
ligand

>  <RI>
0

>  <Rbt.Current_Directory>
/home/itssahil/PROJECTS/Mol_Feturizer/New_Systems/rnas/3RKF

>  <Rbt.Executable>
rbdock ($Id: //depot/dev/client3/rdock/2013.1/src/exe/rbdock.cxx#4 $)

>  <Rbt.Library>
libRbt.so (2013.1, Build901 2013/11/27)

>  <Rbt.Parameter_File>
/export/apps/rDock/src/rDock_2013.1_src/data/scripts/dock_solv.prm

>  <Rbt.Receptor>
prm/pocket_docking_7.prm

>  <SCORE>
-16.5025

>  <SCORE.INTER>
-16.5025

>  <SCORE.INTER.CONST>
1

>  <SCORE.INTER.POLAR>
0

>  <SCORE.INTER.ROT>
0

>  <SCORE.INTER.SOLV>
10.736

>  <SCORE.INTER.VDW>
-18.1803

>  <SCORE.INTER.norm>
-1.50023

>  <SCORE.INTRA>
0

>  <SCORE.INTRA.DIHEDRAL>
0

>  <SCORE.INTRA.DIHEDRAL.0>
0

>  <SCORE.INTRA.POLAR>
0

>  <SCORE.INTRA.POLAR.0>
0

>  <SCORE.INTRA.REPUL>
0

>  <SCORE.INTRA.REPUL.0>
0

>  <SCORE.INTRA.SOLV>
0

>  <SCORE.INTRA.SOLV.lig_0>
-28.6198

>  <SCORE.INTRA.VDW>
0

>  <SCORE.INTRA.VDW.0>
0

>  <SCORE.INTRA.norm>
0

>  <SCORE.RESTR>
0

>  <SCORE.RESTR.CAVITY>
0

>  <SCORE.RESTR.norm>
0

>  <SCORE.SYSTEM>
0

>  <SCORE.SYSTEM.CONST>
0

>  <SCORE.SYSTEM.DIHEDRAL>
0

>  <SCORE.SYSTEM.SOLV>
0

>  <SCORE.SYSTEM.norm>
0

>  <SCORE.heavy>
11

>  <SCORE.norm>
-1.50023

>  <RMSD>
3.451

$$$$
ligand
 OpenBabel11021811483D
libRbt.so/2013.1/901 2013/11/27
 11 12  0  0  0  0  0  0  0  0999 V2000
   34.9592   -9.9400  -38.6778 N   0  0  0  0  0  0  0  0  0  0  0  0
   35.2225   -8.6714  -39.0254 C   0  0  0  0  0  0  0  0  0  0  0  0
   34.2819   -7.9624  -39.8334 N   0  0  0  0  0  0  0  0  0  0  0  0
   36.3447   -8.0603  -38.6313 N   0  0  0  0  0  0  0  0  0  0  0  0
   37.2677   -8.7283  -37.8504 C   0  0  0  0  0  0  0  0  0  0  0  0
   37.0152  -10.0257  -37.4880 C   0  0  0  0  0  0  0  0  0  0  0  0
   35.8064  -10.6638  -37.9187 C   0  0  0  0  0  0  0  0  0  0  0  0
   35.4336  -12.3346  -37.4689 S   0  0  0  0  0  0  0  0  0  0  0  0
   38.0714  -10.4564  -36.7264 N   0  0  0  0  0  0  0  0  0  0  0  0
   38.9637   -9.4372  -36.6219 C   0  0  0  0  0  0  0  0  0  0  0  0
   38.4865   -8.3610  -37.3085 N   0  0  0  0  0  0  0  0  0  0  0  0
  1  2  2  0  0  0  0
  1  7  1  0  0  0  0
  2  3  1  0  0  0  0
  2  4  1  0  0  0  0
  4  5  2  0  0  0  0
  5  6  1  0  0  0  0
  5 11  1  0  0  0  0
  6  7  2  0  0  0  0
  6  9  1  0  0  0  0
  7  8  1  0  0  0  0
  9 10  1  0  0  0  0
 10 11  2  0  0  0  0
M  END
>  <CHROM.1>
36.38400024,-9.84295310,-37.91277462,2.97366719,0.48242508,2.76806824

>  <Name>
ligand

>  <RI>
0

>  <Rbt.Current_Directory>
/home/itssahil/PROJECTS/Mol_Feturizer/New_Systems/rnas/3RKF

>  <Rbt.Executable>
rbdock ($Id: //depot/dev/client3/rdock/2013.1/src/exe/rbdock.cxx#4 $)

>  <Rbt.Library>
libRbt.so (2013.1, Build901 2013/11/27)

>  <Rbt.Parameter_File>
/export/apps/rDock/src/rDock_2013.1_src/data/scripts/dock_solv.prm

>  <Rbt.Receptor>
prm/pocket_docking_8.prm

>  <SCORE>
-16.5383

>  <SCORE.INTER>
-16.5383

>  <SCORE.INTER.CONST>
1

>  <SCORE.INTER.POLAR>
0

>  <SCORE.INTER.ROT>
0

>  <SCORE.INTER.SOLV>
10.6938

>  <SCORE.INTER.VDW>
-18.1901

>  <SCORE.INTER.norm>
-1.50348

>  <SCORE.INTRA>
0

>  <SCORE.INTRA.DIHEDRAL>
0

>  <SCORE.INTRA.DIHEDRAL.0>
0

>  <SCORE.INTRA.POLAR>
0

>  <SCORE.INTRA.POLAR.0>
0

>  <SCORE.INTRA.REPUL>
0

>  <SCORE.INTRA.REPUL.0>
0

>  <SCORE.INTRA.SOLV>
0

>  <SCORE.INTRA.SOLV.lig_0>
-28.6198

>  <SCORE.INTRA.VDW>
0

>  <SCORE.INTRA.VDW.0>
0

>  <SCORE.INTRA.norm>
0

>  <SCORE.RESTR>
0

>  <SCORE.RESTR.CAVITY>
0

>  <SCORE.RESTR.norm>
0

>  <SCORE.SYSTEM>
0

>  <SCORE.SYSTEM.CONST>
0

>  <SCORE.SYSTEM.DIHEDRAL>
0

>  <SCORE.SYSTEM.SOLV>
0

>  <SCORE.SYSTEM.norm>
0

>  <SCORE.heavy>
11

>  <SCORE.norm>
-1.50348

>  <RMSD>
3.451

$$$$
ligand
 OpenBabel11021811483D
libRbt.so/2013.1/901 2013/11/27
 11 12  0  0  0  0  0  0  0  0999 V2000
   34.9583   -9.9403  -38.6749 N   0  0  0  0  0  0  0  0  0  0  0  0
   35.2210   -8.6719  -39.0234 C   0  0  0  0  0  0  0  0  0  0  0  0
   34.2793   -7.9634  -39.8305 N   0  0  0  0  0  0  0  0  0  0  0  0
   36.3435   -8.0604  -38.6310 N   0  0  0  0  0  0  0  0  0  0  0  0
   37.2676   -8.7280  -37.8510 C   0  0  0  0  0  0  0  0  0  0  0  0
   37.0158  -10.0252  -37.4876 C   0  0  0  0  0  0  0  0  0  0  0  0
   35.8065  -10.6637  -37.9164 C   0  0  0  0  0  0  0  0  0  0  0  0
   35.4345  -12.3343  -37.4653 S   0  0  0  0  0  0  0  0  0  0  0  0
   38.0729  -10.4554  -36.7271 N   0  0  0  0  0  0  0  0  0  0  0  0
   38.9652   -9.4360  -36.6242 C   0  0  0  0  0  0  0  0  0  0  0  0
   38.4870   -8.3602  -37.3107 N   0  0  0  0  0  0  0  0  0  0  0  0
  1  2  2  0  0  0  0
  1  7  1  0  0  0  0
  2  3  1  0  0  0  0
  2  4  1  0  0  0  0
  4  5  2  0  0  0  0
  5  6  1  0  0  0  0
  5 11  1  0  0  0  0
  6  7  2  0  0  0  0
  6  9  1  0  0  0  0
  7  8  1  0  0  0  0
  9 10  1  0  0  0  0
 10 11  2  0  0  0  0
M  END
>  <CHROM.1>
36.38398272,-9.84273874,-37.91165623,2.97300892,0.48130890,2.76788080

>  <Name>
ligand

>  <RI>
0

>  <Rbt.Current_Directory>
/home/itssahil/PROJECTS/Mol_Feturizer/New_Systems/rnas/3RKF

>  <Rbt.Executable>
rbdock ($Id: //depot/dev/client3/rdock/2013.1/src/exe/rbdock.cxx#4 $)

>  <Rbt.Library>
libRbt.so (2013.1, Build901 2013/11/27)

>  <Rbt.Parameter_File>
/export/apps/rDock/src/rDock_2013.1_src/data/scripts/dock_solv.prm

>  <Rbt.Receptor>
prm/blind_docking_60.prm

>  <SCORE>
-16.5375

>  <SCORE.INTER>
-16.5375

>  <SCORE.INTER.CONST>
1

>  <SCORE.INTER.POLAR>
0

>  <SCORE.INTER.ROT>
0

>  <SCORE.INTER.SOLV>
10.6818

>  <SCORE.INTER.VDW>
-18.1856

>  <SCORE.INTER.norm>
-1.50341

>  <SCORE.INTRA>
0

>  <SCORE.INTRA.DIHEDRAL>
0

>  <SCORE.INTRA.DIHEDRAL.0>
0

>  <SCORE.INTRA.POLAR>
0

>  <SCORE.INTRA.POLAR.0>
0

>  <SCORE.INTRA.REPUL>
0

>  <SCORE.INTRA.REPUL.0>
0

>  <SCORE.INTRA.SOLV>
0

>  <SCORE.INTRA.SOLV.lig_0>
-28.6198

>  <SCORE.INTRA.VDW>
0

>  <SCORE.INTRA.VDW.0>
0

>  <SCORE.INTRA.norm>
0

>  <SCORE.RESTR>
0

>  <SCORE.RESTR.CAVITY>
0

>  <SCORE.RESTR.norm>
0

>  <SCORE.SYSTEM>
0

>  <SCORE.SYSTEM.CONST>
0

>  <SCORE.SYSTEM.DIHEDRAL>
0

>  <SCORE.SYSTEM.SOLV>
0

>  <SCORE.SYSTEM.norm>
0

>  <SCORE.heavy>
11

>  <SCORE.norm>
-1.50341

>  <RMSD>
3.452

$$$$
ligand
 OpenBabel11021811483D
libRbt.so/2013.1/901 2013/11/27
 11 12  0  0  0  0  0  0  0  0999 V2000
   34.9625   -9.9402  -38.6754 N   0  0  0  0  0  0  0  0  0  0  0  0
   35.2263   -8.6728  -39.0266 C   0  0  0  0  0  0  0  0  0  0  0  0
   34.2858   -7.9654  -39.8362 N   0  0  0  0  0  0  0  0  0  0  0  0
   36.3490   -8.0611  -38.6346 N   0  0  0  0  0  0  0  0  0  0  0  0
   37.2720   -8.7274  -37.8523 C   0  0  0  0  0  0  0  0  0  0  0  0
   37.0190  -10.0236  -37.4862 C   0  0  0  0  0  0  0  0  0  0  0  0
   35.8097  -10.6624  -37.9146 C   0  0  0  0  0  0  0  0  0  0  0  0
   35.4362  -12.3317  -37.4600 S   0  0  0  0  0  0  0  0  0  0  0  0
   38.0752  -10.4528  -36.7239 N   0  0  0  0  0  0  0  0  0  0  0  0
   38.9681   -9.4338  -36.6225 C   0  0  0  0  0  0  0  0  0  0  0  0
   38.4912   -8.3592  -37.3119 N   0  0  0  0  0  0  0  0  0  0  0  0
  1  2  2  0  0  0  0
  1  7  1  0  0  0  0
  2  3  1  0  0  0  0
  2  4  1  0  0  0  0
  4  5  2  0  0  0  0
  5  6  1  0  0  0  0
  5 11  1  0  0  0  0
  6  7  2  0  0  0  0
  6  9  1  0  0  0  0
  7  8  1  0  0  0  0
  9 10  1  0  0  0  0
 10 11  2  0  0  0  0
M  END
>  <CHROM.1>
36.38767492,-9.84177080,-37.91122186,2.97403061,0.48185120,2.76512230

>  <Name>
ligand

>  <RI>
0

>  <Rbt.Current_Directory>
/home/itssahil/PROJECTS/Mol_Feturizer/New_Systems/rnas/3RKF

>  <Rbt.Executable>
rbdock ($Id: //depot/dev/client3/rdock/2013.1/src/exe/rbdock.cxx#4 $)

>  <Rbt.Library>
libRbt.so (2013.1, Build901 2013/11/27)

>  <Rbt.Parameter_File>
/export/apps/rDock/src/rDock_2013.1_src/data/scripts/dock_solv.prm

>  <Rbt.Receptor>
prm/pocket_docking_5.prm

>  <SCORE>
-16.5381

>  <SCORE.INTER>
-16.5381

>  <SCORE.INTER.CONST>
1

>  <SCORE.INTER.POLAR>
0

>  <SCORE.INTER.ROT>
0

>  <SCORE.INTER.SOLV>
10.7128

>  <SCORE.INTER.VDW>
-18.1963

>  <SCORE.INTER.norm>
-1.50346

>  <SCORE.INTRA>
0

>  <SCORE.INTRA.DIHEDRAL>
0

>  <SCORE.INTRA.DIHEDRAL.0>
0

>  <SCORE.INTRA.POLAR>
0

>  <SCORE.INTRA.POLAR.0>
0

>  <SCORE.INTRA.REPUL>
0

>  <SCORE.INTRA.REPUL.0>
0

>  <SCORE.INTRA.SOLV>
0

>  <SCORE.INTRA.SOLV.lig_0>
-28.6198

>  <SCORE.INTRA.VDW>
0

>  <SCORE.INTRA.VDW.0>
0

>  <SCORE.INTRA.norm>
0

>  <SCORE.RESTR>
0

>  <SCORE.RESTR.CAVITY>
0

>  <SCORE.RESTR.norm>
0

>  <SCORE.SYSTEM>
0

>  <SCORE.SYSTEM.CONST>
0

>  <SCORE.SYSTEM.DIHEDRAL>
0

>  <SCORE.SYSTEM.SOLV>
0

>  <SCORE.SYSTEM.norm>
0

>  <SCORE.heavy>
11

>  <SCORE.norm>
-1.50346

>  <RMSD>
3.452

$$$$
ligand
 OpenBabel11021811483D
libRbt.so/2013.1/901 2013/11/27
 11 12  0  0  0  0  0  0  0  0999 V2000
   34.9608   -9.9439  -38.6751 N   0  0  0  0  0  0  0  0  0  0  0  0
   35.2207   -8.6740  -39.0201 C   0  0  0  0  0  0  0  0  0  0  0  0
   34.2774   -7.9653  -39.8253 N   0  0  0  0  0  0  0  0  0  0  0  0
   36.3419   -8.0611  -38.6260 N   0  0  0  0  0  0  0  0  0  0  0  0
   37.2675   -8.7287  -37.8478 C   0  0  0  0  0  0  0  0  0  0  0  0
   37.0185  -10.0275  -37.4880 C   0  0  0  0  0  0  0  0  0  0  0  0
   35.8107  -10.6675  -37.9186 C   0  0  0  0  0  0  0  0  0  0  0  0
   35.4424  -12.3402  -37.4722 S   0  0  0  0  0  0  0  0  0  0  0  0
   38.0766  -10.4574  -36.7287 N   0  0  0  0  0  0  0  0  0  0  0  0
   38.9666   -9.4363  -36.6230 C   0  0  0  0  0  0  0  0  0  0  0  0
   38.4860   -8.3597  -37.3065 N   0  0  0  0  0  0  0  0  0  0  0  0
  1  2  2  0  0  0  0
  1  7  1  0  0  0  0
  2  3  1  0  0  0  0
  2  4  1  0  0  0  0
  4  5  2  0  0  0  0
  5  6  1  0  0  0  0
  5 11  1  0  0  0  0
  6  7  2  0  0  0  0
  6  9  1  0  0  0  0
  7  8  1  0  0  0  0
  9 10  1  0  0  0  0
 10 11  2  0  0  0  0
M  END
>  <CHROM.1>
36.38629798,-9.84524396,-37.91159217,2.97067952,0.48213142,2.77172570

>  <Name>
ligand

>  <RI>
0

>  <Rbt.Current_Directory>
/home/itssahil/PROJECTS/Mol_Feturizer/New_Systems/rnas/3RKF

>  <Rbt.Executable>
rbdock ($Id: //depot/dev/client3/rdock/2013.1/src/exe/rbdock.cxx#4 $)

>  <Rbt.Library>
libRbt.so (2013.1, Build901 2013/11/27)

>  <Rbt.Parameter_File>
/export/apps/rDock/src/rDock_2013.1_src/data/scripts/dock_solv.prm

>  <Rbt.Receptor>
prm/pocket_docking_6.prm

>  <SCORE>
-16.5374

>  <SCORE.INTER>
-16.5374

>  <SCORE.INTER.CONST>
1

>  <SCORE.INTER.POLAR>
0

>  <SCORE.INTER.ROT>
0

>  <SCORE.INTER.SOLV>
10.6706

>  <SCORE.INTER.VDW>
-18.1818

>  <SCORE.INTER.norm>
-1.5034

>  <SCORE.INTRA>
0

>  <SCORE.INTRA.DIHEDRAL>
0

>  <SCORE.INTRA.DIHEDRAL.0>
0

>  <SCORE.INTRA.POLAR>
0

>  <SCORE.INTRA.POLAR.0>
0

>  <SCORE.INTRA.REPUL>
0

>  <SCORE.INTRA.REPUL.0>
0

>  <SCORE.INTRA.SOLV>
0

>  <SCORE.INTRA.SOLV.lig_0>
-28.6198

>  <SCORE.INTRA.VDW>
0

>  <SCORE.INTRA.VDW.0>
0

>  <SCORE.INTRA.norm>
0

>  <SCORE.RESTR>
0

>  <SCORE.RESTR.CAVITY>
0

>  <SCORE.RESTR.norm>
0

>  <SCORE.SYSTEM>
0

>  <SCORE.SYSTEM.CONST>
0

>  <SCORE.SYSTEM.DIHEDRAL>
0

>  <SCORE.SYSTEM.SOLV>
0

>  <SCORE.SYSTEM.norm>
0

>  <SCORE.heavy>
11

>  <SCORE.norm>
-1.5034

>  <RMSD>
3.452

$$$$
ligand
 OpenBabel11021811483D
libRbt.so/2013.1/901 2013/11/27
 11 12  0  0  0  0  0  0  0  0999 V2000
   34.9641   -9.9434  -38.6757 N   0  0  0  0  0  0  0  0  0  0  0  0
   35.2252   -8.6743  -39.0229 C   0  0  0  0  0  0  0  0  0  0  0  0
   34.2831   -7.9664  -39.8302 N   0  0  0  0  0  0  0  0  0  0  0  0
   36.3465   -8.0615  -38.6289 N   0  0  0  0  0  0  0  0  0  0  0  0
   37.2709   -8.7283  -37.8487 C   0  0  0  0  0  0  0  0  0  0  0  0
   37.0207  -10.0262  -37.4867 C   0  0  0  0  0  0  0  0  0  0  0  0
   35.8128  -10.6661  -37.9171 C   0  0  0  0  0  0  0  0  0  0  0  0
   35.4430  -12.3377  -37.4679 S   0  0  0  0  0  0  0  0  0  0  0  0
   38.0779  -10.4555  -36.7257 N   0  0  0  0  0  0  0  0  0  0  0  0
   38.9686   -9.4348  -36.6211 C   0  0  0  0  0  0  0  0  0  0  0  0
   38.4893   -8.3592  -37.3071 N   0  0  0  0  0  0  0  0  0  0  0  0
  1  2  2  0  0  0  0
  1  7  1  0  0  0  0
  2  3  1  0  0  0  0
  2  4  1  0  0  0  0
  4  5  2  0  0  0  0
  5  6  1  0  0  0  0
  5 11  1  0  0  0  0
  6  7  2  0  0  0  0
  6  9  1  0  0  0  0
  7  8  1  0  0  0  0
  9 10  1  0  0  0  0
 10 11  2  0  0  0  0
M  END
>  <CHROM.1>
36.38903042,-9.84432603,-37.91115554,2.97177506,0.48265620,2.76934515

>  <Name>
ligand

>  <RI>
0

>  <Rbt.Current_Directory>
/home/itssahil/PROJECTS/Mol_Feturizer/New_Systems/rnas/3RKF

>  <Rbt.Executable>
rbdock ($Id: //depot/dev/client3/rdock/2013.1/src/exe/rbdock.cxx#4 $)

>  <Rbt.Library>
libRbt.so (2013.1, Build901 2013/11/27)

>  <Rbt.Parameter_File>
/export/apps/rDock/src/rDock_2013.1_src/data/scripts/dock_solv.prm

>  <Rbt.Receptor>
prm/pocket_docking_6.prm

>  <SCORE>
-16.5388

>  <SCORE.INTER>
-16.5388

>  <SCORE.INTER.CONST>
1

>  <SCORE.INTER.POLAR>
0

>  <SCORE.INTER.ROT>
0

>  <SCORE.INTER.SOLV>
10.6965

>  <SCORE.INTER.VDW>
-18.1914

>  <SCORE.INTER.norm>
-1.50353

>  <SCORE.INTRA>
0

>  <SCORE.INTRA.DIHEDRAL>
0

>  <SCORE.INTRA.DIHEDRAL.0>
0

>  <SCORE.INTRA.POLAR>
0

>  <SCORE.INTRA.POLAR.0>
0

>  <SCORE.INTRA.REPUL>
0

>  <SCORE.INTRA.REPUL.0>
0

>  <SCORE.INTRA.SOLV>
0

>  <SCORE.INTRA.SOLV.lig_0>
-28.6198

>  <SCORE.INTRA.VDW>
0

>  <SCORE.INTRA.VDW.0>
0

>  <SCORE.INTRA.norm>
0

>  <SCORE.RESTR>
0

>  <SCORE.RESTR.CAVITY>
0

>  <SCORE.RESTR.norm>
0

>  <SCORE.SYSTEM>
0

>  <SCORE.SYSTEM.CONST>
0

>  <SCORE.SYSTEM.DIHEDRAL>
0

>  <SCORE.SYSTEM.SOLV>
0

>  <SCORE.SYSTEM.norm>
0

>  <SCORE.heavy>
11

>  <SCORE.norm>
-1.50353

>  <RMSD>
3.452

$$$$
ligand
 OpenBabel11021811483D
libRbt.so/2013.1/901 2013/11/27
 11 12  0  0  0  0  0  0  0  0999 V2000
   34.9640   -9.9392  -38.6815 N   0  0  0  0  0  0  0  0  0  0  0  0
   35.2270   -8.6707  -39.0294 C   0  0  0  0  0  0  0  0  0  0  0  0
   34.2869   -7.9623  -39.8385 N   0  0  0  0  0  0  0  0  0  0  0  0
   36.3485   -8.0589  -38.6344 N   0  0  0  0  0  0  0  0  0  0  0  0
   37.2712   -8.7262  -37.8525 C   0  0  0  0  0  0  0  0  0  0  0  0
   37.0189  -10.0235  -37.4897 C   0  0  0  0  0  0  0  0  0  0  0  0
   35.8108  -10.6623  -37.9212 C   0  0  0  0  0  0  0  0  0  0  0  0
   35.4383  -12.3331  -37.4711 S   0  0  0  0  0  0  0  0  0  0  0  0
   38.0745  -10.4534  -36.7270 N   0  0  0  0  0  0  0  0  0  0  0  0
   38.9663   -9.4338  -36.6221 C   0  0  0  0  0  0  0  0  0  0  0  0
   38.4893   -8.3581  -37.3095 N   0  0  0  0  0  0  0  0  0  0  0  0
  1  2  2  0  0  0  0
  1  7  1  0  0  0  0
  2  3  1  0  0  0  0
  2  4  1  0  0  0  0
  4  5  2  0  0  0  0
  5  6  1  0  0  0  0
  5 11  1  0  0  0  0
  6  7  2  0  0  0  0
  6  9  1  0  0  0  0
  7  8  1  0  0  0  0
  9 10  1  0  0  0  0
 10 11  2  0  0  0  0
M  END
>  <CHROM.1>
36.38797994,-9.84119678,-37.91515394,2.97358940,0.48343832,2.76768487

>  <Name>
ligand

>  <RI>
0

>  <Rbt.Current_Directory>
/home/itssahil/PROJECTS/Mol_Feturizer/New_Systems/rnas/3RKF

>  <Rbt.Executable>
rbdock ($Id: //depot/dev/client3/rdock/2013.1/src/exe/rbdock.cxx#4 $)

>  <Rbt.Library>
libRbt.so (2013.1, Build901 2013/11/27)

>  <Rbt.Parameter_File>
/export/apps/rDock/src/rDock_2013.1_src/data/scripts/dock_solv.prm

>  <Rbt.Receptor>
prm/pocket_docking_6.prm

>  <SCORE>
-16.5393

>  <SCORE.INTER>
-16.5393

>  <SCORE.INTER.CONST>
1

>  <SCORE.INTER.POLAR>
0

>  <SCORE.INTER.ROT>
0

>  <SCORE.INTER.SOLV>
10.7194

>  <SCORE.INTER.VDW>
-18.1993

>  <SCORE.INTER.norm>
-1.50357

>  <SCORE.INTRA>
0

>  <SCORE.INTRA.DIHEDRAL>
0

>  <SCORE.INTRA.DIHEDRAL.0>
0

>  <SCORE.INTRA.POLAR>
0

>  <SCORE.INTRA.POLAR.0>
0

>  <SCORE.INTRA.REPUL>
0

>  <SCORE.INTRA.REPUL.0>
0

>  <SCORE.INTRA.SOLV>
0

>  <SCORE.INTRA.SOLV.lig_0>
-28.6198

>  <SCORE.INTRA.VDW>
0

>  <SCORE.INTRA.VDW.0>
0

>  <SCORE.INTRA.norm>
0

>  <SCORE.RESTR>
0

>  <SCORE.RESTR.CAVITY>
0

>  <SCORE.RESTR.norm>
0

>  <SCORE.SYSTEM>
0

>  <SCORE.SYSTEM.CONST>
0

>  <SCORE.SYSTEM.DIHEDRAL>
0

>  <SCORE.SYSTEM.SOLV>
0

>  <SCORE.SYSTEM.norm>
0

>  <SCORE.heavy>
11

>  <SCORE.norm>
-1.50357

>  <RMSD>
3.452

$$$$
ligand
 OpenBabel11021811483D
libRbt.so/2013.1/901 2013/11/27
 11 12  0  0  0  0  0  0  0  0999 V2000
   34.9632   -9.9408  -38.6811 N   0  0  0  0  0  0  0  0  0  0  0  0
   35.2255   -8.6722  -39.0294 C   0  0  0  0  0  0  0  0  0  0  0  0
   34.2848   -7.9646  -39.8386 N   0  0  0  0  0  0  0  0  0  0  0  0
   36.3467   -8.0596  -38.6348 N   0  0  0  0  0  0  0  0  0  0  0  0
   37.2698   -8.7262  -37.8528 C   0  0  0  0  0  0  0  0  0  0  0  0
   37.0183  -10.0235  -37.4897 C   0  0  0  0  0  0  0  0  0  0  0  0
   35.8105  -10.6632  -37.9208 C   0  0  0  0  0  0  0  0  0  0  0  0
   35.4391  -12.3341  -37.4702 S   0  0  0  0  0  0  0  0  0  0  0  0
   38.0743  -10.4527  -36.7269 N   0  0  0  0  0  0  0  0  0  0  0  0
   38.9655   -9.4325  -36.6224 C   0  0  0  0  0  0  0  0  0  0  0  0
   38.4877   -8.3573  -37.3101 N   0  0  0  0  0  0  0  0  0  0  0  0
  1  2  2  0  0  0  0
  1  7  1  0  0  0  0
  2  3  1  0  0  0  0
  2  4  1  0  0  0  0
  4  5  2  0  0  0  0
  5  6  1  0  0  0  0
  5 11  1  0  0  0  0
  6  7  2  0  0  0  0
  6  9  1  0  0  0  0
  7  8  1  0  0  0  0
  9 10  1  0  0  0  0
 10 11  2  0  0  0  0
M  END
>  <CHROM.1>
36.38725324,-9.84175217,-37.91503040,2.97291702,0.48353159,2.76773234

>  <Name>
ligand

>  <RI>
0

>  <Rbt.Current_Directory>
/home/itssahil/PROJECTS/Mol_Feturizer/New_Systems/rnas/3RKF

>  <Rbt.Executable>
rbdock ($Id: //depot/dev/client3/rdock/2013.1/src/exe/rbdock.cxx#4 $)

>  <Rbt.Library>
libRbt.so (2013.1, Build901 2013/11/27)

>  <Rbt.Parameter_File>
/export/apps/rDock/src/rDock_2013.1_src/data/scripts/dock_solv.prm

>  <Rbt.Receptor>
prm/pocket_docking_7.prm

>  <SCORE>
-16.5378

>  <SCORE.INTER>
-16.5378

>  <SCORE.INTER.CONST>
1

>  <SCORE.INTER.POLAR>
0

>  <SCORE.INTER.ROT>
0

>  <SCORE.INTER.SOLV>
10.7167

>  <SCORE.INTER.VDW>
-18.1974

>  <SCORE.INTER.norm>
-1.50344

>  <SCORE.INTRA>
0

>  <SCORE.INTRA.DIHEDRAL>
0

>  <SCORE.INTRA.DIHEDRAL.0>
0

>  <SCORE.INTRA.POLAR>
0

>  <SCORE.INTRA.POLAR.0>
0

>  <SCORE.INTRA.REPUL>
0

>  <SCORE.INTRA.REPUL.0>
0

>  <SCORE.INTRA.SOLV>
0

>  <SCORE.INTRA.SOLV.lig_0>
-28.6198

>  <SCORE.INTRA.VDW>
0

>  <SCORE.INTRA.VDW.0>
0

>  <SCORE.INTRA.norm>
0

>  <SCORE.RESTR>
0

>  <SCORE.RESTR.CAVITY>
0

>  <SCORE.RESTR.norm>
0

>  <SCORE.SYSTEM>
0

>  <SCORE.SYSTEM.CONST>
0

>  <SCORE.SYSTEM.DIHEDRAL>
0

>  <SCORE.SYSTEM.SOLV>
0

>  <SCORE.SYSTEM.norm>
0

>  <SCORE.heavy>
11

>  <SCORE.norm>
-1.50344

>  <RMSD>
3.452

$$$$
ligand
 OpenBabel11021811483D
libRbt.so/2013.1/901 2013/11/27
 11 12  0  0  0  0  0  0  0  0999 V2000
   34.9576   -9.9420  -38.6769 N   0  0  0  0  0  0  0  0  0  0  0  0
   35.2176   -8.6720  -39.0216 C   0  0  0  0  0  0  0  0  0  0  0  0
   34.2742   -7.9629  -39.8262 N   0  0  0  0  0  0  0  0  0  0  0  0
   36.3391   -8.0595  -38.6277 N   0  0  0  0  0  0  0  0  0  0  0  0
   37.2648   -8.7275  -37.8501 C   0  0  0  0  0  0  0  0  0  0  0  0
   37.0157  -10.0264  -37.4907 C   0  0  0  0  0  0  0  0  0  0  0  0
   35.8076  -10.6660  -37.9210 C   0  0  0  0  0  0  0  0  0  0  0  0
   35.4392  -12.3388  -37.4749 S   0  0  0  0  0  0  0  0  0  0  0  0
   38.0740  -10.4568  -36.7319 N   0  0  0  0  0  0  0  0  0  0  0  0
   38.9643   -9.4359  -36.6262 C   0  0  0  0  0  0  0  0  0  0  0  0
   38.4837   -8.3590  -37.3092 N   0  0  0  0  0  0  0  0  0  0  0  0
  1  2  2  0  0  0  0
  1  7  1  0  0  0  0
  2  3  1  0  0  0  0
  2  4  1  0  0  0  0
  4  5  2  0  0  0  0
  5  6  1  0  0  0  0
  5 11  1  0  0  0  0
  6  7  2  0  0  0  0
  6  9  1  0  0  0  0
  7  8  1  0  0  0  0
  9 10  1  0  0  0  0
 10 11  2  0  0  0  0
M  END
>  <CHROM.1>
36.38341029,-9.84388611,-37.91391568,2.97073059,0.48168680,2.77201970

>  <Name>
ligand

>  <RI>
0

>  <Rbt.Current_Directory>
/home/itssahil/PROJECTS/Mol_Feturizer/New_Systems/rnas/3RKF

>  <Rbt.Executable>
rbdock ($Id: //depot/dev/client3/rdock/2013.1/src/exe/rbdock.cxx#4 $)

>  <Rbt.Library>
libRbt.so (2013.1, Build901 2013/11/27)

>  <Rbt.Parameter_File>
/export/apps/rDock/src/rDock_2013.1_src/data/scripts/dock_solv.prm

>  <Rbt.Receptor>
prm/pocket_docking_8.prm

>  <SCORE>
-16.5361

>  <SCORE.INTER>
-16.5361

>  <SCORE.INTER.CONST>
1

>  <SCORE.INTER.POLAR>
0

>  <SCORE.INTER.ROT>
0

>  <SCORE.INTER.SOLV>
10.6616

>  <SCORE.INTER.VDW>
-18.178

>  <SCORE.INTER.norm>
-1.50328

>  <SCORE.INTRA>
0

>  <SCORE.INTRA.DIHEDRAL>
0

>  <SCORE.INTRA.DIHEDRAL.0>
0

>  <SCORE.INTRA.POLAR>
0

>  <SCORE.INTRA.POLAR.0>
0

>  <SCORE.INTRA.REPUL>
0

>  <SCORE.INTRA.REPUL.0>
0

>  <SCORE.INTRA.SOLV>
0

>  <SCORE.INTRA.SOLV.lig_0>
-28.6198

>  <SCORE.INTRA.VDW>
0

>  <SCORE.INTRA.VDW.0>
0

>  <SCORE.INTRA.norm>
0

>  <SCORE.RESTR>
0

>  <SCORE.RESTR.CAVITY>
0

>  <SCORE.RESTR.norm>
0

>  <SCORE.SYSTEM>
0

>  <SCORE.SYSTEM.CONST>
0

>  <SCORE.SYSTEM.DIHEDRAL>
0

>  <SCORE.SYSTEM.SOLV>
0

>  <SCORE.SYSTEM.norm>
0

>  <SCORE.heavy>
11

>  <SCORE.norm>
-1.50328

>  <RMSD>
3.452

$$$$
ligand
 OpenBabel11021811483D
libRbt.so/2013.1/901 2013/11/27
 11 12  0  0  0  0  0  0  0  0999 V2000
   34.9653   -9.9427  -38.6800 N   0  0  0  0  0  0  0  0  0  0  0  0
   35.2247   -8.6726  -39.0250 C   0  0  0  0  0  0  0  0  0  0  0  0
   34.2817   -7.9646  -39.8312 N   0  0  0  0  0  0  0  0  0  0  0  0
   36.3450   -8.0588  -38.6298 N   0  0  0  0  0  0  0  0  0  0  0  0
   37.2703   -8.7257  -37.8507 C   0  0  0  0  0  0  0  0  0  0  0  0
   37.0219  -10.0246  -37.4909 C   0  0  0  0  0  0  0  0  0  0  0  0
   35.8150  -10.6655  -37.9226 C   0  0  0  0  0  0  0  0  0  0  0  0
   35.4474  -12.3384  -37.4763 S   0  0  0  0  0  0  0  0  0  0  0  0
   38.0795  -10.4537  -36.7305 N   0  0  0  0  0  0  0  0  0  0  0  0
   38.9688   -9.4320  -36.6240 C   0  0  0  0  0  0  0  0  0  0  0  0
   38.4881   -8.3558  -37.3082 N   0  0  0  0  0  0  0  0  0  0  0  0
  1  2  2  0  0  0  0
  1  7  1  0  0  0  0
  2  3  1  0  0  0  0
  2  4  1  0  0  0  0
  4  5  2  0  0  0  0
  5  6  1  0  0  0  0
  5 11  1  0  0  0  0
  6  7  2  0  0  0  0
  6  9  1  0  0  0  0
  7  8  1  0  0  0  0
  9 10  1  0  0  0  0
 10 11  2  0  0  0  0
M  END
>  <CHROM.1>
36.38999744,-9.84288791,-37.91514363,2.97034281,0.48329654,2.77174378

>  <Name>
ligand

>  <RI>
0

>  <Rbt.Current_Directory>
/home/itssahil/PROJECTS/Mol_Feturizer/New_Systems/rnas/3RKF

>  <Rbt.Executable>
rbdock ($Id: //depot/dev/client3/rdock/2013.1/src/exe/rbdock.cxx#4 $)

>  <Rbt.Library>
libRbt.so (2013.1, Build901 2013/11/27)

>  <Rbt.Parameter_File>
/export/apps/rDock/src/rDock_2013.1_src/data/scripts/dock_solv.prm

>  <Rbt.Receptor>
prm/blind_docking_100.prm

>  <SCORE>
-16.5374

>  <SCORE.INTER>
-16.5374

>  <SCORE.INTER.CONST>
1

>  <SCORE.INTER.POLAR>
0

>  <SCORE.INTER.ROT>
0

>  <SCORE.INTER.SOLV>
10.696

>  <SCORE.INTER.VDW>
-18.1903

>  <SCORE.INTER.norm>
-1.5034

>  <SCORE.INTRA>
0

>  <SCORE.INTRA.DIHEDRAL>
0

>  <SCORE.INTRA.DIHEDRAL.0>
0

>  <SCORE.INTRA.POLAR>
0

>  <SCORE.INTRA.POLAR.0>
0

>  <SCORE.INTRA.REPUL>
0

>  <SCORE.INTRA.REPUL.0>
0

>  <SCORE.INTRA.SOLV>
0

>  <SCORE.INTRA.SOLV.lig_0>
-28.6198

>  <SCORE.INTRA.VDW>
0

>  <SCORE.INTRA.VDW.0>
0

>  <SCORE.INTRA.norm>
0

>  <SCORE.RESTR>
0

>  <SCORE.RESTR.CAVITY>
0

>  <SCORE.RESTR.norm>
0

>  <SCORE.SYSTEM>
0

>  <SCORE.SYSTEM.CONST>
0

>  <SCORE.SYSTEM.DIHEDRAL>
0

>  <SCORE.SYSTEM.SOLV>
0

>  <SCORE.SYSTEM.norm>
0

>  <SCORE.heavy>
11

>  <SCORE.norm>
-1.5034

>  <RMSD>
3.453

$$$$
ligand
 OpenBabel11021811483D
libRbt.so/2013.1/901 2013/11/27
 11 12  0  0  0  0  0  0  0  0999 V2000
   34.9707   -9.9440  -38.6752 N   0  0  0  0  0  0  0  0  0  0  0  0
   35.2329   -8.6761  -39.0261 C   0  0  0  0  0  0  0  0  0  0  0  0
   34.2892   -7.9684  -39.8316 N   0  0  0  0  0  0  0  0  0  0  0  0
   36.3566   -8.0644  -38.6373 N   0  0  0  0  0  0  0  0  0  0  0  0
   37.2825   -8.7312  -37.8589 C   0  0  0  0  0  0  0  0  0  0  0  0
   37.0313  -10.0279  -37.4932 C   0  0  0  0  0  0  0  0  0  0  0  0
   35.8208  -10.6666  -37.9180 C   0  0  0  0  0  0  0  0  0  0  0  0
   35.4495  -12.3366  -37.4638 S   0  0  0  0  0  0  0  0  0  0  0  0
   38.0903  -10.4574  -36.7349 N   0  0  0  0  0  0  0  0  0  0  0  0
   38.9832   -9.4381  -36.6357 C   0  0  0  0  0  0  0  0  0  0  0  0
   38.5034   -8.3631  -37.3223 N   0  0  0  0  0  0  0  0  0  0  0  0
  1  2  2  0  0  0  0
  1  7  1  0  0  0  0
  2  3  1  0  0  0  0
  2  4  1  0  0  0  0
  4  5  2  0  0  0  0
  5  6  1  0  0  0  0
  5 11  1  0  0  0  0
  6  7  2  0  0  0  0
  6  9  1  0  0  0  0
  7  8  1  0  0  0  0
  9 10  1  0  0  0  0
 10 11  2  0  0  0  0
M  END
>  <CHROM.1>
36.39846971,-9.84581546,-37.91583623,2.97220145,0.47878348,2.76696363

>  <Name>
ligand

>  <RI>
0

>  <Rbt.Current_Directory>
/home/itssahil/PROJECTS/Mol_Feturizer/New_Systems/rnas/3RKF

>  <Rbt.Executable>
rbdock ($Id: //depot/dev/client3/rdock/2013.1/src/exe/rbdock.cxx#4 $)

>  <Rbt.Library>
libRbt.so (2013.1, Build901 2013/11/27)

>  <Rbt.Parameter_File>
/export/apps/rDock/src/rDock_2013.1_src/data/scripts/dock_solv.prm

>  <Rbt.Receptor>
prm/blind_docking_80.prm

>  <SCORE>
-16.4981

>  <SCORE.INTER>
-16.4981

>  <SCORE.INTER.CONST>
1

>  <SCORE.INTER.POLAR>
0

>  <SCORE.INTER.ROT>
0

>  <SCORE.INTER.SOLV>
10.7339

>  <SCORE.INTER.VDW>
-18.1767

>  <SCORE.INTER.norm>
-1.49982

>  <SCORE.INTRA>
0

>  <SCORE.INTRA.DIHEDRAL>
0

>  <SCORE.INTRA.DIHEDRAL.0>
0

>  <SCORE.INTRA.POLAR>
0

>  <SCORE.INTRA.POLAR.0>
0

>  <SCORE.INTRA.REPUL>
0

>  <SCORE.INTRA.REPUL.0>
0

>  <SCORE.INTRA.SOLV>
0

>  <SCORE.INTRA.SOLV.lig_0>
-28.6198

>  <SCORE.INTRA.VDW>
0

>  <SCORE.INTRA.VDW.0>
0

>  <SCORE.INTRA.norm>
0

>  <SCORE.RESTR>
0

>  <SCORE.RESTR.CAVITY>
0

>  <SCORE.RESTR.norm>
0

>  <SCORE.SYSTEM>
0

>  <SCORE.SYSTEM.CONST>
0

>  <SCORE.SYSTEM.DIHEDRAL>
0

>  <SCORE.SYSTEM.SOLV>
0

>  <SCORE.SYSTEM.norm>
0

>  <SCORE.heavy>
11

>  <SCORE.norm>
-1.49982

>  <RMSD>
3.453

$$$$
ligand
 OpenBabel11021811483D
libRbt.so/2013.1/901 2013/11/27
 11 12  0  0  0  0  0  0  0  0999 V2000
   34.9612   -9.9395  -38.6769 N   0  0  0  0  0  0  0  0  0  0  0  0
   35.2234   -8.6712  -39.0261 C   0  0  0  0  0  0  0  0  0  0  0  0
   34.2812   -7.9632  -39.8331 N   0  0  0  0  0  0  0  0  0  0  0  0
   36.3460   -8.0592  -38.6343 N   0  0  0  0  0  0  0  0  0  0  0  0
   37.2706   -8.7262  -37.8544 C   0  0  0  0  0  0  0  0  0  0  0  0
   37.0192  -10.0234  -37.4904 C   0  0  0  0  0  0  0  0  0  0  0  0
   35.8100  -10.6624  -37.9185 C   0  0  0  0  0  0  0  0  0  0  0  0
   35.4386  -12.3329  -37.4667 S   0  0  0  0  0  0  0  0  0  0  0  0
   38.0768  -10.4530  -36.7302 N   0  0  0  0  0  0  0  0  0  0  0  0
   38.9688   -9.4333  -36.6280 C   0  0  0  0  0  0  0  0  0  0  0  0
   38.4901   -8.3579  -37.3148 N   0  0  0  0  0  0  0  0  0  0  0  0
  1  2  2  0  0  0  0
  1  7  1  0  0  0  0
  2  3  1  0  0  0  0
  2  4  1  0  0  0  0
  4  5  2  0  0  0  0
  5  6  1  0  0  0  0
  5 11  1  0  0  0  0
  6  7  2  0  0  0  0
  6  9  1  0  0  0  0
  7  8  1  0  0  0  0
  9 10  1  0  0  0  0
 10 11  2  0  0  0  0
M  END
>  <CHROM.1>
36.38721011,-9.84125236,-37.91432630,2.97256296,0.48104820,2.76770500

>  <Name>
ligand

>  <RI>
0

>  <Rbt.Current_Directory>
/home/itssahil/PROJECTS/Mol_Feturizer/New_Systems/rnas/3RKF

>  <Rbt.Executable>
rbdock ($Id: //depot/dev/client3/rdock/2013.1/src/exe/rbdock.cxx#4 $)

>  <Rbt.Library>
libRbt.so (2013.1, Build901 2013/11/27)

>  <Rbt.Parameter_File>
/export/apps/rDock/src/rDock_2013.1_src/data/scripts/dock_solv.prm

>  <Rbt.Receptor>
prm/blind_docking_80.prm

>  <SCORE>
-16.5379

>  <SCORE.INTER>
-16.5379

>  <SCORE.INTER.CONST>
1

>  <SCORE.INTER.POLAR>
0

>  <SCORE.INTER.ROT>
0

>  <SCORE.INTER.SOLV>
10.6959

>  <SCORE.INTER.VDW>
-18.1906

>  <SCORE.INTER.norm>
-1.50344

>  <SCORE.INTRA>
0

>  <SCORE.INTRA.DIHEDRAL>
0

>  <SCORE.INTRA.DIHEDRAL.0>
0

>  <SCORE.INTRA.POLAR>
0

>  <SCORE.INTRA.POLAR.0>
0

>  <SCORE.INTRA.REPUL>
0

>  <SCORE.INTRA.REPUL.0>
0

>  <SCORE.INTRA.SOLV>
0

>  <SCORE.INTRA.SOLV.lig_0>
-28.6198

>  <SCORE.INTRA.VDW>
0

>  <SCORE.INTRA.VDW.0>
0

>  <SCORE.INTRA.norm>
0

>  <SCORE.RESTR>
0

>  <SCORE.RESTR.CAVITY>
0

>  <SCORE.RESTR.norm>
0

>  <SCORE.SYSTEM>
0

>  <SCORE.SYSTEM.CONST>
0

>  <SCORE.SYSTEM.DIHEDRAL>
0

>  <SCORE.SYSTEM.SOLV>
0

>  <SCORE.SYSTEM.norm>
0

>  <SCORE.heavy>
11

>  <SCORE.norm>
-1.50344

>  <RMSD>
3.453

$$$$
ligand
 OpenBabel11021811483D
libRbt.so/2013.1/901 2013/11/27
 11 12  0  0  0  0  0  0  0  0999 V2000
   34.9611   -9.9382  -38.6809 N   0  0  0  0  0  0  0  0  0  0  0  0
   35.2226   -8.6693  -39.0284 C   0  0  0  0  0  0  0  0  0  0  0  0
   34.2808   -7.9614  -39.8361 N   0  0  0  0  0  0  0  0  0  0  0  0
   36.3439   -8.0566  -38.6345 N   0  0  0  0  0  0  0  0  0  0  0  0
   37.2681   -8.7235  -37.8539 C   0  0  0  0  0  0  0  0  0  0  0  0
   37.0175  -10.0212  -37.4916 C   0  0  0  0  0  0  0  0  0  0  0  0
   35.8095  -10.6610  -37.9220 C   0  0  0  0  0  0  0  0  0  0  0  0
   35.4391  -12.3324  -37.4723 S   0  0  0  0  0  0  0  0  0  0  0  0
   38.0744  -10.4505  -36.7303 N   0  0  0  0  0  0  0  0  0  0  0  0
   38.9653   -9.4301  -36.6258 C   0  0  0  0  0  0  0  0  0  0  0  0
   38.4864   -8.3545  -37.3122 N   0  0  0  0  0  0  0  0  0  0  0  0
  1  2  2  0  0  0  0
  1  7  1  0  0  0  0
  2  3  1  0  0  0  0
  2  4  1  0  0  0  0
  4  5  2  0  0  0  0
  5  6  1  0  0  0  0
  5 11  1  0  0  0  0
  6  7  2  0  0  0  0
  6  9  1  0  0  0  0
  7  8  1  0  0  0  0
  9 10  1  0  0  0  0
 10 11  2  0  0  0  0
M  END
>  <CHROM.1>
36.38588545,-9.83931928,-37.91618601,2.97211833,0.48272028,2.76889432

>  <Name>
ligand

>  <RI>
0

>  <Rbt.Current_Directory>
/home/itssahil/PROJECTS/Mol_Feturizer/New_Systems/rnas/3RKF

>  <Rbt.Executable>
rbdock ($Id: //depot/dev/client3/rdock/2013.1/src/exe/rbdock.cxx#4 $)

>  <Rbt.Library>
libRbt.so (2013.1, Build901 2013/11/27)

>  <Rbt.Parameter_File>
/export/apps/rDock/src/rDock_2013.1_src/data/scripts/dock_solv.prm

>  <Rbt.Receptor>
prm/pocket_docking_3.prm

>  <SCORE>
-16.5379

>  <SCORE.INTER>
-16.5379

>  <SCORE.INTER.CONST>
1

>  <SCORE.INTER.POLAR>
0

>  <SCORE.INTER.ROT>
0

>  <SCORE.INTER.SOLV>
10.6968

>  <SCORE.INTER.VDW>
-18.1908

>  <SCORE.INTER.norm>
-1.50344

>  <SCORE.INTRA>
0

>  <SCORE.INTRA.DIHEDRAL>
0

>  <SCORE.INTRA.DIHEDRAL.0>
0

>  <SCORE.INTRA.POLAR>
0

>  <SCORE.INTRA.POLAR.0>
0

>  <SCORE.INTRA.REPUL>
0

>  <SCORE.INTRA.REPUL.0>
0

>  <SCORE.INTRA.SOLV>
0

>  <SCORE.INTRA.SOLV.lig_0>
-28.6198

>  <SCORE.INTRA.VDW>
0

>  <SCORE.INTRA.VDW.0>
0

>  <SCORE.INTRA.norm>
0

>  <SCORE.RESTR>
0

>  <SCORE.RESTR.CAVITY>
0

>  <SCORE.RESTR.norm>
0

>  <SCORE.SYSTEM>
0

>  <SCORE.SYSTEM.CONST>
0

>  <SCORE.SYSTEM.DIHEDRAL>
0

>  <SCORE.SYSTEM.SOLV>
0

>  <SCORE.SYSTEM.norm>
0

>  <SCORE.heavy>
11

>  <SCORE.norm>
-1.50344

>  <RMSD>
3.453

$$$$
ligand
 OpenBabel11021811483D
libRbt.so/2013.1/901 2013/11/27
 11 12  0  0  0  0  0  0  0  0999 V2000
   34.9661   -9.9385  -38.6813 N   0  0  0  0  0  0  0  0  0  0  0  0
   35.2286   -8.6703  -39.0308 C   0  0  0  0  0  0  0  0  0  0  0  0
   34.2880   -7.9634  -39.8406 N   0  0  0  0  0  0  0  0  0  0  0  0
   36.3499   -8.0576  -38.6368 N   0  0  0  0  0  0  0  0  0  0  0  0
   37.2729   -8.7235  -37.8541 C   0  0  0  0  0  0  0  0  0  0  0  0
   37.0213  -10.0205  -37.4898 C   0  0  0  0  0  0  0  0  0  0  0  0
   35.8134  -10.6604  -37.9203 C   0  0  0  0  0  0  0  0  0  0  0  0
   35.4417  -12.3308  -37.4681 S   0  0  0  0  0  0  0  0  0  0  0  0
   38.0772  -10.4490  -36.7267 N   0  0  0  0  0  0  0  0  0  0  0  0
   38.9685   -9.4289  -36.6231 C   0  0  0  0  0  0  0  0  0  0  0  0
   38.4909   -8.3543  -37.3118 N   0  0  0  0  0  0  0  0  0  0  0  0
  1  2  2  0  0  0  0
  1  7  1  0  0  0  0
  2  3  1  0  0  0  0
  2  4  1  0  0  0  0
  4  5  2  0  0  0  0
  5  6  1  0  0  0  0
  5 11  1  0  0  0  0
  6  7  2  0  0  0  0
  6  9  1  0  0  0  0
  7  8  1  0  0  0  0
  9 10  1  0  0  0  0
 10 11  2  0  0  0  0
M  END
>  <CHROM.1>
36.39020037,-9.83900556,-37.91533887,2.97307854,0.48346369,2.76670579

>  <Name>
ligand

>  <RI>
0

>  <Rbt.Current_Directory>
/home/itssahil/PROJECTS/Mol_Feturizer/New_Systems/rnas/3RKF

>  <Rbt.Executable>
rbdock ($Id: //depot/dev/client3/rdock/2013.1/src/exe/rbdock.cxx#4 $)

>  <Rbt.Library>
libRbt.so (2013.1, Build901 2013/11/27)

>  <Rbt.Parameter_File>
/export/apps/rDock/src/rDock_2013.1_src/data/scripts/dock_solv.prm

>  <Rbt.Receptor>
prm/pocket_docking_3.prm

>  <SCORE>
-16.5391

>  <SCORE.INTER>
-16.5391

>  <SCORE.INTER.CONST>
1

>  <SCORE.INTER.POLAR>
0

>  <SCORE.INTER.ROT>
0

>  <SCORE.INTER.SOLV>
10.7274

>  <SCORE.INTER.VDW>
-18.2019

>  <SCORE.INTER.norm>
-1.50355

>  <SCORE.INTRA>
0

>  <SCORE.INTRA.DIHEDRAL>
0

>  <SCORE.INTRA.DIHEDRAL.0>
0

>  <SCORE.INTRA.POLAR>
0

>  <SCORE.INTRA.POLAR.0>
0

>  <SCORE.INTRA.REPUL>
0

>  <SCORE.INTRA.REPUL.0>
0

>  <SCORE.INTRA.SOLV>
0

>  <SCORE.INTRA.SOLV.lig_0>
-28.6198

>  <SCORE.INTRA.VDW>
0

>  <SCORE.INTRA.VDW.0>
0

>  <SCORE.INTRA.norm>
0

>  <SCORE.RESTR>
0

>  <SCORE.RESTR.CAVITY>
0

>  <SCORE.RESTR.norm>
0

>  <SCORE.SYSTEM>
0

>  <SCORE.SYSTEM.CONST>
0

>  <SCORE.SYSTEM.DIHEDRAL>
0

>  <SCORE.SYSTEM.SOLV>
0

>  <SCORE.SYSTEM.norm>
0

>  <SCORE.heavy>
11

>  <SCORE.norm>
-1.50355

>  <RMSD>
3.453

$$$$
ligand
 OpenBabel11021811483D
libRbt.so/2013.1/901 2013/11/27
 11 12  0  0  0  0  0  0  0  0999 V2000
   34.9553   -9.9379  -38.6749 N   0  0  0  0  0  0  0  0  0  0  0  0
   35.2176   -8.6697  -39.0247 C   0  0  0  0  0  0  0  0  0  0  0  0
   34.2746   -7.9615  -39.8305 N   0  0  0  0  0  0  0  0  0  0  0  0
   36.3409   -8.0582  -38.6345 N   0  0  0  0  0  0  0  0  0  0  0  0
   37.2663   -8.7254  -37.8558 C   0  0  0  0  0  0  0  0  0  0  0  0
   37.0149  -10.0224  -37.4912 C   0  0  0  0  0  0  0  0  0  0  0  0
   35.8048  -10.6609  -37.9175 C   0  0  0  0  0  0  0  0  0  0  0  0
   35.4333  -12.3313  -37.4649 S   0  0  0  0  0  0  0  0  0  0  0  0
   38.0733  -10.4523  -36.7323 N   0  0  0  0  0  0  0  0  0  0  0  0
   38.9659   -9.4330  -36.6316 C   0  0  0  0  0  0  0  0  0  0  0  0
   38.4867   -8.3575  -37.3179 N   0  0  0  0  0  0  0  0  0  0  0  0
  1  2  2  0  0  0  0
  1  7  1  0  0  0  0
  2  3  1  0  0  0  0
  2  4  1  0  0  0  0
  4  5  2  0  0  0  0
  5  6  1  0  0  0  0
  5 11  1  0  0  0  0
  6  7  2  0  0  0  0
  6  9  1  0  0  0  0
  7  8  1  0  0  0  0
  9 10  1  0  0  0  0
 10 11  2  0  0  0  0
M  END
>  <CHROM.1>
36.38236476,-9.84006688,-37.91426877,2.97244540,0.47962642,2.76757118

>  <Name>
ligand

>  <RI>
0

>  <Rbt.Current_Directory>
/home/itssahil/PROJECTS/Mol_Feturizer/New_Systems/rnas/3RKF

>  <Rbt.Executable>
rbdock ($Id: //depot/dev/client3/rdock/2013.1/src/exe/rbdock.cxx#4 $)

>  <Rbt.Library>
libRbt.so (2013.1, Build901 2013/11/27)

>  <Rbt.Parameter_File>
/export/apps/rDock/src/rDock_2013.1_src/data/scripts/dock_solv.prm

>  <Rbt.Receptor>
prm/pocket_docking_3.prm

>  <SCORE>
-16.5354

>  <SCORE.INTER>
-16.5354

>  <SCORE.INTER.CONST>
1

>  <SCORE.INTER.POLAR>
0

>  <SCORE.INTER.ROT>
0

>  <SCORE.INTER.SOLV>
10.6689

>  <SCORE.INTER.VDW>
-18.1799

>  <SCORE.INTER.norm>
-1.50322

>  <SCORE.INTRA>
0

>  <SCORE.INTRA.DIHEDRAL>
0

>  <SCORE.INTRA.DIHEDRAL.0>
0

>  <SCORE.INTRA.POLAR>
0

>  <SCORE.INTRA.POLAR.0>
0

>  <SCORE.INTRA.REPUL>
0

>  <SCORE.INTRA.REPUL.0>
0

>  <SCORE.INTRA.SOLV>
0

>  <SCORE.INTRA.SOLV.lig_0>
-28.6198

>  <SCORE.INTRA.VDW>
0

>  <SCORE.INTRA.VDW.0>
0

>  <SCORE.INTRA.norm>
0

>  <SCORE.RESTR>
0

>  <SCORE.RESTR.CAVITY>
0

>  <SCORE.RESTR.norm>
0

>  <SCORE.SYSTEM>
0

>  <SCORE.SYSTEM.CONST>
0

>  <SCORE.SYSTEM.DIHEDRAL>
0

>  <SCORE.SYSTEM.SOLV>
0

>  <SCORE.SYSTEM.norm>
0

>  <SCORE.heavy>
11

>  <SCORE.norm>
-1.50322

>  <RMSD>
3.453

$$$$
ligand
 OpenBabel11021811483D
libRbt.so/2013.1/901 2013/11/27
 11 12  0  0  0  0  0  0  0  0999 V2000
   34.9724   -9.9434  -38.6752 N   0  0  0  0  0  0  0  0  0  0  0  0
   35.2350   -8.6757  -39.0265 C   0  0  0  0  0  0  0  0  0  0  0  0
   34.2917   -7.9680  -39.8325 N   0  0  0  0  0  0  0  0  0  0  0  0
   36.3588   -8.0642  -38.6378 N   0  0  0  0  0  0  0  0  0  0  0  0
   37.2844   -8.7310  -37.8589 C   0  0  0  0  0  0  0  0  0  0  0  0
   37.0327  -10.0275  -37.4927 C   0  0  0  0  0  0  0  0  0  0  0  0
   35.8220  -10.6660  -37.9175 C   0  0  0  0  0  0  0  0  0  0  0  0
   35.4501  -12.3356  -37.4627 S   0  0  0  0  0  0  0  0  0  0  0  0
   38.0914  -10.4570  -36.7341 N   0  0  0  0  0  0  0  0  0  0  0  0
   38.9845   -9.4380  -36.6350 C   0  0  0  0  0  0  0  0  0  0  0  0
   38.5053   -8.3631  -37.3222 N   0  0  0  0  0  0  0  0  0  0  0  0
  1  2  2  0  0  0  0
  1  7  1  0  0  0  0
  2  3  1  0  0  0  0
  2  4  1  0  0  0  0
  4  5  2  0  0  0  0
  5  6  1  0  0  0  0
  5 11  1  0  0  0  0
  6  7  2  0  0  0  0
  6  9  1  0  0  0  0
  7  8  1  0  0  0  0
  9 10  1  0  0  0  0
 10 11  2  0  0  0  0
M  END
>  <CHROM.1>
36.39995687,-9.84535348,-37.91554933,2.97263369,0.47885520,2.76637300

>  <Name>
ligand

>  <RI>
0

>  <Rbt.Current_Directory>
/home/itssahil/PROJECTS/Mol_Feturizer/New_Systems/rnas/3RKF

>  <Rbt.Executable>
rbdock ($Id: //depot/dev/client3/rdock/2013.1/src/exe/rbdock.cxx#4 $)

>  <Rbt.Library>
libRbt.so (2013.1, Build901 2013/11/27)

>  <Rbt.Parameter_File>
/export/apps/rDock/src/rDock_2013.1_src/data/scripts/dock_solv.prm

>  <Rbt.Receptor>
prm/pocket_docking_3.prm

>  <SCORE>
-16.4985

>  <SCORE.INTER>
-16.4985

>  <SCORE.INTER.CONST>
1

>  <SCORE.INTER.POLAR>
0

>  <SCORE.INTER.ROT>
0

>  <SCORE.INTER.SOLV>
10.7417

>  <SCORE.INTER.VDW>
-18.1796

>  <SCORE.INTER.norm>
-1.49987

>  <SCORE.INTRA>
0

>  <SCORE.INTRA.DIHEDRAL>
0

>  <SCORE.INTRA.DIHEDRAL.0>
0

>  <SCORE.INTRA.POLAR>
0

>  <SCORE.INTRA.POLAR.0>
0

>  <SCORE.INTRA.REPUL>
0

>  <SCORE.INTRA.REPUL.0>
0

>  <SCORE.INTRA.SOLV>
0

>  <SCORE.INTRA.SOLV.lig_0>
-28.6198

>  <SCORE.INTRA.VDW>
0

>  <SCORE.INTRA.VDW.0>
0

>  <SCORE.INTRA.norm>
0

>  <SCORE.RESTR>
0

>  <SCORE.RESTR.CAVITY>
0

>  <SCORE.RESTR.norm>
0

>  <SCORE.SYSTEM>
0

>  <SCORE.SYSTEM.CONST>
0

>  <SCORE.SYSTEM.DIHEDRAL>
0

>  <SCORE.SYSTEM.SOLV>
0

>  <SCORE.SYSTEM.norm>
0

>  <SCORE.heavy>
11

>  <SCORE.norm>
-1.49987

>  <RMSD>
3.453

$$$$
ligand
 OpenBabel11021811483D
libRbt.so/2013.1/901 2013/11/27
 11 12  0  0  0  0  0  0  0  0999 V2000
   34.9639   -9.9393  -38.6812 N   0  0  0  0  0  0  0  0  0  0  0  0
   35.2253   -8.6705  -39.0293 C   0  0  0  0  0  0  0  0  0  0  0  0
   34.2840   -7.9633  -39.8380 N   0  0  0  0  0  0  0  0  0  0  0  0
   36.3463   -8.0574  -38.6348 N   0  0  0  0  0  0  0  0  0  0  0  0
   37.2700   -8.7236  -37.8532 C   0  0  0  0  0  0  0  0  0  0  0  0
   37.0194  -10.0212  -37.4903 C   0  0  0  0  0  0  0  0  0  0  0  0
   35.8119  -10.6614  -37.9213 C   0  0  0  0  0  0  0  0  0  0  0  0
   35.4415  -12.3326  -37.4709 S   0  0  0  0  0  0  0  0  0  0  0  0
   38.0759  -10.4499  -36.7280 N   0  0  0  0  0  0  0  0  0  0  0  0
   38.9665   -9.4292  -36.6235 C   0  0  0  0  0  0  0  0  0  0  0  0
   38.4879   -8.3541  -37.3108 N   0  0  0  0  0  0  0  0  0  0  0  0
  1  2  2  0  0  0  0
  1  7  1  0  0  0  0
  2  3  1  0  0  0  0
  2  4  1  0  0  0  0
  4  5  2  0  0  0  0
  5  6  1  0  0  0  0
  5 11  1  0  0  0  0
  6  7  2  0  0  0  0
  6  9  1  0  0  0  0
  7  8  1  0  0  0  0
  9 10  1  0  0  0  0
 10 11  2  0  0  0  0
M  END
>  <CHROM.1>
36.38812785,-9.83965198,-37.91548984,2.97219347,0.48346702,2.76829278

>  <Name>
ligand

>  <RI>
0

>  <Rbt.Current_Directory>
/home/itssahil/PROJECTS/Mol_Feturizer/New_Systems/rnas/3RKF

>  <Rbt.Executable>
rbdock ($Id: //depot/dev/client3/rdock/2013.1/src/exe/rbdock.cxx#4 $)

>  <Rbt.Library>
libRbt.so (2013.1, Build901 2013/11/27)

>  <Rbt.Parameter_File>
/export/apps/rDock/src/rDock_2013.1_src/data/scripts/dock_solv.prm

>  <Rbt.Receptor>
prm/pocket_docking_4.prm

>  <SCORE>
-16.5383

>  <SCORE.INTER>
-16.5383

>  <SCORE.INTER.CONST>
1

>  <SCORE.INTER.POLAR>
0

>  <SCORE.INTER.ROT>
0

>  <SCORE.INTER.SOLV>
10.7111

>  <SCORE.INTER.VDW>
-18.1959

>  <SCORE.INTER.norm>
-1.50348

>  <SCORE.INTRA>
0

>  <SCORE.INTRA.DIHEDRAL>
0

>  <SCORE.INTRA.DIHEDRAL.0>
0

>  <SCORE.INTRA.POLAR>
0

>  <SCORE.INTRA.POLAR.0>
0

>  <SCORE.INTRA.REPUL>
0

>  <SCORE.INTRA.REPUL.0>
0

>  <SCORE.INTRA.SOLV>
0

>  <SCORE.INTRA.SOLV.lig_0>
-28.6198

>  <SCORE.INTRA.VDW>
0

>  <SCORE.INTRA.VDW.0>
0

>  <SCORE.INTRA.norm>
0

>  <SCORE.RESTR>
0

>  <SCORE.RESTR.CAVITY>
0

>  <SCORE.RESTR.norm>
0

>  <SCORE.SYSTEM>
0

>  <SCORE.SYSTEM.CONST>
0

>  <SCORE.SYSTEM.DIHEDRAL>
0

>  <SCORE.SYSTEM.SOLV>
0

>  <SCORE.SYSTEM.norm>
0

>  <SCORE.heavy>
11

>  <SCORE.norm>
-1.50348

>  <RMSD>
3.453

$$$$
ligand
 OpenBabel11021811483D
libRbt.so/2013.1/901 2013/11/27
 11 12  0  0  0  0  0  0  0  0999 V2000
   34.9601   -9.9360  -38.6823 N   0  0  0  0  0  0  0  0  0  0  0  0
   35.2245   -8.6687  -39.0334 C   0  0  0  0  0  0  0  0  0  0  0  0
   34.2849   -7.9613  -39.8440 N   0  0  0  0  0  0  0  0  0  0  0  0
   36.3468   -8.0572  -38.6402 N   0  0  0  0  0  0  0  0  0  0  0  0
   37.2689   -8.7236  -37.8569 C   0  0  0  0  0  0  0  0  0  0  0  0
   37.0153  -10.0197  -37.4909 C   0  0  0  0  0  0  0  0  0  0  0  0
   35.8063  -10.6583  -37.9205 C   0  0  0  0  0  0  0  0  0  0  0  0
   35.4321  -12.3275  -37.4662 S   0  0  0  0  0  0  0  0  0  0  0  0
   38.0706  -10.4489  -36.7274 N   0  0  0  0  0  0  0  0  0  0  0  0
   38.9636   -9.4300  -36.6252 C   0  0  0  0  0  0  0  0  0  0  0  0
   38.4875   -8.3555  -37.3152 N   0  0  0  0  0  0  0  0  0  0  0  0
  1  2  2  0  0  0  0
  1  7  1  0  0  0  0
  2  3  1  0  0  0  0
  2  4  1  0  0  0  0
  4  5  2  0  0  0  0
  5  6  1  0  0  0  0
  5 11  1  0  0  0  0
  6  7  2  0  0  0  0
  6  9  1  0  0  0  0
  7  8  1  0  0  0  0
  9 10  1  0  0  0  0
 10 11  2  0  0  0  0
M  END
>  <CHROM.1>
36.38444579,-9.83776001,-37.91661092,2.97463637,0.48278660,2.76474269

>  <Name>
ligand

>  <RI>
0

>  <Rbt.Current_Directory>
/home/itssahil/PROJECTS/Mol_Feturizer/New_Systems/rnas/3RKF

>  <Rbt.Executable>
rbdock ($Id: //depot/dev/client3/rdock/2013.1/src/exe/rbdock.cxx#4 $)

>  <Rbt.Library>
libRbt.so (2013.1, Build901 2013/11/27)

>  <Rbt.Parameter_File>
/export/apps/rDock/src/rDock_2013.1_src/data/scripts/dock_solv.prm

>  <Rbt.Receptor>
prm/pocket_docking_4.prm

>  <SCORE>
-16.5368

>  <SCORE.INTER>
-16.5368

>  <SCORE.INTER.CONST>
1

>  <SCORE.INTER.POLAR>
0

>  <SCORE.INTER.ROT>
0

>  <SCORE.INTER.SOLV>
10.722

>  <SCORE.INTER.VDW>
-18.1985

>  <SCORE.INTER.norm>
-1.50334

>  <SCORE.INTRA>
0

>  <SCORE.INTRA.DIHEDRAL>
0

>  <SCORE.INTRA.DIHEDRAL.0>
0

>  <SCORE.INTRA.POLAR>
0

>  <SCORE.INTRA.POLAR.0>
0

>  <SCORE.INTRA.REPUL>
0

>  <SCORE.INTRA.REPUL.0>
0

>  <SCORE.INTRA.SOLV>
0

>  <SCORE.INTRA.SOLV.lig_0>
-28.6198

>  <SCORE.INTRA.VDW>
0

>  <SCORE.INTRA.VDW.0>
0

>  <SCORE.INTRA.norm>
0

>  <SCORE.RESTR>
0

>  <SCORE.RESTR.CAVITY>
0

>  <SCORE.RESTR.norm>
0

>  <SCORE.SYSTEM>
0

>  <SCORE.SYSTEM.CONST>
0

>  <SCORE.SYSTEM.DIHEDRAL>
0

>  <SCORE.SYSTEM.SOLV>
0

>  <SCORE.SYSTEM.norm>
0

>  <SCORE.heavy>
11

>  <SCORE.norm>
-1.50334

>  <RMSD>
3.453

$$$$
ligand
 OpenBabel11021811483D
libRbt.so/2013.1/901 2013/11/27
 11 12  0  0  0  0  0  0  0  0999 V2000
   34.9639   -9.9378  -38.6772 N   0  0  0  0  0  0  0  0  0  0  0  0
   35.2276   -8.6706  -39.0295 C   0  0  0  0  0  0  0  0  0  0  0  0
   34.2871   -7.9641  -39.8397 N   0  0  0  0  0  0  0  0  0  0  0  0
   36.3502   -8.0586  -38.6379 N   0  0  0  0  0  0  0  0  0  0  0  0
   37.2732   -8.7242  -37.8550 C   0  0  0  0  0  0  0  0  0  0  0  0
   37.0202  -10.0201  -37.4878 C   0  0  0  0  0  0  0  0  0  0  0  0
   35.8110  -10.6593  -37.9157 C   0  0  0  0  0  0  0  0  0  0  0  0
   35.4376  -12.3283  -37.4597 S   0  0  0  0  0  0  0  0  0  0  0  0
   38.0764  -10.4485  -36.7250 N   0  0  0  0  0  0  0  0  0  0  0  0
   38.9692   -9.4293  -36.6244 C   0  0  0  0  0  0  0  0  0  0  0  0
   38.4923   -8.3554  -37.3147 N   0  0  0  0  0  0  0  0  0  0  0  0
  1  2  2  0  0  0  0
  1  7  1  0  0  0  0
  2  3  1  0  0  0  0
  2  4  1  0  0  0  0
  4  5  2  0  0  0  0
  5  6  1  0  0  0  0
  5 11  1  0  0  0  0
  6  7  2  0  0  0  0
  6  9  1  0  0  0  0
  7  8  1  0  0  0  0
  9 10  1  0  0  0  0
 10 11  2  0  0  0  0
M  END
>  <CHROM.1>
36.38894165,-9.83862374,-37.91298955,2.97400020,0.48197005,2.76428895

>  <Name>
ligand

>  <RI>
0

>  <Rbt.Current_Directory>
/home/itssahil/PROJECTS/Mol_Feturizer/New_Systems/rnas/3RKF

>  <Rbt.Executable>
rbdock ($Id: //depot/dev/client3/rdock/2013.1/src/exe/rbdock.cxx#4 $)

>  <Rbt.Library>
libRbt.so (2013.1, Build901 2013/11/27)

>  <Rbt.Parameter_File>
/export/apps/rDock/src/rDock_2013.1_src/data/scripts/dock_solv.prm

>  <Rbt.Receptor>
prm/pocket_docking_4.prm

>  <SCORE>
-16.5382

>  <SCORE.INTER>
-16.5382

>  <SCORE.INTER.CONST>
1

>  <SCORE.INTER.POLAR>
0

>  <SCORE.INTER.ROT>
0

>  <SCORE.INTER.SOLV>
10.7218

>  <SCORE.INTER.VDW>
-18.1994

>  <SCORE.INTER.norm>
-1.50347

>  <SCORE.INTRA>
0

>  <SCORE.INTRA.DIHEDRAL>
0

>  <SCORE.INTRA.DIHEDRAL.0>
0

>  <SCORE.INTRA.POLAR>
0

>  <SCORE.INTRA.POLAR.0>
0

>  <SCORE.INTRA.REPUL>
0

>  <SCORE.INTRA.REPUL.0>
0

>  <SCORE.INTRA.SOLV>
0

>  <SCORE.INTRA.SOLV.lig_0>
-28.6198

>  <SCORE.INTRA.VDW>
0

>  <SCORE.INTRA.VDW.0>
0

>  <SCORE.INTRA.norm>
0

>  <SCORE.RESTR>
0

>  <SCORE.RESTR.CAVITY>
0

>  <SCORE.RESTR.norm>
0

>  <SCORE.SYSTEM>
0

>  <SCORE.SYSTEM.CONST>
0

>  <SCORE.SYSTEM.DIHEDRAL>
0

>  <SCORE.SYSTEM.SOLV>
0

>  <SCORE.SYSTEM.norm>
0

>  <SCORE.heavy>
11

>  <SCORE.norm>
-1.50347

>  <RMSD>
3.453

$$$$
ligand
 OpenBabel11021811483D
libRbt.so/2013.1/901 2013/11/27
 11 12  0  0  0  0  0  0  0  0999 V2000
   34.9567   -9.9488  -38.6642 N   0  0  0  0  0  0  0  0  0  0  0  0
   35.2134   -8.6782  -39.0090 C   0  0  0  0  0  0  0  0  0  0  0  0
   34.2666   -7.9704  -39.8108 N   0  0  0  0  0  0  0  0  0  0  0  0
   36.3347   -8.0637  -38.6177 N   0  0  0  0  0  0  0  0  0  0  0  0
   37.2637   -8.7304  -37.8429 C   0  0  0  0  0  0  0  0  0  0  0  0
   37.0180  -10.0299  -37.4834 C   0  0  0  0  0  0  0  0  0  0  0  0
   35.8100  -10.6716  -37.9109 C   0  0  0  0  0  0  0  0  0  0  0  0
   35.4458  -12.3452  -37.4647 S   0  0  0  0  0  0  0  0  0  0  0  0
   38.0791  -10.4587  -36.7276 N   0  0  0  0  0  0  0  0  0  0  0  0
   38.9677   -9.4362  -36.6237 C   0  0  0  0  0  0  0  0  0  0  0  0
   38.4833   -8.3599  -37.3049 N   0  0  0  0  0  0  0  0  0  0  0  0
  1  2  2  0  0  0  0
  1  7  1  0  0  0  0
  2  3  1  0  0  0  0
  2  4  1  0  0  0  0
  4  5  2  0  0  0  0
  5  6  1  0  0  0  0
  5 11  1  0  0  0  0
  6  7  2  0  0  0  0
  6  9  1  0  0  0  0
  7  8  1  0  0  0  0
  9 10  1  0  0  0  0
 10 11  2  0  0  0  0
M  END
>  <CHROM.1>
36.38424800,-9.84838741,-37.90490402,2.96771556,0.47993881,2.77389494

>  <Name>
ligand

>  <RI>
0

>  <Rbt.Current_Directory>
/home/itssahil/PROJECTS/Mol_Feturizer/New_Systems/rnas/3RKF

>  <Rbt.Executable>
rbdock ($Id: //depot/dev/client3/rdock/2013.1/src/exe/rbdock.cxx#4 $)

>  <Rbt.Library>
libRbt.so (2013.1, Build901 2013/11/27)

>  <Rbt.Parameter_File>
/export/apps/rDock/src/rDock_2013.1_src/data/scripts/dock_solv.prm

>  <Rbt.Receptor>
prm/pocket_docking_5.prm

>  <SCORE>
-16.5332

>  <SCORE.INTER>
-16.5332

>  <SCORE.INTER.CONST>
1

>  <SCORE.INTER.POLAR>
0

>  <SCORE.INTER.ROT>
0

>  <SCORE.INTER.SOLV>
10.6131

>  <SCORE.INTER.VDW>
-18.1598

>  <SCORE.INTER.norm>
-1.50301

>  <SCORE.INTRA>
0

>  <SCORE.INTRA.DIHEDRAL>
0

>  <SCORE.INTRA.DIHEDRAL.0>
0

>  <SCORE.INTRA.POLAR>
0

>  <SCORE.INTRA.POLAR.0>
0

>  <SCORE.INTRA.REPUL>
0

>  <SCORE.INTRA.REPUL.0>
0

>  <SCORE.INTRA.SOLV>
0

>  <SCORE.INTRA.SOLV.lig_0>
-28.6198

>  <SCORE.INTRA.VDW>
0

>  <SCORE.INTRA.VDW.0>
0

>  <SCORE.INTRA.norm>
0

>  <SCORE.RESTR>
0

>  <SCORE.RESTR.CAVITY>
0

>  <SCORE.RESTR.norm>
0

>  <SCORE.SYSTEM>
0

>  <SCORE.SYSTEM.CONST>
0

>  <SCORE.SYSTEM.DIHEDRAL>
0

>  <SCORE.SYSTEM.SOLV>
0

>  <SCORE.SYSTEM.norm>
0

>  <SCORE.heavy>
11

>  <SCORE.norm>
-1.50301

>  <RMSD>
3.453

$$$$
ligand
 OpenBabel11021811483D
libRbt.so/2013.1/901 2013/11/27
 11 12  0  0  0  0  0  0  0  0999 V2000
   34.9618   -9.9389  -38.6746 N   0  0  0  0  0  0  0  0  0  0  0  0
   35.2250   -8.6716  -39.0267 C   0  0  0  0  0  0  0  0  0  0  0  0
   34.2833   -7.9646  -39.8352 N   0  0  0  0  0  0  0  0  0  0  0  0
   36.3481   -8.0597  -38.6365 N   0  0  0  0  0  0  0  0  0  0  0  0
   37.2723   -8.7257  -37.8552 C   0  0  0  0  0  0  0  0  0  0  0  0
   37.0199  -10.0218  -37.4883 C   0  0  0  0  0  0  0  0  0  0  0  0
   35.8100  -10.6608  -37.9147 C   0  0  0  0  0  0  0  0  0  0  0  0
   35.4373  -12.3300  -37.4590 S   0  0  0  0  0  0  0  0  0  0  0  0
   38.0772  -10.4506  -36.7272 N   0  0  0  0  0  0  0  0  0  0  0  0
   38.9702   -9.4315  -36.6275 C   0  0  0  0  0  0  0  0  0  0  0  0
   38.4922   -8.3573  -37.3166 N   0  0  0  0  0  0  0  0  0  0  0  0
  1  2  2  0  0  0  0
  1  7  1  0  0  0  0
  2  3  1  0  0  0  0
  2  4  1  0  0  0  0
  4  5  2  0  0  0  0
  5  6  1  0  0  0  0
  5 11  1  0  0  0  0
  6  7  2  0  0  0  0
  6  9  1  0  0  0  0
  7  8  1  0  0  0  0
  9 10  1  0  0  0  0
 10 11  2  0  0  0  0
M  END
>  <CHROM.1>
36.38796590,-9.84013477,-37.91244667,2.97339928,0.48057384,2.76503882

>  <Name>
ligand

>  <RI>
0

>  <Rbt.Current_Directory>
/home/itssahil/PROJECTS/Mol_Feturizer/New_Systems/rnas/3RKF

>  <Rbt.Executable>
rbdock ($Id: //depot/dev/client3/rdock/2013.1/src/exe/rbdock.cxx#4 $)

>  <Rbt.Library>
libRbt.so (2013.1, Build901 2013/11/27)

>  <Rbt.Parameter_File>
/export/apps/rDock/src/rDock_2013.1_src/data/scripts/dock_solv.prm

>  <Rbt.Receptor>
prm/pocket_docking_5.prm

>  <SCORE>
-16.5372

>  <SCORE.INTER>
-16.5372

>  <SCORE.INTER.CONST>
1

>  <SCORE.INTER.POLAR>
0

>  <SCORE.INTER.ROT>
0

>  <SCORE.INTER.SOLV>
10.7048

>  <SCORE.INTER.VDW>
-18.1931

>  <SCORE.INTER.norm>
-1.50338

>  <SCORE.INTRA>
0

>  <SCORE.INTRA.DIHEDRAL>
0

>  <SCORE.INTRA.DIHEDRAL.0>
0

>  <SCORE.INTRA.POLAR>
0

>  <SCORE.INTRA.POLAR.0>
0

>  <SCORE.INTRA.REPUL>
0

>  <SCORE.INTRA.REPUL.0>
0

>  <SCORE.INTRA.SOLV>
0

>  <SCORE.INTRA.SOLV.lig_0>
-28.6198

>  <SCORE.INTRA.VDW>
0

>  <SCORE.INTRA.VDW.0>
0

>  <SCORE.INTRA.norm>
0

>  <SCORE.RESTR>
0

>  <SCORE.RESTR.CAVITY>
0

>  <SCORE.RESTR.norm>
0

>  <SCORE.SYSTEM>
0

>  <SCORE.SYSTEM.CONST>
0

>  <SCORE.SYSTEM.DIHEDRAL>
0

>  <SCORE.SYSTEM.SOLV>
0

>  <SCORE.SYSTEM.norm>
0

>  <SCORE.heavy>
11

>  <SCORE.norm>
-1.50338

>  <RMSD>
3.453

$$$$
ligand
 OpenBabel11021811483D
libRbt.so/2013.1/901 2013/11/27
 11 12  0  0  0  0  0  0  0  0999 V2000
   34.9656   -9.9436  -38.6722 N   0  0  0  0  0  0  0  0  0  0  0  0
   35.2263   -8.6751  -39.0218 C   0  0  0  0  0  0  0  0  0  0  0  0
   34.2831   -7.9686  -39.8290 N   0  0  0  0  0  0  0  0  0  0  0  0
   36.3481   -8.0617  -38.6304 N   0  0  0  0  0  0  0  0  0  0  0  0
   37.2736   -8.7272  -37.8503 C   0  0  0  0  0  0  0  0  0  0  0  0
   37.0238  -10.0245  -37.4858 C   0  0  0  0  0  0  0  0  0  0  0  0
   35.8153  -10.6652  -37.9136 C   0  0  0  0  0  0  0  0  0  0  0  0
   35.4460  -12.3360  -37.4611 S   0  0  0  0  0  0  0  0  0  0  0  0
   38.0819  -10.4526  -36.7255 N   0  0  0  0  0  0  0  0  0  0  0  0
   38.9728   -9.4318  -36.6238 C   0  0  0  0  0  0  0  0  0  0  0  0
   38.4927   -8.3573  -37.3109 N   0  0  0  0  0  0  0  0  0  0  0  0
  1  2  2  0  0  0  0
  1  7  1  0  0  0  0
  2  3  1  0  0  0  0
  2  4  1  0  0  0  0
  4  5  2  0  0  0  0
  5  6  1  0  0  0  0
  5 11  1  0  0  0  0
  6  7  2  0  0  0  0
  6  9  1  0  0  0  0
  7  8  1  0  0  0  0
  9 10  1  0  0  0  0
 10 11  2  0  0  0  0
M  END
>  <CHROM.1>
36.39154918,-9.84334733,-37.90972693,2.97125424,0.48141085,2.76794102

>  <Name>
ligand

>  <RI>
0

>  <Rbt.Current_Directory>
/home/itssahil/PROJECTS/Mol_Feturizer/New_Systems/rnas/3RKF

>  <Rbt.Executable>
rbdock ($Id: //depot/dev/client3/rdock/2013.1/src/exe/rbdock.cxx#4 $)

>  <Rbt.Library>
libRbt.so (2013.1, Build901 2013/11/27)

>  <Rbt.Parameter_File>
/export/apps/rDock/src/rDock_2013.1_src/data/scripts/dock_solv.prm

>  <Rbt.Receptor>
prm/pocket_docking_5.prm

>  <SCORE>
-16.5384

>  <SCORE.INTER>
-16.5384

>  <SCORE.INTER.CONST>
1

>  <SCORE.INTER.POLAR>
0

>  <SCORE.INTER.ROT>
0

>  <SCORE.INTER.SOLV>
10.6966

>  <SCORE.INTER.VDW>
-18.1911

>  <SCORE.INTER.norm>
-1.50349

>  <SCORE.INTRA>
0

>  <SCORE.INTRA.DIHEDRAL>
0

>  <SCORE.INTRA.DIHEDRAL.0>
0

>  <SCORE.INTRA.POLAR>
0

>  <SCORE.INTRA.POLAR.0>
0

>  <SCORE.INTRA.REPUL>
0

>  <SCORE.INTRA.REPUL.0>
0

>  <SCORE.INTRA.SOLV>
0

>  <SCORE.INTRA.SOLV.lig_0>
-28.6198

>  <SCORE.INTRA.VDW>
0

>  <SCORE.INTRA.VDW.0>
0

>  <SCORE.INTRA.norm>
0

>  <SCORE.RESTR>
0

>  <SCORE.RESTR.CAVITY>
0

>  <SCORE.RESTR.norm>
0

>  <SCORE.SYSTEM>
0

>  <SCORE.SYSTEM.CONST>
0

>  <SCORE.SYSTEM.DIHEDRAL>
0

>  <SCORE.SYSTEM.SOLV>
0

>  <SCORE.SYSTEM.norm>
0

>  <SCORE.heavy>
11

>  <SCORE.norm>
-1.50349

>  <RMSD>
3.453

$$$$
ligand
 OpenBabel11021811483D
libRbt.so/2013.1/901 2013/11/27
 11 12  0  0  0  0  0  0  0  0999 V2000
   34.9651   -9.9427  -38.6816 N   0  0  0  0  0  0  0  0  0  0  0  0
   35.2246   -8.6726  -39.0265 C   0  0  0  0  0  0  0  0  0  0  0  0
   34.2824   -7.9649  -39.8337 N   0  0  0  0  0  0  0  0  0  0  0  0
   36.3445   -8.0587  -38.6302 N   0  0  0  0  0  0  0  0  0  0  0  0
   37.2691   -8.7253  -37.8500 C   0  0  0  0  0  0  0  0  0  0  0  0
   37.0205  -10.0242  -37.4904 C   0  0  0  0  0  0  0  0  0  0  0  0
   35.8141  -10.6653  -37.9232 C   0  0  0  0  0  0  0  0  0  0  0  0
   35.4463  -12.3382  -37.4771 S   0  0  0  0  0  0  0  0  0  0  0  0
   38.0774  -10.4530  -36.7289 N   0  0  0  0  0  0  0  0  0  0  0  0
   38.9664   -9.4312  -36.6216 C   0  0  0  0  0  0  0  0  0  0  0  0
   38.4863   -8.3552  -37.3064 N   0  0  0  0  0  0  0  0  0  0  0  0
  1  2  2  0  0  0  0
  1  7  1  0  0  0  0
  2  3  1  0  0  0  0
  2  4  1  0  0  0  0
  4  5  2  0  0  0  0
  5  6  1  0  0  0  0
  5 11  1  0  0  0  0
  6  7  2  0  0  0  0
  6  9  1  0  0  0  0
  7  8  1  0  0  0  0
  9 10  1  0  0  0  0
 10 11  2  0  0  0  0
M  END
>  <CHROM.1>
36.38900983,-9.84262952,-37.91526882,2.97060691,0.48429947,2.77149268

>  <Name>
ligand

>  <RI>
0

>  <Rbt.Current_Directory>
/home/itssahil/PROJECTS/Mol_Feturizer/New_Systems/rnas/3RKF

>  <Rbt.Executable>
rbdock ($Id: //depot/dev/client3/rdock/2013.1/src/exe/rbdock.cxx#4 $)

>  <Rbt.Library>
libRbt.so (2013.1, Build901 2013/11/27)

>  <Rbt.Parameter_File>
/export/apps/rDock/src/rDock_2013.1_src/data/scripts/dock_solv.prm

>  <Rbt.Receptor>
prm/pocket_docking_5.prm

>  <SCORE>
-16.5371

>  <SCORE.INTER>
-16.5371

>  <SCORE.INTER.CONST>
1

>  <SCORE.INTER.POLAR>
0

>  <SCORE.INTER.ROT>
0

>  <SCORE.INTER.SOLV>
10.7017

>  <SCORE.INTER.VDW>
-18.1919

>  <SCORE.INTER.norm>
-1.50337

>  <SCORE.INTRA>
0

>  <SCORE.INTRA.DIHEDRAL>
0

>  <SCORE.INTRA.DIHEDRAL.0>
0

>  <SCORE.INTRA.POLAR>
0

>  <SCORE.INTRA.POLAR.0>
0

>  <SCORE.INTRA.REPUL>
0

>  <SCORE.INTRA.REPUL.0>
0

>  <SCORE.INTRA.SOLV>
0

>  <SCORE.INTRA.SOLV.lig_0>
-28.6198

>  <SCORE.INTRA.VDW>
0

>  <SCORE.INTRA.VDW.0>
0

>  <SCORE.INTRA.norm>
0

>  <SCORE.RESTR>
0

>  <SCORE.RESTR.CAVITY>
0

>  <SCORE.RESTR.norm>
0

>  <SCORE.SYSTEM>
0

>  <SCORE.SYSTEM.CONST>
0

>  <SCORE.SYSTEM.DIHEDRAL>
0

>  <SCORE.SYSTEM.SOLV>
0

>  <SCORE.SYSTEM.norm>
0

>  <SCORE.heavy>
11

>  <SCORE.norm>
-1.50337

>  <RMSD>
3.453

$$$$
ligand
 OpenBabel11021811483D
libRbt.so/2013.1/901 2013/11/27
 11 12  0  0  0  0  0  0  0  0999 V2000
   34.9570   -9.9392  -38.6763 N   0  0  0  0  0  0  0  0  0  0  0  0
   35.2196   -8.6710  -39.0257 C   0  0  0  0  0  0  0  0  0  0  0  0
   34.2778   -7.9630  -39.8333 N   0  0  0  0  0  0  0  0  0  0  0  0
   36.3422   -8.0592  -38.6338 N   0  0  0  0  0  0  0  0  0  0  0  0
   37.2664   -8.7262  -37.8535 C   0  0  0  0  0  0  0  0  0  0  0  0
   37.0146  -10.0231  -37.4892 C   0  0  0  0  0  0  0  0  0  0  0  0
   35.8053  -10.6620  -37.9174 C   0  0  0  0  0  0  0  0  0  0  0  0
   35.4334  -12.3323  -37.4651 S   0  0  0  0  0  0  0  0  0  0  0  0
   38.0718  -10.4528  -36.7285 N   0  0  0  0  0  0  0  0  0  0  0  0
   38.9642   -9.4333  -36.6264 C   0  0  0  0  0  0  0  0  0  0  0  0
   38.4859   -8.3580  -37.3136 N   0  0  0  0  0  0  0  0  0  0  0  0
  1  2  2  0  0  0  0
  1  7  1  0  0  0  0
  2  3  1  0  0  0  0
  2  4  1  0  0  0  0
  4  5  2  0  0  0  0
  5  6  1  0  0  0  0
  5 11  1  0  0  0  0
  6  7  2  0  0  0  0
  6  9  1  0  0  0  0
  7  8  1  0  0  0  0
  9 10  1  0  0  0  0
 10 11  2  0  0  0  0
M  END
>  <CHROM.1>
36.38278003,-9.84099784,-37.91330150,2.97294530,0.48121223,2.76722149

>  <Name>
ligand

>  <RI>
0

>  <Rbt.Current_Directory>
/home/itssahil/PROJECTS/Mol_Feturizer/New_Systems/rnas/3RKF

>  <Rbt.Executable>
rbdock ($Id: //depot/dev/client3/rdock/2013.1/src/exe/rbdock.cxx#4 $)

>  <Rbt.Library>
libRbt.so (2013.1, Build901 2013/11/27)

>  <Rbt.Parameter_File>
/export/apps/rDock/src/rDock_2013.1_src/data/scripts/dock_solv.prm

>  <Rbt.Receptor>
prm/pocket_docking_7.prm

>  <SCORE>
-16.5362

>  <SCORE.INTER>
-16.5362

>  <SCORE.INTER.CONST>
1

>  <SCORE.INTER.POLAR>
0

>  <SCORE.INTER.ROT>
0

>  <SCORE.INTER.SOLV>
10.683

>  <SCORE.INTER.VDW>
-18.1851

>  <SCORE.INTER.norm>
-1.50329

>  <SCORE.INTRA>
0

>  <SCORE.INTRA.DIHEDRAL>
0

>  <SCORE.INTRA.DIHEDRAL.0>
0

>  <SCORE.INTRA.POLAR>
0

>  <SCORE.INTRA.POLAR.0>
0

>  <SCORE.INTRA.REPUL>
0

>  <SCORE.INTRA.REPUL.0>
0

>  <SCORE.INTRA.SOLV>
0

>  <SCORE.INTRA.SOLV.lig_0>
-28.6198

>  <SCORE.INTRA.VDW>
0

>  <SCORE.INTRA.VDW.0>
0

>  <SCORE.INTRA.norm>
0

>  <SCORE.RESTR>
0

>  <SCORE.RESTR.CAVITY>
0

>  <SCORE.RESTR.norm>
0

>  <SCORE.SYSTEM>
0

>  <SCORE.SYSTEM.CONST>
0

>  <SCORE.SYSTEM.DIHEDRAL>
0

>  <SCORE.SYSTEM.SOLV>
0

>  <SCORE.SYSTEM.norm>
0

>  <SCORE.heavy>
11

>  <SCORE.norm>
-1.50329

>  <RMSD>
3.453

$$$$
ligand
 OpenBabel11021811483D
libRbt.so/2013.1/901 2013/11/27
 11 12  0  0  0  0  0  0  0  0999 V2000
   34.9660   -9.9401  -38.6792 N   0  0  0  0  0  0  0  0  0  0  0  0
   35.2282   -8.6717  -39.0283 C   0  0  0  0  0  0  0  0  0  0  0  0
   34.2866   -7.9642  -39.8365 N   0  0  0  0  0  0  0  0  0  0  0  0
   36.3501   -8.0593  -38.6355 N   0  0  0  0  0  0  0  0  0  0  0  0
   37.2741   -8.7258  -37.8545 C   0  0  0  0  0  0  0  0  0  0  0  0
   37.0228  -10.0230  -37.4905 C   0  0  0  0  0  0  0  0  0  0  0  0
   35.8143  -10.6625  -37.9198 C   0  0  0  0  0  0  0  0  0  0  0  0
   35.4430  -12.3331  -37.4680 S   0  0  0  0  0  0  0  0  0  0  0  0
   38.0797  -10.4520  -36.7291 N   0  0  0  0  0  0  0  0  0  0  0  0
   38.9713   -9.4320  -36.6262 C   0  0  0  0  0  0  0  0  0  0  0  0
   38.4929   -8.3570  -37.3137 N   0  0  0  0  0  0  0  0  0  0  0  0
  1  2  2  0  0  0  0
  1  7  1  0  0  0  0
  2  3  1  0  0  0  0
  2  4  1  0  0  0  0
  4  5  2  0  0  0  0
  5  6  1  0  0  0  0
  5 11  1  0  0  0  0
  6  7  2  0  0  0  0
  6  9  1  0  0  0  0
  7  8  1  0  0  0  0
  9 10  1  0  0  0  0
 10 11  2  0  0  0  0
M  END
>  <CHROM.1>
36.39119714,-9.84116197,-37.91512188,2.97261626,0.48215388,2.76748329

>  <Name>
ligand

>  <RI>
0

>  <Rbt.Current_Directory>
/home/itssahil/PROJECTS/Mol_Feturizer/New_Systems/rnas/3RKF

>  <Rbt.Executable>
rbdock ($Id: //depot/dev/client3/rdock/2013.1/src/exe/rbdock.cxx#4 $)

>  <Rbt.Library>
libRbt.so (2013.1, Build901 2013/11/27)

>  <Rbt.Parameter_File>
/export/apps/rDock/src/rDock_2013.1_src/data/scripts/dock_solv.prm

>  <Rbt.Receptor>
prm/pocket_docking_7.prm

>  <SCORE>
-16.5388

>  <SCORE.INTER>
-16.5388

>  <SCORE.INTER.CONST>
1

>  <SCORE.INTER.POLAR>
0

>  <SCORE.INTER.ROT>
0

>  <SCORE.INTER.SOLV>
10.7197

>  <SCORE.INTER.VDW>
-18.1991

>  <SCORE.INTER.norm>
-1.50353

>  <SCORE.INTRA>
0

>  <SCORE.INTRA.DIHEDRAL>
0

>  <SCORE.INTRA.DIHEDRAL.0>
0

>  <SCORE.INTRA.POLAR>
0

>  <SCORE.INTRA.POLAR.0>
0

>  <SCORE.INTRA.REPUL>
0

>  <SCORE.INTRA.REPUL.0>
0

>  <SCORE.INTRA.SOLV>
0

>  <SCORE.INTRA.SOLV.lig_0>
-28.6198

>  <SCORE.INTRA.VDW>
0

>  <SCORE.INTRA.VDW.0>
0

>  <SCORE.INTRA.norm>
0

>  <SCORE.RESTR>
0

>  <SCORE.RESTR.CAVITY>
0

>  <SCORE.RESTR.norm>
0

>  <SCORE.SYSTEM>
0

>  <SCORE.SYSTEM.CONST>
0

>  <SCORE.SYSTEM.DIHEDRAL>
0

>  <SCORE.SYSTEM.SOLV>
0

>  <SCORE.SYSTEM.norm>
0

>  <SCORE.heavy>
11

>  <SCORE.norm>
-1.50353

>  <RMSD>
3.453

$$$$
ligand
 OpenBabel11021811483D
libRbt.so/2013.1/901 2013/11/27
 11 12  0  0  0  0  0  0  0  0999 V2000
   34.9566   -9.9441  -38.6713 N   0  0  0  0  0  0  0  0  0  0  0  0
   35.2160   -8.6742  -39.0171 C   0  0  0  0  0  0  0  0  0  0  0  0
   34.2709   -7.9654  -39.8200 N   0  0  0  0  0  0  0  0  0  0  0  0
   36.3383   -8.0616  -38.6258 N   0  0  0  0  0  0  0  0  0  0  0  0
   37.2657   -8.7294  -37.8499 C   0  0  0  0  0  0  0  0  0  0  0  0
   37.0172  -10.0281  -37.4894 C   0  0  0  0  0  0  0  0  0  0  0  0
   35.8081  -10.6678  -37.9168 C   0  0  0  0  0  0  0  0  0  0  0  0
   35.4405  -12.3403  -37.4693 S   0  0  0  0  0  0  0  0  0  0  0  0
   38.0771  -10.4582  -36.7327 N   0  0  0  0  0  0  0  0  0  0  0  0
   38.9677   -9.4374  -36.6293 C   0  0  0  0  0  0  0  0  0  0  0  0
   38.4857   -8.3607  -37.3117 N   0  0  0  0  0  0  0  0  0  0  0  0
  1  2  2  0  0  0  0
  1  7  1  0  0  0  0
  2  3  1  0  0  0  0
  2  4  1  0  0  0  0
  4  5  2  0  0  0  0
  5  6  1  0  0  0  0
  5 11  1  0  0  0  0
  6  7  2  0  0  0  0
  6  9  1  0  0  0  0
  7  8  1  0  0  0  0
  9 10  1  0  0  0  0
 10 11  2  0  0  0  0
M  END
>  <CHROM.1>
36.38402062,-9.84573100,-37.91135019,2.96995263,0.47968837,2.77194250

>  <Name>
ligand

>  <RI>
0

>  <Rbt.Current_Directory>
/home/itssahil/PROJECTS/Mol_Feturizer/New_Systems/rnas/3RKF

>  <Rbt.Executable>
rbdock ($Id: //depot/dev/client3/rdock/2013.1/src/exe/rbdock.cxx#4 $)

>  <Rbt.Library>
libRbt.so (2013.1, Build901 2013/11/27)

>  <Rbt.Parameter_File>
/export/apps/rDock/src/rDock_2013.1_src/data/scripts/dock_solv.prm

>  <Rbt.Receptor>
prm/pocket_docking_8.prm

>  <SCORE>
-16.535

>  <SCORE.INTER>
-16.535

>  <SCORE.INTER.CONST>
1

>  <SCORE.INTER.POLAR>
0

>  <SCORE.INTER.ROT>
0

>  <SCORE.INTER.SOLV>
10.644

>  <SCORE.INTER.VDW>
-18.1714

>  <SCORE.INTER.norm>
-1.50319

>  <SCORE.INTRA>
0

>  <SCORE.INTRA.DIHEDRAL>
0

>  <SCORE.INTRA.DIHEDRAL.0>
0

>  <SCORE.INTRA.POLAR>
0

>  <SCORE.INTRA.POLAR.0>
0

>  <SCORE.INTRA.REPUL>
0

>  <SCORE.INTRA.REPUL.0>
0

>  <SCORE.INTRA.SOLV>
0

>  <SCORE.INTRA.SOLV.lig_0>
-28.6198

>  <SCORE.INTRA.VDW>
0

>  <SCORE.INTRA.VDW.0>
0

>  <SCORE.INTRA.norm>
0

>  <SCORE.RESTR>
0

>  <SCORE.RESTR.CAVITY>
0

>  <SCORE.RESTR.norm>
0

>  <SCORE.SYSTEM>
0

>  <SCORE.SYSTEM.CONST>
0

>  <SCORE.SYSTEM.DIHEDRAL>
0

>  <SCORE.SYSTEM.SOLV>
0

>  <SCORE.SYSTEM.norm>
0

>  <SCORE.heavy>
11

>  <SCORE.norm>
-1.50319

>  <RMSD>
3.453

$$$$
ligand
 OpenBabel11021811483D
libRbt.so/2013.1/901 2013/11/27
 11 12  0  0  0  0  0  0  0  0999 V2000
   34.9639   -9.9411  -38.6759 N   0  0  0  0  0  0  0  0  0  0  0  0
   35.2248   -8.6725  -39.0252 C   0  0  0  0  0  0  0  0  0  0  0  0
   34.2824   -7.9659  -39.8331 N   0  0  0  0  0  0  0  0  0  0  0  0
   36.3463   -8.0591  -38.6326 N   0  0  0  0  0  0  0  0  0  0  0  0
   37.2711   -8.7247  -37.8518 C   0  0  0  0  0  0  0  0  0  0  0  0
   37.0210  -10.0221  -37.4877 C   0  0  0  0  0  0  0  0  0  0  0  0
   35.8129  -10.6627  -37.9167 C   0  0  0  0  0  0  0  0  0  0  0  0
   35.4433  -12.3336  -37.4647 S   0  0  0  0  0  0  0  0  0  0  0  0
   38.0785  -10.4502  -36.7265 N   0  0  0  0  0  0  0  0  0  0  0  0
   38.9692   -9.4294  -36.6238 C   0  0  0  0  0  0  0  0  0  0  0  0
   38.4896   -8.3548  -37.3112 N   0  0  0  0  0  0  0  0  0  0  0  0
  1  2  2  0  0  0  0
  1  7  1  0  0  0  0
  2  3  1  0  0  0  0
  2  4  1  0  0  0  0
  4  5  2  0  0  0  0
  5  6  1  0  0  0  0
  5 11  1  0  0  0  0
  6  7  2  0  0  0  0
  6  9  1  0  0  0  0
  7  8  1  0  0  0  0
  9 10  1  0  0  0  0
 10 11  2  0  0  0  0
M  END
>  <CHROM.1>
36.38914148,-9.84088485,-37.91215491,2.97159267,0.48227556,2.76792348

>  <Name>
ligand

>  <RI>
0

>  <Rbt.Current_Directory>
/home/itssahil/PROJECTS/Mol_Feturizer/New_Systems/rnas/3RKF

>  <Rbt.Executable>
rbdock ($Id: //depot/dev/client3/rdock/2013.1/src/exe/rbdock.cxx#4 $)

>  <Rbt.Library>
libRbt.so (2013.1, Build901 2013/11/27)

>  <Rbt.Parameter_File>
/export/apps/rDock/src/rDock_2013.1_src/data/scripts/dock_solv.prm

>  <Rbt.Receptor>
prm/blind_docking_80.prm

>  <SCORE>
-16.5384

>  <SCORE.INTER>
-16.5384

>  <SCORE.INTER.CONST>
1

>  <SCORE.INTER.POLAR>
0

>  <SCORE.INTER.ROT>
0

>  <SCORE.INTER.SOLV>
10.6987

>  <SCORE.INTER.VDW>
-18.1918

>  <SCORE.INTER.norm>
-1.50349

>  <SCORE.INTRA>
0

>  <SCORE.INTRA.DIHEDRAL>
0

>  <SCORE.INTRA.DIHEDRAL.0>
0

>  <SCORE.INTRA.POLAR>
0

>  <SCORE.INTRA.POLAR.0>
0

>  <SCORE.INTRA.REPUL>
0

>  <SCORE.INTRA.REPUL.0>
0

>  <SCORE.INTRA.SOLV>
0

>  <SCORE.INTRA.SOLV.lig_0>
-28.6198

>  <SCORE.INTRA.VDW>
0

>  <SCORE.INTRA.VDW.0>
0

>  <SCORE.INTRA.norm>
0

>  <SCORE.RESTR>
0

>  <SCORE.RESTR.CAVITY>
0

>  <SCORE.RESTR.norm>
0

>  <SCORE.SYSTEM>
0

>  <SCORE.SYSTEM.CONST>
0

>  <SCORE.SYSTEM.DIHEDRAL>
0

>  <SCORE.SYSTEM.SOLV>
0

>  <SCORE.SYSTEM.norm>
0

>  <SCORE.heavy>
11

>  <SCORE.norm>
-1.50349

>  <RMSD>
3.454

$$$$
ligand
 OpenBabel11021811483D
libRbt.so/2013.1/901 2013/11/27
 11 12  0  0  0  0  0  0  0  0999 V2000
   34.9635   -9.9409  -38.6764 N   0  0  0  0  0  0  0  0  0  0  0  0
   35.2240   -8.6722  -39.0255 C   0  0  0  0  0  0  0  0  0  0  0  0
   34.2813   -7.9657  -39.8333 N   0  0  0  0  0  0  0  0  0  0  0  0
   36.3452   -8.0584  -38.6328 N   0  0  0  0  0  0  0  0  0  0  0  0
   37.2702   -8.7239  -37.8521 C   0  0  0  0  0  0  0  0  0  0  0  0
   37.0206  -10.0214  -37.4882 C   0  0  0  0  0  0  0  0  0  0  0  0
   35.8127  -10.6623  -37.9173 C   0  0  0  0  0  0  0  0  0  0  0  0
   35.4436  -12.3334  -37.4655 S   0  0  0  0  0  0  0  0  0  0  0  0
   38.0782  -10.4492  -36.7271 N   0  0  0  0  0  0  0  0  0  0  0  0
   38.9686   -9.4282  -36.6243 C   0  0  0  0  0  0  0  0  0  0  0  0
   38.4887   -8.3536  -37.3115 N   0  0  0  0  0  0  0  0  0  0  0  0
  1  2  2  0  0  0  0
  1  7  1  0  0  0  0
  2  3  1  0  0  0  0
  2  4  1  0  0  0  0
  4  5  2  0  0  0  0
  5  6  1  0  0  0  0
  5 11  1  0  0  0  0
  6  7  2  0  0  0  0
  6  9  1  0  0  0  0
  7  8  1  0  0  0  0
  9 10  1  0  0  0  0
 10 11  2  0  0  0  0
M  END
>  <CHROM.1>
36.38866124,-9.84028997,-37.91265488,2.97123535,0.48237995,2.76822868

>  <Name>
ligand

>  <RI>
0

>  <Rbt.Current_Directory>
/home/itssahil/PROJECTS/Mol_Feturizer/New_Systems/rnas/3RKF

>  <Rbt.Executable>
rbdock ($Id: //depot/dev/client3/rdock/2013.1/src/exe/rbdock.cxx#4 $)

>  <Rbt.Library>
libRbt.so (2013.1, Build901 2013/11/27)

>  <Rbt.Parameter_File>
/export/apps/rDock/src/rDock_2013.1_src/data/scripts/dock_solv.prm

>  <Rbt.Receptor>
prm/pocket_docking_3.prm

>  <SCORE>
-16.538

>  <SCORE.INTER>
-16.538

>  <SCORE.INTER.CONST>
1

>  <SCORE.INTER.POLAR>
0

>  <SCORE.INTER.ROT>
0

>  <SCORE.INTER.SOLV>
10.6956

>  <SCORE.INTER.VDW>
-18.1905

>  <SCORE.INTER.norm>
-1.50345

>  <SCORE.INTRA>
0

>  <SCORE.INTRA.DIHEDRAL>
0

>  <SCORE.INTRA.DIHEDRAL.0>
0

>  <SCORE.INTRA.POLAR>
0

>  <SCORE.INTRA.POLAR.0>
0

>  <SCORE.INTRA.REPUL>
0

>  <SCORE.INTRA.REPUL.0>
0

>  <SCORE.INTRA.SOLV>
0

>  <SCORE.INTRA.SOLV.lig_0>
-28.6198

>  <SCORE.INTRA.VDW>
0

>  <SCORE.INTRA.VDW.0>
0

>  <SCORE.INTRA.norm>
0

>  <SCORE.RESTR>
0

>  <SCORE.RESTR.CAVITY>
0

>  <SCORE.RESTR.norm>
0

>  <SCORE.SYSTEM>
0

>  <SCORE.SYSTEM.CONST>
0

>  <SCORE.SYSTEM.DIHEDRAL>
0

>  <SCORE.SYSTEM.SOLV>
0

>  <SCORE.SYSTEM.norm>
0

>  <SCORE.heavy>
11

>  <SCORE.norm>
-1.50345

>  <RMSD>
3.454

$$$$
ligand
 OpenBabel11021811483D
libRbt.so/2013.1/901 2013/11/27
 11 12  0  0  0  0  0  0  0  0999 V2000
   34.9596   -9.9473  -38.6651 N   0  0  0  0  0  0  0  0  0  0  0  0
   35.2183   -8.6779  -39.0132 C   0  0  0  0  0  0  0  0  0  0  0  0
   34.2726   -7.9709  -39.8170 N   0  0  0  0  0  0  0  0  0  0  0  0
   36.3405   -8.0641  -38.6234 N   0  0  0  0  0  0  0  0  0  0  0  0
   37.2684   -8.7301  -37.8467 C   0  0  0  0  0  0  0  0  0  0  0  0
   37.0207  -10.0283  -37.4838 C   0  0  0  0  0  0  0  0  0  0  0  0
   35.8117  -10.6693  -37.9097 C   0  0  0  0  0  0  0  0  0  0  0  0
   35.4450  -12.3412  -37.4591 S   0  0  0  0  0  0  0  0  0  0  0  0
   38.0810  -10.4566  -36.7267 N   0  0  0  0  0  0  0  0  0  0  0  0
   38.9712   -9.4352  -36.6254 C   0  0  0  0  0  0  0  0  0  0  0  0
   38.4885   -8.3600  -37.3096 N   0  0  0  0  0  0  0  0  0  0  0  0
  1  2  2  0  0  0  0
  1  7  1  0  0  0  0
  2  3  1  0  0  0  0
  2  4  1  0  0  0  0
  4  5  2  0  0  0  0
  5  6  1  0  0  0  0
  5 11  1  0  0  0  0
  6  7  2  0  0  0  0
  6  9  1  0  0  0  0
  7  8  1  0  0  0  0
  9 10  1  0  0  0  0
 10 11  2  0  0  0  0
M  END
>  <CHROM.1>
36.38725195,-9.84694290,-37.90585591,2.96933294,0.47951215,2.77047717

>  <Name>
ligand

>  <RI>
0

>  <Rbt.Current_Directory>
/home/itssahil/PROJECTS/Mol_Feturizer/New_Systems/rnas/3RKF

>  <Rbt.Executable>
rbdock ($Id: //depot/dev/client3/rdock/2013.1/src/exe/rbdock.cxx#4 $)

>  <Rbt.Library>
libRbt.so (2013.1, Build901 2013/11/27)

>  <Rbt.Parameter_File>
/export/apps/rDock/src/rDock_2013.1_src/data/scripts/dock_solv.prm

>  <Rbt.Receptor>
prm/pocket_docking_3.prm

>  <SCORE>
-16.5349

>  <SCORE.INTER>
-16.5349

>  <SCORE.INTER.CONST>
1

>  <SCORE.INTER.POLAR>
0

>  <SCORE.INTER.ROT>
0

>  <SCORE.INTER.SOLV>
10.6448

>  <SCORE.INTER.VDW>
-18.1716

>  <SCORE.INTER.norm>
-1.50317

>  <SCORE.INTRA>
0

>  <SCORE.INTRA.DIHEDRAL>
0

>  <SCORE.INTRA.DIHEDRAL.0>
0

>  <SCORE.INTRA.POLAR>
0

>  <SCORE.INTRA.POLAR.0>
0

>  <SCORE.INTRA.REPUL>
0

>  <SCORE.INTRA.REPUL.0>
0

>  <SCORE.INTRA.SOLV>
0

>  <SCORE.INTRA.SOLV.lig_0>
-28.6198

>  <SCORE.INTRA.VDW>
0

>  <SCORE.INTRA.VDW.0>
0

>  <SCORE.INTRA.norm>
0

>  <SCORE.RESTR>
0

>  <SCORE.RESTR.CAVITY>
0

>  <SCORE.RESTR.norm>
0

>  <SCORE.SYSTEM>
0

>  <SCORE.SYSTEM.CONST>
0

>  <SCORE.SYSTEM.DIHEDRAL>
0

>  <SCORE.SYSTEM.SOLV>
0

>  <SCORE.SYSTEM.norm>
0

>  <SCORE.heavy>
11

>  <SCORE.norm>
-1.50317

>  <RMSD>
3.454

$$$$
ligand
 OpenBabel11021811483D
libRbt.so/2013.1/901 2013/11/27
 11 12  0  0  0  0  0  0  0  0999 V2000
   34.9643   -9.9408  -38.6774 N   0  0  0  0  0  0  0  0  0  0  0  0
   35.2243   -8.6718  -39.0258 C   0  0  0  0  0  0  0  0  0  0  0  0
   34.2814   -7.9654  -39.8334 N   0  0  0  0  0  0  0  0  0  0  0  0
   36.3452   -8.0578  -38.6327 N   0  0  0  0  0  0  0  0  0  0  0  0
   37.2704   -8.7232  -37.8523 C   0  0  0  0  0  0  0  0  0  0  0  0
   37.0213  -10.0209  -37.4890 C   0  0  0  0  0  0  0  0  0  0  0  0
   35.8138  -10.6622  -37.9185 C   0  0  0  0  0  0  0  0  0  0  0  0
   35.4454  -12.3337  -37.4676 S   0  0  0  0  0  0  0  0  0  0  0  0
   38.0791  -10.4487  -36.7280 N   0  0  0  0  0  0  0  0  0  0  0  0
   38.9690   -9.4273  -36.6246 C   0  0  0  0  0  0  0  0  0  0  0  0
   38.4887   -8.3526  -37.3113 N   0  0  0  0  0  0  0  0  0  0  0  0
  1  2  2  0  0  0  0
  1  7  1  0  0  0  0
  2  3  1  0  0  0  0
  2  4  1  0  0  0  0
  4  5  2  0  0  0  0
  5  6  1  0  0  0  0
  5 11  1  0  0  0  0
  6  7  2  0  0  0  0
  6  9  1  0  0  0  0
  7  8  1  0  0  0  0
  9 10  1  0  0  0  0
 10 11  2  0  0  0  0
M  END
>  <CHROM.1>
36.38936784,-9.83995477,-37.91342095,2.97081480,0.48264719,2.76890728

>  <Name>
ligand

>  <RI>
0

>  <Rbt.Current_Directory>
/home/itssahil/PROJECTS/Mol_Feturizer/New_Systems/rnas/3RKF

>  <Rbt.Executable>
rbdock ($Id: //depot/dev/client3/rdock/2013.1/src/exe/rbdock.cxx#4 $)

>  <Rbt.Library>
libRbt.so (2013.1, Build901 2013/11/27)

>  <Rbt.Parameter_File>
/export/apps/rDock/src/rDock_2013.1_src/data/scripts/dock_solv.prm

>  <Rbt.Receptor>
prm/pocket_docking_3.prm

>  <SCORE>
-16.5381

>  <SCORE.INTER>
-16.5381

>  <SCORE.INTER.CONST>
1

>  <SCORE.INTER.POLAR>
0

>  <SCORE.INTER.ROT>
0

>  <SCORE.INTER.SOLV>
10.6963

>  <SCORE.INTER.VDW>
-18.1908

>  <SCORE.INTER.norm>
-1.50346

>  <SCORE.INTRA>
0

>  <SCORE.INTRA.DIHEDRAL>
0

>  <SCORE.INTRA.DIHEDRAL.0>
0

>  <SCORE.INTRA.POLAR>
0

>  <SCORE.INTRA.POLAR.0>
0

>  <SCORE.INTRA.REPUL>
0

>  <SCORE.INTRA.REPUL.0>
0

>  <SCORE.INTRA.SOLV>
0

>  <SCORE.INTRA.SOLV.lig_0>
-28.6198

>  <SCORE.INTRA.VDW>
0

>  <SCORE.INTRA.VDW.0>
0

>  <SCORE.INTRA.norm>
0

>  <SCORE.RESTR>
0

>  <SCORE.RESTR.CAVITY>
0

>  <SCORE.RESTR.norm>
0

>  <SCORE.SYSTEM>
0

>  <SCORE.SYSTEM.CONST>
0

>  <SCORE.SYSTEM.DIHEDRAL>
0

>  <SCORE.SYSTEM.SOLV>
0

>  <SCORE.SYSTEM.norm>
0

>  <SCORE.heavy>
11

>  <SCORE.norm>
-1.50346

>  <RMSD>
3.454

$$$$
ligand
 OpenBabel11021811483D
libRbt.so/2013.1/901 2013/11/27
 11 12  0  0  0  0  0  0  0  0999 V2000
   34.9623   -9.9447  -38.6739 N   0  0  0  0  0  0  0  0  0  0  0  0
   35.2200   -8.6745  -39.0196 C   0  0  0  0  0  0  0  0  0  0  0  0
   34.2754   -7.9676  -39.8248 N   0  0  0  0  0  0  0  0  0  0  0  0
   36.3404   -8.0596  -38.6261 N   0  0  0  0  0  0  0  0  0  0  0  0
   37.2672   -8.7254  -37.8479 C   0  0  0  0  0  0  0  0  0  0  0  0
   37.0204  -10.0244  -37.4874 C   0  0  0  0  0  0  0  0  0  0  0  0
   35.8135  -10.6665  -37.9174 C   0  0  0  0  0  0  0  0  0  0  0  0
   35.4480  -12.3396  -37.4700 S   0  0  0  0  0  0  0  0  0  0  0  0
   38.0794  -10.4523  -36.7282 N   0  0  0  0  0  0  0  0  0  0  0  0
   38.9679   -9.4298  -36.6232 C   0  0  0  0  0  0  0  0  0  0  0  0
   38.4854   -8.3542  -37.3071 N   0  0  0  0  0  0  0  0  0  0  0  0
  1  2  2  0  0  0  0
  1  7  1  0  0  0  0
  2  3  1  0  0  0  0
  2  4  1  0  0  0  0
  4  5  2  0  0  0  0
  5  6  1  0  0  0  0
  5 11  1  0  0  0  0
  6  7  2  0  0  0  0
  6  9  1  0  0  0  0
  7  8  1  0  0  0  0
  9 10  1  0  0  0  0
 10 11  2  0  0  0  0
M  END
>  <CHROM.1>
36.38783436,-9.84338440,-37.91087842,2.96888188,0.48242490,2.77210540

>  <Name>
ligand

>  <RI>
0

>  <Rbt.Current_Directory>
/home/itssahil/PROJECTS/Mol_Feturizer/New_Systems/rnas/3RKF

>  <Rbt.Executable>
rbdock ($Id: //depot/dev/client3/rdock/2013.1/src/exe/rbdock.cxx#4 $)

>  <Rbt.Library>
libRbt.so (2013.1, Build901 2013/11/27)

>  <Rbt.Parameter_File>
/export/apps/rDock/src/rDock_2013.1_src/data/scripts/dock_solv.prm

>  <Rbt.Receptor>
prm/pocket_docking_3.prm

>  <SCORE>
-16.5365

>  <SCORE.INTER>
-16.5365

>  <SCORE.INTER.CONST>
1

>  <SCORE.INTER.POLAR>
0

>  <SCORE.INTER.ROT>
0

>  <SCORE.INTER.SOLV>
10.6647

>  <SCORE.INTER.VDW>
-18.1792

>  <SCORE.INTER.norm>
-1.50331

>  <SCORE.INTRA>
0

>  <SCORE.INTRA.DIHEDRAL>
0

>  <SCORE.INTRA.DIHEDRAL.0>
0

>  <SCORE.INTRA.POLAR>
0

>  <SCORE.INTRA.POLAR.0>
0

>  <SCORE.INTRA.REPUL>
0

>  <SCORE.INTRA.REPUL.0>
0

>  <SCORE.INTRA.SOLV>
0

>  <SCORE.INTRA.SOLV.lig_0>
-28.6198

>  <SCORE.INTRA.VDW>
0

>  <SCORE.INTRA.VDW.0>
0

>  <SCORE.INTRA.norm>
0

>  <SCORE.RESTR>
0

>  <SCORE.RESTR.CAVITY>
0

>  <SCORE.RESTR.norm>
0

>  <SCORE.SYSTEM>
0

>  <SCORE.SYSTEM.CONST>
0

>  <SCORE.SYSTEM.DIHEDRAL>
0

>  <SCORE.SYSTEM.SOLV>
0

>  <SCORE.SYSTEM.norm>
0

>  <SCORE.heavy>
11

>  <SCORE.norm>
-1.50331

>  <RMSD>
3.454

$$$$
ligand
 OpenBabel11021811483D
libRbt.so/2013.1/901 2013/11/27
 11 12  0  0  0  0  0  0  0  0999 V2000
   34.9655   -9.9396  -38.6771 N   0  0  0  0  0  0  0  0  0  0  0  0
   35.2272   -8.6716  -39.0278 C   0  0  0  0  0  0  0  0  0  0  0  0
   34.2845   -7.9648  -39.8354 N   0  0  0  0  0  0  0  0  0  0  0  0
   36.3497   -8.0588  -38.6372 N   0  0  0  0  0  0  0  0  0  0  0  0
   37.2748   -8.7245  -37.8569 C   0  0  0  0  0  0  0  0  0  0  0  0
   37.0240  -10.0213  -37.4913 C   0  0  0  0  0  0  0  0  0  0  0  0
   35.8148  -10.6612  -37.9181 C   0  0  0  0  0  0  0  0  0  0  0  0
   35.4441  -12.3314  -37.4641 S   0  0  0  0  0  0  0  0  0  0  0  0
   38.0819  -10.4497  -36.7309 N   0  0  0  0  0  0  0  0  0  0  0  0
   38.9737   -9.4296  -36.6303 C   0  0  0  0  0  0  0  0  0  0  0  0
   38.4943   -8.3552  -37.3181 N   0  0  0  0  0  0  0  0  0  0  0  0
  1  2  2  0  0  0  0
  1  7  1  0  0  0  0
  2  3  1  0  0  0  0
  2  4  1  0  0  0  0
  4  5  2  0  0  0  0
  5  6  1  0  0  0  0
  5 11  1  0  0  0  0
  6  7  2  0  0  0  0
  6  9  1  0  0  0  0
  7  8  1  0  0  0  0
  9 10  1  0  0  0  0
 10 11  2  0  0  0  0
M  END
>  <CHROM.1>
36.39175232,-9.83990517,-37.91511288,2.97206343,0.48082139,2.76674619

>  <Name>
ligand

>  <RI>
0

>  <Rbt.Current_Directory>
/home/itssahil/PROJECTS/Mol_Feturizer/New_Systems/rnas/3RKF

>  <Rbt.Executable>
rbdock ($Id: //depot/dev/client3/rdock/2013.1/src/exe/rbdock.cxx#4 $)

>  <Rbt.Library>
libRbt.so (2013.1, Build901 2013/11/27)

>  <Rbt.Parameter_File>
/export/apps/rDock/src/rDock_2013.1_src/data/scripts/dock_solv.prm

>  <Rbt.Receptor>
prm/pocket_docking_5.prm

>  <SCORE>
-16.5377

>  <SCORE.INTER>
-16.5377

>  <SCORE.INTER.CONST>
1

>  <SCORE.INTER.POLAR>
0

>  <SCORE.INTER.ROT>
0

>  <SCORE.INTER.SOLV>
10.7131

>  <SCORE.INTER.VDW>
-18.1962

>  <SCORE.INTER.norm>
-1.50343

>  <SCORE.INTRA>
0

>  <SCORE.INTRA.DIHEDRAL>
0

>  <SCORE.INTRA.DIHEDRAL.0>
0

>  <SCORE.INTRA.POLAR>
0

>  <SCORE.INTRA.POLAR.0>
0

>  <SCORE.INTRA.REPUL>
0

>  <SCORE.INTRA.REPUL.0>
0

>  <SCORE.INTRA.SOLV>
0

>  <SCORE.INTRA.SOLV.lig_0>
-28.6198

>  <SCORE.INTRA.VDW>
0

>  <SCORE.INTRA.VDW.0>
0

>  <SCORE.INTRA.norm>
0

>  <SCORE.RESTR>
0

>  <SCORE.RESTR.CAVITY>
0

>  <SCORE.RESTR.norm>
0

>  <SCORE.SYSTEM>
0

>  <SCORE.SYSTEM.CONST>
0

>  <SCORE.SYSTEM.DIHEDRAL>
0

>  <SCORE.SYSTEM.SOLV>
0

>  <SCORE.SYSTEM.norm>
0

>  <SCORE.heavy>
11

>  <SCORE.norm>
-1.50343

>  <RMSD>
3.454

$$$$
ligand
 OpenBabel11021811483D
libRbt.so/2013.1/901 2013/11/27
 11 12  0  0  0  0  0  0  0  0999 V2000
   34.9654   -9.9408  -38.6738 N   0  0  0  0  0  0  0  0  0  0  0  0
   35.2275   -8.6733  -39.0262 C   0  0  0  0  0  0  0  0  0  0  0  0
   34.2853   -7.9677  -39.8354 N   0  0  0  0  0  0  0  0  0  0  0  0
   36.3498   -8.0601  -38.6357 N   0  0  0  0  0  0  0  0  0  0  0  0
   37.2743   -8.7248  -37.8538 C   0  0  0  0  0  0  0  0  0  0  0  0
   37.0231  -10.0211  -37.4865 C   0  0  0  0  0  0  0  0  0  0  0  0
   35.8141  -10.6615  -37.9133 C   0  0  0  0  0  0  0  0  0  0  0  0
   35.4430  -12.3309  -37.4572 S   0  0  0  0  0  0  0  0  0  0  0  0
   38.0805  -10.4485  -36.7249 N   0  0  0  0  0  0  0  0  0  0  0  0
   38.9724   -9.4283  -36.6251 C   0  0  0  0  0  0  0  0  0  0  0  0
   38.4935   -8.3549  -37.3148 N   0  0  0  0  0  0  0  0  0  0  0  0
  1  2  2  0  0  0  0
  1  7  1  0  0  0  0
  2  3  1  0  0  0  0
  2  4  1  0  0  0  0
  4  5  2  0  0  0  0
  5  6  1  0  0  0  0
  5 11  1  0  0  0  0
  6  7  2  0  0  0  0
  6  9  1  0  0  0  0
  7  8  1  0  0  0  0
  9 10  1  0  0  0  0
 10 11  2  0  0  0  0
M  END
>  <CHROM.1>
36.39119230,-9.84022476,-37.91107045,2.97244214,0.48139459,2.76514957

>  <Name>
ligand

>  <RI>
0

>  <Rbt.Current_Directory>
/home/itssahil/PROJECTS/Mol_Feturizer/New_Systems/rnas/3RKF

>  <Rbt.Executable>
rbdock ($Id: //depot/dev/client3/rdock/2013.1/src/exe/rbdock.cxx#4 $)

>  <Rbt.Library>
libRbt.so (2013.1, Build901 2013/11/27)

>  <Rbt.Parameter_File>
/export/apps/rDock/src/rDock_2013.1_src/data/scripts/dock_solv.prm

>  <Rbt.Receptor>
prm/pocket_docking_6.prm

>  <SCORE>
-16.5377

>  <SCORE.INTER>
-16.5377

>  <SCORE.INTER.CONST>
1

>  <SCORE.INTER.POLAR>
0

>  <SCORE.INTER.ROT>
0

>  <SCORE.INTER.SOLV>
10.7131

>  <SCORE.INTER.VDW>
-18.1962

>  <SCORE.INTER.norm>
-1.50342

>  <SCORE.INTRA>
0

>  <SCORE.INTRA.DIHEDRAL>
0

>  <SCORE.INTRA.DIHEDRAL.0>
0

>  <SCORE.INTRA.POLAR>
0

>  <SCORE.INTRA.POLAR.0>
0

>  <SCORE.INTRA.REPUL>
0

>  <SCORE.INTRA.REPUL.0>
0

>  <SCORE.INTRA.SOLV>
0

>  <SCORE.INTRA.SOLV.lig_0>
-28.6198

>  <SCORE.INTRA.VDW>
0

>  <SCORE.INTRA.VDW.0>
0

>  <SCORE.INTRA.norm>
0

>  <SCORE.RESTR>
0

>  <SCORE.RESTR.CAVITY>
0

>  <SCORE.RESTR.norm>
0

>  <SCORE.SYSTEM>
0

>  <SCORE.SYSTEM.CONST>
0

>  <SCORE.SYSTEM.DIHEDRAL>
0

>  <SCORE.SYSTEM.SOLV>
0

>  <SCORE.SYSTEM.norm>
0

>  <SCORE.heavy>
11

>  <SCORE.norm>
-1.50342

>  <RMSD>
3.454

$$$$
ligand
 OpenBabel11021811483D
libRbt.so/2013.1/901 2013/11/27
 11 12  0  0  0  0  0  0  0  0999 V2000
   34.9693   -9.9405  -38.6766 N   0  0  0  0  0  0  0  0  0  0  0  0
   35.2315   -8.6731  -39.0290 C   0  0  0  0  0  0  0  0  0  0  0  0
   34.2898   -7.9674  -39.8385 N   0  0  0  0  0  0  0  0  0  0  0  0
   36.3537   -8.0599  -38.6380 N   0  0  0  0  0  0  0  0  0  0  0  0
   37.2778   -8.7247  -37.8557 C   0  0  0  0  0  0  0  0  0  0  0  0
   37.0264  -10.0209  -37.4885 C   0  0  0  0  0  0  0  0  0  0  0  0
   35.8176  -10.6612  -37.9157 C   0  0  0  0  0  0  0  0  0  0  0  0
   35.4461  -12.3306  -37.4596 S   0  0  0  0  0  0  0  0  0  0  0  0
   38.0835  -10.4483  -36.7263 N   0  0  0  0  0  0  0  0  0  0  0  0
   38.9754   -9.4282  -36.6263 C   0  0  0  0  0  0  0  0  0  0  0  0
   38.4969   -8.3548  -37.3162 N   0  0  0  0  0  0  0  0  0  0  0  0
  1  2  2  0  0  0  0
  1  7  1  0  0  0  0
  2  3  1  0  0  0  0
  2  4  1  0  0  0  0
  4  5  2  0  0  0  0
  5  6  1  0  0  0  0
  5 11  1  0  0  0  0
  6  7  2  0  0  0  0
  6  9  1  0  0  0  0
  7  8  1  0  0  0  0
  9 10  1  0  0  0  0
 10 11  2  0  0  0  0
M  END
>  <CHROM.1>
36.39468929,-9.83999670,-37.91326448,2.97269719,0.48175317,2.76497242

>  <Name>
ligand

>  <RI>
0

>  <Rbt.Current_Directory>
/home/itssahil/PROJECTS/Mol_Feturizer/New_Systems/rnas/3RKF

>  <Rbt.Executable>
rbdock ($Id: //depot/dev/client3/rdock/2013.1/src/exe/rbdock.cxx#4 $)

>  <Rbt.Library>
libRbt.so (2013.1, Build901 2013/11/27)

>  <Rbt.Parameter_File>
/export/apps/rDock/src/rDock_2013.1_src/data/scripts/dock_solv.prm

>  <Rbt.Receptor>
prm/pocket_docking_7.prm

>  <SCORE>
-16.5381

>  <SCORE.INTER>
-16.5381

>  <SCORE.INTER.CONST>
1

>  <SCORE.INTER.POLAR>
0

>  <SCORE.INTER.ROT>
0

>  <SCORE.INTER.SOLV>
10.7349

>  <SCORE.INTER.VDW>
-18.2037

>  <SCORE.INTER.norm>
-1.50347

>  <SCORE.INTRA>
0

>  <SCORE.INTRA.DIHEDRAL>
0

>  <SCORE.INTRA.DIHEDRAL.0>
0

>  <SCORE.INTRA.POLAR>
0

>  <SCORE.INTRA.POLAR.0>
0

>  <SCORE.INTRA.REPUL>
0

>  <SCORE.INTRA.REPUL.0>
0

>  <SCORE.INTRA.SOLV>
0

>  <SCORE.INTRA.SOLV.lig_0>
-28.6198

>  <SCORE.INTRA.VDW>
0

>  <SCORE.INTRA.VDW.0>
0

>  <SCORE.INTRA.norm>
0

>  <SCORE.RESTR>
0

>  <SCORE.RESTR.CAVITY>
0

>  <SCORE.RESTR.norm>
0

>  <SCORE.SYSTEM>
0

>  <SCORE.SYSTEM.CONST>
0

>  <SCORE.SYSTEM.DIHEDRAL>
0

>  <SCORE.SYSTEM.SOLV>
0

>  <SCORE.SYSTEM.norm>
0

>  <SCORE.heavy>
11

>  <SCORE.norm>
-1.50347

>  <RMSD>
3.454

$$$$
ligand
 OpenBabel11021811483D
libRbt.so/2013.1/901 2013/11/27
 11 12  0  0  0  0  0  0  0  0999 V2000
   34.9677   -9.9445  -38.6825 N   0  0  0  0  0  0  0  0  0  0  0  0
   35.2252   -8.6735  -39.0253 C   0  0  0  0  0  0  0  0  0  0  0  0
   34.2815   -7.9658  -39.8308 N   0  0  0  0  0  0  0  0  0  0  0  0
   36.3444   -8.0586  -38.6286 N   0  0  0  0  0  0  0  0  0  0  0  0
   37.2704   -8.7253  -37.8501 C   0  0  0  0  0  0  0  0  0  0  0  0
   37.0239  -10.0251  -37.4926 C   0  0  0  0  0  0  0  0  0  0  0  0
   35.8181  -10.6672  -37.9258 C   0  0  0  0  0  0  0  0  0  0  0  0
   35.4530  -12.3414  -37.4823 S   0  0  0  0  0  0  0  0  0  0  0  0
   38.0818  -10.4538  -36.7324 N   0  0  0  0  0  0  0  0  0  0  0  0
   38.9694   -9.4308  -36.6238 C   0  0  0  0  0  0  0  0  0  0  0  0
   38.4873   -8.3543  -37.3065 N   0  0  0  0  0  0  0  0  0  0  0  0
  1  2  2  0  0  0  0
  1  7  1  0  0  0  0
  2  3  1  0  0  0  0
  2  4  1  0  0  0  0
  4  5  2  0  0  0  0
  5  6  1  0  0  0  0
  5 11  1  0  0  0  0
  6  7  2  0  0  0  0
  6  9  1  0  0  0  0
  7  8  1  0  0  0  0
  9 10  1  0  0  0  0
 10 11  2  0  0  0  0
M  END
>  <CHROM.1>
36.39185945,-9.84373612,-37.91676615,2.96887222,0.48428982,2.77401459

>  <Name>
ligand

>  <RI>
0

>  <Rbt.Current_Directory>
/home/itssahil/PROJECTS/Mol_Feturizer/New_Systems/rnas/3RKF

>  <Rbt.Executable>
rbdock ($Id: //depot/dev/client3/rdock/2013.1/src/exe/rbdock.cxx#4 $)

>  <Rbt.Library>
libRbt.so (2013.1, Build901 2013/11/27)

>  <Rbt.Parameter_File>
/export/apps/rDock/src/rDock_2013.1_src/data/scripts/dock_solv.prm

>  <Rbt.Receptor>
prm/pocket_docking_8.prm

>  <SCORE>
-16.5346

>  <SCORE.INTER>
-16.5346

>  <SCORE.INTER.CONST>
1

>  <SCORE.INTER.POLAR>
0

>  <SCORE.INTER.ROT>
0

>  <SCORE.INTER.SOLV>
10.6984

>  <SCORE.INTER.VDW>
-18.1892

>  <SCORE.INTER.norm>
-1.50315

>  <SCORE.INTRA>
0

>  <SCORE.INTRA.DIHEDRAL>
0

>  <SCORE.INTRA.DIHEDRAL.0>
0

>  <SCORE.INTRA.POLAR>
0

>  <SCORE.INTRA.POLAR.0>
0

>  <SCORE.INTRA.REPUL>
0

>  <SCORE.INTRA.REPUL.0>
0

>  <SCORE.INTRA.SOLV>
0

>  <SCORE.INTRA.SOLV.lig_0>
-28.6198

>  <SCORE.INTRA.VDW>
0

>  <SCORE.INTRA.VDW.0>
0

>  <SCORE.INTRA.norm>
0

>  <SCORE.RESTR>
0

>  <SCORE.RESTR.CAVITY>
0

>  <SCORE.RESTR.norm>
0

>  <SCORE.SYSTEM>
0

>  <SCORE.SYSTEM.CONST>
0

>  <SCORE.SYSTEM.DIHEDRAL>
0

>  <SCORE.SYSTEM.SOLV>
0

>  <SCORE.SYSTEM.norm>
0

>  <SCORE.heavy>
11

>  <SCORE.norm>
-1.50315

>  <RMSD>
3.454

$$$$
ligand
 OpenBabel11021811483D
libRbt.so/2013.1/901 2013/11/27
 11 12  0  0  0  0  0  0  0  0999 V2000
   34.9639   -9.9406  -38.6768 N   0  0  0  0  0  0  0  0  0  0  0  0
   35.2245   -8.6719  -39.0261 C   0  0  0  0  0  0  0  0  0  0  0  0
   34.2812   -7.9651  -39.8330 N   0  0  0  0  0  0  0  0  0  0  0  0
   36.3463   -8.0586  -38.6346 N   0  0  0  0  0  0  0  0  0  0  0  0
   37.2719   -8.7244  -37.8549 C   0  0  0  0  0  0  0  0  0  0  0  0
   37.0222  -10.0218  -37.4908 C   0  0  0  0  0  0  0  0  0  0  0  0
   35.8137  -10.6623  -37.9185 C   0  0  0  0  0  0  0  0  0  0  0  0
   35.4444  -12.3333  -37.4665 S   0  0  0  0  0  0  0  0  0  0  0  0
   38.0805  -10.4501  -36.7307 N   0  0  0  0  0  0  0  0  0  0  0  0
   38.9713   -9.4293  -36.6288 C   0  0  0  0  0  0  0  0  0  0  0  0
   38.4911   -8.3546  -37.3155 N   0  0  0  0  0  0  0  0  0  0  0  0
  1  2  2  0  0  0  0
  1  7  1  0  0  0  0
  2  3  1  0  0  0  0
  2  4  1  0  0  0  0
  4  5  2  0  0  0  0
  5  6  1  0  0  0  0
  5 11  1  0  0  0  0
  6  7  2  0  0  0  0
  6  9  1  0  0  0  0
  7  8  1  0  0  0  0
  9 10  1  0  0  0  0
 10 11  2  0  0  0  0
M  END
>  <CHROM.1>
36.38990209,-9.84049636,-37.91450675,2.97119869,0.48128329,2.76826548

>  <Name>
ligand

>  <RI>
0

>  <Rbt.Current_Directory>
/home/itssahil/PROJECTS/Mol_Feturizer/New_Systems/rnas/3RKF

>  <Rbt.Executable>
rbdock ($Id: //depot/dev/client3/rdock/2013.1/src/exe/rbdock.cxx#4 $)

>  <Rbt.Library>
libRbt.so (2013.1, Build901 2013/11/27)

>  <Rbt.Parameter_File>
/export/apps/rDock/src/rDock_2013.1_src/data/scripts/dock_solv.prm

>  <Rbt.Receptor>
prm/blind_docking_100.prm

>  <SCORE>
-16.5375

>  <SCORE.INTER>
-16.5375

>  <SCORE.INTER.CONST>
1

>  <SCORE.INTER.POLAR>
0

>  <SCORE.INTER.ROT>
0

>  <SCORE.INTER.SOLV>
10.6983

>  <SCORE.INTER.VDW>
-18.1911

>  <SCORE.INTER.norm>
-1.50341

>  <SCORE.INTRA>
0

>  <SCORE.INTRA.DIHEDRAL>
0

>  <SCORE.INTRA.DIHEDRAL.0>
0

>  <SCORE.INTRA.POLAR>
0

>  <SCORE.INTRA.POLAR.0>
0

>  <SCORE.INTRA.REPUL>
0

>  <SCORE.INTRA.REPUL.0>
0

>  <SCORE.INTRA.SOLV>
0

>  <SCORE.INTRA.SOLV.lig_0>
-28.6198

>  <SCORE.INTRA.VDW>
0

>  <SCORE.INTRA.VDW.0>
0

>  <SCORE.INTRA.norm>
0

>  <SCORE.RESTR>
0

>  <SCORE.RESTR.CAVITY>
0

>  <SCORE.RESTR.norm>
0

>  <SCORE.SYSTEM>
0

>  <SCORE.SYSTEM.CONST>
0

>  <SCORE.SYSTEM.DIHEDRAL>
0

>  <SCORE.SYSTEM.SOLV>
0

>  <SCORE.SYSTEM.norm>
0

>  <SCORE.heavy>
11

>  <SCORE.norm>
-1.50341

>  <RMSD>
3.455

$$$$
ligand
 OpenBabel11021811483D
libRbt.so/2013.1/901 2013/11/27
 11 12  0  0  0  0  0  0  0  0999 V2000
   34.9650   -9.9495  -38.6690 N   0  0  0  0  0  0  0  0  0  0  0  0
   35.2204   -8.6786  -39.0140 C   0  0  0  0  0  0  0  0  0  0  0  0
   34.2724   -7.9716  -39.8152 N   0  0  0  0  0  0  0  0  0  0  0  0
   36.3414   -8.0631  -38.6233 N   0  0  0  0  0  0  0  0  0  0  0  0
   37.2715   -8.7290  -37.8490 C   0  0  0  0  0  0  0  0  0  0  0  0
   37.0271  -10.0287  -37.4894 C   0  0  0  0  0  0  0  0  0  0  0  0
   35.8194  -10.6715  -37.9162 C   0  0  0  0  0  0  0  0  0  0  0  0
   35.4570  -12.3454  -37.4698 S   0  0  0  0  0  0  0  0  0  0  0  0
   38.0890  -10.4566  -36.7343 N   0  0  0  0  0  0  0  0  0  0  0  0
   38.9768   -9.4333  -36.6309 C   0  0  0  0  0  0  0  0  0  0  0  0
   38.4910   -8.3574  -37.3118 N   0  0  0  0  0  0  0  0  0  0  0  0
  1  2  2  0  0  0  0
  1  7  1  0  0  0  0
  2  3  1  0  0  0  0
  2  4  1  0  0  0  0
  4  5  2  0  0  0  0
  5  6  1  0  0  0  0
  5 11  1  0  0  0  0
  6  7  2  0  0  0  0
  6  9  1  0  0  0  0
  7  8  1  0  0  0  0
  9 10  1  0  0  0  0
 10 11  2  0  0  0  0
M  END
>  <CHROM.1>
36.39293033,-9.84777312,-37.91055849,2.96653242,0.47969263,2.77444980

>  <Name>
ligand

>  <RI>
0

>  <Rbt.Current_Directory>
/home/itssahil/PROJECTS/Mol_Feturizer/New_Systems/rnas/3RKF

>  <Rbt.Executable>
rbdock ($Id: //depot/dev/client3/rdock/2013.1/src/exe/rbdock.cxx#4 $)

>  <Rbt.Library>
libRbt.so (2013.1, Build901 2013/11/27)

>  <Rbt.Parameter_File>
/export/apps/rDock/src/rDock_2013.1_src/data/scripts/dock_solv.prm

>  <Rbt.Receptor>
prm/blind_docking_60.prm

>  <SCORE>
-16.5332

>  <SCORE.INTER>
-16.5332

>  <SCORE.INTER.CONST>
1

>  <SCORE.INTER.POLAR>
0

>  <SCORE.INTER.ROT>
0

>  <SCORE.INTER.SOLV>
10.6502

>  <SCORE.INTER.VDW>
-18.1722

>  <SCORE.INTER.norm>
-1.50302

>  <SCORE.INTRA>
0

>  <SCORE.INTRA.DIHEDRAL>
0

>  <SCORE.INTRA.DIHEDRAL.0>
0

>  <SCORE.INTRA.POLAR>
0

>  <SCORE.INTRA.POLAR.0>
0

>  <SCORE.INTRA.REPUL>
0

>  <SCORE.INTRA.REPUL.0>
0

>  <SCORE.INTRA.SOLV>
0

>  <SCORE.INTRA.SOLV.lig_0>
-28.6198

>  <SCORE.INTRA.VDW>
0

>  <SCORE.INTRA.VDW.0>
0

>  <SCORE.INTRA.norm>
0

>  <SCORE.RESTR>
0

>  <SCORE.RESTR.CAVITY>
0

>  <SCORE.RESTR.norm>
0

>  <SCORE.SYSTEM>
0

>  <SCORE.SYSTEM.CONST>
0

>  <SCORE.SYSTEM.DIHEDRAL>
0

>  <SCORE.SYSTEM.SOLV>
0

>  <SCORE.SYSTEM.norm>
0

>  <SCORE.heavy>
11

>  <SCORE.norm>
-1.50302

>  <RMSD>
3.455

$$$$
ligand
 OpenBabel11021811483D
libRbt.so/2013.1/901 2013/11/27
 11 12  0  0  0  0  0  0  0  0999 V2000
   34.9690   -9.9396  -38.6779 N   0  0  0  0  0  0  0  0  0  0  0  0
   35.2313   -8.6724  -39.0309 C   0  0  0  0  0  0  0  0  0  0  0  0
   34.2898   -7.9673  -39.8414 N   0  0  0  0  0  0  0  0  0  0  0  0
   36.3531   -8.0588  -38.6398 N   0  0  0  0  0  0  0  0  0  0  0  0
   37.2770   -8.7229  -37.8566 C   0  0  0  0  0  0  0  0  0  0  0  0
   37.0256  -10.0189  -37.4887 C   0  0  0  0  0  0  0  0  0  0  0  0
   35.8171  -10.6597  -37.9161 C   0  0  0  0  0  0  0  0  0  0  0  0
   35.4457  -12.3289  -37.4591 S   0  0  0  0  0  0  0  0  0  0  0  0
   38.0824  -10.4457  -36.7258 N   0  0  0  0  0  0  0  0  0  0  0  0
   38.9740   -9.4254  -36.6259 C   0  0  0  0  0  0  0  0  0  0  0  0
   38.4957   -8.3524  -37.3168 N   0  0  0  0  0  0  0  0  0  0  0  0
  1  2  2  0  0  0  0
  1  7  1  0  0  0  0
  2  3  1  0  0  0  0
  2  4  1  0  0  0  0
  4  5  2  0  0  0  0
  5  6  1  0  0  0  0
  5 11  1  0  0  0  0
  6  7  2  0  0  0  0
  6  9  1  0  0  0  0
  7  8  1  0  0  0  0
  9 10  1  0  0  0  0
 10 11  2  0  0  0  0
M  END
>  <CHROM.1>
36.39404777,-9.83838402,-37.91389293,2.97273390,0.48226602,2.76431057

>  <Name>
ligand

>  <RI>
0

>  <Rbt.Current_Directory>
/home/itssahil/PROJECTS/Mol_Feturizer/New_Systems/rnas/3RKF

>  <Rbt.Executable>
rbdock ($Id: //depot/dev/client3/rdock/2013.1/src/exe/rbdock.cxx#4 $)

>  <Rbt.Library>
libRbt.so (2013.1, Build901 2013/11/27)

>  <Rbt.Parameter_File>
/export/apps/rDock/src/rDock_2013.1_src/data/scripts/dock_solv.prm

>  <Rbt.Receptor>
prm/pocket_docking_4.prm

>  <SCORE>
-16.5376

>  <SCORE.INTER>
-16.5376

>  <SCORE.INTER.CONST>
1

>  <SCORE.INTER.POLAR>
0

>  <SCORE.INTER.ROT>
0

>  <SCORE.INTER.SOLV>
10.7391

>  <SCORE.INTER.VDW>
-18.2048

>  <SCORE.INTER.norm>
-1.50342

>  <SCORE.INTRA>
0

>  <SCORE.INTRA.DIHEDRAL>
0

>  <SCORE.INTRA.DIHEDRAL.0>
0

>  <SCORE.INTRA.POLAR>
0

>  <SCORE.INTRA.POLAR.0>
0

>  <SCORE.INTRA.REPUL>
0

>  <SCORE.INTRA.REPUL.0>
0

>  <SCORE.INTRA.SOLV>
0

>  <SCORE.INTRA.SOLV.lig_0>
-28.6198

>  <SCORE.INTRA.VDW>
0

>  <SCORE.INTRA.VDW.0>
0

>  <SCORE.INTRA.norm>
0

>  <SCORE.RESTR>
0

>  <SCORE.RESTR.CAVITY>
0

>  <SCORE.RESTR.norm>
0

>  <SCORE.SYSTEM>
0

>  <SCORE.SYSTEM.CONST>
0

>  <SCORE.SYSTEM.DIHEDRAL>
0

>  <SCORE.SYSTEM.SOLV>
0

>  <SCORE.SYSTEM.norm>
0

>  <SCORE.heavy>
11

>  <SCORE.norm>
-1.50342

>  <RMSD>
3.455

$$$$
ligand
 OpenBabel11021811483D
libRbt.so/2013.1/901 2013/11/27
 11 12  0  0  0  0  0  0  0  0999 V2000
   34.9938   -9.9927  -38.6370 N   0  0  0  0  0  0  0  0  0  0  0  0
   35.2422   -8.7233  -38.9923 C   0  0  0  0  0  0  0  0  0  0  0  0
   34.2999   -8.0346  -39.8158 N   0  0  0  0  0  0  0  0  0  0  0  0
   36.3510   -8.0926  -38.5914 N   0  0  0  0  0  0  0  0  0  0  0  0
   37.2754   -8.7406  -37.7955 C   0  0  0  0  0  0  0  0  0  0  0  0
   37.0381  -10.0386  -37.4251 C   0  0  0  0  0  0  0  0  0  0  0  0
   35.8434  -10.6979  -37.8631 C   0  0  0  0  0  0  0  0  0  0  0  0
   35.4903  -12.3703  -37.4034 S   0  0  0  0  0  0  0  0  0  0  0  0
   38.0923  -10.4476  -36.6490 N   0  0  0  0  0  0  0  0  0  0  0  0
   38.9685   -9.4146  -36.5436 C   0  0  0  0  0  0  0  0  0  0  0  0
   38.4829   -8.3511  -37.2439 N   0  0  0  0  0  0  0  0  0  0  0  0
  1  2  2  0  0  0  0
  1  7  1  0  0  0  0
  2  3  1  0  0  0  0
  2  4  1  0  0  0  0
  4  5  2  0  0  0  0
  5  6  1  0  0  0  0
  5 11  1  0  0  0  0
  6  7  2  0  0  0  0
  6  9  1  0  0  0  0
  7  8  1  0  0  0  0
  9 10  1  0  0  0  0
 10 11  2  0  0  0  0
M  END
>  <CHROM.1>
36.40880939,-9.86857688,-37.85792948,2.96258136,0.49756098,2.76512412

>  <Name>
ligand

>  <RI>
0

>  <Rbt.Current_Directory>
/home/itssahil/PROJECTS/Mol_Feturizer/New_Systems/rnas/3RKF

>  <Rbt.Executable>
rbdock ($Id: //depot/dev/client3/rdock/2013.1/src/exe/rbdock.cxx#4 $)

>  <Rbt.Library>
libRbt.so (2013.1, Build901 2013/11/27)

>  <Rbt.Parameter_File>
/export/apps/rDock/src/rDock_2013.1_src/data/scripts/dock_solv.prm

>  <Rbt.Receptor>
prm/pocket_docking_6.prm

>  <SCORE>
-16.4897

>  <SCORE.INTER>
-16.4897

>  <SCORE.INTER.CONST>
1

>  <SCORE.INTER.POLAR>
0

>  <SCORE.INTER.ROT>
0

>  <SCORE.INTER.SOLV>
10.7419

>  <SCORE.INTER.VDW>
-18.1737

>  <SCORE.INTER.norm>
-1.49906

>  <SCORE.INTRA>
0

>  <SCORE.INTRA.DIHEDRAL>
0

>  <SCORE.INTRA.DIHEDRAL.0>
0

>  <SCORE.INTRA.POLAR>
0

>  <SCORE.INTRA.POLAR.0>
0

>  <SCORE.INTRA.REPUL>
0

>  <SCORE.INTRA.REPUL.0>
0

>  <SCORE.INTRA.SOLV>
0

>  <SCORE.INTRA.SOLV.lig_0>
-28.6198

>  <SCORE.INTRA.VDW>
0

>  <SCORE.INTRA.VDW.0>
0

>  <SCORE.INTRA.norm>
0

>  <SCORE.RESTR>
0

>  <SCORE.RESTR.CAVITY>
0

>  <SCORE.RESTR.norm>
0

>  <SCORE.SYSTEM>
0

>  <SCORE.SYSTEM.CONST>
0

>  <SCORE.SYSTEM.DIHEDRAL>
0

>  <SCORE.SYSTEM.SOLV>
0

>  <SCORE.SYSTEM.norm>
0

>  <SCORE.heavy>
11

>  <SCORE.norm>
-1.49906

>  <RMSD>
3.455

$$$$
ligand
 OpenBabel11021811483D
libRbt.so/2013.1/901 2013/11/27
 11 12  0  0  0  0  0  0  0  0999 V2000
   34.9676   -9.9554  -38.6474 N   0  0  0  0  0  0  0  0  0  0  0  0
   35.2261   -8.6881  -39.0029 C   0  0  0  0  0  0  0  0  0  0  0  0
   34.2772   -7.9836  -39.8052 N   0  0  0  0  0  0  0  0  0  0  0  0
   36.3510   -8.0739  -38.6218 N   0  0  0  0  0  0  0  0  0  0  0  0
   37.2821   -8.7374  -37.8467 C   0  0  0  0  0  0  0  0  0  0  0  0
   37.0346  -10.0335  -37.4763 C   0  0  0  0  0  0  0  0  0  0  0  0
   35.8226  -10.6749  -37.8930 C   0  0  0  0  0  0  0  0  0  0  0  0
   35.4561  -12.3442  -37.4325 S   0  0  0  0  0  0  0  0  0  0  0  0
   38.0982  -10.4596  -36.7227 N   0  0  0  0  0  0  0  0  0  0  0  0
   38.9902   -9.4389  -36.6308 C   0  0  0  0  0  0  0  0  0  0  0  0
   38.5054   -8.3663  -37.3176 N   0  0  0  0  0  0  0  0  0  0  0  0
  1  2  2  0  0  0  0
  1  7  1  0  0  0  0
  2  3  1  0  0  0  0
  2  4  1  0  0  0  0
  4  5  2  0  0  0  0
  5  6  1  0  0  0  0
  5 11  1  0  0  0  0
  6  7  2  0  0  0  0
  6  9  1  0  0  0  0
  7  8  1  0  0  0  0
  9 10  1  0  0  0  0
 10 11  2  0  0  0  0
M  END
>  <CHROM.1>
36.39921701,-9.85335961,-37.89599840,2.96858365,0.47426439,2.76608070

>  <Name>
ligand

>  <RI>
0

>  <Rbt.Current_Directory>
/home/itssahil/PROJECTS/Mol_Feturizer/New_Systems/rnas/3RKF

>  <Rbt.Executable>
rbdock ($Id: //depot/dev/client3/rdock/2013.1/src/exe/rbdock.cxx#4 $)

>  <Rbt.Library>
libRbt.so (2013.1, Build901 2013/11/27)

>  <Rbt.Parameter_File>
/export/apps/rDock/src/rDock_2013.1_src/data/scripts/dock_solv.prm

>  <Rbt.Receptor>
prm/pocket_docking_7.prm

>  <SCORE>
-16.4874

>  <SCORE.INTER>
-16.4874

>  <SCORE.INTER.CONST>
1

>  <SCORE.INTER.POLAR>
0

>  <SCORE.INTER.ROT>
0

>  <SCORE.INTER.SOLV>
10.6538

>  <SCORE.INTER.VDW>
-18.1428

>  <SCORE.INTER.norm>
-1.49885

>  <SCORE.INTRA>
0

>  <SCORE.INTRA.DIHEDRAL>
0

>  <SCORE.INTRA.DIHEDRAL.0>
0

>  <SCORE.INTRA.POLAR>
0

>  <SCORE.INTRA.POLAR.0>
0

>  <SCORE.INTRA.REPUL>
0

>  <SCORE.INTRA.REPUL.0>
0

>  <SCORE.INTRA.SOLV>
0

>  <SCORE.INTRA.SOLV.lig_0>
-28.6198

>  <SCORE.INTRA.VDW>
0

>  <SCORE.INTRA.VDW.0>
0

>  <SCORE.INTRA.norm>
0

>  <SCORE.RESTR>
0

>  <SCORE.RESTR.CAVITY>
0

>  <SCORE.RESTR.norm>
0

>  <SCORE.SYSTEM>
0

>  <SCORE.SYSTEM.CONST>
0

>  <SCORE.SYSTEM.DIHEDRAL>
0

>  <SCORE.SYSTEM.SOLV>
0

>  <SCORE.SYSTEM.norm>
0

>  <SCORE.heavy>
11

>  <SCORE.norm>
-1.49885

>  <RMSD>
3.455

$$$$
ligand
 OpenBabel11021811483D
libRbt.so/2013.1/901 2013/11/27
 11 12  0  0  0  0  0  0  0  0999 V2000
   34.9674   -9.9421  -38.6725 N   0  0  0  0  0  0  0  0  0  0  0  0
   35.2290   -8.6746  -39.0254 C   0  0  0  0  0  0  0  0  0  0  0  0
   34.2865   -7.9694  -39.8345 N   0  0  0  0  0  0  0  0  0  0  0  0
   36.3513   -8.0610  -38.6354 N   0  0  0  0  0  0  0  0  0  0  0  0
   37.2762   -8.7253  -37.8535 C   0  0  0  0  0  0  0  0  0  0  0  0
   37.0254  -10.0215  -37.4858 C   0  0  0  0  0  0  0  0  0  0  0  0
   35.8165  -10.6623  -37.9120 C   0  0  0  0  0  0  0  0  0  0  0  0
   35.4459  -12.3317  -37.4552 S   0  0  0  0  0  0  0  0  0  0  0  0
   38.0832  -10.4484  -36.7243 N   0  0  0  0  0  0  0  0  0  0  0  0
   38.9748   -9.4280  -36.6251 C   0  0  0  0  0  0  0  0  0  0  0  0
   38.4955   -8.3549  -37.3150 N   0  0  0  0  0  0  0  0  0  0  0  0
  1  2  2  0  0  0  0
  1  7  1  0  0  0  0
  2  3  1  0  0  0  0
  2  4  1  0  0  0  0
  4  5  2  0  0  0  0
  5  6  1  0  0  0  0
  5 11  1  0  0  0  0
  6  7  2  0  0  0  0
  6  9  1  0  0  0  0
  7  8  1  0  0  0  0
  9 10  1  0  0  0  0
 10 11  2  0  0  0  0
M  END
>  <CHROM.1>
36.39332240,-9.84091915,-37.91019238,2.97208132,0.48120846,2.76500185

>  <Name>
ligand

>  <RI>
0

>  <Rbt.Current_Directory>
/home/itssahil/PROJECTS/Mol_Feturizer/New_Systems/rnas/3RKF

>  <Rbt.Executable>
rbdock ($Id: //depot/dev/client3/rdock/2013.1/src/exe/rbdock.cxx#4 $)

>  <Rbt.Library>
libRbt.so (2013.1, Build901 2013/11/27)

>  <Rbt.Parameter_File>
/export/apps/rDock/src/rDock_2013.1_src/data/scripts/dock_solv.prm

>  <Rbt.Receptor>
prm/pocket_docking_7.prm

>  <SCORE>
-16.5375

>  <SCORE.INTER>
-16.5375

>  <SCORE.INTER.CONST>
1

>  <SCORE.INTER.POLAR>
0

>  <SCORE.INTER.ROT>
0

>  <SCORE.INTER.SOLV>
10.7171

>  <SCORE.INTER.VDW>
-18.1974

>  <SCORE.INTER.norm>
-1.50341

>  <SCORE.INTRA>
0

>  <SCORE.INTRA.DIHEDRAL>
0

>  <SCORE.INTRA.DIHEDRAL.0>
0

>  <SCORE.INTRA.POLAR>
0

>  <SCORE.INTRA.POLAR.0>
0

>  <SCORE.INTRA.REPUL>
0

>  <SCORE.INTRA.REPUL.0>
0

>  <SCORE.INTRA.SOLV>
0

>  <SCORE.INTRA.SOLV.lig_0>
-28.6198

>  <SCORE.INTRA.VDW>
0

>  <SCORE.INTRA.VDW.0>
0

>  <SCORE.INTRA.norm>
0

>  <SCORE.RESTR>
0

>  <SCORE.RESTR.CAVITY>
0

>  <SCORE.RESTR.norm>
0

>  <SCORE.SYSTEM>
0

>  <SCORE.SYSTEM.CONST>
0

>  <SCORE.SYSTEM.DIHEDRAL>
0

>  <SCORE.SYSTEM.SOLV>
0

>  <SCORE.SYSTEM.norm>
0

>  <SCORE.heavy>
11

>  <SCORE.norm>
-1.50341

>  <RMSD>
3.455

$$$$
ligand
 OpenBabel11021811483D
libRbt.so/2013.1/901 2013/11/27
 11 12  0  0  0  0  0  0  0  0999 V2000
   34.9620   -9.9375  -38.6784 N   0  0  0  0  0  0  0  0  0  0  0  0
   35.2232   -8.6694  -39.0292 C   0  0  0  0  0  0  0  0  0  0  0  0
   34.2814   -7.9638  -39.8387 N   0  0  0  0  0  0  0  0  0  0  0  0
   36.3444   -8.0555  -38.6367 N   0  0  0  0  0  0  0  0  0  0  0  0
   37.2687   -8.7201  -37.8544 C   0  0  0  0  0  0  0  0  0  0  0  0
   37.0184  -10.0169  -37.4887 C   0  0  0  0  0  0  0  0  0  0  0  0
   35.8106  -10.6581  -37.9176 C   0  0  0  0  0  0  0  0  0  0  0  0
   35.4406  -12.3284  -37.4637 S   0  0  0  0  0  0  0  0  0  0  0  0
   38.0753  -10.4441  -36.7263 N   0  0  0  0  0  0  0  0  0  0  0  0
   38.9660   -9.4232  -36.6244 C   0  0  0  0  0  0  0  0  0  0  0  0
   38.4869   -8.3494  -37.3135 N   0  0  0  0  0  0  0  0  0  0  0  0
  1  2  2  0  0  0  0
  1  7  1  0  0  0  0
  2  3  1  0  0  0  0
  2  4  1  0  0  0  0
  4  5  2  0  0  0  0
  5  6  1  0  0  0  0
  5 11  1  0  0  0  0
  6  7  2  0  0  0  0
  6  9  1  0  0  0  0
  7  8  1  0  0  0  0
  9 10  1  0  0  0  0
 10 11  2  0  0  0  0
M  END
>  <CHROM.1>
36.38677726,-9.83628549,-37.91384473,2.97188660,0.48287204,2.76643683

>  <Name>
ligand

>  <RI>
0

>  <Rbt.Current_Directory>
/home/itssahil/PROJECTS/Mol_Feturizer/New_Systems/rnas/3RKF

>  <Rbt.Executable>
rbdock ($Id: //depot/dev/client3/rdock/2013.1/src/exe/rbdock.cxx#4 $)

>  <Rbt.Library>
libRbt.so (2013.1, Build901 2013/11/27)

>  <Rbt.Parameter_File>
/export/apps/rDock/src/rDock_2013.1_src/data/scripts/dock_solv.prm

>  <Rbt.Receptor>
prm/pocket_docking_8.prm

>  <SCORE>
-16.5374

>  <SCORE.INTER>
-16.5374

>  <SCORE.INTER.CONST>
1

>  <SCORE.INTER.POLAR>
0

>  <SCORE.INTER.ROT>
0

>  <SCORE.INTER.SOLV>
10.701

>  <SCORE.INTER.VDW>
-18.1919

>  <SCORE.INTER.norm>
-1.5034

>  <SCORE.INTRA>
0

>  <SCORE.INTRA.DIHEDRAL>
0

>  <SCORE.INTRA.DIHEDRAL.0>
0

>  <SCORE.INTRA.POLAR>
0

>  <SCORE.INTRA.POLAR.0>
0

>  <SCORE.INTRA.REPUL>
0

>  <SCORE.INTRA.REPUL.0>
0

>  <SCORE.INTRA.SOLV>
0

>  <SCORE.INTRA.SOLV.lig_0>
-28.6198

>  <SCORE.INTRA.VDW>
0

>  <SCORE.INTRA.VDW.0>
0

>  <SCORE.INTRA.norm>
0

>  <SCORE.RESTR>
0

>  <SCORE.RESTR.CAVITY>
0

>  <SCORE.RESTR.norm>
0

>  <SCORE.SYSTEM>
0

>  <SCORE.SYSTEM.CONST>
0

>  <SCORE.SYSTEM.DIHEDRAL>
0

>  <SCORE.SYSTEM.SOLV>
0

>  <SCORE.SYSTEM.norm>
0

>  <SCORE.heavy>
11

>  <SCORE.norm>
-1.5034

>  <RMSD>
3.455

$$$$
ligand
 OpenBabel11021811483D
libRbt.so/2013.1/901 2013/11/27
 11 12  0  0  0  0  0  0  0  0999 V2000
   34.9648   -9.9435  -38.6743 N   0  0  0  0  0  0  0  0  0  0  0  0
   35.2226   -8.6739  -39.0222 C   0  0  0  0  0  0  0  0  0  0  0  0
   34.2778   -7.9683  -39.8284 N   0  0  0  0  0  0  0  0  0  0  0  0
   36.3430   -8.0584  -38.6299 N   0  0  0  0  0  0  0  0  0  0  0  0
   37.2700   -8.7230  -37.8508 C   0  0  0  0  0  0  0  0  0  0  0  0
   37.0232  -10.0214  -37.4882 C   0  0  0  0  0  0  0  0  0  0  0  0
   35.8162  -10.6642  -37.9168 C   0  0  0  0  0  0  0  0  0  0  0  0
   35.4507  -12.3365  -37.4666 S   0  0  0  0  0  0  0  0  0  0  0  0
   38.0823  -10.4481  -36.7285 N   0  0  0  0  0  0  0  0  0  0  0  0
   38.9709   -9.4255  -36.6253 C   0  0  0  0  0  0  0  0  0  0  0  0
   38.4883   -8.3510  -37.3109 N   0  0  0  0  0  0  0  0  0  0  0  0
  1  2  2  0  0  0  0
  1  7  1  0  0  0  0
  2  3  1  0  0  0  0
  2  4  1  0  0  0  0
  4  5  2  0  0  0  0
  5  6  1  0  0  0  0
  5 11  1  0  0  0  0
  6  7  2  0  0  0  0
  6  9  1  0  0  0  0
  7  8  1  0  0  0  0
  9 10  1  0  0  0  0
 10 11  2  0  0  0  0
M  END
>  <CHROM.1>
36.39052665,-9.84105593,-37.91176879,2.96884813,0.48221616,2.77048216

>  <Name>
ligand

>  <RI>
0

>  <Rbt.Current_Directory>
/home/itssahil/PROJECTS/Mol_Feturizer/New_Systems/rnas/3RKF

>  <Rbt.Executable>
rbdock ($Id: //depot/dev/client3/rdock/2013.1/src/exe/rbdock.cxx#4 $)

>  <Rbt.Library>
libRbt.so (2013.1, Build901 2013/11/27)

>  <Rbt.Parameter_File>
/export/apps/rDock/src/rDock_2013.1_src/data/scripts/dock_solv.prm

>  <Rbt.Receptor>
prm/blind_docking_100.prm

>  <SCORE>
-16.5368

>  <SCORE.INTER>
-16.5368

>  <SCORE.INTER.CONST>
1

>  <SCORE.INTER.POLAR>
0

>  <SCORE.INTER.ROT>
0

>  <SCORE.INTER.SOLV>
10.6797

>  <SCORE.INTER.VDW>
-18.1844

>  <SCORE.INTER.norm>
-1.50334

>  <SCORE.INTRA>
0

>  <SCORE.INTRA.DIHEDRAL>
0

>  <SCORE.INTRA.DIHEDRAL.0>
0

>  <SCORE.INTRA.POLAR>
0

>  <SCORE.INTRA.POLAR.0>
0

>  <SCORE.INTRA.REPUL>
0

>  <SCORE.INTRA.REPUL.0>
0

>  <SCORE.INTRA.SOLV>
0

>  <SCORE.INTRA.SOLV.lig_0>
-28.6198

>  <SCORE.INTRA.VDW>
0

>  <SCORE.INTRA.VDW.0>
0

>  <SCORE.INTRA.norm>
0

>  <SCORE.RESTR>
0

>  <SCORE.RESTR.CAVITY>
0

>  <SCORE.RESTR.norm>
0

>  <SCORE.SYSTEM>
0

>  <SCORE.SYSTEM.CONST>
0

>  <SCORE.SYSTEM.DIHEDRAL>
0

>  <SCORE.SYSTEM.SOLV>
0

>  <SCORE.SYSTEM.norm>
0

>  <SCORE.heavy>
11

>  <SCORE.norm>
-1.50334

>  <RMSD>
3.456

$$$$
ligand
 OpenBabel11021811483D
libRbt.so/2013.1/901 2013/11/27
 11 12  0  0  0  0  0  0  0  0999 V2000
   34.9732   -9.9475  -38.6751 N   0  0  0  0  0  0  0  0  0  0  0  0
   35.2302   -8.6777  -39.0229 C   0  0  0  0  0  0  0  0  0  0  0  0
   34.2847   -7.9725  -39.8285 N   0  0  0  0  0  0  0  0  0  0  0  0
   36.3506   -8.0618  -38.6311 N   0  0  0  0  0  0  0  0  0  0  0  0
   37.2783   -8.7260  -37.8526 C   0  0  0  0  0  0  0  0  0  0  0  0
   37.0323  -10.0245  -37.4900 C   0  0  0  0  0  0  0  0  0  0  0  0
   35.8253  -10.6678  -37.9181 C   0  0  0  0  0  0  0  0  0  0  0  0
   35.4609  -12.3404  -37.4679 S   0  0  0  0  0  0  0  0  0  0  0  0
   38.0920  -10.4508  -36.7309 N   0  0  0  0  0  0  0  0  0  0  0  0
   38.9801   -9.4278  -36.6281 C   0  0  0  0  0  0  0  0  0  0  0  0
   38.4966   -8.3535  -37.3133 N   0  0  0  0  0  0  0  0  0  0  0  0
  1  2  2  0  0  0  0
  1  7  1  0  0  0  0
  2  3  1  0  0  0  0
  2  4  1  0  0  0  0
  4  5  2  0  0  0  0
  5  6  1  0  0  0  0
  5 11  1  0  0  0  0
  6  7  2  0  0  0  0
  6  9  1  0  0  0  0
  7  8  1  0  0  0  0
  9 10  1  0  0  0  0
 10 11  2  0  0  0  0
M  END
>  <CHROM.1>
36.39930660,-9.84443131,-37.91323511,2.96814250,0.48191098,2.77091487

>  <Name>
ligand

>  <RI>
0

>  <Rbt.Current_Directory>
/home/itssahil/PROJECTS/Mol_Feturizer/New_Systems/rnas/3RKF

>  <Rbt.Executable>
rbdock ($Id: //depot/dev/client3/rdock/2013.1/src/exe/rbdock.cxx#4 $)

>  <Rbt.Library>
libRbt.so (2013.1, Build901 2013/11/27)

>  <Rbt.Parameter_File>
/export/apps/rDock/src/rDock_2013.1_src/data/scripts/dock_solv.prm

>  <Rbt.Receptor>
prm/blind_docking_80.prm

>  <SCORE>
-16.5347

>  <SCORE.INTER>
-16.5347

>  <SCORE.INTER.CONST>
1

>  <SCORE.INTER.POLAR>
0

>  <SCORE.INTER.ROT>
0

>  <SCORE.INTER.SOLV>
10.7126

>  <SCORE.INTER.VDW>
-18.194

>  <SCORE.INTER.norm>
-1.50316

>  <SCORE.INTRA>
0

>  <SCORE.INTRA.DIHEDRAL>
0

>  <SCORE.INTRA.DIHEDRAL.0>
0

>  <SCORE.INTRA.POLAR>
0

>  <SCORE.INTRA.POLAR.0>
0

>  <SCORE.INTRA.REPUL>
0

>  <SCORE.INTRA.REPUL.0>
0

>  <SCORE.INTRA.SOLV>
0

>  <SCORE.INTRA.SOLV.lig_0>
-28.6198

>  <SCORE.INTRA.VDW>
0

>  <SCORE.INTRA.VDW.0>
0

>  <SCORE.INTRA.norm>
0

>  <SCORE.RESTR>
0

>  <SCORE.RESTR.CAVITY>
0

>  <SCORE.RESTR.norm>
0

>  <SCORE.SYSTEM>
0

>  <SCORE.SYSTEM.CONST>
0

>  <SCORE.SYSTEM.DIHEDRAL>
0

>  <SCORE.SYSTEM.SOLV>
0

>  <SCORE.SYSTEM.norm>
0

>  <SCORE.heavy>
11

>  <SCORE.norm>
-1.50316

>  <RMSD>
3.456

$$$$
ligand
 OpenBabel11021811483D
libRbt.so/2013.1/901 2013/11/27
 11 12  0  0  0  0  0  0  0  0999 V2000
   34.9652   -9.9382  -38.6789 N   0  0  0  0  0  0  0  0  0  0  0  0
   35.2266   -8.6706  -39.0314 C   0  0  0  0  0  0  0  0  0  0  0  0
   34.2849   -7.9660  -39.8420 N   0  0  0  0  0  0  0  0  0  0  0  0
   36.3478   -8.0562  -38.6395 N   0  0  0  0  0  0  0  0  0  0  0  0
   37.2718   -8.7199  -37.8561 C   0  0  0  0  0  0  0  0  0  0  0  0
   37.0213  -10.0163  -37.4888 C   0  0  0  0  0  0  0  0  0  0  0  0
   35.8135  -10.6578  -37.9170 C   0  0  0  0  0  0  0  0  0  0  0  0
   35.4432  -12.3275  -37.4609 S   0  0  0  0  0  0  0  0  0  0  0  0
   38.0780  -10.4425  -36.7256 N   0  0  0  0  0  0  0  0  0  0  0  0
   38.9688   -9.4216  -36.6249 C   0  0  0  0  0  0  0  0  0  0  0  0
   38.4900   -8.3487  -37.3156 N   0  0  0  0  0  0  0  0  0  0  0  0
  1  2  2  0  0  0  0
  1  7  1  0  0  0  0
  2  3  1  0  0  0  0
  2  4  1  0  0  0  0
  4  5  2  0  0  0  0
  5  6  1  0  0  0  0
  5 11  1  0  0  0  0
  6  7  2  0  0  0  0
  6  9  1  0  0  0  0
  7  8  1  0  0  0  0
  9 10  1  0  0  0  0
 10 11  2  0  0  0  0
M  END
>  <CHROM.1>
36.38978080,-9.83608876,-37.91425130,2.97209402,0.48298932,2.76499515

>  <Name>
ligand

>  <RI>
0

>  <Rbt.Current_Directory>
/home/itssahil/PROJECTS/Mol_Feturizer/New_Systems/rnas/3RKF

>  <Rbt.Executable>
rbdock ($Id: //depot/dev/client3/rdock/2013.1/src/exe/rbdock.cxx#4 $)

>  <Rbt.Library>
libRbt.so (2013.1, Build901 2013/11/27)

>  <Rbt.Parameter_File>
/export/apps/rDock/src/rDock_2013.1_src/data/scripts/dock_solv.prm

>  <Rbt.Receptor>
prm/pocket_docking_6.prm

>  <SCORE>
-16.537

>  <SCORE.INTER>
-16.537

>  <SCORE.INTER.CONST>
1

>  <SCORE.INTER.POLAR>
0

>  <SCORE.INTER.ROT>
0

>  <SCORE.INTER.SOLV>
10.7214

>  <SCORE.INTER.VDW>
-18.1985

>  <SCORE.INTER.norm>
-1.50336

>  <SCORE.INTRA>
0

>  <SCORE.INTRA.DIHEDRAL>
0

>  <SCORE.INTRA.DIHEDRAL.0>
0

>  <SCORE.INTRA.POLAR>
0

>  <SCORE.INTRA.POLAR.0>
0

>  <SCORE.INTRA.REPUL>
0

>  <SCORE.INTRA.REPUL.0>
0

>  <SCORE.INTRA.SOLV>
0

>  <SCORE.INTRA.SOLV.lig_0>
-28.6198

>  <SCORE.INTRA.VDW>
0

>  <SCORE.INTRA.VDW.0>
0

>  <SCORE.INTRA.norm>
0

>  <SCORE.RESTR>
0

>  <SCORE.RESTR.CAVITY>
0

>  <SCORE.RESTR.norm>
0

>  <SCORE.SYSTEM>
0

>  <SCORE.SYSTEM.CONST>
0

>  <SCORE.SYSTEM.DIHEDRAL>
0

>  <SCORE.SYSTEM.SOLV>
0

>  <SCORE.SYSTEM.norm>
0

>  <SCORE.heavy>
11

>  <SCORE.norm>
-1.50336

>  <RMSD>
3.456

$$$$
ligand
 OpenBabel11021811483D
libRbt.so/2013.1/901 2013/11/27
 11 12  0  0  0  0  0  0  0  0999 V2000
   34.9594   -9.9376  -38.6778 N   0  0  0  0  0  0  0  0  0  0  0  0
   35.2189   -8.6688  -39.0274 C   0  0  0  0  0  0  0  0  0  0  0  0
   34.2748   -7.9629  -39.8341 N   0  0  0  0  0  0  0  0  0  0  0  0
   36.3404   -8.0545  -38.6363 N   0  0  0  0  0  0  0  0  0  0  0  0
   37.2667   -8.7194  -37.8567 C   0  0  0  0  0  0  0  0  0  0  0  0
   37.0181  -10.0170  -37.4923 C   0  0  0  0  0  0  0  0  0  0  0  0
   35.8100  -10.6585  -37.9196 C   0  0  0  0  0  0  0  0  0  0  0  0
   35.4422  -12.3297  -37.4671 S   0  0  0  0  0  0  0  0  0  0  0  0
   38.0769  -10.4443  -36.7325 N   0  0  0  0  0  0  0  0  0  0  0  0
   38.9670   -9.4228  -36.6310 C   0  0  0  0  0  0  0  0  0  0  0  0
   38.4857   -8.3485  -37.3178 N   0  0  0  0  0  0  0  0  0  0  0  0
  1  2  2  0  0  0  0
  1  7  1  0  0  0  0
  2  3  1  0  0  0  0
  2  4  1  0  0  0  0
  4  5  2  0  0  0  0
  5  6  1  0  0  0  0
  5 11  1  0  0  0  0
  6  7  2  0  0  0  0
  6  9  1  0  0  0  0
  7  8  1  0  0  0  0
  9 10  1  0  0  0  0
 10 11  2  0  0  0  0
M  END
>  <CHROM.1>
36.38554943,-9.83624326,-37.91590939,2.97024612,0.48130830,2.76852183

>  <Name>
ligand

>  <RI>
0

>  <Rbt.Current_Directory>
/home/itssahil/PROJECTS/Mol_Feturizer/New_Systems/rnas/3RKF

>  <Rbt.Executable>
rbdock ($Id: //depot/dev/client3/rdock/2013.1/src/exe/rbdock.cxx#4 $)

>  <Rbt.Library>
libRbt.so (2013.1, Build901 2013/11/27)

>  <Rbt.Parameter_File>
/export/apps/rDock/src/rDock_2013.1_src/data/scripts/dock_solv.prm

>  <Rbt.Receptor>
prm/pocket_docking_6.prm

>  <SCORE>
-16.5358

>  <SCORE.INTER>
-16.5358

>  <SCORE.INTER.CONST>
1

>  <SCORE.INTER.POLAR>
0

>  <SCORE.INTER.ROT>
0

>  <SCORE.INTER.SOLV>
10.6768

>  <SCORE.INTER.VDW>
-18.1828

>  <SCORE.INTER.norm>
-1.50325

>  <SCORE.INTRA>
0

>  <SCORE.INTRA.DIHEDRAL>
0

>  <SCORE.INTRA.DIHEDRAL.0>
0

>  <SCORE.INTRA.POLAR>
0

>  <SCORE.INTRA.POLAR.0>
0

>  <SCORE.INTRA.REPUL>
0

>  <SCORE.INTRA.REPUL.0>
0

>  <SCORE.INTRA.SOLV>
0

>  <SCORE.INTRA.SOLV.lig_0>
-28.6198

>  <SCORE.INTRA.VDW>
0

>  <SCORE.INTRA.VDW.0>
0

>  <SCORE.INTRA.norm>
0

>  <SCORE.RESTR>
0

>  <SCORE.RESTR.CAVITY>
0

>  <SCORE.RESTR.norm>
0

>  <SCORE.SYSTEM>
0

>  <SCORE.SYSTEM.CONST>
0

>  <SCORE.SYSTEM.DIHEDRAL>
0

>  <SCORE.SYSTEM.SOLV>
0

>  <SCORE.SYSTEM.norm>
0

>  <SCORE.heavy>
11

>  <SCORE.norm>
-1.50325

>  <RMSD>
3.456

$$$$
ligand
 OpenBabel11021811483D
libRbt.so/2013.1/901 2013/11/27
 11 12  0  0  0  0  0  0  0  0999 V2000
   34.9702   -9.9398  -38.6758 N   0  0  0  0  0  0  0  0  0  0  0  0
   35.2319   -8.6728  -39.0303 C   0  0  0  0  0  0  0  0  0  0  0  0
   34.2895   -7.9688  -39.8406 N   0  0  0  0  0  0  0  0  0  0  0  0
   36.3539   -8.0586  -38.6408 N   0  0  0  0  0  0  0  0  0  0  0  0
   37.2787   -8.7218  -37.8578 C   0  0  0  0  0  0  0  0  0  0  0  0
   37.0279  -10.0175  -37.4884 C   0  0  0  0  0  0  0  0  0  0  0  0
   35.8191  -10.6589  -37.9141 C   0  0  0  0  0  0  0  0  0  0  0  0
   35.4485  -12.3278  -37.4552 S   0  0  0  0  0  0  0  0  0  0  0  0
   38.0854  -10.4433  -36.7260 N   0  0  0  0  0  0  0  0  0  0  0  0
   38.9769   -9.4228  -36.6279 C   0  0  0  0  0  0  0  0  0  0  0  0
   38.4978   -8.3506  -37.3193 N   0  0  0  0  0  0  0  0  0  0  0  0
  1  2  2  0  0  0  0
  1  7  1  0  0  0  0
  2  3  1  0  0  0  0
  2  4  1  0  0  0  0
  4  5  2  0  0  0  0
  5  6  1  0  0  0  0
  5 11  1  0  0  0  0
  6  7  2  0  0  0  0
  6  9  1  0  0  0  0
  7  8  1  0  0  0  0
  9 10  1  0  0  0  0
 10 11  2  0  0  0  0
M  END
>  <CHROM.1>
36.39590410,-9.83752144,-37.91319834,2.97213710,0.48152605,2.76364862

>  <Name>
ligand

>  <RI>
0

>  <Rbt.Current_Directory>
/home/itssahil/PROJECTS/Mol_Feturizer/New_Systems/rnas/3RKF

>  <Rbt.Executable>
rbdock ($Id: //depot/dev/client3/rdock/2013.1/src/exe/rbdock.cxx#4 $)

>  <Rbt.Library>
libRbt.so (2013.1, Build901 2013/11/27)

>  <Rbt.Parameter_File>
/export/apps/rDock/src/rDock_2013.1_src/data/scripts/dock_solv.prm

>  <Rbt.Receptor>
prm/pocket_docking_6.prm

>  <SCORE>
-16.5366

>  <SCORE.INTER>
-16.5366

>  <SCORE.INTER.CONST>
1

>  <SCORE.INTER.POLAR>
0

>  <SCORE.INTER.ROT>
0

>  <SCORE.INTER.SOLV>
10.7385

>  <SCORE.INTER.VDW>
-18.2039

>  <SCORE.INTER.norm>
-1.50332

>  <SCORE.INTRA>
0

>  <SCORE.INTRA.DIHEDRAL>
0

>  <SCORE.INTRA.DIHEDRAL.0>
0

>  <SCORE.INTRA.POLAR>
0

>  <SCORE.INTRA.POLAR.0>
0

>  <SCORE.INTRA.REPUL>
0

>  <SCORE.INTRA.REPUL.0>
0

>  <SCORE.INTRA.SOLV>
0

>  <SCORE.INTRA.SOLV.lig_0>
-28.6198

>  <SCORE.INTRA.VDW>
0

>  <SCORE.INTRA.VDW.0>
0

>  <SCORE.INTRA.norm>
0

>  <SCORE.RESTR>
0

>  <SCORE.RESTR.CAVITY>
0

>  <SCORE.RESTR.norm>
0

>  <SCORE.SYSTEM>
0

>  <SCORE.SYSTEM.CONST>
0

>  <SCORE.SYSTEM.DIHEDRAL>
0

>  <SCORE.SYSTEM.SOLV>
0

>  <SCORE.SYSTEM.norm>
0

>  <SCORE.heavy>
11

>  <SCORE.norm>
-1.50332

>  <RMSD>
3.456

$$$$
ligand
 OpenBabel11021811483D
libRbt.so/2013.1/901 2013/11/27
 11 12  0  0  0  0  0  0  0  0999 V2000
   34.9677   -9.9416  -38.6772 N   0  0  0  0  0  0  0  0  0  0  0  0
   35.2257   -8.6724  -39.0266 C   0  0  0  0  0  0  0  0  0  0  0  0
   34.2812   -7.9677  -39.8337 N   0  0  0  0  0  0  0  0  0  0  0  0
   36.3462   -8.0567  -38.6349 N   0  0  0  0  0  0  0  0  0  0  0  0
   37.2730   -8.7205  -37.8549 C   0  0  0  0  0  0  0  0  0  0  0  0
   37.0259  -10.0184  -37.4908 C   0  0  0  0  0  0  0  0  0  0  0  0
   35.8188  -10.6615  -37.9187 C   0  0  0  0  0  0  0  0  0  0  0  0
   35.4529  -12.3332  -37.4666 S   0  0  0  0  0  0  0  0  0  0  0  0
   38.0849  -10.4444  -36.7305 N   0  0  0  0  0  0  0  0  0  0  0  0
   38.9736   -9.4219  -36.6285 C   0  0  0  0  0  0  0  0  0  0  0  0
   38.4913   -8.3481  -37.3154 N   0  0  0  0  0  0  0  0  0  0  0  0
  1  2  2  0  0  0  0
  1  7  1  0  0  0  0
  2  3  1  0  0  0  0
  2  4  1  0  0  0  0
  4  5  2  0  0  0  0
  5  6  1  0  0  0  0
  5 11  1  0  0  0  0
  6  7  2  0  0  0  0
  6  9  1  0  0  0  0
  7  8  1  0  0  0  0
  9 10  1  0  0  0  0
 10 11  2  0  0  0  0
M  END
>  <CHROM.1>
36.39332861,-9.83848481,-37.91465848,2.96909508,0.48223507,2.76915775

>  <Name>
ligand

>  <RI>
0

>  <Rbt.Current_Directory>
/home/itssahil/PROJECTS/Mol_Feturizer/New_Systems/rnas/3RKF

>  <Rbt.Executable>
rbdock ($Id: //depot/dev/client3/rdock/2013.1/src/exe/rbdock.cxx#4 $)

>  <Rbt.Library>
libRbt.so (2013.1, Build901 2013/11/27)

>  <Rbt.Parameter_File>
/export/apps/rDock/src/rDock_2013.1_src/data/scripts/dock_solv.prm

>  <Rbt.Receptor>
prm/blind_docking_100.prm

>  <SCORE>
-16.5365

>  <SCORE.INTER>
-16.5365

>  <SCORE.INTER.CONST>
1

>  <SCORE.INTER.POLAR>
0

>  <SCORE.INTER.ROT>
0

>  <SCORE.INTER.SOLV>
10.7014

>  <SCORE.INTER.VDW>
-18.1915

>  <SCORE.INTER.norm>
-1.50332

>  <SCORE.INTRA>
0

>  <SCORE.INTRA.DIHEDRAL>
0

>  <SCORE.INTRA.DIHEDRAL.0>
0

>  <SCORE.INTRA.POLAR>
0

>  <SCORE.INTRA.POLAR.0>
0

>  <SCORE.INTRA.REPUL>
0

>  <SCORE.INTRA.REPUL.0>
0

>  <SCORE.INTRA.SOLV>
0

>  <SCORE.INTRA.SOLV.lig_0>
-28.6198

>  <SCORE.INTRA.VDW>
0

>  <SCORE.INTRA.VDW.0>
0

>  <SCORE.INTRA.norm>
0

>  <SCORE.RESTR>
0

>  <SCORE.RESTR.CAVITY>
0

>  <SCORE.RESTR.norm>
0

>  <SCORE.SYSTEM>
0

>  <SCORE.SYSTEM.CONST>
0

>  <SCORE.SYSTEM.DIHEDRAL>
0

>  <SCORE.SYSTEM.SOLV>
0

>  <SCORE.SYSTEM.norm>
0

>  <SCORE.heavy>
11

>  <SCORE.norm>
-1.50332

>  <RMSD>
3.457

$$$$
ligand
 OpenBabel11021811483D
libRbt.so/2013.1/901 2013/11/27
 11 12  0  0  0  0  0  0  0  0999 V2000
   34.9684   -9.9484  -38.6681 N   0  0  0  0  0  0  0  0  0  0  0  0
   35.2241   -8.6783  -39.0158 C   0  0  0  0  0  0  0  0  0  0  0  0
   34.2761   -7.9728  -39.8183 N   0  0  0  0  0  0  0  0  0  0  0  0
   36.3454   -8.0624  -38.6269 N   0  0  0  0  0  0  0  0  0  0  0  0
   37.2756   -8.7269  -37.8515 C   0  0  0  0  0  0  0  0  0  0  0  0
   37.0309  -10.0257  -37.4890 C   0  0  0  0  0  0  0  0  0  0  0  0
   35.8229  -10.6690  -37.9140 C   0  0  0  0  0  0  0  0  0  0  0  0
   35.4601  -12.3419  -37.4638 S   0  0  0  0  0  0  0  0  0  0  0  0
   38.0929  -10.4523  -36.7333 N   0  0  0  0  0  0  0  0  0  0  0  0
   38.9811   -9.4291  -36.6324 C   0  0  0  0  0  0  0  0  0  0  0  0
   38.4954   -8.3545  -37.3155 N   0  0  0  0  0  0  0  0  0  0  0  0
  1  2  2  0  0  0  0
  1  7  1  0  0  0  0
  2  3  1  0  0  0  0
  2  4  1  0  0  0  0
  4  5  2  0  0  0  0
  5  6  1  0  0  0  0
  5 11  1  0  0  0  0
  6  7  2  0  0  0  0
  6  9  1  0  0  0  0
  7  8  1  0  0  0  0
  9 10  1  0  0  0  0
 10 11  2  0  0  0  0
M  END
>  <CHROM.1>
36.39666940,-9.84549647,-37.91030974,2.96672284,0.47928297,2.77220795

>  <Name>
ligand

>  <RI>
0

>  <Rbt.Current_Directory>
/home/itssahil/PROJECTS/Mol_Feturizer/New_Systems/rnas/3RKF

>  <Rbt.Executable>
rbdock ($Id: //depot/dev/client3/rdock/2013.1/src/exe/rbdock.cxx#4 $)

>  <Rbt.Library>
libRbt.so (2013.1, Build901 2013/11/27)

>  <Rbt.Parameter_File>
/export/apps/rDock/src/rDock_2013.1_src/data/scripts/dock_solv.prm

>  <Rbt.Receptor>
prm/blind_docking_80.prm

>  <SCORE>
-16.5338

>  <SCORE.INTER>
-16.5338

>  <SCORE.INTER.CONST>
1

>  <SCORE.INTER.POLAR>
0

>  <SCORE.INTER.ROT>
0

>  <SCORE.INTER.SOLV>
10.6678

>  <SCORE.INTER.VDW>
-18.1785

>  <SCORE.INTER.norm>
-1.50307

>  <SCORE.INTRA>
0

>  <SCORE.INTRA.DIHEDRAL>
0

>  <SCORE.INTRA.DIHEDRAL.0>
0

>  <SCORE.INTRA.POLAR>
0

>  <SCORE.INTRA.POLAR.0>
0

>  <SCORE.INTRA.REPUL>
0

>  <SCORE.INTRA.REPUL.0>
0

>  <SCORE.INTRA.SOLV>
0

>  <SCORE.INTRA.SOLV.lig_0>
-28.6198

>  <SCORE.INTRA.VDW>
0

>  <SCORE.INTRA.VDW.0>
0

>  <SCORE.INTRA.norm>
0

>  <SCORE.RESTR>
0

>  <SCORE.RESTR.CAVITY>
0

>  <SCORE.RESTR.norm>
0

>  <SCORE.SYSTEM>
0

>  <SCORE.SYSTEM.CONST>
0

>  <SCORE.SYSTEM.DIHEDRAL>
0

>  <SCORE.SYSTEM.SOLV>
0

>  <SCORE.SYSTEM.norm>
0

>  <SCORE.heavy>
11

>  <SCORE.norm>
-1.50307

>  <RMSD>
3.457

$$$$
ligand
 OpenBabel11021811483D
libRbt.so/2013.1/901 2013/11/27
 11 12  0  0  0  0  0  0  0  0999 V2000
   34.9713   -9.9840  -38.6841 N   0  0  0  0  0  0  0  0  0  0  0  0
   35.2321   -8.7191  -39.0466 C   0  0  0  0  0  0  0  0  0  0  0  0
   34.2924   -8.0231  -39.8669 N   0  0  0  0  0  0  0  0  0  0  0  0
   36.3508   -8.0996  -38.6558 N   0  0  0  0  0  0  0  0  0  0  0  0
   37.2729   -8.7550  -37.8632 C   0  0  0  0  0  0  0  0  0  0  0  0
   37.0230  -10.0485  -37.4855 C   0  0  0  0  0  0  0  0  0  0  0  0
   35.8178  -10.6957  -37.9127 C   0  0  0  0  0  0  0  0  0  0  0  0
   35.4484  -12.3619  -37.4435 S   0  0  0  0  0  0  0  0  0  0  0  0
   38.0775  -10.4663  -36.7146 N   0  0  0  0  0  0  0  0  0  0  0  0
   38.9663   -9.4431  -36.6194 C   0  0  0  0  0  0  0  0  0  0  0  0
   38.4884   -8.3771  -37.3213 N   0  0  0  0  0  0  0  0  0  0  0  0
  1  2  2  0  0  0  0
  1  7  1  0  0  0  0
  2  3  1  0  0  0  0
  2  4  1  0  0  0  0
  4  5  2  0  0  0  0
  5  6  1  0  0  0  0
  5 11  1  0  0  0  0
  6  7  2  0  0  0  0
  6  9  1  0  0  0  0
  7  8  1  0  0  0  0
  9 10  1  0  0  0  0
 10 11  2  0  0  0  0
M  END
>  <CHROM.1>
36.39282841,-9.87301949,-37.91494169,2.97202360,0.48711416,2.75632093

>  <Name>
ligand

>  <RI>
0

>  <Rbt.Current_Directory>
/home/itssahil/PROJECTS/Mol_Feturizer/New_Systems/rnas/3RKF

>  <Rbt.Executable>
rbdock ($Id: //depot/dev/client3/rdock/2013.1/src/exe/rbdock.cxx#4 $)

>  <Rbt.Library>
libRbt.so (2013.1, Build901 2013/11/27)

>  <Rbt.Parameter_File>
/export/apps/rDock/src/rDock_2013.1_src/data/scripts/dock_solv.prm

>  <Rbt.Receptor>
prm/pocket_docking_6.prm

>  <SCORE>
-16.4975

>  <SCORE.INTER>
-16.4975

>  <SCORE.INTER.CONST>
1

>  <SCORE.INTER.POLAR>
0

>  <SCORE.INTER.ROT>
0

>  <SCORE.INTER.SOLV>
10.8895

>  <SCORE.INTER.VDW>
-18.2282

>  <SCORE.INTER.norm>
-1.49978

>  <SCORE.INTRA>
0

>  <SCORE.INTRA.DIHEDRAL>
0

>  <SCORE.INTRA.DIHEDRAL.0>
0

>  <SCORE.INTRA.POLAR>
0

>  <SCORE.INTRA.POLAR.0>
0

>  <SCORE.INTRA.REPUL>
0

>  <SCORE.INTRA.REPUL.0>
0

>  <SCORE.INTRA.SOLV>
0

>  <SCORE.INTRA.SOLV.lig_0>
-28.6198

>  <SCORE.INTRA.VDW>
0

>  <SCORE.INTRA.VDW.0>
0

>  <SCORE.INTRA.norm>
0

>  <SCORE.RESTR>
0

>  <SCORE.RESTR.CAVITY>
0

>  <SCORE.RESTR.norm>
0

>  <SCORE.SYSTEM>
0

>  <SCORE.SYSTEM.CONST>
0

>  <SCORE.SYSTEM.DIHEDRAL>
0

>  <SCORE.SYSTEM.SOLV>
0

>  <SCORE.SYSTEM.norm>
0

>  <SCORE.heavy>
11

>  <SCORE.norm>
-1.49978

>  <RMSD>
3.457

$$$$
ligand
 OpenBabel11021811483D
libRbt.so/2013.1/901 2013/11/27
 11 12  0  0  0  0  0  0  0  0999 V2000
   34.9659   -9.9425  -38.6734 N   0  0  0  0  0  0  0  0  0  0  0  0
   35.2237   -8.6734  -39.0233 C   0  0  0  0  0  0  0  0  0  0  0  0
   34.2784   -7.9688  -39.8298 N   0  0  0  0  0  0  0  0  0  0  0  0
   36.3445   -8.0576  -38.6327 N   0  0  0  0  0  0  0  0  0  0  0  0
   37.2720   -8.7212  -37.8534 C   0  0  0  0  0  0  0  0  0  0  0  0
   37.0252  -10.0190  -37.4886 C   0  0  0  0  0  0  0  0  0  0  0  0
   35.8177  -10.6622  -37.9154 C   0  0  0  0  0  0  0  0  0  0  0  0
   35.4522  -12.3338  -37.4625 S   0  0  0  0  0  0  0  0  0  0  0  0
   38.0848  -10.4449  -36.7292 N   0  0  0  0  0  0  0  0  0  0  0  0
   38.9736   -9.4223  -36.6282 C   0  0  0  0  0  0  0  0  0  0  0  0
   38.4907   -8.3487  -37.3149 N   0  0  0  0  0  0  0  0  0  0  0  0
  1  2  2  0  0  0  0
  1  7  1  0  0  0  0
  2  3  1  0  0  0  0
  2  4  1  0  0  0  0
  4  5  2  0  0  0  0
  5  6  1  0  0  0  0
  5 11  1  0  0  0  0
  6  7  2  0  0  0  0
  6  9  1  0  0  0  0
  7  8  1  0  0  0  0
  9 10  1  0  0  0  0
 10 11  2  0  0  0  0
M  END
>  <CHROM.1>
36.39220636,-9.83918999,-37.91205345,2.96876492,0.48143396,2.76904905

>  <Name>
ligand

>  <RI>
0

>  <Rbt.Current_Directory>
/home/itssahil/PROJECTS/Mol_Feturizer/New_Systems/rnas/3RKF

>  <Rbt.Executable>
rbdock ($Id: //depot/dev/client3/rdock/2013.1/src/exe/rbdock.cxx#4 $)

>  <Rbt.Library>
libRbt.so (2013.1, Build901 2013/11/27)

>  <Rbt.Parameter_File>
/export/apps/rDock/src/rDock_2013.1_src/data/scripts/dock_solv.prm

>  <Rbt.Receptor>
prm/pocket_docking_6.prm

>  <SCORE>
-16.5365

>  <SCORE.INTER>
-16.5365

>  <SCORE.INTER.CONST>
1

>  <SCORE.INTER.POLAR>
0

>  <SCORE.INTER.ROT>
0

>  <SCORE.INTER.SOLV>
10.6853

>  <SCORE.INTER.VDW>
-18.1861

>  <SCORE.INTER.norm>
-1.50332

>  <SCORE.INTRA>
0

>  <SCORE.INTRA.DIHEDRAL>
0

>  <SCORE.INTRA.DIHEDRAL.0>
0

>  <SCORE.INTRA.POLAR>
0

>  <SCORE.INTRA.POLAR.0>
0

>  <SCORE.INTRA.REPUL>
0

>  <SCORE.INTRA.REPUL.0>
0

>  <SCORE.INTRA.SOLV>
0

>  <SCORE.INTRA.SOLV.lig_0>
-28.6198

>  <SCORE.INTRA.VDW>
0

>  <SCORE.INTRA.VDW.0>
0

>  <SCORE.INTRA.norm>
0

>  <SCORE.RESTR>
0

>  <SCORE.RESTR.CAVITY>
0

>  <SCORE.RESTR.norm>
0

>  <SCORE.SYSTEM>
0

>  <SCORE.SYSTEM.CONST>
0

>  <SCORE.SYSTEM.DIHEDRAL>
0

>  <SCORE.SYSTEM.SOLV>
0

>  <SCORE.SYSTEM.norm>
0

>  <SCORE.heavy>
11

>  <SCORE.norm>
-1.50332

>  <RMSD>
3.457

$$$$
ligand
 OpenBabel11021811483D
libRbt.so/2013.1/901 2013/11/27
 11 12  0  0  0  0  0  0  0  0999 V2000
   34.9393   -9.9739  -38.6198 N   0  0  0  0  0  0  0  0  0  0  0  0
   35.1881   -8.7040  -38.9731 C   0  0  0  0  0  0  0  0  0  0  0  0
   34.2311   -8.0035  -39.7692 N   0  0  0  0  0  0  0  0  0  0  0  0
   36.3109   -8.0836  -38.5955 N   0  0  0  0  0  0  0  0  0  0  0  0
   37.2497   -8.7433  -37.8264 C   0  0  0  0  0  0  0  0  0  0  0  0
   37.0121  -10.0419  -37.4583 C   0  0  0  0  0  0  0  0  0  0  0  0
   35.8023  -10.6899  -37.8712 C   0  0  0  0  0  0  0  0  0  0  0  0
   35.4485  -12.3627  -37.4135 S   0  0  0  0  0  0  0  0  0  0  0  0
   38.0818  -10.4632  -36.7107 N   0  0  0  0  0  0  0  0  0  0  0  0
   38.9678   -9.4371  -36.6202 C   0  0  0  0  0  0  0  0  0  0  0  0
   38.4730   -8.3658  -37.3019 N   0  0  0  0  0  0  0  0  0  0  0  0
  1  2  2  0  0  0  0
  1  7  1  0  0  0  0
  2  3  1  0  0  0  0
  2  4  1  0  0  0  0
  4  5  2  0  0  0  0
  5  6  1  0  0  0  0
  5 11  1  0  0  0  0
  6  7  2  0  0  0  0
  6  9  1  0  0  0  0
  7  8  1  0  0  0  0
  9 10  1  0  0  0  0
 10 11  2  0  0  0  0
M  END
>  <CHROM.1>
36.37367850,-9.86466487,-37.87465573,2.96007528,0.47232200,2.77258053

>  <Name>
ligand

>  <RI>
0

>  <Rbt.Current_Directory>
/home/itssahil/PROJECTS/Mol_Feturizer/New_Systems/rnas/3RKF

>  <Rbt.Executable>
rbdock ($Id: //depot/dev/client3/rdock/2013.1/src/exe/rbdock.cxx#4 $)

>  <Rbt.Library>
libRbt.so (2013.1, Build901 2013/11/27)

>  <Rbt.Parameter_File>
/export/apps/rDock/src/rDock_2013.1_src/data/scripts/dock_solv.prm

>  <Rbt.Receptor>
prm/pocket_docking_5.prm

>  <SCORE>
-16.5163

>  <SCORE.INTER>
-16.5163

>  <SCORE.INTER.CONST>
1

>  <SCORE.INTER.POLAR>
0

>  <SCORE.INTER.ROT>
0

>  <SCORE.INTER.SOLV>
10.449

>  <SCORE.INTER.VDW>
-18.0939

>  <SCORE.INTER.norm>
-1.50148

>  <SCORE.INTRA>
0

>  <SCORE.INTRA.DIHEDRAL>
0

>  <SCORE.INTRA.DIHEDRAL.0>
0

>  <SCORE.INTRA.POLAR>
0

>  <SCORE.INTRA.POLAR.0>
0

>  <SCORE.INTRA.REPUL>
0

>  <SCORE.INTRA.REPUL.0>
0

>  <SCORE.INTRA.SOLV>
0

>  <SCORE.INTRA.SOLV.lig_0>
-28.6198

>  <SCORE.INTRA.VDW>
0

>  <SCORE.INTRA.VDW.0>
0

>  <SCORE.INTRA.norm>
0

>  <SCORE.RESTR>
0

>  <SCORE.RESTR.CAVITY>
0

>  <SCORE.RESTR.norm>
0

>  <SCORE.SYSTEM>
0

>  <SCORE.SYSTEM.CONST>
0

>  <SCORE.SYSTEM.DIHEDRAL>
0

>  <SCORE.SYSTEM.SOLV>
0

>  <SCORE.SYSTEM.norm>
0

>  <SCORE.heavy>
11

>  <SCORE.norm>
-1.50148

>  <RMSD>
3.458

$$$$
ligand
 OpenBabel11021811483D
libRbt.so/2013.1/901 2013/11/27
 11 12  0  0  0  0  0  0  0  0999 V2000
   34.9607   -9.9504  -38.6624 N   0  0  0  0  0  0  0  0  0  0  0  0
   35.2156   -8.6813  -39.0146 C   0  0  0  0  0  0  0  0  0  0  0  0
   34.2669   -7.9791  -39.8190 N   0  0  0  0  0  0  0  0  0  0  0  0
   36.3367   -8.0635  -38.6281 N   0  0  0  0  0  0  0  0  0  0  0  0
   37.2675   -8.7249  -37.8508 C   0  0  0  0  0  0  0  0  0  0  0  0
   37.0237  -10.0226  -37.4838 C   0  0  0  0  0  0  0  0  0  0  0  0
   35.8158  -10.6680  -37.9062 C   0  0  0  0  0  0  0  0  0  0  0  0
   35.4541  -12.3395  -37.4502 S   0  0  0  0  0  0  0  0  0  0  0  0
   38.0862  -10.4460  -36.7270 N   0  0  0  0  0  0  0  0  0  0  0  0
   38.9738   -9.4220  -36.6299 C   0  0  0  0  0  0  0  0  0  0  0  0
   38.4873   -8.3500  -37.3165 N   0  0  0  0  0  0  0  0  0  0  0  0
  1  2  2  0  0  0  0
  1  7  1  0  0  0  0
  2  3  1  0  0  0  0
  2  4  1  0  0  0  0
  4  5  2  0  0  0  0
  5  6  1  0  0  0  0
  5 11  1  0  0  0  0
  6  7  2  0  0  0  0
  6  9  1  0  0  0  0
  7  8  1  0  0  0  0
  9 10  1  0  0  0  0
 10 11  2  0  0  0  0
M  END
>  <CHROM.1>
36.38915955,-9.84413393,-37.90550218,2.96600666,0.47914045,2.76914885

>  <Name>
ligand

>  <RI>
0

>  <Rbt.Current_Directory>
/home/itssahil/PROJECTS/Mol_Feturizer/New_Systems/rnas/3RKF

>  <Rbt.Executable>
rbdock ($Id: //depot/dev/client3/rdock/2013.1/src/exe/rbdock.cxx#4 $)

>  <Rbt.Library>
libRbt.so (2013.1, Build901 2013/11/27)

>  <Rbt.Parameter_File>
/export/apps/rDock/src/rDock_2013.1_src/data/scripts/dock_solv.prm

>  <Rbt.Receptor>
prm/pocket_docking_5.prm

>  <SCORE>
-16.5291

>  <SCORE.INTER>
-16.5291

>  <SCORE.INTER.CONST>
1

>  <SCORE.INTER.POLAR>
0

>  <SCORE.INTER.ROT>
0

>  <SCORE.INTER.SOLV>
10.6415

>  <SCORE.INTER.VDW>
-18.1666

>  <SCORE.INTER.norm>
-1.50265

>  <SCORE.INTRA>
0

>  <SCORE.INTRA.DIHEDRAL>
0

>  <SCORE.INTRA.DIHEDRAL.0>
0

>  <SCORE.INTRA.POLAR>
0

>  <SCORE.INTRA.POLAR.0>
0

>  <SCORE.INTRA.REPUL>
0

>  <SCORE.INTRA.REPUL.0>
0

>  <SCORE.INTRA.SOLV>
0

>  <SCORE.INTRA.SOLV.lig_0>
-28.6198

>  <SCORE.INTRA.VDW>
0

>  <SCORE.INTRA.VDW.0>
0

>  <SCORE.INTRA.norm>
0

>  <SCORE.RESTR>
0

>  <SCORE.RESTR.CAVITY>
0

>  <SCORE.RESTR.norm>
0

>  <SCORE.SYSTEM>
0

>  <SCORE.SYSTEM.CONST>
0

>  <SCORE.SYSTEM.DIHEDRAL>
0

>  <SCORE.SYSTEM.SOLV>
0

>  <SCORE.SYSTEM.norm>
0

>  <SCORE.heavy>
11

>  <SCORE.norm>
-1.50265

>  <RMSD>
3.459

$$$$
ligand
 OpenBabel11021811483D
libRbt.so/2013.1/901 2013/11/27
 11 12  0  0  0  0  0  0  0  0999 V2000
   34.9602   -9.9335  -38.6681 N   0  0  0  0  0  0  0  0  0  0  0  0
   35.2196   -8.6662  -39.0230 C   0  0  0  0  0  0  0  0  0  0  0  0
   34.2724   -7.9616  -39.8273 N   0  0  0  0  0  0  0  0  0  0  0  0
   36.3437   -8.0520  -38.6394 N   0  0  0  0  0  0  0  0  0  0  0  0
   37.2731   -8.7156  -37.8623 C   0  0  0  0  0  0  0  0  0  0  0  0
   37.0247  -10.0117  -37.4925 C   0  0  0  0  0  0  0  0  0  0  0  0
   35.8137  -10.6531  -37.9118 C   0  0  0  0  0  0  0  0  0  0  0  0
   35.4460  -12.3224  -37.4522 S   0  0  0  0  0  0  0  0  0  0  0  0
   38.0867  -10.4379  -36.7366 N   0  0  0  0  0  0  0  0  0  0  0  0
   38.9786   -9.4172  -36.6428 C   0  0  0  0  0  0  0  0  0  0  0  0
   38.4952   -8.3446  -37.3306 N   0  0  0  0  0  0  0  0  0  0  0  0
  1  2  2  0  0  0  0
  1  7  1  0  0  0  0
  2  3  1  0  0  0  0
  2  4  1  0  0  0  0
  4  5  2  0  0  0  0
  5  6  1  0  0  0  0
  5 11  1  0  0  0  0
  6  7  2  0  0  0  0
  6  9  1  0  0  0  0
  7  8  1  0  0  0  0
  9 10  1  0  0  0  0
 10 11  2  0  0  0  0
M  END
>  <CHROM.1>
36.39027574,-9.83152625,-37.91357070,2.96951285,0.47625065,2.76568225

>  <Name>
ligand

>  <RI>
0

>  <Rbt.Current_Directory>
/home/itssahil/PROJECTS/Mol_Feturizer/New_Systems/rnas/3RKF

>  <Rbt.Executable>
rbdock ($Id: //depot/dev/client3/rdock/2013.1/src/exe/rbdock.cxx#4 $)

>  <Rbt.Library>
libRbt.so (2013.1, Build901 2013/11/27)

>  <Rbt.Parameter_File>
/export/apps/rDock/src/rDock_2013.1_src/data/scripts/dock_solv.prm

>  <Rbt.Receptor>
prm/pocket_docking_3.prm

>  <SCORE>
-16.4926

>  <SCORE.INTER>
-16.4926

>  <SCORE.INTER.CONST>
1

>  <SCORE.INTER.POLAR>
0

>  <SCORE.INTER.ROT>
0

>  <SCORE.INTER.SOLV>
10.6559

>  <SCORE.INTER.VDW>
-18.1471

>  <SCORE.INTER.norm>
-1.49933

>  <SCORE.INTRA>
0

>  <SCORE.INTRA.DIHEDRAL>
0

>  <SCORE.INTRA.DIHEDRAL.0>
0

>  <SCORE.INTRA.POLAR>
0

>  <SCORE.INTRA.POLAR.0>
0

>  <SCORE.INTRA.REPUL>
0

>  <SCORE.INTRA.REPUL.0>
0

>  <SCORE.INTRA.SOLV>
0

>  <SCORE.INTRA.SOLV.lig_0>
-28.6198

>  <SCORE.INTRA.VDW>
0

>  <SCORE.INTRA.VDW.0>
0

>  <SCORE.INTRA.norm>
0

>  <SCORE.RESTR>
0

>  <SCORE.RESTR.CAVITY>
0

>  <SCORE.RESTR.norm>
0

>  <SCORE.SYSTEM>
0

>  <SCORE.SYSTEM.CONST>
0

>  <SCORE.SYSTEM.DIHEDRAL>
0

>  <SCORE.SYSTEM.SOLV>
0

>  <SCORE.SYSTEM.norm>
0

>  <SCORE.heavy>
11

>  <SCORE.norm>
-1.49933

>  <RMSD>
3.460

$$$$
ligand
 OpenBabel11021811483D
libRbt.so/2013.1/901 2013/11/27
 11 12  0  0  0  0  0  0  0  0999 V2000
   34.9681   -9.9841  -38.6772 N   0  0  0  0  0  0  0  0  0  0  0  0
   35.2265   -8.7195  -39.0427 C   0  0  0  0  0  0  0  0  0  0  0  0
   34.2842   -8.0264  -39.8625 N   0  0  0  0  0  0  0  0  0  0  0  0
   36.3451   -8.0978  -38.6554 N   0  0  0  0  0  0  0  0  0  0  0  0
   37.2697   -8.7503  -37.8634 C   0  0  0  0  0  0  0  0  0  0  0  0
   37.0223  -10.0434  -37.4826 C   0  0  0  0  0  0  0  0  0  0  0  0
   35.8171  -10.6930  -37.9061 C   0  0  0  0  0  0  0  0  0  0  0  0
   35.4509  -12.3588  -37.4327 S   0  0  0  0  0  0  0  0  0  0  0  0
   38.0789  -10.4583  -36.7130 N   0  0  0  0  0  0  0  0  0  0  0  0
   38.9665   -9.4337  -36.6216 C   0  0  0  0  0  0  0  0  0  0  0  0
   38.4858   -8.3697  -37.3246 N   0  0  0  0  0  0  0  0  0  0  0  0
  1  2  2  0  0  0  0
  1  7  1  0  0  0  0
  2  3  1  0  0  0  0
  2  4  1  0  0  0  0
  4  5  2  0  0  0  0
  5  6  1  0  0  0  0
  5 11  1  0  0  0  0
  6  7  2  0  0  0  0
  6  9  1  0  0  0  0
  7  8  1  0  0  0  0
  9 10  1  0  0  0  0
 10 11  2  0  0  0  0
M  END
>  <CHROM.1>
36.39102183,-9.86961526,-37.91108066,2.96977934,0.48574717,2.75536496

>  <Name>
ligand

>  <RI>
0

>  <Rbt.Current_Directory>
/home/itssahil/PROJECTS/Mol_Feturizer/New_Systems/rnas/3RKF

>  <Rbt.Executable>
rbdock ($Id: //depot/dev/client3/rdock/2013.1/src/exe/rbdock.cxx#4 $)

>  <Rbt.Library>
libRbt.so (2013.1, Build901 2013/11/27)

>  <Rbt.Parameter_File>
/export/apps/rDock/src/rDock_2013.1_src/data/scripts/dock_solv.prm

>  <Rbt.Receptor>
prm/pocket_docking_8.prm

>  <SCORE>
-16.4955

>  <SCORE.INTER>
-16.4955

>  <SCORE.INTER.CONST>
1

>  <SCORE.INTER.POLAR>
0

>  <SCORE.INTER.ROT>
0

>  <SCORE.INTER.SOLV>
10.8533

>  <SCORE.INTER.VDW>
-18.2148

>  <SCORE.INTER.norm>
-1.49959

>  <SCORE.INTRA>
0

>  <SCORE.INTRA.DIHEDRAL>
0

>  <SCORE.INTRA.DIHEDRAL.0>
0

>  <SCORE.INTRA.POLAR>
0

>  <SCORE.INTRA.POLAR.0>
0

>  <SCORE.INTRA.REPUL>
0

>  <SCORE.INTRA.REPUL.0>
0

>  <SCORE.INTRA.SOLV>
0

>  <SCORE.INTRA.SOLV.lig_0>
-28.6198

>  <SCORE.INTRA.VDW>
0

>  <SCORE.INTRA.VDW.0>
0

>  <SCORE.INTRA.norm>
0

>  <SCORE.RESTR>
0

>  <SCORE.RESTR.CAVITY>
0

>  <SCORE.RESTR.norm>
0

>  <SCORE.SYSTEM>
0

>  <SCORE.SYSTEM.CONST>
0

>  <SCORE.SYSTEM.DIHEDRAL>
0

>  <SCORE.SYSTEM.SOLV>
0

>  <SCORE.SYSTEM.norm>
0

>  <SCORE.heavy>
11

>  <SCORE.norm>
-1.49959

>  <RMSD>
3.461

$$$$
ligand
 OpenBabel11021811483D
libRbt.so/2013.1/901 2013/11/27
 11 12  0  0  0  0  0  0  0  0999 V2000
   34.9879  -10.0030  -38.6323 N   0  0  0  0  0  0  0  0  0  0  0  0
   35.2368   -8.7362  -38.9966 C   0  0  0  0  0  0  0  0  0  0  0  0
   34.2844   -8.0459  -39.8071 N   0  0  0  0  0  0  0  0  0  0  0  0
   36.3553   -8.1096  -38.6169 N   0  0  0  0  0  0  0  0  0  0  0  0
   37.2896   -8.7593  -37.8339 C   0  0  0  0  0  0  0  0  0  0  0  0
   37.0519  -10.0546  -37.4545 C   0  0  0  0  0  0  0  0  0  0  0  0
   35.8468  -10.7094  -37.8699 C   0  0  0  0  0  0  0  0  0  0  0  0
   35.4930  -12.3782  -37.3978 S   0  0  0  0  0  0  0  0  0  0  0  0
   38.1169  -10.4659  -36.6945 N   0  0  0  0  0  0  0  0  0  0  0  0
   38.9999   -9.4370  -36.6077 C   0  0  0  0  0  0  0  0  0  0  0  0
   38.5081   -8.3738  -37.3041 N   0  0  0  0  0  0  0  0  0  0  0  0
  1  2  2  0  0  0  0
  1  7  1  0  0  0  0
  2  3  1  0  0  0  0
  2  4  1  0  0  0  0
  4  5  2  0  0  0  0
  5  6  1  0  0  0  0
  5 11  1  0  0  0  0
  6  7  2  0  0  0  0
  6  9  1  0  0  0  0
  7  8  1  0  0  0  0
  9 10  1  0  0  0  0
 10 11  2  0  0  0  0
M  END
>  <CHROM.1>
36.41636409,-9.88304583,-37.87741129,2.96095137,0.48018229,2.76198497

>  <Name>
ligand

>  <RI>
0

>  <Rbt.Current_Directory>
/home/itssahil/PROJECTS/Mol_Feturizer/New_Systems/rnas/3RKF

>  <Rbt.Executable>
rbdock ($Id: //depot/dev/client3/rdock/2013.1/src/exe/rbdock.cxx#4 $)

>  <Rbt.Library>
libRbt.so (2013.1, Build901 2013/11/27)

>  <Rbt.Parameter_File>
/export/apps/rDock/src/rDock_2013.1_src/data/scripts/dock_solv.prm

>  <Rbt.Receptor>
prm/blind_docking_60.prm

>  <SCORE>
-16.4863

>  <SCORE.INTER>
-16.4863

>  <SCORE.INTER.CONST>
1

>  <SCORE.INTER.POLAR>
0

>  <SCORE.INTER.ROT>
0

>  <SCORE.INTER.SOLV>
10.7512

>  <SCORE.INTER.VDW>
-18.1746

>  <SCORE.INTER.norm>
-1.49876

>  <SCORE.INTRA>
0

>  <SCORE.INTRA.DIHEDRAL>
0

>  <SCORE.INTRA.DIHEDRAL.0>
0

>  <SCORE.INTRA.POLAR>
0

>  <SCORE.INTRA.POLAR.0>
0

>  <SCORE.INTRA.REPUL>
0

>  <SCORE.INTRA.REPUL.0>
0

>  <SCORE.INTRA.SOLV>
0

>  <SCORE.INTRA.SOLV.lig_0>
-28.6198

>  <SCORE.INTRA.VDW>
0

>  <SCORE.INTRA.VDW.0>
0

>  <SCORE.INTRA.norm>
0

>  <SCORE.RESTR>
0

>  <SCORE.RESTR.CAVITY>
0

>  <SCORE.RESTR.norm>
0

>  <SCORE.SYSTEM>
0

>  <SCORE.SYSTEM.CONST>
0

>  <SCORE.SYSTEM.DIHEDRAL>
0

>  <SCORE.SYSTEM.SOLV>
0

>  <SCORE.SYSTEM.norm>
0

>  <SCORE.heavy>
11

>  <SCORE.norm>
-1.49876

>  <RMSD>
3.462

$$$$
ligand
 OpenBabel11021811483D
libRbt.so/2013.1/901 2013/11/27
 11 12  0  0  0  0  0  0  0  0999 V2000
   34.9561   -9.9930  -38.6287 N   0  0  0  0  0  0  0  0  0  0  0  0
   35.1976   -8.7211  -38.9798 C   0  0  0  0  0  0  0  0  0  0  0  0
   34.2404   -8.0274  -39.7817 N   0  0  0  0  0  0  0  0  0  0  0  0
   36.3132   -8.0925  -38.5947 N   0  0  0  0  0  0  0  0  0  0  0  0
   37.2520   -8.7454  -37.8199 C   0  0  0  0  0  0  0  0  0  0  0  0
   37.0219  -10.0459  -37.4541 C   0  0  0  0  0  0  0  0  0  0  0  0
   35.8198  -10.7029  -37.8750 C   0  0  0  0  0  0  0  0  0  0  0  0
   35.4758  -12.3786  -37.4204 S   0  0  0  0  0  0  0  0  0  0  0  0
   38.0901  -10.4596  -36.6998 N   0  0  0  0  0  0  0  0  0  0  0  0
   38.9676   -9.4268  -36.6031 C   0  0  0  0  0  0  0  0  0  0  0  0
   38.4690   -8.3589  -37.2874 N   0  0  0  0  0  0  0  0  0  0  0  0
  1  2  2  0  0  0  0
  1  7  1  0  0  0  0
  2  3  1  0  0  0  0
  2  4  1  0  0  0  0
  4  5  2  0  0  0  0
  5  6  1  0  0  0  0
  5 11  1  0  0  0  0
  6  7  2  0  0  0  0
  6  9  1  0  0  0  0
  7  8  1  0  0  0  0
  9 10  1  0  0  0  0
 10 11  2  0  0  0  0
M  END
>  <CHROM.1>
36.38487908,-9.87335499,-37.87437181,2.95468828,0.48102743,2.77559531

>  <Name>
ligand

>  <RI>
0

>  <Rbt.Current_Directory>
/home/itssahil/PROJECTS/Mol_Feturizer/New_Systems/rnas/3RKF

>  <Rbt.Executable>
rbdock ($Id: //depot/dev/client3/rdock/2013.1/src/exe/rbdock.cxx#4 $)

>  <Rbt.Library>
libRbt.so (2013.1, Build901 2013/11/27)

>  <Rbt.Parameter_File>
/export/apps/rDock/src/rDock_2013.1_src/data/scripts/dock_solv.prm

>  <Rbt.Receptor>
prm/blind_docking_60.prm

>  <SCORE>
-16.4832

>  <SCORE.INTER>
-16.4832

>  <SCORE.INTER.CONST>
1

>  <SCORE.INTER.POLAR>
0

>  <SCORE.INTER.ROT>
0

>  <SCORE.INTER.SOLV>
10.5293

>  <SCORE.INTER.VDW>
-18.0986

>  <SCORE.INTER.norm>
-1.49847

>  <SCORE.INTRA>
0

>  <SCORE.INTRA.DIHEDRAL>
0

>  <SCORE.INTRA.DIHEDRAL.0>
0

>  <SCORE.INTRA.POLAR>
0

>  <SCORE.INTRA.POLAR.0>
0

>  <SCORE.INTRA.REPUL>
0

>  <SCORE.INTRA.REPUL.0>
0

>  <SCORE.INTRA.SOLV>
0

>  <SCORE.INTRA.SOLV.lig_0>
-28.6198

>  <SCORE.INTRA.VDW>
0

>  <SCORE.INTRA.VDW.0>
0

>  <SCORE.INTRA.norm>
0

>  <SCORE.RESTR>
0

>  <SCORE.RESTR.CAVITY>
0

>  <SCORE.RESTR.norm>
0

>  <SCORE.SYSTEM>
0

>  <SCORE.SYSTEM.CONST>
0

>  <SCORE.SYSTEM.DIHEDRAL>
0

>  <SCORE.SYSTEM.SOLV>
0

>  <SCORE.SYSTEM.norm>
0

>  <SCORE.heavy>
11

>  <SCORE.norm>
-1.49847

>  <RMSD>
3.462

$$$$
ligand
 OpenBabel11021811483D
libRbt.so/2013.1/901 2013/11/27
 11 12  0  0  0  0  0  0  0  0999 V2000
   34.9915   -9.9848  -38.6718 N   0  0  0  0  0  0  0  0  0  0  0  0
   35.2427   -8.7169  -39.0307 C   0  0  0  0  0  0  0  0  0  0  0  0
   34.2980   -8.0259  -39.8494 N   0  0  0  0  0  0  0  0  0  0  0  0
   36.3565   -8.0899  -38.6378 N   0  0  0  0  0  0  0  0  0  0  0  0
   37.2833   -8.7404  -37.8466 C   0  0  0  0  0  0  0  0  0  0  0  0
   37.0432  -10.0368  -37.4727 C   0  0  0  0  0  0  0  0  0  0  0  0
   35.8432  -10.6921  -37.9021 C   0  0  0  0  0  0  0  0  0  0  0  0
   35.4864  -12.3624  -37.4377 S   0  0  0  0  0  0  0  0  0  0  0  0
   38.1006  -10.4487  -36.7025 N   0  0  0  0  0  0  0  0  0  0  0  0
   38.9815   -9.4190  -36.6042 C   0  0  0  0  0  0  0  0  0  0  0  0
   38.4957   -8.3547  -37.3032 N   0  0  0  0  0  0  0  0  0  0  0  0
  1  2  2  0  0  0  0
  1  7  1  0  0  0  0
  2  3  1  0  0  0  0
  2  4  1  0  0  0  0
  4  5  2  0  0  0  0
  5  6  1  0  0  0  0
  5 11  1  0  0  0  0
  6  7  2  0  0  0  0
  6  9  1  0  0  0  0
  7  8  1  0  0  0  0
  9 10  1  0  0  0  0
 10 11  2  0  0  0  0
M  END
>  <CHROM.1>
36.41185515,-9.86502870,-37.90182741,2.96410777,0.49030298,2.76283157

>  <Name>
ligand

>  <RI>
0

>  <Rbt.Current_Directory>
/home/itssahil/PROJECTS/Mol_Feturizer/New_Systems/rnas/3RKF

>  <Rbt.Executable>
rbdock ($Id: //depot/dev/client3/rdock/2013.1/src/exe/rbdock.cxx#4 $)

>  <Rbt.Library>
libRbt.so (2013.1, Build901 2013/11/27)

>  <Rbt.Parameter_File>
/export/apps/rDock/src/rDock_2013.1_src/data/scripts/dock_solv.prm

>  <Rbt.Receptor>
prm/blind_docking_80.prm

>  <SCORE>
-16.4686

>  <SCORE.INTER>
-16.4686

>  <SCORE.INTER.CONST>
1

>  <SCORE.INTER.POLAR>
0

>  <SCORE.INTER.ROT>
0

>  <SCORE.INTER.SOLV>
10.8513

>  <SCORE.INTER.VDW>
-18.1962

>  <SCORE.INTER.norm>
-1.49715

>  <SCORE.INTRA>
0

>  <SCORE.INTRA.DIHEDRAL>
0

>  <SCORE.INTRA.DIHEDRAL.0>
0

>  <SCORE.INTRA.POLAR>
0

>  <SCORE.INTRA.POLAR.0>
0

>  <SCORE.INTRA.REPUL>
0

>  <SCORE.INTRA.REPUL.0>
0

>  <SCORE.INTRA.SOLV>
0

>  <SCORE.INTRA.SOLV.lig_0>
-28.6198

>  <SCORE.INTRA.VDW>
0

>  <SCORE.INTRA.VDW.0>
0

>  <SCORE.INTRA.norm>
0

>  <SCORE.RESTR>
0

>  <SCORE.RESTR.CAVITY>
0

>  <SCORE.RESTR.norm>
0

>  <SCORE.SYSTEM>
0

>  <SCORE.SYSTEM.CONST>
0

>  <SCORE.SYSTEM.DIHEDRAL>
0

>  <SCORE.SYSTEM.SOLV>
0

>  <SCORE.SYSTEM.norm>
0

>  <SCORE.heavy>
11

>  <SCORE.norm>
-1.49715

>  <RMSD>
3.462

$$$$
ligand
 OpenBabel11021811483D
libRbt.so/2013.1/901 2013/11/27
 11 12  0  0  0  0  0  0  0  0999 V2000
   34.9809   -9.9832  -38.6669 N   0  0  0  0  0  0  0  0  0  0  0  0
   35.2389   -8.7195  -39.0354 C   0  0  0  0  0  0  0  0  0  0  0  0
   34.2938   -8.0267  -39.8522 N   0  0  0  0  0  0  0  0  0  0  0  0
   36.3598   -8.0983  -38.6540 N   0  0  0  0  0  0  0  0  0  0  0  0
   37.2872   -8.7505  -37.8649 C   0  0  0  0  0  0  0  0  0  0  0  0
   37.0401  -10.0428  -37.4811 C   0  0  0  0  0  0  0  0  0  0  0  0
   35.8325  -10.6919  -37.8984 C   0  0  0  0  0  0  0  0  0  0  0  0
   35.4666  -12.3566  -37.4209 S   0  0  0  0  0  0  0  0  0  0  0  0
   38.0996  -10.4576  -36.7154 N   0  0  0  0  0  0  0  0  0  0  0  0
   38.9887   -9.4338  -36.6295 C   0  0  0  0  0  0  0  0  0  0  0  0
   38.5060   -8.3704  -37.3320 N   0  0  0  0  0  0  0  0  0  0  0  0
  1  2  2  0  0  0  0
  1  7  1  0  0  0  0
  2  3  1  0  0  0  0
  2  4  1  0  0  0  0
  4  5  2  0  0  0  0
  5  6  1  0  0  0  0
  5 11  1  0  0  0  0
  6  7  2  0  0  0  0
  6  9  1  0  0  0  0
  7  8  1  0  0  0  0
  9 10  1  0  0  0  0
 10 11  2  0  0  0  0
M  END
>  <CHROM.1>
36.40718915,-9.86904857,-37.90712401,2.96897483,0.48136152,2.75421854

>  <Name>
ligand

>  <RI>
0

>  <Rbt.Current_Directory>
/home/itssahil/PROJECTS/Mol_Feturizer/New_Systems/rnas/3RKF

>  <Rbt.Executable>
rbdock ($Id: //depot/dev/client3/rdock/2013.1/src/exe/rbdock.cxx#4 $)

>  <Rbt.Library>
libRbt.so (2013.1, Build901 2013/11/27)

>  <Rbt.Parameter_File>
/export/apps/rDock/src/rDock_2013.1_src/data/scripts/dock_solv.prm

>  <Rbt.Receptor>
prm/pocket_docking_6.prm

>  <SCORE>
-16.4964

>  <SCORE.INTER>
-16.4964

>  <SCORE.INTER.CONST>
1

>  <SCORE.INTER.POLAR>
0

>  <SCORE.INTER.ROT>
0

>  <SCORE.INTER.SOLV>
10.865

>  <SCORE.INTER.VDW>
-18.2193

>  <SCORE.INTER.norm>
-1.49968

>  <SCORE.INTRA>
0

>  <SCORE.INTRA.DIHEDRAL>
0

>  <SCORE.INTRA.DIHEDRAL.0>
0

>  <SCORE.INTRA.POLAR>
0

>  <SCORE.INTRA.POLAR.0>
0

>  <SCORE.INTRA.REPUL>
0

>  <SCORE.INTRA.REPUL.0>
0

>  <SCORE.INTRA.SOLV>
0

>  <SCORE.INTRA.SOLV.lig_0>
-28.6198

>  <SCORE.INTRA.VDW>
0

>  <SCORE.INTRA.VDW.0>
0

>  <SCORE.INTRA.norm>
0

>  <SCORE.RESTR>
0

>  <SCORE.RESTR.CAVITY>
0

>  <SCORE.RESTR.norm>
0

>  <SCORE.SYSTEM>
0

>  <SCORE.SYSTEM.CONST>
0

>  <SCORE.SYSTEM.DIHEDRAL>
0

>  <SCORE.SYSTEM.SOLV>
0

>  <SCORE.SYSTEM.norm>
0

>  <SCORE.heavy>
11

>  <SCORE.norm>
-1.49968

>  <RMSD>
3.462

$$$$
ligand
 OpenBabel11021811483D
libRbt.so/2013.1/901 2013/11/27
 11 12  0  0  0  0  0  0  0  0999 V2000
   34.9728   -9.9883  -38.6701 N   0  0  0  0  0  0  0  0  0  0  0  0
   35.2279   -8.7229  -39.0349 C   0  0  0  0  0  0  0  0  0  0  0  0
   34.2820   -8.0304  -39.8511 N   0  0  0  0  0  0  0  0  0  0  0  0
   36.3467   -8.0996  -38.6502 N   0  0  0  0  0  0  0  0  0  0  0  0
   37.2747   -8.7515  -37.8617 C   0  0  0  0  0  0  0  0  0  0  0  0
   37.0306  -10.0454  -37.4817 C   0  0  0  0  0  0  0  0  0  0  0  0
   35.8253  -10.6967  -37.9024 C   0  0  0  0  0  0  0  0  0  0  0  0
   35.4634  -12.3636  -37.4300 S   0  0  0  0  0  0  0  0  0  0  0  0
   38.0903  -10.4595  -36.7157 N   0  0  0  0  0  0  0  0  0  0  0  0
   38.9764   -9.4335  -36.6258 C   0  0  0  0  0  0  0  0  0  0  0  0
   38.4918   -8.3695  -37.3261 N   0  0  0  0  0  0  0  0  0  0  0  0
  1  2  2  0  0  0  0
  1  7  1  0  0  0  0
  2  3  1  0  0  0  0
  2  4  1  0  0  0  0
  4  5  2  0  0  0  0
  5  6  1  0  0  0  0
  5 11  1  0  0  0  0
  6  7  2  0  0  0  0
  6  9  1  0  0  0  0
  7  8  1  0  0  0  0
  9 10  1  0  0  0  0
 10 11  2  0  0  0  0
M  END
>  <CHROM.1>
36.39782068,-9.87228188,-37.90812037,2.96670656,0.48363995,2.75798868

>  <Name>
ligand

>  <RI>
0

>  <Rbt.Current_Directory>
/home/itssahil/PROJECTS/Mol_Feturizer/New_Systems/rnas/3RKF

>  <Rbt.Executable>
rbdock ($Id: //depot/dev/client3/rdock/2013.1/src/exe/rbdock.cxx#4 $)

>  <Rbt.Library>
libRbt.so (2013.1, Build901 2013/11/27)

>  <Rbt.Parameter_File>
/export/apps/rDock/src/rDock_2013.1_src/data/scripts/dock_solv.prm

>  <Rbt.Receptor>
prm/pocket_docking_4.prm

>  <SCORE>
-16.4956

>  <SCORE.INTER>
-16.4956

>  <SCORE.INTER.CONST>
1

>  <SCORE.INTER.POLAR>
0

>  <SCORE.INTER.ROT>
0

>  <SCORE.INTER.SOLV>
10.8331

>  <SCORE.INTER.VDW>
-18.2081

>  <SCORE.INTER.norm>
-1.4996

>  <SCORE.INTRA>
0

>  <SCORE.INTRA.DIHEDRAL>
0

>  <SCORE.INTRA.DIHEDRAL.0>
0

>  <SCORE.INTRA.POLAR>
0

>  <SCORE.INTRA.POLAR.0>
0

>  <SCORE.INTRA.REPUL>
0

>  <SCORE.INTRA.REPUL.0>
0

>  <SCORE.INTRA.SOLV>
0

>  <SCORE.INTRA.SOLV.lig_0>
-28.6198

>  <SCORE.INTRA.VDW>
0

>  <SCORE.INTRA.VDW.0>
0

>  <SCORE.INTRA.norm>
0

>  <SCORE.RESTR>
0

>  <SCORE.RESTR.CAVITY>
0

>  <SCORE.RESTR.norm>
0

>  <SCORE.SYSTEM>
0

>  <SCORE.SYSTEM.CONST>
0

>  <SCORE.SYSTEM.DIHEDRAL>
0

>  <SCORE.SYSTEM.SOLV>
0

>  <SCORE.SYSTEM.norm>
0

>  <SCORE.heavy>
11

>  <SCORE.norm>
-1.4996

>  <RMSD>
3.463

$$$$
ligand
 OpenBabel11021811483D
libRbt.so/2013.1/901 2013/11/27
 11 12  0  0  0  0  0  0  0  0999 V2000
   34.9352   -9.9880  -38.6295 N   0  0  0  0  0  0  0  0  0  0  0  0
   35.1830   -8.7197  -38.9892 C   0  0  0  0  0  0  0  0  0  0  0  0
   34.2241   -8.0231  -39.7864 N   0  0  0  0  0  0  0  0  0  0  0  0
   36.3065   -8.0975  -38.6169 N   0  0  0  0  0  0  0  0  0  0  0  0
   37.2471   -8.7534  -37.8468 C   0  0  0  0  0  0  0  0  0  0  0  0
   37.0105  -10.0503  -37.4723 C   0  0  0  0  0  0  0  0  0  0  0  0
   35.8000  -10.7005  -37.8795 C   0  0  0  0  0  0  0  0  0  0  0  0
   35.4475  -12.3712  -37.4134 S   0  0  0  0  0  0  0  0  0  0  0  0
   38.0820  -10.4680  -36.7251 N   0  0  0  0  0  0  0  0  0  0  0  0
   38.9680   -9.4414  -36.6413 C   0  0  0  0  0  0  0  0  0  0  0  0
   38.4714   -8.3733  -37.3268 N   0  0  0  0  0  0  0  0  0  0  0  0
  1  2  2  0  0  0  0
  1  7  1  0  0  0  0
  2  3  1  0  0  0  0
  2  4  1  0  0  0  0
  4  5  2  0  0  0  0
  5  6  1  0  0  0  0
  5 11  1  0  0  0  0
  6  7  2  0  0  0  0
  6  9  1  0  0  0  0
  7  8  1  0  0  0  0
  9 10  1  0  0  0  0
 10 11  2  0  0  0  0
M  END
>  <CHROM.1>
36.37119438,-9.87517000,-37.88804134,2.95897191,0.47033433,2.76850164

>  <Name>
ligand

>  <RI>
0

>  <Rbt.Current_Directory>
/home/itssahil/PROJECTS/Mol_Feturizer/New_Systems/rnas/3RKF

>  <Rbt.Executable>
rbdock ($Id: //depot/dev/client3/rdock/2013.1/src/exe/rbdock.cxx#4 $)

>  <Rbt.Library>
libRbt.so (2013.1, Build901 2013/11/27)

>  <Rbt.Parameter_File>
/export/apps/rDock/src/rDock_2013.1_src/data/scripts/dock_solv.prm

>  <Rbt.Receptor>
prm/pocket_docking_3.prm

>  <SCORE>
-16.4953

>  <SCORE.INTER>
-16.4953

>  <SCORE.INTER.CONST>
1

>  <SCORE.INTER.POLAR>
0

>  <SCORE.INTER.ROT>
0

>  <SCORE.INTER.SOLV>
10.5129

>  <SCORE.INTER.VDW>
-18.1012

>  <SCORE.INTER.norm>
-1.49957

>  <SCORE.INTRA>
0

>  <SCORE.INTRA.DIHEDRAL>
0

>  <SCORE.INTRA.DIHEDRAL.0>
0

>  <SCORE.INTRA.POLAR>
0

>  <SCORE.INTRA.POLAR.0>
0

>  <SCORE.INTRA.REPUL>
0

>  <SCORE.INTRA.REPUL.0>
0

>  <SCORE.INTRA.SOLV>
0

>  <SCORE.INTRA.SOLV.lig_0>
-28.6198

>  <SCORE.INTRA.VDW>
0

>  <SCORE.INTRA.VDW.0>
0

>  <SCORE.INTRA.norm>
0

>  <SCORE.RESTR>
0

>  <SCORE.RESTR.CAVITY>
0

>  <SCORE.RESTR.norm>
0

>  <SCORE.SYSTEM>
0

>  <SCORE.SYSTEM.CONST>
0

>  <SCORE.SYSTEM.DIHEDRAL>
0

>  <SCORE.SYSTEM.SOLV>
0

>  <SCORE.SYSTEM.norm>
0

>  <SCORE.heavy>
11

>  <SCORE.norm>
-1.49957

>  <RMSD>
3.464

$$$$
ligand
 OpenBabel11021811483D
libRbt.so/2013.1/901 2013/11/27
 11 12  0  0  0  0  0  0  0  0999 V2000
   34.9301   -9.9752  -38.6212 N   0  0  0  0  0  0  0  0  0  0  0  0
   35.1774   -8.7072  -38.9821 C   0  0  0  0  0  0  0  0  0  0  0  0
   34.2186   -8.0120  -39.7807 N   0  0  0  0  0  0  0  0  0  0  0  0
   36.3003   -8.0838  -38.6098 N   0  0  0  0  0  0  0  0  0  0  0  0
   37.2408   -8.7383  -37.8384 C   0  0  0  0  0  0  0  0  0  0  0  0
   37.0048  -10.0350  -37.4626 C   0  0  0  0  0  0  0  0  0  0  0  0
   35.7949  -10.6863  -37.8699 C   0  0  0  0  0  0  0  0  0  0  0  0
   35.4431  -12.3567  -37.4021 S   0  0  0  0  0  0  0  0  0  0  0  0
   38.0761  -10.4512  -36.7142 N   0  0  0  0  0  0  0  0  0  0  0  0
   38.9613   -9.4239  -36.6310 C   0  0  0  0  0  0  0  0  0  0  0  0
   38.4646   -8.3569  -37.3180 N   0  0  0  0  0  0  0  0  0  0  0  0
  1  2  2  0  0  0  0
  1  7  1  0  0  0  0
  2  3  1  0  0  0  0
  2  4  1  0  0  0  0
  4  5  2  0  0  0  0
  5  6  1  0  0  0  0
  5 11  1  0  0  0  0
  6  7  2  0  0  0  0
  6  9  1  0  0  0  0
  7  8  1  0  0  0  0
  9 10  1  0  0  0  0
 10 11  2  0  0  0  0
M  END
>  <CHROM.1>
36.36560595,-9.86066280,-37.87891840,2.95861670,0.47113933,2.76754839

>  <Name>
ligand

>  <RI>
0

>  <Rbt.Current_Directory>
/home/itssahil/PROJECTS/Mol_Feturizer/New_Systems/rnas/3RKF

>  <Rbt.Executable>
rbdock ($Id: //depot/dev/client3/rdock/2013.1/src/exe/rbdock.cxx#4 $)

>  <Rbt.Library>
libRbt.so (2013.1, Build901 2013/11/27)

>  <Rbt.Parameter_File>
/export/apps/rDock/src/rDock_2013.1_src/data/scripts/dock_solv.prm

>  <Rbt.Receptor>
prm/blind_docking_80.prm

>  <SCORE>
-16.5282

>  <SCORE.INTER>
-16.5282

>  <SCORE.INTER.CONST>
1

>  <SCORE.INTER.POLAR>
0

>  <SCORE.INTER.ROT>
0

>  <SCORE.INTER.SOLV>
10.4453

>  <SCORE.INTER.VDW>
-18.1006

>  <SCORE.INTER.norm>
-1.50257

>  <SCORE.INTRA>
0

>  <SCORE.INTRA.DIHEDRAL>
0

>  <SCORE.INTRA.DIHEDRAL.0>
0

>  <SCORE.INTRA.POLAR>
0

>  <SCORE.INTRA.POLAR.0>
0

>  <SCORE.INTRA.REPUL>
0

>  <SCORE.INTRA.REPUL.0>
0

>  <SCORE.INTRA.SOLV>
0

>  <SCORE.INTRA.SOLV.lig_0>
-28.6198

>  <SCORE.INTRA.VDW>
0

>  <SCORE.INTRA.VDW.0>
0

>  <SCORE.INTRA.norm>
0

>  <SCORE.RESTR>
0

>  <SCORE.RESTR.CAVITY>
0

>  <SCORE.RESTR.norm>
0

>  <SCORE.SYSTEM>
0

>  <SCORE.SYSTEM.CONST>
0

>  <SCORE.SYSTEM.DIHEDRAL>
0

>  <SCORE.SYSTEM.SOLV>
0

>  <SCORE.SYSTEM.norm>
0

>  <SCORE.heavy>
11

>  <SCORE.norm>
-1.50257

>  <RMSD>
3.465

$$$$
ligand
 OpenBabel11021811483D
libRbt.so/2013.1/901 2013/11/27
 11 12  0  0  0  0  0  0  0  0999 V2000
   34.9877   -9.9801  -38.6739 N   0  0  0  0  0  0  0  0  0  0  0  0
   35.2375   -8.7125  -39.0345 C   0  0  0  0  0  0  0  0  0  0  0  0
   34.2941   -8.0249  -39.8577 N   0  0  0  0  0  0  0  0  0  0  0  0
   36.3489   -8.0826  -38.6395 N   0  0  0  0  0  0  0  0  0  0  0  0
   37.2744   -8.7296  -37.8441 C   0  0  0  0  0  0  0  0  0  0  0  0
   37.0356  -10.0257  -37.4682 C   0  0  0  0  0  0  0  0  0  0  0  0
   35.8382  -10.6842  -37.9000 C   0  0  0  0  0  0  0  0  0  0  0  0
   35.4832  -12.3542  -37.4332 S   0  0  0  0  0  0  0  0  0  0  0  0
   38.0914  -10.4340  -36.6938 N   0  0  0  0  0  0  0  0  0  0  0  0
   38.9700   -9.4024  -36.5948 C   0  0  0  0  0  0  0  0  0  0  0  0
   38.4844   -8.3405  -37.2976 N   0  0  0  0  0  0  0  0  0  0  0  0
  1  2  2  0  0  0  0
  1  7  1  0  0  0  0
  2  3  1  0  0  0  0
  2  4  1  0  0  0  0
  4  5  2  0  0  0  0
  5  6  1  0  0  0  0
  5 11  1  0  0  0  0
  6  7  2  0  0  0  0
  6  9  1  0  0  0  0
  7  8  1  0  0  0  0
  9 10  1  0  0  0  0
 10 11  2  0  0  0  0
M  END
>  <CHROM.1>
36.40534635,-9.85601591,-37.89965685,2.96341924,0.49394758,2.76108981

>  <Name>
ligand

>  <RI>
0

>  <Rbt.Current_Directory>
/home/itssahil/PROJECTS/Mol_Feturizer/New_Systems/rnas/3RKF

>  <Rbt.Executable>
rbdock ($Id: //depot/dev/client3/rdock/2013.1/src/exe/rbdock.cxx#4 $)

>  <Rbt.Library>
libRbt.so (2013.1, Build901 2013/11/27)

>  <Rbt.Parameter_File>
/export/apps/rDock/src/rDock_2013.1_src/data/scripts/dock_solv.prm

>  <Rbt.Receptor>
prm/pocket_docking_3.prm

>  <SCORE>
-16.5052

>  <SCORE.INTER>
-16.5052

>  <SCORE.INTER.CONST>
1

>  <SCORE.INTER.POLAR>
0

>  <SCORE.INTER.ROT>
0

>  <SCORE.INTER.SOLV>
10.8407

>  <SCORE.INTER.VDW>
-18.2171

>  <SCORE.INTER.norm>
-1.50047

>  <SCORE.INTRA>
0

>  <SCORE.INTRA.DIHEDRAL>
0

>  <SCORE.INTRA.DIHEDRAL.0>
0

>  <SCORE.INTRA.POLAR>
0

>  <SCORE.INTRA.POLAR.0>
0

>  <SCORE.INTRA.REPUL>
0

>  <SCORE.INTRA.REPUL.0>
0

>  <SCORE.INTRA.SOLV>
0

>  <SCORE.INTRA.SOLV.lig_0>
-28.6198

>  <SCORE.INTRA.VDW>
0

>  <SCORE.INTRA.VDW.0>
0

>  <SCORE.INTRA.norm>
0

>  <SCORE.RESTR>
0

>  <SCORE.RESTR.CAVITY>
0

>  <SCORE.RESTR.norm>
0

>  <SCORE.SYSTEM>
0

>  <SCORE.SYSTEM.CONST>
0

>  <SCORE.SYSTEM.DIHEDRAL>
0

>  <SCORE.SYSTEM.SOLV>
0

>  <SCORE.SYSTEM.norm>
0

>  <SCORE.heavy>
11

>  <SCORE.norm>
-1.50047

>  <RMSD>
3.465

$$$$
ligand
 OpenBabel11021811483D
libRbt.so/2013.1/901 2013/11/27
 11 12  0  0  0  0  0  0  0  0999 V2000
   34.9538  -10.0006  -38.6428 N   0  0  0  0  0  0  0  0  0  0  0  0
   35.2032   -8.7351  -39.0111 C   0  0  0  0  0  0  0  0  0  0  0  0
   34.2507   -8.0466  -39.8230 N   0  0  0  0  0  0  0  0  0  0  0  0
   36.3224   -8.1080  -38.6339 N   0  0  0  0  0  0  0  0  0  0  0  0
   37.2568   -8.7560  -37.8496 C   0  0  0  0  0  0  0  0  0  0  0  0
   37.0186  -10.0500  -37.4662 C   0  0  0  0  0  0  0  0  0  0  0  0
   35.8128  -10.7053  -37.8789 C   0  0  0  0  0  0  0  0  0  0  0  0
   35.4583  -12.3725  -37.4016 S   0  0  0  0  0  0  0  0  0  0  0  0
   38.0838  -10.4597  -36.7056 N   0  0  0  0  0  0  0  0  0  0  0  0
   38.9675   -9.4311  -36.6225 C   0  0  0  0  0  0  0  0  0  0  0  0
   38.4758   -8.3696  -37.3217 N   0  0  0  0  0  0  0  0  0  0  0  0
  1  2  2  0  0  0  0
  1  7  1  0  0  0  0
  2  3  1  0  0  0  0
  2  4  1  0  0  0  0
  4  5  2  0  0  0  0
  5  6  1  0  0  0  0
  5 11  1  0  0  0  0
  6  7  2  0  0  0  0
  6  9  1  0  0  0  0
  7  8  1  0  0  0  0
  9 10  1  0  0  0  0
 10 11  2  0  0  0  0
M  END
>  <CHROM.1>
36.38285702,-9.87930695,-37.88922453,2.96131030,0.47936011,2.75885374

>  <Name>
ligand

>  <RI>
0

>  <Rbt.Current_Directory>
/home/itssahil/PROJECTS/Mol_Feturizer/New_Systems/rnas/3RKF

>  <Rbt.Executable>
rbdock ($Id: //depot/dev/client3/rdock/2013.1/src/exe/rbdock.cxx#4 $)

>  <Rbt.Library>
libRbt.so (2013.1, Build901 2013/11/27)

>  <Rbt.Parameter_File>
/export/apps/rDock/src/rDock_2013.1_src/data/scripts/dock_solv.prm

>  <Rbt.Receptor>
prm/pocket_docking_4.prm

>  <SCORE>
-16.5035

>  <SCORE.INTER>
-16.5035

>  <SCORE.INTER.CONST>
1

>  <SCORE.INTER.POLAR>
0

>  <SCORE.INTER.ROT>
0

>  <SCORE.INTER.SOLV>
10.689

>  <SCORE.INTER.VDW>
-18.1654

>  <SCORE.INTER.norm>
-1.50032

>  <SCORE.INTRA>
0

>  <SCORE.INTRA.DIHEDRAL>
0

>  <SCORE.INTRA.DIHEDRAL.0>
0

>  <SCORE.INTRA.POLAR>
0

>  <SCORE.INTRA.POLAR.0>
0

>  <SCORE.INTRA.REPUL>
0

>  <SCORE.INTRA.REPUL.0>
0

>  <SCORE.INTRA.SOLV>
0

>  <SCORE.INTRA.SOLV.lig_0>
-28.6198

>  <SCORE.INTRA.VDW>
0

>  <SCORE.INTRA.VDW.0>
0

>  <SCORE.INTRA.norm>
0

>  <SCORE.RESTR>
0

>  <SCORE.RESTR.CAVITY>
0

>  <SCORE.RESTR.norm>
0

>  <SCORE.SYSTEM>
0

>  <SCORE.SYSTEM.CONST>
0

>  <SCORE.SYSTEM.DIHEDRAL>
0

>  <SCORE.SYSTEM.SOLV>
0

>  <SCORE.SYSTEM.norm>
0

>  <SCORE.heavy>
11

>  <SCORE.norm>
-1.50032

>  <RMSD>
3.466

$$$$
ligand
 OpenBabel11021811483D
libRbt.so/2013.1/901 2013/11/27
 11 12  0  0  0  0  0  0  0  0999 V2000
   34.9903   -9.9812  -38.6751 N   0  0  0  0  0  0  0  0  0  0  0  0
   35.2380   -8.7130  -39.0350 C   0  0  0  0  0  0  0  0  0  0  0  0
   34.2925   -8.0260  -39.8562 N   0  0  0  0  0  0  0  0  0  0  0  0
   36.3491   -8.0819  -38.6410 N   0  0  0  0  0  0  0  0  0  0  0  0
   37.2766   -8.7284  -37.8475 C   0  0  0  0  0  0  0  0  0  0  0  0
   37.0401  -10.0251  -37.4724 C   0  0  0  0  0  0  0  0  0  0  0  0
   35.8429  -10.6848  -37.9031 C   0  0  0  0  0  0  0  0  0  0  0  0
   35.4908  -12.3557  -37.4372 S   0  0  0  0  0  0  0  0  0  0  0  0
   38.0975  -10.4327  -36.6999 N   0  0  0  0  0  0  0  0  0  0  0  0
   38.9749   -9.4000  -36.6013 C   0  0  0  0  0  0  0  0  0  0  0  0
   38.4868   -8.3382  -37.3024 N   0  0  0  0  0  0  0  0  0  0  0  0
  1  2  2  0  0  0  0
  1  7  1  0  0  0  0
  2  3  1  0  0  0  0
  2  4  1  0  0  0  0
  4  5  2  0  0  0  0
  5  6  1  0  0  0  0
  5 11  1  0  0  0  0
  6  7  2  0  0  0  0
  6  9  1  0  0  0  0
  7  8  1  0  0  0  0
  9 10  1  0  0  0  0
 10 11  2  0  0  0  0
M  END
>  <CHROM.1>
36.40891912,-9.85591168,-37.90280957,2.96142035,0.49310070,2.76288639

>  <Name>
ligand

>  <RI>
0

>  <Rbt.Current_Directory>
/home/itssahil/PROJECTS/Mol_Feturizer/New_Systems/rnas/3RKF

>  <Rbt.Executable>
rbdock ($Id: //depot/dev/client3/rdock/2013.1/src/exe/rbdock.cxx#4 $)

>  <Rbt.Library>
libRbt.so (2013.1, Build901 2013/11/27)

>  <Rbt.Parameter_File>
/export/apps/rDock/src/rDock_2013.1_src/data/scripts/dock_solv.prm

>  <Rbt.Receptor>
prm/pocket_docking_3.prm

>  <SCORE>
-16.5032

>  <SCORE.INTER>
-16.5032

>  <SCORE.INTER.CONST>
1

>  <SCORE.INTER.POLAR>
0

>  <SCORE.INTER.ROT>
0

>  <SCORE.INTER.SOLV>
10.8404

>  <SCORE.INTER.VDW>
-18.2156

>  <SCORE.INTER.norm>
-1.50029

>  <SCORE.INTRA>
0

>  <SCORE.INTRA.DIHEDRAL>
0

>  <SCORE.INTRA.DIHEDRAL.0>
0

>  <SCORE.INTRA.POLAR>
0

>  <SCORE.INTRA.POLAR.0>
0

>  <SCORE.INTRA.REPUL>
0

>  <SCORE.INTRA.REPUL.0>
0

>  <SCORE.INTRA.SOLV>
0

>  <SCORE.INTRA.SOLV.lig_0>
-28.6198

>  <SCORE.INTRA.VDW>
0

>  <SCORE.INTRA.VDW.0>
0

>  <SCORE.INTRA.norm>
0

>  <SCORE.RESTR>
0

>  <SCORE.RESTR.CAVITY>
0

>  <SCORE.RESTR.norm>
0

>  <SCORE.SYSTEM>
0

>  <SCORE.SYSTEM.CONST>
0

>  <SCORE.SYSTEM.DIHEDRAL>
0

>  <SCORE.SYSTEM.SOLV>
0

>  <SCORE.SYSTEM.norm>
0

>  <SCORE.heavy>
11

>  <SCORE.norm>
-1.50029

>  <RMSD>
3.467

$$$$
ligand
 OpenBabel11021811483D
libRbt.so/2013.1/901 2013/11/27
 11 12  0  0  0  0  0  0  0  0999 V2000
   36.1190  -10.7039  -37.9617 N   0  0  0  0  0  0  0  0  0  0  0  0
   36.8682  -11.5428  -37.2308 C   0  0  0  0  0  0  0  0  0  0  0  0
   36.5865  -12.9425  -37.2724 N   0  0  0  0  0  0  0  0  0  0  0  0
   37.8702  -11.0952  -36.4668 N   0  0  0  0  0  0  0  0  0  0  0  0
   38.1587   -9.7455  -36.4116 C   0  0  0  0  0  0  0  0  0  0  0  0
   37.4016   -8.8744  -37.1507 C   0  0  0  0  0  0  0  0  0  0  0  0
   36.3326   -9.3726  -37.9648 C   0  0  0  0  0  0  0  0  0  0  0  0
   35.3333   -8.2868  -38.9424 S   0  0  0  0  0  0  0  0  0  0  0  0
   37.8832   -7.6105  -36.9231 N   0  0  0  0  0  0  0  0  0  0  0  0
   38.9234   -7.7021  -36.0540 C   0  0  0  0  0  0  0  0  0  0  0  0
   39.1102   -9.0116  -35.7259 N   0  0  0  0  0  0  0  0  0  0  0  0
  1  2  2  0  0  0  0
  1  7  1  0  0  0  0
  2  3  1  0  0  0  0
  2  4  1  0  0  0  0
  4  5  2  0  0  0  0
  5  6  1  0  0  0  0
  5 11  1  0  0  0  0
  6  7  2  0  0  0  0
  6  9  1  0  0  0  0
  7  8  1  0  0  0  0
  9 10  1  0  0  0  0
 10 11  2  0  0  0  0
M  END
>  <CHROM.1>
37.08037451,-9.56648269,-37.32401183,-2.72824842,-0.68576208,-0.13488939

>  <Name>
ligand

>  <RI>
0

>  <Rbt.Current_Directory>
/home/itssahil/PROJECTS/Mol_Feturizer/New_Systems/rnas/3RKF

>  <Rbt.Executable>
rbdock ($Id: //depot/dev/client3/rdock/2013.1/src/exe/rbdock.cxx#4 $)

>  <Rbt.Library>
libRbt.so (2013.1, Build901 2013/11/27)

>  <Rbt.Parameter_File>
/export/apps/rDock/src/rDock_2013.1_src/data/scripts/dock_solv.prm

>  <Rbt.Receptor>
prm/blind_docking_60.prm

>  <SCORE>
-12.4022

>  <SCORE.INTER>
-12.4022

>  <SCORE.INTER.CONST>
1

>  <SCORE.INTER.POLAR>
0

>  <SCORE.INTER.ROT>
0

>  <SCORE.INTER.SOLV>
11.8851

>  <SCORE.INTER.VDW>
-15.8298

>  <SCORE.INTER.norm>
-1.12747

>  <SCORE.INTRA>
0

>  <SCORE.INTRA.DIHEDRAL>
0

>  <SCORE.INTRA.DIHEDRAL.0>
0

>  <SCORE.INTRA.POLAR>
0

>  <SCORE.INTRA.POLAR.0>
0

>  <SCORE.INTRA.REPUL>
0

>  <SCORE.INTRA.REPUL.0>
0

>  <SCORE.INTRA.SOLV>
0

>  <SCORE.INTRA.SOLV.lig_0>
-28.6198

>  <SCORE.INTRA.VDW>
0

>  <SCORE.INTRA.VDW.0>
0

>  <SCORE.INTRA.norm>
0

>  <SCORE.RESTR>
0

>  <SCORE.RESTR.CAVITY>
0

>  <SCORE.RESTR.norm>
0

>  <SCORE.SYSTEM>
0

>  <SCORE.SYSTEM.CONST>
0

>  <SCORE.SYSTEM.DIHEDRAL>
0

>  <SCORE.SYSTEM.SOLV>
0

>  <SCORE.SYSTEM.norm>
0

>  <SCORE.heavy>
11

>  <SCORE.norm>
-1.12747

>  <RMSD>
3.470

$$$$
ligand
 OpenBabel11021811483D
libRbt.so/2013.1/901 2013/11/27
 11 12  0  0  0  0  0  0  0  0999 V2000
   34.9354   -9.9870  -38.6069 N   0  0  0  0  0  0  0  0  0  0  0  0
   35.1722   -8.7163  -38.9658 C   0  0  0  0  0  0  0  0  0  0  0  0
   34.2051   -8.0261  -39.7587 N   0  0  0  0  0  0  0  0  0  0  0  0
   36.2920   -8.0858  -38.5965 N   0  0  0  0  0  0  0  0  0  0  0  0
   37.2404   -8.7355  -37.8306 C   0  0  0  0  0  0  0  0  0  0  0  0
   37.0152  -10.0347  -37.4570 C   0  0  0  0  0  0  0  0  0  0  0  0
   35.8084  -10.6937  -37.8609 C   0  0  0  0  0  0  0  0  0  0  0  0
   35.4705  -12.3677  -37.3958 S   0  0  0  0  0  0  0  0  0  0  0  0
   38.0925  -10.4450  -36.7140 N   0  0  0  0  0  0  0  0  0  0  0  0
   38.9707   -9.4116  -36.6318 C   0  0  0  0  0  0  0  0  0  0  0  0
   38.4635   -8.3465  -37.3142 N   0  0  0  0  0  0  0  0  0  0  0  0
  1  2  2  0  0  0  0
  1  7  1  0  0  0  0
  2  3  1  0  0  0  0
  2  4  1  0  0  0  0
  4  5  2  0  0  0  0
  5  6  1  0  0  0  0
  5 11  1  0  0  0  0
  6  7  2  0  0  0  0
  6  9  1  0  0  0  0
  7  8  1  0  0  0  0
  9 10  1  0  0  0  0
 10 11  2  0  0  0  0
M  END
>  <CHROM.1>
36.37307711,-9.86392711,-37.87026175,2.94945721,0.46994349,2.77415219

>  <Name>
ligand

>  <RI>
0

>  <Rbt.Current_Directory>
/home/itssahil/PROJECTS/Mol_Feturizer/New_Systems/rnas/3RKF

>  <Rbt.Executable>
rbdock ($Id: //depot/dev/client3/rdock/2013.1/src/exe/rbdock.cxx#4 $)

>  <Rbt.Library>
libRbt.so (2013.1, Build901 2013/11/27)

>  <Rbt.Parameter_File>
/export/apps/rDock/src/rDock_2013.1_src/data/scripts/dock_solv.prm

>  <Rbt.Receptor>
prm/blind_docking_80.prm

>  <SCORE>
-16.5177

>  <SCORE.INTER>
-16.5177

>  <SCORE.INTER.CONST>
1

>  <SCORE.INTER.POLAR>
0

>  <SCORE.INTER.ROT>
0

>  <SCORE.INTER.SOLV>
10.3723

>  <SCORE.INTER.VDW>
-18.0692

>  <SCORE.INTER.norm>
-1.50161

>  <SCORE.INTRA>
0

>  <SCORE.INTRA.DIHEDRAL>
0

>  <SCORE.INTRA.DIHEDRAL.0>
0

>  <SCORE.INTRA.POLAR>
0

>  <SCORE.INTRA.POLAR.0>
0

>  <SCORE.INTRA.REPUL>
0

>  <SCORE.INTRA.REPUL.0>
0

>  <SCORE.INTRA.SOLV>
0

>  <SCORE.INTRA.SOLV.lig_0>
-28.6198

>  <SCORE.INTRA.VDW>
0

>  <SCORE.INTRA.VDW.0>
0

>  <SCORE.INTRA.norm>
0

>  <SCORE.RESTR>
0

>  <SCORE.RESTR.CAVITY>
0

>  <SCORE.RESTR.norm>
0

>  <SCORE.SYSTEM>
0

>  <SCORE.SYSTEM.CONST>
0

>  <SCORE.SYSTEM.DIHEDRAL>
0

>  <SCORE.SYSTEM.SOLV>
0

>  <SCORE.SYSTEM.norm>
0

>  <SCORE.heavy>
11

>  <SCORE.norm>
-1.50161

>  <RMSD>
3.471

$$$$
ligand
 OpenBabel11021811483D
libRbt.so/2013.1/901 2013/11/27
 11 12  0  0  0  0  0  0  0  0999 V2000
   34.9807   -9.9923  -38.6463 N   0  0  0  0  0  0  0  0  0  0  0  0
   35.2109   -8.7180  -38.9964 C   0  0  0  0  0  0  0  0  0  0  0  0
   34.2441   -8.0299  -39.7916 N   0  0  0  0  0  0  0  0  0  0  0  0
   36.3240   -8.0819  -38.6164 N   0  0  0  0  0  0  0  0  0  0  0  0
   37.2719   -8.7293  -37.8481 C   0  0  0  0  0  0  0  0  0  0  0  0
   37.0534  -10.0321  -37.4833 C   0  0  0  0  0  0  0  0  0  0  0  0
   35.8538  -10.6972  -37.8987 C   0  0  0  0  0  0  0  0  0  0  0  0
   35.5245  -12.3761  -37.4453 S   0  0  0  0  0  0  0  0  0  0  0  0
   38.1287  -10.4393  -36.7358 N   0  0  0  0  0  0  0  0  0  0  0  0
   38.9992   -9.4003  -36.6421 C   0  0  0  0  0  0  0  0  0  0  0  0
   38.4890   -8.3349  -37.3217 N   0  0  0  0  0  0  0  0  0  0  0  0
  1  2  2  0  0  0  0
  1  7  1  0  0  0  0
  2  3  1  0  0  0  0
  2  4  1  0  0  0  0
  4  5  2  0  0  0  0
  5  6  1  0  0  0  0
  5 11  1  0  0  0  0
  6  7  2  0  0  0  0
  6  9  1  0  0  0  0
  7  8  1  0  0  0  0
  9 10  1  0  0  0  0
 10 11  2  0  0  0  0
M  END
>  <CHROM.1>
36.41272101,-9.86349166,-37.89972555,2.94473210,0.47838246,2.78199318

>  <Name>
ligand

>  <RI>
0

>  <Rbt.Current_Directory>
/home/itssahil/PROJECTS/Mol_Feturizer/New_Systems/rnas/3RKF

>  <Rbt.Executable>
rbdock ($Id: //depot/dev/client3/rdock/2013.1/src/exe/rbdock.cxx#4 $)

>  <Rbt.Library>
libRbt.so (2013.1, Build901 2013/11/27)

>  <Rbt.Parameter_File>
/export/apps/rDock/src/rDock_2013.1_src/data/scripts/dock_solv.prm

>  <Rbt.Receptor>
prm/pocket_docking_8.prm

>  <SCORE>
-16.4765

>  <SCORE.INTER>
-16.4765

>  <SCORE.INTER.CONST>
1

>  <SCORE.INTER.POLAR>
0

>  <SCORE.INTER.ROT>
0

>  <SCORE.INTER.SOLV>
10.5974

>  <SCORE.INTER.VDW>
-18.1168

>  <SCORE.INTER.norm>
-1.49786

>  <SCORE.INTRA>
0

>  <SCORE.INTRA.DIHEDRAL>
0

>  <SCORE.INTRA.DIHEDRAL.0>
0

>  <SCORE.INTRA.POLAR>
0

>  <SCORE.INTRA.POLAR.0>
0

>  <SCORE.INTRA.REPUL>
0

>  <SCORE.INTRA.REPUL.0>
0

>  <SCORE.INTRA.SOLV>
0

>  <SCORE.INTRA.SOLV.lig_0>
-28.6198

>  <SCORE.INTRA.VDW>
0

>  <SCORE.INTRA.VDW.0>
0

>  <SCORE.INTRA.norm>
0

>  <SCORE.RESTR>
0

>  <SCORE.RESTR.CAVITY>
0

>  <SCORE.RESTR.norm>
0

>  <SCORE.SYSTEM>
0

>  <SCORE.SYSTEM.CONST>
0

>  <SCORE.SYSTEM.DIHEDRAL>
0

>  <SCORE.SYSTEM.SOLV>
0

>  <SCORE.SYSTEM.norm>
0

>  <SCORE.heavy>
11

>  <SCORE.norm>
-1.49786

>  <RMSD>
3.476

$$$$
ligand
 OpenBabel11021811483D
libRbt.so/2013.1/901 2013/11/27
 11 12  0  0  0  0  0  0  0  0999 V2000
   34.9495  -10.0221  -38.6452 N   0  0  0  0  0  0  0  0  0  0  0  0
   35.1873   -8.7549  -39.0153 C   0  0  0  0  0  0  0  0  0  0  0  0
   34.2240   -8.0731  -39.8201 N   0  0  0  0  0  0  0  0  0  0  0  0
   36.3049   -8.1200  -38.6465 N   0  0  0  0  0  0  0  0  0  0  0  0
   37.2496   -8.7614  -37.8693 C   0  0  0  0  0  0  0  0  0  0  0  0
   37.0233  -10.0570  -37.4840 C   0  0  0  0  0  0  0  0  0  0  0  0
   35.8190  -10.7208  -37.8877 C   0  0  0  0  0  0  0  0  0  0  0  0
   35.4796  -12.3903  -37.4078 S   0  0  0  0  0  0  0  0  0  0  0  0
   38.0969  -10.4593  -36.7315 N   0  0  0  0  0  0  0  0  0  0  0  0
   38.9741   -9.4246  -36.6549 C   0  0  0  0  0  0  0  0  0  0  0  0
   38.4699   -8.3666  -37.3505 N   0  0  0  0  0  0  0  0  0  0  0  0
  1  2  2  0  0  0  0
  1  7  1  0  0  0  0
  2  3  1  0  0  0  0
  2  4  1  0  0  0  0
  4  5  2  0  0  0  0
  5  6  1  0  0  0  0
  5 11  1  0  0  0  0
  6  7  2  0  0  0  0
  6  9  1  0  0  0  0
  7  8  1  0  0  0  0
  9 10  1  0  0  0  0
 10 11  2  0  0  0  0
M  END
>  <CHROM.1>
36.38322625,-9.89080392,-37.90230702,2.95093275,0.47500382,2.76358693

>  <Name>
ligand

>  <RI>
0

>  <Rbt.Current_Directory>
/home/itssahil/PROJECTS/Mol_Feturizer/New_Systems/rnas/3RKF

>  <Rbt.Executable>
rbdock ($Id: //depot/dev/client3/rdock/2013.1/src/exe/rbdock.cxx#4 $)

>  <Rbt.Library>
libRbt.so (2013.1, Build901 2013/11/27)

>  <Rbt.Parameter_File>
/export/apps/rDock/src/rDock_2013.1_src/data/scripts/dock_solv.prm

>  <Rbt.Receptor>
prm/pocket_docking_4.prm

>  <SCORE>
-16.5035

>  <SCORE.INTER>
-16.5035

>  <SCORE.INTER.CONST>
1

>  <SCORE.INTER.POLAR>
0

>  <SCORE.INTER.ROT>
0

>  <SCORE.INTER.SOLV>
10.6669

>  <SCORE.INTER.VDW>
-18.158

>  <SCORE.INTER.norm>
-1.50032

>  <SCORE.INTRA>
0

>  <SCORE.INTRA.DIHEDRAL>
0

>  <SCORE.INTRA.DIHEDRAL.0>
0

>  <SCORE.INTRA.POLAR>
0

>  <SCORE.INTRA.POLAR.0>
0

>  <SCORE.INTRA.REPUL>
0

>  <SCORE.INTRA.REPUL.0>
0

>  <SCORE.INTRA.SOLV>
0

>  <SCORE.INTRA.SOLV.lig_0>
-28.6198

>  <SCORE.INTRA.VDW>
0

>  <SCORE.INTRA.VDW.0>
0

>  <SCORE.INTRA.norm>
0

>  <SCORE.RESTR>
0

>  <SCORE.RESTR.CAVITY>
0

>  <SCORE.RESTR.norm>
0

>  <SCORE.SYSTEM>
0

>  <SCORE.SYSTEM.CONST>
0

>  <SCORE.SYSTEM.DIHEDRAL>
0

>  <SCORE.SYSTEM.SOLV>
0

>  <SCORE.SYSTEM.norm>
0

>  <SCORE.heavy>
11

>  <SCORE.norm>
-1.50032

>  <RMSD>
3.478

$$$$
ligand
 OpenBabel11021811483D
libRbt.so/2013.1/901 2013/11/27
 11 12  0  0  0  0  0  0  0  0999 V2000
   34.9531  -10.0285  -38.6248 N   0  0  0  0  0  0  0  0  0  0  0  0
   35.1802   -8.7574  -38.9884 C   0  0  0  0  0  0  0  0  0  0  0  0
   34.2072   -8.0769  -39.7824 N   0  0  0  0  0  0  0  0  0  0  0  0
   36.2960   -8.1176  -38.6228 N   0  0  0  0  0  0  0  0  0  0  0  0
   37.2500   -8.7577  -37.8558 C   0  0  0  0  0  0  0  0  0  0  0  0
   37.0347  -10.0572  -37.4775 C   0  0  0  0  0  0  0  0  0  0  0  0
   35.8321  -10.7263  -37.8775 C   0  0  0  0  0  0  0  0  0  0  0  0
   35.5069  -12.4011  -37.4062 S   0  0  0  0  0  0  0  0  0  0  0  0
   38.1159  -10.4572  -36.7345 N   0  0  0  0  0  0  0  0  0  0  0  0
   38.9867   -9.4172  -36.6571 C   0  0  0  0  0  0  0  0  0  0  0  0
   38.4710   -8.3582  -37.3425 N   0  0  0  0  0  0  0  0  0  0  0  0
  1  2  2  0  0  0  0
  1  7  1  0  0  0  0
  2  3  1  0  0  0  0
  2  4  1  0  0  0  0
  4  5  2  0  0  0  0
  5  6  1  0  0  0  0
  5 11  1  0  0  0  0
  6  7  2  0  0  0  0
  6  9  1  0  0  0  0
  7  8  1  0  0  0  0
  9 10  1  0  0  0  0
 10 11  2  0  0  0  0
M  END
>  <CHROM.1>
36.39082513,-9.89254162,-37.89049296,2.94137900,0.47130658,2.77434885

>  <Name>
ligand

>  <RI>
0

>  <Rbt.Current_Directory>
/home/itssahil/PROJECTS/Mol_Feturizer/New_Systems/rnas/3RKF

>  <Rbt.Executable>
rbdock ($Id: //depot/dev/client3/rdock/2013.1/src/exe/rbdock.cxx#4 $)

>  <Rbt.Library>
libRbt.so (2013.1, Build901 2013/11/27)

>  <Rbt.Parameter_File>
/export/apps/rDock/src/rDock_2013.1_src/data/scripts/dock_solv.prm

>  <Rbt.Receptor>
prm/pocket_docking_7.prm

>  <SCORE>
-16.4922

>  <SCORE.INTER>
-16.4922

>  <SCORE.INTER.CONST>
1

>  <SCORE.INTER.POLAR>
0

>  <SCORE.INTER.ROT>
0

>  <SCORE.INTER.SOLV>
10.537

>  <SCORE.INTER.VDW>
-18.1071

>  <SCORE.INTER.norm>
-1.49929

>  <SCORE.INTRA>
0

>  <SCORE.INTRA.DIHEDRAL>
0

>  <SCORE.INTRA.DIHEDRAL.0>
0

>  <SCORE.INTRA.POLAR>
0

>  <SCORE.INTRA.POLAR.0>
0

>  <SCORE.INTRA.REPUL>
0

>  <SCORE.INTRA.REPUL.0>
0

>  <SCORE.INTRA.SOLV>
0

>  <SCORE.INTRA.SOLV.lig_0>
-28.6198

>  <SCORE.INTRA.VDW>
0

>  <SCORE.INTRA.VDW.0>
0

>  <SCORE.INTRA.norm>
0

>  <SCORE.RESTR>
0

>  <SCORE.RESTR.CAVITY>
0

>  <SCORE.RESTR.norm>
0

>  <SCORE.SYSTEM>
0

>  <SCORE.SYSTEM.CONST>
0

>  <SCORE.SYSTEM.DIHEDRAL>
0

>  <SCORE.SYSTEM.SOLV>
0

>  <SCORE.SYSTEM.norm>
0

>  <SCORE.heavy>
11

>  <SCORE.norm>
-1.49929

>  <RMSD>
3.482

$$$$
ligand
 OpenBabel11021811483D
libRbt.so/2013.1/901 2013/11/27
 11 12  0  0  0  0  0  0  0  0999 V2000
   34.9487  -10.0295  -38.6093 N   0  0  0  0  0  0  0  0  0  0  0  0
   35.1613   -8.7530  -38.9623 C   0  0  0  0  0  0  0  0  0  0  0  0
   34.1794   -8.0761  -39.7484 N   0  0  0  0  0  0  0  0  0  0  0  0
   36.2709   -8.1044  -38.5934 N   0  0  0  0  0  0  0  0  0  0  0  0
   37.2333   -8.7408  -37.8339 C   0  0  0  0  0  0  0  0  0  0  0  0
   37.0328  -10.0458  -37.4664 C   0  0  0  0  0  0  0  0  0  0  0  0
   35.8367  -10.7243  -37.8698 C   0  0  0  0  0  0  0  0  0  0  0  0
   35.5304  -12.4065  -37.4124 S   0  0  0  0  0  0  0  0  0  0  0  0
   38.1198  -10.4405  -36.7291 N   0  0  0  0  0  0  0  0  0  0  0  0
   38.9795   -9.3919  -36.6444 C   0  0  0  0  0  0  0  0  0  0  0  0
   38.4510   -8.3326  -37.3195 N   0  0  0  0  0  0  0  0  0  0  0  0
  1  2  2  0  0  0  0
  1  7  1  0  0  0  0
  2  3  1  0  0  0  0
  2  4  1  0  0  0  0
  4  5  2  0  0  0  0
  5  6  1  0  0  0  0
  5 11  1  0  0  0  0
  6  7  2  0  0  0  0
  6  9  1  0  0  0  0
  7  8  1  0  0  0  0
  9 10  1  0  0  0  0
 10 11  2  0  0  0  0
M  END
>  <CHROM.1>
36.38633145,-9.88445532,-37.87669051,2.92926086,0.47317913,2.78852452

>  <Name>
ligand

>  <RI>
0

>  <Rbt.Current_Directory>
/home/itssahil/PROJECTS/Mol_Feturizer/New_Systems/rnas/3RKF

>  <Rbt.Executable>
rbdock ($Id: //depot/dev/client3/rdock/2013.1/src/exe/rbdock.cxx#4 $)

>  <Rbt.Library>
libRbt.so (2013.1, Build901 2013/11/27)

>  <Rbt.Parameter_File>
/export/apps/rDock/src/rDock_2013.1_src/data/scripts/dock_solv.prm

>  <Rbt.Receptor>
prm/pocket_docking_6.prm

>  <SCORE>
-16.5061

>  <SCORE.INTER>
-16.5061

>  <SCORE.INTER.CONST>
1

>  <SCORE.INTER.POLAR>
0

>  <SCORE.INTER.ROT>
0

>  <SCORE.INTER.SOLV>
10.3539

>  <SCORE.INTER.VDW>
-18.0554

>  <SCORE.INTER.norm>
-1.50056

>  <SCORE.INTRA>
0

>  <SCORE.INTRA.DIHEDRAL>
0

>  <SCORE.INTRA.DIHEDRAL.0>
0

>  <SCORE.INTRA.POLAR>
0

>  <SCORE.INTRA.POLAR.0>
0

>  <SCORE.INTRA.REPUL>
0

>  <SCORE.INTRA.REPUL.0>
0

>  <SCORE.INTRA.SOLV>
0

>  <SCORE.INTRA.SOLV.lig_0>
-28.6198

>  <SCORE.INTRA.VDW>
0

>  <SCORE.INTRA.VDW.0>
0

>  <SCORE.INTRA.norm>
0

>  <SCORE.RESTR>
0

>  <SCORE.RESTR.CAVITY>
0

>  <SCORE.RESTR.norm>
0

>  <SCORE.SYSTEM>
0

>  <SCORE.SYSTEM.CONST>
0

>  <SCORE.SYSTEM.DIHEDRAL>
0

>  <SCORE.SYSTEM.SOLV>
0

>  <SCORE.SYSTEM.norm>
0

>  <SCORE.heavy>
11

>  <SCORE.norm>
-1.50056

>  <RMSD>
3.488

$$$$
ligand
 OpenBabel11021811483D
libRbt.so/2013.1/901 2013/11/27
 11 12  0  0  0  0  0  0  0  0999 V2000
   33.8928   -7.4731  -35.2442 N   0  0  0  0  0  0  0  0  0  0  0  0
   35.1406   -7.1910  -34.8408 C   0  0  0  0  0  0  0  0  0  0  0  0
   35.3438   -6.6528  -33.5333 N   0  0  0  0  0  0  0  0  0  0  0  0
   36.1941   -7.4034  -35.6365 N   0  0  0  0  0  0  0  0  0  0  0  0
   36.0195   -7.9221  -36.9047 C   0  0  0  0  0  0  0  0  0  0  0  0
   34.7510   -8.2140  -37.3334 C   0  0  0  0  0  0  0  0  0  0  0  0
   33.6341   -7.9810  -36.4661 C   0  0  0  0  0  0  0  0  0  0  0  0
   31.9788   -8.3499  -36.9730 S   0  0  0  0  0  0  0  0  0  0  0  0
   34.8479   -8.7078  -38.6092 N   0  0  0  0  0  0  0  0  0  0  0  0
   36.1598   -8.7191  -38.9622 C   0  0  0  0  0  0  0  0  0  0  0  0
   36.9001   -8.2382  -37.9239 N   0  0  0  0  0  0  0  0  0  0  0  0
  1  2  2  0  0  0  0
  1  7  1  0  0  0  0
  2  3  1  0  0  0  0
  2  4  1  0  0  0  0
  4  5  2  0  0  0  0
  5  6  1  0  0  0  0
  5 11  1  0  0  0  0
  6  7  2  0  0  0  0
  6  9  1  0  0  0  0
  7  8  1  0  0  0  0
  9 10  1  0  0  0  0
 10 11  2  0  0  0  0
M  END
>  <CHROM.1>
34.62662528,-7.94202471,-36.61029371,-2.32767961,-0.09202023,-1.94742513

>  <Name>
ligand

>  <RI>
0

>  <Rbt.Current_Directory>
/home/itssahil/PROJECTS/Mol_Feturizer/New_Systems/rnas/3RKF

>  <Rbt.Executable>
rbdock ($Id: //depot/dev/client3/rdock/2013.1/src/exe/rbdock.cxx#4 $)

>  <Rbt.Library>
libRbt.so (2013.1, Build901 2013/11/27)

>  <Rbt.Parameter_File>
/export/apps/rDock/src/rDock_2013.1_src/data/scripts/dock_solv.prm

>  <Rbt.Receptor>
prm/blind_docking_100.prm

>  <SCORE>
-9.82182

>  <SCORE.INTER>
-9.82182

>  <SCORE.INTER.CONST>
1

>  <SCORE.INTER.POLAR>
0

>  <SCORE.INTER.ROT>
0

>  <SCORE.INTER.SOLV>
14.1587

>  <SCORE.INTER.VDW>
-14.8674

>  <SCORE.INTER.norm>
-0.892892

>  <SCORE.INTRA>
0

>  <SCORE.INTRA.DIHEDRAL>
0

>  <SCORE.INTRA.DIHEDRAL.0>
0

>  <SCORE.INTRA.POLAR>
0

>  <SCORE.INTRA.POLAR.0>
0

>  <SCORE.INTRA.REPUL>
0

>  <SCORE.INTRA.REPUL.0>
0

>  <SCORE.INTRA.SOLV>
0

>  <SCORE.INTRA.SOLV.lig_0>
-28.6198

>  <SCORE.INTRA.VDW>
0

>  <SCORE.INTRA.VDW.0>
0

>  <SCORE.INTRA.norm>
0

>  <SCORE.RESTR>
0

>  <SCORE.RESTR.CAVITY>
0

>  <SCORE.RESTR.norm>
0

>  <SCORE.SYSTEM>
0

>  <SCORE.SYSTEM.CONST>
0

>  <SCORE.SYSTEM.DIHEDRAL>
0

>  <SCORE.SYSTEM.SOLV>
0

>  <SCORE.SYSTEM.norm>
0

>  <SCORE.heavy>
11

>  <SCORE.norm>
-0.892892

>  <RMSD>
3.668

$$$$
ligand
 OpenBabel11021811483D
libRbt.so/2013.1/901 2013/11/27
 11 12  0  0  0  0  0  0  0  0999 V2000
   38.2199  -10.6512  -36.4768 N   0  0  0  0  0  0  0  0  0  0  0  0
   37.3863  -11.6568  -36.7823 C   0  0  0  0  0  0  0  0  0  0  0  0
   37.6532  -12.9620  -36.2671 N   0  0  0  0  0  0  0  0  0  0  0  0
   36.3141  -11.4612  -37.5570 N   0  0  0  0  0  0  0  0  0  0  0  0
   36.0384  -10.2071  -38.0661 C   0  0  0  0  0  0  0  0  0  0  0  0
   36.8811   -9.1689  -37.7655 C   0  0  0  0  0  0  0  0  0  0  0  0
   38.0246   -9.3973  -36.9324 C   0  0  0  0  0  0  0  0  0  0  0  0
   39.1363   -8.0860  -36.5107 S   0  0  0  0  0  0  0  0  0  0  0  0
   36.3939   -8.0467  -38.3854 N   0  0  0  0  0  0  0  0  0  0  0  0
   35.2656   -8.3897  -39.0602 C   0  0  0  0  0  0  0  0  0  0  0  0
   35.0284   -9.7190  -38.8759 N   0  0  0  0  0  0  0  0  0  0  0  0
  1  2  2  0  0  0  0
  1  7  1  0  0  0  0
  2  3  1  0  0  0  0
  2  4  1  0  0  0  0
  4  5  2  0  0  0  0
  5  6  1  0  0  0  0
  5 11  1  0  0  0  0
  6  7  2  0  0  0  0
  6  9  1  0  0  0  0
  7  8  1  0  0  0  0
  9 10  1  0  0  0  0
 10 11  2  0  0  0  0
M  END
>  <CHROM.1>
37.21024520,-9.76903205,-37.38628258,0.44549509,0.58107662,2.89018826

>  <Name>
ligand

>  <RI>
0

>  <Rbt.Current_Directory>
/home/itssahil/PROJECTS/Mol_Feturizer/New_Systems/rnas/3RKF

>  <Rbt.Executable>
rbdock ($Id: //depot/dev/client3/rdock/2013.1/src/exe/rbdock.cxx#4 $)

>  <Rbt.Library>
libRbt.so (2013.1, Build901 2013/11/27)

>  <Rbt.Parameter_File>
/export/apps/rDock/src/rDock_2013.1_src/data/scripts/dock_solv.prm

>  <Rbt.Receptor>
prm/pocket_docking_8.prm

>  <SCORE>
-13.6565

>  <SCORE.INTER>
-13.6565

>  <SCORE.INTER.CONST>
1

>  <SCORE.INTER.POLAR>
0

>  <SCORE.INTER.ROT>
0

>  <SCORE.INTER.SOLV>
12.7598

>  <SCORE.INTER.VDW>
-16.9576

>  <SCORE.INTER.norm>
-1.2415

>  <SCORE.INTRA>
0

>  <SCORE.INTRA.DIHEDRAL>
0

>  <SCORE.INTRA.DIHEDRAL.0>
0

>  <SCORE.INTRA.POLAR>
0

>  <SCORE.INTRA.POLAR.0>
0

>  <SCORE.INTRA.REPUL>
0

>  <SCORE.INTRA.REPUL.0>
0

>  <SCORE.INTRA.SOLV>
0

>  <SCORE.INTRA.SOLV.lig_0>
-28.6198

>  <SCORE.INTRA.VDW>
0

>  <SCORE.INTRA.VDW.0>
0

>  <SCORE.INTRA.norm>
0

>  <SCORE.RESTR>
0

>  <SCORE.RESTR.CAVITY>
0

>  <SCORE.RESTR.norm>
0

>  <SCORE.SYSTEM>
0

>  <SCORE.SYSTEM.CONST>
0

>  <SCORE.SYSTEM.DIHEDRAL>
0

>  <SCORE.SYSTEM.SOLV>
0

>  <SCORE.SYSTEM.norm>
0

>  <SCORE.heavy>
11

>  <SCORE.norm>
-1.2415

>  <RMSD>
3.687

$$$$
ligand
 OpenBabel11021811483D
libRbt.so/2013.1/901 2013/11/27
 11 12  0  0  0  0  0  0  0  0999 V2000
   38.1601  -10.6772  -36.5052 N   0  0  0  0  0  0  0  0  0  0  0  0
   37.3066  -11.6659  -36.8110 C   0  0  0  0  0  0  0  0  0  0  0  0
   37.5465  -12.9760  -36.2950 N   0  0  0  0  0  0  0  0  0  0  0  0
   36.2394  -11.4490  -37.5870 N   0  0  0  0  0  0  0  0  0  0  0  0
   35.9897  -10.1898  -38.0970 C   0  0  0  0  0  0  0  0  0  0  0  0
   36.8529   -9.1688  -37.7959 C   0  0  0  0  0  0  0  0  0  0  0  0
   37.9907   -9.4198  -36.9615 C   0  0  0  0  0  0  0  0  0  0  0  0
   39.1282   -8.1312  -36.5392 S   0  0  0  0  0  0  0  0  0  0  0  0
   36.3892   -8.0372  -38.4168 N   0  0  0  0  0  0  0  0  0  0  0  0
   35.2549   -8.3576  -39.0927 C   0  0  0  0  0  0  0  0  0  0  0  0
   34.9907   -9.6818  -38.9081 N   0  0  0  0  0  0  0  0  0  0  0  0
  1  2  2  0  0  0  0
  1  7  1  0  0  0  0
  2  3  1  0  0  0  0
  2  4  1  0  0  0  0
  4  5  2  0  0  0  0
  5  6  1  0  0  0  0
  5 11  1  0  0  0  0
  6  7  2  0  0  0  0
  6  9  1  0  0  0  0
  7  8  1  0  0  0  0
  9 10  1  0  0  0  0
 10 11  2  0  0  0  0
M  END
>  <CHROM.1>
37.16944305,-9.77524338,-37.41608142,0.46920115,0.57694895,2.87676099

>  <Name>
ligand

>  <RI>
0

>  <Rbt.Current_Directory>
/home/itssahil/PROJECTS/Mol_Feturizer/New_Systems/rnas/3RKF

>  <Rbt.Executable>
rbdock ($Id: //depot/dev/client3/rdock/2013.1/src/exe/rbdock.cxx#4 $)

>  <Rbt.Library>
libRbt.so (2013.1, Build901 2013/11/27)

>  <Rbt.Parameter_File>
/export/apps/rDock/src/rDock_2013.1_src/data/scripts/dock_solv.prm

>  <Rbt.Receptor>
prm/blind_docking_80.prm

>  <SCORE>
-13.6723

>  <SCORE.INTER>
-13.6723

>  <SCORE.INTER.CONST>
1

>  <SCORE.INTER.POLAR>
0

>  <SCORE.INTER.ROT>
0

>  <SCORE.INTER.SOLV>
12.65

>  <SCORE.INTER.VDW>
-16.9316

>  <SCORE.INTER.norm>
-1.24294

>  <SCORE.INTRA>
0

>  <SCORE.INTRA.DIHEDRAL>
0

>  <SCORE.INTRA.DIHEDRAL.0>
0

>  <SCORE.INTRA.POLAR>
0

>  <SCORE.INTRA.POLAR.0>
0

>  <SCORE.INTRA.REPUL>
0

>  <SCORE.INTRA.REPUL.0>
0

>  <SCORE.INTRA.SOLV>
0

>  <SCORE.INTRA.SOLV.lig_0>
-28.6198

>  <SCORE.INTRA.VDW>
0

>  <SCORE.INTRA.VDW.0>
0

>  <SCORE.INTRA.norm>
0

>  <SCORE.RESTR>
0

>  <SCORE.RESTR.CAVITY>
0

>  <SCORE.RESTR.norm>
0

>  <SCORE.SYSTEM>
0

>  <SCORE.SYSTEM.CONST>
0

>  <SCORE.SYSTEM.DIHEDRAL>
0

>  <SCORE.SYSTEM.SOLV>
0

>  <SCORE.SYSTEM.norm>
0

>  <SCORE.heavy>
11

>  <SCORE.norm>
-1.24294

>  <RMSD>
3.703

$$$$
ligand
 OpenBabel11021811483D
libRbt.so/2013.1/901 2013/11/27
 11 12  0  0  0  0  0  0  0  0999 V2000
   38.1339  -10.6583  -36.5214 N   0  0  0  0  0  0  0  0  0  0  0  0
   37.2684  -11.6347  -36.8327 C   0  0  0  0  0  0  0  0  0  0  0  0
   37.4871  -12.9484  -36.3164 N   0  0  0  0  0  0  0  0  0  0  0  0
   36.2086  -11.4022  -37.6143 N   0  0  0  0  0  0  0  0  0  0  0  0
   35.9794  -10.1393  -38.1246 C   0  0  0  0  0  0  0  0  0  0  0  0
   36.8552   -9.1307  -37.8180 C   0  0  0  0  0  0  0  0  0  0  0  0
   37.9847   -9.3983  -36.9776 C   0  0  0  0  0  0  0  0  0  0  0  0
   39.1379   -8.1260  -36.5480 S   0  0  0  0  0  0  0  0  0  0  0  0
   36.4107   -7.9923  -38.4405 N   0  0  0  0  0  0  0  0  0  0  0  0
   35.2758   -8.2963  -39.1228 C   0  0  0  0  0  0  0  0  0  0  0  0
   34.9920   -9.6167  -38.9407 N   0  0  0  0  0  0  0  0  0  0  0  0
  1  2  2  0  0  0  0
  1  7  1  0  0  0  0
  2  3  1  0  0  0  0
  2  4  1  0  0  0  0
  4  5  2  0  0  0  0
  5  6  1  0  0  0  0
  5 11  1  0  0  0  0
  6  7  2  0  0  0  0
  6  9  1  0  0  0  0
  7  8  1  0  0  0  0
  9 10  1  0  0  0  0
 10 11  2  0  0  0  0
M  END
>  <CHROM.1>
37.16106741,-9.74183131,-37.43695011,0.48707236,0.57847818,2.86777301

>  <Name>
ligand

>  <RI>
0

>  <Rbt.Current_Directory>
/home/itssahil/PROJECTS/Mol_Feturizer/New_Systems/rnas/3RKF

>  <Rbt.Executable>
rbdock ($Id: //depot/dev/client3/rdock/2013.1/src/exe/rbdock.cxx#4 $)

>  <Rbt.Library>
libRbt.so (2013.1, Build901 2013/11/27)

>  <Rbt.Parameter_File>
/export/apps/rDock/src/rDock_2013.1_src/data/scripts/dock_solv.prm

>  <Rbt.Receptor>
prm/blind_docking_60.prm

>  <SCORE>
-13.6477

>  <SCORE.INTER>
-13.6477

>  <SCORE.INTER.CONST>
1

>  <SCORE.INTER.POLAR>
0

>  <SCORE.INTER.ROT>
0

>  <SCORE.INTER.SOLV>
12.5565

>  <SCORE.INTER.VDW>
-16.884

>  <SCORE.INTER.norm>
-1.2407

>  <SCORE.INTRA>
0

>  <SCORE.INTRA.DIHEDRAL>
0

>  <SCORE.INTRA.DIHEDRAL.0>
0

>  <SCORE.INTRA.POLAR>
0

>  <SCORE.INTRA.POLAR.0>
0

>  <SCORE.INTRA.REPUL>
0

>  <SCORE.INTRA.REPUL.0>
0

>  <SCORE.INTRA.SOLV>
0

>  <SCORE.INTRA.SOLV.lig_0>
-28.6198

>  <SCORE.INTRA.VDW>
0

>  <SCORE.INTRA.VDW.0>
0

>  <SCORE.INTRA.norm>
0

>  <SCORE.RESTR>
0

>  <SCORE.RESTR.CAVITY>
0

>  <SCORE.RESTR.norm>
0

>  <SCORE.SYSTEM>
0

>  <SCORE.SYSTEM.CONST>
0

>  <SCORE.SYSTEM.DIHEDRAL>
0

>  <SCORE.SYSTEM.SOLV>
0

>  <SCORE.SYSTEM.norm>
0

>  <SCORE.heavy>
11

>  <SCORE.norm>
-1.2407

>  <RMSD>
3.718

$$$$
ligand
 OpenBabel11021811483D
libRbt.so/2013.1/901 2013/11/27
 11 12  0  0  0  0  0  0  0  0999 V2000
   37.7601  -10.7853  -36.4065 N   0  0  0  0  0  0  0  0  0  0  0  0
   36.8100  -11.6843  -36.7039 C   0  0  0  0  0  0  0  0  0  0  0  0
   36.8656  -12.9791  -36.1032 N   0  0  0  0  0  0  0  0  0  0  0  0
   35.8155  -11.3925  -37.5487 N   0  0  0  0  0  0  0  0  0  0  0  0
   35.7438  -10.1467  -38.1410 C   0  0  0  0  0  0  0  0  0  0  0  0
   36.7077   -9.2170  -37.8497 C   0  0  0  0  0  0  0  0  0  0  0  0
   37.7652   -9.5473  -36.9407 C   0  0  0  0  0  0  0  0  0  0  0  0
   39.0273   -8.3769  -36.5282 S   0  0  0  0  0  0  0  0  0  0  0  0
   36.4138   -8.0795  -38.5574 N   0  0  0  0  0  0  0  0  0  0  0  0
   35.2834   -8.3062  -39.2763 C   0  0  0  0  0  0  0  0  0  0  0  0
   34.8535   -9.5764  -39.0333 N   0  0  0  0  0  0  0  0  0  0  0  0
  1  2  2  0  0  0  0
  1  7  1  0  0  0  0
  2  3  1  0  0  0  0
  2  4  1  0  0  0  0
  4  5  2  0  0  0  0
  5  6  1  0  0  0  0
  5 11  1  0  0  0  0
  6  7  2  0  0  0  0
  6  9  1  0  0  0  0
  7  8  1  0  0  0  0
  9 10  1  0  0  0  0
 10 11  2  0  0  0  0
M  END
>  <CHROM.1>
36.93027904,-9.83164413,-37.41975965,0.62420279,0.58695149,2.73246281

>  <Name>
ligand

>  <RI>
0

>  <Rbt.Current_Directory>
/home/itssahil/PROJECTS/Mol_Feturizer/New_Systems/rnas/3RKF

>  <Rbt.Executable>
rbdock ($Id: //depot/dev/client3/rdock/2013.1/src/exe/rbdock.cxx#4 $)

>  <Rbt.Library>
libRbt.so (2013.1, Build901 2013/11/27)

>  <Rbt.Parameter_File>
/export/apps/rDock/src/rDock_2013.1_src/data/scripts/dock_solv.prm

>  <Rbt.Receptor>
prm/pocket_docking_5.prm

>  <SCORE>
-13.6427

>  <SCORE.INTER>
-13.6427

>  <SCORE.INTER.CONST>
1

>  <SCORE.INTER.POLAR>
0

>  <SCORE.INTER.ROT>
0

>  <SCORE.INTER.SOLV>
13.4871

>  <SCORE.INTER.VDW>
-17.1908

>  <SCORE.INTER.norm>
-1.24025

>  <SCORE.INTRA>
0

>  <SCORE.INTRA.DIHEDRAL>
0

>  <SCORE.INTRA.DIHEDRAL.0>
0

>  <SCORE.INTRA.POLAR>
0

>  <SCORE.INTRA.POLAR.0>
0

>  <SCORE.INTRA.REPUL>
0

>  <SCORE.INTRA.REPUL.0>
0

>  <SCORE.INTRA.SOLV>
0

>  <SCORE.INTRA.SOLV.lig_0>
-28.6198

>  <SCORE.INTRA.VDW>
0

>  <SCORE.INTRA.VDW.0>
0

>  <SCORE.INTRA.norm>
0

>  <SCORE.RESTR>
0

>  <SCORE.RESTR.CAVITY>
0

>  <SCORE.RESTR.norm>
0

>  <SCORE.SYSTEM>
0

>  <SCORE.SYSTEM.CONST>
0

>  <SCORE.SYSTEM.DIHEDRAL>
0

>  <SCORE.SYSTEM.SOLV>
0

>  <SCORE.SYSTEM.norm>
0

>  <SCORE.heavy>
11

>  <SCORE.norm>
-1.24025

>  <RMSD>
3.785

$$$$
ligand
 OpenBabel11021811483D
libRbt.so/2013.1/901 2013/11/27
 11 12  0  0  0  0  0  0  0  0999 V2000
   37.7023  -10.7581  -36.4484 N   0  0  0  0  0  0  0  0  0  0  0  0
   36.7407  -11.6386  -36.7638 C   0  0  0  0  0  0  0  0  0  0  0  0
   36.7744  -12.9429  -36.1826 N   0  0  0  0  0  0  0  0  0  0  0  0
   35.7548  -11.3195  -37.6089 N   0  0  0  0  0  0  0  0  0  0  0  0
   35.7042  -10.0640  -38.1826 C   0  0  0  0  0  0  0  0  0  0  0  0
   36.6800   -9.1530  -37.8727 C   0  0  0  0  0  0  0  0  0  0  0  0
   37.7281   -9.5124  -36.9638 C   0  0  0  0  0  0  0  0  0  0  0  0
   39.0051   -8.3670  -36.5276 S   0  0  0  0  0  0  0  0  0  0  0  0
   36.4063   -8.0009  -38.5645 N   0  0  0  0  0  0  0  0  0  0  0  0
   35.2764   -8.2001  -39.2921 C   0  0  0  0  0  0  0  0  0  0  0  0
   34.8268   -9.4674  -39.0704 N   0  0  0  0  0  0  0  0  0  0  0  0
  1  2  2  0  0  0  0
  1  7  1  0  0  0  0
  2  3  1  0  0  0  0
  2  4  1  0  0  0  0
  4  5  2  0  0  0  0
  5  6  1  0  0  0  0
  5 11  1  0  0  0  0
  6  7  2  0  0  0  0
  6  9  1  0  0  0  0
  7  8  1  0  0  0  0
  9 10  1  0  0  0  0
 10 11  2  0  0  0  0
M  END
>  <CHROM.1>
36.89153779,-9.77729198,-37.45104370,0.64262138,0.58563899,2.73735340

>  <Name>
ligand

>  <RI>
0

>  <Rbt.Current_Directory>
/home/itssahil/PROJECTS/Mol_Feturizer/New_Systems/rnas/3RKF

>  <Rbt.Executable>
rbdock ($Id: //depot/dev/client3/rdock/2013.1/src/exe/rbdock.cxx#4 $)

>  <Rbt.Library>
libRbt.so (2013.1, Build901 2013/11/27)

>  <Rbt.Parameter_File>
/export/apps/rDock/src/rDock_2013.1_src/data/scripts/dock_solv.prm

>  <Rbt.Receptor>
prm/blind_docking_100.prm

>  <SCORE>
-13.8145

>  <SCORE.INTER>
-13.8145

>  <SCORE.INTER.CONST>
1

>  <SCORE.INTER.POLAR>
0

>  <SCORE.INTER.ROT>
0

>  <SCORE.INTER.SOLV>
13.2049

>  <SCORE.INTER.VDW>
-17.2113

>  <SCORE.INTER.norm>
-1.25586

>  <SCORE.INTRA>
0

>  <SCORE.INTRA.DIHEDRAL>
0

>  <SCORE.INTRA.DIHEDRAL.0>
0

>  <SCORE.INTRA.POLAR>
0

>  <SCORE.INTRA.POLAR.0>
0

>  <SCORE.INTRA.REPUL>
0

>  <SCORE.INTRA.REPUL.0>
0

>  <SCORE.INTRA.SOLV>
0

>  <SCORE.INTRA.SOLV.lig_0>
-28.6198

>  <SCORE.INTRA.VDW>
0

>  <SCORE.INTRA.VDW.0>
0

>  <SCORE.INTRA.norm>
0

>  <SCORE.RESTR>
0

>  <SCORE.RESTR.CAVITY>
0

>  <SCORE.RESTR.norm>
0

>  <SCORE.SYSTEM>
0

>  <SCORE.SYSTEM.CONST>
0

>  <SCORE.SYSTEM.DIHEDRAL>
0

>  <SCORE.SYSTEM.SOLV>
0

>  <SCORE.SYSTEM.norm>
0

>  <SCORE.heavy>
11

>  <SCORE.norm>
-1.25586

>  <RMSD>
3.807

$$$$
ligand
 OpenBabel11021811483D
libRbt.so/2013.1/901 2013/11/27
 11 12  0  0  0  0  0  0  0  0999 V2000
   37.6824  -10.7684  -36.4891 N   0  0  0  0  0  0  0  0  0  0  0  0
   36.7316  -11.6545  -36.8210 C   0  0  0  0  0  0  0  0  0  0  0  0
   36.7814  -12.9690  -36.2643 N   0  0  0  0  0  0  0  0  0  0  0  0
   35.7417  -11.3318  -37.6600 N   0  0  0  0  0  0  0  0  0  0  0  0
   35.6757  -10.0665  -38.2102 C   0  0  0  0  0  0  0  0  0  0  0  0
   36.6403   -9.1496  -37.8833 C   0  0  0  0  0  0  0  0  0  0  0  0
   37.6929   -9.5130  -36.9812 C   0  0  0  0  0  0  0  0  0  0  0  0
   38.9558   -8.3604  -36.5236 S   0  0  0  0  0  0  0  0  0  0  0  0
   36.3524   -7.9881  -38.5534 N   0  0  0  0  0  0  0  0  0  0  0  0
   35.2248   -8.1876  -39.2847 C   0  0  0  0  0  0  0  0  0  0  0  0
   34.7908   -9.4642  -39.0867 N   0  0  0  0  0  0  0  0  0  0  0  0
  1  2  2  0  0  0  0
  1  7  1  0  0  0  0
  2  3  1  0  0  0  0
  2  4  1  0  0  0  0
  4  5  2  0  0  0  0
  5  6  1  0  0  0  0
  5 11  1  0  0  0  0
  6  7  2  0  0  0  0
  6  9  1  0  0  0  0
  7  8  1  0  0  0  0
  9 10  1  0  0  0  0
 10 11  2  0  0  0  0
M  END
>  <CHROM.1>
36.85951377,-9.77897903,-37.47332415,0.62899015,0.59024752,2.76361119

>  <Name>
ligand

>  <RI>
0

>  <Rbt.Current_Directory>
/home/itssahil/PROJECTS/Mol_Feturizer/New_Systems/rnas/3RKF

>  <Rbt.Executable>
rbdock ($Id: //depot/dev/client3/rdock/2013.1/src/exe/rbdock.cxx#4 $)

>  <Rbt.Library>
libRbt.so (2013.1, Build901 2013/11/27)

>  <Rbt.Parameter_File>
/export/apps/rDock/src/rDock_2013.1_src/data/scripts/dock_solv.prm

>  <Rbt.Receptor>
prm/pocket_docking_7.prm

>  <SCORE>
-13.7514

>  <SCORE.INTER>
-13.7514

>  <SCORE.INTER.CONST>
1

>  <SCORE.INTER.POLAR>
0

>  <SCORE.INTER.ROT>
0

>  <SCORE.INTER.SOLV>
13.0059

>  <SCORE.INTER.VDW>
-17.1029

>  <SCORE.INTER.norm>
-1.25013

>  <SCORE.INTRA>
0

>  <SCORE.INTRA.DIHEDRAL>
0

>  <SCORE.INTRA.DIHEDRAL.0>
0

>  <SCORE.INTRA.POLAR>
0

>  <SCORE.INTRA.POLAR.0>
0

>  <SCORE.INTRA.REPUL>
0

>  <SCORE.INTRA.REPUL.0>
0

>  <SCORE.INTRA.SOLV>
0

>  <SCORE.INTRA.SOLV.lig_0>
-28.6198

>  <SCORE.INTRA.VDW>
0

>  <SCORE.INTRA.VDW.0>
0

>  <SCORE.INTRA.norm>
0

>  <SCORE.RESTR>
0

>  <SCORE.RESTR.CAVITY>
0

>  <SCORE.RESTR.norm>
0

>  <SCORE.SYSTEM>
0

>  <SCORE.SYSTEM.CONST>
0

>  <SCORE.SYSTEM.DIHEDRAL>
0

>  <SCORE.SYSTEM.SOLV>
0

>  <SCORE.SYSTEM.norm>
0

>  <SCORE.heavy>
11

>  <SCORE.norm>
-1.25013

>  <RMSD>
3.808

$$$$
ligand
 OpenBabel11021811483D
libRbt.so/2013.1/901 2013/11/27
 11 12  0  0  0  0  0  0  0  0999 V2000
   37.7742  -10.7723  -36.4445 N   0  0  0  0  0  0  0  0  0  0  0  0
   36.8109  -11.6503  -36.7616 C   0  0  0  0  0  0  0  0  0  0  0  0
   36.8450  -12.9576  -36.1870 N   0  0  0  0  0  0  0  0  0  0  0  0
   35.8228  -11.3261  -37.6022 N   0  0  0  0  0  0  0  0  0  0  0  0
   35.7718  -10.0677  -38.1695 C   0  0  0  0  0  0  0  0  0  0  0  0
   36.7494   -9.1592  -37.8578 C   0  0  0  0  0  0  0  0  0  0  0  0
   37.7997   -9.5241  -36.9537 C   0  0  0  0  0  0  0  0  0  0  0  0
   39.0790   -8.3821  -36.5154 S   0  0  0  0  0  0  0  0  0  0  0  0
   36.4747   -8.0033  -38.5430 N   0  0  0  0  0  0  0  0  0  0  0  0
   35.3425   -8.1979  -39.2684 C   0  0  0  0  0  0  0  0  0  0  0  0
   34.8924   -9.4659  -39.0518 N   0  0  0  0  0  0  0  0  0  0  0  0
  1  2  2  0  0  0  0
  1  7  1  0  0  0  0
  2  3  1  0  0  0  0
  2  4  1  0  0  0  0
  4  5  2  0  0  0  0
  5  6  1  0  0  0  0
  5 11  1  0  0  0  0
  6  7  2  0  0  0  0
  6  9  1  0  0  0  0
  7  8  1  0  0  0  0
  9 10  1  0  0  0  0
 10 11  2  0  0  0  0
M  END
>  <CHROM.1>
36.96149682,-9.78575893,-37.43988571,0.64230026,0.58263641,2.74256022

>  <Name>
ligand

>  <RI>
0

>  <Rbt.Current_Directory>
/home/itssahil/PROJECTS/Mol_Feturizer/New_Systems/rnas/3RKF

>  <Rbt.Executable>
rbdock ($Id: //depot/dev/client3/rdock/2013.1/src/exe/rbdock.cxx#4 $)

>  <Rbt.Library>
libRbt.so (2013.1, Build901 2013/11/27)

>  <Rbt.Parameter_File>
/export/apps/rDock/src/rDock_2013.1_src/data/scripts/dock_solv.prm

>  <Rbt.Receptor>
prm/blind_docking_100.prm

>  <SCORE>
-13.6718

>  <SCORE.INTER>
-13.6718

>  <SCORE.INTER.CONST>
1

>  <SCORE.INTER.POLAR>
0

>  <SCORE.INTER.ROT>
0

>  <SCORE.INTER.SOLV>
13.2021

>  <SCORE.INTER.VDW>
-17.1153

>  <SCORE.INTER.norm>
-1.24289

>  <SCORE.INTRA>
0

>  <SCORE.INTRA.DIHEDRAL>
0

>  <SCORE.INTRA.DIHEDRAL.0>
0

>  <SCORE.INTRA.POLAR>
0

>  <SCORE.INTRA.POLAR.0>
0

>  <SCORE.INTRA.REPUL>
0

>  <SCORE.INTRA.REPUL.0>
0

>  <SCORE.INTRA.SOLV>
0

>  <SCORE.INTRA.SOLV.lig_0>
-28.6198

>  <SCORE.INTRA.VDW>
0

>  <SCORE.INTRA.VDW.0>
0

>  <SCORE.INTRA.norm>
0

>  <SCORE.RESTR>
0

>  <SCORE.RESTR.CAVITY>
0

>  <SCORE.RESTR.norm>
0

>  <SCORE.SYSTEM>
0

>  <SCORE.SYSTEM.CONST>
0

>  <SCORE.SYSTEM.DIHEDRAL>
0

>  <SCORE.SYSTEM.SOLV>
0

>  <SCORE.SYSTEM.norm>
0

>  <SCORE.heavy>
11

>  <SCORE.norm>
-1.24289

>  <RMSD>
3.809

$$$$
ligand
 OpenBabel11021811483D
libRbt.so/2013.1/901 2013/11/27
 11 12  0  0  0  0  0  0  0  0999 V2000
   37.7040  -10.7562  -36.4425 N   0  0  0  0  0  0  0  0  0  0  0  0
   36.7364  -11.6320  -36.7526 C   0  0  0  0  0  0  0  0  0  0  0  0
   36.7669  -12.9365  -36.1716 N   0  0  0  0  0  0  0  0  0  0  0  0
   35.7473  -11.3081  -37.5922 N   0  0  0  0  0  0  0  0  0  0  0  0
   35.6997  -10.0524  -38.1656 C   0  0  0  0  0  0  0  0  0  0  0  0
   36.6816   -9.1461  -37.8611 C   0  0  0  0  0  0  0  0  0  0  0  0
   37.7330   -9.5107  -36.9580 C   0  0  0  0  0  0  0  0  0  0  0  0
   39.0179   -8.3715  -36.5289 S   0  0  0  0  0  0  0  0  0  0  0  0
   36.4096   -7.9926  -38.5513 N   0  0  0  0  0  0  0  0  0  0  0  0
   35.2747   -8.1864  -39.2727 C   0  0  0  0  0  0  0  0  0  0  0  0
   34.8202   -9.4515  -39.0485 N   0  0  0  0  0  0  0  0  0  0  0  0
  1  2  2  0  0  0  0
  1  7  1  0  0  0  0
  2  3  1  0  0  0  0
  2  4  1  0  0  0  0
  4  5  2  0  0  0  0
  5  6  1  0  0  0  0
  5 11  1  0  0  0  0
  6  7  2  0  0  0  0
  6  9  1  0  0  0  0
  7  8  1  0  0  0  0
  9 10  1  0  0  0  0
 10 11  2  0  0  0  0
M  END
>  <CHROM.1>
36.89241608,-9.77144233,-37.44062071,0.64535268,0.57861600,2.73588647

>  <Name>
ligand

>  <RI>
0

>  <Rbt.Current_Directory>
/home/itssahil/PROJECTS/Mol_Feturizer/New_Systems/rnas/3RKF

>  <Rbt.Executable>
rbdock ($Id: //depot/dev/client3/rdock/2013.1/src/exe/rbdock.cxx#4 $)

>  <Rbt.Library>
libRbt.so (2013.1, Build901 2013/11/27)

>  <Rbt.Parameter_File>
/export/apps/rDock/src/rDock_2013.1_src/data/scripts/dock_solv.prm

>  <Rbt.Receptor>
prm/blind_docking_60.prm

>  <SCORE>
-13.8313

>  <SCORE.INTER>
-13.8313

>  <SCORE.INTER.CONST>
1

>  <SCORE.INTER.POLAR>
0

>  <SCORE.INTER.ROT>
0

>  <SCORE.INTER.SOLV>
13.241

>  <SCORE.INTER.VDW>
-17.2345

>  <SCORE.INTER.norm>
-1.25739

>  <SCORE.INTRA>
0

>  <SCORE.INTRA.DIHEDRAL>
0

>  <SCORE.INTRA.DIHEDRAL.0>
0

>  <SCORE.INTRA.POLAR>
0

>  <SCORE.INTRA.POLAR.0>
0

>  <SCORE.INTRA.REPUL>
0

>  <SCORE.INTRA.REPUL.0>
0

>  <SCORE.INTRA.SOLV>
0

>  <SCORE.INTRA.SOLV.lig_0>
-28.6198

>  <SCORE.INTRA.VDW>
0

>  <SCORE.INTRA.VDW.0>
0

>  <SCORE.INTRA.norm>
0

>  <SCORE.RESTR>
0

>  <SCORE.RESTR.CAVITY>
0

>  <SCORE.RESTR.norm>
0

>  <SCORE.SYSTEM>
0

>  <SCORE.SYSTEM.CONST>
0

>  <SCORE.SYSTEM.DIHEDRAL>
0

>  <SCORE.SYSTEM.SOLV>
0

>  <SCORE.SYSTEM.norm>
0

>  <SCORE.heavy>
11

>  <SCORE.norm>
-1.25739

>  <RMSD>
3.809

$$$$
ligand
 OpenBabel11021811483D
libRbt.so/2013.1/901 2013/11/27
 11 12  0  0  0  0  0  0  0  0999 V2000
   37.6807  -10.7566  -36.4453 N   0  0  0  0  0  0  0  0  0  0  0  0
   36.7143  -11.6327  -36.7584 C   0  0  0  0  0  0  0  0  0  0  0  0
   36.7505  -12.9414  -36.1872 N   0  0  0  0  0  0  0  0  0  0  0  0
   35.7214  -11.3053  -37.5920 N   0  0  0  0  0  0  0  0  0  0  0  0
   35.6684  -10.0455  -38.1560 C   0  0  0  0  0  0  0  0  0  0  0  0
   36.6490   -9.1389  -37.8484 C   0  0  0  0  0  0  0  0  0  0  0  0
   37.7045   -9.5072  -36.9518 C   0  0  0  0  0  0  0  0  0  0  0  0
   38.9879   -8.3678  -36.5189 S   0  0  0  0  0  0  0  0  0  0  0  0
   36.3715   -7.9811  -38.5291 N   0  0  0  0  0  0  0  0  0  0  0  0
   35.2345   -8.1726  -39.2478 C   0  0  0  0  0  0  0  0  0  0  0  0
   34.7841   -9.4405  -39.0313 N   0  0  0  0  0  0  0  0  0  0  0  0
  1  2  2  0  0  0  0
  1  7  1  0  0  0  0
  2  3  1  0  0  0  0
  2  4  1  0  0  0  0
  4  5  2  0  0  0  0
  5  6  1  0  0  0  0
  5 11  1  0  0  0  0
  6  7  2  0  0  0  0
  6  9  1  0  0  0  0
  7  8  1  0  0  0  0
  9 10  1  0  0  0  0
 10 11  2  0  0  0  0
M  END
>  <CHROM.1>
36.86296158,-9.76671544,-37.43326405,0.64074098,0.57636067,2.74577458

>  <Name>
ligand

>  <RI>
0

>  <Rbt.Current_Directory>
/home/itssahil/PROJECTS/Mol_Feturizer/New_Systems/rnas/3RKF

>  <Rbt.Executable>
rbdock ($Id: //depot/dev/client3/rdock/2013.1/src/exe/rbdock.cxx#4 $)

>  <Rbt.Library>
libRbt.so (2013.1, Build901 2013/11/27)

>  <Rbt.Parameter_File>
/export/apps/rDock/src/rDock_2013.1_src/data/scripts/dock_solv.prm

>  <Rbt.Receptor>
prm/blind_docking_80.prm

>  <SCORE>
-13.8108

>  <SCORE.INTER>
-13.8108

>  <SCORE.INTER.CONST>
1

>  <SCORE.INTER.POLAR>
0

>  <SCORE.INTER.ROT>
0

>  <SCORE.INTER.SOLV>
13.1992

>  <SCORE.INTER.VDW>
-17.2069

>  <SCORE.INTER.norm>
-1.25552

>  <SCORE.INTRA>
0

>  <SCORE.INTRA.DIHEDRAL>
0

>  <SCORE.INTRA.DIHEDRAL.0>
0

>  <SCORE.INTRA.POLAR>
0

>  <SCORE.INTRA.POLAR.0>
0

>  <SCORE.INTRA.REPUL>
0

>  <SCORE.INTRA.REPUL.0>
0

>  <SCORE.INTRA.SOLV>
0

>  <SCORE.INTRA.SOLV.lig_0>
-28.6198

>  <SCORE.INTRA.VDW>
0

>  <SCORE.INTRA.VDW.0>
0

>  <SCORE.INTRA.norm>
0

>  <SCORE.RESTR>
0

>  <SCORE.RESTR.CAVITY>
0

>  <SCORE.RESTR.norm>
0

>  <SCORE.SYSTEM>
0

>  <SCORE.SYSTEM.CONST>
0

>  <SCORE.SYSTEM.DIHEDRAL>
0

>  <SCORE.SYSTEM.SOLV>
0

>  <SCORE.SYSTEM.norm>
0

>  <SCORE.heavy>
11

>  <SCORE.norm>
-1.25552

>  <RMSD>
3.809

$$$$
ligand
 OpenBabel11021811483D
libRbt.so/2013.1/901 2013/11/27
 11 12  0  0  0  0  0  0  0  0999 V2000
   37.7017  -10.7812  -36.5007 N   0  0  0  0  0  0  0  0  0  0  0  0
   36.7426  -11.6588  -36.8311 C   0  0  0  0  0  0  0  0  0  0  0  0
   36.7844  -12.9753  -36.2785 N   0  0  0  0  0  0  0  0  0  0  0  0
   35.7517  -11.3259  -37.6650 N   0  0  0  0  0  0  0  0  0  0  0  0
   35.6932  -10.0585  -38.2111 C   0  0  0  0  0  0  0  0  0  0  0  0
   36.6664   -9.1501  -37.8856 C   0  0  0  0  0  0  0  0  0  0  0  0
   37.7199   -9.5245  -36.9890 C   0  0  0  0  0  0  0  0  0  0  0  0
   38.9938   -8.3832  -36.5334 S   0  0  0  0  0  0  0  0  0  0  0  0
   36.3847   -7.9844  -38.5510 N   0  0  0  0  0  0  0  0  0  0  0  0
   35.2526   -8.1728  -39.2781 C   0  0  0  0  0  0  0  0  0  0  0  0
   34.8094   -9.4466  -39.0821 N   0  0  0  0  0  0  0  0  0  0  0  0
  1  2  2  0  0  0  0
  1  7  1  0  0  0  0
  2  3  1  0  0  0  0
  2  4  1  0  0  0  0
  4  5  2  0  0  0  0
  5  6  1  0  0  0  0
  5 11  1  0  0  0  0
  6  7  2  0  0  0  0
  6  9  1  0  0  0  0
  7  8  1  0  0  0  0
  9 10  1  0  0  0  0
 10 11  2  0  0  0  0
M  END
>  <CHROM.1>
36.88242530,-9.78242603,-37.47842413,0.63584593,0.58339279,2.76280149

>  <Name>
ligand

>  <RI>
0

>  <Rbt.Current_Directory>
/home/itssahil/PROJECTS/Mol_Feturizer/New_Systems/rnas/3RKF

>  <Rbt.Executable>
rbdock ($Id: //depot/dev/client3/rdock/2013.1/src/exe/rbdock.cxx#4 $)

>  <Rbt.Library>
libRbt.so (2013.1, Build901 2013/11/27)

>  <Rbt.Parameter_File>
/export/apps/rDock/src/rDock_2013.1_src/data/scripts/dock_solv.prm

>  <Rbt.Receptor>
prm/blind_docking_60.prm

>  <SCORE>
-13.7033

>  <SCORE.INTER>
-13.7033

>  <SCORE.INTER.CONST>
1

>  <SCORE.INTER.POLAR>
0

>  <SCORE.INTER.ROT>
0

>  <SCORE.INTER.SOLV>
13.0159

>  <SCORE.INTER.VDW>
-17.0741

>  <SCORE.INTER.norm>
-1.24575

>  <SCORE.INTRA>
0

>  <SCORE.INTRA.DIHEDRAL>
0

>  <SCORE.INTRA.DIHEDRAL.0>
0

>  <SCORE.INTRA.POLAR>
0

>  <SCORE.INTRA.POLAR.0>
0

>  <SCORE.INTRA.REPUL>
0

>  <SCORE.INTRA.REPUL.0>
0

>  <SCORE.INTRA.SOLV>
0

>  <SCORE.INTRA.SOLV.lig_0>
-28.6198

>  <SCORE.INTRA.VDW>
0

>  <SCORE.INTRA.VDW.0>
0

>  <SCORE.INTRA.norm>
0

>  <SCORE.RESTR>
0

>  <SCORE.RESTR.CAVITY>
0

>  <SCORE.RESTR.norm>
0

>  <SCORE.SYSTEM>
0

>  <SCORE.SYSTEM.CONST>
0

>  <SCORE.SYSTEM.DIHEDRAL>
0

>  <SCORE.SYSTEM.SOLV>
0

>  <SCORE.SYSTEM.norm>
0

>  <SCORE.heavy>
11

>  <SCORE.norm>
-1.24575

>  <RMSD>
3.815

$$$$
ligand
 OpenBabel11021811483D
libRbt.so/2013.1/901 2013/11/27
 11 12  0  0  0  0  0  0  0  0999 V2000
   35.0497   -8.7851  -38.9958 N   0  0  0  0  0  0  0  0  0  0  0  0
   35.6427   -8.6197  -37.8041 C   0  0  0  0  0  0  0  0  0  0  0  0
   37.0642   -8.7273  -37.7139 N   0  0  0  0  0  0  0  0  0  0  0  0
   34.9311   -8.3570  -36.7029 N   0  0  0  0  0  0  0  0  0  0  0  0
   33.5555   -8.2499  -36.7681 C   0  0  0  0  0  0  0  0  0  0  0  0
   32.9334   -8.4181  -37.9776 C   0  0  0  0  0  0  0  0  0  0  0  0
   33.7128   -8.6977  -39.1474 C   0  0  0  0  0  0  0  0  0  0  0  0
   32.9544   -8.9146  -40.7319 S   0  0  0  0  0  0  0  0  0  0  0  0
   31.5855   -8.2660  -37.7753 N   0  0  0  0  0  0  0  0  0  0  0  0
   31.3799   -8.0082  -36.4572 C   0  0  0  0  0  0  0  0  0  0  0  0
   32.5833   -7.9937  -35.8177 N   0  0  0  0  0  0  0  0  0  0  0  0
  1  2  2  0  0  0  0
  1  7  1  0  0  0  0
  2  3  1  0  0  0  0
  2  4  1  0  0  0  0
  4  5  2  0  0  0  0
  5  6  1  0  0  0  0
  5 11  1  0  0  0  0
  6  7  2  0  0  0  0
  6  9  1  0  0  0  0
  7  8  1  0  0  0  0
  9 10  1  0  0  0  0
 10 11  2  0  0  0  0
M  END
>  <CHROM.1>
33.68796537,-8.51491388,-38.16076691,-0.85148444,-0.08494197,1.39194858

>  <Name>
ligand

>  <RI>
0

>  <Rbt.Current_Directory>
/home/itssahil/PROJECTS/Mol_Feturizer/New_Systems/rnas/3RKF

>  <Rbt.Executable>
rbdock ($Id: //depot/dev/client3/rdock/2013.1/src/exe/rbdock.cxx#4 $)

>  <Rbt.Library>
libRbt.so (2013.1, Build901 2013/11/27)

>  <Rbt.Parameter_File>
/export/apps/rDock/src/rDock_2013.1_src/data/scripts/dock_solv.prm

>  <Rbt.Receptor>
prm/blind_docking_100.prm

>  <SCORE>
-9.69639

>  <SCORE.INTER>
-9.69639

>  <SCORE.INTER.CONST>
1

>  <SCORE.INTER.POLAR>
0

>  <SCORE.INTER.ROT>
0

>  <SCORE.INTER.SOLV>
8.74328

>  <SCORE.INTER.VDW>
-12.9787

>  <SCORE.INTER.norm>
-0.88149

>  <SCORE.INTRA>
0

>  <SCORE.INTRA.DIHEDRAL>
0

>  <SCORE.INTRA.DIHEDRAL.0>
0

>  <SCORE.INTRA.POLAR>
0

>  <SCORE.INTRA.POLAR.0>
0

>  <SCORE.INTRA.REPUL>
0

>  <SCORE.INTRA.REPUL.0>
0

>  <SCORE.INTRA.SOLV>
0

>  <SCORE.INTRA.SOLV.lig_0>
-28.6198

>  <SCORE.INTRA.VDW>
0

>  <SCORE.INTRA.VDW.0>
0

>  <SCORE.INTRA.norm>
0

>  <SCORE.RESTR>
0

>  <SCORE.RESTR.CAVITY>
0

>  <SCORE.RESTR.norm>
0

>  <SCORE.SYSTEM>
0

>  <SCORE.SYSTEM.CONST>
0

>  <SCORE.SYSTEM.DIHEDRAL>
0

>  <SCORE.SYSTEM.SOLV>
0

>  <SCORE.SYSTEM.norm>
0

>  <SCORE.heavy>
11

>  <SCORE.norm>
-0.88149

>  <RMSD>
3.875

$$$$
ligand
 OpenBabel11021811483D
libRbt.so/2013.1/901 2013/11/27
 11 12  0  0  0  0  0  0  0  0999 V2000
   34.2291   -8.5269  -36.9783 N   0  0  0  0  0  0  0  0  0  0  0  0
   35.2804   -8.6421  -37.8036 C   0  0  0  0  0  0  0  0  0  0  0  0
   36.5916   -8.7527  -37.2480 N   0  0  0  0  0  0  0  0  0  0  0  0
   35.1245   -8.6555  -39.1316 N   0  0  0  0  0  0  0  0  0  0  0  0
   33.8653   -8.5488  -39.6892 C   0  0  0  0  0  0  0  0  0  0  0  0
   32.7806   -8.4283  -38.8603 C   0  0  0  0  0  0  0  0  0  0  0  0
   32.9668   -8.4174  -37.4394 C   0  0  0  0  0  0  0  0  0  0  0  0
   31.5957   -8.2720  -36.3296 S   0  0  0  0  0  0  0  0  0  0  0  0
   31.6631   -8.3385  -39.6503 N   0  0  0  0  0  0  0  0  0  0  0  0
   32.0549   -8.4020  -40.9497 C   0  0  0  0  0  0  0  0  0  0  0  0
   33.4107   -8.5322  -40.9957 N   0  0  0  0  0  0  0  0  0  0  0  0
  1  2  2  0  0  0  0
  1  7  1  0  0  0  0
  2  3  1  0  0  0  0
  2  4  1  0  0  0  0
  4  5  2  0  0  0  0
  5  6  1  0  0  0  0
  5 11  1  0  0  0  0
  6  7  2  0  0  0  0
  6  9  1  0  0  0  0
  7  8  1  0  0  0  0
  9 10  1  0  0  0  0
 10 11  2  0  0  0  0
M  END
>  <CHROM.1>
33.37552007,-8.47552395,-38.35427834,-1.29798935,0.09287136,-1.59021445

>  <Name>
ligand

>  <RI>
0

>  <Rbt.Current_Directory>
/home/itssahil/PROJECTS/Mol_Feturizer/New_Systems/rnas/3RKF

>  <Rbt.Executable>
rbdock ($Id: //depot/dev/client3/rdock/2013.1/src/exe/rbdock.cxx#4 $)

>  <Rbt.Library>
libRbt.so (2013.1, Build901 2013/11/27)

>  <Rbt.Parameter_File>
/export/apps/rDock/src/rDock_2013.1_src/data/scripts/dock_solv.prm

>  <Rbt.Receptor>
prm/blind_docking_100.prm

>  <SCORE>
-11.8399

>  <SCORE.INTER>
-11.8399

>  <SCORE.INTER.CONST>
1

>  <SCORE.INTER.POLAR>
0

>  <SCORE.INTER.ROT>
0

>  <SCORE.INTER.SOLV>
6.48651

>  <SCORE.INTER.VDW>
-13.6554

>  <SCORE.INTER.norm>
-1.07636

>  <SCORE.INTRA>
0

>  <SCORE.INTRA.DIHEDRAL>
0

>  <SCORE.INTRA.DIHEDRAL.0>
0

>  <SCORE.INTRA.POLAR>
0

>  <SCORE.INTRA.POLAR.0>
0

>  <SCORE.INTRA.REPUL>
0

>  <SCORE.INTRA.REPUL.0>
0

>  <SCORE.INTRA.SOLV>
0

>  <SCORE.INTRA.SOLV.lig_0>
-28.6198

>  <SCORE.INTRA.VDW>
0

>  <SCORE.INTRA.VDW.0>
0

>  <SCORE.INTRA.norm>
0

>  <SCORE.RESTR>
0

>  <SCORE.RESTR.CAVITY>
0

>  <SCORE.RESTR.norm>
0

>  <SCORE.SYSTEM>
0

>  <SCORE.SYSTEM.CONST>
0

>  <SCORE.SYSTEM.DIHEDRAL>
0

>  <SCORE.SYSTEM.SOLV>
0

>  <SCORE.SYSTEM.norm>
0

>  <SCORE.heavy>
11

>  <SCORE.norm>
-1.07636

>  <RMSD>
4.479

$$$$
ligand
 OpenBabel11021811483D
libRbt.so/2013.1/901 2013/11/27
 11 12  0  0  0  0  0  0  0  0999 V2000
   34.2284   -8.5441  -37.0074 N   0  0  0  0  0  0  0  0  0  0  0  0
   35.2759   -8.6612  -37.8371 C   0  0  0  0  0  0  0  0  0  0  0  0
   36.5883   -8.7844  -37.2869 N   0  0  0  0  0  0  0  0  0  0  0  0
   35.1154   -8.6649  -39.1646 N   0  0  0  0  0  0  0  0  0  0  0  0
   33.8550   -8.5460  -39.7171 C   0  0  0  0  0  0  0  0  0  0  0  0
   32.7740   -8.4233  -38.8836 C   0  0  0  0  0  0  0  0  0  0  0  0
   32.9653   -8.4228  -37.4633 C   0  0  0  0  0  0  0  0  0  0  0  0
   31.5990   -8.2751  -36.3478 S   0  0  0  0  0  0  0  0  0  0  0  0
   31.6544   -8.3207  -39.6691 N   0  0  0  0  0  0  0  0  0  0  0  0
   32.0413   -8.3785  -40.9703 C   0  0  0  0  0  0  0  0  0  0  0  0
   33.3960   -8.5178  -41.0219 N   0  0  0  0  0  0  0  0  0  0  0  0
  1  2  2  0  0  0  0
  1  7  1  0  0  0  0
  2  3  1  0  0  0  0
  2  4  1  0  0  0  0
  4  5  2  0  0  0  0
  5  6  1  0  0  0  0
  5 11  1  0  0  0  0
  6  7  2  0  0  0  0
  6  9  1  0  0  0  0
  7  8  1  0  0  0  0
  9 10  1  0  0  0  0
 10 11  2  0  0  0  0
M  END
>  <CHROM.1>
33.37036304,-8.47788770,-38.38002916,-1.29435760,0.09975072,-1.58414990

>  <Name>
ligand

>  <RI>
0

>  <Rbt.Current_Directory>
/home/itssahil/PROJECTS/Mol_Feturizer/New_Systems/rnas/3RKF

>  <Rbt.Executable>
rbdock ($Id: //depot/dev/client3/rdock/2013.1/src/exe/rbdock.cxx#4 $)

>  <Rbt.Library>
libRbt.so (2013.1, Build901 2013/11/27)

>  <Rbt.Parameter_File>
/export/apps/rDock/src/rDock_2013.1_src/data/scripts/dock_solv.prm

>  <Rbt.Receptor>
prm/blind_docking_60.prm

>  <SCORE>
-11.8113

>  <SCORE.INTER>
-11.8113

>  <SCORE.INTER.CONST>
1

>  <SCORE.INTER.POLAR>
0

>  <SCORE.INTER.ROT>
0

>  <SCORE.INTER.SOLV>
6.45802

>  <SCORE.INTER.VDW>
-13.6269

>  <SCORE.INTER.norm>
-1.07375

>  <SCORE.INTRA>
0

>  <SCORE.INTRA.DIHEDRAL>
0

>  <SCORE.INTRA.DIHEDRAL.0>
0

>  <SCORE.INTRA.POLAR>
0

>  <SCORE.INTRA.POLAR.0>
0

>  <SCORE.INTRA.REPUL>
0

>  <SCORE.INTRA.REPUL.0>
0

>  <SCORE.INTRA.SOLV>
0

>  <SCORE.INTRA.SOLV.lig_0>
-28.6198

>  <SCORE.INTRA.VDW>
0

>  <SCORE.INTRA.VDW.0>
0

>  <SCORE.INTRA.norm>
0

>  <SCORE.RESTR>
0

>  <SCORE.RESTR.CAVITY>
0

>  <SCORE.RESTR.norm>
0

>  <SCORE.SYSTEM>
0

>  <SCORE.SYSTEM.CONST>
0

>  <SCORE.SYSTEM.DIHEDRAL>
0

>  <SCORE.SYSTEM.SOLV>
0

>  <SCORE.SYSTEM.norm>
0

>  <SCORE.heavy>
11

>  <SCORE.norm>
-1.07375

>  <RMSD>
4.496

$$$$
ligand
 OpenBabel11021811483D
libRbt.so/2013.1/901 2013/11/27
 11 12  0  0  0  0  0  0  0  0999 V2000
   32.2226   -7.1724  -38.6460 N   0  0  0  0  0  0  0  0  0  0  0  0
   32.9662   -6.9052  -39.7299 C   0  0  0  0  0  0  0  0  0  0  0  0
   32.5000   -5.9378  -40.6717 N   0  0  0  0  0  0  0  0  0  0  0  0
   34.1315   -7.5250  -39.9447 N   0  0  0  0  0  0  0  0  0  0  0  0
   34.5999   -8.4644  -39.0469 C   0  0  0  0  0  0  0  0  0  0  0  0
   33.8515   -8.7508  -37.9351 C   0  0  0  0  0  0  0  0  0  0  0  0
   32.6058   -8.0754  -37.7209 C   0  0  0  0  0  0  0  0  0  0  0  0
   31.6092   -8.4063  -36.2960 S   0  0  0  0  0  0  0  0  0  0  0  0
   34.5261   -9.7036  -37.2154 N   0  0  0  0  0  0  0  0  0  0  0  0
   35.6754  -10.0010  -37.8762 C   0  0  0  0  0  0  0  0  0  0  0  0
   35.7404   -9.2467  -39.0094 N   0  0  0  0  0  0  0  0  0  0  0  0
  1  2  2  0  0  0  0
  1  7  1  0  0  0  0
  2  3  1  0  0  0  0
  2  4  1  0  0  0  0
  4  5  2  0  0  0  0
  5  6  1  0  0  0  0
  5 11  1  0  0  0  0
  6  7  2  0  0  0  0
  6  9  1  0  0  0  0
  7  8  1  0  0  0  0
  9 10  1  0  0  0  0
 10 11  2  0  0  0  0
M  END
>  <CHROM.1>
33.41777618,-8.20848740,-38.29569056,-2.85128737,-0.49778492,2.18153323

>  <Name>
ligand

>  <RI>
0

>  <Rbt.Current_Directory>
/home/itssahil/PROJECTS/Mol_Feturizer/New_Systems/rnas/3RKF

>  <Rbt.Executable>
rbdock ($Id: //depot/dev/client3/rdock/2013.1/src/exe/rbdock.cxx#4 $)

>  <Rbt.Library>
libRbt.so (2013.1, Build901 2013/11/27)

>  <Rbt.Parameter_File>
/export/apps/rDock/src/rDock_2013.1_src/data/scripts/dock_solv.prm

>  <Rbt.Receptor>
prm/blind_docking_60.prm

>  <SCORE>
-10.2934

>  <SCORE.INTER>
-10.4149

>  <SCORE.INTER.CONST>
1

>  <SCORE.INTER.POLAR>
0

>  <SCORE.INTER.ROT>
0

>  <SCORE.INTER.SOLV>
5.2552

>  <SCORE.INTER.VDW>
-12.295

>  <SCORE.INTER.norm>
-0.946807

>  <SCORE.INTRA>
0

>  <SCORE.INTRA.DIHEDRAL>
0

>  <SCORE.INTRA.DIHEDRAL.0>
0

>  <SCORE.INTRA.POLAR>
0

>  <SCORE.INTRA.POLAR.0>
0

>  <SCORE.INTRA.REPUL>
0

>  <SCORE.INTRA.REPUL.0>
0

>  <SCORE.INTRA.SOLV>
0

>  <SCORE.INTRA.SOLV.lig_0>
-28.6198

>  <SCORE.INTRA.VDW>
0

>  <SCORE.INTRA.VDW.0>
0

>  <SCORE.INTRA.norm>
0

>  <SCORE.RESTR>
0.121446

>  <SCORE.RESTR.CAVITY>
0.121446

>  <SCORE.RESTR.norm>
0.0110405

>  <SCORE.SYSTEM>
0

>  <SCORE.SYSTEM.CONST>
0

>  <SCORE.SYSTEM.DIHEDRAL>
0

>  <SCORE.SYSTEM.SOLV>
0

>  <SCORE.SYSTEM.norm>
0

>  <SCORE.heavy>
11

>  <SCORE.norm>
-0.935766

>  <RMSD>
4.511

$$$$
ligand
 OpenBabel11021811483D
libRbt.so/2013.1/901 2013/11/27
 11 12  0  0  0  0  0  0  0  0999 V2000
   34.3947   -7.3399  -35.3705 N   0  0  0  0  0  0  0  0  0  0  0  0
   34.1434   -8.0258  -36.4955 C   0  0  0  0  0  0  0  0  0  0  0  0
   32.7901   -8.3305  -36.8365 N   0  0  0  0  0  0  0  0  0  0  0  0
   35.1320   -8.4283  -37.3009 N   0  0  0  0  0  0  0  0  0  0  0  0
   36.4474   -8.1449  -36.9891 C   0  0  0  0  0  0  0  0  0  0  0  0
   36.7220   -7.4467  -35.8422 C   0  0  0  0  0  0  0  0  0  0  0  0
   35.6493   -7.0223  -34.9920 C   0  0  0  0  0  0  0  0  0  0  0  0
   35.9546   -6.1115  -33.5053 S   0  0  0  0  0  0  0  0  0  0  0  0
   38.0831   -7.2990  -35.7626 N   0  0  0  0  0  0  0  0  0  0  0  0
   38.6401   -7.8996  -36.8466 C   0  0  0  0  0  0  0  0  0  0  0  0
   37.6475   -8.4279  -37.6167 N   0  0  0  0  0  0  0  0  0  0  0  0
  1  2  2  0  0  0  0
  1  7  1  0  0  0  0
  2  3  1  0  0  0  0
  2  4  1  0  0  0  0
  4  5  2  0  0  0  0
  5  6  1  0  0  0  0
  5 11  1  0  0  0  0
  6  7  2  0  0  0  0
  6  9  1  0  0  0  0
  7  8  1  0  0  0  0
  9 10  1  0  0  0  0
 10 11  2  0  0  0  0
M  END
>  <CHROM.1>
35.94111579,-7.49473655,-35.82804511,2.56092298,0.06410002,1.03457664

>  <Name>
ligand

>  <RI>
0

>  <Rbt.Current_Directory>
/home/itssahil/PROJECTS/Mol_Feturizer/New_Systems/rnas/3RKF

>  <Rbt.Executable>
rbdock ($Id: //depot/dev/client3/rdock/2013.1/src/exe/rbdock.cxx#4 $)

>  <Rbt.Library>
libRbt.so (2013.1, Build901 2013/11/27)

>  <Rbt.Parameter_File>
/export/apps/rDock/src/rDock_2013.1_src/data/scripts/dock_solv.prm

>  <Rbt.Receptor>
prm/blind_docking_60.prm

>  <SCORE>
-11.3799

>  <SCORE.INTER>
-11.3799

>  <SCORE.INTER.CONST>
1

>  <SCORE.INTER.POLAR>
0

>  <SCORE.INTER.ROT>
0

>  <SCORE.INTER.SOLV>
11.5429

>  <SCORE.INTER.VDW>
-15.0343

>  <SCORE.INTER.norm>
-1.03454

>  <SCORE.INTRA>
0

>  <SCORE.INTRA.DIHEDRAL>
0

>  <SCORE.INTRA.DIHEDRAL.0>
0

>  <SCORE.INTRA.POLAR>
0

>  <SCORE.INTRA.POLAR.0>
0

>  <SCORE.INTRA.REPUL>
0

>  <SCORE.INTRA.REPUL.0>
0

>  <SCORE.INTRA.SOLV>
0

>  <SCORE.INTRA.SOLV.lig_0>
-28.6198

>  <SCORE.INTRA.VDW>
0

>  <SCORE.INTRA.VDW.0>
0

>  <SCORE.INTRA.norm>
0

>  <SCORE.RESTR>
0

>  <SCORE.RESTR.CAVITY>
0

>  <SCORE.RESTR.norm>
0

>  <SCORE.SYSTEM>
0

>  <SCORE.SYSTEM.CONST>
0

>  <SCORE.SYSTEM.DIHEDRAL>
0

>  <SCORE.SYSTEM.SOLV>
0

>  <SCORE.SYSTEM.norm>
0

>  <SCORE.heavy>
11

>  <SCORE.norm>
-1.03454

>  <RMSD>
4.546

$$$$
ligand
 OpenBabel11021811483D
libRbt.so/2013.1/901 2013/11/27
 11 12  0  0  0  0  0  0  0  0999 V2000
   34.2941   -7.2343  -35.1687 N   0  0  0  0  0  0  0  0  0  0  0  0
   34.0028   -7.8944  -36.2994 C   0  0  0  0  0  0  0  0  0  0  0  0
   32.6366   -8.1730  -36.6097 N   0  0  0  0  0  0  0  0  0  0  0  0
   34.9635   -8.2951  -37.1388 N   0  0  0  0  0  0  0  0  0  0  0  0
   36.2909   -8.0367  -36.8571 C   0  0  0  0  0  0  0  0  0  0  0  0
   36.6061   -7.3650  -35.7048 C   0  0  0  0  0  0  0  0  0  0  0  0
   35.5628   -6.9421  -34.8180 C   0  0  0  0  0  0  0  0  0  0  0  0
   35.9210   -6.0650  -33.3229 S   0  0  0  0  0  0  0  0  0  0  0  0
   37.9710   -7.2383  -35.6591 N   0  0  0  0  0  0  0  0  0  0  0  0
   38.4899   -7.8255  -36.7690 C   0  0  0  0  0  0  0  0  0  0  0  0
   37.4695   -8.3244  -37.5220 N   0  0  0  0  0  0  0  0  0  0  0  0
  1  2  2  0  0  0  0
  1  7  1  0  0  0  0
  2  3  1  0  0  0  0
  2  4  1  0  0  0  0
  4  5  2  0  0  0  0
  5  6  1  0  0  0  0
  5 11  1  0  0  0  0
  6  7  2  0  0  0  0
  6  9  1  0  0  0  0
  7  8  1  0  0  0  0
  9 10  1  0  0  0  0
 10 11  2  0  0  0  0
M  END
>  <CHROM.1>
35.82528632,-7.40218402,-35.67056087,2.53041255,0.06496846,1.05592083

>  <Name>
ligand

>  <RI>
0

>  <Rbt.Current_Directory>
/home/itssahil/PROJECTS/Mol_Feturizer/New_Systems/rnas/3RKF

>  <Rbt.Executable>
rbdock ($Id: //depot/dev/client3/rdock/2013.1/src/exe/rbdock.cxx#4 $)

>  <Rbt.Library>
libRbt.so (2013.1, Build901 2013/11/27)

>  <Rbt.Parameter_File>
/export/apps/rDock/src/rDock_2013.1_src/data/scripts/dock_solv.prm

>  <Rbt.Receptor>
prm/blind_docking_80.prm

>  <SCORE>
-11.418

>  <SCORE.INTER>
-11.418

>  <SCORE.INTER.CONST>
1

>  <SCORE.INTER.POLAR>
0

>  <SCORE.INTER.ROT>
0

>  <SCORE.INTER.SOLV>
12.1417

>  <SCORE.INTER.VDW>
-15.2592

>  <SCORE.INTER.norm>
-1.038

>  <SCORE.INTRA>
0

>  <SCORE.INTRA.DIHEDRAL>
0

>  <SCORE.INTRA.DIHEDRAL.0>
0

>  <SCORE.INTRA.POLAR>
0

>  <SCORE.INTRA.POLAR.0>
0

>  <SCORE.INTRA.REPUL>
0

>  <SCORE.INTRA.REPUL.0>
0

>  <SCORE.INTRA.SOLV>
0

>  <SCORE.INTRA.SOLV.lig_0>
-28.6198

>  <SCORE.INTRA.VDW>
0

>  <SCORE.INTRA.VDW.0>
0

>  <SCORE.INTRA.norm>
0

>  <SCORE.RESTR>
0

>  <SCORE.RESTR.CAVITY>
0

>  <SCORE.RESTR.norm>
0

>  <SCORE.SYSTEM>
0

>  <SCORE.SYSTEM.CONST>
0

>  <SCORE.SYSTEM.DIHEDRAL>
0

>  <SCORE.SYSTEM.SOLV>
0

>  <SCORE.SYSTEM.norm>
0

>  <SCORE.heavy>
11

>  <SCORE.norm>
-1.038

>  <RMSD>
4.665

$$$$
ligand
 OpenBabel11021811483D
libRbt.so/2013.1/901 2013/11/27
 11 12  0  0  0  0  0  0  0  0999 V2000
   31.8454   -8.2834  -39.0418 N   0  0  0  0  0  0  0  0  0  0  0  0
   32.5130   -8.3768  -40.2015 C   0  0  0  0  0  0  0  0  0  0  0  0
   31.8009   -8.2129  -41.4288 N   0  0  0  0  0  0  0  0  0  0  0  0
   33.8277   -8.6192  -40.2303 N   0  0  0  0  0  0  0  0  0  0  0  0
   34.5349   -8.7817  -39.0549 C   0  0  0  0  0  0  0  0  0  0  0  0
   33.8677   -8.6916  -37.8612 C   0  0  0  0  0  0  0  0  0  0  0  0
   32.4588   -8.4296  -37.8499 C   0  0  0  0  0  0  0  0  0  0  0  0
   31.5565   -8.2967  -36.3330 S   0  0  0  0  0  0  0  0  0  0  0  0
   34.7828   -8.8893  -36.8589 N   0  0  0  0  0  0  0  0  0  0  0  0
   35.9983   -9.0996  -37.4284 C   0  0  0  0  0  0  0  0  0  0  0  0
   35.8672   -9.0370  -38.7835 N   0  0  0  0  0  0  0  0  0  0  0  0
  1  2  2  0  0  0  0
  1  7  1  0  0  0  0
  2  3  1  0  0  0  0
  2  4  1  0  0  0  0
  4  5  2  0  0  0  0
  5  6  1  0  0  0  0
  5 11  1  0  0  0  0
  6  7  2  0  0  0  0
  6  9  1  0  0  0  0
  7  8  1  0  0  0  0
  9 10  1  0  0  0  0
 10 11  2  0  0  0  0
M  END
>  <CHROM.1>
33.29753413,-8.57004526,-38.38309106,-3.00277854,-0.18440349,1.59667879

>  <Name>
ligand

>  <RI>
0

>  <Rbt.Current_Directory>
/home/itssahil/PROJECTS/Mol_Feturizer/New_Systems/rnas/3RKF

>  <Rbt.Executable>
rbdock ($Id: //depot/dev/client3/rdock/2013.1/src/exe/rbdock.cxx#4 $)

>  <Rbt.Library>
libRbt.so (2013.1, Build901 2013/11/27)

>  <Rbt.Parameter_File>
/export/apps/rDock/src/rDock_2013.1_src/data/scripts/dock_solv.prm

>  <Rbt.Receptor>
prm/blind_docking_100.prm

>  <SCORE>
-12.0837

>  <SCORE.INTER>
-12.0837

>  <SCORE.INTER.CONST>
1

>  <SCORE.INTER.POLAR>
0

>  <SCORE.INTER.ROT>
0

>  <SCORE.INTER.SOLV>
7.05705

>  <SCORE.INTER.VDW>
-14.0081

>  <SCORE.INTER.norm>
-1.09851

>  <SCORE.INTRA>
0

>  <SCORE.INTRA.DIHEDRAL>
0

>  <SCORE.INTRA.DIHEDRAL.0>
0

>  <SCORE.INTRA.POLAR>
0

>  <SCORE.INTRA.POLAR.0>
0

>  <SCORE.INTRA.REPUL>
0

>  <SCORE.INTRA.REPUL.0>
0

>  <SCORE.INTRA.SOLV>
0

>  <SCORE.INTRA.SOLV.lig_0>
-28.6198

>  <SCORE.INTRA.VDW>
0

>  <SCORE.INTRA.VDW.0>
0

>  <SCORE.INTRA.norm>
0

>  <SCORE.RESTR>
0

>  <SCORE.RESTR.CAVITY>
0

>  <SCORE.RESTR.norm>
0

>  <SCORE.SYSTEM>
0

>  <SCORE.SYSTEM.CONST>
0

>  <SCORE.SYSTEM.DIHEDRAL>
0

>  <SCORE.SYSTEM.SOLV>
0

>  <SCORE.SYSTEM.norm>
0

>  <SCORE.heavy>
11

>  <SCORE.norm>
-1.09851

>  <RMSD>
4.797

$$$$
ligand
 OpenBabel11021811483D
libRbt.so/2013.1/901 2013/11/27
 11 12  0  0  0  0  0  0  0  0999 V2000
   31.7857   -8.1835  -39.0480 N   0  0  0  0  0  0  0  0  0  0  0  0
   32.4165   -8.2306  -40.2309 C   0  0  0  0  0  0  0  0  0  0  0  0
   31.6665   -8.0188  -41.4279 N   0  0  0  0  0  0  0  0  0  0  0  0
   33.7295   -8.4711  -40.3104 N   0  0  0  0  0  0  0  0  0  0  0  0
   34.4730   -8.6796  -39.1651 C   0  0  0  0  0  0  0  0  0  0  0  0
   33.8437   -8.6369  -37.9484 C   0  0  0  0  0  0  0  0  0  0  0  0
   32.4360   -8.3763  -37.8827 C   0  0  0  0  0  0  0  0  0  0  0  0
   31.5818   -8.3038  -36.3342 S   0  0  0  0  0  0  0  0  0  0  0  0
   34.7895   -8.8737  -36.9839 N   0  0  0  0  0  0  0  0  0  0  0  0
   35.9864   -9.0608  -37.5990 C   0  0  0  0  0  0  0  0  0  0  0  0
   35.8130   -8.9448  -38.9458 N   0  0  0  0  0  0  0  0  0  0  0  0
  1  2  2  0  0  0  0
  1  7  1  0  0  0  0
  2  3  1  0  0  0  0
  2  4  1  0  0  0  0
  4  5  2  0  0  0  0
  5  6  1  0  0  0  0
  5 11  1  0  0  0  0
  6  7  2  0  0  0  0
  6  9  1  0  0  0  0
  7  8  1  0  0  0  0
  9 10  1  0  0  0  0
 10 11  2  0  0  0  0
M  END
>  <CHROM.1>
33.25749410,-8.49517331,-38.44698044,-3.03461485,-0.18589093,1.63032736

>  <Name>
ligand

>  <RI>
0

>  <Rbt.Current_Directory>
/home/itssahil/PROJECTS/Mol_Feturizer/New_Systems/rnas/3RKF

>  <Rbt.Executable>
rbdock ($Id: //depot/dev/client3/rdock/2013.1/src/exe/rbdock.cxx#4 $)

>  <Rbt.Library>
libRbt.so (2013.1, Build901 2013/11/27)

>  <Rbt.Parameter_File>
/export/apps/rDock/src/rDock_2013.1_src/data/scripts/dock_solv.prm

>  <Rbt.Receptor>
prm/pocket_docking_8.prm

>  <SCORE>
-12.1891

>  <SCORE.INTER>
-12.1891

>  <SCORE.INTER.CONST>
1

>  <SCORE.INTER.POLAR>
0

>  <SCORE.INTER.ROT>
0

>  <SCORE.INTER.SOLV>
6.48646

>  <SCORE.INTER.VDW>
-13.8882

>  <SCORE.INTER.norm>
-1.1081

>  <SCORE.INTRA>
0

>  <SCORE.INTRA.DIHEDRAL>
0

>  <SCORE.INTRA.DIHEDRAL.0>
0

>  <SCORE.INTRA.POLAR>
0

>  <SCORE.INTRA.POLAR.0>
0

>  <SCORE.INTRA.REPUL>
0

>  <SCORE.INTRA.REPUL.0>
0

>  <SCORE.INTRA.SOLV>
0

>  <SCORE.INTRA.SOLV.lig_0>
-28.6198

>  <SCORE.INTRA.VDW>
0

>  <SCORE.INTRA.VDW.0>
0

>  <SCORE.INTRA.norm>
0

>  <SCORE.RESTR>
0

>  <SCORE.RESTR.CAVITY>
0

>  <SCORE.RESTR.norm>
0

>  <SCORE.SYSTEM>
0

>  <SCORE.SYSTEM.CONST>
0

>  <SCORE.SYSTEM.DIHEDRAL>
0

>  <SCORE.SYSTEM.SOLV>
0

>  <SCORE.SYSTEM.norm>
0

>  <SCORE.heavy>
11

>  <SCORE.norm>
-1.1081

>  <RMSD>
4.881

$$$$
ligand
 OpenBabel11021811483D
libRbt.so/2013.1/901 2013/11/27
 11 12  0  0  0  0  0  0  0  0999 V2000
   31.8075   -8.3458  -39.1220 N   0  0  0  0  0  0  0  0  0  0  0  0
   32.4783   -8.3832  -40.2830 C   0  0  0  0  0  0  0  0  0  0  0  0
   31.7502   -8.3058  -41.5095 N   0  0  0  0  0  0  0  0  0  0  0  0
   33.8108   -8.4910  -40.3139 N   0  0  0  0  0  0  0  0  0  0  0  0
   34.5337   -8.5681  -39.1395 C   0  0  0  0  0  0  0  0  0  0  0  0
   33.8638   -8.5334  -37.9444 C   0  0  0  0  0  0  0  0  0  0  0  0
   32.4355   -8.4160  -37.9309 C   0  0  0  0  0  0  0  0  0  0  0  0
   31.5281   -8.3592  -36.4123 S   0  0  0  0  0  0  0  0  0  0  0  0
   34.7966   -8.6263  -36.9434 N   0  0  0  0  0  0  0  0  0  0  0  0
   36.0258   -8.7181  -37.5149 C   0  0  0  0  0  0  0  0  0  0  0  0
   35.8858   -8.6837  -38.8701 N   0  0  0  0  0  0  0  0  0  0  0  0
  1  2  2  0  0  0  0
  1  7  1  0  0  0  0
  2  3  1  0  0  0  0
  2  4  1  0  0  0  0
  4  5  2  0  0  0  0
  5  6  1  0  0  0  0
  5 11  1  0  0  0  0
  6  7  2  0  0  0  0
  6  9  1  0  0  0  0
  7  8  1  0  0  0  0
  9 10  1  0  0  0  0
 10 11  2  0  0  0  0
M  END
>  <CHROM.1>
33.28288349,-8.47614892,-38.46550789,-3.00786811,-0.08260598,1.58538856

>  <Name>
ligand

>  <RI>
0

>  <Rbt.Current_Directory>
/home/itssahil/PROJECTS/Mol_Feturizer/New_Systems/rnas/3RKF

>  <Rbt.Executable>
rbdock ($Id: //depot/dev/client3/rdock/2013.1/src/exe/rbdock.cxx#4 $)

>  <Rbt.Library>
libRbt.so (2013.1, Build901 2013/11/27)

>  <Rbt.Parameter_File>
/export/apps/rDock/src/rDock_2013.1_src/data/scripts/dock_solv.prm

>  <Rbt.Receptor>
prm/blind_docking_100.prm

>  <SCORE>
-12.0982

>  <SCORE.INTER>
-12.0982

>  <SCORE.INTER.CONST>
1

>  <SCORE.INTER.POLAR>
0

>  <SCORE.INTER.ROT>
0

>  <SCORE.INTER.SOLV>
7.4818

>  <SCORE.INTER.VDW>
-14.1594

>  <SCORE.INTER.norm>
-1.09984

>  <SCORE.INTRA>
0

>  <SCORE.INTRA.DIHEDRAL>
0

>  <SCORE.INTRA.DIHEDRAL.0>
0

>  <SCORE.INTRA.POLAR>
0

>  <SCORE.INTRA.POLAR.0>
0

>  <SCORE.INTRA.REPUL>
0

>  <SCORE.INTRA.REPUL.0>
0

>  <SCORE.INTRA.SOLV>
0

>  <SCORE.INTRA.SOLV.lig_0>
-28.6198

>  <SCORE.INTRA.VDW>
0

>  <SCORE.INTRA.VDW.0>
0

>  <SCORE.INTRA.norm>
0

>  <SCORE.RESTR>
0

>  <SCORE.RESTR.CAVITY>
0

>  <SCORE.RESTR.norm>
0

>  <SCORE.SYSTEM>
0

>  <SCORE.SYSTEM.CONST>
0

>  <SCORE.SYSTEM.DIHEDRAL>
0

>  <SCORE.SYSTEM.SOLV>
0

>  <SCORE.SYSTEM.norm>
0

>  <SCORE.heavy>
11

>  <SCORE.norm>
-1.09984

>  <RMSD>
4.914

$$$$
ligand
 OpenBabel11021811483D
libRbt.so/2013.1/901 2013/11/27
 11 12  0  0  0  0  0  0  0  0999 V2000
   33.9695   -8.3698  -40.2299 N   0  0  0  0  0  0  0  0  0  0  0  0
   32.6911   -8.4344  -40.6311 C   0  0  0  0  0  0  0  0  0  0  0  0
   32.4045   -8.5276  -42.0274 N   0  0  0  0  0  0  0  0  0  0  0  0
   31.6837   -8.4134  -39.7521 N   0  0  0  0  0  0  0  0  0  0  0  0
   31.9391   -8.3228  -38.3976 C   0  0  0  0  0  0  0  0  0  0  0  0
   33.2396   -8.2538  -37.9707 C   0  0  0  0  0  0  0  0  0  0  0  0
   34.3063   -8.2792  -38.9274 C   0  0  0  0  0  0  0  0  0  0  0  0
   36.0011   -8.2007  -38.4230 S   0  0  0  0  0  0  0  0  0  0  0  0
   33.2227   -8.1697  -36.6019 N   0  0  0  0  0  0  0  0  0  0  0  0
   31.9278   -8.1857  -36.1910 C   0  0  0  0  0  0  0  0  0  0  0  0
   31.1193   -8.2800  -37.2840 N   0  0  0  0  0  0  0  0  0  0  0  0
  1  2  2  0  0  0  0
  1  7  1  0  0  0  0
  2  3  1  0  0  0  0
  2  4  1  0  0  0  0
  4  5  2  0  0  0  0
  5  6  1  0  0  0  0
  5 11  1  0  0  0  0
  6  7  2  0  0  0  0
  6  9  1  0  0  0  0
  7  8  1  0  0  0  0
  9 10  1  0  0  0  0
 10 11  2  0  0  0  0
M  END
>  <CHROM.1>
33.31904266,-8.30045657,-38.74773364,0.87268784,-0.03034145,-1.63179151

>  <Name>
ligand

>  <RI>
0

>  <Rbt.Current_Directory>
/home/itssahil/PROJECTS/Mol_Feturizer/New_Systems/rnas/3RKF

>  <Rbt.Executable>
rbdock ($Id: //depot/dev/client3/rdock/2013.1/src/exe/rbdock.cxx#4 $)

>  <Rbt.Library>
libRbt.so (2013.1, Build901 2013/11/27)

>  <Rbt.Parameter_File>
/export/apps/rDock/src/rDock_2013.1_src/data/scripts/dock_solv.prm

>  <Rbt.Receptor>
prm/blind_docking_100.prm

>  <SCORE>
-11.6245

>  <SCORE.INTER>
-11.6245

>  <SCORE.INTER.CONST>
1

>  <SCORE.INTER.POLAR>
0

>  <SCORE.INTER.ROT>
0

>  <SCORE.INTER.SOLV>
7.98425

>  <SCORE.INTER.VDW>
-14.0111

>  <SCORE.INTER.norm>
-1.05678

>  <SCORE.INTRA>
0

>  <SCORE.INTRA.DIHEDRAL>
0

>  <SCORE.INTRA.DIHEDRAL.0>
0

>  <SCORE.INTRA.POLAR>
0

>  <SCORE.INTRA.POLAR.0>
0

>  <SCORE.INTRA.REPUL>
0

>  <SCORE.INTRA.REPUL.0>
0

>  <SCORE.INTRA.SOLV>
0

>  <SCORE.INTRA.SOLV.lig_0>
-28.6198

>  <SCORE.INTRA.VDW>
0

>  <SCORE.INTRA.VDW.0>
0

>  <SCORE.INTRA.norm>
0

>  <SCORE.RESTR>
0

>  <SCORE.RESTR.CAVITY>
0

>  <SCORE.RESTR.norm>
0

>  <SCORE.SYSTEM>
0

>  <SCORE.SYSTEM.CONST>
0

>  <SCORE.SYSTEM.DIHEDRAL>
0

>  <SCORE.SYSTEM.SOLV>
0

>  <SCORE.SYSTEM.norm>
0

>  <SCORE.heavy>
11

>  <SCORE.norm>
-1.05678

>  <RMSD>
5.415

$$$$
ligand
 OpenBabel11021811483D
libRbt.so/2013.1/901 2013/11/27
 11 12  0  0  0  0  0  0  0  0999 V2000
   34.8707   -8.4056  -35.2486 N   0  0  0  0  0  0  0  0  0  0  0  0
   35.8725   -8.0644  -36.0728 C   0  0  0  0  0  0  0  0  0  0  0  0
   36.0189   -8.7572  -37.3134 N   0  0  0  0  0  0  0  0  0  0  0  0
   36.7336   -7.0916  -35.7563 N   0  0  0  0  0  0  0  0  0  0  0  0
   36.6104   -6.4099  -34.5612 C   0  0  0  0  0  0  0  0  0  0  0  0
   35.5935   -6.7473  -33.7066 C   0  0  0  0  0  0  0  0  0  0  0  0
   34.6793   -7.7917  -34.0635 C   0  0  0  0  0  0  0  0  0  0  0  0
   33.3463   -8.2566  -32.9958 S   0  0  0  0  0  0  0  0  0  0  0  0
   35.6904   -5.9350  -32.6059 N   0  0  0  0  0  0  0  0  0  0  0  0
   36.7543   -5.1082  -32.7800 C   0  0  0  0  0  0  0  0  0  0  0  0
   37.3360   -5.3848  -33.9810 N   0  0  0  0  0  0  0  0  0  0  0  0
  1  2  2  0  0  0  0
  1  7  1  0  0  0  0
  2  3  1  0  0  0  0
  2  4  1  0  0  0  0
  4  5  2  0  0  0  0
  5  6  1  0  0  0  0
  5 11  1  0  0  0  0
  6  7  2  0  0  0  0
  6  9  1  0  0  0  0
  7  8  1  0  0  0  0
  9 10  1  0  0  0  0
 10 11  2  0  0  0  0
M  END
>  <CHROM.1>
35.48185143,-7.23929964,-34.30475473,-2.34385798,0.63475749,0.98627853

>  <Name>
ligand

>  <RI>
0

>  <Rbt.Current_Directory>
/home/itssahil/PROJECTS/Mol_Feturizer/New_Systems/rnas/3RKF

>  <Rbt.Executable>
rbdock ($Id: //depot/dev/client3/rdock/2013.1/src/exe/rbdock.cxx#4 $)

>  <Rbt.Library>
libRbt.so (2013.1, Build901 2013/11/27)

>  <Rbt.Parameter_File>
/export/apps/rDock/src/rDock_2013.1_src/data/scripts/dock_solv.prm

>  <Rbt.Receptor>
prm/blind_docking_60.prm

>  <SCORE>
-8.09215

>  <SCORE.INTER>
-8.32811

>  <SCORE.INTER.CONST>
1

>  <SCORE.INTER.POLAR>
0

>  <SCORE.INTER.ROT>
0

>  <SCORE.INTER.SOLV>
7.28008

>  <SCORE.INTER.VDW>
-11.5788

>  <SCORE.INTER.norm>
-0.757101

>  <SCORE.INTRA>
0

>  <SCORE.INTRA.DIHEDRAL>
0

>  <SCORE.INTRA.DIHEDRAL.0>
0

>  <SCORE.INTRA.POLAR>
0

>  <SCORE.INTRA.POLAR.0>
0

>  <SCORE.INTRA.REPUL>
0

>  <SCORE.INTRA.REPUL.0>
0

>  <SCORE.INTRA.SOLV>
0

>  <SCORE.INTRA.SOLV.lig_0>
-28.6198

>  <SCORE.INTRA.VDW>
0

>  <SCORE.INTRA.VDW.0>
0

>  <SCORE.INTRA.norm>
0

>  <SCORE.RESTR>
0.235957

>  <SCORE.RESTR.CAVITY>
0.235957

>  <SCORE.RESTR.norm>
0.0214506

>  <SCORE.SYSTEM>
0

>  <SCORE.SYSTEM.CONST>
0

>  <SCORE.SYSTEM.DIHEDRAL>
0

>  <SCORE.SYSTEM.SOLV>
0

>  <SCORE.SYSTEM.norm>
0

>  <SCORE.heavy>
11

>  <SCORE.norm>
-0.73565

>  <RMSD>
5.450

$$$$
ligand
 OpenBabel11021811483D
libRbt.so/2013.1/901 2013/11/27
 11 12  0  0  0  0  0  0  0  0999 V2000
   31.1093   -7.5567  -38.6706 N   0  0  0  0  0  0  0  0  0  0  0  0
   31.5832   -7.2466  -39.8866 C   0  0  0  0  0  0  0  0  0  0  0  0
   30.7270   -6.5839  -40.8183 N   0  0  0  0  0  0  0  0  0  0  0  0
   32.8373   -7.5450  -40.2418 N   0  0  0  0  0  0  0  0  0  0  0  0
   33.6813   -8.1865  -39.3563 C   0  0  0  0  0  0  0  0  0  0  0  0
   33.2124   -8.5124  -38.1104 C   0  0  0  0  0  0  0  0  0  0  0  0
   31.8658   -8.1833  -37.7469 C   0  0  0  0  0  0  0  0  0  0  0  0
   31.2189   -8.5768  -36.1471 S   0  0  0  0  0  0  0  0  0  0  0  0
   34.2305   -9.1343  -37.4340 N   0  0  0  0  0  0  0  0  0  0  0  0
   35.3127   -9.1916  -38.2534 C   0  0  0  0  0  0  0  0  0  0  0  0
   34.9948   -8.6117  -39.4451 N   0  0  0  0  0  0  0  0  0  0  0  0
  1  2  2  0  0  0  0
  1  7  1  0  0  0  0
  2  3  1  0  0  0  0
  2  4  1  0  0  0  0
  4  5  2  0  0  0  0
  5  6  1  0  0  0  0
  5 11  1  0  0  0  0
  6  7  2  0  0  0  0
  6  9  1  0  0  0  0
  7  8  1  0  0  0  0
  9 10  1  0  0  0  0
 10 11  2  0  0  0  0
M  END
>  <CHROM.1>
32.59274313,-8.16532240,-38.43878528,3.13014477,-0.31545491,1.94296450

>  <Name>
ligand

>  <RI>
0

>  <Rbt.Current_Directory>
/home/itssahil/PROJECTS/Mol_Feturizer/New_Systems/rnas/3RKF

>  <Rbt.Executable>
rbdock ($Id: //depot/dev/client3/rdock/2013.1/src/exe/rbdock.cxx#4 $)

>  <Rbt.Library>
libRbt.so (2013.1, Build901 2013/11/27)

>  <Rbt.Parameter_File>
/export/apps/rDock/src/rDock_2013.1_src/data/scripts/dock_solv.prm

>  <Rbt.Receptor>
prm/pocket_docking_8.prm

>  <SCORE>
-12.5976

>  <SCORE.INTER>
-12.5976

>  <SCORE.INTER.CONST>
1

>  <SCORE.INTER.POLAR>
0

>  <SCORE.INTER.ROT>
0

>  <SCORE.INTER.SOLV>
5.64861

>  <SCORE.INTER.VDW>
-13.8813

>  <SCORE.INTER.norm>
-1.14523

>  <SCORE.INTRA>
0

>  <SCORE.INTRA.DIHEDRAL>
0

>  <SCORE.INTRA.DIHEDRAL.0>
0

>  <SCORE.INTRA.POLAR>
0

>  <SCORE.INTRA.POLAR.0>
0

>  <SCORE.INTRA.REPUL>
0

>  <SCORE.INTRA.REPUL.0>
0

>  <SCORE.INTRA.SOLV>
0

>  <SCORE.INTRA.SOLV.lig_0>
-28.6198

>  <SCORE.INTRA.VDW>
0

>  <SCORE.INTRA.VDW.0>
0

>  <SCORE.INTRA.norm>
0

>  <SCORE.RESTR>
0

>  <SCORE.RESTR.CAVITY>
0

>  <SCORE.RESTR.norm>
0

>  <SCORE.SYSTEM>
0

>  <SCORE.SYSTEM.CONST>
0

>  <SCORE.SYSTEM.DIHEDRAL>
0

>  <SCORE.SYSTEM.SOLV>
0

>  <SCORE.SYSTEM.norm>
0

>  <SCORE.heavy>
11

>  <SCORE.norm>
-1.14523

>  <RMSD>
5.450

$$$$
ligand
 OpenBabel11021811483D
libRbt.so/2013.1/901 2013/11/27
 11 12  0  0  0  0  0  0  0  0999 V2000
   31.0475   -7.5083  -38.5582 N   0  0  0  0  0  0  0  0  0  0  0  0
   31.4932   -7.1942  -39.7838 C   0  0  0  0  0  0  0  0  0  0  0  0
   30.6283   -6.4950  -40.6802 N   0  0  0  0  0  0  0  0  0  0  0  0
   32.7273   -7.5217  -40.1808 N   0  0  0  0  0  0  0  0  0  0  0  0
   33.5792   -8.1987  -39.3299 C   0  0  0  0  0  0  0  0  0  0  0  0
   33.1390   -8.5292  -38.0749 C   0  0  0  0  0  0  0  0  0  0  0  0
   31.8135   -8.1685  -37.6664 C   0  0  0  0  0  0  0  0  0  0  0  0
   31.2041   -8.5669  -36.0531 S   0  0  0  0  0  0  0  0  0  0  0  0
   34.1591   -9.1884  -37.4380 N   0  0  0  0  0  0  0  0  0  0  0  0
   35.2143   -9.2637  -38.2905 C   0  0  0  0  0  0  0  0  0  0  0  0
   34.8772   -8.6584  -39.4641 N   0  0  0  0  0  0  0  0  0  0  0  0
  1  2  2  0  0  0  0
  1  7  1  0  0  0  0
  2  3  1  0  0  0  0
  2  4  1  0  0  0  0
  4  5  2  0  0  0  0
  5  6  1  0  0  0  0
  5 11  1  0  0  0  0
  6  7  2  0  0  0  0
  6  9  1  0  0  0  0
  7  8  1  0  0  0  0
  9 10  1  0  0  0  0
 10 11  2  0  0  0  0
M  END
>  <CHROM.1>
32.51965434,-8.16065860,-38.37965024,3.11123730,-0.35223260,1.95057154

>  <Name>
ligand

>  <RI>
0

>  <Rbt.Current_Directory>
/home/itssahil/PROJECTS/Mol_Feturizer/New_Systems/rnas/3RKF

>  <Rbt.Executable>
rbdock ($Id: //depot/dev/client3/rdock/2013.1/src/exe/rbdock.cxx#4 $)

>  <Rbt.Library>
libRbt.so (2013.1, Build901 2013/11/27)

>  <Rbt.Parameter_File>
/export/apps/rDock/src/rDock_2013.1_src/data/scripts/dock_solv.prm

>  <Rbt.Receptor>
prm/pocket_docking_8.prm

>  <SCORE>
-12.6375

>  <SCORE.INTER>
-12.6375

>  <SCORE.INTER.CONST>
1

>  <SCORE.INTER.POLAR>
0

>  <SCORE.INTER.ROT>
0

>  <SCORE.INTER.SOLV>
5.59358

>  <SCORE.INTER.VDW>
-13.8896

>  <SCORE.INTER.norm>
-1.14887

>  <SCORE.INTRA>
0

>  <SCORE.INTRA.DIHEDRAL>
0

>  <SCORE.INTRA.DIHEDRAL.0>
0

>  <SCORE.INTRA.POLAR>
0

>  <SCORE.INTRA.POLAR.0>
0

>  <SCORE.INTRA.REPUL>
0

>  <SCORE.INTRA.REPUL.0>
0

>  <SCORE.INTRA.SOLV>
0

>  <SCORE.INTRA.SOLV.lig_0>
-28.6198

>  <SCORE.INTRA.VDW>
0

>  <SCORE.INTRA.VDW.0>
0

>  <SCORE.INTRA.norm>
0

>  <SCORE.RESTR>
0

>  <SCORE.RESTR.CAVITY>
0

>  <SCORE.RESTR.norm>
0

>  <SCORE.SYSTEM>
0

>  <SCORE.SYSTEM.CONST>
0

>  <SCORE.SYSTEM.DIHEDRAL>
0

>  <SCORE.SYSTEM.SOLV>
0

>  <SCORE.SYSTEM.norm>
0

>  <SCORE.heavy>
11

>  <SCORE.norm>
-1.14887

>  <RMSD>
5.490

$$$$
ligand
 OpenBabel11021811483D
libRbt.so/2013.1/901 2013/11/27
 11 12  0  0  0  0  0  0  0  0999 V2000
   33.8135   -8.4185  -40.4432 N   0  0  0  0  0  0  0  0  0  0  0  0
   32.5135   -8.3591  -40.7688 C   0  0  0  0  0  0  0  0  0  0  0  0
   32.1398   -8.3918  -42.1471 N   0  0  0  0  0  0  0  0  0  0  0  0
   31.5644   -8.2703  -39.8311 N   0  0  0  0  0  0  0  0  0  0  0  0
   31.9044   -8.2364  -38.4928 C   0  0  0  0  0  0  0  0  0  0  0  0
   33.2282   -8.2940  -38.1427 C   0  0  0  0  0  0  0  0  0  0  0  0
   34.2314   -8.3905  -39.1616 C   0  0  0  0  0  0  0  0  0  0  0  0
   35.9526   -8.4757  -38.7574 S   0  0  0  0  0  0  0  0  0  0  0  0
   33.2977   -8.2427  -36.7740 N   0  0  0  0  0  0  0  0  0  0  0  0
   32.0324   -8.1535  -36.2871 C   0  0  0  0  0  0  0  0  0  0  0  0
   31.1572   -8.1484  -37.3318 N   0  0  0  0  0  0  0  0  0  0  0  0
  1  2  2  0  0  0  0
  1  7  1  0  0  0  0
  2  3  1  0  0  0  0
  2  4  1  0  0  0  0
  4  5  2  0  0  0  0
  5  6  1  0  0  0  0
  5 11  1  0  0  0  0
  6  7  2  0  0  0  0
  6  9  1  0  0  0  0
  7  8  1  0  0  0  0
  9 10  1  0  0  0  0
 10 11  2  0  0  0  0
M  END
>  <CHROM.1>
33.25826881,-8.32828676,-38.92388336,0.93573981,0.05646511,-1.61039908

>  <Name>
ligand

>  <RI>
0

>  <Rbt.Current_Directory>
/home/itssahil/PROJECTS/Mol_Feturizer/New_Systems/rnas/3RKF

>  <Rbt.Executable>
rbdock ($Id: //depot/dev/client3/rdock/2013.1/src/exe/rbdock.cxx#4 $)

>  <Rbt.Library>
libRbt.so (2013.1, Build901 2013/11/27)

>  <Rbt.Parameter_File>
/export/apps/rDock/src/rDock_2013.1_src/data/scripts/dock_solv.prm

>  <Rbt.Receptor>
prm/pocket_docking_8.prm

>  <SCORE>
-11.8666

>  <SCORE.INTER>
-11.8666

>  <SCORE.INTER.CONST>
1

>  <SCORE.INTER.POLAR>
0

>  <SCORE.INTER.ROT>
0

>  <SCORE.INTER.SOLV>
6.75268

>  <SCORE.INTER.VDW>
-13.762

>  <SCORE.INTER.norm>
-1.07878

>  <SCORE.INTRA>
0

>  <SCORE.INTRA.DIHEDRAL>
0

>  <SCORE.INTRA.DIHEDRAL.0>
0

>  <SCORE.INTRA.POLAR>
0

>  <SCORE.INTRA.POLAR.0>
0

>  <SCORE.INTRA.REPUL>
0

>  <SCORE.INTRA.REPUL.0>
0

>  <SCORE.INTRA.SOLV>
0

>  <SCORE.INTRA.SOLV.lig_0>
-28.6198

>  <SCORE.INTRA.VDW>
0

>  <SCORE.INTRA.VDW.0>
0

>  <SCORE.INTRA.norm>
0

>  <SCORE.RESTR>
0

>  <SCORE.RESTR.CAVITY>
0

>  <SCORE.RESTR.norm>
0

>  <SCORE.SYSTEM>
0

>  <SCORE.SYSTEM.CONST>
0

>  <SCORE.SYSTEM.DIHEDRAL>
0

>  <SCORE.SYSTEM.SOLV>
0

>  <SCORE.SYSTEM.norm>
0

>  <SCORE.heavy>
11

>  <SCORE.norm>
-1.07878

>  <RMSD>
5.512

$$$$
ligand
 OpenBabel11021811483D
libRbt.so/2013.1/901 2013/11/27
 11 12  0  0  0  0  0  0  0  0999 V2000
   33.8100   -8.4172  -40.4428 N   0  0  0  0  0  0  0  0  0  0  0  0
   32.5093   -8.3580  -40.7655 C   0  0  0  0  0  0  0  0  0  0  0  0
   32.1325   -8.3907  -42.1430 N   0  0  0  0  0  0  0  0  0  0  0  0
   31.5622   -8.2694  -39.8257 N   0  0  0  0  0  0  0  0  0  0  0  0
   31.9052   -8.2354  -38.4881 C   0  0  0  0  0  0  0  0  0  0  0  0
   33.2298   -8.2928  -38.1410 C   0  0  0  0  0  0  0  0  0  0  0  0
   34.2308   -8.3891  -39.1621 C   0  0  0  0  0  0  0  0  0  0  0  0
   35.9528   -8.4740  -38.7617 S   0  0  0  0  0  0  0  0  0  0  0  0
   33.3023   -8.2415  -36.7724 N   0  0  0  0  0  0  0  0  0  0  0  0
   32.0381   -8.1526  -36.2828 C   0  0  0  0  0  0  0  0  0  0  0  0
   31.1605   -8.1476  -37.3255 N   0  0  0  0  0  0  0  0  0  0  0  0
  1  2  2  0  0  0  0
  1  7  1  0  0  0  0
  2  3  1  0  0  0  0
  2  4  1  0  0  0  0
  4  5  2  0  0  0  0
  5  6  1  0  0  0  0
  5 11  1  0  0  0  0
  6  7  2  0  0  0  0
  6  9  1  0  0  0  0
  7  8  1  0  0  0  0
  9 10  1  0  0  0  0
 10 11  2  0  0  0  0
M  END
>  <CHROM.1>
33.25811981,-8.32706010,-38.92224004,0.93795244,0.05619412,-1.61051574

>  <Name>
ligand

>  <RI>
0

>  <Rbt.Current_Directory>
/home/itssahil/PROJECTS/Mol_Feturizer/New_Systems/rnas/3RKF

>  <Rbt.Executable>
rbdock ($Id: //depot/dev/client3/rdock/2013.1/src/exe/rbdock.cxx#4 $)

>  <Rbt.Library>
libRbt.so (2013.1, Build901 2013/11/27)

>  <Rbt.Parameter_File>
/export/apps/rDock/src/rDock_2013.1_src/data/scripts/dock_solv.prm

>  <Rbt.Receptor>
prm/pocket_docking_8.prm

>  <SCORE>
-11.8673

>  <SCORE.INTER>
-11.8673

>  <SCORE.INTER.CONST>
1

>  <SCORE.INTER.POLAR>
0

>  <SCORE.INTER.ROT>
0

>  <SCORE.INTER.SOLV>
6.73868

>  <SCORE.INTER.VDW>
-13.7577

>  <SCORE.INTER.norm>
-1.07884

>  <SCORE.INTRA>
0

>  <SCORE.INTRA.DIHEDRAL>
0

>  <SCORE.INTRA.DIHEDRAL.0>
0

>  <SCORE.INTRA.POLAR>
0

>  <SCORE.INTRA.POLAR.0>
0

>  <SCORE.INTRA.REPUL>
0

>  <SCORE.INTRA.REPUL.0>
0

>  <SCORE.INTRA.SOLV>
0

>  <SCORE.INTRA.SOLV.lig_0>
-28.6198

>  <SCORE.INTRA.VDW>
0

>  <SCORE.INTRA.VDW.0>
0

>  <SCORE.INTRA.norm>
0

>  <SCORE.RESTR>
0

>  <SCORE.RESTR.CAVITY>
0

>  <SCORE.RESTR.norm>
0

>  <SCORE.SYSTEM>
0

>  <SCORE.SYSTEM.CONST>
0

>  <SCORE.SYSTEM.DIHEDRAL>
0

>  <SCORE.SYSTEM.SOLV>
0

>  <SCORE.SYSTEM.norm>
0

>  <SCORE.heavy>
11

>  <SCORE.norm>
-1.07884

>  <RMSD>
5.512

$$$$
ligand
 OpenBabel11021811483D
libRbt.so/2013.1/901 2013/11/27
 11 12  0  0  0  0  0  0  0  0999 V2000
   30.9697   -7.5309  -38.5059 N   0  0  0  0  0  0  0  0  0  0  0  0
   31.4092   -7.1555  -39.7164 C   0  0  0  0  0  0  0  0  0  0  0  0
   30.5223   -6.4582  -40.5926 N   0  0  0  0  0  0  0  0  0  0  0  0
   32.6571   -7.4206  -40.1169 N   0  0  0  0  0  0  0  0  0  0  0  0
   33.5303   -8.0945  -39.2855 C   0  0  0  0  0  0  0  0  0  0  0  0
   33.0968   -8.4872  -38.0461 C   0  0  0  0  0  0  0  0  0  0  0  0
   31.7562   -8.1930  -37.6335 C   0  0  0  0  0  0  0  0  0  0  0  0
   31.1545   -8.6729  -36.0396 S   0  0  0  0  0  0  0  0  0  0  0  0
   34.1385   -9.1291  -37.4267 N   0  0  0  0  0  0  0  0  0  0  0  0
   35.2001   -9.1326  -38.2745 C   0  0  0  0  0  0  0  0  0  0  0  0
   34.8457   -8.4986  -39.4277 N   0  0  0  0  0  0  0  0  0  0  0  0
  1  2  2  0  0  0  0
  1  7  1  0  0  0  0
  2  3  1  0  0  0  0
  2  4  1  0  0  0  0
  4  5  2  0  0  0  0
  5  6  1  0  0  0  0
  5 11  1  0  0  0  0
  6  7  2  0  0  0  0
  6  9  1  0  0  0  0
  7  8  1  0  0  0  0
  9 10  1  0  0  0  0
 10 11  2  0  0  0  0
M  END
>  <CHROM.1>
32.46517072,-8.13198225,-38.34136410,3.10109596,-0.31424555,1.98345677

>  <Name>
ligand

>  <RI>
0

>  <Rbt.Current_Directory>
/home/itssahil/PROJECTS/Mol_Feturizer/New_Systems/rnas/3RKF

>  <Rbt.Executable>
rbdock ($Id: //depot/dev/client3/rdock/2013.1/src/exe/rbdock.cxx#4 $)

>  <Rbt.Library>
libRbt.so (2013.1, Build901 2013/11/27)

>  <Rbt.Parameter_File>
/export/apps/rDock/src/rDock_2013.1_src/data/scripts/dock_solv.prm

>  <Rbt.Receptor>
prm/pocket_docking_7.prm

>  <SCORE>
-12.5494

>  <SCORE.INTER>
-12.5494

>  <SCORE.INTER.CONST>
1

>  <SCORE.INTER.POLAR>
0

>  <SCORE.INTER.ROT>
0

>  <SCORE.INTER.SOLV>
5.86328

>  <SCORE.INTER.VDW>
-13.9207

>  <SCORE.INTER.norm>
-1.14085

>  <SCORE.INTRA>
0

>  <SCORE.INTRA.DIHEDRAL>
0

>  <SCORE.INTRA.DIHEDRAL.0>
0

>  <SCORE.INTRA.POLAR>
0

>  <SCORE.INTRA.POLAR.0>
0

>  <SCORE.INTRA.REPUL>
0

>  <SCORE.INTRA.REPUL.0>
0

>  <SCORE.INTRA.SOLV>
0

>  <SCORE.INTRA.SOLV.lig_0>
-28.6198

>  <SCORE.INTRA.VDW>
0

>  <SCORE.INTRA.VDW.0>
0

>  <SCORE.INTRA.norm>
0

>  <SCORE.RESTR>
0

>  <SCORE.RESTR.CAVITY>
0

>  <SCORE.RESTR.norm>
0

>  <SCORE.SYSTEM>
0

>  <SCORE.SYSTEM.CONST>
0

>  <SCORE.SYSTEM.DIHEDRAL>
0

>  <SCORE.SYSTEM.SOLV>
0

>  <SCORE.SYSTEM.norm>
0

>  <SCORE.heavy>
11

>  <SCORE.norm>
-1.14085

>  <RMSD>
5.554

$$$$
ligand
 OpenBabel11021811483D
libRbt.so/2013.1/901 2013/11/27
 11 12  0  0  0  0  0  0  0  0999 V2000
   31.8820   -6.5827  -40.6980 N   0  0  0  0  0  0  0  0  0  0  0  0
   31.7311   -5.4230  -40.0409 C   0  0  0  0  0  0  0  0  0  0  0  0
   31.6031   -4.2122  -40.7878 N   0  0  0  0  0  0  0  0  0  0  0  0
   31.6982   -5.3791  -38.7049 N   0  0  0  0  0  0  0  0  0  0  0  0
   31.8212   -6.5382  -37.9637 C   0  0  0  0  0  0  0  0  0  0  0  0
   31.9781   -7.7315  -38.6192 C   0  0  0  0  0  0  0  0  0  0  0  0
   32.0096   -7.7592  -40.0517 C   0  0  0  0  0  0  0  0  0  0  0  0
   32.2022   -9.2769  -40.9418 S   0  0  0  0  0  0  0  0  0  0  0  0
   32.0774   -8.7161  -37.6697 N   0  0  0  0  0  0  0  0  0  0  0  0
   31.9836   -8.1364  -36.4446 C   0  0  0  0  0  0  0  0  0  0  0  0
   31.8248   -6.7922  -36.6038 N   0  0  0  0  0  0  0  0  0  0  0  0
  1  2  2  0  0  0  0
  1  7  1  0  0  0  0
  2  3  1  0  0  0  0
  2  4  1  0  0  0  0
  4  5  2  0  0  0  0
  5  6  1  0  0  0  0
  5 11  1  0  0  0  0
  6  7  2  0  0  0  0
  6  9  1  0  0  0  0
  7  8  1  0  0  0  0
  9 10  1  0  0  0  0
 10 11  2  0  0  0  0
M  END
>  <CHROM.1>
31.92739682,-7.21995686,-39.20917329,1.53130182,1.45161325,-1.41001344

>  <Name>
ligand

>  <RI>
0

>  <Rbt.Current_Directory>
/home/itssahil/PROJECTS/Mol_Feturizer/New_Systems/rnas/3RKF

>  <Rbt.Executable>
rbdock ($Id: //depot/dev/client3/rdock/2013.1/src/exe/rbdock.cxx#4 $)

>  <Rbt.Library>
libRbt.so (2013.1, Build901 2013/11/27)

>  <Rbt.Parameter_File>
/export/apps/rDock/src/rDock_2013.1_src/data/scripts/dock_solv.prm

>  <Rbt.Receptor>
prm/pocket_docking_8.prm

>  <SCORE>
-10.448

>  <SCORE.INTER>
-10.448

>  <SCORE.INTER.CONST>
1

>  <SCORE.INTER.POLAR>
0

>  <SCORE.INTER.ROT>
0

>  <SCORE.INTER.SOLV>
3.98432

>  <SCORE.INTER.VDW>
-11.8935

>  <SCORE.INTER.norm>
-0.94982

>  <SCORE.INTRA>
0

>  <SCORE.INTRA.DIHEDRAL>
0

>  <SCORE.INTRA.DIHEDRAL.0>
0

>  <SCORE.INTRA.POLAR>
0

>  <SCORE.INTRA.POLAR.0>
0

>  <SCORE.INTRA.REPUL>
0

>  <SCORE.INTRA.REPUL.0>
0

>  <SCORE.INTRA.SOLV>
0

>  <SCORE.INTRA.SOLV.lig_0>
-28.6198

>  <SCORE.INTRA.VDW>
0

>  <SCORE.INTRA.VDW.0>
0

>  <SCORE.INTRA.norm>
0

>  <SCORE.RESTR>
0

>  <SCORE.RESTR.CAVITY>
0

>  <SCORE.RESTR.norm>
0

>  <SCORE.SYSTEM>
0

>  <SCORE.SYSTEM.CONST>
0

>  <SCORE.SYSTEM.DIHEDRAL>
0

>  <SCORE.SYSTEM.SOLV>
0

>  <SCORE.SYSTEM.norm>
0

>  <SCORE.heavy>
11

>  <SCORE.norm>
-0.94982

>  <RMSD>
6.292

$$$$
ligand
 OpenBabel11021811483D
libRbt.so/2013.1/901 2013/11/27
 11 12  0  0  0  0  0  0  0  0999 V2000
   37.2703   -8.1475  -25.2859 N   0  0  0  0  0  0  0  0  0  0  0  0
   37.3478   -6.8508  -24.9513 C   0  0  0  0  0  0  0  0  0  0  0  0
   38.5902   -6.3276  -24.4791 N   0  0  0  0  0  0  0  0  0  0  0  0
   36.2879   -6.0416  -25.0512 N   0  0  0  0  0  0  0  0  0  0  0  0
   35.0771   -6.5277  -25.5047 C   0  0  0  0  0  0  0  0  0  0  0  0
   34.9801   -7.8507  -25.8489 C   0  0  0  0  0  0  0  0  0  0  0  0
   36.1271   -8.7025  -25.7366 C   0  0  0  0  0  0  0  0  0  0  0  0
   36.0518  -10.4152  -26.1768 S   0  0  0  0  0  0  0  0  0  0  0  0
   33.6918   -8.0786  -26.2603 N   0  0  0  0  0  0  0  0  0  0  0  0
   33.0036   -6.9106  -26.1697 C   0  0  0  0  0  0  0  0  0  0  0  0
   33.8407   -5.9404  -25.7056 N   0  0  0  0  0  0  0  0  0  0  0  0
  1  2  2  0  0  0  0
  1  7  1  0  0  0  0
  2  3  1  0  0  0  0
  2  4  1  0  0  0  0
  4  5  2  0  0  0  0
  5  6  1  0  0  0  0
  5 11  1  0  0  0  0
  6  7  2  0  0  0  0
  6  9  1  0  0  0  0
  7  8  1  0  0  0  0
  9 10  1  0  0  0  0
 10 11  2  0  0  0  0
M  END
>  <CHROM.1>
35.72805862,-7.78793044,-25.62789903,-0.45146237,-0.26326187,0.23787129

>  <Name>
ligand

>  <RI>
0

>  <Rbt.Current_Directory>
/home/itssahil/PROJECTS/Mol_Feturizer/New_Systems/rnas/3RKF

>  <Rbt.Executable>
rbdock ($Id: //depot/dev/client3/rdock/2013.1/src/exe/rbdock.cxx#4 $)

>  <Rbt.Library>
libRbt.so (2013.1, Build901 2013/11/27)

>  <Rbt.Parameter_File>
/export/apps/rDock/src/rDock_2013.1_src/data/scripts/dock_solv.prm

>  <Rbt.Receptor>
prm/blind_docking_80.prm

>  <SCORE>
-11.8582

>  <SCORE.INTER>
-11.8582

>  <SCORE.INTER.CONST>
1

>  <SCORE.INTER.POLAR>
0

>  <SCORE.INTER.ROT>
0

>  <SCORE.INTER.SOLV>
4.80993

>  <SCORE.INTER.VDW>
-13.1088

>  <SCORE.INTER.norm>
-1.07801

>  <SCORE.INTRA>
0

>  <SCORE.INTRA.DIHEDRAL>
0

>  <SCORE.INTRA.DIHEDRAL.0>
0

>  <SCORE.INTRA.POLAR>
0

>  <SCORE.INTRA.POLAR.0>
0

>  <SCORE.INTRA.REPUL>
0

>  <SCORE.INTRA.REPUL.0>
0

>  <SCORE.INTRA.SOLV>
0

>  <SCORE.INTRA.SOLV.lig_0>
-28.6198

>  <SCORE.INTRA.VDW>
0

>  <SCORE.INTRA.VDW.0>
0

>  <SCORE.INTRA.norm>
0

>  <SCORE.RESTR>
0

>  <SCORE.RESTR.CAVITY>
0

>  <SCORE.RESTR.norm>
0

>  <SCORE.SYSTEM>
0

>  <SCORE.SYSTEM.CONST>
0

>  <SCORE.SYSTEM.DIHEDRAL>
0

>  <SCORE.SYSTEM.SOLV>
0

>  <SCORE.SYSTEM.norm>
0

>  <SCORE.heavy>
11

>  <SCORE.norm>
-1.07801

>  <RMSD>
12.441

$$$$
ligand
 OpenBabel11021811483D
libRbt.so/2013.1/901 2013/11/27
 11 12  0  0  0  0  0  0  0  0999 V2000
   34.3171   -8.3944  -25.8624 N   0  0  0  0  0  0  0  0  0  0  0  0
   33.9739   -7.1231  -25.6064 C   0  0  0  0  0  0  0  0  0  0  0  0
   32.5937   -6.7564  -25.6345 N   0  0  0  0  0  0  0  0  0  0  0  0
   34.8960   -6.1961  -25.3262 N   0  0  0  0  0  0  0  0  0  0  0  0
   36.2361   -6.5296  -25.2948 C   0  0  0  0  0  0  0  0  0  0  0  0
   36.6042   -7.8236  -25.5561 C   0  0  0  0  0  0  0  0  0  0  0  0
   35.6017   -8.8039  -25.8530 C   0  0  0  0  0  0  0  0  0  0  0  0
   36.0286  -10.4885  -26.1889 S   0  0  0  0  0  0  0  0  0  0  0  0
   37.9709   -7.8923  -25.4649 N   0  0  0  0  0  0  0  0  0  0  0  0
   38.4388   -6.6557  -25.1522 C   0  0  0  0  0  0  0  0  0  0  0  0
   37.3840   -5.7998  -25.0424 N   0  0  0  0  0  0  0  0  0  0  0  0
  1  2  2  0  0  0  0
  1  7  1  0  0  0  0
  2  3  1  0  0  0  0
  2  4  1  0  0  0  0
  4  5  2  0  0  0  0
  5  6  1  0  0  0  0
  5 11  1  0  0  0  0
  6  7  2  0  0  0  0
  6  9  1  0  0  0  0
  7  8  1  0  0  0  0
  9 10  1  0  0  0  0
 10 11  2  0  0  0  0
M  END
>  <CHROM.1>
35.82504683,-7.85288673,-25.62231632,2.49032811,0.07668179,-2.92344612

>  <Name>
ligand

>  <RI>
0

>  <Rbt.Current_Directory>
/home/itssahil/PROJECTS/Mol_Feturizer/New_Systems/rnas/3RKF

>  <Rbt.Executable>
rbdock ($Id: //depot/dev/client3/rdock/2013.1/src/exe/rbdock.cxx#4 $)

>  <Rbt.Library>
libRbt.so (2013.1, Build901 2013/11/27)

>  <Rbt.Parameter_File>
/export/apps/rDock/src/rDock_2013.1_src/data/scripts/dock_solv.prm

>  <Rbt.Receptor>
prm/blind_docking_100.prm

>  <SCORE>
-10.7317

>  <SCORE.INTER>
-10.7317

>  <SCORE.INTER.CONST>
1

>  <SCORE.INTER.POLAR>
0

>  <SCORE.INTER.ROT>
0

>  <SCORE.INTER.SOLV>
6.0342

>  <SCORE.INTER.VDW>
-12.7659

>  <SCORE.INTER.norm>
-0.975611

>  <SCORE.INTRA>
0

>  <SCORE.INTRA.DIHEDRAL>
0

>  <SCORE.INTRA.DIHEDRAL.0>
0

>  <SCORE.INTRA.POLAR>
0

>  <SCORE.INTRA.POLAR.0>
0

>  <SCORE.INTRA.REPUL>
0

>  <SCORE.INTRA.REPUL.0>
0

>  <SCORE.INTRA.SOLV>
0

>  <SCORE.INTRA.SOLV.lig_0>
-28.6198

>  <SCORE.INTRA.VDW>
0

>  <SCORE.INTRA.VDW.0>
0

>  <SCORE.INTRA.norm>
0

>  <SCORE.RESTR>
0

>  <SCORE.RESTR.CAVITY>
0

>  <SCORE.RESTR.norm>
0

>  <SCORE.SYSTEM>
0

>  <SCORE.SYSTEM.CONST>
0

>  <SCORE.SYSTEM.DIHEDRAL>
0

>  <SCORE.SYSTEM.SOLV>
0

>  <SCORE.SYSTEM.norm>
0

>  <SCORE.heavy>
11

>  <SCORE.norm>
-0.975611

>  <RMSD>
12.681

$$$$
ligand
 OpenBabel11021811483D
libRbt.so/2013.1/901 2013/11/27
 11 12  0  0  0  0  0  0  0  0999 V2000
   23.7697   -1.4707  -32.9977 N   0  0  0  0  0  0  0  0  0  0  0  0
   24.7704   -1.5908  -33.8829 C   0  0  0  0  0  0  0  0  0  0  0  0
   24.4735   -2.0122  -35.2150 N   0  0  0  0  0  0  0  0  0  0  0  0
   26.0359   -1.3243  -33.5432 N   0  0  0  0  0  0  0  0  0  0  0  0
   26.3447   -0.9163  -32.2601 C   0  0  0  0  0  0  0  0  0  0  0  0
   25.3344   -0.7905  -31.3426 C   0  0  0  0  0  0  0  0  0  0  0  0
   23.9838   -1.0791  -31.7253 C   0  0  0  0  0  0  0  0  0  0  0  0
   22.6456   -0.9231  -30.5774 S   0  0  0  0  0  0  0  0  0  0  0  0
   25.8963   -0.3792  -30.1611 N   0  0  0  0  0  0  0  0  0  0  0  0
   27.2362   -0.2541  -30.3484 C   0  0  0  0  0  0  0  0  0  0  0  0
   27.5337   -0.5808  -31.6376 N   0  0  0  0  0  0  0  0  0  0  0  0
  1  2  2  0  0  0  0
  1  7  1  0  0  0  0
  2  3  1  0  0  0  0
  2  4  1  0  0  0  0
  4  5  2  0  0  0  0
  5  6  1  0  0  0  0
  5 11  1  0  0  0  0
  6  7  2  0  0  0  0
  6  9  1  0  0  0  0
  7  8  1  0  0  0  0
  9 10  1  0  0  0  0
 10 11  2  0  0  0  0
M  END
>  <CHROM.1>
24.95191343,-1.02309939,-31.98439838,-2.68221111,0.12624915,1.29195128

>  <Name>
ligand

>  <RI>
0

>  <Rbt.Current_Directory>
/home/itssahil/PROJECTS/Mol_Feturizer/New_Systems/rnas/3RKF

>  <Rbt.Executable>
rbdock ($Id: //depot/dev/client3/rdock/2013.1/src/exe/rbdock.cxx#4 $)

>  <Rbt.Library>
libRbt.so (2013.1, Build901 2013/11/27)

>  <Rbt.Parameter_File>
/export/apps/rDock/src/rDock_2013.1_src/data/scripts/dock_solv.prm

>  <Rbt.Receptor>
prm/blind_docking_80.prm

>  <SCORE>
-7.64607

>  <SCORE.INTER>
-7.64607

>  <SCORE.INTER.CONST>
1

>  <SCORE.INTER.POLAR>
0

>  <SCORE.INTER.ROT>
0

>  <SCORE.INTER.SOLV>
3.73135

>  <SCORE.INTER.VDW>
-9.94116

>  <SCORE.INTER.norm>
-0.695097

>  <SCORE.INTRA>
0

>  <SCORE.INTRA.DIHEDRAL>
0

>  <SCORE.INTRA.DIHEDRAL.0>
0

>  <SCORE.INTRA.POLAR>
0

>  <SCORE.INTRA.POLAR.0>
0

>  <SCORE.INTRA.REPUL>
0

>  <SCORE.INTRA.REPUL.0>
0

>  <SCORE.INTRA.SOLV>
0

>  <SCORE.INTRA.SOLV.lig_0>
-28.6198

>  <SCORE.INTRA.VDW>
0

>  <SCORE.INTRA.VDW.0>
0

>  <SCORE.INTRA.norm>
0

>  <SCORE.RESTR>
0

>  <SCORE.RESTR.CAVITY>
0

>  <SCORE.RESTR.norm>
0

>  <SCORE.SYSTEM>
0

>  <SCORE.SYSTEM.CONST>
0

>  <SCORE.SYSTEM.DIHEDRAL>
0

>  <SCORE.SYSTEM.SOLV>
0

>  <SCORE.SYSTEM.norm>
0

>  <SCORE.heavy>
11

>  <SCORE.norm>
-0.695097

>  <RMSD>
15.681

$$$$
ligand
 OpenBabel11021811483D
libRbt.so/2013.1/901 2013/11/27
 11 12  0  0  0  0  0  0  0  0999 V2000
   24.0724   -0.9810  -28.3665 N   0  0  0  0  0  0  0  0  0  0  0  0
   24.2014   -1.9185  -29.3172 C   0  0  0  0  0  0  0  0  0  0  0  0
   24.0863   -1.5379  -30.6892 N   0  0  0  0  0  0  0  0  0  0  0  0
   24.4351   -3.1978  -29.0061 N   0  0  0  0  0  0  0  0  0  0  0  0
   24.5489   -3.5870  -27.6857 C   0  0  0  0  0  0  0  0  0  0  0  0
   24.4176   -2.6421  -26.7017 C   0  0  0  0  0  0  0  0  0  0  0  0
   24.1689   -1.2755  -27.0543 C   0  0  0  0  0  0  0  0  0  0  0  0
   24.0001   -0.0193  -25.8188 S   0  0  0  0  0  0  0  0  0  0  0  0
   24.5687   -3.2763  -25.4951 N   0  0  0  0  0  0  0  0  0  0  0  0
   24.7894   -4.5957  -25.7330 C   0  0  0  0  0  0  0  0  0  0  0  0
   24.7813   -4.8085  -27.0791 N   0  0  0  0  0  0  0  0  0  0  0  0
  1  2  2  0  0  0  0
  1  7  1  0  0  0  0
  2  3  1  0  0  0  0
  2  4  1  0  0  0  0
  4  5  2  0  0  0  0
  5  6  1  0  0  0  0
  5 11  1  0  0  0  0
  6  7  2  0  0  0  0
  6  9  1  0  0  0  0
  7  8  1  0  0  0  0
  9 10  1  0  0  0  0
 10 11  2  0  0  0  0
M  END
>  <CHROM.1>
24.32342129,-2.22074507,-27.35428852,-2.95116517,-1.39658624,1.36756045

>  <Name>
ligand

>  <RI>
0

>  <Rbt.Current_Directory>
/home/itssahil/PROJECTS/Mol_Feturizer/New_Systems/rnas/3RKF

>  <Rbt.Executable>
rbdock ($Id: //depot/dev/client3/rdock/2013.1/src/exe/rbdock.cxx#4 $)

>  <Rbt.Library>
libRbt.so (2013.1, Build901 2013/11/27)

>  <Rbt.Parameter_File>
/export/apps/rDock/src/rDock_2013.1_src/data/scripts/dock_solv.prm

>  <Rbt.Receptor>
prm/blind_docking_40.prm

>  <SCORE>
-7.67136

>  <SCORE.INTER>
-7.67136

>  <SCORE.INTER.CONST>
1

>  <SCORE.INTER.POLAR>
0

>  <SCORE.INTER.ROT>
0

>  <SCORE.INTER.SOLV>
4.55414

>  <SCORE.INTER.VDW>
-10.2323

>  <SCORE.INTER.norm>
-0.697397

>  <SCORE.INTRA>
0

>  <SCORE.INTRA.DIHEDRAL>
0

>  <SCORE.INTRA.DIHEDRAL.0>
0

>  <SCORE.INTRA.POLAR>
0

>  <SCORE.INTRA.POLAR.0>
0

>  <SCORE.INTRA.REPUL>
0

>  <SCORE.INTRA.REPUL.0>
0

>  <SCORE.INTRA.SOLV>
0

>  <SCORE.INTRA.SOLV.lig_0>
-28.6198

>  <SCORE.INTRA.VDW>
0

>  <SCORE.INTRA.VDW.0>
0

>  <SCORE.INTRA.norm>
0

>  <SCORE.RESTR>
0

>  <SCORE.RESTR.CAVITY>
0

>  <SCORE.RESTR.norm>
0

>  <SCORE.SYSTEM>
0

>  <SCORE.SYSTEM.CONST>
0

>  <SCORE.SYSTEM.DIHEDRAL>
0

>  <SCORE.SYSTEM.SOLV>
0

>  <SCORE.SYSTEM.norm>
0

>  <SCORE.heavy>
11

>  <SCORE.norm>
-0.697397

>  <RMSD>
17.542

$$$$
ligand
 OpenBabel11021811483D
libRbt.so/2013.1/901 2013/11/27
 11 12  0  0  0  0  0  0  0  0999 V2000
   29.9297    8.0473  -25.3340 N   0  0  0  0  0  0  0  0  0  0  0  0
   30.7723    7.5647  -24.4086 C   0  0  0  0  0  0  0  0  0  0  0  0
   31.0633    8.3539  -23.2542 N   0  0  0  0  0  0  0  0  0  0  0  0
   31.3429    6.3631  -24.5458 N   0  0  0  0  0  0  0  0  0  0  0  0
   31.0756    5.5845  -25.6550 C   0  0  0  0  0  0  0  0  0  0  0  0
   30.2185    6.0634  -26.6111 C   0  0  0  0  0  0  0  0  0  0  0  0
   29.6153    7.3529  -26.4462 C   0  0  0  0  0  0  0  0  0  0  0  0
   28.4962    8.0094  -27.6502 S   0  0  0  0  0  0  0  0  0  0  0  0
   30.1239    5.1139  -27.5962 N   0  0  0  0  0  0  0  0  0  0  0  0
   30.9138    4.0635  -27.2515 C   0  0  0  0  0  0  0  0  0  0  0  0
   31.5101    4.3338  -26.0562 N   0  0  0  0  0  0  0  0  0  0  0  0
  1  2  2  0  0  0  0
  1  7  1  0  0  0  0
  2  3  1  0  0  0  0
  2  4  1  0  0  0  0
  4  5  2  0  0  0  0
  5  6  1  0  0  0  0
  5 11  1  0  0  0  0
  6  7  2  0  0  0  0
  6  9  1  0  0  0  0
  7  8  1  0  0  0  0
  9 10  1  0  0  0  0
 10 11  2  0  0  0  0
M  END
>  <CHROM.1>
30.22710639,6.64347088,-26.08599062,-2.14765950,0.87655417,-2.42216834

>  <Name>
ligand

>  <RI>
0

>  <Rbt.Current_Directory>
/home/itssahil/PROJECTS/Mol_Feturizer/New_Systems/rnas/3RKF

>  <Rbt.Executable>
rbdock ($Id: //depot/dev/client3/rdock/2013.1/src/exe/rbdock.cxx#4 $)

>  <Rbt.Library>
libRbt.so (2013.1, Build901 2013/11/27)

>  <Rbt.Parameter_File>
/export/apps/rDock/src/rDock_2013.1_src/data/scripts/dock_solv.prm

>  <Rbt.Receptor>
prm/blind_docking_100.prm

>  <SCORE>
-7.74906

>  <SCORE.INTER>
-7.74906

>  <SCORE.INTER.CONST>
1

>  <SCORE.INTER.POLAR>
0

>  <SCORE.INTER.ROT>
0

>  <SCORE.INTER.SOLV>
3.46097

>  <SCORE.INTER.VDW>
-9.9197

>  <SCORE.INTER.norm>
-0.70446

>  <SCORE.INTRA>
0

>  <SCORE.INTRA.DIHEDRAL>
0

>  <SCORE.INTRA.DIHEDRAL.0>
0

>  <SCORE.INTRA.POLAR>
0

>  <SCORE.INTRA.POLAR.0>
0

>  <SCORE.INTRA.REPUL>
0

>  <SCORE.INTRA.REPUL.0>
0

>  <SCORE.INTRA.SOLV>
0

>  <SCORE.INTRA.SOLV.lig_0>
-28.6198

>  <SCORE.INTRA.VDW>
0

>  <SCORE.INTRA.VDW.0>
0

>  <SCORE.INTRA.norm>
0

>  <SCORE.RESTR>
0

>  <SCORE.RESTR.CAVITY>
0

>  <SCORE.RESTR.norm>
0

>  <SCORE.SYSTEM>
0

>  <SCORE.SYSTEM.CONST>
0

>  <SCORE.SYSTEM.DIHEDRAL>
0

>  <SCORE.SYSTEM.SOLV>
0

>  <SCORE.SYSTEM.norm>
0

>  <SCORE.heavy>
11

>  <SCORE.norm>
-0.70446

>  <RMSD>
20.981

$$$$
ligand
 OpenBabel11021811483D
libRbt.so/2013.1/901 2013/11/27
 11 12  0  0  0  0  0  0  0  0999 V2000
   28.7888    4.4641  -26.9421 N   0  0  0  0  0  0  0  0  0  0  0  0
   27.5160    4.7889  -26.6702 C   0  0  0  0  0  0  0  0  0  0  0  0
   26.5839    3.7511  -26.3634 N   0  0  0  0  0  0  0  0  0  0  0  0
   27.1049    6.0613  -26.6809 N   0  0  0  0  0  0  0  0  0  0  0  0
   27.9900    7.0799  -26.9760 C   0  0  0  0  0  0  0  0  0  0  0  0
   29.2937    6.7652  -27.2582 C   0  0  0  0  0  0  0  0  0  0  0  0
   29.7164    5.3960  -27.2406 C   0  0  0  0  0  0  0  0  0  0  0  0
   31.3911    4.9422  -27.5905 S   0  0  0  0  0  0  0  0  0  0  0  0
   29.9568    7.9378  -27.5155 N   0  0  0  0  0  0  0  0  0  0  0  0
   29.0723    8.9619  -27.3941 C   0  0  0  0  0  0  0  0  0  0  0  0
   27.8523    8.4539  -27.0613 N   0  0  0  0  0  0  0  0  0  0  0  0
  1  2  2  0  0  0  0
  1  7  1  0  0  0  0
  2  3  1  0  0  0  0
  2  4  1  0  0  0  0
  4  5  2  0  0  0  0
  5  6  1  0  0  0  0
  5 11  1  0  0  0  0
  6  7  2  0  0  0  0
  6  9  1  0  0  0  0
  7  8  1  0  0  0  0
  9 10  1  0  0  0  0
 10 11  2  0  0  0  0
M  END
>  <CHROM.1>
28.97606508,6.06322728,-27.12186314,1.40484701,-0.22958075,3.05600388

>  <Name>
ligand

>  <RI>
0

>  <Rbt.Current_Directory>
/home/itssahil/PROJECTS/Mol_Feturizer/New_Systems/rnas/3RKF

>  <Rbt.Executable>
rbdock ($Id: //depot/dev/client3/rdock/2013.1/src/exe/rbdock.cxx#4 $)

>  <Rbt.Library>
libRbt.so (2013.1, Build901 2013/11/27)

>  <Rbt.Parameter_File>
/export/apps/rDock/src/rDock_2013.1_src/data/scripts/dock_solv.prm

>  <Rbt.Receptor>
prm/blind_docking_60.prm

>  <SCORE>
-8.46713

>  <SCORE.INTER>
-8.46713

>  <SCORE.INTER.CONST>
1

>  <SCORE.INTER.POLAR>
0

>  <SCORE.INTER.ROT>
0

>  <SCORE.INTER.SOLV>
7.11129

>  <SCORE.INTER.VDW>
-11.6152

>  <SCORE.INTER.norm>
-0.769739

>  <SCORE.INTRA>
0

>  <SCORE.INTRA.DIHEDRAL>
0

>  <SCORE.INTRA.DIHEDRAL.0>
0

>  <SCORE.INTRA.POLAR>
0

>  <SCORE.INTRA.POLAR.0>
0

>  <SCORE.INTRA.REPUL>
0

>  <SCORE.INTRA.REPUL.0>
0

>  <SCORE.INTRA.SOLV>
0

>  <SCORE.INTRA.SOLV.lig_0>
-28.6198

>  <SCORE.INTRA.VDW>
0

>  <SCORE.INTRA.VDW.0>
0

>  <SCORE.INTRA.norm>
0

>  <SCORE.RESTR>
0

>  <SCORE.RESTR.CAVITY>
0

>  <SCORE.RESTR.norm>
0

>  <SCORE.SYSTEM>
0

>  <SCORE.SYSTEM.CONST>
0

>  <SCORE.SYSTEM.DIHEDRAL>
0

>  <SCORE.SYSTEM.SOLV>
0

>  <SCORE.SYSTEM.norm>
0

>  <SCORE.heavy>
11

>  <SCORE.norm>
-0.769739

>  <RMSD>
21.179

$$$$
ligand
 OpenBabel11021811483D
libRbt.so/2013.1/901 2013/11/27
 11 12  0  0  0  0  0  0  0  0999 V2000
   27.5401    8.5220  -25.7081 N   0  0  0  0  0  0  0  0  0  0  0  0
   26.8290    7.8552  -24.7866 C   0  0  0  0  0  0  0  0  0  0  0  0
   26.5241    8.4953  -23.5466 N   0  0  0  0  0  0  0  0  0  0  0  0
   26.4015    6.6073  -25.0061 N   0  0  0  0  0  0  0  0  0  0  0  0
   26.6863    5.9699  -26.1980 C   0  0  0  0  0  0  0  0  0  0  0  0
   27.4136    6.6361  -27.1496 C   0  0  0  0  0  0  0  0  0  0  0  0
   27.8620    7.9737  -26.8972 C   0  0  0  0  0  0  0  0  0  0  0  0
   28.7969    8.8763  -28.0989 S   0  0  0  0  0  0  0  0  0  0  0  0
   27.5591    5.7959  -28.2237 N   0  0  0  0  0  0  0  0  0  0  0  0
   26.9299    4.6264  -27.9369 C   0  0  0  0  0  0  0  0  0  0  0  0
   26.3842    4.7131  -26.6911 N   0  0  0  0  0  0  0  0  0  0  0  0
  1  2  2  0  0  0  0
  1  7  1  0  0  0  0
  2  3  1  0  0  0  0
  2  4  1  0  0  0  0
  4  5  2  0  0  0  0
  5  6  1  0  0  0  0
  5 11  1  0  0  0  0
  6  7  2  0  0  0  0
  6  9  1  0  0  0  0
  7  8  1  0  0  0  0
  9 10  1  0  0  0  0
 10 11  2  0  0  0  0
M  END
>  <CHROM.1>
27.36651887,7.16315989,-26.57313112,1.08457590,1.01016522,0.73773913

>  <Name>
ligand

>  <RI>
0

>  <Rbt.Current_Directory>
/home/itssahil/PROJECTS/Mol_Feturizer/New_Systems/rnas/3RKF

>  <Rbt.Executable>
rbdock ($Id: //depot/dev/client3/rdock/2013.1/src/exe/rbdock.cxx#4 $)

>  <Rbt.Library>
libRbt.so (2013.1, Build901 2013/11/27)

>  <Rbt.Parameter_File>
/export/apps/rDock/src/rDock_2013.1_src/data/scripts/dock_solv.prm

>  <Rbt.Receptor>
prm/blind_docking_100.prm

>  <SCORE>
-7.57332

>  <SCORE.INTER>
-7.57332

>  <SCORE.INTER.CONST>
1

>  <SCORE.INTER.POLAR>
0

>  <SCORE.INTER.ROT>
0

>  <SCORE.INTER.SOLV>
6.44222

>  <SCORE.INTER.VDW>
-10.7963

>  <SCORE.INTER.norm>
-0.688484

>  <SCORE.INTRA>
0

>  <SCORE.INTRA.DIHEDRAL>
0

>  <SCORE.INTRA.DIHEDRAL.0>
0

>  <SCORE.INTRA.POLAR>
0

>  <SCORE.INTRA.POLAR.0>
0

>  <SCORE.INTRA.REPUL>
0

>  <SCORE.INTRA.REPUL.0>
0

>  <SCORE.INTRA.SOLV>
0

>  <SCORE.INTRA.SOLV.lig_0>
-28.6198

>  <SCORE.INTRA.VDW>
0

>  <SCORE.INTRA.VDW.0>
0

>  <SCORE.INTRA.norm>
0

>  <SCORE.RESTR>
0

>  <SCORE.RESTR.CAVITY>
0

>  <SCORE.RESTR.norm>
0

>  <SCORE.SYSTEM>
0

>  <SCORE.SYSTEM.CONST>
0

>  <SCORE.SYSTEM.DIHEDRAL>
0

>  <SCORE.SYSTEM.SOLV>
0

>  <SCORE.SYSTEM.norm>
0

>  <SCORE.heavy>
11

>  <SCORE.norm>
-0.688484

>  <RMSD>
22.343

$$$$
ligand
 OpenBabel11021811483D
libRbt.so/2013.1/901 2013/11/27
 11 12  0  0  0  0  0  0  0  0999 V2000
   28.7646   -6.9392  -17.7754 N   0  0  0  0  0  0  0  0  0  0  0  0
   29.8937   -6.7921  -17.0664 C   0  0  0  0  0  0  0  0  0  0  0  0
   30.8061   -5.7514  -17.4198 N   0  0  0  0  0  0  0  0  0  0  0  0
   30.1804   -7.5982  -16.0387 N   0  0  0  0  0  0  0  0  0  0  0  0
   29.3122   -8.6113  -15.6811 C   0  0  0  0  0  0  0  0  0  0  0  0
   28.1549   -8.7768  -16.3963 C   0  0  0  0  0  0  0  0  0  0  0  0
   27.8638   -7.9022  -17.4937 C   0  0  0  0  0  0  0  0  0  0  0  0
   26.3784   -8.0724  -18.4411 S   0  0  0  0  0  0  0  0  0  0  0  0
   27.4774   -9.8363  -15.8493 N   0  0  0  0  0  0  0  0  0  0  0  0
   28.2088  -10.3180  -14.8106 C   0  0  0  0  0  0  0  0  0  0  0  0
   29.3452   -9.5755  -14.6896 N   0  0  0  0  0  0  0  0  0  0  0  0
  1  2  2  0  0  0  0
  1  7  1  0  0  0  0
  2  3  1  0  0  0  0
  2  4  1  0  0  0  0
  4  5  2  0  0  0  0
  5  6  1  0  0  0  0
  5 11  1  0  0  0  0
  6  7  2  0  0  0  0
  6  9  1  0  0  0  0
  7  8  1  0  0  0  0
  9 10  1  0  0  0  0
 10 11  2  0  0  0  0
M  END
>  <CHROM.1>
28.48843424,-8.16567862,-16.75354577,-1.66150786,0.49093297,2.35531898

>  <Name>
ligand

>  <RI>
0

>  <Rbt.Current_Directory>
/home/itssahil/PROJECTS/Mol_Feturizer/New_Systems/rnas/3RKF

>  <Rbt.Executable>
rbdock ($Id: //depot/dev/client3/rdock/2013.1/src/exe/rbdock.cxx#4 $)

>  <Rbt.Library>
libRbt.so (2013.1, Build901 2013/11/27)

>  <Rbt.Parameter_File>
/export/apps/rDock/src/rDock_2013.1_src/data/scripts/dock_solv.prm

>  <Rbt.Receptor>
prm/blind_docking_40.prm

>  <SCORE>
-6.93054

>  <SCORE.INTER>
-6.93054

>  <SCORE.INTER.CONST>
1

>  <SCORE.INTER.POLAR>
0

>  <SCORE.INTER.ROT>
0

>  <SCORE.INTER.SOLV>
2.14088

>  <SCORE.INTER.VDW>
-8.93399

>  <SCORE.INTER.norm>
-0.630049

>  <SCORE.INTRA>
0

>  <SCORE.INTRA.DIHEDRAL>
0

>  <SCORE.INTRA.DIHEDRAL.0>
0

>  <SCORE.INTRA.POLAR>
0

>  <SCORE.INTRA.POLAR.0>
0

>  <SCORE.INTRA.REPUL>
0

>  <SCORE.INTRA.REPUL.0>
0

>  <SCORE.INTRA.SOLV>
0

>  <SCORE.INTRA.SOLV.lig_0>
-28.6198

>  <SCORE.INTRA.VDW>
0

>  <SCORE.INTRA.VDW.0>
0

>  <SCORE.INTRA.norm>
0

>  <SCORE.RESTR>
0

>  <SCORE.RESTR.CAVITY>
0

>  <SCORE.RESTR.norm>
0

>  <SCORE.SYSTEM>
0

>  <SCORE.SYSTEM.CONST>
0

>  <SCORE.SYSTEM.DIHEDRAL>
0

>  <SCORE.SYSTEM.SOLV>
0

>  <SCORE.SYSTEM.norm>
0

>  <SCORE.heavy>
11

>  <SCORE.norm>
-0.630049

>  <RMSD>
22.390

$$$$
ligand
 OpenBabel11021811483D
libRbt.so/2013.1/901 2013/11/27
 11 12  0  0  0  0  0  0  0  0999 V2000
   30.4887   -7.0010  -14.3462 N   0  0  0  0  0  0  0  0  0  0  0  0
   30.3073   -6.5758  -15.6055 C   0  0  0  0  0  0  0  0  0  0  0  0
   31.0354   -5.4365  -16.0663 N   0  0  0  0  0  0  0  0  0  0  0  0
   29.4612   -7.1960  -16.4345 N   0  0  0  0  0  0  0  0  0  0  0  0
   28.7467   -8.2988  -16.0085 C   0  0  0  0  0  0  0  0  0  0  0  0
   28.9185   -8.7451  -14.7242 C   0  0  0  0  0  0  0  0  0  0  0  0
   29.8310   -8.0686  -13.8504 C   0  0  0  0  0  0  0  0  0  0  0  0
   30.0917   -8.6133  -12.1866 S   0  0  0  0  0  0  0  0  0  0  0  0
   28.1058   -9.8364  -14.5524 N   0  0  0  0  0  0  0  0  0  0  0  0
   27.4410  -10.0588  -15.7162 C   0  0  0  0  0  0  0  0  0  0  0  0
   27.8225   -9.1207  -16.6283 N   0  0  0  0  0  0  0  0  0  0  0  0
  1  2  2  0  0  0  0
  1  7  1  0  0  0  0
  2  3  1  0  0  0  0
  2  4  1  0  0  0  0
  4  5  2  0  0  0  0
  5  6  1  0  0  0  0
  5 11  1  0  0  0  0
  6  7  2  0  0  0  0
  6  9  1  0  0  0  0
  7  8  1  0  0  0  0
  9 10  1  0  0  0  0
 10 11  2  0  0  0  0
M  END
>  <CHROM.1>
29.40353388,-8.13192490,-14.75635691,-0.18877533,-0.83183609,-1.09350023

>  <Name>
ligand

>  <RI>
0

>  <Rbt.Current_Directory>
/home/itssahil/PROJECTS/Mol_Feturizer/New_Systems/rnas/3RKF

>  <Rbt.Executable>
rbdock ($Id: //depot/dev/client3/rdock/2013.1/src/exe/rbdock.cxx#4 $)

>  <Rbt.Library>
libRbt.so (2013.1, Build901 2013/11/27)

>  <Rbt.Parameter_File>
/export/apps/rDock/src/rDock_2013.1_src/data/scripts/dock_solv.prm

>  <Rbt.Receptor>
prm/blind_docking_40.prm

>  <SCORE>
-9.33043

>  <SCORE.INTER>
-9.33043

>  <SCORE.INTER.CONST>
1

>  <SCORE.INTER.POLAR>
0

>  <SCORE.INTER.ROT>
0

>  <SCORE.INTER.SOLV>
6.96666

>  <SCORE.INTER.VDW>
-12.1425

>  <SCORE.INTER.norm>
-0.848221

>  <SCORE.INTRA>
0

>  <SCORE.INTRA.DIHEDRAL>
0

>  <SCORE.INTRA.DIHEDRAL.0>
0

>  <SCORE.INTRA.POLAR>
0

>  <SCORE.INTRA.POLAR.0>
0

>  <SCORE.INTRA.REPUL>
0

>  <SCORE.INTRA.REPUL.0>
0

>  <SCORE.INTRA.SOLV>
0

>  <SCORE.INTRA.SOLV.lig_0>
-28.6198

>  <SCORE.INTRA.VDW>
0

>  <SCORE.INTRA.VDW.0>
0

>  <SCORE.INTRA.norm>
0

>  <SCORE.RESTR>
0

>  <SCORE.RESTR.CAVITY>
0

>  <SCORE.RESTR.norm>
0

>  <SCORE.SYSTEM>
0

>  <SCORE.SYSTEM.CONST>
0

>  <SCORE.SYSTEM.DIHEDRAL>
0

>  <SCORE.SYSTEM.SOLV>
0

>  <SCORE.SYSTEM.norm>
0

>  <SCORE.heavy>
11

>  <SCORE.norm>
-0.848221

>  <RMSD>
23.669

$$$$
ligand
 OpenBabel11021811483D
libRbt.so/2013.1/901 2013/11/27
 11 12  0  0  0  0  0  0  0  0999 V2000
   30.5451   -6.9918  -14.2478 N   0  0  0  0  0  0  0  0  0  0  0  0
   30.3977   -6.5607  -15.5094 C   0  0  0  0  0  0  0  0  0  0  0  0
   31.1597   -5.4371  -15.9537 N   0  0  0  0  0  0  0  0  0  0  0  0
   29.5541   -7.1605  -16.3560 N   0  0  0  0  0  0  0  0  0  0  0  0
   28.8073   -8.2478  -15.9461 C   0  0  0  0  0  0  0  0  0  0  0  0
   28.9442   -8.7000  -14.6597 C   0  0  0  0  0  0  0  0  0  0  0  0
   29.8543   -8.0453  -13.7670 C   0  0  0  0  0  0  0  0  0  0  0  0
   30.0706   -8.5984  -12.0996 S   0  0  0  0  0  0  0  0  0  0  0  0
   28.1042   -9.7732  -14.5058 N   0  0  0  0  0  0  0  0  0  0  0  0
   27.4573   -9.9788  -15.6828 C   0  0  0  0  0  0  0  0  0  0  0  0
   27.8771   -9.0480  -16.5853 N   0  0  0  0  0  0  0  0  0  0  0  0
  1  2  2  0  0  0  0
  1  7  1  0  0  0  0
  2  3  1  0  0  0  0
  2  4  1  0  0  0  0
  4  5  2  0  0  0  0
  5  6  1  0  0  0  0
  5 11  1  0  0  0  0
  6  7  2  0  0  0  0
  6  9  1  0  0  0  0
  7  8  1  0  0  0  0
  9 10  1  0  0  0  0
 10 11  2  0  0  0  0
M  END
>  <CHROM.1>
29.44321712,-8.09766153,-14.68113669,-0.22900212,-0.82058971,-1.12123993

>  <Name>
ligand

>  <RI>
0

>  <Rbt.Current_Directory>
/home/itssahil/PROJECTS/Mol_Feturizer/New_Systems/rnas/3RKF

>  <Rbt.Executable>
rbdock ($Id: //depot/dev/client3/rdock/2013.1/src/exe/rbdock.cxx#4 $)

>  <Rbt.Library>
libRbt.so (2013.1, Build901 2013/11/27)

>  <Rbt.Parameter_File>
/export/apps/rDock/src/rDock_2013.1_src/data/scripts/dock_solv.prm

>  <Rbt.Receptor>
prm/blind_docking_40.prm

>  <SCORE>
-9.37233

>  <SCORE.INTER>
-9.37233

>  <SCORE.INTER.CONST>
1

>  <SCORE.INTER.POLAR>
0

>  <SCORE.INTER.ROT>
0

>  <SCORE.INTER.SOLV>
7.68938

>  <SCORE.INTER.VDW>
-12.4113

>  <SCORE.INTER.norm>
-0.85203

>  <SCORE.INTRA>
0

>  <SCORE.INTRA.DIHEDRAL>
0

>  <SCORE.INTRA.DIHEDRAL.0>
0

>  <SCORE.INTRA.POLAR>
0

>  <SCORE.INTRA.POLAR.0>
0

>  <SCORE.INTRA.REPUL>
0

>  <SCORE.INTRA.REPUL.0>
0

>  <SCORE.INTRA.SOLV>
0

>  <SCORE.INTRA.SOLV.lig_0>
-28.6198

>  <SCORE.INTRA.VDW>
0

>  <SCORE.INTRA.VDW.0>
0

>  <SCORE.INTRA.norm>
0

>  <SCORE.RESTR>
0

>  <SCORE.RESTR.CAVITY>
0

>  <SCORE.RESTR.norm>
0

>  <SCORE.SYSTEM>
0

>  <SCORE.SYSTEM.CONST>
0

>  <SCORE.SYSTEM.DIHEDRAL>
0

>  <SCORE.SYSTEM.SOLV>
0

>  <SCORE.SYSTEM.norm>
0

>  <SCORE.heavy>
11

>  <SCORE.norm>
-0.85203

>  <RMSD>
23.726

$$$$
ligand
 OpenBabel11021811483D
libRbt.so/2013.1/901 2013/11/27
 11 12  0  0  0  0  0  0  0  0999 V2000
   30.4610   -6.9367  -14.2194 N   0  0  0  0  0  0  0  0  0  0  0  0
   30.2723   -6.4859  -15.4686 C   0  0  0  0  0  0  0  0  0  0  0  0
   30.9760   -5.3205  -15.9010 N   0  0  0  0  0  0  0  0  0  0  0  0
   29.4410   -7.1046  -16.3138 N   0  0  0  0  0  0  0  0  0  0  0  0
   28.7502   -8.2324  -15.9153 C   0  0  0  0  0  0  0  0  0  0  0  0
   28.9298   -8.7051  -14.6415 C   0  0  0  0  0  0  0  0  0  0  0  0
   29.8260   -8.0297  -13.7502 C   0  0  0  0  0  0  0  0  0  0  0  0
   30.0961   -8.6078  -12.0992 S   0  0  0  0  0  0  0  0  0  0  0  0
   28.1408   -9.8176  -14.4971 N   0  0  0  0  0  0  0  0  0  0  0  0
   27.4827  -10.0268  -15.6672 C   0  0  0  0  0  0  0  0  0  0  0  0
   27.8450   -9.0594  -16.5561 N   0  0  0  0  0  0  0  0  0  0  0  0
  1  2  2  0  0  0  0
  1  7  1  0  0  0  0
  2  3  1  0  0  0  0
  2  4  1  0  0  0  0
  4  5  2  0  0  0  0
  5  6  1  0  0  0  0
  5 11  1  0  0  0  0
  6  7  2  0  0  0  0
  6  9  1  0  0  0  0
  7  8  1  0  0  0  0
  9 10  1  0  0  0  0
 10 11  2  0  0  0  0
M  END
>  <CHROM.1>
29.40135576,-8.08093167,-14.65822144,-0.17554270,-0.85183442,-1.06002172

>  <Name>
ligand

>  <RI>
0

>  <Rbt.Current_Directory>
/home/itssahil/PROJECTS/Mol_Feturizer/New_Systems/rnas/3RKF

>  <Rbt.Executable>
rbdock ($Id: //depot/dev/client3/rdock/2013.1/src/exe/rbdock.cxx#4 $)

>  <Rbt.Library>
libRbt.so (2013.1, Build901 2013/11/27)

>  <Rbt.Parameter_File>
/export/apps/rDock/src/rDock_2013.1_src/data/scripts/dock_solv.prm

>  <Rbt.Receptor>
prm/blind_docking_100.prm

>  <SCORE>
-9.31292

>  <SCORE.INTER>
-9.31292

>  <SCORE.INTER.CONST>
1

>  <SCORE.INTER.POLAR>
0

>  <SCORE.INTER.ROT>
0

>  <SCORE.INTER.SOLV>
7.03185

>  <SCORE.INTER.VDW>
-12.1526

>  <SCORE.INTER.norm>
-0.846629

>  <SCORE.INTRA>
0

>  <SCORE.INTRA.DIHEDRAL>
0

>  <SCORE.INTRA.DIHEDRAL.0>
0

>  <SCORE.INTRA.POLAR>
0

>  <SCORE.INTRA.POLAR.0>
0

>  <SCORE.INTRA.REPUL>
0

>  <SCORE.INTRA.REPUL.0>
0

>  <SCORE.INTRA.SOLV>
0

>  <SCORE.INTRA.SOLV.lig_0>
-28.6198

>  <SCORE.INTRA.VDW>
0

>  <SCORE.INTRA.VDW.0>
0

>  <SCORE.INTRA.norm>
0

>  <SCORE.RESTR>
0

>  <SCORE.RESTR.CAVITY>
0

>  <SCORE.RESTR.norm>
0

>  <SCORE.SYSTEM>
0

>  <SCORE.SYSTEM.CONST>
0

>  <SCORE.SYSTEM.DIHEDRAL>
0

>  <SCORE.SYSTEM.SOLV>
0

>  <SCORE.SYSTEM.norm>
0

>  <SCORE.heavy>
11

>  <SCORE.norm>
-0.846629

>  <RMSD>
23.768

$$$$
ligand
 OpenBabel11021811483D
libRbt.so/2013.1/901 2013/11/27
 11 12  0  0  0  0  0  0  0  0999 V2000
   30.5227   -6.9712  -14.1725 N   0  0  0  0  0  0  0  0  0  0  0  0
   30.3645   -6.5197  -15.4257 C   0  0  0  0  0  0  0  0  0  0  0  0
   31.0922   -5.3646  -15.8457 N   0  0  0  0  0  0  0  0  0  0  0  0
   29.5416   -7.1284  -16.2862 N   0  0  0  0  0  0  0  0  0  0  0  0
   28.8279   -8.2461  -15.9000 C   0  0  0  0  0  0  0  0  0  0  0  0
   28.9762   -8.7194  -14.6224 C   0  0  0  0  0  0  0  0  0  0  0  0
   29.8639   -8.0549  -13.7145 C   0  0  0  0  0  0  0  0  0  0  0  0
   30.0939   -8.6342  -12.0579 S   0  0  0  0  0  0  0  0  0  0  0  0
   28.1695   -9.8209  -14.4921 N   0  0  0  0  0  0  0  0  0  0  0  0
   27.5316  -10.0229  -15.6745 C   0  0  0  0  0  0  0  0  0  0  0  0
   27.9242   -9.0618  -16.5574 N   0  0  0  0  0  0  0  0  0  0  0  0
  1  2  2  0  0  0  0
  1  7  1  0  0  0  0
  2  3  1  0  0  0  0
  2  4  1  0  0  0  0
  4  5  2  0  0  0  0
  5  6  1  0  0  0  0
  5 11  1  0  0  0  0
  6  7  2  0  0  0  0
  6  9  1  0  0  0  0
  7  8  1  0  0  0  0
  9 10  1  0  0  0  0
 10 11  2  0  0  0  0
M  END
>  <CHROM.1>
29.45640588,-8.10169909,-14.63061906,-0.21133615,-0.84922576,-1.08823672

>  <Name>
ligand

>  <RI>
0

>  <Rbt.Current_Directory>
/home/itssahil/PROJECTS/Mol_Feturizer/New_Systems/rnas/3RKF

>  <Rbt.Executable>
rbdock ($Id: //depot/dev/client3/rdock/2013.1/src/exe/rbdock.cxx#4 $)

>  <Rbt.Library>
libRbt.so (2013.1, Build901 2013/11/27)

>  <Rbt.Parameter_File>
/export/apps/rDock/src/rDock_2013.1_src/data/scripts/dock_solv.prm

>  <Rbt.Receptor>
prm/blind_docking_40.prm

>  <SCORE>
-9.38738

>  <SCORE.INTER>
-9.38738

>  <SCORE.INTER.CONST>
1

>  <SCORE.INTER.POLAR>
0

>  <SCORE.INTER.ROT>
0

>  <SCORE.INTER.SOLV>
7.6621

>  <SCORE.INTER.VDW>
-12.4123

>  <SCORE.INTER.norm>
-0.853399

>  <SCORE.INTRA>
0

>  <SCORE.INTRA.DIHEDRAL>
0

>  <SCORE.INTRA.DIHEDRAL.0>
0

>  <SCORE.INTRA.POLAR>
0

>  <SCORE.INTRA.POLAR.0>
0

>  <SCORE.INTRA.REPUL>
0

>  <SCORE.INTRA.REPUL.0>
0

>  <SCORE.INTRA.SOLV>
0

>  <SCORE.INTRA.SOLV.lig_0>
-28.6198

>  <SCORE.INTRA.VDW>
0

>  <SCORE.INTRA.VDW.0>
0

>  <SCORE.INTRA.norm>
0

>  <SCORE.RESTR>
0

>  <SCORE.RESTR.CAVITY>
0

>  <SCORE.RESTR.norm>
0

>  <SCORE.SYSTEM>
0

>  <SCORE.SYSTEM.CONST>
0

>  <SCORE.SYSTEM.DIHEDRAL>
0

>  <SCORE.SYSTEM.SOLV>
0

>  <SCORE.SYSTEM.norm>
0

>  <SCORE.heavy>
11

>  <SCORE.norm>
-0.853399

>  <RMSD>
23.771

$$$$
ligand
 OpenBabel11021811483D
libRbt.so/2013.1/901 2013/11/27
 11 12  0  0  0  0  0  0  0  0999 V2000
   30.5256   -6.9655  -14.1663 N   0  0  0  0  0  0  0  0  0  0  0  0
   30.3667   -6.5084  -15.4174 C   0  0  0  0  0  0  0  0  0  0  0  0
   31.0947   -5.3517  -15.8327 N   0  0  0  0  0  0  0  0  0  0  0  0
   29.5429   -7.1127  -16.2800 N   0  0  0  0  0  0  0  0  0  0  0  0
   28.8289   -8.2319  -15.8982 C   0  0  0  0  0  0  0  0  0  0  0  0
   28.9779   -8.7109  -14.6228 C   0  0  0  0  0  0  0  0  0  0  0  0
   29.8666   -8.0509  -13.7127 C   0  0  0  0  0  0  0  0  0  0  0  0
   30.0976   -8.6377  -12.0588 S   0  0  0  0  0  0  0  0  0  0  0  0
   28.1708   -9.8126  -14.4969 N   0  0  0  0  0  0  0  0  0  0  0  0
   27.5319  -10.0090  -15.6797 C   0  0  0  0  0  0  0  0  0  0  0  0
   27.9244   -9.0441  -16.5585 N   0  0  0  0  0  0  0  0  0  0  0  0
  1  2  2  0  0  0  0
  1  7  1  0  0  0  0
  2  3  1  0  0  0  0
  2  4  1  0  0  0  0
  4  5  2  0  0  0  0
  5  6  1  0  0  0  0
  5 11  1  0  0  0  0
  6  7  2  0  0  0  0
  6  9  1  0  0  0  0
  7  8  1  0  0  0  0
  9 10  1  0  0  0  0
 10 11  2  0  0  0  0
M  END
>  <CHROM.1>
29.45844935,-8.09339519,-14.62865515,-0.21069216,-0.84844868,-1.08329875

>  <Name>
ligand

>  <RI>
0

>  <Rbt.Current_Directory>
/home/itssahil/PROJECTS/Mol_Feturizer/New_Systems/rnas/3RKF

>  <Rbt.Executable>
rbdock ($Id: //depot/dev/client3/rdock/2013.1/src/exe/rbdock.cxx#4 $)

>  <Rbt.Library>
libRbt.so (2013.1, Build901 2013/11/27)

>  <Rbt.Parameter_File>
/export/apps/rDock/src/rDock_2013.1_src/data/scripts/dock_solv.prm

>  <Rbt.Receptor>
prm/blind_docking_40.prm

>  <SCORE>
-9.38132

>  <SCORE.INTER>
-9.38132

>  <SCORE.INTER.CONST>
1

>  <SCORE.INTER.POLAR>
0

>  <SCORE.INTER.ROT>
0

>  <SCORE.INTER.SOLV>
7.68778

>  <SCORE.INTER.VDW>
-12.4168

>  <SCORE.INTER.norm>
-0.852847

>  <SCORE.INTRA>
0

>  <SCORE.INTRA.DIHEDRAL>
0

>  <SCORE.INTRA.DIHEDRAL.0>
0

>  <SCORE.INTRA.POLAR>
0

>  <SCORE.INTRA.POLAR.0>
0

>  <SCORE.INTRA.REPUL>
0

>  <SCORE.INTRA.REPUL.0>
0

>  <SCORE.INTRA.SOLV>
0

>  <SCORE.INTRA.SOLV.lig_0>
-28.6198

>  <SCORE.INTRA.VDW>
0

>  <SCORE.INTRA.VDW.0>
0

>  <SCORE.INTRA.norm>
0

>  <SCORE.RESTR>
0

>  <SCORE.RESTR.CAVITY>
0

>  <SCORE.RESTR.norm>
0

>  <SCORE.SYSTEM>
0

>  <SCORE.SYSTEM.CONST>
0

>  <SCORE.SYSTEM.DIHEDRAL>
0

>  <SCORE.SYSTEM.SOLV>
0

>  <SCORE.SYSTEM.norm>
0

>  <SCORE.heavy>
11

>  <SCORE.norm>
-0.852847

>  <RMSD>
23.774

$$$$
ligand
 OpenBabel11021811483D
libRbt.so/2013.1/901 2013/11/27
 11 12  0  0  0  0  0  0  0  0999 V2000
   28.9687   -8.2366  -16.3462 N   0  0  0  0  0  0  0  0  0  0  0  0
   29.7702   -7.1617  -16.3874 C   0  0  0  0  0  0  0  0  0  0  0  0
   30.1082   -6.5946  -17.6540 N   0  0  0  0  0  0  0  0  0  0  0  0
   30.2569   -6.6131  -15.2693 N   0  0  0  0  0  0  0  0  0  0  0  0
   29.9432   -7.1466  -14.0344 C   0  0  0  0  0  0  0  0  0  0  0  0
   29.1272   -8.2461  -13.9745 C   0  0  0  0  0  0  0  0  0  0  0  0
   28.6138   -8.8196  -15.1834 C   0  0  0  0  0  0  0  0  0  0  0  0
   27.5503  -10.2342  -15.1551 S   0  0  0  0  0  0  0  0  0  0  0  0
   28.9730   -8.5763  -12.6523 N   0  0  0  0  0  0  0  0  0  0  0  0
   29.6860   -7.6918  -11.9073 C   0  0  0  0  0  0  0  0  0  0  0  0
   30.2923   -6.8006  -12.7412 N   0  0  0  0  0  0  0  0  0  0  0  0
  1  2  2  0  0  0  0
  1  7  1  0  0  0  0
  2  3  1  0  0  0  0
  2  4  1  0  0  0  0
  4  5  2  0  0  0  0
  5  6  1  0  0  0  0
  5 11  1  0  0  0  0
  6  7  2  0  0  0  0
  6  9  1  0  0  0  0
  7  8  1  0  0  0  0
  9 10  1  0  0  0  0
 10 11  2  0  0  0  0
M  END
>  <CHROM.1>
29.17274171,-8.11113278,-14.74389424,-2.06758430,0.92537247,1.66349307

>  <Name>
ligand

>  <RI>
0

>  <Rbt.Current_Directory>
/home/itssahil/PROJECTS/Mol_Feturizer/New_Systems/rnas/3RKF

>  <Rbt.Executable>
rbdock ($Id: //depot/dev/client3/rdock/2013.1/src/exe/rbdock.cxx#4 $)

>  <Rbt.Library>
libRbt.so (2013.1, Build901 2013/11/27)

>  <Rbt.Parameter_File>
/export/apps/rDock/src/rDock_2013.1_src/data/scripts/dock_solv.prm

>  <Rbt.Receptor>
prm/blind_docking_100.prm

>  <SCORE>
-7.92279

>  <SCORE.INTER>
-7.92279

>  <SCORE.INTER.CONST>
1

>  <SCORE.INTER.POLAR>
0

>  <SCORE.INTER.ROT>
0

>  <SCORE.INTER.SOLV>
4.78798

>  <SCORE.INTER.VDW>
-10.4779

>  <SCORE.INTER.norm>
-0.720253

>  <SCORE.INTRA>
0

>  <SCORE.INTRA.DIHEDRAL>
0

>  <SCORE.INTRA.DIHEDRAL.0>
0

>  <SCORE.INTRA.POLAR>
0

>  <SCORE.INTRA.POLAR.0>
0

>  <SCORE.INTRA.REPUL>
0

>  <SCORE.INTRA.REPUL.0>
0

>  <SCORE.INTRA.SOLV>
0

>  <SCORE.INTRA.SOLV.lig_0>
-28.6198

>  <SCORE.INTRA.VDW>
0

>  <SCORE.INTRA.VDW.0>
0

>  <SCORE.INTRA.norm>
0

>  <SCORE.RESTR>
0

>  <SCORE.RESTR.CAVITY>
0

>  <SCORE.RESTR.norm>
0

>  <SCORE.SYSTEM>
0

>  <SCORE.SYSTEM.CONST>
0

>  <SCORE.SYSTEM.DIHEDRAL>
0

>  <SCORE.SYSTEM.SOLV>
0

>  <SCORE.SYSTEM.norm>
0

>  <SCORE.heavy>
11

>  <SCORE.norm>
-0.720253

>  <RMSD>
24.096

$$$$
ligand
 OpenBabel11021811483D
libRbt.so/2013.1/901 2013/11/27
 11 12  0  0  0  0  0  0  0  0999 V2000
   29.1475   -8.3429  -16.2932 N   0  0  0  0  0  0  0  0  0  0  0  0
   29.9981   -7.3057  -16.3034 C   0  0  0  0  0  0  0  0  0  0  0  0
   30.4542   -6.7928  -17.5561 N   0  0  0  0  0  0  0  0  0  0  0  0
   30.4254   -6.7448  -15.1673 N   0  0  0  0  0  0  0  0  0  0  0  0
   29.9973   -7.2262  -13.9454 C   0  0  0  0  0  0  0  0  0  0  0  0
   29.1298   -8.2867  -13.9170 C   0  0  0  0  0  0  0  0  0  0  0  0
   28.6814   -8.8741  -15.1449 C   0  0  0  0  0  0  0  0  0  0  0  0
   27.5552  -10.2395  -15.1581 S   0  0  0  0  0  0  0  0  0  0  0  0
   28.8635   -8.5694  -12.6016 N   0  0  0  0  0  0  0  0  0  0  0  0
   29.5592   -7.6943  -11.8295 C   0  0  0  0  0  0  0  0  0  0  0  0
   30.2655   -6.8563  -12.6395 N   0  0  0  0  0  0  0  0  0  0  0  0
  1  2  2  0  0  0  0
  1  7  1  0  0  0  0
  2  3  1  0  0  0  0
  2  4  1  0  0  0  0
  4  5  2  0  0  0  0
  5  6  1  0  0  0  0
  5 11  1  0  0  0  0
  6  7  2  0  0  0  0
  6  9  1  0  0  0  0
  7  8  1  0  0  0  0
  9 10  1  0  0  0  0
 10 11  2  0  0  0  0
M  END
>  <CHROM.1>
29.23812940,-8.17749978,-14.68415753,-1.94483327,0.88291225,1.53796312

>  <Name>
ligand

>  <RI>
0

>  <Rbt.Current_Directory>
/home/itssahil/PROJECTS/Mol_Feturizer/New_Systems/rnas/3RKF

>  <Rbt.Executable>
rbdock ($Id: //depot/dev/client3/rdock/2013.1/src/exe/rbdock.cxx#4 $)

>  <Rbt.Library>
libRbt.so (2013.1, Build901 2013/11/27)

>  <Rbt.Parameter_File>
/export/apps/rDock/src/rDock_2013.1_src/data/scripts/dock_solv.prm

>  <Rbt.Receptor>
prm/blind_docking_100.prm

>  <SCORE>
-7.97415

>  <SCORE.INTER>
-7.97415

>  <SCORE.INTER.CONST>
1

>  <SCORE.INTER.POLAR>
0

>  <SCORE.INTER.ROT>
0

>  <SCORE.INTER.SOLV>
6.09255

>  <SCORE.INTER.VDW>
-10.9469

>  <SCORE.INTER.norm>
-0.724923

>  <SCORE.INTRA>
0

>  <SCORE.INTRA.DIHEDRAL>
0

>  <SCORE.INTRA.DIHEDRAL.0>
0

>  <SCORE.INTRA.POLAR>
0

>  <SCORE.INTRA.POLAR.0>
0

>  <SCORE.INTRA.REPUL>
0

>  <SCORE.INTRA.REPUL.0>
0

>  <SCORE.INTRA.SOLV>
0

>  <SCORE.INTRA.SOLV.lig_0>
-28.6198

>  <SCORE.INTRA.VDW>
0

>  <SCORE.INTRA.VDW.0>
0

>  <SCORE.INTRA.norm>
0

>  <SCORE.RESTR>
0

>  <SCORE.RESTR.CAVITY>
0

>  <SCORE.RESTR.norm>
0

>  <SCORE.SYSTEM>
0

>  <SCORE.SYSTEM.CONST>
0

>  <SCORE.SYSTEM.DIHEDRAL>
0

>  <SCORE.SYSTEM.SOLV>
0

>  <SCORE.SYSTEM.norm>
0

>  <SCORE.heavy>
11

>  <SCORE.norm>
-0.724923

>  <RMSD>
24.129

$$$$
ligand
 OpenBabel11021811483D
libRbt.so/2013.1/901 2013/11/27
 11 12  0  0  0  0  0  0  0  0999 V2000
   29.2181   -8.3183  -16.2458 N   0  0  0  0  0  0  0  0  0  0  0  0
   30.0653   -7.2784  -16.2302 C   0  0  0  0  0  0  0  0  0  0  0  0
   30.5565   -6.7630  -17.4685 N   0  0  0  0  0  0  0  0  0  0  0  0
   30.4573   -6.7172  -15.0816 N   0  0  0  0  0  0  0  0  0  0  0  0
   29.9950   -7.2009  -13.8732 C   0  0  0  0  0  0  0  0  0  0  0  0
   29.1303   -8.2641  -13.8711 C   0  0  0  0  0  0  0  0  0  0  0  0
   28.7200   -8.8518  -15.1121 C   0  0  0  0  0  0  0  0  0  0  0  0
   27.5990  -10.2208  -15.1595 S   0  0  0  0  0  0  0  0  0  0  0  0
   28.8263   -8.5487  -12.5644 N   0  0  0  0  0  0  0  0  0  0  0  0
   29.4962   -7.6722  -11.7714 C   0  0  0  0  0  0  0  0  0  0  0  0
   30.2234   -6.8313  -12.5597 N   0  0  0  0  0  0  0  0  0  0  0  0
  1  2  2  0  0  0  0
  1  7  1  0  0  0  0
  2  3  1  0  0  0  0
  2  4  1  0  0  0  0
  4  5  2  0  0  0  0
  5  6  1  0  0  0  0
  5 11  1  0  0  0  0
  6  7  2  0  0  0  0
  6  9  1  0  0  0  0
  7  8  1  0  0  0  0
  9 10  1  0  0  0  0
 10 11  2  0  0  0  0
M  END
>  <CHROM.1>
29.26082349,-8.15394183,-14.63468667,-1.89823939,0.88453795,1.50274522

>  <Name>
ligand

>  <RI>
0

>  <Rbt.Current_Directory>
/home/itssahil/PROJECTS/Mol_Feturizer/New_Systems/rnas/3RKF

>  <Rbt.Executable>
rbdock ($Id: //depot/dev/client3/rdock/2013.1/src/exe/rbdock.cxx#4 $)

>  <Rbt.Library>
libRbt.so (2013.1, Build901 2013/11/27)

>  <Rbt.Parameter_File>
/export/apps/rDock/src/rDock_2013.1_src/data/scripts/dock_solv.prm

>  <Rbt.Receptor>
prm/blind_docking_40.prm

>  <SCORE>
-7.94431

>  <SCORE.INTER>
-7.94431

>  <SCORE.INTER.CONST>
1

>  <SCORE.INTER.POLAR>
0

>  <SCORE.INTER.ROT>
0

>  <SCORE.INTER.SOLV>
6.10725

>  <SCORE.INTER.VDW>
-10.932

>  <SCORE.INTER.norm>
-0.72221

>  <SCORE.INTRA>
0

>  <SCORE.INTRA.DIHEDRAL>
0

>  <SCORE.INTRA.DIHEDRAL.0>
0

>  <SCORE.INTRA.POLAR>
0

>  <SCORE.INTRA.POLAR.0>
0

>  <SCORE.INTRA.REPUL>
0

>  <SCORE.INTRA.REPUL.0>
0

>  <SCORE.INTRA.SOLV>
0

>  <SCORE.INTRA.SOLV.lig_0>
-28.6198

>  <SCORE.INTRA.VDW>
0

>  <SCORE.INTRA.VDW.0>
0

>  <SCORE.INTRA.norm>
0

>  <SCORE.RESTR>
0

>  <SCORE.RESTR.CAVITY>
0

>  <SCORE.RESTR.norm>
0

>  <SCORE.SYSTEM>
0

>  <SCORE.SYSTEM.CONST>
0

>  <SCORE.SYSTEM.DIHEDRAL>
0

>  <SCORE.SYSTEM.SOLV>
0

>  <SCORE.SYSTEM.norm>
0

>  <SCORE.heavy>
11

>  <SCORE.norm>
-0.72221

>  <RMSD>
24.176

$$$$
ligand
 OpenBabel11021811483D
libRbt.so/2013.1/901 2013/11/27
 11 12  0  0  0  0  0  0  0  0999 V2000
   29.9018   -7.6567  -15.6318 N   0  0  0  0  0  0  0  0  0  0  0  0
   30.1468   -6.3378  -15.6241 C   0  0  0  0  0  0  0  0  0  0  0  0
   30.3986   -5.6702  -16.8615 N   0  0  0  0  0  0  0  0  0  0  0  0
   30.1595   -5.6388  -14.4842 N   0  0  0  0  0  0  0  0  0  0  0  0
   29.9195   -6.2654  -13.2769 C   0  0  0  0  0  0  0  0  0  0  0  0
   29.6695   -7.6128  -13.2666 C   0  0  0  0  0  0  0  0  0  0  0  0
   29.6584   -8.3452  -14.4984 C   0  0  0  0  0  0  0  0  0  0  0  0
   29.3325  -10.0846  -14.5354 S   0  0  0  0  0  0  0  0  0  0  0  0
   29.4677   -7.9871  -11.9627 N   0  0  0  0  0  0  0  0  0  0  0  0
   29.5928   -6.8840  -11.1795 C   0  0  0  0  0  0  0  0  0  0  0  0
   29.8714   -5.8103  -11.9712 N   0  0  0  0  0  0  0  0  0  0  0  0
  1  2  2  0  0  0  0
  1  7  1  0  0  0  0
  2  3  1  0  0  0  0
  2  4  1  0  0  0  0
  4  5  2  0  0  0  0
  5  6  1  0  0  0  0
  5 11  1  0  0  0  0
  6  7  2  0  0  0  0
  6  9  1  0  0  0  0
  7  8  1  0  0  0  0
  9 10  1  0  0  0  0
 10 11  2  0  0  0  0
M  END
>  <CHROM.1>
29.77289556,-7.46589767,-14.02816374,-1.46812424,1.36078203,1.07286621

>  <Name>
ligand

>  <RI>
0

>  <Rbt.Current_Directory>
/home/itssahil/PROJECTS/Mol_Feturizer/New_Systems/rnas/3RKF

>  <Rbt.Executable>
rbdock ($Id: //depot/dev/client3/rdock/2013.1/src/exe/rbdock.cxx#4 $)

>  <Rbt.Library>
libRbt.so (2013.1, Build901 2013/11/27)

>  <Rbt.Parameter_File>
/export/apps/rDock/src/rDock_2013.1_src/data/scripts/dock_solv.prm

>  <Rbt.Receptor>
prm/blind_docking_40.prm

>  <SCORE>
-8.18237

>  <SCORE.INTER>
-8.18237

>  <SCORE.INTER.CONST>
1

>  <SCORE.INTER.POLAR>
0

>  <SCORE.INTER.ROT>
0

>  <SCORE.INTER.SOLV>
3.79234

>  <SCORE.INTER.VDW>
-10.319

>  <SCORE.INTER.norm>
-0.743852

>  <SCORE.INTRA>
0

>  <SCORE.INTRA.DIHEDRAL>
0

>  <SCORE.INTRA.DIHEDRAL.0>
0

>  <SCORE.INTRA.POLAR>
0

>  <SCORE.INTRA.POLAR.0>
0

>  <SCORE.INTRA.REPUL>
0

>  <SCORE.INTRA.REPUL.0>
0

>  <SCORE.INTRA.SOLV>
0

>  <SCORE.INTRA.SOLV.lig_0>
-28.6198

>  <SCORE.INTRA.VDW>
0

>  <SCORE.INTRA.VDW.0>
0

>  <SCORE.INTRA.norm>
0

>  <SCORE.RESTR>
0

>  <SCORE.RESTR.CAVITY>
0

>  <SCORE.RESTR.norm>
0

>  <SCORE.SYSTEM>
0

>  <SCORE.SYSTEM.CONST>
0

>  <SCORE.SYSTEM.DIHEDRAL>
0

>  <SCORE.SYSTEM.SOLV>
0

>  <SCORE.SYSTEM.norm>
0

>  <SCORE.heavy>
11

>  <SCORE.norm>
-0.743852

>  <RMSD>
24.751

$$$$
ligand
 OpenBabel11021811483D
libRbt.so/2013.1/901 2013/11/27
 11 12  0  0  0  0  0  0  0  0999 V2000
   29.8074   -6.8058  -13.4833 N   0  0  0  0  0  0  0  0  0  0  0  0
   28.9868   -7.1448  -12.4778 C   0  0  0  0  0  0  0  0  0  0  0  0
   29.1441   -6.5100  -11.2079 N   0  0  0  0  0  0  0  0  0  0  0  0
   28.0278   -8.0622  -12.6411 N   0  0  0  0  0  0  0  0  0  0  0  0
   27.8594   -8.6886  -13.8606 C   0  0  0  0  0  0  0  0  0  0  0  0
   28.6906   -8.3554  -14.8981 C   0  0  0  0  0  0  0  0  0  0  0  0
   29.7119   -7.3688  -14.7048 C   0  0  0  0  0  0  0  0  0  0  0  0
   30.8034   -6.9004  -16.0171 S   0  0  0  0  0  0  0  0  0  0  0  0
   28.3222   -9.1092  -15.9829 N   0  0  0  0  0  0  0  0  0  0  0  0
   27.2776   -9.8975  -15.6179 C   0  0  0  0  0  0  0  0  0  0  0  0
   26.9760   -9.6531  -14.3115 N   0  0  0  0  0  0  0  0  0  0  0  0
  1  2  2  0  0  0  0
  1  7  1  0  0  0  0
  2  3  1  0  0  0  0
  2  4  1  0  0  0  0
  4  5  2  0  0  0  0
  5  6  1  0  0  0  0
  5 11  1  0  0  0  0
  6  7  2  0  0  0  0
  6  9  1  0  0  0  0
  7  8  1  0  0  0  0
  9 10  1  0  0  0  0
 10 11  2  0  0  0  0
M  END
>  <CHROM.1>
28.94966971,-7.89629458,-14.31982914,0.52727610,0.69405213,1.19885164

>  <Name>
ligand

>  <RI>
0

>  <Rbt.Current_Directory>
/home/itssahil/PROJECTS/Mol_Feturizer/New_Systems/rnas/3RKF

>  <Rbt.Executable>
rbdock ($Id: //depot/dev/client3/rdock/2013.1/src/exe/rbdock.cxx#4 $)

>  <Rbt.Library>
libRbt.so (2013.1, Build901 2013/11/27)

>  <Rbt.Parameter_File>
/export/apps/rDock/src/rDock_2013.1_src/data/scripts/dock_solv.prm

>  <Rbt.Receptor>
prm/blind_docking_60.prm

>  <SCORE>
-5.41225

>  <SCORE.INTER>
-5.41225

>  <SCORE.INTER.CONST>
1

>  <SCORE.INTER.POLAR>
0

>  <SCORE.INTER.ROT>
0

>  <SCORE.INTER.SOLV>
3.6769

>  <SCORE.INTER.VDW>
-8.4338

>  <SCORE.INTER.norm>
-0.492023

>  <SCORE.INTRA>
0

>  <SCORE.INTRA.DIHEDRAL>
0

>  <SCORE.INTRA.DIHEDRAL.0>
0

>  <SCORE.INTRA.POLAR>
0

>  <SCORE.INTRA.POLAR.0>
0

>  <SCORE.INTRA.REPUL>
0

>  <SCORE.INTRA.REPUL.0>
0

>  <SCORE.INTRA.SOLV>
0

>  <SCORE.INTRA.SOLV.lig_0>
-28.6198

>  <SCORE.INTRA.VDW>
0

>  <SCORE.INTRA.VDW.0>
0

>  <SCORE.INTRA.norm>
0

>  <SCORE.RESTR>
0

>  <SCORE.RESTR.CAVITY>
0

>  <SCORE.RESTR.norm>
0

>  <SCORE.SYSTEM>
0

>  <SCORE.SYSTEM.CONST>
0

>  <SCORE.SYSTEM.DIHEDRAL>
0

>  <SCORE.SYSTEM.SOLV>
0

>  <SCORE.SYSTEM.norm>
0

>  <SCORE.heavy>
11

>  <SCORE.norm>
-0.492023

>  <RMSD>
24.777

$$$$
ligand
 OpenBabel11021811483D
libRbt.so/2013.1/901 2013/11/27
 11 12  0  0  0  0  0  0  0  0999 V2000
   29.8276   -5.3706  -14.5578 N   0  0  0  0  0  0  0  0  0  0  0  0
   29.7288   -6.3448  -15.4746 C   0  0  0  0  0  0  0  0  0  0  0  0
   29.6475   -5.9933  -16.8567 N   0  0  0  0  0  0  0  0  0  0  0  0
   29.7053   -7.6341  -15.1205 N   0  0  0  0  0  0  0  0  0  0  0  0
   29.7818   -7.9954  -13.7895 C   0  0  0  0  0  0  0  0  0  0  0  0
   29.8810   -7.0124  -12.8397 C   0  0  0  0  0  0  0  0  0  0  0  0
   29.9063   -5.6360  -13.2382 C   0  0  0  0  0  0  0  0  0  0  0  0
   30.0414   -4.3327  -12.0482 S   0  0  0  0  0  0  0  0  0  0  0  0
   29.9398   -7.6248  -11.6140 N   0  0  0  0  0  0  0  0  0  0  0  0
   29.8766   -8.9683  -11.8064 C   0  0  0  0  0  0  0  0  0  0  0  0
   29.7790   -9.2183  -13.1426 N   0  0  0  0  0  0  0  0  0  0  0  0
  1  2  2  0  0  0  0
  1  7  1  0  0  0  0
  2  3  1  0  0  0  0
  2  4  1  0  0  0  0
  4  5  2  0  0  0  0
  5  6  1  0  0  0  0
  5 11  1  0  0  0  0
  6  7  2  0  0  0  0
  6  9  1  0  0  0  0
  7  8  1  0  0  0  0
  9 10  1  0  0  0  0
 10 11  2  0  0  0  0
M  END
>  <CHROM.1>
29.85311118,-6.60206153,-13.50537845,1.47844995,-1.49274356,-0.51540335

>  <Name>
ligand

>  <RI>
0

>  <Rbt.Current_Directory>
/home/itssahil/PROJECTS/Mol_Feturizer/New_Systems/rnas/3RKF

>  <Rbt.Executable>
rbdock ($Id: //depot/dev/client3/rdock/2013.1/src/exe/rbdock.cxx#4 $)

>  <Rbt.Library>
libRbt.so (2013.1, Build901 2013/11/27)

>  <Rbt.Parameter_File>
/export/apps/rDock/src/rDock_2013.1_src/data/scripts/dock_solv.prm

>  <Rbt.Receptor>
prm/blind_docking_80.prm

>  <SCORE>
-7.85323

>  <SCORE.INTER>
-7.85323

>  <SCORE.INTER.CONST>
1

>  <SCORE.INTER.POLAR>
0

>  <SCORE.INTER.ROT>
0

>  <SCORE.INTER.SOLV>
1.77615

>  <SCORE.INTER.VDW>
-9.42754

>  <SCORE.INTER.norm>
-0.71393

>  <SCORE.INTRA>
0

>  <SCORE.INTRA.DIHEDRAL>
0

>  <SCORE.INTRA.DIHEDRAL.0>
0

>  <SCORE.INTRA.POLAR>
0

>  <SCORE.INTRA.POLAR.0>
0

>  <SCORE.INTRA.REPUL>
0

>  <SCORE.INTRA.REPUL.0>
0

>  <SCORE.INTRA.SOLV>
0

>  <SCORE.INTRA.SOLV.lig_0>
-28.6198

>  <SCORE.INTRA.VDW>
0

>  <SCORE.INTRA.VDW.0>
0

>  <SCORE.INTRA.norm>
0

>  <SCORE.RESTR>
0

>  <SCORE.RESTR.CAVITY>
0

>  <SCORE.RESTR.norm>
0

>  <SCORE.SYSTEM>
0

>  <SCORE.SYSTEM.CONST>
0

>  <SCORE.SYSTEM.DIHEDRAL>
0

>  <SCORE.SYSTEM.SOLV>
0

>  <SCORE.SYSTEM.norm>
0

>  <SCORE.heavy>
11

>  <SCORE.norm>
-0.71393

>  <RMSD>
24.976

$$$$
ligand
 OpenBabel11021811483D
libRbt.so/2013.1/901 2013/11/27
 11 12  0  0  0  0  0  0  0  0999 V2000
   29.7861   -5.4007  -14.5216 N   0  0  0  0  0  0  0  0  0  0  0  0
   29.6847   -6.3693  -15.4441 C   0  0  0  0  0  0  0  0  0  0  0  0
   29.5910   -6.0091  -16.8231 N   0  0  0  0  0  0  0  0  0  0  0  0
   29.6700   -7.6609  -15.0984 N   0  0  0  0  0  0  0  0  0  0  0  0
   29.7585   -8.0307  -13.7705 C   0  0  0  0  0  0  0  0  0  0  0  0
   29.8605   -7.0535  -12.8150 C   0  0  0  0  0  0  0  0  0  0  0  0
   29.8763   -5.6744  -13.2045 C   0  0  0  0  0  0  0  0  0  0  0  0
   30.0146   -4.3784  -12.0070 S   0  0  0  0  0  0  0  0  0  0  0  0
   29.9317   -7.6737  -11.5938 N   0  0  0  0  0  0  0  0  0  0  0  0
   29.8733   -9.0161  -11.7947 C   0  0  0  0  0  0  0  0  0  0  0  0
   29.7665   -9.2578  -13.1317 N   0  0  0  0  0  0  0  0  0  0  0  0
  1  2  2  0  0  0  0
  1  7  1  0  0  0  0
  2  3  1  0  0  0  0
  2  4  1  0  0  0  0
  4  5  2  0  0  0  0
  5  6  1  0  0  0  0
  5 11  1  0  0  0  0
  6  7  2  0  0  0  0
  6  9  1  0  0  0  0
  7  8  1  0  0  0  0
  9 10  1  0  0  0  0
 10 11  2  0  0  0  0
M  END
>  <CHROM.1>
29.82554561,-6.63891314,-13.47765735,1.57398436,-1.48787253,-0.41356436

>  <Name>
ligand

>  <RI>
0

>  <Rbt.Current_Directory>
/home/itssahil/PROJECTS/Mol_Feturizer/New_Systems/rnas/3RKF

>  <Rbt.Executable>
rbdock ($Id: //depot/dev/client3/rdock/2013.1/src/exe/rbdock.cxx#4 $)

>  <Rbt.Library>
libRbt.so (2013.1, Build901 2013/11/27)

>  <Rbt.Parameter_File>
/export/apps/rDock/src/rDock_2013.1_src/data/scripts/dock_solv.prm

>  <Rbt.Receptor>
prm/blind_docking_40.prm

>  <SCORE>
-7.75396

>  <SCORE.INTER>
-7.75416

>  <SCORE.INTER.CONST>
1

>  <SCORE.INTER.POLAR>
0

>  <SCORE.INTER.ROT>
0

>  <SCORE.INTER.SOLV>
1.76581

>  <SCORE.INTER.VDW>
-9.35804

>  <SCORE.INTER.norm>
-0.704923

>  <SCORE.INTRA>
0

>  <SCORE.INTRA.DIHEDRAL>
0

>  <SCORE.INTRA.DIHEDRAL.0>
0

>  <SCORE.INTRA.POLAR>
0

>  <SCORE.INTRA.POLAR.0>
0

>  <SCORE.INTRA.REPUL>
0

>  <SCORE.INTRA.REPUL.0>
0

>  <SCORE.INTRA.SOLV>
0

>  <SCORE.INTRA.SOLV.lig_0>
-28.6198

>  <SCORE.INTRA.VDW>
0

>  <SCORE.INTRA.VDW.0>
0

>  <SCORE.INTRA.norm>
0

>  <SCORE.RESTR>
0.000194384

>  <SCORE.RESTR.CAVITY>
0.000194384

>  <SCORE.RESTR.norm>
1.76713e-05

>  <SCORE.SYSTEM>
0

>  <SCORE.SYSTEM.CONST>
0

>  <SCORE.SYSTEM.DIHEDRAL>
0

>  <SCORE.SYSTEM.SOLV>
0

>  <SCORE.SYSTEM.norm>
0

>  <SCORE.heavy>
11

>  <SCORE.norm>
-0.704906

>  <RMSD>
25.004

$$$$
ligand
 OpenBabel11021811483D
libRbt.so/2013.1/901 2013/11/27
 11 12  0  0  0  0  0  0  0  0999 V2000
   29.8294   -5.3924  -14.5097 N   0  0  0  0  0  0  0  0  0  0  0  0
   29.7374   -6.3578  -15.4364 C   0  0  0  0  0  0  0  0  0  0  0  0
   29.6688   -5.9933  -16.8158 N   0  0  0  0  0  0  0  0  0  0  0  0
   29.7088   -7.6503  -15.0947 N   0  0  0  0  0  0  0  0  0  0  0  0
   29.7731   -8.0242  -13.7665 C   0  0  0  0  0  0  0  0  0  0  0  0
   29.8653   -7.0503  -12.8067 C   0  0  0  0  0  0  0  0  0  0  0  0
   29.8961   -5.6703  -13.1920 C   0  0  0  0  0  0  0  0  0  0  0  0
   30.0226   -4.3784  -11.9887 S   0  0  0  0  0  0  0  0  0  0  0  0
   29.9124   -7.6742  -11.5863 N   0  0  0  0  0  0  0  0  0  0  0  0
   29.8489   -9.0157  -11.7919 C   0  0  0  0  0  0  0  0  0  0  0  0
   29.7628   -9.2531  -13.1311 N   0  0  0  0  0  0  0  0  0  0  0  0
  1  2  2  0  0  0  0
  1  7  1  0  0  0  0
  2  3  1  0  0  0  0
  2  4  1  0  0  0  0
  4  5  2  0  0  0  0
  5  6  1  0  0  0  0
  5 11  1  0  0  0  0
  6  7  2  0  0  0  0
  6  9  1  0  0  0  0
  7  8  1  0  0  0  0
  9 10  1  0  0  0  0
 10 11  2  0  0  0  0
M  END
>  <CHROM.1>
29.84388737,-6.63367501,-13.46870925,1.39950523,-1.49948200,-0.58476593

>  <Name>
ligand

>  <RI>
0

>  <Rbt.Current_Directory>
/home/itssahil/PROJECTS/Mol_Feturizer/New_Systems/rnas/3RKF

>  <Rbt.Executable>
rbdock ($Id: //depot/dev/client3/rdock/2013.1/src/exe/rbdock.cxx#4 $)

>  <Rbt.Library>
libRbt.so (2013.1, Build901 2013/11/27)

>  <Rbt.Parameter_File>
/export/apps/rDock/src/rDock_2013.1_src/data/scripts/dock_solv.prm

>  <Rbt.Receptor>
prm/blind_docking_40.prm

>  <SCORE>
-7.82401

>  <SCORE.INTER>
-7.82431

>  <SCORE.INTER.CONST>
1

>  <SCORE.INTER.POLAR>
0

>  <SCORE.INTER.ROT>
0

>  <SCORE.INTER.SOLV>
1.79846

>  <SCORE.INTER.VDW>
-9.4157

>  <SCORE.INTER.norm>
-0.711301

>  <SCORE.INTRA>
0

>  <SCORE.INTRA.DIHEDRAL>
0

>  <SCORE.INTRA.DIHEDRAL.0>
0

>  <SCORE.INTRA.POLAR>
0

>  <SCORE.INTRA.POLAR.0>
0

>  <SCORE.INTRA.REPUL>
0

>  <SCORE.INTRA.REPUL.0>
0

>  <SCORE.INTRA.SOLV>
0

>  <SCORE.INTRA.SOLV.lig_0>
-28.6198

>  <SCORE.INTRA.VDW>
0

>  <SCORE.INTRA.VDW.0>
0

>  <SCORE.INTRA.norm>
0

>  <SCORE.RESTR>
0.000302513

>  <SCORE.RESTR.CAVITY>
0.000302513

>  <SCORE.RESTR.norm>
2.75012e-05

>  <SCORE.SYSTEM>
0

>  <SCORE.SYSTEM.CONST>
0

>  <SCORE.SYSTEM.DIHEDRAL>
0

>  <SCORE.SYSTEM.SOLV>
0

>  <SCORE.SYSTEM.norm>
0

>  <SCORE.heavy>
11

>  <SCORE.norm>
-0.711274

>  <RMSD>
25.005

$$$$
ligand
 OpenBabel11021811483D
libRbt.so/2013.1/901 2013/11/27
 11 12  0  0  0  0  0  0  0  0999 V2000
   30.0118   -5.5056  -14.6773 N   0  0  0  0  0  0  0  0  0  0  0  0
   29.7495   -4.8171  -13.5564 C   0  0  0  0  0  0  0  0  0  0  0  0
   29.6550   -3.3933  -13.6210 N   0  0  0  0  0  0  0  0  0  0  0  0
   29.5754   -5.4360  -12.3839 N   0  0  0  0  0  0  0  0  0  0  0  0
   29.6636   -6.8119  -12.2995 C   0  0  0  0  0  0  0  0  0  0  0  0
   29.9330   -7.5305  -13.4350 C   0  0  0  0  0  0  0  0  0  0  0  0
   30.1152   -6.8499  -14.6829 C   0  0  0  0  0  0  0  0  0  0  0  0
   30.4567   -7.7361  -16.1766 S   0  0  0  0  0  0  0  0  0  0  0  0
   29.9693   -8.8567  -13.0874 N   0  0  0  0  0  0  0  0  0  0  0  0
   29.7262   -8.9536  -11.7542 C   0  0  0  0  0  0  0  0  0  0  0  0
   29.5345   -7.7026  -11.2488 N   0  0  0  0  0  0  0  0  0  0  0  0
  1  2  2  0  0  0  0
  1  7  1  0  0  0  0
  2  3  1  0  0  0  0
  2  4  1  0  0  0  0
  4  5  2  0  0  0  0
  5  6  1  0  0  0  0
  5 11  1  0  0  0  0
  6  7  2  0  0  0  0
  6  9  1  0  0  0  0
  7  8  1  0  0  0  0
  9 10  1  0  0  0  0
 10 11  2  0  0  0  0
M  END
>  <CHROM.1>
29.92509822,-6.79398396,-13.69898370,1.01571742,1.37224018,-0.38433926

>  <Name>
ligand

>  <RI>
0

>  <Rbt.Current_Directory>
/home/itssahil/PROJECTS/Mol_Feturizer/New_Systems/rnas/3RKF

>  <Rbt.Executable>
rbdock ($Id: //depot/dev/client3/rdock/2013.1/src/exe/rbdock.cxx#4 $)

>  <Rbt.Library>
libRbt.so (2013.1, Build901 2013/11/27)

>  <Rbt.Parameter_File>
/export/apps/rDock/src/rDock_2013.1_src/data/scripts/dock_solv.prm

>  <Rbt.Receptor>
prm/blind_docking_40.prm

>  <SCORE>
-7.4324

>  <SCORE.INTER>
-7.4324

>  <SCORE.INTER.CONST>
1

>  <SCORE.INTER.POLAR>
0

>  <SCORE.INTER.ROT>
0

>  <SCORE.INTER.SOLV>
5.27433

>  <SCORE.INTER.VDW>
-10.313

>  <SCORE.INTER.norm>
-0.675673

>  <SCORE.INTRA>
0

>  <SCORE.INTRA.DIHEDRAL>
0

>  <SCORE.INTRA.DIHEDRAL.0>
0

>  <SCORE.INTRA.POLAR>
0

>  <SCORE.INTRA.POLAR.0>
0

>  <SCORE.INTRA.REPUL>
0

>  <SCORE.INTRA.REPUL.0>
0

>  <SCORE.INTRA.SOLV>
0

>  <SCORE.INTRA.SOLV.lig_0>
-28.6198

>  <SCORE.INTRA.VDW>
0

>  <SCORE.INTRA.VDW.0>
0

>  <SCORE.INTRA.norm>
0

>  <SCORE.RESTR>
0

>  <SCORE.RESTR.CAVITY>
0

>  <SCORE.RESTR.norm>
0

>  <SCORE.SYSTEM>
0

>  <SCORE.SYSTEM.CONST>
0

>  <SCORE.SYSTEM.DIHEDRAL>
0

>  <SCORE.SYSTEM.SOLV>
0

>  <SCORE.SYSTEM.norm>
0

>  <SCORE.heavy>
11

>  <SCORE.norm>
-0.675673

>  <RMSD>
25.251

$$$$
ligand
 OpenBabel11021811483D
libRbt.so/2013.1/901 2013/11/27
 11 12  0  0  0  0  0  0  0  0999 V2000
   28.2242   -1.0287  -15.1534 N   0  0  0  0  0  0  0  0  0  0  0  0
   28.6883   -1.2327  -16.3953 C   0  0  0  0  0  0  0  0  0  0  0  0
   29.7299   -2.1886  -16.6000 N   0  0  0  0  0  0  0  0  0  0  0  0
   28.1962   -0.5609  -17.4414 N   0  0  0  0  0  0  0  0  0  0  0  0
   27.1896    0.3684  -17.2651 C   0  0  0  0  0  0  0  0  0  0  0  0
   26.7053    0.5906  -16.0024 C   0  0  0  0  0  0  0  0  0  0  0  0
   27.2441   -0.1400  -14.8935 C   0  0  0  0  0  0  0  0  0  0  0  0
   26.6450    0.1072  -13.2464 S   0  0  0  0  0  0  0  0  0  0  0  0
   25.7267    1.5469  -16.0960 N   0  0  0  0  0  0  0  0  0  0  0  0
   25.6104    1.9098  -17.4001 C   0  0  0  0  0  0  0  0  0  0  0  0
   26.5044    1.1938  -18.1387 N   0  0  0  0  0  0  0  0  0  0  0  0
  1  2  2  0  0  0  0
  1  7  1  0  0  0  0
  2  3  1  0  0  0  0
  2  4  1  0  0  0  0
  4  5  2  0  0  0  0
  5  6  1  0  0  0  0
  5 11  1  0  0  0  0
  6  7  2  0  0  0  0
  6  9  1  0  0  0  0
  7  8  1  0  0  0  0
  9 10  1  0  0  0  0
 10 11  2  0  0  0  0
M  END
>  <CHROM.1>
27.25056205,0.04280518,-15.88035555,-0.88744106,0.75417480,-1.37848074

>  <Name>
ligand

>  <RI>
0

>  <Rbt.Current_Directory>
/home/itssahil/PROJECTS/Mol_Feturizer/New_Systems/rnas/3RKF

>  <Rbt.Executable>
rbdock ($Id: //depot/dev/client3/rdock/2013.1/src/exe/rbdock.cxx#4 $)

>  <Rbt.Library>
libRbt.so (2013.1, Build901 2013/11/27)

>  <Rbt.Parameter_File>
/export/apps/rDock/src/rDock_2013.1_src/data/scripts/dock_solv.prm

>  <Rbt.Receptor>
prm/blind_docking_100.prm

>  <SCORE>
-11.0629

>  <SCORE.INTER>
-11.0629

>  <SCORE.INTER.CONST>
1

>  <SCORE.INTER.POLAR>
0

>  <SCORE.INTER.ROT>
0

>  <SCORE.INTER.SOLV>
7.8089

>  <SCORE.INTER.VDW>
-13.5783

>  <SCORE.INTER.norm>
-1.00572

>  <SCORE.INTRA>
0

>  <SCORE.INTRA.DIHEDRAL>
0

>  <SCORE.INTRA.DIHEDRAL.0>
0

>  <SCORE.INTRA.POLAR>
0

>  <SCORE.INTRA.POLAR.0>
0

>  <SCORE.INTRA.REPUL>
0

>  <SCORE.INTRA.REPUL.0>
0

>  <SCORE.INTRA.SOLV>
0

>  <SCORE.INTRA.SOLV.lig_0>
-28.6198

>  <SCORE.INTRA.VDW>
0

>  <SCORE.INTRA.VDW.0>
0

>  <SCORE.INTRA.norm>
0

>  <SCORE.RESTR>
3.29274e-05

>  <SCORE.RESTR.CAVITY>
3.29274e-05

>  <SCORE.RESTR.norm>
2.9934e-06

>  <SCORE.SYSTEM>
0

>  <SCORE.SYSTEM.CONST>
0

>  <SCORE.SYSTEM.DIHEDRAL>
0

>  <SCORE.SYSTEM.SOLV>
0

>  <SCORE.SYSTEM.norm>
0

>  <SCORE.heavy>
11

>  <SCORE.norm>
-1.00572

>  <RMSD>
25.408

$$$$
ligand
 OpenBabel11021811483D
libRbt.so/2013.1/901 2013/11/27
 11 12  0  0  0  0  0  0  0  0999 V2000
   28.2181   -1.0254  -15.1544 N   0  0  0  0  0  0  0  0  0  0  0  0
   28.6807   -1.2336  -16.3961 C   0  0  0  0  0  0  0  0  0  0  0  0
   29.7186   -2.1936  -16.5996 N   0  0  0  0  0  0  0  0  0  0  0  0
   28.1904   -0.5620  -17.4433 N   0  0  0  0  0  0  0  0  0  0  0  0
   27.1873    0.3713  -17.2682 C   0  0  0  0  0  0  0  0  0  0  0  0
   26.7046    0.5978  -16.0057 C   0  0  0  0  0  0  0  0  0  0  0  0
   27.2413   -0.1326  -14.8956 C   0  0  0  0  0  0  0  0  0  0  0  0
   26.6441    0.1200  -13.2487 S   0  0  0  0  0  0  0  0  0  0  0  0
   25.7294    1.5575  -16.1007 N   0  0  0  0  0  0  0  0  0  0  0  0
   25.6136    1.9182  -17.4054 C   0  0  0  0  0  0  0  0  0  0  0  0
   26.5046    1.1976  -18.1431 N   0  0  0  0  0  0  0  0  0  0  0  0
  1  2  2  0  0  0  0
  1  7  1  0  0  0  0
  2  3  1  0  0  0  0
  2  4  1  0  0  0  0
  4  5  2  0  0  0  0
  5  6  1  0  0  0  0
  5 11  1  0  0  0  0
  6  7  2  0  0  0  0
  6  9  1  0  0  0  0
  7  8  1  0  0  0  0
  9 10  1  0  0  0  0
 10 11  2  0  0  0  0
M  END
>  <CHROM.1>
27.24789206,0.04823744,-15.88290898,-0.88763149,0.75786572,-1.38031310

>  <Name>
ligand

>  <RI>
0

>  <Rbt.Current_Directory>
/home/itssahil/PROJECTS/Mol_Feturizer/New_Systems/rnas/3RKF

>  <Rbt.Executable>
rbdock ($Id: //depot/dev/client3/rdock/2013.1/src/exe/rbdock.cxx#4 $)

>  <Rbt.Library>
libRbt.so (2013.1, Build901 2013/11/27)

>  <Rbt.Parameter_File>
/export/apps/rDock/src/rDock_2013.1_src/data/scripts/dock_solv.prm

>  <Rbt.Receptor>
prm/blind_docking_100.prm

>  <SCORE>
-11.0621

>  <SCORE.INTER>
-11.0621

>  <SCORE.INTER.CONST>
1

>  <SCORE.INTER.POLAR>
0

>  <SCORE.INTER.ROT>
0

>  <SCORE.INTER.SOLV>
7.80796

>  <SCORE.INTER.VDW>
-13.5774

>  <SCORE.INTER.norm>
-1.00565

>  <SCORE.INTRA>
0

>  <SCORE.INTRA.DIHEDRAL>
0

>  <SCORE.INTRA.DIHEDRAL.0>
0

>  <SCORE.INTRA.POLAR>
0

>  <SCORE.INTRA.POLAR.0>
0

>  <SCORE.INTRA.REPUL>
0

>  <SCORE.INTRA.REPUL.0>
0

>  <SCORE.INTRA.SOLV>
0

>  <SCORE.INTRA.SOLV.lig_0>
-28.6198

>  <SCORE.INTRA.VDW>
0

>  <SCORE.INTRA.VDW.0>
0

>  <SCORE.INTRA.norm>
0

>  <SCORE.RESTR>
0

>  <SCORE.RESTR.CAVITY>
0

>  <SCORE.RESTR.norm>
0

>  <SCORE.SYSTEM>
0

>  <SCORE.SYSTEM.CONST>
0

>  <SCORE.SYSTEM.DIHEDRAL>
0

>  <SCORE.SYSTEM.SOLV>
0

>  <SCORE.SYSTEM.norm>
0

>  <SCORE.heavy>
11

>  <SCORE.norm>
-1.00565

>  <RMSD>
25.409

$$$$
ligand
 OpenBabel11021811483D
libRbt.so/2013.1/901 2013/11/27
 11 12  0  0  0  0  0  0  0  0999 V2000
   28.2202   -1.0223  -15.1530 N   0  0  0  0  0  0  0  0  0  0  0  0
   28.6800   -1.2321  -16.3956 C   0  0  0  0  0  0  0  0  0  0  0  0
   29.7189   -2.1909  -16.5999 N   0  0  0  0  0  0  0  0  0  0  0  0
   28.1861   -0.5631  -17.4427 N   0  0  0  0  0  0  0  0  0  0  0  0
   27.1820    0.3691  -17.2668 C   0  0  0  0  0  0  0  0  0  0  0  0
   26.7022    0.5971  -16.0034 C   0  0  0  0  0  0  0  0  0  0  0  0
   27.2428   -0.1306  -14.8934 C   0  0  0  0  0  0  0  0  0  0  0  0
   26.6493    0.1242  -13.2454 S   0  0  0  0  0  0  0  0  0  0  0  0
   25.7253    1.5551  -16.0977 N   0  0  0  0  0  0  0  0  0  0  0  0
   25.6057    1.9134  -17.4027 C   0  0  0  0  0  0  0  0  0  0  0  0
   26.4959    1.1927  -18.1413 N   0  0  0  0  0  0  0  0  0  0  0  0
  1  2  2  0  0  0  0
  1  7  1  0  0  0  0
  2  3  1  0  0  0  0
  2  4  1  0  0  0  0
  4  5  2  0  0  0  0
  5  6  1  0  0  0  0
  5 11  1  0  0  0  0
  6  7  2  0  0  0  0
  6  9  1  0  0  0  0
  7  8  1  0  0  0  0
  9 10  1  0  0  0  0
 10 11  2  0  0  0  0
M  END
>  <CHROM.1>
27.24658946,0.04853467,-15.88101087,-0.88382736,0.75687615,-1.38471591

>  <Name>
ligand

>  <RI>
0

>  <Rbt.Current_Directory>
/home/itssahil/PROJECTS/Mol_Feturizer/New_Systems/rnas/3RKF

>  <Rbt.Executable>
rbdock ($Id: //depot/dev/client3/rdock/2013.1/src/exe/rbdock.cxx#4 $)

>  <Rbt.Library>
libRbt.so (2013.1, Build901 2013/11/27)

>  <Rbt.Parameter_File>
/export/apps/rDock/src/rDock_2013.1_src/data/scripts/dock_solv.prm

>  <Rbt.Receptor>
prm/blind_docking_100.prm

>  <SCORE>
-11.0597

>  <SCORE.INTER>
-11.0597

>  <SCORE.INTER.CONST>
1

>  <SCORE.INTER.POLAR>
0

>  <SCORE.INTER.ROT>
0

>  <SCORE.INTER.SOLV>
7.81775

>  <SCORE.INTER.VDW>
-13.579

>  <SCORE.INTER.norm>
-1.00542

>  <SCORE.INTRA>
0

>  <SCORE.INTRA.DIHEDRAL>
0

>  <SCORE.INTRA.DIHEDRAL.0>
0

>  <SCORE.INTRA.POLAR>
0

>  <SCORE.INTRA.POLAR.0>
0

>  <SCORE.INTRA.REPUL>
0

>  <SCORE.INTRA.REPUL.0>
0

>  <SCORE.INTRA.SOLV>
0

>  <SCORE.INTRA.SOLV.lig_0>
-28.6198

>  <SCORE.INTRA.VDW>
0

>  <SCORE.INTRA.VDW.0>
0

>  <SCORE.INTRA.norm>
0

>  <SCORE.RESTR>
0

>  <SCORE.RESTR.CAVITY>
0

>  <SCORE.RESTR.norm>
0

>  <SCORE.SYSTEM>
0

>  <SCORE.SYSTEM.CONST>
0

>  <SCORE.SYSTEM.DIHEDRAL>
0

>  <SCORE.SYSTEM.SOLV>
0

>  <SCORE.SYSTEM.norm>
0

>  <SCORE.heavy>
11

>  <SCORE.norm>
-1.00542

>  <RMSD>
25.411

$$$$
ligand
 OpenBabel11021811483D
libRbt.so/2013.1/901 2013/11/27
 11 12  0  0  0  0  0  0  0  0999 V2000
   28.1888   -1.0225  -14.8823 N   0  0  0  0  0  0  0  0  0  0  0  0
   28.7168   -1.3756  -16.0638 C   0  0  0  0  0  0  0  0  0  0  0  0
   29.7276   -2.3842  -16.1001 N   0  0  0  0  0  0  0  0  0  0  0  0
   28.3162   -0.8035  -17.2041 N   0  0  0  0  0  0  0  0  0  0  0  0
   27.3407    0.1744  -17.1910 C   0  0  0  0  0  0  0  0  0  0  0  0
   26.7922    0.5485  -15.9921 C   0  0  0  0  0  0  0  0  0  0  0  0
   27.2331   -0.0769  -14.7803 C   0  0  0  0  0  0  0  0  0  0  0  0
   26.5482    0.3676  -13.2099 S   0  0  0  0  0  0  0  0  0  0  0  0
   25.8619    1.5231  -16.2480 N   0  0  0  0  0  0  0  0  0  0  0  0
   25.8384    1.7472  -17.5878 C   0  0  0  0  0  0  0  0  0  0  0  0
   26.7438    0.9245  -18.1885 N   0  0  0  0  0  0  0  0  0  0  0  0
  1  2  2  0  0  0  0
  1  7  1  0  0  0  0
  2  3  1  0  0  0  0
  2  4  1  0  0  0  0
  4  5  2  0  0  0  0
  5  6  1  0  0  0  0
  5 11  1  0  0  0  0
  6  7  2  0  0  0  0
  6  9  1  0  0  0  0
  7  8  1  0  0  0  0
  9 10  1  0  0  0  0
 10 11  2  0  0  0  0
M  END
>  <CHROM.1>
27.30576284,-0.00189426,-15.77856749,-0.98095431,0.78190540,-1.42049279

>  <Name>
ligand

>  <RI>
0

>  <Rbt.Current_Directory>
/home/itssahil/PROJECTS/Mol_Feturizer/New_Systems/rnas/3RKF

>  <Rbt.Executable>
rbdock ($Id: //depot/dev/client3/rdock/2013.1/src/exe/rbdock.cxx#4 $)

>  <Rbt.Library>
libRbt.so (2013.1, Build901 2013/11/27)

>  <Rbt.Parameter_File>
/export/apps/rDock/src/rDock_2013.1_src/data/scripts/dock_solv.prm

>  <Rbt.Receptor>
prm/blind_docking_40.prm

>  <SCORE>
-9.8665

>  <SCORE.INTER>
-9.86655

>  <SCORE.INTER.CONST>
1

>  <SCORE.INTER.POLAR>
0

>  <SCORE.INTER.ROT>
0

>  <SCORE.INTER.SOLV>
7.92149

>  <SCORE.INTER.VDW>
-12.8182

>  <SCORE.INTER.norm>
-0.896959

>  <SCORE.INTRA>
0

>  <SCORE.INTRA.DIHEDRAL>
0

>  <SCORE.INTRA.DIHEDRAL.0>
0

>  <SCORE.INTRA.POLAR>
0

>  <SCORE.INTRA.POLAR.0>
0

>  <SCORE.INTRA.REPUL>
0

>  <SCORE.INTRA.REPUL.0>
0

>  <SCORE.INTRA.SOLV>
0

>  <SCORE.INTRA.SOLV.lig_0>
-28.6198

>  <SCORE.INTRA.VDW>
0

>  <SCORE.INTRA.VDW.0>
0

>  <SCORE.INTRA.norm>
0

>  <SCORE.RESTR>
5.42218e-05

>  <SCORE.RESTR.CAVITY>
5.42218e-05

>  <SCORE.RESTR.norm>
4.92926e-06

>  <SCORE.SYSTEM>
0

>  <SCORE.SYSTEM.CONST>
0

>  <SCORE.SYSTEM.DIHEDRAL>
0

>  <SCORE.SYSTEM.SOLV>
0

>  <SCORE.SYSTEM.norm>
0

>  <SCORE.heavy>
11

>  <SCORE.norm>
-0.896954

>  <RMSD>
25.433

$$$$
ligand
 OpenBabel11021811483D
libRbt.so/2013.1/901 2013/11/27
 11 12  0  0  0  0  0  0  0  0999 V2000
   28.2035   -1.0208  -14.8772 N   0  0  0  0  0  0  0  0  0  0  0  0
   28.7175   -1.3851  -16.0615 C   0  0  0  0  0  0  0  0  0  0  0  0
   29.7293   -2.3926  -16.1001 N   0  0  0  0  0  0  0  0  0  0  0  0
   28.3020   -0.8251  -17.2025 N   0  0  0  0  0  0  0  0  0  0  0  0
   27.3253    0.1516  -17.1872 C   0  0  0  0  0  0  0  0  0  0  0  0
   26.7910    0.5370  -15.9854 C   0  0  0  0  0  0  0  0  0  0  0  0
   27.2478   -0.0755  -14.7729 C   0  0  0  0  0  0  0  0  0  0  0  0
   26.5817    0.3838  -13.1987 S   0  0  0  0  0  0  0  0  0  0  0  0
   25.8561    1.5077  -16.2396 N   0  0  0  0  0  0  0  0  0  0  0  0
   25.8158    1.7182  -17.5812 C   0  0  0  0  0  0  0  0  0  0  0  0
   26.7150    0.8908  -18.1847 N   0  0  0  0  0  0  0  0  0  0  0  0
  1  2  2  0  0  0  0
  1  7  1  0  0  0  0
  2  3  1  0  0  0  0
  2  4  1  0  0  0  0
  4  5  2  0  0  0  0
  5  6  1  0  0  0  0
  5 11  1  0  0  0  0
  6  7  2  0  0  0  0
  6  9  1  0  0  0  0
  7  8  1  0  0  0  0
  9 10  1  0  0  0  0
 10 11  2  0  0  0  0
M  END
>  <CHROM.1>
27.30801169,-0.01051902,-15.77273657,-0.96344768,0.78217635,-1.44289160

>  <Name>
ligand

>  <RI>
0

>  <Rbt.Current_Directory>
/home/itssahil/PROJECTS/Mol_Feturizer/New_Systems/rnas/3RKF

>  <Rbt.Executable>
rbdock ($Id: //depot/dev/client3/rdock/2013.1/src/exe/rbdock.cxx#4 $)

>  <Rbt.Library>
libRbt.so (2013.1, Build901 2013/11/27)

>  <Rbt.Parameter_File>
/export/apps/rDock/src/rDock_2013.1_src/data/scripts/dock_solv.prm

>  <Rbt.Receptor>
prm/blind_docking_40.prm

>  <SCORE>
-9.8464

>  <SCORE.INTER>
-9.84653

>  <SCORE.INTER.CONST>
1

>  <SCORE.INTER.POLAR>
0

>  <SCORE.INTER.ROT>
0

>  <SCORE.INTER.SOLV>
7.93274

>  <SCORE.INTER.VDW>
-12.8086

>  <SCORE.INTER.norm>
-0.895139

>  <SCORE.INTRA>
0

>  <SCORE.INTRA.DIHEDRAL>
0

>  <SCORE.INTRA.DIHEDRAL.0>
0

>  <SCORE.INTRA.POLAR>
0

>  <SCORE.INTRA.POLAR.0>
0

>  <SCORE.INTRA.REPUL>
0

>  <SCORE.INTRA.REPUL.0>
0

>  <SCORE.INTRA.SOLV>
0

>  <SCORE.INTRA.SOLV.lig_0>
-28.6198

>  <SCORE.INTRA.VDW>
0

>  <SCORE.INTRA.VDW.0>
0

>  <SCORE.INTRA.norm>
0

>  <SCORE.RESTR>
0.000133477

>  <SCORE.RESTR.CAVITY>
0.000133477

>  <SCORE.RESTR.norm>
1.21343e-05

>  <SCORE.SYSTEM>
0

>  <SCORE.SYSTEM.CONST>
0

>  <SCORE.SYSTEM.DIHEDRAL>
0

>  <SCORE.SYSTEM.SOLV>
0

>  <SCORE.SYSTEM.norm>
0

>  <SCORE.heavy>
11

>  <SCORE.norm>
-0.895127

>  <RMSD>
25.433

$$$$
ligand
 OpenBabel11021811483D
libRbt.so/2013.1/901 2013/11/27
 11 12  0  0  0  0  0  0  0  0999 V2000
   28.1937   -1.0093  -14.8806 N   0  0  0  0  0  0  0  0  0  0  0  0
   28.7166   -1.3710  -16.0618 C   0  0  0  0  0  0  0  0  0  0  0  0
   29.7258   -2.3814  -16.0953 N   0  0  0  0  0  0  0  0  0  0  0  0
   28.3125   -0.8058  -17.2043 N   0  0  0  0  0  0  0  0  0  0  0  0
   27.3386    0.1737  -17.1939 C   0  0  0  0  0  0  0  0  0  0  0  0
   26.7953    0.5565  -15.9954 C   0  0  0  0  0  0  0  0  0  0  0  0
   27.2399   -0.0615  -14.7812 C   0  0  0  0  0  0  0  0  0  0  0  0
   26.5618    0.3944  -13.2111 S   0  0  0  0  0  0  0  0  0  0  0  0
   25.8654    1.5309  -16.2542 N   0  0  0  0  0  0  0  0  0  0  0  0
   25.8371    1.7461  -17.5954 C   0  0  0  0  0  0  0  0  0  0  0  0
   26.7390    0.9181  -18.1940 N   0  0  0  0  0  0  0  0  0  0  0  0
  1  2  2  0  0  0  0
  1  7  1  0  0  0  0
  2  3  1  0  0  0  0
  2  4  1  0  0  0  0
  4  5  2  0  0  0  0
  5  6  1  0  0  0  0
  5 11  1  0  0  0  0
  6  7  2  0  0  0  0
  6  9  1  0  0  0  0
  7  8  1  0  0  0  0
  9 10  1  0  0  0  0
 10 11  2  0  0  0  0
M  END
>  <CHROM.1>
27.30880904,0.00675128,-15.78023664,-0.97588005,0.78397465,-1.43068211

>  <Name>
ligand

>  <RI>
0

>  <Rbt.Current_Directory>
/home/itssahil/PROJECTS/Mol_Feturizer/New_Systems/rnas/3RKF

>  <Rbt.Executable>
rbdock ($Id: //depot/dev/client3/rdock/2013.1/src/exe/rbdock.cxx#4 $)

>  <Rbt.Library>
libRbt.so (2013.1, Build901 2013/11/27)

>  <Rbt.Parameter_File>
/export/apps/rDock/src/rDock_2013.1_src/data/scripts/dock_solv.prm

>  <Rbt.Receptor>
prm/blind_docking_40.prm

>  <SCORE>
-9.8464

>  <SCORE.INTER>
-9.8464

>  <SCORE.INTER.CONST>
1

>  <SCORE.INTER.POLAR>
0

>  <SCORE.INTER.ROT>
0

>  <SCORE.INTER.SOLV>
7.94247

>  <SCORE.INTER.VDW>
-12.8118

>  <SCORE.INTER.norm>
-0.895127

>  <SCORE.INTRA>
0

>  <SCORE.INTRA.DIHEDRAL>
0

>  <SCORE.INTRA.DIHEDRAL.0>
0

>  <SCORE.INTRA.POLAR>
0

>  <SCORE.INTRA.POLAR.0>
0

>  <SCORE.INTRA.REPUL>
0

>  <SCORE.INTRA.REPUL.0>
0

>  <SCORE.INTRA.SOLV>
0

>  <SCORE.INTRA.SOLV.lig_0>
-28.6198

>  <SCORE.INTRA.VDW>
0

>  <SCORE.INTRA.VDW.0>
0

>  <SCORE.INTRA.norm>
0

>  <SCORE.RESTR>
0

>  <SCORE.RESTR.CAVITY>
0

>  <SCORE.RESTR.norm>
0

>  <SCORE.SYSTEM>
0

>  <SCORE.SYSTEM.CONST>
0

>  <SCORE.SYSTEM.DIHEDRAL>
0

>  <SCORE.SYSTEM.SOLV>
0

>  <SCORE.SYSTEM.norm>
0

>  <SCORE.heavy>
11

>  <SCORE.norm>
-0.895127

>  <RMSD>
25.434

$$$$
ligand
 OpenBabel11021811483D
libRbt.so/2013.1/901 2013/11/27
 11 12  0  0  0  0  0  0  0  0999 V2000
   28.1880   -1.0422  -14.8747 N   0  0  0  0  0  0  0  0  0  0  0  0
   28.7178   -1.3856  -16.0582 C   0  0  0  0  0  0  0  0  0  0  0  0
   29.7388   -2.3837  -16.0997 N   0  0  0  0  0  0  0  0  0  0  0  0
   28.3098   -0.8133  -17.1958 N   0  0  0  0  0  0  0  0  0  0  0  0
   27.3245    0.1546  -17.1777 C   0  0  0  0  0  0  0  0  0  0  0  0
   26.7739    0.5186  -15.9766 C   0  0  0  0  0  0  0  0  0  0  0  0
   27.2229   -0.1067  -14.7678 C   0  0  0  0  0  0  0  0  0  0  0  0
   26.5358    0.3249  -13.1947 S   0  0  0  0  0  0  0  0  0  0  0  0
   25.8333    1.4847  -16.2275 N   0  0  0  0  0  0  0  0  0  0  0  0
   25.8056    1.7134  -17.5665 C   0  0  0  0  0  0  0  0  0  0  0  0
   26.7185    0.9023  -18.1715 N   0  0  0  0  0  0  0  0  0  0  0  0
  1  2  2  0  0  0  0
  1  7  1  0  0  0  0
  2  3  1  0  0  0  0
  2  4  1  0  0  0  0
  4  5  2  0  0  0  0
  5  6  1  0  0  0  0
  5 11  1  0  0  0  0
  6  7  2  0  0  0  0
  6  9  1  0  0  0  0
  7  8  1  0  0  0  0
  9 10  1  0  0  0  0
 10 11  2  0  0  0  0
M  END
>  <CHROM.1>
27.29334669,-0.02732607,-15.76586492,-0.97682301,0.77206097,-1.41966799

>  <Name>
ligand

>  <RI>
0

>  <Rbt.Current_Directory>
/home/itssahil/PROJECTS/Mol_Feturizer/New_Systems/rnas/3RKF

>  <Rbt.Executable>
rbdock ($Id: //depot/dev/client3/rdock/2013.1/src/exe/rbdock.cxx#4 $)

>  <Rbt.Library>
libRbt.so (2013.1, Build901 2013/11/27)

>  <Rbt.Parameter_File>
/export/apps/rDock/src/rDock_2013.1_src/data/scripts/dock_solv.prm

>  <Rbt.Receptor>
prm/blind_docking_40.prm

>  <SCORE>
-9.90072

>  <SCORE.INTER>
-9.90072

>  <SCORE.INTER.CONST>
1

>  <SCORE.INTER.POLAR>
0

>  <SCORE.INTER.ROT>
0

>  <SCORE.INTER.SOLV>
7.93488

>  <SCORE.INTER.VDW>
-12.8454

>  <SCORE.INTER.norm>
-0.900065

>  <SCORE.INTRA>
0

>  <SCORE.INTRA.DIHEDRAL>
0

>  <SCORE.INTRA.DIHEDRAL.0>
0

>  <SCORE.INTRA.POLAR>
0

>  <SCORE.INTRA.POLAR.0>
0

>  <SCORE.INTRA.REPUL>
0

>  <SCORE.INTRA.REPUL.0>
0

>  <SCORE.INTRA.SOLV>
0

>  <SCORE.INTRA.SOLV.lig_0>
-28.6198

>  <SCORE.INTRA.VDW>
0

>  <SCORE.INTRA.VDW.0>
0

>  <SCORE.INTRA.norm>
0

>  <SCORE.RESTR>
0

>  <SCORE.RESTR.CAVITY>
0

>  <SCORE.RESTR.norm>
0

>  <SCORE.SYSTEM>
0

>  <SCORE.SYSTEM.CONST>
0

>  <SCORE.SYSTEM.DIHEDRAL>
0

>  <SCORE.SYSTEM.SOLV>
0

>  <SCORE.SYSTEM.norm>
0

>  <SCORE.heavy>
11

>  <SCORE.norm>
-0.900065

>  <RMSD>
25.438

$$$$
ligand
 OpenBabel11021811483D
libRbt.so/2013.1/901 2013/11/27
 11 12  0  0  0  0  0  0  0  0999 V2000
   28.1875   -1.0386  -14.8753 N   0  0  0  0  0  0  0  0  0  0  0  0
   28.7168   -1.3818  -16.0592 C   0  0  0  0  0  0  0  0  0  0  0  0
   29.7369   -2.3807  -16.1013 N   0  0  0  0  0  0  0  0  0  0  0  0
   28.3089   -0.8087  -17.1964 N   0  0  0  0  0  0  0  0  0  0  0  0
   27.3244    0.1600  -17.1776 C   0  0  0  0  0  0  0  0  0  0  0  0
   26.7744    0.5239  -15.9762 C   0  0  0  0  0  0  0  0  0  0  0  0
   27.2232   -0.1023  -14.7678 C   0  0  0  0  0  0  0  0  0  0  0  0
   26.5369    0.3292  -13.1944 S   0  0  0  0  0  0  0  0  0  0  0  0
   25.8346    1.4909  -16.2265 N   0  0  0  0  0  0  0  0  0  0  0  0
   25.8068    1.7203  -17.5653 C   0  0  0  0  0  0  0  0  0  0  0  0
   26.7188    0.9087  -18.1709 N   0  0  0  0  0  0  0  0  0  0  0  0
  1  2  2  0  0  0  0
  1  7  1  0  0  0  0
  2  3  1  0  0  0  0
  2  4  1  0  0  0  0
  4  5  2  0  0  0  0
  5  6  1  0  0  0  0
  5 11  1  0  0  0  0
  6  7  2  0  0  0  0
  6  9  1  0  0  0  0
  7  8  1  0  0  0  0
  9 10  1  0  0  0  0
 10 11  2  0  0  0  0
M  END
>  <CHROM.1>
27.29347692,-0.02250680,-15.76585596,-0.97666764,0.77290107,-1.41931341

>  <Name>
ligand

>  <RI>
0

>  <Rbt.Current_Directory>
/home/itssahil/PROJECTS/Mol_Feturizer/New_Systems/rnas/3RKF

>  <Rbt.Executable>
rbdock ($Id: //depot/dev/client3/rdock/2013.1/src/exe/rbdock.cxx#4 $)

>  <Rbt.Library>
libRbt.so (2013.1, Build901 2013/11/27)

>  <Rbt.Parameter_File>
/export/apps/rDock/src/rDock_2013.1_src/data/scripts/dock_solv.prm

>  <Rbt.Receptor>
prm/blind_docking_40.prm

>  <SCORE>
-9.90453

>  <SCORE.INTER>
-9.90586

>  <SCORE.INTER.CONST>
1

>  <SCORE.INTER.POLAR>
0

>  <SCORE.INTER.ROT>
0

>  <SCORE.INTER.SOLV>
7.93711

>  <SCORE.INTER.VDW>
-12.8496

>  <SCORE.INTER.norm>
-0.900532

>  <SCORE.INTRA>
0

>  <SCORE.INTRA.DIHEDRAL>
0

>  <SCORE.INTRA.DIHEDRAL.0>
0

>  <SCORE.INTRA.POLAR>
0

>  <SCORE.INTRA.POLAR.0>
0

>  <SCORE.INTRA.REPUL>
0

>  <SCORE.INTRA.REPUL.0>
0

>  <SCORE.INTRA.SOLV>
0

>  <SCORE.INTRA.SOLV.lig_0>
-28.6198

>  <SCORE.INTRA.VDW>
0

>  <SCORE.INTRA.VDW.0>
0

>  <SCORE.INTRA.norm>
0

>  <SCORE.RESTR>
0.00132034

>  <SCORE.RESTR.CAVITY>
0.00132034

>  <SCORE.RESTR.norm>
0.000120031

>  <SCORE.SYSTEM>
0

>  <SCORE.SYSTEM.CONST>
0

>  <SCORE.SYSTEM.DIHEDRAL>
0

>  <SCORE.SYSTEM.SOLV>
0

>  <SCORE.SYSTEM.norm>
0

>  <SCORE.heavy>
11

>  <SCORE.norm>
-0.900412

>  <RMSD>
25.440

$$$$
ligand
 OpenBabel11021811483D
libRbt.so/2013.1/901 2013/11/27
 11 12  0  0  0  0  0  0  0  0999 V2000
   28.1924   -1.0239  -14.8757 N   0  0  0  0  0  0  0  0  0  0  0  0
   28.7168   -1.3743  -16.0596 C   0  0  0  0  0  0  0  0  0  0  0  0
   29.7358   -2.3744  -16.1001 N   0  0  0  0  0  0  0  0  0  0  0  0
   28.3050   -0.8073  -17.1985 N   0  0  0  0  0  0  0  0  0  0  0  0
   27.3215    0.1624  -17.1814 C   0  0  0  0  0  0  0  0  0  0  0  0
   26.7765    0.5336  -15.9800 C   0  0  0  0  0  0  0  0  0  0  0  0
   27.2293   -0.0862  -14.7698 C   0  0  0  0  0  0  0  0  0  0  0  0
   26.5495    0.3549  -13.1962 S   0  0  0  0  0  0  0  0  0  0  0  0
   25.8365    1.5000  -16.2321 N   0  0  0  0  0  0  0  0  0  0  0  0
   25.8037    1.7218  -17.5721 C   0  0  0  0  0  0  0  0  0  0  0  0
   26.7127    0.9060  -18.1766 N   0  0  0  0  0  0  0  0  0  0  0  0
  1  2  2  0  0  0  0
  1  7  1  0  0  0  0
  2  3  1  0  0  0  0
  2  4  1  0  0  0  0
  4  5  2  0  0  0  0
  5  6  1  0  0  0  0
  5 11  1  0  0  0  0
  6  7  2  0  0  0  0
  6  9  1  0  0  0  0
  7  8  1  0  0  0  0
  9 10  1  0  0  0  0
 10 11  2  0  0  0  0
M  END
>  <CHROM.1>
27.29582251,-0.01211015,-15.76852993,-0.97150056,0.77438261,-1.42859655

>  <Name>
ligand

>  <RI>
0

>  <Rbt.Current_Directory>
/home/itssahil/PROJECTS/Mol_Feturizer/New_Systems/rnas/3RKF

>  <Rbt.Executable>
rbdock ($Id: //depot/dev/client3/rdock/2013.1/src/exe/rbdock.cxx#4 $)

>  <Rbt.Library>
libRbt.so (2013.1, Build901 2013/11/27)

>  <Rbt.Parameter_File>
/export/apps/rDock/src/rDock_2013.1_src/data/scripts/dock_solv.prm

>  <Rbt.Receptor>
prm/blind_docking_40.prm

>  <SCORE>
-9.91108

>  <SCORE.INTER>
-9.91114

>  <SCORE.INTER.CONST>
1

>  <SCORE.INTER.POLAR>
0

>  <SCORE.INTER.ROT>
0

>  <SCORE.INTER.SOLV>
7.95352

>  <SCORE.INTER.VDW>
-12.8586

>  <SCORE.INTER.norm>
-0.901013

>  <SCORE.INTRA>
0

>  <SCORE.INTRA.DIHEDRAL>
0

>  <SCORE.INTRA.DIHEDRAL.0>
0

>  <SCORE.INTRA.POLAR>
0

>  <SCORE.INTRA.POLAR.0>
0

>  <SCORE.INTRA.REPUL>
0

>  <SCORE.INTRA.REPUL.0>
0

>  <SCORE.INTRA.SOLV>
0

>  <SCORE.INTRA.SOLV.lig_0>
-28.6198

>  <SCORE.INTRA.VDW>
0

>  <SCORE.INTRA.VDW.0>
0

>  <SCORE.INTRA.norm>
0

>  <SCORE.RESTR>
6.31964e-05

>  <SCORE.RESTR.CAVITY>
6.31964e-05

>  <SCORE.RESTR.norm>
5.74512e-06

>  <SCORE.SYSTEM>
0

>  <SCORE.SYSTEM.CONST>
0

>  <SCORE.SYSTEM.DIHEDRAL>
0

>  <SCORE.SYSTEM.SOLV>
0

>  <SCORE.SYSTEM.norm>
0

>  <SCORE.heavy>
11

>  <SCORE.norm>
-0.901007

>  <RMSD>
25.441

$$$$
ligand
 OpenBabel11021811483D
libRbt.so/2013.1/901 2013/11/27
 11 12  0  0  0  0  0  0  0  0999 V2000
   28.1920   -1.0319  -14.8717 N   0  0  0  0  0  0  0  0  0  0  0  0
   28.7169   -1.3781  -16.0566 C   0  0  0  0  0  0  0  0  0  0  0  0
   29.7365   -2.3775  -16.1001 N   0  0  0  0  0  0  0  0  0  0  0  0
   28.3052   -0.8075  -17.1937 N   0  0  0  0  0  0  0  0  0  0  0  0
   27.3211    0.1615  -17.1736 C   0  0  0  0  0  0  0  0  0  0  0  0
   26.7756    0.5285  -15.9711 C   0  0  0  0  0  0  0  0  0  0  0  0
   27.2284   -0.0951  -14.7628 C   0  0  0  0  0  0  0  0  0  0  0  0
   26.5479    0.3403  -13.1880 S   0  0  0  0  0  0  0  0  0  0  0  0
   25.8352    1.4952  -16.2203 N   0  0  0  0  0  0  0  0  0  0  0  0
   25.8026    1.7215  -17.5595 C   0  0  0  0  0  0  0  0  0  0  0  0
   26.7122    0.9081  -18.1665 N   0  0  0  0  0  0  0  0  0  0  0  0
  1  2  2  0  0  0  0
  1  7  1  0  0  0  0
  2  3  1  0  0  0  0
  2  4  1  0  0  0  0
  4  5  2  0  0  0  0
  5  6  1  0  0  0  0
  5 11  1  0  0  0  0
  6  7  2  0  0  0  0
  6  9  1  0  0  0  0
  7  8  1  0  0  0  0
  9 10  1  0  0  0  0
 10 11  2  0  0  0  0
M  END
>  <CHROM.1>
27.29515624,-0.01764968,-15.76133907,-0.97177736,0.77379454,-1.42506872

>  <Name>
ligand

>  <RI>
0

>  <Rbt.Current_Directory>
/home/itssahil/PROJECTS/Mol_Feturizer/New_Systems/rnas/3RKF

>  <Rbt.Executable>
rbdock ($Id: //depot/dev/client3/rdock/2013.1/src/exe/rbdock.cxx#4 $)

>  <Rbt.Library>
libRbt.so (2013.1, Build901 2013/11/27)

>  <Rbt.Parameter_File>
/export/apps/rDock/src/rDock_2013.1_src/data/scripts/dock_solv.prm

>  <Rbt.Receptor>
prm/blind_docking_40.prm

>  <SCORE>
-9.9121

>  <SCORE.INTER>
-9.91216

>  <SCORE.INTER.CONST>
1

>  <SCORE.INTER.POLAR>
0

>  <SCORE.INTER.ROT>
0

>  <SCORE.INTER.SOLV>
7.94475

>  <SCORE.INTER.VDW>
-12.8564

>  <SCORE.INTER.norm>
-0.901106

>  <SCORE.INTRA>
0

>  <SCORE.INTRA.DIHEDRAL>
0

>  <SCORE.INTRA.DIHEDRAL.0>
0

>  <SCORE.INTRA.POLAR>
0

>  <SCORE.INTRA.POLAR.0>
0

>  <SCORE.INTRA.REPUL>
0

>  <SCORE.INTRA.REPUL.0>
0

>  <SCORE.INTRA.SOLV>
0

>  <SCORE.INTRA.SOLV.lig_0>
-28.6198

>  <SCORE.INTRA.VDW>
0

>  <SCORE.INTRA.VDW.0>
0

>  <SCORE.INTRA.norm>
0

>  <SCORE.RESTR>
6.09408e-05

>  <SCORE.RESTR.CAVITY>
6.09408e-05

>  <SCORE.RESTR.norm>
5.54007e-06

>  <SCORE.SYSTEM>
0

>  <SCORE.SYSTEM.CONST>
0

>  <SCORE.SYSTEM.DIHEDRAL>
0

>  <SCORE.SYSTEM.SOLV>
0

>  <SCORE.SYSTEM.norm>
0

>  <SCORE.heavy>
11

>  <SCORE.norm>
-0.9011

>  <RMSD>
25.445

$$$$
ligand
 OpenBabel11021811483D
libRbt.so/2013.1/901 2013/11/27
 11 12  0  0  0  0  0  0  0  0999 V2000
   28.1926   -1.0324  -14.8711 N   0  0  0  0  0  0  0  0  0  0  0  0
   28.7173   -1.3786  -16.0561 C   0  0  0  0  0  0  0  0  0  0  0  0
   29.7371   -2.3778  -16.0998 N   0  0  0  0  0  0  0  0  0  0  0  0
   28.3052   -0.8083  -17.1932 N   0  0  0  0  0  0  0  0  0  0  0  0
   27.3209    0.1606  -17.1730 C   0  0  0  0  0  0  0  0  0  0  0  0
   26.7756    0.5276  -15.9704 C   0  0  0  0  0  0  0  0  0  0  0  0
   27.2289   -0.0958  -14.7622 C   0  0  0  0  0  0  0  0  0  0  0  0
   26.5487    0.3397  -13.1872 S   0  0  0  0  0  0  0  0  0  0  0  0
   25.8349    1.4940  -16.2195 N   0  0  0  0  0  0  0  0  0  0  0  0
   25.8020    1.7201  -17.5588 C   0  0  0  0  0  0  0  0  0  0  0  0
   26.7116    0.9069  -18.1659 N   0  0  0  0  0  0  0  0  0  0  0  0
  1  2  2  0  0  0  0
  1  7  1  0  0  0  0
  2  3  1  0  0  0  0
  2  4  1  0  0  0  0
  4  5  2  0  0  0  0
  5  6  1  0  0  0  0
  5 11  1  0  0  0  0
  6  7  2  0  0  0  0
  6  9  1  0  0  0  0
  7  8  1  0  0  0  0
  9 10  1  0  0  0  0
 10 11  2  0  0  0  0
M  END
>  <CHROM.1>
27.29533454,-0.01844485,-15.76072851,-0.97137073,0.77362104,-1.42549306

>  <Name>
ligand

>  <RI>
0

>  <Rbt.Current_Directory>
/home/itssahil/PROJECTS/Mol_Feturizer/New_Systems/rnas/3RKF

>  <Rbt.Executable>
rbdock ($Id: //depot/dev/client3/rdock/2013.1/src/exe/rbdock.cxx#4 $)

>  <Rbt.Library>
libRbt.so (2013.1, Build901 2013/11/27)

>  <Rbt.Parameter_File>
/export/apps/rDock/src/rDock_2013.1_src/data/scripts/dock_solv.prm

>  <Rbt.Receptor>
prm/blind_docking_40.prm

>  <SCORE>
-9.91238

>  <SCORE.INTER>
-9.91238

>  <SCORE.INTER.CONST>
1

>  <SCORE.INTER.POLAR>
0

>  <SCORE.INTER.ROT>
0

>  <SCORE.INTER.SOLV>
7.94447

>  <SCORE.INTER.VDW>
-12.8564

>  <SCORE.INTER.norm>
-0.901125

>  <SCORE.INTRA>
0

>  <SCORE.INTRA.DIHEDRAL>
0

>  <SCORE.INTRA.DIHEDRAL.0>
0

>  <SCORE.INTRA.POLAR>
0

>  <SCORE.INTRA.POLAR.0>
0

>  <SCORE.INTRA.REPUL>
0

>  <SCORE.INTRA.REPUL.0>
0

>  <SCORE.INTRA.SOLV>
0

>  <SCORE.INTRA.SOLV.lig_0>
-28.6198

>  <SCORE.INTRA.VDW>
0

>  <SCORE.INTRA.VDW.0>
0

>  <SCORE.INTRA.norm>
0

>  <SCORE.RESTR>
0

>  <SCORE.RESTR.CAVITY>
0

>  <SCORE.RESTR.norm>
0

>  <SCORE.SYSTEM>
0

>  <SCORE.SYSTEM.CONST>
0

>  <SCORE.SYSTEM.DIHEDRAL>
0

>  <SCORE.SYSTEM.SOLV>
0

>  <SCORE.SYSTEM.norm>
0

>  <SCORE.heavy>
11

>  <SCORE.norm>
-0.901125

>  <RMSD>
25.446

$$$$
ligand
 OpenBabel11021811483D
libRbt.so/2013.1/901 2013/11/27
 11 12  0  0  0  0  0  0  0  0999 V2000
   28.1961   -1.0238  -14.8711 N   0  0  0  0  0  0  0  0  0  0  0  0
   28.7175   -1.3733  -16.0565 C   0  0  0  0  0  0  0  0  0  0  0  0
   29.7368   -2.3730  -16.1002 N   0  0  0  0  0  0  0  0  0  0  0  0
   28.3026   -0.8057  -17.1940 N   0  0  0  0  0  0  0  0  0  0  0  0
   27.3188    0.1637  -17.1737 C   0  0  0  0  0  0  0  0  0  0  0  0
   26.7768    0.5340  -15.9706 C   0  0  0  0  0  0  0  0  0  0  0  0
   27.2330   -0.0865  -14.7620 C   0  0  0  0  0  0  0  0  0  0  0  0
   26.5571    0.3533  -13.1864 S   0  0  0  0  0  0  0  0  0  0  0  0
   25.8359    1.5002  -16.2197 N   0  0  0  0  0  0  0  0  0  0  0  0
   25.7995    1.7229  -17.5595 C   0  0  0  0  0  0  0  0  0  0  0  0
   26.7072    0.9077  -18.1669 N   0  0  0  0  0  0  0  0  0  0  0  0
  1  2  2  0  0  0  0
  1  7  1  0  0  0  0
  2  3  1  0  0  0  0
  2  4  1  0  0  0  0
  4  5  2  0  0  0  0
  5  6  1  0  0  0  0
  5 11  1  0  0  0  0
  6  7  2  0  0  0  0
  6  9  1  0  0  0  0
  7  8  1  0  0  0  0
  9 10  1  0  0  0  0
 10 11  2  0  0  0  0
M  END
>  <CHROM.1>
27.29686021,-0.01172093,-15.76089300,-0.96785596,0.77439671,-1.43050109

>  <Name>
ligand

>  <RI>
0

>  <Rbt.Current_Directory>
/home/itssahil/PROJECTS/Mol_Feturizer/New_Systems/rnas/3RKF

>  <Rbt.Executable>
rbdock ($Id: //depot/dev/client3/rdock/2013.1/src/exe/rbdock.cxx#4 $)

>  <Rbt.Library>
libRbt.so (2013.1, Build901 2013/11/27)

>  <Rbt.Parameter_File>
/export/apps/rDock/src/rDock_2013.1_src/data/scripts/dock_solv.prm

>  <Rbt.Receptor>
prm/blind_docking_40.prm

>  <SCORE>
-9.91456

>  <SCORE.INTER>
-9.91481

>  <SCORE.INTER.CONST>
1

>  <SCORE.INTER.POLAR>
0

>  <SCORE.INTER.ROT>
0

>  <SCORE.INTER.SOLV>
7.95332

>  <SCORE.INTER.VDW>
-12.861

>  <SCORE.INTER.norm>
-0.901346

>  <SCORE.INTRA>
0

>  <SCORE.INTRA.DIHEDRAL>
0

>  <SCORE.INTRA.DIHEDRAL.0>
0

>  <SCORE.INTRA.POLAR>
0

>  <SCORE.INTRA.POLAR.0>
0

>  <SCORE.INTRA.REPUL>
0

>  <SCORE.INTRA.REPUL.0>
0

>  <SCORE.INTRA.SOLV>
0

>  <SCORE.INTRA.SOLV.lig_0>
-28.6198

>  <SCORE.INTRA.VDW>
0

>  <SCORE.INTRA.VDW.0>
0

>  <SCORE.INTRA.norm>
0

>  <SCORE.RESTR>
0.000245899

>  <SCORE.RESTR.CAVITY>
0.000245899

>  <SCORE.RESTR.norm>
2.23545e-05

>  <SCORE.SYSTEM>
0

>  <SCORE.SYSTEM.CONST>
0

>  <SCORE.SYSTEM.DIHEDRAL>
0

>  <SCORE.SYSTEM.SOLV>
0

>  <SCORE.SYSTEM.norm>
0

>  <SCORE.heavy>
11

>  <SCORE.norm>
-0.901324

>  <RMSD>
25.447

$$$$
ligand
 OpenBabel11021811483D
libRbt.so/2013.1/901 2013/11/27
 11 12  0  0  0  0  0  0  0  0999 V2000
   28.1939   -1.0278  -14.8711 N   0  0  0  0  0  0  0  0  0  0  0  0
   28.7173   -1.3752  -16.0563 C   0  0  0  0  0  0  0  0  0  0  0  0
   29.7367   -2.3748  -16.1001 N   0  0  0  0  0  0  0  0  0  0  0  0
   28.3043   -0.8056  -17.1934 N   0  0  0  0  0  0  0  0  0  0  0  0
   27.3204    0.1637  -17.1731 C   0  0  0  0  0  0  0  0  0  0  0  0
   26.7764    0.5318  -15.9703 C   0  0  0  0  0  0  0  0  0  0  0  0
   27.2306   -0.0907  -14.7620 C   0  0  0  0  0  0  0  0  0  0  0  0
   26.5521    0.3463  -13.1867 S   0  0  0  0  0  0  0  0  0  0  0  0
   25.8359    1.4985  -16.2192 N   0  0  0  0  0  0  0  0  0  0  0  0
   25.8017    1.7235  -17.5586 C   0  0  0  0  0  0  0  0  0  0  0  0
   26.7104    0.9095  -18.1659 N   0  0  0  0  0  0  0  0  0  0  0  0
  1  2  2  0  0  0  0
  1  7  1  0  0  0  0
  2  3  1  0  0  0  0
  2  4  1  0  0  0  0
  4  5  2  0  0  0  0
  5  6  1  0  0  0  0
  5 11  1  0  0  0  0
  6  7  2  0  0  0  0
  6  9  1  0  0  0  0
  7  8  1  0  0  0  0
  9 10  1  0  0  0  0
 10 11  2  0  0  0  0
M  END
>  <CHROM.1>
27.29615183,-0.01419651,-15.76061906,-0.97013238,0.77413988,-1.42713758

>  <Name>
ligand

>  <RI>
0

>  <Rbt.Current_Directory>
/home/itssahil/PROJECTS/Mol_Feturizer/New_Systems/rnas/3RKF

>  <Rbt.Executable>
rbdock ($Id: //depot/dev/client3/rdock/2013.1/src/exe/rbdock.cxx#4 $)

>  <Rbt.Library>
libRbt.so (2013.1, Build901 2013/11/27)

>  <Rbt.Parameter_File>
/export/apps/rDock/src/rDock_2013.1_src/data/scripts/dock_solv.prm

>  <Rbt.Receptor>
prm/blind_docking_40.prm

>  <SCORE>
-9.91455

>  <SCORE.INTER>
-9.91468

>  <SCORE.INTER.CONST>
1

>  <SCORE.INTER.POLAR>
0

>  <SCORE.INTER.ROT>
0

>  <SCORE.INTER.SOLV>
7.94859

>  <SCORE.INTER.VDW>
-12.8593

>  <SCORE.INTER.norm>
-0.901335

>  <SCORE.INTRA>
0

>  <SCORE.INTRA.DIHEDRAL>
0

>  <SCORE.INTRA.DIHEDRAL.0>
0

>  <SCORE.INTRA.POLAR>
0

>  <SCORE.INTRA.POLAR.0>
0

>  <SCORE.INTRA.REPUL>
0

>  <SCORE.INTRA.REPUL.0>
0

>  <SCORE.INTRA.SOLV>
0

>  <SCORE.INTRA.SOLV.lig_0>
-28.6198

>  <SCORE.INTRA.VDW>
0

>  <SCORE.INTRA.VDW.0>
0

>  <SCORE.INTRA.norm>
0

>  <SCORE.RESTR>
0.00013492

>  <SCORE.RESTR.CAVITY>
0.00013492

>  <SCORE.RESTR.norm>
1.22655e-05

>  <SCORE.SYSTEM>
0

>  <SCORE.SYSTEM.CONST>
0

>  <SCORE.SYSTEM.DIHEDRAL>
0

>  <SCORE.SYSTEM.SOLV>
0

>  <SCORE.SYSTEM.norm>
0

>  <SCORE.heavy>
11

>  <SCORE.norm>
-0.901322

>  <RMSD>
25.447

$$$$
ligand
 OpenBabel11021811483D
libRbt.so/2013.1/901 2013/11/27
 11 12  0  0  0  0  0  0  0  0999 V2000
   28.1884   -1.0434  -14.8705 N   0  0  0  0  0  0  0  0  0  0  0  0
   28.7148   -1.3838  -16.0564 C   0  0  0  0  0  0  0  0  0  0  0  0
   29.7364   -2.3810  -16.1032 N   0  0  0  0  0  0  0  0  0  0  0  0
   28.3025   -0.8096  -17.1915 N   0  0  0  0  0  0  0  0  0  0  0  0
   27.3165    0.1574  -17.1682 C   0  0  0  0  0  0  0  0  0  0  0  0
   26.7695    0.5185  -15.9647 C   0  0  0  0  0  0  0  0  0  0  0  0
   27.2229   -0.1089  -14.7586 C   0  0  0  0  0  0  0  0  0  0  0  0
   26.5406    0.3190  -13.1824 S   0  0  0  0  0  0  0  0  0  0  0  0
   25.8273    1.4843  -16.2106 N   0  0  0  0  0  0  0  0  0  0  0  0
   25.7951    1.7158  -17.5490 C   0  0  0  0  0  0  0  0  0  0  0  0
   26.7067    0.9066  -18.1586 N   0  0  0  0  0  0  0  0  0  0  0  0
  1  2  2  0  0  0  0
  1  7  1  0  0  0  0
  2  3  1  0  0  0  0
  2  4  1  0  0  0  0
  4  5  2  0  0  0  0
  5  6  1  0  0  0  0
  5 11  1  0  0  0  0
  6  7  2  0  0  0  0
  6  9  1  0  0  0  0
  7  8  1  0  0  0  0
  9 10  1  0  0  0  0
 10 11  2  0  0  0  0
M  END
>  <CHROM.1>
27.29007363,-0.02738946,-15.75671313,-0.97218249,0.77171460,-1.42087419

>  <Name>
ligand

>  <RI>
0

>  <Rbt.Current_Directory>
/home/itssahil/PROJECTS/Mol_Feturizer/New_Systems/rnas/3RKF

>  <Rbt.Executable>
rbdock ($Id: //depot/dev/client3/rdock/2013.1/src/exe/rbdock.cxx#4 $)

>  <Rbt.Library>
libRbt.so (2013.1, Build901 2013/11/27)

>  <Rbt.Parameter_File>
/export/apps/rDock/src/rDock_2013.1_src/data/scripts/dock_solv.prm

>  <Rbt.Receptor>
prm/blind_docking_40.prm

>  <SCORE>
-9.92172

>  <SCORE.INTER>
-9.92492

>  <SCORE.INTER.CONST>
1

>  <SCORE.INTER.POLAR>
0

>  <SCORE.INTER.ROT>
0

>  <SCORE.INTER.SOLV>
7.93958

>  <SCORE.INTER.VDW>
-12.8631

>  <SCORE.INTER.norm>
-0.902265

>  <SCORE.INTRA>
0

>  <SCORE.INTRA.DIHEDRAL>
0

>  <SCORE.INTRA.DIHEDRAL.0>
0

>  <SCORE.INTRA.POLAR>
0

>  <SCORE.INTRA.POLAR.0>
0

>  <SCORE.INTRA.REPUL>
0

>  <SCORE.INTRA.REPUL.0>
0

>  <SCORE.INTRA.SOLV>
0

>  <SCORE.INTRA.SOLV.lig_0>
-28.6198

>  <SCORE.INTRA.VDW>
0

>  <SCORE.INTRA.VDW.0>
0

>  <SCORE.INTRA.norm>
0

>  <SCORE.RESTR>
0.00320398

>  <SCORE.RESTR.CAVITY>
0.00320398

>  <SCORE.RESTR.norm>
0.000291271

>  <SCORE.SYSTEM>
0

>  <SCORE.SYSTEM.CONST>
0

>  <SCORE.SYSTEM.DIHEDRAL>
0

>  <SCORE.SYSTEM.SOLV>
0

>  <SCORE.SYSTEM.norm>
0

>  <SCORE.heavy>
11

>  <SCORE.norm>
-0.901974

>  <RMSD>
25.448

$$$$
ligand
 OpenBabel11021811483D
libRbt.so/2013.1/901 2013/11/27
 11 12  0  0  0  0  0  0  0  0999 V2000
   28.1942   -1.0293  -14.8699 N   0  0  0  0  0  0  0  0  0  0  0  0
   28.7169   -1.3763  -16.0555 C   0  0  0  0  0  0  0  0  0  0  0  0
   29.7363   -2.3759  -16.1003 N   0  0  0  0  0  0  0  0  0  0  0  0
   28.3033   -0.8063  -17.1922 N   0  0  0  0  0  0  0  0  0  0  0  0
   27.3195    0.1631  -17.1709 C   0  0  0  0  0  0  0  0  0  0  0  0
   26.7762    0.5308  -15.9677 C   0  0  0  0  0  0  0  0  0  0  0  0
   27.2311   -0.0922  -14.7599 C   0  0  0  0  0  0  0  0  0  0  0  0
   26.5535    0.3443  -13.1840 S   0  0  0  0  0  0  0  0  0  0  0  0
   25.8355    1.4976  -16.2157 N   0  0  0  0  0  0  0  0  0  0  0  0
   25.8006    1.7231  -17.5551 C   0  0  0  0  0  0  0  0  0  0  0  0
   26.7089    0.9092  -18.1632 N   0  0  0  0  0  0  0  0  0  0  0  0
  1  2  2  0  0  0  0
  1  7  1  0  0  0  0
  2  3  1  0  0  0  0
  2  4  1  0  0  0  0
  4  5  2  0  0  0  0
  5  6  1  0  0  0  0
  5 11  1  0  0  0  0
  6  7  2  0  0  0  0
  6  9  1  0  0  0  0
  7  8  1  0  0  0  0
  9 10  1  0  0  0  0
 10 11  2  0  0  0  0
M  END
>  <CHROM.1>
27.29601966,-0.01531552,-15.75853079,-0.96932936,0.77428039,-1.42736319

>  <Name>
ligand

>  <RI>
0

>  <Rbt.Current_Directory>
/home/itssahil/PROJECTS/Mol_Feturizer/New_Systems/rnas/3RKF

>  <Rbt.Executable>
rbdock ($Id: //depot/dev/client3/rdock/2013.1/src/exe/rbdock.cxx#4 $)

>  <Rbt.Library>
libRbt.so (2013.1, Build901 2013/11/27)

>  <Rbt.Parameter_File>
/export/apps/rDock/src/rDock_2013.1_src/data/scripts/dock_solv.prm

>  <Rbt.Receptor>
prm/blind_docking_40.prm

>  <SCORE>
-9.9147

>  <SCORE.INTER>
-9.91498

>  <SCORE.INTER.CONST>
1

>  <SCORE.INTER.POLAR>
0

>  <SCORE.INTER.ROT>
0

>  <SCORE.INTER.SOLV>
7.94695

>  <SCORE.INTER.VDW>
-12.859

>  <SCORE.INTER.norm>
-0.901362

>  <SCORE.INTRA>
0

>  <SCORE.INTRA.DIHEDRAL>
0

>  <SCORE.INTRA.DIHEDRAL.0>
0

>  <SCORE.INTRA.POLAR>
0

>  <SCORE.INTRA.POLAR.0>
0

>  <SCORE.INTRA.REPUL>
0

>  <SCORE.INTRA.REPUL.0>
0

>  <SCORE.INTRA.SOLV>
0

>  <SCORE.INTRA.SOLV.lig_0>
-28.6198

>  <SCORE.INTRA.VDW>
0

>  <SCORE.INTRA.VDW.0>
0

>  <SCORE.INTRA.norm>
0

>  <SCORE.RESTR>
0.00027514

>  <SCORE.RESTR.CAVITY>
0.00027514

>  <SCORE.RESTR.norm>
2.50127e-05

>  <SCORE.SYSTEM>
0

>  <SCORE.SYSTEM.CONST>
0

>  <SCORE.SYSTEM.DIHEDRAL>
0

>  <SCORE.SYSTEM.SOLV>
0

>  <SCORE.SYSTEM.norm>
0

>  <SCORE.heavy>
11

>  <SCORE.norm>
-0.901337

>  <RMSD>
25.449

$$$$
ligand
 OpenBabel11021811483D
libRbt.so/2013.1/901 2013/11/27
 11 12  0  0  0  0  0  0  0  0999 V2000
   28.1955   -1.0231  -14.8705 N   0  0  0  0  0  0  0  0  0  0  0  0
   28.7170   -1.3721  -16.0561 C   0  0  0  0  0  0  0  0  0  0  0  0
   29.7359   -2.3721  -16.1003 N   0  0  0  0  0  0  0  0  0  0  0  0
   28.3024   -0.8036  -17.1933 N   0  0  0  0  0  0  0  0  0  0  0  0
   27.3190    0.1660  -17.1725 C   0  0  0  0  0  0  0  0  0  0  0  0
   26.7769    0.5358  -15.9693 C   0  0  0  0  0  0  0  0  0  0  0  0
   27.2328   -0.0855  -14.7610 C   0  0  0  0  0  0  0  0  0  0  0  0
   26.5569    0.3537  -13.1852 S   0  0  0  0  0  0  0  0  0  0  0  0
   25.8364    1.5026  -16.2179 N   0  0  0  0  0  0  0  0  0  0  0  0
   25.8003    1.7260  -17.5576 C   0  0  0  0  0  0  0  0  0  0  0  0
   26.7077    0.9109  -18.1653 N   0  0  0  0  0  0  0  0  0  0  0  0
  1  2  2  0  0  0  0
  1  7  1  0  0  0  0
  2  3  1  0  0  0  0
  2  4  1  0  0  0  0
  4  5  2  0  0  0  0
  5  6  1  0  0  0  0
  5 11  1  0  0  0  0
  6  7  2  0  0  0  0
  6  9  1  0  0  0  0
  7  8  1  0  0  0  0
  9 10  1  0  0  0  0
 10 11  2  0  0  0  0
M  END
>  <CHROM.1>
27.29681442,-0.01016145,-15.75983572,-0.96806953,0.77475409,-1.42976615

>  <Name>
ligand

>  <RI>
0

>  <Rbt.Current_Directory>
/home/itssahil/PROJECTS/Mol_Feturizer/New_Systems/rnas/3RKF

>  <Rbt.Executable>
rbdock ($Id: //depot/dev/client3/rdock/2013.1/src/exe/rbdock.cxx#4 $)

>  <Rbt.Library>
libRbt.so (2013.1, Build901 2013/11/27)

>  <Rbt.Parameter_File>
/export/apps/rDock/src/rDock_2013.1_src/data/scripts/dock_solv.prm

>  <Rbt.Receptor>
prm/blind_docking_40.prm

>  <SCORE>
-9.9135

>  <SCORE.INTER>
-9.91382

>  <SCORE.INTER.CONST>
1

>  <SCORE.INTER.POLAR>
0

>  <SCORE.INTER.ROT>
0

>  <SCORE.INTER.SOLV>
7.95352

>  <SCORE.INTER.VDW>
-12.8604

>  <SCORE.INTER.norm>
-0.901256

>  <SCORE.INTRA>
0

>  <SCORE.INTRA.DIHEDRAL>
0

>  <SCORE.INTRA.DIHEDRAL.0>
0

>  <SCORE.INTRA.POLAR>
0

>  <SCORE.INTRA.POLAR.0>
0

>  <SCORE.INTRA.REPUL>
0

>  <SCORE.INTRA.REPUL.0>
0

>  <SCORE.INTRA.SOLV>
0

>  <SCORE.INTRA.SOLV.lig_0>
-28.6198

>  <SCORE.INTRA.VDW>
0

>  <SCORE.INTRA.VDW.0>
0

>  <SCORE.INTRA.norm>
0

>  <SCORE.RESTR>
0.000325022

>  <SCORE.RESTR.CAVITY>
0.000325022

>  <SCORE.RESTR.norm>
2.95475e-05

>  <SCORE.SYSTEM>
0

>  <SCORE.SYSTEM.CONST>
0

>  <SCORE.SYSTEM.DIHEDRAL>
0

>  <SCORE.SYSTEM.SOLV>
0

>  <SCORE.SYSTEM.norm>
0

>  <SCORE.heavy>
11

>  <SCORE.norm>
-0.901227

>  <RMSD>
25.449

$$$$
ligand
 OpenBabel11021811483D
libRbt.so/2013.1/901 2013/11/27
 11 12  0  0  0  0  0  0  0  0999 V2000
   28.1961   -1.0207  -14.8706 N   0  0  0  0  0  0  0  0  0  0  0  0
   28.7168   -1.3704  -16.0563 C   0  0  0  0  0  0  0  0  0  0  0  0
   29.7354   -2.3708  -16.1005 N   0  0  0  0  0  0  0  0  0  0  0  0
   28.3018   -0.8025  -17.1936 N   0  0  0  0  0  0  0  0  0  0  0  0
   27.3186    0.1675  -17.1728 C   0  0  0  0  0  0  0  0  0  0  0  0
   26.7774    0.5381  -15.9695 C   0  0  0  0  0  0  0  0  0  0  0  0
   27.2337   -0.0827  -14.7611 C   0  0  0  0  0  0  0  0  0  0  0  0
   26.5588    0.3575  -13.1852 S   0  0  0  0  0  0  0  0  0  0  0  0
   25.8370    1.5049  -16.2182 N   0  0  0  0  0  0  0  0  0  0  0  0
   25.8002    1.7277  -17.5579 C   0  0  0  0  0  0  0  0  0  0  0  0
   26.7071    0.9119  -18.1657 N   0  0  0  0  0  0  0  0  0  0  0  0
  1  2  2  0  0  0  0
  1  7  1  0  0  0  0
  2  3  1  0  0  0  0
  2  4  1  0  0  0  0
  4  5  2  0  0  0  0
  5  6  1  0  0  0  0
  5 11  1  0  0  0  0
  6  7  2  0  0  0  0
  6  9  1  0  0  0  0
  7  8  1  0  0  0  0
  9 10  1  0  0  0  0
 10 11  2  0  0  0  0
M  END
>  <CHROM.1>
27.29719857,-0.00795218,-15.76002751,-0.96738083,0.77511357,-1.43080804

>  <Name>
ligand

>  <RI>
0

>  <Rbt.Current_Directory>
/home/itssahil/PROJECTS/Mol_Feturizer/New_Systems/rnas/3RKF

>  <Rbt.Executable>
rbdock ($Id: //depot/dev/client3/rdock/2013.1/src/exe/rbdock.cxx#4 $)

>  <Rbt.Library>
libRbt.so (2013.1, Build901 2013/11/27)

>  <Rbt.Parameter_File>
/export/apps/rDock/src/rDock_2013.1_src/data/scripts/dock_solv.prm

>  <Rbt.Receptor>
prm/blind_docking_40.prm

>  <SCORE>
-9.91292

>  <SCORE.INTER>
-9.91342

>  <SCORE.INTER.CONST>
1

>  <SCORE.INTER.POLAR>
0

>  <SCORE.INTER.ROT>
0

>  <SCORE.INTER.SOLV>
7.95568

>  <SCORE.INTER.VDW>
-12.8608

>  <SCORE.INTER.norm>
-0.90122

>  <SCORE.INTRA>
0

>  <SCORE.INTRA.DIHEDRAL>
0

>  <SCORE.INTRA.DIHEDRAL.0>
0

>  <SCORE.INTRA.POLAR>
0

>  <SCORE.INTRA.POLAR.0>
0

>  <SCORE.INTRA.REPUL>
0

>  <SCORE.INTRA.REPUL.0>
0

>  <SCORE.INTRA.SOLV>
0

>  <SCORE.INTRA.SOLV.lig_0>
-28.6198

>  <SCORE.INTRA.VDW>
0

>  <SCORE.INTRA.VDW.0>
0

>  <SCORE.INTRA.norm>
0

>  <SCORE.RESTR>
0.00050468

>  <SCORE.RESTR.CAVITY>
0.00050468

>  <SCORE.RESTR.norm>
4.588e-05

>  <SCORE.SYSTEM>
0

>  <SCORE.SYSTEM.CONST>
0

>  <SCORE.SYSTEM.DIHEDRAL>
0

>  <SCORE.SYSTEM.SOLV>
0

>  <SCORE.SYSTEM.norm>
0

>  <SCORE.heavy>
11

>  <SCORE.norm>
-0.901174

>  <RMSD>
25.450

$$$$
ligand
 OpenBabel11021811483D
libRbt.so/2013.1/901 2013/11/27
 11 12  0  0  0  0  0  0  0  0999 V2000
   28.1912   -1.0306  -14.8697 N   0  0  0  0  0  0  0  0  0  0  0  0
   28.7155   -1.3758  -16.0552 C   0  0  0  0  0  0  0  0  0  0  0  0
   29.7344   -2.3759  -16.1001 N   0  0  0  0  0  0  0  0  0  0  0  0
   28.3039   -0.8036  -17.1915 N   0  0  0  0  0  0  0  0  0  0  0  0
   27.3205    0.1662  -17.1700 C   0  0  0  0  0  0  0  0  0  0  0  0
   26.7756    0.5322  -15.9670 C   0  0  0  0  0  0  0  0  0  0  0  0
   27.2284   -0.0931  -14.7596 C   0  0  0  0  0  0  0  0  0  0  0  0
   26.5487    0.3410  -13.1840 S   0  0  0  0  0  0  0  0  0  0  0  0
   25.8359    1.4999  -16.2147 N   0  0  0  0  0  0  0  0  0  0  0  0
   25.8031    1.7277  -17.5538 C   0  0  0  0  0  0  0  0  0  0  0  0
   26.7119    0.9144  -18.1619 N   0  0  0  0  0  0  0  0  0  0  0  0
  1  2  2  0  0  0  0
  1  7  1  0  0  0  0
  2  3  1  0  0  0  0
  2  4  1  0  0  0  0
  4  5  2  0  0  0  0
  5  6  1  0  0  0  0
  5 11  1  0  0  0  0
  6  7  2  0  0  0  0
  6  9  1  0  0  0  0
  7  8  1  0  0  0  0
  9 10  1  0  0  0  0
 10 11  2  0  0  0  0
M  END
>  <CHROM.1>
27.29487333,-0.01457904,-15.75798983,-0.97152855,0.77457905,-1.42408957

>  <Name>
ligand

>  <RI>
0

>  <Rbt.Current_Directory>
/home/itssahil/PROJECTS/Mol_Feturizer/New_Systems/rnas/3RKF

>  <Rbt.Executable>
rbdock ($Id: //depot/dev/client3/rdock/2013.1/src/exe/rbdock.cxx#4 $)

>  <Rbt.Library>
libRbt.so (2013.1, Build901 2013/11/27)

>  <Rbt.Parameter_File>
/export/apps/rDock/src/rDock_2013.1_src/data/scripts/dock_solv.prm

>  <Rbt.Receptor>
prm/blind_docking_40.prm

>  <SCORE>
-9.90802

>  <SCORE.INTER>
-9.90816

>  <SCORE.INTER.CONST>
1

>  <SCORE.INTER.POLAR>
0

>  <SCORE.INTER.ROT>
0

>  <SCORE.INTER.SOLV>
7.94573

>  <SCORE.INTER.VDW>
-12.854

>  <SCORE.INTER.norm>
-0.900742

>  <SCORE.INTRA>
0

>  <SCORE.INTRA.DIHEDRAL>
0

>  <SCORE.INTRA.DIHEDRAL.0>
0

>  <SCORE.INTRA.POLAR>
0

>  <SCORE.INTRA.POLAR.0>
0

>  <SCORE.INTRA.REPUL>
0

>  <SCORE.INTRA.REPUL.0>
0

>  <SCORE.INTRA.SOLV>
0

>  <SCORE.INTRA.SOLV.lig_0>
-28.6198

>  <SCORE.INTRA.VDW>
0

>  <SCORE.INTRA.VDW.0>
0

>  <SCORE.INTRA.norm>
0

>  <SCORE.RESTR>
0.000142153

>  <SCORE.RESTR.CAVITY>
0.000142153

>  <SCORE.RESTR.norm>
1.2923e-05

>  <SCORE.SYSTEM>
0

>  <SCORE.SYSTEM.CONST>
0

>  <SCORE.SYSTEM.DIHEDRAL>
0

>  <SCORE.SYSTEM.SOLV>
0

>  <SCORE.SYSTEM.norm>
0

>  <SCORE.heavy>
11

>  <SCORE.norm>
-0.900729

>  <RMSD>
25.450

$$$$
ligand
 OpenBabel11021811483D
libRbt.so/2013.1/901 2013/11/27
 11 12  0  0  0  0  0  0  0  0999 V2000
   28.1962   -1.0225  -14.8693 N   0  0  0  0  0  0  0  0  0  0  0  0
   28.7167   -1.3717  -16.0553 C   0  0  0  0  0  0  0  0  0  0  0  0
   29.7354   -2.3721  -16.1001 N   0  0  0  0  0  0  0  0  0  0  0  0
   28.3014   -0.8034  -17.1922 N   0  0  0  0  0  0  0  0  0  0  0  0
   27.3182    0.1665  -17.1708 C   0  0  0  0  0  0  0  0  0  0  0  0
   26.7772    0.5366  -15.9673 C   0  0  0  0  0  0  0  0  0  0  0  0
   27.2338   -0.0846  -14.7592 C   0  0  0  0  0  0  0  0  0  0  0  0
   26.5592    0.3550  -13.1830 S   0  0  0  0  0  0  0  0  0  0  0  0
   25.8367    1.5035  -16.2153 N   0  0  0  0  0  0  0  0  0  0  0  0
   25.7996    1.7268  -17.5550 C   0  0  0  0  0  0  0  0  0  0  0  0
   26.7064    0.9113  -18.1633 N   0  0  0  0  0  0  0  0  0  0  0  0
  1  2  2  0  0  0  0
  1  7  1  0  0  0  0
  2  3  1  0  0  0  0
  2  4  1  0  0  0  0
  4  5  2  0  0  0  0
  5  6  1  0  0  0  0
  5 11  1  0  0  0  0
  6  7  2  0  0  0  0
  6  9  1  0  0  0  0
  7  8  1  0  0  0  0
  9 10  1  0  0  0  0
 10 11  2  0  0  0  0
M  END
>  <CHROM.1>
27.29707182,-0.00946872,-15.75812112,-0.96704630,0.77509470,-1.43064937

>  <Name>
ligand

>  <RI>
0

>  <Rbt.Current_Directory>
/home/itssahil/PROJECTS/Mol_Feturizer/New_Systems/rnas/3RKF

>  <Rbt.Executable>
rbdock ($Id: //depot/dev/client3/rdock/2013.1/src/exe/rbdock.cxx#4 $)

>  <Rbt.Library>
libRbt.so (2013.1, Build901 2013/11/27)

>  <Rbt.Parameter_File>
/export/apps/rDock/src/rDock_2013.1_src/data/scripts/dock_solv.prm

>  <Rbt.Receptor>
prm/blind_docking_40.prm

>  <SCORE>
-9.91274

>  <SCORE.INTER>
-9.91283

>  <SCORE.INTER.CONST>
1

>  <SCORE.INTER.POLAR>
0

>  <SCORE.INTER.ROT>
0

>  <SCORE.INTER.SOLV>
7.95397

>  <SCORE.INTER.VDW>
-12.8599

>  <SCORE.INTER.norm>
-0.901167

>  <SCORE.INTRA>
0

>  <SCORE.INTRA.DIHEDRAL>
0

>  <SCORE.INTRA.DIHEDRAL.0>
0

>  <SCORE.INTRA.POLAR>
0

>  <SCORE.INTRA.POLAR.0>
0

>  <SCORE.INTRA.REPUL>
0

>  <SCORE.INTRA.REPUL.0>
0

>  <SCORE.INTRA.SOLV>
0

>  <SCORE.INTRA.SOLV.lig_0>
-28.6198

>  <SCORE.INTRA.VDW>
0

>  <SCORE.INTRA.VDW.0>
0

>  <SCORE.INTRA.norm>
0

>  <SCORE.RESTR>
9.68452e-05

>  <SCORE.RESTR.CAVITY>
9.68452e-05

>  <SCORE.RESTR.norm>
8.80411e-06

>  <SCORE.SYSTEM>
0

>  <SCORE.SYSTEM.CONST>
0

>  <SCORE.SYSTEM.DIHEDRAL>
0

>  <SCORE.SYSTEM.SOLV>
0

>  <SCORE.SYSTEM.norm>
0

>  <SCORE.heavy>
11

>  <SCORE.norm>
-0.901158

>  <RMSD>
25.451

$$$$
ligand
 OpenBabel11021811483D
libRbt.so/2013.1/901 2013/11/27
 11 12  0  0  0  0  0  0  0  0999 V2000
   28.2035   -1.0097  -14.8702 N   0  0  0  0  0  0  0  0  0  0  0  0
   28.7220   -1.3582  -16.0573 C   0  0  0  0  0  0  0  0  0  0  0  0
   29.7502   -2.3487  -16.1031 N   0  0  0  0  0  0  0  0  0  0  0  0
   28.2960   -0.7982  -17.1944 N   0  0  0  0  0  0  0  0  0  0  0  0
   27.3035    0.1622  -17.1720 C   0  0  0  0  0  0  0  0  0  0  0  0
   26.7643    0.5314  -15.9674 C   0  0  0  0  0  0  0  0  0  0  0  0
   27.2324   -0.0809  -14.7592 C   0  0  0  0  0  0  0  0  0  0  0  0
   26.5607    0.3579  -13.1815 S   0  0  0  0  0  0  0  0  0  0  0  0
   25.8133    1.4882  -16.2146 N   0  0  0  0  0  0  0  0  0  0  0  0
   25.7680    1.7062  -17.5549 C   0  0  0  0  0  0  0  0  0  0  0  0
   26.6799    0.8973  -18.1644 N   0  0  0  0  0  0  0  0  0  0  0  0
  1  2  2  0  0  0  0
  1  7  1  0  0  0  0
  2  3  1  0  0  0  0
  2  4  1  0  0  0  0
  4  5  2  0  0  0  0
  5  6  1  0  0  0  0
  5 11  1  0  0  0  0
  6  7  2  0  0  0  0
  6  9  1  0  0  0  0
  7  8  1  0  0  0  0
  9 10  1  0  0  0  0
 10 11  2  0  0  0  0
M  END
>  <CHROM.1>
27.29047005,-0.00879133,-15.75861265,-0.95894167,0.76602124,-1.43994081

>  <Name>
ligand

>  <RI>
0

>  <Rbt.Current_Directory>
/home/itssahil/PROJECTS/Mol_Feturizer/New_Systems/rnas/3RKF

>  <Rbt.Executable>
rbdock ($Id: //depot/dev/client3/rdock/2013.1/src/exe/rbdock.cxx#4 $)

>  <Rbt.Library>
libRbt.so (2013.1, Build901 2013/11/27)

>  <Rbt.Parameter_File>
/export/apps/rDock/src/rDock_2013.1_src/data/scripts/dock_solv.prm

>  <Rbt.Receptor>
prm/blind_docking_40.prm

>  <SCORE>
-9.86736

>  <SCORE.INTER>
-9.87049

>  <SCORE.INTER.CONST>
1

>  <SCORE.INTER.POLAR>
0

>  <SCORE.INTER.ROT>
0

>  <SCORE.INTER.SOLV>
7.99914

>  <SCORE.INTER.VDW>
-12.8467

>  <SCORE.INTER.norm>
-0.897317

>  <SCORE.INTRA>
0

>  <SCORE.INTRA.DIHEDRAL>
0

>  <SCORE.INTRA.DIHEDRAL.0>
0

>  <SCORE.INTRA.POLAR>
0

>  <SCORE.INTRA.POLAR.0>
0

>  <SCORE.INTRA.REPUL>
0

>  <SCORE.INTRA.REPUL.0>
0

>  <SCORE.INTRA.SOLV>
0

>  <SCORE.INTRA.SOLV.lig_0>
-28.6198

>  <SCORE.INTRA.VDW>
0

>  <SCORE.INTRA.VDW.0>
0

>  <SCORE.INTRA.norm>
0

>  <SCORE.RESTR>
0.00312473

>  <SCORE.RESTR.CAVITY>
0.00312473

>  <SCORE.RESTR.norm>
0.000284066

>  <SCORE.SYSTEM>
0

>  <SCORE.SYSTEM.CONST>
0

>  <SCORE.SYSTEM.DIHEDRAL>
0

>  <SCORE.SYSTEM.SOLV>
0

>  <SCORE.SYSTEM.norm>
0

>  <SCORE.heavy>
11

>  <SCORE.norm>
-0.897033

>  <RMSD>
25.452

$$$$
ligand
 OpenBabel11021811483D
libRbt.so/2013.1/901 2013/11/27
 11 12  0  0  0  0  0  0  0  0999 V2000
   28.1908   -1.0019  -14.8729 N   0  0  0  0  0  0  0  0  0  0  0  0
   28.7045   -1.3614  -16.0588 C   0  0  0  0  0  0  0  0  0  0  0  0
   29.7208   -2.3642  -16.1011 N   0  0  0  0  0  0  0  0  0  0  0  0
   28.2846   -0.8009  -17.1979 N   0  0  0  0  0  0  0  0  0  0  0  0
   27.3035    0.1712  -17.1790 C   0  0  0  0  0  0  0  0  0  0  0  0
   26.7694    0.5517  -15.9755 C   0  0  0  0  0  0  0  0  0  0  0  0
   27.2309   -0.0612  -14.7651 C   0  0  0  0  0  0  0  0  0  0  0  0
   26.5654    0.3919  -13.1888 S   0  0  0  0  0  0  0  0  0  0  0  0
   25.8297    1.5187  -16.2262 N   0  0  0  0  0  0  0  0  0  0  0  0
   25.7862    1.7318  -17.5673 C   0  0  0  0  0  0  0  0  0  0  0  0
   26.6882    0.9097  -18.1740 N   0  0  0  0  0  0  0  0  0  0  0  0
  1  2  2  0  0  0  0
  1  7  1  0  0  0  0
  2  3  1  0  0  0  0
  2  4  1  0  0  0  0
  4  5  2  0  0  0  0
  5  6  1  0  0  0  0
  5 11  1  0  0  0  0
  6  7  2  0  0  0  0
  6  9  1  0  0  0  0
  7  8  1  0  0  0  0
  9 10  1  0  0  0  0
 10 11  2  0  0  0  0
M  END
>  <CHROM.1>
27.28924837,0.00613535,-15.76485231,-0.96034004,0.77787581,-1.44301380

>  <Name>
ligand

>  <RI>
0

>  <Rbt.Current_Directory>
/home/itssahil/PROJECTS/Mol_Feturizer/New_Systems/rnas/3RKF

>  <Rbt.Executable>
rbdock ($Id: //depot/dev/client3/rdock/2013.1/src/exe/rbdock.cxx#4 $)

>  <Rbt.Library>
libRbt.so (2013.1, Build901 2013/11/27)

>  <Rbt.Parameter_File>
/export/apps/rDock/src/rDock_2013.1_src/data/scripts/dock_solv.prm

>  <Rbt.Receptor>
prm/blind_docking_40.prm

>  <SCORE>
-9.87862

>  <SCORE.INTER>
-9.87976

>  <SCORE.INTER.CONST>
1

>  <SCORE.INTER.POLAR>
0

>  <SCORE.INTER.ROT>
0

>  <SCORE.INTER.SOLV>
8.00004

>  <SCORE.INTER.VDW>
-12.8532

>  <SCORE.INTER.norm>
-0.89816

>  <SCORE.INTRA>
0

>  <SCORE.INTRA.DIHEDRAL>
0

>  <SCORE.INTRA.DIHEDRAL.0>
0

>  <SCORE.INTRA.POLAR>
0

>  <SCORE.INTRA.POLAR.0>
0

>  <SCORE.INTRA.REPUL>
0

>  <SCORE.INTRA.REPUL.0>
0

>  <SCORE.INTRA.SOLV>
0

>  <SCORE.INTRA.SOLV.lig_0>
-28.6198

>  <SCORE.INTRA.VDW>
0

>  <SCORE.INTRA.VDW.0>
0

>  <SCORE.INTRA.norm>
0

>  <SCORE.RESTR>
0.00113858

>  <SCORE.RESTR.CAVITY>
0.00113858

>  <SCORE.RESTR.norm>
0.000103507

>  <SCORE.SYSTEM>
0

>  <SCORE.SYSTEM.CONST>
0

>  <SCORE.SYSTEM.DIHEDRAL>
0

>  <SCORE.SYSTEM.SOLV>
0

>  <SCORE.SYSTEM.norm>
0

>  <SCORE.heavy>
11

>  <SCORE.norm>
-0.898056

>  <RMSD>
25.453

$$$$
ligand
 OpenBabel11021811483D
libRbt.so/2013.1/901 2013/11/27
 11 12  0  0  0  0  0  0  0  0999 V2000
   28.1962   -1.0137  -14.8684 N   0  0  0  0  0  0  0  0  0  0  0  0
   28.7131   -1.3656  -16.0552 C   0  0  0  0  0  0  0  0  0  0  0  0
   29.7377   -2.3599  -16.1001 N   0  0  0  0  0  0  0  0  0  0  0  0
   28.2890   -0.8053  -17.1928 N   0  0  0  0  0  0  0  0  0  0  0  0
   27.3000    0.1588  -17.1714 C   0  0  0  0  0  0  0  0  0  0  0  0
   26.7625    0.5314  -15.9671 C   0  0  0  0  0  0  0  0  0  0  0  0
   27.2286   -0.0812  -14.7582 C   0  0  0  0  0  0  0  0  0  0  0  0
   26.5589    0.3619  -13.1809 S   0  0  0  0  0  0  0  0  0  0  0  0
   25.8149    1.4914  -16.2152 N   0  0  0  0  0  0  0  0  0  0  0  0
   25.7701    1.7079  -17.5558 C   0  0  0  0  0  0  0  0  0  0  0  0
   26.6789    0.8950  -18.1645 N   0  0  0  0  0  0  0  0  0  0  0  0
  1  2  2  0  0  0  0
  1  7  1  0  0  0  0
  2  3  1  0  0  0  0
  2  4  1  0  0  0  0
  4  5  2  0  0  0  0
  5  6  1  0  0  0  0
  5 11  1  0  0  0  0
  6  7  2  0  0  0  0
  6  9  1  0  0  0  0
  7  8  1  0  0  0  0
  9 10  1  0  0  0  0
 10 11  2  0  0  0  0
M  END
>  <CHROM.1>
27.28668111,-0.01051283,-15.75778220,-0.95928917,0.76971459,-1.44087965

>  <Name>
ligand

>  <RI>
0

>  <Rbt.Current_Directory>
/home/itssahil/PROJECTS/Mol_Feturizer/New_Systems/rnas/3RKF

>  <Rbt.Executable>
rbdock ($Id: //depot/dev/client3/rdock/2013.1/src/exe/rbdock.cxx#4 $)

>  <Rbt.Library>
libRbt.so (2013.1, Build901 2013/11/27)

>  <Rbt.Parameter_File>
/export/apps/rDock/src/rDock_2013.1_src/data/scripts/dock_solv.prm

>  <Rbt.Receptor>
prm/blind_docking_40.prm

>  <SCORE>
-9.89943

>  <SCORE.INTER>
-9.89953

>  <SCORE.INTER.CONST>
1

>  <SCORE.INTER.POLAR>
0

>  <SCORE.INTER.ROT>
0

>  <SCORE.INTER.SOLV>
7.99637

>  <SCORE.INTER.VDW>
-12.8651

>  <SCORE.INTER.norm>
-0.899957

>  <SCORE.INTRA>
0

>  <SCORE.INTRA.DIHEDRAL>
0

>  <SCORE.INTRA.DIHEDRAL.0>
0

>  <SCORE.INTRA.POLAR>
0

>  <SCORE.INTRA.POLAR.0>
0

>  <SCORE.INTRA.REPUL>
0

>  <SCORE.INTRA.REPUL.0>
0

>  <SCORE.INTRA.SOLV>
0

>  <SCORE.INTRA.SOLV.lig_0>
-28.6198

>  <SCORE.INTRA.VDW>
0

>  <SCORE.INTRA.VDW.0>
0

>  <SCORE.INTRA.norm>
0

>  <SCORE.RESTR>
9.75834e-05

>  <SCORE.RESTR.CAVITY>
9.75834e-05

>  <SCORE.RESTR.norm>
8.87122e-06

>  <SCORE.SYSTEM>
0

>  <SCORE.SYSTEM.CONST>
0

>  <SCORE.SYSTEM.DIHEDRAL>
0

>  <SCORE.SYSTEM.SOLV>
0

>  <SCORE.SYSTEM.norm>
0

>  <SCORE.heavy>
11

>  <SCORE.norm>
-0.899948

>  <RMSD>
25.453

$$$$
ligand
 OpenBabel11021811483D
libRbt.so/2013.1/901 2013/11/27
 11 12  0  0  0  0  0  0  0  0999 V2000
   28.1952   -1.0365  -14.8650 N   0  0  0  0  0  0  0  0  0  0  0  0
   28.7181   -1.3790  -16.0519 C   0  0  0  0  0  0  0  0  0  0  0  0
   29.7400   -2.3758  -16.0999 N   0  0  0  0  0  0  0  0  0  0  0  0
   28.3022   -0.8072  -17.1868 N   0  0  0  0  0  0  0  0  0  0  0  0
   27.3158    0.1594  -17.1624 C   0  0  0  0  0  0  0  0  0  0  0  0
   26.7723    0.5227  -15.9578 C   0  0  0  0  0  0  0  0  0  0  0  0
   27.2296   -0.1023  -14.7520 C   0  0  0  0  0  0  0  0  0  0  0  0
   26.5519    0.3284  -13.1746 S   0  0  0  0  0  0  0  0  0  0  0  0
   25.8289    1.4876  -16.2028 N   0  0  0  0  0  0  0  0  0  0  0  0
   25.7926    1.7164  -17.5415 C   0  0  0  0  0  0  0  0  0  0  0  0
   26.7026    0.9065  -18.1523 N   0  0  0  0  0  0  0  0  0  0  0  0
  1  2  2  0  0  0  0
  1  7  1  0  0  0  0
  2  3  1  0  0  0  0
  2  4  1  0  0  0  0
  4  5  2  0  0  0  0
  5  6  1  0  0  0  0
  5 11  1  0  0  0  0
  6  7  2  0  0  0  0
  6  9  1  0  0  0  0
  7  8  1  0  0  0  0
  9 10  1  0  0  0  0
 10 11  2  0  0  0  0
M  END
>  <CHROM.1>
27.29372625,-0.02264423,-15.75044909,-0.96791011,0.77173578,-1.42576261

>  <Name>
ligand

>  <RI>
0

>  <Rbt.Current_Directory>
/home/itssahil/PROJECTS/Mol_Feturizer/New_Systems/rnas/3RKF

>  <Rbt.Executable>
rbdock ($Id: //depot/dev/client3/rdock/2013.1/src/exe/rbdock.cxx#4 $)

>  <Rbt.Library>
libRbt.so (2013.1, Build901 2013/11/27)

>  <Rbt.Parameter_File>
/export/apps/rDock/src/rDock_2013.1_src/data/scripts/dock_solv.prm

>  <Rbt.Receptor>
prm/blind_docking_40.prm

>  <SCORE>
-9.93171

>  <SCORE.INTER>
-9.93171

>  <SCORE.INTER.CONST>
1

>  <SCORE.INTER.POLAR>
0

>  <SCORE.INTER.ROT>
0

>  <SCORE.INTER.SOLV>
7.94613

>  <SCORE.INTER.VDW>
-12.8699

>  <SCORE.INTER.norm>
-0.902883

>  <SCORE.INTRA>
0

>  <SCORE.INTRA.DIHEDRAL>
0

>  <SCORE.INTRA.DIHEDRAL.0>
0

>  <SCORE.INTRA.POLAR>
0

>  <SCORE.INTRA.POLAR.0>
0

>  <SCORE.INTRA.REPUL>
0

>  <SCORE.INTRA.REPUL.0>
0

>  <SCORE.INTRA.SOLV>
0

>  <SCORE.INTRA.SOLV.lig_0>
-28.6198

>  <SCORE.INTRA.VDW>
0

>  <SCORE.INTRA.VDW.0>
0

>  <SCORE.INTRA.norm>
0

>  <SCORE.RESTR>
0

>  <SCORE.RESTR.CAVITY>
0

>  <SCORE.RESTR.norm>
0

>  <SCORE.SYSTEM>
0

>  <SCORE.SYSTEM.CONST>
0

>  <SCORE.SYSTEM.DIHEDRAL>
0

>  <SCORE.SYSTEM.SOLV>
0

>  <SCORE.SYSTEM.norm>
0

>  <SCORE.heavy>
11

>  <SCORE.norm>
-0.902883

>  <RMSD>
25.454

$$$$
ligand
 OpenBabel11021811483D
libRbt.so/2013.1/901 2013/11/27
 11 12  0  0  0  0  0  0  0  0999 V2000
   28.5000   -1.0435  -17.0716 N   0  0  0  0  0  0  0  0  0  0  0  0
   28.7304   -1.5136  -15.8366 C   0  0  0  0  0  0  0  0  0  0  0  0
   29.3828   -2.7750  -15.6833 N   0  0  0  0  0  0  0  0  0  0  0  0
   28.3623   -0.8263  -14.7503 N   0  0  0  0  0  0  0  0  0  0  0  0
   27.7294    0.3950  -14.8764 C   0  0  0  0  0  0  0  0  0  0  0  0
   27.4845    0.8890  -16.1311 C   0  0  0  0  0  0  0  0  0  0  0  0
   27.8875    0.1389  -17.2838 C   0  0  0  0  0  0  0  0  0  0  0  0
   27.5998    0.7401  -18.9235 S   0  0  0  0  0  0  0  0  0  0  0  0
   26.8536    2.0979  -15.9848 N   0  0  0  0  0  0  0  0  0  0  0  0
   26.7109    2.3449  -14.6565 C   0  0  0  0  0  0  0  0  0  0  0  0
   27.2452    1.3060  -13.9547 N   0  0  0  0  0  0  0  0  0  0  0  0
  1  2  2  0  0  0  0
  1  7  1  0  0  0  0
  2  3  1  0  0  0  0
  2  4  1  0  0  0  0
  4  5  2  0  0  0  0
  5  6  1  0  0  0  0
  5 11  1  0  0  0  0
  6  7  2  0  0  0  0
  6  9  1  0  0  0  0
  7  8  1  0  0  0  0
  9 10  1  0  0  0  0
 10 11  2  0  0  0  0
M  END
>  <CHROM.1>
27.84111453,0.20940626,-16.28366252,-0.77166805,-1.09163260,1.59447948

>  <Name>
ligand

>  <RI>
0

>  <Rbt.Current_Directory>
/home/itssahil/PROJECTS/Mol_Feturizer/New_Systems/rnas/3RKF

>  <Rbt.Executable>
rbdock ($Id: //depot/dev/client3/rdock/2013.1/src/exe/rbdock.cxx#4 $)

>  <Rbt.Library>
libRbt.so (2013.1, Build901 2013/11/27)

>  <Rbt.Parameter_File>
/export/apps/rDock/src/rDock_2013.1_src/data/scripts/dock_solv.prm

>  <Rbt.Receptor>
prm/blind_docking_40.prm

>  <SCORE>
-8.24088

>  <SCORE.INTER>
-8.25231

>  <SCORE.INTER.CONST>
1

>  <SCORE.INTER.POLAR>
0

>  <SCORE.INTER.ROT>
0

>  <SCORE.INTER.SOLV>
6.84222

>  <SCORE.INTER.VDW>
-11.3823

>  <SCORE.INTER.norm>
-0.75021

>  <SCORE.INTRA>
0

>  <SCORE.INTRA.DIHEDRAL>
0

>  <SCORE.INTRA.DIHEDRAL.0>
0

>  <SCORE.INTRA.POLAR>
0

>  <SCORE.INTRA.POLAR.0>
0

>  <SCORE.INTRA.REPUL>
0

>  <SCORE.INTRA.REPUL.0>
0

>  <SCORE.INTRA.SOLV>
0

>  <SCORE.INTRA.SOLV.lig_0>
-28.6198

>  <SCORE.INTRA.VDW>
0

>  <SCORE.INTRA.VDW.0>
0

>  <SCORE.INTRA.norm>
0

>  <SCORE.RESTR>
0.0114299

>  <SCORE.RESTR.CAVITY>
0.0114299

>  <SCORE.RESTR.norm>
0.00103908

>  <SCORE.SYSTEM>
0

>  <SCORE.SYSTEM.CONST>
0

>  <SCORE.SYSTEM.DIHEDRAL>
0

>  <SCORE.SYSTEM.SOLV>
0

>  <SCORE.SYSTEM.norm>
0

>  <SCORE.heavy>
11

>  <SCORE.norm>
-0.749171

>  <RMSD>
25.473

$$$$
ligand
 OpenBabel11021811483D
libRbt.so/2013.1/901 2013/11/27
 11 12  0  0  0  0  0  0  0  0999 V2000
   28.4999   -1.0401  -17.0709 N   0  0  0  0  0  0  0  0  0  0  0  0
   28.7292   -1.5137  -15.8370 C   0  0  0  0  0  0  0  0  0  0  0  0
   29.3824   -2.7751  -15.6866 N   0  0  0  0  0  0  0  0  0  0  0  0
   28.3593   -0.8299  -14.7490 N   0  0  0  0  0  0  0  0  0  0  0  0
   27.7255    0.3913  -14.8724 C   0  0  0  0  0  0  0  0  0  0  0  0
   27.4817    0.8887  -16.1259 C   0  0  0  0  0  0  0  0  0  0  0  0
   27.8868    0.1423  -17.2803 C   0  0  0  0  0  0  0  0  0  0  0  0
   27.6005    0.7481  -18.9186 S   0  0  0  0  0  0  0  0  0  0  0  0
   26.8497    2.0967  -15.9768 N   0  0  0  0  0  0  0  0  0  0  0  0
   26.7052    2.3397  -14.6479 C   0  0  0  0  0  0  0  0  0  0  0  0
   27.2395    1.2992  -13.9486 N   0  0  0  0  0  0  0  0  0  0  0  0
  1  2  2  0  0  0  0
  1  7  1  0  0  0  0
  2  3  1  0  0  0  0
  2  4  1  0  0  0  0
  4  5  2  0  0  0  0
  5  6  1  0  0  0  0
  5 11  1  0  0  0  0
  6  7  2  0  0  0  0
  6  9  1  0  0  0  0
  7  8  1  0  0  0  0
  9 10  1  0  0  0  0
 10 11  2  0  0  0  0
M  END
>  <CHROM.1>
27.83908611,0.20990930,-16.28003041,-0.76911081,-1.09080150,1.59968730

>  <Name>
ligand

>  <RI>
0

>  <Rbt.Current_Directory>
/home/itssahil/PROJECTS/Mol_Feturizer/New_Systems/rnas/3RKF

>  <Rbt.Executable>
rbdock ($Id: //depot/dev/client3/rdock/2013.1/src/exe/rbdock.cxx#4 $)

>  <Rbt.Library>
libRbt.so (2013.1, Build901 2013/11/27)

>  <Rbt.Parameter_File>
/export/apps/rDock/src/rDock_2013.1_src/data/scripts/dock_solv.prm

>  <Rbt.Receptor>
prm/blind_docking_40.prm

>  <SCORE>
-8.22403

>  <SCORE.INTER>
-8.23214

>  <SCORE.INTER.CONST>
1

>  <SCORE.INTER.POLAR>
0

>  <SCORE.INTER.ROT>
0

>  <SCORE.INTER.SOLV>
6.84072

>  <SCORE.INTER.VDW>
-11.3683

>  <SCORE.INTER.norm>
-0.748377

>  <SCORE.INTRA>
0

>  <SCORE.INTRA.DIHEDRAL>
0

>  <SCORE.INTRA.DIHEDRAL.0>
0

>  <SCORE.INTRA.POLAR>
0

>  <SCORE.INTRA.POLAR.0>
0

>  <SCORE.INTRA.REPUL>
0

>  <SCORE.INTRA.REPUL.0>
0

>  <SCORE.INTRA.SOLV>
0

>  <SCORE.INTRA.SOLV.lig_0>
-28.6198

>  <SCORE.INTRA.VDW>
0

>  <SCORE.INTRA.VDW.0>
0

>  <SCORE.INTRA.norm>
0

>  <SCORE.RESTR>
0.00810986

>  <SCORE.RESTR.CAVITY>
0.00810986

>  <SCORE.RESTR.norm>
0.00073726

>  <SCORE.SYSTEM>
0

>  <SCORE.SYSTEM.CONST>
0

>  <SCORE.SYSTEM.DIHEDRAL>
0

>  <SCORE.SYSTEM.SOLV>
0

>  <SCORE.SYSTEM.norm>
0

>  <SCORE.heavy>
11

>  <SCORE.norm>
-0.747639

>  <RMSD>
25.476

$$$$
ligand
 OpenBabel11021811483D
libRbt.so/2013.1/901 2013/11/27
 11 12  0  0  0  0  0  0  0  0999 V2000
   28.1694   -0.9908  -14.8360 N   0  0  0  0  0  0  0  0  0  0  0  0
   28.6715   -1.3489  -16.0272 C   0  0  0  0  0  0  0  0  0  0  0  0
   29.6724   -2.3665  -16.0824 N   0  0  0  0  0  0  0  0  0  0  0  0
   28.2543   -0.7735  -17.1598 N   0  0  0  0  0  0  0  0  0  0  0  0
   27.2880    0.2131  -17.1285 C   0  0  0  0  0  0  0  0  0  0  0  0
   26.7659    0.5924  -15.9194 C   0  0  0  0  0  0  0  0  0  0  0  0
   27.2243   -0.0366  -14.7161 C   0  0  0  0  0  0  0  0  0  0  0  0
   26.5737    0.4144  -13.1330 S   0  0  0  0  0  0  0  0  0  0  0  0
   25.8396    1.5752  -16.1579 N   0  0  0  0  0  0  0  0  0  0  0  0
   25.7925    1.7991  -17.4971 C   0  0  0  0  0  0  0  0  0  0  0  0
   26.6788    0.9683  -18.1147 N   0  0  0  0  0  0  0  0  0  0  0  0
  1  2  2  0  0  0  0
  1  7  1  0  0  0  0
  2  3  1  0  0  0  0
  2  4  1  0  0  0  0
  4  5  2  0  0  0  0
  5  6  1  0  0  0  0
  5 11  1  0  0  0  0
  6  7  2  0  0  0  0
  6  9  1  0  0  0  0
  7  8  1  0  0  0  0
  9 10  1  0  0  0  0
 10 11  2  0  0  0  0
M  END
>  <CHROM.1>
27.27854795,0.03747651,-15.71558016,-0.95584750,0.79345315,-1.43862411

>  <Name>
ligand

>  <RI>
0

>  <Rbt.Current_Directory>
/home/itssahil/PROJECTS/Mol_Feturizer/New_Systems/rnas/3RKF

>  <Rbt.Executable>
rbdock ($Id: //depot/dev/client3/rdock/2013.1/src/exe/rbdock.cxx#4 $)

>  <Rbt.Library>
libRbt.so (2013.1, Build901 2013/11/27)

>  <Rbt.Parameter_File>
/export/apps/rDock/src/rDock_2013.1_src/data/scripts/dock_solv.prm

>  <Rbt.Receptor>
prm/blind_docking_60.prm

>  <SCORE>
-9.66564

>  <SCORE.INTER>
-9.70332

>  <SCORE.INTER.CONST>
1

>  <SCORE.INTER.POLAR>
0

>  <SCORE.INTER.ROT>
0

>  <SCORE.INTER.SOLV>
8.02739

>  <SCORE.INTER.VDW>
-12.7447

>  <SCORE.INTER.norm>
-0.88212

>  <SCORE.INTRA>
0

>  <SCORE.INTRA.DIHEDRAL>
0

>  <SCORE.INTRA.DIHEDRAL.0>
0

>  <SCORE.INTRA.POLAR>
0

>  <SCORE.INTRA.POLAR.0>
0

>  <SCORE.INTRA.REPUL>
0

>  <SCORE.INTRA.REPUL.0>
0

>  <SCORE.INTRA.SOLV>
0

>  <SCORE.INTRA.SOLV.lig_0>
-28.6198

>  <SCORE.INTRA.VDW>
0

>  <SCORE.INTRA.VDW.0>
0

>  <SCORE.INTRA.norm>
0

>  <SCORE.RESTR>
0.0376784

>  <SCORE.RESTR.CAVITY>
0.0376784

>  <SCORE.RESTR.norm>
0.00342531

>  <SCORE.SYSTEM>
0

>  <SCORE.SYSTEM.CONST>
0

>  <SCORE.SYSTEM.DIHEDRAL>
0

>  <SCORE.SYSTEM.SOLV>
0

>  <SCORE.SYSTEM.norm>
0

>  <SCORE.heavy>
11

>  <SCORE.norm>
-0.878695

>  <RMSD>
25.514

$$$$
ligand
 OpenBabel11021811483D
libRbt.so/2013.1/901 2013/11/27
 11 12  0  0  0  0  0  0  0  0999 V2000
   28.5694   -1.0336  -16.9732 N   0  0  0  0  0  0  0  0  0  0  0  0
   29.0511   -1.9133  -16.0825 C   0  0  0  0  0  0  0  0  0  0  0  0
   29.9814   -2.9056  -16.5186 N   0  0  0  0  0  0  0  0  0  0  0  0
   28.6784   -1.8790  -14.7988 N   0  0  0  0  0  0  0  0  0  0  0  0
   27.7792   -0.9282  -14.3567 C   0  0  0  0  0  0  0  0  0  0  0  0
   27.2757   -0.0231  -15.2541 C   0  0  0  0  0  0  0  0  0  0  0  0
   27.6879   -0.0743  -16.6257 C   0  0  0  0  0  0  0  0  0  0  0  0
   27.0709    1.0784  -17.8188 S   0  0  0  0  0  0  0  0  0  0  0  0
   26.4153    0.8004  -14.5739 N   0  0  0  0  0  0  0  0  0  0  0  0
   26.3886    0.4066  -13.2739 C   0  0  0  0  0  0  0  0  0  0  0  0
   27.2239   -0.6589  -13.1185 N   0  0  0  0  0  0  0  0  0  0  0  0
  1  2  2  0  0  0  0
  1  7  1  0  0  0  0
  2  3  1  0  0  0  0
  2  4  1  0  0  0  0
  4  5  2  0  0  0  0
  5  6  1  0  0  0  0
  5 11  1  0  0  0  0
  6  7  2  0  0  0  0
  6  9  1  0  0  0  0
  7  8  1  0  0  0  0
  9 10  1  0  0  0  0
 10 11  2  0  0  0  0
M  END
>  <CHROM.1>
27.75246900,-0.45518578,-15.69936124,-0.97247450,-0.85869050,1.88960871

>  <Name>
ligand

>  <RI>
0

>  <Rbt.Current_Directory>
/home/itssahil/PROJECTS/Mol_Feturizer/New_Systems/rnas/3RKF

>  <Rbt.Executable>
rbdock ($Id: //depot/dev/client3/rdock/2013.1/src/exe/rbdock.cxx#4 $)

>  <Rbt.Library>
libRbt.so (2013.1, Build901 2013/11/27)

>  <Rbt.Parameter_File>
/export/apps/rDock/src/rDock_2013.1_src/data/scripts/dock_solv.prm

>  <Rbt.Receptor>
prm/blind_docking_40.prm

>  <SCORE>
-8.3731

>  <SCORE.INTER>
-8.38358

>  <SCORE.INTER.CONST>
1

>  <SCORE.INTER.POLAR>
0

>  <SCORE.INTER.ROT>
0

>  <SCORE.INTER.SOLV>
5.80275

>  <SCORE.INTER.VDW>
-11.1233

>  <SCORE.INTER.norm>
-0.762144

>  <SCORE.INTRA>
0

>  <SCORE.INTRA.DIHEDRAL>
0

>  <SCORE.INTRA.DIHEDRAL.0>
0

>  <SCORE.INTRA.POLAR>
0

>  <SCORE.INTRA.POLAR.0>
0

>  <SCORE.INTRA.REPUL>
0

>  <SCORE.INTRA.REPUL.0>
0

>  <SCORE.INTRA.SOLV>
0

>  <SCORE.INTRA.SOLV.lig_0>
-28.6198

>  <SCORE.INTRA.VDW>
0

>  <SCORE.INTRA.VDW.0>
0

>  <SCORE.INTRA.norm>
0

>  <SCORE.RESTR>
0.0104765

>  <SCORE.RESTR.CAVITY>
0.0104765

>  <SCORE.RESTR.norm>
0.000952412

>  <SCORE.SYSTEM>
0

>  <SCORE.SYSTEM.CONST>
0

>  <SCORE.SYSTEM.DIHEDRAL>
0

>  <SCORE.SYSTEM.SOLV>
0

>  <SCORE.SYSTEM.norm>
0

>  <SCORE.heavy>
11

>  <SCORE.norm>
-0.761191

>  <RMSD>
25.569

$$$$
ligand
 OpenBabel11021811483D
libRbt.so/2013.1/901 2013/11/27
 11 12  0  0  0  0  0  0  0  0999 V2000
   28.5581   -1.0363  -16.9794 N   0  0  0  0  0  0  0  0  0  0  0  0
   29.0343   -1.9218  -16.0915 C   0  0  0  0  0  0  0  0  0  0  0  0
   29.9482   -2.9268  -16.5334 N   0  0  0  0  0  0  0  0  0  0  0  0
   28.6712   -1.8818  -14.8052 N   0  0  0  0  0  0  0  0  0  0  0  0
   27.7879   -0.9188  -14.3575 C   0  0  0  0  0  0  0  0  0  0  0  0
   27.2902   -0.0075  -15.2520 C   0  0  0  0  0  0  0  0  0  0  0  0
   27.6920   -0.0651  -16.6264 C   0  0  0  0  0  0  0  0  0  0  0  0
   27.0820    1.0949  -17.8160 S   0  0  0  0  0  0  0  0  0  0  0  0
   26.4457    0.8277  -14.5664 N   0  0  0  0  0  0  0  0  0  0  0  0
   26.4229    0.4352  -13.2658 C   0  0  0  0  0  0  0  0  0  0  0  0
   27.2450   -0.6413  -13.1156 N   0  0  0  0  0  0  0  0  0  0  0  0
  1  2  2  0  0  0  0
  1  7  1  0  0  0  0
  2  3  1  0  0  0  0
  2  4  1  0  0  0  0
  4  5  2  0  0  0  0
  5  6  1  0  0  0  0
  5 11  1  0  0  0  0
  6  7  2  0  0  0  0
  6  9  1  0  0  0  0
  7  8  1  0  0  0  0
  9 10  1  0  0  0  0
 10 11  2  0  0  0  0
M  END
>  <CHROM.1>
27.75801042,-0.44628035,-15.70025324,-0.97640194,-0.87357748,1.88592628

>  <Name>
ligand

>  <RI>
0

>  <Rbt.Current_Directory>
/home/itssahil/PROJECTS/Mol_Feturizer/New_Systems/rnas/3RKF

>  <Rbt.Executable>
rbdock ($Id: //depot/dev/client3/rdock/2013.1/src/exe/rbdock.cxx#4 $)

>  <Rbt.Library>
libRbt.so (2013.1, Build901 2013/11/27)

>  <Rbt.Parameter_File>
/export/apps/rDock/src/rDock_2013.1_src/data/scripts/dock_solv.prm

>  <Rbt.Receptor>
prm/blind_docking_40.prm

>  <SCORE>
-8.33247

>  <SCORE.INTER>
-8.33308

>  <SCORE.INTER.CONST>
1

>  <SCORE.INTER.POLAR>
0

>  <SCORE.INTER.ROT>
0

>  <SCORE.INTER.SOLV>
5.68592

>  <SCORE.INTER.VDW>
-11.0507

>  <SCORE.INTER.norm>
-0.757553

>  <SCORE.INTRA>
0

>  <SCORE.INTRA.DIHEDRAL>
0

>  <SCORE.INTRA.DIHEDRAL.0>
0

>  <SCORE.INTRA.POLAR>
0

>  <SCORE.INTRA.POLAR.0>
0

>  <SCORE.INTRA.REPUL>
0

>  <SCORE.INTRA.REPUL.0>
0

>  <SCORE.INTRA.SOLV>
0

>  <SCORE.INTRA.SOLV.lig_0>
-28.6198

>  <SCORE.INTRA.VDW>
0

>  <SCORE.INTRA.VDW.0>
0

>  <SCORE.INTRA.norm>
0

>  <SCORE.RESTR>
0.000617037

>  <SCORE.RESTR.CAVITY>
0.000617037

>  <SCORE.RESTR.norm>
5.60942e-05

>  <SCORE.SYSTEM>
0

>  <SCORE.SYSTEM.CONST>
0

>  <SCORE.SYSTEM.DIHEDRAL>
0

>  <SCORE.SYSTEM.SOLV>
0

>  <SCORE.SYSTEM.norm>
0

>  <SCORE.heavy>
11

>  <SCORE.norm>
-0.757497

>  <RMSD>
25.571

$$$$
ligand
 OpenBabel11021811483D
libRbt.so/2013.1/901 2013/11/27
 11 12  0  0  0  0  0  0  0  0999 V2000
   29.9088   -7.1869  -14.4116 N   0  0  0  0  0  0  0  0  0  0  0  0
   29.8997   -6.0773  -15.1653 C   0  0  0  0  0  0  0  0  0  0  0  0
   29.8819   -6.2031  -16.5880 N   0  0  0  0  0  0  0  0  0  0  0  0
   29.9069   -4.8599  -14.6120 N   0  0  0  0  0  0  0  0  0  0  0  0
   29.9251   -4.7161  -13.2383 C   0  0  0  0  0  0  0  0  0  0  0  0
   29.9366   -5.8396  -12.4535 C   0  0  0  0  0  0  0  0  0  0  0  0
   29.9272   -7.1360  -13.0644 C   0  0  0  0  0  0  0  0  0  0  0  0
   29.9334   -8.6149  -12.0919 S   0  0  0  0  0  0  0  0  0  0  0  0
   29.9553   -5.4307  -11.1446 N   0  0  0  0  0  0  0  0  0  0  0  0
   29.9562   -4.0723  -11.1234 C   0  0  0  0  0  0  0  0  0  0  0  0
   29.9374   -3.6112  -12.4058 N   0  0  0  0  0  0  0  0  0  0  0  0
  1  2  2  0  0  0  0
  1  7  1  0  0  0  0
  2  3  1  0  0  0  0
  2  4  1  0  0  0  0
  4  5  2  0  0  0  0
  5  6  1  0  0  0  0
  5 11  1  0  0  0  0
  6  7  2  0  0  0  0
  6  9  1  0  0  0  0
  7  8  1  0  0  0  0
  9 10  1  0  0  0  0
 10 11  2  0  0  0  0
M  END
>  <CHROM.1>
29.92517917,-6.13855992,-13.17654821,2.28524430,1.55775092,3.00943592

>  <Name>
ligand

>  <RI>
0

>  <Rbt.Current_Directory>
/home/itssahil/PROJECTS/Mol_Feturizer/New_Systems/rnas/3RKF

>  <Rbt.Executable>
rbdock ($Id: //depot/dev/client3/rdock/2013.1/src/exe/rbdock.cxx#4 $)

>  <Rbt.Library>
libRbt.so (2013.1, Build901 2013/11/27)

>  <Rbt.Parameter_File>
/export/apps/rDock/src/rDock_2013.1_src/data/scripts/dock_solv.prm

>  <Rbt.Receptor>
prm/blind_docking_40.prm

>  <SCORE>
-7.03478

>  <SCORE.INTER>
-7.03478

>  <SCORE.INTER.CONST>
1

>  <SCORE.INTER.POLAR>
0

>  <SCORE.INTER.ROT>
0

>  <SCORE.INTER.SOLV>
3.03587

>  <SCORE.INTER.VDW>
-9.30181

>  <SCORE.INTER.norm>
-0.639526

>  <SCORE.INTRA>
0

>  <SCORE.INTRA.DIHEDRAL>
0

>  <SCORE.INTRA.DIHEDRAL.0>
0

>  <SCORE.INTRA.POLAR>
0

>  <SCORE.INTRA.POLAR.0>
0

>  <SCORE.INTRA.REPUL>
0

>  <SCORE.INTRA.REPUL.0>
0

>  <SCORE.INTRA.SOLV>
0

>  <SCORE.INTRA.SOLV.lig_0>
-28.6198

>  <SCORE.INTRA.VDW>
0

>  <SCORE.INTRA.VDW.0>
0

>  <SCORE.INTRA.norm>
0

>  <SCORE.RESTR>
0

>  <SCORE.RESTR.CAVITY>
0

>  <SCORE.RESTR.norm>
0

>  <SCORE.SYSTEM>
0

>  <SCORE.SYSTEM.CONST>
0

>  <SCORE.SYSTEM.DIHEDRAL>
0

>  <SCORE.SYSTEM.SOLV>
0

>  <SCORE.SYSTEM.norm>
0

>  <SCORE.heavy>
11

>  <SCORE.norm>
-0.639526

>  <RMSD>
25.604

$$$$
ligand
 OpenBabel11021811483D
libRbt.so/2013.1/901 2013/11/27
 11 12  0  0  0  0  0  0  0  0999 V2000
   28.7978   -1.5721  -16.1080 N   0  0  0  0  0  0  0  0  0  0  0  0
   28.7105   -1.8363  -14.7958 C   0  0  0  0  0  0  0  0  0  0  0  0
   29.2336   -3.0689  -14.2984 N   0  0  0  0  0  0  0  0  0  0  0  0
   28.1452   -0.9708  -13.9476 N   0  0  0  0  0  0  0  0  0  0  0  0
   27.6324    0.2262  -14.4081 C   0  0  0  0  0  0  0  0  0  0  0  0
   27.7115    0.5110  -15.7463 C   0  0  0  0  0  0  0  0  0  0  0  0
   28.3223   -0.4281  -16.6402 C   0  0  0  0  0  0  0  0  0  0  0  0
   28.4545   -0.1004  -18.3745 S   0  0  0  0  0  0  0  0  0  0  0  0
   27.1375    1.7409  -15.9431 N   0  0  0  0  0  0  0  0  0  0  0  0
   26.7093    2.2074  -14.7411 C   0  0  0  0  0  0  0  0  0  0  0  0
   27.0053    1.2875  -13.7801 N   0  0  0  0  0  0  0  0  0  0  0  0
  1  2  2  0  0  0  0
  1  7  1  0  0  0  0
  2  3  1  0  0  0  0
  2  4  1  0  0  0  0
  4  5  2  0  0  0  0
  5  6  1  0  0  0  0
  5 11  1  0  0  0  0
  6  7  2  0  0  0  0
  6  9  1  0  0  0  0
  7  8  1  0  0  0  0
  9 10  1  0  0  0  0
 10 11  2  0  0  0  0
M  END
>  <CHROM.1>
28.05224479,-0.19206051,-15.70271544,-0.24841920,-1.09135667,1.89734961

>  <Name>
ligand

>  <RI>
0

>  <Rbt.Current_Directory>
/home/itssahil/PROJECTS/Mol_Feturizer/New_Systems/rnas/3RKF

>  <Rbt.Executable>
rbdock ($Id: //depot/dev/client3/rdock/2013.1/src/exe/rbdock.cxx#4 $)

>  <Rbt.Library>
libRbt.so (2013.1, Build901 2013/11/27)

>  <Rbt.Parameter_File>
/export/apps/rDock/src/rDock_2013.1_src/data/scripts/dock_solv.prm

>  <Rbt.Receptor>
prm/blind_docking_40.prm

>  <SCORE>
-8.01614

>  <SCORE.INTER>
-8.62148

>  <SCORE.INTER.CONST>
1

>  <SCORE.INTER.POLAR>
0

>  <SCORE.INTER.ROT>
0

>  <SCORE.INTER.SOLV>
5.80462

>  <SCORE.INTER.VDW>
-11.2825

>  <SCORE.INTER.norm>
-0.783771

>  <SCORE.INTRA>
0

>  <SCORE.INTRA.DIHEDRAL>
0

>  <SCORE.INTRA.DIHEDRAL.0>
0

>  <SCORE.INTRA.POLAR>
0

>  <SCORE.INTRA.POLAR.0>
0

>  <SCORE.INTRA.REPUL>
0

>  <SCORE.INTRA.REPUL.0>
0

>  <SCORE.INTRA.SOLV>
0

>  <SCORE.INTRA.SOLV.lig_0>
-28.6198

>  <SCORE.INTRA.VDW>
0

>  <SCORE.INTRA.VDW.0>
0

>  <SCORE.INTRA.norm>
0

>  <SCORE.RESTR>
0.605333

>  <SCORE.RESTR.CAVITY>
0.605333

>  <SCORE.RESTR.norm>
0.0550303

>  <SCORE.SYSTEM>
0

>  <SCORE.SYSTEM.CONST>
0

>  <SCORE.SYSTEM.DIHEDRAL>
0

>  <SCORE.SYSTEM.SOLV>
0

>  <SCORE.SYSTEM.norm>
0

>  <SCORE.heavy>
11

>  <SCORE.norm>
-0.72874

>  <RMSD>
25.812

$$$$
ligand
 OpenBabel11021811483D
libRbt.so/2013.1/901 2013/11/27
 11 12  0  0  0  0  0  0  0  0999 V2000
   28.9613   -1.8669  -16.1001 N   0  0  0  0  0  0  0  0  0  0  0  0
   29.0163   -2.6596  -15.0194 C   0  0  0  0  0  0  0  0  0  0  0  0
   29.7723   -3.8699  -15.0826 N   0  0  0  0  0  0  0  0  0  0  0  0
   28.3793   -2.3394  -13.8882 N   0  0  0  0  0  0  0  0  0  0  0  0
   27.6420   -1.1742  -13.8064 C   0  0  0  0  0  0  0  0  0  0  0  0
   27.5736   -0.3539  -14.9021 C   0  0  0  0  0  0  0  0  0  0  0  0
   28.2642   -0.7127  -16.1055 C   0  0  0  0  0  0  0  0  0  0  0  0
   28.2116    0.3189  -17.5428 S   0  0  0  0  0  0  0  0  0  0  0  0
   26.7902    0.7208  -14.5671 N   0  0  0  0  0  0  0  0  0  0  0  0
   26.3804    0.5639  -13.2813 C   0  0  0  0  0  0  0  0  0  0  0  0
   26.8954   -0.5996  -12.7932 N   0  0  0  0  0  0  0  0  0  0  0  0
  1  2  2  0  0  0  0
  1  7  1  0  0  0  0
  2  3  1  0  0  0  0
  2  4  1  0  0  0  0
  4  5  2  0  0  0  0
  5  6  1  0  0  0  0
  5 11  1  0  0  0  0
  6  7  2  0  0  0  0
  6  9  1  0  0  0  0
  7  8  1  0  0  0  0
  9 10  1  0  0  0  0
 10 11  2  0  0  0  0
M  END
>  <CHROM.1>
28.02872231,-0.93754008,-15.15603792,-0.46066955,-0.94545393,2.14835168

>  <Name>
ligand

>  <RI>
0

>  <Rbt.Current_Directory>
/home/itssahil/PROJECTS/Mol_Feturizer/New_Systems/rnas/3RKF

>  <Rbt.Executable>
rbdock ($Id: //depot/dev/client3/rdock/2013.1/src/exe/rbdock.cxx#4 $)

>  <Rbt.Library>
libRbt.so (2013.1, Build901 2013/11/27)

>  <Rbt.Parameter_File>
/export/apps/rDock/src/rDock_2013.1_src/data/scripts/dock_solv.prm

>  <Rbt.Receptor>
prm/blind_docking_40.prm

>  <SCORE>
-7.05285

>  <SCORE.INTER>
-7.05296

>  <SCORE.INTER.CONST>
1

>  <SCORE.INTER.POLAR>
0

>  <SCORE.INTER.ROT>
0

>  <SCORE.INTER.SOLV>
5.16848

>  <SCORE.INTER.VDW>
-10.0248

>  <SCORE.INTER.norm>
-0.641178

>  <SCORE.INTRA>
0

>  <SCORE.INTRA.DIHEDRAL>
0

>  <SCORE.INTRA.DIHEDRAL.0>
0

>  <SCORE.INTRA.POLAR>
0

>  <SCORE.INTRA.POLAR.0>
0

>  <SCORE.INTRA.REPUL>
0

>  <SCORE.INTRA.REPUL.0>
0

>  <SCORE.INTRA.SOLV>
0

>  <SCORE.INTRA.SOLV.lig_0>
-28.6198

>  <SCORE.INTRA.VDW>
0

>  <SCORE.INTRA.VDW.0>
0

>  <SCORE.INTRA.norm>
0

>  <SCORE.RESTR>
0.000113185

>  <SCORE.RESTR.CAVITY>
0.000113185

>  <SCORE.RESTR.norm>
1.02896e-05

>  <SCORE.SYSTEM>
0

>  <SCORE.SYSTEM.CONST>
0

>  <SCORE.SYSTEM.DIHEDRAL>
0

>  <SCORE.SYSTEM.SOLV>
0

>  <SCORE.SYSTEM.norm>
0

>  <SCORE.heavy>
11

>  <SCORE.norm>
-0.641168

>  <RMSD>
25.893

$$$$
ligand
 OpenBabel11021811483D
libRbt.so/2013.1/901 2013/11/27
 11 12  0  0  0  0  0  0  0  0999 V2000
   28.7691   -2.5423  -14.6044 N   0  0  0  0  0  0  0  0  0  0  0  0
   29.0457   -2.1816  -15.8664 C   0  0  0  0  0  0  0  0  0  0  0  0
   29.7998   -3.0688  -16.6938 N   0  0  0  0  0  0  0  0  0  0  0  0
   28.6304   -1.0115  -16.3629 N   0  0  0  0  0  0  0  0  0  0  0  0
   27.9008   -0.1387  -15.5794 C   0  0  0  0  0  0  0  0  0  0  0  0
   27.6112   -0.4908  -14.2870 C   0  0  0  0  0  0  0  0  0  0  0  0
   28.0635   -1.7497  -13.7726 C   0  0  0  0  0  0  0  0  0  0  0  0
   27.7068   -2.2507  -12.1129 S   0  0  0  0  0  0  0  0  0  0  0  0
   26.8887    0.5334  -13.7303 N   0  0  0  0  0  0  0  0  0  0  0  0
   26.7360    1.5047  -14.6680 C   0  0  0  0  0  0  0  0  0  0  0  0
   27.3533    1.1094  -15.8169 N   0  0  0  0  0  0  0  0  0  0  0  0
  1  2  2  0  0  0  0
  1  7  1  0  0  0  0
  2  3  1  0  0  0  0
  2  4  1  0  0  0  0
  4  5  2  0  0  0  0
  5  6  1  0  0  0  0
  5 11  1  0  0  0  0
  6  7  2  0  0  0  0
  6  9  1  0  0  0  0
  7  8  1  0  0  0  0
  9 10  1  0  0  0  0
 10 11  2  0  0  0  0
M  END
>  <CHROM.1>
28.01699915,-1.10865500,-14.54359328,-0.79268327,1.01160992,-0.94705918

>  <Name>
ligand

>  <RI>
0

>  <Rbt.Current_Directory>
/home/itssahil/PROJECTS/Mol_Feturizer/New_Systems/rnas/3RKF

>  <Rbt.Executable>
rbdock ($Id: //depot/dev/client3/rdock/2013.1/src/exe/rbdock.cxx#4 $)

>  <Rbt.Library>
libRbt.so (2013.1, Build901 2013/11/27)

>  <Rbt.Parameter_File>
/export/apps/rDock/src/rDock_2013.1_src/data/scripts/dock_solv.prm

>  <Rbt.Receptor>
prm/blind_docking_40.prm

>  <SCORE>
-8.11021

>  <SCORE.INTER>
-8.11125

>  <SCORE.INTER.CONST>
1

>  <SCORE.INTER.POLAR>
0

>  <SCORE.INTER.ROT>
0

>  <SCORE.INTER.SOLV>
4.44306

>  <SCORE.INTER.VDW>
-10.4885

>  <SCORE.INTER.norm>
-0.737386

>  <SCORE.INTRA>
0

>  <SCORE.INTRA.DIHEDRAL>
0

>  <SCORE.INTRA.DIHEDRAL.0>
0

>  <SCORE.INTRA.POLAR>
0

>  <SCORE.INTRA.POLAR.0>
0

>  <SCORE.INTRA.REPUL>
0

>  <SCORE.INTRA.REPUL.0>
0

>  <SCORE.INTRA.SOLV>
0

>  <SCORE.INTRA.SOLV.lig_0>
-28.6198

>  <SCORE.INTRA.VDW>
0

>  <SCORE.INTRA.VDW.0>
0

>  <SCORE.INTRA.norm>
0

>  <SCORE.RESTR>
0.00103517

>  <SCORE.RESTR.CAVITY>
0.00103517

>  <SCORE.RESTR.norm>
9.4106e-05

>  <SCORE.SYSTEM>
0

>  <SCORE.SYSTEM.CONST>
0

>  <SCORE.SYSTEM.DIHEDRAL>
0

>  <SCORE.SYSTEM.SOLV>
0

>  <SCORE.SYSTEM.norm>
0

>  <SCORE.heavy>
11

>  <SCORE.norm>
-0.737292

>  <RMSD>
25.992

$$$$
ligand
 OpenBabel11021811483D
libRbt.so/2013.1/901 2013/11/27
 11 12  0  0  0  0  0  0  0  0999 V2000
   28.7801   -2.5130  -14.5929 N   0  0  0  0  0  0  0  0  0  0  0  0
   29.0591   -2.1626  -15.8573 C   0  0  0  0  0  0  0  0  0  0  0  0
   29.8252   -3.0511  -16.6722 N   0  0  0  0  0  0  0  0  0  0  0  0
   28.6351   -1.0016  -16.3676 N   0  0  0  0  0  0  0  0  0  0  0  0
   27.8938   -0.1278  -15.5963 C   0  0  0  0  0  0  0  0  0  0  0  0
   27.6017   -0.4694  -14.3016 C   0  0  0  0  0  0  0  0  0  0  0  0
   28.0633   -1.7187  -13.7724 C   0  0  0  0  0  0  0  0  0  0  0  0
   27.7039   -2.2061  -12.1093 S   0  0  0  0  0  0  0  0  0  0  0  0
   26.8671    0.5536  -13.7587 N   0  0  0  0  0  0  0  0  0  0  0  0
   26.7096    1.5138  -14.7069 C   0  0  0  0  0  0  0  0  0  0  0  0
   27.3357    1.1126  -15.8490 N   0  0  0  0  0  0  0  0  0  0  0  0
  1  2  2  0  0  0  0
  1  7  1  0  0  0  0
  2  3  1  0  0  0  0
  2  4  1  0  0  0  0
  4  5  2  0  0  0  0
  5  6  1  0  0  0  0
  5 11  1  0  0  0  0
  6  7  2  0  0  0  0
  6  9  1  0  0  0  0
  7  8  1  0  0  0  0
  9 10  1  0  0  0  0
 10 11  2  0  0  0  0
M  END
>  <CHROM.1>
28.01437181,-1.08599864,-14.55010681,-0.78937962,1.00135260,-0.96006104

>  <Name>
ligand

>  <RI>
0

>  <Rbt.Current_Directory>
/home/itssahil/PROJECTS/Mol_Feturizer/New_Systems/rnas/3RKF

>  <Rbt.Executable>
rbdock ($Id: //depot/dev/client3/rdock/2013.1/src/exe/rbdock.cxx#4 $)

>  <Rbt.Library>
libRbt.so (2013.1, Build901 2013/11/27)

>  <Rbt.Parameter_File>
/export/apps/rDock/src/rDock_2013.1_src/data/scripts/dock_solv.prm

>  <Rbt.Receptor>
prm/blind_docking_40.prm

>  <SCORE>
-8.09383

>  <SCORE.INTER>
-8.09457

>  <SCORE.INTER.CONST>
1

>  <SCORE.INTER.POLAR>
0

>  <SCORE.INTER.ROT>
0

>  <SCORE.INTER.SOLV>
4.42799

>  <SCORE.INTER.VDW>
-10.4724

>  <SCORE.INTER.norm>
-0.73587

>  <SCORE.INTRA>
0

>  <SCORE.INTRA.DIHEDRAL>
0

>  <SCORE.INTRA.DIHEDRAL.0>
0

>  <SCORE.INTRA.POLAR>
0

>  <SCORE.INTRA.POLAR.0>
0

>  <SCORE.INTRA.REPUL>
0

>  <SCORE.INTRA.REPUL.0>
0

>  <SCORE.INTRA.SOLV>
0

>  <SCORE.INTRA.SOLV.lig_0>
-28.6198

>  <SCORE.INTRA.VDW>
0

>  <SCORE.INTRA.VDW.0>
0

>  <SCORE.INTRA.norm>
0

>  <SCORE.RESTR>
0.000741726

>  <SCORE.RESTR.CAVITY>
0.000741726

>  <SCORE.RESTR.norm>
6.74297e-05

>  <SCORE.SYSTEM>
0

>  <SCORE.SYSTEM.CONST>
0

>  <SCORE.SYSTEM.DIHEDRAL>
0

>  <SCORE.SYSTEM.SOLV>
0

>  <SCORE.SYSTEM.norm>
0

>  <SCORE.heavy>
11

>  <SCORE.norm>
-0.735802

>  <RMSD>
25.992

$$$$
ligand
 OpenBabel11021811483D
libRbt.so/2013.1/901 2013/11/27
 11 12  0  0  0  0  0  0  0  0999 V2000
   28.7741   -2.5477  -14.5998 N   0  0  0  0  0  0  0  0  0  0  0  0
   29.0463   -2.1845  -15.8621 C   0  0  0  0  0  0  0  0  0  0  0  0
   29.7978   -3.0699  -16.6937 N   0  0  0  0  0  0  0  0  0  0  0  0
   28.6288   -1.0137  -16.3549 N   0  0  0  0  0  0  0  0  0  0  0  0
   27.9016   -0.1426  -15.5672 C   0  0  0  0  0  0  0  0  0  0  0  0
   27.6166   -0.4973  -14.2745 C   0  0  0  0  0  0  0  0  0  0  0  0
   28.0711   -1.7569  -13.7641 C   0  0  0  0  0  0  0  0  0  0  0  0
   27.7204   -2.2613  -12.1041 S   0  0  0  0  0  0  0  0  0  0  0  0
   26.8957    0.5256  -13.7133 N   0  0  0  0  0  0  0  0  0  0  0  0
   26.7394    1.4986  -14.6486 C   0  0  0  0  0  0  0  0  0  0  0  0
   27.3528    1.1057  -15.8005 N   0  0  0  0  0  0  0  0  0  0  0  0
  1  2  2  0  0  0  0
  1  7  1  0  0  0  0
  2  3  1  0  0  0  0
  2  4  1  0  0  0  0
  4  5  2  0  0  0  0
  5  6  1  0  0  0  0
  5 11  1  0  0  0  0
  6  7  2  0  0  0  0
  6  9  1  0  0  0  0
  7  8  1  0  0  0  0
  9 10  1  0  0  0  0
 10 11  2  0  0  0  0
M  END
>  <CHROM.1>
28.02173268,-1.11449300,-14.53365303,-0.78698610,1.01333268,-0.95000390

>  <Name>
ligand

>  <RI>
0

>  <Rbt.Current_Directory>
/home/itssahil/PROJECTS/Mol_Feturizer/New_Systems/rnas/3RKF

>  <Rbt.Executable>
rbdock ($Id: //depot/dev/client3/rdock/2013.1/src/exe/rbdock.cxx#4 $)

>  <Rbt.Library>
libRbt.so (2013.1, Build901 2013/11/27)

>  <Rbt.Parameter_File>
/export/apps/rDock/src/rDock_2013.1_src/data/scripts/dock_solv.prm

>  <Rbt.Receptor>
prm/blind_docking_40.prm

>  <SCORE>
-8.10525

>  <SCORE.INTER>
-8.10525

>  <SCORE.INTER.CONST>
1

>  <SCORE.INTER.POLAR>
0

>  <SCORE.INTER.ROT>
0

>  <SCORE.INTER.SOLV>
4.44005

>  <SCORE.INTER.VDW>
-10.4835

>  <SCORE.INTER.norm>
-0.736841

>  <SCORE.INTRA>
0

>  <SCORE.INTRA.DIHEDRAL>
0

>  <SCORE.INTRA.DIHEDRAL.0>
0

>  <SCORE.INTRA.POLAR>
0

>  <SCORE.INTRA.POLAR.0>
0

>  <SCORE.INTRA.REPUL>
0

>  <SCORE.INTRA.REPUL.0>
0

>  <SCORE.INTRA.SOLV>
0

>  <SCORE.INTRA.SOLV.lig_0>
-28.6198

>  <SCORE.INTRA.VDW>
0

>  <SCORE.INTRA.VDW.0>
0

>  <SCORE.INTRA.norm>
0

>  <SCORE.RESTR>
0

>  <SCORE.RESTR.CAVITY>
0

>  <SCORE.RESTR.norm>
0

>  <SCORE.SYSTEM>
0

>  <SCORE.SYSTEM.CONST>
0

>  <SCORE.SYSTEM.DIHEDRAL>
0

>  <SCORE.SYSTEM.SOLV>
0

>  <SCORE.SYSTEM.norm>
0

>  <SCORE.heavy>
11

>  <SCORE.norm>
-0.736841

>  <RMSD>
25.998

$$$$
ligand
 OpenBabel11021811483D
libRbt.so/2013.1/901 2013/11/27
 11 12  0  0  0  0  0  0  0  0999 V2000
   29.8182   -6.1488  -14.0327 N   0  0  0  0  0  0  0  0  0  0  0  0
   29.9336   -4.9544  -14.6321 C   0  0  0  0  0  0  0  0  0  0  0  0
   29.8627   -4.8817  -16.0569 N   0  0  0  0  0  0  0  0  0  0  0  0
   30.1129   -3.8345  -13.9238 N   0  0  0  0  0  0  0  0  0  0  0  0
   30.1852   -3.8829  -12.5452 C   0  0  0  0  0  0  0  0  0  0  0  0
   30.0712   -5.0955  -11.9169 C   0  0  0  0  0  0  0  0  0  0  0  0
   29.8779   -6.2850  -12.6926 C   0  0  0  0  0  0  0  0  0  0  0  0
   29.7174   -7.8718  -11.9250 S   0  0  0  0  0  0  0  0  0  0  0  0
   30.1767   -4.8747  -10.5674 N   0  0  0  0  0  0  0  0  0  0  0  0
   30.3543   -3.5427  -10.3672 C   0  0  0  0  0  0  0  0  0  0  0  0
   30.3623   -2.9122  -11.5754 N   0  0  0  0  0  0  0  0  0  0  0  0
  1  2  2  0  0  0  0
  1  7  1  0  0  0  0
  2  3  1  0  0  0  0
  2  4  1  0  0  0  0
  4  5  2  0  0  0  0
  5  6  1  0  0  0  0
  5 11  1  0  0  0  0
  6  7  2  0  0  0  0
  6  9  1  0  0  0  0
  7  8  1  0  0  0  0
  9 10  1  0  0  0  0
 10 11  2  0  0  0  0
M  END
>  <CHROM.1>
30.00238472,-5.28921777,-12.67187379,-2.84589807,1.43337696,1.99346509

>  <Name>
ligand

>  <RI>
0

>  <Rbt.Current_Directory>
/home/itssahil/PROJECTS/Mol_Feturizer/New_Systems/rnas/3RKF

>  <Rbt.Executable>
rbdock ($Id: //depot/dev/client3/rdock/2013.1/src/exe/rbdock.cxx#4 $)

>  <Rbt.Library>
libRbt.so (2013.1, Build901 2013/11/27)

>  <Rbt.Parameter_File>
/export/apps/rDock/src/rDock_2013.1_src/data/scripts/dock_solv.prm

>  <Rbt.Receptor>
prm/blind_docking_100.prm

>  <SCORE>
-6.60316

>  <SCORE.INTER>
-6.60316

>  <SCORE.INTER.CONST>
1

>  <SCORE.INTER.POLAR>
0

>  <SCORE.INTER.ROT>
0

>  <SCORE.INTER.SOLV>
2.5622

>  <SCORE.INTER.VDW>
-8.85617

>  <SCORE.INTER.norm>
-0.600287

>  <SCORE.INTRA>
0

>  <SCORE.INTRA.DIHEDRAL>
0

>  <SCORE.INTRA.DIHEDRAL.0>
0

>  <SCORE.INTRA.POLAR>
0

>  <SCORE.INTRA.POLAR.0>
0

>  <SCORE.INTRA.REPUL>
0

>  <SCORE.INTRA.REPUL.0>
0

>  <SCORE.INTRA.SOLV>
0

>  <SCORE.INTRA.SOLV.lig_0>
-28.6198

>  <SCORE.INTRA.VDW>
0

>  <SCORE.INTRA.VDW.0>
0

>  <SCORE.INTRA.norm>
0

>  <SCORE.RESTR>
0

>  <SCORE.RESTR.CAVITY>
0

>  <SCORE.RESTR.norm>
0

>  <SCORE.SYSTEM>
0

>  <SCORE.SYSTEM.CONST>
0

>  <SCORE.SYSTEM.DIHEDRAL>
0

>  <SCORE.SYSTEM.SOLV>
0

>  <SCORE.SYSTEM.norm>
0

>  <SCORE.heavy>
11

>  <SCORE.norm>
-0.600287

>  <RMSD>
26.225

$$$$
ligand
 OpenBabel11021811483D
libRbt.so/2013.1/901 2013/11/27
 11 12  0  0  0  0  0  0  0  0999 V2000
   27.9731    1.0375  -14.5282 N   0  0  0  0  0  0  0  0  0  0  0  0
   27.3215   -0.1275  -14.3959 C   0  0  0  0  0  0  0  0  0  0  0  0
   27.8780   -1.1447  -13.5617 N   0  0  0  0  0  0  0  0  0  0  0  0
   26.1649   -0.3538  -15.0277 N   0  0  0  0  0  0  0  0  0  0  0  0
   25.6100    0.6161  -15.8398 C   0  0  0  0  0  0  0  0  0  0  0  0
   26.2639    1.8114  -15.9876 C   0  0  0  0  0  0  0  0  0  0  0  0
   27.5018    2.0365  -15.3014 C   0  0  0  0  0  0  0  0  0  0  0  0
   28.3778    3.5668  -15.4555 S   0  0  0  0  0  0  0  0  0  0  0  0
   25.5172    2.5905  -16.8340 N   0  0  0  0  0  0  0  0  0  0  0  0
   24.4175    1.8834  -17.2035 C   0  0  0  0  0  0  0  0  0  0  0  0
   24.4554    0.6618  -16.6005 N   0  0  0  0  0  0  0  0  0  0  0  0
  1  2  2  0  0  0  0
  1  7  1  0  0  0  0
  2  3  1  0  0  0  0
  2  4  1  0  0  0  0
  4  5  2  0  0  0  0
  5  6  1  0  0  0  0
  5 11  1  0  0  0  0
  6  7  2  0  0  0  0
  6  9  1  0  0  0  0
  7  8  1  0  0  0  0
  9 10  1  0  0  0  0
 10 11  2  0  0  0  0
M  END
>  <CHROM.1>
26.73468653,1.42039979,-15.50003470,0.20372352,0.52531548,2.70175641

>  <Name>
ligand

>  <RI>
0

>  <Rbt.Current_Directory>
/home/itssahil/PROJECTS/Mol_Feturizer/New_Systems/rnas/3RKF

>  <Rbt.Executable>
rbdock ($Id: //depot/dev/client3/rdock/2013.1/src/exe/rbdock.cxx#4 $)

>  <Rbt.Library>
libRbt.so (2013.1, Build901 2013/11/27)

>  <Rbt.Parameter_File>
/export/apps/rDock/src/rDock_2013.1_src/data/scripts/dock_solv.prm

>  <Rbt.Receptor>
prm/blind_docking_40.prm

>  <SCORE>
-1.65206

>  <SCORE.INTER>
-2.47195

>  <SCORE.INTER.CONST>
1

>  <SCORE.INTER.POLAR>
0

>  <SCORE.INTER.ROT>
0

>  <SCORE.INTER.SOLV>
11.9639

>  <SCORE.INTER.VDW>
-9.23595

>  <SCORE.INTER.norm>
-0.224723

>  <SCORE.INTRA>
0

>  <SCORE.INTRA.DIHEDRAL>
0

>  <SCORE.INTRA.DIHEDRAL.0>
0

>  <SCORE.INTRA.POLAR>
0

>  <SCORE.INTRA.POLAR.0>
0

>  <SCORE.INTRA.REPUL>
0

>  <SCORE.INTRA.REPUL.0>
0

>  <SCORE.INTRA.SOLV>
0

>  <SCORE.INTRA.SOLV.lig_0>
-28.6198

>  <SCORE.INTRA.VDW>
0

>  <SCORE.INTRA.VDW.0>
0

>  <SCORE.INTRA.norm>
0

>  <SCORE.RESTR>
0.819895

>  <SCORE.RESTR.CAVITY>
0.819895

>  <SCORE.RESTR.norm>
0.0745359

>  <SCORE.SYSTEM>
0

>  <SCORE.SYSTEM.CONST>
0

>  <SCORE.SYSTEM.DIHEDRAL>
0

>  <SCORE.SYSTEM.SOLV>
0

>  <SCORE.SYSTEM.norm>
0

>  <SCORE.heavy>
11

>  <SCORE.norm>
-0.150187

>  <RMSD>
26.712

$$$$
ligand
 OpenBabel11021811483D
libRbt.so/2013.1/901 2013/11/27
 11 12  0  0  0  0  0  0  0  0999 V2000
   27.9633    1.0219  -14.5214 N   0  0  0  0  0  0  0  0  0  0  0  0
   27.3080   -0.1416  -14.3944 C   0  0  0  0  0  0  0  0  0  0  0  0
   27.8593   -1.1629  -13.5617 N   0  0  0  0  0  0  0  0  0  0  0  0
   26.1525   -0.3627  -15.0301 N   0  0  0  0  0  0  0  0  0  0  0  0
   25.6027    0.6112  -15.8408 C   0  0  0  0  0  0  0  0  0  0  0  0
   26.2604    1.8051  -15.9832 C   0  0  0  0  0  0  0  0  0  0  0  0
   27.4970    2.0246  -15.2929 C   0  0  0  0  0  0  0  0  0  0  0  0
   28.3778    3.5529  -15.4398 S   0  0  0  0  0  0  0  0  0  0  0  0
   25.5183    2.5889  -16.8293 N   0  0  0  0  0  0  0  0  0  0  0  0
   24.4176    1.8860  -17.2040 C   0  0  0  0  0  0  0  0  0  0  0  0
   24.4504    0.6625  -16.6046 N   0  0  0  0  0  0  0  0  0  0  0  0
  1  2  2  0  0  0  0
  1  7  1  0  0  0  0
  2  3  1  0  0  0  0
  2  4  1  0  0  0  0
  4  5  2  0  0  0  0
  5  6  1  0  0  0  0
  5 11  1  0  0  0  0
  6  7  2  0  0  0  0
  6  9  1  0  0  0  0
  7  8  1  0  0  0  0
  9 10  1  0  0  0  0
 10 11  2  0  0  0  0
M  END
>  <CHROM.1>
26.72871626,1.41132667,-15.49545873,0.20808682,0.52664015,2.70258461

>  <Name>
ligand

>  <RI>
0

>  <Rbt.Current_Directory>
/home/itssahil/PROJECTS/Mol_Feturizer/New_Systems/rnas/3RKF

>  <Rbt.Executable>
rbdock ($Id: //depot/dev/client3/rdock/2013.1/src/exe/rbdock.cxx#4 $)

>  <Rbt.Library>
libRbt.so (2013.1, Build901 2013/11/27)

>  <Rbt.Parameter_File>
/export/apps/rDock/src/rDock_2013.1_src/data/scripts/dock_solv.prm

>  <Rbt.Receptor>
prm/blind_docking_40.prm

>  <SCORE>
-1.59659

>  <SCORE.INTER>
-2.40877

>  <SCORE.INTER.CONST>
1

>  <SCORE.INTER.POLAR>
0

>  <SCORE.INTER.ROT>
0

>  <SCORE.INTER.SOLV>
11.9267

>  <SCORE.INTER.VDW>
-9.18142

>  <SCORE.INTER.norm>
-0.218979

>  <SCORE.INTRA>
0

>  <SCORE.INTRA.DIHEDRAL>
0

>  <SCORE.INTRA.DIHEDRAL.0>
0

>  <SCORE.INTRA.POLAR>
0

>  <SCORE.INTRA.POLAR.0>
0

>  <SCORE.INTRA.REPUL>
0

>  <SCORE.INTRA.REPUL.0>
0

>  <SCORE.INTRA.SOLV>
0

>  <SCORE.INTRA.SOLV.lig_0>
-28.6198

>  <SCORE.INTRA.VDW>
0

>  <SCORE.INTRA.VDW.0>
0

>  <SCORE.INTRA.norm>
0

>  <SCORE.RESTR>
0.812174

>  <SCORE.RESTR.CAVITY>
0.812174

>  <SCORE.RESTR.norm>
0.073834

>  <SCORE.SYSTEM>
0

>  <SCORE.SYSTEM.CONST>
0

>  <SCORE.SYSTEM.DIHEDRAL>
0

>  <SCORE.SYSTEM.SOLV>
0

>  <SCORE.SYSTEM.norm>
0

>  <SCORE.heavy>
11

>  <SCORE.norm>
-0.145145

>  <RMSD>
26.715

$$$$
ligand
 OpenBabel11021811483D
libRbt.so/2013.1/901 2013/11/27
 11 12  0  0  0  0  0  0  0  0999 V2000
   27.9695    1.0403  -14.5226 N   0  0  0  0  0  0  0  0  0  0  0  0
   27.3208   -0.1270  -14.3963 C   0  0  0  0  0  0  0  0  0  0  0  0
   27.8787   -1.1460  -13.5653 N   0  0  0  0  0  0  0  0  0  0  0  0
   26.1660   -0.3538  -15.0311 N   0  0  0  0  0  0  0  0  0  0  0  0
   25.6099    0.6179  -15.8402 C   0  0  0  0  0  0  0  0  0  0  0  0
   26.2608    1.8156  -15.9819 C   0  0  0  0  0  0  0  0  0  0  0  0
   27.4968    2.0412  -15.2926 C   0  0  0  0  0  0  0  0  0  0  0  0
   28.3688    3.5746  -15.4387 S   0  0  0  0  0  0  0  0  0  0  0  0
   25.5134    2.5961  -16.8264 N   0  0  0  0  0  0  0  0  0  0  0  0
   24.4163    1.8875  -17.2009 C   0  0  0  0  0  0  0  0  0  0  0  0
   24.4566    0.6635  -16.6028 N   0  0  0  0  0  0  0  0  0  0  0  0
  1  2  2  0  0  0  0
  1  7  1  0  0  0  0
  2  3  1  0  0  0  0
  2  4  1  0  0  0  0
  4  5  2  0  0  0  0
  5  6  1  0  0  0  0
  5 11  1  0  0  0  0
  6  7  2  0  0  0  0
  6  9  1  0  0  0  0
  7  8  1  0  0  0  0
  9 10  1  0  0  0  0
 10 11  2  0  0  0  0
M  END
>  <CHROM.1>
26.73174891,1.42386326,-15.49508299,0.20172574,0.52811626,2.70687658

>  <Name>
ligand

>  <RI>
0

>  <Rbt.Current_Directory>
/home/itssahil/PROJECTS/Mol_Feturizer/New_Systems/rnas/3RKF

>  <Rbt.Executable>
rbdock ($Id: //depot/dev/client3/rdock/2013.1/src/exe/rbdock.cxx#4 $)

>  <Rbt.Library>
libRbt.so (2013.1, Build901 2013/11/27)

>  <Rbt.Parameter_File>
/export/apps/rDock/src/rDock_2013.1_src/data/scripts/dock_solv.prm

>  <Rbt.Receptor>
prm/blind_docking_40.prm

>  <SCORE>
-1.64057

>  <SCORE.INTER>
-2.45712

>  <SCORE.INTER.CONST>
1

>  <SCORE.INTER.POLAR>
0

>  <SCORE.INTER.ROT>
0

>  <SCORE.INTER.SOLV>
11.9672

>  <SCORE.INTER.VDW>
-9.22713

>  <SCORE.INTER.norm>
-0.223375

>  <SCORE.INTRA>
0

>  <SCORE.INTRA.DIHEDRAL>
0

>  <SCORE.INTRA.DIHEDRAL.0>
0

>  <SCORE.INTRA.POLAR>
0

>  <SCORE.INTRA.POLAR.0>
0

>  <SCORE.INTRA.REPUL>
0

>  <SCORE.INTRA.REPUL.0>
0

>  <SCORE.INTRA.SOLV>
0

>  <SCORE.INTRA.SOLV.lig_0>
-28.6198

>  <SCORE.INTRA.VDW>
0

>  <SCORE.INTRA.VDW.0>
0

>  <SCORE.INTRA.norm>
0

>  <SCORE.RESTR>
0.816555

>  <SCORE.RESTR.CAVITY>
0.816555

>  <SCORE.RESTR.norm>
0.0742323

>  <SCORE.SYSTEM>
0

>  <SCORE.SYSTEM.CONST>
0

>  <SCORE.SYSTEM.DIHEDRAL>
0

>  <SCORE.SYSTEM.SOLV>
0

>  <SCORE.SYSTEM.norm>
0

>  <SCORE.heavy>
11

>  <SCORE.norm>
-0.149142

>  <RMSD>
26.717

$$$$
ligand
 OpenBabel11021811483D
libRbt.so/2013.1/901 2013/11/27
 11 12  0  0  0  0  0  0  0  0999 V2000
   28.9512   -3.1621  -13.0651 N   0  0  0  0  0  0  0  0  0  0  0  0
   28.0747   -2.9007  -12.0839 C   0  0  0  0  0  0  0  0  0  0  0  0
   28.0582   -3.7362  -10.9255 N   0  0  0  0  0  0  0  0  0  0  0  0
   27.2193   -1.8764  -12.1693 N   0  0  0  0  0  0  0  0  0  0  0  0
   27.2182   -1.0569  -13.2812 C   0  0  0  0  0  0  0  0  0  0  0  0
   28.1059   -1.3112  -14.2939 C   0  0  0  0  0  0  0  0  0  0  0  0
   29.0162   -2.4127  -14.1841 C   0  0  0  0  0  0  0  0  0  0  0  0
   30.1856   -2.7749  -15.4625 S   0  0  0  0  0  0  0  0  0  0  0  0
   27.9035   -0.3684  -15.2691 N   0  0  0  0  0  0  0  0  0  0  0  0
   26.9029    0.4558  -14.8625 C   0  0  0  0  0  0  0  0  0  0  0  0
   26.4661    0.0483  -13.6375 N   0  0  0  0  0  0  0  0  0  0  0  0
  1  2  2  0  0  0  0
  1  7  1  0  0  0  0
  2  3  1  0  0  0  0
  2  4  1  0  0  0  0
  4  5  2  0  0  0  0
  5  6  1  0  0  0  0
  5 11  1  0  0  0  0
  6  7  2  0  0  0  0
  6  9  1  0  0  0  0
  7  8  1  0  0  0  0
  9 10  1  0  0  0  0
 10 11  2  0  0  0  0
M  END
>  <CHROM.1>
28.27241042,-1.87510994,-13.77758084,0.68562514,-0.73390837,2.20534992

>  <Name>
ligand

>  <RI>
0

>  <Rbt.Current_Directory>
/home/itssahil/PROJECTS/Mol_Feturizer/New_Systems/rnas/3RKF

>  <Rbt.Executable>
rbdock ($Id: //depot/dev/client3/rdock/2013.1/src/exe/rbdock.cxx#4 $)

>  <Rbt.Library>
libRbt.so (2013.1, Build901 2013/11/27)

>  <Rbt.Parameter_File>
/export/apps/rDock/src/rDock_2013.1_src/data/scripts/dock_solv.prm

>  <Rbt.Receptor>
prm/blind_docking_40.prm

>  <SCORE>
-8.36407

>  <SCORE.INTER>
-8.36407

>  <SCORE.INTER.CONST>
1

>  <SCORE.INTER.POLAR>
0

>  <SCORE.INTER.ROT>
0

>  <SCORE.INTER.SOLV>
4.02568

>  <SCORE.INTER.VDW>
-10.5179

>  <SCORE.INTER.norm>
-0.76037

>  <SCORE.INTRA>
0

>  <SCORE.INTRA.DIHEDRAL>
0

>  <SCORE.INTRA.DIHEDRAL.0>
0

>  <SCORE.INTRA.POLAR>
0

>  <SCORE.INTRA.POLAR.0>
0

>  <SCORE.INTRA.REPUL>
0

>  <SCORE.INTRA.REPUL.0>
0

>  <SCORE.INTRA.SOLV>
0

>  <SCORE.INTRA.SOLV.lig_0>
-28.6198

>  <SCORE.INTRA.VDW>
0

>  <SCORE.INTRA.VDW.0>
0

>  <SCORE.INTRA.norm>
0

>  <SCORE.RESTR>
0

>  <SCORE.RESTR.CAVITY>
0

>  <SCORE.RESTR.norm>
0

>  <SCORE.SYSTEM>
0

>  <SCORE.SYSTEM.CONST>
0

>  <SCORE.SYSTEM.DIHEDRAL>
0

>  <SCORE.SYSTEM.SOLV>
0

>  <SCORE.SYSTEM.norm>
0

>  <SCORE.heavy>
11

>  <SCORE.norm>
-0.76037

>  <RMSD>
26.874

$$$$
ligand
 OpenBabel11021811483D
libRbt.so/2013.1/901 2013/11/27
 11 12  0  0  0  0  0  0  0  0999 V2000
   28.9888   -3.1892  -12.9730 N   0  0  0  0  0  0  0  0  0  0  0  0
   28.0911   -2.9132  -12.0153 C   0  0  0  0  0  0  0  0  0  0  0  0
   28.0613   -3.7199  -10.8369 N   0  0  0  0  0  0  0  0  0  0  0  0
   27.2266   -1.9010  -12.1424 N   0  0  0  0  0  0  0  0  0  0  0  0
   27.2380   -1.1094  -13.2743 C   0  0  0  0  0  0  0  0  0  0  0  0
   28.1475   -1.3789  -14.2634 C   0  0  0  0  0  0  0  0  0  0  0  0
   29.0672   -2.4671  -14.1090 C   0  0  0  0  0  0  0  0  0  0  0  0
   30.2645   -2.8479  -15.3557 S   0  0  0  0  0  0  0  0  0  0  0  0
   27.9537   -0.4629  -15.2656 N   0  0  0  0  0  0  0  0  0  0  0  0
   26.9368    0.3600  -14.8986 C   0  0  0  0  0  0  0  0  0  0  0  0
   26.4811   -0.0218  -13.6722 N   0  0  0  0  0  0  0  0  0  0  0  0
  1  2  2  0  0  0  0
  1  7  1  0  0  0  0
  2  3  1  0  0  0  0
  2  4  1  0  0  0  0
  4  5  2  0  0  0  0
  5  6  1  0  0  0  0
  5 11  1  0  0  0  0
  6  7  2  0  0  0  0
  6  9  1  0  0  0  0
  7  8  1  0  0  0  0
  9 10  1  0  0  0  0
 10 11  2  0  0  0  0
M  END
>  <CHROM.1>
28.31010024,-1.92791382,-13.73011767,0.69759023,-0.71398822,2.18832907

>  <Name>
ligand

>  <RI>
0

>  <Rbt.Current_Directory>
/home/itssahil/PROJECTS/Mol_Feturizer/New_Systems/rnas/3RKF

>  <Rbt.Executable>
rbdock ($Id: //depot/dev/client3/rdock/2013.1/src/exe/rbdock.cxx#4 $)

>  <Rbt.Library>
libRbt.so (2013.1, Build901 2013/11/27)

>  <Rbt.Parameter_File>
/export/apps/rDock/src/rDock_2013.1_src/data/scripts/dock_solv.prm

>  <Rbt.Receptor>
prm/blind_docking_60.prm

>  <SCORE>
-8.34714

>  <SCORE.INTER>
-8.34714

>  <SCORE.INTER.CONST>
1

>  <SCORE.INTER.POLAR>
0

>  <SCORE.INTER.ROT>
0

>  <SCORE.INTER.SOLV>
4.09653

>  <SCORE.INTER.VDW>
-10.5303

>  <SCORE.INTER.norm>
-0.758831

>  <SCORE.INTRA>
0

>  <SCORE.INTRA.DIHEDRAL>
0

>  <SCORE.INTRA.DIHEDRAL.0>
0

>  <SCORE.INTRA.POLAR>
0

>  <SCORE.INTRA.POLAR.0>
0

>  <SCORE.INTRA.REPUL>
0

>  <SCORE.INTRA.REPUL.0>
0

>  <SCORE.INTRA.SOLV>
0

>  <SCORE.INTRA.SOLV.lig_0>
-28.6198

>  <SCORE.INTRA.VDW>
0

>  <SCORE.INTRA.VDW.0>
0

>  <SCORE.INTRA.norm>
0

>  <SCORE.RESTR>
0

>  <SCORE.RESTR.CAVITY>
0

>  <SCORE.RESTR.norm>
0

>  <SCORE.SYSTEM>
0

>  <SCORE.SYSTEM.CONST>
0

>  <SCORE.SYSTEM.DIHEDRAL>
0

>  <SCORE.SYSTEM.SOLV>
0

>  <SCORE.SYSTEM.norm>
0

>  <SCORE.heavy>
11

>  <SCORE.norm>
-0.758831

>  <RMSD>
26.884

$$$$
ligand
 OpenBabel11021811483D
libRbt.so/2013.1/901 2013/11/27
 11 12  0  0  0  0  0  0  0  0999 V2000
   29.0145   -3.1852  -12.9644 N   0  0  0  0  0  0  0  0  0  0  0  0
   28.1227   -2.9166  -11.9991 C   0  0  0  0  0  0  0  0  0  0  0  0
   28.1123   -3.7208  -10.8187 N   0  0  0  0  0  0  0  0  0  0  0  0
   27.2464   -1.9138  -12.1205 N   0  0  0  0  0  0  0  0  0  0  0  0
   27.2391   -1.1247  -13.2542 C   0  0  0  0  0  0  0  0  0  0  0  0
   28.1423   -1.3868  -14.2510 C   0  0  0  0  0  0  0  0  0  0  0  0
   29.0748   -2.4649  -14.1026 C   0  0  0  0  0  0  0  0  0  0  0  0
   30.2647   -2.8359  -15.3594 S   0  0  0  0  0  0  0  0  0  0  0  0
   27.9297   -0.4752  -15.2533 N   0  0  0  0  0  0  0  0  0  0  0  0
   26.9075    0.3377  -14.8788 C   0  0  0  0  0  0  0  0  0  0  0  0
   26.4671   -0.0461  -13.6475 N   0  0  0  0  0  0  0  0  0  0  0  0
  1  2  2  0  0  0  0
  1  7  1  0  0  0  0
  2  3  1  0  0  0  0
  2  4  1  0  0  0  0
  4  5  2  0  0  0  0
  5  6  1  0  0  0  0
  5 11  1  0  0  0  0
  6  7  2  0  0  0  0
  6  9  1  0  0  0  0
  7  8  1  0  0  0  0
  9 10  1  0  0  0  0
 10 11  2  0  0  0  0
M  END
>  <CHROM.1>
28.31559062,-1.93288564,-13.71800700,0.67967871,-0.71055411,2.17439718

>  <Name>
ligand

>  <RI>
0

>  <Rbt.Current_Directory>
/home/itssahil/PROJECTS/Mol_Feturizer/New_Systems/rnas/3RKF

>  <Rbt.Executable>
rbdock ($Id: //depot/dev/client3/rdock/2013.1/src/exe/rbdock.cxx#4 $)

>  <Rbt.Library>
libRbt.so (2013.1, Build901 2013/11/27)

>  <Rbt.Parameter_File>
/export/apps/rDock/src/rDock_2013.1_src/data/scripts/dock_solv.prm

>  <Rbt.Receptor>
prm/blind_docking_40.prm

>  <SCORE>
-8.34777

>  <SCORE.INTER>
-8.34777

>  <SCORE.INTER.CONST>
1

>  <SCORE.INTER.POLAR>
0

>  <SCORE.INTER.ROT>
0

>  <SCORE.INTER.SOLV>
3.99439

>  <SCORE.INTER.VDW>
-10.4966

>  <SCORE.INTER.norm>
-0.758888

>  <SCORE.INTRA>
0

>  <SCORE.INTRA.DIHEDRAL>
0

>  <SCORE.INTRA.DIHEDRAL.0>
0

>  <SCORE.INTRA.POLAR>
0

>  <SCORE.INTRA.POLAR.0>
0

>  <SCORE.INTRA.REPUL>
0

>  <SCORE.INTRA.REPUL.0>
0

>  <SCORE.INTRA.SOLV>
0

>  <SCORE.INTRA.SOLV.lig_0>
-28.6198

>  <SCORE.INTRA.VDW>
0

>  <SCORE.INTRA.VDW.0>
0

>  <SCORE.INTRA.norm>
0

>  <SCORE.RESTR>
0

>  <SCORE.RESTR.CAVITY>
0

>  <SCORE.RESTR.norm>
0

>  <SCORE.SYSTEM>
0

>  <SCORE.SYSTEM.CONST>
0

>  <SCORE.SYSTEM.DIHEDRAL>
0

>  <SCORE.SYSTEM.SOLV>
0

>  <SCORE.SYSTEM.norm>
0

>  <SCORE.heavy>
11

>  <SCORE.norm>
-0.758888

>  <RMSD>
26.891

$$$$
ligand
 OpenBabel11021811483D
libRbt.so/2013.1/901 2013/11/27
 11 12  0  0  0  0  0  0  0  0999 V2000
   28.9926   -3.1880  -12.9458 N   0  0  0  0  0  0  0  0  0  0  0  0
   28.1008   -2.9136  -11.9821 C   0  0  0  0  0  0  0  0  0  0  0  0
   28.0850   -3.7160  -10.8005 N   0  0  0  0  0  0  0  0  0  0  0  0
   27.2295   -1.9069  -12.1062 N   0  0  0  0  0  0  0  0  0  0  0  0
   27.2274   -1.1196  -13.2411 C   0  0  0  0  0  0  0  0  0  0  0  0
   28.1307   -1.3875  -14.2363 C   0  0  0  0  0  0  0  0  0  0  0  0
   29.0579   -2.4698  -14.0851 C   0  0  0  0  0  0  0  0  0  0  0  0
   30.2476   -2.8484  -15.3397 S   0  0  0  0  0  0  0  0  0  0  0  0
   27.9237   -0.4765  -15.2404 N   0  0  0  0  0  0  0  0  0  0  0  0
   26.9049    0.3419  -14.8685 C   0  0  0  0  0  0  0  0  0  0  0  0
   26.4611   -0.0379  -13.6372 N   0  0  0  0  0  0  0  0  0  0  0  0
  1  2  2  0  0  0  0
  1  7  1  0  0  0  0
  2  3  1  0  0  0  0
  2  4  1  0  0  0  0
  4  5  2  0  0  0  0
  5  6  1  0  0  0  0
  5 11  1  0  0  0  0
  6  7  2  0  0  0  0
  6  9  1  0  0  0  0
  7  8  1  0  0  0  0
  9 10  1  0  0  0  0
 10 11  2  0  0  0  0
M  END
>  <CHROM.1>
28.30065286,-1.93356935,-13.70227546,0.68469204,-0.71372030,2.17611037

>  <Name>
ligand

>  <RI>
0

>  <Rbt.Current_Directory>
/home/itssahil/PROJECTS/Mol_Feturizer/New_Systems/rnas/3RKF

>  <Rbt.Executable>
rbdock ($Id: //depot/dev/client3/rdock/2013.1/src/exe/rbdock.cxx#4 $)

>  <Rbt.Library>
libRbt.so (2013.1, Build901 2013/11/27)

>  <Rbt.Parameter_File>
/export/apps/rDock/src/rDock_2013.1_src/data/scripts/dock_solv.prm

>  <Rbt.Receptor>
prm/blind_docking_40.prm

>  <SCORE>
-8.33732

>  <SCORE.INTER>
-8.33732

>  <SCORE.INTER.CONST>
1

>  <SCORE.INTER.POLAR>
0

>  <SCORE.INTER.ROT>
0

>  <SCORE.INTER.SOLV>
4.05269

>  <SCORE.INTER.VDW>
-10.5091

>  <SCORE.INTER.norm>
-0.757938

>  <SCORE.INTRA>
0

>  <SCORE.INTRA.DIHEDRAL>
0

>  <SCORE.INTRA.DIHEDRAL.0>
0

>  <SCORE.INTRA.POLAR>
0

>  <SCORE.INTRA.POLAR.0>
0

>  <SCORE.INTRA.REPUL>
0

>  <SCORE.INTRA.REPUL.0>
0

>  <SCORE.INTRA.SOLV>
0

>  <SCORE.INTRA.SOLV.lig_0>
-28.6198

>  <SCORE.INTRA.VDW>
0

>  <SCORE.INTRA.VDW.0>
0

>  <SCORE.INTRA.norm>
0

>  <SCORE.RESTR>
0

>  <SCORE.RESTR.CAVITY>
0

>  <SCORE.RESTR.norm>
0

>  <SCORE.SYSTEM>
0

>  <SCORE.SYSTEM.CONST>
0

>  <SCORE.SYSTEM.DIHEDRAL>
0

>  <SCORE.SYSTEM.SOLV>
0

>  <SCORE.SYSTEM.norm>
0

>  <SCORE.heavy>
11

>  <SCORE.norm>
-0.757938

>  <RMSD>
26.909

$$$$
ligand
 OpenBabel11021811483D
libRbt.so/2013.1/901 2013/11/27
 11 12  0  0  0  0  0  0  0  0999 V2000
   29.8877   -4.5472  -11.0696 N   0  0  0  0  0  0  0  0  0  0  0  0
   29.8244   -5.3545  -10.0002 C   0  0  0  0  0  0  0  0  0  0  0  0
   29.8215   -4.7782   -8.6932 N   0  0  0  0  0  0  0  0  0  0  0  0
   29.7641   -6.6836  -10.1339 N   0  0  0  0  0  0  0  0  0  0  0  0
   29.7666   -7.2611  -11.3886 C   0  0  0  0  0  0  0  0  0  0  0  0
   29.8329   -6.4509  -12.4920 C   0  0  0  0  0  0  0  0  0  0  0  0
   29.8955   -5.0284  -12.3291 C   0  0  0  0  0  0  0  0  0  0  0  0
   29.9741   -3.9420  -13.7243 S   0  0  0  0  0  0  0  0  0  0  0  0
   29.8224   -7.2584  -13.6005 N   0  0  0  0  0  0  0  0  0  0  0  0
   29.7514   -8.5500  -13.1850 C   0  0  0  0  0  0  0  0  0  0  0  0
   29.7158   -8.5737  -11.8228 N   0  0  0  0  0  0  0  0  0  0  0  0
  1  2  2  0  0  0  0
  1  7  1  0  0  0  0
  2  3  1  0  0  0  0
  2  4  1  0  0  0  0
  4  5  2  0  0  0  0
  5  6  1  0  0  0  0
  5 11  1  0  0  0  0
  6  7  2  0  0  0  0
  6  9  1  0  0  0  0
  7  8  1  0  0  0  0
  9 10  1  0  0  0  0
 10 11  2  0  0  0  0
M  END
>  <CHROM.1>
29.84149544,-5.93566238,-11.90314368,0.72038740,1.51918442,1.10569889

>  <Name>
ligand

>  <RI>
0

>  <Rbt.Current_Directory>
/home/itssahil/PROJECTS/Mol_Feturizer/New_Systems/rnas/3RKF

>  <Rbt.Executable>
rbdock ($Id: //depot/dev/client3/rdock/2013.1/src/exe/rbdock.cxx#4 $)

>  <Rbt.Library>
libRbt.so (2013.1, Build901 2013/11/27)

>  <Rbt.Parameter_File>
/export/apps/rDock/src/rDock_2013.1_src/data/scripts/dock_solv.prm

>  <Rbt.Receptor>
prm/blind_docking_100.prm

>  <SCORE>
-6.78233

>  <SCORE.INTER>
-6.78233

>  <SCORE.INTER.CONST>
1

>  <SCORE.INTER.POLAR>
0

>  <SCORE.INTER.ROT>
0

>  <SCORE.INTER.SOLV>
2.35107

>  <SCORE.INTER.VDW>
-8.90524

>  <SCORE.INTER.norm>
-0.616575

>  <SCORE.INTRA>
0

>  <SCORE.INTRA.DIHEDRAL>
0

>  <SCORE.INTRA.DIHEDRAL.0>
0

>  <SCORE.INTRA.POLAR>
0

>  <SCORE.INTRA.POLAR.0>
0

>  <SCORE.INTRA.REPUL>
0

>  <SCORE.INTRA.REPUL.0>
0

>  <SCORE.INTRA.SOLV>
0

>  <SCORE.INTRA.SOLV.lig_0>
-28.6198

>  <SCORE.INTRA.VDW>
0

>  <SCORE.INTRA.VDW.0>
0

>  <SCORE.INTRA.norm>
0

>  <SCORE.RESTR>
0

>  <SCORE.RESTR.CAVITY>
0

>  <SCORE.RESTR.norm>
0

>  <SCORE.SYSTEM>
0

>  <SCORE.SYSTEM.CONST>
0

>  <SCORE.SYSTEM.DIHEDRAL>
0

>  <SCORE.SYSTEM.SOLV>
0

>  <SCORE.SYSTEM.norm>
0

>  <SCORE.heavy>
11

>  <SCORE.norm>
-0.616575

>  <RMSD>
26.927

$$$$
ligand
 OpenBabel11021811483D
libRbt.so/2013.1/901 2013/11/27
 11 12  0  0  0  0  0  0  0  0999 V2000
   28.2605   -2.3863  -11.3748 N   0  0  0  0  0  0  0  0  0  0  0  0
   28.3415   -3.3708  -10.4673 C   0  0  0  0  0  0  0  0  0  0  0  0
   29.0690   -3.1445   -9.2591 N   0  0  0  0  0  0  0  0  0  0  0  0
   27.7561   -4.5555  -10.6714 N   0  0  0  0  0  0  0  0  0  0  0  0
   27.0487   -4.7952  -11.8334 C   0  0  0  0  0  0  0  0  0  0  0  0
   26.9578   -3.8008  -12.7720 C   0  0  0  0  0  0  0  0  0  0  0  0
   27.5905   -2.5369  -12.5352 C   0  0  0  0  0  0  0  0  0  0  0  0
   27.4936   -1.2205  -13.7145 S   0  0  0  0  0  0  0  0  0  0  0  0
   26.2144   -4.2848  -13.8180 N   0  0  0  0  0  0  0  0  0  0  0  0
   25.8527   -5.5618  -13.5275 C   0  0  0  0  0  0  0  0  0  0  0  0
   26.3574   -5.8962  -12.3066 N   0  0  0  0  0  0  0  0  0  0  0  0
  1  2  2  0  0  0  0
  1  7  1  0  0  0  0
  2  3  1  0  0  0  0
  2  4  1  0  0  0  0
  4  5  2  0  0  0  0
  5  6  1  0  0  0  0
  5 11  1  0  0  0  0
  6  7  2  0  0  0  0
  6  9  1  0  0  0  0
  7  8  1  0  0  0  0
  9 10  1  0  0  0  0
 10 11  2  0  0  0  0
M  END
>  <CHROM.1>
27.38642975,-3.46444389,-12.21041887,-0.50286000,0.98617822,2.49004504

>  <Name>
ligand

>  <RI>
0

>  <Rbt.Current_Directory>
/home/itssahil/PROJECTS/Mol_Feturizer/New_Systems/rnas/3RKF

>  <Rbt.Executable>
rbdock ($Id: //depot/dev/client3/rdock/2013.1/src/exe/rbdock.cxx#4 $)

>  <Rbt.Library>
libRbt.so (2013.1, Build901 2013/11/27)

>  <Rbt.Parameter_File>
/export/apps/rDock/src/rDock_2013.1_src/data/scripts/dock_solv.prm

>  <Rbt.Receptor>
prm/blind_docking_40.prm

>  <SCORE>
-6.59497

>  <SCORE.INTER>
-6.59497

>  <SCORE.INTER.CONST>
1

>  <SCORE.INTER.POLAR>
0

>  <SCORE.INTER.ROT>
0

>  <SCORE.INTER.SOLV>
2.33513

>  <SCORE.INTER.VDW>
-8.77503

>  <SCORE.INTER.norm>
-0.599543

>  <SCORE.INTRA>
0

>  <SCORE.INTRA.DIHEDRAL>
0

>  <SCORE.INTRA.DIHEDRAL.0>
0

>  <SCORE.INTRA.POLAR>
0

>  <SCORE.INTRA.POLAR.0>
0

>  <SCORE.INTRA.REPUL>
0

>  <SCORE.INTRA.REPUL.0>
0

>  <SCORE.INTRA.SOLV>
0

>  <SCORE.INTRA.SOLV.lig_0>
-28.6198

>  <SCORE.INTRA.VDW>
0

>  <SCORE.INTRA.VDW.0>
0

>  <SCORE.INTRA.norm>
0

>  <SCORE.RESTR>
0

>  <SCORE.RESTR.CAVITY>
0

>  <SCORE.RESTR.norm>
0

>  <SCORE.SYSTEM>
0

>  <SCORE.SYSTEM.CONST>
0

>  <SCORE.SYSTEM.DIHEDRAL>
0

>  <SCORE.SYSTEM.SOLV>
0

>  <SCORE.SYSTEM.norm>
0

>  <SCORE.heavy>
11

>  <SCORE.norm>
-0.599543

>  <RMSD>
27.755

$$$$
ligand
 OpenBabel11021811483D
libRbt.so/2013.1/901 2013/11/27
 11 12  0  0  0  0  0  0  0  0999 V2000
   30.3531   -2.1482  -10.8462 N   0  0  0  0  0  0  0  0  0  0  0  0
   29.8626   -2.8416  -11.8845 C   0  0  0  0  0  0  0  0  0  0  0  0
   29.4919   -2.1431  -13.0741 N   0  0  0  0  0  0  0  0  0  0  0  0
   29.7147   -4.1693  -11.8273 N   0  0  0  0  0  0  0  0  0  0  0  0
   30.0662   -4.8637  -10.6862 C   0  0  0  0  0  0  0  0  0  0  0  0
   30.5670   -4.1704   -9.6153 C   0  0  0  0  0  0  0  0  0  0  0  0
   30.7197   -2.7477   -9.6955 C   0  0  0  0  0  0  0  0  0  0  0  0
   31.3694   -1.8112   -8.3414 S   0  0  0  0  0  0  0  0  0  0  0  0
   30.8327   -5.0776   -8.6217 N   0  0  0  0  0  0  0  0  0  0  0  0
   30.4989   -6.3143   -9.0747 C   0  0  0  0  0  0  0  0  0  0  0  0
   30.0238   -6.2044  -10.3473 N   0  0  0  0  0  0  0  0  0  0  0  0
  1  2  2  0  0  0  0
  1  7  1  0  0  0  0
  2  3  1  0  0  0  0
  2  4  1  0  0  0  0
  4  5  2  0  0  0  0
  5  6  1  0  0  0  0
  5 11  1  0  0  0  0
  6  7  2  0  0  0  0
  6  9  1  0  0  0  0
  7  8  1  0  0  0  0
  9 10  1  0  0  0  0
 10 11  2  0  0  0  0
M  END
>  <CHROM.1>
30.43948973,-3.60331788,-10.13913409,1.42559780,-1.18325066,-0.32333668

>  <Name>
ligand

>  <RI>
0

>  <Rbt.Current_Directory>
/home/itssahil/PROJECTS/Mol_Feturizer/New_Systems/rnas/3RKF

>  <Rbt.Executable>
rbdock ($Id: //depot/dev/client3/rdock/2013.1/src/exe/rbdock.cxx#4 $)

>  <Rbt.Library>
libRbt.so (2013.1, Build901 2013/11/27)

>  <Rbt.Parameter_File>
/export/apps/rDock/src/rDock_2013.1_src/data/scripts/dock_solv.prm

>  <Rbt.Receptor>
prm/blind_docking_40.prm

>  <SCORE>
-8.04381

>  <SCORE.INTER>
-8.04381

>  <SCORE.INTER.CONST>
1

>  <SCORE.INTER.POLAR>
0

>  <SCORE.INTER.ROT>
0

>  <SCORE.INTER.SOLV>
8.49511

>  <SCORE.INTER.VDW>
-11.7942

>  <SCORE.INTER.norm>
-0.731256

>  <SCORE.INTRA>
0

>  <SCORE.INTRA.DIHEDRAL>
0

>  <SCORE.INTRA.DIHEDRAL.0>
0

>  <SCORE.INTRA.POLAR>
0

>  <SCORE.INTRA.POLAR.0>
0

>  <SCORE.INTRA.REPUL>
0

>  <SCORE.INTRA.REPUL.0>
0

>  <SCORE.INTRA.SOLV>
0

>  <SCORE.INTRA.SOLV.lig_0>
-28.6198

>  <SCORE.INTRA.VDW>
0

>  <SCORE.INTRA.VDW.0>
0

>  <SCORE.INTRA.norm>
0

>  <SCORE.RESTR>
0

>  <SCORE.RESTR.CAVITY>
0

>  <SCORE.RESTR.norm>
0

>  <SCORE.SYSTEM>
0

>  <SCORE.SYSTEM.CONST>
0

>  <SCORE.SYSTEM.DIHEDRAL>
0

>  <SCORE.SYSTEM.SOLV>
0

>  <SCORE.SYSTEM.norm>
0

>  <SCORE.heavy>
11

>  <SCORE.norm>
-0.731256

>  <RMSD>
28.531

$$$$
ligand
 OpenBabel11021811483D
libRbt.so/2013.1/901 2013/11/27
 11 12  0  0  0  0  0  0  0  0999 V2000
   29.3866   -6.6210   -9.2844 N   0  0  0  0  0  0  0  0  0  0  0  0
   29.3890   -5.5783   -8.4405 C   0  0  0  0  0  0  0  0  0  0  0  0
   29.0923   -5.7996   -7.0609 N   0  0  0  0  0  0  0  0  0  0  0  0
   29.6632   -4.3402   -8.8647 N   0  0  0  0  0  0  0  0  0  0  0  0
   29.9518   -4.1044  -10.1947 C   0  0  0  0  0  0  0  0  0  0  0  0
   29.9515   -5.1583  -11.0708 C   0  0  0  0  0  0  0  0  0  0  0  0
   29.6568   -6.4786  -10.5977 C   0  0  0  0  0  0  0  0  0  0  0  0
   29.6525   -7.8712  -11.6900 S   0  0  0  0  0  0  0  0  0  0  0  0
   30.2622   -4.6654  -12.3124 N   0  0  0  0  0  0  0  0  0  0  0  0
   30.4505   -3.3244  -12.2025 C   0  0  0  0  0  0  0  0  0  0  0  0
   30.2639   -2.9578  -10.9032 N   0  0  0  0  0  0  0  0  0  0  0  0
  1  2  2  0  0  0  0
  1  7  1  0  0  0  0
  2  3  1  0  0  0  0
  2  4  1  0  0  0  0
  4  5  2  0  0  0  0
  5  6  1  0  0  0  0
  5 11  1  0  0  0  0
  6  7  2  0  0  0  0
  6  9  1  0  0  0  0
  7  8  1  0  0  0  0
  9 10  1  0  0  0  0
 10 11  2  0  0  0  0
M  END
>  <CHROM.1>
29.77102553,-5.50283536,-10.39185816,2.75389807,-1.33074463,-2.45737632

>  <Name>
ligand

>  <RI>
0

>  <Rbt.Current_Directory>
/home/itssahil/PROJECTS/Mol_Feturizer/New_Systems/rnas/3RKF

>  <Rbt.Executable>
rbdock ($Id: //depot/dev/client3/rdock/2013.1/src/exe/rbdock.cxx#4 $)

>  <Rbt.Library>
libRbt.so (2013.1, Build901 2013/11/27)

>  <Rbt.Parameter_File>
/export/apps/rDock/src/rDock_2013.1_src/data/scripts/dock_solv.prm

>  <Rbt.Receptor>
prm/blind_docking_80.prm

>  <SCORE>
-6.29184

>  <SCORE.INTER>
-6.29184

>  <SCORE.INTER.CONST>
1

>  <SCORE.INTER.POLAR>
0

>  <SCORE.INTER.ROT>
0

>  <SCORE.INTER.SOLV>
3.22515

>  <SCORE.INTER.VDW>
-8.86961

>  <SCORE.INTER.norm>
-0.571985

>  <SCORE.INTRA>
0

>  <SCORE.INTRA.DIHEDRAL>
0

>  <SCORE.INTRA.DIHEDRAL.0>
0

>  <SCORE.INTRA.POLAR>
0

>  <SCORE.INTRA.POLAR.0>
0

>  <SCORE.INTRA.REPUL>
0

>  <SCORE.INTRA.REPUL.0>
0

>  <SCORE.INTRA.SOLV>
0

>  <SCORE.INTRA.SOLV.lig_0>
-28.6198

>  <SCORE.INTRA.VDW>
0

>  <SCORE.INTRA.VDW.0>
0

>  <SCORE.INTRA.norm>
0

>  <SCORE.RESTR>
0

>  <SCORE.RESTR.CAVITY>
0

>  <SCORE.RESTR.norm>
0

>  <SCORE.SYSTEM>
0

>  <SCORE.SYSTEM.CONST>
0

>  <SCORE.SYSTEM.DIHEDRAL>
0

>  <SCORE.SYSTEM.SOLV>
0

>  <SCORE.SYSTEM.norm>
0

>  <SCORE.heavy>
11

>  <SCORE.norm>
-0.571985

>  <RMSD>
28.625

$$$$
ligand
 OpenBabel11021811483D
libRbt.so/2013.1/901 2013/11/27
 11 12  0  0  0  0  0  0  0  0999 V2000
   30.6841   -3.3896   -8.2586 N   0  0  0  0  0  0  0  0  0  0  0  0
   30.5379   -2.0877   -8.5466 C   0  0  0  0  0  0  0  0  0  0  0  0
   30.6038   -1.1299   -7.4889 N   0  0  0  0  0  0  0  0  0  0  0  0
   30.3326   -1.6709   -9.8005 N   0  0  0  0  0  0  0  0  0  0  0  0
   30.2646   -2.5806  -10.8376 C   0  0  0  0  0  0  0  0  0  0  0  0
   30.4098   -3.9149  -10.5606 C   0  0  0  0  0  0  0  0  0  0  0  0
   30.6307   -4.3428   -9.2108 C   0  0  0  0  0  0  0  0  0  0  0  0
   30.8319   -6.0541   -8.8060 S   0  0  0  0  0  0  0  0  0  0  0  0
   30.3019   -4.5983  -11.7447 N   0  0  0  0  0  0  0  0  0  0  0  0
   30.0919   -3.6962  -12.7387 C   0  0  0  0  0  0  0  0  0  0  0  0
   30.0657   -2.4446  -12.2000 N   0  0  0  0  0  0  0  0  0  0  0  0
  1  2  2  0  0  0  0
  1  7  1  0  0  0  0
  2  3  1  0  0  0  0
  2  4  1  0  0  0  0
  4  5  2  0  0  0  0
  5  6  1  0  0  0  0
  5 11  1  0  0  0  0
  6  7  2  0  0  0  0
  6  9  1  0  0  0  0
  7  8  1  0  0  0  0
  9 10  1  0  0  0  0
 10 11  2  0  0  0  0
M  END
>  <CHROM.1>
30.48172530,-3.58674028,-9.85390188,0.37215927,-1.41132303,0.54005224

>  <Name>
ligand

>  <RI>
0

>  <Rbt.Current_Directory>
/home/itssahil/PROJECTS/Mol_Feturizer/New_Systems/rnas/3RKF

>  <Rbt.Executable>
rbdock ($Id: //depot/dev/client3/rdock/2013.1/src/exe/rbdock.cxx#4 $)

>  <Rbt.Library>
libRbt.so (2013.1, Build901 2013/11/27)

>  <Rbt.Parameter_File>
/export/apps/rDock/src/rDock_2013.1_src/data/scripts/dock_solv.prm

>  <Rbt.Receptor>
prm/blind_docking_100.prm

>  <SCORE>
-9.4467

>  <SCORE.INTER>
-9.4467

>  <SCORE.INTER.CONST>
1

>  <SCORE.INTER.POLAR>
0

>  <SCORE.INTER.ROT>
0

>  <SCORE.INTER.SOLV>
5.92009

>  <SCORE.INTER.VDW>
-11.8712

>  <SCORE.INTER.norm>
-0.858791

>  <SCORE.INTRA>
0

>  <SCORE.INTRA.DIHEDRAL>
0

>  <SCORE.INTRA.DIHEDRAL.0>
0

>  <SCORE.INTRA.POLAR>
0

>  <SCORE.INTRA.POLAR.0>
0

>  <SCORE.INTRA.REPUL>
0

>  <SCORE.INTRA.REPUL.0>
0

>  <SCORE.INTRA.SOLV>
0

>  <SCORE.INTRA.SOLV.lig_0>
-28.6198

>  <SCORE.INTRA.VDW>
0

>  <SCORE.INTRA.VDW.0>
0

>  <SCORE.INTRA.norm>
0

>  <SCORE.RESTR>
0

>  <SCORE.RESTR.CAVITY>
0

>  <SCORE.RESTR.norm>
0

>  <SCORE.SYSTEM>
0

>  <SCORE.SYSTEM.CONST>
0

>  <SCORE.SYSTEM.DIHEDRAL>
0

>  <SCORE.SYSTEM.SOLV>
0

>  <SCORE.SYSTEM.norm>
0

>  <SCORE.heavy>
11

>  <SCORE.norm>
-0.858791

>  <RMSD>
29.016

$$$$
ligand
 OpenBabel11021811483D
libRbt.so/2013.1/901 2013/11/27
 11 12  0  0  0  0  0  0  0  0999 V2000
   30.4451   -1.8997   -9.9816 N   0  0  0  0  0  0  0  0  0  0  0  0
   30.8524   -2.1147   -8.7217 C   0  0  0  0  0  0  0  0  0  0  0  0
   31.2008   -0.9971   -7.9033 N   0  0  0  0  0  0  0  0  0  0  0  0
   30.9381   -3.3509   -8.2193 N   0  0  0  0  0  0  0  0  0  0  0  0
   30.6069   -4.4454   -8.9942 C   0  0  0  0  0  0  0  0  0  0  0  0
   30.1908   -4.2436  -10.2843 C   0  0  0  0  0  0  0  0  0  0  0  0
   30.1037   -2.9113  -10.8051 C   0  0  0  0  0  0  0  0  0  0  0  0
   29.5640   -2.6012  -12.4620 S   0  0  0  0  0  0  0  0  0  0  0  0
   29.9279   -5.4731  -10.8322 N   0  0  0  0  0  0  0  0  0  0  0  0
   30.1799   -6.4204   -9.8915 C   0  0  0  0  0  0  0  0  0  0  0  0
   30.5999   -5.8070   -8.7493 N   0  0  0  0  0  0  0  0  0  0  0  0
  1  2  2  0  0  0  0
  1  7  1  0  0  0  0
  2  3  1  0  0  0  0
  2  4  1  0  0  0  0
  4  5  2  0  0  0  0
  5  6  1  0  0  0  0
  5 11  1  0  0  0  0
  6  7  2  0  0  0  0
  6  9  1  0  0  0  0
  7  8  1  0  0  0  0
  9 10  1  0  0  0  0
 10 11  2  0  0  0  0
M  END
>  <CHROM.1>
30.32114121,-3.51422330,-10.03266993,-1.61929342,1.24146825,2.94951191

>  <Name>
ligand

>  <RI>
0

>  <Rbt.Current_Directory>
/home/itssahil/PROJECTS/Mol_Feturizer/New_Systems/rnas/3RKF

>  <Rbt.Executable>
rbdock ($Id: //depot/dev/client3/rdock/2013.1/src/exe/rbdock.cxx#4 $)

>  <Rbt.Library>
libRbt.so (2013.1, Build901 2013/11/27)

>  <Rbt.Parameter_File>
/export/apps/rDock/src/rDock_2013.1_src/data/scripts/dock_solv.prm

>  <Rbt.Receptor>
prm/blind_docking_40.prm

>  <SCORE>
-6.76765

>  <SCORE.INTER>
-6.76765

>  <SCORE.INTER.CONST>
1

>  <SCORE.INTER.POLAR>
0

>  <SCORE.INTER.ROT>
0

>  <SCORE.INTER.SOLV>
7.53576

>  <SCORE.INTER.VDW>
-10.6237

>  <SCORE.INTER.norm>
-0.61524

>  <SCORE.INTRA>
0

>  <SCORE.INTRA.DIHEDRAL>
0

>  <SCORE.INTRA.DIHEDRAL.0>
0

>  <SCORE.INTRA.POLAR>
0

>  <SCORE.INTRA.POLAR.0>
0

>  <SCORE.INTRA.REPUL>
0

>  <SCORE.INTRA.REPUL.0>
0

>  <SCORE.INTRA.SOLV>
0

>  <SCORE.INTRA.SOLV.lig_0>
-28.6198

>  <SCORE.INTRA.VDW>
0

>  <SCORE.INTRA.VDW.0>
0

>  <SCORE.INTRA.norm>
0

>  <SCORE.RESTR>
0

>  <SCORE.RESTR.CAVITY>
0

>  <SCORE.RESTR.norm>
0

>  <SCORE.SYSTEM>
0

>  <SCORE.SYSTEM.CONST>
0

>  <SCORE.SYSTEM.DIHEDRAL>
0

>  <SCORE.SYSTEM.SOLV>
0

>  <SCORE.SYSTEM.norm>
0

>  <SCORE.heavy>
11

>  <SCORE.norm>
-0.61524

>  <RMSD>
29.070

$$$$
