@<TRIPOS>MOLECULE
3RKF_rdock.pdb
 1426 1593 0 0 0
SMALL
GASTEIGER

@<TRIPOS>ATOM
      1  P         50.1020   -1.5140  -46.4240 P.3    15  G15         0.1280
      2  C5'       48.3880   -1.7110  -48.4000 C.3    15  G15         0.1795
      3  O5'       49.7180   -1.8700  -47.9290 O.3    15  G15        -0.3259
      4  C4'       48.3480   -0.9180  -49.6820 C.3    15  G15         0.1772
      5  O4'       49.1930   -1.5540  -50.6790 O.3    15  G15        -0.3307
      6  C3'       46.9910   -0.8220  -50.3600 C.3    15  G15         0.1860
      7  O3'       46.1520    0.1680  -49.7940 O.3    15  G15        -0.3112
      8  C2'       47.3670   -0.5550  -51.8090 C.3    15  G15         0.2309
      9  O2'       47.7730    0.7950  -51.9810 O.3    15  G15        -0.2156
     10  C1'       48.5960   -1.4470  -51.9550 C.3    15  G15         0.2408
     11  N1        46.4420   -4.2530  -55.6200 N.ar   15  G15        -0.1709
     12  C2        46.6130   -2.8940  -55.5510 C.ar   15  G15         0.2606
     13  N2        46.1520   -2.1850  -56.5900 N.pl3  15  G15        -0.0859
     14  N3        47.1940   -2.2720  -54.5390 N.ar   15  G15        -0.1918
     15  C4        47.5990   -3.1330  -53.5830 C.ar   15  G15         0.1723
     16  C5        47.4750   -4.5060  -53.5560 C.ar   15  G15         0.1748
     17  C6        46.8510   -5.1600  -54.6480 C.ar   15  G15         0.3023
     18  O6        46.6490   -6.3700  -54.8050 O.2    15  G15        -0.2633
     19  N7        48.0190   -5.0290  -52.3930 N.ar   15  G15        -0.2173
     20  C8        48.4550   -3.9830  -51.7460 C.ar   15  G15         0.1817
     21  N9        48.2350   -2.8010  -52.4120 N.ar   15  G15        -0.2693
     22  OP1       49.6970   -2.6160  -45.5150 O.3    15  G15        -0.1955
     23  OP2       51.4900   -0.9960  -46.3560 O.co2  15  G15        -0.7863
     24  P         44.5930   -0.1400  -49.5650 P.3    16  G16         0.2141
     25  C5'       43.8760    1.0460  -51.7910 C.3    16  G16         0.1812
     26  O5'       44.0150   -0.1560  -51.0490 O.3    16  G16        -0.3114
     27  C4'       42.9140    0.8790  -52.9410 C.3    16  G16         0.1773
     28  O4'       43.5160    0.0550  -53.9750 O.3    16  G16        -0.3307
     29  C3'       41.6070    0.1700  -52.6250 C.3    16  G16         0.1860
     30  O3'       40.6530    1.0100  -52.0010 O.3    16  G16        -0.3112
     31  C2'       41.1720   -0.3390  -53.9920 C.3    16  G16         0.2309
     32  O2'       40.6060    0.7130  -54.7610 O.3    16  G16        -0.2156
     33  C1'       42.5180   -0.7200  -54.6100 C.3    16  G16         0.2408
     34  N1        41.9060   -5.4580  -56.3630 N.ar   16  G16        -0.1709
     35  C2        41.4170   -4.2760  -56.8590 C.ar   16  G16         0.2606
     36  N2        40.6650   -4.3600  -57.9660 N.pl3  16  G16        -0.0859
     37  N3        41.6490   -3.0960  -56.3080 N.ar   16  G16        -0.1918
     38  C4        42.4220   -3.1900  -55.2040 C.ar   16  G16         0.1723
     39  C5        42.9590   -4.3210  -54.6270 C.ar   16  G16         0.1748
     40  C6        42.7030   -5.5800  -55.2280 C.ar   16  G16         0.3023
     41  O6        43.0920   -6.6960  -54.8640 O.2    16  G16        -0.2633
     42  N7        43.6960   -3.9980  -53.4960 N.ar   16  G16        -0.2173
     43  C8        43.5950   -2.7000  -53.4080 C.ar   16  G16         0.1817
     44  N9        42.8340   -2.1470  -54.4090 N.ar   16  G16        -0.2693
     45  OP1       44.0260    1.0070  -48.8130 O.3    16  G16        -0.4373
     46  OP2       44.4990   -1.4970  -48.9740 O.co2  16  G16        -0.5172
     47  P         39.6480    0.4090  -50.8990 P.3    17  C17         0.2141
     48  C5'       37.6810    0.1100  -52.6070 C.3    17  C17         0.1812
     49  O5'       38.6610   -0.4880  -51.7710 O.3    17  C17        -0.3114
     50  C4'       37.1370   -0.8730  -53.6140 C.3    17  C17         0.1773
     51  O4'       38.2320   -1.5630  -54.2700 O.3    17  C17        -0.3307
     52  C3'       36.2790   -1.9980  -53.0560 C.3    17  C17         0.1860
     53  O3'       34.9430   -1.6020  -52.7990 O.3    17  C17        -0.3112
     54  C2'       36.4010   -3.0700  -54.1290 C.3    17  C17         0.2309
     55  O2'       35.5600   -2.7720  -55.2340 O.3    17  C17        -0.2156
     56  C1'       37.8540   -2.8910  -54.5680 C.3    17  C17         0.2420
     57  N1        38.7670   -3.8130  -53.8610 N.ar   17  C17        -0.2535
     58  C2        38.8660   -5.1230  -54.3330 C.ar   17  C17         0.3532
     59  O2        38.1820   -5.4590  -55.3130 O.2    17  C17        -0.2443
     60  N3        39.6970   -5.9870  -53.7080 N.ar   17  C17        -0.1739
     61  C4        40.4110   -5.5800  -52.6580 C.ar   17  C17         0.1759
     62  N4        41.2180   -6.4690  -52.0750 N.pl3  17  C17        -0.1070
     63  C5        40.3330   -4.2480  -52.1570 C.ar   17  C17         0.0566
     64  C6        39.5060   -3.4020  -52.7850 C.ar   17  C17         0.0850
     65  OP1       38.9070    1.5510  -50.3140 O.2    17  C17        -0.5172
     66  OP2       40.4520   -0.4540  -50.0000 O.co2  17  C17        -0.4373
     67  P         34.1060   -2.3030  -51.6200 P.3    18  C18         0.2141
     68  C5'       33.0450   -4.1490  -53.1520 C.3    18  C18         0.1812
     69  O5'       33.9670   -3.8040  -52.1290 O.3    18  C18        -0.3114
     70  C4'       33.0250   -5.6380  -53.3870 C.3    18  C18         0.1773
     71  O4'       34.3320   -6.0740  -53.8510 O.3    18  C18        -0.3307
     72  C3'       32.7660   -6.4980  -52.1580 C.3    18  C18         0.1860
     73  O3'       31.3920   -6.6070  -51.8270 O.3    18  C18        -0.3112
     74  C2'       33.4130   -7.8220  -52.5360 C.3    18  C18         0.2309
     75  O2'       32.5840   -8.5510  -53.4290 O.3    18  C18        -0.2156
     76  C1'       34.6430   -7.3380  -53.3020 C.3    18  C18         0.2420
     77  N1        35.8190   -7.1930  -52.4160 N.ar   18  C18        -0.2535
     78  C2        36.5440   -8.3480  -52.1300 C.ar   18  C18         0.3532
     79  O2        36.1680   -9.4140  -52.6350 O.2    18  C18        -0.2443
     80  N3        37.6260   -8.2810  -51.3200 N.ar   18  C18        -0.1739
     81  C4        37.9910   -7.1070  -50.7980 C.ar   18  C18         0.1759
     82  N4        39.0650   -7.0810  -50.0020 N.pl3  18  C18        -0.1070
     83  C5        37.2680   -5.9060  -51.0710 C.ar   18  C18         0.0566
     84  C6        36.1970   -5.9930  -51.8760 C.ar   18  C18         0.0850
     85  OP1       32.7730   -1.6570  -51.5860 O.2    18  C18        -0.5172
     86  OP2       34.9490   -2.2620  -50.4010 O.co2  18  C18        -0.4373
     87  P         30.9480   -6.8540  -50.3010 P.3    19  A19         0.2141
     88  C5'       30.3110   -9.3440  -50.8140 C.3    19  A19         0.1812
     89  O5'       31.1450   -8.4250  -50.1240 O.3    19  A19        -0.3114
     90  C4'       30.8960  -10.7350  -50.8130 C.3    19  A19         0.1773
     91  O4'       32.2690  -10.6950  -51.2820 O.3    19  A19        -0.3307
     92  C3'       30.9910  -11.4190  -49.4600 C.3    19  A19         0.1860
     93  O3'       29.7630  -11.9890  -49.0410 O.3    19  A19        -0.3112
     94  C2'       32.0930  -12.4440  -49.6860 C.3    19  A19         0.2309
     95  O2'       31.5910  -13.5710  -50.3880 O.3    19  A19        -0.2156
     96  C1'       33.0330  -11.6780  -50.6140 C.3    19  A19         0.2408
     97  N1        37.3740  -12.3380  -47.9570 N.ar   19  A19        -0.2040
     98  C2        36.5450  -13.2000  -48.5590 C.ar   19  A19         0.2016
     99  N3        35.4280  -12.9500  -49.2370 N.ar   19  A19        -0.2048
    100  C4        35.1770  -11.6320  -49.2700 C.ar   19  A19         0.1692
    101  C5        35.9290  -10.6250  -48.6990 C.ar   19  A19         0.1518
    102  C6        37.0890  -11.0170  -48.0090 C.ar   19  A19         0.1919
    103  N6        37.9190  -10.1610  -47.4100 N.pl3  19  A19        -0.1054
    104  N7        35.3520   -9.3840  -48.9410 N.ar   19  A19        -0.2193
    105  C8        34.2810   -9.6670  -49.6410 C.ar   19  A19         0.1816
    106  N9        34.1140  -11.0090  -49.8720 N.ar   19  A19        -0.2693
    107  OP1       29.5070   -6.5120  -50.2030 O.2    19  A19        -0.5172
    108  OP2       31.9120   -6.1270  -49.4410 O.co2  19  A19        -0.4373
    109  P         29.4410  -12.1580  -47.4760 P.3    20  U20         0.2141
    110  C5'       30.4890  -14.5630  -47.4770 C.3    20  U20         0.1812
    111  O5'       30.5250  -13.2240  -47.0060 O.3    20  U20        -0.3114
    112  C4'       31.6100  -15.3790  -46.8850 C.3    20  U20         0.1773
    113  O4'       32.8870  -14.8180  -47.2910 O.3    20  U20        -0.3307
    114  C3'       31.6750  -15.4010  -45.3640 C.3    20  U20         0.1860
    115  O3'       30.8060  -16.3610  -44.7870 O.3    20  U20        -0.3112
    116  C2'       33.1480  -15.6670  -45.0880 C.3    20  U20         0.2309
    117  O2'       33.4470  -17.0460  -45.2470 O.3    20  U20        -0.2156
    118  C1'       33.8110  -14.8920  -46.2270 C.3    20  U20         0.2420
    119  N1        34.1740  -13.5120  -45.8270 N.ar   20  U20        -0.2534
    120  C2        35.3780  -13.3190  -45.1780 C.ar   20  U20         0.3546
    121  O2        36.1420  -14.2300  -44.9070 O.2    20  U20        -0.2443
    122  N3        35.6540  -12.0170  -44.8420 N.ar   20  U20        -0.1530
    123  C4        34.8720  -10.9080  -45.0910 C.ar   20  U20         0.2846
    124  O4        35.2620   -9.7980  -44.7280 O.2    20  U20        -0.2650
    125  C5        33.6470  -11.1880  -45.7730 C.ar   20  U20         0.0814
    126  C6        33.3500  -12.4470  -46.1120 C.ar   20  U20         0.0870
    127  OP1       28.0810  -12.7410  -47.3690 O.2    20  U20        -0.5172
    128  OP2       29.7100  -10.8490  -46.8290 O.co2  20  U20        -0.4373
    129  P         30.0230  -16.0250  -43.4250 P.3    21  A21         0.2141
    130  C5'       31.9850  -16.9550  -41.9610 C.3    21  A21         0.1812
    131  O5'       31.2030  -15.8450  -42.3730 O.3    21  A21        -0.3114
    132  C4'       32.9860  -16.5630  -40.9040 C.3    21  A21         0.1773
    133  O4'       34.0300  -15.7500  -41.4900 O.3    21  A21        -0.3307
    134  C3'       32.4540  -15.7130  -39.7610 C.3    21  A21         0.1860
    135  O3'       31.7890  -16.4810  -38.7710 O.3    21  A21        -0.3112
    136  C2'       33.7080  -15.0100  -39.2460 C.3    21  A21         0.2309
    137  O2'       34.4160  -15.8430  -38.3440 O.3    21  A21        -0.2156
    138  C1'       34.5430  -14.8620  -40.5220 C.3    21  A21         0.2408
    139  N1        37.2500  -10.5560  -41.0430 N.ar   21  A21        -0.2040
    140  C2        37.5170  -11.7360  -40.4750 C.ar   21  A21         0.2016
    141  N3        36.7460  -12.8160  -40.3830 N.ar   21  A21        -0.2048
    142  C4        35.5530  -12.6020  -40.9670 C.ar   21  A21         0.1692
    143  C5        35.1290  -11.4460  -41.5890 C.ar   21  A21         0.1518
    144  C6        36.0420  -10.3750  -41.6200 C.ar   21  A21         0.1919
    145  N6        35.7800   -9.1940  -42.1820 N.pl3  21  A21        -0.1054
    146  N7        33.8350  -11.6040  -42.0710 N.ar   21  A21        -0.2193
    147  C8        33.5140  -12.8320  -41.7330 C.ar   21  A21         0.1816
    148  N9        34.5110  -13.4900  -41.0600 N.ar   21  A21        -0.2693
    149  OP1       29.2170  -17.2200  -43.0790 O.3    21  A21        -0.4373
    150  OP2       29.3280  -14.7350  -43.6280 O.co2  21  A21        -0.5172
    151  P         30.2460  -16.1970  -38.4210 P.3    22  U22         0.2141
    152  C5'       29.1380  -14.0070  -37.4970 C.3    22  U22         0.1812
    153  O5'       30.3070  -14.7980  -37.6700 O.3    22  U22        -0.3114
    154  C4'       29.4780  -12.5440  -37.3920 C.3    22  U22         0.1773
    155  O4'       30.2400  -12.3240  -36.1740 O.3    22  U22        -0.3307
    156  C3'       30.3320  -12.0000  -38.5310 C.3    22  U22         0.1860
    157  O3'       30.0000  -10.6320  -38.7600 O.3    22  U22        -0.3112
    158  C2'       31.7440  -12.0930  -37.9640 C.3    22  U22         0.2309
    159  O2'       32.6680  -11.2020  -38.5500 O.3    22  U22        -0.2156
    160  C1'       31.5050  -11.7760  -36.4900 C.3    22  U22         0.2420
    161  N1        32.5060  -12.3720  -35.5760 N.ar   22  U22        -0.2534
    162  C2        33.3680  -11.5190  -34.9130 C.ar   22  U22         0.3546
    163  O2        33.3390  -10.3090  -35.0480 O.2    22  U22        -0.2443
    164  N3        34.2700  -12.1350  -34.0810 N.ar   22  U22        -0.1530
    165  C4        34.3960  -13.4910  -33.8490 C.ar   22  U22         0.2846
    166  O4        35.2610  -13.8980  -33.0690 O.2    22  U22        -0.2650
    167  C5        33.4670  -14.3070  -34.5720 C.ar   22  U22         0.0814
    168  C6        32.5770  -13.7330  -35.3890 C.ar   22  U22         0.0870
    169  OP1       29.8120  -17.2540  -37.4770 O.3    22  U22        -0.4373
    170  OP2       29.5230  -16.0500  -39.7070 O.co2  22  U22        -0.5172
    171  P         28.7620  -10.2500  -39.7090 P.3    23  A23         0.2141
    172  C5'       28.0000   -8.9460  -37.5710 C.3    23  A23         0.1812
    173  O5'       27.6540   -9.7770  -38.6690 O.3    23  A23        -0.3114
    174  C4'       26.9620   -9.0010  -36.4770 C.3    23  A23         0.1773
    175  O4'       26.7420  -10.3750  -36.0760 O.3    23  A23        -0.3307
    176  C3'       27.3200   -8.2880  -35.1800 C.3    23  A23         0.1860
    177  O3'       27.0900   -6.8880  -35.2350 O.3    23  A23        -0.3112
    178  C2'       26.4560   -9.0050  -34.1440 C.3    23  A23         0.2309
    179  O2'       25.1430   -8.4610  -34.1170 O.3    23  A23        -0.2156
    180  C1'       26.3850  -10.4270  -34.7120 C.3    23  A23         0.2408
    181  N1        31.0430  -11.3100  -32.5550 N.ar   23  A23        -0.2040
    182  C2        30.5320  -10.2220  -33.1440 C.ar   23  A23         0.2016
    183  N3        29.3290  -10.0440  -33.6840 N.ar   23  A23        -0.2048
    184  C4        28.5860  -11.1580  -33.5820 C.ar   23  A23         0.1692
    185  C5        28.9820  -12.3510  -33.0010 C.ar   23  A23         0.1518
    186  C6        30.2750  -12.4170  -32.4660 C.ar   23  A23         0.1919
    187  N6        30.7710  -13.5100  -31.8820 N.pl3  23  A23        -0.1054
    188  N7        27.9720  -13.2930  -33.0650 N.ar   23  A23        -0.2193
    189  C8        27.0010  -12.6590  -33.6740 C.ar   23  A23         0.1816
    190  N9        27.2930  -11.3620  -34.0160 N.ar   23  A23        -0.2693
    191  OP1       28.3260  -11.4980  -40.3790 O.3    23  A23        -0.4373
    192  OP2       29.1910   -9.1040  -40.5460 O.co2  23  A23        -0.5172
    193  P         28.2900   -5.8730  -35.5790 P.3    24  A24         0.2141
    194  C5'       29.7750   -6.7350  -33.6030 C.3    24  A24         0.1812
    195  O5'       29.0140   -5.6840  -34.1760 O.3    24  A24        -0.3114
    196  C4'       31.1000   -6.2380  -33.0920 C.3    24  A24         0.1773
    197  O4'       31.9410   -5.8460  -34.2060 O.3    24  A24        -0.3307
    198  C3'       31.0500   -4.9980  -32.2140 C.3    24  A24         0.1860
    199  O3'       30.7060   -5.2890  -30.8690 O.3    24  A24        -0.3112
    200  C2'       32.4500   -4.4210  -32.3740 C.3    24  A24         0.2309
    201  O2'       33.3740   -5.1210  -31.5570 O.3    24  A24        -0.2156
    202  C1'       32.7550   -4.7550  -33.8340 C.3    24  A24         0.2408
    203  N1        34.3300   -0.1420  -35.4710 N.ar   24  A24        -0.2040
    204  C2        34.8240   -0.9940  -34.5650 C.ar   24  A24         0.2016
    205  N3        34.3590   -2.1830  -34.1880 N.ar   24  A24        -0.2048
    206  C4        33.2360   -2.4890  -34.8610 C.ar   24  A24         0.1692
    207  C5        32.6070   -1.7170  -35.8180 C.ar   24  A24         0.1518
    208  C6        33.1980   -0.4810  -36.1280 C.ar   24  A24         0.1919
    209  N6        32.7010    0.3640  -37.0330 N.pl3  24  A24        -0.1054
    210  N7        31.4720   -2.3560  -36.2950 N.ar   24  A24        -0.2193
    211  C8        31.4390   -3.4810  -35.6250 C.ar   24  A24         0.1816
    212  N9        32.4740   -3.6240  -34.7360 N.ar   24  A24        -0.2693
    213  OP1       27.6700   -4.5930  -35.9990 O.3    24  A24        -0.4373
    214  OP2       29.1960   -6.5670  -36.5210 O.co2  24  A24        -0.5172
    215  P         29.3930   -4.6380  -30.2040 P.3    25  C25         0.2141
    216  C5'       27.4350   -6.3280  -30.6310 C.3    25  C25         0.1812
    217  O5'       28.5230   -5.9150  -29.8170 O.3    25  C25        -0.3114
    218  C4'       27.2000   -7.8160  -30.5380 C.3    25  C25         0.1773
    219  O4'       28.3470   -8.5350  -31.0590 O.3    25  C25        -0.3307
    220  C3'       27.0190   -8.3840  -29.1390 C.3    25  C25         0.1860
    221  O3'       25.7130   -8.1780  -28.6250 O.3    25  C25        -0.3112
    222  C2'       27.3740   -9.8540  -29.3310 C.3    25  C25         0.2309
    223  O2'       26.2800  -10.5640  -29.8910 O.3    25  C25        -0.2156
    224  C1'       28.4820   -9.7690  -30.3840 C.3    25  C25         0.2420
    225  N1        29.8340   -9.8420  -29.7860 N.ar   25  C25        -0.2535
    226  C2        30.2390  -11.0510  -29.2140 C.ar   25  C25         0.3532
    227  O2        29.4530  -12.0080  -29.2110 O.2    25  C25        -0.2443
    228  N3        31.4720  -11.1490  -28.6680 N.ar   25  C25        -0.1739
    229  C4        32.2930  -10.0990  -28.6870 C.ar   25  C25         0.1759
    230  N4        33.5020  -10.2420  -28.1360 N.pl3  25  C25        -0.1070
    231  C5        31.9120   -8.8540  -29.2720 C.ar   25  C25         0.0566
    232  C6        30.6860   -8.7720  -29.8090 C.ar   25  C25         0.0850
    233  OP1       28.7030   -3.8600  -31.2620 O.2    25  C25        -0.5172
    234  OP2       29.8310   -3.9340  -28.9740 O.co2  25  C25        -0.4373
    235  P         25.4910   -7.9210  -27.0530 P.3    26  U26         0.2141
    236  C5'       24.6700  -10.3840  -26.6940 C.3    26  U26         0.1812
    237  O5'       25.6390   -9.3800  -26.4320 O.3    26  U26        -0.3114
    238  C4'       25.0090  -11.6790  -25.9990 C.3    26  U26         0.1773
    239  O4'       26.2340  -12.2300  -26.5540 O.3    26  U26        -0.3307
    240  C3'       25.2970  -11.5810  -24.5100 C.3    26  U26         0.1860
    241  O3'       24.1240  -11.5190  -23.7180 O.3    26  U26        -0.3112
    242  C2'       26.1410  -12.8210  -24.2580 C.3    26  U26         0.2309
    243  O2'       25.3240  -13.9810  -24.2130 O.3    26  U26        -0.2156
    244  C1'       26.9770  -12.8700  -25.5350 C.3    26  U26         0.2420
    245  N1        28.2680  -12.1640  -25.3780 N.ar   26  U26        -0.2534
    246  C2        29.3480  -12.8890  -24.9130 C.ar   26  U26         0.3546
    247  O2        29.2800  -14.0720  -24.6290 O.2    26  U26        -0.2443
    248  N3        30.5140  -12.1750  -24.7890 N.ar   26  U26        -0.1530
    249  C4        30.7070  -10.8390  -25.0790 C.ar   26  U26         0.2846
    250  O4        31.8200  -10.3330  -24.9180 O.2    26  U26        -0.2650
    251  C5        29.5430  -10.1600  -25.5550 C.ar   26  U26         0.0814
    252  C6        28.3940  -10.8290  -25.6850 C.ar   26  U26         0.0870
    253  OP1       24.0980   -7.4400  -26.8840 O.2    26  U26        -0.5172
    254  OP2       26.6030   -7.0590  -26.5880 O.co2  26  U26        -0.4373
    255  P         24.1370  -10.7150  -22.3260 P.3    27  G27         0.2141
    256  C5'       24.1660  -12.9080  -20.8890 C.3    27  G27         0.1812
    257  O5'       24.8410  -11.7390  -21.3310 O.3    27  G27        -0.3114
    258  C4'       25.1060  -13.8690  -20.2030 C.3    27  G27         0.1773
    259  O4'       26.2290  -14.1640  -21.0730 O.3    27  G27        -0.3307
    260  C3'       25.7610  -13.3750  -18.9220 C.3    27  G27         0.1860
    261  O3'       24.9120  -13.4630  -17.7910 O.3    27  G27        -0.3112
    262  C2'       26.9950  -14.2610  -18.8280 C.3    27  G27         0.2309
    263  O2'       26.6470  -15.5570  -18.3630 O.3    27  G27        -0.2156
    264  C1'       27.3930  -14.3690  -20.2990 C.3    27  G27         0.2408
    265  N1        32.3160  -13.1730  -20.2530 N.ar   27  G27        -0.1709
    266  C2        31.6820  -14.2940  -19.7830 C.ar   27  G27         0.2606
    267  N2        32.4650  -15.2260  -19.2230 N.pl3  27  G27        -0.0859
    268  N3        30.3770  -14.4860  -19.8560 N.ar   27  G27        -0.1918
    269  C4        29.7470  -13.4510  -20.4490 C.ar   27  G27         0.1723
    270  C5        30.2870  -12.2870  -20.9520 C.ar   27  G27         0.1748
    271  C6        31.6890  -12.0940  -20.8670 C.ar   27  G27         0.3023
    272  O6        32.3610  -11.1300  -21.2550 O.2    27  G27        -0.2633
    273  N7        29.2940  -11.4730  -21.4820 N.ar   27  G27        -0.2173
    274  C8        28.1890  -12.1440  -21.2940 C.ar   27  G27         0.1817
    275  N9        28.3960  -13.3540  -20.6720 N.ar   27  G27        -0.2693
    276  OP1       22.7230  -10.5120  -21.9270 O.3    27  G27        -0.4373
    277  OP2       25.0000   -9.5250  -22.5180 O.co2  27  G27        -0.5172
    278  P         25.1210  -12.4690  -16.5440 P.3    28  C28         0.2141
    279  C5'       26.6430  -14.1300  -15.2050 C.3    28  C28         0.1812
    280  O5'       26.5270  -12.9300  -15.9540 O.3    28  C28        -0.3114
    281  C4'       28.0700  -14.3930  -14.7890 C.3    28  C28         0.1773
    282  O4'       28.9340  -14.4080  -15.9550 O.3    28  C28        -0.3307
    283  C3'       28.7120  -13.3530  -13.8850 C.3    28  C28         0.1860
    284  O3'       28.3140  -13.4640  -12.5300 O.3    28  C28        -0.3112
    285  C2'       30.1960  -13.6060  -14.1080 C.3    28  C28         0.2309
    286  O2'       30.6200  -14.7570  -13.3920 O.3    28  C28        -0.2156
    287  C1'       30.2190  -13.9310  -15.6020 C.3    28  C28         0.2420
    288  N1        30.5290  -12.7390  -16.4210 N.ar   28  C28        -0.2535
    289  C2        31.8710  -12.3720  -16.5530 C.ar   28  C28         0.3532
    290  O2        32.7350  -13.0580  -15.9860 O.2    28  C28        -0.2443
    291  N3        32.1960  -11.2840  -17.2890 N.ar   28  C28        -0.1739
    292  C4        31.2360  -10.5720  -17.8810 C.ar   28  C28         0.1759
    293  N4        31.6030   -9.5080  -18.5990 N.pl3  28  C28        -0.1070
    294  C5        29.8590  -10.9230  -17.7630 C.ar   28  C28         0.0566
    295  C6        29.5500  -12.0020  -17.0300 C.ar   28  C28         0.0850
    296  OP1       24.0450  -12.7620  -15.5680 O.3    28  C28        -0.4373
    297  OP2       25.2290  -11.0970  -17.0920 O.co2  28  C28        -0.5172
    298  P         28.4520  -12.1990  -11.5450 P.3    29  G29         0.2141
    299  C5'       30.8360  -12.9670  -10.7700 C.3    29  G29         0.1812
    300  O5'       30.0290  -12.0080  -11.4330 O.3    29  G29        -0.3114
    301  C4'       32.2030  -12.4150  -10.4550 C.3    29  G29         0.1773
    302  O4'       33.0070  -12.3600  -11.6640 O.3    29  G29        -0.3307
    303  C3'       32.2420  -10.9890   -9.9320 C.3    29  G29         0.1860
    304  O3'       31.9140  -10.8880   -8.5580 O.3    29  G29        -0.3112
    305  C2'       33.6660  -10.5620  -10.2580 C.3    29  G29         0.2309
    306  O2'       34.5830  -11.1240   -9.3320 O.3    29  G29        -0.2156
    307  C1'       33.8710  -11.2410  -11.6130 C.3    29  G29         0.2408
    308  N1        35.4350   -7.2970  -14.4140 N.ar   29  G29        -0.1709
    309  C2        36.0520   -7.9280  -13.3620 C.ar   29  G29         0.2606
    310  N2        37.2490   -7.4500  -12.9960 N.pl3  29  G29        -0.0859
    311  N3        35.5330   -8.9540  -12.7100 N.ar   29  G29        -0.1918
    312  C4        34.3280   -9.3120  -13.2020 C.ar   29  G29         0.1723
    313  C5        33.6260   -8.7480  -14.2460 C.ar   29  G29         0.1748
    314  C6        34.1930   -7.6450  -14.9380 C.ar   29  G29         0.3023
    315  O6        33.7260   -7.0080  -15.8910 O.2    29  G29        -0.2633
    316  N7        32.4210   -9.4090  -14.4350 N.ar   29  G29        -0.2173
    317  C8        32.4150  -10.3420  -13.5200 C.ar   29  G29         0.1817
    318  N9        33.5440  -10.3400  -12.7360 N.ar   29  G29        -0.2693
    319  OP1       27.8970  -12.6060  -10.2310 O.3    29  G29        -0.4373
    320  OP2       27.8520  -11.0350  -12.2410 O.co2  29  G29        -0.5172
    321  P         31.2460   -9.5420   -7.9880 P.3    30  U30         0.2141
    322  C5'       33.6050   -8.8490   -7.0920 C.3    30  U30         0.1812
    323  O5'       32.4830   -8.5450   -7.9040 O.3    30  U30        -0.3114
    324  C4'       34.7250   -7.8630   -7.3020 C.3    30  U30         0.1773
    325  O4'       35.2620   -8.0040   -8.6440 O.3    30  U30        -0.3307
    326  C3'       34.3460   -6.3940   -7.2210 C.3    30  U30         0.1860
    327  O3'       34.2100   -5.9200   -5.8930 O.3    30  U30        -0.3112
    328  C2'       35.4710   -5.7320   -7.9990 C.3    30  U30         0.2309
    329  O2'       36.6600   -5.6890   -7.2240 O.3    30  U30        -0.2156
    330  C1'       35.6690   -6.7390   -9.1300 C.3    30  U30         0.2420
    331  N1        34.8460   -6.3990  -10.3120 N.ar   30  U30        -0.2534
    332  C2        35.4220   -5.6040  -11.2820 C.ar   30  U30         0.3546
    333  O2        36.5670   -5.1930  -11.2020 O.2    30  U30        -0.2443
    334  N3        34.6090   -5.3080  -12.3510 N.ar   30  U30        -0.1530
    335  C4        33.3040   -5.7180  -12.5410 C.ar   30  U30         0.2846
    336  O4        32.6990   -5.3720  -13.5590 O.2    30  U30        -0.2650
    337  C5        32.7790   -6.5340  -11.4890 C.ar   30  U30         0.0814
    338  C6        33.5480   -6.8360  -10.4370 C.ar   30  U30         0.0870
    339  OP1       30.7460   -9.8430   -6.6240 O.3    30  U30        -0.4373
    340  OP2       30.2830   -9.0650   -9.0100 O.co2  30  U30        -0.5172
    341  P         33.2920   -4.6350   -5.5890 P.3    31  G31         0.2141
    342  C5'       35.4600   -3.1770   -5.7400 C.3    31  G31         0.1812
    343  O5'       34.1450   -3.4410   -6.2050 O.3    31  G31        -0.3114
    344  C4'       36.2180   -2.2830   -6.6880 C.3    31  G31         0.1773
    345  O4'       36.3110   -2.9080   -7.9950 O.3    31  G31        -0.3307
    346  C3'       35.5900   -0.9330   -6.9840 C.3    31  G31         0.1860
    347  O3'       35.7890    0.0140   -5.9500 O.3    31  G31        -0.3112
    348  C2'       36.2530   -0.5520   -8.2980 C.3    31  G31         0.2309
    349  O2'       37.5780   -0.0900   -8.0770 O.3    31  G31        -0.2156
    350  C1'       36.3250   -1.9100   -8.9970 C.3    31  G31         0.2408
    351  N1        34.0490   -0.2630  -13.1980 N.ar   31  G31        -0.1709
    352  C2        35.1890    0.1820  -12.5740 C.ar   31  G31         0.2606
    353  N2        35.8220    1.2160  -13.1440 N.pl3  31  G31        -0.0859
    354  N3        35.6780   -0.3490  -11.4670 N.ar   31  G31        -0.1918
    355  C4        34.9250   -1.3780  -11.0250 C.ar   31  G31         0.1723
    356  C5        33.7730   -1.9020  -11.5670 C.ar   31  G31         0.1748
    357  C6        33.2580   -1.3210  -12.7590 C.ar   31  G31         0.3023
    358  O6        32.2490   -1.6380  -13.4020 O.2    31  G31        -0.2633
    359  N7        33.3110   -2.9610  -10.7960 N.ar   31  G31        -0.2173
    360  C8        34.1740   -3.0570   -9.8180 C.ar   31  G31         0.1817
    361  N9        35.1780   -2.1230   -9.9000 N.ar   31  G31        -0.2693
    362  OP1       33.2140   -4.4910   -4.1160 O.3    31  G31        -0.4373
    363  OP2       32.0330   -4.8040   -6.3570 O.co2  31  G31        -0.5172
    364  P         34.6540    1.1040   -5.6300 P.3    32  G32         0.2141
    365  C5'       35.8270    2.6340   -7.4070 C.3    32  G32         0.1812
    366  O5'       34.6430    2.0020   -6.9460 O.3    32  G32        -0.3114
    367  C4'       35.5980    3.3600   -8.7080 C.3    32  G32         0.1773
    368  O4'       35.3030    2.4070   -9.7630 O.3    32  G32        -0.3307
    369  C3'       34.4180    4.3170   -8.7400 C.3    32  G32         0.1860
    370  O3'       34.7010    5.5680   -8.1350 O.3    32  G32        -0.3112
    371  C2'       34.1150    4.4100  -10.2300 C.3    32  G32         0.2309
    372  O2'       35.0440    5.2630  -10.8800 O.3    32  G32        -0.2156
    373  C1'       34.3860    2.9740  -10.6770 C.3    32  G32         0.2408
    374  N1        30.0050    1.9910  -13.0520 N.ar   32  G32        -0.1709
    375  C2        30.9860    2.8960  -13.3730 C.ar   32  G32         0.2606
    376  N2        30.7750    3.6390  -14.4690 N.pl3  32  G32        -0.0859
    377  N3        32.0930    3.0580  -12.6670 N.ar   32  G32        -0.1918
    378  C4        32.1420    2.2310  -11.6010 C.ar   32  G32         0.1723
    379  C5        31.2170    1.2950  -11.1930 C.ar   32  G32         0.1748
    380  C6        30.0350    1.1310  -11.9580 C.ar   32  G32         0.3023
    381  O6        29.0980    0.3520  -11.7570 O.2    32  G32        -0.2633
    382  N7        31.6410    0.6480  -10.0410 N.ar   32  G32        -0.2173
    383  C8        32.7960    1.1940   -9.7730 C.ar   32  G32         0.1817
    384  N9        33.1590    2.1580  -10.6800 N.ar   32  G32        -0.2693
    385  OP1       35.1300    1.9030   -4.4760 O.3    32  G32        -0.4373
    386  OP2       33.3700    0.3720   -5.5100 O.co2  32  G32        -0.5172
    387  P         33.5050    6.4790   -7.5630 P.3    33  A33         0.2141
    388  C5'       33.6460    7.7570   -9.8470 C.3    33  A33         0.1812
    389  O5'       32.8520    7.0750   -8.8870 O.3    33  A33        -0.3114
    390  C4'       32.8240    8.2050  -11.0290 C.3    33  A33         0.1773
    391  O4'       32.5140    7.0700  -11.8790 O.3    33  A33        -0.3307
    392  C3'       31.4650    8.8000  -10.7080 C.3    33  A33         0.1860
    393  O3'       31.5390   10.1500  -10.2880 O.3    33  A33        -0.3112
    394  C2'       30.7020    8.6040  -12.0130 C.3    33  A33         0.2309
    395  O2'       31.0690    9.5950  -12.9620 O.3    33  A33        -0.2156
    396  C1'       31.2520    7.2580  -12.4850 C.3    33  A33         0.2408
    397  N1        26.7770    4.9050  -13.3950 N.ar   33  A33        -0.2040
    398  C2        27.3540    5.9870  -13.9300 C.ar   33  A33         0.2016
    399  N3        28.5270    6.5430  -13.6400 N.ar   33  A33        -0.2048
    400  C4        29.1490    5.8580  -12.6660 C.ar   33  A33         0.1692
    401  C5        28.6840    4.7290  -12.0180 C.ar   33  A33         0.1518
    402  C6        27.4280    4.2390  -12.4170 C.ar   33  A33         0.1919
    403  N6        26.8530    3.1600  -11.8830 N.pl3  33  A33        -0.1054
    404  N7        29.6000    4.3000  -11.0680 N.ar   33  A33        -0.2193
    405  C8        30.5820    5.1650  -11.1590 C.ar   33  A33         0.1816
    406  N9        30.3720    6.1360  -12.1060 N.ar   33  A33        -0.2693
    407  OP1       34.1250    7.5690   -6.7720 O.3    33  A33        -0.4373
    408  OP2       32.5440    5.5690   -6.8910 O.co2  33  A33        -0.5172
    409  P         30.5830   10.6820   -9.1120 P.3    34  U34         0.2141
    410  C5'       29.0760   11.3810  -11.1440 C.3    34  U34         0.1812
    411  O5'       29.1730   10.8160   -9.8410 O.3    34  U34        -0.3114
    412  C4'       27.6840   11.2490  -11.7130 C.3    34  U34         0.1773
    413  O4'       27.3650    9.8390  -11.8790 O.3    34  U34        -0.3307
    414  C3'       26.5710   11.8450  -10.8540 C.3    34  U34         0.1860
    415  O3'       25.5730   12.4210  -11.6970 O.3    34  U34        -0.3112
    416  C2'       26.0000   10.6240  -10.1340 C.3    34  U34         0.2309
    417  O2'       24.6540   10.7560   -9.7300 O.3    34  U34        -0.2156
    418  C1'       26.1730    9.5280  -11.1840 C.3    34  U34         0.2420
    419  N1        26.3130    8.1660  -10.6140 N.ar   34  U34        -0.2534
    420  C2        25.4110    7.1890  -10.9990 C.ar   34  U34         0.3546
    421  O2        24.5020    7.3930  -11.7860 O.2    34  U34        -0.2443
    422  N3        25.6100    5.9560  -10.4250 N.ar   34  U34        -0.1530
    423  C4        26.5950    5.6030   -9.5260 C.ar   34  U34         0.2846
    424  O4        26.6430    4.4480   -9.0990 O.2    34  U34        -0.2650
    425  C5        27.4870    6.6650   -9.1800 C.ar   34  U34         0.0814
    426  C6        27.3200    7.8760   -9.7210 C.ar   34  U34         0.0870
    427  OP1       31.0790   12.0240   -8.7180 O.2    34  U34        -0.5172
    428  OP2       30.5200    9.6150   -8.0840 O.co2  34  U34        -0.4373
    429  P         25.4150   14.0200  -11.7820 P.3    35  A35         0.2141
    430  C5'       25.4720   14.4720  -14.3690 C.3    35  A35         0.1812
    431  O5'       24.7070   14.2340  -13.1920 O.3    35  A35        -0.3114
    432  C4'       24.6060   14.9540  -15.5080 C.3    35  A35         0.1773
    433  O4'       23.6730   13.9010  -15.8740 O.3    35  A35        -0.3307
    434  C3'       23.7580   16.1860  -15.2010 C.3    35  A35         0.1860
    435  O3'       23.6120   16.9710  -16.3840 O.3    35  A35        -0.3112
    436  C2'       22.4130   15.5800  -14.8180 C.3    35  A35         0.2309
    437  O2'       21.3070   16.4400  -14.9960 O.3    35  A35        -0.2156
    438  C1'       22.3430   14.3680  -15.7430 C.3    35  A35         0.2408
    439  N1        17.7560   12.0250  -15.8160 N.ar   35  A35        -0.2040
    440  C2        18.2270   13.0960  -16.4680 C.ar   35  A35         0.2016
    441  N3        19.4320   13.6570  -16.4060 N.ar   35  A35        -0.2048
    442  C4        20.2210   12.9900  -15.5460 C.ar   35  A35         0.1692
    443  C5        19.8800   11.8750  -14.8020 C.ar   35  A35         0.1518
    444  C6        18.5740   11.3790  -14.9570 C.ar   35  A35         0.1919
    445  N6        18.1070   10.3110  -14.3050 N.pl3  35  A35        -0.1054
    446  N7        20.9480   11.4570  -14.0200 N.ar   35  A35        -0.2193
    447  C8        21.8960   12.3160  -14.3040 C.ar   35  A35         0.1816
    448  N9        21.5260   13.2710  -15.2190 N.ar   35  A35        -0.2693
    449  OP1       26.7830   14.5940  -11.8130 O.2    35  A35        -0.5172
    450  OP2       24.4990   14.4260  -10.6900 O.co2  35  A35        -0.4373
    451  P         24.4150   18.3560  -16.5360 P.3    36  U36         0.2141
    452  C5'       26.1780   17.0490  -17.9770 C.3    36  U36         0.1812
    453  O5'       25.8990   17.8710  -16.8490 O.3    36  U36        -0.3114
    454  C4'       27.6300   17.1300  -18.3810 C.3    36  U36         0.1773
    455  O4'       28.1810   18.4010  -17.9330 O.3    36  U36        -0.3307
    456  C3'       28.5360   16.0470  -17.7940 C.3    36  U36         0.1860
    457  O3'       29.5750   15.7560  -18.7320 O.3    36  U36        -0.3112
    458  C2'       29.1270   16.7470  -16.5740 C.3    36  U36         0.2309
    459  O2'       30.3430   16.2040  -16.1080 O.3    36  U36        -0.2156
    460  C1'       29.3040   18.1640  -17.1040 C.3    36  U36         0.2420
    461  N1        29.3360   19.2000  -16.0550 N.ar   36  U36        -0.2534
    462  C2        30.5730   19.7100  -15.7110 C.ar   36  U36         0.3546
    463  O2        31.6100   19.3380  -16.2320 O.2    36  U36        -0.2443
    464  N3        30.5490   20.6710  -14.7310 N.ar   36  U36        -0.1530
    465  C4        29.4360   21.1600  -14.0790 C.ar   36  U36         0.2846
    466  O4        29.5750   22.0290  -13.2180 O.2    36  U36        -0.2650
    467  C5        28.1940   20.5810  -14.4930 C.ar   36  U36         0.0814
    468  C6        28.1870   19.6430  -15.4450 C.ar   36  U36         0.0870
    469  OP1       24.3730   19.0330  -15.2170 O.3    36  U36        -0.4373
    470  OP2       23.8540   19.0590  -17.7150 O.co2  36  U36        -0.5172
    471  P         30.6770   14.6280  -18.4160 P.3    37  A37         0.2141
    472  C5'       30.8410   13.2100  -16.2180 C.3    37  A37         0.1812
    473  O5'       30.0250   13.8130  -17.2120 O.3    37  A37        -0.3114
    474  C4'       30.2520   11.9110  -15.7270 C.3    37  A37         0.1773
    475  O4'       28.9380   12.1480  -15.1590 O.3    37  A37        -0.3307
    476  C3'       30.0090   10.8430  -16.7810 C.3    37  A37         0.1860
    477  O3'       31.1810   10.1240  -17.1220 O.3    37  A37        -0.3112
    478  C2'       28.9310    9.9830  -16.1360 C.3    37  A37         0.2309
    479  O2'       29.4970    9.1100  -15.1690 O.3    37  A37        -0.2156
    480  C1'       28.1010   11.0380  -15.4070 C.3    37  A37         0.2408
    481  N1        23.1530   10.2450  -16.6130 N.ar   37  A37        -0.2040
    482  C2        23.9870    9.6140  -15.7790 C.ar   37  A37         0.2016
    483  N3        25.2650    9.8720  -15.5100 N.ar   37  A37        -0.2048
    484  C4        25.6950   10.9290  -16.2200 C.ar   37  A37         0.1692
    485  C5        24.9580   11.6770  -17.1190 C.ar   37  A37         0.1518
    486  C6        23.6170   11.3020  -17.3140 C.ar   37  A37         0.1919
    487  N6        22.7850   11.9320  -18.1470 N.pl3  37  A37        -0.1054
    488  N7        25.7320   12.6910  -17.6660 N.ar   37  A37        -0.2193
    489  C8        26.9020   12.5360  -17.0960 C.ar   37  A37         0.1816
    490  N9        26.9500   11.4880  -16.2110 N.ar   37  A37        -0.2693
    491  OP1       31.8960   15.3310  -17.9480 O.3    37  A37        -0.4373
    492  OP2       30.7720   13.7640  -19.6170 O.co2  37  A37        -0.5172
    493  P         31.3060    9.4210  -18.5610 P.3    38  G38         0.2141
    494  C5'       30.5150    7.1620  -17.4850 C.3    38  G38         0.1812
    495  O5'       30.3020    8.1910  -18.4420 O.3    38  G38        -0.3114
    496  C4'       29.3850    6.1630  -17.4870 C.3    38  G38         0.1773
    497  O4'       28.1700    6.7940  -17.0010 O.3    38  G38        -0.3307
    498  C3'       28.9960    5.6020  -18.8470 C.3    38  G38         0.1860
    499  O3'       29.8350    4.5400  -19.2680 O.3    38  G38        -0.3112
    500  C2'       27.5450    5.1920  -18.6380 C.3    38  G38         0.2309
    501  O2'       27.4660    3.9580  -17.9380 O.3    38  G38        -0.2156
    502  C1'       27.0530    6.3050  -17.7130 C.3    38  G38         0.2408
    503  N1        22.7880    8.3710  -19.5860 N.ar   38  G38        -0.1709
    504  C2        22.9450    7.2060  -18.8820 C.ar   38  G38         0.2606
    505  N2        21.8270    6.5050  -18.6510 N.pl3  38  G38        -0.0859
    506  N3        24.1130    6.7670  -18.4420 N.ar   38  G38        -0.1918
    507  C4        25.1280    7.5990  -18.7680 C.ar   38  G38         0.1723
    508  C5        25.0730    8.7850  -19.4690 C.ar   38  G38         0.1748
    509  C6        23.8130    9.2440  -19.9340 C.ar   38  G38         0.3023
    510  O6        23.5530   10.2710  -20.5730 O.2    38  G38        -0.2633
    511  N7        26.3360    9.3460  -19.5970 N.ar   38  G38        -0.2173
    512  C8        27.1240    8.5070  -18.9850 C.ar   38  G38         0.1817
    513  N9        26.4580    7.4240  -18.4640 N.ar   38  G38        -0.2693
    514  OP1       32.7000    8.9260  -18.6840 O.3    38  G38        -0.4373
    515  OP2       30.8010   10.3900  -19.5650 O.co2  38  G38        -0.5172
    516  P         30.5250    4.5810  -20.7190 P.3    39  C39         0.2141
    517  C5'       33.0310    5.2990  -20.4350 C.3    39  C39         0.1812
    518  O5'       32.0520    4.2710  -20.3910 O.3    39  C39        -0.3114
    519  C4'       34.1080    5.0820  -19.4010 C.3    39  C39         0.1773
    520  O4'       33.5200    5.0660  -18.0740 O.3    39  C39        -0.3307
    521  C3'       34.8600    3.7610  -19.4880 C.3    39  C39         0.1860
    522  O3'       35.8890    3.7720  -20.4630 O.3    39  C39        -0.3112
    523  C2'       35.3690    3.5750  -18.0660 C.3    39  C39         0.2309
    524  O2'       36.5190    4.3770  -17.8340 O.3    39  C39        -0.2156
    525  C1'       34.2090    4.1470  -17.2520 C.3    39  C39         0.2420
    526  N1        33.2620    3.0940  -16.8260 N.ar   39  C39        -0.2535
    527  C2        33.6130    2.3030  -15.7320 C.ar   39  C39         0.3532
    528  O2        34.6960    2.5190  -15.1700 O.2    39  C39        -0.2443
    529  N3        32.7700    1.3280  -15.3200 N.ar   39  C39        -0.1739
    530  C4        31.6140    1.1340  -15.9590 C.ar   39  C39         0.1759
    531  N4        30.8070    0.1640  -15.5230 N.pl3  39  C39        -0.1070
    532  C5        31.2320    1.9290  -17.0780 C.ar   39  C39         0.0566
    533  C6        32.0770    2.8900  -17.4760 C.ar   39  C39         0.0850
    534  OP1       30.3880    5.9670  -21.2290 O.3    39  C39        -0.4373
    535  OP2       29.9450    3.4690  -21.5110 O.co2  39  C39        -0.5172
    536  P         36.4670    2.3880  -21.0470 P.3    40  A40         0.2141
    537  C5'       38.5000    2.5360  -19.3970 C.3    40  A40         0.1812
    538  O5'       37.3490    1.8320  -19.8420 O.3    40  A40        -0.3114
    539  C4'       39.0570    1.9470  -18.1230 C.3    40  A40         0.1773
    540  O4'       38.0210    1.8840  -17.1100 O.3    40  A40        -0.3307
    541  C3'       39.5690    0.5190  -18.2100 C.3    40  A40         0.1860
    542  O3'       40.8660    0.4290  -18.7750 O.3    40  A40        -0.3112
    543  C2'       39.5030    0.0560  -16.7600 C.3    40  A40         0.2309
    544  O2'       40.6160    0.5450  -16.0260 O.3    40  A40        -0.2156
    545  C1'       38.2470    0.7740  -16.2650 C.3    40  A40         0.2408
    546  N1        35.7910   -3.0710  -13.9110 N.ar   40  A40        -0.2040
    547  C2        36.9390   -2.4330  -13.6500 C.ar   40  A40         0.2016
    548  N3        37.5170   -1.4360  -14.3140 N.ar   40  A40        -0.2048
    549  C4        36.7760   -1.0830  -15.3780 C.ar   40  A40         0.1692
    550  C5        35.5770   -1.6430  -15.7770 C.ar   40  A40         0.1518
    551  C6        35.0700   -2.6920  -14.9900 C.ar   40  A40         0.1919
    552  N6        33.9260   -3.3300  -15.2480 N.pl3  40  A40        -0.1054
    553  N7        35.1070   -1.0200  -16.9250 N.ar   40  A40        -0.2193
    554  C8        36.0180   -0.1120  -17.1900 C.ar   40  A40         0.1816
    555  N9        37.0580   -0.0990  -16.2950 N.ar   40  A40        -0.2693
    556  OP1       37.3420    2.7310  -22.1950 O.2    40  A40        -0.5172
    557  OP2       35.3070    1.4920  -21.2780 O.co2  40  A40        -0.4373
    558  P         41.3190   -0.9040  -19.5510 P.3    41  C41         0.2141
    559  C5'       42.3810   -2.0680  -17.4540 C.3    41  C41         0.1812
    560  O5'       41.3220   -2.0030  -18.3980 O.3    41  C41        -0.3114
    561  C4'       42.1570   -3.1660  -16.4440 C.3    41  C41         0.1773
    562  O4'       40.9550   -2.8900  -15.6750 O.3    41  C41        -0.3307
    563  C3'       41.9120   -4.5560  -17.0110 C.3    41  C41         0.1860
    564  O3'       43.0980   -5.2230  -17.3990 O.3    41  C41        -0.3112
    565  C2'       41.1660   -5.2400  -15.8780 C.3    41  C41         0.2309
    566  O2'       42.0580   -5.5890  -14.8290 O.3    41  C41        -0.2156
    567  C1'       40.2770   -4.0990  -15.3940 C.3    41  C41         0.2420
    568  N1        38.9830   -4.0810  -16.1040 N.ar   41  C41        -0.2535
    569  C2        37.9140   -4.8180  -15.5900 C.ar   41  C41         0.3532
    570  O2        38.0770   -5.4640  -14.5450 O.2    41  C41        -0.2443
    571  N3        36.7310   -4.8050  -16.2460 N.ar   41  C41        -0.1739
    572  C4        36.5990   -4.0970  -17.3690 C.ar   41  C41         0.1759
    573  N4        35.4120   -4.1140  -17.9790 N.pl3  41  C41        -0.1070
    574  C5        37.6730   -3.3390  -17.9160 C.ar   41  C41         0.0566
    575  C6        38.8370   -3.3610  -17.2570 C.ar   41  C41         0.0850
    576  OP1       42.7030   -0.6780  -20.0360 O.3    41  C41        -0.4373
    577  OP2       40.2590   -1.2150  -20.5420 O.co2  41  C41        -0.5172
    578  P         43.0300   -6.4110  -18.4790 P.3    42  G42         0.2141
    579  C5'       43.1660   -8.1610  -16.5360 C.3    42  G42         0.1812
    580  O5'       42.4410   -7.6230  -17.6310 O.3    42  G42        -0.3114
    581  C4'       42.3880   -9.2410  -15.8220 C.3    42  G42         0.1773
    582  O4'       41.1740   -8.6870  -15.2460 O.3    42  G42        -0.3307
    583  C3'       41.8800  -10.3860  -16.6810 C.3    42  G42         0.1860
    584  O3'       42.8800  -11.3310  -17.0120 O.3    42  G42        -0.3112
    585  C2'       40.7620  -10.9530  -15.8220 C.3    42  G42         0.2309
    586  O2'       41.2920  -11.7090  -14.7430 O.3    42  G42        -0.2156
    587  C1'       40.1530   -9.6700  -15.2600 C.3    42  G42         0.2408
    588  N1        35.3030  -10.3960  -16.5170 N.ar   42  G42        -0.1709
    589  C2        36.0930  -11.0730  -15.6210 C.ar   42  G42         0.2606
    590  N2        35.5130  -12.0900  -14.9660 N.pl3  42  G42        -0.0859
    591  N3        37.3600  -10.7770  -15.3820 N.ar   42  G42        -0.1918
    592  C4        37.7800   -9.7310  -16.1240 C.ar   42  G42         0.1723
    593  C5        37.0780   -8.9860  -17.0470 C.ar   42  G42         0.1748
    594  C6        35.7180   -9.3160  -17.2920 C.ar   42  G42         0.3023
    595  O6        34.9210   -8.7780  -18.0690 O.2    42  G42        -0.2633
    596  N7        37.8850   -7.9930  -17.5930 N.ar   42  G42        -0.2173
    597  C8        39.0410   -8.1530  -17.0030 C.ar   42  G42         0.1817
    598  N9        39.0400   -9.1880  -16.0980 N.ar   42  G42        -0.2693
    599  OP1       44.4230   -6.7120  -18.8860 O.3    42  G42        -0.4373
    600  OP2       42.0540   -6.0020  -19.5190 O.co2  42  G42        -0.5172
    601  P         42.8360  -12.0760  -18.4360 P.3    43  C43         0.2141
    602  C5'       41.6910  -14.2650  -17.5590 C.3    43  C43         0.1812
    603  O5'       41.5830  -13.0530  -18.2910 O.3    43  C43        -0.3114
    604  C4'       40.3590  -14.9640  -17.4130 C.3    43  C43         0.1773
    605  O4'       39.3380  -14.0210  -16.9990 O.3    43  C43        -0.3307
    606  C3'       39.7750  -15.5850  -18.6700 C.3    43  C43         0.1860
    607  O3'       40.3890  -16.8100  -19.0260 O.3    43  C43        -0.3112
    608  C2'       38.3030  -15.7240  -18.3020 C.3    43  C43         0.2309
    609  O2'       38.0980  -16.8490  -17.4590 O.3    43  C43        -0.2156
    610  C1'       38.0770  -14.4530  -17.4780 C.3    43  C43         0.2420
    611  N1        37.4680  -13.3730  -18.2850 N.ar   43  C43        -0.2535
    612  C2        36.0710  -13.3070  -18.3040 C.ar   43  C43         0.3532
    613  O2        35.4260  -14.1380  -17.6460 O.2    43  C43        -0.2443
    614  N3        35.4580  -12.3470  -19.0320 N.ar   43  C43        -0.1739
    615  C4        36.1890  -11.4750  -19.7240 C.ar   43  C43         0.1759
    616  N4        35.5380  -10.5440  -20.4260 N.pl3  43  C43        -0.1070
    617  C5        37.6150  -11.5190  -19.7270 C.ar   43  C43         0.0566
    618  C6        38.2130  -12.4770  -19.0030 C.ar   43  C43         0.0850
    619  OP1       44.0840  -12.8710  -18.5510 O.3    43  C43        -0.4373
    620  OP2       42.5540  -11.0420  -19.4610 O.co2  43  C43        -0.5172
    621  P         40.3010  -17.3470  -20.5390 P.3    44  A44         0.2141
    622  C5'       38.1970  -18.7680  -19.8930 C.3    44  A44         0.1812
    623  O5'       38.7660  -17.7390  -20.6860 O.3    44  A44        -0.3114
    624  C4'       36.7560  -19.0090  -20.2570 C.3    44  A44         0.1773
    625  O4'       35.9340  -17.9160  -19.7640 O.3    44  A44        -0.3307
    626  C3'       36.4470  -19.0530  -21.7450 C.3    44  A44         0.1860
    627  O3'       36.7560  -20.2980  -22.3430 O.3    44  A44        -0.3112
    628  C2'       34.9700  -18.7030  -21.7810 C.3    44  A44         0.2309
    629  O2'       34.1820  -19.8140  -21.3800 O.3    44  A44        -0.2156
    630  C1'       34.8980  -17.6410  -20.6860 C.3    44  A44         0.2408
    631  N1        32.8560  -13.6890  -23.3120 N.ar   44  A44        -0.2040
    632  C2        32.3600  -14.8780  -22.9530 C.ar   44  A44         0.2016
    633  N3        32.9400  -15.8640  -22.2710 N.ar   44  A44        -0.2048
    634  C4        34.1980  -15.5310  -21.9330 C.ar   44  A44         0.1692
    635  C5        34.8480  -14.3460  -22.2310 C.ar   44  A44         0.1518
    636  C6        34.1230  -13.3850  -22.9580 C.ar   44  A44         0.1919
    637  N6        34.6140  -12.1970  -23.3180 N.pl3  44  A44        -0.1054
    638  N7        36.1400  -14.3520  -21.7250 N.ar   44  A44        -0.2193
    639  C8        36.2430  -15.5210  -21.1430 C.ar   44  A44         0.1816
    640  N9        35.1070  -16.2860  -21.2280 N.ar   44  A44        -0.2693
    641  OP1       41.1420  -18.5670  -20.6200 O.3    44  A44        -0.4373
    642  OP2       40.6150  -16.2030  -21.4290 O.co2  44  A44        -0.5172
    643  P         37.1990  -20.3590  -23.8860 P.3    45  G45         0.2141
    644  C5'       34.7130  -21.0770  -24.3040 C.3    45  G45         0.1812
    645  O5'       35.8100  -20.2480  -24.6560 O.3    45  G45        -0.3114
    646  C4'       33.4030  -20.4900  -24.7660 C.3    45  G45         0.1773
    647  O4'       33.1870  -19.1990  -24.1370 O.3    45  G45        -0.3307
    648  C3'       33.2930  -20.1930  -26.2510 C.3    45  G45         0.1860
    649  O3'       33.0120  -21.3460  -27.0270 O.3    45  G45        -0.3112
    650  C2'       32.1930  -19.1410  -26.2940 C.3    45  G45         0.2309
    651  O2'       30.9160  -19.7450  -26.1630 O.3    45  G45        -0.2156
    652  C1'       32.4850  -18.3480  -25.0210 C.3    45  G45         0.2408
    653  N1        32.6190  -13.7450  -27.1600 N.ar   45  G45        -0.1709
    654  C2        31.5920  -14.6570  -27.1040 C.ar   45  G45         0.2606
    655  N2        30.4430  -14.2980  -27.6980 N.pl3  45  G45        -0.0859
    656  N3        31.6860  -15.8360  -26.5080 N.ar   45  G45        -0.1918
    657  C4        32.9060  -16.0310  -25.9660 C.ar   45  G45         0.1723
    658  C5        33.9960  -15.1890  -25.9680 C.ar   45  G45         0.1748
    659  C6        33.8810  -13.9300  -26.6090 C.ar   45  G45         0.3023
    660  O6        34.7300  -13.0410  -26.7190 O.2    45  G45        -0.2633
    661  N7        35.0660  -15.7680  -25.2980 N.ar   45  G45        -0.2173
    662  C8        34.6140  -16.9310  -24.9110 C.ar   45  G45         0.1817
    663  N9        33.3120  -17.1550  -25.2880 N.ar   45  G45        -0.2693
    664  OP1       37.8020  -21.6940  -24.1160 O.3    45  G45        -0.4373
    665  OP2       38.0200  -19.1530  -24.1530 O.co2  45  G45        -0.5172
    666  P         33.6320  -21.4940  -28.5020 P.3    46  G46         0.2141
    667  C5'       31.6060  -20.0630  -29.3430 C.3    46  G46         0.1812
    668  O5'       33.0110  -20.2470  -29.2680 O.3    46  G46        -0.3114
    669  C4'       31.2560  -18.9410  -30.2820 C.3    46  G46         0.1773
    670  O4'       31.4420  -17.6640  -29.6170 O.3    46  G46        -0.3307
    671  C3'       32.1200  -18.8380  -31.5240 C.3    46  G46         0.1860
    672  O3'       31.7370  -19.7440  -32.5400 O.3    46  G46        -0.3112
    673  C2'       31.9710  -17.3750  -31.9120 C.3    46  G46         0.2309
    674  O2'       30.7240  -17.1500  -32.5520 O.3    46  G46        -0.2156
    675  C1'       31.9370  -16.7110  -30.5360 C.3    46  G46         0.2408
    676  N1        35.2910  -12.8910  -30.0840 N.ar   46  G46        -0.1709
    677  C2        34.0160  -12.8750  -30.5990 C.ar   46  G46         0.2606
    678  N2        33.5730  -11.6940  -31.0540 N.pl3  46  G46        -0.0859
    679  N3        33.2310  -13.9390  -30.6650 N.ar   46  G46        -0.1918
    680  C4        33.8330  -15.0380  -30.1640 C.ar   46  G46         0.1723
    681  C5        35.0990  -15.1610  -29.6280 C.ar   46  G46         0.1748
    682  C6        35.9280  -14.0130  -29.5650 C.ar   46  G46         0.3023
    683  O6        37.0790  -13.9140  -29.1260 O.2    46  G46        -0.2633
    684  N7        35.3370  -16.4670  -29.2270 N.ar   46  G46        -0.2173
    685  C8        34.2350  -17.0990  -29.5210 C.ar   46  G46         0.1817
    686  N9        33.2820  -16.2950  -30.0930 N.ar   46  G46        -0.2693
    687  OP1       33.1010  -22.7540  -29.0770 O.2    46  G46        -0.5172
    688  OP2       35.1010  -21.3300  -28.3800 O.co2  46  G46        -0.4373
    689  P         32.8330  -20.3050  -33.5670 P.3    47  U47         0.2141
    690  C5'       32.4510  -18.5880  -35.5030 C.3    47  U47         0.1812
    691  O5'       33.2270  -19.0050  -34.3880 O.3    47  U47        -0.3114
    692  C4'       33.2530  -18.6450  -36.7730 C.3    47  U47         0.1773
    693  O4'       34.2480  -17.5950  -36.7280 O.3    47  U47        -0.3307
    694  C3'       33.9960  -19.9560  -36.9930 C.3    47  U47         0.1860
    695  O3'       33.8840  -20.3920  -38.3650 O.3    47  U47        -0.3112
    696  C2'       35.4450  -19.6520  -36.5850 C.3    47  U47         0.2309
    697  O2'       36.4290  -20.3160  -37.3470 O.3    47  U47        -0.2156
    698  C1'       35.5600  -18.1280  -36.7160 C.3    47  U47         0.2420
    699  N1        36.2780  -17.5000  -35.5870 N.ar   47  U47        -0.2534
    700  C2        36.8840  -16.2660  -35.7450 C.ar   47  U47         0.3546
    701  O2        36.8820  -15.6380  -36.7920 O.2    47  U47        -0.2443
    702  N3        37.5010  -15.7900  -34.6140 N.ar   47  U47        -0.1530
    703  C4        37.5710  -16.4020  -33.3780 C.ar   47  U47         0.2846
    704  O4        38.1680  -15.8410  -32.4580 O.2    47  U47        -0.2650
    705  C5        36.9160  -17.6700  -33.2990 C.ar   47  U47         0.0814
    706  C6        36.3070  -18.1590  -34.3810 C.ar   47  U47         0.0870
    707  OP1       32.1470  -21.2740  -34.4530 O.2    47  U47        -0.5172
    708  OP2       33.9920  -20.7690  -32.7660 O.co2  47  U47        -0.4373
    709  P         34.8220  -19.8210  -39.5460 P.3    48  U48         0.2141
    710  C5'       35.7850  -22.2490  -39.2860 C.3    48  U48         0.1812
    711  O5'       36.0140  -20.8780  -39.5870 O.3    48  U48        -0.3114
    712  C4'       36.9160  -23.1220  -39.7730 C.3    48  U48         0.1773
    713  O4'       37.0290  -23.0150  -41.2130 O.3    48  U48        -0.3307
    714  C3'       38.3050  -22.7720  -39.2500 C.3    48  U48         0.1860
    715  O3'       38.5740  -23.3480  -37.9800 O.3    48  U48        -0.3112
    716  C2'       39.2310  -23.2880  -40.3500 C.3    48  U48         0.2309
    717  O2'       39.4790  -24.6770  -40.1880 O.3    48  U48        -0.2156
    718  C1'       38.3790  -23.0930  -41.6060 C.3    48  U48         0.2420
    719  N1        38.7300  -21.8590  -42.3360 N.ar   48  U48        -0.2534
    720  C2        39.6230  -21.9710  -43.3840 C.ar   48  U48         0.3546
    721  O2        40.1300  -23.0320  -43.7070 O.2    48  U48        -0.2443
    722  N3        39.9060  -20.7940  -44.0310 N.ar   48  U48        -0.1530
    723  C4        39.3910  -19.5470  -43.7430 C.ar   48  U48         0.2846
    724  O4        39.7400  -18.5760  -44.4160 O.2    48  U48        -0.2650
    725  C5        38.4690  -19.5180  -42.6500 C.ar   48  U48         0.0814
    726  C6        38.1740  -20.6480  -42.0010 C.ar   48  U48         0.0870
    727  OP1       35.3270  -18.4980  -39.1260 O.3    48  U48        -0.4373
    728  OP2       34.0360  -19.9110  -40.8000 O.co2  48  U48        -0.5172
    729  P         38.7640  -22.4210  -36.6780 P.3    49  U49         0.2141
    730  C5'       40.9560  -21.1790  -37.4020 C.3    49  U49         0.1812
    731  O5'       39.5400  -21.1540  -37.2490 O.3    49  U49        -0.3114
    732  C4'       41.5710  -19.8110  -37.2160 C.3    49  U49         0.1773
    733  O4'       41.3450  -19.0150  -38.4110 O.3    49  U49        -0.3307
    734  C3'       41.0230  -18.9920  -36.0440 C.3    49  U49         0.1860
    735  O3'       42.0840  -18.2280  -35.4640 O.3    49  U49        -0.3112
    736  C2'       40.0340  -18.0500  -36.7260 C.3    49  U49         0.2309
    737  O2'       39.7840  -16.8500  -36.0250 O.3    49  U49        -0.2156
    738  C1'       40.7330  -17.7920  -38.0570 C.3    49  U49         0.2420
    739  N1        39.8240  -17.3960  -39.1500 N.ar   49  U49        -0.2534
    740  C2        40.3230  -16.5060  -40.0780 C.ar   49  U49         0.3546
    741  O2        41.4590  -16.0670  -40.0160 O.2    49  U49        -0.2443
    742  N3        39.4470  -16.1580  -41.0770 N.ar   49  U49        -0.1530
    743  C4        38.1480  -16.6030  -41.2290 C.ar   49  U49         0.2846
    744  O4        37.4720  -16.2050  -42.1800 O.2    49  U49        -0.2650
    745  C5        37.7100  -17.5200  -40.2210 C.ar   49  U49         0.0814
    746  C6        38.5410  -17.8770  -39.2380 C.ar   49  U49         0.0870
    747  OP1       39.6390  -23.1630  -35.7400 O.3    49  U49        -0.4373
    748  OP2       37.4120  -22.0260  -36.2220 O.co2  49  U49        -0.5172
    749  P         42.0930  -17.9170  -33.8860 P.3    50  C50         0.2141
    750  C5'       44.6500  -17.3860  -33.6150 C.3    50  C50         0.1812
    751  O5'       43.3170  -16.9070  -33.7290 O.3    50  C50        -0.3114
    752  C4'       45.6450  -16.4030  -34.1870 C.3    50  C50         0.1773
    753  O4'       45.3880  -16.2150  -35.6040 O.3    50  C50        -0.3307
    754  C3'       45.6040  -14.9950  -33.6070 C.3    50  C50         0.1860
    755  O3'       46.3280  -14.8750  -32.3930 O.3    50  C50        -0.3112
    756  C2'       46.1720  -14.1480  -34.7380 C.3    50  C50         0.2309
    757  O2'       47.5910  -14.2310  -34.7660 O.3    50  C50        -0.2156
    758  C1'       45.6230  -14.8720  -35.9660 C.3    50  C50         0.2420
    759  N1        44.3500  -14.2870  -36.4330 N.ar   50  C50        -0.2535
    760  C2        44.3570  -13.0910  -37.1570 C.ar   50  C50         0.3532
    761  O2        45.4410  -12.5320  -37.3840 O.2    50  C50        -0.2443
    762  N3        43.1800  -12.5730  -37.5820 N.ar   50  C50        -0.1739
    763  C4        42.0360  -13.2100  -37.3130 C.ar   50  C50         0.1759
    764  N4        40.8930  -12.6750  -37.7480 N.pl3  50  C50        -0.1070
    765  C5        42.0040  -14.4330  -36.5830 C.ar   50  C50         0.0566
    766  C6        43.1740  -14.9290  -36.1710 C.ar   50  C50         0.0850
    767  OP1       42.3970  -19.1910  -33.1900 O.3    50  C50        -0.4373
    768  OP2       40.8230  -17.2210  -33.5720 O.co2  50  C50        -0.5172
    769  P         45.6930  -14.0930  -31.1380 P.3    51  U51         0.2141
    770  C5'       46.1950  -11.5920  -31.7460 C.3    51  U51         0.1812
    771  O5'       45.2870  -12.6840  -31.7600 O.3    51  U51        -0.3114
    772  C4'       45.6910  -10.4430  -32.5830 C.3    51  U51         0.1773
    773  O4'       45.1530  -10.9480  -33.8330 O.3    51  U51        -0.3307
    774  C3'       44.5490   -9.6310  -31.9860 C.3    51  U51         0.1860
    775  O3'       44.9900   -8.6550  -31.0570 O.3    51  U51        -0.3112
    776  C2'       43.8830   -9.0410  -33.2220 C.3    51  U51         0.2309
    777  O2'       44.6250   -7.9340  -33.7130 O.3    51  U51        -0.2156
    778  C1'       44.0240  -10.1920  -34.2150 C.3    51  U51         0.2420
    779  N1        42.8430  -11.0790  -34.2020 N.ar   51  U51        -0.2534
    780  C2        41.7110  -10.6560  -34.8690 C.ar   51  U51         0.3546
    781  O2        41.6440   -9.5900  -35.4560 O.2    51  U51        -0.2443
    782  N3        40.6530  -11.5260  -34.8180 N.ar   51  U51        -0.1530
    783  C4        40.6150  -12.7510  -34.1840 C.ar   51  U51         0.2846
    784  O4        39.5790  -13.4150  -34.2350 O.2    51  U51        -0.2650
    785  C5        41.8270  -13.1210  -33.5180 C.ar   51  U51         0.0814
    786  C6        42.8730  -12.2900  -33.5510 C.ar   51  U51         0.0870
    787  OP1       46.7790  -13.9090  -30.1440 O.3    51  U51        -0.4373
    788  OP2       44.4750  -14.8350  -30.7330 O.co2  51  U51        -0.5172
    789  P         44.2870   -8.5300  -29.6160 P.3    52  A52         0.2141
    790  C5'       43.3280   -6.2560  -30.4980 C.3    52  A52         0.1812
    791  O5'       43.0920   -7.5150  -29.8880 O.3    52  A52        -0.3114
    792  C4'       42.1740   -5.8510  -31.3770 C.3    52  A52         0.1773
    793  O4'       41.9580   -6.8660  -32.3910 O.3    52  A52        -0.3307
    794  C3'       40.8260   -5.7230  -30.6800 C.3    52  A52         0.1860
    795  O3'       40.6530   -4.4680  -30.0460 O.3    52  A52        -0.3112
    796  C2'       39.8350   -5.9780  -31.8060 C.3    52  A52         0.2309
    797  O2'       39.6660   -4.8120  -32.5980 O.3    52  A52        -0.2156
    798  C1'       40.5800   -7.0230  -32.6380 C.3    52  A52         0.2408
    799  N1        36.9070  -10.6410  -32.8270 N.ar   52  A52        -0.2040
    800  C2        36.9550   -9.3820  -33.2800 C.ar   52  A52         0.2016
    801  N3        37.9410   -8.4920  -33.1980 N.ar   52  A52        -0.2048
    802  C4        39.0000   -9.0160  -32.5560 C.ar   52  A52         0.1692
    803  C5        39.1030  -10.2920  -32.0320 C.ar   52  A52         0.1518
    804  C6        37.9870  -11.1350  -32.1860 C.ar   52  A52         0.1919
    805  N6        37.9360  -12.3900  -31.7350 N.pl3  52  A52        -0.1054
    806  N7        40.3440  -10.4820  -31.4370 N.ar   52  A52        -0.2193
    807  C8        40.9520   -9.3350  -31.6110 C.ar   52  A52         0.1816
    808  N9        40.1950   -8.4000  -32.2760 N.ar   52  A52        -0.2693
    809  OP1       45.2750   -7.9130  -28.6980 O.3    52  A52        -0.4373
    810  OP2       43.7420   -9.8660  -29.2810 O.co2  52  A52        -0.5172
    811  P         40.3300   -4.3880  -28.4740 P.3    53  C53         0.2141
    812  C5'       37.8820   -3.7470  -29.1810 C.3    53  C53         0.1812
    813  O5'       38.7490   -4.5820  -28.4230 O.3    53  C53        -0.3114
    814  C4'       36.5370   -4.3990  -29.3910 C.3    53  C53         0.1773
    815  O4'       36.6920   -5.5790  -30.2220 O.3    53  C53        -0.3307
    816  C3'       35.8450   -4.9070  -28.1340 C.3    53  C53         0.1860
    817  O3'       35.1200   -3.8940  -27.4570 O.3    53  C53        -0.3112
    818  C2'       34.9660   -6.0370  -28.6540 C.3    53  C53         0.2309
    819  O2'       33.7690   -5.5230  -29.2130 O.3    53  C53        -0.2156
    820  C1'       35.8250   -6.6020  -29.7860 C.3    53  C53         0.2420
    821  N1        36.6420   -7.7530  -29.3440 N.ar   53  C53        -0.2535
    822  C2        36.2070   -9.0450  -29.6480 C.ar   53  C53         0.3532
    823  O2        35.1470   -9.1800  -30.2740 O.2    53  C53        -0.2443
    824  N3        36.9490  -10.1060  -29.2520 N.ar   53  C53        -0.1739
    825  C4        38.0870   -9.9120  -28.5790 C.ar   53  C53         0.1759
    826  N4        38.7920  -10.9840  -28.2050 N.pl3  53  C53        -0.1070
    827  C5        38.5560   -8.6050  -28.2570 C.ar   53  C53         0.0566
    828  C6        37.8100   -7.5670  -28.6570 C.ar   53  C53         0.0850
    829  OP1       40.6840   -3.0200  -28.0250 O.2    53  C53        -0.5172
    830  OP2       41.0000   -5.5460  -27.8300 O.co2  53  C53        -0.4373
    831  P         35.7860   -3.1100  -26.2230 P.3    54  C54         0.2141
    832  C5'       36.6470   -0.6320  -26.3080 C.3    54  C54         0.1812
    833  O5'       35.6510   -1.5820  -26.6590 O.3    54  C54        -0.3114
    834  C4'       36.9200    0.3310  -27.4380 C.3    54  C54         0.1773
    835  O4'       36.7860   -0.3550  -28.7120 O.3    54  C54        -0.3307
    836  C3'       35.9700    1.5150  -27.5550 C.3    54  C54         0.1860
    837  O3'       36.2910    2.5760  -26.6700 O.3    54  C54        -0.3112
    838  C2'       36.0860    1.8910  -29.0260 C.3    54  C54         0.2309
    839  O2'       37.2790    2.6230  -29.2670 O.3    54  C54        -0.2156
    840  C1'       36.2250    0.5140  -29.6750 C.3    54  C54         0.2420
    841  N1        34.9150   -0.0310  -30.0970 N.ar   54  C54        -0.2535
    842  C2        34.1830    0.6470  -31.0760 C.ar   54  C54         0.3532
    843  O2        34.6530    1.6840  -31.5680 O.2    54  C54        -0.2443
    844  N3        32.9820    0.1600  -31.4630 N.ar   54  C54        -0.1739
    845  C4        32.5050   -0.9570  -30.9120 C.ar   54  C54         0.1759
    846  N4        31.3140   -1.4020  -31.3250 N.pl3  54  C54        -0.1070
    847  C5        33.2310   -1.6680  -29.9110 C.ar   54  C54         0.0566
    848  C6        34.4180   -1.1740  -29.5380 C.ar   54  C54         0.0850
    849  OP1       37.2150   -3.4970  -26.1800 O.2    54  C54        -0.5172
    850  OP2       34.9430   -3.3740  -25.0330 O.co2  54  C54        -0.4373
    851  P         35.2020    3.7120  -26.3430 P.3    55  G55         0.2141
    852  C5'       36.1210    5.3790  -28.1490 C.3    55  G55         0.1812
    853  O5'       35.0880    4.5040  -27.7200 O.3    55  G55        -0.3114
    854  C4'       35.6640    6.2530  -29.2900 C.3    55  G55         0.1773
    855  O4'       35.4250    5.4360  -30.4680 O.3    55  G55        -0.3307
    856  C3'       34.3470    6.9870  -29.0800 C.3    55  G55         0.1860
    857  O3'       34.4830    8.1720  -28.3170 O.3    55  G55        -0.3112
    858  C2'       33.8710    7.2240  -30.5040 C.3    55  G55         0.2309
    859  O2'       34.5900    8.2930  -31.1010 O.3    55  G55        -0.2156
    860  C1'       34.3010    5.9210  -31.1720 C.3    55  G55         0.2408
    861  N1        30.0600    4.0360  -33.2940 N.ar   55  G55        -0.1709
    862  C2        30.8200    5.1040  -33.6910 C.ar   55  G55         0.2606
    863  N2        30.3920    5.7430  -34.7890 N.pl3  55  G55        -0.0859
    864  N3        31.9120    5.5080  -33.0580 N.ar   55  G55        -0.1918
    865  C4        32.1850    4.7430  -31.9770 C.ar   55  G55         0.1723
    866  C5        31.4860    3.6540  -31.4970 C.ar   55  G55         0.1748
    867  C6        30.3200    3.2370  -32.1880 C.ar   55  G55         0.3023
    868  O6        29.5640    2.2960  -31.9230 O.2    55  G55        -0.2633
    869  N7        32.0870    3.1340  -30.3570 N.ar   55  G55        -0.2173
    870  C8        33.1240    3.9040  -30.1680 C.ar   55  G55         0.1817
    871  N9        33.2410    4.8980  -31.1110 N.ar   55  G55        -0.2693
    872  OP1       35.7870    4.5930  -25.3030 O.3    55  G55        -0.4373
    873  OP2       33.9230    3.0190  -26.0520 O.co2  55  G55        -0.5172
    874  P         33.2350    8.7330  -27.4740 P.3    56  G56         0.2141
    875  C5'       32.8090   10.4700  -29.3950 C.3    56  G56         0.1812
    876  O5'       32.3220    9.4000  -28.5970 O.3    56  G56        -0.3114
    877  C4'       31.9040   10.7410  -30.5710 C.3    56  G56         0.1773
    878  O4'       31.8520    9.5710  -31.4270 O.3    56  G56        -0.3307
    879  C3'       30.4460   11.0280  -30.2380 C.3    56  G56         0.1860
    880  O3'       30.2190   12.3790  -29.8700 O.3    56  G56        -0.3112
    881  C2'       29.7220   10.6110  -31.5110 C.3    56  G56         0.2309
    882  O2'       29.8430   11.6120  -32.5090 O.3    56  G56        -0.2156
    883  C1'       30.5490    9.4020  -31.9410 C.3    56  G56         0.2408
    884  N1        27.0080    5.7730  -32.4030 N.ar   56  G56        -0.1709
    885  C2        27.2020    6.8940  -33.1730 C.ar   56  G56         0.2606
    886  N2        26.3480    7.0700  -34.1920 N.pl3  56  G56        -0.0859
    887  N3        28.1640    7.7760  -32.9570 N.ar   56  G56        -0.1918
    888  C4        28.9260    7.4380  -31.8930 C.ar   56  G56         0.1723
    889  C5        28.8150    6.3450  -31.0610 C.ar   56  G56         0.1748
    890  C6        27.7810    5.4100  -31.3050 C.ar   56  G56         0.3023
    891  O6        27.5240    4.3790  -30.6770 O.2    56  G56        -0.2633
    892  N7        29.7960    6.3600  -30.0790 N.ar   56  G56        -0.2173
    893  C8        30.4740    7.4440  -30.3250 C.ar   56  G56         0.1817
    894  N9        30.0000    8.1440  -31.4070 N.ar   56  G56        -0.2693
    895  OP1       33.7590    9.7780  -26.5600 O.3    56  G56        -0.4373
    896  OP2       32.5410    7.5590  -26.8900 O.co2  56  G56        -0.5172
    897  P         28.9780   12.7630  -28.9210 P.3    57  G57         0.2141
    898  C5'       27.6020   13.4170  -31.0560 C.3    57  G57         0.1812
    899  O5'       27.7280   12.6100  -29.8940 O.3    57  G57        -0.3114
    900  C4'       26.4120   13.0070  -31.8840 C.3    57  G57         0.1773
    901  O4'       26.6030   11.6550  -32.3800 O.3    57  G57        -0.3307
    902  C3'       25.0830   12.9450  -31.1470 C.3    57  G57         0.1860
    903  O3'       24.4620   14.2110  -31.0120 O.3    57  G57        -0.3112
    904  C2'       24.2850   11.9570  -31.9850 C.3    57  G57         0.2309
    905  O2'       23.8050   12.5750  -33.1700 O.3    57  G57        -0.2156
    906  C1'       25.3740   10.9590  -32.3710 C.3    57  G57         0.2408
    907  N1        23.2810    6.6650  -30.5960 N.ar   57  G57        -0.1709
    908  C2        22.8500    7.4930  -31.6030 C.ar   57  G57         0.2606
    909  N2        21.7140    7.1320  -32.2180 N.pl3  57  G57        -0.0859
    910  N3        23.4830    8.5930  -31.9790 N.ar   57  G57        -0.1918
    911  C4        24.6030    8.8000  -31.2560 C.ar   57  G57         0.1723
    912  C5        25.1200    8.0360  -30.2300 C.ar   57  G57         0.1748
    913  C6        24.4300    6.8610  -29.8390 C.ar   57  G57         0.3023
    914  O6        24.7280    6.0520  -28.9540 O.2    57  G57        -0.2633
    915  N7        26.2940    8.5950  -29.7430 N.ar   57  G57        -0.2173
    916  C8        26.4650    9.6680  -30.4660 C.ar   57  G57         0.1817
    917  N9        25.4750    9.8520  -31.4000 N.ar   57  G57        -0.2693
    918  OP1       29.1480   14.1870  -28.5370 O.2    57  G57        -0.5172
    919  OP2       28.9120   11.7390  -27.8510 O.co2  57  G57        -0.4373
    920  P         23.7650   14.6200  -29.6230 P.3    58  C58         0.2141
    921  C5'       21.4470   13.8290  -30.5600 C.3    58  C58         0.1812
    922  O5'       22.4730   13.6890  -29.5880 O.3    58  C58        -0.3114
    923  C4'       20.4790   12.6740  -30.5090 C.3    58  C58         0.1773
    924  O4'       21.1840   11.4320  -30.7720 O.3    58  C58        -0.3307
    925  C3'       19.7980   12.4320  -29.1700 C.3    58  C58         0.1860
    926  O3'       18.6910   13.2870  -28.9430 O.3    58  C58        -0.3112
    927  C2'       19.4250   10.9600  -29.2510 C.3    58  C58         0.2309
    928  O2'       18.2740   10.7790  -30.0620 O.3    58  C58        -0.2156
    929  C1'       20.6320   10.3900  -29.9940 C.3    58  C58         0.2420
    930  N1        21.6680    9.8990  -29.0630 N.ar   58  C58        -0.2535
    931  C2        21.5180    8.6220  -28.5190 C.ar   58  C58         0.3532
    932  O2        20.5250    7.9560  -28.8410 O.2    58  C58        -0.2443
    933  N3        22.4520    8.1520  -27.6610 N.ar   58  C58        -0.1739
    934  C4        23.5040    8.9090  -27.3450 C.ar   58  C58         0.1759
    935  N4        24.4030    8.4060  -26.4970 N.pl3  58  C58        -0.1070
    936  C5        23.6840   10.2170  -27.8850 C.ar   58  C58         0.0566
    937  C6        22.7480   10.6680  -28.7320 C.ar   58  C58         0.0850
    938  OP1       23.3600   16.0430  -29.7400 O.2    58  C58        -0.5172
    939  OP2       24.6960   14.2300  -28.5360 O.co2  58  C58        -0.4373
    940  P         18.2670   13.6800  -27.4430 P.3    59  A59         0.2141
    941  C5'       16.5610   11.6960  -27.2690 C.3    59  A59         0.1812
    942  O5'       17.7750   12.2910  -26.8350 O.3    59  A59        -0.3114
    943  C4'       16.4460   10.2590  -26.8190 C.3    59  A59         0.1773
    944  O4'       17.6860    9.5540  -27.0850 O.3    59  A59        -0.3307
    945  C3'       16.2150   10.0310  -25.3330 C.3    59  A59         0.1860
    946  O3'       14.8670   10.2340  -24.9440 O.3    59  A59        -0.3112
    947  C2'       16.6930    8.5970  -25.1440 C.3    59  A59         0.2309
    948  O2'       15.7010    7.6760  -25.5740 O.3    59  A59        -0.2156
    949  C1'       17.8670    8.5330  -26.1240 C.3    59  A59         0.2408
    950  N1        21.3410    6.3880  -23.0260 N.ar   59  A59        -0.2040
    951  C2        20.1660    5.9610  -23.5060 C.ar   59  A59         0.2016
    952  N3        19.3150    6.5870  -24.3140 N.ar   59  A59        -0.2048
    953  C4        19.7780    7.8060  -24.6430 C.ar   59  A59         0.1692
    954  C5        20.9620    8.3850  -24.2300 C.ar   59  A59         0.1518
    955  C6        21.7760    7.6190  -23.3750 C.ar   59  A59         0.1919
    956  N6        22.9480    8.0390  -22.8920 N.pl3  59  A59        -0.1054
    957  N7        21.0990    9.6550  -24.7730 N.ar   59  A59        -0.2193
    958  C8        20.0110    9.8120  -25.4900 C.ar   59  A59         0.1816
    959  N9        19.1660    8.7310  -25.4510 N.ar   59  A59        -0.2693
    960  OP1       17.1240   14.6190  -27.5460 O.2    59  A59        -0.5172
    961  OP2       19.4970   14.1280  -26.7450 O.co2  59  A59        -0.4373
    962  P         14.5130   10.6420  -23.4290 P.3    60  C60         0.2141
    963  C5'       14.2330    8.1210  -22.7510 C.3    60  C60         0.1812
    964  O5'       14.9350    9.3480  -22.6030 O.3    60  C60        -0.3114
    965  C4'       14.8980    7.0140  -21.9740 C.3    60  C60         0.1773
    966  O4'       16.2400    6.7980  -22.4870 O.3    60  C60        -0.3307
    967  C3'       15.1020    7.2810  -20.4890 C.3    60  C60         0.1860
    968  O3'       13.9550    6.9920  -19.7110 O.3    60  C60        -0.3112
    969  C2'       16.3050    6.4160  -20.1470 C.3    60  C60         0.2309
    970  O2'       15.9210    5.0580  -19.9940 O.3    60  C60        -0.2156
    971  C1'       17.1320    6.5430  -21.4230 C.3    60  C60         0.2420
    972  N1        18.0960    7.6610  -21.3500 N.ar   60  C60        -0.2535
    973  C2        19.3120    7.4760  -20.6910 C.ar   60  C60         0.3532
    974  O2        19.5470    6.3750  -20.1700 O.2    60  C60        -0.2443
    975  N3        20.1900    8.5040  -20.6360 N.ar   60  C60        -0.1739
    976  C4        19.8920    9.6710  -21.2110 C.ar   60  C60         0.1759
    977  N4        20.7900   10.6540  -21.1310 N.pl3  60  C60        -0.1070
    978  C5        18.6600    9.8840  -21.8940 C.ar   60  C60         0.0566
    979  C6        17.8020    8.8600  -21.9390 C.ar   60  C60         0.0850
    980  OP1       13.0430   10.8260  -23.3590 O.2    60  C60        -0.5172
    981  OP2       15.3920   11.7800  -23.0660 O.co2  60  C60        -0.4373
    982  P         13.6120    7.8850  -18.4210 P.3    61  U61         0.2141
    983  C5'       14.7690    6.0710  -16.9230 C.3    61  U61         0.1812
    984  O5'       14.7080    7.4180  -17.3670 O.3    61  U61        -0.3114
    985  C4'       15.9710    5.8370  -16.0430 C.3    61  U61         0.1773
    986  O4'       17.1840    5.9280  -16.8360 O.3    61  U61        -0.3307
    987  C3'       16.1750    6.8490  -14.9240 C.3    61  U61         0.1860
    988  O3'       15.4030    6.5610  -13.7720 O.3    61  U61        -0.3112
    989  C2'       17.6770    6.7860  -14.6810 C.3    61  U61         0.2309
    990  O2'       18.0110    5.6490  -13.9020 O.3    61  U61        -0.2156
    991  C1'       18.2010    6.5690  -16.0980 C.3    61  U61         0.2420
    992  N1        18.5250    7.8430  -16.7670 N.ar   61  U61        -0.2534
    993  C2        19.7750    8.3900  -16.5640 C.ar   61  U61         0.3546
    994  O2        20.6150    7.8730  -15.8480 O.2    61  U61        -0.2443
    995  N3        19.9940    9.5710  -17.2270 N.ar   61  U61        -0.1530
    996  C4        19.1130   10.2360  -18.0540 C.ar   61  U61         0.2846
    997  O4        19.4650   11.2920  -18.5790 O.2    61  U61        -0.2650
    998  C5        17.8410    9.6010  -18.2160 C.ar   61  U61         0.0814
    999  C6        17.6000    8.4510  -17.5820 C.ar   61  U61         0.0870
   1000  OP1       12.2630    7.4820  -17.9570 O.3    61  U61        -0.4373
   1001  OP2       13.8440    9.3010  -18.7980 O.co2  61  U61        -0.5172
   1002  P         14.1940    7.5300  -13.3420 P.3    62  G62         0.2141
   1003  C5'       16.0380    8.5590  -11.7820 C.3    62  G62         0.1812
   1004  O5'       14.9470    8.7660  -12.6740 O.3    62  G62        -0.3114
   1005  C4'       16.3720    9.8070  -11.0000 C.3    62  G62         0.1773
   1006  O4'       16.6230   10.8980  -11.9250 O.3    62  G62        -0.3307
   1007  C3'       15.2830   10.2930  -10.0460 C.3    62  G62         0.1860
   1008  O3'       15.8880   10.8600   -8.8830 O.3    62  G62        -0.3112
   1009  C2'       14.5910   11.3880  -10.8550 C.3    62  G62         0.2309
   1010  O2'       13.9340   12.3670  -10.0780 O.3    62  G62        -0.2156
   1011  C1'       15.7570   11.9790  -11.6430 C.3    62  G62         0.2408
   1012  N1        16.7860   15.5110  -15.1690 N.ar   62  G62        -0.1709
   1013  C2        17.4540   15.2310  -14.0040 C.ar   62  G62         0.2606
   1014  N2        18.5320   15.9870  -13.7490 N.pl3  62  G62        -0.0859
   1015  N3        17.0930   14.2820  -13.1550 N.ar   62  G62        -0.1918
   1016  C4        15.9900   13.6240  -13.5710 C.ar   62  G62         0.1723
   1017  C5        15.2510   13.8280  -14.7190 C.ar   62  G62         0.1748
   1018  C6        15.6500   14.8480  -15.6190 C.ar   62  G62         0.3023
   1019  O6        15.1210   15.1790  -16.6870 O.2    62  G62        -0.2633
   1020  N7        14.1850   12.9430  -14.7860 N.ar   62  G62        -0.2173
   1021  C8        14.2930   12.2280  -13.7000 C.ar   62  G62         0.1817
   1022  N9        15.3630   12.5880  -12.9170 N.ar   62  G62        -0.2693
   1023  OP1       13.4010    6.8090  -12.3170 O.3    62  G62        -0.4373
   1024  OP2       13.5200    7.9660  -14.5880 O.co2  62  G62        -0.5172
   1025  P         16.1490    9.9480   -7.5830 P.3    63  U63         0.2141
   1026  C5'       18.4550    8.8740   -6.9180 C.3    63  U63         0.1812
   1027  O5'       17.7350    9.9970   -7.4240 O.3    63  U63        -0.3114
   1028  C4'       19.8830    9.2280   -6.5690 C.3    63  U63         0.1773
   1029  O4'       20.5440    9.7650   -7.7490 O.3    63  U63        -0.3307
   1030  C3'       20.0450   10.2810   -5.4730 C.3    63  U63         0.1860
   1031  O3'       21.2200   10.0120   -4.6980 O.3    63  U63        -0.3112
   1032  C2'       20.2480   11.5650   -6.2710 C.3    63  U63         0.2309
   1033  O2'       20.9370   12.5830   -5.5760 O.3    63  U63        -0.2156
   1034  C1'       21.0460   11.0570   -7.4690 C.3    63  U63         0.2420
   1035  N1        20.9010   11.8870   -8.6870 N.ar   63  U63        -0.2534
   1036  C2        21.9610   12.7010   -9.0340 C.ar   63  U63         0.3546
   1037  O2        22.9870   12.7550   -8.3760 O.2    63  U63        -0.2443
   1038  N3        21.7770   13.4490  -10.1730 N.ar   63  U63        -0.1530
   1039  C4        20.6610   13.4640  -10.9860 C.ar   63  U63         0.2846
   1040  O4        20.6390   14.1920  -11.9820 O.2    63  U63        -0.2650
   1041  C5        19.6090   12.5930  -10.5600 C.ar   63  U63         0.0814
   1042  C6        19.7610   11.8520   -9.4560 C.ar   63  U63         0.0870
   1043  OP1       15.7190    8.5700   -7.9230 O.2    63  U63        -0.5172
   1044  OP2       15.5070   10.6300   -6.4340 O.co2  63  U63        -0.4373
   1045  P         21.9620    8.5840   -4.7770 P.3    64  A64         0.2141
   1046  C5'       21.0660    6.2020   -4.1520 C.3    64  A64         0.1812
   1047  O5'       20.7840    7.5520   -4.4880 O.3    64  A64        -0.3114
   1048  C4'       20.4970    5.2480   -5.1720 C.3    64  A64         0.1773
   1049  O4'       19.8330    5.9940   -6.2250 O.3    64  A64        -0.3307
   1050  C3'       21.5080    4.3850   -5.9100 C.3    64  A64         0.1860
   1051  O3'       21.9020    3.2440   -5.1690 O.3    64  A64        -0.3112
   1052  C2'       20.7820    4.0520   -7.2060 C.3    64  A64         0.2309
   1053  O2'       19.8310    3.0170   -6.9980 O.3    64  A64        -0.2156
   1054  C1'       20.0270    5.3540   -7.4690 C.3    64  A64         0.2408
   1055  N1        19.8380    8.3540  -11.6430 N.ar   64  A64        -0.2040
   1056  C2        18.9280    7.5790  -11.0420 C.ar   64  A64         0.2016
   1057  N3        19.0450    6.8220   -9.9550 N.ar   64  A64        -0.2048
   1058  C4        20.2890    6.9080   -9.4570 C.ar   64  A64         0.1692
   1059  C5        21.3360    7.6590   -9.9590 C.ar   64  A64         0.1518
   1060  C6        21.0790    8.4190  -11.1140 C.ar   64  A64         0.1919
   1061  N6        21.9860    9.1900  -11.7180 N.pl3  64  A64        -0.1054
   1062  N7        22.4720    7.4970   -9.1770 N.ar   64  A64        -0.2193
   1063  C8        22.0910    6.6650   -8.2380 C.ar   64  A64         0.1816
   1064  N9        20.7820    6.2660   -8.3480 N.ar   64  A64        -0.2693
   1065  OP1       22.9460    8.5440   -3.6690 O.3    64  A64        -0.4373
   1066  OP2       22.4530    8.4200   -6.1680 O.co2  64  A64        -0.5172
   1067  P         23.0730    2.2900   -5.7140 P.3    65  A65         0.2141
   1068  C5'       22.6410    0.0780   -7.0490 C.3    65  A65         0.1812
   1069  O5'       22.3450    1.4550   -6.8560 O.3    65  A65        -0.3114
   1070  C4'       22.2860   -0.3820   -8.4400 C.3    65  A65         0.1773
   1071  O4'       21.7740    0.7460   -9.2070 O.3    65  A65        -0.3307
   1072  C3'       23.4500   -0.9550   -9.2500 C.3    65  A65         0.1860
   1073  O3'       22.9710   -2.0130  -10.0780 O.3    65  A65        -0.3112
   1074  C2'       23.8570    0.2270  -10.1230 C.3    65  A65         0.2309
   1075  O2'       24.5410   -0.1210  -11.3080 O.3    65  A65        -0.2156
   1076  C1'       22.5010    0.8520  -10.4140 C.3    65  A65         0.2408
   1077  N1        20.2930    4.5130  -13.2300 N.ar   65  A65        -0.2040
   1078  C2        19.9870    3.2270  -13.0230 C.ar   65  A65         0.2016
   1079  N3        20.6140    2.3290  -12.2680 N.ar   65  A65        -0.2048
   1080  C4        21.6870    2.8780  -11.6710 C.ar   65  A65         0.1692
   1081  C5        22.1290    4.1830  -11.7840 C.ar   65  A65         0.1518
   1082  C6        21.3770    5.0330  -12.6140 C.ar   65  A65         0.1919
   1083  N6        21.6730    6.3150  -12.8300 N.pl3  65  A65        -0.1054
   1084  N7        23.2720    4.3820  -11.0180 N.ar   65  A65        -0.2193
   1085  C8        23.4900    3.2100  -10.4680 C.ar   65  A65         0.1816
   1086  N9        22.5600    2.2600  -10.8120 N.ar   65  A65        -0.2693
   1087  OP1       23.4590    1.3910   -4.5990 O.3    65  A65        -0.4373
   1088  OP2       24.1080    3.1670   -6.3120 O.co2  65  A65        -0.5172
   1089  P         23.9580   -3.1950  -10.5330 P.3    66  A66         0.2141
   1090  C5'       24.0640   -2.3390  -13.0090 C.3    66  A66         0.1812
   1091  O5'       23.6480   -3.3360  -12.0880 O.3    66  A66        -0.3114
   1092  C4'       23.0070   -2.0680  -14.0480 C.3    66  A66         0.1773
   1093  O4'       22.2140   -0.9140  -13.6550 O.3    66  A66        -0.3307
   1094  C3'       23.5150   -1.6950  -15.4300 C.3    66  A66         0.1860
   1095  O3'       23.9330   -2.8090  -16.1950 O.3    66  A66        -0.3112
   1096  C2'       22.3280   -0.9530  -16.0170 C.3    66  A66         0.2309
   1097  O2'       21.2960   -1.8610  -16.3740 O.3    66  A66        -0.2156
   1098  C1'       21.8680   -0.1590  -14.8000 C.3    66  A66         0.2408
   1099  N1        22.0790    4.6580  -16.6050 N.ar   66  A66        -0.2040
   1100  C2        21.2750    3.6250  -16.8860 C.ar   66  A66         0.2016
   1101  N3        21.2760    2.3960  -16.3760 N.ar   66  A66        -0.2048
   1102  C4        22.2490    2.2640  -15.4600 C.ar   66  A66         0.1692
   1103  C5        23.1530    3.2320  -15.0670 C.ar   66  A66         0.1518
   1104  C6        23.0500    4.4910  -15.6810 C.ar   66  A66         0.1919
   1105  N6        23.8530    5.5200  -15.3970 N.pl3  66  A66        -0.1054
   1106  N7        24.0130    2.7330  -14.0990 N.ar   66  A66        -0.2193
   1107  C8        23.6190    1.4940  -13.9320 C.ar   66  A66         0.1816
   1108  N9        22.5500    1.1460  -14.7210 N.ar   66  A66        -0.2693
   1109  OP1       23.5280   -4.4210   -9.8210 O.3    66  A66        -0.4373
   1110  OP2       25.3440   -2.7070  -10.3370 O.co2  66  A66        -0.5172
   1111  P         25.2960   -2.7290  -17.0410 P.3    67  U67         0.2141
   1112  C5'       24.7550   -1.3210  -19.1880 C.3    67  U67         0.1812
   1113  O5'       25.1430   -1.3480  -17.8210 O.3    67  U67        -0.3114
   1114  C4'       23.2930   -0.9770  -19.3430 C.3    67  U67         0.1773
   1115  O4'       23.0180    0.3040  -18.7160 O.3    67  U67        -0.3307
   1116  C3'       22.7950   -0.7970  -20.7690 C.3    67  U67         0.1860
   1117  O3'       22.5290   -2.0230  -21.4270 O.3    67  U67        -0.3112
   1118  C2'       21.5620    0.0760  -20.5790 C.3    67  U67         0.2309
   1119  O2'       20.4670   -0.6960  -20.1080 O.3    67  U67        -0.2156
   1120  C1'       22.0250    0.9950  -19.4490 C.3    67  U67         0.2420
   1121  N1        22.6120    2.2520  -19.9640 N.ar   67  U67        -0.2534
   1122  C2        21.7710    3.1620  -20.5780 C.ar   67  U67         0.3546
   1123  O2        20.5730    2.9770  -20.7160 O.2    67  U67        -0.2443
   1124  N3        22.3870    4.3030  -21.0300 N.ar   67  U67        -0.1530
   1125  C4        23.7270    4.6210  -20.9310 C.ar   67  U67         0.2846
   1126  O4        24.1340    5.6920  -21.3880 O.2    67  U67        -0.2650
   1127  C5        24.5280    3.6280  -20.2820 C.ar   67  U67         0.0814
   1128  C6        23.9560    2.5070  -19.8320 C.ar   67  U67         0.0870
   1129  OP1       25.2810   -3.8580  -18.0020 O.2    67  U67        -0.5172
   1130  OP2       26.4110   -2.6360  -16.0660 O.co2  67  U67        -0.4373
   1131  P         22.9210   -2.2050  -22.9750 P.3    68  G68         0.2141
   1132  C5'       20.4170   -1.8190  -23.6480 C.3    68  G68         0.1812
   1133  O5'       21.7720   -1.4020  -23.7280 O.3    68  G68        -0.3114
   1134  C4'       19.4970   -0.8510  -24.3480 C.3    68  G68         0.1773
   1135  O4'       19.6490    0.4750  -23.7760 O.3    68  G68        -0.3307
   1136  C3'       19.7510   -0.6400  -25.8330 C.3    68  G68         0.1860
   1137  O3'       19.2020   -1.6670  -26.6420 O.3    68  G68        -0.3112
   1138  C2'       19.1340    0.7280  -26.0830 C.3    68  G68         0.2309
   1139  O2'       17.7210    0.6290  -26.1830 O.3    68  G68        -0.2156
   1140  C1'       19.4720    1.4530  -24.7800 C.3    68  G68         0.2408
   1141  N1        21.5950    5.5820  -26.8030 N.ar   68  G68        -0.1709
   1142  C2        20.3160    5.0980  -26.9320 C.ar   68  G68         0.2606
   1143  N2        19.4830    5.8130  -27.7060 N.pl3  68  G68        -0.0859
   1144  N3        19.8840    3.9930  -26.3450 N.ar   68  G68        -0.1918
   1145  C4        20.8500    3.4070  -25.6070 C.ar   68  G68         0.1723
   1146  C5        22.1550    3.8050  -25.4140 C.ar   68  G68         0.1748
   1147  C6        22.6030    4.9910  -26.0500 C.ar   68  G68         0.3023
   1148  O6        23.7210    5.5150  -26.0070 O.2    68  G68        -0.2633
   1149  N7        22.8220    2.9150  -24.5820 N.ar   68  G68        -0.2173
   1150  C8        21.9270    2.0080  -24.2910 C.ar   68  G68         0.1817
   1151  N9        20.7110    2.2460  -24.8890 N.ar   68  G68        -0.2693
   1152  OP1       22.8140   -3.6500  -23.2880 O.2    68  G68        -0.5172
   1153  OP2       24.2250   -1.5280  -23.1770 O.co2  68  G68        -0.4373
   1154  P         19.9720   -2.1520  -27.9670 P.3    69  U69         0.2141
   1155  C5'       18.4070   -0.7060  -29.5020 C.3    69  U69         0.1812
   1156  O5'       19.7090   -0.9600  -28.9900 O.3    69  U69        -0.3114
   1157  C4'       18.3670    0.5850  -30.2810 C.3    69  U69         0.1773
   1158  O4'       18.7710    1.6840  -29.4210 O.3    69  U69        -0.3307
   1159  C3'       19.3160    0.6740  -31.4680 C.3    69  U69         0.1860
   1160  O3'       18.8030    0.0590  -32.6370 O.3    69  U69        -0.3112
   1161  C2'       19.5350    2.1730  -31.6110 C.3    69  U69         0.2309
   1162  O2'       18.4230    2.7850  -32.2460 O.3    69  U69        -0.2156
   1163  C1'       19.5510    2.6080  -30.1490 C.3    69  U69         0.2420
   1164  N1        20.9180    2.6120  -29.5860 N.ar   69  U69        -0.2534
   1165  C2        21.7110    3.7160  -29.8320 C.ar   69  U69         0.3546
   1166  O2        21.3280    4.6640  -30.4960 O.2    69  U69        -0.2443
   1167  N3        22.9660    3.6600  -29.2760 N.ar   69  U69        -0.1530
   1168  C4        23.4900    2.6360  -28.5120 C.ar   69  U69         0.2846
   1169  O4        24.6370    2.7300  -28.0800 O.2    69  U69        -0.2650
   1170  C5        22.6060    1.5330  -28.2990 C.ar   69  U69         0.0814
   1171  C6        21.3800    1.5600  -28.8290 C.ar   69  U69         0.0870
   1172  OP1       19.2960   -3.3830  -28.4400 O.2    69  U69        -0.5172
   1173  OP2       21.4140   -2.2190  -27.6320 O.co2  69  U69        -0.4373
   1174  P         19.8050   -0.4790  -33.7730 P.3    70  C70         0.2141
   1175  C5'       19.4270    1.6300  -35.2820 C.3    70  C70         0.1812
   1176  O5'       20.3040    0.8610  -34.4720 O.3    70  C70        -0.3114
   1177  C4'       20.0690    2.9230  -35.7170 C.3    70  C70         0.1773
   1178  O4'       20.4670    3.6910  -34.5490 O.3    70  C70        -0.3307
   1179  C3'       21.3520    2.7920  -36.5210 C.3    70  C70         0.1860
   1180  O3'       21.1270    2.4970  -37.8890 O.3    70  C70        -0.3112
   1181  C2'       22.0230    4.1360  -36.2850 C.3    70  C70         0.2309
   1182  O2'       21.4070    5.1470  -37.0700 O.3    70  C70        -0.2156
   1183  C1'       21.6680    4.3840  -34.8180 C.3    70  C70         0.2420
   1184  N1        22.7170    3.8830  -33.9000 N.ar   70  C70        -0.2535
   1185  C2        23.7760    4.7260  -33.5520 C.ar   70  C70         0.3532
   1186  O2        23.8140    5.8700  -34.0300 O.2    70  C70        -0.2443
   1187  N3        24.7350    4.2730  -32.7110 N.ar   70  C70        -0.1739
   1188  C4        24.6630    3.0350  -32.2180 C.ar   70  C70         0.1759
   1189  N4        25.6310    2.6310  -31.3910 N.pl3  70  C70        -0.1070
   1190  C5        23.5930    2.1560  -32.5520 C.ar   70  C70         0.0566
   1191  C6        22.6520    2.6180  -33.3850 C.ar   70  C70         0.0850
   1192  OP1       18.9960   -1.2760  -34.7280 O.2    70  C70        -0.5172
   1193  OP2       20.9380   -1.1350  -33.0790 O.co2  70  C70        -0.4373
   1194  P         22.1410    1.5320  -38.6810 P.3    71  C71         0.2141
   1195  C5'       23.2580    3.6630  -39.7200 C.3    71  C71         0.1812
   1196  O5'       23.3920    2.4790  -38.9490 O.3    71  C71        -0.3114
   1197  C4'       24.4330    4.5860  -39.5160 C.3    71  C71         0.1773
   1198  O4'       24.4930    5.0030  -38.1260 O.3    71  C71        -0.3307
   1199  C3'       25.8050    3.9820  -39.7760 C.3    71  C71         0.1860
   1200  O3'       26.1470    3.9460  -41.1500 O.3    71  C71        -0.3112
   1201  C2'       26.7140    4.8700  -38.9380 C.3    71  C71         0.2309
   1202  O2'       26.9270    6.1180  -39.5800 O.3    71  C71        -0.2156
   1203  C1'       25.8390    5.1060  -37.7110 C.3    71  C71         0.2420
   1204  N1        26.0860    4.0940  -36.6630 N.ar   71  C71        -0.2535
   1205  C2        27.1530    4.2830  -35.7830 C.ar   71  C71         0.3532
   1206  O2        27.8520    5.2990  -35.9070 O.2    71  C71        -0.2443
   1207  N3        27.3920    3.3580  -34.8260 N.ar   71  C71        -0.1739
   1208  C4        26.6140    2.2770  -34.7320 C.ar   71  C71         0.1759
   1209  N4        26.8870    1.3910  -33.7710 N.pl3  71  C71        -0.1070
   1210  C5        25.5200    2.0580  -35.6180 C.ar   71  C71         0.0566
   1211  C6        25.2980    2.9810  -36.5600 C.ar   71  C71         0.0850
   1212  OP1       21.4940    1.1770  -39.9650 O.2    71  C71        -0.5172
   1213  OP2       22.5260    0.4400  -37.7510 O.co2  71  C71        -0.4373
   1214  P         27.1650    2.8290  -41.6970 P.3    72  G72         0.2141
   1215  C5'       29.0970    4.5370  -41.2270 C.3    72  G72         0.1812
   1216  O5'       28.5430    3.2460  -41.0180 O.3    72  G72        -0.3114
   1217  C4'       30.3160    4.7630  -40.3680 C.3    72  G72         0.1773
   1218  O4'       29.9350    4.8150  -38.9680 O.3    72  G72        -0.3307
   1219  C3'       31.3750    3.6750  -40.4180 C.3    72  G72         0.1860
   1220  O3'       32.2090    3.7670  -41.5590 O.3    72  G72        -0.3112
   1221  C2'       32.1140    3.8730  -39.1010 C.3    72  G72         0.2309
   1222  O2'       33.0110    4.9700  -39.1900 O.3    72  G72        -0.2156
   1223  C1'       30.9640    4.2640  -38.1710 C.3    72  G72         0.2408
   1224  N1        31.5190    1.2020  -34.1480 N.ar   72  G72        -0.1709
   1225  C2        32.2800    2.2750  -34.5440 C.ar   72  G72         0.2606
   1226  N2        33.3320    2.5800  -33.7690 N.pl3  72  G72        -0.0859
   1227  N3        32.0290    3.0010  -35.6220 N.ar   72  G72        -0.1918
   1228  C4        30.9370    2.5620  -36.2840 C.ar   72  G72         0.1723
   1229  C5        30.1120    1.5020  -35.9770 C.ar   72  G72         0.1748
   1230  C6        30.3930    0.7330  -34.8180 C.ar   72  G72         0.3023
   1231  O6        29.7780   -0.2440  -34.3760 O.2    72  G72        -0.2633
   1232  N7        29.0980    1.3820  -36.9180 N.ar   72  G72        -0.2173
   1233  C8        29.3220    2.3490  -37.7640 C.ar   72  G72         0.1817
   1234  N9        30.4250    3.1010  -37.4400 N.ar   72  G72        -0.2693
   1235  OP1       27.2560    3.0010  -43.1670 O.2    72  G72        -0.5172
   1236  OP2       26.7120    1.5230  -41.1590 O.co2  72  G72        -0.4373
   1237  P         33.0390    2.4850  -42.0580 P.3    73  A73         0.2141
   1238  C5'       35.4660    1.6980  -41.4640 C.3    73  A73         0.1812
   1239  O5'       34.4180    2.6370  -41.2800 O.3    73  A73        -0.3114
   1240  C4'       36.3260    1.5860  -40.2310 C.3    73  A73         0.1773
   1241  O4'       35.5180    1.1520  -39.1070 O.3    73  A73        -0.3307
   1242  C3'       37.4530    0.5660  -40.2920 C.3    73  A73         0.1860
   1243  O3'       38.6010    1.0510  -40.9670 O.3    73  A73        -0.3112
   1244  C2'       37.6970    0.2520  -38.8230 C.3    73  A73         0.2309
   1245  O2'       38.4630    1.2800  -38.2100 O.3    73  A73        -0.2156
   1246  C1'       36.2770    0.3110  -38.2640 C.3    73  A73         0.2408
   1247  N1        36.2250   -4.3260  -36.0370 N.ar   73  A73        -0.2040
   1248  C2        36.9840   -3.2400  -35.8430 C.ar   73  A73         0.2016
   1249  N3        36.9410   -2.0640  -36.4620 N.ar   73  A73        -0.2048
   1250  C4        35.9740   -2.0530  -37.3950 C.ar   73  A73         0.1692
   1251  C5        35.1160   -3.0870  -37.7130 C.ar   73  A73         0.1518
   1252  C6        35.2630   -4.2810  -36.9850 C.ar   73  A73         0.1919
   1253  N6        34.5070   -5.3650  -37.1770 N.pl3  73  A73        -0.1054
   1254  N7        34.2490   -2.7100  -38.7300 N.ar   73  A73        -0.2193
   1255  C8        34.5990   -1.4760  -38.9990 C.ar   73  A73         0.1816
   1256  N9        35.6390   -1.0180  -38.2310 N.ar   73  A73        -0.2693
   1257  OP1       33.2600    2.6470  -43.5150 O.2    73  A73        -0.5172
   1258  OP2       32.3160    1.2820  -41.5760 O.co2  73  A73        -0.4373
   1259  P         39.3820    0.1120  -42.0110 P.3    74  C74         0.2141
   1260  C5'       41.3070   -0.2290  -40.2580 C.3    74  C74         0.1812
   1261  O5'       40.2850   -0.7980  -41.0650 O.3    74  C74        -0.3114
   1262  C4'       41.6130   -1.0980  -39.0640 C.3    74  C74         0.1773
   1263  O4'       40.3900   -1.3530  -38.3220 O.3    74  C74        -0.3307
   1264  C3'       42.1550   -2.4870  -39.3710 C.3    74  C74         0.1860
   1265  O3'       43.5480   -2.4980  -39.6340 O.3    74  C74        -0.3112
   1266  C2'       41.7640   -3.2760  -38.1310 C.3    74  C74         0.2309
   1267  O2'       42.6380   -2.9810  -37.0510 O.3    74  C74        -0.2156
   1268  C1'       40.3960   -2.6730  -37.8210 C.3    74  C74         0.2420
   1269  N1        39.3050   -3.4270  -38.4720 N.ar   74  C74        -0.2535
   1270  C2        38.9760   -4.6800  -37.9550 C.ar   74  C74         0.3532
   1271  O2        39.6110   -5.1010  -36.9760 O.2    74  C74        -0.2443
   1272  N3        37.9830   -5.3950  -38.5340 N.ar   74  C74        -0.1739
   1273  C4        37.3300   -4.8980  -39.5860 C.ar   74  C74         0.1759
   1274  N4        36.3570   -5.6390  -40.1210 N.pl3  74  C74        -0.1070
   1275  C5        37.6440   -3.6200  -40.1340 C.ar   74  C74         0.0566
   1276  C6        38.6310   -2.9250  -39.5530 C.ar   74  C74         0.0850
   1277  OP1       40.2440    0.9960  -42.8330 O.2    74  C74        -0.5172
   1278  OP2       38.3630   -0.7230  -42.6910 O.co2  74  C74        -0.4373
   1279  P         44.1600   -3.5210  -40.7130 P.3    75  U75         0.2141
   1280  C5'       44.9980   -5.3870  -39.0680 C.3    75  U75         0.1812
   1281  O5'       44.0150   -4.9350  -39.9900 O.3    75  U75        -0.3114
   1282  C4'       44.7490   -6.8150  -38.6440 C.3    75  U75         0.1773
   1283  O4'       43.4170   -6.9360  -38.0820 O.3    75  U75        -0.3307
   1284  C3'       44.7760   -7.8590  -39.7500 C.3    75  U75         0.1860
   1285  O3'       46.0870   -8.2550  -40.1130 O.3    75  U75        -0.3112
   1286  C2'       43.9400   -8.9860  -39.1590 C.3    75  U75         0.2309
   1287  O2'       44.6980   -9.7350  -38.2200 O.3    75  U75        -0.2156
   1288  C1'       42.8740   -8.2010  -38.4000 C.3    75  U75         0.2420
   1289  N1        41.6570   -8.0040  -39.2120 N.ar   75  U75        -0.2534
   1290  C2        40.7910   -9.0740  -39.2900 C.ar   75  U75         0.3546
   1291  O2        41.0000  -10.1320  -38.7220 O.2    75  U75        -0.2443
   1292  N3        39.6750   -8.8620  -40.0550 N.ar   75  U75        -0.1530
   1293  C4        39.3470   -7.7100  -40.7360 C.ar   75  U75         0.2846
   1294  O4        38.3000   -7.6820  -41.3830 O.2    75  U75        -0.2650
   1295  C5        40.2960   -6.6460  -40.6080 C.ar   75  U75         0.0814
   1296  C6        41.3960   -6.8240  -39.8690 C.ar   75  U75         0.0870
   1297  OP1       45.5940   -3.1820  -40.8710 O.3    75  U75        -0.4373
   1298  OP2       43.2810   -3.4730  -41.9070 O.co2  75  U75        -0.5172
   1299  P         46.3440   -9.0180  -41.5050 P.3    76  A76         0.2141
   1300  C5'       45.9970  -11.4330  -40.5420 C.3    76  A76         0.1812
   1301  O5'       45.5060  -10.3610  -41.3350 O.3    76  A76        -0.3114
   1302  C4'       45.1600  -12.6770  -40.7150 C.3    76  A76         0.1773
   1303  O4'       43.7960  -12.4140  -40.2910 O.3    76  A76        -0.3307
   1304  C3'       45.0170  -13.1850  -42.1410 C.3    76  A76         0.1860
   1305  O3'       46.1170  -13.9680  -42.5610 O.3    76  A76        -0.3112
   1306  C2'       43.7040  -13.9520  -42.0960 C.3    76  A76         0.2309
   1307  O2'       43.8910  -15.2310  -41.5110 O.3    76  A76        -0.2156
   1308  C1'       42.8890  -13.0950  -41.1320 C.3    76  A76         0.2408
   1309  N1        38.4410  -12.0770  -43.5350 N.ar   76  A76        -0.2040
   1310  C2        38.9130  -13.1930  -42.9640 C.ar   76  A76         0.2016
   1311  N3        40.0780  -13.3940  -42.3550 N.ar   76  A76        -0.2048
   1312  C4        40.8170  -12.2700  -42.3630 C.ar   76  A76         0.1692
   1313  C5        40.4700  -11.0480  -42.9110 C.ar   76  A76         0.1518
   1314  C6        39.2090  -10.9650  -43.5250 C.ar   76  A76         0.1919
   1315  N6        38.7340   -9.8560  -44.0970 N.pl3  76  A76        -0.1054
   1316  N7        41.4850  -10.1190  -42.7300 N.ar   76  A76        -0.2193
   1317  C8        42.4100  -10.7870  -42.0880 C.ar   76  A76         0.1816
   1318  N9        42.0730  -12.0930  -41.8390 N.ar   76  A76        -0.2693
   1319  OP1       47.7940   -9.3330  -41.5710 O.3    76  A76        -0.4373
   1320  OP2       45.7470   -8.1840  -42.5760 O.co2  76  A76        -0.5172
   1321  P         46.4650  -14.0920  -44.1230 P.3    77  U77         0.2141
   1322  C5'       45.0380  -16.2710  -44.4110 C.3    77  U77         0.1812
   1323  O5'       45.2150  -14.8920  -44.7000 O.3    77  U77        -0.3114
   1324  C4'       43.7800  -16.8140  -45.0440 C.3    77  U77         0.1773
   1325  O4'       42.6170  -16.1560  -44.4740 O.3    77  U77        -0.3307
   1326  C3'       43.6330  -16.5850  -46.5410 C.3    77  U77         0.1860
   1327  O3'       44.3650  -17.5140  -47.3220 O.3    77  U77        -0.3112
   1328  C2'       42.1270  -16.6720  -46.7410 C.3    77  U77         0.2309
   1329  O2'       41.6970  -18.0260  -46.7460 O.3    77  U77        -0.2156
   1330  C1'       41.6180  -16.0040  -45.4630 C.3    77  U77         0.2420
   1331  N1        41.3670  -14.5610  -45.6620 N.ar   77  U77        -0.2534
   1332  C2        40.0960  -14.1880  -46.0530 C.ar   77  U77         0.3546
   1333  O2        39.1960  -14.9930  -46.2310 O.2    77  U77        -0.2443
   1334  N3        39.9180  -12.8390  -46.2310 N.ar   77  U77        -0.1530
   1335  C4        40.8620  -11.8480  -46.0610 C.ar   77  U77         0.2846
   1336  O4        40.5470  -10.6730  -46.2590 O.2    77  U77        -0.2650
   1337  C5        42.1520  -12.3170  -45.6560 C.ar   77  U77         0.0814
   1338  C6        42.3570  -13.6240  -45.4740 C.ar   77  U77         0.0870
   1339  OP1       47.6870  -14.9220  -44.2340 O.3    77  U77        -0.4373
   1340  OP2       46.4840  -12.7160  -44.6760 O.co2  77  U77        -0.5172
   1341  P         44.8620  -17.1150  -48.7990 P.3    78  G78         0.2141
   1342  C5'       42.6900  -18.1530  -49.8390 C.3    78  G78         0.1812
   1343  O5'       43.5000  -17.0080  -49.6190 O.3    78  G78        -0.3114
   1344  C4'       41.3540  -17.7850  -50.4360 C.3    78  G78         0.1773
   1345  O4'       40.6540  -16.8660  -49.5550 O.3    78  G78        -0.3307
   1346  C3'       41.3960  -17.0480  -51.7640 C.3    78  G78         0.1860
   1347  O3'       41.6180  -17.9020  -52.8710 O.3    78  G78        -0.3112
   1348  C2'       40.0470  -16.3480  -51.7920 C.3    78  G78         0.2309
   1349  O2'       39.0150  -17.2610  -52.1350 O.3    78  G78        -0.2156
   1350  C1'       39.8820  -15.9650  -50.3220 C.3    78  G78         0.2408
   1351  N1        38.8370  -11.0480  -50.9050 N.ar   78  G78        -0.1709
   1352  C2        38.1290  -12.1530  -51.3040 C.ar   78  G78         0.2606
   1353  N2        36.9800  -11.9190  -51.9490 N.pl3  78  G78        -0.0859
   1354  N3        38.5170  -13.3980  -51.0860 N.ar   78  G78        -0.1918
   1355  C4        39.6930  -13.4480  -50.4250 C.ar   78  G78         0.1723
   1356  C5        40.4820  -12.4080  -49.9830 C.ar   78  G78         0.1748
   1357  C6        40.0510  -11.0770  -50.2240 C.ar   78  G78         0.3023
   1358  O6        40.6070  -10.0170  -49.9120 O.2    78  G78        -0.2633
   1359  N7        41.6190  -12.8900  -49.3450 N.ar   78  G78        -0.2173
   1360  C8        41.4980  -14.1910  -49.4130 C.ar   78  G78         0.1817
   1361  N9        40.3520  -14.5930  -50.0570 N.ar   78  G78        -0.2693
   1362  OP1       45.6690  -18.2500  -49.3100 O.2    78  G78        -0.5172
   1363  OP2       45.4960  -15.7800  -48.7010 O.co2  78  G78        -0.4373
   1364  P         42.3730  -17.3440  -54.1760 P.3    79  G79         0.2141
   1365  C5'       40.0600  -16.9410  -55.3420 C.3    79  G79         0.1812
   1366  O5'       41.2760  -16.4020  -54.8450 O.3    79  G79        -0.3114
   1367  C4'       39.1460  -15.8630  -55.8740 C.3    79  G79         0.1773
   1368  O4'       38.6910  -15.0170  -54.7870 O.3    79  G79        -0.3307
   1369  C3'       39.7610  -14.8870  -56.8670 C.3    79  G79         0.1860
   1370  O3'       39.8290  -15.4060  -58.1830 O.3    79  G79        -0.3112
   1371  C2'       38.8520  -13.6720  -56.7400 C.3    79  G79         0.2309
   1372  O2'       37.6470  -13.8690  -57.4650 O.3    79  G79        -0.2156
   1373  C1'       38.5280  -13.6910  -55.2460 C.3    79  G79         0.2408
   1374  N1        39.7340   -8.8980  -54.0960 N.ar   79  G79        -0.1709
   1375  C2        38.7440   -9.3760  -54.9210 C.ar   79  G79         0.2606
   1376  N2        37.9720   -8.4570  -55.5230 N.pl3  79  G79        -0.0859
   1377  N3        38.5290  -10.6640  -55.1410 N.ar   79  G79        -0.1918
   1378  C4        39.3950  -11.4430  -54.4570 C.ar   79  G79         0.1723
   1379  C5        40.4160  -11.0700  -53.6110 C.ar   79  G79         0.1748
   1380  C6        40.6340   -9.6880  -53.3860 C.ar   79  G79         0.3023
   1381  O6        41.4850   -9.1530  -52.6710 O.2    79  G79        -0.2633
   1382  N7        41.0750  -12.1840  -53.1100 N.ar   79  G79        -0.2173
   1383  C8        40.4560  -13.1960  -53.6520 C.ar   79  G79         0.1817
   1384  N9        39.4290  -12.8150  -54.4770 N.ar   79  G79        -0.2693
   1385  OP1       42.6410  -18.5070  -55.0560 O.2    79  G79        -0.5172
   1386  OP2       43.5190  -16.5270  -53.7010 O.co2  79  G79        -0.4373
   1387  P         41.0920  -15.0740  -59.1190 P.3    80  U80         0.2141
   1388  C5'       39.7370  -13.1710  -60.3140 C.3    80  U80         0.1812
   1389  O5'       40.8500  -13.5520  -59.5190 O.3    80  U80        -0.3114
   1390  C4'       39.4820  -11.6880  -60.2270 C.3    80  U80         0.1773
   1391  O4'       39.3350  -11.3010  -58.8370 O.3    80  U80        -0.3307
   1392  C3'       40.5960  -10.7890  -60.7400 C.3    80  U80         0.1860
   1393  O3'       40.5930  -10.6480  -62.1500 O.3    80  U80        -0.3112
   1394  C2'       40.3420   -9.4860  -59.9940 C.3    80  U80         0.2309
   1395  O2'       39.2780   -8.7620  -60.5950 O.3    80  U80        -0.2156
   1396  C1'       39.8660  -10.0070  -58.6390 C.3    80  U80         0.2420
   1397  N1        40.9660  -10.0900  -57.6540 N.ar   80  U80        -0.2534
   1398  C2        41.3200   -8.9050  -57.0460 C.ar   80  U80         0.3546
   1399  O2        40.7720   -7.8480  -57.3080 O.2    80  U80        -0.2443
   1400  N3        42.3370   -8.9990  -56.1310 N.ar   80  U80        -0.1530
   1401  C4        43.0210  -10.1350  -55.7650 C.ar   80  U80         0.2846
   1402  O4        43.9140  -10.0440  -54.9210 O.2    80  U80        -0.2650
   1403  C5        42.5940  -11.3260  -56.4360 C.ar   80  U80         0.0814
   1404  C6        41.6040  -11.2690  -57.3360 C.ar   80  U80         0.0870
   1405  OP1       40.9820  -15.9360  -60.3200 O.2    80  U80        -0.5172
   1406  OP2       42.3040  -15.1850  -58.2700 O.co2  80  U80        -0.4373
   1407  P         41.9650  -10.3580  -62.9310 P.3    81  C81         0.2141
   1408  C5'       41.5290   -7.7910  -63.2380 C.3    81  C81         0.1813
   1409  O5'       42.2480   -8.8300  -62.5890 O.3    81  C81        -0.3114
   1410  C4'       42.1120   -6.4410  -62.9160 C.3    81  C81         0.1801
   1411  O4'       41.8680   -6.1250  -61.5200 O.3    81  C81        -0.3306
   1412  C3'       43.6210   -6.3190  -63.0640 C.3    81  C81         0.2161
   1413  O3'       44.0300   -6.0970  -64.4010 O.3    81  C81        -0.2175
   1414  C2'       43.9550   -5.1710  -62.1250 C.3    81  C81         0.2338
   1415  O2'       43.6350   -3.9260  -62.7260 O.3    81  C81        -0.2155
   1416  C1'       42.9690   -5.4240  -60.9850 C.3    81  C81         0.2421
   1417  N1        43.5670   -6.2400  -59.9060 N.ar   81  C81        -0.2535
   1418  C2        44.1580   -5.5760  -58.8300 C.ar   81  C81         0.3532
   1419  O2        44.1560   -4.3360  -58.8220 O.2    81  C81        -0.2443
   1420  N3        44.7150   -6.2950  -57.8290 N.ar   81  C81        -0.1739
   1421  C4        44.6980   -7.6270  -57.8770 C.ar   81  C81         0.1759
   1422  N4        45.2610   -8.2900  -56.8640 N.pl3  81  C81        -0.1070
   1423  C5        44.1020   -8.3350  -58.9630 C.ar   81  C81         0.0566
   1424  C6        43.5540   -7.6080  -59.9470 C.ar   81  C81         0.0850
   1425  OP1       41.6850  -10.5090  -64.3780 O.2    81  C81        -0.5172
   1426  OP2       43.0070  -11.2150  -62.3140 O.co2  81  C81        -0.4373
@<TRIPOS>BOND
     1  1413  1412    1
     2  1425  1407    2
     3  1408  1410    1
     4  1408  1409    1
     5  1412  1410    1
     6  1412  1414    1
     7  1407  1409    1
     8  1407  1426    1
     9  1407  1393    1
    10  1410  1411    1
    11  1415  1414    1
    12  1393  1392    1
    13  1414  1416    1
    14  1411  1416    1
    15  1416  1417    1
    16  1392  1390    1
    17  1392  1394    1
    18  1395  1394    1
    19  1405  1387    2
    20  1388  1390    1
    21  1388  1389    1
    22  1390  1391    1
    23  1394  1396    1
    24  1424  1417   ar
    25  1424  1423   ar
    26  1417  1418   ar
    27  1389  1387    1
    28  1387  1406    1
    29  1387  1370    1
    30  1423  1421   ar
    31  1391  1396    1
    32  1418  1419    2
    33  1418  1420   ar
    34  1396  1397    1
    35  1370  1369    1
    36    36    35    1
    37  1421  1420   ar
    38  1421  1422    1
    39  1397  1404   ar
    40  1397  1398   ar
    41  1372  1371    1
    42  1404  1403   ar
    43  1399  1398    2
    44  1398  1400   ar
    45  1369  1371    1
    46  1369  1367    1
    47    35    34   ar
    48    35    37   ar
    49  1371  1373    1
    50    13    12    1
    51  1403  1401   ar
    52    34    40   ar
    53    37    38   ar
    54  1400  1401   ar
    55  1367  1365    1
    56  1367  1368    1
    57  1401  1402    2
    58    11    12   ar
    59    11    17   ar
    60    12    14   ar
    61  1376  1375    1
    62  1365  1366    1
    63    59    58    2
    64  1373  1368    1
    65  1373  1384    1
    66    55    54    1
    67    40    41    2
    68    40    39   ar
    69    38    39   ar
    70    38    44   ar
    71  1377  1375   ar
    72  1377  1378   ar
    73  1385  1364    2
    74  1375  1374   ar
    75  1366  1364    1
    76    18    17    2
    77    32    31    1
    78    17    16   ar
    79    39    42   ar
    80    33    44    1
    81    33    31    1
    82    33    28    1
    83    56    51    1
    84    56    54    1
    85    56    57    1
    86    14    15   ar
    87  1384  1378   ar
    88  1384  1383   ar
    89  1378  1379   ar
    90    44    43   ar
    91    58    57   ar
    92    58    60   ar
    93    51    50    1
    94  1364  1386    1
    95  1364  1347    1
    96    54    52    1
    97  1374  1380   ar
    98    31    29    1
    99    28    27    1
   100    57    64   ar
   101    71    70    1
   102    71    76    1
   103    60    61   ar
   104  1383  1382   ar
   105    50    52    1
   106    50    48    1
   107  1379  1380   ar
   108  1379  1382   ar
   109    15    16   ar
   110    15    21   ar
   111    16    19   ar
   112    42    43   ar
   113    75    74    1
   114    70    68    1
   115    70    72    1
   116  1380  1381    2
   117    76    74    1
   118    76    77    1
   119    68    69    1
   120    52    53    1
   121    27    29    1
   122    27    25    1
   123  1347  1346    1
   124    53    67    1
   125    64    63   ar
   126    61    63   ar
   127    61    62    1
   128    79    78    2
   129    29    30    1
   130    48    49    1
   131    74    72    1
   132    77    78   ar
   133    77    84   ar
   134    21    10    1
   135    21    20   ar
   136    19    20   ar
   137    72    73    1
   138  1349  1348    1
   139    78    80   ar
   140    69    67    1
   141    30    47    1
   142     9     8    1
   143    10     8    1
   144    10     5    1
   145  1353  1352    1
   146    84    83   ar
   147    73    87    1
   148     8     6    1
   149  1348  1346    1
   150  1348  1350    1
   151    25    26    1
   152    49    47    1
   153  1346  1344    1
   154    67    85    2
   155    67    86    1
   156    80    81   ar
   157  1352  1354   ar
   158  1352  1351   ar
   159    91    90    1
   160    91    96    1
   161  1354  1355   ar
   162    83    81   ar
   163    26    24    1
   164  1351  1357   ar
   165    47    65    2
   166    47    66    1
   167    88    90    1
   168    88    89    1
   169    90    92    1
   170    81    82    1
   171     5     4    1
   172    96   106    1
   173    96    94    1
   174  1344  1342    1
   175  1344  1345    1
   176  1355  1361   ar
   177  1355  1356   ar
   178    95    94    1
   179     6     7    1
   180     6     4    1
   181  1350  1361    1
   182  1350  1345    1
   183    87   107    2
   184    87    89    1
   185    87   108    1
   186  1357  1356   ar
   187  1357  1358    2
   188  1361  1360   ar
   189  1356  1359   ar
   190   106   105   ar
   191   106   100   ar
   192  1342  1343    1
   193     7    24    1
   194    94    92    1
   195     4     2    1
   196   105   104   ar
   197  1343  1341    1
   198    24    46    2
   199    24    45    1
   200    92    93    1
   201  1360  1359   ar
   202  1362  1341    2
   203   100    99   ar
   204   100   101   ar
   205    99    98   ar
   206    93   109    1
   207   104   101   ar
   208  1341  1363    1
   209  1341  1327    1
   210   101   102   ar
   211    98    97   ar
   212     2     3    1
   213   102    97   ar
   214   102   103    1
   215     3     1    1
   216   110   111    1
   217   110   112    1
   218   109   127    2
   219   109   111    1
   220   109   128    1
   221  1327  1326    1
   222   113   112    1
   223   113   118    1
   224   112   114    1
   225  1329  1328    1
   226  1328  1326    1
   227  1328  1330    1
   228  1326  1324    1
   229     1    23    1
   230     1    22    1
   231  1336  1335    2
   232  1333  1332    2
   233  1334  1335   ar
   234  1334  1332   ar
   235   118   119    1
   236   118   116    1
   237   126   119   ar
   238   126   125   ar
   239  1335  1337   ar
   240  1332  1331   ar
   241   119   120   ar
   242   125   123   ar
   243  1331  1338   ar
   244  1331  1330    1
   245  1337  1338   ar
   246  1330  1325    1
   247   114   116    1
   248   114   115    1
   249   117   116    1
   250   120   121    2
   251   120   122   ar
   252   123   122   ar
   253   123   124    2
   254  1324  1325    1
   255  1324  1322    1
   256   115   129    1
   257  1323  1322    1
   258  1323  1321    1
   259  1340  1321    2
   260   724   723    2
   261  1339  1321    1
   262  1321  1305    1
   263  1315  1314    1
   264   722   723   ar
   265   722   720   ar
   266   723   725   ar
   267   721   720    2
   268   150   129    2
   269  1309  1314   ar
   270  1309  1310   ar
   271  1314  1313   ar
   272  1257  1237    2
   273   129   149    1
   274   129   131    1
   275   720   719   ar
   276  1235  1214    2
   277  1310  1311   ar
   278  1313  1316   ar
   279  1313  1312   ar
   280  1277  1259    2
   281  1316  1317   ar
   282  1278  1259    1
   283   725   726   ar
   284  1320  1299    2
   285  1305  1304    1
   286   131   130    1
   287  1312  1311   ar
   288  1312  1318   ar
   289   719   726   ar
   290   719   718    1
   291   145   144    1
   292   744   743    2
   293  1304  1306    1
   294  1304  1302    1
   295  1306  1307    1
   296  1306  1308    1
   297  1317  1318   ar
   298   146   147   ar
   299   146   143   ar
   300  1237  1258    1
   301  1237  1220    1
   302  1237  1239    1
   303  1259  1261    1
   304  1259  1243    1
   305   130   132    1
   306  1298  1279    2
   307  1318  1308    1
   308   147   148   ar
   309  1214  1236    1
   310  1214  1200    1
   311  1214  1216    1
   312   144   143   ar
   313   144   139   ar
   314   718   713    1
   315   718   716    1
   316   143   142   ar
   317  1319  1299    1
   318  1220  1219    1
   319  1299  1301    1
   320  1299  1285    1
   321   133   132    1
   322   133   138    1
   323  1238  1239    1
   324  1238  1240    1
   325  1294  1293    2
   326  1301  1300    1
   327   743   742   ar
   328   743   745   ar
   329  1215  1216    1
   330  1215  1217    1
   331   713   712    1
   332  1200  1199    1
   333  1308  1303    1
   334   742   740   ar
   335  1261  1260    1
   336   148   142   ar
   337   148   138    1
   338   139   140   ar
   339   142   141   ar
   340  1243  1242    1
   341   132   134    1
   342  1297  1279    1
   343   728   709    2
   344  1293  1295   ar
   345  1293  1292   ar
   346  1302  1300    1
   347  1302  1303    1
   348  1279  1281    1
   349  1279  1265    1
   350  1295  1296   ar
   351   192   171    2
   352   138   136    1
   353   140   141   ar
   354  1219  1217    1
   355  1219  1221    1
   356   191   171    1
   357  1217  1218    1
   358   716   717    1
   359   716   714    1
   360  1242  1240    1
   361  1242  1244    1
   362  1260  1262    1
   363  1240  1241    1
   364   745   746   ar
   365  1275  1273   ar
   366  1275  1276   ar
   367  1274  1273    1
   368  1285  1284    1
   369   740   741    2
   370   740   739   ar
   371  1292  1290   ar
   372  1281  1280    1
   373  1212  1194    2
   374  1296  1289   ar
   375  1199  1197    1
   376  1199  1201    1
   377   712   710    1
   378   712   714    1
   379   134   136    1
   380   134   135    1
   381  1284  1286    1
   382  1284  1282    1
   383  1195  1197    1
   384  1195  1196    1
   385   171   157    1
   386   171   173    1
   387   170   151    2
   388  1265  1264    1
   389   711   709    1
   390   711   710    1
   391  1273  1272   ar
   392  1202  1201    1
   393  1276  1269   ar
   394   709   727    1
   395   709   695    1
   396  1197  1198    1
   397  1264  1262    1
   398  1264  1266    1
   399  1290  1289   ar
   400  1290  1291    2
   401   714   715    1
   402   136   137    1
   403   746   739   ar
   404  1289  1288    1
   405  1222  1221    1
   406  1286  1288    1
   407  1286  1287    1
   408   739   738    1
   409  1241  1246    1
   410  1221  1223    1
   411  1280  1282    1
   412  1262  1263    1
   413  1255  1254   ar
   414  1255  1256   ar
   415  1218  1223    1
   416  1196  1194    1
   417  1201  1203    1
   418  1244  1246    1
   419  1244  1245    1
   420   135   151    1
   421   157   156    1
   422  1254  1251   ar
   423  1194  1180    1
   424  1194  1213    1
   425   173   172    1
   426  1282  1283    1
   427   159   158    1
   428  1272  1270   ar
   429   156   158    1
   430   156   154    1
   431  1269  1270   ar
   432  1269  1268    1
   433   151   153    1
   434   151   169    1
   435   733   738    1
   436   733   732    1
   437  1288  1283    1
   438   695   694    1
   439  1263  1268    1
   440  1246  1256    1
   441  1256  1250   ar
   442  1223  1234    1
   443  1266  1268    1
   444  1266  1267    1
   445  1198  1203    1
   446   738   736    1
   447   715   729    1
   448   158   160    1
   449  1270  1271    2
   450  1180  1179    1
   451  1233  1234   ar
   452  1233  1232   ar
   453   764   763    1
   454  1251  1250   ar
   455  1251  1252   ar
   456  1203  1204    1
   457   153   152    1
   458   762   763   ar
   459   762   760   ar
   460   172   174    1
   461   152   154    1
   462  1234  1228   ar
   463   730   731    1
   464   730   732    1
   465  1250  1249   ar
   466   154   155    1
   467   761   760    2
   468   697   696    1
   469   763   765   ar
   470   731   729    1
   471   732   734    1
   472  1253  1252    1
   473   760   759   ar
   474  1182  1181    1
   475   209   208    1
   476   694   692    1
   477   694   696    1
   478  1252  1247   ar
   479  1232  1229   ar
   480   701   700    2
   481   692   693    1
   482   692   690    1
   483   693   698    1
   484   736   734    1
   485   736   737    1
   486   698   696    1
   487   698   699    1
   488   729   748    2
   489   729   747    1
   490  1204  1211   ar
   491  1204  1205   ar
   492   765   766   ar
   493  1211  1210   ar
   494  1179  1181    1
   495  1179  1177    1
   496   214   193    2
   497   160   155    1
   498   160   161    1
   499   174   175    1
   500   174   176    1
   501  1249  1248   ar
   502   759   766   ar
   503   759   758    1
   504   210   207   ar
   505   210   211   ar
   506  1181  1183    1
   507  1228  1229   ar
   508  1228  1227   ar
   509   208   207   ar
   510   208   203   ar
   511   175   180    1
   512   734   735    1
   513  1247  1248   ar
   514   213   193    1
   515  1229  1230   ar
   516   758   753    1
   517   758   756    1
   518  1206  1205    2
   519   207   206   ar
   520  1205  1207   ar
   521   700   699   ar
   522   700   702   ar
   523  1177  1175    1
   524  1177  1178    1
   525   211   212   ar
   526  1227  1225   ar
   527  1210  1208   ar
   528   753   752    1
   529   699   706   ar
   530   193   177    1
   531   193   195    1
   532   161   168   ar
   533   161   162   ar
   534   690   691    1
   535   203   204   ar
   536   735   749    1
   537   781   780    2
   538   168   167   ar
   539  1175  1176    1
   540   177   176    1
   541   176   178    1
   542   163   162    2
   543   162   164   ar
   544   780   782   ar
   545   780   779   ar
   546   206   212   ar
   547   206   205   ar
   548  1207  1208   ar
   549  1183  1178    1
   550  1183  1184    1
   551  1230  1231    2
   552  1230  1224   ar
   553   782   783   ar
   554   863   862    1
   555   757   756    1
   556   756   754    1
   557   212   202    1
   558  1208  1209    1
   559  1192  1174    2
   560   180   178    1
   561   180   190    1
   562   702   703   ar
   563   167   165   ar
   564   204   205   ar
   565  1225  1224   ar
   566  1225  1226    1
   567  1176  1174    1
   568   707   689    2
   569   691   689    1
   570   706   705   ar
   571   784   783    2
   572   778   779    1
   573   778   773    1
   574   778   776    1
   575   197   202    1
   576   197   196    1
   577   779   786   ar
   578   886   885    1
   579   752   750    1
   580   752   754    1
   581   783   785   ar
   582   195   194    1
   583   178   179    1
   584   164   165   ar
   585  1186  1185    2
   586   190   189   ar
   587   190   184   ar
   588  1184  1185   ar
   589  1184  1191   ar
   590   749   751    1
   591   749   768    2
   592   749   767    1
   593   165   166    2
   594   202   200    1
   595   773   772    1
   596  1174  1193    1
   597  1174  1160    1
   598   751   750    1
   599   777   776    1
   600   862   861   ar
   601   862   864   ar
   602   183   184   ar
   603   183   182   ar
   604   189   188   ar
   605   754   755    1
   606   194   196    1
   607   184   185   ar
   608   689   708    1
   609   689   672    1
   610  1185  1187   ar
   611   786   785   ar
   612  1191  1190   ar
   613   703   705   ar
   614   703   704    2
   615   861   867   ar
   616   800   801   ar
   617   800   799   ar
   618   776   774    1
   619   801   802   ar
   620   885   887   ar
   621   885   884   ar
   622   905   904    1
   623   182   181   ar
   624   196   198    1
   625   188   185   ar
   626   864   865   ar
   627   185   186   ar
   628   887   888   ar
   629   799   804   ar
   630  1187  1188   ar
   631   798   793    1
   632   798   808    1
   633   798   796    1
   634  1160  1159    1
   635   797   796    1
   636   772   774    1
   637   772   770    1
   638   802   808   ar
   639   802   803   ar
   640   181   186   ar
   641   674   673    1
   642  1190  1188   ar
   643   672   671    1
   644   882   881    1
   645   186   187    1
   646   884   890   ar
   647   755   769    1
   648   793   792    1
   649   901   906    1
   650   901   900    1
   651   200   198    1
   652   200   201    1
   653   906   904    1
   654   906   917    1
   655   808   807   ar
   656  1162  1161    1
   657  1188  1189    1
   658   909   908    1
   659   198   199    1
   660   867   868    2
   661   867   866   ar
   662   804   803   ar
   663   804   805    1
   664   803   806   ar
   665   774   775    1
   666   904   902    1
   667   910   908   ar
   668   910   911   ar
   669   865   866   ar
   670   865   871   ar
   671   883   881    1
   672   883   878    1
   673   883   894    1
   674   673   671    1
   675   673   675    1
   676   888   894   ar
   677   888   889   ar
   678   900   902    1
   679   900   898    1
   680   796   794    1
   681   771   770    1
   682   771   769    1
   683  1161  1159    1
   684  1161  1163    1
   685   807   806   ar
   686   908   907   ar
   687   843   842    2
   688   671   669    1
   689   881   879    1
   690   866   869   ar
   691  1159  1157    1
   692   844   842   ar
   693   844   845   ar
   694   878   877    1
   695   894   893   ar
   696   917   911   ar
   697   917   916   ar
   698   792   794    1
   699   792   790    1
   700   846   845    1
   701   890   889   ar
   702   890   891    2
   703   233   215    2
   704   911   912   ar
   705   860   871    1
   706   860   858    1
   707   860   855    1
   708   902   903    1
   709   769   788    2
   710   769   787    1
   711   871   870   ar
   712   859   858    1
   713   842   841   ar
   714   889   892   ar
   715   219   218    1
   716   219   224    1
   717   775   789    1
   718   898   899    1
   719   678   677    1
   720   903   920    1
   721   845   847   ar
   722   199   215    1
   723   924   923    1
   724   924   929    1
   725   794   795    1
   726   679   677   ar
   727   679   680   ar
   728   216   218    1
   729   216   217    1
   730   677   676   ar
   731   907   913   ar
   732   877   879    1
   733   877   875    1
   734   921   923    1
   735   921   922    1
   736   218   220    1
   737   675   686    1
   738   675   670    1
   739   923   925    1
   740   858   856    1
   741   790   791    1
   742  1166  1165    2
   743   855   854    1
   744   916   915   ar
   745   224   225    1
   746   224   222    1
   747   869   870   ar
   748   893   892   ar
   749   669   670    1
   750   669   667    1
   751  1157  1155    1
   752  1157  1158    1
   753   823   822    2
   754   879   880    1
   755   912   913   ar
   756   912   915   ar
   757   815   820    1
   758   815   814    1
   759   215   217    1
   760   215   234    1
   761   680   686   ar
   762   680   681   ar
   763  1163  1164    1
   764  1163  1158    1
   765   841   840    1
   766   841   848   ar
   767   686   685   ar
   768   676   682   ar
   769   928   927    1
   770   795   811    1
   771   929   927    1
   772   929   930    1
   773   847   848   ar
   774   899   897    1
   775   223   222    1
   776   791   789    1
   777   880   897    1
   778   913   914    2
   779  1165  1164   ar
   780  1165  1167   ar
   781   232   225   ar
   782   232   231   ar
   783   225   226   ar
   784   820   821    1
   785   820   818    1
   786   938   920    2
   787   840   838    1
   788   840   835    1
   789   822   821   ar
   790   822   824   ar
   791   681   682   ar
   792   681   684   ar
   793   920   922    1
   794   920   939    1
   795   789   810    2
   796   789   809    1
   797  1164  1171   ar
   798   682   683    2
   799   685   684   ar
   800  1155  1156    1
   801   875   876    1
   802   814   812    1
   803   814   816    1
   804   821   828   ar
   805   667   668    1
   806   222   220    1
   807   854   856    1
   808   854   852    1
   809  1167  1168   ar
   810   231   229   ar
   811   668   666    1
   812   839   838    1
   813   824   825   ar
   814   927   925    1
   815   226   227    2
   816   226   228   ar
   817   819   818    1
   818   812   813    1
   819   925   926    1
   820   220   221    1
   821   856   857    1
   822   687   666    2
   823   930   937   ar
   824   930   931   ar
   825   838   836    1
   826  1156  1154    1
   827   926   940    1
   828   897   918    2
   829   897   919    1
   830   932   931    2
   831  1171  1170   ar
   832   937   936   ar
   833   835   834    1
   834   229   228   ar
   835   229   230    1
   836   828   827   ar
   837   818   816    1
   838   221   235    1
   839   876   874    1
   840   825   827   ar
   841   825   826    1
   842   931   933   ar
   843  1168  1170   ar
   844  1168  1169    2
   845   666   688    1
   846   666   649    1
   847   811   813    1
   848   811   829    2
   849   811   830    1
   850  1172  1154    2
   851   857   874    1
   852   852   853    1
   853   816   817    1
   854  1154  1173    1
   855  1154  1137    1
   856   936   934   ar
   857   853   851    1
   858  1143  1142    1
   859   655   654    1
   860   933   934   ar
   861   836   834    1
   862   836   837    1
   863   960   940    2
   864   874   896    2
   865   874   895    1
   866   817   831    1
   867   940   942    1
   868   940   961    1
   869   834   832    1
   870   934   935    1
   871   941   942    1
   872   941   943    1
   873   653   654   ar
   874   653   659   ar
   875   654   656   ar
   876   944   943    1
   877   944   949    1
   878   235   253    2
   879   235   254    1
   880   235   237    1
   881   649   648    1
   882  1142  1141   ar
   883  1142  1144   ar
   884   943   945    1
   885  1141  1147   ar
   886   660   659    2
   887   236   237    1
   888   236   238    1
   889   837   851    1
   890   833   832    1
   891   833   831    1
   892  1137  1136    1
   893   659   658   ar
   894   239   238    1
   895   239   244    1
   896   656   657   ar
   897  1144  1145   ar
   898   851   873    2
   899   851   872    1
   900   650   648    1
   901   650   651    1
   902   650   652    1
   903   648   646    1
   904   831   849    2
   905   831   850    1
   906  1139  1138    1
   907   949   959    1
   908   949   947    1
   909  1138  1136    1
   910  1138  1140    1
   911  1147  1148    2
   912  1147  1146   ar
   913   238   240    1
   914   658   657   ar
   915   658   661   ar
   916   657   663   ar
   917  1136  1134    1
   918   252   251   ar
   919   252   245   ar
   920  1145  1146   ar
   921  1145  1151   ar
   922   948   947    1
   923   251   249   ar
   924   244   245    1
   925   244   242    1
   926   958   959   ar
   927   958   957   ar
   928   959   953   ar
   929  1146  1149   ar
   930   245   246   ar
   931   945   947    1
   932   945   946    1
   933   661   662   ar
   934   663   652    1
   935   663   662   ar
   936   249   250    2
   937   249   248   ar
   938   652   647    1
   939   946   962    1
   940   246   248   ar
   941   246   247    2
   942  1151  1140    1
   943  1151  1150   ar
   944  1140  1135    1
   945   957   954   ar
   946   646   644    1
   947   646   647    1
   948   645   644    1
   949   645   643    1
   950   953   952   ar
   951   953   954   ar
   952  1149  1150   ar
   953   240   242    1
   954   240   241    1
   955  1134  1135    1
   956  1134  1132    1
   957   952   951   ar
   958   242   243    1
   959   954   955   ar
   960   665   643    2
   961   664   643    1
   962   643   627    1
   963  1133  1132    1
   964  1133  1131    1
   965   241   255    1
   966   951   950   ar
   967   962   980    2
   968   962   981    1
   969   962   964    1
   970   955   950   ar
   971   955   956    1
   972   637   636    1
   973   631   636   ar
   974   631   632   ar
   975  1152  1131    2
   976  1153  1131    1
   977  1131  1117    1
   978   636   635   ar
   979   632   633   ar
   980   963   964    1
   981   963   965    1
   982   277   255    2
   983   966   965    1
   984   966   971    1
   985   627   626    1
   986   255   276    1
   987   255   257    1
   988   633   634   ar
   989   635   634   ar
   990   635   638   ar
   991   556   536    2
   992   965   967    1
   993   979   978   ar
   994   979   972   ar
   995   634   640   ar
   996   978   976   ar
   997   628   626    1
   998   628   629    1
   999   628   630    1
  1000   626   624    1
  1001   638   639   ar
  1002   535   516    2
  1003   273   274   ar
  1004   273   270   ar
  1005   642   621    2
  1006  1117  1116    1
  1007   971   972    1
  1008   971   969    1
  1009  1126  1125    2
  1010   972   973   ar
  1011   257   256    1
  1012   274   275   ar
  1013   557   536    1
  1014   272   271    2
  1015   534   516    1
  1016   640   639   ar
  1017   640   630    1
  1018   976   977    1
  1019   976   975   ar
  1020   259   264    1
  1021   259   258    1
  1022   536   522    1
  1023   536   538    1
  1024  1124  1125   ar
  1025  1124  1122   ar
  1026   270   271   ar
  1027   270   269   ar
  1028  1125  1127   ar
  1029   256   258    1
  1030   271   265   ar
  1031  1116  1118    1
  1032  1116  1114    1
  1033   516   518    1
  1034   516   499    1
  1035  1123  1122    2
  1036   973   975   ar
  1037   973   974    2
  1038   623   621    1
  1039   623   622    1
  1040   630   625    1
  1041   275   269   ar
  1042   275   264    1
  1043   641   621    1
  1044  1118  1119    1
  1045  1118  1120    1
  1046  1122  1121   ar
  1047   510   509    2
  1048   577   558    2
  1049   621   607    1
  1050   967   969    1
  1051   967   968    1
  1052   522   521    1
  1053   269   268   ar
  1054   517   518    1
  1055   517   519    1
  1056   616   615    1
  1057   264   262    1
  1058  1127  1128   ar
  1059   624   622    1
  1060   624   625    1
  1061   265   266   ar
  1062   258   260    1
  1063   969   970    1
  1064   576   558    1
  1065  1121  1128   ar
  1066  1121  1120    1
  1067   509   503   ar
  1068   509   508   ar
  1069   268   266   ar
  1070   538   537    1
  1071   266   267    1
  1072   617   615   ar
  1073   617   618   ar
  1074   615   614   ar
  1075   968   982    1
  1076   492   471    2
  1077   511   508   ar
  1078   511   512   ar
  1079   503   504   ar
  1080   515   493    2
  1081   558   542    1
  1082   558   560    1
  1083   600   578    2
  1084   521   519    1
  1085   521   523    1
  1086   508   507   ar
  1087   620   601    2
  1088  1120  1115    1
  1089   519   520    1
  1090   537   539    1
  1091  1114  1112    1
  1092  1114  1115    1
  1093   499   498    1
  1094  1112  1113    1
  1095   614   612   ar
  1096   607   606    1
  1097   618   611   ar
  1098   512   513   ar
  1099   260   262    1
  1100   260   261    1
  1101   599   578    1
  1102   504   505    1
  1103   504   506   ar
  1104   498   500    1
  1105   498   496    1
  1106   262   263    1
  1107  1001   982    2
  1108   542   541    1
  1109   507   513   ar
  1110   507   506   ar
  1111   457   471    1
  1112   457   456    1
  1113   514   493    1
  1114   606   608    1
  1115   606   604    1
  1116   500   501    1
  1117   500   502    1
  1118   293   292    1
  1119   997   996    2
  1120   493   495    1
  1121   493   477    1
  1122   619   601    1
  1123   578   580    1
  1124   578   564    1
  1125   513   502    1
  1126   495   494    1
  1127   601   603    1
  1128   601   584    1
  1129   982  1000    1
  1130   982   984    1
  1131   471   491    1
  1132   471   473    1
  1133   560   559    1
  1134   454   452    1
  1135   454   455    1
  1136   454   456    1
  1137   612   611   ar
  1138   612   613    2
  1139   608   610    1
  1140   608   609    1
  1141   603   602    1
  1142   611   610    1
  1143   998   996   ar
  1144   998   999   ar
  1145   541   539    1
  1146   541   543    1
  1147   487   486    1
  1148   539   540    1
  1149   520   525    1
  1150   595   594    2
  1151   523   524    1
  1152   523   525    1
  1153   996   995   ar
  1154  1129  1111    2
  1155   573   572    1
  1156   452   453    1
  1157   455   460    1
  1158   574   572   ar
  1159   574   575   ar
  1160   292   294   ar
  1161   292   291   ar
  1162  1113  1111    1
  1163   456   458    1
  1164   261   278    1
  1165   294   295   ar
  1166   470   451    2
  1167   502   497    1
  1168   488   485   ar
  1169   488   489   ar
  1170   580   579    1
  1171   596   593   ar
  1172   596   597   ar
  1173   999   992   ar
  1174   602   604    1
  1175   496   494    1
  1176   496   497    1
  1177   610   605    1
  1178   533   532   ar
  1179   533   526   ar
  1180   559   561    1
  1181   604   605    1
  1182   564   563    1
  1183   572   571   ar
  1184   984   983    1
  1185   486   485   ar
  1186   486   481   ar
  1187   594   593   ar
  1188   594   588   ar
  1189   291   289   ar
  1190   575   568   ar
  1191   525   526    1
  1192   995   993   ar
  1193   473   472    1
  1194   554   553   ar
  1195   554   555   ar
  1196   477   476    1
  1197   485   484   ar
  1198   540   545    1
  1199   460   458    1
  1200   460   461    1
  1201   489   490   ar
  1202   297   278    2
  1203   532   530   ar
  1204   593   592   ar
  1205  1111  1095    1
  1206  1111  1130    1
  1207   295   288   ar
  1208   584   583    1
  1209   563   561    1
  1210   563   565    1
  1211   597   598   ar
  1212   553   550   ar
  1213   983   985    1
  1214  1100  1099   ar
  1215  1100  1101   ar
  1216   453   451    1
  1217   986   991    1
  1218   986   985    1
  1219   526   527   ar
  1220   476   478    1
  1221   476   474    1
  1222   992   993   ar
  1223   992   991    1
  1224   543   545    1
  1225   543   544    1
  1226  1019  1018    2
  1227   583   585    1
  1228   583   581    1
  1229   481   482   ar
  1230  1099  1104   ar
  1231   458   459    1
  1232   993   994    2
  1233   289   288   ar
  1234   289   290    2
  1235   278   280    1
  1236   278   296    1
  1237   451   435    1
  1238   451   469    1
  1239   579   581    1
  1240   588   589   ar
  1241   440   441   ar
  1242   440   439   ar
  1243   561   562    1
  1244   288   287    1
  1245   441   442   ar
  1246   435   434    1
  1247  1101  1102   ar
  1248  1097  1096    1
  1249   555   545    1
  1250   555   549   ar
  1251   571   569   ar
  1252   463   462    2
  1253   484   490   ar
  1254   484   483   ar
  1255   472   474    1
  1256   490   480    1
  1257  1095  1094    1
  1258   478   480    1
  1259   478   479    1
  1260   592   598   ar
  1261   592   591   ar
  1262   568   569   ar
  1263   568   567    1
  1264   991   989    1
  1265   598   587    1
  1266   461   462   ar
  1267   461   468   ar
  1268   985   987    1
  1269  1096  1094    1
  1270  1096  1098    1
  1271   530   531    1
  1272   530   529   ar
  1273   282   287    1
  1274   282   281    1
  1275   280   279    1
  1276   315   314    2
  1277   565   567    1
  1278   565   566    1
  1279   433   438    1
  1280   433   432    1
  1281   585   587    1
  1282   585   586    1
  1283   581   582    1
  1284   439   444   ar
  1285   482   483   ar
  1286   550   549   ar
  1287   550   551   ar
  1288   438   448    1
  1289   438   436    1
  1290   527   529   ar
  1291   527   528    2
  1292   474   475    1
  1293   462   464   ar
  1294  1104  1105    1
  1295  1104  1103   ar
  1296   562   567    1
  1297   589   591   ar
  1298   589   590    1
  1299  1018  1012   ar
  1300  1018  1017   ar
  1301   287   285    1
  1302   569   570    2
  1303   442   448   ar
  1304   442   443   ar
  1305   432   434    1
  1306   432   430    1
  1307  1102  1103   ar
  1308  1102  1108   ar
  1309   468   467   ar
  1310  1094  1092    1
  1311   480   475    1
  1312   549   548   ar
  1313   587   582    1
  1314   552   551    1
  1315   448   447   ar
  1316   279   281    1
  1317   434   436    1
  1318  1012  1013   ar
  1319  1103  1106   ar
  1320   437   436    1
  1321   551   546   ar
  1322   444   443   ar
  1323   444   445    1
  1324   314   308   ar
  1325   314   313   ar
  1326   987   989    1
  1327   987   988    1
  1328   443   446   ar
  1329  1098  1108    1
  1330  1098  1093    1
  1331   281   283    1
  1332  1020  1017   ar
  1333  1020  1021   ar
  1334   464   465   ar
  1335  1108  1107   ar
  1336  1017  1016   ar
  1337   989   990    1
  1338  1024  1002    2
  1339   467   465   ar
  1340   376   375    1
  1341   316   313   ar
  1342   316   317   ar
  1343   308   309   ar
  1344   430   431    1
  1345   548   547   ar
  1346   447   446   ar
  1347   313   312   ar
  1348   285   283    1
  1349   285   286    1
  1350  1106  1107   ar
  1351   465   466    2
  1352  1092  1093    1
  1353  1092  1090    1
  1354  1013  1014    1
  1355  1013  1015   ar
  1356   398   399   ar
  1357   398   397   ar
  1358   546   547   ar
  1359   283   284    1
  1360   988  1002    1
  1361  1021  1022   ar
  1362   399   400   ar
  1363  1016  1015   ar
  1364  1016  1022   ar
  1365   336   335    2
  1366   317   318   ar
  1367   358   357    2
  1368   397   402   ar
  1369   375   374   ar
  1370   375   377   ar
  1371   309   310    1
  1372   309   311   ar
  1373  1002  1004    1
  1374  1002  1023    1
  1375  1077  1078   ar
  1376  1077  1082   ar
  1377   312   318   ar
  1378   312   311   ar
  1379   351   357   ar
  1380   351   352   ar
  1381   431   429    1
  1382   353   352    1
  1383   374   380   ar
  1384  1078  1079   ar
  1385  1090  1091    1
  1386   395   394    1
  1387  1022  1011    1
  1388  1083  1082    1
  1389   357   356   ar
  1390   318   307    1
  1391  1004  1003    1
  1392   377   378   ar
  1393   400   406   ar
  1394   400   401   ar
  1395  1082  1081   ar
  1396   352   354   ar
  1397   335   334   ar
  1398   335   337   ar
  1399   284   298    1
  1400   396   406    1
  1401   396   394    1
  1402   396   391    1
  1403   402   401   ar
  1404   402   403    1
  1405   334   332   ar
  1406  1079  1080   ar
  1407   320   298    2
  1408   406   405   ar
  1409  1091  1089    1
  1410   401   404   ar
  1411   394   392    1
  1412  1040  1039    2
  1413   380   381    2
  1414   380   379   ar
  1415  1006  1011    1
  1416  1006  1005    1
  1417   391   390    1
  1418   413   412    1
  1419   413   418    1
  1420   449   429    2
  1421   421   420    2
  1422  1081  1080   ar
  1423  1081  1084   ar
  1424   429   415    1
  1425   429   450    1
  1426  1003  1005    1
  1427  1061  1060    1
  1428   412   410    1
  1429   412   414    1
  1430   415   414    1
  1431  1080  1086   ar
  1432   302   307    1
  1433   302   301    1
  1434  1011  1009    1
  1435  1055  1060   ar
  1436  1055  1056   ar
  1437   307   305    1
  1438   378   379   ar
  1439   378   384   ar
  1440   356   355   ar
  1441   356   359   ar
  1442   298   300    1
  1443   298   319    1
  1444   337   338   ar
  1445   354   355   ar
  1446   300   299    1
  1447  1075  1074    1
  1448   332   333    2
  1449   332   331   ar
  1450   379   382   ar
  1451   418   419    1
  1452   418   416    1
  1453   405   404   ar
  1454   410   411    1
  1455  1060  1059   ar
  1456  1056  1057   ar
  1457   390   392    1
  1458   390   388    1
  1459   355   361   ar
  1460  1084  1085   ar
  1461  1005  1007    1
  1462   420   419   ar
  1463   420   422   ar
  1464  1039  1041   ar
  1465  1039  1038   ar
  1466   372   371    1
  1467  1009  1010    1
  1468  1009  1007    1
  1469   414   416    1
  1470  1086  1085   ar
  1471  1086  1076    1
  1472   359   360   ar
  1473   299   301    1
  1474   392   393    1
  1475   384   373    1
  1476   384   383   ar
  1477   373   371    1
  1478   373   368    1
  1479   419   426   ar
  1480  1041  1042   ar
  1481  1089  1110    2
  1482  1089  1073    1
  1483  1089  1109    1
  1484   301   303    1
  1485   338   331   ar
  1486   422   423   ar
  1487  1076  1074    1
  1488  1076  1071    1
  1489   331   330    1
  1490   393   409    1
  1491   305   303    1
  1492   305   306    1
  1493   371   369    1
  1494  1038  1036   ar
  1495   416   417    1
  1496  1074  1072    1
  1497  1073  1072    1
  1498  1007  1008    1
  1499   382   383   ar
  1500  1059  1058   ar
  1501  1059  1062   ar
  1502  1057  1058   ar
  1503   303   304    1
  1504   361   360   ar
  1505   361   350    1
  1506   388   389    1
  1507   411   409    1
  1508   368   367    1
  1509   426   425   ar
  1510   423   425   ar
  1511   423   424    2
  1512  1058  1064   ar
  1513  1042  1035   ar
  1514  1072  1070    1
  1515  1071  1070    1
  1516  1062  1063   ar
  1517   330   325    1
  1518   330   328    1
  1519   409   427    2
  1520   409   428    1
  1521  1036  1035   ar
  1522  1036  1037    2
  1523   340   321    2
  1524   350   348    1
  1525   350   345    1
  1526   389   387    1
  1527  1008  1025    1
  1528   369   367    1
  1529   369   370    1
  1530   367   365    1
  1531  1035  1034    1
  1532   325   324    1
  1533   304   321    1
  1534  1070  1068    1
  1535  1064  1063   ar
  1536  1064  1054    1
  1537   348   349    1
  1538   348   346    1
  1539   370   387    1
  1540   328   329    1
  1541   328   326    1
  1542   345   344    1
  1543   321   323    1
  1544   321   339    1
  1545  1043  1025    2
  1546   323   322    1
  1547  1029  1034    1
  1548  1029  1028    1
  1549  1025  1027    1
  1550  1025  1044    1
  1551   387   408    2
  1552   387   407    1
  1553  1054  1052    1
  1554  1054  1049    1
  1555  1034  1032    1
  1556  1027  1026    1
  1557   365   366    1
  1558   324   326    1
  1559   324   322    1
  1560   326   327    1
  1561  1052  1053    1
  1562  1052  1050    1
  1563  1068  1069    1
  1564   346   344    1
  1565   346   347    1
  1566   366   364    1
  1567  1026  1028    1
  1568  1069  1067    1
  1569   344   342    1
  1570  1028  1030    1
  1571   363   341    2
  1572  1088  1067    2
  1573  1032  1033    1
  1574  1032  1030    1
  1575  1049  1048    1
  1576   343   342    1
  1577   343   341    1
  1578  1066  1045    2
  1579   347   364    1
  1580  1050  1048    1
  1581  1050  1051    1
  1582   327   341    1
  1583  1067  1051    1
  1584  1067  1087    1
  1585   364   386    2
  1586   364   385    1
  1587   341   362    1
  1588  1030  1031    1
  1589  1048  1046    1
  1590  1045  1031    1
  1591  1045  1047    1
  1592  1045  1065    1
  1593  1047  1046    1
