lig.pdb
 OpenBabel03051820513D

 22 23  0  0  1  0  0  0  0  0999 V2000
   -6.5880   -0.8710   -0.5930 C   0  0  1  0  0  0  0  0  0  0  0  0
   -4.6770    0.0780    0.7630 C   0  0  1  0  0  0  0  0  0  0  0  0
   -5.1510    1.4980    1.3070 C   0  0  1  0  0  0  0  0  0  0  0  0
   -3.8510    2.3940    1.5360 C   0  0  2  0  0  0  0  0  0  0  0  0
   -8.0460   -1.3540   -0.2310 C   0  0  1  0  0  0  0  0  0  0  0  0
   -7.9410   -2.7610    0.3900 C   0  0  2  0  0  0  0  0  0  0  0  0
   -7.3340   -3.7590   -0.6120 C   0  0  2  0  0  0  0  0  0  0  0  0
   -5.8870   -3.3220   -1.0450 C   0  0  1  0  0  0  0  0  0  0  0  0
   -5.2910   -4.2980   -2.1000 C   0  0  0  0  0  0  0  0  0  0  0  0
   -2.9220    1.7010    2.6580 C   0  0  1  0  0  0  0  0  0  0  0  0
   -2.4650    0.2710    2.0750 C   0  0  0  0  0  0  0  0  0  0  0  0
   -3.7520   -0.6350    1.8000 C   0  0  2  0  0  0  0  0  0  0  0  0
   -8.1820   -3.8510   -1.8060 F   0  0  0  0  0  0  0  0  0  0  0  0
   -8.6380   -0.3520    0.7380 N   0  0  0  0  0  0  0  0  0  0  0  0
   -3.9960   -3.9610   -2.5560 N   0  0  0  0  0  0  0  0  0  0  0  0
   -1.6730    2.5020    2.8970 N   0  0  0  0  0  0  0  0  0  0  0  0
   -3.3260   -1.9440    1.2640 N   0  0  0  0  0  0  0  0  0  0  0  0
   -5.8000   -0.7640    0.5510 O   0  0  0  0  0  0  0  0  0  0  0  0
   -6.0090    2.1200    0.2710 O   0  0  0  0  0  0  0  0  0  0  0  0
   -4.2930    3.6340    2.0030 O   0  0  0  0  0  0  0  0  0  0  0  0
   -9.0050   -3.1120    0.6510 O   0  0  0  0  0  0  0  0  0  0  0  0
   -6.0000   -1.8810   -1.5750 O   0  0  0  0  0  0  0  0  0  0  0  0
  1  5  1  0  0  0  0
  1 18  1  1  0  0  0
  2 18  1  1  0  0  0
  2  3  1  0  0  0  0
  2 12  1  0  0  0  0
  3 19  1  6  0  0  0
  3  4  1  0  0  0  0
  4 20  1  1  0  0  0
  4 10  1  0  0  0  0
  5  6  1  0  0  0  0
  5 14  1  1  0  0  0
  6 21  1  6  0  0  0
  7 13  1  6  0  0  0
  7  6  1  0  0  0  0
  8  9  1  6  0  0  0
  8  7  1  0  0  0  0
 10 16  1  6  0  0  0
 11 10  1  0  0  0  0
 12 17  1  6  0  0  0
 12 11  1  0  0  0  0
 15  9  1  0  0  0  0
 22  8  1  0  0  0  0
 22  1  1  0  0  0  0
M  END
$$$$
