lig.pdb
 OpenBabel11021811523D
libRbt.so/2013.1/901 2013/11/27
 22 23  0  0  0  0  0  0  0  0999 V2000
   -6.7980   -0.8244   -0.3971 C   0  0  1  0  0  0  0  0  0  0  0  0
   -4.7810   -0.0099    0.8911 C   0  0  1  0  0  0  0  0  0  0  0  0
   -5.1964    1.4129    1.4744 C   0  0  1  0  0  0  0  0  0  0  0  0
   -3.8640    2.2654    1.6822 C   0  0  2  0  0  0  0  0  0  0  0  0
   -8.2473   -1.2771    0.0327 C   0  0  1  0  0  0  0  0  0  0  0  0
   -8.1572   -2.7217    0.5631 C   0  0  2  0  0  0  0  0  0  0  0  0
   -7.6552   -3.6782   -0.5330 C   0  0  2  0  0  0  0  0  0  0  0  0
   -6.2233   -3.2668   -1.0355 C   0  0  1  0  0  0  0  0  0  0  0  0
   -5.7348   -4.1979   -2.1824 C   0  0  0  0  0  0  0  0  0  0  0  0
   -2.9251    1.5239    2.7642 C   0  0  1  0  0  0  0  0  0  0  0  0
   -2.5280    0.0924    2.1422 C   0  0  0  0  0  0  0  0  0  0  0  0
   -3.8490   -0.7697    1.8879 C   0  0  2  0  0  0  0  0  0  0  0  0
   -8.5813   -3.6685   -1.6712 F   0  0  0  0  0  0  0  0  0  0  0  0
   -8.7363   -0.3151    1.0952 N   0  0  0  0  0  0  0  0  0  0  0  0
   -4.3996   -3.9826   -2.5940 N   0  0  0  0  0  0  0  0  0  0  0  0
   -1.6462    2.2828    2.9817 N   0  0  0  0  0  0  0  0  0  0  0  0
   -3.4780   -2.0802    1.3160 N   0  0  0  0  0  0  0  0  0  0  0  0
   -5.9344   -0.8140    0.6962 O   0  0  0  0  0  0  0  0  0  0  0  0
   -6.0642    2.0797    0.4750 O   0  0  0  0  0  0  0  0  0  0  0  0
   -4.2551    3.5088    2.1843 O   0  0  0  0  0  0  0  0  0  0  0  0
   -9.2151   -3.0503    0.8736 O   0  0  0  0  0  0  0  0  0  0  0  0
   -6.3141   -1.7935   -1.4727 O   0  0  0  0  0  0  0  0  0  0  0  0
  1  5  1  0  0  0  0
  1 18  1  1  0  0  0
  2 18  1  1  0  0  0
  2  3  1  0  0  0  0
  2 12  1  0  0  0  0
  3 19  1  6  0  0  0
  3  4  1  0  0  0  0
  4 20  1  1  0  0  0
  4 10  1  0  0  0  0
  5  6  1  0  0  0  0
  5 14  1  1  0  0  0
  6 21  1  6  0  0  0
  7 13  1  6  0  0  0
  7  6  1  0  0  0  0
  8  9  1  6  0  0  0
  8  7  1  0  0  0  0
 10 16  1  6  0  0  0
 11 10  1  0  0  0  0
 12 17  1  6  0  0  0
 12 11  1  0  0  0  0
 15  9  1  0  0  0  0
 22  8  1  0  0  0  0
 22  1  1  0  0  0  0
M  END
>  <CHROM.1>
-152.23091297,83.81710734,-173.66723495,-5.72788396,-0.89820811,0.46739992
2.17150673,0.03732362,-2.61359153

>  <Name>
lig.pdb

>  <RI>
0

>  <Rbt.Current_Directory>
/home/itssahil/PROJECTS/Mol_Feturizer/New_Systems/rnas/5bws

>  <Rbt.Executable>
rbdock ($Id: //depot/dev/client3/rdock/2013.1/src/exe/rbdock.cxx#4 $)

>  <Rbt.Library>
libRbt.so (2013.1, Build901 2013/11/27)

>  <Rbt.Parameter_File>
/export/apps/rDock/src/rDock_2013.1_src/data/scripts/dock_solv.prm

>  <Rbt.Receptor>
prm/pocket_docking_2.prm

>  <SCORE>
-7.62479

>  <SCORE.INTER>
-7.35161

>  <SCORE.INTER.CONST>
1

>  <SCORE.INTER.POLAR>
0

>  <SCORE.INTER.ROT>
3

>  <SCORE.INTER.SOLV>
20.014

>  <SCORE.INTER.VDW>
-17.1724

>  <SCORE.INTER.norm>
-0.334164

>  <SCORE.INTRA>
-0.273783

>  <SCORE.INTRA.DIHEDRAL>
-0.328378

>  <SCORE.INTRA.DIHEDRAL.0>
6.10773

>  <SCORE.INTRA.POLAR>
0

>  <SCORE.INTRA.POLAR.0>
0

>  <SCORE.INTRA.REPUL>
0

>  <SCORE.INTRA.REPUL.0>
0

>  <SCORE.INTRA.SOLV>
-0.312065

>  <SCORE.INTRA.SOLV.lig_0>
-71.4024

>  <SCORE.INTRA.VDW>
0.0464385

>  <SCORE.INTRA.VDW.0>
-1.86213

>  <SCORE.INTRA.norm>
-0.0124447

>  <SCORE.RESTR>
0.000605413

>  <SCORE.RESTR.CAVITY>
0.000605413

>  <SCORE.RESTR.norm>
2.75188e-05

>  <SCORE.SYSTEM>
0

>  <SCORE.SYSTEM.CONST>
0

>  <SCORE.SYSTEM.DIHEDRAL>
0

>  <SCORE.SYSTEM.SOLV>
0

>  <SCORE.SYSTEM.norm>
0

>  <SCORE.heavy>
22

>  <SCORE.norm>
-0.346581

>  <RMSD>
0.295

$$$$
lig.pdb
 OpenBabel11021811523D
libRbt.so/2013.1/901 2013/11/27
 22 23  0  0  0  0  0  0  0  0999 V2000
   -6.7889   -0.7589   -0.3171 C   0  0  1  0  0  0  0  0  0  0  0  0
   -4.7487    0.0169    0.9584 C   0  0  1  0  0  0  0  0  0  0  0  0
   -5.1311    1.4426    1.5568 C   0  0  1  0  0  0  0  0  0  0  0  0
   -3.7810    2.2690    1.7553 C   0  0  2  0  0  0  0  0  0  0  0  0
   -8.2350   -1.2207    0.1139 C   0  0  1  0  0  0  0  0  0  0  0  0
   -8.1395   -2.6734    0.6206 C   0  0  2  0  0  0  0  0  0  0  0  0
   -7.6426   -3.6115   -0.4936 C   0  0  2  0  0  0  0  0  0  0  0  0
   -6.2142   -3.1898   -0.9978 C   0  0  1  0  0  0  0  0  0  0  0  0
   -5.7311   -4.1016   -2.1623 C   0  0  0  0  0  0  0  0  0  0  0  0
   -2.8434    1.5023    2.8208 C   0  0  1  0  0  0  0  0  0  0  0  0
   -2.4800    0.0685    2.1838 C   0  0  0  0  0  0  0  0  0  0  0  0
   -3.8194   -0.7673    1.9386 C   0  0  2  0  0  0  0  0  0  0  0  0
   -8.5754   -3.5852   -1.6260 F   0  0  0  0  0  0  0  0  0  0  0  0
   -8.7191   -0.2766    1.1945 N   0  0  0  0  0  0  0  0  0  0  0  0
   -4.4001   -3.8747   -2.5813 N   0  0  0  0  0  0  0  0  0  0  0  0
   -1.5484    2.2361    3.0290 N   0  0  0  0  0  0  0  0  0  0  0  0
   -3.4792   -2.0801    1.3529 N   0  0  0  0  0  0  0  0  0  0  0  0
   -5.9189   -0.7645    0.7710 O   0  0  0  0  0  0  0  0  0  0  0  0
   -5.9979    2.1327    0.5725 O   0  0  0  0  0  0  0  0  0  0  0  0
   -4.1433    3.5156    2.2710 O   0  0  0  0  0  0  0  0  0  0  0  0
   -9.1950   -3.0087    0.9321 O   0  0  0  0  0  0  0  0  0  0  0  0
   -6.3099   -1.7099   -1.4109 O   0  0  0  0  0  0  0  0  0  0  0  0
  1  5  1  0  0  0  0
  1 18  1  1  0  0  0
  2 18  1  1  0  0  0
  2  3  1  0  0  0  0
  2 12  1  0  0  0  0
  3 19  1  6  0  0  0
  3  4  1  0  0  0  0
  4 20  1  1  0  0  0
  4 10  1  0  0  0  0
  5  6  1  0  0  0  0
  5 14  1  1  0  0  0
  6 21  1  6  0  0  0
  7 13  1  6  0  0  0
  7  6  1  0  0  0  0
  8  9  1  6  0  0  0
  8  7  1  0  0  0  0
 10 16  1  6  0  0  0
 11 10  1  0  0  0  0
 12 17  1  6  0  0  0
 12 11  1  0  0  0  0
 15  9  1  0  0  0  0
 22  8  1  0  0  0  0
 22  1  1  0  0  0  0
M  END
>  <CHROM.1>
-153.79128394,84.40456269,-173.86729537,-5.69436645,-0.85874531,0.52705388
2.18616949,0.03133476,-2.60134662

>  <Name>
lig.pdb

>  <RI>
0

>  <Rbt.Current_Directory>
/home/itssahil/PROJECTS/Mol_Feturizer/New_Systems/rnas/5bws

>  <Rbt.Executable>
rbdock ($Id: //depot/dev/client3/rdock/2013.1/src/exe/rbdock.cxx#4 $)

>  <Rbt.Library>
libRbt.so (2013.1, Build901 2013/11/27)

>  <Rbt.Parameter_File>
/export/apps/rDock/src/rDock_2013.1_src/data/scripts/dock_solv.prm

>  <Rbt.Receptor>
prm/pocket_docking_2.prm

>  <SCORE>
-7.58034

>  <SCORE.INTER>
-7.18071

>  <SCORE.INTER.CONST>
1

>  <SCORE.INTER.POLAR>
0

>  <SCORE.INTER.ROT>
3

>  <SCORE.INTER.SOLV>
20.5251

>  <SCORE.INTER.VDW>
-17.2288

>  <SCORE.INTER.norm>
-0.326396

>  <SCORE.INTRA>
-0.399632

>  <SCORE.INTRA.DIHEDRAL>
-0.522131

>  <SCORE.INTRA.DIHEDRAL.0>
6.10773

>  <SCORE.INTRA.POLAR>
0

>  <SCORE.INTRA.POLAR.0>
0

>  <SCORE.INTRA.REPUL>
0

>  <SCORE.INTRA.REPUL.0>
0

>  <SCORE.INTRA.SOLV>
-0.323589

>  <SCORE.INTRA.SOLV.lig_0>
-71.4024

>  <SCORE.INTRA.VDW>
0.0232277

>  <SCORE.INTRA.VDW.0>
-1.86213

>  <SCORE.INTRA.norm>
-0.0181651

>  <SCORE.RESTR>
0

>  <SCORE.RESTR.CAVITY>
0

>  <SCORE.RESTR.norm>
0

>  <SCORE.SYSTEM>
0

>  <SCORE.SYSTEM.CONST>
0

>  <SCORE.SYSTEM.DIHEDRAL>
0

>  <SCORE.SYSTEM.SOLV>
0

>  <SCORE.SYSTEM.norm>
0

>  <SCORE.heavy>
22

>  <SCORE.norm>
-0.344561

>  <RMSD>
0.343

$$$$
lig.pdb
 OpenBabel11021811523D
libRbt.so/2013.1/901 2013/11/27
 22 23  0  0  0  0  0  0  0  0999 V2000
   -6.5044   -1.2906   -0.6352 C   0  0  1  0  0  0  0  0  0  0  0  0
   -4.4554   -0.5765    0.6621 C   0  0  1  0  0  0  0  0  0  0  0  0
   -4.7996    0.9026    1.1426 C   0  0  1  0  0  0  0  0  0  0  0  0
   -3.4236    1.6809    1.3571 C   0  0  2  0  0  0  0  0  0  0  0  0
   -7.9541   -1.7693   -0.2362 C   0  0  1  0  0  0  0  0  0  0  0  0
   -7.8585   -3.2328    0.2383 C   0  0  2  0  0  0  0  0  0  0  0  0
   -7.3404   -4.1425   -0.8897 C   0  0  2  0  0  0  0  0  0  0  0  0
   -5.9071   -3.7023   -1.3630 C   0  0  1  0  0  0  0  0  0  0  0  0
   -5.4022   -4.5847   -2.5409 C   0  0  0  0  0  0  0  0  0  0  0  0
   -2.5780    0.9496    2.5200 C   0  0  1  0  0  0  0  0  0  0  0  0
   -2.2512   -0.5394    2.0007 C   0  0  0  0  0  0  0  0  0  0  0  0
   -3.6147   -1.3308    1.7408 C   0  0  2  0  0  0  0  0  0  0  0  0
   -8.2567   -4.0947   -2.0348 F   0  0  0  0  0  0  0  0  0  0  0  0
   -8.4590   -0.8527    0.8586 N   0  0  0  0  0  0  0  0  0  0  0  0
   -4.0728   -4.3282   -2.9477 N   0  0  0  0  0  0  0  0  0  0  0  0
   -1.2619    1.6386    2.7474 N   0  0  0  0  0  0  0  0  0  0  0  0
   -3.3078   -2.6946    1.2632 N   0  0  0  0  0  0  0  0  0  0  0  0
   -5.6503   -1.3171    0.4653 O   0  0  0  0  0  0  0  0  0  0  0  0
   -5.5822    1.5601    0.0695 O   0  0  0  0  0  0  0  0  0  0  0  0
   -3.7520    2.9748    1.7682 O   0  0  0  0  0  0  0  0  0  0  0  0
   -8.9166   -3.5804    0.5265 O   0  0  0  0  0  0  0  0  0  0  0  0
   -6.0045   -2.2137   -1.7434 O   0  0  0  0  0  0  0  0  0  0  0  0
  1  5  1  0  0  0  0
  1 18  1  1  0  0  0
  2 18  1  1  0  0  0
  2  3  1  0  0  0  0
  2 12  1  0  0  0  0
  3 19  1  6  0  0  0
  3  4  1  0  0  0  0
  4 20  1  1  0  0  0
  4 10  1  0  0  0  0
  5  6  1  0  0  0  0
  5 14  1  1  0  0  0
  6 21  1  6  0  0  0
  7 13  1  6  0  0  0
  7  6  1  0  0  0  0
  8  9  1  6  0  0  0
  8  7  1  0  0  0  0
 10 16  1  6  0  0  0
 11 10  1  0  0  0  0
 12 17  1  6  0  0  0
 12 11  1  0  0  0  0
 15  9  1  0  0  0  0
 22  8  1  0  0  0  0
 22  1  1  0  0  0  0
M  END
>  <CHROM.1>
-156.79148340,80.36149022,-174.73661416,-5.39771425,-1.40817384,0.18233773
2.19521462,0.04716429,-2.60330618

>  <Name>
lig.pdb

>  <RI>
0

>  <Rbt.Current_Directory>
/home/itssahil/PROJECTS/Mol_Feturizer/New_Systems/rnas/5bws

>  <Rbt.Executable>
rbdock ($Id: //depot/dev/client3/rdock/2013.1/src/exe/rbdock.cxx#4 $)

>  <Rbt.Library>
libRbt.so (2013.1, Build901 2013/11/27)

>  <Rbt.Parameter_File>
/export/apps/rDock/src/rDock_2013.1_src/data/scripts/dock_solv.prm

>  <Rbt.Receptor>
prm/pocket_docking_8.prm

>  <SCORE>
-8.67606

>  <SCORE.INTER>
-7.54098

>  <SCORE.INTER.CONST>
1

>  <SCORE.INTER.POLAR>
0

>  <SCORE.INTER.ROT>
3

>  <SCORE.INTER.SOLV>
22.5197

>  <SCORE.INTER.VDW>
-18.1339

>  <SCORE.INTER.norm>
-0.342772

>  <SCORE.INTRA>
-1.13509

>  <SCORE.INTRA.DIHEDRAL>
-1.80129

>  <SCORE.INTRA.DIHEDRAL.0>
6.10773

>  <SCORE.INTRA.POLAR>
0

>  <SCORE.INTRA.POLAR.0>
0

>  <SCORE.INTRA.REPUL>
0

>  <SCORE.INTRA.REPUL.0>
0

>  <SCORE.INTRA.SOLV>
-0.632032

>  <SCORE.INTRA.SOLV.lig_0>
-71.4024

>  <SCORE.INTRA.VDW>
0.0815736

>  <SCORE.INTRA.VDW.0>
-1.86213

>  <SCORE.INTRA.norm>
-0.0515948

>  <SCORE.RESTR>
0

>  <SCORE.RESTR.CAVITY>
0

>  <SCORE.RESTR.norm>
0

>  <SCORE.SYSTEM>
0

>  <SCORE.SYSTEM.CONST>
0

>  <SCORE.SYSTEM.DIHEDRAL>
0

>  <SCORE.SYSTEM.SOLV>
0

>  <SCORE.SYSTEM.norm>
0

>  <SCORE.heavy>
22

>  <SCORE.norm>
-0.394366

>  <RMSD>
0.649

$$$$
lig.pdb
 OpenBabel11021811523D
libRbt.so/2013.1/901 2013/11/27
 22 23  0  0  0  0  0  0  0  0999 V2000
   -6.4063   -0.7877    0.0293 C   0  0  1  0  0  0  0  0  0  0  0  0
   -4.3285   -0.1032    1.2964 C   0  0  1  0  0  0  0  0  0  0  0  0
   -4.6547    1.3242    1.9235 C   0  0  1  0  0  0  0  0  0  0  0  0
   -3.2746    2.0998    2.1210 C   0  0  2  0  0  0  0  0  0  0  0  0
   -7.8410   -1.2970    0.4445 C   0  0  1  0  0  0  0  0  0  0  0  0
   -7.7179   -2.7742    0.8675 C   0  0  2  0  0  0  0  0  0  0  0  0
   -7.2153   -3.6396   -0.3016 C   0  0  2  0  0  0  0  0  0  0  0  0
   -5.7982   -3.1665   -0.7919 C   0  0  1  0  0  0  0  0  0  0  0  0
   -5.3103   -4.0031   -2.0097 C   0  0  0  0  0  0  0  0  0  0  0  0
   -2.3530    1.2825    3.1626 C   0  0  1  0  0  0  0  0  0  0  0  0
   -2.0465   -0.1516    2.4971 C   0  0  0  0  0  0  0  0  0  0  0  0
   -3.4168   -0.9361    2.2526 C   0  0  2  0  0  0  0  0  0  0  0  0
   -8.1579   -3.5650   -1.4237 F   0  0  0  0  0  0  0  0  0  0  0  0
   -8.3312   -0.4235    1.5803 N   0  0  0  0  0  0  0  0  0  0  0  0
   -3.9352   -3.8695   -2.3093 N   0  0  0  0  0  0  0  0  0  0  0  0
   -1.0312    1.9672    3.3687 N   0  0  0  0  0  0  0  0  0  0  0  0
   -3.1286   -2.2495    1.6407 N   0  0  0  0  0  0  0  0  0  0  0  0
   -5.5271   -0.8402    1.1089 O   0  0  0  0  0  0  0  0  0  0  0  0
   -5.5074    2.0610    0.9610 O   0  0  0  0  0  0  0  0  0  0  0  0
   -3.5878    3.3489    2.6620 O   0  0  0  0  0  0  0  0  0  0  0  0
   -8.7651   -3.1440    1.1675 O   0  0  0  0  0  0  0  0  0  0  0  0
   -5.9213   -1.6674   -1.1200 O   0  0  0  0  0  0  0  0  0  0  0  0
  1  5  1  0  0  0  0
  1 18  1  1  0  0  0
  2 18  1  1  0  0  0
  2  3  1  0  0  0  0
  2 12  1  0  0  0  0
  3 19  1  6  0  0  0
  3  4  1  0  0  0  0
  4 20  1  1  0  0  0
  4 10  1  0  0  0  0
  5  6  1  0  0  0  0
  5 14  1  1  0  0  0
  6 21  1  6  0  0  0
  7 13  1  6  0  0  0
  7  6  1  0  0  0  0
  8  9  1  6  0  0  0
  8  7  1  0  0  0  0
 10 16  1  6  0  0  0
 11 10  1  0  0  0  0
 12 17  1  6  0  0  0
 12 11  1  0  0  0  0
 15  9  1  0  0  0  0
 22  8  1  0  0  0  0
 22  1  1  0  0  0  0
M  END
>  <CHROM.1>
-157.58188072,84.56951576,-165.46293260,-5.25837205,-0.95151975,0.82827071
2.20572494,0.02811790,-2.56861366

>  <Name>
lig.pdb

>  <RI>
0

>  <Rbt.Current_Directory>
/home/itssahil/PROJECTS/Mol_Feturizer/New_Systems/rnas/5bws

>  <Rbt.Executable>
rbdock ($Id: //depot/dev/client3/rdock/2013.1/src/exe/rbdock.cxx#4 $)

>  <Rbt.Library>
libRbt.so (2013.1, Build901 2013/11/27)

>  <Rbt.Parameter_File>
/export/apps/rDock/src/rDock_2013.1_src/data/scripts/dock_solv.prm

>  <Rbt.Receptor>
prm/blind_docking_20.prm

>  <SCORE>
-7.07362

>  <SCORE.INTER>
-6.73331

>  <SCORE.INTER.CONST>
1

>  <SCORE.INTER.POLAR>
0

>  <SCORE.INTER.ROT>
3

>  <SCORE.INTER.SOLV>
23.7671

>  <SCORE.INTER.VDW>
-18.0112

>  <SCORE.INTER.norm>
-0.306059

>  <SCORE.INTRA>
-0.491625

>  <SCORE.INTRA.DIHEDRAL>
-0.581267

>  <SCORE.INTRA.DIHEDRAL.0>
6.10773

>  <SCORE.INTRA.POLAR>
0

>  <SCORE.INTRA.POLAR.0>
0

>  <SCORE.INTRA.REPUL>
0

>  <SCORE.INTRA.REPUL.0>
0

>  <SCORE.INTRA.SOLV>
-0.458326

>  <SCORE.INTRA.SOLV.lig_0>
-71.4024

>  <SCORE.INTRA.VDW>
0.0281712

>  <SCORE.INTRA.VDW.0>
-1.86213

>  <SCORE.INTRA.norm>
-0.0223466

>  <SCORE.RESTR>
0.151311

>  <SCORE.RESTR.CAVITY>
0.151311

>  <SCORE.RESTR.norm>
0.00687776

>  <SCORE.SYSTEM>
0

>  <SCORE.SYSTEM.CONST>
0

>  <SCORE.SYSTEM.DIHEDRAL>
0

>  <SCORE.SYSTEM.SOLV>
0

>  <SCORE.SYSTEM.norm>
0

>  <SCORE.heavy>
22

>  <SCORE.norm>
-0.321528

>  <RMSD>
0.677

$$$$
lig.pdb
 OpenBabel11021811523D
libRbt.so/2013.1/901 2013/11/27
 22 23  0  0  0  0  0  0  0  0999 V2000
   -6.3974   -0.7769    0.0568 C   0  0  1  0  0  0  0  0  0  0  0  0
   -4.3129   -0.0876    1.3102 C   0  0  1  0  0  0  0  0  0  0  0  0
   -4.6608    1.3339    1.9391 C   0  0  1  0  0  0  0  0  0  0  0  0
   -3.2925    2.1297    2.1385 C   0  0  2  0  0  0  0  0  0  0  0  0
   -7.8285   -1.2782    0.4937 C   0  0  1  0  0  0  0  0  0  0  0  0
   -7.7091   -2.7587    0.9062 C   0  0  2  0  0  0  0  0  0  0  0  0
   -7.2330   -3.6209   -0.2763 C   0  0  2  0  0  0  0  0  0  0  0  0
   -5.8211   -3.1553   -0.7882 C   0  0  1  0  0  0  0  0  0  0  0  0
   -5.3604   -3.9884   -2.0189 C   0  0  0  0  0  0  0  0  0  0  0  0
   -2.3594    1.3247    3.1795 C   0  0  1  0  0  0  0  0  0  0  0  0
   -2.0311   -0.1037    2.5121 C   0  0  0  0  0  0  0  0  0  0  0  0
   -3.3894   -0.9082    2.2657 C   0  0  2  0  0  0  0  0  0  0  0  0
   -8.1942   -3.5329   -1.3815 F   0  0  0  0  0  0  0  0  0  0  0  0
   -8.2927   -0.4077    1.6427 N   0  0  0  0  0  0  0  0  0  0  0  0
   -3.9936   -3.8492   -2.3522 N   0  0  0  0  0  0  0  0  0  0  0  0
   -1.0480    2.0288    3.3875 N   0  0  0  0  0  0  0  0  0  0  0  0
   -3.0813   -2.2162    1.6520 N   0  0  0  0  0  0  0  0  0  0  0  0
   -5.5003   -0.8421    1.1208 O   0  0  0  0  0  0  0  0  0  0  0  0
   -5.5237    2.0593    0.9772 O   0  0  0  0  0  0  0  0  0  0  0  0
   -3.6246    3.3732    2.6812 O   0  0  0  0  0  0  0  0  0  0  0  0
   -8.7537   -3.1225    1.2221 O   0  0  0  0  0  0  0  0  0  0  0  0
   -5.9387   -1.6535   -1.1057 O   0  0  0  0  0  0  0  0  0  0  0  0
  1  5  1  0  0  0  0
  1 18  1  1  0  0  0
  2 18  1  1  0  0  0
  2  3  1  0  0  0  0
  2 12  1  0  0  0  0
  3 19  1  6  0  0  0
  3  4  1  0  0  0  0
  4 20  1  1  0  0  0
  4 10  1  0  0  0  0
  5  6  1  0  0  0  0
  5 14  1  1  0  0  0
  6 21  1  6  0  0  0
  7 13  1  6  0  0  0
  7  6  1  0  0  0  0
  8  9  1  6  0  0  0
  8  7  1  0  0  0  0
 10 16  1  6  0  0  0
 11 10  1  0  0  0  0
 12 17  1  6  0  0  0
 12 11  1  0  0  0  0
 15  9  1  0  0  0  0
 22  8  1  0  0  0  0
 22  1  1  0  0  0  0
M  END
>  <CHROM.1>
-155.61701082,82.78857250,-166.27095642,-5.26320880,-0.92973655,0.84844423
2.20390871,0.01845337,-2.56185508

>  <Name>
lig.pdb

>  <RI>
0

>  <Rbt.Current_Directory>
/home/itssahil/PROJECTS/Mol_Feturizer/New_Systems/rnas/5bws

>  <Rbt.Executable>
rbdock ($Id: //depot/dev/client3/rdock/2013.1/src/exe/rbdock.cxx#4 $)

>  <Rbt.Library>
libRbt.so (2013.1, Build901 2013/11/27)

>  <Rbt.Parameter_File>
/export/apps/rDock/src/rDock_2013.1_src/data/scripts/dock_solv.prm

>  <Rbt.Receptor>
prm/blind_docking_20.prm

>  <SCORE>
-6.9681

>  <SCORE.INTER>
-6.54054

>  <SCORE.INTER.CONST>
1

>  <SCORE.INTER.POLAR>
0

>  <SCORE.INTER.ROT>
3

>  <SCORE.INTER.SOLV>
23.9192

>  <SCORE.INTER.VDW>
-17.9334

>  <SCORE.INTER.norm>
-0.297297

>  <SCORE.INTRA>
-0.544762

>  <SCORE.INTRA.DIHEDRAL>
-0.625436

>  <SCORE.INTRA.DIHEDRAL.0>
6.10773

>  <SCORE.INTRA.POLAR>
0

>  <SCORE.INTRA.POLAR.0>
0

>  <SCORE.INTRA.REPUL>
0

>  <SCORE.INTRA.REPUL.0>
0

>  <SCORE.INTRA.SOLV>
-0.565096

>  <SCORE.INTRA.SOLV.lig_0>
-71.4024

>  <SCORE.INTRA.VDW>
0.0505042

>  <SCORE.INTRA.VDW.0>
-1.86213

>  <SCORE.INTRA.norm>
-0.0247619

>  <SCORE.RESTR>
0.117208

>  <SCORE.RESTR.CAVITY>
0.117208

>  <SCORE.RESTR.norm>
0.00532765

>  <SCORE.SYSTEM>
0

>  <SCORE.SYSTEM.CONST>
0

>  <SCORE.SYSTEM.DIHEDRAL>
0

>  <SCORE.SYSTEM.SOLV>
0

>  <SCORE.SYSTEM.norm>
0

>  <SCORE.heavy>
22

>  <SCORE.norm>
-0.316732

>  <RMSD>
0.690

$$$$
lig.pdb
 OpenBabel11021811523D
libRbt.so/2013.1/901 2013/11/27
 22 23  0  0  0  0  0  0  0  0999 V2000
   -6.3636   -0.7791    0.0480 C   0  0  1  0  0  0  0  0  0  0  0  0
   -4.2953   -0.0823    1.3239 C   0  0  1  0  0  0  0  0  0  0  0  0
   -4.6636    1.3385    1.9426 C   0  0  1  0  0  0  0  0  0  0  0  0
   -3.3046    2.1450    2.1612 C   0  0  2  0  0  0  0  0  0  0  0  0
   -7.7995   -1.2745    0.4757 C   0  0  1  0  0  0  0  0  0  0  0  0
   -7.6883   -2.7549    0.8909 C   0  0  2  0  0  0  0  0  0  0  0  0
   -7.2073   -3.6205   -0.2872 C   0  0  2  0  0  0  0  0  0  0  0  0
   -5.7903   -3.1608   -0.7901 C   0  0  1  0  0  0  0  0  0  0  0  0
   -5.3243   -3.9971   -2.0165 C   0  0  0  0  0  0  0  0  0  0  0  0
   -2.3824    1.3502    3.2196 C   0  0  1  0  0  0  0  0  0  0  0  0
   -2.0330   -0.0778    2.5622 C   0  0  0  0  0  0  0  0  0  0  0  0
   -3.3812   -0.8931    2.2967 C   0  0  2  0  0  0  0  0  0  0  0  0
   -8.1606   -3.5304   -1.3991 F   0  0  0  0  0  0  0  0  0  0  0  0
   -8.2683   -0.4008    1.6204 N   0  0  0  0  0  0  0  0  0  0  0  0
   -3.9506   -3.8785   -2.3288 N   0  0  0  0  0  0  0  0  0  0  0  0
   -1.0797    2.0646    3.4462 N   0  0  0  0  0  0  0  0  0  0  0  0
   -3.0538   -2.2007    1.6924 N   0  0  0  0  0  0  0  0  0  0  0  0
   -5.4739   -0.8463    1.1181 O   0  0  0  0  0  0  0  0  0  0  0  0
   -5.5164    2.0545    0.9646 O   0  0  0  0  0  0  0  0  0  0  0  0
   -3.6545    3.3877    2.6945 O   0  0  0  0  0  0  0  0  0  0  0  0
   -8.7364   -3.1145    1.2001 O   0  0  0  0  0  0  0  0  0  0  0  0
   -5.9002   -1.6589   -1.1102 O   0  0  0  0  0  0  0  0  0  0  0  0
  1  5  1  0  0  0  0
  1 18  1  1  0  0  0
  2 18  1  1  0  0  0
  2  3  1  0  0  0  0
  2 12  1  0  0  0  0
  3 19  1  6  0  0  0
  3  4  1  0  0  0  0
  4 20  1  1  0  0  0
  4 10  1  0  0  0  0
  5  6  1  0  0  0  0
  5 14  1  1  0  0  0
  6 21  1  6  0  0  0
  7 13  1  6  0  0  0
  7  6  1  0  0  0  0
  8  9  1  6  0  0  0
  8  7  1  0  0  0  0
 10 16  1  6  0  0  0
 11 10  1  0  0  0  0
 12 17  1  6  0  0  0
 12 11  1  0  0  0  0
 15  9  1  0  0  0  0
 22  8  1  0  0  0  0
 22  1  1  0  0  0  0
M  END
>  <CHROM.1>
-154.62756868,81.89552862,-165.39289300,-5.24844795,-0.92435611,0.85509073
2.19431424,0.02825952,-2.56391798

>  <Name>
lig.pdb

>  <RI>
0

>  <Rbt.Current_Directory>
/home/itssahil/PROJECTS/Mol_Feturizer/New_Systems/rnas/5bws

>  <Rbt.Executable>
rbdock ($Id: //depot/dev/client3/rdock/2013.1/src/exe/rbdock.cxx#4 $)

>  <Rbt.Library>
libRbt.so (2013.1, Build901 2013/11/27)

>  <Rbt.Parameter_File>
/export/apps/rDock/src/rDock_2013.1_src/data/scripts/dock_solv.prm

>  <Rbt.Receptor>
prm/blind_docking_20.prm

>  <SCORE>
-6.95252

>  <SCORE.INTER>
-6.56022

>  <SCORE.INTER.CONST>
1

>  <SCORE.INTER.POLAR>
0

>  <SCORE.INTER.ROT>
3

>  <SCORE.INTER.SOLV>
23.8262

>  <SCORE.INTER.VDW>
-17.9156

>  <SCORE.INTER.norm>
-0.298192

>  <SCORE.INTRA>
-0.493797

>  <SCORE.INTRA.DIHEDRAL>
-0.518592

>  <SCORE.INTRA.DIHEDRAL.0>
6.10773

>  <SCORE.INTRA.POLAR>
0

>  <SCORE.INTRA.POLAR.0>
0

>  <SCORE.INTRA.REPUL>
0

>  <SCORE.INTRA.REPUL.0>
0

>  <SCORE.INTRA.SOLV>
-0.593648

>  <SCORE.INTRA.SOLV.lig_0>
-71.4024

>  <SCORE.INTRA.VDW>
0.0623229

>  <SCORE.INTRA.VDW.0>
-1.86213

>  <SCORE.INTRA.norm>
-0.0224453

>  <SCORE.RESTR>
0.101501

>  <SCORE.RESTR.CAVITY>
0.101501

>  <SCORE.RESTR.norm>
0.00461366

>  <SCORE.SYSTEM>
0

>  <SCORE.SYSTEM.CONST>
0

>  <SCORE.SYSTEM.DIHEDRAL>
0

>  <SCORE.SYSTEM.SOLV>
0

>  <SCORE.SYSTEM.norm>
0

>  <SCORE.heavy>
22

>  <SCORE.norm>
-0.316024

>  <RMSD>
0.691

$$$$
lig.pdb
 OpenBabel11021811523D
libRbt.so/2013.1/901 2013/11/27
 22 23  0  0  0  0  0  0  0  0999 V2000
   -6.4760   -0.6135    0.1885 C   0  0  1  0  0  0  0  0  0  0  0  0
   -4.3095   -0.0049    1.3405 C   0  0  1  0  0  0  0  0  0  0  0  0
   -4.6231    1.4259    1.9662 C   0  0  1  0  0  0  0  0  0  0  0  0
   -3.2399    2.2043    2.1272 C   0  0  2  0  0  0  0  0  0  0  0  0
   -7.8210   -1.3240    0.6083 C   0  0  1  0  0  0  0  0  0  0  0  0
   -7.5323   -2.8290    0.7759 C   0  0  2  0  0  0  0  0  0  0  0  0
   -7.0506   -3.4460   -0.5491 C   0  0  2  0  0  0  0  0  0  0  0  0
   -5.7260   -2.7612   -1.0477 C   0  0  1  0  0  0  0  0  0  0  0  0
   -5.2654   -3.3438   -2.4149 C   0  0  0  0  0  0  0  0  0  0  0  0
   -2.2935    1.3945    3.1523 C   0  0  1  0  0  0  0  0  0  0  0  0
   -2.0004   -0.0433    2.4887 C   0  0  0  0  0  0  0  0  0  0  0  0
   -3.3749   -0.8309    2.2805 C   0  0  2  0  0  0  0  0  0  0  0  0
   -8.0839   -3.2932   -1.5797 F   0  0  0  0  0  0  0  0  0  0  0  0
   -8.2938   -0.6925    1.9010 N   0  0  0  0  0  0  0  0  0  0  0  0
   -4.8399   -4.6913   -2.3732 N   0  0  0  0  0  0  0  0  0  0  0  0
   -0.9682    2.0820    3.3240 N   0  0  0  0  0  0  0  0  0  0  0  0
   -3.0992   -2.1476    1.6701 N   0  0  0  0  0  0  0  0  0  0  0  0
   -5.5111   -0.7445    1.1850 O   0  0  0  0  0  0  0  0  0  0  0  0
   -5.4986    2.1558    1.0191 O   0  0  0  0  0  0  0  0  0  0  0  0
   -3.5422    3.4563    2.6677 O   0  0  0  0  0  0  0  0  0  0  0  0
   -8.5145   -3.3451    1.0796 O   0  0  0  0  0  0  0  0  0  0  0  0
   -6.0089   -1.2495   -1.1182 O   0  0  0  0  0  0  0  0  0  0  0  0
  1  5  1  0  0  0  0
  1 18  1  1  0  0  0
  2 18  1  1  0  0  0
  2  3  1  0  0  0  0
  2 12  1  0  0  0  0
  3 19  1  6  0  0  0
  3  4  1  0  0  0  0
  4 20  1  1  0  0  0
  4 10  1  0  0  0  0
  5  6  1  0  0  0  0
  5 14  1  1  0  0  0
  6 21  1  6  0  0  0
  7 13  1  6  0  0  0
  7  6  1  0  0  0  0
  8  9  1  6  0  0  0
  8  7  1  0  0  0  0
 10 16  1  6  0  0  0
 11 10  1  0  0  0  0
 12 17  1  6  0  0  0
 12 11  1  0  0  0  0
 15  9  1  0  0  0  0
 22  8  1  0  0  0  0
 22  1  1  0  0  0  0
M  END
>  <CHROM.1>
-163.81329409,78.15624681,-67.43361989,-5.24928309,-0.86305291,0.80714282
2.18518031,0.02561601,-2.54883382

>  <Name>
lig.pdb

>  <RI>
0

>  <Rbt.Current_Directory>
/home/itssahil/PROJECTS/Mol_Feturizer/New_Systems/rnas/5bws

>  <Rbt.Executable>
rbdock ($Id: //depot/dev/client3/rdock/2013.1/src/exe/rbdock.cxx#4 $)

>  <Rbt.Library>
libRbt.so (2013.1, Build901 2013/11/27)

>  <Rbt.Parameter_File>
/export/apps/rDock/src/rDock_2013.1_src/data/scripts/dock_solv.prm

>  <Rbt.Receptor>
prm/blind_docking_20.prm

>  <SCORE>
-9.48587

>  <SCORE.INTER>
-7.87631

>  <SCORE.INTER.CONST>
1

>  <SCORE.INTER.POLAR>
0

>  <SCORE.INTER.ROT>
3

>  <SCORE.INTER.SOLV>
21.5399

>  <SCORE.INTER.VDW>
-18.0308

>  <SCORE.INTER.norm>
-0.358014

>  <SCORE.INTRA>
-1.70663

>  <SCORE.INTRA.DIHEDRAL>
-3.1827

>  <SCORE.INTRA.DIHEDRAL.0>
6.10773

>  <SCORE.INTRA.POLAR>
0

>  <SCORE.INTRA.POLAR.0>
0

>  <SCORE.INTRA.REPUL>
0

>  <SCORE.INTRA.REPUL.0>
0

>  <SCORE.INTRA.SOLV>
-0.528058

>  <SCORE.INTRA.SOLV.lig_0>
-71.4024

>  <SCORE.INTRA.VDW>
0.148751

>  <SCORE.INTRA.VDW.0>
-1.86213

>  <SCORE.INTRA.norm>
-0.0775739

>  <SCORE.RESTR>
0.0970577

>  <SCORE.RESTR.CAVITY>
0.0970577

>  <SCORE.RESTR.norm>
0.00441171

>  <SCORE.SYSTEM>
0

>  <SCORE.SYSTEM.CONST>
0

>  <SCORE.SYSTEM.DIHEDRAL>
0

>  <SCORE.SYSTEM.SOLV>
0

>  <SCORE.SYSTEM.norm>
0

>  <SCORE.heavy>
22

>  <SCORE.norm>
-0.431176

>  <RMSD>
0.816

$$$$
lig.pdb
 OpenBabel11021811523D
libRbt.so/2013.1/901 2013/11/27
 22 23  0  0  0  0  0  0  0  0999 V2000
   -6.4790   -0.6061    0.2016 C   0  0  1  0  0  0  0  0  0  0  0  0
   -4.3130    0.0005    1.3556 C   0  0  1  0  0  0  0  0  0  0  0  0
   -4.6294    1.4344    1.9727 C   0  0  1  0  0  0  0  0  0  0  0  0
   -3.2468    2.2133    2.1368 C   0  0  2  0  0  0  0  0  0  0  0  0
   -7.8243   -1.3166    0.6204 C   0  0  1  0  0  0  0  0  0  0  0  0
   -7.5365   -2.8221    0.7850 C   0  0  2  0  0  0  0  0  0  0  0  0
   -7.0555   -3.4369   -0.5413 C   0  0  2  0  0  0  0  0  0  0  0  0
   -5.7306   -2.7519   -1.0389 C   0  0  1  0  0  0  0  0  0  0  0  0
   -5.2707   -3.3321   -2.4073 C   0  0  0  0  0  0  0  0  0  0  0  0
   -2.3058    1.4084    3.1707 C   0  0  1  0  0  0  0  0  0  0  0  0
   -2.0097   -0.0327    2.5156 C   0  0  0  0  0  0  0  0  0  0  0  0
   -3.3833   -0.8211    2.3043 C   0  0  2  0  0  0  0  0  0  0  0  0
   -8.0890   -3.2814   -1.5714 F   0  0  0  0  0  0  0  0  0  0  0  0
   -8.2965   -0.6873    1.9144 N   0  0  0  0  0  0  0  0  0  0  0  0
   -4.8546   -4.6827   -2.3700 N   0  0  0  0  0  0  0  0  0  0  0  0
   -0.9812    2.0965    3.3456 N   0  0  0  0  0  0  0  0  0  0  0  0
   -3.1048   -2.1408    1.7018 N   0  0  0  0  0  0  0  0  0  0  0  0
   -5.5139   -0.7396    1.1976 O   0  0  0  0  0  0  0  0  0  0  0  0
   -5.4999    2.1599    1.0176 O   0  0  0  0  0  0  0  0  0  0  0  0
   -3.5516    3.4680    2.6696 O   0  0  0  0  0  0  0  0  0  0  0  0
   -8.5189   -3.3382    1.0880 O   0  0  0  0  0  0  0  0  0  0  0  0
   -6.0126   -1.2399   -1.1064 O   0  0  0  0  0  0  0  0  0  0  0  0
  1  5  1  0  0  0  0
  1 18  1  1  0  0  0
  2 18  1  1  0  0  0
  2  3  1  0  0  0  0
  2 12  1  0  0  0  0
  3 19  1  6  0  0  0
  3  4  1  0  0  0  0
  4 20  1  1  0  0  0
  4 10  1  0  0  0  0
  5  6  1  0  0  0  0
  5 14  1  1  0  0  0
  6 21  1  6  0  0  0
  7 13  1  6  0  0  0
  7  6  1  0  0  0  0
  8  9  1  6  0  0  0
  8  7  1  0  0  0  0
 10 16  1  6  0  0  0
 11 10  1  0  0  0  0
 12 17  1  6  0  0  0
 12 11  1  0  0  0  0
 15  9  1  0  0  0  0
 22  8  1  0  0  0  0
 22  1  1  0  0  0  0
M  END
>  <CHROM.1>
-163.69669410,77.59754485,-67.01999325,-5.25534238,-0.85426061,0.81917621
2.18445566,0.02699757,-2.54881817

>  <Name>
lig.pdb

>  <RI>
0

>  <Rbt.Current_Directory>
/home/itssahil/PROJECTS/Mol_Feturizer/New_Systems/rnas/5bws

>  <Rbt.Executable>
rbdock ($Id: //depot/dev/client3/rdock/2013.1/src/exe/rbdock.cxx#4 $)

>  <Rbt.Library>
libRbt.so (2013.1, Build901 2013/11/27)

>  <Rbt.Parameter_File>
/export/apps/rDock/src/rDock_2013.1_src/data/scripts/dock_solv.prm

>  <Rbt.Receptor>
prm/blind_docking_20.prm

>  <SCORE>
-9.50822

>  <SCORE.INTER>
-7.8551

>  <SCORE.INTER.CONST>
1

>  <SCORE.INTER.POLAR>
0

>  <SCORE.INTER.ROT>
3

>  <SCORE.INTER.SOLV>
21.5389

>  <SCORE.INTER.VDW>
-18.0164

>  <SCORE.INTER.norm>
-0.35705

>  <SCORE.INTRA>
-1.74815

>  <SCORE.INTRA.DIHEDRAL>
-3.27208

>  <SCORE.INTRA.DIHEDRAL.0>
6.10773

>  <SCORE.INTRA.POLAR>
0

>  <SCORE.INTRA.POLAR.0>
0

>  <SCORE.INTRA.REPUL>
0

>  <SCORE.INTRA.REPUL.0>
0

>  <SCORE.INTRA.SOLV>
-0.540093

>  <SCORE.INTRA.SOLV.lig_0>
-71.4024

>  <SCORE.INTRA.VDW>
0.157937

>  <SCORE.INTRA.VDW.0>
-1.86213

>  <SCORE.INTRA.norm>
-0.0794615

>  <SCORE.RESTR>
0.0950378

>  <SCORE.RESTR.CAVITY>
0.0950378

>  <SCORE.RESTR.norm>
0.0043199

>  <SCORE.SYSTEM>
0

>  <SCORE.SYSTEM.CONST>
0

>  <SCORE.SYSTEM.DIHEDRAL>
0

>  <SCORE.SYSTEM.SOLV>
0

>  <SCORE.SYSTEM.norm>
0

>  <SCORE.heavy>
22

>  <SCORE.norm>
-0.432192

>  <RMSD>
0.822

$$$$
lig.pdb
 OpenBabel11021811523D
libRbt.so/2013.1/901 2013/11/27
 22 23  0  0  0  0  0  0  0  0999 V2000
   -6.7744   -1.0083   -0.2143 C   0  0  1  0  0  0  0  0  0  0  0  0
   -4.5912   -0.4714    0.9418 C   0  0  1  0  0  0  0  0  0  0  0  0
   -4.7006    0.8966    1.7502 C   0  0  1  0  0  0  0  0  0  0  0  0
   -3.2395    1.5309    1.8402 C   0  0  2  0  0  0  0  0  0  0  0  0
   -8.1954   -1.5372    0.2231 C   0  0  1  0  0  0  0  0  0  0  0  0
   -8.0534   -3.0240    0.6043 C   0  0  2  0  0  0  0  0  0  0  0  0
   -7.5754   -3.8557   -0.5991 C   0  0  2  0  0  0  0  0  0  0  0  0
   -6.1738   -3.3612   -1.1121 C   0  0  1  0  0  0  0  0  0  0  0  0
   -5.7119   -4.1629   -2.3630 C   0  0  0  0  0  0  0  0  0  0  0  0
   -2.2774    0.5285    2.6598 C   0  0  1  0  0  0  0  0  0  0  0  0
   -2.1929   -0.8403    1.8155 C   0  0  0  0  0  0  0  0  0  0  0  0
   -3.6509   -1.4788    1.6769 C   0  0  2  0  0  0  0  0  0  0  0  0
   -8.5463   -3.7580   -1.6950 F   0  0  0  0  0  0  0  0  0  0  0  0
   -8.6619   -0.6964    1.3931 N   0  0  0  0  0  0  0  0  0  0  0  0
   -4.3760   -3.9259   -2.7603 N   0  0  0  0  0  0  0  0  0  0  0  0
   -0.8814    1.0765    2.7569 N   0  0  0  0  0  0  0  0  0  0  0  0
   -3.5665   -2.7326    0.9002 N   0  0  0  0  0  0  0  0  0  0  0  0
   -5.8682   -1.0833    0.8412 O   0  0  0  0  0  0  0  0  0  0  0  0
   -5.5924    1.8048    0.9911 O   0  0  0  0  0  0  0  0  0  0  0  0
   -3.3636    2.7312    2.5437 O   0  0  0  0  0  0  0  0  0  0  0  0
   -9.0906   -3.4080    0.9206 O   0  0  0  0  0  0  0  0  0  0  0  0
   -6.3135   -1.8549   -1.3979 O   0  0  0  0  0  0  0  0  0  0  0  0
  1  5  1  0  0  0  0
  1 18  1  1  0  0  0
  2 18  1  1  0  0  0
  2  3  1  0  0  0  0
  2 12  1  0  0  0  0
  3 19  1  6  0  0  0
  3  4  1  0  0  0  0
  4 20  1  1  0  0  0
  4 10  1  0  0  0  0
  5  6  1  0  0  0  0
  5 14  1  1  0  0  0
  6 21  1  6  0  0  0
  7 13  1  6  0  0  0
  7  6  1  0  0  0  0
  8  9  1  6  0  0  0
  8  7  1  0  0  0  0
 10 16  1  6  0  0  0
 11 10  1  0  0  0  0
 12 17  1  6  0  0  0
 12 11  1  0  0  0  0
 15  9  1  0  0  0  0
 22  8  1  0  0  0  0
 22  1  1  0  0  0  0
M  END
>  <CHROM.1>
-166.19051066,96.33366214,-170.56295900,-5.49329994,-1.31467942,0.49714524
2.29633896,-0.01005737,-2.51801953

>  <Name>
lig.pdb

>  <RI>
0

>  <Rbt.Current_Directory>
/home/itssahil/PROJECTS/Mol_Feturizer/New_Systems/rnas/5bws

>  <Rbt.Executable>
rbdock ($Id: //depot/dev/client3/rdock/2013.1/src/exe/rbdock.cxx#4 $)

>  <Rbt.Library>
libRbt.so (2013.1, Build901 2013/11/27)

>  <Rbt.Parameter_File>
/export/apps/rDock/src/rDock_2013.1_src/data/scripts/dock_solv.prm

>  <Rbt.Receptor>
prm/blind_docking_20.prm

>  <SCORE>
-6.74486

>  <SCORE.INTER>
-6.97611

>  <SCORE.INTER.CONST>
1

>  <SCORE.INTER.POLAR>
0

>  <SCORE.INTER.ROT>
3

>  <SCORE.INTER.SOLV>
22.4925

>  <SCORE.INTER.VDW>
-17.7482

>  <SCORE.INTER.norm>
-0.317096

>  <SCORE.INTRA>
0.145646

>  <SCORE.INTRA.DIHEDRAL>
-0.119966

>  <SCORE.INTRA.DIHEDRAL.0>
6.10773

>  <SCORE.INTRA.POLAR>
0

>  <SCORE.INTRA.POLAR.0>
0

>  <SCORE.INTRA.REPUL>
0

>  <SCORE.INTRA.REPUL.0>
0

>  <SCORE.INTRA.SOLV>
0.710762

>  <SCORE.INTRA.SOLV.lig_0>
-71.4024

>  <SCORE.INTRA.VDW>
-0.149753

>  <SCORE.INTRA.VDW.0>
-1.86213

>  <SCORE.INTRA.norm>
0.00662025

>  <SCORE.RESTR>
0.0856124

>  <SCORE.RESTR.CAVITY>
0.0856124

>  <SCORE.RESTR.norm>
0.00389147

>  <SCORE.SYSTEM>
0

>  <SCORE.SYSTEM.CONST>
0

>  <SCORE.SYSTEM.DIHEDRAL>
0

>  <SCORE.SYSTEM.SOLV>
0

>  <SCORE.SYSTEM.norm>
0

>  <SCORE.heavy>
22

>  <SCORE.norm>
-0.306584

>  <RMSD>
0.822

$$$$
lig.pdb
 OpenBabel11021811523D
libRbt.so/2013.1/901 2013/11/27
 22 23  0  0  0  0  0  0  0  0999 V2000
   -6.5875   -1.3121   -0.5607 C   0  0  1  0  0  0  0  0  0  0  0  0
   -4.5191   -0.6660    0.7415 C   0  0  1  0  0  0  0  0  0  0  0  0
   -4.7144    0.7626    1.4183 C   0  0  1  0  0  0  0  0  0  0  0  0
   -3.2729    1.4235    1.5928 C   0  0  2  0  0  0  0  0  0  0  0  0
   -8.0405   -1.8181   -0.2105 C   0  0  1  0  0  0  0  0  0  0  0  0
   -7.9307   -3.2719    0.2902 C   0  0  2  0  0  0  0  0  0  0  0  0
   -7.3489   -4.1860   -0.8026 C   0  0  2  0  0  0  0  0  0  0  0  0
   -5.9084   -3.7200   -1.2271 C   0  0  1  0  0  0  0  0  0  0  0  0
   -5.3385   -4.6078   -2.3708 C   0  0  0  0  0  0  0  0  0  0  0  0
   -2.3869    0.5066    2.5809 C   0  0  1  0  0  0  0  0  0  0  0  0
   -2.2128   -0.9260    1.8662 C   0  0  0  0  0  0  0  0  0  0  0  0
   -3.6467   -1.5951    1.6442 C   0  0  2  0  0  0  0  0  0  0  0  0
   -8.2208   -4.1762   -1.9828 F   0  0  0  0  0  0  0  0  0  0  0  0
   -8.6080   -0.8973    0.8495 N   0  0  0  0  0  0  0  0  0  0  0  0
   -3.9515   -4.4613   -2.6013 N   0  0  0  0  0  0  0  0  0  0  0  0
   -1.0102    1.0812    2.7634 N   0  0  0  0  0  0  0  0  0  0  0  0
   -3.4800   -2.9076    0.9869 N   0  0  0  0  0  0  0  0  0  0  0  0
   -5.7765   -1.3027    0.5721 O   0  0  0  0  0  0  0  0  0  0  0  0
   -5.5357    1.5916    0.5047 O   0  0  0  0  0  0  0  0  0  0  0  0
   -3.4717    2.6760    2.1782 O   0  0  0  0  0  0  0  0  0  0  0  0
   -8.9912   -3.6394    0.5427 O   0  0  0  0  0  0  0  0  0  0  0  0
   -6.0243   -2.2398   -1.6342 O   0  0  0  0  0  0  0  0  0  0  0  0
  1  5  1  0  0  0  0
  1 18  1  1  0  0  0
  2 18  1  1  0  0  0
  2  3  1  0  0  0  0
  2 12  1  0  0  0  0
  3 19  1  6  0  0  0
  3  4  1  0  0  0  0
  4 20  1  1  0  0  0
  4 10  1  0  0  0  0
  5  6  1  0  0  0  0
  5 14  1  1  0  0  0
  6 21  1  6  0  0  0
  7 13  1  6  0  0  0
  7  6  1  0  0  0  0
  8  9  1  6  0  0  0
  8  7  1  0  0  0  0
 10 16  1  6  0  0  0
 11 10  1  0  0  0  0
 12 17  1  6  0  0  0
 12 11  1  0  0  0  0
 15  9  1  0  0  0  0
 22  8  1  0  0  0  0
 22  1  1  0  0  0  0
M  END
>  <CHROM.1>
-165.59422648,95.28663074,-166.13960510,-5.37991011,-1.54783509,0.28421697
2.23847667,0.06567214,-2.59820155

>  <Name>
lig.pdb

>  <RI>
0

>  <Rbt.Current_Directory>
/home/itssahil/PROJECTS/Mol_Feturizer/New_Systems/rnas/5bws

>  <Rbt.Executable>
rbdock ($Id: //depot/dev/client3/rdock/2013.1/src/exe/rbdock.cxx#4 $)

>  <Rbt.Library>
libRbt.so (2013.1, Build901 2013/11/27)

>  <Rbt.Parameter_File>
/export/apps/rDock/src/rDock_2013.1_src/data/scripts/dock_solv.prm

>  <Rbt.Receptor>
prm/blind_docking_20.prm

>  <SCORE>
-6.99589

>  <SCORE.INTER>
-7.26481

>  <SCORE.INTER.CONST>
1

>  <SCORE.INTER.POLAR>
0

>  <SCORE.INTER.ROT>
3

>  <SCORE.INTER.SOLV>
21.4314

>  <SCORE.INTER.VDW>
-17.587

>  <SCORE.INTER.norm>
-0.330218

>  <SCORE.INTRA>
0.236681

>  <SCORE.INTRA.DIHEDRAL>
0.116636

>  <SCORE.INTRA.DIHEDRAL.0>
6.10773

>  <SCORE.INTRA.POLAR>
0

>  <SCORE.INTRA.POLAR.0>
0

>  <SCORE.INTRA.REPUL>
0

>  <SCORE.INTRA.REPUL.0>
0

>  <SCORE.INTRA.SOLV>
0.591153

>  <SCORE.INTRA.SOLV.lig_0>
-71.4024

>  <SCORE.INTRA.VDW>
-0.117214

>  <SCORE.INTRA.VDW.0>
-1.86213

>  <SCORE.INTRA.norm>
0.0107582

>  <SCORE.RESTR>
0.032238

>  <SCORE.RESTR.CAVITY>
0.032238

>  <SCORE.RESTR.norm>
0.00146536

>  <SCORE.SYSTEM>
0

>  <SCORE.SYSTEM.CONST>
0

>  <SCORE.SYSTEM.DIHEDRAL>
0

>  <SCORE.SYSTEM.SOLV>
0

>  <SCORE.SYSTEM.norm>
0

>  <SCORE.heavy>
22

>  <SCORE.norm>
-0.317995

>  <RMSD>
0.831

$$$$
lig.pdb
 OpenBabel11021811523D
libRbt.so/2013.1/901 2013/11/27
 22 23  0  0  0  0  0  0  0  0999 V2000
   -6.5810   -1.2972   -0.5361 C   0  0  1  0  0  0  0  0  0  0  0  0
   -4.5063   -0.6519    0.7565 C   0  0  1  0  0  0  0  0  0  0  0  0
   -4.6839    0.7757    1.4404 C   0  0  1  0  0  0  0  0  0  0  0  0
   -3.2356    1.4245    1.6035 C   0  0  2  0  0  0  0  0  0  0  0  0
   -8.0260   -1.8267   -0.1873 C   0  0  1  0  0  0  0  0  0  0  0  0
   -7.8934   -3.2799    0.3096 C   0  0  2  0  0  0  0  0  0  0  0  0
   -7.2973   -4.1819   -0.7857 C   0  0  2  0  0  0  0  0  0  0  0  0
   -5.8643   -3.6923   -1.2089 C   0  0  1  0  0  0  0  0  0  0  0  0
   -5.2806   -4.5681   -2.3548 C   0  0  0  0  0  0  0  0  0  0  0  0
   -2.3475    0.4971    2.5799 C   0  0  1  0  0  0  0  0  0  0  0  0
   -2.1916   -0.9342    1.8582 C   0  0  0  0  0  0  0  0  0  0  0  0
   -3.6327   -1.5912    1.6475 C   0  0  2  0  0  0  0  0  0  0  0  0
   -8.1692   -4.1826   -1.9659 F   0  0  0  0  0  0  0  0  0  0  0  0
   -8.6078   -0.9177    0.8751 N   0  0  0  0  0  0  0  0  0  0  0  0
   -3.9015   -4.3800   -2.6023 N   0  0  0  0  0  0  0  0  0  0  0  0
   -0.9646    1.0601    2.7513 N   0  0  0  0  0  0  0  0  0  0  0  0
   -3.4827   -2.9024    0.9838 N   0  0  0  0  0  0  0  0  0  0  0  0
   -5.7702   -1.2780    0.5968 O   0  0  0  0  0  0  0  0  0  0  0  0
   -5.5072    1.6145    0.5377 O   0  0  0  0  0  0  0  0  0  0  0  0
   -3.4189    2.6764    2.1954 O   0  0  0  0  0  0  0  0  0  0  0  0
   -8.9480   -3.6646    0.5610 O   0  0  0  0  0  0  0  0  0  0  0  0
   -6.0033   -2.2131   -1.6120 O   0  0  0  0  0  0  0  0  0  0  0  0
  1  5  1  0  0  0  0
  1 18  1  1  0  0  0
  2 18  1  1  0  0  0
  2  3  1  0  0  0  0
  2 12  1  0  0  0  0
  3 19  1  6  0  0  0
  3  4  1  0  0  0  0
  4 20  1  1  0  0  0
  4 10  1  0  0  0  0
  5  6  1  0  0  0  0
  5 14  1  1  0  0  0
  6 21  1  6  0  0  0
  7 13  1  6  0  0  0
  7  6  1  0  0  0  0
  8  9  1  6  0  0  0
  8  7  1  0  0  0  0
 10 16  1  6  0  0  0
 11 10  1  0  0  0  0
 12 17  1  6  0  0  0
 12 11  1  0  0  0  0
 15  9  1  0  0  0  0
 22  8  1  0  0  0  0
 22  1  1  0  0  0  0
M  END
>  <CHROM.1>
-167.43432960,96.56036567,-167.32833381,-5.34936726,-1.54008654,0.29825493
2.24104394,0.05733994,-2.59414016

>  <Name>
lig.pdb

>  <RI>
0

>  <Rbt.Current_Directory>
/home/itssahil/PROJECTS/Mol_Feturizer/New_Systems/rnas/5bws

>  <Rbt.Executable>
rbdock ($Id: //depot/dev/client3/rdock/2013.1/src/exe/rbdock.cxx#4 $)

>  <Rbt.Library>
libRbt.so (2013.1, Build901 2013/11/27)

>  <Rbt.Parameter_File>
/export/apps/rDock/src/rDock_2013.1_src/data/scripts/dock_solv.prm

>  <Rbt.Receptor>
prm/blind_docking_20.prm

>  <SCORE>
-6.89848

>  <SCORE.INTER>
-7.1358

>  <SCORE.INTER.CONST>
1

>  <SCORE.INTER.POLAR>
0

>  <SCORE.INTER.ROT>
3

>  <SCORE.INTER.SOLV>
21.6738

>  <SCORE.INTER.VDW>
-17.5818

>  <SCORE.INTER.norm>
-0.324355

>  <SCORE.INTRA>
0.216685

>  <SCORE.INTRA.DIHEDRAL>
0.0150888

>  <SCORE.INTRA.DIHEDRAL.0>
6.10773

>  <SCORE.INTRA.POLAR>
0

>  <SCORE.INTRA.POLAR.0>
0

>  <SCORE.INTRA.REPUL>
0

>  <SCORE.INTRA.REPUL.0>
0

>  <SCORE.INTRA.SOLV>
0.726174

>  <SCORE.INTRA.SOLV.lig_0>
-71.4024

>  <SCORE.INTRA.VDW>
-0.153947

>  <SCORE.INTRA.VDW.0>
-1.86213

>  <SCORE.INTRA.norm>
0.0098493

>  <SCORE.RESTR>
0.0206437

>  <SCORE.RESTR.CAVITY>
0.0206437

>  <SCORE.RESTR.norm>
0.000938352

>  <SCORE.SYSTEM>
0

>  <SCORE.SYSTEM.CONST>
0

>  <SCORE.SYSTEM.DIHEDRAL>
0

>  <SCORE.SYSTEM.SOLV>
0

>  <SCORE.SYSTEM.norm>
0

>  <SCORE.heavy>
22

>  <SCORE.norm>
-0.313567

>  <RMSD>
0.838

$$$$
lig.pdb
 OpenBabel11021811523D
libRbt.so/2013.1/901 2013/11/27
 22 23  0  0  0  0  0  0  0  0999 V2000
   -6.5963   -1.3292   -0.5286 C   0  0  1  0  0  0  0  0  0  0  0  0
   -4.5166   -0.6721    0.7499 C   0  0  1  0  0  0  0  0  0  0  0  0
   -4.7023    0.7598    1.4223 C   0  0  1  0  0  0  0  0  0  0  0  0
   -3.2580    1.4196    1.5772 C   0  0  2  0  0  0  0  0  0  0  0  0
   -8.0476   -1.8279   -0.1613 C   0  0  1  0  0  0  0  0  0  0  0  0
   -7.9369   -3.2758    0.3560 C   0  0  2  0  0  0  0  0  0  0  0  0
   -7.3652   -4.2042   -0.7302 C   0  0  2  0  0  0  0  0  0  0  0  0
   -5.9271   -3.7463   -1.1712 C   0  0  1  0  0  0  0  0  0  0  0  0
   -5.3678   -4.6489   -2.3084 C   0  0  0  0  0  0  0  0  0  0  0  0
   -2.3619    0.5061    2.5594 C   0  0  1  0  0  0  0  0  0  0  0  0
   -2.1979   -0.9300    1.8492 C   0  0  0  0  0  0  0  0  0  0  0  0
   -3.6350   -1.5982    1.6468 C   0  0  2  0  0  0  0  0  0  0  0  0
   -8.2461   -4.2066   -1.9037 F   0  0  0  0  0  0  0  0  0  0  0  0
   -8.6051   -0.8933    0.8919 N   0  0  0  0  0  0  0  0  0  0  0  0
   -3.9984   -4.4551   -2.6012 N   0  0  0  0  0  0  0  0  0  0  0  0
   -0.9824    1.0797    2.7234 N   0  0  0  0  0  0  0  0  0  0  0  0
   -3.4776   -2.9139    0.9937 N   0  0  0  0  0  0  0  0  0  0  0  0
   -5.7766   -1.3079    0.5979 O   0  0  0  0  0  0  0  0  0  0  0  0
   -5.5329    1.5857    0.5144 O   0  0  0  0  0  0  0  0  0  0  0  0
   -3.4485    2.6751    2.1591 O   0  0  0  0  0  0  0  0  0  0  0  0
   -8.9961   -3.6380    0.6210 O   0  0  0  0  0  0  0  0  0  0  0  0
   -6.0432   -2.2708   -1.5951 O   0  0  0  0  0  0  0  0  0  0  0  0
  1  5  1  0  0  0  0
  1 18  1  1  0  0  0
  2 18  1  1  0  0  0
  2  3  1  0  0  0  0
  2 12  1  0  0  0  0
  3 19  1  6  0  0  0
  3  4  1  0  0  0  0
  4 20  1  1  0  0  0
  4 10  1  0  0  0  0
  5  6  1  0  0  0  0
  5 14  1  1  0  0  0
  6 21  1  6  0  0  0
  7 13  1  6  0  0  0
  7  6  1  0  0  0  0
  8  9  1  6  0  0  0
  8  7  1  0  0  0  0
 10 16  1  6  0  0  0
 11 10  1  0  0  0  0
 12 17  1  6  0  0  0
 12 11  1  0  0  0  0
 15  9  1  0  0  0  0
 22  8  1  0  0  0  0
 22  1  1  0  0  0  0
M  END
>  <CHROM.1>
-165.61122578,95.77681985,-169.47209004,-5.38222385,-1.55752129,0.30881934
2.24501335,0.05571131,-2.60447867

>  <Name>
lig.pdb

>  <RI>
0

>  <Rbt.Current_Directory>
/home/itssahil/PROJECTS/Mol_Feturizer/New_Systems/rnas/5bws

>  <Rbt.Executable>
rbdock ($Id: //depot/dev/client3/rdock/2013.1/src/exe/rbdock.cxx#4 $)

>  <Rbt.Library>
libRbt.so (2013.1, Build901 2013/11/27)

>  <Rbt.Parameter_File>
/export/apps/rDock/src/rDock_2013.1_src/data/scripts/dock_solv.prm

>  <Rbt.Receptor>
prm/blind_docking_20.prm

>  <SCORE>
-6.94161

>  <SCORE.INTER>
-7.13173

>  <SCORE.INTER.CONST>
1

>  <SCORE.INTER.POLAR>
0

>  <SCORE.INTER.ROT>
3

>  <SCORE.INTER.SOLV>
21.4887

>  <SCORE.INTER.VDW>
-17.5174

>  <SCORE.INTER.norm>
-0.32417

>  <SCORE.INTRA>
0.1656

>  <SCORE.INTRA.DIHEDRAL>
-0.0709909

>  <SCORE.INTRA.DIHEDRAL.0>
6.10773

>  <SCORE.INTRA.POLAR>
0

>  <SCORE.INTRA.POLAR.0>
0

>  <SCORE.INTRA.REPUL>
0

>  <SCORE.INTRA.REPUL.0>
0

>  <SCORE.INTRA.SOLV>
0.650393

>  <SCORE.INTRA.SOLV.lig_0>
-71.4024

>  <SCORE.INTRA.VDW>
-0.1241

>  <SCORE.INTRA.VDW.0>
-1.86213

>  <SCORE.INTRA.norm>
0.00752729

>  <SCORE.RESTR>
0.0245228

>  <SCORE.RESTR.CAVITY>
0.0245228

>  <SCORE.RESTR.norm>
0.00111467

>  <SCORE.SYSTEM>
0

>  <SCORE.SYSTEM.CONST>
0

>  <SCORE.SYSTEM.DIHEDRAL>
0

>  <SCORE.SYSTEM.SOLV>
0

>  <SCORE.SYSTEM.norm>
0

>  <SCORE.heavy>
22

>  <SCORE.norm>
-0.315528

>  <RMSD>
0.838

$$$$
lig.pdb
 OpenBabel11021811523D
libRbt.so/2013.1/901 2013/11/27
 22 23  0  0  0  0  0  0  0  0999 V2000
   -6.9472   -0.9970   -0.8515 C   0  0  1  0  0  0  0  0  0  0  0  0
   -5.1536   -0.0548    0.6606 C   0  0  1  0  0  0  0  0  0  0  0  0
   -5.3616    1.0681    1.7709 C   0  0  1  0  0  0  0  0  0  0  0  0
   -3.9488    1.7583    2.0407 C   0  0  2  0  0  0  0  0  0  0  0  0
   -8.4677   -1.3921   -0.7037 C   0  0  1  0  0  0  0  0  0  0  0  0
   -8.5457   -2.6750    0.1475 C   0  0  2  0  0  0  0  0  0  0  0  0
   -7.8074   -3.8363   -0.5415 C   0  0  2  0  0  0  0  0  0  0  0  0
   -6.2864   -3.4983   -0.7526 C   0  0  1  0  0  0  0  0  0  0  0  0
   -5.5479   -4.6468   -1.4987 C   0  0  0  0  0  0  0  0  0  0  0  0
   -2.9224    0.6548    2.6160 C   0  0  1  0  0  0  0  0  0  0  0  0
   -2.7389   -0.4618    1.4700 C   0  0  0  0  0  0  0  0  0  0  0  0
   -4.1482   -1.1443    1.1522 C   0  0  2  0  0  0  0  0  0  0  0  0
   -8.4191   -4.1177   -1.8453 F   0  0  0  0  0  0  0  0  0  0  0  0
   -9.1850   -0.2327   -0.0443 N   0  0  0  0  0  0  0  0  0  0  0  0
   -4.1787   -4.4048   -1.7545 N   0  0  0  0  0  0  0  0  0  0  0  0
   -1.5684    1.2554    2.8705 N   0  0  0  0  0  0  0  0  0  0  0  0
   -3.9732   -2.1658    0.0995 N   0  0  0  0  0  0  0  0  0  0  0  0
   -6.3842   -0.7085    0.3898 O   0  0  0  0  0  0  0  0  0  0  0  0
   -6.3116    2.0705    1.2333 O   0  0  0  0  0  0  0  0  0  0  0  0
   -4.1594    2.7430    3.0088 O   0  0  0  0  0  0  0  0  0  0  0  0
   -9.6547   -2.9624    0.2521 O   0  0  0  0  0  0  0  0  0  0  0  0
   -6.2318   -2.1665   -1.5229 O   0  0  0  0  0  0  0  0  0  0  0  0
  1  5  1  0  0  0  0
  1 18  1  1  0  0  0
  2 18  1  1  0  0  0
  2  3  1  0  0  0  0
  2 12  1  0  0  0  0
  3 19  1  6  0  0  0
  3  4  1  0  0  0  0
  4 20  1  1  0  0  0
  4 10  1  0  0  0  0
  5  6  1  0  0  0  0
  5 14  1  1  0  0  0
  6 21  1  6  0  0  0
  7 13  1  6  0  0  0
  7  6  1  0  0  0  0
  8  9  1  6  0  0  0
  8  7  1  0  0  0  0
 10 16  1  6  0  0  0
 11 10  1  0  0  0  0
 12 17  1  6  0  0  0
 12 11  1  0  0  0  0
 15  9  1  0  0  0  0
 22  8  1  0  0  0  0
 22  1  1  0  0  0  0
M  END
>  <CHROM.1>
-165.53831014,132.76054464,178.62004615,-5.87559295,-1.19923115,0.34102646
2.20880806,0.14095645,-2.63632499

>  <Name>
lig.pdb

>  <RI>
0

>  <Rbt.Current_Directory>
/home/itssahil/PROJECTS/Mol_Feturizer/New_Systems/rnas/5bws

>  <Rbt.Executable>
rbdock ($Id: //depot/dev/client3/rdock/2013.1/src/exe/rbdock.cxx#4 $)

>  <Rbt.Library>
libRbt.so (2013.1, Build901 2013/11/27)

>  <Rbt.Parameter_File>
/export/apps/rDock/src/rDock_2013.1_src/data/scripts/dock_solv.prm

>  <Rbt.Receptor>
prm/pocket_docking_8.prm

>  <SCORE>
-7.44244

>  <SCORE.INTER>
-9.97685

>  <SCORE.INTER.CONST>
1

>  <SCORE.INTER.POLAR>
0

>  <SCORE.INTER.ROT>
3

>  <SCORE.INTER.SOLV>
17.6609

>  <SCORE.INTER.VDW>
-18.1382

>  <SCORE.INTER.norm>
-0.453493

>  <SCORE.INTRA>
2.5344

>  <SCORE.INTRA.DIHEDRAL>
1.30788

>  <SCORE.INTRA.DIHEDRAL.0>
6.10773

>  <SCORE.INTRA.POLAR>
0

>  <SCORE.INTRA.POLAR.0>
0

>  <SCORE.INTRA.REPUL>
0

>  <SCORE.INTRA.REPUL.0>
0

>  <SCORE.INTRA.SOLV>
3.74831

>  <SCORE.INTRA.SOLV.lig_0>
-71.4024

>  <SCORE.INTRA.VDW>
0.00631001

>  <SCORE.INTRA.VDW.0>
-1.86213

>  <SCORE.INTRA.norm>
0.1152

>  <SCORE.RESTR>
0

>  <SCORE.RESTR.CAVITY>
0

>  <SCORE.RESTR.norm>
0

>  <SCORE.SYSTEM>
0

>  <SCORE.SYSTEM.CONST>
0

>  <SCORE.SYSTEM.DIHEDRAL>
0

>  <SCORE.SYSTEM.SOLV>
0

>  <SCORE.SYSTEM.norm>
0

>  <SCORE.heavy>
22

>  <SCORE.norm>
-0.338293

>  <RMSD>
0.844

$$$$
lig.pdb
 OpenBabel11021811523D
libRbt.so/2013.1/901 2013/11/27
 22 23  0  0  0  0  0  0  0  0999 V2000
   -6.6990   -1.3012   -0.4270 C   0  0  1  0  0  0  0  0  0  0  0  0
   -4.5396   -0.7108    0.7475 C   0  0  1  0  0  0  0  0  0  0  0  0
   -4.7409    0.7259    1.4050 C   0  0  1  0  0  0  0  0  0  0  0  0
   -3.3071    1.4150    1.5258 C   0  0  2  0  0  0  0  0  0  0  0  0
   -8.1284   -1.7918    0.0273 C   0  0  1  0  0  0  0  0  0  0  0  0
   -8.0148   -3.2729    0.4393 C   0  0  2  0  0  0  0  0  0  0  0  0
   -7.5592   -4.1392   -0.7483 C   0  0  2  0  0  0  0  0  0  0  0  0
   -6.1503   -3.6842   -1.2775 C   0  0  1  0  0  0  0  0  0  0  0  0
   -5.7105   -4.5212   -2.5131 C   0  0  0  0  0  0  0  0  0  0  0  0
   -2.3764    0.5315    2.5032 C   0  0  1  0  0  0  0  0  0  0  0  0
   -2.1973   -0.9103    1.8084 C   0  0  0  0  0  0  0  0  0  0  0  0
   -3.6247   -1.6083    1.6401 C   0  0  2  0  0  0  0  0  0  0  0  0
   -8.5330   -4.0448   -1.8420 F   0  0  0  0  0  0  0  0  0  0  0  0
   -8.5723   -0.9173    1.1813 N   0  0  0  0  0  0  0  0  0  0  0  0
   -4.3934   -4.2708   -2.9618 N   0  0  0  0  0  0  0  0  0  0  0  0
   -1.0056    1.1332    2.6353 N   0  0  0  0  0  0  0  0  0  0  0  0
   -3.4535   -2.9291    1.0010 N   0  0  0  0  0  0  0  0  0  0  0  0
   -5.7896   -1.3724    0.6261 O   0  0  0  0  0  0  0  0  0  0  0  0
   -5.6031    1.5240    0.5017 O   0  0  0  0  0  0  0  0  0  0  0  0
   -3.5114    2.6740    2.0951 O   0  0  0  0  0  0  0  0  0  0  0  0
   -9.0581   -3.6289    0.7679 O   0  0  0  0  0  0  0  0  0  0  0  0
   -6.2607   -2.1817   -1.5944 O   0  0  0  0  0  0  0  0  0  0  0  0
  1  5  1  0  0  0  0
  1 18  1  1  0  0  0
  2 18  1  1  0  0  0
  2  3  1  0  0  0  0
  2 12  1  0  0  0  0
  3 19  1  6  0  0  0
  3  4  1  0  0  0  0
  4 20  1  1  0  0  0
  4 10  1  0  0  0  0
  5  6  1  0  0  0  0
  5 14  1  1  0  0  0
  6 21  1  6  0  0  0
  7 13  1  6  0  0  0
  7  6  1  0  0  0  0
  8  9  1  6  0  0  0
  8  7  1  0  0  0  0
 10 16  1  6  0  0  0
 11 10  1  0  0  0  0
 12 17  1  6  0  0  0
 12 11  1  0  0  0  0
 15  9  1  0  0  0  0
 22  8  1  0  0  0  0
 22  1  1  0  0  0  0
M  END
>  <CHROM.1>
-161.45481875,87.78446657,-173.57157139,-5.48581736,-1.52822879,0.30462549
2.26943550,0.00068854,-2.55492061

>  <Name>
lig.pdb

>  <RI>
0

>  <Rbt.Current_Directory>
/home/itssahil/PROJECTS/Mol_Feturizer/New_Systems/rnas/5bws

>  <Rbt.Executable>
rbdock ($Id: //depot/dev/client3/rdock/2013.1/src/exe/rbdock.cxx#4 $)

>  <Rbt.Library>
libRbt.so (2013.1, Build901 2013/11/27)

>  <Rbt.Parameter_File>
/export/apps/rDock/src/rDock_2013.1_src/data/scripts/dock_solv.prm

>  <Rbt.Receptor>
prm/blind_docking_20.prm

>  <SCORE>
-6.89373

>  <SCORE.INTER>
-6.17699

>  <SCORE.INTER.CONST>
1

>  <SCORE.INTER.POLAR>
0

>  <SCORE.INTER.ROT>
3

>  <SCORE.INTER.SOLV>
22.9359

>  <SCORE.INTER.VDW>
-17.3633

>  <SCORE.INTER.norm>
-0.280772

>  <SCORE.INTRA>
-0.752554

>  <SCORE.INTRA.DIHEDRAL>
-1.20818

>  <SCORE.INTRA.DIHEDRAL.0>
6.10773

>  <SCORE.INTRA.POLAR>
0

>  <SCORE.INTRA.POLAR.0>
0

>  <SCORE.INTRA.REPUL>
0

>  <SCORE.INTRA.REPUL.0>
0

>  <SCORE.INTRA.SOLV>
-0.222405

>  <SCORE.INTRA.SOLV.lig_0>
-71.4024

>  <SCORE.INTRA.VDW>
-0.037261

>  <SCORE.INTRA.VDW.0>
-1.86213

>  <SCORE.INTRA.norm>
-0.034207

>  <SCORE.RESTR>
0.0358117

>  <SCORE.RESTR.CAVITY>
0.0358117

>  <SCORE.RESTR.norm>
0.00162781

>  <SCORE.SYSTEM>
0

>  <SCORE.SYSTEM.CONST>
0

>  <SCORE.SYSTEM.DIHEDRAL>
0

>  <SCORE.SYSTEM.SOLV>
0

>  <SCORE.SYSTEM.norm>
0

>  <SCORE.heavy>
22

>  <SCORE.norm>
-0.313352

>  <RMSD>
0.852

$$$$
lig.pdb
 OpenBabel11021811523D
libRbt.so/2013.1/901 2013/11/27
 22 23  0  0  0  0  0  0  0  0999 V2000
   -6.5017   -0.4758    0.1470 C   0  0  1  0  0  0  0  0  0  0  0  0
   -4.3591    0.0699    1.3729 C   0  0  1  0  0  0  0  0  0  0  0  0
   -4.6131    1.4344    2.1544 C   0  0  1  0  0  0  0  0  0  0  0  0
   -3.2049    2.1597    2.3445 C   0  0  2  0  0  0  0  0  0  0  0  0
   -7.8804   -1.1510    0.5123 C   0  0  1  0  0  0  0  0  0  0  0  0
   -7.6353   -2.6610    0.7027 C   0  0  2  0  0  0  0  0  0  0  0  0
   -7.1112   -3.2997   -0.5957 C   0  0  2  0  0  0  0  0  0  0  0  0
   -5.7501   -2.6503   -1.0404 C   0  0  1  0  0  0  0  0  0  0  0  0
   -5.2444   -3.2544   -2.3821 C   0  0  0  0  0  0  0  0  0  0  0  0
   -2.2463    1.2258    3.2450 C   0  0  1  0  0  0  0  0  0  0  0  0
   -2.0143   -0.1412    2.4258 C   0  0  0  0  0  0  0  0  0  0  0  0
   -3.4155   -0.8710    2.1875 C   0  0  2  0  0  0  0  0  0  0  0  0
   -8.0946   -3.1307   -1.6716 F   0  0  0  0  0  0  0  0  0  0  0  0
   -8.3939   -0.4983    1.7787 N   0  0  0  0  0  0  0  0  0  0  0  0
   -4.8936   -4.6226   -2.3225 N   0  0  0  0  0  0  0  0  0  0  0  0
   -0.8980    1.8610    3.4383 N   0  0  0  0  0  0  0  0  0  0  0  0
   -3.1958   -2.1227    1.4344 N   0  0  0  0  0  0  0  0  0  0  0  0
   -5.5846   -0.6216    1.1856 O   0  0  0  0  0  0  0  0  0  0  0  0
   -5.5005    2.2791    1.3206 O   0  0  0  0  0  0  0  0  0  0  0  0
   -3.4553    3.3551    3.0224 O   0  0  0  0  0  0  0  0  0  0  0  0
   -8.6419   -3.1514    0.9667 O   0  0  0  0  0  0  0  0  0  0  0  0
   -5.9934   -1.1329   -1.1336 O   0  0  0  0  0  0  0  0  0  0  0  0
  1  5  1  0  0  0  0
  1 18  1  1  0  0  0
  2 18  1  1  0  0  0
  2  3  1  0  0  0  0
  2 12  1  0  0  0  0
  3 19  1  6  0  0  0
  3  4  1  0  0  0  0
  4 20  1  1  0  0  0
  4 10  1  0  0  0  0
  5  6  1  0  0  0  0
  5 14  1  1  0  0  0
  6 21  1  6  0  0  0
  7 13  1  6  0  0  0
  7  6  1  0  0  0  0
  8  9  1  6  0  0  0
  8  7  1  0  0  0  0
 10 16  1  6  0  0  0
 11 10  1  0  0  0  0
 12 17  1  6  0  0  0
 12 11  1  0  0  0  0
 15  9  1  0  0  0  0
 22  8  1  0  0  0  0
 22  1  1  0  0  0  0
M  END
>  <CHROM.1>
-165.33618199,86.83677650,-65.51641911,-5.27404232,-0.80382118,0.82639205
2.19842028,0.05538401,-2.52387874

>  <Name>
lig.pdb

>  <RI>
0

>  <Rbt.Current_Directory>
/home/itssahil/PROJECTS/Mol_Feturizer/New_Systems/rnas/5bws

>  <Rbt.Executable>
rbdock ($Id: //depot/dev/client3/rdock/2013.1/src/exe/rbdock.cxx#4 $)

>  <Rbt.Library>
libRbt.so (2013.1, Build901 2013/11/27)

>  <Rbt.Parameter_File>
/export/apps/rDock/src/rDock_2013.1_src/data/scripts/dock_solv.prm

>  <Rbt.Receptor>
prm/blind_docking_20.prm

>  <SCORE>
-9.32896

>  <SCORE.INTER>
-8.37777

>  <SCORE.INTER.CONST>
1

>  <SCORE.INTER.POLAR>
0

>  <SCORE.INTER.ROT>
3

>  <SCORE.INTER.SOLV>
20.2718

>  <SCORE.INTER.VDW>
-17.9425

>  <SCORE.INTER.norm>
-0.380808

>  <SCORE.INTRA>
-0.974492

>  <SCORE.INTRA.DIHEDRAL>
-1.98054

>  <SCORE.INTRA.DIHEDRAL.0>
6.10773

>  <SCORE.INTRA.POLAR>
0

>  <SCORE.INTRA.POLAR.0>
0

>  <SCORE.INTRA.REPUL>
0

>  <SCORE.INTRA.REPUL.0>
0

>  <SCORE.INTRA.SOLV>
0.00146961

>  <SCORE.INTRA.SOLV.lig_0>
-71.4024

>  <SCORE.INTRA.VDW>
0.0150448

>  <SCORE.INTRA.VDW.0>
-1.86213

>  <SCORE.INTRA.norm>
-0.0442951

>  <SCORE.RESTR>
0.0233

>  <SCORE.RESTR.CAVITY>
0.0233

>  <SCORE.RESTR.norm>
0.00105909

>  <SCORE.SYSTEM>
0

>  <SCORE.SYSTEM.CONST>
0

>  <SCORE.SYSTEM.DIHEDRAL>
0

>  <SCORE.SYSTEM.SOLV>
0

>  <SCORE.SYSTEM.norm>
0

>  <SCORE.heavy>
22

>  <SCORE.norm>
-0.424044

>  <RMSD>
0.877

$$$$
lig.pdb
 OpenBabel11021811523D
libRbt.so/2013.1/901 2013/11/27
 22 23  0  0  0  0  0  0  0  0999 V2000
   -6.5121   -0.4717    0.1768 C   0  0  1  0  0  0  0  0  0  0  0  0
   -4.3615    0.0720    1.3894 C   0  0  1  0  0  0  0  0  0  0  0  0
   -4.6096    1.4425    2.1621 C   0  0  1  0  0  0  0  0  0  0  0  0
   -3.1990    2.1654    2.3433 C   0  0  2  0  0  0  0  0  0  0  0  0
   -7.8870   -1.1517    0.5474 C   0  0  1  0  0  0  0  0  0  0  0  0
   -7.6368   -2.6615    0.7328 C   0  0  2  0  0  0  0  0  0  0  0  0
   -7.1175   -3.2955   -0.5698 C   0  0  2  0  0  0  0  0  0  0  0  0
   -5.7605   -2.6411   -1.0199 C   0  0  1  0  0  0  0  0  0  0  0  0
   -5.2600   -3.2405   -2.3657 C   0  0  0  0  0  0  0  0  0  0  0  0
   -2.2404    1.2352    3.2476 C   0  0  1  0  0  0  0  0  0  0  0  0
   -2.0143   -0.1381    2.4374 C   0  0  0  0  0  0  0  0  0  0  0  0
   -3.4181   -0.8657    2.2081 C   0  0  2  0  0  0  0  0  0  0  0  0
   -8.1069   -3.1265   -1.6403 F   0  0  0  0  0  0  0  0  0  0  0  0
   -8.3958   -0.5036    1.8181 N   0  0  0  0  0  0  0  0  0  0  0  0
   -4.9193   -4.6116   -2.3149 N   0  0  0  0  0  0  0  0  0  0  0  0
   -0.8899    1.8682    3.4328 N   0  0  0  0  0  0  0  0  0  0  0  0
   -3.2038   -2.1233    1.4631 N   0  0  0  0  0  0  0  0  0  0  0  0
   -5.5893   -0.6176    1.2104 O   0  0  0  0  0  0  0  0  0  0  0  0
   -5.4971    2.2838    1.3248 O   0  0  0  0  0  0  0  0  0  0  0  0
   -3.4444    3.3661    3.0135 O   0  0  0  0  0  0  0  0  0  0  0  0
   -8.6406   -3.1554    1.0007 O   0  0  0  0  0  0  0  0  0  0  0  0
   -6.0085   -1.1243   -1.1081 O   0  0  0  0  0  0  0  0  0  0  0  0
  1  5  1  0  0  0  0
  1 18  1  1  0  0  0
  2 18  1  1  0  0  0
  2  3  1  0  0  0  0
  2 12  1  0  0  0  0
  3 19  1  6  0  0  0
  3  4  1  0  0  0  0
  4 20  1  1  0  0  0
  4 10  1  0  0  0  0
  5  6  1  0  0  0  0
  5 14  1  1  0  0  0
  6 21  1  6  0  0  0
  7 13  1  6  0  0  0
  7  6  1  0  0  0  0
  8  9  1  6  0  0  0
  8  7  1  0  0  0  0
 10 16  1  6  0  0  0
 11 10  1  0  0  0  0
 12 17  1  6  0  0  0
 12 11  1  0  0  0  0
 15  9  1  0  0  0  0
 22  8  1  0  0  0  0
 22  1  1  0  0  0  0
M  END
>  <CHROM.1>
-165.69478897,86.48126624,-64.84254935,-5.27795649,-0.79905679,0.84453150
2.20146818,0.05101156,-2.52465304

>  <Name>
lig.pdb

>  <RI>
0

>  <Rbt.Current_Directory>
/home/itssahil/PROJECTS/Mol_Feturizer/New_Systems/rnas/5bws

>  <Rbt.Executable>
rbdock ($Id: //depot/dev/client3/rdock/2013.1/src/exe/rbdock.cxx#4 $)

>  <Rbt.Library>
libRbt.so (2013.1, Build901 2013/11/27)

>  <Rbt.Parameter_File>
/export/apps/rDock/src/rDock_2013.1_src/data/scripts/dock_solv.prm

>  <Rbt.Receptor>
prm/blind_docking_20.prm

>  <SCORE>
-9.38188

>  <SCORE.INTER>
-8.36053

>  <SCORE.INTER.CONST>
1

>  <SCORE.INTER.POLAR>
0

>  <SCORE.INTER.ROT>
3

>  <SCORE.INTER.SOLV>
20.3972

>  <SCORE.INTER.VDW>
-17.9727

>  <SCORE.INTER.norm>
-0.380024

>  <SCORE.INTRA>
-1.04465

>  <SCORE.INTRA.DIHEDRAL>
-2.11799

>  <SCORE.INTRA.DIHEDRAL.0>
6.10773

>  <SCORE.INTRA.POLAR>
0

>  <SCORE.INTRA.POLAR.0>
0

>  <SCORE.INTRA.REPUL>
0

>  <SCORE.INTRA.REPUL.0>
0

>  <SCORE.INTRA.SOLV>
-0.0119282

>  <SCORE.INTRA.SOLV.lig_0>
-71.4024

>  <SCORE.INTRA.VDW>
0.0203111

>  <SCORE.INTRA.VDW.0>
-1.86213

>  <SCORE.INTRA.norm>
-0.0474839

>  <SCORE.RESTR>
0.0232973

>  <SCORE.RESTR.CAVITY>
0.0232973

>  <SCORE.RESTR.norm>
0.00105897

>  <SCORE.SYSTEM>
0

>  <SCORE.SYSTEM.CONST>
0

>  <SCORE.SYSTEM.DIHEDRAL>
0

>  <SCORE.SYSTEM.SOLV>
0

>  <SCORE.SYSTEM.norm>
0

>  <SCORE.heavy>
22

>  <SCORE.norm>
-0.426449

>  <RMSD>
0.889

$$$$
lig.pdb
 OpenBabel11021811523D
libRbt.so/2013.1/901 2013/11/27
 22 23  0  0  0  0  0  0  0  0999 V2000
   -6.5175   -0.4648    0.1900 C   0  0  1  0  0  0  0  0  0  0  0  0
   -4.3627    0.0684    1.3999 C   0  0  1  0  0  0  0  0  0  0  0  0
   -4.6090    1.4432    2.1658 C   0  0  1  0  0  0  0  0  0  0  0  0
   -3.1967    2.1625    2.3480 C   0  0  2  0  0  0  0  0  0  0  0  0
   -7.8883   -1.1559    0.5550 C   0  0  1  0  0  0  0  0  0  0  0  0
   -7.6302   -2.6665    0.7222 C   0  0  2  0  0  0  0  0  0  0  0  0
   -7.1101   -3.2826   -0.5887 C   0  0  2  0  0  0  0  0  0  0  0  0
   -5.7572   -2.6162   -1.0334 C   0  0  1  0  0  0  0  0  0  0  0  0
   -5.2561   -3.1972   -2.3869 C   0  0  0  0  0  0  0  0  0  0  0  0
   -2.2436    1.2333    3.2593 C   0  0  1  0  0  0  0  0  0  0  0  0
   -2.0194   -0.1442    2.4558 C   0  0  0  0  0  0  0  0  0  0  0  0
   -3.4248   -0.8686    2.2255 C   0  0  2  0  0  0  0  0  0  0  0  0
   -8.1022   -3.1060   -1.6553 F   0  0  0  0  0  0  0  0  0  0  0  0
   -8.3981   -0.5254    1.8340 N   0  0  0  0  0  0  0  0  0  0  0  0
   -4.8793   -4.5591   -2.3455 N   0  0  0  0  0  0  0  0  0  0  0  0
   -0.8917    1.8629    3.4458 N   0  0  0  0  0  0  0  0  0  0  0  0
   -3.2122   -2.1300    1.4868 N   0  0  0  0  0  0  0  0  0  0  0  0
   -5.5921   -0.6181    1.2202 O   0  0  0  0  0  0  0  0  0  0  0  0
   -5.4913    2.2835    1.3221 O   0  0  0  0  0  0  0  0  0  0  0  0
   -3.4402    3.3669    3.0122 O   0  0  0  0  0  0  0  0  0  0  0  0
   -8.6311   -3.1686    0.9860 O   0  0  0  0  0  0  0  0  0  0  0  0
   -6.0129   -1.0996   -1.1033 O   0  0  0  0  0  0  0  0  0  0  0  0
  1  5  1  0  0  0  0
  1 18  1  1  0  0  0
  2 18  1  1  0  0  0
  2  3  1  0  0  0  0
  2 12  1  0  0  0  0
  3 19  1  6  0  0  0
  3  4  1  0  0  0  0
  4 20  1  1  0  0  0
  4 10  1  0  0  0  0
  5  6  1  0  0  0  0
  5 14  1  1  0  0  0
  6 21  1  6  0  0  0
  7 13  1  6  0  0  0
  7  6  1  0  0  0  0
  8  9  1  6  0  0  0
  8  7  1  0  0  0  0
 10 16  1  6  0  0  0
 11 10  1  0  0  0  0
 12 17  1  6  0  0  0
 12 11  1  0  0  0  0
 15  9  1  0  0  0  0
 22  8  1  0  0  0  0
 22  1  1  0  0  0  0
M  END
>  <CHROM.1>
-166.20879767,85.80656542,-66.22900038,-5.27578005,-0.79369033,0.84534065
2.20183387,0.04868543,-2.51799445

>  <Name>
lig.pdb

>  <RI>
0

>  <Rbt.Current_Directory>
/home/itssahil/PROJECTS/Mol_Feturizer/New_Systems/rnas/5bws

>  <Rbt.Executable>
rbdock ($Id: //depot/dev/client3/rdock/2013.1/src/exe/rbdock.cxx#4 $)

>  <Rbt.Library>
libRbt.so (2013.1, Build901 2013/11/27)

>  <Rbt.Parameter_File>
/export/apps/rDock/src/rDock_2013.1_src/data/scripts/dock_solv.prm

>  <Rbt.Receptor>
prm/blind_docking_20.prm

>  <SCORE>
-9.39376

>  <SCORE.INTER>
-8.27545

>  <SCORE.INTER.CONST>
1

>  <SCORE.INTER.POLAR>
0

>  <SCORE.INTER.ROT>
3

>  <SCORE.INTER.SOLV>
20.5209

>  <SCORE.INTER.VDW>
-17.9573

>  <SCORE.INTER.norm>
-0.376157

>  <SCORE.INTRA>
-1.14836

>  <SCORE.INTRA.DIHEDRAL>
-2.25263

>  <SCORE.INTRA.DIHEDRAL.0>
6.10773

>  <SCORE.INTRA.POLAR>
0

>  <SCORE.INTRA.POLAR.0>
0

>  <SCORE.INTRA.REPUL>
0

>  <SCORE.INTRA.REPUL.0>
0

>  <SCORE.INTRA.SOLV>
-0.0947284

>  <SCORE.INTRA.SOLV.lig_0>
-71.4024

>  <SCORE.INTRA.VDW>
0.0253168

>  <SCORE.INTRA.VDW.0>
-1.86213

>  <SCORE.INTRA.norm>
-0.0521983

>  <SCORE.RESTR>
0.0300457

>  <SCORE.RESTR.CAVITY>
0.0300457

>  <SCORE.RESTR.norm>
0.00136572

>  <SCORE.SYSTEM>
0

>  <SCORE.SYSTEM.CONST>
0

>  <SCORE.SYSTEM.DIHEDRAL>
0

>  <SCORE.SYSTEM.SOLV>
0

>  <SCORE.SYSTEM.norm>
0

>  <SCORE.heavy>
22

>  <SCORE.norm>
-0.426989

>  <RMSD>
0.895

$$$$
lig.pdb
 OpenBabel11021811523D
libRbt.so/2013.1/901 2013/11/27
 22 23  0  0  0  0  0  0  0  0999 V2000
   -6.5131   -0.4818    0.2056 C   0  0  1  0  0  0  0  0  0  0  0  0
   -4.3587    0.0662    1.4096 C   0  0  1  0  0  0  0  0  0  0  0  0
   -4.6090    1.4447    2.1673 C   0  0  1  0  0  0  0  0  0  0  0  0
   -3.1991    2.1702    2.3435 C   0  0  2  0  0  0  0  0  0  0  0  0
   -7.8802   -1.1776    0.5756 C   0  0  1  0  0  0  0  0  0  0  0  0
   -7.6149   -2.6861    0.7499 C   0  0  2  0  0  0  0  0  0  0  0  0
   -7.0934   -3.3061   -0.5586 C   0  0  2  0  0  0  0  0  0  0  0  0
   -5.7441   -2.6356   -1.0081 C   0  0  1  0  0  0  0  0  0  0  0  0
   -5.2418   -3.2208   -2.3594 C   0  0  0  0  0  0  0  0  0  0  0  0
   -2.2417    1.2501    3.2594 C   0  0  1  0  0  0  0  0  0  0  0  0
   -2.0134   -0.1316    2.4641 C   0  0  0  0  0  0  0  0  0  0  0  0
   -3.4165   -0.8623    2.2399 C   0  0  2  0  0  0  0  0  0  0  0  0
   -8.0875   -3.1394   -1.6249 F   0  0  0  0  0  0  0  0  0  0  0  0
   -8.3915   -0.5432    1.8522 N   0  0  0  0  0  0  0  0  0  0  0  0
   -4.8902   -4.5895   -2.3197 N   0  0  0  0  0  0  0  0  0  0  0  0
   -0.8918    1.8856    3.4405 N   0  0  0  0  0  0  0  0  0  0  0  0
   -3.2002   -2.1276    1.5086 N   0  0  0  0  0  0  0  0  0  0  0  0
   -5.5859   -0.6258    1.2355 O   0  0  0  0  0  0  0  0  0  0  0  0
   -5.4952    2.2767    1.3195 O   0  0  0  0  0  0  0  0  0  0  0  0
   -3.4462    3.3778    3.0005 O   0  0  0  0  0  0  0  0  0  0  0  0
   -8.6131   -3.1915    1.0173 O   0  0  0  0  0  0  0  0  0  0  0  0
   -6.0070   -1.1206   -1.0851 O   0  0  0  0  0  0  0  0  0  0  0  0
  1  5  1  0  0  0  0
  1 18  1  1  0  0  0
  2 18  1  1  0  0  0
  2  3  1  0  0  0  0
  2 12  1  0  0  0  0
  3 19  1  6  0  0  0
  3  4  1  0  0  0  0
  4 20  1  1  0  0  0
  4 10  1  0  0  0  0
  5  6  1  0  0  0  0
  5 14  1  1  0  0  0
  6 21  1  6  0  0  0
  7 13  1  6  0  0  0
  7  6  1  0  0  0  0
  8  9  1  6  0  0  0
  8  7  1  0  0  0  0
 10 16  1  6  0  0  0
 11 10  1  0  0  0  0
 12 17  1  6  0  0  0
 12 11  1  0  0  0  0
 15  9  1  0  0  0  0
 22  8  1  0  0  0  0
 22  1  1  0  0  0  0
M  END
>  <CHROM.1>
-166.29037734,85.78584163,-64.72395498,-5.26973052,-0.80263454,0.85992506
2.19918436,0.04537567,-2.52325014

>  <Name>
lig.pdb

>  <RI>
0

>  <Rbt.Current_Directory>
/home/itssahil/PROJECTS/Mol_Feturizer/New_Systems/rnas/5bws

>  <Rbt.Executable>
rbdock ($Id: //depot/dev/client3/rdock/2013.1/src/exe/rbdock.cxx#4 $)

>  <Rbt.Library>
libRbt.so (2013.1, Build901 2013/11/27)

>  <Rbt.Parameter_File>
/export/apps/rDock/src/rDock_2013.1_src/data/scripts/dock_solv.prm

>  <Rbt.Receptor>
prm/blind_docking_20.prm

>  <SCORE>
-9.37856

>  <SCORE.INTER>
-8.2397

>  <SCORE.INTER.CONST>
1

>  <SCORE.INTER.POLAR>
0

>  <SCORE.INTER.ROT>
3

>  <SCORE.INTER.SOLV>
20.5866

>  <SCORE.INTER.VDW>
-17.9553

>  <SCORE.INTER.norm>
-0.374532

>  <SCORE.INTRA>
-1.16644

>  <SCORE.INTRA.DIHEDRAL>
-2.32553

>  <SCORE.INTRA.DIHEDRAL.0>
6.10773

>  <SCORE.INTRA.POLAR>
0

>  <SCORE.INTRA.POLAR.0>
0

>  <SCORE.INTRA.REPUL>
0

>  <SCORE.INTRA.REPUL.0>
0

>  <SCORE.INTRA.SOLV>
-0.0642491

>  <SCORE.INTRA.SOLV.lig_0>
-71.4024

>  <SCORE.INTRA.VDW>
0.028445

>  <SCORE.INTRA.VDW.0>
-1.86213

>  <SCORE.INTRA.norm>
-0.0530202

>  <SCORE.RESTR>
0.0275791

>  <SCORE.RESTR.CAVITY>
0.0275791

>  <SCORE.RESTR.norm>
0.00125359

>  <SCORE.SYSTEM>
0

>  <SCORE.SYSTEM.CONST>
0

>  <SCORE.SYSTEM.DIHEDRAL>
0

>  <SCORE.SYSTEM.SOLV>
0

>  <SCORE.SYSTEM.norm>
0

>  <SCORE.heavy>
22

>  <SCORE.norm>
-0.426298

>  <RMSD>
0.896

$$$$
lig.pdb
 OpenBabel11021811523D
libRbt.so/2013.1/901 2013/11/27
 22 23  0  0  0  0  0  0  0  0999 V2000
   -6.5088   -0.4807    0.2238 C   0  0  1  0  0  0  0  0  0  0  0  0
   -4.3538    0.0777    1.4219 C   0  0  1  0  0  0  0  0  0  0  0  0
   -4.6088    1.4588    2.1734 C   0  0  1  0  0  0  0  0  0  0  0  0
   -3.2015    2.1902    2.3456 C   0  0  2  0  0  0  0  0  0  0  0  0
   -7.8707   -1.1855    0.5962 C   0  0  1  0  0  0  0  0  0  0  0  0
   -7.5954   -2.6924    0.7686 C   0  0  2  0  0  0  0  0  0  0  0  0
   -7.0728   -3.3080   -0.5415 C   0  0  2  0  0  0  0  0  0  0  0  0
   -5.7287   -2.6285   -0.9933 C   0  0  1  0  0  0  0  0  0  0  0  0
   -5.2257   -3.2095   -2.3462 C   0  0  0  0  0  0  0  0  0  0  0  0
   -2.2402    1.2779    3.2652 C   0  0  1  0  0  0  0  0  0  0  0  0
   -2.0073   -0.1066    2.4761 C   0  0  0  0  0  0  0  0  0  0  0  0
   -3.4077   -0.8435    2.2559 C   0  0  2  0  0  0  0  0  0  0  0  0
   -8.0702   -3.1468   -1.6055 F   0  0  0  0  0  0  0  0  0  0  0  0
   -8.3833   -0.5554    1.8743 N   0  0  0  0  0  0  0  0  0  0  0  0
   -4.8824   -4.5804   -2.3128 N   0  0  0  0  0  0  0  0  0  0  0  0
   -0.8927    1.9192    3.4426 N   0  0  0  0  0  0  0  0  0  0  0  0
   -3.1871   -2.1113    1.5304 N   0  0  0  0  0  0  0  0  0  0  0  0
   -5.5785   -0.6196    1.2516 O   0  0  0  0  0  0  0  0  0  0  0  0
   -5.4986    2.2836    1.3223 O   0  0  0  0  0  0  0  0  0  0  0  0
   -3.4528    3.3999    2.9972 O   0  0  0  0  0  0  0  0  0  0  0  0
   -8.5898   -3.2044    1.0378 O   0  0  0  0  0  0  0  0  0  0  0  0
   -6.0015   -1.1152   -1.0685 O   0  0  0  0  0  0  0  0  0  0  0  0
  1  5  1  0  0  0  0
  1 18  1  1  0  0  0
  2 18  1  1  0  0  0
  2  3  1  0  0  0  0
  2 12  1  0  0  0  0
  3 19  1  6  0  0  0
  3  4  1  0  0  0  0
  4 20  1  1  0  0  0
  4 10  1  0  0  0  0
  5  6  1  0  0  0  0
  5 14  1  1  0  0  0
  6 21  1  6  0  0  0
  7 13  1  6  0  0  0
  7  6  1  0  0  0  0
  8  9  1  6  0  0  0
  8  7  1  0  0  0  0
 10 16  1  6  0  0  0
 11 10  1  0  0  0  0
 12 17  1  6  0  0  0
 12 11  1  0  0  0  0
 15  9  1  0  0  0  0
 22  8  1  0  0  0  0
 22  1  1  0  0  0  0
M  END
>  <CHROM.1>
-166.46054247,85.55882543,-63.90772438,-5.26166496,-0.79443948,0.87276055
2.19626546,0.04074763,-2.52402642

>  <Name>
lig.pdb

>  <RI>
0

>  <Rbt.Current_Directory>
/home/itssahil/PROJECTS/Mol_Feturizer/New_Systems/rnas/5bws

>  <Rbt.Executable>
rbdock ($Id: //depot/dev/client3/rdock/2013.1/src/exe/rbdock.cxx#4 $)

>  <Rbt.Library>
libRbt.so (2013.1, Build901 2013/11/27)

>  <Rbt.Parameter_File>
/export/apps/rDock/src/rDock_2013.1_src/data/scripts/dock_solv.prm

>  <Rbt.Receptor>
prm/blind_docking_20.prm

>  <SCORE>
-9.28994

>  <SCORE.INTER>
-8.09567

>  <SCORE.INTER.CONST>
1

>  <SCORE.INTER.POLAR>
0

>  <SCORE.INTER.ROT>
3

>  <SCORE.INTER.SOLV>
20.6886

>  <SCORE.INTER.VDW>
-17.8933

>  <SCORE.INTER.norm>
-0.367985

>  <SCORE.INTRA>
-1.20604

>  <SCORE.INTRA.DIHEDRAL>
-2.41354

>  <SCORE.INTRA.DIHEDRAL.0>
6.10773

>  <SCORE.INTRA.POLAR>
0

>  <SCORE.INTRA.POLAR.0>
0

>  <SCORE.INTRA.REPUL>
0

>  <SCORE.INTRA.REPUL.0>
0

>  <SCORE.INTRA.SOLV>
-0.0643368

>  <SCORE.INTRA.SOLV.lig_0>
-71.4024

>  <SCORE.INTRA.VDW>
0.0328968

>  <SCORE.INTRA.VDW.0>
-1.86213

>  <SCORE.INTRA.norm>
-0.05482

>  <SCORE.RESTR>
0.0117616

>  <SCORE.RESTR.CAVITY>
0.0117616

>  <SCORE.RESTR.norm>
0.000534618

>  <SCORE.SYSTEM>
0

>  <SCORE.SYSTEM.CONST>
0

>  <SCORE.SYSTEM.DIHEDRAL>
0

>  <SCORE.SYSTEM.SOLV>
0

>  <SCORE.SYSTEM.norm>
0

>  <SCORE.heavy>
22

>  <SCORE.norm>
-0.42227

>  <RMSD>
0.902

$$$$
lig.pdb
 OpenBabel11021811523D
libRbt.so/2013.1/901 2013/11/27
 22 23  0  0  0  0  0  0  0  0999 V2000
   -6.5138   -0.4739    0.2295 C   0  0  1  0  0  0  0  0  0  0  0  0
   -4.3539    0.0811    1.4203 C   0  0  1  0  0  0  0  0  0  0  0  0
   -4.6059    1.4590    2.1786 C   0  0  1  0  0  0  0  0  0  0  0  0
   -3.1980    2.1902    2.3471 C   0  0  2  0  0  0  0  0  0  0  0  0
   -7.8721   -1.1850    0.6028 C   0  0  1  0  0  0  0  0  0  0  0  0
   -7.5915   -2.6921    0.7654 C   0  0  2  0  0  0  0  0  0  0  0  0
   -7.0719   -3.2984   -0.5502 C   0  0  2  0  0  0  0  0  0  0  0  0
   -5.7318   -2.6121   -1.0032 C   0  0  1  0  0  0  0  0  0  0  0  0
   -5.2320   -3.1836   -2.3613 C   0  0  0  0  0  0  0  0  0  0  0  0
   -2.2322    1.2745    3.2586 C   0  0  1  0  0  0  0  0  0  0  0  0
   -2.0025   -0.1067    2.4629 C   0  0  0  0  0  0  0  0  0  0  0  0
   -3.4037   -0.8432    2.2462 C   0  0  2  0  0  0  0  0  0  0  0  0
   -8.0739   -3.1340   -1.6096 F   0  0  0  0  0  0  0  0  0  0  0  0
   -8.3818   -0.5640    1.8866 N   0  0  0  0  0  0  0  0  0  0  0  0
   -4.8584   -4.5467   -2.3306 N   0  0  0  0  0  0  0  0  0  0  0  0
   -0.8840    1.9155    3.4324 N   0  0  0  0  0  0  0  0  0  0  0  0
   -3.1862   -2.1080    1.5145 N   0  0  0  0  0  0  0  0  0  0  0  0
   -5.5792   -0.6159    1.2529 O   0  0  0  0  0  0  0  0  0  0  0  0
   -5.4998    2.2870    1.3349 O   0  0  0  0  0  0  0  0  0  0  0  0
   -3.4466    3.3972    3.0048 O   0  0  0  0  0  0  0  0  0  0  0  0
   -8.5833   -3.2088    1.0353 O   0  0  0  0  0  0  0  0  0  0  0  0
   -6.0094   -1.0992   -1.0685 O   0  0  0  0  0  0  0  0  0  0  0  0
  1  5  1  0  0  0  0
  1 18  1  1  0  0  0
  2 18  1  1  0  0  0
  2  3  1  0  0  0  0
  2 12  1  0  0  0  0
  3 19  1  6  0  0  0
  3  4  1  0  0  0  0
  4 20  1  1  0  0  0
  4 10  1  0  0  0  0
  5  6  1  0  0  0  0
  5 14  1  1  0  0  0
  6 21  1  6  0  0  0
  7 13  1  6  0  0  0
  7  6  1  0  0  0  0
  8  9  1  6  0  0  0
  8  7  1  0  0  0  0
 10 16  1  6  0  0  0
 11 10  1  0  0  0  0
 12 17  1  6  0  0  0
 12 11  1  0  0  0  0
 15  9  1  0  0  0  0
 22  8  1  0  0  0  0
 22  1  1  0  0  0  0
M  END
>  <CHROM.1>
-166.68753779,85.61386329,-65.14290599,-5.25967243,-0.78917230,0.86993373
2.19779525,0.03576922,-2.51880091

>  <Name>
lig.pdb

>  <RI>
0

>  <Rbt.Current_Directory>
/home/itssahil/PROJECTS/Mol_Feturizer/New_Systems/rnas/5bws

>  <Rbt.Executable>
rbdock ($Id: //depot/dev/client3/rdock/2013.1/src/exe/rbdock.cxx#4 $)

>  <Rbt.Library>
libRbt.so (2013.1, Build901 2013/11/27)

>  <Rbt.Parameter_File>
/export/apps/rDock/src/rDock_2013.1_src/data/scripts/dock_solv.prm

>  <Rbt.Receptor>
prm/blind_docking_20.prm

>  <SCORE>
-9.2637

>  <SCORE.INTER>
-8.0605

>  <SCORE.INTER.CONST>
1

>  <SCORE.INTER.POLAR>
0

>  <SCORE.INTER.ROT>
3

>  <SCORE.INTER.SOLV>
20.7582

>  <SCORE.INTER.VDW>
-17.8931

>  <SCORE.INTER.norm>
-0.366386

>  <SCORE.INTRA>
-1.21116

>  <SCORE.INTRA.DIHEDRAL>
-2.39093

>  <SCORE.INTRA.DIHEDRAL.0>
6.10773

>  <SCORE.INTRA.POLAR>
0

>  <SCORE.INTRA.POLAR.0>
0

>  <SCORE.INTRA.REPUL>
0

>  <SCORE.INTRA.REPUL.0>
0

>  <SCORE.INTRA.SOLV>
-0.089719

>  <SCORE.INTRA.SOLV.lig_0>
-71.4024

>  <SCORE.INTRA.VDW>
0.0291582

>  <SCORE.INTRA.VDW.0>
-1.86213

>  <SCORE.INTRA.norm>
-0.0550529

>  <SCORE.RESTR>
0.0079561

>  <SCORE.RESTR.CAVITY>
0.0079561

>  <SCORE.RESTR.norm>
0.000361641

>  <SCORE.SYSTEM>
0

>  <SCORE.SYSTEM.CONST>
0

>  <SCORE.SYSTEM.DIHEDRAL>
0

>  <SCORE.SYSTEM.SOLV>
0

>  <SCORE.SYSTEM.norm>
0

>  <SCORE.heavy>
22

>  <SCORE.norm>
-0.421077

>  <RMSD>
0.906

$$$$
lig.pdb
 OpenBabel11021811523D
libRbt.so/2013.1/901 2013/11/27
 22 23  0  0  0  0  0  0  0  0999 V2000
   -6.5566   -0.4562    0.2275 C   0  0  1  0  0  0  0  0  0  0  0  0
   -4.3885    0.0792    1.4123 C   0  0  1  0  0  0  0  0  0  0  0  0
   -4.6190    1.4546    2.1817 C   0  0  1  0  0  0  0  0  0  0  0  0
   -3.2019    2.1695    2.3430 C   0  0  2  0  0  0  0  0  0  0  0  0
   -7.9179   -1.1621    0.6000 C   0  0  1  0  0  0  0  0  0  0  0  0
   -7.6436   -2.6705    0.7606 C   0  0  2  0  0  0  0  0  0  0  0  0
   -7.1267   -3.2774   -0.5558 C   0  0  2  0  0  0  0  0  0  0  0  0
   -5.7836   -2.5962   -1.0079 C   0  0  1  0  0  0  0  0  0  0  0  0
   -5.2864   -3.1680   -2.3668 C   0  0  0  0  0  0  0  0  0  0  0  0
   -2.2384    1.2373    3.2402 C   0  0  1  0  0  0  0  0  0  0  0  0
   -2.0304   -0.1410    2.4335 C   0  0  0  0  0  0  0  0  0  0  0  0
   -3.4414   -0.8608    2.2239 C   0  0  2  0  0  0  0  0  0  0  0  0
   -8.1280   -3.1074   -1.6149 F   0  0  0  0  0  0  0  0  0  0  0  0
   -8.4249   -0.5406    1.8846 N   0  0  0  0  0  0  0  0  0  0  0  0
   -4.9163   -4.5321   -2.3373 N   0  0  0  0  0  0  0  0  0  0  0  0
   -0.8820    1.8626    3.4067 N   0  0  0  0  0  0  0  0  0  0  0  0
   -3.2437   -2.1229    1.4821 N   0  0  0  0  0  0  0  0  0  0  0  0
   -5.6225   -0.6035    1.2507 O   0  0  0  0  0  0  0  0  0  0  0  0
   -5.5110    2.2978    1.3511 O   0  0  0  0  0  0  0  0  0  0  0  0
   -3.4319    3.3746    3.0107 O   0  0  0  0  0  0  0  0  0  0  0  0
   -8.6376   -3.1834    1.0299 O   0  0  0  0  0  0  0  0  0  0  0  0
   -6.0549   -1.0821   -1.0713 O   0  0  0  0  0  0  0  0  0  0  0  0
  1  5  1  0  0  0  0
  1 18  1  1  0  0  0
  2 18  1  1  0  0  0
  2  3  1  0  0  0  0
  2 12  1  0  0  0  0
  3 19  1  6  0  0  0
  3  4  1  0  0  0  0
  4 20  1  1  0  0  0
  4 10  1  0  0  0  0
  5  6  1  0  0  0  0
  5 14  1  1  0  0  0
  6 21  1  6  0  0  0
  7 13  1  6  0  0  0
  7  6  1  0  0  0  0
  8  9  1  6  0  0  0
  8  7  1  0  0  0  0
 10 16  1  6  0  0  0
 11 10  1  0  0  0  0
 12 17  1  6  0  0  0
 12 11  1  0  0  0  0
 15  9  1  0  0  0  0
 22  8  1  0  0  0  0
 22  1  1  0  0  0  0
M  END
>  <CHROM.1>
-167.33516472,86.46925414,-65.25217031,-5.29501451,-0.78680882,0.86277570
2.20690806,0.03665917,-2.51641168

>  <Name>
lig.pdb

>  <RI>
0

>  <Rbt.Current_Directory>
/home/itssahil/PROJECTS/Mol_Feturizer/New_Systems/rnas/5bws

>  <Rbt.Executable>
rbdock ($Id: //depot/dev/client3/rdock/2013.1/src/exe/rbdock.cxx#4 $)

>  <Rbt.Library>
libRbt.so (2013.1, Build901 2013/11/27)

>  <Rbt.Parameter_File>
/export/apps/rDock/src/rDock_2013.1_src/data/scripts/dock_solv.prm

>  <Rbt.Receptor>
prm/blind_docking_20.prm

>  <SCORE>
-9.30331

>  <SCORE.INTER>
-8.17159

>  <SCORE.INTER.CONST>
1

>  <SCORE.INTER.POLAR>
0

>  <SCORE.INTER.ROT>
3

>  <SCORE.INTER.SOLV>
20.6232

>  <SCORE.INTER.VDW>
-17.9221

>  <SCORE.INTER.norm>
-0.371436

>  <SCORE.INTRA>
-1.15467

>  <SCORE.INTRA.DIHEDRAL>
-2.30592

>  <SCORE.INTRA.DIHEDRAL.0>
6.10773

>  <SCORE.INTRA.POLAR>
0

>  <SCORE.INTRA.POLAR.0>
0

>  <SCORE.INTRA.REPUL>
0

>  <SCORE.INTRA.REPUL.0>
0

>  <SCORE.INTRA.SOLV>
-0.0374337

>  <SCORE.INTRA.SOLV.lig_0>
-71.4024

>  <SCORE.INTRA.VDW>
0.0170101

>  <SCORE.INTRA.VDW.0>
-1.86213

>  <SCORE.INTRA.norm>
-0.0524849

>  <SCORE.RESTR>
0.0229469

>  <SCORE.RESTR.CAVITY>
0.0229469

>  <SCORE.RESTR.norm>
0.00104304

>  <SCORE.SYSTEM>
0

>  <SCORE.SYSTEM.CONST>
0

>  <SCORE.SYSTEM.DIHEDRAL>
0

>  <SCORE.SYSTEM.SOLV>
0

>  <SCORE.SYSTEM.norm>
0

>  <SCORE.heavy>
22

>  <SCORE.norm>
-0.422878

>  <RMSD>
0.907

$$$$
lig.pdb
 OpenBabel11021811523D
libRbt.so/2013.1/901 2013/11/27
 22 23  0  0  0  0  0  0  0  0999 V2000
   -6.7217   -0.7889    0.2543 C   0  0  1  0  0  0  0  0  0  0  0  0
   -4.4437   -0.2720    1.2212 C   0  0  1  0  0  0  0  0  0  0  0  0
   -4.6577    1.1542    1.8974 C   0  0  1  0  0  0  0  0  0  0  0  0
   -3.2423    1.8882    1.9518 C   0  0  2  0  0  0  0  0  0  0  0  0
   -7.9960   -1.6107    0.6910 C   0  0  1  0  0  0  0  0  0  0  0  0
   -7.6272   -3.1073    0.6713 C   0  0  2  0  0  0  0  0  0  0  0  0
   -7.2235   -3.5543   -0.7449 C   0  0  2  0  0  0  0  0  0  0  0  0
   -5.9744   -2.7507   -1.2610 C   0  0  1  0  0  0  0  0  0  0  0  0
   -5.5966   -3.1601   -2.7138 C   0  0  0  0  0  0  0  0  0  0  0  0
   -2.2368    1.0300    2.8763 C   0  0  1  0  0  0  0  0  0  0  0  0
   -2.0467   -0.4018    2.1641 C   0  0  0  0  0  0  0  0  0  0  0  0
   -3.4578   -1.1442    2.0617 C   0  0  2  0  0  0  0  0  0  0  0  0
   -8.3403   -3.3488   -1.6743 F   0  0  0  0  0  0  0  0  0  0  0  0
   -8.3941   -1.1455    2.0762 N   0  0  0  0  0  0  0  0  0  0  0  0
   -5.1972   -4.5076   -2.8662 N   0  0  0  0  0  0  0  0  0  0  0  0
   -0.8809    1.6747    2.9447 N   0  0  0  0  0  0  0  0  0  0  0  0
   -3.2766   -2.4556    1.4062 N   0  0  0  0  0  0  0  0  0  0  0  0
   -5.6766   -0.9726    1.1572 O   0  0  0  0  0  0  0  0  0  0  0  0
   -5.5885    1.9289    1.0430 O   0  0  0  0  0  0  0  0  0  0  0  0
   -3.4580    3.1372    2.5389 O   0  0  0  0  0  0  0  0  0  0  0  0
   -8.5581   -3.7045    0.9878 O   0  0  0  0  0  0  0  0  0  0  0  0
   -6.3302   -1.2573   -1.1448 O   0  0  0  0  0  0  0  0  0  0  0  0
  1  5  1  0  0  0  0
  1 18  1  1  0  0  0
  2 18  1  1  0  0  0
  2  3  1  0  0  0  0
  2 12  1  0  0  0  0
  3 19  1  6  0  0  0
  3  4  1  0  0  0  0
  4 20  1  1  0  0  0
  4 10  1  0  0  0  0
  5  6  1  0  0  0  0
  5 14  1  1  0  0  0
  6 21  1  6  0  0  0
  7 13  1  6  0  0  0
  7  6  1  0  0  0  0
  8  9  1  6  0  0  0
  8  7  1  0  0  0  0
 10 16  1  6  0  0  0
 11 10  1  0  0  0  0
 12 17  1  6  0  0  0
 12 11  1  0  0  0  0
 15  9  1  0  0  0  0
 22  8  1  0  0  0  0
 22  1  1  0  0  0  0
M  END
>  <CHROM.1>
-170.47565920,77.84606020,-63.22718326,-5.38073114,-1.07509354,0.66684660
2.24023241,-0.06800275,-2.46517219

>  <Name>
lig.pdb

>  <RI>
0

>  <Rbt.Current_Directory>
/home/itssahil/PROJECTS/Mol_Feturizer/New_Systems/rnas/5bws

>  <Rbt.Executable>
rbdock ($Id: //depot/dev/client3/rdock/2013.1/src/exe/rbdock.cxx#4 $)

>  <Rbt.Library>
libRbt.so (2013.1, Build901 2013/11/27)

>  <Rbt.Parameter_File>
/export/apps/rDock/src/rDock_2013.1_src/data/scripts/dock_solv.prm

>  <Rbt.Receptor>
prm/blind_docking_40.prm

>  <SCORE>
-10.3234

>  <SCORE.INTER>
-8.08406

>  <SCORE.INTER.CONST>
1

>  <SCORE.INTER.POLAR>
0

>  <SCORE.INTER.ROT>
3

>  <SCORE.INTER.SOLV>
24.3105

>  <SCORE.INTER.VDW>
-19.0929

>  <SCORE.INTER.norm>
-0.367457

>  <SCORE.INTRA>
-2.23932

>  <SCORE.INTRA.DIHEDRAL>
-4.16902

>  <SCORE.INTRA.DIHEDRAL.0>
6.10773

>  <SCORE.INTRA.POLAR>
0

>  <SCORE.INTRA.POLAR.0>
0

>  <SCORE.INTRA.REPUL>
0

>  <SCORE.INTRA.REPUL.0>
0

>  <SCORE.INTRA.SOLV>
-0.619038

>  <SCORE.INTRA.SOLV.lig_0>
-71.4024

>  <SCORE.INTRA.VDW>
0.154705

>  <SCORE.INTRA.VDW.0>
-1.86213

>  <SCORE.INTRA.norm>
-0.101787

>  <SCORE.RESTR>
0

>  <SCORE.RESTR.CAVITY>
0

>  <SCORE.RESTR.norm>
0

>  <SCORE.SYSTEM>
0

>  <SCORE.SYSTEM.CONST>
0

>  <SCORE.SYSTEM.DIHEDRAL>
0

>  <SCORE.SYSTEM.SOLV>
0

>  <SCORE.SYSTEM.norm>
0

>  <SCORE.heavy>
22

>  <SCORE.norm>
-0.469245

>  <RMSD>
0.907

$$$$
lig.pdb
 OpenBabel11021811523D
libRbt.so/2013.1/901 2013/11/27
 22 23  0  0  0  0  0  0  0  0999 V2000
   -6.5500   -0.4485    0.2313 C   0  0  1  0  0  0  0  0  0  0  0  0
   -4.3921    0.0955    1.4308 C   0  0  1  0  0  0  0  0  0  0  0  0
   -4.6294    1.4688    2.2019 C   0  0  1  0  0  0  0  0  0  0  0  0
   -3.2148    2.1868    2.3709 C   0  0  2  0  0  0  0  0  0  0  0  0
   -7.9118   -1.1584    0.5944 C   0  0  1  0  0  0  0  0  0  0  0  0
   -7.6334   -2.6654    0.7611 C   0  0  2  0  0  0  0  0  0  0  0  0
   -7.1035   -3.2737   -0.5495 C   0  0  2  0  0  0  0  0  0  0  0  0
   -5.7592   -2.5887   -0.9923 C   0  0  1  0  0  0  0  0  0  0  0  0
   -5.2488   -3.1622   -2.3456 C   0  0  0  0  0  0  0  0  0  0  0  0
   -2.2530    1.2552    3.2704 C   0  0  1  0  0  0  0  0  0  0  0  0
   -2.0381   -0.1209    2.4618 C   0  0  0  0  0  0  0  0  0  0  0  0
   -3.4463   -0.8438    2.2447 C   0  0  2  0  0  0  0  0  0  0  0  0
   -8.0967   -3.1100   -1.6172 F   0  0  0  0  0  0  0  0  0  0  0  0
   -8.4315   -0.5355    1.8732 N   0  0  0  0  0  0  0  0  0  0  0  0
   -4.8811   -4.5268   -2.3115 N   0  0  0  0  0  0  0  0  0  0  0  0
   -0.8988    1.8834    3.4441 N   0  0  0  0  0  0  0  0  0  0  0  0
   -3.2423   -2.1040    1.5013 N   0  0  0  0  0  0  0  0  0  0  0  0
   -5.6239   -0.5898    1.2625 O   0  0  0  0  0  0  0  0  0  0  0  0
   -5.5198    2.3115    1.3692 O   0  0  0  0  0  0  0  0  0  0  0  0
   -3.4506    3.3901    3.0400 O   0  0  0  0  0  0  0  0  0  0  0  0
   -8.6276   -3.1812    1.0235 O   0  0  0  0  0  0  0  0  0  0  0  0
   -6.0355   -1.0758   -1.0617 O   0  0  0  0  0  0  0  0  0  0  0  0
  1  5  1  0  0  0  0
  1 18  1  1  0  0  0
  2 18  1  1  0  0  0
  2  3  1  0  0  0  0
  2 12  1  0  0  0  0
  3 19  1  6  0  0  0
  3  4  1  0  0  0  0
  4 20  1  1  0  0  0
  4 10  1  0  0  0  0
  5  6  1  0  0  0  0
  5 14  1  1  0  0  0
  6 21  1  6  0  0  0
  7 13  1  6  0  0  0
  7  6  1  0  0  0  0
  8  9  1  6  0  0  0
  8  7  1  0  0  0  0
 10 16  1  6  0  0  0
 11 10  1  0  0  0  0
 12 17  1  6  0  0  0
 12 11  1  0  0  0  0
 15  9  1  0  0  0  0
 22  8  1  0  0  0  0
 22  1  1  0  0  0  0
M  END
>  <CHROM.1>
-167.49426892,86.89011397,-64.91334067,-5.29015190,-0.77635328,0.87694474
2.20070714,0.04034718,-2.51737361

>  <Name>
lig.pdb

>  <RI>
0

>  <Rbt.Current_Directory>
/home/itssahil/PROJECTS/Mol_Feturizer/New_Systems/rnas/5bws

>  <Rbt.Executable>
rbdock ($Id: //depot/dev/client3/rdock/2013.1/src/exe/rbdock.cxx#4 $)

>  <Rbt.Library>
libRbt.so (2013.1, Build901 2013/11/27)

>  <Rbt.Parameter_File>
/export/apps/rDock/src/rDock_2013.1_src/data/scripts/dock_solv.prm

>  <Rbt.Receptor>
prm/blind_docking_20.prm

>  <SCORE>
-9.23731

>  <SCORE.INTER>
-8.12339

>  <SCORE.INTER.CONST>
1

>  <SCORE.INTER.POLAR>
0

>  <SCORE.INTER.ROT>
3

>  <SCORE.INTER.SOLV>
20.4973

>  <SCORE.INTER.VDW>
-17.848

>  <SCORE.INTER.norm>
-0.369245

>  <SCORE.INTRA>
-1.11788

>  <SCORE.INTRA.DIHEDRAL>
-2.25854

>  <SCORE.INTRA.DIHEDRAL.0>
6.10773

>  <SCORE.INTRA.POLAR>
0

>  <SCORE.INTRA.POLAR.0>
0

>  <SCORE.INTRA.REPUL>
0

>  <SCORE.INTRA.REPUL.0>
0

>  <SCORE.INTRA.SOLV>
-0.00153113

>  <SCORE.INTRA.SOLV.lig_0>
-71.4024

>  <SCORE.INTRA.VDW>
0.0121588

>  <SCORE.INTRA.VDW.0>
-1.86213

>  <SCORE.INTRA.norm>
-0.0508126

>  <SCORE.RESTR>
0.00395608

>  <SCORE.RESTR.CAVITY>
0.00395608

>  <SCORE.RESTR.norm>
0.000179822

>  <SCORE.SYSTEM>
0

>  <SCORE.SYSTEM.CONST>
0

>  <SCORE.SYSTEM.DIHEDRAL>
0

>  <SCORE.SYSTEM.SOLV>
0

>  <SCORE.SYSTEM.norm>
0

>  <SCORE.heavy>
22

>  <SCORE.norm>
-0.419878

>  <RMSD>
0.910

$$$$
lig.pdb
 OpenBabel11021811523D
libRbt.so/2013.1/901 2013/11/27
 22 23  0  0  0  0  0  0  0  0999 V2000
   -6.5573   -0.4551    0.2478 C   0  0  1  0  0  0  0  0  0  0  0  0
   -4.3934    0.0958    1.4332 C   0  0  1  0  0  0  0  0  0  0  0  0
   -4.6249    1.4731    2.1989 C   0  0  1  0  0  0  0  0  0  0  0  0
   -3.2087    2.1908    2.3556 C   0  0  2  0  0  0  0  0  0  0  0  0
   -7.9121   -1.1761    0.6151 C   0  0  1  0  0  0  0  0  0  0  0  0
   -7.6211   -2.6809    0.7803 C   0  0  2  0  0  0  0  0  0  0  0  0
   -7.0906   -3.2844   -0.5323 C   0  0  2  0  0  0  0  0  0  0  0  0
   -5.7533   -2.5885   -0.9792 C   0  0  1  0  0  0  0  0  0  0  0  0
   -5.2427   -3.1573   -2.3344 C   0  0  0  0  0  0  0  0  0  0  0  0
   -2.2421    1.2629    3.2539 C   0  0  1  0  0  0  0  0  0  0  0  0
   -2.0333   -0.1174    2.4509 C   0  0  0  0  0  0  0  0  0  0  0  0
   -3.4434   -0.8402    2.2460 C   0  0  2  0  0  0  0  0  0  0  0  0
   -8.0886   -3.1283   -1.5967 F   0  0  0  0  0  0  0  0  0  0  0  0
   -8.4327   -0.5579    1.8958 N   0  0  0  0  0  0  0  0  0  0  0  0
   -4.8684   -4.5202   -2.3031 N   0  0  0  0  0  0  0  0  0  0  0  0
   -0.8864    1.8909    3.4161 N   0  0  0  0  0  0  0  0  0  0  0  0
   -3.2449   -2.1043    1.5077 N   0  0  0  0  0  0  0  0  0  0  0  0
   -5.6267   -0.5893    1.2759 O   0  0  0  0  0  0  0  0  0  0  0  0
   -5.5197    2.3123    1.3674 O   0  0  0  0  0  0  0  0  0  0  0  0
   -3.4394    3.3976    3.0201 O   0  0  0  0  0  0  0  0  0  0  0  0
   -8.6103   -3.2047    1.0457 O   0  0  0  0  0  0  0  0  0  0  0  0
   -6.0420   -1.0778   -1.0471 O   0  0  0  0  0  0  0  0  0  0  0  0
  1  5  1  0  0  0  0
  1 18  1  1  0  0  0
  2 18  1  1  0  0  0
  2  3  1  0  0  0  0
  2 12  1  0  0  0  0
  3 19  1  6  0  0  0
  3  4  1  0  0  0  0
  4 20  1  1  0  0  0
  4 10  1  0  0  0  0
  5  6  1  0  0  0  0
  5 14  1  1  0  0  0
  6 21  1  6  0  0  0
  7 13  1  6  0  0  0
  7  6  1  0  0  0  0
  8  9  1  6  0  0  0
  8  7  1  0  0  0  0
 10 16  1  6  0  0  0
 11 10  1  0  0  0  0
 12 17  1  6  0  0  0
 12 11  1  0  0  0  0
 15  9  1  0  0  0  0
 22  8  1  0  0  0  0
 22  1  1  0  0  0  0
M  END
>  <CHROM.1>
-168.21065119,87.08372042,-64.69936871,-5.28529875,-0.77959432,0.88240100
2.20164963,0.03326163,-2.51886424

>  <Name>
lig.pdb

>  <RI>
0

>  <Rbt.Current_Directory>
/home/itssahil/PROJECTS/Mol_Feturizer/New_Systems/rnas/5bws

>  <Rbt.Executable>
rbdock ($Id: //depot/dev/client3/rdock/2013.1/src/exe/rbdock.cxx#4 $)

>  <Rbt.Library>
libRbt.so (2013.1, Build901 2013/11/27)

>  <Rbt.Parameter_File>
/export/apps/rDock/src/rDock_2013.1_src/data/scripts/dock_solv.prm

>  <Rbt.Receptor>
prm/blind_docking_20.prm

>  <SCORE>
-9.23264

>  <SCORE.INTER>
-8.09646

>  <SCORE.INTER.CONST>
1

>  <SCORE.INTER.POLAR>
0

>  <SCORE.INTER.ROT>
3

>  <SCORE.INTER.SOLV>
20.6117

>  <SCORE.INTER.VDW>
-17.8682

>  <SCORE.INTER.norm>
-0.368021

>  <SCORE.INTRA>
-1.14106

>  <SCORE.INTRA.DIHEDRAL>
-2.3101

>  <SCORE.INTRA.DIHEDRAL.0>
6.10773

>  <SCORE.INTRA.POLAR>
0

>  <SCORE.INTRA.POLAR.0>
0

>  <SCORE.INTRA.REPUL>
0

>  <SCORE.INTRA.REPUL.0>
0

>  <SCORE.INTRA.SOLV>
0.0101465

>  <SCORE.INTRA.SOLV.lig_0>
-71.4024

>  <SCORE.INTRA.VDW>
0.00891886

>  <SCORE.INTRA.VDW.0>
-1.86213

>  <SCORE.INTRA.norm>
-0.0518662

>  <SCORE.RESTR>
0.00488055

>  <SCORE.RESTR.CAVITY>
0.00488055

>  <SCORE.RESTR.norm>
0.000221843

>  <SCORE.SYSTEM>
0

>  <SCORE.SYSTEM.CONST>
0

>  <SCORE.SYSTEM.DIHEDRAL>
0

>  <SCORE.SYSTEM.SOLV>
0

>  <SCORE.SYSTEM.norm>
0

>  <SCORE.heavy>
22

>  <SCORE.norm>
-0.419665

>  <RMSD>
0.912

$$$$
lig.pdb
 OpenBabel11021811523D
libRbt.so/2013.1/901 2013/11/27
 22 23  0  0  0  0  0  0  0  0999 V2000
   -6.6090   -0.4257    0.2339 C   0  0  1  0  0  0  0  0  0  0  0  0
   -4.4368    0.0895    1.4201 C   0  0  1  0  0  0  0  0  0  0  0  0
   -4.6365    1.4669    2.1948 C   0  0  1  0  0  0  0  0  0  0  0  0
   -3.2054    2.1552    2.3475 C   0  0  2  0  0  0  0  0  0  0  0  0
   -7.9658   -1.1503    0.5862 C   0  0  1  0  0  0  0  0  0  0  0  0
   -7.6756   -2.6566    0.7382 C   0  0  2  0  0  0  0  0  0  0  0  0
   -7.1375   -3.2471   -0.5772 C   0  0  2  0  0  0  0  0  0  0  0  0
   -5.7977   -2.5468   -1.0095 C   0  0  1  0  0  0  0  0  0  0  0  0
   -5.2792   -3.1022   -2.3672 C   0  0  0  0  0  0  0  0  0  0  0  0
   -2.2525    1.2032    3.2350 C   0  0  1  0  0  0  0  0  0  0  0  0
   -2.0757   -0.1765    2.4232 C   0  0  0  0  0  0  0  0  0  0  0  0
   -3.5011   -0.8698    2.2223 C   0  0  2  0  0  0  0  0  0  0  0  0
   -8.1293   -3.0806   -1.6457 F   0  0  0  0  0  0  0  0  0  0  0  0
   -8.4939   -0.5447    1.8699 N   0  0  0  0  0  0  0  0  0  0  0  0
   -4.8926   -4.4618   -2.3440 N   0  0  0  0  0  0  0  0  0  0  0  0
   -0.8836    1.8031    3.3931 N   0  0  0  0  0  0  0  0  0  0  0  0
   -3.3320   -2.1333    1.4758 N   0  0  0  0  0  0  0  0  0  0  0  0
   -5.6843   -0.5700    1.2660 O   0  0  0  0  0  0  0  0  0  0  0  0
   -5.5190    2.3284    1.3731 O   0  0  0  0  0  0  0  0  0  0  0  0
   -3.4083    3.3626    3.0199 O   0  0  0  0  0  0  0  0  0  0  0  0
   -8.6663   -3.1831    0.9927 O   0  0  0  0  0  0  0  0  0  0  0  0
   -6.0861   -1.0355   -1.0642 O   0  0  0  0  0  0  0  0  0  0  0  0
  1  5  1  0  0  0  0
  1 18  1  1  0  0  0
  2 18  1  1  0  0  0
  2  3  1  0  0  0  0
  2 12  1  0  0  0  0
  3 19  1  6  0  0  0
  3  4  1  0  0  0  0
  4 20  1  1  0  0  0
  4 10  1  0  0  0  0
  5  6  1  0  0  0  0
  5 14  1  1  0  0  0
  6 21  1  6  0  0  0
  7 13  1  6  0  0  0
  7  6  1  0  0  0  0
  8  9  1  6  0  0  0
  8  7  1  0  0  0  0
 10 16  1  6  0  0  0
 11 10  1  0  0  0  0
 12 17  1  6  0  0  0
 12 11  1  0  0  0  0
 15  9  1  0  0  0  0
 22  8  1  0  0  0  0
 22  1  1  0  0  0  0
M  END
>  <CHROM.1>
-169.91257851,88.10335432,-65.28933700,-5.32074606,-0.77473551,0.85798716
2.21205991,0.03714522,-2.51102830

>  <Name>
lig.pdb

>  <RI>
0

>  <Rbt.Current_Directory>
/home/itssahil/PROJECTS/Mol_Feturizer/New_Systems/rnas/5bws

>  <Rbt.Executable>
rbdock ($Id: //depot/dev/client3/rdock/2013.1/src/exe/rbdock.cxx#4 $)

>  <Rbt.Library>
libRbt.so (2013.1, Build901 2013/11/27)

>  <Rbt.Parameter_File>
/export/apps/rDock/src/rDock_2013.1_src/data/scripts/dock_solv.prm

>  <Rbt.Receptor>
prm/blind_docking_20.prm

>  <SCORE>
-9.35285

>  <SCORE.INTER>
-8.26964

>  <SCORE.INTER.CONST>
1

>  <SCORE.INTER.POLAR>
0

>  <SCORE.INTER.ROT>
3

>  <SCORE.INTER.SOLV>
20.4217

>  <SCORE.INTER.VDW>
-17.9203

>  <SCORE.INTER.norm>
-0.375893

>  <SCORE.INTRA>
-1.11706

>  <SCORE.INTRA.DIHEDRAL>
-2.27219

>  <SCORE.INTRA.DIHEDRAL.0>
6.10773

>  <SCORE.INTRA.POLAR>
0

>  <SCORE.INTRA.POLAR.0>
0

>  <SCORE.INTRA.REPUL>
0

>  <SCORE.INTRA.REPUL.0>
0

>  <SCORE.INTRA.SOLV>
0.0545043

>  <SCORE.INTRA.SOLV.lig_0>
-71.4024

>  <SCORE.INTRA.VDW>
-0.00821236

>  <SCORE.INTRA.VDW.0>
-1.86213

>  <SCORE.INTRA.norm>
-0.0507753

>  <SCORE.RESTR>
0.0338458

>  <SCORE.RESTR.CAVITY>
0.0338458

>  <SCORE.RESTR.norm>
0.00153845

>  <SCORE.SYSTEM>
0

>  <SCORE.SYSTEM.CONST>
0

>  <SCORE.SYSTEM.DIHEDRAL>
0

>  <SCORE.SYSTEM.SOLV>
0

>  <SCORE.SYSTEM.norm>
0

>  <SCORE.heavy>
22

>  <SCORE.norm>
-0.42513

>  <RMSD>
0.913

$$$$
lig.pdb
 OpenBabel11021811523D
libRbt.so/2013.1/901 2013/11/27
 22 23  0  0  0  0  0  0  0  0999 V2000
   -6.5780   -0.4401    0.2408 C   0  0  1  0  0  0  0  0  0  0  0  0
   -4.4067    0.0883    1.4229 C   0  0  1  0  0  0  0  0  0  0  0  0
   -4.6234    1.4681    2.1886 C   0  0  1  0  0  0  0  0  0  0  0  0
   -3.1999    2.1716    2.3435 C   0  0  2  0  0  0  0  0  0  0  0  0
   -7.9382   -1.1505    0.6087 C   0  0  1  0  0  0  0  0  0  0  0  0
   -7.6596   -2.6580    0.7701 C   0  0  2  0  0  0  0  0  0  0  0  0
   -7.1362   -3.2631   -0.5446 C   0  0  2  0  0  0  0  0  0  0  0  0
   -5.7939   -2.5774   -0.9921 C   0  0  1  0  0  0  0  0  0  0  0  0
   -5.2902   -3.1475   -2.3494 C   0  0  0  0  0  0  0  0  0  0  0  0
   -2.2416    1.2342    3.2408 C   0  0  1  0  0  0  0  0  0  0  0  0
   -2.0476   -0.1483    2.4378 C   0  0  0  0  0  0  0  0  0  0  0  0
   -3.4651   -0.8570    2.2347 C   0  0  2  0  0  0  0  0  0  0  0  0
   -8.1345   -3.0963   -1.6071 F   0  0  0  0  0  0  0  0  0  0  0  0
   -8.4516   -0.5308    1.8916 N   0  0  0  0  0  0  0  0  0  0  0  0
   -4.9435   -4.5178   -2.3259 N   0  0  0  0  0  0  0  0  0  0  0  0
   -0.8795    1.8486    3.4013 N   0  0  0  0  0  0  0  0  0  0  0  0
   -3.2802   -2.1231    1.4964 N   0  0  0  0  0  0  0  0  0  0  0  0
   -5.6469   -0.5844    1.2672 O   0  0  0  0  0  0  0  0  0  0  0  0
   -5.5108    2.3160    1.3580 O   0  0  0  0  0  0  0  0  0  0  0  0
   -3.4178    3.3807    3.0080 O   0  0  0  0  0  0  0  0  0  0  0  0
   -8.6528   -3.1741    1.0360 O   0  0  0  0  0  0  0  0  0  0  0  0
   -6.0699   -1.0642   -1.0563 O   0  0  0  0  0  0  0  0  0  0  0  0
  1  5  1  0  0  0  0
  1 18  1  1  0  0  0
  2 18  1  1  0  0  0
  2  3  1  0  0  0  0
  2 12  1  0  0  0  0
  3 19  1  6  0  0  0
  3  4  1  0  0  0  0
  4 20  1  1  0  0  0
  4 10  1  0  0  0  0
  5  6  1  0  0  0  0
  5 14  1  1  0  0  0
  6 21  1  6  0  0  0
  7 13  1  6  0  0  0
  7  6  1  0  0  0  0
  8  9  1  6  0  0  0
  8  7  1  0  0  0  0
 10 16  1  6  0  0  0
 11 10  1  0  0  0  0
 12 17  1  6  0  0  0
 12 11  1  0  0  0  0
 15  9  1  0  0  0  0
 22  8  1  0  0  0  0
 22  1  1  0  0  0  0
M  END
>  <CHROM.1>
-168.32430605,87.01380904,-63.92866576,-5.30753515,-0.77739761,0.87120901
2.21012872,0.03725603,-2.51772903

>  <Name>
lig.pdb

>  <RI>
0

>  <Rbt.Current_Directory>
/home/itssahil/PROJECTS/Mol_Feturizer/New_Systems/rnas/5bws

>  <Rbt.Executable>
rbdock ($Id: //depot/dev/client3/rdock/2013.1/src/exe/rbdock.cxx#4 $)

>  <Rbt.Library>
libRbt.so (2013.1, Build901 2013/11/27)

>  <Rbt.Parameter_File>
/export/apps/rDock/src/rDock_2013.1_src/data/scripts/dock_solv.prm

>  <Rbt.Receptor>
prm/blind_docking_20.prm

>  <SCORE>
-9.31852

>  <SCORE.INTER>
-8.1836

>  <SCORE.INTER.CONST>
1

>  <SCORE.INTER.POLAR>
0

>  <SCORE.INTER.ROT>
3

>  <SCORE.INTER.SOLV>
20.5635

>  <SCORE.INTER.VDW>
-17.9102

>  <SCORE.INTER.norm>
-0.371982

>  <SCORE.INTRA>
-1.15797

>  <SCORE.INTRA.DIHEDRAL>
-2.35938

>  <SCORE.INTRA.DIHEDRAL.0>
6.10773

>  <SCORE.INTRA.POLAR>
0

>  <SCORE.INTRA.POLAR.0>
0

>  <SCORE.INTRA.REPUL>
0

>  <SCORE.INTRA.REPUL.0>
0

>  <SCORE.INTRA.SOLV>
0.0208552

>  <SCORE.INTRA.SOLV.lig_0>
-71.4024

>  <SCORE.INTRA.VDW>
0.0112894

>  <SCORE.INTRA.VDW.0>
-1.86213

>  <SCORE.INTRA.norm>
-0.0526352

>  <SCORE.RESTR>
0.0230583

>  <SCORE.RESTR.CAVITY>
0.0230583

>  <SCORE.RESTR.norm>
0.0010481

>  <SCORE.SYSTEM>
0

>  <SCORE.SYSTEM.CONST>
0

>  <SCORE.SYSTEM.DIHEDRAL>
0

>  <SCORE.SYSTEM.SOLV>
0

>  <SCORE.SYSTEM.norm>
0

>  <SCORE.heavy>
22

>  <SCORE.norm>
-0.423569

>  <RMSD>
0.914

$$$$
lig.pdb
 OpenBabel11021811523D
libRbt.so/2013.1/901 2013/11/27
 22 23  0  0  0  0  0  0  0  0999 V2000
   -6.5847   -0.4367    0.2426 C   0  0  1  0  0  0  0  0  0  0  0  0
   -4.4104    0.0860    1.4219 C   0  0  1  0  0  0  0  0  0  0  0  0
   -4.6228    1.4607    2.1979 C   0  0  1  0  0  0  0  0  0  0  0  0
   -3.1981    2.1620    2.3515 C   0  0  2  0  0  0  0  0  0  0  0  0
   -7.9409   -1.1570    0.6059 C   0  0  1  0  0  0  0  0  0  0  0  0
   -7.6544   -2.6644    0.7546 C   0  0  2  0  0  0  0  0  0  0  0  0
   -7.1292   -3.2559   -0.5655 C   0  0  2  0  0  0  0  0  0  0  0  0
   -5.7908   -2.5598   -1.0086 C   0  0  1  0  0  0  0  0  0  0  0  0
   -5.2855   -3.1161   -2.3710 C   0  0  0  0  0  0  0  0  0  0  0  0
   -2.2367    1.2177    3.2383 C   0  0  1  0  0  0  0  0  0  0  0  0
   -2.0472   -0.1594    2.4251 C   0  0  0  0  0  0  0  0  0  0  0  0
   -3.4661   -0.8656    2.2233 C   0  0  2  0  0  0  0  0  0  0  0  0
   -8.1294   -3.0855   -1.6257 F   0  0  0  0  0  0  0  0  0  0  0  0
   -8.4562   -0.5505    1.8943 N   0  0  0  0  0  0  0  0  0  0  0  0
   -4.8774   -4.4693   -2.3452 N   0  0  0  0  0  0  0  0  0  0  0  0
   -0.8734    1.8300    3.3971 N   0  0  0  0  0  0  0  0  0  0  0  0
   -3.2854   -2.1267    1.4755 N   0  0  0  0  0  0  0  0  0  0  0  0
   -5.6519   -0.5847    1.2669 O   0  0  0  0  0  0  0  0  0  0  0  0
   -5.5130    2.3150    1.3769 O   0  0  0  0  0  0  0  0  0  0  0  0
   -3.4121    3.3667    3.0252 O   0  0  0  0  0  0  0  0  0  0  0  0
   -8.6447   -3.1877    1.0171 O   0  0  0  0  0  0  0  0  0  0  0  0
   -6.0746   -1.0475   -1.0600 O   0  0  0  0  0  0  0  0  0  0  0  0
  1  5  1  0  0  0  0
  1 18  1  1  0  0  0
  2 18  1  1  0  0  0
  2  3  1  0  0  0  0
  2 12  1  0  0  0  0
  3 19  1  6  0  0  0
  3  4  1  0  0  0  0
  4 20  1  1  0  0  0
  4 10  1  0  0  0  0
  5  6  1  0  0  0  0
  5 14  1  1  0  0  0
  6 21  1  6  0  0  0
  7 13  1  6  0  0  0
  7  6  1  0  0  0  0
  8  9  1  6  0  0  0
  8  7  1  0  0  0  0
 10 16  1  6  0  0  0
 11 10  1  0  0  0  0
 12 17  1  6  0  0  0
 12 11  1  0  0  0  0
 15  9  1  0  0  0  0
 22  8  1  0  0  0  0
 22  1  1  0  0  0  0
M  END
>  <CHROM.1>
-168.82782979,87.30643038,-66.52930620,-5.30375674,-0.77736685,0.86522449
2.21088076,0.03293380,-2.50994461

>  <Name>
lig.pdb

>  <RI>
0

>  <Rbt.Current_Directory>
/home/itssahil/PROJECTS/Mol_Feturizer/New_Systems/rnas/5bws

>  <Rbt.Executable>
rbdock ($Id: //depot/dev/client3/rdock/2013.1/src/exe/rbdock.cxx#4 $)

>  <Rbt.Library>
libRbt.so (2013.1, Build901 2013/11/27)

>  <Rbt.Parameter_File>
/export/apps/rDock/src/rDock_2013.1_src/data/scripts/dock_solv.prm

>  <Rbt.Receptor>
prm/blind_docking_20.prm

>  <SCORE>
-9.3286

>  <SCORE.INTER>
-8.21643

>  <SCORE.INTER.CONST>
1

>  <SCORE.INTER.POLAR>
0

>  <SCORE.INTER.ROT>
3

>  <SCORE.INTER.SOLV>
20.5885

>  <SCORE.INTER.VDW>
-17.9405

>  <SCORE.INTER.norm>
-0.373474

>  <SCORE.INTRA>
-1.13888

>  <SCORE.INTRA.DIHEDRAL>
-2.26096

>  <SCORE.INTRA.DIHEDRAL.0>
6.10773

>  <SCORE.INTRA.POLAR>
0

>  <SCORE.INTRA.POLAR.0>
0

>  <SCORE.INTRA.REPUL>
0

>  <SCORE.INTRA.REPUL.0>
0

>  <SCORE.INTRA.SOLV>
-0.0196105

>  <SCORE.INTRA.SOLV.lig_0>
-71.4024

>  <SCORE.INTRA.VDW>
0.00140864

>  <SCORE.INTRA.VDW.0>
-1.86213

>  <SCORE.INTRA.norm>
-0.0517672

>  <SCORE.RESTR>
0.0267115

>  <SCORE.RESTR.CAVITY>
0.0267115

>  <SCORE.RESTR.norm>
0.00121416

>  <SCORE.SYSTEM>
0

>  <SCORE.SYSTEM.CONST>
0

>  <SCORE.SYSTEM.DIHEDRAL>
0

>  <SCORE.SYSTEM.SOLV>
0

>  <SCORE.SYSTEM.norm>
0

>  <SCORE.heavy>
22

>  <SCORE.norm>
-0.424027

>  <RMSD>
0.917

$$$$
lig.pdb
 OpenBabel11021811523D
libRbt.so/2013.1/901 2013/11/27
 22 23  0  0  0  0  0  0  0  0999 V2000
   -6.6243   -0.4202    0.2591 C   0  0  1  0  0  0  0  0  0  0  0  0
   -4.4485    0.1082    1.4332 C   0  0  1  0  0  0  0  0  0  0  0  0
   -4.6492    1.4767    2.2229 C   0  0  1  0  0  0  0  0  0  0  0  0
   -3.2213    2.1736    2.3667 C   0  0  2  0  0  0  0  0  0  0  0  0
   -7.9818   -1.1351    0.6278 C   0  0  1  0  0  0  0  0  0  0  0  0
   -7.6973   -2.6412    0.7927 C   0  0  2  0  0  0  0  0  0  0  0  0
   -7.1708   -3.2470   -0.5205 C   0  0  2  0  0  0  0  0  0  0  0  0
   -5.8310   -2.5570   -0.9688 C   0  0  1  0  0  0  0  0  0  0  0  0
   -5.3243   -3.1280   -2.3245 C   0  0  0  0  0  0  0  0  0  0  0  0
   -2.2524    1.2199    3.2349 C   0  0  1  0  0  0  0  0  0  0  0  0
   -2.0750   -0.1508    2.4082 C   0  0  0  0  0  0  0  0  0  0  0  0
   -3.4977   -0.8522    2.2161 C   0  0  2  0  0  0  0  0  0  0  0  0
   -8.1692   -3.0865   -1.5838 F   0  0  0  0  0  0  0  0  0  0  0  0
   -8.4983   -0.5147    1.9091 N   0  0  0  0  0  0  0  0  0  0  0  0
   -4.9536   -4.4918   -2.2931 N   0  0  0  0  0  0  0  0  0  0  0  0
   -0.8860    1.8278    3.3838 N   0  0  0  0  0  0  0  0  0  0  0  0
   -3.3281   -2.1074    1.4559 N   0  0  0  0  0  0  0  0  0  0  0  0
   -5.6931   -0.5585    1.2863 O   0  0  0  0  0  0  0  0  0  0  0  0
   -5.5465    2.3398    1.4190 O   0  0  0  0  0  0  0  0  0  0  0  0
   -3.4251    3.3731    3.0527 O   0  0  0  0  0  0  0  0  0  0  0  0
   -8.6885   -3.1607    1.0591 O   0  0  0  0  0  0  0  0  0  0  0  0
   -6.1130   -1.0450   -1.0364 O   0  0  0  0  0  0  0  0  0  0  0  0
  1  5  1  0  0  0  0
  1 18  1  1  0  0  0
  2 18  1  1  0  0  0
  2  3  1  0  0  0  0
  2 12  1  0  0  0  0
  3 19  1  6  0  0  0
  3  4  1  0  0  0  0
  4 20  1  1  0  0  0
  4 10  1  0  0  0  0
  5  6  1  0  0  0  0
  5 14  1  1  0  0  0
  6 21  1  6  0  0  0
  7 13  1  6  0  0  0
  7  6  1  0  0  0  0
  8  9  1  6  0  0  0
  8  7  1  0  0  0  0
 10 16  1  6  0  0  0
 11 10  1  0  0  0  0
 12 17  1  6  0  0  0
 12 11  1  0  0  0  0
 15  9  1  0  0  0  0
 22  8  1  0  0  0  0
 22  1  1  0  0  0  0
M  END
>  <CHROM.1>
-169.12495401,88.76045740,-64.81211093,-5.33973114,-0.76600792,0.88690590
2.21425960,0.03191723,-2.51495821

>  <Name>
lig.pdb

>  <RI>
0

>  <Rbt.Current_Directory>
/home/itssahil/PROJECTS/Mol_Feturizer/New_Systems/rnas/5bws

>  <Rbt.Executable>
rbdock ($Id: //depot/dev/client3/rdock/2013.1/src/exe/rbdock.cxx#4 $)

>  <Rbt.Library>
libRbt.so (2013.1, Build901 2013/11/27)

>  <Rbt.Parameter_File>
/export/apps/rDock/src/rDock_2013.1_src/data/scripts/dock_solv.prm

>  <Rbt.Receptor>
prm/blind_docking_20.prm

>  <SCORE>
-9.1842

>  <SCORE.INTER>
-8.19345

>  <SCORE.INTER.CONST>
1

>  <SCORE.INTER.POLAR>
0

>  <SCORE.INTER.ROT>
3

>  <SCORE.INTER.SOLV>
20.3673

>  <SCORE.INTER.VDW>
-17.8514

>  <SCORE.INTER.norm>
-0.372429

>  <SCORE.INTRA>
-0.998163

>  <SCORE.INTRA.DIHEDRAL>
-2.08867

>  <SCORE.INTRA.DIHEDRAL.0>
6.10773

>  <SCORE.INTRA.POLAR>
0

>  <SCORE.INTRA.POLAR.0>
0

>  <SCORE.INTRA.REPUL>
0

>  <SCORE.INTRA.REPUL.0>
0

>  <SCORE.INTRA.SOLV>
0.119497

>  <SCORE.INTRA.SOLV.lig_0>
-71.4024

>  <SCORE.INTRA.VDW>
-0.0135749

>  <SCORE.INTRA.VDW.0>
-1.86213

>  <SCORE.INTRA.norm>
-0.0453711

>  <SCORE.RESTR>
0.00740788

>  <SCORE.RESTR.CAVITY>
0.00740788

>  <SCORE.RESTR.norm>
0.000336722

>  <SCORE.SYSTEM>
0

>  <SCORE.SYSTEM.CONST>
0

>  <SCORE.SYSTEM.DIHEDRAL>
0

>  <SCORE.SYSTEM.SOLV>
0

>  <SCORE.SYSTEM.norm>
0

>  <SCORE.heavy>
22

>  <SCORE.norm>
-0.417464

>  <RMSD>
0.924

$$$$
lig.pdb
 OpenBabel11021811523D
libRbt.so/2013.1/901 2013/11/27
 22 23  0  0  0  0  0  0  0  0999 V2000
   -6.7429   -0.4268    0.2701 C   0  0  1  0  0  0  0  0  0  0  0  0
   -4.5393    0.1122    1.3859 C   0  0  1  0  0  0  0  0  0  0  0  0
   -4.6776    1.4577    2.2270 C   0  0  1  0  0  0  0  0  0  0  0  0
   -3.2349    2.1335    2.3114 C   0  0  2  0  0  0  0  0  0  0  0  0
   -8.0654   -1.2036    0.6409 C   0  0  1  0  0  0  0  0  0  0  0  0
   -7.7149   -2.6976    0.7877 C   0  0  2  0  0  0  0  0  0  0  0  0
   -7.1728   -3.2664   -0.5356 C   0  0  2  0  0  0  0  0  0  0  0  0
   -5.8675   -2.5146   -0.9862 C   0  0  1  0  0  0  0  0  0  0  0  0
   -5.3470   -3.0491   -2.3515 C   0  0  0  0  0  0  0  0  0  0  0  0
   -2.2316    1.1422    3.0944 C   0  0  1  0  0  0  0  0  0  0  0  0
   -2.1186   -0.2040    2.2177 C   0  0  0  0  0  0  0  0  0  0  0  0
   -3.5589   -0.8828    2.0846 C   0  0  2  0  0  0  0  0  0  0  0  0
   -8.1853   -3.1383   -1.5899 F   0  0  0  0  0  0  0  0  0  0  0  0
   -8.5984   -0.6193    1.9324 N   0  0  0  0  0  0  0  0  0  0  0  0
   -4.9061   -4.3922   -2.3344 N   0  0  0  0  0  0  0  0  0  0  0  0
   -0.8512    1.7296    3.1847 N   0  0  0  0  0  0  0  0  0  0  0  0
   -3.4484   -2.1156    1.2783 N   0  0  0  0  0  0  0  0  0  0  0  0
   -5.7988   -0.5354    1.2890 O   0  0  0  0  0  0  0  0  0  0  0  0
   -5.6070    2.3556    1.5013 O   0  0  0  0  0  0  0  0  0  0  0  0
   -3.3844    3.3133    3.0439 O   0  0  0  0  0  0  0  0  0  0  0  0
   -8.6807   -3.2622    1.0557 O   0  0  0  0  0  0  0  0  0  0  0  0
   -6.2150   -1.0156   -1.0356 O   0  0  0  0  0  0  0  0  0  0  0  0
  1  5  1  0  0  0  0
  1 18  1  1  0  0  0
  2 18  1  1  0  0  0
  2  3  1  0  0  0  0
  2 12  1  0  0  0  0
  3 19  1  6  0  0  0
  3  4  1  0  0  0  0
  4 20  1  1  0  0  0
  4 10  1  0  0  0  0
  5  6  1  0  0  0  0
  5 14  1  1  0  0  0
  6 21  1  6  0  0  0
  7 13  1  6  0  0  0
  7  6  1  0  0  0  0
  8  9  1  6  0  0  0
  8  7  1  0  0  0  0
 10 16  1  6  0  0  0
 11 10  1  0  0  0  0
 12 17  1  6  0  0  0
 12 11  1  0  0  0  0
 15  9  1  0  0  0  0
 22  8  1  0  0  0  0
 22  1  1  0  0  0  0
M  END
>  <CHROM.1>
-174.04666036,93.83331356,-65.36715479,-5.37899832,-0.78903870,0.84695814
2.22580021,-0.00473303,-2.49989313

>  <Name>
lig.pdb

>  <RI>
0

>  <Rbt.Current_Directory>
/home/itssahil/PROJECTS/Mol_Feturizer/New_Systems/rnas/5bws

>  <Rbt.Executable>
rbdock ($Id: //depot/dev/client3/rdock/2013.1/src/exe/rbdock.cxx#4 $)

>  <Rbt.Library>
libRbt.so (2013.1, Build901 2013/11/27)

>  <Rbt.Parameter_File>
/export/apps/rDock/src/rDock_2013.1_src/data/scripts/dock_solv.prm

>  <Rbt.Receptor>
prm/blind_docking_20.prm

>  <SCORE>
-9.16296

>  <SCORE.INTER>
-8.54219

>  <SCORE.INTER.CONST>
1

>  <SCORE.INTER.POLAR>
0

>  <SCORE.INTER.ROT>
3

>  <SCORE.INTER.SOLV>
20.3763

>  <SCORE.INTER.VDW>
-18.0869

>  <SCORE.INTER.norm>
-0.388281

>  <SCORE.INTRA>
-0.643359

>  <SCORE.INTRA.DIHEDRAL>
-1.51222

>  <SCORE.INTRA.DIHEDRAL.0>
6.10773

>  <SCORE.INTRA.POLAR>
0

>  <SCORE.INTRA.POLAR.0>
0

>  <SCORE.INTRA.REPUL>
0

>  <SCORE.INTRA.REPUL.0>
0

>  <SCORE.INTRA.SOLV>
0.434479

>  <SCORE.INTRA.SOLV.lig_0>
-71.4024

>  <SCORE.INTRA.VDW>
-0.104489

>  <SCORE.INTRA.VDW.0>
-1.86213

>  <SCORE.INTRA.norm>
-0.0292436

>  <SCORE.RESTR>
0.0225862

>  <SCORE.RESTR.CAVITY>
0.0225862

>  <SCORE.RESTR.norm>
0.00102665

>  <SCORE.SYSTEM>
0

>  <SCORE.SYSTEM.CONST>
0

>  <SCORE.SYSTEM.DIHEDRAL>
0

>  <SCORE.SYSTEM.SOLV>
0

>  <SCORE.SYSTEM.norm>
0

>  <SCORE.heavy>
22

>  <SCORE.norm>
-0.416498

>  <RMSD>
0.925

$$$$
lig.pdb
 OpenBabel11021811523D
libRbt.so/2013.1/901 2013/11/27
 22 23  0  0  0  0  0  0  0  0999 V2000
   -7.4574   -0.9685    0.1172 C   0  0  1  0  0  0  0  0  0  0  0  0
   -5.3569    0.0681    1.0681 C   0  0  1  0  0  0  0  0  0  0  0  0
   -5.8851    1.4292    1.7048 C   0  0  1  0  0  0  0  0  0  0  0  0
   -4.6678    2.4600    1.7373 C   0  0  2  0  0  0  0  0  0  0  0  0
   -8.5369   -2.0158    0.5948 C   0  0  1  0  0  0  0  0  0  0  0  0
   -7.8658   -3.4027    0.6436 C   0  0  2  0  0  0  0  0  0  0  0  0
   -7.3682   -3.8207   -0.7514 C   0  0  2  0  0  0  0  0  0  0  0  0
   -6.3091   -2.8001   -1.3075 C   0  0  1  0  0  0  0  0  0  0  0  0
   -5.8444   -3.1885   -2.7407 C   0  0  0  0  0  0  0  0  0  0  0  0
   -3.5017    1.8716    2.6839 C   0  0  1  0  0  0  0  0  0  0  0  0
   -2.9954    0.4987    2.0112 C   0  0  0  0  0  0  0  0  0  0  0  0
   -4.2062   -0.5406    1.9312 C   0  0  2  0  0  0  0  0  0  0  0  0
   -8.4967   -3.8942   -1.6864 F   0  0  0  0  0  0  0  0  0  0  0  0
   -9.0325   -1.5802    1.9579 N   0  0  0  0  0  0  0  0  0  0  0  0
   -5.2238   -4.4548   -2.8410 N   0  0  0  0  0  0  0  0  0  0  0  0
   -2.3227    2.8025    2.7328 N   0  0  0  0  0  0  0  0  0  0  0  0
   -3.7356   -1.7965    1.3119 N   0  0  0  0  0  0  0  0  0  0  0  0
   -6.4035   -0.8899    1.0250 O   0  0  0  0  0  0  0  0  0  0  0  0
   -6.9601    1.9547    0.8305 O   0  0  0  0  0  0  0  0  0  0  0  0
   -5.1579    3.6455    2.2899 O   0  0  0  0  0  0  0  0  0  0  0  0
   -8.6549   -4.1648    0.9898 O   0  0  0  0  0  0  0  0  0  0  0  0
   -6.9675   -1.4093   -1.2597 O   0  0  0  0  0  0  0  0  0  0  0  0
  1  5  1  0  0  0  0
  1 18  1  1  0  0  0
  2 18  1  1  0  0  0
  2  3  1  0  0  0  0
  2 12  1  0  0  0  0
  3 19  1  6  0  0  0
  3  4  1  0  0  0  0
  4 20  1  1  0  0  0
  4 10  1  0  0  0  0
  5  6  1  0  0  0  0
  5 14  1  1  0  0  0
  6 21  1  6  0  0  0
  7 13  1  6  0  0  0
  7  6  1  0  0  0  0
  8  9  1  6  0  0  0
  8  7  1  0  0  0  0
 10 16  1  6  0  0  0
 11 10  1  0  0  0  0
 12 17  1  6  0  0  0
 12 11  1  0  0  0  0
 15  9  1  0  0  0  0
 22  8  1  0  0  0  0
 22  1  1  0  0  0  0
M  END
>  <CHROM.1>
-169.18850057,77.96976099,-60.66660996,-6.10477607,-0.94638089,0.55436089
2.06103276,-0.19064901,-2.52941629

>  <Name>
lig.pdb

>  <RI>
0

>  <Rbt.Current_Directory>
/home/itssahil/PROJECTS/Mol_Feturizer/New_Systems/rnas/5bws

>  <Rbt.Executable>
rbdock ($Id: //depot/dev/client3/rdock/2013.1/src/exe/rbdock.cxx#4 $)

>  <Rbt.Library>
libRbt.so (2013.1, Build901 2013/11/27)

>  <Rbt.Parameter_File>
/export/apps/rDock/src/rDock_2013.1_src/data/scripts/dock_solv.prm

>  <Rbt.Receptor>
prm/pocket_docking_3.prm

>  <SCORE>
-11.4923

>  <SCORE.INTER>
-9.3599

>  <SCORE.INTER.CONST>
1

>  <SCORE.INTER.POLAR>
0

>  <SCORE.INTER.ROT>
3

>  <SCORE.INTER.SOLV>
20.8635

>  <SCORE.INTER.VDW>
-18.7944

>  <SCORE.INTER.norm>
-0.42545

>  <SCORE.INTRA>
-2.13241

>  <SCORE.INTRA.DIHEDRAL>
-4.06334

>  <SCORE.INTRA.DIHEDRAL.0>
6.10773

>  <SCORE.INTRA.POLAR>
0

>  <SCORE.INTRA.POLAR.0>
0

>  <SCORE.INTRA.REPUL>
0

>  <SCORE.INTRA.REPUL.0>
0

>  <SCORE.INTRA.SOLV>
-0.524784

>  <SCORE.INTRA.SOLV.lig_0>
-71.4024

>  <SCORE.INTRA.VDW>
0.161651

>  <SCORE.INTRA.VDW.0>
-1.86213

>  <SCORE.INTRA.norm>
-0.0969277

>  <SCORE.RESTR>
0

>  <SCORE.RESTR.CAVITY>
0

>  <SCORE.RESTR.norm>
0

>  <SCORE.SYSTEM>
0

>  <SCORE.SYSTEM.CONST>
0

>  <SCORE.SYSTEM.DIHEDRAL>
0

>  <SCORE.SYSTEM.SOLV>
0

>  <SCORE.SYSTEM.norm>
0

>  <SCORE.heavy>
22

>  <SCORE.norm>
-0.522378

>  <RMSD>
0.944

$$$$
lig.pdb
 OpenBabel11021811523D
libRbt.so/2013.1/901 2013/11/27
 22 23  0  0  0  0  0  0  0  0999 V2000
   -7.3648   -1.4479   -0.5970 C   0  0  1  0  0  0  0  0  0  0  0  0
   -5.4514   -0.2741    0.5660 C   0  0  1  0  0  0  0  0  0  0  0  0
   -6.0992    1.0735    1.1151 C   0  0  1  0  0  0  0  0  0  0  0  0
   -4.9361    2.1573    1.2491 C   0  0  2  0  0  0  0  0  0  0  0  0
   -8.6433   -2.2247   -0.0950 C   0  0  1  0  0  0  0  0  0  0  0  0
   -8.1987   -3.6280    0.3624 C   0  0  2  0  0  0  0  0  0  0  0  0
   -7.5802   -4.4156   -0.8063 C   0  0  2  0  0  0  0  0  0  0  0  0
   -6.3147   -3.6806   -1.3814 C   0  0  1  0  0  0  0  0  0  0  0  0
   -5.7188   -4.4448   -2.5987 C   0  0  0  0  0  0  0  0  0  0  0  0
   -3.8502    1.6377    2.3229 C   0  0  1  0  0  0  0  0  0  0  0  0
   -3.2200    0.2767    1.7361 C   0  0  0  0  0  0  0  0  0  0  0  0
   -4.3715   -0.8162    1.5555 C   0  0  2  0  0  0  0  0  0  0  0  0
   -8.5666   -4.5786   -1.8803 F   0  0  0  0  0  0  0  0  0  0  0  0
   -9.2528   -1.4279    1.0395 N   0  0  0  0  0  0  0  0  0  0  0  0
   -4.4205   -4.0348   -2.9795 N   0  0  0  0  0  0  0  0  0  0  0  0
   -2.7228    2.6203    2.4715 N   0  0  0  0  0  0  0  0  0  0  0  0
   -3.7872   -2.0609    1.0156 N   0  0  0  0  0  0  0  0  0  0  0  0
   -6.4468   -1.2779    0.4372 O   0  0  0  0  0  0  0  0  0  0  0  0
   -7.0994    1.5356    0.1239 O   0  0  0  0  0  0  0  0  0  0  0  0
   -5.5300    3.3297    1.7222 O   0  0  0  0  0  0  0  0  0  0  0  0
   -9.1325   -4.1932    0.7257 O   0  0  0  0  0  0  0  0  0  0  0  0
   -6.7596   -2.2522   -1.7446 O   0  0  0  0  0  0  0  0  0  0  0  0
  1  5  1  0  0  0  0
  1 18  1  1  0  0  0
  2 18  1  1  0  0  0
  2  3  1  0  0  0  0
  2 12  1  0  0  0  0
  3 19  1  6  0  0  0
  3  4  1  0  0  0  0
  4 20  1  1  0  0  0
  4 10  1  0  0  0  0
  5  6  1  0  0  0  0
  5 14  1  1  0  0  0
  6 21  1  6  0  0  0
  7 13  1  6  0  0  0
  7  6  1  0  0  0  0
  8  9  1  6  0  0  0
  8  7  1  0  0  0  0
 10 16  1  6  0  0  0
 11 10  1  0  0  0  0
 12 17  1  6  0  0  0
 12 11  1  0  0  0  0
 15  9  1  0  0  0  0
 22  8  1  0  0  0  0
 22  1  1  0  0  0  0
M  END
>  <CHROM.1>
-155.03998512,80.59860792,-166.02017126,-6.21845779,-1.31236807,0.15944179
2.02949272,-0.11721361,-2.61355960

>  <Name>
lig.pdb

>  <RI>
0

>  <Rbt.Current_Directory>
/home/itssahil/PROJECTS/Mol_Feturizer/New_Systems/rnas/5bws

>  <Rbt.Executable>
rbdock ($Id: //depot/dev/client3/rdock/2013.1/src/exe/rbdock.cxx#4 $)

>  <Rbt.Library>
libRbt.so (2013.1, Build901 2013/11/27)

>  <Rbt.Parameter_File>
/export/apps/rDock/src/rDock_2013.1_src/data/scripts/dock_solv.prm

>  <Rbt.Receptor>
prm/pocket_docking_2.prm

>  <SCORE>
-8.87701

>  <SCORE.INTER>
-8.19328

>  <SCORE.INTER.CONST>
1

>  <SCORE.INTER.POLAR>
0

>  <SCORE.INTER.ROT>
3

>  <SCORE.INTER.SOLV>
20.5979

>  <SCORE.INTER.VDW>
-17.9281

>  <SCORE.INTER.norm>
-0.372422

>  <SCORE.INTRA>
-0.683724

>  <SCORE.INTRA.DIHEDRAL>
-0.871871

>  <SCORE.INTRA.DIHEDRAL.0>
6.10773

>  <SCORE.INTRA.POLAR>
0

>  <SCORE.INTRA.POLAR.0>
0

>  <SCORE.INTRA.REPUL>
0

>  <SCORE.INTRA.REPUL.0>
0

>  <SCORE.INTRA.SOLV>
-0.657275

>  <SCORE.INTRA.SOLV.lig_0>
-71.4024

>  <SCORE.INTRA.VDW>
0.0808491

>  <SCORE.INTRA.VDW.0>
-1.86213

>  <SCORE.INTRA.norm>
-0.0310784

>  <SCORE.RESTR>
0

>  <SCORE.RESTR.CAVITY>
0

>  <SCORE.RESTR.norm>
0

>  <SCORE.SYSTEM>
0

>  <SCORE.SYSTEM.CONST>
0

>  <SCORE.SYSTEM.DIHEDRAL>
0

>  <SCORE.SYSTEM.SOLV>
0

>  <SCORE.SYSTEM.norm>
0

>  <SCORE.heavy>
22

>  <SCORE.norm>
-0.4035

>  <RMSD>
0.948

$$$$
lig.pdb
 OpenBabel11021811523D
libRbt.so/2013.1/901 2013/11/27
 22 23  0  0  0  0  0  0  0  0999 V2000
   -5.8039   -1.0796   -0.5553 C   0  0  1  0  0  0  0  0  0  0  0  0
   -4.0785   -0.1533    1.0435 C   0  0  1  0  0  0  0  0  0  0  0  0
   -4.5040    1.3466    1.3696 C   0  0  1  0  0  0  0  0  0  0  0  0
   -3.1855    2.1569    1.7572 C   0  0  2  0  0  0  0  0  0  0  0  0
   -7.2190   -1.7680   -0.4388 C   0  0  1  0  0  0  0  0  0  0  0  0
   -7.0162   -3.1759    0.1553 C   0  0  2  0  0  0  0  0  0  0  0  0
   -6.1319   -4.0370   -0.7638 C   0  0  2  0  0  0  0  0  0  0  0  0
   -4.7103   -3.3923   -0.9533 C   0  0  1  0  0  0  0  0  0  0  0  0
   -3.8318   -4.2307   -1.9260 C   0  0  0  0  0  0  0  0  0  0  0  0
   -2.5380    1.5093    3.0851 C   0  0  1  0  0  0  0  0  0  0  0  0
   -2.1232   -0.0031    2.7186 C   0  0  0  0  0  0  0  0  0  0  0  0
   -3.4218   -0.8290    2.2892 C   0  0  2  0  0  0  0  0  0  0  0  0
   -6.7676   -4.1852   -2.0780 F   0  0  0  0  0  0  0  0  0  0  0  0
   -8.0842   -0.8994    0.4503 N   0  0  0  0  0  0  0  0  0  0  0  0
   -4.3994   -4.4465   -3.2026 N   0  0  0  0  0  0  0  0  0  0  0  0
   -1.2802    2.2303    3.4812 N   0  0  0  0  0  0  0  0  0  0  0  0
   -3.0342   -2.2142    1.9528 N   0  0  0  0  0  0  0  0  0  0  0  0
   -5.2214   -0.9222    0.7005 O   0  0  0  0  0  0  0  0  0  0  0  0
   -5.1038    1.9269    0.1449 O   0  0  0  0  0  0  0  0  0  0  0  0
   -3.5833    3.4681    2.0288 O   0  0  0  0  0  0  0  0  0  0  0  0
   -8.0486   -3.6766    0.2372 O   0  0  0  0  0  0  0  0  0  0  0  0
   -4.9396   -1.9561   -1.4580 O   0  0  0  0  0  0  0  0  0  0  0  0
  1  5  1  0  0  0  0
  1 18  1  1  0  0  0
  2 18  1  1  0  0  0
  2  3  1  0  0  0  0
  2 12  1  0  0  0  0
  3 19  1  6  0  0  0
  3  4  1  0  0  0  0
  4 20  1  1  0  0  0
  4 10  1  0  0  0  0
  5  6  1  0  0  0  0
  5 14  1  1  0  0  0
  6 21  1  6  0  0  0
  7 13  1  6  0  0  0
  7  6  1  0  0  0  0
  8  9  1  6  0  0  0
  8  7  1  0  0  0  0
 10 16  1  6  0  0  0
 11 10  1  0  0  0  0
 12 17  1  6  0  0  0
 12 11  1  0  0  0  0
 15  9  1  0  0  0  0
 22  8  1  0  0  0  0
 22  1  1  0  0  0  0
M  END
>  <CHROM.1>
-168.17379886,87.45732648,56.19623866,-4.82197409,-1.13250751,0.40426624
2.03898604,0.19931059,-2.64379837

>  <Name>
lig.pdb

>  <RI>
0

>  <Rbt.Current_Directory>
/home/itssahil/PROJECTS/Mol_Feturizer/New_Systems/rnas/5bws

>  <Rbt.Executable>
rbdock ($Id: //depot/dev/client3/rdock/2013.1/src/exe/rbdock.cxx#4 $)

>  <Rbt.Library>
libRbt.so (2013.1, Build901 2013/11/27)

>  <Rbt.Parameter_File>
/export/apps/rDock/src/rDock_2013.1_src/data/scripts/dock_solv.prm

>  <Rbt.Receptor>
prm/blind_docking_20.prm

>  <SCORE>
-6.8244

>  <SCORE.INTER>
-6.53008

>  <SCORE.INTER.CONST>
1

>  <SCORE.INTER.POLAR>
0

>  <SCORE.INTER.ROT>
3

>  <SCORE.INTER.SOLV>
22.1601

>  <SCORE.INTER.VDW>
-17.3401

>  <SCORE.INTER.norm>
-0.296822

>  <SCORE.INTRA>
-0.409779

>  <SCORE.INTRA.DIHEDRAL>
-2.26381

>  <SCORE.INTRA.DIHEDRAL.0>
6.10773

>  <SCORE.INTRA.POLAR>
0

>  <SCORE.INTRA.POLAR.0>
0

>  <SCORE.INTRA.REPUL>
0

>  <SCORE.INTRA.REPUL.0>
0

>  <SCORE.INTRA.SOLV>
1.34132

>  <SCORE.INTRA.SOLV.lig_0>
-71.4024

>  <SCORE.INTRA.VDW>
0.0514698

>  <SCORE.INTRA.VDW.0>
-1.86213

>  <SCORE.INTRA.norm>
-0.0186263

>  <SCORE.RESTR>
0.11546

>  <SCORE.RESTR.CAVITY>
0.11546

>  <SCORE.RESTR.norm>
0.00524818

>  <SCORE.SYSTEM>
0

>  <SCORE.SYSTEM.CONST>
0

>  <SCORE.SYSTEM.DIHEDRAL>
0

>  <SCORE.SYSTEM.SOLV>
0

>  <SCORE.SYSTEM.norm>
0

>  <SCORE.heavy>
22

>  <SCORE.norm>
-0.3102

>  <RMSD>
0.949

$$$$
lig.pdb
 OpenBabel11021811523D
libRbt.so/2013.1/901 2013/11/27
 22 23  0  0  0  0  0  0  0  0999 V2000
   -7.4665   -0.9627    0.1232 C   0  0  1  0  0  0  0  0  0  0  0  0
   -5.3582    0.0689    1.0624 C   0  0  1  0  0  0  0  0  0  0  0  0
   -5.8823    1.4338    1.6945 C   0  0  1  0  0  0  0  0  0  0  0  0
   -4.6627    2.4619    1.7208 C   0  0  2  0  0  0  0  0  0  0  0  0
   -8.5383   -2.0186    0.5991 C   0  0  1  0  0  0  0  0  0  0  0  0
   -7.8609   -3.4029    0.6322 C   0  0  2  0  0  0  0  0  0  0  0  0
   -7.3705   -3.8073   -0.7694 C   0  0  2  0  0  0  0  0  0  0  0  0
   -6.3195   -2.7776   -1.3238 C   0  0  1  0  0  0  0  0  0  0  0  0
   -5.8623   -3.1521   -2.7631 C   0  0  0  0  0  0  0  0  0  0  0  0
   -3.4964    1.8747    2.6680 C   0  0  1  0  0  0  0  0  0  0  0  0
   -2.9943    0.4980    2.0001 C   0  0  0  0  0  0  0  0  0  0  0  0
   -4.2076   -0.5389    1.9261 C   0  0  2  0  0  0  0  0  0  0  0  0
   -8.5047   -3.8781   -1.6977 F   0  0  0  0  0  0  0  0  0  0  0  0
   -9.0270   -1.5964    1.9689 N   0  0  0  0  0  0  0  0  0  0  0  0
   -5.2023   -4.3976   -2.8713 N   0  0  0  0  0  0  0  0  0  0  0  0
   -2.3153    2.8031    2.7112 N   0  0  0  0  0  0  0  0  0  0  0  0
   -3.7409   -1.7984    1.3112 N   0  0  0  0  0  0  0  0  0  0  0  0
   -6.4071   -0.8869    1.0248 O   0  0  0  0  0  0  0  0  0  0  0  0
   -6.9576    1.9581    0.8197 O   0  0  0  0  0  0  0  0  0  0  0  0
   -5.1492    3.6508    2.2694 O   0  0  0  0  0  0  0  0  0  0  0  0
   -8.6445   -4.1713    0.9772 O   0  0  0  0  0  0  0  0  0  0  0  0
   -6.9835   -1.3900   -1.2604 O   0  0  0  0  0  0  0  0  0  0  0  0
  1  5  1  0  0  0  0
  1 18  1  1  0  0  0
  2 18  1  1  0  0  0
  2  3  1  0  0  0  0
  2 12  1  0  0  0  0
  3 19  1  6  0  0  0
  3  4  1  0  0  0  0
  4 20  1  1  0  0  0
  4 10  1  0  0  0  0
  5  6  1  0  0  0  0
  5 14  1  1  0  0  0
  6 21  1  6  0  0  0
  7 13  1  6  0  0  0
  7  6  1  0  0  0  0
  8  9  1  6  0  0  0
  8  7  1  0  0  0  0
 10 16  1  6  0  0  0
 11 10  1  0  0  0  0
 12 17  1  6  0  0  0
 12 11  1  0  0  0  0
 15  9  1  0  0  0  0
 22  8  1  0  0  0  0
 22  1  1  0  0  0  0
M  END
>  <CHROM.1>
-169.75768963,77.60366550,-62.41727600,-6.10493760,-0.93867582,0.54434684
2.06484954,-0.19846869,-2.52426254

>  <Name>
lig.pdb

>  <RI>
0

>  <Rbt.Current_Directory>
/home/itssahil/PROJECTS/Mol_Feturizer/New_Systems/rnas/5bws

>  <Rbt.Executable>
rbdock ($Id: //depot/dev/client3/rdock/2013.1/src/exe/rbdock.cxx#4 $)

>  <Rbt.Library>
libRbt.so (2013.1, Build901 2013/11/27)

>  <Rbt.Parameter_File>
/export/apps/rDock/src/rDock_2013.1_src/data/scripts/dock_solv.prm

>  <Rbt.Receptor>
prm/pocket_docking_3.prm

>  <SCORE>
-11.4979

>  <SCORE.INTER>
-9.28483

>  <SCORE.INTER.CONST>
1

>  <SCORE.INTER.POLAR>
0

>  <SCORE.INTER.ROT>
3

>  <SCORE.INTER.SOLV>
21.0886

>  <SCORE.INTER.VDW>
-18.8194

>  <SCORE.INTER.norm>
-0.422038

>  <SCORE.INTRA>
-2.2131

>  <SCORE.INTRA.DIHEDRAL>
-4.15519

>  <SCORE.INTRA.DIHEDRAL.0>
6.10773

>  <SCORE.INTRA.POLAR>
0

>  <SCORE.INTRA.POLAR.0>
0

>  <SCORE.INTRA.REPUL>
0

>  <SCORE.INTRA.REPUL.0>
0

>  <SCORE.INTRA.SOLV>
-0.594066

>  <SCORE.INTRA.SOLV.lig_0>
-71.4024

>  <SCORE.INTRA.VDW>
0.161523

>  <SCORE.INTRA.VDW.0>
-1.86213

>  <SCORE.INTRA.norm>
-0.100596

>  <SCORE.RESTR>
0

>  <SCORE.RESTR.CAVITY>
0

>  <SCORE.RESTR.norm>
0

>  <SCORE.SYSTEM>
0

>  <SCORE.SYSTEM.CONST>
0

>  <SCORE.SYSTEM.DIHEDRAL>
0

>  <SCORE.SYSTEM.SOLV>
0

>  <SCORE.SYSTEM.norm>
0

>  <SCORE.heavy>
22

>  <SCORE.norm>
-0.522633

>  <RMSD>
0.949

$$$$
lig.pdb
 OpenBabel11021811523D
libRbt.so/2013.1/901 2013/11/27
 22 23  0  0  0  0  0  0  0  0999 V2000
   -7.4037   -1.2579   -0.3243 C   0  0  1  0  0  0  0  0  0  0  0  0
   -5.4144   -0.1480    0.7721 C   0  0  1  0  0  0  0  0  0  0  0  0
   -6.0143    1.2035    1.3641 C   0  0  1  0  0  0  0  0  0  0  0  0
   -4.8260    2.2628    1.4686 C   0  0  2  0  0  0  0  0  0  0  0  0
   -8.5252   -2.2792    0.1109 C   0  0  1  0  0  0  0  0  0  0  0  0
   -7.8665   -3.6611    0.2917 C   0  0  2  0  0  0  0  0  0  0  0  0
   -7.2496   -4.1520   -1.0301 C   0  0  2  0  0  0  0  0  0  0  0  0
   -6.1417   -3.1615   -1.5436 C   0  0  1  0  0  0  0  0  0  0  0  0
   -5.5541   -3.6248   -2.9078 C   0  0  0  0  0  0  0  0  0  0  0  0
   -3.7106    1.7070    2.4929 C   0  0  1  0  0  0  0  0  0  0  0  0
   -3.1299    0.3430    1.8637 C   0  0  0  0  0  0  0  0  0  0  0  0
   -4.3086   -0.7250    1.7120 C   0  0  2  0  0  0  0  0  0  0  0  0
   -8.2917   -4.2756   -2.0557 F   0  0  0  0  0  0  0  0  0  0  0  0
   -9.1372   -1.7725    1.4001 N   0  0  0  0  0  0  0  0  0  0  0  0
   -4.8752   -4.8643   -2.8717 N   0  0  0  0  0  0  0  0  0  0  0  0
   -2.5593    2.6656    2.6120 N   0  0  0  0  0  0  0  0  0  0  0  0
   -3.7697   -1.9726    1.1330 N   0  0  0  0  0  0  0  0  0  0  0  0
   -6.4335   -1.1307    0.6674 O   0  0  0  0  0  0  0  0  0  0  0  0
   -7.0421    1.6990    0.4183 O   0  0  0  0  0  0  0  0  0  0  0  0
   -5.3784    3.4393    1.9803 O   0  0  0  0  0  0  0  0  0  0  0  0
   -8.6861   -4.4044    0.6067 O   0  0  0  0  0  0  0  0  0  0  0  0
   -6.7961   -1.7705   -1.6275 O   0  0  0  0  0  0  0  0  0  0  0  0
  1  5  1  0  0  0  0
  1 18  1  1  0  0  0
  2 18  1  1  0  0  0
  2  3  1  0  0  0  0
  2 12  1  0  0  0  0
  3 19  1  6  0  0  0
  3  4  1  0  0  0  0
  4 20  1  1  0  0  0
  4 10  1  0  0  0  0
  5  6  1  0  0  0  0
  5 14  1  1  0  0  0
  6 21  1  6  0  0  0
  7 13  1  6  0  0  0
  7  6  1  0  0  0  0
  8  9  1  6  0  0  0
  8  7  1  0  0  0  0
 10 16  1  6  0  0  0
 11 10  1  0  0  0  0
 12 17  1  6  0  0  0
 12 11  1  0  0  0  0
 15  9  1  0  0  0  0
 22  8  1  0  0  0  0
 22  1  1  0  0  0  0
M  END
>  <CHROM.1>
-167.22042341,79.70190158,-63.60770621,-6.10907382,-1.20706004,0.25552814
2.00128446,-0.12025280,-2.57691614

>  <Name>
lig.pdb

>  <RI>
0

>  <Rbt.Current_Directory>
/home/itssahil/PROJECTS/Mol_Feturizer/New_Systems/rnas/5bws

>  <Rbt.Executable>
rbdock ($Id: //depot/dev/client3/rdock/2013.1/src/exe/rbdock.cxx#4 $)

>  <Rbt.Library>
libRbt.so (2013.1, Build901 2013/11/27)

>  <Rbt.Parameter_File>
/export/apps/rDock/src/rDock_2013.1_src/data/scripts/dock_solv.prm

>  <Rbt.Receptor>
prm/pocket_docking_2.prm

>  <SCORE>
-11.442

>  <SCORE.INTER>
-9.5752

>  <SCORE.INTER.CONST>
1

>  <SCORE.INTER.POLAR>
0

>  <SCORE.INTER.ROT>
3

>  <SCORE.INTER.SOLV>
19.1647

>  <SCORE.INTER.VDW>
-18.3717

>  <SCORE.INTER.norm>
-0.435236

>  <SCORE.INTRA>
-1.8668

>  <SCORE.INTRA.DIHEDRAL>
-3.53098

>  <SCORE.INTRA.DIHEDRAL.0>
6.10773

>  <SCORE.INTRA.POLAR>
0

>  <SCORE.INTRA.POLAR.0>
0

>  <SCORE.INTRA.REPUL>
0

>  <SCORE.INTRA.REPUL.0>
0

>  <SCORE.INTRA.SOLV>
-0.463716

>  <SCORE.INTRA.SOLV.lig_0>
-71.4024

>  <SCORE.INTRA.VDW>
0.130551

>  <SCORE.INTRA.VDW.0>
-1.86213

>  <SCORE.INTRA.norm>
-0.0848544

>  <SCORE.RESTR>
0

>  <SCORE.RESTR.CAVITY>
0

>  <SCORE.RESTR.norm>
0

>  <SCORE.SYSTEM>
0

>  <SCORE.SYSTEM.CONST>
0

>  <SCORE.SYSTEM.DIHEDRAL>
0

>  <SCORE.SYSTEM.SOLV>
0

>  <SCORE.SYSTEM.norm>
0

>  <SCORE.heavy>
22

>  <SCORE.norm>
-0.520091

>  <RMSD>
0.950

$$$$
lig.pdb
 OpenBabel11021811523D
libRbt.so/2013.1/901 2013/11/27
 22 23  0  0  0  0  0  0  0  0999 V2000
   -7.4929   -0.9669    0.1240 C   0  0  1  0  0  0  0  0  0  0  0  0
   -5.3866    0.0705    1.0611 C   0  0  1  0  0  0  0  0  0  0  0  0
   -5.8948    1.4447    1.6860 C   0  0  1  0  0  0  0  0  0  0  0  0
   -4.6660    2.4620    1.6978 C   0  0  2  0  0  0  0  0  0  0  0  0
   -8.5636   -2.0247    0.5980 C   0  0  1  0  0  0  0  0  0  0  0  0
   -7.8782   -3.4045    0.6517 C   0  0  2  0  0  0  0  0  0  0  0  0
   -7.3698   -3.8190   -0.7405 C   0  0  2  0  0  0  0  0  0  0  0  0
   -6.3190   -2.7882   -1.2930 C   0  0  1  0  0  0  0  0  0  0  0  0
   -5.8435   -3.1735   -2.7235 C   0  0  0  0  0  0  0  0  0  0  0  0
   -3.4995    1.8714    2.6427 C   0  0  1  0  0  0  0  0  0  0  0  0
   -3.0136    0.4853    1.9822 C   0  0  0  0  0  0  0  0  0  0  0  0
   -4.2365   -0.5412    1.9228 C   0  0  2  0  0  0  0  0  0  0  0  0
   -8.4932   -3.9055   -1.6806 F   0  0  0  0  0  0  0  0  0  0  0  0
   -9.0701   -1.5927    1.9582 N   0  0  0  0  0  0  0  0  0  0  0  0
   -5.1785   -4.4177   -2.8132 N   0  0  0  0  0  0  0  0  0  0  0  0
   -2.3100    2.7894    2.6724 N   0  0  0  0  0  0  0  0  0  0  0  0
   -3.7845   -1.8093    1.3146 N   0  0  0  0  0  0  0  0  0  0  0  0
   -6.4441   -0.8761    1.0365 O   0  0  0  0  0  0  0  0  0  0  0  0
   -6.9704    1.9722    0.8134 O   0  0  0  0  0  0  0  0  0  0  0  0
   -5.1387    3.6592    2.2402 O   0  0  0  0  0  0  0  0  0  0  0  0
   -8.6610   -4.1744    0.9952 O   0  0  0  0  0  0  0  0  0  0  0  0
   -6.9920   -1.4042   -1.2500 O   0  0  0  0  0  0  0  0  0  0  0  0
  1  5  1  0  0  0  0
  1 18  1  1  0  0  0
  2 18  1  1  0  0  0
  2  3  1  0  0  0  0
  2 12  1  0  0  0  0
  3 19  1  6  0  0  0
  3  4  1  0  0  0  0
  4 20  1  1  0  0  0
  4 10  1  0  0  0  0
  5  6  1  0  0  0  0
  5 14  1  1  0  0  0
  6 21  1  6  0  0  0
  7 13  1  6  0  0  0
  7  6  1  0  0  0  0
  8  9  1  6  0  0  0
  8  7  1  0  0  0  0
 10 16  1  6  0  0  0
 11 10  1  0  0  0  0
 12 17  1  6  0  0  0
 12 11  1  0  0  0  0
 15  9  1  0  0  0  0
 22  8  1  0  0  0  0
 22  1  1  0  0  0  0
M  END
>  <CHROM.1>
-171.13144340,79.16166979,-62.23265603,-6.11609792,-0.94400808,0.54785700
2.06515680,-0.19540107,-2.53508985

>  <Name>
lig.pdb

>  <RI>
0

>  <Rbt.Current_Directory>
/home/itssahil/PROJECTS/Mol_Feturizer/New_Systems/rnas/5bws

>  <Rbt.Executable>
rbdock ($Id: //depot/dev/client3/rdock/2013.1/src/exe/rbdock.cxx#4 $)

>  <Rbt.Library>
libRbt.so (2013.1, Build901 2013/11/27)

>  <Rbt.Parameter_File>
/export/apps/rDock/src/rDock_2013.1_src/data/scripts/dock_solv.prm

>  <Rbt.Receptor>
prm/pocket_docking_4.prm

>  <SCORE>
-11.4725

>  <SCORE.INTER>
-9.31231

>  <SCORE.INTER.CONST>
1

>  <SCORE.INTER.POLAR>
0

>  <SCORE.INTER.ROT>
3

>  <SCORE.INTER.SOLV>
20.7853

>  <SCORE.INTER.VDW>
-18.7367

>  <SCORE.INTER.norm>
-0.423287

>  <SCORE.INTRA>
-2.16017

>  <SCORE.INTRA.DIHEDRAL>
-4.04168

>  <SCORE.INTRA.DIHEDRAL.0>
6.10773

>  <SCORE.INTRA.POLAR>
0

>  <SCORE.INTRA.POLAR.0>
0

>  <SCORE.INTRA.REPUL>
0

>  <SCORE.INTRA.REPUL.0>
0

>  <SCORE.INTRA.SOLV>
-0.551504

>  <SCORE.INTRA.SOLV.lig_0>
-71.4024

>  <SCORE.INTRA.VDW>
0.136425

>  <SCORE.INTRA.VDW.0>
-1.86213

>  <SCORE.INTRA.norm>
-0.0981894

>  <SCORE.RESTR>
0

>  <SCORE.RESTR.CAVITY>
0

>  <SCORE.RESTR.norm>
0

>  <SCORE.SYSTEM>
0

>  <SCORE.SYSTEM.CONST>
0

>  <SCORE.SYSTEM.DIHEDRAL>
0

>  <SCORE.SYSTEM.SOLV>
0

>  <SCORE.SYSTEM.norm>
0

>  <SCORE.heavy>
22

>  <SCORE.norm>
-0.521476

>  <RMSD>
0.950

$$$$
lig.pdb
 OpenBabel11021811523D
libRbt.so/2013.1/901 2013/11/27
 22 23  0  0  0  0  0  0  0  0999 V2000
   -7.4079   -1.2628   -0.3285 C   0  0  1  0  0  0  0  0  0  0  0  0
   -5.4157   -0.1486    0.7581 C   0  0  1  0  0  0  0  0  0  0  0  0
   -6.0092    1.1950    1.3741 C   0  0  1  0  0  0  0  0  0  0  0  0
   -4.8219    2.2562    1.4710 C   0  0  2  0  0  0  0  0  0  0  0  0
   -8.5263   -2.2849    0.1128 C   0  0  1  0  0  0  0  0  0  0  0  0
   -7.8649   -3.6657    0.2932 C   0  0  2  0  0  0  0  0  0  0  0  0
   -7.2525   -4.1578   -1.0301 C   0  0  2  0  0  0  0  0  0  0  0  0
   -6.1480   -3.1666   -1.5496 C   0  0  1  0  0  0  0  0  0  0  0  0
   -5.5651   -3.6313   -2.9153 C   0  0  0  0  0  0  0  0  0  0  0  0
   -3.6889    1.6922    2.4713 C   0  0  1  0  0  0  0  0  0  0  0  0
   -3.1152    0.3365    1.8183 C   0  0  0  0  0  0  0  0  0  0  0  0
   -4.2936   -0.7328    1.6741 C   0  0  2  0  0  0  0  0  0  0  0  0
   -8.2985   -4.2845   -2.0515 F   0  0  0  0  0  0  0  0  0  0  0  0
   -9.1339   -1.7770    1.4036 N   0  0  0  0  0  0  0  0  0  0  0  0
   -4.8693   -4.8613   -2.8764 N   0  0  0  0  0  0  0  0  0  0  0  0
   -2.5381    2.6524    2.5823 N   0  0  0  0  0  0  0  0  0  0  0  0
   -3.7611   -1.9728    1.0732 N   0  0  0  0  0  0  0  0  0  0  0  0
   -6.4340   -1.1326    0.6592 O   0  0  0  0  0  0  0  0  0  0  0  0
   -7.0532    1.6980    0.4502 O   0  0  0  0  0  0  0  0  0  0  0  0
   -5.3687    3.4257    2.0040 O   0  0  0  0  0  0  0  0  0  0  0  0
   -8.6822   -4.4096    0.6126 O   0  0  0  0  0  0  0  0  0  0  0  0
   -6.8048   -1.7767   -1.6332 O   0  0  0  0  0  0  0  0  0  0  0  0
  1  5  1  0  0  0  0
  1 18  1  1  0  0  0
  2 18  1  1  0  0  0
  2  3  1  0  0  0  0
  2 12  1  0  0  0  0
  3 19  1  6  0  0  0
  3  4  1  0  0  0  0
  4 20  1  1  0  0  0
  4 10  1  0  0  0  0
  5  6  1  0  0  0  0
  5 14  1  1  0  0  0
  6 21  1  6  0  0  0
  7 13  1  6  0  0  0
  7  6  1  0  0  0  0
  8  9  1  6  0  0  0
  8  7  1  0  0  0  0
 10 16  1  6  0  0  0
 11 10  1  0  0  0  0
 12 17  1  6  0  0  0
 12 11  1  0  0  0  0
 15  9  1  0  0  0  0
 22  8  1  0  0  0  0
 22  1  1  0  0  0  0
M  END
>  <CHROM.1>
-167.23775461,80.70216651,-64.39922904,-6.10661171,-1.21295159,0.24898110
2.00369119,-0.12693269,-2.57481978

>  <Name>
lig.pdb

>  <RI>
0

>  <Rbt.Current_Directory>
/home/itssahil/PROJECTS/Mol_Feturizer/New_Systems/rnas/5bws

>  <Rbt.Executable>
rbdock ($Id: //depot/dev/client3/rdock/2013.1/src/exe/rbdock.cxx#4 $)

>  <Rbt.Library>
libRbt.so (2013.1, Build901 2013/11/27)

>  <Rbt.Parameter_File>
/export/apps/rDock/src/rDock_2013.1_src/data/scripts/dock_solv.prm

>  <Rbt.Receptor>
prm/pocket_docking_2.prm

>  <SCORE>
-11.4562

>  <SCORE.INTER>
-9.68465

>  <SCORE.INTER.CONST>
1

>  <SCORE.INTER.POLAR>
0

>  <SCORE.INTER.ROT>
3

>  <SCORE.INTER.SOLV>
19.2028

>  <SCORE.INTER.VDW>
-18.4574

>  <SCORE.INTER.norm>
-0.440211

>  <SCORE.INTRA>
-1.77159

>  <SCORE.INTRA.DIHEDRAL>
-3.34601

>  <SCORE.INTRA.DIHEDRAL.0>
6.10773

>  <SCORE.INTRA.POLAR>
0

>  <SCORE.INTRA.POLAR.0>
0

>  <SCORE.INTRA.REPUL>
0

>  <SCORE.INTRA.REPUL.0>
0

>  <SCORE.INTRA.SOLV>
-0.426004

>  <SCORE.INTRA.SOLV.lig_0>
-71.4024

>  <SCORE.INTRA.VDW>
0.114419

>  <SCORE.INTRA.VDW.0>
-1.86213

>  <SCORE.INTRA.norm>
-0.0805266

>  <SCORE.RESTR>
0

>  <SCORE.RESTR.CAVITY>
0

>  <SCORE.RESTR.norm>
0

>  <SCORE.SYSTEM>
0

>  <SCORE.SYSTEM.CONST>
0

>  <SCORE.SYSTEM.DIHEDRAL>
0

>  <SCORE.SYSTEM.SOLV>
0

>  <SCORE.SYSTEM.norm>
0

>  <SCORE.heavy>
22

>  <SCORE.norm>
-0.520738

>  <RMSD>
0.951

$$$$
lig.pdb
 OpenBabel11021811523D
libRbt.so/2013.1/901 2013/11/27
 22 23  0  0  0  0  0  0  0  0999 V2000
   -7.4781   -0.9767    0.1122 C   0  0  1  0  0  0  0  0  0  0  0  0
   -5.3816    0.0725    1.0583 C   0  0  1  0  0  0  0  0  0  0  0  0
   -5.9067    1.4357    1.6931 C   0  0  1  0  0  0  0  0  0  0  0  0
   -4.6893    2.4666    1.7159 C   0  0  2  0  0  0  0  0  0  0  0  0
   -8.5499   -2.0321    0.5891 C   0  0  1  0  0  0  0  0  0  0  0  0
   -7.8665   -3.4128    0.6448 C   0  0  2  0  0  0  0  0  0  0  0  0
   -7.3599   -3.8307   -0.7470 C   0  0  2  0  0  0  0  0  0  0  0  0
   -6.3080   -2.8024   -1.3023 C   0  0  1  0  0  0  0  0  0  0  0  0
   -5.8344   -3.1911   -2.7325 C   0  0  0  0  0  0  0  0  0  0  0  0
   -3.5184    1.8816    2.6587 C   0  0  1  0  0  0  0  0  0  0  0  0
   -3.0154    0.5064    1.9882 C   0  0  0  0  0  0  0  0  0  0  0  0
   -4.2266   -0.5333    1.9177 C   0  0  2  0  0  0  0  0  0  0  0  0
   -8.4842   -3.9172   -1.6860 F   0  0  0  0  0  0  0  0  0  0  0  0
   -9.0546   -1.5967    1.9490 N   0  0  0  0  0  0  0  0  0  0  0  0
   -5.1730   -4.4375   -2.8208 N   0  0  0  0  0  0  0  0  0  0  0  0
   -2.3394    2.8126    2.6985 N   0  0  0  0  0  0  0  0  0  0  0  0
   -3.7590   -1.7912    1.3004 N   0  0  0  0  0  0  0  0  0  0  0  0
   -6.4283   -0.8858    1.0237 O   0  0  0  0  0  0  0  0  0  0  0  0
   -6.9861    1.9581    0.8223 O   0  0  0  0  0  0  0  0  0  0  0  0
   -5.1768    3.6540    2.2669 O   0  0  0  0  0  0  0  0  0  0  0  0
   -8.6501   -4.1808    0.9905 O   0  0  0  0  0  0  0  0  0  0  0  0
   -6.9790   -1.4174   -1.2614 O   0  0  0  0  0  0  0  0  0  0  0  0
  1  5  1  0  0  0  0
  1 18  1  1  0  0  0
  2 18  1  1  0  0  0
  2  3  1  0  0  0  0
  2 12  1  0  0  0  0
  3 19  1  6  0  0  0
  3  4  1  0  0  0  0
  4 20  1  1  0  0  0
  4 10  1  0  0  0  0
  5  6  1  0  0  0  0
  5 14  1  1  0  0  0
  6 21  1  6  0  0  0
  7 13  1  6  0  0  0
  7  6  1  0  0  0  0
  8  9  1  6  0  0  0
  8  7  1  0  0  0  0
 10 16  1  6  0  0  0
 11 10  1  0  0  0  0
 12 17  1  6  0  0  0
 12 11  1  0  0  0  0
 15  9  1  0  0  0  0
 22  8  1  0  0  0  0
 22  1  1  0  0  0  0
M  END
>  <CHROM.1>
-170.00412170,78.78655126,-62.14231905,-6.11427110,-0.94774317,0.54709613
2.05833200,-0.19437473,-2.53433498

>  <Name>
lig.pdb

>  <RI>
0

>  <Rbt.Current_Directory>
/home/itssahil/PROJECTS/Mol_Feturizer/New_Systems/rnas/5bws

>  <Rbt.Executable>
rbdock ($Id: //depot/dev/client3/rdock/2013.1/src/exe/rbdock.cxx#4 $)

>  <Rbt.Library>
libRbt.so (2013.1, Build901 2013/11/27)

>  <Rbt.Parameter_File>
/export/apps/rDock/src/rDock_2013.1_src/data/scripts/dock_solv.prm

>  <Rbt.Receptor>
prm/pocket_docking_5.prm

>  <SCORE>
-11.4935

>  <SCORE.INTER>
-9.36609

>  <SCORE.INTER.CONST>
1

>  <SCORE.INTER.POLAR>
0

>  <SCORE.INTER.ROT>
3

>  <SCORE.INTER.SOLV>
20.7477

>  <SCORE.INTER.VDW>
-18.7599

>  <SCORE.INTER.norm>
-0.425731

>  <SCORE.INTRA>
-2.12744

>  <SCORE.INTRA.DIHEDRAL>
-4.00163

>  <SCORE.INTRA.DIHEDRAL.0>
6.10773

>  <SCORE.INTRA.POLAR>
0

>  <SCORE.INTRA.POLAR.0>
0

>  <SCORE.INTRA.REPUL>
0

>  <SCORE.INTRA.REPUL.0>
0

>  <SCORE.INTRA.SOLV>
-0.541227

>  <SCORE.INTRA.SOLV.lig_0>
-71.4024

>  <SCORE.INTRA.VDW>
0.143988

>  <SCORE.INTRA.VDW.0>
-1.86213

>  <SCORE.INTRA.norm>
-0.0967017

>  <SCORE.RESTR>
0

>  <SCORE.RESTR.CAVITY>
0

>  <SCORE.RESTR.norm>
0

>  <SCORE.SYSTEM>
0

>  <SCORE.SYSTEM.CONST>
0

>  <SCORE.SYSTEM.DIHEDRAL>
0

>  <SCORE.SYSTEM.SOLV>
0

>  <SCORE.SYSTEM.norm>
0

>  <SCORE.heavy>
22

>  <SCORE.norm>
-0.522433

>  <RMSD>
0.951

$$$$
lig.pdb
 OpenBabel11021811523D
libRbt.so/2013.1/901 2013/11/27
 22 23  0  0  0  0  0  0  0  0999 V2000
   -7.3467   -1.4566   -0.6137 C   0  0  1  0  0  0  0  0  0  0  0  0
   -5.4384   -0.2823    0.5569 C   0  0  1  0  0  0  0  0  0  0  0  0
   -6.1014    1.0731    1.0671 C   0  0  1  0  0  0  0  0  0  0  0  0
   -4.9436    2.1613    1.2109 C   0  0  2  0  0  0  0  0  0  0  0  0
   -8.6319   -2.2216   -0.1105 C   0  0  1  0  0  0  0  0  0  0  0  0
   -8.1988   -3.6268    0.3525 C   0  0  2  0  0  0  0  0  0  0  0  0
   -7.5850   -4.4233   -0.8126 C   0  0  2  0  0  0  0  0  0  0  0  0
   -6.3132   -3.7003   -1.3888 C   0  0  1  0  0  0  0  0  0  0  0  0
   -5.7217   -4.4734   -2.6025 C   0  0  0  0  0  0  0  0  0  0  0  0
   -3.8833    1.6621    2.3193 C   0  0  1  0  0  0  0  0  0  0  0  0
   -3.2369    0.2927    1.7712 C   0  0  0  0  0  0  0  0  0  0  0  0
   -4.3819   -0.8054    1.5814 C   0  0  2  0  0  0  0  0  0  0  0  0
   -8.5713   -4.5825   -1.8873 F   0  0  0  0  0  0  0  0  0  0  0  0
   -9.2366   -1.4161    1.0204 N   0  0  0  0  0  0  0  0  0  0  0  0
   -4.4130   -4.0871   -2.9721 N   0  0  0  0  0  0  0  0  0  0  0  0
   -2.7613    2.6493    2.4786 N   0  0  0  0  0  0  0  0  0  0  0  0
   -3.7827   -2.0579    1.0770 N   0  0  0  0  0  0  0  0  0  0  0  0
   -6.4288   -1.2901    0.4211 O   0  0  0  0  0  0  0  0  0  0  0  0
   -7.0780    1.5164    0.0443 O   0  0  0  0  0  0  0  0  0  0  0  0
   -5.5506    3.3404    1.6495 O   0  0  0  0  0  0  0  0  0  0  0  0
   -9.1374   -4.1834    0.7167 O   0  0  0  0  0  0  0  0  0  0  0  0
   -6.7465   -2.2698   -1.7576 O   0  0  0  0  0  0  0  0  0  0  0  0
  1  5  1  0  0  0  0
  1 18  1  1  0  0  0
  2 18  1  1  0  0  0
  2  3  1  0  0  0  0
  2 12  1  0  0  0  0
  3 19  1  6  0  0  0
  3  4  1  0  0  0  0
  4 20  1  1  0  0  0
  4 10  1  0  0  0  0
  5  6  1  0  0  0  0
  5 14  1  1  0  0  0
  6 21  1  6  0  0  0
  7 13  1  6  0  0  0
  7  6  1  0  0  0  0
  8  9  1  6  0  0  0
  8  7  1  0  0  0  0
 10 16  1  6  0  0  0
 11 10  1  0  0  0  0
 12 17  1  6  0  0  0
 12 11  1  0  0  0  0
 15  9  1  0  0  0  0
 22  8  1  0  0  0  0
 22  1  1  0  0  0  0
M  END
>  <CHROM.1>
-154.04750729,78.56892263,-165.22553079,-6.21928917,-1.31503078,0.14787112
2.02508580,-0.10792277,-2.62063393

>  <Name>
lig.pdb

>  <RI>
0

>  <Rbt.Current_Directory>
/home/itssahil/PROJECTS/Mol_Feturizer/New_Systems/rnas/5bws

>  <Rbt.Executable>
rbdock ($Id: //depot/dev/client3/rdock/2013.1/src/exe/rbdock.cxx#4 $)

>  <Rbt.Library>
libRbt.so (2013.1, Build901 2013/11/27)

>  <Rbt.Parameter_File>
/export/apps/rDock/src/rDock_2013.1_src/data/scripts/dock_solv.prm

>  <Rbt.Receptor>
prm/pocket_docking_2.prm

>  <SCORE>
-8.91458

>  <SCORE.INTER>
-8.19912

>  <SCORE.INTER.CONST>
1

>  <SCORE.INTER.POLAR>
0

>  <SCORE.INTER.ROT>
3

>  <SCORE.INTER.SOLV>
20.4382

>  <SCORE.INTER.VDW>
-17.8788

>  <SCORE.INTER.norm>
-0.372687

>  <SCORE.INTRA>
-0.715454

>  <SCORE.INTRA.DIHEDRAL>
-0.941823

>  <SCORE.INTRA.DIHEDRAL.0>
6.10773

>  <SCORE.INTRA.POLAR>
0

>  <SCORE.INTRA.POLAR.0>
0

>  <SCORE.INTRA.REPUL>
0

>  <SCORE.INTRA.REPUL.0>
0

>  <SCORE.INTRA.SOLV>
-0.70924

>  <SCORE.INTRA.SOLV.lig_0>
-71.4024

>  <SCORE.INTRA.VDW>
0.110077

>  <SCORE.INTRA.VDW.0>
-1.86213

>  <SCORE.INTRA.norm>
-0.0325206

>  <SCORE.RESTR>
0

>  <SCORE.RESTR.CAVITY>
0

>  <SCORE.RESTR.norm>
0

>  <SCORE.SYSTEM>
0

>  <SCORE.SYSTEM.CONST>
0

>  <SCORE.SYSTEM.DIHEDRAL>
0

>  <SCORE.SYSTEM.SOLV>
0

>  <SCORE.SYSTEM.norm>
0

>  <SCORE.heavy>
22

>  <SCORE.norm>
-0.405208

>  <RMSD>
0.953

$$$$
lig.pdb
 OpenBabel11021811523D
libRbt.so/2013.1/901 2013/11/27
 22 23  0  0  0  0  0  0  0  0999 V2000
   -7.4212   -1.2492   -0.2894 C   0  0  1  0  0  0  0  0  0  0  0  0
   -5.4211   -0.1333    0.7809 C   0  0  1  0  0  0  0  0  0  0  0  0
   -6.0104    1.2141    1.3928 C   0  0  1  0  0  0  0  0  0  0  0  0
   -4.8215    2.2744    1.4789 C   0  0  2  0  0  0  0  0  0  0  0  0
   -8.5275   -2.2834    0.1540 C   0  0  1  0  0  0  0  0  0  0  0  0
   -7.8531   -3.6595    0.3211 C   0  0  2  0  0  0  0  0  0  0  0  0
   -7.2466   -4.1385   -1.0098 C   0  0  2  0  0  0  0  0  0  0  0  0
   -6.1545   -3.1349   -1.5316 C   0  0  1  0  0  0  0  0  0  0  0  0
   -5.5780   -3.5864   -2.9044 C   0  0  0  0  0  0  0  0  0  0  0  0
   -3.6846    1.7143    2.4768 C   0  0  1  0  0  0  0  0  0  0  0  0
   -3.1153    0.3546    1.8281 C   0  0  0  0  0  0  0  0  0  0  0  0
   -4.2955   -0.7141    1.6947 C   0  0  2  0  0  0  0  0  0  0  0  0
   -8.2992   -4.2680   -2.0240 F   0  0  0  0  0  0  0  0  0  0  0  0
   -9.1296   -1.7885    1.4524 N   0  0  0  0  0  0  0  0  0  0  0  0
   -4.8739   -4.8120   -2.8787 N   0  0  0  0  0  0  0  0  0  0  0  0
   -2.5322    2.6737    2.5777 N   0  0  0  0  0  0  0  0  0  0  0  0
   -3.7671   -1.9577    1.0976 N   0  0  0  0  0  0  0  0  0  0  0  0
   -6.4409   -1.1167    0.6917 O   0  0  0  0  0  0  0  0  0  0  0  0
   -7.0580    1.7135    0.4712 O   0  0  0  0  0  0  0  0  0  0  0  0
   -5.3646    3.4472    2.0085 O   0  0  0  0  0  0  0  0  0  0  0  0
   -8.6617   -4.4123    0.6421 O   0  0  0  0  0  0  0  0  0  0  0  0
   -6.8236   -1.7501   -1.6017 O   0  0  0  0  0  0  0  0  0  0  0  0
  1  5  1  0  0  0  0
  1 18  1  1  0  0  0
  2 18  1  1  0  0  0
  2  3  1  0  0  0  0
  2 12  1  0  0  0  0
  3 19  1  6  0  0  0
  3  4  1  0  0  0  0
  4 20  1  1  0  0  0
  4 10  1  0  0  0  0
  5  6  1  0  0  0  0
  5 14  1  1  0  0  0
  6 21  1  6  0  0  0
  7 13  1  6  0  0  0
  7  6  1  0  0  0  0
  8  9  1  6  0  0  0
  8  7  1  0  0  0  0
 10 16  1  6  0  0  0
 11 10  1  0  0  0  0
 12 17  1  6  0  0  0
 12 11  1  0  0  0  0
 15  9  1  0  0  0  0
 22  8  1  0  0  0  0
 22  1  1  0  0  0  0
M  END
>  <CHROM.1>
-168.00034018,80.56253910,-64.27486291,-6.10785932,-1.19500755,0.26984744
2.00579816,-0.13700333,-2.57249106

>  <Name>
lig.pdb

>  <RI>
0

>  <Rbt.Current_Directory>
/home/itssahil/PROJECTS/Mol_Feturizer/New_Systems/rnas/5bws

>  <Rbt.Executable>
rbdock ($Id: //depot/dev/client3/rdock/2013.1/src/exe/rbdock.cxx#4 $)

>  <Rbt.Library>
libRbt.so (2013.1, Build901 2013/11/27)

>  <Rbt.Parameter_File>
/export/apps/rDock/src/rDock_2013.1_src/data/scripts/dock_solv.prm

>  <Rbt.Receptor>
prm/pocket_docking_2.prm

>  <SCORE>
-11.4018

>  <SCORE.INTER>
-9.56236

>  <SCORE.INTER.CONST>
1

>  <SCORE.INTER.POLAR>
0

>  <SCORE.INTER.ROT>
3

>  <SCORE.INTER.SOLV>
19.3684

>  <SCORE.INTER.VDW>
-18.431

>  <SCORE.INTER.norm>
-0.434653

>  <SCORE.INTRA>
-1.83942

>  <SCORE.INTRA.DIHEDRAL>
-3.45987

>  <SCORE.INTRA.DIHEDRAL.0>
6.10773

>  <SCORE.INTRA.POLAR>
0

>  <SCORE.INTRA.POLAR.0>
0

>  <SCORE.INTRA.REPUL>
0

>  <SCORE.INTRA.REPUL.0>
0

>  <SCORE.INTRA.SOLV>
-0.450389

>  <SCORE.INTRA.SOLV.lig_0>
-71.4024

>  <SCORE.INTRA.VDW>
0.115712

>  <SCORE.INTRA.VDW.0>
-1.86213

>  <SCORE.INTRA.norm>
-0.0836098

>  <SCORE.RESTR>
0

>  <SCORE.RESTR.CAVITY>
0

>  <SCORE.RESTR.norm>
0

>  <SCORE.SYSTEM>
0

>  <SCORE.SYSTEM.CONST>
0

>  <SCORE.SYSTEM.DIHEDRAL>
0

>  <SCORE.SYSTEM.SOLV>
0

>  <SCORE.SYSTEM.norm>
0

>  <SCORE.heavy>
22

>  <SCORE.norm>
-0.518263

>  <RMSD>
0.953

$$$$
lig.pdb
 OpenBabel11021811523D
libRbt.so/2013.1/901 2013/11/27
 22 23  0  0  0  0  0  0  0  0999 V2000
   -6.4879   -0.4846    0.1715 C   0  0  1  0  0  0  0  0  0  0  0  0
   -4.3940    0.1333    1.4464 C   0  0  1  0  0  0  0  0  0  0  0  0
   -4.6118    1.5166    2.2054 C   0  0  1  0  0  0  0  0  0  0  0  0
   -3.1856    2.2098    2.3799 C   0  0  2  0  0  0  0  0  0  0  0  0
   -7.8676   -1.1790    0.4944 C   0  0  1  0  0  0  0  0  0  0  0  0
   -7.5925   -2.6640    0.8031 C   0  0  2  0  0  0  0  0  0  0  0  0
   -6.9666   -3.3702   -0.4126 C   0  0  2  0  0  0  0  0  0  0  0  0
   -5.5984   -2.7074   -0.8139 C   0  0  1  0  0  0  0  0  0  0  0  0
   -4.9890   -3.3826   -2.0762 C   0  0  0  0  0  0  0  0  0  0  0  0
   -2.2479    1.2676    3.2938 C   0  0  1  0  0  0  0  0  0  0  0  0
   -2.0523   -0.1184    2.4972 C   0  0  0  0  0  0  0  0  0  0  0  0
   -3.4719   -0.8169    2.2746 C   0  0  2  0  0  0  0  0  0  0  0  0
   -7.8820   -3.3058   -1.5576 F   0  0  0  0  0  0  0  0  0  0  0  0
   -8.4812   -0.4606    1.6780 N   0  0  0  0  0  0  0  0  0  0  0  0
   -5.7703   -3.2644   -3.2485 N   0  0  0  0  0  0  0  0  0  0  0  0
   -0.8837    1.8722    3.4732 N   0  0  0  0  0  0  0  0  0  0  0  0
   -3.2854   -2.0862    1.5422 N   0  0  0  0  0  0  0  0  0  0  0  0
   -5.6368   -0.5305    1.2737 O   0  0  0  0  0  0  0  0  0  0  0  0
   -5.4802    2.3691    1.3595 O   0  0  0  0  0  0  0  0  0  0  0  0
   -3.4043    3.4222    3.0381 O   0  0  0  0  0  0  0  0  0  0  0  0
   -8.5997   -3.1687    1.0360 O   0  0  0  0  0  0  0  0  0  0  0  0
   -5.8784   -1.2085   -1.0262 O   0  0  0  0  0  0  0  0  0  0  0  0
  1  5  1  0  0  0  0
  1 18  1  1  0  0  0
  2 18  1  1  0  0  0
  2  3  1  0  0  0  0
  2 12  1  0  0  0  0
  3 19  1  6  0  0  0
  3  4  1  0  0  0  0
  4 20  1  1  0  0  0
  4 10  1  0  0  0  0
  5  6  1  0  0  0  0
  5 14  1  1  0  0  0
  6 21  1  6  0  0  0
  7 13  1  6  0  0  0
  7  6  1  0  0  0  0
  8  9  1  6  0  0  0
  8  7  1  0  0  0  0
 10 16  1  6  0  0  0
 11 10  1  0  0  0  0
 12 17  1  6  0  0  0
 12 11  1  0  0  0  0
 15  9  1  0  0  0  0
 22  8  1  0  0  0  0
 22  1  1  0  0  0  0
M  END
>  <CHROM.1>
-170.67412447,94.09050497,62.72079868,-5.27668838,-0.74152275,0.86073626
2.20255028,0.00497049,-2.47301907

>  <Name>
lig.pdb

>  <RI>
0

>  <Rbt.Current_Directory>
/home/itssahil/PROJECTS/Mol_Feturizer/New_Systems/rnas/5bws

>  <Rbt.Executable>
rbdock ($Id: //depot/dev/client3/rdock/2013.1/src/exe/rbdock.cxx#4 $)

>  <Rbt.Library>
libRbt.so (2013.1, Build901 2013/11/27)

>  <Rbt.Parameter_File>
/export/apps/rDock/src/rDock_2013.1_src/data/scripts/dock_solv.prm

>  <Rbt.Receptor>
prm/blind_docking_20.prm

>  <SCORE>
-6.79095

>  <SCORE.INTER>
-6.88448

>  <SCORE.INTER.CONST>
1

>  <SCORE.INTER.POLAR>
0

>  <SCORE.INTER.ROT>
3

>  <SCORE.INTER.SOLV>
25.6704

>  <SCORE.INTER.VDW>
-18.7464

>  <SCORE.INTER.norm>
-0.312931

>  <SCORE.INTRA>
0.0935351

>  <SCORE.INTRA.DIHEDRAL>
-1.29513

>  <SCORE.INTRA.DIHEDRAL.0>
6.10773

>  <SCORE.INTRA.POLAR>
0

>  <SCORE.INTRA.POLAR.0>
0

>  <SCORE.INTRA.REPUL>
0

>  <SCORE.INTRA.REPUL.0>
0

>  <SCORE.INTRA.SOLV>
1.75707

>  <SCORE.INTRA.SOLV.lig_0>
-71.4024

>  <SCORE.INTRA.VDW>
-0.137438

>  <SCORE.INTRA.VDW.0>
-1.86213

>  <SCORE.INTRA.norm>
0.00425159

>  <SCORE.RESTR>
0

>  <SCORE.RESTR.CAVITY>
0

>  <SCORE.RESTR.norm>
0

>  <SCORE.SYSTEM>
0

>  <SCORE.SYSTEM.CONST>
0

>  <SCORE.SYSTEM.DIHEDRAL>
0

>  <SCORE.SYSTEM.SOLV>
0

>  <SCORE.SYSTEM.norm>
0

>  <SCORE.heavy>
22

>  <SCORE.norm>
-0.308679

>  <RMSD>
0.958

$$$$
lig.pdb
 OpenBabel11021811523D
libRbt.so/2013.1/901 2013/11/27
 22 23  0  0  0  0  0  0  0  0999 V2000
   -7.4138   -1.2861   -0.3251 C   0  0  1  0  0  0  0  0  0  0  0  0
   -5.4279   -0.1610    0.7619 C   0  0  1  0  0  0  0  0  0  0  0  0
   -6.0208    1.1870    1.3686 C   0  0  1  0  0  0  0  0  0  0  0  0
   -4.8325    2.2476    1.4601 C   0  0  2  0  0  0  0  0  0  0  0  0
   -8.5355   -2.3030    0.1197 C   0  0  1  0  0  0  0  0  0  0  0  0
   -7.8757   -3.6816    0.3208 C   0  0  2  0  0  0  0  0  0  0  0  0
   -7.2539   -4.1890   -0.9923 C   0  0  2  0  0  0  0  0  0  0  0  0
   -6.1455   -3.2040   -1.5152 C   0  0  1  0  0  0  0  0  0  0  0  0
   -5.5528   -3.6844   -2.8712 C   0  0  0  0  0  0  0  0  0  0  0  0
   -3.7012    1.6890    2.4652 C   0  0  1  0  0  0  0  0  0  0  0  0
   -3.1281    0.3285    1.8215 C   0  0  0  0  0  0  0  0  0  0  0  0
   -4.3074   -0.7405    1.6828 C   0  0  2  0  0  0  0  0  0  0  0  0
   -8.2925   -4.3273   -2.0197 F   0  0  0  0  0  0  0  0  0  0  0  0
   -9.1524   -1.7802    1.4002 N   0  0  0  0  0  0  0  0  0  0  0  0
   -4.8764   -4.9246   -2.8175 N   0  0  0  0  0  0  0  0  0  0  0  0
   -2.5496    2.6487    2.5714 N   0  0  0  0  0  0  0  0  0  0  0  0
   -3.7755   -1.9848    1.0903 N   0  0  0  0  0  0  0  0  0  0  0  0
   -6.4470   -1.1447    0.6681 O   0  0  0  0  0  0  0  0  0  0  0  0
   -7.0632    1.6852    0.4404 O   0  0  0  0  0  0  0  0  0  0  0  0
   -5.3788    3.4211    1.9851 O   0  0  0  0  0  0  0  0  0  0  0  0
   -8.6955   -4.4217    0.6428 O   0  0  0  0  0  0  0  0  0  0  0  0
   -6.8013   -1.8150   -1.6194 O   0  0  0  0  0  0  0  0  0  0  0  0
  1  5  1  0  0  0  0
  1 18  1  1  0  0  0
  2 18  1  1  0  0  0
  2  3  1  0  0  0  0
  2 12  1  0  0  0  0
  3 19  1  6  0  0  0
  3  4  1  0  0  0  0
  4 20  1  1  0  0  0
  4 10  1  0  0  0  0
  5  6  1  0  0  0  0
  5 14  1  1  0  0  0
  6 21  1  6  0  0  0
  7 13  1  6  0  0  0
  7  6  1  0  0  0  0
  8  9  1  6  0  0  0
  8  7  1  0  0  0  0
 10 16  1  6  0  0  0
 11 10  1  0  0  0  0
 12 17  1  6  0  0  0
 12 11  1  0  0  0  0
 15  9  1  0  0  0  0
 22  8  1  0  0  0  0
 22  1  1  0  0  0  0
M  END
>  <CHROM.1>
-167.35515550,81.22583174,-63.41046829,-6.11432384,-1.23293116,0.26118621
2.00137809,-0.12183836,-2.58528346

>  <Name>
lig.pdb

>  <RI>
0

>  <Rbt.Current_Directory>
/home/itssahil/PROJECTS/Mol_Feturizer/New_Systems/rnas/5bws

>  <Rbt.Executable>
rbdock ($Id: //depot/dev/client3/rdock/2013.1/src/exe/rbdock.cxx#4 $)

>  <Rbt.Library>
libRbt.so (2013.1, Build901 2013/11/27)

>  <Rbt.Parameter_File>
/export/apps/rDock/src/rDock_2013.1_src/data/scripts/dock_solv.prm

>  <Rbt.Receptor>
prm/pocket_docking_2.prm

>  <SCORE>
-11.4079

>  <SCORE.INTER>
-9.68081

>  <SCORE.INTER.CONST>
1

>  <SCORE.INTER.POLAR>
0

>  <SCORE.INTER.ROT>
3

>  <SCORE.INTER.SOLV>
18.981

>  <SCORE.INTER.VDW>
-18.3809

>  <SCORE.INTER.norm>
-0.440037

>  <SCORE.INTRA>
-1.72707

>  <SCORE.INTRA.DIHEDRAL>
-3.29968

>  <SCORE.INTRA.DIHEDRAL.0>
6.10773

>  <SCORE.INTRA.POLAR>
0

>  <SCORE.INTRA.POLAR.0>
0

>  <SCORE.INTRA.REPUL>
0

>  <SCORE.INTRA.REPUL.0>
0

>  <SCORE.INTRA.SOLV>
-0.372859

>  <SCORE.INTRA.SOLV.lig_0>
-71.4024

>  <SCORE.INTRA.VDW>
0.109201

>  <SCORE.INTRA.VDW.0>
-1.86213

>  <SCORE.INTRA.norm>
-0.0785031

>  <SCORE.RESTR>
0

>  <SCORE.RESTR.CAVITY>
0

>  <SCORE.RESTR.norm>
0

>  <SCORE.SYSTEM>
0

>  <SCORE.SYSTEM.CONST>
0

>  <SCORE.SYSTEM.DIHEDRAL>
0

>  <SCORE.SYSTEM.SOLV>
0

>  <SCORE.SYSTEM.norm>
0

>  <SCORE.heavy>
22

>  <SCORE.norm>
-0.51854

>  <RMSD>
0.958

$$$$
lig.pdb
 OpenBabel11021811523D
libRbt.so/2013.1/901 2013/11/27
 22 23  0  0  0  0  0  0  0  0999 V2000
   -7.4074   -1.2740   -0.3299 C   0  0  1  0  0  0  0  0  0  0  0  0
   -5.4149   -0.1646    0.7611 C   0  0  1  0  0  0  0  0  0  0  0  0
   -6.0150    1.1862    1.3545 C   0  0  1  0  0  0  0  0  0  0  0  0
   -4.8276    2.2467    1.4571 C   0  0  2  0  0  0  0  0  0  0  0  0
   -8.5223   -2.3029    0.1044 C   0  0  1  0  0  0  0  0  0  0  0  0
   -7.8565   -3.6829    0.2741 C   0  0  2  0  0  0  0  0  0  0  0  0
   -7.2436   -4.1632   -1.0533 C   0  0  2  0  0  0  0  0  0  0  0  0
   -6.1425   -3.1647   -1.5661 C   0  0  1  0  0  0  0  0  0  0  0  0
   -5.5591   -3.6174   -2.9357 C   0  0  0  0  0  0  0  0  0  0  0  0
   -3.7098    1.6917    2.4792 C   0  0  1  0  0  0  0  0  0  0  0  0
   -3.1289    0.3284    1.8487 C   0  0  0  0  0  0  0  0  0  0  0  0
   -4.3068   -0.7407    1.6990 C   0  0  2  0  0  0  0  0  0  0  0  0
   -8.2898   -4.2855   -2.0749 F   0  0  0  0  0  0  0  0  0  0  0  0
   -9.1306   -1.8065    1.3994 N   0  0  0  0  0  0  0  0  0  0  0  0
   -4.8381   -4.8329   -2.9015 N   0  0  0  0  0  0  0  0  0  0  0  0
   -2.5592    2.6514    2.5965 N   0  0  0  0  0  0  0  0  0  0  0  0
   -3.7677   -1.9877    1.1188 N   0  0  0  0  0  0  0  0  0  0  0  0
   -6.4332   -1.1482    0.6581 O   0  0  0  0  0  0  0  0  0  0  0  0
   -7.0450    1.6809    0.4106 O   0  0  0  0  0  0  0  0  0  0  0  0
   -5.3801    3.4225    1.9700 O   0  0  0  0  0  0  0  0  0  0  0  0
   -8.6713   -4.4317    0.5885 O   0  0  0  0  0  0  0  0  0  0  0  0
   -6.8036   -1.7763   -1.6388 O   0  0  0  0  0  0  0  0  0  0  0  0
  1  5  1  0  0  0  0
  1 18  1  1  0  0  0
  2 18  1  1  0  0  0
  2  3  1  0  0  0  0
  2 12  1  0  0  0  0
  3 19  1  6  0  0  0
  3  4  1  0  0  0  0
  4 20  1  1  0  0  0
  4 10  1  0  0  0  0
  5  6  1  0  0  0  0
  5 14  1  1  0  0  0
  6 21  1  6  0  0  0
  7 13  1  6  0  0  0
  7  6  1  0  0  0  0
  8  9  1  6  0  0  0
  8  7  1  0  0  0  0
 10 16  1  6  0  0  0
 11 10  1  0  0  0  0
 12 17  1  6  0  0  0
 12 11  1  0  0  0  0
 15  9  1  0  0  0  0
 22  8  1  0  0  0  0
 22  1  1  0  0  0  0
M  END
>  <CHROM.1>
-167.48495307,79.50472994,-65.52615583,-6.10636416,-1.22030439,0.24129840
2.00175255,-0.12636401,-2.57280363

>  <Name>
lig.pdb

>  <RI>
0

>  <Rbt.Current_Directory>
/home/itssahil/PROJECTS/Mol_Feturizer/New_Systems/rnas/5bws

>  <Rbt.Executable>
rbdock ($Id: //depot/dev/client3/rdock/2013.1/src/exe/rbdock.cxx#4 $)

>  <Rbt.Library>
libRbt.so (2013.1, Build901 2013/11/27)

>  <Rbt.Parameter_File>
/export/apps/rDock/src/rDock_2013.1_src/data/scripts/dock_solv.prm

>  <Rbt.Receptor>
prm/pocket_docking_2.prm

>  <SCORE>
-11.4631

>  <SCORE.INTER>
-9.56642

>  <SCORE.INTER.CONST>
1

>  <SCORE.INTER.POLAR>
0

>  <SCORE.INTER.ROT>
3

>  <SCORE.INTER.SOLV>
19.3409

>  <SCORE.INTER.VDW>
-18.4246

>  <SCORE.INTER.norm>
-0.434837

>  <SCORE.INTRA>
-1.89669

>  <SCORE.INTRA.DIHEDRAL>
-3.53046

>  <SCORE.INTRA.DIHEDRAL.0>
6.10773

>  <SCORE.INTRA.POLAR>
0

>  <SCORE.INTRA.POLAR.0>
0

>  <SCORE.INTRA.REPUL>
0

>  <SCORE.INTRA.REPUL.0>
0

>  <SCORE.INTRA.SOLV>
-0.520805

>  <SCORE.INTRA.SOLV.lig_0>
-71.4024

>  <SCORE.INTRA.VDW>
0.12895

>  <SCORE.INTRA.VDW.0>
-1.86213

>  <SCORE.INTRA.norm>
-0.086213

>  <SCORE.RESTR>
0

>  <SCORE.RESTR.CAVITY>
0

>  <SCORE.RESTR.norm>
0

>  <SCORE.SYSTEM>
0

>  <SCORE.SYSTEM.CONST>
0

>  <SCORE.SYSTEM.DIHEDRAL>
0

>  <SCORE.SYSTEM.SOLV>
0

>  <SCORE.SYSTEM.norm>
0

>  <SCORE.heavy>
22

>  <SCORE.norm>
-0.52105

>  <RMSD>
0.959

$$$$
lig.pdb
 OpenBabel11021811523D
libRbt.so/2013.1/901 2013/11/27
 22 23  0  0  0  0  0  0  0  0999 V2000
   -7.1689   -1.6644   -0.6565 C   0  0  1  0  0  0  0  0  0  0  0  0
   -5.1933   -0.6277    0.5325 C   0  0  1  0  0  0  0  0  0  0  0  0
   -5.7200    0.7408    1.1542 C   0  0  1  0  0  0  0  0  0  0  0  0
   -4.4744    1.7282    1.2916 C   0  0  2  0  0  0  0  0  0  0  0  0
   -8.4760   -2.4209   -0.1990 C   0  0  1  0  0  0  0  0  0  0  0  0
   -8.0763   -3.8479    0.2253 C   0  0  2  0  0  0  0  0  0  0  0  0
   -7.4577   -4.6182   -0.9547 C   0  0  2  0  0  0  0  0  0  0  0  0
   -6.1635   -3.9011   -1.4867 C   0  0  1  0  0  0  0  0  0  0  0  0
   -5.5659   -4.6460   -2.7151 C   0  0  0  0  0  0  0  0  0  0  0  0
   -3.3995    1.0853    2.3082 C   0  0  1  0  0  0  0  0  0  0  0  0
   -2.8924   -0.2938    1.6488 C   0  0  0  0  0  0  0  0  0  0  0  0
   -4.1285   -1.2892    1.4642 C   0  0  2  0  0  0  0  0  0  0  0  0
   -8.4287   -4.7245   -2.0498 F   0  0  0  0  0  0  0  0  0  0  0  0
   -9.0848   -1.6407    0.9473 N   0  0  0  0  0  0  0  0  0  0  0  0
   -4.2754   -4.2161   -3.1002 N   0  0  0  0  0  0  0  0  0  0  0  0
   -2.1966    1.9739    2.4575 N   0  0  0  0  0  0  0  0  0  0  0  0
   -3.6570   -2.5510    0.8576 N   0  0  0  0  0  0  0  0  0  0  0  0
   -6.2655   -1.5482    0.3978 O   0  0  0  0  0  0  0  0  0  0  0  0
   -6.7114    1.3167    0.2151 O   0  0  0  0  0  0  0  0  0  0  0  0
   -4.9629    2.9214    1.8290 O   0  0  0  0  0  0  0  0  0  0  0  0
   -9.0309   -4.3982    0.5562 O   0  0  0  0  0  0  0  0  0  0  0  0
   -6.5645   -2.4517   -1.8162 O   0  0  0  0  0  0  0  0  0  0  0  0
  1  5  1  0  0  0  0
  1 18  1  1  0  0  0
  2 18  1  1  0  0  0
  2  3  1  0  0  0  0
  2 12  1  0  0  0  0
  3 19  1  6  0  0  0
  3  4  1  0  0  0  0
  4 20  1  1  0  0  0
  4 10  1  0  0  0  0
  5  6  1  0  0  0  0
  5 14  1  1  0  0  0
  6 21  1  6  0  0  0
  7 13  1  6  0  0  0
  7  6  1  0  0  0  0
  8  9  1  6  0  0  0
  8  7  1  0  0  0  0
 10 16  1  6  0  0  0
 11 10  1  0  0  0  0
 12 17  1  6  0  0  0
 12 11  1  0  0  0  0
 15  9  1  0  0  0  0
 22  8  1  0  0  0  0
 22  1  1  0  0  0  0
M  END
>  <CHROM.1>
-159.39648654,85.39637969,-168.85347995,-5.96597961,-1.62352892,0.09317747
2.08360488,-0.09765936,-2.57884820

>  <Name>
lig.pdb

>  <RI>
0

>  <Rbt.Current_Directory>
/home/itssahil/PROJECTS/Mol_Feturizer/New_Systems/rnas/5bws

>  <Rbt.Executable>
rbdock ($Id: //depot/dev/client3/rdock/2013.1/src/exe/rbdock.cxx#4 $)

>  <Rbt.Library>
libRbt.so (2013.1, Build901 2013/11/27)

>  <Rbt.Parameter_File>
/export/apps/rDock/src/rDock_2013.1_src/data/scripts/dock_solv.prm

>  <Rbt.Receptor>
prm/pocket_docking_3.prm

>  <SCORE>
-8.91915

>  <SCORE.INTER>
-8.19114

>  <SCORE.INTER.CONST>
1

>  <SCORE.INTER.POLAR>
0

>  <SCORE.INTER.ROT>
3

>  <SCORE.INTER.SOLV>
21.786

>  <SCORE.INTER.VDW>
-18.3227

>  <SCORE.INTER.norm>
-0.372325

>  <SCORE.INTRA>
-0.728005

>  <SCORE.INTRA.DIHEDRAL>
-1.03078

>  <SCORE.INTRA.DIHEDRAL.0>
6.10773

>  <SCORE.INTRA.POLAR>
0

>  <SCORE.INTRA.POLAR.0>
0

>  <SCORE.INTRA.REPUL>
0

>  <SCORE.INTRA.REPUL.0>
0

>  <SCORE.INTRA.SOLV>
-0.420418

>  <SCORE.INTRA.SOLV.lig_0>
-71.4024

>  <SCORE.INTRA.VDW>
-0.00240779

>  <SCORE.INTRA.VDW.0>
-1.86213

>  <SCORE.INTRA.norm>
-0.0330912

>  <SCORE.RESTR>
0

>  <SCORE.RESTR.CAVITY>
0

>  <SCORE.RESTR.norm>
0

>  <SCORE.SYSTEM>
0

>  <SCORE.SYSTEM.CONST>
0

>  <SCORE.SYSTEM.DIHEDRAL>
0

>  <SCORE.SYSTEM.SOLV>
0

>  <SCORE.SYSTEM.norm>
0

>  <SCORE.heavy>
22

>  <SCORE.norm>
-0.405416

>  <RMSD>
0.960

$$$$
lig.pdb
 OpenBabel11021811523D
libRbt.so/2013.1/901 2013/11/27
 22 23  0  0  0  0  0  0  0  0999 V2000
   -7.3958   -1.2842   -0.3375 C   0  0  1  0  0  0  0  0  0  0  0  0
   -5.4104   -0.1649    0.7563 C   0  0  1  0  0  0  0  0  0  0  0  0
   -6.0198    1.1796    1.3545 C   0  0  1  0  0  0  0  0  0  0  0  0
   -4.8397    2.2480    1.4603 C   0  0  2  0  0  0  0  0  0  0  0  0
   -8.5147   -2.3061    0.1029 C   0  0  1  0  0  0  0  0  0  0  0  0
   -7.8541   -3.6873    0.2822 C   0  0  2  0  0  0  0  0  0  0  0  0
   -7.2420   -4.1787   -1.0416 C   0  0  2  0  0  0  0  0  0  0  0  0
   -6.1370   -3.1877   -1.5603 C   0  0  1  0  0  0  0  0  0  0  0  0
   -5.5544   -3.6515   -2.9264 C   0  0  0  0  0  0  0  0  0  0  0  0
   -3.7177    1.6974    2.4802 C   0  0  1  0  0  0  0  0  0  0  0  0
   -3.1275    0.3403    1.8448 C   0  0  0  0  0  0  0  0  0  0  0  0
   -4.2979   -0.7365    1.6918 C   0  0  2  0  0  0  0  0  0  0  0  0
   -8.2881   -4.3040   -2.0630 F   0  0  0  0  0  0  0  0  0  0  0  0
   -9.1220   -1.7989    1.3942 N   0  0  0  0  0  0  0  0  0  0  0  0
   -4.8693   -4.8876   -2.8909 N   0  0  0  0  0  0  0  0  0  0  0  0
   -2.5738    2.6647    2.6003 N   0  0  0  0  0  0  0  0  0  0  0  0
   -3.7503   -1.9777    1.1071 N   0  0  0  0  0  0  0  0  0  0  0  0
   -6.4218   -1.1553    0.6503 O   0  0  0  0  0  0  0  0  0  0  0  0
   -7.0535    1.6703    0.4127 O   0  0  0  0  0  0  0  0  0  0  0  0
   -5.4003    3.4182    1.9774 O   0  0  0  0  0  0  0  0  0  0  0  0
   -8.6718   -4.4310    0.6011 O   0  0  0  0  0  0  0  0  0  0  0  0
   -6.7930   -1.7973   -1.6427 O   0  0  0  0  0  0  0  0  0  0  0  0
  1  5  1  0  0  0  0
  1 18  1  1  0  0  0
  2 18  1  1  0  0  0
  2  3  1  0  0  0  0
  2 12  1  0  0  0  0
  3 19  1  6  0  0  0
  3  4  1  0  0  0  0
  4 20  1  1  0  0  0
  4 10  1  0  0  0  0
  5  6  1  0  0  0  0
  5 14  1  1  0  0  0
  6 21  1  6  0  0  0
  7 13  1  6  0  0  0
  7  6  1  0  0  0  0
  8  9  1  6  0  0  0
  8  7  1  0  0  0  0
 10 16  1  6  0  0  0
 11 10  1  0  0  0  0
 12 17  1  6  0  0  0
 12 11  1  0  0  0  0
 15  9  1  0  0  0  0
 22  8  1  0  0  0  0
 22  1  1  0  0  0  0
M  END
>  <CHROM.1>
-166.62253940,79.47201883,-63.87367182,-6.10651454,-1.22779937,0.24303335
1.99815034,-0.12384866,-2.57618057

>  <Name>
lig.pdb

>  <RI>
0

>  <Rbt.Current_Directory>
/home/itssahil/PROJECTS/Mol_Feturizer/New_Systems/rnas/5bws

>  <Rbt.Executable>
rbdock ($Id: //depot/dev/client3/rdock/2013.1/src/exe/rbdock.cxx#4 $)

>  <Rbt.Library>
libRbt.so (2013.1, Build901 2013/11/27)

>  <Rbt.Parameter_File>
/export/apps/rDock/src/rDock_2013.1_src/data/scripts/dock_solv.prm

>  <Rbt.Receptor>
prm/pocket_docking_2.prm

>  <SCORE>
-11.4555

>  <SCORE.INTER>
-9.61235

>  <SCORE.INTER.CONST>
1

>  <SCORE.INTER.POLAR>
0

>  <SCORE.INTER.ROT>
3

>  <SCORE.INTER.SOLV>
19.2327

>  <SCORE.INTER.VDW>
-18.4191

>  <SCORE.INTER.norm>
-0.436925

>  <SCORE.INTRA>
-1.84318

>  <SCORE.INTRA.DIHEDRAL>
-3.48956

>  <SCORE.INTRA.DIHEDRAL.0>
6.10773

>  <SCORE.INTRA.POLAR>
0

>  <SCORE.INTRA.POLAR.0>
0

>  <SCORE.INTRA.REPUL>
0

>  <SCORE.INTRA.REPUL.0>
0

>  <SCORE.INTRA.SOLV>
-0.46469

>  <SCORE.INTRA.SOLV.lig_0>
-71.4024

>  <SCORE.INTRA.VDW>
0.13394

>  <SCORE.INTRA.VDW.0>
-1.86213

>  <SCORE.INTRA.norm>
-0.0837811

>  <SCORE.RESTR>
0

>  <SCORE.RESTR.CAVITY>
0

>  <SCORE.RESTR.norm>
0

>  <SCORE.SYSTEM>
0

>  <SCORE.SYSTEM.CONST>
0

>  <SCORE.SYSTEM.DIHEDRAL>
0

>  <SCORE.SYSTEM.SOLV>
0

>  <SCORE.SYSTEM.norm>
0

>  <SCORE.heavy>
22

>  <SCORE.norm>
-0.520706

>  <RMSD>
0.962

$$$$
lig.pdb
 OpenBabel11021811523D
libRbt.so/2013.1/901 2013/11/27
 22 23  0  0  0  0  0  0  0  0999 V2000
   -7.4056   -1.2836   -0.3483 C   0  0  1  0  0  0  0  0  0  0  0  0
   -5.4199   -0.1567    0.7373 C   0  0  1  0  0  0  0  0  0  0  0  0
   -6.0280    1.1948    1.3209 C   0  0  1  0  0  0  0  0  0  0  0  0
   -4.8464    2.2623    1.4179 C   0  0  2  0  0  0  0  0  0  0  0  0
   -8.5246   -2.3023    0.0990 C   0  0  1  0  0  0  0  0  0  0  0  0
   -7.8638   -3.6818    0.2903 C   0  0  2  0  0  0  0  0  0  0  0  0
   -7.2498   -4.1837   -1.0286 C   0  0  2  0  0  0  0  0  0  0  0  0
   -6.1445   -3.1965   -1.5540 C   0  0  1  0  0  0  0  0  0  0  0  0
   -5.5600   -3.6713   -2.9155 C   0  0  0  0  0  0  0  0  0  0  0  0
   -3.7269    1.7201    2.4450 C   0  0  1  0  0  0  0  0  0  0  0  0
   -3.1379    0.3558    1.8242 C   0  0  0  0  0  0  0  0  0  0  0  0
   -4.3099   -0.7206    1.6803 C   0  0  2  0  0  0  0  0  0  0  0  0
   -8.2945   -4.3177   -2.0503 F   0  0  0  0  0  0  0  0  0  0  0  0
   -9.1338   -1.7849    1.3853 N   0  0  0  0  0  0  0  0  0  0  0  0
   -4.8825   -4.9113   -2.8709 N   0  0  0  0  0  0  0  0  0  0  0  0
   -2.5815    2.6867    2.5572 N   0  0  0  0  0  0  0  0  0  0  0  0
   -3.7635   -1.9685    1.1090 N   0  0  0  0  0  0  0  0  0  0  0  0
   -6.4328   -1.1464    0.6397 O   0  0  0  0  0  0  0  0  0  0  0  0
   -7.0595    1.6777    0.3726 O   0  0  0  0  0  0  0  0  0  0  0  0
   -5.4058    3.4386    1.9223 O   0  0  0  0  0  0  0  0  0  0  0  0
   -8.6817   -4.4232    0.6141 O   0  0  0  0  0  0  0  0  0  0  0  0
   -6.8008   -1.8071   -1.6485 O   0  0  0  0  0  0  0  0  0  0  0  0
  1  5  1  0  0  0  0
  1 18  1  1  0  0  0
  2 18  1  1  0  0  0
  2  3  1  0  0  0  0
  2 12  1  0  0  0  0
  3 19  1  6  0  0  0
  3  4  1  0  0  0  0
  4 20  1  1  0  0  0
  4 10  1  0  0  0  0
  5  6  1  0  0  0  0
  5 14  1  1  0  0  0
  6 21  1  6  0  0  0
  7 13  1  6  0  0  0
  7  6  1  0  0  0  0
  8  9  1  6  0  0  0
  8  7  1  0  0  0  0
 10 16  1  6  0  0  0
 11 10  1  0  0  0  0
 12 17  1  6  0  0  0
 12 11  1  0  0  0  0
 15  9  1  0  0  0  0
 22  8  1  0  0  0  0
 22  1  1  0  0  0  0
M  END
>  <CHROM.1>
-166.78472562,79.47388534,-63.45413216,-6.11548713,-1.22308305,0.23162727
1.99828465,-0.12276923,-2.58502069

>  <Name>
lig.pdb

>  <RI>
0

>  <Rbt.Current_Directory>
/home/itssahil/PROJECTS/Mol_Feturizer/New_Systems/rnas/5bws

>  <Rbt.Executable>
rbdock ($Id: //depot/dev/client3/rdock/2013.1/src/exe/rbdock.cxx#4 $)

>  <Rbt.Library>
libRbt.so (2013.1, Build901 2013/11/27)

>  <Rbt.Parameter_File>
/export/apps/rDock/src/rDock_2013.1_src/data/scripts/dock_solv.prm

>  <Rbt.Receptor>
prm/pocket_docking_2.prm

>  <SCORE>
-11.4114

>  <SCORE.INTER>
-9.55641

>  <SCORE.INTER.CONST>
1

>  <SCORE.INTER.POLAR>
0

>  <SCORE.INTER.ROT>
3

>  <SCORE.INTER.SOLV>
19.0879

>  <SCORE.INTER.VDW>
-18.3336

>  <SCORE.INTER.norm>
-0.434382

>  <SCORE.INTRA>
-1.85499

>  <SCORE.INTRA.DIHEDRAL>
-3.51996

>  <SCORE.INTRA.DIHEDRAL.0>
6.10773

>  <SCORE.INTRA.POLAR>
0

>  <SCORE.INTRA.POLAR.0>
0

>  <SCORE.INTRA.REPUL>
0

>  <SCORE.INTRA.REPUL.0>
0

>  <SCORE.INTRA.SOLV>
-0.459463

>  <SCORE.INTRA.SOLV.lig_0>
-71.4024

>  <SCORE.INTRA.VDW>
0.134722

>  <SCORE.INTRA.VDW.0>
-1.86213

>  <SCORE.INTRA.norm>
-0.0843176

>  <SCORE.RESTR>
0

>  <SCORE.RESTR.CAVITY>
0

>  <SCORE.RESTR.norm>
0

>  <SCORE.SYSTEM>
0

>  <SCORE.SYSTEM.CONST>
0

>  <SCORE.SYSTEM.DIHEDRAL>
0

>  <SCORE.SYSTEM.SOLV>
0

>  <SCORE.SYSTEM.norm>
0

>  <SCORE.heavy>
22

>  <SCORE.norm>
-0.5187

>  <RMSD>
0.965

$$$$
lig.pdb
 OpenBabel11021811523D
libRbt.so/2013.1/901 2013/11/27
 22 23  0  0  0  0  0  0  0  0999 V2000
   -7.4218   -1.2593   -0.3206 C   0  0  1  0  0  0  0  0  0  0  0  0
   -5.4313   -0.1477    0.7720 C   0  0  1  0  0  0  0  0  0  0  0  0
   -6.0283    1.2002    1.3751 C   0  0  1  0  0  0  0  0  0  0  0  0
   -4.8403    2.2602    1.4765 C   0  0  2  0  0  0  0  0  0  0  0  0
   -8.5334   -2.2932    0.1101 C   0  0  1  0  0  0  0  0  0  0  0  0
   -7.8625   -3.6707    0.2794 C   0  0  2  0  0  0  0  0  0  0  0  0
   -7.2448   -4.1468   -1.0474 C   0  0  2  0  0  0  0  0  0  0  0  0
   -6.1467   -3.1433   -1.5566 C   0  0  1  0  0  0  0  0  0  0  0  0
   -5.5587   -3.5918   -2.9255 C   0  0  0  0  0  0  0  0  0  0  0  0
   -3.7170    1.7003    2.4900 C   0  0  1  0  0  0  0  0  0  0  0  0
   -3.1395    0.3400    1.8497 C   0  0  0  0  0  0  0  0  0  0  0  0
   -4.3182   -0.7284    1.7011 C   0  0  2  0  0  0  0  0  0  0  0  0
   -8.2885   -4.2720   -2.0713 F   0  0  0  0  0  0  0  0  0  0  0  0
   -9.1464   -1.8009    1.4044 N   0  0  0  0  0  0  0  0  0  0  0  0
   -4.8947   -4.8398   -2.9063 N   0  0  0  0  0  0  0  0  0  0  0  0
   -2.5658    2.6594    2.6057 N   0  0  0  0  0  0  0  0  0  0  0  0
   -3.7822   -1.9725    1.1119 N   0  0  0  0  0  0  0  0  0  0  0  0
   -6.4501   -1.1309    0.6696 O   0  0  0  0  0  0  0  0  0  0  0  0
   -7.0633    1.6994    0.4392 O   0  0  0  0  0  0  0  0  0  0  0  0
   -5.3901    3.4335    1.9981 O   0  0  0  0  0  0  0  0  0  0  0  0
   -8.6749   -4.4231    0.5911 O   0  0  0  0  0  0  0  0  0  0  0  0
   -6.8132   -1.7574   -1.6289 O   0  0  0  0  0  0  0  0  0  0  0  0
  1  5  1  0  0  0  0
  1 18  1  1  0  0  0
  2 18  1  1  0  0  0
  2  3  1  0  0  0  0
  2 12  1  0  0  0  0
  3 19  1  6  0  0  0
  3  4  1  0  0  0  0
  4 20  1  1  0  0  0
  4 10  1  0  0  0  0
  5  6  1  0  0  0  0
  5 14  1  1  0  0  0
  6 21  1  6  0  0  0
  7 13  1  6  0  0  0
  7  6  1  0  0  0  0
  8  9  1  6  0  0  0
  8  7  1  0  0  0  0
 10 16  1  6  0  0  0
 11 10  1  0  0  0  0
 12 17  1  6  0  0  0
 12 11  1  0  0  0  0
 15  9  1  0  0  0  0
 22  8  1  0  0  0  0
 22  1  1  0  0  0  0
M  END
>  <CHROM.1>
-167.87512623,80.17172546,-62.27856910,-6.11796224,-1.20723345,0.25038328
2.00060091,-0.12754790,-2.57116803

>  <Name>
lig.pdb

>  <RI>
0

>  <Rbt.Current_Directory>
/home/itssahil/PROJECTS/Mol_Feturizer/New_Systems/rnas/5bws

>  <Rbt.Executable>
rbdock ($Id: //depot/dev/client3/rdock/2013.1/src/exe/rbdock.cxx#4 $)

>  <Rbt.Library>
libRbt.so (2013.1, Build901 2013/11/27)

>  <Rbt.Parameter_File>
/export/apps/rDock/src/rDock_2013.1_src/data/scripts/dock_solv.prm

>  <Rbt.Receptor>
prm/pocket_docking_2.prm

>  <SCORE>
-11.4621

>  <SCORE.INTER>
-9.59483

>  <SCORE.INTER.CONST>
1

>  <SCORE.INTER.POLAR>
0

>  <SCORE.INTER.ROT>
3

>  <SCORE.INTER.SOLV>
19.3062

>  <SCORE.INTER.VDW>
-18.432

>  <SCORE.INTER.norm>
-0.436129

>  <SCORE.INTRA>
-1.86723

>  <SCORE.INTRA.DIHEDRAL>
-3.55765

>  <SCORE.INTRA.DIHEDRAL.0>
6.10773

>  <SCORE.INTRA.POLAR>
0

>  <SCORE.INTRA.POLAR.0>
0

>  <SCORE.INTRA.REPUL>
0

>  <SCORE.INTRA.REPUL.0>
0

>  <SCORE.INTRA.SOLV>
-0.429422

>  <SCORE.INTRA.SOLV.lig_0>
-71.4024

>  <SCORE.INTRA.VDW>
0.126305

>  <SCORE.INTRA.VDW.0>
-1.86213

>  <SCORE.INTRA.norm>
-0.0848742

>  <SCORE.RESTR>
0

>  <SCORE.RESTR.CAVITY>
0

>  <SCORE.RESTR.norm>
0

>  <SCORE.SYSTEM>
0

>  <SCORE.SYSTEM.CONST>
0

>  <SCORE.SYSTEM.DIHEDRAL>
0

>  <SCORE.SYSTEM.SOLV>
0

>  <SCORE.SYSTEM.norm>
0

>  <SCORE.heavy>
22

>  <SCORE.norm>
-0.521003

>  <RMSD>
0.965

$$$$
lig.pdb
 OpenBabel11021811523D
libRbt.so/2013.1/901 2013/11/27
 22 23  0  0  0  0  0  0  0  0999 V2000
   -7.3618   -1.4453   -0.6225 C   0  0  1  0  0  0  0  0  0  0  0  0
   -5.4533   -0.2682    0.5451 C   0  0  1  0  0  0  0  0  0  0  0  0
   -6.1192    1.0837    1.0608 C   0  0  1  0  0  0  0  0  0  0  0  0
   -4.9645    2.1753    1.2039 C   0  0  2  0  0  0  0  0  0  0  0  0
   -8.6324   -2.2367   -0.1232 C   0  0  1  0  0  0  0  0  0  0  0  0
   -8.1755   -3.6412    0.3182 C   0  0  2  0  0  0  0  0  0  0  0  0
   -7.5560   -4.4123   -0.8609 C   0  0  2  0  0  0  0  0  0  0  0  0
   -6.2984   -3.6621   -1.4337 C   0  0  1  0  0  0  0  0  0  0  0  0
   -5.7018   -4.4095   -2.6610 C   0  0  0  0  0  0  0  0  0  0  0  0
   -3.8993    1.6767    2.3080 C   0  0  1  0  0  0  0  0  0  0  0  0
   -3.2502    0.3107    1.7545 C   0  0  0  0  0  0  0  0  0  0  0  0
   -4.3922   -0.7906    1.5652 C   0  0  2  0  0  0  0  0  0  0  0  0
   -8.5456   -4.5718   -1.9325 F   0  0  0  0  0  0  0  0  0  0  0  0
   -9.2432   -1.4560    1.0218 N   0  0  0  0  0  0  0  0  0  0  0  0
   -4.3998   -4.0006   -3.0300 N   0  0  0  0  0  0  0  0  0  0  0  0
   -2.7800    2.6670    2.4665 N   0  0  0  0  0  0  0  0  0  0  0  0
   -3.7905   -2.0399    1.0559 N   0  0  0  0  0  0  0  0  0  0  0  0
   -6.4409   -1.2789    0.4096 O   0  0  0  0  0  0  0  0  0  0  0  0
   -7.1001    1.5264    0.0419 O   0  0  0  0  0  0  0  0  0  0  0  0
   -5.5739    3.3513    1.6473 O   0  0  0  0  0  0  0  0  0  0  0  0
   -9.1035   -4.2170    0.6796 O   0  0  0  0  0  0  0  0  0  0  0  0
   -6.7555   -2.2335   -1.7806 O   0  0  0  0  0  0  0  0  0  0  0  0
  1  5  1  0  0  0  0
  1 18  1  1  0  0  0
  2 18  1  1  0  0  0
  2  3  1  0  0  0  0
  2 12  1  0  0  0  0
  3 19  1  6  0  0  0
  3  4  1  0  0  0  0
  4 20  1  1  0  0  0
  4 10  1  0  0  0  0
  5  6  1  0  0  0  0
  5 14  1  1  0  0  0
  6 21  1  6  0  0  0
  7 13  1  6  0  0  0
  7  6  1  0  0  0  0
  8  9  1  6  0  0  0
  8  7  1  0  0  0  0
 10 16  1  6  0  0  0
 11 10  1  0  0  0  0
 12 17  1  6  0  0  0
 12 11  1  0  0  0  0
 15  9  1  0  0  0  0
 22  8  1  0  0  0  0
 22  1  1  0  0  0  0
M  END
>  <CHROM.1>
-154.97505635,78.53083940,-165.06913703,-6.22117426,-1.30115096,0.12547776
2.02142605,-0.11947711,-2.61184388

>  <Name>
lig.pdb

>  <RI>
0

>  <Rbt.Current_Directory>
/home/itssahil/PROJECTS/Mol_Feturizer/New_Systems/rnas/5bws

>  <Rbt.Executable>
rbdock ($Id: //depot/dev/client3/rdock/2013.1/src/exe/rbdock.cxx#4 $)

>  <Rbt.Library>
libRbt.so (2013.1, Build901 2013/11/27)

>  <Rbt.Parameter_File>
/export/apps/rDock/src/rDock_2013.1_src/data/scripts/dock_solv.prm

>  <Rbt.Receptor>
prm/pocket_docking_2.prm

>  <SCORE>
-8.90572

>  <SCORE.INTER>
-8.09338

>  <SCORE.INTER.CONST>
1

>  <SCORE.INTER.POLAR>
0

>  <SCORE.INTER.ROT>
3

>  <SCORE.INTER.SOLV>
20.8272

>  <SCORE.INTER.VDW>
-17.938

>  <SCORE.INTER.norm>
-0.367881

>  <SCORE.INTRA>
-0.812534

>  <SCORE.INTRA.DIHEDRAL>
-1.10253

>  <SCORE.INTRA.DIHEDRAL.0>
6.10773

>  <SCORE.INTRA.POLAR>
0

>  <SCORE.INTRA.POLAR.0>
0

>  <SCORE.INTRA.REPUL>
0

>  <SCORE.INTRA.REPUL.0>
0

>  <SCORE.INTRA.SOLV>
-0.746787

>  <SCORE.INTRA.SOLV.lig_0>
-71.4024

>  <SCORE.INTRA.VDW>
0.112126

>  <SCORE.INTRA.VDW.0>
-1.86213

>  <SCORE.INTRA.norm>
-0.0369333

>  <SCORE.RESTR>
0.00019003

>  <SCORE.RESTR.CAVITY>
0.00019003

>  <SCORE.RESTR.norm>
8.63773e-06

>  <SCORE.SYSTEM>
0

>  <SCORE.SYSTEM.CONST>
0

>  <SCORE.SYSTEM.DIHEDRAL>
0

>  <SCORE.SYSTEM.SOLV>
0

>  <SCORE.SYSTEM.norm>
0

>  <SCORE.heavy>
22

>  <SCORE.norm>
-0.404806

>  <RMSD>
0.966

$$$$
lig.pdb
 OpenBabel11021811523D
libRbt.so/2013.1/901 2013/11/27
 22 23  0  0  0  0  0  0  0  0999 V2000
   -7.3946   -1.2860   -0.3510 C   0  0  1  0  0  0  0  0  0  0  0  0
   -5.4126   -0.1577    0.7400 C   0  0  1  0  0  0  0  0  0  0  0  0
   -6.0352    1.1939    1.3080 C   0  0  1  0  0  0  0  0  0  0  0  0
   -4.8604    2.2680    1.4141 C   0  0  2  0  0  0  0  0  0  0  0  0
   -8.5147   -2.3033    0.0966 C   0  0  1  0  0  0  0  0  0  0  0  0
   -7.8563   -3.6847    0.2830 C   0  0  2  0  0  0  0  0  0  0  0  0
   -7.2467   -4.1847   -1.0386 C   0  0  2  0  0  0  0  0  0  0  0  0
   -6.1406   -3.1987   -1.5643 C   0  0  1  0  0  0  0  0  0  0  0  0
   -5.5604   -3.6714   -2.9284 C   0  0  0  0  0  0  0  0  0  0  0  0
   -3.7516    1.7375    2.4588 C   0  0  1  0  0  0  0  0  0  0  0  0
   -3.1477    0.3727    1.8536 C   0  0  0  0  0  0  0  0  0  0  0  0
   -4.3121   -0.7105    1.7006 C   0  0  2  0  0  0  0  0  0  0  0  0
   -8.2942   -4.3140   -2.0581 F   0  0  0  0  0  0  0  0  0  0  0  0
   -9.1196   -1.7877    1.3857 N   0  0  0  0  0  0  0  0  0  0  0  0
   -4.8629   -4.9002   -2.8833 N   0  0  0  0  0  0  0  0  0  0  0  0
   -2.6128    2.7107    2.5803 N   0  0  0  0  0  0  0  0  0  0  0  0
   -3.7519   -1.9588    1.1436 N   0  0  0  0  0  0  0  0  0  0  0  0
   -6.4191   -1.1532    0.6349 O   0  0  0  0  0  0  0  0  0  0  0  0
   -7.0567    1.6660    0.3436 O   0  0  0  0  0  0  0  0  0  0  0  0
   -5.4324    3.4442    1.9045 O   0  0  0  0  0  0  0  0  0  0  0  0
   -8.6750   -4.4251    0.6071 O   0  0  0  0  0  0  0  0  0  0  0  0
   -6.7942   -1.8076   -1.6539 O   0  0  0  0  0  0  0  0  0  0  0  0
  1  5  1  0  0  0  0
  1 18  1  1  0  0  0
  2 18  1  1  0  0  0
  2  3  1  0  0  0  0
  2 12  1  0  0  0  0
  3 19  1  6  0  0  0
  3  4  1  0  0  0  0
  4 20  1  1  0  0  0
  4 10  1  0  0  0  0
  5  6  1  0  0  0  0
  5 14  1  1  0  0  0
  6 21  1  6  0  0  0
  7 13  1  6  0  0  0
  7  6  1  0  0  0  0
  8  9  1  6  0  0  0
  8  7  1  0  0  0  0
 10 16  1  6  0  0  0
 11 10  1  0  0  0  0
 12 17  1  6  0  0  0
 12 11  1  0  0  0  0
 15  9  1  0  0  0  0
 22  8  1  0  0  0  0
 22  1  1  0  0  0  0
M  END
>  <CHROM.1>
-166.05609255,78.10362453,-64.63455660,-6.11535018,-1.22010644,0.23014374
1.99458300,-0.12094993,-2.58442055

>  <Name>
lig.pdb

>  <RI>
0

>  <Rbt.Current_Directory>
/home/itssahil/PROJECTS/Mol_Feturizer/New_Systems/rnas/5bws

>  <Rbt.Executable>
rbdock ($Id: //depot/dev/client3/rdock/2013.1/src/exe/rbdock.cxx#4 $)

>  <Rbt.Library>
libRbt.so (2013.1, Build901 2013/11/27)

>  <Rbt.Parameter_File>
/export/apps/rDock/src/rDock_2013.1_src/data/scripts/dock_solv.prm

>  <Rbt.Receptor>
prm/pocket_docking_2.prm

>  <SCORE>
-11.4149

>  <SCORE.INTER>
-9.49925

>  <SCORE.INTER.CONST>
1

>  <SCORE.INTER.POLAR>
0

>  <SCORE.INTER.ROT>
3

>  <SCORE.INTER.SOLV>
19.1401

>  <SCORE.INTER.VDW>
-18.3129

>  <SCORE.INTER.norm>
-0.431784

>  <SCORE.INTRA>
-1.91568

>  <SCORE.INTRA.DIHEDRAL>
-3.61084

>  <SCORE.INTRA.DIHEDRAL.0>
6.10773

>  <SCORE.INTRA.POLAR>
0

>  <SCORE.INTRA.POLAR.0>
0

>  <SCORE.INTRA.REPUL>
0

>  <SCORE.INTRA.REPUL.0>
0

>  <SCORE.INTRA.SOLV>
-0.526691

>  <SCORE.INTRA.SOLV.lig_0>
-71.4024

>  <SCORE.INTRA.VDW>
0.153084

>  <SCORE.INTRA.VDW.0>
-1.86213

>  <SCORE.INTRA.norm>
-0.0870764

>  <SCORE.RESTR>
0

>  <SCORE.RESTR.CAVITY>
0

>  <SCORE.RESTR.norm>
0

>  <SCORE.SYSTEM>
0

>  <SCORE.SYSTEM.CONST>
0

>  <SCORE.SYSTEM.DIHEDRAL>
0

>  <SCORE.SYSTEM.SOLV>
0

>  <SCORE.SYSTEM.norm>
0

>  <SCORE.heavy>
22

>  <SCORE.norm>
-0.51886

>  <RMSD>
0.968

$$$$
lig.pdb
 OpenBabel11021811523D
libRbt.so/2013.1/901 2013/11/27
 22 23  0  0  0  0  0  0  0  0999 V2000
   -7.3678   -1.4584   -0.6092 C   0  0  1  0  0  0  0  0  0  0  0  0
   -5.4492   -0.2850    0.5456 C   0  0  1  0  0  0  0  0  0  0  0  0
   -6.1083    1.0695    1.0633 C   0  0  1  0  0  0  0  0  0  0  0  0
   -4.9497    2.1580    1.1982 C   0  0  2  0  0  0  0  0  0  0  0  0
   -8.6308   -2.2590   -0.1054 C   0  0  1  0  0  0  0  0  0  0  0  0
   -8.1637   -3.6637    0.3247 C   0  0  2  0  0  0  0  0  0  0  0  0
   -7.5487   -4.4249   -0.8630 C   0  0  2  0  0  0  0  0  0  0  0  0
   -6.2991   -3.6652   -1.4406 C   0  0  1  0  0  0  0  0  0  0  0  0
   -5.7075   -4.4026   -2.6763 C   0  0  0  0  0  0  0  0  0  0  0  0
   -3.8795    1.6579    2.2966 C   0  0  1  0  0  0  0  0  0  0  0  0
   -3.2374    0.2894    1.7411 C   0  0  0  0  0  0  0  0  0  0  0  0
   -4.3836   -0.8090    1.5600 C   0  0  2  0  0  0  0  0  0  0  0  0
   -8.5451   -4.5835   -1.9285 F   0  0  0  0  0  0  0  0  0  0  0  0
   -9.2373   -1.4879    1.0483 N   0  0  0  0  0  0  0  0  0  0  0  0
   -4.4003   -4.0029   -3.0367 N   0  0  0  0  0  0  0  0  0  0  0  0
   -2.7565    2.6453    2.4471 N   0  0  0  0  0  0  0  0  0  0  0  0
   -3.7883   -2.0606    1.0489 N   0  0  0  0  0  0  0  0  0  0  0  0
   -6.4404   -1.2931    0.4173 O   0  0  0  0  0  0  0  0  0  0  0  0
   -7.0940    1.5135    0.0497 O   0  0  0  0  0  0  0  0  0  0  0  0
   -5.5533    3.3363    1.6436 O   0  0  0  0  0  0  0  0  0  0  0  0
   -9.0862   -4.2462    0.6895 O   0  0  0  0  0  0  0  0  0  0  0  0
   -6.7658   -2.2370   -1.7761 O   0  0  0  0  0  0  0  0  0  0  0  0
  1  5  1  0  0  0  0
  1 18  1  1  0  0  0
  2 18  1  1  0  0  0
  2  3  1  0  0  0  0
  2 12  1  0  0  0  0
  3 19  1  6  0  0  0
  3  4  1  0  0  0  0
  4 20  1  1  0  0  0
  4 10  1  0  0  0  0
  5  6  1  0  0  0  0
  5 14  1  1  0  0  0
  6 21  1  6  0  0  0
  7 13  1  6  0  0  0
  7  6  1  0  0  0  0
  8  9  1  6  0  0  0
  8  7  1  0  0  0  0
 10 16  1  6  0  0  0
 11 10  1  0  0  0  0
 12 17  1  6  0  0  0
 12 11  1  0  0  0  0
 15  9  1  0  0  0  0
 22  8  1  0  0  0  0
 22  1  1  0  0  0  0
M  END
>  <CHROM.1>
-155.58209376,78.53420708,-163.92093149,-6.21469943,-1.31635192,0.12587671
2.02488883,-0.12619512,-2.60966988

>  <Name>
lig.pdb

>  <RI>
0

>  <Rbt.Current_Directory>
/home/itssahil/PROJECTS/Mol_Feturizer/New_Systems/rnas/5bws

>  <Rbt.Executable>
rbdock ($Id: //depot/dev/client3/rdock/2013.1/src/exe/rbdock.cxx#4 $)

>  <Rbt.Library>
libRbt.so (2013.1, Build901 2013/11/27)

>  <Rbt.Parameter_File>
/export/apps/rDock/src/rDock_2013.1_src/data/scripts/dock_solv.prm

>  <Rbt.Receptor>
prm/pocket_docking_2.prm

>  <SCORE>
-8.91827

>  <SCORE.INTER>
-8.09311

>  <SCORE.INTER.CONST>
1

>  <SCORE.INTER.POLAR>
0

>  <SCORE.INTER.ROT>
3

>  <SCORE.INTER.SOLV>
20.9302

>  <SCORE.INTER.VDW>
-17.9721

>  <SCORE.INTER.norm>
-0.367868

>  <SCORE.INTRA>
-0.825169

>  <SCORE.INTRA.DIHEDRAL>
-1.09701

>  <SCORE.INTRA.DIHEDRAL.0>
6.10773

>  <SCORE.INTRA.POLAR>
0

>  <SCORE.INTRA.POLAR.0>
0

>  <SCORE.INTRA.REPUL>
0

>  <SCORE.INTRA.REPUL.0>
0

>  <SCORE.INTRA.SOLV>
-0.780546

>  <SCORE.INTRA.SOLV.lig_0>
-71.4024

>  <SCORE.INTRA.VDW>
0.113607

>  <SCORE.INTRA.VDW.0>
-1.86213

>  <SCORE.INTRA.norm>
-0.0375077

>  <SCORE.RESTR>
0

>  <SCORE.RESTR.CAVITY>
0

>  <SCORE.RESTR.norm>
0

>  <SCORE.SYSTEM>
0

>  <SCORE.SYSTEM.CONST>
0

>  <SCORE.SYSTEM.DIHEDRAL>
0

>  <SCORE.SYSTEM.SOLV>
0

>  <SCORE.SYSTEM.norm>
0

>  <SCORE.heavy>
22

>  <SCORE.norm>
-0.405376

>  <RMSD>
0.970

$$$$
lig.pdb
 OpenBabel11021811523D
libRbt.so/2013.1/901 2013/11/27
 22 23  0  0  0  0  0  0  0  0999 V2000
   -7.4001   -1.2700   -0.3402 C   0  0  1  0  0  0  0  0  0  0  0  0
   -5.4061   -0.1549    0.7424 C   0  0  1  0  0  0  0  0  0  0  0  0
   -6.0087    1.1830    1.3620 C   0  0  1  0  0  0  0  0  0  0  0  0
   -4.8283    2.2515    1.4627 C   0  0  2  0  0  0  0  0  0  0  0  0
   -8.4941   -2.3236    0.0876 C   0  0  1  0  0  0  0  0  0  0  0  0
   -7.8050   -3.6955    0.2272 C   0  0  2  0  0  0  0  0  0  0  0  0
   -7.1980   -4.1436   -1.1141 C   0  0  2  0  0  0  0  0  0  0  0  0
   -6.1181   -3.1192   -1.6208 C   0  0  1  0  0  0  0  0  0  0  0  0
   -5.5416   -3.5395   -3.0035 C   0  0  0  0  0  0  0  0  0  0  0  0
   -3.6922    1.6920    2.4619 C   0  0  1  0  0  0  0  0  0  0  0  0
   -3.1094    0.3420    1.8052 C   0  0  0  0  0  0  0  0  0  0  0  0
   -4.2808   -0.7345    1.6572 C   0  0  2  0  0  0  0  0  0  0  0  0
   -8.2525   -4.2654   -2.1272 F   0  0  0  0  0  0  0  0  0  0  0  0
   -9.0970   -1.8589    1.3967 N   0  0  0  0  0  0  0  0  0  0  0  0
   -4.8170   -4.7533   -3.0007 N   0  0  0  0  0  0  0  0  0  0  0  0
   -2.5477    2.6593    2.5763 N   0  0  0  0  0  0  0  0  0  0  0  0
   -3.7399   -1.9693    1.0530 N   0  0  0  0  0  0  0  0  0  0  0  0
   -6.4180   -1.1452    0.6401 O   0  0  0  0  0  0  0  0  0  0  0  0
   -7.0554    1.6819    0.4391 O   0  0  0  0  0  0  0  0  0  0  0  0
   -5.3831    3.4159    1.9989 O   0  0  0  0  0  0  0  0  0  0  0  0
   -8.6046   -4.4623    0.5369 O   0  0  0  0  0  0  0  0  0  0  0  0
   -6.8017   -1.7405   -1.6634 O   0  0  0  0  0  0  0  0  0  0  0  0
  1  5  1  0  0  0  0
  1 18  1  1  0  0  0
  2 18  1  1  0  0  0
  2  3  1  0  0  0  0
  2 12  1  0  0  0  0
  3 19  1  6  0  0  0
  3  4  1  0  0  0  0
  4 20  1  1  0  0  0
  4 10  1  0  0  0  0
  5  6  1  0  0  0  0
  5 14  1  1  0  0  0
  6 21  1  6  0  0  0
  7 13  1  6  0  0  0
  7  6  1  0  0  0  0
  8  9  1  6  0  0  0
  8  7  1  0  0  0  0
 10 16  1  6  0  0  0
 11 10  1  0  0  0  0
 12 17  1  6  0  0  0
 12 11  1  0  0  0  0
 15  9  1  0  0  0  0
 22  8  1  0  0  0  0
 22  1  1  0  0  0  0
M  END
>  <CHROM.1>
-168.16593983,79.89704042,-64.68402429,-6.08569550,-1.21022624,0.21228312
1.99912131,-0.14385013,-2.55807532

>  <Name>
lig.pdb

>  <RI>
0

>  <Rbt.Current_Directory>
/home/itssahil/PROJECTS/Mol_Feturizer/New_Systems/rnas/5bws

>  <Rbt.Executable>
rbdock ($Id: //depot/dev/client3/rdock/2013.1/src/exe/rbdock.cxx#4 $)

>  <Rbt.Library>
libRbt.so (2013.1, Build901 2013/11/27)

>  <Rbt.Parameter_File>
/export/apps/rDock/src/rDock_2013.1_src/data/scripts/dock_solv.prm

>  <Rbt.Receptor>
prm/pocket_docking_2.prm

>  <SCORE>
-11.4372

>  <SCORE.INTER>
-9.52314

>  <SCORE.INTER.CONST>
1

>  <SCORE.INTER.POLAR>
0

>  <SCORE.INTER.ROT>
3

>  <SCORE.INTER.SOLV>
19.7513

>  <SCORE.INTER.VDW>
-18.5325

>  <SCORE.INTER.norm>
-0.43287

>  <SCORE.INTRA>
-1.91404

>  <SCORE.INTRA.DIHEDRAL>
-3.57424

>  <SCORE.INTRA.DIHEDRAL.0>
6.10773

>  <SCORE.INTRA.POLAR>
0

>  <SCORE.INTRA.POLAR.0>
0

>  <SCORE.INTRA.REPUL>
0

>  <SCORE.INTRA.REPUL.0>
0

>  <SCORE.INTRA.SOLV>
-0.50211

>  <SCORE.INTRA.SOLV.lig_0>
-71.4024

>  <SCORE.INTRA.VDW>
0.124138

>  <SCORE.INTRA.VDW.0>
-1.86213

>  <SCORE.INTRA.norm>
-0.0870017

>  <SCORE.RESTR>
0

>  <SCORE.RESTR.CAVITY>
0

>  <SCORE.RESTR.norm>
0

>  <SCORE.SYSTEM>
0

>  <SCORE.SYSTEM.CONST>
0

>  <SCORE.SYSTEM.DIHEDRAL>
0

>  <SCORE.SYSTEM.SOLV>
0

>  <SCORE.SYSTEM.norm>
0

>  <SCORE.heavy>
22

>  <SCORE.norm>
-0.519872

>  <RMSD>
0.971

$$$$
lig.pdb
 OpenBabel11021811523D
libRbt.so/2013.1/901 2013/11/27
 22 23  0  0  0  0  0  0  0  0999 V2000
   -7.3720   -1.4588   -0.6109 C   0  0  1  0  0  0  0  0  0  0  0  0
   -5.4538   -0.2874    0.5465 C   0  0  1  0  0  0  0  0  0  0  0  0
   -6.1114    1.0649    1.0718 C   0  0  1  0  0  0  0  0  0  0  0  0
   -4.9525    2.1528    1.2082 C   0  0  2  0  0  0  0  0  0  0  0  0
   -8.6354   -2.2601   -0.1090 C   0  0  1  0  0  0  0  0  0  0  0  0
   -8.1685   -3.6653    0.3195 C   0  0  2  0  0  0  0  0  0  0  0  0
   -7.5527   -4.4250   -0.8688 C   0  0  2  0  0  0  0  0  0  0  0  0
   -6.3027   -3.6644   -1.4445 C   0  0  1  0  0  0  0  0  0  0  0  0
   -5.7102   -4.4001   -2.6808 C   0  0  0  0  0  0  0  0  0  0  0  0
   -3.8793    1.6480    2.3017 C   0  0  1  0  0  0  0  0  0  0  0  0
   -3.2388    0.2818    1.7387 C   0  0  0  0  0  0  0  0  0  0  0  0
   -4.3854   -0.8157    1.5560 C   0  0  2  0  0  0  0  0  0  0  0  0
   -8.5484   -4.5820   -1.9352 F   0  0  0  0  0  0  0  0  0  0  0  0
   -9.2426   -1.4906    1.0454 N   0  0  0  0  0  0  0  0  0  0  0  0
   -4.3992   -4.0066   -3.0341 N   0  0  0  0  0  0  0  0  0  0  0  0
   -2.7560    2.6347    2.4535 N   0  0  0  0  0  0  0  0  0  0  0  0
   -3.7916   -2.0652    1.0379 N   0  0  0  0  0  0  0  0  0  0  0  0
   -6.4453   -1.2949    0.4165 O   0  0  0  0  0  0  0  0  0  0  0  0
   -7.0998    1.5133    0.0626 O   0  0  0  0  0  0  0  0  0  0  0  0
   -5.5548    3.3292    1.6603 O   0  0  0  0  0  0  0  0  0  0  0  0
   -9.0912   -4.2484    0.6829 O   0  0  0  0  0  0  0  0  0  0  0  0
   -6.7692   -2.2357   -1.7784 O   0  0  0  0  0  0  0  0  0  0  0  0
  1  5  1  0  0  0  0
  1 18  1  1  0  0  0
  2 18  1  1  0  0  0
  2  3  1  0  0  0  0
  2 12  1  0  0  0  0
  3 19  1  6  0  0  0
  3  4  1  0  0  0  0
  4 20  1  1  0  0  0
  4 10  1  0  0  0  0
  5  6  1  0  0  0  0
  5 14  1  1  0  0  0
  6 21  1  6  0  0  0
  7 13  1  6  0  0  0
  7  6  1  0  0  0  0
  8  9  1  6  0  0  0
  8  7  1  0  0  0  0
 10 16  1  6  0  0  0
 11 10  1  0  0  0  0
 12 17  1  6  0  0  0
 12 11  1  0  0  0  0
 15  9  1  0  0  0  0
 22  8  1  0  0  0  0
 22  1  1  0  0  0  0
M  END
>  <CHROM.1>
-155.61922827,78.80695659,-163.49945667,-6.21782775,-1.31928058,0.12597703
2.02502400,-0.12536830,-2.60801325

>  <Name>
lig.pdb

>  <RI>
0

>  <Rbt.Current_Directory>
/home/itssahil/PROJECTS/Mol_Feturizer/New_Systems/rnas/5bws

>  <Rbt.Executable>
rbdock ($Id: //depot/dev/client3/rdock/2013.1/src/exe/rbdock.cxx#4 $)

>  <Rbt.Library>
libRbt.so (2013.1, Build901 2013/11/27)

>  <Rbt.Parameter_File>
/export/apps/rDock/src/rDock_2013.1_src/data/scripts/dock_solv.prm

>  <Rbt.Receptor>
prm/pocket_docking_2.prm

>  <SCORE>
-8.91908

>  <SCORE.INTER>
-8.13433

>  <SCORE.INTER.CONST>
1

>  <SCORE.INTER.POLAR>
0

>  <SCORE.INTER.ROT>
3

>  <SCORE.INTER.SOLV>
20.8982

>  <SCORE.INTER.VDW>
-17.9889

>  <SCORE.INTER.norm>
-0.369742

>  <SCORE.INTRA>
-0.785563

>  <SCORE.INTRA.DIHEDRAL>
-1.01725

>  <SCORE.INTRA.DIHEDRAL.0>
6.10773

>  <SCORE.INTRA.POLAR>
0

>  <SCORE.INTRA.POLAR.0>
0

>  <SCORE.INTRA.REPUL>
0

>  <SCORE.INTRA.REPUL.0>
0

>  <SCORE.INTRA.SOLV>
-0.773405

>  <SCORE.INTRA.SOLV.lig_0>
-71.4024

>  <SCORE.INTRA.VDW>
0.109763

>  <SCORE.INTRA.VDW.0>
-1.86213

>  <SCORE.INTRA.norm>
-0.0357074

>  <SCORE.RESTR>
0.000808537

>  <SCORE.RESTR.CAVITY>
0.000808537

>  <SCORE.RESTR.norm>
3.67517e-05

>  <SCORE.SYSTEM>
0

>  <SCORE.SYSTEM.CONST>
0

>  <SCORE.SYSTEM.DIHEDRAL>
0

>  <SCORE.SYSTEM.SOLV>
0

>  <SCORE.SYSTEM.norm>
0

>  <SCORE.heavy>
22

>  <SCORE.norm>
-0.405413

>  <RMSD>
0.973

$$$$
lig.pdb
 OpenBabel11021811523D
libRbt.so/2013.1/901 2013/11/27
 22 23  0  0  0  0  0  0  0  0999 V2000
   -7.4225   -1.2716   -0.3290 C   0  0  1  0  0  0  0  0  0  0  0  0
   -5.4366   -0.1515    0.7631 C   0  0  1  0  0  0  0  0  0  0  0  0
   -6.0400    1.1910    1.3717 C   0  0  1  0  0  0  0  0  0  0  0  0
   -4.8578    2.2575    1.4738 C   0  0  2  0  0  0  0  0  0  0  0  0
   -8.5315   -2.3074    0.1040 C   0  0  1  0  0  0  0  0  0  0  0  0
   -7.8575   -3.6833    0.2738 C   0  0  2  0  0  0  0  0  0  0  0  0
   -7.2404   -4.1595   -1.0532 C   0  0  2  0  0  0  0  0  0  0  0  0
   -6.1450   -3.1542   -1.5647 C   0  0  1  0  0  0  0  0  0  0  0  0
   -5.5577   -3.6028   -2.9339 C   0  0  0  0  0  0  0  0  0  0  0  0
   -3.7292    1.7010    2.4830 C   0  0  1  0  0  0  0  0  0  0  0  0
   -3.1453    0.3461    1.8373 C   0  0  0  0  0  0  0  0  0  0  0  0
   -4.3181   -0.7286    1.6880 C   0  0  2  0  0  0  0  0  0  0  0  0
   -8.2850   -4.2878   -2.0757 F   0  0  0  0  0  0  0  0  0  0  0  0
   -9.1439   -1.8152    1.3986 N   0  0  0  0  0  0  0  0  0  0  0  0
   -4.8641   -4.8344   -2.9077 N   0  0  0  0  0  0  0  0  0  0  0  0
   -2.5832    2.6664    2.5993 N   0  0  0  0  0  0  0  0  0  0  0  0
   -3.7763   -1.9678    1.0938 N   0  0  0  0  0  0  0  0  0  0  0  0
   -6.4499   -1.1402    0.6599 O   0  0  0  0  0  0  0  0  0  0  0  0
   -7.0799    1.6872    0.4396 O   0  0  0  0  0  0  0  0  0  0  0  0
   -5.4133    3.4261    2.0002 O   0  0  0  0  0  0  0  0  0  0  0  0
   -8.6680   -4.4372    0.5872 O   0  0  0  0  0  0  0  0  0  0  0  0
   -6.8145   -1.7697   -1.6376 O   0  0  0  0  0  0  0  0  0  0  0  0
  1  5  1  0  0  0  0
  1 18  1  1  0  0  0
  2 18  1  1  0  0  0
  2  3  1  0  0  0  0
  2 12  1  0  0  0  0
  3 19  1  6  0  0  0
  3  4  1  0  0  0  0
  4 20  1  1  0  0  0
  4 10  1  0  0  0  0
  5  6  1  0  0  0  0
  5 14  1  1  0  0  0
  6 21  1  6  0  0  0
  7 13  1  6  0  0  0
  7  6  1  0  0  0  0
  8  9  1  6  0  0  0
  8  7  1  0  0  0  0
 10 16  1  6  0  0  0
 11 10  1  0  0  0  0
 12 17  1  6  0  0  0
 12 11  1  0  0  0  0
 15  9  1  0  0  0  0
 22  8  1  0  0  0  0
 22  1  1  0  0  0  0
M  END
>  <CHROM.1>
-167.58457388,80.21337985,-63.68531401,-6.12016826,-1.21435742,0.24387402
1.99755813,-0.13017768,-2.57108341

>  <Name>
lig.pdb

>  <RI>
0

>  <Rbt.Current_Directory>
/home/itssahil/PROJECTS/Mol_Feturizer/New_Systems/rnas/5bws

>  <Rbt.Executable>
rbdock ($Id: //depot/dev/client3/rdock/2013.1/src/exe/rbdock.cxx#4 $)

>  <Rbt.Library>
libRbt.so (2013.1, Build901 2013/11/27)

>  <Rbt.Parameter_File>
/export/apps/rDock/src/rDock_2013.1_src/data/scripts/dock_solv.prm

>  <Rbt.Receptor>
prm/pocket_docking_2.prm

>  <SCORE>
-11.4523

>  <SCORE.INTER>
-9.60572

>  <SCORE.INTER.CONST>
1

>  <SCORE.INTER.POLAR>
0

>  <SCORE.INTER.ROT>
3

>  <SCORE.INTER.SOLV>
19.3235

>  <SCORE.INTER.VDW>
-18.445

>  <SCORE.INTER.norm>
-0.436624

>  <SCORE.INTRA>
-1.84658

>  <SCORE.INTRA.DIHEDRAL>
-3.48765

>  <SCORE.INTRA.DIHEDRAL.0>
6.10773

>  <SCORE.INTRA.POLAR>
0

>  <SCORE.INTRA.POLAR.0>
0

>  <SCORE.INTRA.REPUL>
0

>  <SCORE.INTRA.REPUL.0>
0

>  <SCORE.INTRA.SOLV>
-0.450635

>  <SCORE.INTRA.SOLV.lig_0>
-71.4024

>  <SCORE.INTRA.VDW>
0.122565

>  <SCORE.INTRA.VDW.0>
-1.86213

>  <SCORE.INTRA.norm>
-0.0839355

>  <SCORE.RESTR>
0

>  <SCORE.RESTR.CAVITY>
0

>  <SCORE.RESTR.norm>
0

>  <SCORE.SYSTEM>
0

>  <SCORE.SYSTEM.CONST>
0

>  <SCORE.SYSTEM.DIHEDRAL>
0

>  <SCORE.SYSTEM.SOLV>
0

>  <SCORE.SYSTEM.norm>
0

>  <SCORE.heavy>
22

>  <SCORE.norm>
-0.520559

>  <RMSD>
0.974

$$$$
lig.pdb
 OpenBabel11021811523D
libRbt.so/2013.1/901 2013/11/27
 22 23  0  0  0  0  0  0  0  0999 V2000
   -7.4278   -1.2603   -0.3221 C   0  0  1  0  0  0  0  0  0  0  0  0
   -5.4468   -0.1338    0.7725 C   0  0  1  0  0  0  0  0  0  0  0  0
   -6.0546    1.2016    1.3925 C   0  0  1  0  0  0  0  0  0  0  0  0
   -4.8775    2.2735    1.4969 C   0  0  2  0  0  0  0  0  0  0  0  0
   -8.5364   -2.2958    0.1122 C   0  0  1  0  0  0  0  0  0  0  0  0
   -7.8620   -3.6712    0.2843 C   0  0  2  0  0  0  0  0  0  0  0  0
   -7.2444   -4.1492   -1.0418 C   0  0  2  0  0  0  0  0  0  0  0  0
   -6.1492   -3.1442   -1.5546 C   0  0  1  0  0  0  0  0  0  0  0  0
   -5.5614   -3.5947   -2.9229 C   0  0  0  0  0  0  0  0  0  0  0  0
   -3.7418    1.7160    2.4977 C   0  0  1  0  0  0  0  0  0  0  0  0
   -3.1537    0.3685    1.8406 C   0  0  0  0  0  0  0  0  0  0  0  0
   -4.3216   -0.7112    1.6889 C   0  0  2  0  0  0  0  0  0  0  0  0
   -8.2887   -4.2795   -2.0644 F   0  0  0  0  0  0  0  0  0  0  0  0
   -9.1494   -1.8018    1.4059 N   0  0  0  0  0  0  0  0  0  0  0  0
   -4.8407   -4.8104   -2.8883 N   0  0  0  0  0  0  0  0  0  0  0  0
   -2.6004    2.6866    2.6157 N   0  0  0  0  0  0  0  0  0  0  0  0
   -3.7759   -1.9436    1.0842 N   0  0  0  0  0  0  0  0  0  0  0  0
   -6.4555   -1.1270    0.6669 O   0  0  0  0  0  0  0  0  0  0  0  0
   -7.1009    1.6985    0.4681 O   0  0  0  0  0  0  0  0  0  0  0  0
   -5.4368    3.4356    2.0334 O   0  0  0  0  0  0  0  0  0  0  0  0
   -8.6723   -4.4249    0.5987 O   0  0  0  0  0  0  0  0  0  0  0  0
   -6.8192   -1.7601   -1.6297 O   0  0  0  0  0  0  0  0  0  0  0  0
  1  5  1  0  0  0  0
  1 18  1  1  0  0  0
  2 18  1  1  0  0  0
  2  3  1  0  0  0  0
  2 12  1  0  0  0  0
  3 19  1  6  0  0  0
  3  4  1  0  0  0  0
  4 20  1  1  0  0  0
  4 10  1  0  0  0  0
  5  6  1  0  0  0  0
  5 14  1  1  0  0  0
  6 21  1  6  0  0  0
  7 13  1  6  0  0  0
  7  6  1  0  0  0  0
  8  9  1  6  0  0  0
  8  7  1  0  0  0  0
 10 16  1  6  0  0  0
 11 10  1  0  0  0  0
 12 17  1  6  0  0  0
 12 11  1  0  0  0  0
 15  9  1  0  0  0  0
 22  8  1  0  0  0  0
 22  1  1  0  0  0  0
M  END
>  <CHROM.1>
-167.22968457,80.52624258,-65.09487365,-6.12735614,-1.20048401,0.25601386
1.99510131,-0.13142555,-2.57021005

>  <Name>
lig.pdb

>  <RI>
0

>  <Rbt.Current_Directory>
/home/itssahil/PROJECTS/Mol_Feturizer/New_Systems/rnas/5bws

>  <Rbt.Executable>
rbdock ($Id: //depot/dev/client3/rdock/2013.1/src/exe/rbdock.cxx#4 $)

>  <Rbt.Library>
libRbt.so (2013.1, Build901 2013/11/27)

>  <Rbt.Parameter_File>
/export/apps/rDock/src/rDock_2013.1_src/data/scripts/dock_solv.prm

>  <Rbt.Receptor>
prm/pocket_docking_2.prm

>  <SCORE>
-11.4228

>  <SCORE.INTER>
-9.63666

>  <SCORE.INTER.CONST>
1

>  <SCORE.INTER.POLAR>
0

>  <SCORE.INTER.ROT>
3

>  <SCORE.INTER.SOLV>
19.2755

>  <SCORE.INTER.VDW>
-18.4496

>  <SCORE.INTER.norm>
-0.43803

>  <SCORE.INTRA>
-1.78611

>  <SCORE.INTRA.DIHEDRAL>
-3.35057

>  <SCORE.INTRA.DIHEDRAL.0>
6.10773

>  <SCORE.INTRA.POLAR>
0

>  <SCORE.INTRA.POLAR.0>
0

>  <SCORE.INTRA.REPUL>
0

>  <SCORE.INTRA.REPUL.0>
0

>  <SCORE.INTRA.SOLV>
-0.452518

>  <SCORE.INTRA.SOLV.lig_0>
-71.4024

>  <SCORE.INTRA.VDW>
0.115439

>  <SCORE.INTRA.VDW.0>
-1.86213

>  <SCORE.INTRA.norm>
-0.0811867

>  <SCORE.RESTR>
0

>  <SCORE.RESTR.CAVITY>
0

>  <SCORE.RESTR.norm>
0

>  <SCORE.SYSTEM>
0

>  <SCORE.SYSTEM.CONST>
0

>  <SCORE.SYSTEM.DIHEDRAL>
0

>  <SCORE.SYSTEM.SOLV>
0

>  <SCORE.SYSTEM.norm>
0

>  <SCORE.heavy>
22

>  <SCORE.norm>
-0.519217

>  <RMSD>
0.974

$$$$
lig.pdb
 OpenBabel11021811523D
libRbt.so/2013.1/901 2013/11/27
 22 23  0  0  0  0  0  0  0  0999 V2000
   -7.3033   -1.2836   -0.6325 C   0  0  1  0  0  0  0  0  0  0  0  0
   -5.5094   -0.0499    0.6524 C   0  0  1  0  0  0  0  0  0  0  0  0
   -6.0971    1.3076    1.2430 C   0  0  1  0  0  0  0  0  0  0  0  0
   -4.8893    2.3385    1.3973 C   0  0  2  0  0  0  0  0  0  0  0  0
   -8.5157   -2.2327   -0.2869 C   0  0  1  0  0  0  0  0  0  0  0  0
   -7.9430   -3.5706    0.2216 C   0  0  2  0  0  0  0  0  0  0  0  0
   -7.0892   -4.2498   -0.8638 C   0  0  2  0  0  0  0  0  0  0  0  0
   -5.8753   -3.3428   -1.2836 C   0  0  1  0  0  0  0  0  0  0  0  0
   -5.0410   -4.0011   -2.4200 C   0  0  0  0  0  0  0  0  0  0  0  0
   -3.8187    1.7453    2.4480 C   0  0  1  0  0  0  0  0  0  0  0  0
   -3.2493    0.3762    1.8195 C   0  0  0  0  0  0  0  0  0  0  0  0
   -4.4462   -0.6630    1.6183 C   0  0  2  0  0  0  0  0  0  0  0  0
   -7.9097   -4.5272   -2.0483 F   0  0  0  0  0  0  0  0  0  0  0  0
   -9.3579   -1.5427    0.7657 N   0  0  0  0  0  0  0  0  0  0  0  0
   -5.7528   -4.2387   -3.6181 N   0  0  0  0  0  0  0  0  0  0  0  0
   -2.6505    2.6761    2.6145 N   0  0  0  0  0  0  0  0  0  0  0  0
   -3.9176   -1.9154    1.0401 N   0  0  0  0  0  0  0  0  0  0  0  0
   -6.5464   -1.0079    0.5042 O   0  0  0  0  0  0  0  0  0  0  0  0
   -7.0840    1.8376    0.2727 O   0  0  0  0  0  0  0  0  0  0  0  0
   -5.4309    3.5209    1.9069 O   0  0  0  0  0  0  0  0  0  0  0  0
   -8.8284   -4.2616    0.4708 O   0  0  0  0  0  0  0  0  0  0  0  0
   -6.4628   -1.9816   -1.6986 O   0  0  0  0  0  0  0  0  0  0  0  0
  1  5  1  0  0  0  0
  1 18  1  1  0  0  0
  2 18  1  1  0  0  0
  2  3  1  0  0  0  0
  2 12  1  0  0  0  0
  3 19  1  6  0  0  0
  3  4  1  0  0  0  0
  4 20  1  1  0  0  0
  4 10  1  0  0  0  0
  5  6  1  0  0  0  0
  5 14  1  1  0  0  0
  6 21  1  6  0  0  0
  7 13  1  6  0  0  0
  7  6  1  0  0  0  0
  8  9  1  6  0  0  0
  8  7  1  0  0  0  0
 10 16  1  6  0  0  0
 11 10  1  0  0  0  0
 12 17  1  6  0  0  0
 12 11  1  0  0  0  0
 15  9  1  0  0  0  0
 22  8  1  0  0  0  0
 22  1  1  0  0  0  0
M  END
>  <CHROM.1>
-169.70756045,94.55195701,60.76496807,-6.13002199,-1.17362718,0.14671164
1.97474760,-0.07581775,-2.60112824

>  <Name>
lig.pdb

>  <RI>
0

>  <Rbt.Current_Directory>
/home/itssahil/PROJECTS/Mol_Feturizer/New_Systems/rnas/5bws

>  <Rbt.Executable>
rbdock ($Id: //depot/dev/client3/rdock/2013.1/src/exe/rbdock.cxx#4 $)

>  <Rbt.Library>
libRbt.so (2013.1, Build901 2013/11/27)

>  <Rbt.Parameter_File>
/export/apps/rDock/src/rDock_2013.1_src/data/scripts/dock_solv.prm

>  <Rbt.Receptor>
prm/pocket_docking_2.prm

>  <SCORE>
-8.12188

>  <SCORE.INTER>
-8.34324

>  <SCORE.INTER.CONST>
1

>  <SCORE.INTER.POLAR>
0

>  <SCORE.INTER.ROT>
3

>  <SCORE.INTER.SOLV>
21.6233

>  <SCORE.INTER.VDW>
-18.3699

>  <SCORE.INTER.norm>
-0.379238

>  <SCORE.INTRA>
0.22136

>  <SCORE.INTRA.DIHEDRAL>
-1.14537

>  <SCORE.INTRA.DIHEDRAL.0>
6.10773

>  <SCORE.INTRA.POLAR>
0

>  <SCORE.INTRA.POLAR.0>
0

>  <SCORE.INTRA.REPUL>
0

>  <SCORE.INTRA.REPUL.0>
0

>  <SCORE.INTRA.SOLV>
1.81213

>  <SCORE.INTRA.SOLV.lig_0>
-71.4024

>  <SCORE.INTRA.VDW>
-0.112023

>  <SCORE.INTRA.VDW.0>
-1.86213

>  <SCORE.INTRA.norm>
0.0100618

>  <SCORE.RESTR>
0

>  <SCORE.RESTR.CAVITY>
0

>  <SCORE.RESTR.norm>
0

>  <SCORE.SYSTEM>
0

>  <SCORE.SYSTEM.CONST>
0

>  <SCORE.SYSTEM.DIHEDRAL>
0

>  <SCORE.SYSTEM.SOLV>
0

>  <SCORE.SYSTEM.norm>
0

>  <SCORE.heavy>
22

>  <SCORE.norm>
-0.369176

>  <RMSD>
0.975

$$$$
lig.pdb
 OpenBabel11021811523D
libRbt.so/2013.1/901 2013/11/27
 22 23  0  0  0  0  0  0  0  0999 V2000
   -7.3906   -1.2940   -0.3512 C   0  0  1  0  0  0  0  0  0  0  0  0
   -5.4127   -0.1626    0.7437 C   0  0  1  0  0  0  0  0  0  0  0  0
   -6.0438    1.1862    1.3089 C   0  0  1  0  0  0  0  0  0  0  0  0
   -4.8743    2.2656    1.4205 C   0  0  2  0  0  0  0  0  0  0  0  0
   -8.5104   -2.3118    0.0962 C   0  0  1  0  0  0  0  0  0  0  0  0
   -7.8519   -3.6935    0.2802 C   0  0  2  0  0  0  0  0  0  0  0  0
   -7.2437   -4.1918   -1.0427 C   0  0  2  0  0  0  0  0  0  0  0  0
   -6.1380   -3.2052   -1.5683 C   0  0  1  0  0  0  0  0  0  0  0  0
   -5.5592   -3.6762   -2.9335 C   0  0  0  0  0  0  0  0  0  0  0  0
   -3.7680    1.7399    2.4702 C   0  0  1  0  0  0  0  0  0  0  0  0
   -3.1552    0.3779    1.8677 C   0  0  0  0  0  0  0  0  0  0  0  0
   -4.3141   -0.7105    1.7093 C   0  0  2  0  0  0  0  0  0  0  0  0
   -8.2922   -4.3198   -2.0613 F   0  0  0  0  0  0  0  0  0  0  0  0
   -9.1140   -1.7978    1.3866 N   0  0  0  0  0  0  0  0  0  0  0  0
   -4.8677   -4.9085   -2.8920 N   0  0  0  0  0  0  0  0  0  0  0  0
   -2.6341    2.7181    2.5971 N   0  0  0  0  0  0  0  0  0  0  0  0
   -3.7458   -1.9563    1.1547 N   0  0  0  0  0  0  0  0  0  0  0  0
   -6.4142   -1.1625    0.6339 O   0  0  0  0  0  0  0  0  0  0  0  0
   -7.0630    1.6539    0.3399 O   0  0  0  0  0  0  0  0  0  0  0  0
   -5.4538    3.4391    1.9084 O   0  0  0  0  0  0  0  0  0  0  0  0
   -8.6703   -4.4343    0.6041 O   0  0  0  0  0  0  0  0  0  0  0  0
   -6.7916   -1.8140   -1.6554 O   0  0  0  0  0  0  0  0  0  0  0  0
  1  5  1  0  0  0  0
  1 18  1  1  0  0  0
  2 18  1  1  0  0  0
  2  3  1  0  0  0  0
  2 12  1  0  0  0  0
  3 19  1  6  0  0  0
  3  4  1  0  0  0  0
  4 20  1  1  0  0  0
  4 10  1  0  0  0  0
  5  6  1  0  0  0  0
  5 14  1  1  0  0  0
  6 21  1  6  0  0  0
  7 13  1  6  0  0  0
  7  6  1  0  0  0  0
  8  9  1  6  0  0  0
  8  7  1  0  0  0  0
 10 16  1  6  0  0  0
 11 10  1  0  0  0  0
 12 17  1  6  0  0  0
 12 11  1  0  0  0  0
 15  9  1  0  0  0  0
 22  8  1  0  0  0  0
 22  1  1  0  0  0  0
M  END
>  <CHROM.1>
-165.63566404,77.59192165,-64.32003544,-6.11787351,-1.22510968,0.23180087
1.99150517,-0.12059705,-2.58334418

>  <Name>
lig.pdb

>  <RI>
0

>  <Rbt.Current_Directory>
/home/itssahil/PROJECTS/Mol_Feturizer/New_Systems/rnas/5bws

>  <Rbt.Executable>
rbdock ($Id: //depot/dev/client3/rdock/2013.1/src/exe/rbdock.cxx#4 $)

>  <Rbt.Library>
libRbt.so (2013.1, Build901 2013/11/27)

>  <Rbt.Parameter_File>
/export/apps/rDock/src/rDock_2013.1_src/data/scripts/dock_solv.prm

>  <Rbt.Receptor>
prm/pocket_docking_2.prm

>  <SCORE>
-11.4126

>  <SCORE.INTER>
-9.48627

>  <SCORE.INTER.CONST>
1

>  <SCORE.INTER.POLAR>
0

>  <SCORE.INTER.ROT>
3

>  <SCORE.INTER.SOLV>
19.1693

>  <SCORE.INTER.VDW>
-18.3139

>  <SCORE.INTER.norm>
-0.431194

>  <SCORE.INTRA>
-1.92629

>  <SCORE.INTRA.DIHEDRAL>
-3.645

>  <SCORE.INTRA.DIHEDRAL.0>
6.10773

>  <SCORE.INTRA.POLAR>
0

>  <SCORE.INTRA.POLAR.0>
0

>  <SCORE.INTRA.REPUL>
0

>  <SCORE.INTRA.REPUL.0>
0

>  <SCORE.INTRA.SOLV>
-0.53141

>  <SCORE.INTRA.SOLV.lig_0>
-71.4024

>  <SCORE.INTRA.VDW>
0.161914

>  <SCORE.INTRA.VDW.0>
-1.86213

>  <SCORE.INTRA.norm>
-0.0875588

>  <SCORE.RESTR>
0

>  <SCORE.RESTR.CAVITY>
0

>  <SCORE.RESTR.norm>
0

>  <SCORE.SYSTEM>
0

>  <SCORE.SYSTEM.CONST>
0

>  <SCORE.SYSTEM.DIHEDRAL>
0

>  <SCORE.SYSTEM.SOLV>
0

>  <SCORE.SYSTEM.norm>
0

>  <SCORE.heavy>
22

>  <SCORE.norm>
-0.518753

>  <RMSD>
0.975

$$$$
lig.pdb
 OpenBabel11021811523D
libRbt.so/2013.1/901 2013/11/27
 22 23  0  0  0  0  0  0  0  0999 V2000
   -7.4199   -1.2754   -0.3371 C   0  0  1  0  0  0  0  0  0  0  0  0
   -5.4341   -0.1471    0.7468 C   0  0  1  0  0  0  0  0  0  0  0  0
   -6.0432    1.2007    1.3379 C   0  0  1  0  0  0  0  0  0  0  0  0
   -4.8636    2.2705    1.4348 C   0  0  2  0  0  0  0  0  0  0  0  0
   -8.5273   -2.3096    0.1034 C   0  0  1  0  0  0  0  0  0  0  0  0
   -7.8523   -3.6844    0.2782 C   0  0  2  0  0  0  0  0  0  0  0  0
   -7.2381   -4.1666   -1.0480 C   0  0  2  0  0  0  0  0  0  0  0  0
   -6.1444   -3.1632   -1.5668 C   0  0  1  0  0  0  0  0  0  0  0  0
   -5.5600   -3.6180   -2.9352 C   0  0  0  0  0  0  0  0  0  0  0  0
   -3.7392    1.7269    2.4559 C   0  0  1  0  0  0  0  0  0  0  0  0
   -3.1494    0.3663    1.8277 C   0  0  0  0  0  0  0  0  0  0  0  0
   -4.3195   -0.7122    1.6837 C   0  0  2  0  0  0  0  0  0  0  0  0
   -8.2850   -4.3003   -2.0674 F   0  0  0  0  0  0  0  0  0  0  0  0
   -9.1370   -1.8115    1.3971 N   0  0  0  0  0  0  0  0  0  0  0  0
   -4.8532   -4.8419   -2.9018 N   0  0  0  0  0  0  0  0  0  0  0  0
   -2.5957    2.6956    2.5678 N   0  0  0  0  0  0  0  0  0  0  0  0
   -3.7723   -1.9566    1.1056 N   0  0  0  0  0  0  0  0  0  0  0  0
   -6.4451   -1.1388    0.6489 O   0  0  0  0  0  0  0  0  0  0  0  0
   -7.0791    1.6849    0.3951 O   0  0  0  0  0  0  0  0  0  0  0  0
   -5.4239    3.4435    1.9458 O   0  0  0  0  0  0  0  0  0  0  0  0
   -8.6617   -4.4371    0.5971 O   0  0  0  0  0  0  0  0  0  0  0  0
   -6.8147   -1.7794   -1.6447 O   0  0  0  0  0  0  0  0  0  0  0  0
  1  5  1  0  0  0  0
  1 18  1  1  0  0  0
  2 18  1  1  0  0  0
  2  3  1  0  0  0  0
  2 12  1  0  0  0  0
  3 19  1  6  0  0  0
  3  4  1  0  0  0  0
  4 20  1  1  0  0  0
  4 10  1  0  0  0  0
  5  6  1  0  0  0  0
  5 14  1  1  0  0  0
  6 21  1  6  0  0  0
  7 13  1  6  0  0  0
  7  6  1  0  0  0  0
  8  9  1  6  0  0  0
  8  7  1  0  0  0  0
 10 16  1  6  0  0  0
 11 10  1  0  0  0  0
 12 17  1  6  0  0  0
 12 11  1  0  0  0  0
 15  9  1  0  0  0  0
 22  8  1  0  0  0  0
 22  1  1  0  0  0  0
M  END
>  <CHROM.1>
-167.40650587,79.56508071,-64.34801381,-6.12009889,-1.21098197,0.23269375
1.99635631,-0.13105585,-2.57741075

>  <Name>
lig.pdb

>  <RI>
0

>  <Rbt.Current_Directory>
/home/itssahil/PROJECTS/Mol_Feturizer/New_Systems/rnas/5bws

>  <Rbt.Executable>
rbdock ($Id: //depot/dev/client3/rdock/2013.1/src/exe/rbdock.cxx#4 $)

>  <Rbt.Library>
libRbt.so (2013.1, Build901 2013/11/27)

>  <Rbt.Parameter_File>
/export/apps/rDock/src/rDock_2013.1_src/data/scripts/dock_solv.prm

>  <Rbt.Receptor>
prm/pocket_docking_2.prm

>  <SCORE>
-11.4213

>  <SCORE.INTER>
-9.52998

>  <SCORE.INTER.CONST>
1

>  <SCORE.INTER.POLAR>
0

>  <SCORE.INTER.ROT>
3

>  <SCORE.INTER.SOLV>
19.2688

>  <SCORE.INTER.VDW>
-18.3762

>  <SCORE.INTER.norm>
-0.433181

>  <SCORE.INTRA>
-1.89135

>  <SCORE.INTRA.DIHEDRAL>
-3.55345

>  <SCORE.INTRA.DIHEDRAL.0>
6.10773

>  <SCORE.INTRA.POLAR>
0

>  <SCORE.INTRA.POLAR.0>
0

>  <SCORE.INTRA.REPUL>
0

>  <SCORE.INTRA.REPUL.0>
0

>  <SCORE.INTRA.SOLV>
-0.490514

>  <SCORE.INTRA.SOLV.lig_0>
-71.4024

>  <SCORE.INTRA.VDW>
0.130627

>  <SCORE.INTRA.VDW.0>
-1.86213

>  <SCORE.INTRA.norm>
-0.0859707

>  <SCORE.RESTR>
0

>  <SCORE.RESTR.CAVITY>
0

>  <SCORE.RESTR.norm>
0

>  <SCORE.SYSTEM>
0

>  <SCORE.SYSTEM.CONST>
0

>  <SCORE.SYSTEM.DIHEDRAL>
0

>  <SCORE.SYSTEM.SOLV>
0

>  <SCORE.SYSTEM.norm>
0

>  <SCORE.heavy>
22

>  <SCORE.norm>
-0.519152

>  <RMSD>
0.975

$$$$
lig.pdb
 OpenBabel11021811523D
libRbt.so/2013.1/901 2013/11/27
 22 23  0  0  0  0  0  0  0  0999 V2000
   -7.4108   -1.2889   -0.3446 C   0  0  1  0  0  0  0  0  0  0  0  0
   -5.4247   -0.1603    0.7383 C   0  0  1  0  0  0  0  0  0  0  0  0
   -6.0391    1.1947    1.3071 C   0  0  1  0  0  0  0  0  0  0  0  0
   -4.8598    2.2647    1.4046 C   0  0  2  0  0  0  0  0  0  0  0  0
   -8.5218   -2.3177    0.0997 C   0  0  1  0  0  0  0  0  0  0  0  0
   -7.8516   -3.6942    0.2792 C   0  0  2  0  0  0  0  0  0  0  0  0
   -7.2394   -4.1832   -1.0454 C   0  0  2  0  0  0  0  0  0  0  0  0
   -6.1422   -3.1855   -1.5680 C   0  0  1  0  0  0  0  0  0  0  0  0
   -5.5597   -3.6472   -2.9348 C   0  0  0  0  0  0  0  0  0  0  0  0
   -3.7471    1.7321    2.4441 C   0  0  1  0  0  0  0  0  0  0  0  0
   -3.1516    0.3639    1.8382 C   0  0  0  0  0  0  0  0  0  0  0  0
   -4.3209   -0.7153    1.6938 C   0  0  2  0  0  0  0  0  0  0  0  0
   -8.2869   -4.3168   -2.0642 F   0  0  0  0  0  0  0  0  0  0  0  0
   -9.1296   -1.8129    1.3917 N   0  0  0  0  0  0  0  0  0  0  0  0
   -4.8749   -4.8836   -2.9013 N   0  0  0  0  0  0  0  0  0  0  0  0
   -2.6041    2.7013    2.5574 N   0  0  0  0  0  0  0  0  0  0  0  0
   -3.7684   -1.9667    1.1361 N   0  0  0  0  0  0  0  0  0  0  0  0
   -6.4354   -1.1523    0.6407 O   0  0  0  0  0  0  0  0  0  0  0  0
   -7.0642    1.6687    0.3475 O   0  0  0  0  0  0  0  0  0  0  0  0
   -5.4247    3.4439    1.8959 O   0  0  0  0  0  0  0  0  0  0  0  0
   -8.6636   -4.4430    0.6008 O   0  0  0  0  0  0  0  0  0  0  0  0
   -6.8076   -1.7997   -1.6506 O   0  0  0  0  0  0  0  0  0  0  0  0
  1  5  1  0  0  0  0
  1 18  1  1  0  0  0
  2 18  1  1  0  0  0
  2  3  1  0  0  0  0
  2 12  1  0  0  0  0
  3 19  1  6  0  0  0
  3  4  1  0  0  0  0
  4 20  1  1  0  0  0
  4 10  1  0  0  0  0
  5  6  1  0  0  0  0
  5 14  1  1  0  0  0
  6 21  1  6  0  0  0
  7 13  1  6  0  0  0
  7  6  1  0  0  0  0
  8  9  1  6  0  0  0
  8  7  1  0  0  0  0
 10 16  1  6  0  0  0
 11 10  1  0  0  0  0
 12 17  1  6  0  0  0
 12 11  1  0  0  0  0
 15  9  1  0  0  0  0
 22  8  1  0  0  0  0
 22  1  1  0  0  0  0
M  END
>  <CHROM.1>
-167.08923924,78.60866088,-63.41800915,-6.11866282,-1.22220652,0.22519950
1.99591457,-0.12703995,-2.58279018

>  <Name>
lig.pdb

>  <RI>
0

>  <Rbt.Current_Directory>
/home/itssahil/PROJECTS/Mol_Feturizer/New_Systems/rnas/5bws

>  <Rbt.Executable>
rbdock ($Id: //depot/dev/client3/rdock/2013.1/src/exe/rbdock.cxx#4 $)

>  <Rbt.Library>
libRbt.so (2013.1, Build901 2013/11/27)

>  <Rbt.Parameter_File>
/export/apps/rDock/src/rDock_2013.1_src/data/scripts/dock_solv.prm

>  <Rbt.Receptor>
prm/pocket_docking_2.prm

>  <SCORE>
-11.4165

>  <SCORE.INTER>
-9.46468

>  <SCORE.INTER.CONST>
1

>  <SCORE.INTER.POLAR>
0

>  <SCORE.INTER.ROT>
3

>  <SCORE.INTER.SOLV>
19.2404

>  <SCORE.INTER.VDW>
-18.3232

>  <SCORE.INTER.norm>
-0.430213

>  <SCORE.INTRA>
-1.95185

>  <SCORE.INTRA.DIHEDRAL>
-3.694

>  <SCORE.INTRA.DIHEDRAL.0>
6.10773

>  <SCORE.INTRA.POLAR>
0

>  <SCORE.INTRA.POLAR.0>
0

>  <SCORE.INTRA.REPUL>
0

>  <SCORE.INTRA.REPUL.0>
0

>  <SCORE.INTRA.SOLV>
-0.504123

>  <SCORE.INTRA.SOLV.lig_0>
-71.4024

>  <SCORE.INTRA.VDW>
0.147216

>  <SCORE.INTRA.VDW.0>
-1.86213

>  <SCORE.INTRA.norm>
-0.0887203

>  <SCORE.RESTR>
0

>  <SCORE.RESTR.CAVITY>
0

>  <SCORE.RESTR.norm>
0

>  <SCORE.SYSTEM>
0

>  <SCORE.SYSTEM.CONST>
0

>  <SCORE.SYSTEM.DIHEDRAL>
0

>  <SCORE.SYSTEM.SOLV>
0

>  <SCORE.SYSTEM.norm>
0

>  <SCORE.heavy>
22

>  <SCORE.norm>
-0.518933

>  <RMSD>
0.977

$$$$
lig.pdb
 OpenBabel11021811523D
libRbt.so/2013.1/901 2013/11/27
 22 23  0  0  0  0  0  0  0  0999 V2000
   -7.4195   -1.2811   -0.3369 C   0  0  1  0  0  0  0  0  0  0  0  0
   -5.4335   -0.1543    0.7482 C   0  0  1  0  0  0  0  0  0  0  0  0
   -6.0451    1.1972    1.3280 C   0  0  1  0  0  0  0  0  0  0  0  0
   -4.8652    2.2665    1.4266 C   0  0  2  0  0  0  0  0  0  0  0  0
   -8.5258   -2.3173    0.1015 C   0  0  1  0  0  0  0  0  0  0  0  0
   -7.8494   -3.6918    0.2733 C   0  0  2  0  0  0  0  0  0  0  0  0
   -7.2349   -4.1706   -1.0540 C   0  0  2  0  0  0  0  0  0  0  0  0
   -6.1422   -3.1650   -1.5708 C   0  0  1  0  0  0  0  0  0  0  0  0
   -5.5575   -3.6164   -2.9402 C   0  0  0  0  0  0  0  0  0  0  0  0
   -3.7478    1.7275    2.4577 C   0  0  1  0  0  0  0  0  0  0  0  0
   -3.1553    0.3630    1.8408 C   0  0  0  0  0  0  0  0  0  0  0  0
   -4.3253   -0.7152    1.6952 C   0  0  2  0  0  0  0  0  0  0  0  0
   -8.2818   -4.3031   -2.0737 F   0  0  0  0  0  0  0  0  0  0  0  0
   -9.1359   -1.8226    1.3963 N   0  0  0  0  0  0  0  0  0  0  0  0
   -4.8589   -4.8451   -2.9117 N   0  0  0  0  0  0  0  0  0  0  0  0
   -2.6042    2.6959    2.5716 N   0  0  0  0  0  0  0  0  0  0  0  0
   -3.7755   -1.9633    1.1274 N   0  0  0  0  0  0  0  0  0  0  0  0
   -6.4447   -1.1456    0.6493 O   0  0  0  0  0  0  0  0  0  0  0  0
   -7.0745    1.6772    0.3761 O   0  0  0  0  0  0  0  0  0  0  0  0
   -5.4277    3.4428    1.9276 O   0  0  0  0  0  0  0  0  0  0  0  0
   -8.6581   -4.4460    0.5906 O   0  0  0  0  0  0  0  0  0  0  0  0
   -6.8139   -1.7817   -1.6456 O   0  0  0  0  0  0  0  0  0  0  0  0
  1  5  1  0  0  0  0
  1 18  1  1  0  0  0
  2 18  1  1  0  0  0
  2  3  1  0  0  0  0
  2 12  1  0  0  0  0
  3 19  1  6  0  0  0
  3  4  1  0  0  0  0
  4 20  1  1  0  0  0
  4 10  1  0  0  0  0
  5  6  1  0  0  0  0
  5 14  1  1  0  0  0
  6 21  1  6  0  0  0
  7 13  1  6  0  0  0
  7  6  1  0  0  0  0
  8  9  1  6  0  0  0
  8  7  1  0  0  0  0
 10 16  1  6  0  0  0
 11 10  1  0  0  0  0
 12 17  1  6  0  0  0
 12 11  1  0  0  0  0
 15  9  1  0  0  0  0
 22  8  1  0  0  0  0
 22  1  1  0  0  0  0
M  END
>  <CHROM.1>
-167.50545637,79.05154129,-63.85221664,-6.12079716,-1.21531630,0.23023488
1.99559107,-0.13032880,-2.57756137

>  <Name>
lig.pdb

>  <RI>
0

>  <Rbt.Current_Directory>
/home/itssahil/PROJECTS/Mol_Feturizer/New_Systems/rnas/5bws

>  <Rbt.Executable>
rbdock ($Id: //depot/dev/client3/rdock/2013.1/src/exe/rbdock.cxx#4 $)

>  <Rbt.Library>
libRbt.so (2013.1, Build901 2013/11/27)

>  <Rbt.Parameter_File>
/export/apps/rDock/src/rDock_2013.1_src/data/scripts/dock_solv.prm

>  <Rbt.Receptor>
prm/pocket_docking_2.prm

>  <SCORE>
-11.4415

>  <SCORE.INTER>
-9.49757

>  <SCORE.INTER.CONST>
1

>  <SCORE.INTER.POLAR>
0

>  <SCORE.INTER.ROT>
3

>  <SCORE.INTER.SOLV>
19.3111

>  <SCORE.INTER.VDW>
-18.3688

>  <SCORE.INTER.norm>
-0.431708

>  <SCORE.INTRA>
-1.9439

>  <SCORE.INTRA.DIHEDRAL>
-3.66145

>  <SCORE.INTRA.DIHEDRAL.0>
6.10773

>  <SCORE.INTRA.POLAR>
0

>  <SCORE.INTRA.POLAR.0>
0

>  <SCORE.INTRA.REPUL>
0

>  <SCORE.INTRA.REPUL.0>
0

>  <SCORE.INTRA.SOLV>
-0.504644

>  <SCORE.INTRA.SOLV.lig_0>
-71.4024

>  <SCORE.INTRA.VDW>
0.13915

>  <SCORE.INTRA.VDW.0>
-1.86213

>  <SCORE.INTRA.norm>
-0.088359

>  <SCORE.RESTR>
0

>  <SCORE.RESTR.CAVITY>
0

>  <SCORE.RESTR.norm>
0

>  <SCORE.SYSTEM>
0

>  <SCORE.SYSTEM.CONST>
0

>  <SCORE.SYSTEM.DIHEDRAL>
0

>  <SCORE.SYSTEM.SOLV>
0

>  <SCORE.SYSTEM.norm>
0

>  <SCORE.heavy>
22

>  <SCORE.norm>
-0.520067

>  <RMSD>
0.979

$$$$
lig.pdb
 OpenBabel11021811523D
libRbt.so/2013.1/901 2013/11/27
 22 23  0  0  0  0  0  0  0  0999 V2000
   -7.4058   -1.2903   -0.3499 C   0  0  1  0  0  0  0  0  0  0  0  0
   -5.4247   -0.1571    0.7376 C   0  0  1  0  0  0  0  0  0  0  0  0
   -6.0471    1.1929    1.3097 C   0  0  1  0  0  0  0  0  0  0  0  0
   -4.8736    2.2687    1.4125 C   0  0  2  0  0  0  0  0  0  0  0  0
   -8.5192   -2.3156    0.0964 C   0  0  1  0  0  0  0  0  0  0  0  0
   -7.8522   -3.6934    0.2786 C   0  0  2  0  0  0  0  0  0  0  0  0
   -7.2410   -4.1863   -1.0450 C   0  0  2  0  0  0  0  0  0  0  0  0
   -6.1415   -3.1922   -1.5694 C   0  0  1  0  0  0  0  0  0  0  0  0
   -5.5599   -3.6580   -2.9354 C   0  0  0  0  0  0  0  0  0  0  0  0
   -3.7598    1.7386    2.4520 C   0  0  1  0  0  0  0  0  0  0  0  0
   -3.1561    0.3756    1.8427 C   0  0  0  0  0  0  0  0  0  0  0  0
   -4.3195   -0.7093    1.6930 C   0  0  2  0  0  0  0  0  0  0  0  0
   -8.2888   -4.3195   -2.0636 F   0  0  0  0  0  0  0  0  0  0  0  0
   -9.1258   -1.8069    1.3874 N   0  0  0  0  0  0  0  0  0  0  0  0
   -4.8855   -4.8999   -2.9012 N   0  0  0  0  0  0  0  0  0  0  0  0
   -2.6220    2.7134    2.5702 N   0  0  0  0  0  0  0  0  0  0  0  0
   -3.7596   -1.9560    1.1323 N   0  0  0  0  0  0  0  0  0  0  0  0
   -6.4300   -1.1540    0.6353 O   0  0  0  0  0  0  0  0  0  0  0  0
   -7.0732    1.6646    0.3500 O   0  0  0  0  0  0  0  0  0  0  0  0
   -5.4454    3.4434    1.9066 O   0  0  0  0  0  0  0  0  0  0  0  0
   -8.6659   -4.4396    0.6017 O   0  0  0  0  0  0  0  0  0  0  0  0
   -6.8037   -1.8050   -1.6548 O   0  0  0  0  0  0  0  0  0  0  0  0
  1  5  1  0  0  0  0
  1 18  1  1  0  0  0
  2 18  1  1  0  0  0
  2  3  1  0  0  0  0
  2 12  1  0  0  0  0
  3 19  1  6  0  0  0
  3  4  1  0  0  0  0
  4 20  1  1  0  0  0
  4 10  1  0  0  0  0
  5  6  1  0  0  0  0
  5 14  1  1  0  0  0
  6 21  1  6  0  0  0
  7 13  1  6  0  0  0
  7  6  1  0  0  0  0
  8  9  1  6  0  0  0
  8  7  1  0  0  0  0
 10 16  1  6  0  0  0
 11 10  1  0  0  0  0
 12 17  1  6  0  0  0
 12 11  1  0  0  0  0
 15  9  1  0  0  0  0
 22  8  1  0  0  0  0
 22  1  1  0  0  0  0
M  END
>  <CHROM.1>
-166.45486929,78.39585574,-63.03170391,-6.12197118,-1.22180653,0.22614251
1.99305390,-0.12537400,-2.58294608

>  <Name>
lig.pdb

>  <RI>
0

>  <Rbt.Current_Directory>
/home/itssahil/PROJECTS/Mol_Feturizer/New_Systems/rnas/5bws

>  <Rbt.Executable>
rbdock ($Id: //depot/dev/client3/rdock/2013.1/src/exe/rbdock.cxx#4 $)

>  <Rbt.Library>
libRbt.so (2013.1, Build901 2013/11/27)

>  <Rbt.Parameter_File>
/export/apps/rDock/src/rDock_2013.1_src/data/scripts/dock_solv.prm

>  <Rbt.Receptor>
prm/pocket_docking_2.prm

>  <SCORE>
-11.4254

>  <SCORE.INTER>
-9.50311

>  <SCORE.INTER.CONST>
1

>  <SCORE.INTER.POLAR>
0

>  <SCORE.INTER.ROT>
3

>  <SCORE.INTER.SOLV>
19.1926

>  <SCORE.INTER.VDW>
-18.3329

>  <SCORE.INTER.norm>
-0.431959

>  <SCORE.INTRA>
-1.92232

>  <SCORE.INTRA.DIHEDRAL>
-3.65971

>  <SCORE.INTRA.DIHEDRAL.0>
6.10773

>  <SCORE.INTRA.POLAR>
0

>  <SCORE.INTRA.POLAR.0>
0

>  <SCORE.INTRA.REPUL>
0

>  <SCORE.INTRA.REPUL.0>
0

>  <SCORE.INTRA.SOLV>
-0.48896

>  <SCORE.INTRA.SOLV.lig_0>
-71.4024

>  <SCORE.INTRA.VDW>
0.152013

>  <SCORE.INTRA.VDW.0>
-1.86213

>  <SCORE.INTRA.norm>
-0.0873783

>  <SCORE.RESTR>
0

>  <SCORE.RESTR.CAVITY>
0

>  <SCORE.RESTR.norm>
0

>  <SCORE.SYSTEM>
0

>  <SCORE.SYSTEM.CONST>
0

>  <SCORE.SYSTEM.DIHEDRAL>
0

>  <SCORE.SYSTEM.SOLV>
0

>  <SCORE.SYSTEM.norm>
0

>  <SCORE.heavy>
22

>  <SCORE.norm>
-0.519338

>  <RMSD>
0.980

$$$$
lig.pdb
 OpenBabel11021811523D
libRbt.so/2013.1/901 2013/11/27
 22 23  0  0  0  0  0  0  0  0999 V2000
   -7.3266   -1.2729   -0.6396 C   0  0  1  0  0  0  0  0  0  0  0  0
   -5.5283   -0.0462    0.6459 C   0  0  1  0  0  0  0  0  0  0  0  0
   -6.1089    1.3125    1.2406 C   0  0  1  0  0  0  0  0  0  0  0  0
   -4.8964    2.3378    1.3947 C   0  0  2  0  0  0  0  0  0  0  0  0
   -8.5419   -2.2186   -0.2949 C   0  0  1  0  0  0  0  0  0  0  0  0
   -7.9733   -3.5582    0.2138 C   0  0  2  0  0  0  0  0  0  0  0  0
   -7.1207   -4.2396   -0.8712 C   0  0  2  0  0  0  0  0  0  0  0  0
   -5.9040   -3.3359   -1.2901 C   0  0  1  0  0  0  0  0  0  0  0  0
   -5.0708   -3.9964   -2.4260 C   0  0  0  0  0  0  0  0  0  0  0  0
   -3.8262    1.7377    2.4419 C   0  0  1  0  0  0  0  0  0  0  0  0
   -3.2640    0.3675    1.8093 C   0  0  0  0  0  0  0  0  0  0  0  0
   -4.4658   -0.6661    1.6083 C   0  0  2  0  0  0  0  0  0  0  0  0
   -7.9412   -4.5145   -2.0562 F   0  0  0  0  0  0  0  0  0  0  0  0
   -9.3828   -1.5264    0.7573 N   0  0  0  0  0  0  0  0  0  0  0  0
   -5.7857   -4.2429   -3.6205 N   0  0  0  0  0  0  0  0  0  0  0  0
   -2.6537    2.6631    2.6081 N   0  0  0  0  0  0  0  0  0  0  0  0
   -3.9437   -1.9195    1.0264 N   0  0  0  0  0  0  0  0  0  0  0  0
   -6.5696   -0.9994    0.4976 O   0  0  0  0  0  0  0  0  0  0  0  0
   -7.0954    1.8489    0.2734 O   0  0  0  0  0  0  0  0  0  0  0  0
   -5.4318    3.5214    1.9079 O   0  0  0  0  0  0  0  0  0  0  0  0
   -8.8607   -4.2467    0.4623 O   0  0  0  0  0  0  0  0  0  0  0  0
   -6.4875   -1.9731   -1.7053 O   0  0  0  0  0  0  0  0  0  0  0  0
  1  5  1  0  0  0  0
  1 18  1  1  0  0  0
  2 18  1  1  0  0  0
  2  3  1  0  0  0  0
  2 12  1  0  0  0  0
  3 19  1  6  0  0  0
  3  4  1  0  0  0  0
  4 20  1  1  0  0  0
  4 10  1  0  0  0  0
  5  6  1  0  0  0  0
  5 14  1  1  0  0  0
  6 21  1  6  0  0  0
  7 13  1  6  0  0  0
  7  6  1  0  0  0  0
  8  9  1  6  0  0  0
  8  7  1  0  0  0  0
 10 16  1  6  0  0  0
 11 10  1  0  0  0  0
 12 17  1  6  0  0  0
 12 11  1  0  0  0  0
 15  9  1  0  0  0  0
 22  8  1  0  0  0  0
 22  1  1  0  0  0  0
M  END
>  <CHROM.1>
-169.84963652,94.81521898,60.21831310,-6.15106733,-1.16889329,0.14041719
1.97798637,-0.07368517,-2.60058442

>  <Name>
lig.pdb

>  <RI>
0

>  <Rbt.Current_Directory>
/home/itssahil/PROJECTS/Mol_Feturizer/New_Systems/rnas/5bws

>  <Rbt.Executable>
rbdock ($Id: //depot/dev/client3/rdock/2013.1/src/exe/rbdock.cxx#4 $)

>  <Rbt.Library>
libRbt.so (2013.1, Build901 2013/11/27)

>  <Rbt.Parameter_File>
/export/apps/rDock/src/rDock_2013.1_src/data/scripts/dock_solv.prm

>  <Rbt.Receptor>
prm/pocket_docking_2.prm

>  <SCORE>
-8.10881

>  <SCORE.INTER>
-8.36273

>  <SCORE.INTER.CONST>
1

>  <SCORE.INTER.POLAR>
0

>  <SCORE.INTER.ROT>
3

>  <SCORE.INTER.SOLV>
21.5776

>  <SCORE.INTER.VDW>
-18.3677

>  <SCORE.INTER.norm>
-0.380124

>  <SCORE.INTRA>
0.253922

>  <SCORE.INTRA.DIHEDRAL>
-1.11281

>  <SCORE.INTRA.DIHEDRAL.0>
6.10773

>  <SCORE.INTRA.POLAR>
0

>  <SCORE.INTRA.POLAR.0>
0

>  <SCORE.INTRA.REPUL>
0

>  <SCORE.INTRA.REPUL.0>
0

>  <SCORE.INTRA.SOLV>
1.83388

>  <SCORE.INTRA.SOLV.lig_0>
-71.4024

>  <SCORE.INTRA.VDW>
-0.106612

>  <SCORE.INTRA.VDW.0>
-1.86213

>  <SCORE.INTRA.norm>
0.0115419

>  <SCORE.RESTR>
0

>  <SCORE.RESTR.CAVITY>
0

>  <SCORE.RESTR.norm>
0

>  <SCORE.SYSTEM>
0

>  <SCORE.SYSTEM.CONST>
0

>  <SCORE.SYSTEM.DIHEDRAL>
0

>  <SCORE.SYSTEM.SOLV>
0

>  <SCORE.SYSTEM.norm>
0

>  <SCORE.heavy>
22

>  <SCORE.norm>
-0.368582

>  <RMSD>
0.982

$$$$
lig.pdb
 OpenBabel11021811523D
libRbt.so/2013.1/901 2013/11/27
 22 23  0  0  0  0  0  0  0  0999 V2000
   -7.3885   -1.2909   -0.3679 C   0  0  1  0  0  0  0  0  0  0  0  0
   -5.4085   -0.1604    0.7243 C   0  0  1  0  0  0  0  0  0  0  0  0
   -6.0360    1.1893    1.2915 C   0  0  1  0  0  0  0  0  0  0  0  0
   -4.8644    2.2667    1.4002 C   0  0  2  0  0  0  0  0  0  0  0  0
   -8.4854   -2.3408    0.0621 C   0  0  1  0  0  0  0  0  0  0  0  0
   -7.7976   -3.7117    0.2166 C   0  0  2  0  0  0  0  0  0  0  0  0
   -7.1832   -4.1707   -1.1176 C   0  0  2  0  0  0  0  0  0  0  0  0
   -6.0999   -3.1508   -1.6263 C   0  0  1  0  0  0  0  0  0  0  0  0
   -5.5157   -3.5823   -3.0022 C   0  0  0  0  0  0  0  0  0  0  0  0
   -3.7560    1.7390    2.4467 C   0  0  1  0  0  0  0  0  0  0  0  0
   -3.1471    0.3761    1.8422 C   0  0  0  0  0  0  0  0  0  0  0  0
   -4.3082   -0.7104    1.6867 C   0  0  2  0  0  0  0  0  0  0  0  0
   -8.2319   -4.3003   -2.1357 F   0  0  0  0  0  0  0  0  0  0  0  0
   -9.0956   -1.8653    1.3640 N   0  0  0  0  0  0  0  0  0  0  0  0
   -4.7998   -4.8012   -2.9875 N   0  0  0  0  0  0  0  0  0  0  0  0
   -2.6202    2.7153    2.5707 N   0  0  0  0  0  0  0  0  0  0  0  0
   -3.7435   -1.9569    1.1303 N   0  0  0  0  0  0  0  0  0  0  0  0
   -6.4120   -1.1587    0.6170 O   0  0  0  0  0  0  0  0  0  0  0  0
   -7.0570    1.6588    0.3254 O   0  0  0  0  0  0  0  0  0  0  0  0
   -5.4407    3.4411    1.8899 O   0  0  0  0  0  0  0  0  0  0  0  0
   -8.5993   -4.4758    0.5279 O   0  0  0  0  0  0  0  0  0  0  0  0
   -6.7828   -1.7722   -1.6838 O   0  0  0  0  0  0  0  0  0  0  0  0
  1  5  1  0  0  0  0
  1 18  1  1  0  0  0
  2 18  1  1  0  0  0
  2  3  1  0  0  0  0
  2 12  1  0  0  0  0
  3 19  1  6  0  0  0
  3  4  1  0  0  0  0
  4 20  1  1  0  0  0
  4 10  1  0  0  0  0
  5  6  1  0  0  0  0
  5 14  1  1  0  0  0
  6 21  1  6  0  0  0
  7 13  1  6  0  0  0
  7  6  1  0  0  0  0
  8  9  1  6  0  0  0
  8  7  1  0  0  0  0
 10 16  1  6  0  0  0
 11 10  1  0  0  0  0
 12 17  1  6  0  0  0
 12 11  1  0  0  0  0
 15  9  1  0  0  0  0
 22  8  1  0  0  0  0
 22  1  1  0  0  0  0
M  END
>  <CHROM.1>
-167.48910463,77.83073712,-64.24970181,-6.09303590,-1.21606772,0.19305736
1.98879333,-0.13447926,-2.57127654

>  <Name>
lig.pdb

>  <RI>
0

>  <Rbt.Current_Directory>
/home/itssahil/PROJECTS/Mol_Feturizer/New_Systems/rnas/5bws

>  <Rbt.Executable>
rbdock ($Id: //depot/dev/client3/rdock/2013.1/src/exe/rbdock.cxx#4 $)

>  <Rbt.Library>
libRbt.so (2013.1, Build901 2013/11/27)

>  <Rbt.Parameter_File>
/export/apps/rDock/src/rDock_2013.1_src/data/scripts/dock_solv.prm

>  <Rbt.Receptor>
prm/pocket_docking_2.prm

>  <SCORE>
-11.4524

>  <SCORE.INTER>
-9.40705

>  <SCORE.INTER.CONST>
1

>  <SCORE.INTER.POLAR>
0

>  <SCORE.INTER.ROT>
3

>  <SCORE.INTER.SOLV>
19.5593

>  <SCORE.INTER.VDW>
-18.3911

>  <SCORE.INTER.norm>
-0.427593

>  <SCORE.INTRA>
-2.04532

>  <SCORE.INTRA.DIHEDRAL>
-3.83708

>  <SCORE.INTRA.DIHEDRAL.0>
6.10773

>  <SCORE.INTRA.POLAR>
0

>  <SCORE.INTRA.POLAR.0>
0

>  <SCORE.INTRA.REPUL>
0

>  <SCORE.INTRA.REPUL.0>
0

>  <SCORE.INTRA.SOLV>
-0.566667

>  <SCORE.INTRA.SOLV.lig_0>
-71.4024

>  <SCORE.INTRA.VDW>
0.156555

>  <SCORE.INTRA.VDW.0>
-1.86213

>  <SCORE.INTRA.norm>
-0.0929691

>  <SCORE.RESTR>
0

>  <SCORE.RESTR.CAVITY>
0

>  <SCORE.RESTR.norm>
0

>  <SCORE.SYSTEM>
0

>  <SCORE.SYSTEM.CONST>
0

>  <SCORE.SYSTEM.DIHEDRAL>
0

>  <SCORE.SYSTEM.SOLV>
0

>  <SCORE.SYSTEM.norm>
0

>  <SCORE.heavy>
22

>  <SCORE.norm>
-0.520562

>  <RMSD>
0.984

$$$$
lig.pdb
 OpenBabel11021811523D
libRbt.so/2013.1/901 2013/11/27
 22 23  0  0  0  0  0  0  0  0999 V2000
   -7.2203   -1.3134   -0.6687 C   0  0  1  0  0  0  0  0  0  0  0  0
   -5.4596   -0.0638    0.6465 C   0  0  1  0  0  0  0  0  0  0  0  0
   -6.1138    1.3045    1.1331 C   0  0  1  0  0  0  0  0  0  0  0  0
   -4.9404    2.3689    1.3220 C   0  0  2  0  0  0  0  0  0  0  0  0
   -8.4651   -2.2202   -0.3248 C   0  0  1  0  0  0  0  0  0  0  0  0
   -7.9396   -3.5707    0.2008 C   0  0  2  0  0  0  0  0  0  0  0  0
   -7.0988   -4.2869   -0.8710 C   0  0  2  0  0  0  0  0  0  0  0  0
   -5.8533   -3.4229   -1.2887 C   0  0  1  0  0  0  0  0  0  0  0  0
   -5.0310   -4.1180   -2.4118 C   0  0  0  0  0  0  0  0  0  0  0  0
   -3.9331    1.8476    2.4691 C   0  0  1  0  0  0  0  0  0  0  0  0
   -3.2944    0.4656    1.9439 C   0  0  0  0  0  0  0  0  0  0  0  0
   -4.4534   -0.6089    1.7094 C   0  0  2  0  0  0  0  0  0  0  0  0
   -7.9180   -4.5492   -2.0599 F   0  0  0  0  0  0  0  0  0  0  0  0
   -9.2936   -1.4939    0.7142 N   0  0  0  0  0  0  0  0  0  0  0  0
   -5.7439   -4.3559   -3.6092 N   0  0  0  0  0  0  0  0  0  0  0  0
   -2.7982    2.8117    2.6720 N   0  0  0  0  0  0  0  0  0  0  0  0
   -3.8612   -1.8730    1.2264 N   0  0  0  0  0  0  0  0  0  0  0  0
   -6.4644   -1.0512    0.4719 O   0  0  0  0  0  0  0  0  0  0  0  0
   -7.0418    1.7681    0.0747 O   0  0  0  0  0  0  0  0  0  0  0  0
   -5.5395    3.5598    1.7390 O   0  0  0  0  0  0  0  0  0  0  0  0
   -8.8485   -4.2309    0.4487 O   0  0  0  0  0  0  0  0  0  0  0  0
   -6.3937   -2.0477   -1.7212 O   0  0  0  0  0  0  0  0  0  0  0  0
  1  5  1  0  0  0  0
  1 18  1  1  0  0  0
  2 18  1  1  0  0  0
  2  3  1  0  0  0  0
  2 12  1  0  0  0  0
  3 19  1  6  0  0  0
  3  4  1  0  0  0  0
  4 20  1  1  0  0  0
  4 10  1  0  0  0  0
  5  6  1  0  0  0  0
  5 14  1  1  0  0  0
  6 21  1  6  0  0  0
  7 13  1  6  0  0  0
  7  6  1  0  0  0  0
  8  9  1  6  0  0  0
  8  7  1  0  0  0  0
 10 16  1  6  0  0  0
 11 10  1  0  0  0  0
 12 17  1  6  0  0  0
 12 11  1  0  0  0  0
 15  9  1  0  0  0  0
 22  8  1  0  0  0  0
 22  1  1  0  0  0  0
M  END
>  <CHROM.1>
-165.07805651,88.21347935,60.17727217,-6.12920015,-1.17541517,0.13057642
1.95850367,-0.04198899,-2.62067675

>  <Name>
lig.pdb

>  <RI>
0

>  <Rbt.Current_Directory>
/home/itssahil/PROJECTS/Mol_Feturizer/New_Systems/rnas/5bws

>  <Rbt.Executable>
rbdock ($Id: //depot/dev/client3/rdock/2013.1/src/exe/rbdock.cxx#4 $)

>  <Rbt.Library>
libRbt.so (2013.1, Build901 2013/11/27)

>  <Rbt.Parameter_File>
/export/apps/rDock/src/rDock_2013.1_src/data/scripts/dock_solv.prm

>  <Rbt.Receptor>
prm/pocket_docking_2.prm

>  <SCORE>
-8.09778

>  <SCORE.INTER>
-7.87586

>  <SCORE.INTER.CONST>
1

>  <SCORE.INTER.POLAR>
0

>  <SCORE.INTER.ROT>
3

>  <SCORE.INTER.SOLV>
21.4794

>  <SCORE.INTER.VDW>
-18.0104

>  <SCORE.INTER.norm>
-0.357994

>  <SCORE.INTRA>
-0.221922

>  <SCORE.INTRA.DIHEDRAL>
-1.79913

>  <SCORE.INTRA.DIHEDRAL.0>
6.10773

>  <SCORE.INTRA.POLAR>
0

>  <SCORE.INTRA.POLAR.0>
0

>  <SCORE.INTRA.REPUL>
0

>  <SCORE.INTRA.REPUL.0>
0

>  <SCORE.INTRA.SOLV>
1.39966

>  <SCORE.INTRA.SOLV.lig_0>
-71.4024

>  <SCORE.INTRA.VDW>
-0.0221861

>  <SCORE.INTRA.VDW.0>
-1.86213

>  <SCORE.INTRA.norm>
-0.0100874

>  <SCORE.RESTR>
0

>  <SCORE.RESTR.CAVITY>
0

>  <SCORE.RESTR.norm>
0

>  <SCORE.SYSTEM>
0

>  <SCORE.SYSTEM.CONST>
0

>  <SCORE.SYSTEM.DIHEDRAL>
0

>  <SCORE.SYSTEM.SOLV>
0

>  <SCORE.SYSTEM.norm>
0

>  <SCORE.heavy>
22

>  <SCORE.norm>
-0.368081

>  <RMSD>
0.986

$$$$
lig.pdb
 OpenBabel11021811523D
libRbt.so/2013.1/901 2013/11/27
 22 23  0  0  0  0  0  0  0  0999 V2000
   -7.4281   -1.2889   -0.3388 C   0  0  1  0  0  0  0  0  0  0  0  0
   -5.4469   -0.1551    0.7477 C   0  0  1  0  0  0  0  0  0  0  0  0
   -6.0632    1.1935    1.3296 C   0  0  1  0  0  0  0  0  0  0  0  0
   -4.8873    2.2670    1.4289 C   0  0  2  0  0  0  0  0  0  0  0  0
   -8.5306   -2.3297    0.0985 C   0  0  1  0  0  0  0  0  0  0  0  0
   -7.8488   -3.7016    0.2702 C   0  0  2  0  0  0  0  0  0  0  0  0
   -7.2316   -4.1773   -1.0569 C   0  0  2  0  0  0  0  0  0  0  0  0
   -6.1426   -3.1672   -1.5727 C   0  0  1  0  0  0  0  0  0  0  0  0
   -5.5553   -3.6157   -2.9419 C   0  0  0  0  0  0  0  0  0  0  0  0
   -3.7674    1.7309    2.4587 C   0  0  1  0  0  0  0  0  0  0  0  0
   -3.1700    0.3694    1.8397 C   0  0  0  0  0  0  0  0  0  0  0  0
   -4.3361   -0.7130    1.6934 C   0  0  2  0  0  0  0  0  0  0  0  0
   -8.2773   -4.3136   -2.0773 F   0  0  0  0  0  0  0  0  0  0  0  0
   -9.1434   -1.8379    1.3931 N   0  0  0  0  0  0  0  0  0  0  0  0
   -4.8490   -4.8400   -2.9127 N   0  0  0  0  0  0  0  0  0  0  0  0
   -2.6273    2.7034    2.5733 N   0  0  0  0  0  0  0  0  0  0  0  0
   -3.7820   -1.9583    1.1237 N   0  0  0  0  0  0  0  0  0  0  0  0
   -6.4544   -1.1500    0.6481 O   0  0  0  0  0  0  0  0  0  0  0  0
   -7.0950    1.6708    0.3788 O   0  0  0  0  0  0  0  0  0  0  0  0
   -5.4540    3.4405    1.9317 O   0  0  0  0  0  0  0  0  0  0  0  0
   -8.6547   -4.4591    0.5867 O   0  0  0  0  0  0  0  0  0  0  0  0
   -6.8197   -1.7866   -1.6473 O   0  0  0  0  0  0  0  0  0  0  0  0
  1  5  1  0  0  0  0
  1 18  1  1  0  0  0
  2 18  1  1  0  0  0
  2  3  1  0  0  0  0
  2 12  1  0  0  0  0
  3 19  1  6  0  0  0
  3  4  1  0  0  0  0
  4 20  1  1  0  0  0
  4 10  1  0  0  0  0
  5  6  1  0  0  0  0
  5 14  1  1  0  0  0
  6 21  1  6  0  0  0
  7 13  1  6  0  0  0
  7  6  1  0  0  0  0
  8  9  1  6  0  0  0
  8  7  1  0  0  0  0
 10 16  1  6  0  0  0
 11 10  1  0  0  0  0
 12 17  1  6  0  0  0
 12 11  1  0  0  0  0
 15  9  1  0  0  0  0
 22  8  1  0  0  0  0
 22  1  1  0  0  0  0
M  END
>  <CHROM.1>
-167.53336444,79.14909336,-64.00359677,-6.12920762,-1.21867298,0.22919877
1.99221232,-0.13217986,-2.57739413

>  <Name>
lig.pdb

>  <RI>
0

>  <Rbt.Current_Directory>
/home/itssahil/PROJECTS/Mol_Feturizer/New_Systems/rnas/5bws

>  <Rbt.Executable>
rbdock ($Id: //depot/dev/client3/rdock/2013.1/src/exe/rbdock.cxx#4 $)

>  <Rbt.Library>
libRbt.so (2013.1, Build901 2013/11/27)

>  <Rbt.Parameter_File>
/export/apps/rDock/src/rDock_2013.1_src/data/scripts/dock_solv.prm

>  <Rbt.Receptor>
prm/pocket_docking_2.prm

>  <SCORE>
-11.4466

>  <SCORE.INTER>
-9.50928

>  <SCORE.INTER.CONST>
1

>  <SCORE.INTER.POLAR>
0

>  <SCORE.INTER.ROT>
3

>  <SCORE.INTER.SOLV>
19.3164

>  <SCORE.INTER.VDW>
-18.3783

>  <SCORE.INTER.norm>
-0.43224

>  <SCORE.INTRA>
-1.9373

>  <SCORE.INTRA.DIHEDRAL>
-3.6449

>  <SCORE.INTRA.DIHEDRAL.0>
6.10773

>  <SCORE.INTRA.POLAR>
0

>  <SCORE.INTRA.POLAR.0>
0

>  <SCORE.INTRA.REPUL>
0

>  <SCORE.INTRA.REPUL.0>
0

>  <SCORE.INTRA.SOLV>
-0.504372

>  <SCORE.INTRA.SOLV.lig_0>
-71.4024

>  <SCORE.INTRA.VDW>
0.137333

>  <SCORE.INTRA.VDW.0>
-1.86213

>  <SCORE.INTRA.norm>
-0.0880592

>  <SCORE.RESTR>
0

>  <SCORE.RESTR.CAVITY>
0

>  <SCORE.RESTR.norm>
0

>  <SCORE.SYSTEM>
0

>  <SCORE.SYSTEM.CONST>
0

>  <SCORE.SYSTEM.DIHEDRAL>
0

>  <SCORE.SYSTEM.SOLV>
0

>  <SCORE.SYSTEM.norm>
0

>  <SCORE.heavy>
22

>  <SCORE.norm>
-0.520299

>  <RMSD>
0.991

$$$$
lig.pdb
 OpenBabel11021811523D
libRbt.so/2013.1/901 2013/11/27
 22 23  0  0  0  0  0  0  0  0999 V2000
   -7.3910   -1.2973   -0.3658 C   0  0  1  0  0  0  0  0  0  0  0  0
   -5.4109   -0.1635    0.7227 C   0  0  1  0  0  0  0  0  0  0  0  0
   -6.0408    1.1885    1.2817 C   0  0  1  0  0  0  0  0  0  0  0  0
   -4.8703    2.2673    1.3881 C   0  0  2  0  0  0  0  0  0  0  0  0
   -8.4846   -2.3501    0.0654 C   0  0  1  0  0  0  0  0  0  0  0  0
   -7.7932   -3.7193    0.2184 C   0  0  2  0  0  0  0  0  0  0  0  0
   -7.1796   -4.1763   -1.1169 C   0  0  2  0  0  0  0  0  0  0  0  0
   -6.0997   -3.1535   -1.6268 C   0  0  1  0  0  0  0  0  0  0  0  0
   -5.5165   -3.5830   -3.0038 C   0  0  0  0  0  0  0  0  0  0  0  0
   -3.7642    1.7455    2.4400 C   0  0  1  0  0  0  0  0  0  0  0  0
   -3.1527    0.3801    1.8437 C   0  0  0  0  0  0  0  0  0  0  0  0
   -4.3127   -0.7080    1.6905 C   0  0  2  0  0  0  0  0  0  0  0  0
   -8.2296   -4.3081   -2.1335 F   0  0  0  0  0  0  0  0  0  0  0  0
   -9.0940   -1.8766    1.3685 N   0  0  0  0  0  0  0  0  0  0  0  0
   -4.8133   -4.8094   -2.9945 N   0  0  0  0  0  0  0  0  0  0  0  0
   -2.6294    2.7233    2.5621 N   0  0  0  0  0  0  0  0  0  0  0  0
   -3.7456   -1.9567    1.1416 N   0  0  0  0  0  0  0  0  0  0  0  0
   -6.4134   -1.1630    0.6177 O   0  0  0  0  0  0  0  0  0  0  0  0
   -7.0597    1.6526    0.3108 O   0  0  0  0  0  0  0  0  0  0  0  0
   -5.4486    3.4436    1.8707 O   0  0  0  0  0  0  0  0  0  0  0  0
   -8.5925   -4.4855    0.5306 O   0  0  0  0  0  0  0  0  0  0  0  0
   -6.7861   -1.7766   -1.6828 O   0  0  0  0  0  0  0  0  0  0  0  0
  1  5  1  0  0  0  0
  1 18  1  1  0  0  0
  2 18  1  1  0  0  0
  2  3  1  0  0  0  0
  2 12  1  0  0  0  0
  3 19  1  6  0  0  0
  3  4  1  0  0  0  0
  4 20  1  1  0  0  0
  4 10  1  0  0  0  0
  5  6  1  0  0  0  0
  5 14  1  1  0  0  0
  6 21  1  6  0  0  0
  7 13  1  6  0  0  0
  7  6  1  0  0  0  0
  8  9  1  6  0  0  0
  8  7  1  0  0  0  0
 10 16  1  6  0  0  0
 11 10  1  0  0  0  0
 12 17  1  6  0  0  0
 12 11  1  0  0  0  0
 15  9  1  0  0  0  0
 22  8  1  0  0  0  0
 22  1  1  0  0  0  0
M  END
>  <CHROM.1>
-167.59976440,77.51611241,-63.41535114,-6.09544766,-1.21912000,0.19089964
1.98784062,-0.13630573,-2.57253596

>  <Name>
lig.pdb

>  <RI>
0

>  <Rbt.Current_Directory>
/home/itssahil/PROJECTS/Mol_Feturizer/New_Systems/rnas/5bws

>  <Rbt.Executable>
rbdock ($Id: //depot/dev/client3/rdock/2013.1/src/exe/rbdock.cxx#4 $)

>  <Rbt.Library>
libRbt.so (2013.1, Build901 2013/11/27)

>  <Rbt.Parameter_File>
/export/apps/rDock/src/rDock_2013.1_src/data/scripts/dock_solv.prm

>  <Rbt.Receptor>
prm/pocket_docking_2.prm

>  <SCORE>
-11.4633

>  <SCORE.INTER>
-9.38387

>  <SCORE.INTER.CONST>
1

>  <SCORE.INTER.POLAR>
0

>  <SCORE.INTER.ROT>
3

>  <SCORE.INTER.SOLV>
19.5934

>  <SCORE.INTER.VDW>
-18.3871

>  <SCORE.INTER.norm>
-0.42654

>  <SCORE.INTRA>
-2.07947

>  <SCORE.INTRA.DIHEDRAL>
-3.92015

>  <SCORE.INTRA.DIHEDRAL.0>
6.10773

>  <SCORE.INTRA.POLAR>
0

>  <SCORE.INTRA.POLAR.0>
0

>  <SCORE.INTRA.REPUL>
0

>  <SCORE.INTRA.REPUL.0>
0

>  <SCORE.INTRA.SOLV>
-0.565122

>  <SCORE.INTRA.SOLV.lig_0>
-71.4024

>  <SCORE.INTRA.VDW>
0.163166

>  <SCORE.INTRA.VDW.0>
-1.86213

>  <SCORE.INTRA.norm>
-0.0945213

>  <SCORE.RESTR>
0

>  <SCORE.RESTR.CAVITY>
0

>  <SCORE.RESTR.norm>
0

>  <SCORE.SYSTEM>
0

>  <SCORE.SYSTEM.CONST>
0

>  <SCORE.SYSTEM.DIHEDRAL>
0

>  <SCORE.SYSTEM.SOLV>
0

>  <SCORE.SYSTEM.norm>
0

>  <SCORE.heavy>
22

>  <SCORE.norm>
-0.521061

>  <RMSD>
0.991

$$$$
lig.pdb
 OpenBabel11021811523D
libRbt.so/2013.1/901 2013/11/27
 22 23  0  0  0  0  0  0  0  0999 V2000
   -7.3336   -1.3070   -0.6539 C   0  0  1  0  0  0  0  0  0  0  0  0
   -5.5416   -0.0677    0.6283 C   0  0  1  0  0  0  0  0  0  0  0  0
   -6.1268    1.2889    1.2236 C   0  0  1  0  0  0  0  0  0  0  0  0
   -4.9184    2.3196    1.3742 C   0  0  2  0  0  0  0  0  0  0  0  0
   -8.5509   -2.2485   -0.3047 C   0  0  1  0  0  0  0  0  0  0  0  0
   -7.9854   -3.5846    0.2161 C   0  0  2  0  0  0  0  0  0  0  0  0
   -7.1308   -4.2758   -0.8611 C   0  0  2  0  0  0  0  0  0  0  0  0
   -5.9120   -3.3771   -1.2841 C   0  0  1  0  0  0  0  0  0  0  0  0
   -5.0767   -4.0477   -2.4125 C   0  0  0  0  0  0  0  0  0  0  0  0
   -3.8432    1.7247    2.4194 C   0  0  1  0  0  0  0  0  0  0  0  0
   -3.2765    0.3566    1.7863 C   0  0  0  0  0  0  0  0  0  0  0  0
   -4.4742   -0.6823    1.5887 C   0  0  2  0  0  0  0  0  0  0  0  0
   -7.9486   -4.5591   -2.0461 F   0  0  0  0  0  0  0  0  0  0  0  0
   -9.3937   -1.5467    0.7396 N   0  0  0  0  0  0  0  0  0  0  0  0
   -5.7820   -4.2800   -3.6155 N   0  0  0  0  0  0  0  0  0  0  0  0
   -2.6743    2.6553    2.5822 N   0  0  0  0  0  0  0  0  0  0  0  0
   -3.9481   -1.9338    1.0063 N   0  0  0  0  0  0  0  0  0  0  0  0
   -6.5792   -1.0255    0.4831 O   0  0  0  0  0  0  0  0  0  0  0  0
   -7.1179    1.8204    0.2583 O   0  0  0  0  0  0  0  0  0  0  0  0
   -5.4578    3.5012    1.8879 O   0  0  0  0  0  0  0  0  0  0  0  0
   -8.8743   -4.2700    0.4678 O   0  0  0  0  0  0  0  0  0  0  0  0
   -6.4925   -2.0168   -1.7117 O   0  0  0  0  0  0  0  0  0  0  0  0
  1  5  1  0  0  0  0
  1 18  1  1  0  0  0
  2 18  1  1  0  0  0
  2  3  1  0  0  0  0
  2 12  1  0  0  0  0
  3 19  1  6  0  0  0
  3  4  1  0  0  0  0
  4 20  1  1  0  0  0
  4 10  1  0  0  0  0
  5  6  1  0  0  0  0
  5 14  1  1  0  0  0
  6 21  1  6  0  0  0
  7 13  1  6  0  0  0
  7  6  1  0  0  0  0
  8  9  1  6  0  0  0
  8  7  1  0  0  0  0
 10 16  1  6  0  0  0
 11 10  1  0  0  0  0
 12 17  1  6  0  0  0
 12 11  1  0  0  0  0
 15  9  1  0  0  0  0
 22  8  1  0  0  0  0
 22  1  1  0  0  0  0
M  END
>  <CHROM.1>
-169.49362059,95.13001815,61.34989296,-6.16288351,-1.19599324,0.13113172
1.97590283,-0.07404093,-2.60561180

>  <Name>
lig.pdb

>  <RI>
0

>  <Rbt.Current_Directory>
/home/itssahil/PROJECTS/Mol_Feturizer/New_Systems/rnas/5bws

>  <Rbt.Executable>
rbdock ($Id: //depot/dev/client3/rdock/2013.1/src/exe/rbdock.cxx#4 $)

>  <Rbt.Library>
libRbt.so (2013.1, Build901 2013/11/27)

>  <Rbt.Parameter_File>
/export/apps/rDock/src/rDock_2013.1_src/data/scripts/dock_solv.prm

>  <Rbt.Receptor>
prm/pocket_docking_2.prm

>  <SCORE>
-8.08892

>  <SCORE.INTER>
-8.38078

>  <SCORE.INTER.CONST>
1

>  <SCORE.INTER.POLAR>
0

>  <SCORE.INTER.ROT>
3

>  <SCORE.INTER.SOLV>
21.5156

>  <SCORE.INTER.VDW>
-18.3591

>  <SCORE.INTER.norm>
-0.380945

>  <SCORE.INTRA>
0.29186

>  <SCORE.INTRA.DIHEDRAL>
-1.01464

>  <SCORE.INTRA.DIHEDRAL.0>
6.10773

>  <SCORE.INTRA.POLAR>
0

>  <SCORE.INTRA.POLAR.0>
0

>  <SCORE.INTRA.REPUL>
0

>  <SCORE.INTRA.REPUL.0>
0

>  <SCORE.INTRA.SOLV>
1.85025

>  <SCORE.INTRA.SOLV.lig_0>
-71.4024

>  <SCORE.INTRA.VDW>
-0.125942

>  <SCORE.INTRA.VDW.0>
-1.86213

>  <SCORE.INTRA.norm>
0.0132664

>  <SCORE.RESTR>
0

>  <SCORE.RESTR.CAVITY>
0

>  <SCORE.RESTR.norm>
0

>  <SCORE.SYSTEM>
0

>  <SCORE.SYSTEM.CONST>
0

>  <SCORE.SYSTEM.DIHEDRAL>
0

>  <SCORE.SYSTEM.SOLV>
0

>  <SCORE.SYSTEM.norm>
0

>  <SCORE.heavy>
22

>  <SCORE.norm>
-0.367678

>  <RMSD>
1.000

$$$$
lig.pdb
 OpenBabel11021811523D
libRbt.so/2013.1/901 2013/11/27
 22 23  0  0  0  0  0  0  0  0999 V2000
   -7.3478   -1.2879   -0.6752 C   0  0  1  0  0  0  0  0  0  0  0  0
   -5.5696   -0.0623    0.6390 C   0  0  1  0  0  0  0  0  0  0  0  0
   -6.1545    1.2843    1.2568 C   0  0  1  0  0  0  0  0  0  0  0  0
   -4.9450    2.3102    1.4293 C   0  0  2  0  0  0  0  0  0  0  0  0
   -8.5861   -2.2085   -0.3445 C   0  0  1  0  0  0  0  0  0  0  0  0
   -8.0514   -3.5523    0.1889 C   0  0  2  0  0  0  0  0  0  0  0  0
   -7.1902   -4.2601   -0.8721 C   0  0  2  0  0  0  0  0  0  0  0  0
   -5.9498   -3.3825   -1.2765 C   0  0  1  0  0  0  0  0  0  0  0  0
   -5.1067   -4.0696   -2.3891 C   0  0  0  0  0  0  0  0  0  0  0  0
   -3.8736    1.6951    2.4666 C   0  0  1  0  0  0  0  0  0  0  0  0
   -3.3072    0.3377    1.8107 C   0  0  0  0  0  0  0  0  0  0  0  0
   -4.5059   -0.6957    1.5912 C   0  0  2  0  0  0  0  0  0  0  0  0
   -7.9925   -4.5332   -2.0701 F   0  0  0  0  0  0  0  0  0  0  0  0
   -9.4348   -1.4904    0.6839 N   0  0  0  0  0  0  0  0  0  0  0  0
   -5.7796   -4.2475   -3.6196 N   0  0  0  0  0  0  0  0  0  0  0  0
   -2.7039    2.6209    2.6494 N   0  0  0  0  0  0  0  0  0  0  0  0
   -3.9799   -1.9373    0.9880 N   0  0  0  0  0  0  0  0  0  0  0  0
   -6.6082   -1.0158    0.4737 O   0  0  0  0  0  0  0  0  0  0  0  0
   -7.1420    1.8345    0.2984 O   0  0  0  0  0  0  0  0  0  0  0  0
   -5.4841    3.4833    1.9626 O   0  0  0  0  0  0  0  0  0  0  0  0
   -8.9556   -4.2225    0.4272 O   0  0  0  0  0  0  0  0  0  0  0  0
   -6.5008   -2.0141   -1.7170 O   0  0  0  0  0  0  0  0  0  0  0  0
  1  5  1  0  0  0  0
  1 18  1  1  0  0  0
  2 18  1  1  0  0  0
  2  3  1  0  0  0  0
  2 12  1  0  0  0  0
  3 19  1  6  0  0  0
  3  4  1  0  0  0  0
  4 20  1  1  0  0  0
  4 10  1  0  0  0  0
  5  6  1  0  0  0  0
  5 14  1  1  0  0  0
  6 21  1  6  0  0  0
  7 13  1  6  0  0  0
  7  6  1  0  0  0  0
  8  9  1  6  0  0  0
  8  7  1  0  0  0  0
 10 16  1  6  0  0  0
 11 10  1  0  0  0  0
 12 17  1  6  0  0  0
 12 11  1  0  0  0  0
 15  9  1  0  0  0  0
 22  8  1  0  0  0  0
 22  1  1  0  0  0  0
M  END
>  <CHROM.1>
-168.58047741,96.05571194,63.63969636,-6.19619860,-1.18902691,0.13674004
1.97652706,-0.05944205,-2.59995633

>  <Name>
lig.pdb

>  <RI>
0

>  <Rbt.Current_Directory>
/home/itssahil/PROJECTS/Mol_Feturizer/New_Systems/rnas/5bws

>  <Rbt.Executable>
rbdock ($Id: //depot/dev/client3/rdock/2013.1/src/exe/rbdock.cxx#4 $)

>  <Rbt.Library>
libRbt.so (2013.1, Build901 2013/11/27)

>  <Rbt.Parameter_File>
/export/apps/rDock/src/rDock_2013.1_src/data/scripts/dock_solv.prm

>  <Rbt.Receptor>
prm/pocket_docking_2.prm

>  <SCORE>
-8.01319

>  <SCORE.INTER>
-8.44395

>  <SCORE.INTER.CONST>
1

>  <SCORE.INTER.POLAR>
0

>  <SCORE.INTER.ROT>
3

>  <SCORE.INTER.SOLV>
21.4951

>  <SCORE.INTER.VDW>
-18.3943

>  <SCORE.INTER.norm>
-0.383816

>  <SCORE.INTRA>
0.430764

>  <SCORE.INTRA.DIHEDRAL>
-0.713247

>  <SCORE.INTRA.DIHEDRAL.0>
6.10773

>  <SCORE.INTRA.POLAR>
0

>  <SCORE.INTRA.POLAR.0>
0

>  <SCORE.INTRA.REPUL>
0

>  <SCORE.INTRA.REPUL.0>
0

>  <SCORE.INTRA.SOLV>
1.90191

>  <SCORE.INTRA.SOLV.lig_0>
-71.4024

>  <SCORE.INTRA.VDW>
-0.163567

>  <SCORE.INTRA.VDW.0>
-1.86213

>  <SCORE.INTRA.norm>
0.0195802

>  <SCORE.RESTR>
0

>  <SCORE.RESTR.CAVITY>
0

>  <SCORE.RESTR.norm>
0

>  <SCORE.SYSTEM>
0

>  <SCORE.SYSTEM.CONST>
0

>  <SCORE.SYSTEM.DIHEDRAL>
0

>  <SCORE.SYSTEM.SOLV>
0

>  <SCORE.SYSTEM.norm>
0

>  <SCORE.heavy>
22

>  <SCORE.norm>
-0.364236

>  <RMSD>
1.003

$$$$
lig.pdb
 OpenBabel11021811523D
libRbt.so/2013.1/901 2013/11/27
 22 23  0  0  0  0  0  0  0  0999 V2000
   -7.4209   -1.3075   -0.3643 C   0  0  1  0  0  0  0  0  0  0  0  0
   -5.4440   -0.1674    0.7235 C   0  0  1  0  0  0  0  0  0  0  0  0
   -6.0759    1.1796    1.2921 C   0  0  1  0  0  0  0  0  0  0  0  0
   -4.9087    2.2621    1.3977 C   0  0  2  0  0  0  0  0  0  0  0  0
   -8.5093   -2.3660    0.0659 C   0  0  1  0  0  0  0  0  0  0  0  0
   -7.8114   -3.7322    0.2165 C   0  0  2  0  0  0  0  0  0  0  0  0
   -7.1963   -4.1843   -1.1198 C   0  0  2  0  0  0  0  0  0  0  0  0
   -6.1215   -3.1557   -1.6288 C   0  0  1  0  0  0  0  0  0  0  0  0
   -5.5370   -3.5803   -3.0067 C   0  0  0  0  0  0  0  0  0  0  0  0
   -3.7954    1.7394    2.4415 C   0  0  1  0  0  0  0  0  0  0  0  0
   -3.1821    0.3791    1.8357 C   0  0  0  0  0  0  0  0  0  0  0  0
   -4.3389   -0.7124    1.6832 C   0  0  2  0  0  0  0  0  0  0  0  0
   -8.2462   -4.3195   -2.1361 F   0  0  0  0  0  0  0  0  0  0  0  0
   -9.1203   -1.8974    1.3700 N   0  0  0  0  0  0  0  0  0  0  0  0
   -4.8066   -4.7907   -2.9944 N   0  0  0  0  0  0  0  0  0  0  0  0
   -2.6636    2.7207    2.5625 N   0  0  0  0  0  0  0  0  0  0  0  0
   -3.7701   -1.9566    1.1257 N   0  0  0  0  0  0  0  0  0  0  0  0
   -6.4433   -1.1701    0.6189 O   0  0  0  0  0  0  0  0  0  0  0  0
   -7.1014    1.6446    0.3285 O   0  0  0  0  0  0  0  0  0  0  0  0
   -5.4888    3.4341    1.8887 O   0  0  0  0  0  0  0  0  0  0  0  0
   -8.6069   -4.5026    0.5279 O   0  0  0  0  0  0  0  0  0  0  0  0
   -6.8144   -1.7819   -1.6823 O   0  0  0  0  0  0  0  0  0  0  0  0
  1  5  1  0  0  0  0
  1 18  1  1  0  0  0
  2 18  1  1  0  0  0
  2  3  1  0  0  0  0
  2 12  1  0  0  0  0
  3 19  1  6  0  0  0
  3  4  1  0  0  0  0
  4 20  1  1  0  0  0
  4 10  1  0  0  0  0
  5  6  1  0  0  0  0
  5 14  1  1  0  0  0
  6 21  1  6  0  0  0
  7 13  1  6  0  0  0
  7  6  1  0  0  0  0
  8  9  1  6  0  0  0
  8  7  1  0  0  0  0
 10 16  1  6  0  0  0
 11 10  1  0  0  0  0
 12 17  1  6  0  0  0
 12 11  1  0  0  0  0
 15  9  1  0  0  0  0
 22  8  1  0  0  0  0
 22  1  1  0  0  0  0
M  END
>  <CHROM.1>
-167.72785086,77.90227420,-64.55306776,-6.12153985,-1.22555345,0.19182513
1.98561230,-0.14027281,-2.57065049

>  <Name>
lig.pdb

>  <RI>
0

>  <Rbt.Current_Directory>
/home/itssahil/PROJECTS/Mol_Feturizer/New_Systems/rnas/5bws

>  <Rbt.Executable>
rbdock ($Id: //depot/dev/client3/rdock/2013.1/src/exe/rbdock.cxx#4 $)

>  <Rbt.Library>
libRbt.so (2013.1, Build901 2013/11/27)

>  <Rbt.Parameter_File>
/export/apps/rDock/src/rDock_2013.1_src/data/scripts/dock_solv.prm

>  <Rbt.Receptor>
prm/pocket_docking_2.prm

>  <SCORE>
-11.4506

>  <SCORE.INTER>
-9.39512

>  <SCORE.INTER.CONST>
1

>  <SCORE.INTER.POLAR>
0

>  <SCORE.INTER.ROT>
3

>  <SCORE.INTER.SOLV>
19.607

>  <SCORE.INTER.VDW>
-18.3991

>  <SCORE.INTER.norm>
-0.427051

>  <SCORE.INTRA>
-2.05548

>  <SCORE.INTRA.DIHEDRAL>
-3.84382

>  <SCORE.INTRA.DIHEDRAL.0>
6.10773

>  <SCORE.INTRA.POLAR>
0

>  <SCORE.INTRA.POLAR.0>
0

>  <SCORE.INTRA.REPUL>
0

>  <SCORE.INTRA.REPUL.0>
0

>  <SCORE.INTRA.SOLV>
-0.576193

>  <SCORE.INTRA.SOLV.lig_0>
-71.4024

>  <SCORE.INTRA.VDW>
0.154522

>  <SCORE.INTRA.VDW.0>
-1.86213

>  <SCORE.INTRA.norm>
-0.0934311

>  <SCORE.RESTR>
0

>  <SCORE.RESTR.CAVITY>
0

>  <SCORE.RESTR.norm>
0

>  <SCORE.SYSTEM>
0

>  <SCORE.SYSTEM.CONST>
0

>  <SCORE.SYSTEM.DIHEDRAL>
0

>  <SCORE.SYSTEM.SOLV>
0

>  <SCORE.SYSTEM.norm>
0

>  <SCORE.heavy>
22

>  <SCORE.norm>
-0.520482

>  <RMSD>
1.013

$$$$
lig.pdb
 OpenBabel11021811523D
libRbt.so/2013.1/901 2013/11/27
 22 23  0  0  0  0  0  0  0  0999 V2000
   -7.3769   -1.3431   -0.4306 C   0  0  1  0  0  0  0  0  0  0  0  0
   -5.4218   -0.1967    0.6895 C   0  0  1  0  0  0  0  0  0  0  0  0
   -6.0713    1.1461    1.2480 C   0  0  1  0  0  0  0  0  0  0  0  0
   -4.9124    2.2351    1.3752 C   0  0  2  0  0  0  0  0  0  0  0  0
   -8.4842   -2.3837   -0.0051 C   0  0  1  0  0  0  0  0  0  0  0  0
   -7.8047   -3.7559    0.1730 C   0  0  2  0  0  0  0  0  0  0  0  0
   -7.1740   -4.2313   -1.1479 C   0  0  2  0  0  0  0  0  0  0  0  0
   -6.0794   -3.2214   -1.6520 C   0  0  1  0  0  0  0  0  0  0  0  0
   -5.4782   -3.6695   -3.0153 C   0  0  0  0  0  0  0  0  0  0  0  0
   -3.8149    1.7177    2.4382 C   0  0  1  0  0  0  0  0  0  0  0  0
   -3.1832    0.3615    1.8422 C   0  0  0  0  0  0  0  0  0  0  0  0
   -4.3308   -0.7364    1.6683 C   0  0  2  0  0  0  0  0  0  0  0  0
   -8.2092   -4.3668   -2.1790 F   0  0  0  0  0  0  0  0  0  0  0  0
   -9.1101   -1.8923    1.2834 N   0  0  0  0  0  0  0  0  0  0  0  0
   -4.7734   -4.8944   -2.9796 N   0  0  0  0  0  0  0  0  0  0  0  0
   -2.6909    2.7053    2.5801 N   0  0  0  0  0  0  0  0  0  0  0  0
   -3.7452   -1.9768    1.1198 N   0  0  0  0  0  0  0  0  0  0  0  0
   -6.4134   -1.2050    0.5663 O   0  0  0  0  0  0  0  0  0  0  0  0
   -7.0821    1.6062    0.2667 O   0  0  0  0  0  0  0  0  0  0  0  0
   -5.5078    3.4033    1.8568 O   0  0  0  0  0  0  0  0  0  0  0  0
   -8.6140   -4.5133    0.4809 O   0  0  0  0  0  0  0  0  0  0  0  0
   -6.7552   -1.8405   -1.7330 O   0  0  0  0  0  0  0  0  0  0  0  0
  1  5  1  0  0  0  0
  1 18  1  1  0  0  0
  2 18  1  1  0  0  0
  2  3  1  0  0  0  0
  2 12  1  0  0  0  0
  3 19  1  6  0  0  0
  3  4  1  0  0  0  0
  4 20  1  1  0  0  0
  4 10  1  0  0  0  0
  5  6  1  0  0  0  0
  5 14  1  1  0  0  0
  6 21  1  6  0  0  0
  7 13  1  6  0  0  0
  7  6  1  0  0  0  0
  8  9  1  6  0  0  0
  8  7  1  0  0  0  0
 10 16  1  6  0  0  0
 11 10  1  0  0  0  0
 12 17  1  6  0  0  0
 12 11  1  0  0  0  0
 15  9  1  0  0  0  0
 22  8  1  0  0  0  0
 22  1  1  0  0  0  0
M  END
>  <CHROM.1>
-166.29856007,77.54619924,-63.96325469,-6.10435027,-1.26159255,0.15940349
1.97612584,-0.11997559,-2.57877528

>  <Name>
lig.pdb

>  <RI>
0

>  <Rbt.Current_Directory>
/home/itssahil/PROJECTS/Mol_Feturizer/New_Systems/rnas/5bws

>  <Rbt.Executable>
rbdock ($Id: //depot/dev/client3/rdock/2013.1/src/exe/rbdock.cxx#4 $)

>  <Rbt.Library>
libRbt.so (2013.1, Build901 2013/11/27)

>  <Rbt.Parameter_File>
/export/apps/rDock/src/rDock_2013.1_src/data/scripts/dock_solv.prm

>  <Rbt.Receptor>
prm/pocket_docking_2.prm

>  <SCORE>
-11.4169

>  <SCORE.INTER>
-9.43525

>  <SCORE.INTER.CONST>
1

>  <SCORE.INTER.POLAR>
0

>  <SCORE.INTER.ROT>
3

>  <SCORE.INTER.SOLV>
19.3211

>  <SCORE.INTER.VDW>
-18.3305

>  <SCORE.INTER.norm>
-0.428875

>  <SCORE.INTRA>
-1.98161

>  <SCORE.INTRA.DIHEDRAL>
-3.74625

>  <SCORE.INTRA.DIHEDRAL.0>
6.10773

>  <SCORE.INTRA.POLAR>
0

>  <SCORE.INTRA.POLAR.0>
0

>  <SCORE.INTRA.REPUL>
0

>  <SCORE.INTRA.REPUL.0>
0

>  <SCORE.INTRA.SOLV>
-0.542576

>  <SCORE.INTRA.SOLV.lig_0>
-71.4024

>  <SCORE.INTRA.VDW>
0.162806

>  <SCORE.INTRA.VDW.0>
-1.86213

>  <SCORE.INTRA.norm>
-0.0900731

>  <SCORE.RESTR>
0

>  <SCORE.RESTR.CAVITY>
0

>  <SCORE.RESTR.norm>
0

>  <SCORE.SYSTEM>
0

>  <SCORE.SYSTEM.CONST>
0

>  <SCORE.SYSTEM.DIHEDRAL>
0

>  <SCORE.SYSTEM.SOLV>
0

>  <SCORE.SYSTEM.norm>
0

>  <SCORE.heavy>
22

>  <SCORE.norm>
-0.518948

>  <RMSD>
1.014

$$$$
lig.pdb
 OpenBabel11021811523D
libRbt.so/2013.1/901 2013/11/27
 22 23  0  0  0  0  0  0  0  0999 V2000
   -7.3501   -1.3246   -0.6928 C   0  0  1  0  0  0  0  0  0  0  0  0
   -5.5693   -0.0848    0.6046 C   0  0  1  0  0  0  0  0  0  0  0  0
   -6.1453    1.2716    1.2090 C   0  0  1  0  0  0  0  0  0  0  0  0
   -4.9301    2.2934    1.3658 C   0  0  2  0  0  0  0  0  0  0  0  0
   -8.5801   -2.2530   -0.3535 C   0  0  1  0  0  0  0  0  0  0  0  0
   -8.0335   -3.5868    0.1929 C   0  0  2  0  0  0  0  0  0  0  0  0
   -7.1658   -4.2970   -0.8612 C   0  0  2  0  0  0  0  0  0  0  0  0
   -5.9332   -3.4122   -1.2738 C   0  0  1  0  0  0  0  0  0  0  0  0
   -5.0837   -4.1024   -2.3796 C   0  0  0  0  0  0  0  0  0  0  0  0
   -3.8583    1.6847    2.4064 C   0  0  1  0  0  0  0  0  0  0  0  0
   -3.3009    0.3171    1.7640 C   0  0  0  0  0  0  0  0  0  0  0  0
   -4.5055   -0.7127    1.5603 C   0  0  2  0  0  0  0  0  0  0  0  0
   -7.9653   -4.5887   -2.0566 F   0  0  0  0  0  0  0  0  0  0  0  0
   -9.4355   -1.5328    0.6679 N   0  0  0  0  0  0  0  0  0  0  0  0
   -5.7782   -4.3702   -3.5815 N   0  0  0  0  0  0  0  0  0  0  0  0
   -2.6834    2.6065    2.5747 N   0  0  0  0  0  0  0  0  0  0  0  0
   -3.9878   -1.9637    0.9694 N   0  0  0  0  0  0  0  0  0  0  0  0
   -6.6132   -1.0349    0.4536 O   0  0  0  0  0  0  0  0  0  0  0  0
   -7.1334    1.8158    0.2478 O   0  0  0  0  0  0  0  0  0  0  0  0
   -5.4616    3.4751    1.8875 O   0  0  0  0  0  0  0  0  0  0  0  0
   -8.9317   -4.2628    0.4374 O   0  0  0  0  0  0  0  0  0  0  0  0
   -6.4963   -2.0531   -1.7275 O   0  0  0  0  0  0  0  0  0  0  0  0
  1  5  1  0  0  0  0
  1 18  1  1  0  0  0
  2 18  1  1  0  0  0
  2  3  1  0  0  0  0
  2 12  1  0  0  0  0
  3 19  1  6  0  0  0
  3  4  1  0  0  0  0
  4 20  1  1  0  0  0
  4 10  1  0  0  0  0
  5  6  1  0  0  0  0
  5 14  1  1  0  0  0
  6 21  1  6  0  0  0
  7 13  1  6  0  0  0
  7  6  1  0  0  0  0
  8  9  1  6  0  0  0
  8  7  1  0  0  0  0
 10 16  1  6  0  0  0
 11 10  1  0  0  0  0
 12 17  1  6  0  0  0
 12 11  1  0  0  0  0
 15  9  1  0  0  0  0
 22  8  1  0  0  0  0
 22  1  1  0  0  0  0
M  END
>  <CHROM.1>
-169.63736468,96.68087987,60.04359079,-6.18559732,-1.22126914,0.11503813
1.97595945,-0.05887437,-2.61293091

>  <Name>
lig.pdb

>  <RI>
0

>  <Rbt.Current_Directory>
/home/itssahil/PROJECTS/Mol_Feturizer/New_Systems/rnas/5bws

>  <Rbt.Executable>
rbdock ($Id: //depot/dev/client3/rdock/2013.1/src/exe/rbdock.cxx#4 $)

>  <Rbt.Library>
libRbt.so (2013.1, Build901 2013/11/27)

>  <Rbt.Parameter_File>
/export/apps/rDock/src/rDock_2013.1_src/data/scripts/dock_solv.prm

>  <Rbt.Receptor>
prm/pocket_docking_2.prm

>  <SCORE>
-8.11055

>  <SCORE.INTER>
-8.59475

>  <SCORE.INTER.CONST>
1

>  <SCORE.INTER.POLAR>
0

>  <SCORE.INTER.ROT>
3

>  <SCORE.INTER.SOLV>
21.1827

>  <SCORE.INTER.VDW>
-18.3907

>  <SCORE.INTER.norm>
-0.390671

>  <SCORE.INTRA>
0.484203

>  <SCORE.INTRA.DIHEDRAL>
-0.756949

>  <SCORE.INTRA.DIHEDRAL.0>
6.10773

>  <SCORE.INTRA.POLAR>
0

>  <SCORE.INTRA.POLAR.0>
0

>  <SCORE.INTRA.REPUL>
0

>  <SCORE.INTRA.REPUL.0>
0

>  <SCORE.INTRA.SOLV>
1.96746

>  <SCORE.INTRA.SOLV.lig_0>
-71.4024

>  <SCORE.INTRA.VDW>
-0.121055

>  <SCORE.INTRA.VDW.0>
-1.86213

>  <SCORE.INTRA.norm>
0.0220092

>  <SCORE.RESTR>
0

>  <SCORE.RESTR.CAVITY>
0

>  <SCORE.RESTR.norm>
0

>  <SCORE.SYSTEM>
0

>  <SCORE.SYSTEM.CONST>
0

>  <SCORE.SYSTEM.DIHEDRAL>
0

>  <SCORE.SYSTEM.SOLV>
0

>  <SCORE.SYSTEM.norm>
0

>  <SCORE.heavy>
22

>  <SCORE.norm>
-0.368661

>  <RMSD>
1.014

$$$$
lig.pdb
 OpenBabel11021811523D
libRbt.so/2013.1/901 2013/11/27
 22 23  0  0  0  0  0  0  0  0999 V2000
   -7.4204   -1.3422   -0.6421 C   0  0  1  0  0  0  0  0  0  0  0  0
   -5.6050   -0.1298    0.6329 C   0  0  1  0  0  0  0  0  0  0  0  0
   -6.0937    1.1806    1.3953 C   0  0  1  0  0  0  0  0  0  0  0  0
   -4.8463    2.1668    1.5237 C   0  0  2  0  0  0  0  0  0  0  0  0
   -8.6460   -2.2740   -0.2958 C   0  0  1  0  0  0  0  0  0  0  0  0
   -8.0927   -3.6049    0.2509 C   0  0  2  0  0  0  0  0  0  0  0  0
   -7.2271   -4.3143   -0.8053 C   0  0  2  0  0  0  0  0  0  0  0  0
   -5.9992   -3.4264   -1.2249 C   0  0  1  0  0  0  0  0  0  0  0  0
   -5.1521   -4.1160   -2.3329 C   0  0  0  0  0  0  0  0  0  0  0  0
   -3.7002    1.4574    2.4099 C   0  0  1  0  0  0  0  0  0  0  0  0
   -3.2337    0.1393    1.6107 C   0  0  0  0  0  0  0  0  0  0  0  0
   -4.4749   -0.8512    1.4340 C   0  0  2  0  0  0  0  0  0  0  0  0
   -8.0306   -4.6110   -1.9968 F   0  0  0  0  0  0  0  0  0  0  0  0
   -9.4994   -1.5544    0.7277 N   0  0  0  0  0  0  0  0  0  0  0  0
   -5.8513   -4.3908   -3.5304 N   0  0  0  0  0  0  0  0  0  0  0  0
   -2.4941    2.3438    2.5453 N   0  0  0  0  0  0  0  0  0  0  0  0
   -4.0407   -2.0568    0.6990 N   0  0  0  0  0  0  0  0  0  0  0  0
   -6.6797   -1.0478    0.5006 O   0  0  0  0  0  0  0  0  0  0  0  0
   -7.1508    1.8179    0.5751 O   0  0  0  0  0  0  0  0  0  0  0  0
   -5.3019    3.3093    2.1857 O   0  0  0  0  0  0  0  0  0  0  0  0
   -8.9877   -4.2832    0.5006 O   0  0  0  0  0  0  0  0  0  0  0  0
   -6.5686   -2.0700   -1.6789 O   0  0  0  0  0  0  0  0  0  0  0  0
  1  5  1  0  0  0  0
  1 18  1  1  0  0  0
  2 18  1  1  0  0  0
  2  3  1  0  0  0  0
  2 12  1  0  0  0  0
  3 19  1  6  0  0  0
  3  4  1  0  0  0  0
  4 20  1  1  0  0  0
  4 10  1  0  0  0  0
  5  6  1  0  0  0  0
  5 14  1  1  0  0  0
  6 21  1  6  0  0  0
  7 13  1  6  0  0  0
  7  6  1  0  0  0  0
  8  9  1  6  0  0  0
  8  7  1  0  0  0  0
 10 16  1  6  0  0  0
 11 10  1  0  0  0  0
 12 17  1  6  0  0  0
 12 11  1  0  0  0  0
 15  9  1  0  0  0  0
 22  8  1  0  0  0  0
 22  1  1  0  0  0  0
M  END
>  <CHROM.1>
-172.21846503,104.98756602,59.92927273,-6.19374055,-1.28968619,0.16713873
2.00350927,-0.08545578,-2.58731487

>  <Name>
lig.pdb

>  <RI>
0

>  <Rbt.Current_Directory>
/home/itssahil/PROJECTS/Mol_Feturizer/New_Systems/rnas/5bws

>  <Rbt.Executable>
rbdock ($Id: //depot/dev/client3/rdock/2013.1/src/exe/rbdock.cxx#4 $)

>  <Rbt.Library>
libRbt.so (2013.1, Build901 2013/11/27)

>  <Rbt.Parameter_File>
/export/apps/rDock/src/rDock_2013.1_src/data/scripts/dock_solv.prm

>  <Rbt.Receptor>
prm/pocket_docking_2.prm

>  <SCORE>
-7.99097

>  <SCORE.INTER>
-9.25214

>  <SCORE.INTER.CONST>
1

>  <SCORE.INTER.POLAR>
0

>  <SCORE.INTER.ROT>
3

>  <SCORE.INTER.SOLV>
21.2729

>  <SCORE.INTER.VDW>
-18.8591

>  <SCORE.INTER.norm>
-0.420552

>  <SCORE.INTRA>
1.26118

>  <SCORE.INTRA.DIHEDRAL>
0.330177

>  <SCORE.INTRA.DIHEDRAL.0>
6.10773

>  <SCORE.INTRA.POLAR>
0

>  <SCORE.INTRA.POLAR.0>
0

>  <SCORE.INTRA.REPUL>
0

>  <SCORE.INTRA.REPUL.0>
0

>  <SCORE.INTRA.SOLV>
2.51527

>  <SCORE.INTRA.SOLV.lig_0>
-71.4024

>  <SCORE.INTRA.VDW>
-0.161546

>  <SCORE.INTRA.VDW.0>
-1.86213

>  <SCORE.INTRA.norm>
0.0573263

>  <SCORE.RESTR>
0

>  <SCORE.RESTR.CAVITY>
0

>  <SCORE.RESTR.norm>
0

>  <SCORE.SYSTEM>
0

>  <SCORE.SYSTEM.CONST>
0

>  <SCORE.SYSTEM.DIHEDRAL>
0

>  <SCORE.SYSTEM.SOLV>
0

>  <SCORE.SYSTEM.norm>
0

>  <SCORE.heavy>
22

>  <SCORE.norm>
-0.363226

>  <RMSD>
1.021

$$$$
lig.pdb
 OpenBabel11021811523D
libRbt.so/2013.1/901 2013/11/27
 22 23  0  0  0  0  0  0  0  0999 V2000
   -7.2572   -1.3685   -0.6411 C   0  0  1  0  0  0  0  0  0  0  0  0
   -5.4881   -0.0975    0.6419 C   0  0  1  0  0  0  0  0  0  0  0  0
   -6.1447    1.2652    1.1410 C   0  0  1  0  0  0  0  0  0  0  0  0
   -4.9773    2.3399    1.3067 C   0  0  2  0  0  0  0  0  0  0  0  0
   -8.4820   -2.2945   -0.2771 C   0  0  1  0  0  0  0  0  0  0  0  0
   -7.9271   -3.6363    0.2407 C   0  0  2  0  0  0  0  0  0  0  0  0
   -7.0923   -4.3399   -0.8439 C   0  0  2  0  0  0  0  0  0  0  0  0
   -5.8673   -3.4568   -1.2818 C   0  0  1  0  0  0  0  0  0  0  0  0
   -5.0521   -4.1398   -2.4175 C   0  0  0  0  0  0  0  0  0  0  0  0
   -3.9432    1.8278    2.4340 C   0  0  1  0  0  0  0  0  0  0  0  0
   -3.3028    0.4513    1.8967 C   0  0  0  0  0  0  0  0  0  0  0  0
   -4.4567   -0.6334    1.6851 C   0  0  2  0  0  0  0  0  0  0  0  0
   -7.9260   -4.6159   -2.0196 F   0  0  0  0  0  0  0  0  0  0  0  0
   -9.3051   -1.5805    0.7746 N   0  0  0  0  0  0  0  0  0  0  0  0
   -5.7847   -4.4058   -3.5969 N   0  0  0  0  0  0  0  0  0  0  0  0
   -2.8130    2.8019    2.6145 N   0  0  0  0  0  0  0  0  0  0  0  0
   -3.8629   -1.8924    1.1908 N   0  0  0  0  0  0  0  0  0  0  0  0
   -6.4874   -1.0937    0.4872 O   0  0  0  0  0  0  0  0  0  0  0  0
   -7.0972    1.7203    0.1008 O   0  0  0  0  0  0  0  0  0  0  0  0
   -5.5785    3.5256    1.7352 O   0  0  0  0  0  0  0  0  0  0  0  0
   -8.8215   -4.3104    0.5033 O   0  0  0  0  0  0  0  0  0  0  0  0
   -6.4360   -2.0906   -1.7062 O   0  0  0  0  0  0  0  0  0  0  0  0
  1  5  1  0  0  0  0
  1 18  1  1  0  0  0
  2 18  1  1  0  0  0
  2  3  1  0  0  0  0
  2 12  1  0  0  0  0
  3 19  1  6  0  0  0
  3  4  1  0  0  0  0
  4 20  1  1  0  0  0
  4 10  1  0  0  0  0
  5  6  1  0  0  0  0
  5 14  1  1  0  0  0
  6 21  1  6  0  0  0
  7 13  1  6  0  0  0
  7  6  1  0  0  0  0
  8  9  1  6  0  0  0
  8  7  1  0  0  0  0
 10 16  1  6  0  0  0
 11 10  1  0  0  0  0
 12 17  1  6  0  0  0
 12 11  1  0  0  0  0
 15  9  1  0  0  0  0
 22  8  1  0  0  0  0
 22  1  1  0  0  0  0
M  END
>  <CHROM.1>
-165.62777374,88.66711189,59.37489991,-6.14744605,-1.21889888,0.13846647
1.95698023,-0.06294684,-2.62207239

>  <Name>
lig.pdb

>  <RI>
0

>  <Rbt.Current_Directory>
/home/itssahil/PROJECTS/Mol_Feturizer/New_Systems/rnas/5bws

>  <Rbt.Executable>
rbdock ($Id: //depot/dev/client3/rdock/2013.1/src/exe/rbdock.cxx#4 $)

>  <Rbt.Library>
libRbt.so (2013.1, Build901 2013/11/27)

>  <Rbt.Parameter_File>
/export/apps/rDock/src/rDock_2013.1_src/data/scripts/dock_solv.prm

>  <Rbt.Receptor>
prm/pocket_docking_2.prm

>  <SCORE>
-8.08427

>  <SCORE.INTER>
-7.89458

>  <SCORE.INTER.CONST>
1

>  <SCORE.INTER.POLAR>
0

>  <SCORE.INTER.ROT>
3

>  <SCORE.INTER.SOLV>
21.4698

>  <SCORE.INTER.VDW>
-18.0197

>  <SCORE.INTER.norm>
-0.358845

>  <SCORE.INTRA>
-0.191495

>  <SCORE.INTRA.DIHEDRAL>
-1.78447

>  <SCORE.INTRA.DIHEDRAL.0>
6.10773

>  <SCORE.INTRA.POLAR>
0

>  <SCORE.INTRA.POLAR.0>
0

>  <SCORE.INTRA.REPUL>
0

>  <SCORE.INTRA.REPUL.0>
0

>  <SCORE.INTRA.SOLV>
1.4326

>  <SCORE.INTRA.SOLV.lig_0>
-71.4024

>  <SCORE.INTRA.VDW>
-0.0155576

>  <SCORE.INTRA.VDW.0>
-1.86213

>  <SCORE.INTRA.norm>
-0.00870433

>  <SCORE.RESTR>
0.00180103

>  <SCORE.RESTR.CAVITY>
0.00180103

>  <SCORE.RESTR.norm>
8.1865e-05

>  <SCORE.SYSTEM>
0

>  <SCORE.SYSTEM.CONST>
0

>  <SCORE.SYSTEM.DIHEDRAL>
0

>  <SCORE.SYSTEM.SOLV>
0

>  <SCORE.SYSTEM.norm>
0

>  <SCORE.heavy>
22

>  <SCORE.norm>
-0.367467

>  <RMSD>
1.024

$$$$
lig.pdb
 OpenBabel11021811523D
libRbt.so/2013.1/901 2013/11/27
 22 23  0  0  0  0  0  0  0  0999 V2000
   -7.3844   -1.3037   -0.6458 C   0  0  1  0  0  0  0  0  0  0  0  0
   -5.5904   -0.0688    0.6377 C   0  0  1  0  0  0  0  0  0  0  0  0
   -6.1562    1.2841    1.2596 C   0  0  1  0  0  0  0  0  0  0  0  0
   -4.9376    2.3032    1.4067 C   0  0  2  0  0  0  0  0  0  0  0  0
   -8.5847   -2.2701   -0.3059 C   0  0  1  0  0  0  0  0  0  0  0  0
   -7.9953   -3.5993    0.2063 C   0  0  2  0  0  0  0  0  0  0  0  0
   -7.1261   -4.2666   -0.8743 C   0  0  2  0  0  0  0  0  0  0  0  0
   -5.9234   -3.3422   -1.2884 C   0  0  1  0  0  0  0  0  0  0  0  0
   -5.0738   -3.9889   -2.4201 C   0  0  0  0  0  0  0  0  0  0  0  0
   -3.8522    1.6859    2.4280 C   0  0  1  0  0  0  0  0  0  0  0  0
   -3.3055    0.3222    1.7683 C   0  0  0  0  0  0  0  0  0  0  0  0
   -4.5142   -0.7046    1.5741 C   0  0  2  0  0  0  0  0  0  0  0  0
   -7.9364   -4.5564   -2.0629 F   0  0  0  0  0  0  0  0  0  0  0  0
   -9.4422   -1.5919    0.7420 N   0  0  0  0  0  0  0  0  0  0  0  0
   -5.7720   -4.2234   -3.6268 N   0  0  0  0  0  0  0  0  0  0  0  0
   -2.6738    2.6052    2.5864 N   0  0  0  0  0  0  0  0  0  0  0  0
   -4.0064   -1.9521    0.9674 N   0  0  0  0  0  0  0  0  0  0  0  0
   -6.6375   -1.0165    0.4947 O   0  0  0  0  0  0  0  0  0  0  0  0
   -7.1568    1.8362    0.3161 O   0  0  0  0  0  0  0  0  0  0  0  0
   -5.4602    3.4819    1.9440 O   0  0  0  0  0  0  0  0  0  0  0  0
   -8.8718   -4.3030    0.4513 O   0  0  0  0  0  0  0  0  0  0  0  0
   -6.5285   -1.9899   -1.7072 O   0  0  0  0  0  0  0  0  0  0  0  0
  1  5  1  0  0  0  0
  1 18  1  1  0  0  0
  2 18  1  1  0  0  0
  2  3  1  0  0  0  0
  2 12  1  0  0  0  0
  3 19  1  6  0  0  0
  3  4  1  0  0  0  0
  4 20  1  1  0  0  0
  4 10  1  0  0  0  0
  5  6  1  0  0  0  0
  5 14  1  1  0  0  0
  6 21  1  6  0  0  0
  7 13  1  6  0  0  0
  7  6  1  0  0  0  0
  8  9  1  6  0  0  0
  8  7  1  0  0  0  0
 10 16  1  6  0  0  0
 11 10  1  0  0  0  0
 12 17  1  6  0  0  0
 12 11  1  0  0  0  0
 15  9  1  0  0  0  0
 22  8  1  0  0  0  0
 22  1  1  0  0  0  0
M  END
>  <CHROM.1>
-171.59839060,97.16030270,61.45277361,-6.18469172,-1.20032187,0.13496309
1.97592399,-0.08287683,-2.59704286

>  <Name>
lig.pdb

>  <RI>
0

>  <Rbt.Current_Directory>
/home/itssahil/PROJECTS/Mol_Feturizer/New_Systems/rnas/5bws

>  <Rbt.Executable>
rbdock ($Id: //depot/dev/client3/rdock/2013.1/src/exe/rbdock.cxx#4 $)

>  <Rbt.Library>
libRbt.so (2013.1, Build901 2013/11/27)

>  <Rbt.Parameter_File>
/export/apps/rDock/src/rDock_2013.1_src/data/scripts/dock_solv.prm

>  <Rbt.Receptor>
prm/pocket_docking_2.prm

>  <SCORE>
-8.10581

>  <SCORE.INTER>
-8.52647

>  <SCORE.INTER.CONST>
1

>  <SCORE.INTER.POLAR>
0

>  <SCORE.INTER.ROT>
3

>  <SCORE.INTER.SOLV>
21.576

>  <SCORE.INTER.VDW>
-18.4763

>  <SCORE.INTER.norm>
-0.387567

>  <SCORE.INTRA>
0.419721

>  <SCORE.INTRA.DIHEDRAL>
-0.839264

>  <SCORE.INTRA.DIHEDRAL.0>
6.10773

>  <SCORE.INTRA.POLAR>
0

>  <SCORE.INTRA.POLAR.0>
0

>  <SCORE.INTRA.REPUL>
0

>  <SCORE.INTRA.REPUL.0>
0

>  <SCORE.INTRA.SOLV>
1.98055

>  <SCORE.INTRA.SOLV.lig_0>
-71.4024

>  <SCORE.INTRA.VDW>
-0.150921

>  <SCORE.INTRA.VDW.0>
-1.86213

>  <SCORE.INTRA.norm>
0.0190782

>  <SCORE.RESTR>
0.000932456

>  <SCORE.RESTR.CAVITY>
0.000932456

>  <SCORE.RESTR.norm>
4.23843e-05

>  <SCORE.SYSTEM>
0

>  <SCORE.SYSTEM.CONST>
0

>  <SCORE.SYSTEM.DIHEDRAL>
0

>  <SCORE.SYSTEM.SOLV>
0

>  <SCORE.SYSTEM.norm>
0

>  <SCORE.heavy>
22

>  <SCORE.norm>
-0.368446

>  <RMSD>
1.024

$$$$
lig.pdb
 OpenBabel11021811523D
libRbt.so/2013.1/901 2013/11/27
 22 23  0  0  0  0  0  0  0  0999 V2000
   -7.4170   -1.3547   -0.4440 C   0  0  1  0  0  0  0  0  0  0  0  0
   -5.4678   -0.1905    0.6680 C   0  0  1  0  0  0  0  0  0  0  0  0
   -6.1182    1.1444    1.2441 C   0  0  1  0  0  0  0  0  0  0  0  0
   -4.9648    2.2402    1.3624 C   0  0  2  0  0  0  0  0  0  0  0  0
   -8.5179   -2.3994   -0.0121 C   0  0  1  0  0  0  0  0  0  0  0  0
   -7.8300   -3.7663    0.1743 C   0  0  2  0  0  0  0  0  0  0  0  0
   -7.1964   -4.2459   -1.1437 C   0  0  2  0  0  0  0  0  0  0  0  0
   -6.1080   -3.2324   -1.6540 C   0  0  1  0  0  0  0  0  0  0  0  0
   -5.5041   -3.6852   -3.0145 C   0  0  0  0  0  0  0  0  0  0  0  0
   -3.8492    1.7232    2.4066 C   0  0  1  0  0  0  0  0  0  0  0  0
   -3.2170    0.3751    1.7931 C   0  0  0  0  0  0  0  0  0  0  0  0
   -4.3598   -0.7293    1.6279 C   0  0  2  0  0  0  0  0  0  0  0  0
   -8.2308   -4.3941   -2.1739 F   0  0  0  0  0  0  0  0  0  0  0  0
   -9.1468   -1.9040    1.2733 N   0  0  0  0  0  0  0  0  0  0  0  0
   -4.7917   -4.9054   -2.9713 N   0  0  0  0  0  0  0  0  0  0  0  0
   -2.7299    2.7173    2.5394 N   0  0  0  0  0  0  0  0  0  0  0  0
   -3.7737   -1.9622    1.0633 N   0  0  0  0  0  0  0  0  0  0  0  0
   -6.4544   -1.2045    0.5519 O   0  0  0  0  0  0  0  0  0  0  0  0
   -7.1456    1.6040    0.2800 O   0  0  0  0  0  0  0  0  0  0  0  0
   -5.5610    3.4013    1.8598 O   0  0  0  0  0  0  0  0  0  0  0  0
   -8.6347   -4.5267    0.4869 O   0  0  0  0  0  0  0  0  0  0  0  0
   -6.7923   -1.8562   -1.7434 O   0  0  0  0  0  0  0  0  0  0  0  0
  1  5  1  0  0  0  0
  1 18  1  1  0  0  0
  2 18  1  1  0  0  0
  2  3  1  0  0  0  0
  2 12  1  0  0  0  0
  3 19  1  6  0  0  0
  3  4  1  0  0  0  0
  4 20  1  1  0  0  0
  4 10  1  0  0  0  0
  5  6  1  0  0  0  0
  5 14  1  1  0  0  0
  6 21  1  6  0  0  0
  7 13  1  6  0  0  0
  7  6  1  0  0  0  0
  8  9  1  6  0  0  0
  8  7  1  0  0  0  0
 10 16  1  6  0  0  0
 11 10  1  0  0  0  0
 12 17  1  6  0  0  0
 12 11  1  0  0  0  0
 15  9  1  0  0  0  0
 22  8  1  0  0  0  0
 22  1  1  0  0  0  0
M  END
>  <CHROM.1>
-166.39335325,78.67597586,-63.97136569,-6.13973502,-1.26654290,0.14771872
1.97300024,-0.12590676,-2.58195166

>  <Name>
lig.pdb

>  <RI>
0

>  <Rbt.Current_Directory>
/home/itssahil/PROJECTS/Mol_Feturizer/New_Systems/rnas/5bws

>  <Rbt.Executable>
rbdock ($Id: //depot/dev/client3/rdock/2013.1/src/exe/rbdock.cxx#4 $)

>  <Rbt.Library>
libRbt.so (2013.1, Build901 2013/11/27)

>  <Rbt.Parameter_File>
/export/apps/rDock/src/rDock_2013.1_src/data/scripts/dock_solv.prm

>  <Rbt.Receptor>
prm/pocket_docking_5.prm

>  <SCORE>
-11.4596

>  <SCORE.INTER>
-9.56493

>  <SCORE.INTER.CONST>
1

>  <SCORE.INTER.POLAR>
0

>  <SCORE.INTER.ROT>
3

>  <SCORE.INTER.SOLV>
19.2049

>  <SCORE.INTER.VDW>
-18.3782

>  <SCORE.INTER.norm>
-0.434769

>  <SCORE.INTRA>
-1.89464

>  <SCORE.INTRA.DIHEDRAL>
-3.58484

>  <SCORE.INTRA.DIHEDRAL.0>
6.10773

>  <SCORE.INTRA.POLAR>
0

>  <SCORE.INTRA.POLAR.0>
0

>  <SCORE.INTRA.REPUL>
0

>  <SCORE.INTRA.REPUL.0>
0

>  <SCORE.INTRA.SOLV>
-0.495764

>  <SCORE.INTRA.SOLV.lig_0>
-71.4024

>  <SCORE.INTRA.VDW>
0.14566

>  <SCORE.INTRA.VDW.0>
-1.86213

>  <SCORE.INTRA.norm>
-0.0861201

>  <SCORE.RESTR>
0

>  <SCORE.RESTR.CAVITY>
0

>  <SCORE.RESTR.norm>
0

>  <SCORE.SYSTEM>
0

>  <SCORE.SYSTEM.CONST>
0

>  <SCORE.SYSTEM.DIHEDRAL>
0

>  <SCORE.SYSTEM.SOLV>
0

>  <SCORE.SYSTEM.norm>
0

>  <SCORE.heavy>
22

>  <SCORE.norm>
-0.52089

>  <RMSD>
1.043

$$$$
lig.pdb
 OpenBabel11021811523D
libRbt.so/2013.1/901 2013/11/27
 22 23  0  0  0  0  0  0  0  0999 V2000
   -7.4338   -1.3018   -0.6297 C   0  0  1  0  0  0  0  0  0  0  0  0
   -5.6390   -0.0680    0.6540 C   0  0  1  0  0  0  0  0  0  0  0  0
   -6.1838    1.2592    1.3458 C   0  0  1  0  0  0  0  0  0  0  0  0
   -4.9617    2.2747    1.4885 C   0  0  2  0  0  0  0  0  0  0  0  0
   -8.6253   -2.2803   -0.2936 C   0  0  1  0  0  0  0  0  0  0  0  0
   -8.0239   -3.6059    0.2138 C   0  0  2  0  0  0  0  0  0  0  0  0
   -7.1485   -4.2613   -0.8690 C   0  0  2  0  0  0  0  0  0  0  0  0
   -5.9542   -3.3246   -1.2794 C   0  0  1  0  0  0  0  0  0  0  0  0
   -5.0985   -3.9593   -2.4133 C   0  0  0  0  0  0  0  0  0  0  0  0
   -3.8406    1.6217    2.4472 C   0  0  1  0  0  0  0  0  0  0  0  0
   -3.3163    0.2850    1.7179 C   0  0  0  0  0  0  0  0  0  0  0  0
   -4.5302   -0.7364    1.5275 C   0  0  2  0  0  0  0  0  0  0  0  0
   -7.9559   -4.5541   -2.0588 F   0  0  0  0  0  0  0  0  0  0  0  0
   -9.4892   -1.6137    0.7565 N   0  0  0  0  0  0  0  0  0  0  0  0
   -5.8035   -4.2312   -3.6081 N   0  0  0  0  0  0  0  0  0  0  0  0
   -2.6582    2.5369    2.5989 N   0  0  0  0  0  0  0  0  0  0  0  0
   -4.0429   -1.9590    0.8567 N   0  0  0  0  0  0  0  0  0  0  0  0
   -6.6897   -1.0119    0.5119 O   0  0  0  0  0  0  0  0  0  0  0  0
   -7.2173    1.8444    0.4594 O   0  0  0  0  0  0  0  0  0  0  0  0
   -5.4661    3.4311    2.0879 O   0  0  0  0  0  0  0  0  0  0  0  0
   -8.8940   -4.3184    0.4561 O   0  0  0  0  0  0  0  0  0  0  0  0
   -6.5714   -1.9763   -1.6934 O   0  0  0  0  0  0  0  0  0  0  0  0
  1  5  1  0  0  0  0
  1 18  1  1  0  0  0
  2 18  1  1  0  0  0
  2  3  1  0  0  0  0
  2 12  1  0  0  0  0
  3 19  1  6  0  0  0
  3  4  1  0  0  0  0
  4 20  1  1  0  0  0
  4 10  1  0  0  0  0
  5  6  1  0  0  0  0
  5 14  1  1  0  0  0
  6 21  1  6  0  0  0
  7 13  1  6  0  0  0
  7  6  1  0  0  0  0
  8  9  1  6  0  0  0
  8  7  1  0  0  0  0
 10 16  1  6  0  0  0
 11 10  1  0  0  0  0
 12 17  1  6  0  0  0
 12 11  1  0  0  0  0
 15  9  1  0  0  0  0
 22  8  1  0  0  0  0
 22  1  1  0  0  0  0
M  END
>  <CHROM.1>
-172.53897658,100.48280368,59.71939725,-6.21279249,-1.21309249,0.15543672
1.97813914,-0.09370793,-2.58443739

>  <Name>
lig.pdb

>  <RI>
0

>  <Rbt.Current_Directory>
/home/itssahil/PROJECTS/Mol_Feturizer/New_Systems/rnas/5bws

>  <Rbt.Executable>
rbdock ($Id: //depot/dev/client3/rdock/2013.1/src/exe/rbdock.cxx#4 $)

>  <Rbt.Library>
libRbt.so (2013.1, Build901 2013/11/27)

>  <Rbt.Parameter_File>
/export/apps/rDock/src/rDock_2013.1_src/data/scripts/dock_solv.prm

>  <Rbt.Receptor>
prm/pocket_docking_2.prm

>  <SCORE>
-8.08461

>  <SCORE.INTER>
-8.86658

>  <SCORE.INTER.CONST>
1

>  <SCORE.INTER.POLAR>
0

>  <SCORE.INTER.ROT>
3

>  <SCORE.INTER.SOLV>
21.564

>  <SCORE.INTER.VDW>
-18.699

>  <SCORE.INTER.norm>
-0.403026

>  <SCORE.INTRA>
0.78197

>  <SCORE.INTRA.DIHEDRAL>
-0.358337

>  <SCORE.INTRA.DIHEDRAL.0>
6.10773

>  <SCORE.INTRA.POLAR>
0

>  <SCORE.INTRA.POLAR.0>
0

>  <SCORE.INTRA.REPUL>
0

>  <SCORE.INTRA.REPUL.0>
0

>  <SCORE.INTRA.SOLV>
2.21981

>  <SCORE.INTRA.SOLV.lig_0>
-71.4024

>  <SCORE.INTRA.VDW>
-0.148768

>  <SCORE.INTRA.VDW.0>
-1.86213

>  <SCORE.INTRA.norm>
0.0355441

>  <SCORE.RESTR>
0

>  <SCORE.RESTR.CAVITY>
0

>  <SCORE.RESTR.norm>
0

>  <SCORE.SYSTEM>
0

>  <SCORE.SYSTEM.CONST>
0

>  <SCORE.SYSTEM.DIHEDRAL>
0

>  <SCORE.SYSTEM.SOLV>
0

>  <SCORE.SYSTEM.norm>
0

>  <SCORE.heavy>
22

>  <SCORE.norm>
-0.367482

>  <RMSD>
1.047

$$$$
lig.pdb
 OpenBabel11021811523D
libRbt.so/2013.1/901 2013/11/27
 22 23  0  0  0  0  0  0  0  0999 V2000
   -6.9674   -0.5454   -0.4716 C   0  0  1  0  0  0  0  0  0  0  0  0
   -4.9709    0.1227    0.9281 C   0  0  1  0  0  0  0  0  0  0  0  0
   -4.9451    1.1789    2.1201 C   0  0  1  0  0  0  0  0  0  0  0  0
   -3.4406    1.6781    2.3001 C   0  0  2  0  0  0  0  0  0  0  0  0
   -8.5179   -0.7097   -0.2286 C   0  0  1  0  0  0  0  0  0  0  0  0
   -8.7349   -1.9777    0.6208 C   0  0  2  0  0  0  0  0  0  0  0  0
   -8.2246   -3.2272   -0.1186 C   0  0  2  0  0  0  0  0  0  0  0  0
   -6.6862   -3.1187   -0.4251 C   0  0  1  0  0  0  0  0  0  0  0  0
   -6.1773   -4.3547   -1.2213 C   0  0  0  0  0  0  0  0  0  0  0  0
   -2.5124    0.4235    2.7087 C   0  0  1  0  0  0  0  0  0  0  0  0
   -2.5648   -0.6210    1.4839 C   0  0  0  0  0  0  0  0  0  0  0  0
   -4.0689   -1.1094    1.2563 C   0  0  2  0  0  0  0  0  0  0  0  0
   -8.9520   -3.3959   -1.3818 F   0  0  0  0  0  0  0  0  0  0  0  0
   -9.0095    0.5353    0.4798 N   0  0  0  0  0  0  0  0  0  0  0  0
   -4.8070   -4.3158   -1.5664 N   0  0  0  0  0  0  0  0  0  0  0  0
   -1.0784    0.8420    2.8735 N   0  0  0  0  0  0  0  0  0  0  0  0
   -4.1101   -2.0655    0.1309 N   0  0  0  0  0  0  0  0  0  0  0  0
   -6.2909   -0.3615    0.7324 O   0  0  0  0  0  0  0  0  0  0  0  0
   -5.8069    2.3216    1.7356 O   0  0  0  0  0  0  0  0  0  0  0  0
   -3.4462    2.6079    3.3424 O   0  0  0  0  0  0  0  0  0  0  0  0
   -9.8658   -2.0967    0.7948 O   0  0  0  0  0  0  0  0  0  0  0  0
   -6.4798   -1.7998   -1.1920 O   0  0  0  0  0  0  0  0  0  0  0  0
  1  5  1  0  0  0  0
  1 18  1  1  0  0  0
  2 18  1  1  0  0  0
  2  3  1  0  0  0  0
  2 12  1  0  0  0  0
  3 19  1  6  0  0  0
  3  4  1  0  0  0  0
  4 20  1  1  0  0  0
  4 10  1  0  0  0  0
  5  6  1  0  0  0  0
  5 14  1  1  0  0  0
  6 21  1  6  0  0  0
  7 13  1  6  0  0  0
  7  6  1  0  0  0  0
  8  9  1  6  0  0  0
  8  7  1  0  0  0  0
 10 16  1  6  0  0  0
 11 10  1  0  0  0  0
 12 17  1  6  0  0  0
 12 11  1  0  0  0  0
 15  9  1  0  0  0  0
 22  8  1  0  0  0  0
 22  1  1  0  0  0  0
M  END
>  <CHROM.1>
-164.09539661,135.76683121,178.44390910,-5.86763891,-0.92092191,0.65132409
2.36983864,0.14163556,-2.62915614

>  <Name>
lig.pdb

>  <RI>
0

>  <Rbt.Current_Directory>
/home/itssahil/PROJECTS/Mol_Feturizer/New_Systems/rnas/5bws

>  <Rbt.Executable>
rbdock ($Id: //depot/dev/client3/rdock/2013.1/src/exe/rbdock.cxx#4 $)

>  <Rbt.Library>
libRbt.so (2013.1, Build901 2013/11/27)

>  <Rbt.Parameter_File>
/export/apps/rDock/src/rDock_2013.1_src/data/scripts/dock_solv.prm

>  <Rbt.Receptor>
prm/pocket_docking_2.prm

>  <SCORE>
-7.13346

>  <SCORE.INTER>
-9.57251

>  <SCORE.INTER.CONST>
1

>  <SCORE.INTER.POLAR>
0

>  <SCORE.INTER.ROT>
3

>  <SCORE.INTER.SOLV>
15.14

>  <SCORE.INTER.VDW>
-17.0283

>  <SCORE.INTER.norm>
-0.435114

>  <SCORE.INTRA>
2.43905

>  <SCORE.INTRA.DIHEDRAL>
1.1195

>  <SCORE.INTRA.DIHEDRAL.0>
6.10773

>  <SCORE.INTRA.POLAR>
0

>  <SCORE.INTRA.POLAR.0>
0

>  <SCORE.INTRA.REPUL>
0

>  <SCORE.INTRA.REPUL.0>
0

>  <SCORE.INTRA.SOLV>
3.79659

>  <SCORE.INTRA.SOLV.lig_0>
-71.4024

>  <SCORE.INTRA.VDW>
-0.0189949

>  <SCORE.INTRA.VDW.0>
-1.86213

>  <SCORE.INTRA.norm>
0.110866

>  <SCORE.RESTR>
0

>  <SCORE.RESTR.CAVITY>
0

>  <SCORE.RESTR.norm>
0

>  <SCORE.SYSTEM>
0

>  <SCORE.SYSTEM.CONST>
0

>  <SCORE.SYSTEM.DIHEDRAL>
0

>  <SCORE.SYSTEM.SOLV>
0

>  <SCORE.SYSTEM.norm>
0

>  <SCORE.heavy>
22

>  <SCORE.norm>
-0.324248

>  <RMSD>
1.149

$$$$
lig.pdb
 OpenBabel11021811523D
libRbt.so/2013.1/901 2013/11/27
 22 23  0  0  0  0  0  0  0  0999 V2000
   -7.3627   -1.6877   -0.8591 C   0  0  1  0  0  0  0  0  0  0  0  0
   -5.5104   -0.4210    0.3053 C   0  0  1  0  0  0  0  0  0  0  0  0
   -6.2024    0.9379    0.7653 C   0  0  1  0  0  0  0  0  0  0  0  0
   -5.0658    2.0511    0.8838 C   0  0  2  0  0  0  0  0  0  0  0  0
   -8.6236   -2.4993   -0.3676 C   0  0  1  0  0  0  0  0  0  0  0  0
   -8.1376   -3.8697    0.1446 C   0  0  2  0  0  0  0  0  0  0  0  0
   -7.4566   -4.6665   -0.9822 C   0  0  2  0  0  0  0  0  0  0  0  0
   -6.2052   -3.8993   -1.5459 C   0  0  1  0  0  0  0  0  0  0  0  0
   -5.5463   -4.6752   -2.7226 C   0  0  0  0  0  0  0  0  0  0  0  0
   -4.0072    1.6074    2.0173 C   0  0  1  0  0  0  0  0  0  0  0  0
   -3.3312    0.2330    1.5198 C   0  0  0  0  0  0  0  0  0  0  0  0
   -4.4545   -0.8914    1.3556 C   0  0  2  0  0  0  0  0  0  0  0  0
   -8.4057   -4.9005   -2.0766 F   0  0  0  0  0  0  0  0  0  0  0  0
   -9.2950   -1.6940    0.7251 N   0  0  0  0  0  0  0  0  0  0  0  0
   -4.2726   -4.1986   -3.1088 N   0  0  0  0  0  0  0  0  0  0  0  0
   -2.9047    2.6195    2.1543 N   0  0  0  0  0  0  0  0  0  0  0  0
   -3.8282   -2.1484    0.8975 N   0  0  0  0  0  0  0  0  0  0  0  0
   -6.4812   -1.4506    0.1935 O   0  0  0  0  0  0  0  0  0  0  0  0
   -7.1771    1.3299   -0.2801 O   0  0  0  0  0  0  0  0  0  0  0  0
   -5.6979    3.2325    1.2785 O   0  0  0  0  0  0  0  0  0  0  0  0
   -9.0584   -4.4604    0.5003 O   0  0  0  0  0  0  0  0  0  0  0  0
   -6.6950   -2.5012   -1.9648 O   0  0  0  0  0  0  0  0  0  0  0  0
  1  5  1  0  0  0  0
  1 18  1  1  0  0  0
  2 18  1  1  0  0  0
  2  3  1  0  0  0  0
  2 12  1  0  0  0  0
  3 19  1  6  0  0  0
  3  4  1  0  0  0  0
  4 20  1  1  0  0  0
  4 10  1  0  0  0  0
  5  6  1  0  0  0  0
  5 14  1  1  0  0  0
  6 21  1  6  0  0  0
  7 13  1  6  0  0  0
  7  6  1  0  0  0  0
  8  9  1  6  0  0  0
  8  7  1  0  0  0  0
 10 16  1  6  0  0  0
 11 10  1  0  0  0  0
 12 17  1  6  0  0  0
 12 11  1  0  0  0  0
 15  9  1  0  0  0  0
 22  8  1  0  0  0  0
 22  1  1  0  0  0  0
M  END
>  <CHROM.1>
-156.48162183,80.38807739,-167.91357479,-6.22739016,-1.48944413,-0.09248673
1.99282460,-0.11390822,-2.65345503

>  <Name>
lig.pdb

>  <RI>
0

>  <Rbt.Current_Directory>
/home/itssahil/PROJECTS/Mol_Feturizer/New_Systems/rnas/5bws

>  <Rbt.Executable>
rbdock ($Id: //depot/dev/client3/rdock/2013.1/src/exe/rbdock.cxx#4 $)

>  <Rbt.Library>
libRbt.so (2013.1, Build901 2013/11/27)

>  <Rbt.Parameter_File>
/export/apps/rDock/src/rDock_2013.1_src/data/scripts/dock_solv.prm

>  <Rbt.Receptor>
prm/pocket_docking_4.prm

>  <SCORE>
-9.45018

>  <SCORE.INTER>
-8.52044

>  <SCORE.INTER.CONST>
1

>  <SCORE.INTER.POLAR>
0

>  <SCORE.INTER.ROT>
3

>  <SCORE.INTER.SOLV>
20.8154

>  <SCORE.INTER.VDW>
-18.2188

>  <SCORE.INTER.norm>
-0.387293

>  <SCORE.INTRA>
-0.929744

>  <SCORE.INTRA.DIHEDRAL>
-1.33095

>  <SCORE.INTRA.DIHEDRAL.0>
6.10773

>  <SCORE.INTRA.POLAR>
0

>  <SCORE.INTRA.POLAR.0>
0

>  <SCORE.INTRA.REPUL>
0

>  <SCORE.INTRA.REPUL.0>
0

>  <SCORE.INTRA.SOLV>
-0.697117

>  <SCORE.INTRA.SOLV.lig_0>
-71.4024

>  <SCORE.INTRA.VDW>
0.0842877

>  <SCORE.INTRA.VDW.0>
-1.86213

>  <SCORE.INTRA.norm>
-0.0422611

>  <SCORE.RESTR>
0

>  <SCORE.RESTR.CAVITY>
0

>  <SCORE.RESTR.norm>
0

>  <SCORE.SYSTEM>
0

>  <SCORE.SYSTEM.CONST>
0

>  <SCORE.SYSTEM.DIHEDRAL>
0

>  <SCORE.SYSTEM.SOLV>
0

>  <SCORE.SYSTEM.norm>
0

>  <SCORE.heavy>
22

>  <SCORE.norm>
-0.429554

>  <RMSD>
1.171

$$$$
lig.pdb
 OpenBabel11021811523D
libRbt.so/2013.1/901 2013/11/27
 22 23  0  0  0  0  0  0  0  0999 V2000
   -7.3697   -1.6977   -0.8643 C   0  0  1  0  0  0  0  0  0  0  0  0
   -5.5133   -0.4351    0.2980 C   0  0  1  0  0  0  0  0  0  0  0  0
   -6.1934    0.9275    0.7650 C   0  0  1  0  0  0  0  0  0  0  0  0
   -5.0487    2.0329    0.8782 C   0  0  2  0  0  0  0  0  0  0  0  0
   -8.6295   -2.5129   -0.3759 C   0  0  1  0  0  0  0  0  0  0  0  0
   -8.1411   -3.8818    0.1378 C   0  0  2  0  0  0  0  0  0  0  0  0
   -7.4549   -4.6768   -0.9872 C   0  0  2  0  0  0  0  0  0  0  0  0
   -6.2042   -3.9062   -1.5478 C   0  0  1  0  0  0  0  0  0  0  0  0
   -5.5401   -4.6804   -2.7227 C   0  0  0  0  0  0  0  0  0  0  0  0
   -3.9857    1.5802    2.0040 C   0  0  1  0  0  0  0  0  0  0  0  0
   -3.3221    0.2022    1.4995 C   0  0  0  0  0  0  0  0  0  0  0  0
   -4.4538   -0.9144    1.3405 C   0  0  2  0  0  0  0  0  0  0  0  0
   -8.4005   -4.9137   -2.0840 F   0  0  0  0  0  0  0  0  0  0  0  0
   -9.3060   -1.7092    0.7150 N   0  0  0  0  0  0  0  0  0  0  0  0
   -4.2577   -4.2138   -3.0916 N   0  0  0  0  0  0  0  0  0  0  0  0
   -2.8757    2.5847    2.1357 N   0  0  0  0  0  0  0  0  0  0  0  0
   -3.8387   -2.1747    0.8761 N   0  0  0  0  0  0  0  0  0  0  0  0
   -6.4917   -1.4580    0.1906 O   0  0  0  0  0  0  0  0  0  0  0  0
   -7.1722    1.3279   -0.2733 O   0  0  0  0  0  0  0  0  0  0  0  0
   -5.6705    3.2177    1.2792 O   0  0  0  0  0  0  0  0  0  0  0  0
   -9.0611   -4.4751    0.4911 O   0  0  0  0  0  0  0  0  0  0  0  0
   -6.6969   -2.5096   -1.9681 O   0  0  0  0  0  0  0  0  0  0  0  0
  1  5  1  0  0  0  0
  1 18  1  1  0  0  0
  2 18  1  1  0  0  0
  2  3  1  0  0  0  0
  2 12  1  0  0  0  0
  3 19  1  6  0  0  0
  3  4  1  0  0  0  0
  4 20  1  1  0  0  0
  4 10  1  0  0  0  0
  5  6  1  0  0  0  0
  5 14  1  1  0  0  0
  6 21  1  6  0  0  0
  7 13  1  6  0  0  0
  7  6  1  0  0  0  0
  8  9  1  6  0  0  0
  8  7  1  0  0  0  0
 10 16  1  6  0  0  0
 11 10  1  0  0  0  0
 12 17  1  6  0  0  0
 12 11  1  0  0  0  0
 15  9  1  0  0  0  0
 22  8  1  0  0  0  0
 22  1  1  0  0  0  0
M  END
>  <CHROM.1>
-157.28660653,81.29681073,-166.95476214,-6.22319434,-1.50442144,-0.09857570
1.99616140,-0.11249772,-2.65471709

>  <Name>
lig.pdb

>  <RI>
0

>  <Rbt.Current_Directory>
/home/itssahil/PROJECTS/Mol_Feturizer/New_Systems/rnas/5bws

>  <Rbt.Executable>
rbdock ($Id: //depot/dev/client3/rdock/2013.1/src/exe/rbdock.cxx#4 $)

>  <Rbt.Library>
libRbt.so (2013.1, Build901 2013/11/27)

>  <Rbt.Parameter_File>
/export/apps/rDock/src/rDock_2013.1_src/data/scripts/dock_solv.prm

>  <Rbt.Receptor>
prm/pocket_docking_4.prm

>  <SCORE>
-9.47333

>  <SCORE.INTER>
-8.57507

>  <SCORE.INTER.CONST>
1

>  <SCORE.INTER.POLAR>
0

>  <SCORE.INTER.ROT>
3

>  <SCORE.INTER.SOLV>
20.809

>  <SCORE.INTER.VDW>
-18.253

>  <SCORE.INTER.norm>
-0.389776

>  <SCORE.INTRA>
-0.898257

>  <SCORE.INTRA.DIHEDRAL>
-1.24006

>  <SCORE.INTRA.DIHEDRAL.0>
6.10773

>  <SCORE.INTRA.POLAR>
0

>  <SCORE.INTRA.POLAR.0>
0

>  <SCORE.INTRA.REPUL>
0

>  <SCORE.INTRA.REPUL.0>
0

>  <SCORE.INTRA.SOLV>
-0.701089

>  <SCORE.INTRA.SOLV.lig_0>
-71.4024

>  <SCORE.INTRA.VDW>
0.0723168

>  <SCORE.INTRA.VDW.0>
-1.86213

>  <SCORE.INTRA.norm>
-0.0408299

>  <SCORE.RESTR>
0

>  <SCORE.RESTR.CAVITY>
0

>  <SCORE.RESTR.norm>
0

>  <SCORE.SYSTEM>
0

>  <SCORE.SYSTEM.CONST>
0

>  <SCORE.SYSTEM.DIHEDRAL>
0

>  <SCORE.SYSTEM.SOLV>
0

>  <SCORE.SYSTEM.norm>
0

>  <SCORE.heavy>
22

>  <SCORE.norm>
-0.430606

>  <RMSD>
1.175

$$$$
lig.pdb
 OpenBabel11021811523D
libRbt.so/2013.1/901 2013/11/27
 22 23  0  0  0  0  0  0  0  0999 V2000
   -7.1301   -0.4246   -0.5099 C   0  0  1  0  0  0  0  0  0  0  0  0
   -5.1807    0.3280    0.9129 C   0  0  1  0  0  0  0  0  0  0  0  0
   -5.1887    1.4421    2.0512 C   0  0  1  0  0  0  0  0  0  0  0  0
   -3.6896    1.9501    2.2505 C   0  0  2  0  0  0  0  0  0  0  0  0
   -8.6887   -0.5702   -0.3109 C   0  0  1  0  0  0  0  0  0  0  0  0
   -8.9402   -1.7811    0.6093 C   0  0  2  0  0  0  0  0  0  0  0  0
   -8.4097   -3.0762   -0.0309 C   0  0  2  0  0  0  0  0  0  0  0  0
   -6.8612   -2.9903   -0.2900 C   0  0  1  0  0  0  0  0  0  0  0  0
   -6.3302   -4.2755   -0.9878 C   0  0  0  0  0  0  0  0  0  0  0  0
   -2.7754    0.7177    2.7481 C   0  0  1  0  0  0  0  0  0  0  0  0
   -2.7928   -0.3864    1.5757 C   0  0  0  0  0  0  0  0  0  0  0  0
   -4.2902   -0.8860    1.3284 C   0  0  2  0  0  0  0  0  0  0  0  0
   -9.0937   -3.3236   -1.3053 F   0  0  0  0  0  0  0  0  0  0  0  0
   -9.1995    0.7183    0.2993 N   0  0  0  0  0  0  0  0  0  0  0  0
   -4.9486   -4.2611   -1.2871 N   0  0  0  0  0  0  0  0  0  0  0  0
   -1.3463    1.1442    2.9341 N   0  0  0  0  0  0  0  0  0  0  0  0
   -4.2993   -1.8968    0.2512 N   0  0  0  0  0  0  0  0  0  0  0  0
   -6.4949   -0.1657    0.7027 O   0  0  0  0  0  0  0  0  0  0  0  0
   -6.0375    2.5641    1.5852 O   0  0  0  0  0  0  0  0  0  0  0  0
   -3.7248    2.9306    3.2447 O   0  0  0  0  0  0  0  0  0  0  0  0
  -10.0769   -1.8867    0.7512 O   0  0  0  0  0  0  0  0  0  0  0  0
   -6.6231   -1.7233   -1.1316 O   0  0  0  0  0  0  0  0  0  0  0  0
  1  5  1  0  0  0  0
  1 18  1  1  0  0  0
  2 18  1  1  0  0  0
  2  3  1  0  0  0  0
  2 12  1  0  0  0  0
  3 19  1  6  0  0  0
  3  4  1  0  0  0  0
  4 20  1  1  0  0  0
  4 10  1  0  0  0  0
  5  6  1  0  0  0  0
  5 14  1  1  0  0  0
  6 21  1  6  0  0  0
  7 13  1  6  0  0  0
  7  6  1  0  0  0  0
  8  9  1  6  0  0  0
  8  7  1  0  0  0  0
 10 16  1  6  0  0  0
 11 10  1  0  0  0  0
 12 17  1  6  0  0  0
 12 11  1  0  0  0  0
 15  9  1  0  0  0  0
 22  8  1  0  0  0  0
 22  1  1  0  0  0  0
M  END
>  <CHROM.1>
-164.06817917,136.61903907,178.43385089,-6.06973399,-0.73442442,0.67256496
2.35766992,0.17111810,-2.68578734

>  <Name>
lig.pdb

>  <RI>
0

>  <Rbt.Current_Directory>
/home/itssahil/PROJECTS/Mol_Feturizer/New_Systems/rnas/5bws

>  <Rbt.Executable>
rbdock ($Id: //depot/dev/client3/rdock/2013.1/src/exe/rbdock.cxx#4 $)

>  <Rbt.Library>
libRbt.so (2013.1, Build901 2013/11/27)

>  <Rbt.Parameter_File>
/export/apps/rDock/src/rDock_2013.1_src/data/scripts/dock_solv.prm

>  <Rbt.Receptor>
prm/pocket_docking_3.prm

>  <SCORE>
-7.25924

>  <SCORE.INTER>
-9.67696

>  <SCORE.INTER.CONST>
1

>  <SCORE.INTER.POLAR>
0

>  <SCORE.INTER.ROT>
3

>  <SCORE.INTER.SOLV>
14.9835

>  <SCORE.INTER.VDW>
-17.0458

>  <SCORE.INTER.norm>
-0.439862

>  <SCORE.INTRA>
2.41772

>  <SCORE.INTRA.DIHEDRAL>
1.00303

>  <SCORE.INTRA.DIHEDRAL.0>
6.10773

>  <SCORE.INTRA.POLAR>
0

>  <SCORE.INTRA.POLAR.0>
0

>  <SCORE.INTRA.REPUL>
0

>  <SCORE.INTRA.REPUL.0>
0

>  <SCORE.INTRA.SOLV>
3.82574

>  <SCORE.INTRA.SOLV.lig_0>
-71.4024

>  <SCORE.INTRA.VDW>
0.00333973

>  <SCORE.INTRA.VDW.0>
-1.86213

>  <SCORE.INTRA.norm>
0.109897

>  <SCORE.RESTR>
0

>  <SCORE.RESTR.CAVITY>
0

>  <SCORE.RESTR.norm>
0

>  <SCORE.SYSTEM>
0

>  <SCORE.SYSTEM.CONST>
0

>  <SCORE.SYSTEM.DIHEDRAL>
0

>  <SCORE.SYSTEM.SOLV>
0

>  <SCORE.SYSTEM.norm>
0

>  <SCORE.heavy>
22

>  <SCORE.norm>
-0.329965

>  <RMSD>
1.195

$$$$
lig.pdb
 OpenBabel11021811523D
libRbt.so/2013.1/901 2013/11/27
 22 23  0  0  0  0  0  0  0  0999 V2000
   -7.5261   -1.6623   -0.7903 C   0  0  1  0  0  0  0  0  0  0  0  0
   -5.7771   -0.3113    0.4373 C   0  0  1  0  0  0  0  0  0  0  0  0
   -6.5754    0.9623    0.9641 C   0  0  1  0  0  0  0  0  0  0  0  0
   -5.5321    2.1565    1.1399 C   0  0  2  0  0  0  0  0  0  0  0  0
   -8.7716   -2.5073   -0.3163 C   0  0  1  0  0  0  0  0  0  0  0  0
   -8.2573   -3.8680    0.1942 C   0  0  2  0  0  0  0  0  0  0  0  0
   -7.5451   -4.6419   -0.9294 C   0  0  2  0  0  0  0  0  0  0  0  0
   -6.3072   -3.8412   -1.4759 C   0  0  1  0  0  0  0  0  0  0  0  0
   -5.6170   -4.5943   -2.6495 C   0  0  0  0  0  0  0  0  0  0  0  0
   -4.4379    1.7436    2.2509 C   0  0  1  0  0  0  0  0  0  0  0  0
   -3.6544    0.4551    1.6857 C   0  0  0  0  0  0  0  0  0  0  0  0
   -4.6835   -0.7468    1.4638 C   0  0  2  0  0  0  0  0  0  0  0  0
   -8.4766   -4.8934   -2.0349 F   0  0  0  0  0  0  0  0  0  0  0  0
   -9.4740   -1.7245    0.7733 N   0  0  0  0  0  0  0  0  0  0  0  0
   -4.3548   -4.0800   -3.0246 N   0  0  0  0  0  0  0  0  0  0  0  0
   -3.4205    2.8334    2.4400 N   0  0  0  0  0  0  0  0  0  0  0  0
   -3.9589   -1.9245    0.9439 N   0  0  0  0  0  0  0  0  0  0  0  0
   -6.6618   -1.4091    0.2727 O   0  0  0  0  0  0  0  0  0  0  0  0
   -7.5815    1.3262   -0.0613 O   0  0  0  0  0  0  0  0  0  0  0  0
   -6.2566    3.2616    1.5927 O   0  0  0  0  0  0  0  0  0  0  0  0
   -9.1669   -4.4831    0.5371 O   0  0  0  0  0  0  0  0  0  0  0  0
   -6.8270   -2.4533   -1.8929 O   0  0  0  0  0  0  0  0  0  0  0  0
  1  5  1  0  0  0  0
  1 18  1  1  0  0  0
  2 18  1  1  0  0  0
  2  3  1  0  0  0  0
  2 12  1  0  0  0  0
  3 19  1  6  0  0  0
  3  4  1  0  0  0  0
  4 20  1  1  0  0  0
  4 10  1  0  0  0  0
  5  6  1  0  0  0  0
  5 14  1  1  0  0  0
  6 21  1  6  0  0  0
  7 13  1  6  0  0  0
  7  6  1  0  0  0  0
  8  9  1  6  0  0  0
  8  7  1  0  0  0  0
 10 16  1  6  0  0  0
 11 10  1  0  0  0  0
 12 17  1  6  0  0  0
 12 11  1  0  0  0  0
 15  9  1  0  0  0  0
 22  8  1  0  0  0  0
 22  1  1  0  0  0  0
M  END
>  <CHROM.1>
-152.21136345,80.25417751,-168.24159248,-6.45982263,-1.42138303,0.02908206
1.93367983,-0.12079023,-2.63594905

>  <Name>
lig.pdb

>  <RI>
0

>  <Rbt.Current_Directory>
/home/itssahil/PROJECTS/Mol_Feturizer/New_Systems/rnas/5bws

>  <Rbt.Executable>
rbdock ($Id: //depot/dev/client3/rdock/2013.1/src/exe/rbdock.cxx#4 $)

>  <Rbt.Library>
libRbt.so (2013.1, Build901 2013/11/27)

>  <Rbt.Parameter_File>
/export/apps/rDock/src/rDock_2013.1_src/data/scripts/dock_solv.prm

>  <Rbt.Receptor>
prm/pocket_docking_3.prm

>  <SCORE>
-9.38664

>  <SCORE.INTER>
-8.89897

>  <SCORE.INTER.CONST>
1

>  <SCORE.INTER.POLAR>
0

>  <SCORE.INTER.ROT>
3

>  <SCORE.INTER.SOLV>
20.2838

>  <SCORE.INTER.VDW>
-18.2939

>  <SCORE.INTER.norm>
-0.404499

>  <SCORE.INTRA>
-0.48767

>  <SCORE.INTRA.DIHEDRAL>
-0.597053

>  <SCORE.INTRA.DIHEDRAL.0>
6.10773

>  <SCORE.INTRA.POLAR>
0

>  <SCORE.INTRA.POLAR.0>
0

>  <SCORE.INTRA.REPUL>
0

>  <SCORE.INTRA.REPUL.0>
0

>  <SCORE.INTRA.SOLV>
-0.538235

>  <SCORE.INTRA.SOLV.lig_0>
-71.4024

>  <SCORE.INTRA.VDW>
0.0799742

>  <SCORE.INTRA.VDW.0>
-1.86213

>  <SCORE.INTRA.norm>
-0.0221668

>  <SCORE.RESTR>
0

>  <SCORE.RESTR.CAVITY>
0

>  <SCORE.RESTR.norm>
0

>  <SCORE.SYSTEM>
0

>  <SCORE.SYSTEM.CONST>
0

>  <SCORE.SYSTEM.DIHEDRAL>
0

>  <SCORE.SYSTEM.SOLV>
0

>  <SCORE.SYSTEM.norm>
0

>  <SCORE.heavy>
22

>  <SCORE.norm>
-0.426666

>  <RMSD>
1.323

$$$$
lig.pdb
 OpenBabel11021811523D
libRbt.so/2013.1/901 2013/11/27
 22 23  0  0  0  0  0  0  0  0999 V2000
   -7.2486   -0.2935   -0.3742 C   0  0  1  0  0  0  0  0  0  0  0  0
   -5.2391    0.4155    0.9862 C   0  0  1  0  0  0  0  0  0  0  0  0
   -5.1786    1.4962    2.1546 C   0  0  1  0  0  0  0  0  0  0  0  0
   -3.6630    1.9713    2.3048 C   0  0  2  0  0  0  0  0  0  0  0  0
   -8.8053   -0.3792   -0.1303 C   0  0  1  0  0  0  0  0  0  0  0  0
   -9.0752   -1.5722    0.8080 C   0  0  2  0  0  0  0  0  0  0  0  0
   -8.6114   -2.8914    0.1653 C   0  0  2  0  0  0  0  0  0  0  0  0
   -7.0687   -2.8654   -0.1378 C   0  0  1  0  0  0  0  0  0  0  0  0
   -6.6056   -4.1754   -0.8381 C   0  0  0  0  0  0  0  0  0  0  0  0
   -2.7526    0.7088    2.7287 C   0  0  1  0  0  0  0  0  0  0  0  0
   -2.8399   -0.3605    1.5276 C   0  0  0  0  0  0  0  0  0  0  0  0
   -4.3555   -0.8258    1.3296 C   0  0  2  0  0  0  0  0  0  0  0  0
   -9.3399   -3.1239   -1.0870 F   0  0  0  0  0  0  0  0  0  0  0  0
   -9.2505    0.9324    0.4819 N   0  0  0  0  0  0  0  0  0  0  0  0
   -5.2302   -4.2215   -1.1617 N   0  0  0  0  0  0  0  0  0  0  0  0
   -1.3091    1.1041    2.8663 N   0  0  0  0  0  0  0  0  0  0  0  0
   -4.4287   -1.8048    0.2258 N   0  0  0  0  0  0  0  0  0  0  0  0
   -6.5701   -0.0483    0.8177 O   0  0  0  0  0  0  0  0  0  0  0  0
   -6.0243    2.6462    1.7564 O   0  0  0  0  0  0  0  0  0  0  0  0
   -3.6381    2.9232    3.3268 O   0  0  0  0  0  0  0  0  0  0  0  0
  -10.2106   -1.6342    0.9826 O   0  0  0  0  0  0  0  0  0  0  0  0
   -6.8078   -1.6153   -0.9976 O   0  0  0  0  0  0  0  0  0  0  0  0
  1  5  1  0  0  0  0
  1 18  1  1  0  0  0
  2 18  1  1  0  0  0
  2  3  1  0  0  0  0
  2 12  1  0  0  0  0
  3 19  1  6  0  0  0
  3  4  1  0  0  0  0
  4 20  1  1  0  0  0
  4 10  1  0  0  0  0
  5  6  1  0  0  0  0
  5 14  1  1  0  0  0
  6 21  1  6  0  0  0
  7 13  1  6  0  0  0
  7  6  1  0  0  0  0
  8  9  1  6  0  0  0
  8  7  1  0  0  0  0
 10 16  1  6  0  0  0
 11 10  1  0  0  0  0
 12 17  1  6  0  0  0
 12 11  1  0  0  0  0
 15  9  1  0  0  0  0
 22  8  1  0  0  0  0
 22  1  1  0  0  0  0
M  END
>  <CHROM.1>
-163.11408112,138.43130043,179.15452647,-6.16816137,-0.63094509,0.78214693
2.40165620,0.15251433,-2.68896722

>  <Name>
lig.pdb

>  <RI>
0

>  <Rbt.Current_Directory>
/home/itssahil/PROJECTS/Mol_Feturizer/New_Systems/rnas/5bws

>  <Rbt.Executable>
rbdock ($Id: //depot/dev/client3/rdock/2013.1/src/exe/rbdock.cxx#4 $)

>  <Rbt.Library>
libRbt.so (2013.1, Build901 2013/11/27)

>  <Rbt.Parameter_File>
/export/apps/rDock/src/rDock_2013.1_src/data/scripts/dock_solv.prm

>  <Rbt.Receptor>
prm/pocket_docking_3.prm

>  <SCORE>
-7.29015

>  <SCORE.INTER>
-9.61373

>  <SCORE.INTER.CONST>
1

>  <SCORE.INTER.POLAR>
0

>  <SCORE.INTER.ROT>
3

>  <SCORE.INTER.SOLV>
14.5844

>  <SCORE.INTER.VDW>
-16.8706

>  <SCORE.INTER.norm>
-0.436988

>  <SCORE.INTRA>
2.32359

>  <SCORE.INTRA.DIHEDRAL>
0.861806

>  <SCORE.INTRA.DIHEDRAL.0>
6.10773

>  <SCORE.INTRA.POLAR>
0

>  <SCORE.INTRA.POLAR.0>
0

>  <SCORE.INTRA.REPUL>
0

>  <SCORE.INTRA.REPUL.0>
0

>  <SCORE.INTRA.SOLV>
3.81171

>  <SCORE.INTRA.SOLV.lig_0>
-71.4024

>  <SCORE.INTRA.VDW>
-0.0131726

>  <SCORE.INTRA.VDW.0>
-1.86213

>  <SCORE.INTRA.norm>
0.105618

>  <SCORE.RESTR>
0

>  <SCORE.RESTR.CAVITY>
0

>  <SCORE.RESTR.norm>
0

>  <SCORE.SYSTEM>
0

>  <SCORE.SYSTEM.CONST>
0

>  <SCORE.SYSTEM.DIHEDRAL>
0

>  <SCORE.SYSTEM.SOLV>
0

>  <SCORE.SYSTEM.norm>
0

>  <SCORE.heavy>
22

>  <SCORE.norm>
-0.33137

>  <RMSD>
1.382

$$$$
lig.pdb
 OpenBabel11021811523D
libRbt.so/2013.1/901 2013/11/27
 22 23  0  0  0  0  0  0  0  0999 V2000
   -7.5769   -1.8357   -0.9649 C   0  0  1  0  0  0  0  0  0  0  0  0
   -5.7153   -0.5371    0.1482 C   0  0  1  0  0  0  0  0  0  0  0  0
   -6.3729    0.8235    0.6516 C   0  0  1  0  0  0  0  0  0  0  0  0
   -5.2236    1.9280    0.7184 C   0  0  2  0  0  0  0  0  0  0  0  0
   -8.8001   -2.6960   -0.4610 C   0  0  1  0  0  0  0  0  0  0  0  0
   -8.2551   -4.0436    0.0522 C   0  0  2  0  0  0  0  0  0  0  0  0
   -7.5508   -4.8164   -1.0771 C   0  0  2  0  0  0  0  0  0  0  0  0
   -6.3357   -4.0012   -1.6529 C   0  0  1  0  0  0  0  0  0  0  0  0
   -5.6546   -4.7541   -2.8319 C   0  0  0  0  0  0  0  0  0  0  0  0
   -4.1114    1.4696    1.7931 C   0  0  1  0  0  0  0  0  0  0  0  0
   -3.4718    0.0938    1.2530 C   0  0  0  0  0  0  0  0  0  0  0  0
   -4.6101   -1.0216    1.1398 C   0  0  2  0  0  0  0  0  0  0  0  0
   -8.4976   -5.0928   -2.1635 F   0  0  0  0  0  0  0  0  0  0  0  0
   -9.4955   -1.9145    0.6340 N   0  0  0  0  0  0  0  0  0  0  0  0
   -4.4417   -4.1825   -3.2799 N   0  0  0  0  0  0  0  0  0  0  0  0
   -2.9960    2.4732    1.8795 N   0  0  0  0  0  0  0  0  0  0  0  0
   -4.0173   -2.2799    0.6424 N   0  0  0  0  0  0  0  0  0  0  0  0
   -6.6980   -1.5592    0.0802 O   0  0  0  0  0  0  0  0  0  0  0  0
   -7.3971    1.2291   -0.3397 O   0  0  0  0  0  0  0  0  0  0  0  0
   -5.8261    3.1111    1.1524 O   0  0  0  0  0  0  0  0  0  0  0  0
   -9.1485   -4.6699    0.4168 O   0  0  0  0  0  0  0  0  0  0  0  0
   -6.8850   -2.6257   -2.0728 O   0  0  0  0  0  0  0  0  0  0  0  0
  1  5  1  0  0  0  0
  1 18  1  1  0  0  0
  2 18  1  1  0  0  0
  2  3  1  0  0  0  0
  2 12  1  0  0  0  0
  3 19  1  6  0  0  0
  3  4  1  0  0  0  0
  4 20  1  1  0  0  0
  4 10  1  0  0  0  0
  5  6  1  0  0  0  0
  5 14  1  1  0  0  0
  6 21  1  6  0  0  0
  7 13  1  6  0  0  0
  7  6  1  0  0  0  0
  8  9  1  6  0  0  0
  8  7  1  0  0  0  0
 10 16  1  6  0  0  0
 11 10  1  0  0  0  0
 12 17  1  6  0  0  0
 12 11  1  0  0  0  0
 15  9  1  0  0  0  0
 22  8  1  0  0  0  0
 22  1  1  0  0  0  0
M  END
>  <CHROM.1>
-160.48750337,84.89368644,-171.37007017,-6.37974674,-1.62424122,-0.23198575
1.99794843,-0.14895642,-2.65615323

>  <Name>
lig.pdb

>  <RI>
0

>  <Rbt.Current_Directory>
/home/itssahil/PROJECTS/Mol_Feturizer/New_Systems/rnas/5bws

>  <Rbt.Executable>
rbdock ($Id: //depot/dev/client3/rdock/2013.1/src/exe/rbdock.cxx#4 $)

>  <Rbt.Library>
libRbt.so (2013.1, Build901 2013/11/27)

>  <Rbt.Parameter_File>
/export/apps/rDock/src/rDock_2013.1_src/data/scripts/dock_solv.prm

>  <Rbt.Receptor>
prm/pocket_docking_5.prm

>  <SCORE>
-9.36061

>  <SCORE.INTER>
-8.37079

>  <SCORE.INTER.CONST>
1

>  <SCORE.INTER.POLAR>
0

>  <SCORE.INTER.ROT>
3

>  <SCORE.INTER.SOLV>
22.2511

>  <SCORE.INTER.VDW>
-18.5976

>  <SCORE.INTER.norm>
-0.38049

>  <SCORE.INTRA>
-0.989825

>  <SCORE.INTRA.DIHEDRAL>
-1.47263

>  <SCORE.INTRA.DIHEDRAL.0>
6.10773

>  <SCORE.INTRA.POLAR>
0

>  <SCORE.INTRA.POLAR.0>
0

>  <SCORE.INTRA.REPUL>
0

>  <SCORE.INTRA.REPUL.0>
0

>  <SCORE.INTRA.SOLV>
-0.512769

>  <SCORE.INTRA.SOLV.lig_0>
-71.4024

>  <SCORE.INTRA.VDW>
0.00287663

>  <SCORE.INTRA.VDW.0>
-1.86213

>  <SCORE.INTRA.norm>
-0.044992

>  <SCORE.RESTR>
0

>  <SCORE.RESTR.CAVITY>
0

>  <SCORE.RESTR.norm>
0

>  <SCORE.SYSTEM>
0

>  <SCORE.SYSTEM.CONST>
0

>  <SCORE.SYSTEM.DIHEDRAL>
0

>  <SCORE.SYSTEM.SOLV>
0

>  <SCORE.SYSTEM.norm>
0

>  <SCORE.heavy>
22

>  <SCORE.norm>
-0.425482

>  <RMSD>
1.407

$$$$
lig.pdb
 OpenBabel11021811523D
libRbt.so/2013.1/901 2013/11/27
 22 23  0  0  0  0  0  0  0  0999 V2000
   -7.7244   -1.6201   -0.7383 C   0  0  1  0  0  0  0  0  0  0  0  0
   -6.0419   -0.1863    0.4883 C   0  0  1  0  0  0  0  0  0  0  0  0
   -6.9001    1.0603    0.9847 C   0  0  1  0  0  0  0  0  0  0  0  0
   -5.9100    2.2993    1.1576 C   0  0  2  0  0  0  0  0  0  0  0  0
   -8.9297   -2.5228   -0.2664 C   0  0  1  0  0  0  0  0  0  0  0  0
   -8.3526   -3.8554    0.2505 C   0  0  2  0  0  0  0  0  0  0  0  0
   -7.5993   -4.5975   -0.8677 C   0  0  2  0  0  0  0  0  0  0  0  0
   -6.3991   -3.7398   -1.4119 C   0  0  1  0  0  0  0  0  0  0  0  0
   -5.6686   -4.4624   -2.5803 C   0  0  0  0  0  0  0  0  0  0  0  0
   -4.8163    1.9482    2.2902 C   0  0  1  0  0  0  0  0  0  0  0  0
   -3.9717    0.6855    1.7555 C   0  0  0  0  0  0  0  0  0  0  0  0
   -4.9467   -0.5612    1.5368 C   0  0  2  0  0  0  0  0  0  0  0  0
   -8.5130   -4.8971   -1.9761 F   0  0  0  0  0  0  0  0  0  0  0  0
   -9.6736   -1.7714    0.8178 N   0  0  0  0  0  0  0  0  0  0  0  0
   -4.4074   -3.9202   -2.9179 N   0  0  0  0  0  0  0  0  0  0  0  0
   -3.8478    3.0821    2.4777 N   0  0  0  0  0  0  0  0  0  0  0  0
   -4.1662   -1.7150    1.0448 N   0  0  0  0  0  0  0  0  0  0  0  0
   -6.8778   -1.3223    0.3273 O   0  0  0  0  0  0  0  0  0  0  0  0
   -7.9050    1.3673   -0.0604 O   0  0  0  0  0  0  0  0  0  0  0  0
   -6.6864    3.3795    1.5836 O   0  0  0  0  0  0  0  0  0  0  0  0
   -9.2329   -4.5127    0.5918 O   0  0  0  0  0  0  0  0  0  0  0  0
   -6.9835   -2.3799   -1.8355 O   0  0  0  0  0  0  0  0  0  0  0  0
  1  5  1  0  0  0  0
  1 18  1  1  0  0  0
  2 18  1  1  0  0  0
  2  3  1  0  0  0  0
  2 12  1  0  0  0  0
  3 19  1  6  0  0  0
  3  4  1  0  0  0  0
  4 20  1  1  0  0  0
  4 10  1  0  0  0  0
  5  6  1  0  0  0  0
  5 14  1  1  0  0  0
  6 21  1  6  0  0  0
  7 13  1  6  0  0  0
  7  6  1  0  0  0  0
  8  9  1  6  0  0  0
  8  7  1  0  0  0  0
 10 16  1  6  0  0  0
 11 10  1  0  0  0  0
 12 17  1  6  0  0  0
 12 11  1  0  0  0  0
 15  9  1  0  0  0  0
 22  8  1  0  0  0  0
 22  1  1  0  0  0  0
M  END
>  <CHROM.1>
-152.60970990,79.58327891,-165.92005126,-6.67077608,-1.32594367,0.08009755
1.89022475,-0.13449736,-2.65054093

>  <Name>
lig.pdb

>  <RI>
0

>  <Rbt.Current_Directory>
/home/itssahil/PROJECTS/Mol_Feturizer/New_Systems/rnas/5bws

>  <Rbt.Executable>
rbdock ($Id: //depot/dev/client3/rdock/2013.1/src/exe/rbdock.cxx#4 $)

>  <Rbt.Library>
libRbt.so (2013.1, Build901 2013/11/27)

>  <Rbt.Parameter_File>
/export/apps/rDock/src/rDock_2013.1_src/data/scripts/dock_solv.prm

>  <Rbt.Receptor>
prm/pocket_docking_4.prm

>  <SCORE>
-9.47468

>  <SCORE.INTER>
-8.97269

>  <SCORE.INTER.CONST>
1

>  <SCORE.INTER.POLAR>
0

>  <SCORE.INTER.ROT>
3

>  <SCORE.INTER.SOLV>
20.106

>  <SCORE.INTER.VDW>
-18.2838

>  <SCORE.INTER.norm>
-0.40785

>  <SCORE.INTRA>
-0.501981

>  <SCORE.INTRA.DIHEDRAL>
-0.580116

>  <SCORE.INTRA.DIHEDRAL.0>
6.10773

>  <SCORE.INTRA.POLAR>
0

>  <SCORE.INTRA.POLAR.0>
0

>  <SCORE.INTRA.REPUL>
0

>  <SCORE.INTRA.REPUL.0>
0

>  <SCORE.INTRA.SOLV>
-0.60771

>  <SCORE.INTRA.SOLV.lig_0>
-71.4024

>  <SCORE.INTRA.VDW>
0.091932

>  <SCORE.INTRA.VDW.0>
-1.86213

>  <SCORE.INTRA.norm>
-0.0228173

>  <SCORE.RESTR>
0

>  <SCORE.RESTR.CAVITY>
0

>  <SCORE.RESTR.norm>
0

>  <SCORE.SYSTEM>
0

>  <SCORE.SYSTEM.CONST>
0

>  <SCORE.SYSTEM.DIHEDRAL>
0

>  <SCORE.SYSTEM.SOLV>
0

>  <SCORE.SYSTEM.norm>
0

>  <SCORE.heavy>
22

>  <SCORE.norm>
-0.430667

>  <RMSD>
1.516

$$$$
lig.pdb
 OpenBabel11021811523D
libRbt.so/2013.1/901 2013/11/27
 22 23  0  0  0  0  0  0  0  0999 V2000
   -7.9254   -0.9928   -0.2892 C   0  0  1  0  0  0  0  0  0  0  0  0
   -6.1753    0.4134    0.8731 C   0  0  1  0  0  0  0  0  0  0  0  0
   -7.0135    1.7080    1.2712 C   0  0  1  0  0  0  0  0  0  0  0  0
   -5.9947    2.9278    1.4103 C   0  0  2  0  0  0  0  0  0  0  0  0
   -8.9252   -2.1410    0.1257 C   0  0  1  0  0  0  0  0  0  0  0  0
   -8.1015   -3.4165    0.3920 C   0  0  2  0  0  0  0  0  0  0  0  0
   -7.3522   -3.8605   -0.8768 C   0  0  2  0  0  0  0  0  0  0  0  0
   -6.3573   -2.7471   -1.3694 C   0  0  1  0  0  0  0  0  0  0  0  0
   -5.6382   -3.1691   -2.6831 C   0  0  0  0  0  0  0  0  0  0  0  0
   -4.9491    2.6110    2.5971 C   0  0  1  0  0  0  0  0  0  0  0  0
   -4.1238    1.2986    2.1612 C   0  0  0  0  0  0  0  0  0  0  0  0
   -5.1262    0.0680    1.9774 C   0  0  2  0  0  0  0  0  0  0  0  0
   -8.3098   -4.1533   -1.9494 F   0  0  0  0  0  0  0  0  0  0  0  0
   -9.6700   -1.6816    1.3617 N   0  0  0  0  0  0  0  0  0  0  0  0
   -4.7931   -4.2958   -2.5619 N   0  0  0  0  0  0  0  0  0  0  0  0
   -3.9554    3.7273    2.7556 N   0  0  0  0  0  0  0  0  0  0  0  0
   -4.3632   -1.1315    1.5760 N   0  0  0  0  0  0  0  0  0  0  0  0
   -7.0375   -0.7071    0.7457 O   0  0  0  0  0  0  0  0  0  0  0  0
   -7.9745    1.9833    0.1772 O   0  0  0  0  0  0  0  0  0  0  0  0
   -6.7535    4.0503    1.7499 O   0  0  0  0  0  0  0  0  0  0  0  0
   -8.8324   -4.2526    0.6921 O   0  0  0  0  0  0  0  0  0  0  0  0
   -7.1835   -1.4592   -1.5392 O   0  0  0  0  0  0  0  0  0  0  0  0
  1  5  1  0  0  0  0
  1 18  1  1  0  0  0
  2 18  1  1  0  0  0
  2  3  1  0  0  0  0
  2 12  1  0  0  0  0
  3 19  1  6  0  0  0
  3  4  1  0  0  0  0
  4 20  1  1  0  0  0
  4 10  1  0  0  0  0
  5  6  1  0  0  0  0
  5 14  1  1  0  0  0
  6 21  1  6  0  0  0
  7 13  1  6  0  0  0
  7  6  1  0  0  0  0
  8  9  1  6  0  0  0
  8  7  1  0  0  0  0
 10 16  1  6  0  0  0
 11 10  1  0  0  0  0
 12 17  1  6  0  0  0
 12 11  1  0  0  0  0
 15  9  1  0  0  0  0
 22  8  1  0  0  0  0
 22  1  1  0  0  0  0
M  END
>  <CHROM.1>
-166.42873995,74.71957363,-64.30990696,-6.71197465,-0.73215026,0.34563542
1.84657279,-0.13038713,-2.64242909

>  <Name>
lig.pdb

>  <RI>
0

>  <Rbt.Current_Directory>
/home/itssahil/PROJECTS/Mol_Feturizer/New_Systems/rnas/5bws

>  <Rbt.Executable>
rbdock ($Id: //depot/dev/client3/rdock/2013.1/src/exe/rbdock.cxx#4 $)

>  <Rbt.Library>
libRbt.so (2013.1, Build901 2013/11/27)

>  <Rbt.Parameter_File>
/export/apps/rDock/src/rDock_2013.1_src/data/scripts/dock_solv.prm

>  <Rbt.Receptor>
prm/pocket_docking_4.prm

>  <SCORE>
-12.7653

>  <SCORE.INTER>
-10.5582

>  <SCORE.INTER.CONST>
1

>  <SCORE.INTER.POLAR>
0

>  <SCORE.INTER.ROT>
3

>  <SCORE.INTER.SOLV>
17.6748

>  <SCORE.INTER.VDW>
-18.5304

>  <SCORE.INTER.norm>
-0.479916

>  <SCORE.INTRA>
-2.20719

>  <SCORE.INTRA.DIHEDRAL>
-4.14983

>  <SCORE.INTRA.DIHEDRAL.0>
6.10773

>  <SCORE.INTRA.POLAR>
0

>  <SCORE.INTRA.POLAR.0>
0

>  <SCORE.INTRA.REPUL>
0

>  <SCORE.INTRA.REPUL.0>
0

>  <SCORE.INTRA.SOLV>
-0.678236

>  <SCORE.INTRA.SOLV.lig_0>
-71.4024

>  <SCORE.INTRA.VDW>
0.206845

>  <SCORE.INTRA.VDW.0>
-1.86213

>  <SCORE.INTRA.norm>
-0.100327

>  <SCORE.RESTR>
0

>  <SCORE.RESTR.CAVITY>
0

>  <SCORE.RESTR.norm>
0

>  <SCORE.SYSTEM>
0

>  <SCORE.SYSTEM.CONST>
0

>  <SCORE.SYSTEM.DIHEDRAL>
0

>  <SCORE.SYSTEM.SOLV>
0

>  <SCORE.SYSTEM.norm>
0

>  <SCORE.heavy>
22

>  <SCORE.norm>
-0.580243

>  <RMSD>
1.590

$$$$
lig.pdb
 OpenBabel11021811523D
libRbt.so/2013.1/901 2013/11/27
 22 23  0  0  0  0  0  0  0  0999 V2000
   -7.9183   -1.0655   -0.3518 C   0  0  1  0  0  0  0  0  0  0  0  0
   -6.2014    0.3774    0.8151 C   0  0  1  0  0  0  0  0  0  0  0  0
   -7.0769    1.6320    1.2586 C   0  0  1  0  0  0  0  0  0  0  0  0
   -6.0991    2.8837    1.4084 C   0  0  2  0  0  0  0  0  0  0  0  0
   -8.9234   -2.2018    0.0823 C   0  0  1  0  0  0  0  0  0  0  0  0
   -8.1061   -3.4778    0.3652 C   0  0  2  0  0  0  0  0  0  0  0  0
   -7.3627   -3.9446   -0.8989 C   0  0  2  0  0  0  0  0  0  0  0  0
   -6.3629   -2.8441   -1.4103 C   0  0  1  0  0  0  0  0  0  0  0  0
   -5.6497   -3.2892   -2.7195 C   0  0  0  0  0  0  0  0  0  0  0  0
   -5.0212    2.5768    2.5687 C   0  0  1  0  0  0  0  0  0  0  0  0
   -4.1586    1.3049    2.0872 C   0  0  0  0  0  0  0  0  0  0  0  0
   -5.1205    0.0442    1.8921 C   0  0  2  0  0  0  0  0  0  0  0  0
   -8.3247   -4.2476   -1.9647 F   0  0  0  0  0  0  0  0  0  0  0  0
   -9.6623   -1.7202    1.3134 N   0  0  0  0  0  0  0  0  0  0  0  0
   -4.8264   -4.4310   -2.5886 N   0  0  0  0  0  0  0  0  0  0  0  0
   -4.0644    3.7237    2.7359 N   0  0  0  0  0  0  0  0  0  0  0  0
   -4.3236   -1.1181    1.4490 N   0  0  0  0  0  0  0  0  0  0  0  0
   -7.0261   -0.7697    0.6766 O   0  0  0  0  0  0  0  0  0  0  0  0
   -8.0671    1.8982    0.1886 O   0  0  0  0  0  0  0  0  0  0  0  0
   -6.8903    3.9704    1.7880 O   0  0  0  0  0  0  0  0  0  0  0  0
   -8.8409   -4.3054    0.6792 O   0  0  0  0  0  0  0  0  0  0  0  0
   -7.1823   -1.5541   -1.5967 O   0  0  0  0  0  0  0  0  0  0  0  0
  1  5  1  0  0  0  0
  1 18  1  1  0  0  0
  2 18  1  1  0  0  0
  2  3  1  0  0  0  0
  2 12  1  0  0  0  0
  3 19  1  6  0  0  0
  3  4  1  0  0  0  0
  4 20  1  1  0  0  0
  4 10  1  0  0  0  0
  5  6  1  0  0  0  0
  5 14  1  1  0  0  0
  6 21  1  6  0  0  0
  7 13  1  6  0  0  0
  7  6  1  0  0  0  0
  8  9  1  6  0  0  0
  8  7  1  0  0  0  0
 10 16  1  6  0  0  0
 11 10  1  0  0  0  0
 12 17  1  6  0  0  0
 12 11  1  0  0  0  0
 15  9  1  0  0  0  0
 22  8  1  0  0  0  0
 22  1  1  0  0  0  0
M  END
>  <CHROM.1>
-163.30327880,75.01922749,-63.39285575,-6.74201687,-0.79397440,0.30939388
1.83081109,-0.13108125,-2.64402800

>  <Name>
lig.pdb

>  <RI>
0

>  <Rbt.Current_Directory>
/home/itssahil/PROJECTS/Mol_Feturizer/New_Systems/rnas/5bws

>  <Rbt.Executable>
rbdock ($Id: //depot/dev/client3/rdock/2013.1/src/exe/rbdock.cxx#4 $)

>  <Rbt.Library>
libRbt.so (2013.1, Build901 2013/11/27)

>  <Rbt.Parameter_File>
/export/apps/rDock/src/rDock_2013.1_src/data/scripts/dock_solv.prm

>  <Rbt.Receptor>
prm/pocket_docking_3.prm

>  <SCORE>
-12.645

>  <SCORE.INTER>
-10.7118

>  <SCORE.INTER.CONST>
1

>  <SCORE.INTER.POLAR>
0

>  <SCORE.INTER.ROT>
3

>  <SCORE.INTER.SOLV>
17.309

>  <SCORE.INTER.VDW>
-18.5109

>  <SCORE.INTER.norm>
-0.486902

>  <SCORE.INTRA>
-1.93319

>  <SCORE.INTRA.DIHEDRAL>
-3.71669

>  <SCORE.INTRA.DIHEDRAL.0>
6.10773

>  <SCORE.INTRA.POLAR>
0

>  <SCORE.INTRA.POLAR.0>
0

>  <SCORE.INTRA.REPUL>
0

>  <SCORE.INTRA.REPUL.0>
0

>  <SCORE.INTRA.SOLV>
-0.56207

>  <SCORE.INTRA.SOLV.lig_0>
-71.4024

>  <SCORE.INTRA.VDW>
0.206185

>  <SCORE.INTRA.VDW.0>
-1.86213

>  <SCORE.INTRA.norm>
-0.0878724

>  <SCORE.RESTR>
0

>  <SCORE.RESTR.CAVITY>
0

>  <SCORE.RESTR.norm>
0

>  <SCORE.SYSTEM>
0

>  <SCORE.SYSTEM.CONST>
0

>  <SCORE.SYSTEM.DIHEDRAL>
0

>  <SCORE.SYSTEM.SOLV>
0

>  <SCORE.SYSTEM.norm>
0

>  <SCORE.heavy>
22

>  <SCORE.norm>
-0.574774

>  <RMSD>
1.626

$$$$
lig.pdb
 OpenBabel11021811523D
libRbt.so/2013.1/901 2013/11/27
 22 23  0  0  0  0  0  0  0  0999 V2000
   -7.9675   -1.0370   -0.2839 C   0  0  1  0  0  0  0  0  0  0  0  0
   -6.2417    0.3885    0.8911 C   0  0  1  0  0  0  0  0  0  0  0  0
   -7.0845    1.6639    1.3387 C   0  0  1  0  0  0  0  0  0  0  0  0
   -6.0765    2.8924    1.4801 C   0  0  2  0  0  0  0  0  0  0  0  0
   -8.9486   -2.2060    0.1174 C   0  0  1  0  0  0  0  0  0  0  0  0
   -8.1028   -3.4667    0.3851 C   0  0  2  0  0  0  0  0  0  0  0  0
   -7.3346   -3.8905   -0.8793 C   0  0  2  0  0  0  0  0  0  0  0  0
   -6.3571   -2.7560   -1.3586 C   0  0  1  0  0  0  0  0  0  0  0  0
   -5.6191   -3.1582   -2.6679 C   0  0  0  0  0  0  0  0  0  0  0  0
   -4.9983    2.5618    2.6335 C   0  0  1  0  0  0  0  0  0  0  0  0
   -4.1691    1.2693    2.1480 C   0  0  0  0  0  0  0  0  0  0  0  0
   -5.1617    0.0313    1.9613 C   0  0  2  0  0  0  0  0  0  0  0  0
   -8.2774   -4.1967   -1.9612 F   0  0  0  0  0  0  0  0  0  0  0  0
   -9.7124   -1.7666    1.3491 N   0  0  0  0  0  0  0  0  0  0  0  0
   -4.7645   -4.2779   -2.5480 N   0  0  0  0  0  0  0  0  0  0  0  0
   -4.0138    3.6861    2.7926 N   0  0  0  0  0  0  0  0  0  0  0  0
   -4.3953   -1.1499    1.5144 N   0  0  0  0  0  0  0  0  0  0  0  0
   -7.0940   -0.7391    0.7597 O   0  0  0  0  0  0  0  0  0  0  0  0
   -8.0754    1.9519    0.2750 O   0  0  0  0  0  0  0  0  0  0  0  0
   -6.8394    3.9979    1.8634 O   0  0  0  0  0  0  0  0  0  0  0  0
   -8.8201   -4.3180    0.6753 O   0  0  0  0  0  0  0  0  0  0  0  0
   -7.2064   -1.4834   -1.5296 O   0  0  0  0  0  0  0  0  0  0  0  0
  1  5  1  0  0  0  0
  1 18  1  1  0  0  0
  2 18  1  1  0  0  0
  2  3  1  0  0  0  0
  2 12  1  0  0  0  0
  3 19  1  6  0  0  0
  3  4  1  0  0  0  0
  4 20  1  1  0  0  0
  4 10  1  0  0  0  0
  5  6  1  0  0  0  0
  5 14  1  1  0  0  0
  6 21  1  6  0  0  0
  7 13  1  6  0  0  0
  7  6  1  0  0  0  0
  8  9  1  6  0  0  0
  8  7  1  0  0  0  0
 10 16  1  6  0  0  0
 11 10  1  0  0  0  0
 12 17  1  6  0  0  0
 12 11  1  0  0  0  0
 15  9  1  0  0  0  0
 22  8  1  0  0  0  0
 22  1  1  0  0  0  0
M  END
>  <CHROM.1>
-167.32289524,77.35005917,-63.66426540,-6.74348808,-0.76790801,0.36235767
1.83493242,-0.13773129,-2.63601260

>  <Name>
lig.pdb

>  <RI>
0

>  <Rbt.Current_Directory>
/home/itssahil/PROJECTS/Mol_Feturizer/New_Systems/rnas/5bws

>  <Rbt.Executable>
rbdock ($Id: //depot/dev/client3/rdock/2013.1/src/exe/rbdock.cxx#4 $)

>  <Rbt.Library>
libRbt.so (2013.1, Build901 2013/11/27)

>  <Rbt.Parameter_File>
/export/apps/rDock/src/rDock_2013.1_src/data/scripts/dock_solv.prm

>  <Rbt.Receptor>
prm/pocket_docking_3.prm

>  <SCORE>
-12.6905

>  <SCORE.INTER>
-10.6172

>  <SCORE.INTER.CONST>
1

>  <SCORE.INTER.POLAR>
0

>  <SCORE.INTER.ROT>
3

>  <SCORE.INTER.SOLV>
17.783

>  <SCORE.INTER.VDW>
-18.6058

>  <SCORE.INTER.norm>
-0.4826

>  <SCORE.INTRA>
-2.07333

>  <SCORE.INTRA.DIHEDRAL>
-3.90669

>  <SCORE.INTRA.DIHEDRAL.0>
6.10773

>  <SCORE.INTRA.POLAR>
0

>  <SCORE.INTRA.POLAR.0>
0

>  <SCORE.INTRA.REPUL>
0

>  <SCORE.INTRA.REPUL.0>
0

>  <SCORE.INTRA.SOLV>
-0.570851

>  <SCORE.INTRA.SOLV.lig_0>
-71.4024

>  <SCORE.INTRA.VDW>
0.165443

>  <SCORE.INTRA.VDW.0>
-1.86213

>  <SCORE.INTRA.norm>
-0.0942421

>  <SCORE.RESTR>
0

>  <SCORE.RESTR.CAVITY>
0

>  <SCORE.RESTR.norm>
0

>  <SCORE.SYSTEM>
0

>  <SCORE.SYSTEM.CONST>
0

>  <SCORE.SYSTEM.DIHEDRAL>
0

>  <SCORE.SYSTEM.SOLV>
0

>  <SCORE.SYSTEM.norm>
0

>  <SCORE.heavy>
22

>  <SCORE.norm>
-0.576842

>  <RMSD>
1.630

$$$$
lig.pdb
 OpenBabel11021811523D
libRbt.so/2013.1/901 2013/11/27
 22 23  0  0  0  0  0  0  0  0999 V2000
   -7.9382   -1.0521   -0.3422 C   0  0  1  0  0  0  0  0  0  0  0  0
   -6.2192    0.3763    0.8392 C   0  0  1  0  0  0  0  0  0  0  0  0
   -7.0760    1.6596    1.2344 C   0  0  1  0  0  0  0  0  0  0  0  0
   -6.0733    2.8915    1.3834 C   0  0  2  0  0  0  0  0  0  0  0  0
   -8.9279   -2.2130    0.0614 C   0  0  1  0  0  0  0  0  0  0  0  0
   -8.0909   -3.4775    0.3384 C   0  0  2  0  0  0  0  0  0  0  0  0
   -7.3208   -3.9124   -0.9210 C   0  0  2  0  0  0  0  0  0  0  0  0
   -6.3346   -2.7863   -1.4025 C   0  0  1  0  0  0  0  0  0  0  0  0
   -5.5945   -3.1996   -2.7072 C   0  0  0  0  0  0  0  0  0  0  0  0
   -5.0322    2.5847    2.5768 C   0  0  1  0  0  0  0  0  0  0  0  0
   -4.1877    1.2836    2.1437 C   0  0  0  0  0  0  0  0  0  0  0  0
   -5.1736    0.0412    1.9500 C   0  0  2  0  0  0  0  0  0  0  0  0
   -8.2615   -4.2182   -2.0049 F   0  0  0  0  0  0  0  0  0  0  0  0
   -9.6933   -1.7627    1.2881 N   0  0  0  0  0  0  0  0  0  0  0  0
   -4.7345   -4.3138   -2.5746 N   0  0  0  0  0  0  0  0  0  0  0  0
   -4.0535    3.7127    2.7449 N   0  0  0  0  0  0  0  0  0  0  0  0
   -4.3931   -1.1479    1.5512 N   0  0  0  0  0  0  0  0  0  0  0  0
   -7.0666   -0.7544    0.7031 O   0  0  0  0  0  0  0  0  0  0  0  0
   -8.0326    1.9257    0.1342 O   0  0  0  0  0  0  0  0  0  0  0  0
   -6.8482    4.0037    1.7203 O   0  0  0  0  0  0  0  0  0  0  0  0
   -8.8145   -4.3229    0.6302 O   0  0  0  0  0  0  0  0  0  0  0  0
   -7.1754   -1.5094   -1.5829 O   0  0  0  0  0  0  0  0  0  0  0  0
  1  5  1  0  0  0  0
  1 18  1  1  0  0  0
  2 18  1  1  0  0  0
  2  3  1  0  0  0  0
  2 12  1  0  0  0  0
  3 19  1  6  0  0  0
  3  4  1  0  0  0  0
  4 20  1  1  0  0  0
  4 10  1  0  0  0  0
  5  6  1  0  0  0  0
  5 14  1  1  0  0  0
  6 21  1  6  0  0  0
  7 13  1  6  0  0  0
  7  6  1  0  0  0  0
  8  9  1  6  0  0  0
  8  7  1  0  0  0  0
 10 16  1  6  0  0  0
 11 10  1  0  0  0  0
 12 17  1  6  0  0  0
 12 11  1  0  0  0  0
 15  9  1  0  0  0  0
 22  8  1  0  0  0  0
 22  1  1  0  0  0  0
M  END
>  <CHROM.1>
-166.53012500,75.10482675,-64.41013482,-6.73313880,-0.77688159,0.30734995
1.83044338,-0.12689120,-2.64443491

>  <Name>
lig.pdb

>  <RI>
0

>  <Rbt.Current_Directory>
/home/itssahil/PROJECTS/Mol_Feturizer/New_Systems/rnas/5bws

>  <Rbt.Executable>
rbdock ($Id: //depot/dev/client3/rdock/2013.1/src/exe/rbdock.cxx#4 $)

>  <Rbt.Library>
libRbt.so (2013.1, Build901 2013/11/27)

>  <Rbt.Parameter_File>
/export/apps/rDock/src/rDock_2013.1_src/data/scripts/dock_solv.prm

>  <Rbt.Receptor>
prm/pocket_docking_3.prm

>  <SCORE>
-12.7531

>  <SCORE.INTER>
-10.5662

>  <SCORE.INTER.CONST>
1

>  <SCORE.INTER.POLAR>
0

>  <SCORE.INTER.ROT>
3

>  <SCORE.INTER.SOLV>
17.6723

>  <SCORE.INTER.VDW>
-18.5349

>  <SCORE.INTER.norm>
-0.480283

>  <SCORE.INTRA>
-2.18682

>  <SCORE.INTRA.DIHEDRAL>
-4.10803

>  <SCORE.INTRA.DIHEDRAL.0>
6.10773

>  <SCORE.INTRA.POLAR>
0

>  <SCORE.INTRA.POLAR.0>
0

>  <SCORE.INTRA.REPUL>
0

>  <SCORE.INTRA.REPUL.0>
0

>  <SCORE.INTRA.SOLV>
-0.666006

>  <SCORE.INTRA.SOLV.lig_0>
-71.4024

>  <SCORE.INTRA.VDW>
0.200198

>  <SCORE.INTRA.VDW.0>
-1.86213

>  <SCORE.INTRA.norm>
-0.0994009

>  <SCORE.RESTR>
0

>  <SCORE.RESTR.CAVITY>
0

>  <SCORE.RESTR.norm>
0

>  <SCORE.SYSTEM>
0

>  <SCORE.SYSTEM.CONST>
0

>  <SCORE.SYSTEM.DIHEDRAL>
0

>  <SCORE.SYSTEM.SOLV>
0

>  <SCORE.SYSTEM.norm>
0

>  <SCORE.heavy>
22

>  <SCORE.norm>
-0.579684

>  <RMSD>
1.630

$$$$
lig.pdb
 OpenBabel11021811523D
libRbt.so/2013.1/901 2013/11/27
 22 23  0  0  0  0  0  0  0  0999 V2000
   -7.9570   -1.0563   -0.3402 C   0  0  1  0  0  0  0  0  0  0  0  0
   -6.2363    0.3708    0.8403 C   0  0  1  0  0  0  0  0  0  0  0  0
   -7.0858    1.6588    1.2357 C   0  0  1  0  0  0  0  0  0  0  0  0
   -6.0768    2.8860    1.3807 C   0  0  2  0  0  0  0  0  0  0  0  0
   -8.9435   -2.2212    0.0598 C   0  0  1  0  0  0  0  0  0  0  0  0
   -8.1025   -3.4826    0.3385 C   0  0  2  0  0  0  0  0  0  0  0  0
   -7.3271   -3.9138   -0.9190 C   0  0  2  0  0  0  0  0  0  0  0  0
   -6.3438   -2.7837   -1.3969 C   0  0  1  0  0  0  0  0  0  0  0  0
   -5.5983   -3.1933   -2.6997 C   0  0  0  0  0  0  0  0  0  0  0  0
   -5.0345    2.5758    2.5721 C   0  0  1  0  0  0  0  0  0  0  0  0
   -4.1974    1.2699    2.1388 C   0  0  0  0  0  0  0  0  0  0  0  0
   -5.1898    0.0322    1.9492 C   0  0  2  0  0  0  0  0  0  0  0  0
   -8.2635   -4.2225   -2.0057 F   0  0  0  0  0  0  0  0  0  0  0  0
   -9.7141   -1.7746    1.2846 N   0  0  0  0  0  0  0  0  0  0  0  0
   -4.7585   -4.3235   -2.5731 N   0  0  0  0  0  0  0  0  0  0  0  0
   -4.0498    3.6992    2.7364 N   0  0  0  0  0  0  0  0  0  0  0  0
   -4.4161   -1.1613    1.5502 N   0  0  0  0  0  0  0  0  0  0  0  0
   -7.0895   -0.7559    0.7078 O   0  0  0  0  0  0  0  0  0  0  0  0
   -8.0437    1.9281    0.1374 O   0  0  0  0  0  0  0  0  0  0  0  0
   -6.8455    4.0025    1.7178 O   0  0  0  0  0  0  0  0  0  0  0  0
   -8.8236   -4.3310    0.6277 O   0  0  0  0  0  0  0  0  0  0  0  0
   -7.1889   -1.5098   -1.5790 O   0  0  0  0  0  0  0  0  0  0  0  0
  1  5  1  0  0  0  0
  1 18  1  1  0  0  0
  2 18  1  1  0  0  0
  2  3  1  0  0  0  0
  2 12  1  0  0  0  0
  3 19  1  6  0  0  0
  3  4  1  0  0  0  0
  4 20  1  1  0  0  0
  4 10  1  0  0  0  0
  5  6  1  0  0  0  0
  5 14  1  1  0  0  0
  6 21  1  6  0  0  0
  7 13  1  6  0  0  0
  7  6  1  0  0  0  0
  8  9  1  6  0  0  0
  8  7  1  0  0  0  0
 10 16  1  6  0  0  0
 11 10  1  0  0  0  0
 12 17  1  6  0  0  0
 12 11  1  0  0  0  0
 15  9  1  0  0  0  0
 22  8  1  0  0  0  0
 22  1  1  0  0  0  0
M  END
>  <CHROM.1>
-167.26524491,75.67750643,-62.99712147,-6.74406674,-0.78199623,0.30734334
1.83157463,-0.12700780,-2.64523699

>  <Name>
lig.pdb

>  <RI>
0

>  <Rbt.Current_Directory>
/home/itssahil/PROJECTS/Mol_Feturizer/New_Systems/rnas/5bws

>  <Rbt.Executable>
rbdock ($Id: //depot/dev/client3/rdock/2013.1/src/exe/rbdock.cxx#4 $)

>  <Rbt.Library>
libRbt.so (2013.1, Build901 2013/11/27)

>  <Rbt.Parameter_File>
/export/apps/rDock/src/rDock_2013.1_src/data/scripts/dock_solv.prm

>  <Rbt.Receptor>
prm/pocket_docking_3.prm

>  <SCORE>
-12.7815

>  <SCORE.INTER>
-10.5827

>  <SCORE.INTER.CONST>
1

>  <SCORE.INTER.POLAR>
0

>  <SCORE.INTER.ROT>
3

>  <SCORE.INTER.SOLV>
17.6882

>  <SCORE.INTER.VDW>
-18.5512

>  <SCORE.INTER.norm>
-0.481032

>  <SCORE.INTRA>
-2.19883

>  <SCORE.INTRA.DIHEDRAL>
-4.15571

>  <SCORE.INTRA.DIHEDRAL.0>
6.10773

>  <SCORE.INTRA.POLAR>
0

>  <SCORE.INTRA.POLAR.0>
0

>  <SCORE.INTRA.REPUL>
0

>  <SCORE.INTRA.REPUL.0>
0

>  <SCORE.INTRA.SOLV>
-0.628877

>  <SCORE.INTRA.SOLV.lig_0>
-71.4024

>  <SCORE.INTRA.VDW>
0.193466

>  <SCORE.INTRA.VDW.0>
-1.86213

>  <SCORE.INTRA.norm>
-0.0999467

>  <SCORE.RESTR>
0

>  <SCORE.RESTR.CAVITY>
0

>  <SCORE.RESTR.norm>
0

>  <SCORE.SYSTEM>
0

>  <SCORE.SYSTEM.CONST>
0

>  <SCORE.SYSTEM.DIHEDRAL>
0

>  <SCORE.SYSTEM.SOLV>
0

>  <SCORE.SYSTEM.norm>
0

>  <SCORE.heavy>
22

>  <SCORE.norm>
-0.580978

>  <RMSD>
1.637

$$$$
lig.pdb
 OpenBabel11021811523D
libRbt.so/2013.1/901 2013/11/27
 22 23  0  0  0  0  0  0  0  0999 V2000
   -7.9728   -1.0595   -0.3166 C   0  0  1  0  0  0  0  0  0  0  0  0
   -6.2480    0.3734    0.8509 C   0  0  1  0  0  0  0  0  0  0  0  0
   -7.1038    1.6521    1.2628 C   0  0  1  0  0  0  0  0  0  0  0  0
   -6.1034    2.8869    1.4035 C   0  0  2  0  0  0  0  0  0  0  0  0
   -8.9624   -2.2164    0.0984 C   0  0  1  0  0  0  0  0  0  0  0  0
   -8.1264   -3.4818    0.3747 C   0  0  2  0  0  0  0  0  0  0  0  0
   -7.3659   -3.9234   -0.8883 C   0  0  2  0  0  0  0  0  0  0  0  0
   -6.3805   -2.8016   -1.3809 C   0  0  1  0  0  0  0  0  0  0  0  0
   -5.6503   -3.2217   -2.6890 C   0  0  0  0  0  0  0  0  0  0  0  0
   -5.0454    2.5787    2.5817 C   0  0  1  0  0  0  0  0  0  0  0  0
   -4.2024    1.2823    2.1319 C   0  0  0  0  0  0  0  0  0  0  0  0
   -5.1866    0.0374    1.9462 C   0  0  2  0  0  0  0  0  0  0  0  0
   -8.3148   -4.2313   -1.9644 F   0  0  0  0  0  0  0  0  0  0  0  0
   -9.7183   -1.7595    1.3286 N   0  0  0  0  0  0  0  0  0  0  0  0
   -4.8120   -4.3531   -2.5640 N   0  0  0  0  0  0  0  0  0  0  0  0
   -4.0683    3.7095    2.7413 N   0  0  0  0  0  0  0  0  0  0  0  0
   -4.4075   -1.1474    1.5322 N   0  0  0  0  0  0  0  0  0  0  0  0
   -7.0933   -0.7596    0.7215 O   0  0  0  0  0  0  0  0  0  0  0  0
   -8.0760    1.9194    0.1767 O   0  0  0  0  0  0  0  0  0  0  0  0
   -6.8775    3.9950    1.7553 O   0  0  0  0  0  0  0  0  0  0  0  0
   -8.8499   -4.3244    0.6748 O   0  0  0  0  0  0  0  0  0  0  0  0
   -7.2196   -1.5234   -1.5607 O   0  0  0  0  0  0  0  0  0  0  0  0
  1  5  1  0  0  0  0
  1 18  1  1  0  0  0
  2 18  1  1  0  0  0
  2  3  1  0  0  0  0
  2 12  1  0  0  0  0
  3 19  1  6  0  0  0
  3  4  1  0  0  0  0
  4 20  1  1  0  0  0
  4 10  1  0  0  0  0
  5  6  1  0  0  0  0
  5 14  1  1  0  0  0
  6 21  1  6  0  0  0
  7 13  1  6  0  0  0
  7  6  1  0  0  0  0
  8  9  1  6  0  0  0
  8  7  1  0  0  0  0
 10 16  1  6  0  0  0
 11 10  1  0  0  0  0
 12 17  1  6  0  0  0
 12 11  1  0  0  0  0
 15  9  1  0  0  0  0
 22  8  1  0  0  0  0
 22  1  1  0  0  0  0
M  END
>  <CHROM.1>
-166.13676534,75.46588605,-63.24304502,-6.76737027,-0.78502824,0.32857938
1.83328389,-0.13237816,-2.64529061

>  <Name>
lig.pdb

>  <RI>
0

>  <Rbt.Current_Directory>
/home/itssahil/PROJECTS/Mol_Feturizer/New_Systems/rnas/5bws

>  <Rbt.Executable>
rbdock ($Id: //depot/dev/client3/rdock/2013.1/src/exe/rbdock.cxx#4 $)

>  <Rbt.Library>
libRbt.so (2013.1, Build901 2013/11/27)

>  <Rbt.Parameter_File>
/export/apps/rDock/src/rDock_2013.1_src/data/scripts/dock_solv.prm

>  <Rbt.Receptor>
prm/pocket_docking_3.prm

>  <SCORE>
-12.682

>  <SCORE.INTER>
-10.5509

>  <SCORE.INTER.CONST>
1

>  <SCORE.INTER.POLAR>
0

>  <SCORE.INTER.ROT>
3

>  <SCORE.INTER.SOLV>
17.6628

>  <SCORE.INTER.VDW>
-18.5215

>  <SCORE.INTER.norm>
-0.479587

>  <SCORE.INTRA>
-2.13107

>  <SCORE.INTRA.DIHEDRAL>
-4.04279

>  <SCORE.INTRA.DIHEDRAL.0>
6.10773

>  <SCORE.INTRA.POLAR>
0

>  <SCORE.INTRA.POLAR.0>
0

>  <SCORE.INTRA.REPUL>
0

>  <SCORE.INTRA.REPUL.0>
0

>  <SCORE.INTRA.SOLV>
-0.614148

>  <SCORE.INTRA.SOLV.lig_0>
-71.4024

>  <SCORE.INTRA.VDW>
0.197396

>  <SCORE.INTRA.VDW.0>
-1.86213

>  <SCORE.INTRA.norm>
-0.0968669

>  <SCORE.RESTR>
0

>  <SCORE.RESTR.CAVITY>
0

>  <SCORE.RESTR.norm>
0

>  <SCORE.SYSTEM>
0

>  <SCORE.SYSTEM.CONST>
0

>  <SCORE.SYSTEM.DIHEDRAL>
0

>  <SCORE.SYSTEM.SOLV>
0

>  <SCORE.SYSTEM.norm>
0

>  <SCORE.heavy>
22

>  <SCORE.norm>
-0.576454

>  <RMSD>
1.649

$$$$
lig.pdb
 OpenBabel11021811523D
libRbt.so/2013.1/901 2013/11/27
 22 23  0  0  0  0  0  0  0  0999 V2000
   -7.9771   -1.0622   -0.3167 C   0  0  1  0  0  0  0  0  0  0  0  0
   -6.2519    0.3719    0.8489 C   0  0  1  0  0  0  0  0  0  0  0  0
   -7.1074    1.6532    1.2529 C   0  0  1  0  0  0  0  0  0  0  0  0
   -6.1060    2.8874    1.3918 C   0  0  2  0  0  0  0  0  0  0  0  0
   -8.9645   -2.2210    0.0983 C   0  0  1  0  0  0  0  0  0  0  0  0
   -8.1262   -3.4848    0.3746 C   0  0  2  0  0  0  0  0  0  0  0  0
   -7.3649   -3.9250   -0.8883 C   0  0  2  0  0  0  0  0  0  0  0  0
   -6.3815   -2.8014   -1.3809 C   0  0  1  0  0  0  0  0  0  0  0  0
   -5.6504   -3.2202   -2.6889 C   0  0  0  0  0  0  0  0  0  0  0  0
   -5.0521    2.5828    2.5745 C   0  0  1  0  0  0  0  0  0  0  0  0
   -4.2093    1.2835    2.1326 C   0  0  0  0  0  0  0  0  0  0  0  0
   -5.1943    0.0391    1.9489 C   0  0  2  0  0  0  0  0  0  0  0  0
   -8.3131   -4.2347   -1.9645 F   0  0  0  0  0  0  0  0  0  0  0  0
   -9.7214   -1.7654    1.3283 N   0  0  0  0  0  0  0  0  0  0  0  0
   -4.7799   -4.3260   -2.5547 N   0  0  0  0  0  0  0  0  0  0  0  0
   -4.0741    3.7129    2.7326 N   0  0  0  0  0  0  0  0  0  0  0  0
   -4.4154   -1.1484    1.5422 N   0  0  0  0  0  0  0  0  0  0  0  0
   -7.0982   -0.7607    0.7215 O   0  0  0  0  0  0  0  0  0  0  0  0
   -8.0759    1.9173    0.1626 O   0  0  0  0  0  0  0  0  0  0  0  0
   -6.8799    3.9979    1.7366 O   0  0  0  0  0  0  0  0  0  0  0  0
   -8.8482   -4.3287    0.6747 O   0  0  0  0  0  0  0  0  0  0  0  0
   -7.2229   -1.5247   -1.5607 O   0  0  0  0  0  0  0  0  0  0  0  0
  1  5  1  0  0  0  0
  1 18  1  1  0  0  0
  2 18  1  1  0  0  0
  2  3  1  0  0  0  0
  2 12  1  0  0  0  0
  3 19  1  6  0  0  0
  3  4  1  0  0  0  0
  4 20  1  1  0  0  0
  4 10  1  0  0  0  0
  5  6  1  0  0  0  0
  5 14  1  1  0  0  0
  6 21  1  6  0  0  0
  7 13  1  6  0  0  0
  7  6  1  0  0  0  0
  8  9  1  6  0  0  0
  8  7  1  0  0  0  0
 10 16  1  6  0  0  0
 11 10  1  0  0  0  0
 12 17  1  6  0  0  0
 12 11  1  0  0  0  0
 15  9  1  0  0  0  0
 22  8  1  0  0  0  0
 22  1  1  0  0  0  0
M  END
>  <CHROM.1>
-166.35124493,75.30335909,-65.00879220,-6.76861962,-0.78460467,0.32621906
1.83307889,-0.13322684,-2.64675481

>  <Name>
lig.pdb

>  <RI>
0

>  <Rbt.Current_Directory>
/home/itssahil/PROJECTS/Mol_Feturizer/New_Systems/rnas/5bws

>  <Rbt.Executable>
rbdock ($Id: //depot/dev/client3/rdock/2013.1/src/exe/rbdock.cxx#4 $)

>  <Rbt.Library>
libRbt.so (2013.1, Build901 2013/11/27)

>  <Rbt.Parameter_File>
/export/apps/rDock/src/rDock_2013.1_src/data/scripts/dock_solv.prm

>  <Rbt.Receptor>
prm/pocket_docking_4.prm

>  <SCORE>
-12.6859

>  <SCORE.INTER>
-10.5294

>  <SCORE.INTER.CONST>
1

>  <SCORE.INTER.POLAR>
0

>  <SCORE.INTER.ROT>
3

>  <SCORE.INTER.SOLV>
17.7009

>  <SCORE.INTER.VDW>
-18.5199

>  <SCORE.INTER.norm>
-0.478609

>  <SCORE.INTRA>
-2.15647

>  <SCORE.INTRA.DIHEDRAL>
-4.03908

>  <SCORE.INTRA.DIHEDRAL.0>
6.10773

>  <SCORE.INTRA.POLAR>
0

>  <SCORE.INTRA.POLAR.0>
0

>  <SCORE.INTRA.REPUL>
0

>  <SCORE.INTRA.REPUL.0>
0

>  <SCORE.INTRA.SOLV>
-0.665578

>  <SCORE.INTRA.SOLV.lig_0>
-71.4024

>  <SCORE.INTRA.VDW>
0.195854

>  <SCORE.INTRA.VDW.0>
-1.86213

>  <SCORE.INTRA.norm>
-0.0980216

>  <SCORE.RESTR>
0

>  <SCORE.RESTR.CAVITY>
0

>  <SCORE.RESTR.norm>
0

>  <SCORE.SYSTEM>
0

>  <SCORE.SYSTEM.CONST>
0

>  <SCORE.SYSTEM.DIHEDRAL>
0

>  <SCORE.SYSTEM.SOLV>
0

>  <SCORE.SYSTEM.norm>
0

>  <SCORE.heavy>
22

>  <SCORE.norm>
-0.576631

>  <RMSD>
1.653

$$$$
lig.pdb
 OpenBabel11021811523D
libRbt.so/2013.1/901 2013/11/27
 22 23  0  0  0  0  0  0  0  0999 V2000
   -7.9728   -1.0885   -0.3527 C   0  0  1  0  0  0  0  0  0  0  0  0
   -6.2552    0.3499    0.8186 C   0  0  1  0  0  0  0  0  0  0  0  0
   -7.1197    1.6396    1.1741 C   0  0  1  0  0  0  0  0  0  0  0  0
   -6.1206    2.8752    1.3174 C   0  0  2  0  0  0  0  0  0  0  0  0
   -8.9695   -2.2386    0.0644 C   0  0  1  0  0  0  0  0  0  0  0  0
   -8.1402   -3.5049    0.3560 C   0  0  2  0  0  0  0  0  0  0  0  0
   -7.3728   -3.9590   -0.8983 C   0  0  2  0  0  0  0  0  0  0  0  0
   -6.3798   -2.8446   -1.3927 C   0  0  1  0  0  0  0  0  0  0  0  0
   -5.6422   -3.2775   -2.6925 C   0  0  0  0  0  0  0  0  0  0  0  0
   -5.1006    2.5921    2.5346 C   0  0  1  0  0  0  0  0  0  0  0  0
   -4.2477    1.2839    2.1413 C   0  0  0  0  0  0  0  0  0  0  0  0
   -5.2292    0.0371    1.9539 C   0  0  2  0  0  0  0  0  0  0  0  0
   -8.3154   -4.2716   -1.9785 F   0  0  0  0  0  0  0  0  0  0  0  0
   -9.7321   -1.7695    1.2858 N   0  0  0  0  0  0  0  0  0  0  0  0
   -4.7767   -4.3853   -2.5434 N   0  0  0  0  0  0  0  0  0  0  0  0
   -4.1257    3.7242    2.6985 N   0  0  0  0  0  0  0  0  0  0  0  0
   -4.4410   -1.1586    1.5917 N   0  0  0  0  0  0  0  0  0  0  0  0
   -7.0993   -0.7840    0.6891 O   0  0  0  0  0  0  0  0  0  0  0  0
   -8.0569    1.8838    0.0524 O   0  0  0  0  0  0  0  0  0  0  0  0
   -6.9021    3.9928    1.6193 O   0  0  0  0  0  0  0  0  0  0  0  0
   -8.8688   -4.3425    0.6576 O   0  0  0  0  0  0  0  0  0  0  0  0
   -7.2128   -1.5647   -1.5879 O   0  0  0  0  0  0  0  0  0  0  0  0
  1  5  1  0  0  0  0
  1 18  1  1  0  0  0
  2 18  1  1  0  0  0
  2  3  1  0  0  0  0
  2 12  1  0  0  0  0
  3 19  1  6  0  0  0
  3  4  1  0  0  0  0
  4 20  1  1  0  0  0
  4 10  1  0  0  0  0
  5  6  1  0  0  0  0
  5 14  1  1  0  0  0
  6 21  1  6  0  0  0
  7 13  1  6  0  0  0
  7  6  1  0  0  0  0
  8  9  1  6  0  0  0
  8  7  1  0  0  0  0
 10 16  1  6  0  0  0
 11 10  1  0  0  0  0
 12 17  1  6  0  0  0
 12 11  1  0  0  0  0
 15  9  1  0  0  0  0
 22  8  1  0  0  0  0
 22  1  1  0  0  0  0
M  END
>  <CHROM.1>
-165.81742751,73.63996744,-65.13867365,-6.78025093,-0.80564194,0.29568580
1.82917600,-0.12125315,-2.65708451

>  <Name>
lig.pdb

>  <RI>
0

>  <Rbt.Current_Directory>
/home/itssahil/PROJECTS/Mol_Feturizer/New_Systems/rnas/5bws

>  <Rbt.Executable>
rbdock ($Id: //depot/dev/client3/rdock/2013.1/src/exe/rbdock.cxx#4 $)

>  <Rbt.Library>
libRbt.so (2013.1, Build901 2013/11/27)

>  <Rbt.Parameter_File>
/export/apps/rDock/src/rDock_2013.1_src/data/scripts/dock_solv.prm

>  <Rbt.Receptor>
prm/pocket_docking_3.prm

>  <SCORE>
-12.6409

>  <SCORE.INTER>
-10.4093

>  <SCORE.INTER.CONST>
1

>  <SCORE.INTER.POLAR>
0

>  <SCORE.INTER.ROT>
3

>  <SCORE.INTER.SOLV>
17.6035

>  <SCORE.INTER.VDW>
-18.4074

>  <SCORE.INTER.norm>
-0.47315

>  <SCORE.INTRA>
-2.23161

>  <SCORE.INTRA.DIHEDRAL>
-4.18267

>  <SCORE.INTRA.DIHEDRAL.0>
6.10773

>  <SCORE.INTRA.POLAR>
0

>  <SCORE.INTRA.POLAR.0>
0

>  <SCORE.INTRA.REPUL>
0

>  <SCORE.INTRA.REPUL.0>
0

>  <SCORE.INTRA.SOLV>
-0.72798

>  <SCORE.INTRA.SOLV.lig_0>
-71.4024

>  <SCORE.INTRA.VDW>
0.223712

>  <SCORE.INTRA.VDW.0>
-1.86213

>  <SCORE.INTRA.norm>
-0.101437

>  <SCORE.RESTR>
0

>  <SCORE.RESTR.CAVITY>
0

>  <SCORE.RESTR.norm>
0

>  <SCORE.SYSTEM>
0

>  <SCORE.SYSTEM.CONST>
0

>  <SCORE.SYSTEM.DIHEDRAL>
0

>  <SCORE.SYSTEM.SOLV>
0

>  <SCORE.SYSTEM.norm>
0

>  <SCORE.heavy>
22

>  <SCORE.norm>
-0.574587

>  <RMSD>
1.667

$$$$
lig.pdb
 OpenBabel11021811523D
libRbt.so/2013.1/901 2013/11/27
 22 23  0  0  0  0  0  0  0  0999 V2000
   -7.7674   -1.1561   -0.5556 C   0  0  1  0  0  0  0  0  0  0  0  0
   -6.2398    0.3423    0.7907 C   0  0  1  0  0  0  0  0  0  0  0  0
   -7.1258    1.6088    1.1755 C   0  0  1  0  0  0  0  0  0  0  0  0
   -6.1431    2.8463    1.3941 C   0  0  2  0  0  0  0  0  0  0  0  0
   -8.8526   -2.2555   -0.2332 C   0  0  1  0  0  0  0  0  0  0  0  0
   -8.1201   -3.5119    0.2778 C   0  0  2  0  0  0  0  0  0  0  0  0
   -7.1701   -4.0685   -0.7974 C   0  0  2  0  0  0  0  0  0  0  0  0
   -6.0770   -3.0102   -1.1942 C   0  0  1  0  0  0  0  0  0  0  0  0
   -5.1483   -3.5482   -2.3206 C   0  0  0  0  0  0  0  0  0  0  0  0
   -5.1515    2.5233    2.6248 C   0  0  1  0  0  0  0  0  0  0  0  0
   -4.2759    1.2397    2.2011 C   0  0  0  0  0  0  0  0  0  0  0  0
   -5.2399   -0.0071    1.9384 C   0  0  2  0  0  0  0  0  0  0  0  0
   -7.9306   -4.4412   -1.9958 F   0  0  0  0  0  0  0  0  0  0  0  0
   -9.7920   -1.6864    0.8095 N   0  0  0  0  0  0  0  0  0  0  0  0
   -5.8117   -3.9087   -3.5158 N   0  0  0  0  0  0  0  0  0  0  0  0
   -4.1923    3.6564    2.8591 N   0  0  0  0  0  0  0  0  0  0  0  0
   -4.4309   -1.1801    1.5487 N   0  0  0  0  0  0  0  0  0  0  0  0
   -7.0691   -0.7929    0.5939 O   0  0  0  0  0  0  0  0  0  0  0  0
   -8.0367    1.8899    0.0408 O   0  0  0  0  0  0  0  0  0  0  0  0
   -6.9430    3.9438    1.7206 O   0  0  0  0  0  0  0  0  0  0  0  0
   -8.9128   -4.3127    0.5101 O   0  0  0  0  0  0  0  0  0  0  0  0
   -6.8286   -1.7332   -1.6119 O   0  0  0  0  0  0  0  0  0  0  0  0
  1  5  1  0  0  0  0
  1 18  1  1  0  0  0
  2 18  1  1  0  0  0
  2  3  1  0  0  0  0
  2 12  1  0  0  0  0
  3 19  1  6  0  0  0
  3  4  1  0  0  0  0
  4 20  1  1  0  0  0
  4 10  1  0  0  0  0
  5  6  1  0  0  0  0
  5 14  1  1  0  0  0
  6 21  1  6  0  0  0
  7 13  1  6  0  0  0
  7  6  1  0  0  0  0
  8  9  1  6  0  0  0
  8  7  1  0  0  0  0
 10 16  1  6  0  0  0
 11 10  1  0  0  0  0
 12 17  1  6  0  0  0
 12 11  1  0  0  0  0
 15  9  1  0  0  0  0
 22  8  1  0  0  0  0
 22  1  1  0  0  0  0
M  END
>  <CHROM.1>
-164.85397431,83.46528365,58.78746468,-6.73755449,-0.84145326,0.23899833
1.80844656,-0.10058666,-2.63276623

>  <Name>
lig.pdb

>  <RI>
0

>  <Rbt.Current_Directory>
/home/itssahil/PROJECTS/Mol_Feturizer/New_Systems/rnas/5bws

>  <Rbt.Executable>
rbdock ($Id: //depot/dev/client3/rdock/2013.1/src/exe/rbdock.cxx#4 $)

>  <Rbt.Library>
libRbt.so (2013.1, Build901 2013/11/27)

>  <Rbt.Parameter_File>
/export/apps/rDock/src/rDock_2013.1_src/data/scripts/dock_solv.prm

>  <Rbt.Receptor>
prm/pocket_docking_3.prm

>  <SCORE>
-9.90109

>  <SCORE.INTER>
-9.18757

>  <SCORE.INTER.CONST>
1

>  <SCORE.INTER.POLAR>
0

>  <SCORE.INTER.ROT>
3

>  <SCORE.INTER.SOLV>
22.0782

>  <SCORE.INTER.VDW>
-19.0845

>  <SCORE.INTER.norm>
-0.417617

>  <SCORE.INTRA>
-0.713517

>  <SCORE.INTRA.DIHEDRAL>
-2.63502

>  <SCORE.INTRA.DIHEDRAL.0>
6.10773

>  <SCORE.INTRA.POLAR>
0

>  <SCORE.INTRA.POLAR.0>
0

>  <SCORE.INTRA.REPUL>
0

>  <SCORE.INTRA.REPUL.0>
0

>  <SCORE.INTRA.SOLV>
1.08634

>  <SCORE.INTRA.SOLV.lig_0>
-71.4024

>  <SCORE.INTRA.VDW>
0.0608213

>  <SCORE.INTRA.VDW.0>
-1.86213

>  <SCORE.INTRA.norm>
-0.0324326

>  <SCORE.RESTR>
0

>  <SCORE.RESTR.CAVITY>
0

>  <SCORE.RESTR.norm>
0

>  <SCORE.SYSTEM>
0

>  <SCORE.SYSTEM.CONST>
0

>  <SCORE.SYSTEM.DIHEDRAL>
0

>  <SCORE.SYSTEM.SOLV>
0

>  <SCORE.SYSTEM.norm>
0

>  <SCORE.heavy>
22

>  <SCORE.norm>
-0.450049

>  <RMSD>
1.672

$$$$
lig.pdb
 OpenBabel11021811523D
libRbt.so/2013.1/901 2013/11/27
 22 23  0  0  0  0  0  0  0  0999 V2000
   -7.9539   -1.1744   -0.4770 C   0  0  1  0  0  0  0  0  0  0  0  0
   -6.2927    0.2786    0.7560 C   0  0  1  0  0  0  0  0  0  0  0  0
   -7.1666    1.5417    1.1780 C   0  0  1  0  0  0  0  0  0  0  0  0
   -6.1808    2.7840    1.3512 C   0  0  2  0  0  0  0  0  0  0  0  0
   -8.9707   -2.3176   -0.0904 C   0  0  1  0  0  0  0  0  0  0  0  0
   -8.1581   -3.5825    0.2499 C   0  0  2  0  0  0  0  0  0  0  0  0
   -7.3393   -4.0521   -0.9657 C   0  0  2  0  0  0  0  0  0  0  0  0
   -6.3231   -2.9454   -1.4294 C   0  0  1  0  0  0  0  0  0  0  0  0
   -5.5321   -3.3941   -2.6919 C   0  0  0  0  0  0  0  0  0  0  0  0
   -5.1343    2.4673    2.5373 C   0  0  1  0  0  0  0  0  0  0  0  0
   -4.2725    1.1871    2.0770 C   0  0  0  0  0  0  0  0  0  0  0  0
   -5.2414   -0.0645    1.8589 C   0  0  2  0  0  0  0  0  0  0  0  0
   -8.2361   -4.3741   -2.0816 F   0  0  0  0  0  0  0  0  0  0  0  0
   -9.7832   -1.8334    1.0923 N   0  0  0  0  0  0  0  0  0  0  0  0
   -4.6947   -4.5167   -2.5001 N   0  0  0  0  0  0  0  0  0  0  0  0
   -4.1709    3.6051    2.7274 N   0  0  0  0  0  0  0  0  0  0  0  0
   -4.4451   -1.2345    1.4354 N   0  0  0  0  0  0  0  0  0  0  0  0
   -7.1247   -0.8606    0.5977 O   0  0  0  0  0  0  0  0  0  0  0  0
   -8.1281    1.8169    0.0843 O   0  0  0  0  0  0  0  0  0  0  0  0
   -6.9706    3.8784    1.7113 O   0  0  0  0  0  0  0  0  0  0  0  0
   -8.9013   -4.4151    0.5292 O   0  0  0  0  0  0  0  0  0  0  0  0
   -7.1435   -1.6658   -1.6736 O   0  0  0  0  0  0  0  0  0  0  0  0
  1  5  1  0  0  0  0
  1 18  1  1  0  0  0
  2 18  1  1  0  0  0
  2  3  1  0  0  0  0
  2 12  1  0  0  0  0
  3 19  1  6  0  0  0
  3  4  1  0  0  0  0
  4 20  1  1  0  0  0
  4 10  1  0  0  0  0
  5  6  1  0  0  0  0
  5 14  1  1  0  0  0
  6 21  1  6  0  0  0
  7 13  1  6  0  0  0
  7  6  1  0  0  0  0
  8  9  1  6  0  0  0
  8  7  1  0  0  0  0
 10 16  1  6  0  0  0
 11 10  1  0  0  0  0
 12 17  1  6  0  0  0
 12 11  1  0  0  0  0
 15  9  1  0  0  0  0
 22  8  1  0  0  0  0
 22  1  1  0  0  0  0
M  END
>  <CHROM.1>
-165.20012451,77.85839052,-64.07931604,-6.78317281,-0.89926682,0.23970139
1.81152820,-0.09297926,-2.65512254

>  <Name>
lig.pdb

>  <RI>
0

>  <Rbt.Current_Directory>
/home/itssahil/PROJECTS/Mol_Feturizer/New_Systems/rnas/5bws

>  <Rbt.Executable>
rbdock ($Id: //depot/dev/client3/rdock/2013.1/src/exe/rbdock.cxx#4 $)

>  <Rbt.Library>
libRbt.so (2013.1, Build901 2013/11/27)

>  <Rbt.Parameter_File>
/export/apps/rDock/src/rDock_2013.1_src/data/scripts/dock_solv.prm

>  <Rbt.Receptor>
prm/pocket_docking_3.prm

>  <SCORE>
-12.7116

>  <SCORE.INTER>
-10.841

>  <SCORE.INTER.CONST>
1

>  <SCORE.INTER.POLAR>
0

>  <SCORE.INTER.ROT>
3

>  <SCORE.INTER.SOLV>
17.3135

>  <SCORE.INTER.VDW>
-18.5985

>  <SCORE.INTER.norm>
-0.492774

>  <SCORE.INTRA>
-1.87061

>  <SCORE.INTRA.DIHEDRAL>
-3.55534

>  <SCORE.INTRA.DIHEDRAL.0>
6.10773

>  <SCORE.INTRA.POLAR>
0

>  <SCORE.INTRA.POLAR.0>
0

>  <SCORE.INTRA.REPUL>
0

>  <SCORE.INTRA.REPUL.0>
0

>  <SCORE.INTRA.SOLV>
-0.503408

>  <SCORE.INTRA.SOLV.lig_0>
-71.4024

>  <SCORE.INTRA.VDW>
0.158765

>  <SCORE.INTRA.VDW.0>
-1.86213

>  <SCORE.INTRA.norm>
-0.0850277

>  <SCORE.RESTR>
0

>  <SCORE.RESTR.CAVITY>
0

>  <SCORE.RESTR.norm>
0

>  <SCORE.SYSTEM>
0

>  <SCORE.SYSTEM.CONST>
0

>  <SCORE.SYSTEM.DIHEDRAL>
0

>  <SCORE.SYSTEM.SOLV>
0

>  <SCORE.SYSTEM.norm>
0

>  <SCORE.heavy>
22

>  <SCORE.norm>
-0.577802

>  <RMSD>
1.676

$$$$
lig.pdb
 OpenBabel11021811523D
libRbt.so/2013.1/901 2013/11/27
 22 23  0  0  0  0  0  0  0  0999 V2000
   -7.9212   -1.1702   -0.4834 C   0  0  1  0  0  0  0  0  0  0  0  0
   -6.2729    0.2955    0.7519 C   0  0  1  0  0  0  0  0  0  0  0  0
   -7.1734    1.5425    1.1655 C   0  0  1  0  0  0  0  0  0  0  0  0
   -6.2118    2.8021    1.3492 C   0  0  2  0  0  0  0  0  0  0  0  0
   -8.9371   -2.3115   -0.0889 C   0  0  1  0  0  0  0  0  0  0  0  0
   -8.1242   -3.5781    0.2446 C   0  0  2  0  0  0  0  0  0  0  0  0
   -7.3162   -4.0490   -0.9776 C   0  0  2  0  0  0  0  0  0  0  0  0
   -6.3016   -2.9443   -1.4492 C   0  0  1  0  0  0  0  0  0  0  0  0
   -5.5217   -3.3942   -2.7182 C   0  0  0  0  0  0  0  0  0  0  0  0
   -5.1718    2.5035    2.5457 C   0  0  1  0  0  0  0  0  0  0  0  0
   -4.2827    1.2391    2.0936 C   0  0  0  0  0  0  0  0  0  0  0  0
   -5.2268   -0.0295    1.8652 C   0  0  2  0  0  0  0  0  0  0  0  0
   -8.2225   -4.3691   -2.0864 F   0  0  0  0  0  0  0  0  0  0  0  0
   -9.7391   -1.8260    1.1005 N   0  0  0  0  0  0  0  0  0  0  0  0
   -4.6842   -4.5180   -2.5332 N   0  0  0  0  0  0  0  0  0  0  0  0
   -4.2310    3.6582    2.7461 N   0  0  0  0  0  0  0  0  0  0  0  0
   -4.4055   -1.1847    1.4492 N   0  0  0  0  0  0  0  0  0  0  0  0
   -7.0827   -0.8583    0.5846 O   0  0  0  0  0  0  0  0  0  0  0  0
   -8.1285    1.8012    0.0622 O   0  0  0  0  0  0  0  0  0  0  0  0
   -7.0246    3.8820    1.7018 O   0  0  0  0  0  0  0  0  0  0  0  0
   -8.8668   -4.4092    0.5297 O   0  0  0  0  0  0  0  0  0  0  0  0
   -7.1213   -1.6630   -1.6866 O   0  0  0  0  0  0  0  0  0  0  0  0
  1  5  1  0  0  0  0
  1 18  1  1  0  0  0
  2 18  1  1  0  0  0
  2  3  1  0  0  0  0
  2 12  1  0  0  0  0
  3 19  1  6  0  0  0
  3  4  1  0  0  0  0
  4 20  1  1  0  0  0
  4 10  1  0  0  0  0
  5  6  1  0  0  0  0
  5 14  1  1  0  0  0
  6 21  1  6  0  0  0
  7 13  1  6  0  0  0
  7  6  1  0  0  0  0
  8  9  1  6  0  0  0
  8  7  1  0  0  0  0
 10 16  1  6  0  0  0
 11 10  1  0  0  0  0
 12 17  1  6  0  0  0
 12 11  1  0  0  0  0
 15  9  1  0  0  0  0
 22  8  1  0  0  0  0
 22  1  1  0  0  0  0
M  END
>  <CHROM.1>
-163.45600626,76.08493104,-64.11792290,-6.77423372,-0.88658783,0.23449198
1.80254323,-0.09526269,-2.65335421

>  <Name>
lig.pdb

>  <RI>
0

>  <Rbt.Current_Directory>
/home/itssahil/PROJECTS/Mol_Feturizer/New_Systems/rnas/5bws

>  <Rbt.Executable>
rbdock ($Id: //depot/dev/client3/rdock/2013.1/src/exe/rbdock.cxx#4 $)

>  <Rbt.Library>
libRbt.so (2013.1, Build901 2013/11/27)

>  <Rbt.Parameter_File>
/export/apps/rDock/src/rDock_2013.1_src/data/scripts/dock_solv.prm

>  <Rbt.Receptor>
prm/pocket_docking_3.prm

>  <SCORE>
-12.7578

>  <SCORE.INTER>
-10.8906

>  <SCORE.INTER.CONST>
1

>  <SCORE.INTER.POLAR>
0

>  <SCORE.INTER.ROT>
3

>  <SCORE.INTER.SOLV>
17.2319

>  <SCORE.INTER.VDW>
-18.6044

>  <SCORE.INTER.norm>
-0.495027

>  <SCORE.INTRA>
-1.86718

>  <SCORE.INTRA.DIHEDRAL>
-3.57306

>  <SCORE.INTRA.DIHEDRAL.0>
6.10773

>  <SCORE.INTRA.POLAR>
0

>  <SCORE.INTRA.POLAR.0>
0

>  <SCORE.INTRA.REPUL>
0

>  <SCORE.INTRA.REPUL.0>
0

>  <SCORE.INTRA.SOLV>
-0.535841

>  <SCORE.INTRA.SOLV.lig_0>
-71.4024

>  <SCORE.INTRA.VDW>
0.187269

>  <SCORE.INTRA.VDW.0>
-1.86213

>  <SCORE.INTRA.norm>
-0.0848719

>  <SCORE.RESTR>
0

>  <SCORE.RESTR.CAVITY>
0

>  <SCORE.RESTR.norm>
0

>  <SCORE.SYSTEM>
0

>  <SCORE.SYSTEM.CONST>
0

>  <SCORE.SYSTEM.DIHEDRAL>
0

>  <SCORE.SYSTEM.SOLV>
0

>  <SCORE.SYSTEM.norm>
0

>  <SCORE.heavy>
22

>  <SCORE.norm>
-0.579899

>  <RMSD>
1.686

$$$$
lig.pdb
 OpenBabel11021811523D
libRbt.so/2013.1/901 2013/11/27
 22 23  0  0  0  0  0  0  0  0999 V2000
   -7.9899   -1.2094   -0.4910 C   0  0  1  0  0  0  0  0  0  0  0  0
   -6.3277    0.2481    0.7354 C   0  0  1  0  0  0  0  0  0  0  0  0
   -7.2096    1.5036    1.1631 C   0  0  1  0  0  0  0  0  0  0  0  0
   -6.2325    2.7528    1.3361 C   0  0  2  0  0  0  0  0  0  0  0  0
   -9.0025   -2.3540   -0.0978 C   0  0  1  0  0  0  0  0  0  0  0  0
   -8.1860   -3.6190    0.2330 C   0  0  2  0  0  0  0  0  0  0  0  0
   -7.3774   -4.0856   -0.9904 C   0  0  2  0  0  0  0  0  0  0  0  0
   -6.3660   -2.9774   -1.4608 C   0  0  1  0  0  0  0  0  0  0  0  0
   -5.5857   -3.4230   -2.7309 C   0  0  0  0  0  0  0  0  0  0  0  0
   -5.1799    2.4412    2.5181 C   0  0  1  0  0  0  0  0  0  0  0  0
   -4.3101    1.1684    2.0522 C   0  0  0  0  0  0  0  0  0  0  0  0
   -5.2703   -0.0898    1.8342 C   0  0  2  0  0  0  0  0  0  0  0  0
   -8.2835   -4.4063   -2.0992 F   0  0  0  0  0  0  0  0  0  0  0  0
   -9.8051   -1.8727    1.0928 N   0  0  0  0  0  0  0  0  0  0  0  0
   -4.7355   -4.5371   -2.5451 N   0  0  0  0  0  0  0  0  0  0  0  0
   -4.2244    3.5857    2.7079 N   0  0  0  0  0  0  0  0  0  0  0  0
   -4.4667   -1.2528    1.4054 N   0  0  0  0  0  0  0  0  0  0  0  0
   -7.1516   -0.8969    0.5771 O   0  0  0  0  0  0  0  0  0  0  0  0
   -8.1765    1.7742    0.0731 O   0  0  0  0  0  0  0  0  0  0  0  0
   -7.0292    3.8404    1.7013 O   0  0  0  0  0  0  0  0  0  0  0  0
   -8.9261   -4.4526    0.5172 O   0  0  0  0  0  0  0  0  0  0  0  0
   -7.1894   -1.6979   -1.6955 O   0  0  0  0  0  0  0  0  0  0  0  0
  1  5  1  0  0  0  0
  1 18  1  1  0  0  0
  2 18  1  1  0  0  0
  2  3  1  0  0  0  0
  2 12  1  0  0  0  0
  3 19  1  6  0  0  0
  3  4  1  0  0  0  0
  4 20  1  1  0  0  0
  4 10  1  0  0  0  0
  5  6  1  0  0  0  0
  5 14  1  1  0  0  0
  6 21  1  6  0  0  0
  7 13  1  6  0  0  0
  7  6  1  0  0  0  0
  8  9  1  6  0  0  0
  8  7  1  0  0  0  0
 10 16  1  6  0  0  0
 11 10  1  0  0  0  0
 12 17  1  6  0  0  0
 12 11  1  0  0  0  0
 15  9  1  0  0  0  0
 22  8  1  0  0  0  0
 22  1  1  0  0  0  0
M  END
>  <CHROM.1>
-164.62053231,77.30802661,-64.68681843,-6.82257231,-0.93072916,0.21984790
1.81017168,-0.09994136,-2.65248080

>  <Name>
lig.pdb

>  <RI>
0

>  <Rbt.Current_Directory>
/home/itssahil/PROJECTS/Mol_Feturizer/New_Systems/rnas/5bws

>  <Rbt.Executable>
rbdock ($Id: //depot/dev/client3/rdock/2013.1/src/exe/rbdock.cxx#4 $)

>  <Rbt.Library>
libRbt.so (2013.1, Build901 2013/11/27)

>  <Rbt.Parameter_File>
/export/apps/rDock/src/rDock_2013.1_src/data/scripts/dock_solv.prm

>  <Rbt.Receptor>
prm/pocket_docking_3.prm

>  <SCORE>
-12.7907

>  <SCORE.INTER>
-10.9235

>  <SCORE.INTER.CONST>
1

>  <SCORE.INTER.POLAR>
0

>  <SCORE.INTER.ROT>
3

>  <SCORE.INTER.SOLV>
17.493

>  <SCORE.INTER.VDW>
-18.7134

>  <SCORE.INTER.norm>
-0.496524

>  <SCORE.INTRA>
-1.86714

>  <SCORE.INTRA.DIHEDRAL>
-3.54112

>  <SCORE.INTRA.DIHEDRAL.0>
6.10773

>  <SCORE.INTRA.POLAR>
0

>  <SCORE.INTRA.POLAR.0>
0

>  <SCORE.INTRA.REPUL>
0

>  <SCORE.INTRA.REPUL.0>
0

>  <SCORE.INTRA.SOLV>
-0.525669

>  <SCORE.INTRA.SOLV.lig_0>
-71.4024

>  <SCORE.INTRA.VDW>
0.166256

>  <SCORE.INTRA.VDW.0>
-1.86213

>  <SCORE.INTRA.norm>
-0.0848698

>  <SCORE.RESTR>
0

>  <SCORE.RESTR.CAVITY>
0

>  <SCORE.RESTR.norm>
0

>  <SCORE.SYSTEM>
0

>  <SCORE.SYSTEM.CONST>
0

>  <SCORE.SYSTEM.DIHEDRAL>
0

>  <SCORE.SYSTEM.SOLV>
0

>  <SCORE.SYSTEM.norm>
0

>  <SCORE.heavy>
22

>  <SCORE.norm>
-0.581394

>  <RMSD>
1.711

$$$$
lig.pdb
 OpenBabel11021811523D
libRbt.so/2013.1/901 2013/11/27
 22 23  0  0  0  0  0  0  0  0999 V2000
   -7.9819   -1.0983   -0.4452 C   0  0  1  0  0  0  0  0  0  0  0  0
   -6.3383    0.3523    0.8140 C   0  0  1  0  0  0  0  0  0  0  0  0
   -7.2169    1.6203    1.2102 C   0  0  1  0  0  0  0  0  0  0  0  0
   -6.2309    2.8603    1.3989 C   0  0  2  0  0  0  0  0  0  0  0  0
   -9.0031   -2.2435   -0.0767 C   0  0  1  0  0  0  0  0  0  0  0  0
   -8.1941   -3.5079    0.2746 C   0  0  2  0  0  0  0  0  0  0  0  0
   -7.3554   -3.9743   -0.9285 C   0  0  2  0  0  0  0  0  0  0  0  0
   -6.3335   -2.8655   -1.3741 C   0  0  1  0  0  0  0  0  0  0  0  0
   -5.5218   -3.3109   -2.6246 C   0  0  0  0  0  0  0  0  0  0  0  0
   -5.2119    2.5462    2.6093 C   0  0  1  0  0  0  0  0  0  0  0  0
   -4.3446    1.2607    2.1746 C   0  0  0  0  0  0  0  0  0  0  0  0
   -5.3127    0.0113    1.9415 C   0  0  2  0  0  0  0  0  0  0  0  0
   -8.2337   -4.2959   -2.0591 F   0  0  0  0  0  0  0  0  0  0  0  0
   -9.8351   -1.7625    1.0937 N   0  0  0  0  0  0  0  0  0  0  0  0
   -4.7251   -4.4634   -2.4358 N   0  0  0  0  0  0  0  0  0  0  0  0
   -4.2491    3.6817    2.8149 N   0  0  0  0  0  0  0  0  0  0  0  0
   -4.5113   -1.1635    1.5416 N   0  0  0  0  0  0  0  0  0  0  0  0
   -7.1704   -0.7850    0.6432 O   0  0  0  0  0  0  0  0  0  0  0  0
   -8.1531    1.8931    0.0942 O   0  0  0  0  0  0  0  0  0  0  0  0
   -7.0247    3.9591    1.7359 O   0  0  0  0  0  0  0  0  0  0  0  0
   -8.9405   -4.3419    0.5406 O   0  0  0  0  0  0  0  0  0  0  0  0
   -7.1517   -1.5866   -1.6294 O   0  0  0  0  0  0  0  0  0  0  0  0
  1  5  1  0  0  0  0
  1 18  1  1  0  0  0
  2 18  1  1  0  0  0
  2  3  1  0  0  0  0
  2 12  1  0  0  0  0
  3 19  1  6  0  0  0
  3  4  1  0  0  0  0
  4 20  1  1  0  0  0
  4 10  1  0  0  0  0
  5  6  1  0  0  0  0
  5 14  1  1  0  0  0
  6 21  1  6  0  0  0
  7 13  1  6  0  0  0
  7  6  1  0  0  0  0
  8  9  1  6  0  0  0
  8  7  1  0  0  0  0
 10 16  1  6  0  0  0
 11 10  1  0  0  0  0
 12 17  1  6  0  0  0
 12 11  1  0  0  0  0
 15  9  1  0  0  0  0
 22  8  1  0  0  0  0
 22  1  1  0  0  0  0
M  END
>  <CHROM.1>
-165.50332388,77.51045531,-61.76117704,-6.82208752,-0.82386690,0.28588486
1.80447610,-0.07775966,-2.65637721

>  <Name>
lig.pdb

>  <RI>
0

>  <Rbt.Current_Directory>
/home/itssahil/PROJECTS/Mol_Feturizer/New_Systems/rnas/5bws

>  <Rbt.Executable>
rbdock ($Id: //depot/dev/client3/rdock/2013.1/src/exe/rbdock.cxx#4 $)

>  <Rbt.Library>
libRbt.so (2013.1, Build901 2013/11/27)

>  <Rbt.Parameter_File>
/export/apps/rDock/src/rDock_2013.1_src/data/scripts/dock_solv.prm

>  <Rbt.Receptor>
prm/pocket_docking_3.prm

>  <SCORE>
-12.6926

>  <SCORE.INTER>
-10.7763

>  <SCORE.INTER.CONST>
1

>  <SCORE.INTER.POLAR>
0

>  <SCORE.INTER.ROT>
3

>  <SCORE.INTER.SOLV>
17.4728

>  <SCORE.INTER.VDW>
-18.6085

>  <SCORE.INTER.norm>
-0.489832

>  <SCORE.INTRA>
-1.91627

>  <SCORE.INTRA.DIHEDRAL>
-3.69636

>  <SCORE.INTRA.DIHEDRAL.0>
6.10773

>  <SCORE.INTRA.POLAR>
0

>  <SCORE.INTRA.POLAR.0>
0

>  <SCORE.INTRA.REPUL>
0

>  <SCORE.INTRA.REPUL.0>
0

>  <SCORE.INTRA.SOLV>
-0.47544

>  <SCORE.INTRA.SOLV.lig_0>
-71.4024

>  <SCORE.INTRA.VDW>
0.169626

>  <SCORE.INTRA.VDW.0>
-1.86213

>  <SCORE.INTRA.norm>
-0.0871033

>  <SCORE.RESTR>
0

>  <SCORE.RESTR.CAVITY>
0

>  <SCORE.RESTR.norm>
0

>  <SCORE.SYSTEM>
0

>  <SCORE.SYSTEM.CONST>
0

>  <SCORE.SYSTEM.DIHEDRAL>
0

>  <SCORE.SYSTEM.SOLV>
0

>  <SCORE.SYSTEM.norm>
0

>  <SCORE.heavy>
22

>  <SCORE.norm>
-0.576935

>  <RMSD>
1.714

$$$$
lig.pdb
 OpenBabel11021811523D
libRbt.so/2013.1/901 2013/11/27
 22 23  0  0  0  0  0  0  0  0999 V2000
   -7.9595   -1.2171   -0.4729 C   0  0  1  0  0  0  0  0  0  0  0  0
   -6.3137    0.2611    0.7508 C   0  0  1  0  0  0  0  0  0  0  0  0
   -7.2098    1.5050    1.1827 C   0  0  1  0  0  0  0  0  0  0  0  0
   -6.2479    2.7662    1.3538 C   0  0  2  0  0  0  0  0  0  0  0  0
   -8.9476   -2.3839   -0.0826 C   0  0  1  0  0  0  0  0  0  0  0  0
   -8.1048   -3.6342    0.2381 C   0  0  2  0  0  0  0  0  0  0  0  0
   -7.2916   -4.0777   -0.9910 C   0  0  2  0  0  0  0  0  0  0  0  0
   -6.3043   -2.9468   -1.4586 C   0  0  1  0  0  0  0  0  0  0  0  0
   -5.5199   -3.3696   -2.7341 C   0  0  0  0  0  0  0  0  0  0  0  0
   -5.1876    2.4667    2.5320 C   0  0  1  0  0  0  0  0  0  0  0  0
   -4.3034    1.2054    2.0618 C   0  0  0  0  0  0  0  0  0  0  0  0
   -5.2486   -0.0646    1.8457 C   0  0  2  0  0  0  0  0  0  0  0  0
   -8.1952   -4.4101   -2.0983 F   0  0  0  0  0  0  0  0  0  0  0  0
   -9.7552   -1.9255    1.1136 N   0  0  0  0  0  0  0  0  0  0  0  0
   -4.6798   -4.4945   -2.5689 N   0  0  0  0  0  0  0  0  0  0  0  0
   -4.2459    3.6228    2.7198 N   0  0  0  0  0  0  0  0  0  0  0  0
   -4.4318   -1.2170    1.4130 N   0  0  0  0  0  0  0  0  0  0  0  0
   -7.1237   -0.8940    0.5939 O   0  0  0  0  0  0  0  0  0  0  0  0
   -8.1837    1.7646    0.0961 O   0  0  0  0  0  0  0  0  0  0  0  0
   -7.0570    3.8434    1.7227 O   0  0  0  0  0  0  0  0  0  0  0  0
   -8.8271   -4.4840    0.5201 O   0  0  0  0  0  0  0  0  0  0  0  0
   -7.1539   -1.6827   -1.6830 O   0  0  0  0  0  0  0  0  0  0  0  0
  1  5  1  0  0  0  0
  1 18  1  1  0  0  0
  2 18  1  1  0  0  0
  2  3  1  0  0  0  0
  2 12  1  0  0  0  0
  3 19  1  6  0  0  0
  3  4  1  0  0  0  0
  4 20  1  1  0  0  0
  4 10  1  0  0  0  0
  5  6  1  0  0  0  0
  5 14  1  1  0  0  0
  6 21  1  6  0  0  0
  7 13  1  6  0  0  0
  7  6  1  0  0  0  0
  8  9  1  6  0  0  0
  8  7  1  0  0  0  0
 10 16  1  6  0  0  0
 11 10  1  0  0  0  0
 12 17  1  6  0  0  0
 12 11  1  0  0  0  0
 15  9  1  0  0  0  0
 22  8  1  0  0  0  0
 22  1  1  0  0  0  0
M  END
>  <CHROM.1>
-165.19638666,77.44505740,-62.72238370,-6.78858828,-0.92246105,0.22974085
1.79837681,-0.11204209,-2.65014701

>  <Name>
lig.pdb

>  <RI>
0

>  <Rbt.Current_Directory>
/home/itssahil/PROJECTS/Mol_Feturizer/New_Systems/rnas/5bws

>  <Rbt.Executable>
rbdock ($Id: //depot/dev/client3/rdock/2013.1/src/exe/rbdock.cxx#4 $)

>  <Rbt.Library>
libRbt.so (2013.1, Build901 2013/11/27)

>  <Rbt.Parameter_File>
/export/apps/rDock/src/rDock_2013.1_src/data/scripts/dock_solv.prm

>  <Rbt.Receptor>
prm/pocket_docking_4.prm

>  <SCORE>
-12.7475

>  <SCORE.INTER>
-10.8449

>  <SCORE.INTER.CONST>
1

>  <SCORE.INTER.POLAR>
0

>  <SCORE.INTER.ROT>
3

>  <SCORE.INTER.SOLV>
17.5007

>  <SCORE.INTER.VDW>
-18.6635

>  <SCORE.INTER.norm>
-0.492949

>  <SCORE.INTRA>
-1.90261

>  <SCORE.INTRA.DIHEDRAL>
-3.65033

>  <SCORE.INTRA.DIHEDRAL.0>
6.10773

>  <SCORE.INTRA.POLAR>
0

>  <SCORE.INTRA.POLAR.0>
0

>  <SCORE.INTRA.REPUL>
0

>  <SCORE.INTRA.REPUL.0>
0

>  <SCORE.INTRA.SOLV>
-0.491534

>  <SCORE.INTRA.SOLV.lig_0>
-71.4024

>  <SCORE.INTRA.VDW>
0.168326

>  <SCORE.INTRA.VDW.0>
-1.86213

>  <SCORE.INTRA.norm>
-0.0864821

>  <SCORE.RESTR>
0

>  <SCORE.RESTR.CAVITY>
0

>  <SCORE.RESTR.norm>
0

>  <SCORE.SYSTEM>
0

>  <SCORE.SYSTEM.CONST>
0

>  <SCORE.SYSTEM.DIHEDRAL>
0

>  <SCORE.SYSTEM.SOLV>
0

>  <SCORE.SYSTEM.norm>
0

>  <SCORE.heavy>
22

>  <SCORE.norm>
-0.579431

>  <RMSD>
1.714

$$$$
lig.pdb
 OpenBabel11021811523D
libRbt.so/2013.1/901 2013/11/27
 22 23  0  0  0  0  0  0  0  0999 V2000
   -8.0066   -1.0643   -0.4667 C   0  0  1  0  0  0  0  0  0  0  0  0
   -6.3707    0.3778    0.8122 C   0  0  1  0  0  0  0  0  0  0  0  0
   -7.2336    1.6436    1.2485 C   0  0  1  0  0  0  0  0  0  0  0  0
   -6.2360    2.8734    1.4426 C   0  0  2  0  0  0  0  0  0  0  0  0
   -9.0351   -2.2081   -0.1145 C   0  0  1  0  0  0  0  0  0  0  0  0
   -8.2336   -3.4729    0.2519 C   0  0  2  0  0  0  0  0  0  0  0  0
   -7.3748   -3.9414   -0.9362 C   0  0  2  0  0  0  0  0  0  0  0  0
   -6.3444   -2.8342   -1.3655 C   0  0  1  0  0  0  0  0  0  0  0  0
   -5.5119   -3.2818   -2.6014 C   0  0  0  0  0  0  0  0  0  0  0  0
   -5.1973    2.5298    2.6280 C   0  0  1  0  0  0  0  0  0  0  0  0
   -4.3466    1.2475    2.1531 C   0  0  0  0  0  0  0  0  0  0  0  0
   -5.3271    0.0088    1.9141 C   0  0  2  0  0  0  0  0  0  0  0  0
   -8.2341   -4.2634   -2.0813 F   0  0  0  0  0  0  0  0  0  0  0  0
   -9.8864   -1.7249    1.0410 N   0  0  0  0  0  0  0  0  0  0  0  0
   -4.7359   -4.4469   -2.4043 N   0  0  0  0  0  0  0  0  0  0  0  0
   -4.2233    3.6551    2.8375 N   0  0  0  0  0  0  0  0  0  0  0  0
   -4.5410   -1.1631    1.4772 N   0  0  0  0  0  0  0  0  0  0  0  0
   -7.2134   -0.7507    0.6350 O   0  0  0  0  0  0  0  0  0  0  0  0
   -8.1880    1.9437    0.1552 O   0  0  0  0  0  0  0  0  0  0  0  0
   -7.0162    3.9706    1.8150 O   0  0  0  0  0  0  0  0  0  0  0  0
   -8.9852   -4.3059    0.5060 O   0  0  0  0  0  0  0  0  0  0  0  0
   -7.1568   -1.5547   -1.6361 O   0  0  0  0  0  0  0  0  0  0  0  0
  1  5  1  0  0  0  0
  1 18  1  1  0  0  0
  2 18  1  1  0  0  0
  2  3  1  0  0  0  0
  2 12  1  0  0  0  0
  3 19  1  6  0  0  0
  3  4  1  0  0  0  0
  4 20  1  1  0  0  0
  4 10  1  0  0  0  0
  5  6  1  0  0  0  0
  5 14  1  1  0  0  0
  6 21  1  6  0  0  0
  7 13  1  6  0  0  0
  7  6  1  0  0  0  0
  8  9  1  6  0  0  0
  8  7  1  0  0  0  0
 10 16  1  6  0  0  0
 11 10  1  0  0  0  0
 12 17  1  6  0  0  0
 12 11  1  0  0  0  0
 15  9  1  0  0  0  0
 22  8  1  0  0  0  0
 22  1  1  0  0  0  0
M  END
>  <CHROM.1>
-166.33425131,80.28129734,-60.81512646,-6.83829617,-0.80274747,0.28603308
1.80636182,-0.06995466,-2.65239914

>  <Name>
lig.pdb

>  <RI>
0

>  <Rbt.Current_Directory>
/home/itssahil/PROJECTS/Mol_Feturizer/New_Systems/rnas/5bws

>  <Rbt.Executable>
rbdock ($Id: //depot/dev/client3/rdock/2013.1/src/exe/rbdock.cxx#4 $)

>  <Rbt.Library>
libRbt.so (2013.1, Build901 2013/11/27)

>  <Rbt.Parameter_File>
/export/apps/rDock/src/rDock_2013.1_src/data/scripts/dock_solv.prm

>  <Rbt.Receptor>
prm/pocket_docking_3.prm

>  <SCORE>
-12.6745

>  <SCORE.INTER>
-10.941

>  <SCORE.INTER.CONST>
1

>  <SCORE.INTER.POLAR>
0

>  <SCORE.INTER.ROT>
3

>  <SCORE.INTER.SOLV>
17.3992

>  <SCORE.INTER.VDW>
-18.6937

>  <SCORE.INTER.norm>
-0.497318

>  <SCORE.INTRA>
-1.73351

>  <SCORE.INTRA.DIHEDRAL>
-3.37468

>  <SCORE.INTRA.DIHEDRAL.0>
6.10773

>  <SCORE.INTRA.POLAR>
0

>  <SCORE.INTRA.POLAR.0>
0

>  <SCORE.INTRA.REPUL>
0

>  <SCORE.INTRA.REPUL.0>
0

>  <SCORE.INTRA.SOLV>
-0.353661

>  <SCORE.INTRA.SOLV.lig_0>
-71.4024

>  <SCORE.INTRA.VDW>
0.130658

>  <SCORE.INTRA.VDW.0>
-1.86213

>  <SCORE.INTRA.norm>
-0.0787959

>  <SCORE.RESTR>
0

>  <SCORE.RESTR.CAVITY>
0

>  <SCORE.RESTR.norm>
0

>  <SCORE.SYSTEM>
0

>  <SCORE.SYSTEM.CONST>
0

>  <SCORE.SYSTEM.DIHEDRAL>
0

>  <SCORE.SYSTEM.SOLV>
0

>  <SCORE.SYSTEM.norm>
0

>  <SCORE.heavy>
22

>  <SCORE.norm>
-0.576114

>  <RMSD>
1.716

$$$$
lig.pdb
 OpenBabel11021811523D
libRbt.so/2013.1/901 2013/11/27
 22 23  0  0  0  0  0  0  0  0999 V2000
   -7.9598   -1.2287   -0.4836 C   0  0  1  0  0  0  0  0  0  0  0  0
   -6.3094    0.2528    0.7298 C   0  0  1  0  0  0  0  0  0  0  0  0
   -7.2096    1.4975    1.1509 C   0  0  1  0  0  0  0  0  0  0  0  0
   -6.2508    2.7617    1.3178 C   0  0  2  0  0  0  0  0  0  0  0  0
   -8.9539   -2.3863   -0.0814 C   0  0  1  0  0  0  0  0  0  0  0  0
   -8.1182   -3.6404    0.2430 C   0  0  2  0  0  0  0  0  0  0  0  0
   -7.3141   -4.0970   -0.9872 C   0  0  2  0  0  0  0  0  0  0  0  0
   -6.3214   -2.9758   -1.4666 C   0  0  1  0  0  0  0  0  0  0  0  0
   -5.5461   -3.4119   -2.7432 C   0  0  0  0  0  0  0  0  0  0  0  0
   -5.1942    2.4714    2.5016 C   0  0  1  0  0  0  0  0  0  0  0  0
   -4.3058    1.2091    2.0423 C   0  0  0  0  0  0  0  0  0  0  0  0
   -5.2476   -0.0641    1.8305 C   0  0  2  0  0  0  0  0  0  0  0  0
   -8.2254   -4.4300   -2.0881 F   0  0  0  0  0  0  0  0  0  0  0  0
   -9.7526   -1.9150    1.1159 N   0  0  0  0  0  0  0  0  0  0  0  0
   -4.7038   -4.5343   -2.5722 N   0  0  0  0  0  0  0  0  0  0  0  0
   -4.2555    3.6306    2.6858 N   0  0  0  0  0  0  0  0  0  0  0  0
   -4.4271   -1.2174    1.4079 N   0  0  0  0  0  0  0  0  0  0  0  0
   -7.1166   -0.9049    0.5771 O   0  0  0  0  0  0  0  0  0  0  0  0
   -8.1801    1.7485    0.0593 O   0  0  0  0  0  0  0  0  0  0  0  0
   -7.0634    3.8395    1.6772 O   0  0  0  0  0  0  0  0  0  0  0  0
   -8.8449   -4.4834    0.5337 O   0  0  0  0  0  0  0  0  0  0  0  0
   -7.1634   -1.7073   -1.6948 O   0  0  0  0  0  0  0  0  0  0  0  0
  1  5  1  0  0  0  0
  1 18  1  1  0  0  0
  2 18  1  1  0  0  0
  2  3  1  0  0  0  0
  2 12  1  0  0  0  0
  3 19  1  6  0  0  0
  3  4  1  0  0  0  0
  4 20  1  1  0  0  0
  4 10  1  0  0  0  0
  5  6  1  0  0  0  0
  5 14  1  1  0  0  0
  6 21  1  6  0  0  0
  7 13  1  6  0  0  0
  7  6  1  0  0  0  0
  8  9  1  6  0  0  0
  8  7  1  0  0  0  0
 10 16  1  6  0  0  0
 11 10  1  0  0  0  0
 12 17  1  6  0  0  0
 12 11  1  0  0  0  0
 15  9  1  0  0  0  0
 22  8  1  0  0  0  0
 22  1  1  0  0  0  0
M  END
>  <CHROM.1>
-164.41330819,76.62551992,-63.26241796,-6.79668537,-0.93265107,0.21638033
1.80026329,-0.11141146,-2.65500478

>  <Name>
lig.pdb

>  <RI>
0

>  <Rbt.Current_Directory>
/home/itssahil/PROJECTS/Mol_Feturizer/New_Systems/rnas/5bws

>  <Rbt.Executable>
rbdock ($Id: //depot/dev/client3/rdock/2013.1/src/exe/rbdock.cxx#4 $)

>  <Rbt.Library>
libRbt.so (2013.1, Build901 2013/11/27)

>  <Rbt.Parameter_File>
/export/apps/rDock/src/rDock_2013.1_src/data/scripts/dock_solv.prm

>  <Rbt.Receptor>
prm/pocket_docking_4.prm

>  <SCORE>
-12.682

>  <SCORE.INTER>
-10.7762

>  <SCORE.INTER.CONST>
1

>  <SCORE.INTER.POLAR>
0

>  <SCORE.INTER.ROT>
3

>  <SCORE.INTER.SOLV>
17.3971

>  <SCORE.INTER.VDW>
-18.5832

>  <SCORE.INTER.norm>
-0.489826

>  <SCORE.INTRA>
-1.90583

>  <SCORE.INTRA.DIHEDRAL>
-3.65338

>  <SCORE.INTRA.DIHEDRAL.0>
6.10773

>  <SCORE.INTRA.POLAR>
0

>  <SCORE.INTRA.POLAR.0>
0

>  <SCORE.INTRA.REPUL>
0

>  <SCORE.INTRA.REPUL.0>
0

>  <SCORE.INTRA.SOLV>
-0.518737

>  <SCORE.INTRA.SOLV.lig_0>
-71.4024

>  <SCORE.INTRA.VDW>
0.180229

>  <SCORE.INTRA.VDW.0>
-1.86213

>  <SCORE.INTRA.norm>
-0.0866286

>  <SCORE.RESTR>
0

>  <SCORE.RESTR.CAVITY>
0

>  <SCORE.RESTR.norm>
0

>  <SCORE.SYSTEM>
0

>  <SCORE.SYSTEM.CONST>
0

>  <SCORE.SYSTEM.DIHEDRAL>
0

>  <SCORE.SYSTEM.SOLV>
0

>  <SCORE.SYSTEM.norm>
0

>  <SCORE.heavy>
22

>  <SCORE.norm>
-0.576455

>  <RMSD>
1.718

$$$$
lig.pdb
 OpenBabel11021811523D
libRbt.so/2013.1/901 2013/11/27
 22 23  0  0  0  0  0  0  0  0999 V2000
   -8.0174   -1.0388   -0.3522 C   0  0  1  0  0  0  0  0  0  0  0  0
   -6.3320    0.4229    0.8369 C   0  0  1  0  0  0  0  0  0  0  0  0
   -7.2048    1.6876    1.2561 C   0  0  1  0  0  0  0  0  0  0  0  0
   -6.2210    2.9347    1.4044 C   0  0  2  0  0  0  0  0  0  0  0  0
   -8.9938   -2.2119    0.0488 C   0  0  1  0  0  0  0  0  0  0  0  0
   -8.1408   -3.4614    0.3440 C   0  0  2  0  0  0  0  0  0  0  0  0
   -7.3502   -3.8933   -0.9037 C   0  0  2  0  0  0  0  0  0  0  0  0
   -6.3760   -2.7557   -1.3823 C   0  0  1  0  0  0  0  0  0  0  0  0
   -5.6151   -3.1666   -2.6758 C   0  0  0  0  0  0  0  0  0  0  0  0
   -5.1593    2.6338    2.5810 C   0  0  1  0  0  0  0  0  0  0  0  0
   -4.2990    1.3514    2.1238 C   0  0  0  0  0  0  0  0  0  0  0  0
   -5.2664    0.0946    1.9305 C   0  0  2  0  0  0  0  0  0  0  0  0
   -8.2741   -4.2209   -1.9957 F   0  0  0  0  0  0  0  0  0  0  0  0
   -9.7796   -1.7648    1.2637 N   0  0  0  0  0  0  0  0  0  0  0  0
   -4.7721   -4.2929   -2.5364 N   0  0  0  0  0  0  0  0  0  0  0  0
   -4.1974    3.7764    2.7476 N   0  0  0  0  0  0  0  0  0  0  0  0
   -4.4715   -1.0773    1.5097 N   0  0  0  0  0  0  0  0  0  0  0  0
   -7.1621   -0.7205    0.7005 O   0  0  0  0  0  0  0  0  0  0  0  0
   -8.1802    1.9484    0.1712 O   0  0  0  0  0  0  0  0  0  0  0  0
   -7.0099    4.0304    1.7625 O   0  0  0  0  0  0  0  0  0  0  0  0
   -8.8546   -4.3158    0.6338 O   0  0  0  0  0  0  0  0  0  0  0  0
   -7.2340   -1.4930   -1.5811 O   0  0  0  0  0  0  0  0  0  0  0  0
  1  5  1  0  0  0  0
  1 18  1  1  0  0  0
  2 18  1  1  0  0  0
  2  3  1  0  0  0  0
  2 12  1  0  0  0  0
  3 19  1  6  0  0  0
  3  4  1  0  0  0  0
  4 20  1  1  0  0  0
  4 10  1  0  0  0  0
  5  6  1  0  0  0  0
  5 14  1  1  0  0  0
  6 21  1  6  0  0  0
  7 13  1  6  0  0  0
  7  6  1  0  0  0  0
  8  9  1  6  0  0  0
  8  7  1  0  0  0  0
 10 16  1  6  0  0  0
 11 10  1  0  0  0  0
 12 17  1  6  0  0  0
 12 11  1  0  0  0  0
 15  9  1  0  0  0  0
 22  8  1  0  0  0  0
 22  1  1  0  0  0  0
M  END
>  <CHROM.1>
-166.63736812,76.86516529,-62.49005585,-6.81736446,-0.74774368,0.31339371
1.81423874,-0.12803401,-2.64906582

>  <Name>
lig.pdb

>  <RI>
0

>  <Rbt.Current_Directory>
/home/itssahil/PROJECTS/Mol_Feturizer/New_Systems/rnas/5bws

>  <Rbt.Executable>
rbdock ($Id: //depot/dev/client3/rdock/2013.1/src/exe/rbdock.cxx#4 $)

>  <Rbt.Library>
libRbt.so (2013.1, Build901 2013/11/27)

>  <Rbt.Parameter_File>
/export/apps/rDock/src/rDock_2013.1_src/data/scripts/dock_solv.prm

>  <Rbt.Receptor>
prm/pocket_docking_3.prm

>  <SCORE>
-12.6502

>  <SCORE.INTER>
-10.591

>  <SCORE.INTER.CONST>
1

>  <SCORE.INTER.POLAR>
0

>  <SCORE.INTER.ROT>
3

>  <SCORE.INTER.SOLV>
17.6825

>  <SCORE.INTER.VDW>
-18.5548

>  <SCORE.INTER.norm>
-0.481409

>  <SCORE.INTRA>
-2.05923

>  <SCORE.INTRA.DIHEDRAL>
-3.92273

>  <SCORE.INTRA.DIHEDRAL.0>
6.10773

>  <SCORE.INTRA.POLAR>
0

>  <SCORE.INTRA.POLAR.0>
0

>  <SCORE.INTRA.REPUL>
0

>  <SCORE.INTRA.REPUL.0>
0

>  <SCORE.INTRA.SOLV>
-0.548902

>  <SCORE.INTRA.SOLV.lig_0>
-71.4024

>  <SCORE.INTRA.VDW>
0.176589

>  <SCORE.INTRA.VDW.0>
-1.86213

>  <SCORE.INTRA.norm>
-0.0936012

>  <SCORE.RESTR>
0

>  <SCORE.RESTR.CAVITY>
0

>  <SCORE.RESTR.norm>
0

>  <SCORE.SYSTEM>
0

>  <SCORE.SYSTEM.CONST>
0

>  <SCORE.SYSTEM.DIHEDRAL>
0

>  <SCORE.SYSTEM.SOLV>
0

>  <SCORE.SYSTEM.norm>
0

>  <SCORE.heavy>
22

>  <SCORE.norm>
-0.57501

>  <RMSD>
1.721

$$$$
lig.pdb
 OpenBabel11021811523D
libRbt.so/2013.1/901 2013/11/27
 22 23  0  0  0  0  0  0  0  0999 V2000
   -7.7819   -1.2438   -0.6353 C   0  0  1  0  0  0  0  0  0  0  0  0
   -6.2861    0.2723    0.7268 C   0  0  1  0  0  0  0  0  0  0  0  0
   -7.1905    1.5328    1.0876 C   0  0  1  0  0  0  0  0  0  0  0  0
   -6.2233    2.7807    1.3164 C   0  0  2  0  0  0  0  0  0  0  0  0
   -8.8619   -2.3512   -0.3235 C   0  0  1  0  0  0  0  0  0  0  0  0
   -8.1257   -3.6002    0.2004 C   0  0  2  0  0  0  0  0  0  0  0  0
   -7.1576   -4.1519   -0.8611 C   0  0  2  0  0  0  0  0  0  0  0  0
   -6.0682   -3.0857   -1.2470 C   0  0  1  0  0  0  0  0  0  0  0  0
   -5.1208   -3.6192   -2.3599 C   0  0  0  0  0  0  0  0  0  0  0  0
   -5.2515    2.4742    2.5670 C   0  0  1  0  0  0  0  0  0  0  0  0
   -4.3567    1.1963    2.1673 C   0  0  0  0  0  0  0  0  0  0  0  0
   -5.3042   -0.0610    1.8948 C   0  0  2  0  0  0  0  0  0  0  0  0
   -7.8996   -4.5342   -2.0679 F   0  0  0  0  0  0  0  0  0  0  0  0
   -9.8192   -1.7871    0.7055 N   0  0  0  0  0  0  0  0  0  0  0  0
   -5.7641   -3.9734   -3.5679 N   0  0  0  0  0  0  0  0  0  0  0  0
   -4.3072    3.6175    2.8118 N   0  0  0  0  0  0  0  0  0  0  0  0
   -4.4776   -1.2288    1.5272 N   0  0  0  0  0  0  0  0  0  0  0  0
   -7.1012   -0.8717    0.5220 O   0  0  0  0  0  0  0  0  0  0  0  0
   -8.0830    1.7987   -0.0653 O   0  0  0  0  0  0  0  0  0  0  0  0
   -7.0391    3.8727    1.6215 O   0  0  0  0  0  0  0  0  0  0  0  0
   -8.9147   -4.4068    0.4248 O   0  0  0  0  0  0  0  0  0  0  0  0
   -6.8249   -1.8160   -1.6778 O   0  0  0  0  0  0  0  0  0  0  0  0
  1  5  1  0  0  0  0
  1 18  1  1  0  0  0
  2 18  1  1  0  0  0
  2  3  1  0  0  0  0
  2 12  1  0  0  0  0
  3 19  1  6  0  0  0
  3  4  1  0  0  0  0
  4 20  1  1  0  0  0
  4 10  1  0  0  0  0
  5  6  1  0  0  0  0
  5 14  1  1  0  0  0
  6 21  1  6  0  0  0
  7 13  1  6  0  0  0
  7  6  1  0  0  0  0
  8  9  1  6  0  0  0
  8  7  1  0  0  0  0
 10 16  1  6  0  0  0
 11 10  1  0  0  0  0
 12 17  1  6  0  0  0
 12 11  1  0  0  0  0
 15  9  1  0  0  0  0
 22  8  1  0  0  0  0
 22  1  1  0  0  0  0
M  END
>  <CHROM.1>
-164.71209700,83.02063082,59.50630904,-6.76830383,-0.91583045,0.17054945
1.79371986,-0.09355293,-2.63741232

>  <Name>
lig.pdb

>  <RI>
0

>  <Rbt.Current_Directory>
/home/itssahil/PROJECTS/Mol_Feturizer/New_Systems/rnas/5bws

>  <Rbt.Executable>
rbdock ($Id: //depot/dev/client3/rdock/2013.1/src/exe/rbdock.cxx#4 $)

>  <Rbt.Library>
libRbt.so (2013.1, Build901 2013/11/27)

>  <Rbt.Parameter_File>
/export/apps/rDock/src/rDock_2013.1_src/data/scripts/dock_solv.prm

>  <Rbt.Receptor>
prm/pocket_docking_3.prm

>  <SCORE>
-9.91284

>  <SCORE.INTER>
-9.14662

>  <SCORE.INTER.CONST>
1

>  <SCORE.INTER.POLAR>
0

>  <SCORE.INTER.ROT>
3

>  <SCORE.INTER.SOLV>
22.2712

>  <SCORE.INTER.VDW>
-19.1215

>  <SCORE.INTER.norm>
-0.415755

>  <SCORE.INTRA>
-0.766219

>  <SCORE.INTRA.DIHEDRAL>
-2.69897

>  <SCORE.INTRA.DIHEDRAL.0>
6.10773

>  <SCORE.INTRA.POLAR>
0

>  <SCORE.INTRA.POLAR.0>
0

>  <SCORE.INTRA.REPUL>
0

>  <SCORE.INTRA.REPUL.0>
0

>  <SCORE.INTRA.SOLV>
1.0565

>  <SCORE.INTRA.SOLV.lig_0>
-71.4024

>  <SCORE.INTRA.VDW>
0.0550174

>  <SCORE.INTRA.VDW.0>
-1.86213

>  <SCORE.INTRA.norm>
-0.0348281

>  <SCORE.RESTR>
0

>  <SCORE.RESTR.CAVITY>
0

>  <SCORE.RESTR.norm>
0

>  <SCORE.SYSTEM>
0

>  <SCORE.SYSTEM.CONST>
0

>  <SCORE.SYSTEM.DIHEDRAL>
0

>  <SCORE.SYSTEM.SOLV>
0

>  <SCORE.SYSTEM.norm>
0

>  <SCORE.heavy>
22

>  <SCORE.norm>
-0.450584

>  <RMSD>
1.726

$$$$
lig.pdb
 OpenBabel11021811523D
libRbt.so/2013.1/901 2013/11/27
 22 23  0  0  0  0  0  0  0  0999 V2000
   -8.0068   -1.1096   -0.4139 C   0  0  1  0  0  0  0  0  0  0  0  0
   -6.3636    0.3632    0.8198 C   0  0  1  0  0  0  0  0  0  0  0  0
   -7.2417    1.6241    1.2398 C   0  0  1  0  0  0  0  0  0  0  0  0
   -6.2605    2.8708    1.4073 C   0  0  2  0  0  0  0  0  0  0  0  0
   -9.0014   -2.2748   -0.0354 C   0  0  1  0  0  0  0  0  0  0  0  0
   -8.1641   -3.5226    0.3084 C   0  0  2  0  0  0  0  0  0  0  0  0
   -7.3278   -3.9727   -0.9026 C   0  0  2  0  0  0  0  0  0  0  0  0
   -6.3325   -2.8439   -1.3582 C   0  0  1  0  0  0  0  0  0  0  0  0
   -5.5241   -3.2737   -2.6162 C   0  0  0  0  0  0  0  0  0  0  0  0
   -5.2103    2.5618    2.5921 C   0  0  1  0  0  0  0  0  0  0  0  0
   -4.3444    1.2836    2.1340 C   0  0  0  0  0  0  0  0  0  0  0  0
   -5.3088    0.0275    1.9215 C   0  0  2  0  0  0  0  0  0  0  0  0
   -8.2103   -4.3122   -2.0247 F   0  0  0  0  0  0  0  0  0  0  0  0
   -9.8316   -1.8099    1.1428 N   0  0  0  0  0  0  0  0  0  0  0  0
   -4.6970   -4.4054   -2.4326 N   0  0  0  0  0  0  0  0  0  0  0  0
   -4.2511    3.7040    2.7770 N   0  0  0  0  0  0  0  0  0  0  0  0
   -4.5087   -1.1405    1.4999 N   0  0  0  0  0  0  0  0  0  0  0  0
   -7.1914   -0.7798    0.6666 O   0  0  0  0  0  0  0  0  0  0  0  0
   -8.2064    1.8922    0.1472 O   0  0  0  0  0  0  0  0  0  0  0  0
   -7.0538    3.9631    1.7657 O   0  0  0  0  0  0  0  0  0  0  0  0
   -8.8911   -4.3712    0.5817 O   0  0  0  0  0  0  0  0  0  0  0  0
   -7.1784   -1.5817   -1.6059 O   0  0  0  0  0  0  0  0  0  0  0  0
  1  5  1  0  0  0  0
  1 18  1  1  0  0  0
  2 18  1  1  0  0  0
  2  3  1  0  0  0  0
  2 12  1  0  0  0  0
  3 19  1  6  0  0  0
  3  4  1  0  0  0  0
  4 20  1  1  0  0  0
  4 10  1  0  0  0  0
  5  6  1  0  0  0  0
  5 14  1  1  0  0  0
  6 21  1  6  0  0  0
  7 13  1  6  0  0  0
  7  6  1  0  0  0  0
  8  9  1  6  0  0  0
  8  7  1  0  0  0  0
 10 16  1  6  0  0  0
 11 10  1  0  0  0  0
 12 17  1  6  0  0  0
 12 11  1  0  0  0  0
 15  9  1  0  0  0  0
 22  8  1  0  0  0  0
 22  1  1  0  0  0  0
M  END
>  <CHROM.1>
-166.63231078,78.87113215,-62.10288597,-6.82506930,-0.81954046,0.30045327
1.80092622,-0.09855453,-2.65775221

>  <Name>
lig.pdb

>  <RI>
0

>  <Rbt.Current_Directory>
/home/itssahil/PROJECTS/Mol_Feturizer/New_Systems/rnas/5bws

>  <Rbt.Executable>
rbdock ($Id: //depot/dev/client3/rdock/2013.1/src/exe/rbdock.cxx#4 $)

>  <Rbt.Library>
libRbt.so (2013.1, Build901 2013/11/27)

>  <Rbt.Parameter_File>
/export/apps/rDock/src/rDock_2013.1_src/data/scripts/dock_solv.prm

>  <Rbt.Receptor>
prm/pocket_docking_3.prm

>  <SCORE>
-12.7046

>  <SCORE.INTER>
-10.8134

>  <SCORE.INTER.CONST>
1

>  <SCORE.INTER.POLAR>
0

>  <SCORE.INTER.ROT>
3

>  <SCORE.INTER.SOLV>
17.5243

>  <SCORE.INTER.VDW>
-18.6504

>  <SCORE.INTER.norm>
-0.491517

>  <SCORE.INTRA>
-1.89124

>  <SCORE.INTRA.DIHEDRAL>
-3.62451

>  <SCORE.INTRA.DIHEDRAL.0>
6.10773

>  <SCORE.INTRA.POLAR>
0

>  <SCORE.INTRA.POLAR.0>
0

>  <SCORE.INTRA.REPUL>
0

>  <SCORE.INTRA.REPUL.0>
0

>  <SCORE.INTRA.SOLV>
-0.452275

>  <SCORE.INTRA.SOLV.lig_0>
-71.4024

>  <SCORE.INTRA.VDW>
0.147159

>  <SCORE.INTRA.VDW.0>
-1.86213

>  <SCORE.INTRA.norm>
-0.0859653

>  <SCORE.RESTR>
0

>  <SCORE.RESTR.CAVITY>
0

>  <SCORE.RESTR.norm>
0

>  <SCORE.SYSTEM>
0

>  <SCORE.SYSTEM.CONST>
0

>  <SCORE.SYSTEM.DIHEDRAL>
0

>  <SCORE.SYSTEM.SOLV>
0

>  <SCORE.SYSTEM.norm>
0

>  <SCORE.heavy>
22

>  <SCORE.norm>
-0.577482

>  <RMSD>
1.731

$$$$
lig.pdb
 OpenBabel11021811523D
libRbt.so/2013.1/901 2013/11/27
 22 23  0  0  0  0  0  0  0  0999 V2000
   -7.9954   -1.0668   -0.4730 C   0  0  1  0  0  0  0  0  0  0  0  0
   -6.3632    0.3953    0.7877 C   0  0  1  0  0  0  0  0  0  0  0  0
   -7.2457    1.6520    1.2106 C   0  0  1  0  0  0  0  0  0  0  0  0
   -6.2667    2.8977    1.3979 C   0  0  2  0  0  0  0  0  0  0  0  0
   -9.0142   -2.2139   -0.1038 C   0  0  1  0  0  0  0  0  0  0  0  0
   -8.2024   -3.4742    0.2552 C   0  0  2  0  0  0  0  0  0  0  0  0
   -7.3577   -3.9425   -0.9430 C   0  0  2  0  0  0  0  0  0  0  0  0
   -6.3379   -2.8321   -1.3892 C   0  0  1  0  0  0  0  0  0  0  0  0
   -5.5202   -3.2797   -2.6350 C   0  0  0  0  0  0  0  0  0  0  0  0
   -5.2272    2.5790    2.5895 C   0  0  1  0  0  0  0  0  0  0  0  0
   -4.3564    1.3052    2.1281 C   0  0  0  0  0  0  0  0  0  0  0  0
   -5.3182    0.0506    1.8960 C   0  0  2  0  0  0  0  0  0  0  0  0
   -8.2309   -4.2713   -2.0756 F   0  0  0  0  0  0  0  0  0  0  0  0
   -9.8520   -1.7311    1.0617 N   0  0  0  0  0  0  0  0  0  0  0  0
   -4.7136   -4.4236   -2.4363 N   0  0  0  0  0  0  0  0  0  0  0  0
   -4.2704    3.7199    2.7930 N   0  0  0  0  0  0  0  0  0  0  0  0
   -4.5136   -1.1134    1.4715 N   0  0  0  0  0  0  0  0  0  0  0  0
   -7.1888   -0.7467    0.6170 O   0  0  0  0  0  0  0  0  0  0  0  0
   -8.2006    1.9292    0.1117 O   0  0  0  0  0  0  0  0  0  0  0  0
   -7.0639    3.9865    1.7586 O   0  0  0  0  0  0  0  0  0  0  0  0
   -8.9470   -4.3097    0.5218 O   0  0  0  0  0  0  0  0  0  0  0  0
   -7.1593   -1.5569   -1.6524 O   0  0  0  0  0  0  0  0  0  0  0  0
  1  5  1  0  0  0  0
  1 18  1  1  0  0  0
  2 18  1  1  0  0  0
  2  3  1  0  0  0  0
  2 12  1  0  0  0  0
  3 19  1  6  0  0  0
  3  4  1  0  0  0  0
  4 20  1  1  0  0  0
  4 10  1  0  0  0  0
  5  6  1  0  0  0  0
  5 14  1  1  0  0  0
  6 21  1  6  0  0  0
  7 13  1  6  0  0  0
  7  6  1  0  0  0  0
  8  9  1  6  0  0  0
  8  7  1  0  0  0  0
 10 16  1  6  0  0  0
 11 10  1  0  0  0  0
 12 17  1  6  0  0  0
 12 11  1  0  0  0  0
 15  9  1  0  0  0  0
 22  8  1  0  0  0  0
 22  1  1  0  0  0  0
M  END
>  <CHROM.1>
-165.35880443,78.79689243,-62.16070205,-6.83599305,-0.78918406,0.26719791
1.80025162,-0.08033680,-2.65616857

>  <Name>
lig.pdb

>  <RI>
0

>  <Rbt.Current_Directory>
/home/itssahil/PROJECTS/Mol_Feturizer/New_Systems/rnas/5bws

>  <Rbt.Executable>
rbdock ($Id: //depot/dev/client3/rdock/2013.1/src/exe/rbdock.cxx#4 $)

>  <Rbt.Library>
libRbt.so (2013.1, Build901 2013/11/27)

>  <Rbt.Parameter_File>
/export/apps/rDock/src/rDock_2013.1_src/data/scripts/dock_solv.prm

>  <Rbt.Receptor>
prm/pocket_docking_3.prm

>  <SCORE>
-12.7224

>  <SCORE.INTER>
-10.922

>  <SCORE.INTER.CONST>
1

>  <SCORE.INTER.POLAR>
0

>  <SCORE.INTER.ROT>
3

>  <SCORE.INTER.SOLV>
17.3382

>  <SCORE.INTER.VDW>
-18.6607

>  <SCORE.INTER.norm>
-0.496454

>  <SCORE.INTRA>
-1.80036

>  <SCORE.INTRA.DIHEDRAL>
-3.47467

>  <SCORE.INTRA.DIHEDRAL.0>
6.10773

>  <SCORE.INTRA.POLAR>
0

>  <SCORE.INTRA.POLAR.0>
0

>  <SCORE.INTRA.REPUL>
0

>  <SCORE.INTRA.REPUL.0>
0

>  <SCORE.INTRA.SOLV>
-0.4247

>  <SCORE.INTRA.SOLV.lig_0>
-71.4024

>  <SCORE.INTRA.VDW>
0.149324

>  <SCORE.INTRA.VDW.0>
-1.86213

>  <SCORE.INTRA.norm>
-0.0818346

>  <SCORE.RESTR>
0

>  <SCORE.RESTR.CAVITY>
0

>  <SCORE.RESTR.norm>
0

>  <SCORE.SYSTEM>
0

>  <SCORE.SYSTEM.CONST>
0

>  <SCORE.SYSTEM.DIHEDRAL>
0

>  <SCORE.SYSTEM.SOLV>
0

>  <SCORE.SYSTEM.norm>
0

>  <SCORE.heavy>
22

>  <SCORE.norm>
-0.578289

>  <RMSD>
1.732

$$$$
lig.pdb
 OpenBabel11021811523D
libRbt.so/2013.1/901 2013/11/27
 22 23  0  0  0  0  0  0  0  0999 V2000
   -8.0779   -1.0611   -0.2872 C   0  0  1  0  0  0  0  0  0  0  0  0
   -6.3648    0.3942    0.8698 C   0  0  1  0  0  0  0  0  0  0  0  0
   -7.2222    1.6637    1.3059 C   0  0  1  0  0  0  0  0  0  0  0  0
   -6.2288    2.9055    1.4341 C   0  0  2  0  0  0  0  0  0  0  0  0
   -9.0474   -2.2344    0.1295 C   0  0  1  0  0  0  0  0  0  0  0  0
   -8.1896   -3.4848    0.4073 C   0  0  2  0  0  0  0  0  0  0  0  0
   -7.4218   -3.9149   -0.8552 C   0  0  2  0  0  0  0  0  0  0  0  0
   -6.4560   -2.7768   -1.3494 C   0  0  1  0  0  0  0  0  0  0  0  0
   -5.7187   -3.1860   -2.6571 C   0  0  0  0  0  0  0  0  0  0  0  0
   -5.1455    2.5991    2.5894 C   0  0  1  0  0  0  0  0  0  0  0  0
   -4.3015    1.3119    2.1156 C   0  0  0  0  0  0  0  0  0  0  0  0
   -5.2794    0.0604    1.9421 C   0  0  2  0  0  0  0  0  0  0  0  0
   -8.3654   -4.2404   -1.9308 F   0  0  0  0  0  0  0  0  0  0  0  0
   -9.8109   -1.7890    1.3591 N   0  0  0  0  0  0  0  0  0  0  0  0
   -4.8369   -4.2828   -2.5233 N   0  0  0  0  0  0  0  0  0  0  0  0
   -4.1743    3.7365    2.7364 N   0  0  0  0  0  0  0  0  0  0  0  0
   -4.4994   -1.1159    1.5059 N   0  0  0  0  0  0  0  0  0  0  0  0
   -7.2037   -0.7447    0.7505 O   0  0  0  0  0  0  0  0  0  0  0  0
   -8.2176    1.9295    0.2406 O   0  0  0  0  0  0  0  0  0  0  0  0
   -7.0045    4.0055    1.8075 O   0  0  0  0  0  0  0  0  0  0  0  0
   -8.8984   -4.3393    0.7086 O   0  0  0  0  0  0  0  0  0  0  0  0
   -7.3170   -1.5135   -1.5307 O   0  0  0  0  0  0  0  0  0  0  0  0
  1  5  1  0  0  0  0
  1 18  1  1  0  0  0
  2 18  1  1  0  0  0
  2  3  1  0  0  0  0
  2 12  1  0  0  0  0
  3 19  1  6  0  0  0
  3  4  1  0  0  0  0
  4 20  1  1  0  0  0
  4 10  1  0  0  0  0
  5  6  1  0  0  0  0
  5 14  1  1  0  0  0
  6 21  1  6  0  0  0
  7 13  1  6  0  0  0
  7  6  1  0  0  0  0
  8  9  1  6  0  0  0
  8  7  1  0  0  0  0
 10 16  1  6  0  0  0
 11 10  1  0  0  0  0
 12 17  1  6  0  0  0
 12 11  1  0  0  0  0
 15  9  1  0  0  0  0
 22  8  1  0  0  0  0
 22  1  1  0  0  0  0
M  END
>  <CHROM.1>
-167.05576774,77.11993895,-64.67490253,-6.85784149,-0.77229609,0.35433821
1.82661334,-0.14464422,-2.64696253

>  <Name>
lig.pdb

>  <RI>
0

>  <Rbt.Current_Directory>
/home/itssahil/PROJECTS/Mol_Feturizer/New_Systems/rnas/5bws

>  <Rbt.Executable>
rbdock ($Id: //depot/dev/client3/rdock/2013.1/src/exe/rbdock.cxx#4 $)

>  <Rbt.Library>
libRbt.so (2013.1, Build901 2013/11/27)

>  <Rbt.Parameter_File>
/export/apps/rDock/src/rDock_2013.1_src/data/scripts/dock_solv.prm

>  <Rbt.Receptor>
prm/pocket_docking_3.prm

>  <SCORE>
-12.7053

>  <SCORE.INTER>
-10.6346

>  <SCORE.INTER.CONST>
1

>  <SCORE.INTER.POLAR>
0

>  <SCORE.INTER.ROT>
3

>  <SCORE.INTER.SOLV>
17.8946

>  <SCORE.INTER.VDW>
-18.6546

>  <SCORE.INTER.norm>
-0.483392

>  <SCORE.INTRA>
-2.07065

>  <SCORE.INTRA.DIHEDRAL>
-3.87908

>  <SCORE.INTRA.DIHEDRAL.0>
6.10773

>  <SCORE.INTRA.POLAR>
0

>  <SCORE.INTRA.POLAR.0>
0

>  <SCORE.INTRA.REPUL>
0

>  <SCORE.INTRA.REPUL.0>
0

>  <SCORE.INTRA.SOLV>
-0.596274

>  <SCORE.INTRA.SOLV.lig_0>
-71.4024

>  <SCORE.INTRA.VDW>
0.167022

>  <SCORE.INTRA.VDW.0>
-1.86213

>  <SCORE.INTRA.norm>
-0.0941207

>  <SCORE.RESTR>
0

>  <SCORE.RESTR.CAVITY>
0

>  <SCORE.RESTR.norm>
0

>  <SCORE.SYSTEM>
0

>  <SCORE.SYSTEM.CONST>
0

>  <SCORE.SYSTEM.DIHEDRAL>
0

>  <SCORE.SYSTEM.SOLV>
0

>  <SCORE.SYSTEM.norm>
0

>  <SCORE.heavy>
22

>  <SCORE.norm>
-0.577513

>  <RMSD>
1.735

$$$$
lig.pdb
 OpenBabel11021811523D
libRbt.so/2013.1/901 2013/11/27
 22 23  0  0  0  0  0  0  0  0999 V2000
   -8.0176   -1.1467   -0.4634 C   0  0  1  0  0  0  0  0  0  0  0  0
   -6.3846    0.3207    0.7901 C   0  0  1  0  0  0  0  0  0  0  0  0
   -7.2587    1.5702    1.2504 C   0  0  1  0  0  0  0  0  0  0  0  0
   -6.2777    2.8156    1.4288 C   0  0  2  0  0  0  0  0  0  0  0  0
   -9.0122   -2.3167   -0.0999 C   0  0  1  0  0  0  0  0  0  0  0  0
   -8.1744   -3.5642    0.2438 C   0  0  2  0  0  0  0  0  0  0  0  0
   -7.3267   -4.0052   -0.9626 C   0  0  2  0  0  0  0  0  0  0  0  0
   -6.3307   -2.8712   -1.4034 C   0  0  1  0  0  0  0  0  0  0  0  0
   -5.5106   -3.2916   -2.6571 C   0  0  0  0  0  0  0  0  0  0  0  0
   -5.2083    2.4843    2.5902 C   0  0  1  0  0  0  0  0  0  0  0  0
   -4.3469    1.2182    2.0915 C   0  0  0  0  0  0  0  0  0  0  0  0
   -5.3117   -0.0355    1.8677 C   0  0  2  0  0  0  0  0  0  0  0  0
   -8.1988   -4.3406   -2.0940 F   0  0  0  0  0  0  0  0  0  0  0  0
   -9.8535   -1.8607    1.0739 N   0  0  0  0  0  0  0  0  0  0  0  0
   -4.7039   -4.4391   -2.4815 N   0  0  0  0  0  0  0  0  0  0  0  0
   -4.2488    3.6247    2.7840 N   0  0  0  0  0  0  0  0  0  0  0  0
   -4.5158   -1.1923    1.4089 N   0  0  0  0  0  0  0  0  0  0  0  0
   -7.2121   -0.8209    0.6257 O   0  0  0  0  0  0  0  0  0  0  0  0
   -8.2411    1.8589    0.1790 O   0  0  0  0  0  0  0  0  0  0  0  0
   -7.0677    3.8980    1.8227 O   0  0  0  0  0  0  0  0  0  0  0  0
   -8.9013   -4.4163    0.5062 O   0  0  0  0  0  0  0  0  0  0  0  0
   -7.1780   -1.6099   -1.6511 O   0  0  0  0  0  0  0  0  0  0  0  0
  1  5  1  0  0  0  0
  1 18  1  1  0  0  0
  2 18  1  1  0  0  0
  2  3  1  0  0  0  0
  2 12  1  0  0  0  0
  3 19  1  6  0  0  0
  3  4  1  0  0  0  0
  4 20  1  1  0  0  0
  4 10  1  0  0  0  0
  5  6  1  0  0  0  0
  5 14  1  1  0  0  0
  6 21  1  6  0  0  0
  7 13  1  6  0  0  0
  7  6  1  0  0  0  0
  8  9  1  6  0  0  0
  8  7  1  0  0  0  0
 10 16  1  6  0  0  0
 11 10  1  0  0  0  0
 12 17  1  6  0  0  0
 12 11  1  0  0  0  0
 15  9  1  0  0  0  0
 22  8  1  0  0  0  0
 22  1  1  0  0  0  0
M  END
>  <CHROM.1>
-166.91486541,80.67252320,-60.81028961,-6.83295534,-0.86513606,0.26577750
1.79862533,-0.09767201,-2.64810076

>  <Name>
lig.pdb

>  <RI>
0

>  <Rbt.Current_Directory>
/home/itssahil/PROJECTS/Mol_Feturizer/New_Systems/rnas/5bws

>  <Rbt.Executable>
rbdock ($Id: //depot/dev/client3/rdock/2013.1/src/exe/rbdock.cxx#4 $)

>  <Rbt.Library>
libRbt.so (2013.1, Build901 2013/11/27)

>  <Rbt.Parameter_File>
/export/apps/rDock/src/rDock_2013.1_src/data/scripts/dock_solv.prm

>  <Rbt.Receptor>
prm/pocket_docking_3.prm

>  <SCORE>
-12.7131

>  <SCORE.INTER>
-10.9765

>  <SCORE.INTER.CONST>
1

>  <SCORE.INTER.POLAR>
0

>  <SCORE.INTER.ROT>
3

>  <SCORE.INTER.SOLV>
17.6069

>  <SCORE.INTER.VDW>
-18.7866

>  <SCORE.INTER.norm>
-0.498932

>  <SCORE.INTRA>
-1.73657

>  <SCORE.INTRA.DIHEDRAL>
-3.3805

>  <SCORE.INTRA.DIHEDRAL.0>
6.10773

>  <SCORE.INTRA.POLAR>
0

>  <SCORE.INTRA.POLAR.0>
0

>  <SCORE.INTRA.REPUL>
0

>  <SCORE.INTRA.REPUL.0>
0

>  <SCORE.INTRA.SOLV>
-0.341596

>  <SCORE.INTRA.SOLV.lig_0>
-71.4024

>  <SCORE.INTRA.VDW>
0.124479

>  <SCORE.INTRA.VDW.0>
-1.86213

>  <SCORE.INTRA.norm>
-0.0789349

>  <SCORE.RESTR>
0

>  <SCORE.RESTR.CAVITY>
0

>  <SCORE.RESTR.norm>
0

>  <SCORE.SYSTEM>
0

>  <SCORE.SYSTEM.CONST>
0

>  <SCORE.SYSTEM.DIHEDRAL>
0

>  <SCORE.SYSTEM.SOLV>
0

>  <SCORE.SYSTEM.norm>
0

>  <SCORE.heavy>
22

>  <SCORE.norm>
-0.577867

>  <RMSD>
1.736

$$$$
lig.pdb
 OpenBabel11021811523D
libRbt.so/2013.1/901 2013/11/27
 22 23  0  0  0  0  0  0  0  0999 V2000
   -7.9943   -1.2774   -0.5262 C   0  0  1  0  0  0  0  0  0  0  0  0
   -6.3507    0.1947    0.7078 C   0  0  1  0  0  0  0  0  0  0  0  0
   -7.2470    1.4343    1.1518 C   0  0  1  0  0  0  0  0  0  0  0  0
   -6.2859    2.6950    1.3308 C   0  0  2  0  0  0  0  0  0  0  0  0
   -9.0089   -2.4196   -0.1311 C   0  0  1  0  0  0  0  0  0  0  0  0
   -8.1943   -3.6832    0.2095 C   0  0  2  0  0  0  0  0  0  0  0  0
   -7.3811   -4.1564   -1.0084 C   0  0  2  0  0  0  0  0  0  0  0  0
   -6.3675   -3.0510   -1.4804 C   0  0  1  0  0  0  0  0  0  0  0  0
   -5.5823   -3.5036   -2.7452 C   0  0  0  0  0  0  0  0  0  0  0  0
   -5.2226    2.3869    2.5041 C   0  0  1  0  0  0  0  0  0  0  0  0
   -4.3383    1.1303    2.0218 C   0  0  0  0  0  0  0  0  0  0  0  0
   -5.2828   -0.1388    1.7976 C   0  0  2  0  0  0  0  0  0  0  0  0
   -8.2830   -4.4824   -2.1190 F   0  0  0  0  0  0  0  0  0  0  0  0
   -9.8160   -1.9318    1.0539 N   0  0  0  0  0  0  0  0  0  0  0  0
   -4.7260   -4.6110   -2.5479 N   0  0  0  0  0  0  0  0  0  0  0  0
   -4.2815    3.5424    2.6991 N   0  0  0  0  0  0  0  0  0  0  0  0
   -4.4660   -1.2869    1.3539 N   0  0  0  0  0  0  0  0  0  0  0  0
   -7.1601   -0.9598    0.5436 O   0  0  0  0  0  0  0  0  0  0  0  0
   -8.2236    1.7017    0.0696 O   0  0  0  0  0  0  0  0  0  0  0  0
   -7.0951    3.7684    1.7103 O   0  0  0  0  0  0  0  0  0  0  0  0
   -8.9359   -4.5150    0.4950 O   0  0  0  0  0  0  0  0  0  0  0  0
   -7.1893   -1.7724   -1.7250 O   0  0  0  0  0  0  0  0  0  0  0  0
  1  5  1  0  0  0  0
  1 18  1  1  0  0  0
  2 18  1  1  0  0  0
  2  3  1  0  0  0  0
  2 12  1  0  0  0  0
  3 19  1  6  0  0  0
  3  4  1  0  0  0  0
  4 20  1  1  0  0  0
  4 10  1  0  0  0  0
  5  6  1  0  0  0  0
  5 14  1  1  0  0  0
  6 21  1  6  0  0  0
  7 13  1  6  0  0  0
  7  6  1  0  0  0  0
  8  9  1  6  0  0  0
  8  7  1  0  0  0  0
 10 16  1  6  0  0  0
 11 10  1  0  0  0  0
 12 17  1  6  0  0  0
 12 11  1  0  0  0  0
 15  9  1  0  0  0  0
 22  8  1  0  0  0  0
 22  1  1  0  0  0  0
M  END
>  <CHROM.1>
-163.64177850,77.70482466,-65.12595230,-6.84098561,-0.99366409,0.19869550
1.80220068,-0.09871528,-2.65291535

>  <Name>
lig.pdb

>  <RI>
0

>  <Rbt.Current_Directory>
/home/itssahil/PROJECTS/Mol_Feturizer/New_Systems/rnas/5bws

>  <Rbt.Executable>
rbdock ($Id: //depot/dev/client3/rdock/2013.1/src/exe/rbdock.cxx#4 $)

>  <Rbt.Library>
libRbt.so (2013.1, Build901 2013/11/27)

>  <Rbt.Parameter_File>
/export/apps/rDock/src/rDock_2013.1_src/data/scripts/dock_solv.prm

>  <Rbt.Receptor>
prm/pocket_docking_3.prm

>  <SCORE>
-12.6844

>  <SCORE.INTER>
-10.9327

>  <SCORE.INTER.CONST>
1

>  <SCORE.INTER.POLAR>
0

>  <SCORE.INTER.ROT>
3

>  <SCORE.INTER.SOLV>
17.5078

>  <SCORE.INTER.VDW>
-18.7244

>  <SCORE.INTER.norm>
-0.496942

>  <SCORE.INTRA>
-1.75164

>  <SCORE.INTRA.DIHEDRAL>
-3.33012

>  <SCORE.INTRA.DIHEDRAL.0>
6.10773

>  <SCORE.INTRA.POLAR>
0

>  <SCORE.INTRA.POLAR.0>
0

>  <SCORE.INTRA.REPUL>
0

>  <SCORE.INTRA.REPUL.0>
0

>  <SCORE.INTRA.SOLV>
-0.492922

>  <SCORE.INTRA.SOLV.lig_0>
-71.4024

>  <SCORE.INTRA.VDW>
0.159882

>  <SCORE.INTRA.VDW.0>
-1.86213

>  <SCORE.INTRA.norm>
-0.0796199

>  <SCORE.RESTR>
0

>  <SCORE.RESTR.CAVITY>
0

>  <SCORE.RESTR.norm>
0

>  <SCORE.SYSTEM>
0

>  <SCORE.SYSTEM.CONST>
0

>  <SCORE.SYSTEM.DIHEDRAL>
0

>  <SCORE.SYSTEM.SOLV>
0

>  <SCORE.SYSTEM.norm>
0

>  <SCORE.heavy>
22

>  <SCORE.norm>
-0.576561

>  <RMSD>
1.739

$$$$
lig.pdb
 OpenBabel11021811523D
libRbt.so/2013.1/901 2013/11/27
 22 23  0  0  0  0  0  0  0  0999 V2000
   -8.0243   -1.1526   -0.4833 C   0  0  1  0  0  0  0  0  0  0  0  0
   -6.3713    0.2978    0.7638 C   0  0  1  0  0  0  0  0  0  0  0  0
   -7.2536    1.5564    1.1813 C   0  0  1  0  0  0  0  0  0  0  0  0
   -6.2740    2.8019    1.3668 C   0  0  2  0  0  0  0  0  0  0  0  0
   -9.0434   -2.2962   -0.1040 C   0  0  1  0  0  0  0  0  0  0  0  0
   -8.2331   -3.5634    0.2333 C   0  0  2  0  0  0  0  0  0  0  0  0
   -7.4116   -4.0290   -0.9819 C   0  0  2  0  0  0  0  0  0  0  0  0
   -6.3930   -2.9217   -1.4384 C   0  0  1  0  0  0  0  0  0  0  0  0
   -5.5991   -3.3661   -2.7006 C   0  0  0  0  0  0  0  0  0  0  0  0
   -5.2371    2.4858    2.5614 C   0  0  1  0  0  0  0  0  0  0  0  0
   -4.3665    1.2099    2.1055 C   0  0  0  0  0  0  0  0  0  0  0  0
   -5.3288   -0.0446    1.8752 C   0  0  2  0  0  0  0  0  0  0  0  0
   -8.3058   -4.3455   -2.1015 F   0  0  0  0  0  0  0  0  0  0  0  0
   -9.8586   -1.8159    1.0785 N   0  0  0  0  0  0  0  0  0  0  0  0
   -4.7662   -4.4927   -2.5121 N   0  0  0  0  0  0  0  0  0  0  0  0
   -4.2797    3.6265    2.7634 N   0  0  0  0  0  0  0  0  0  0  0  0
   -4.5244   -1.2104    1.4558 N   0  0  0  0  0  0  0  0  0  0  0  0
   -7.1976   -0.8441    0.5949 O   0  0  0  0  0  0  0  0  0  0  0  0
   -8.2062    1.8312    0.0797 O   0  0  0  0  0  0  0  0  0  0  0  0
   -7.0710    3.8924    1.7227 O   0  0  0  0  0  0  0  0  0  0  0  0
   -8.9780   -4.3962    0.5073 O   0  0  0  0  0  0  0  0  0  0  0  0
   -7.2112   -1.6401   -1.6797 O   0  0  0  0  0  0  0  0  0  0  0  0
  1  5  1  0  0  0  0
  1 18  1  1  0  0  0
  2 18  1  1  0  0  0
  2  3  1  0  0  0  0
  2 12  1  0  0  0  0
  3 19  1  6  0  0  0
  3  4  1  0  0  0  0
  4 20  1  1  0  0  0
  4 10  1  0  0  0  0
  5  6  1  0  0  0  0
  5 14  1  1  0  0  0
  6 21  1  6  0  0  0
  7 13  1  6  0  0  0
  7  6  1  0  0  0  0
  8  9  1  6  0  0  0
  8  7  1  0  0  0  0
 10 16  1  6  0  0  0
 11 10  1  0  0  0  0
 12 17  1  6  0  0  0
 12 11  1  0  0  0  0
 15  9  1  0  0  0  0
 22  8  1  0  0  0  0
 22  1  1  0  0  0  0
M  END
>  <CHROM.1>
-164.75729753,77.28130362,-63.91527124,-6.86343482,-0.87852640,0.23974255
1.80742658,-0.08869149,-2.65126862

>  <Name>
lig.pdb

>  <RI>
0

>  <Rbt.Current_Directory>
/home/itssahil/PROJECTS/Mol_Feturizer/New_Systems/rnas/5bws

>  <Rbt.Executable>
rbdock ($Id: //depot/dev/client3/rdock/2013.1/src/exe/rbdock.cxx#4 $)

>  <Rbt.Library>
libRbt.so (2013.1, Build901 2013/11/27)

>  <Rbt.Parameter_File>
/export/apps/rDock/src/rDock_2013.1_src/data/scripts/dock_solv.prm

>  <Rbt.Receptor>
prm/pocket_docking_3.prm

>  <SCORE>
-12.6755

>  <SCORE.INTER>
-10.7933

>  <SCORE.INTER.CONST>
1

>  <SCORE.INTER.POLAR>
0

>  <SCORE.INTER.ROT>
3

>  <SCORE.INTER.SOLV>
17.5968

>  <SCORE.INTER.VDW>
-18.6612

>  <SCORE.INTER.norm>
-0.490606

>  <SCORE.INTRA>
-1.8822

>  <SCORE.INTRA.DIHEDRAL>
-3.58748

>  <SCORE.INTRA.DIHEDRAL.0>
6.10773

>  <SCORE.INTRA.POLAR>
0

>  <SCORE.INTRA.POLAR.0>
0

>  <SCORE.INTRA.REPUL>
0

>  <SCORE.INTRA.REPUL.0>
0

>  <SCORE.INTRA.SOLV>
-0.513491

>  <SCORE.INTRA.SOLV.lig_0>
-71.4024

>  <SCORE.INTRA.VDW>
0.168282

>  <SCORE.INTRA.VDW.0>
-1.86213

>  <SCORE.INTRA.norm>
-0.0855547

>  <SCORE.RESTR>
0

>  <SCORE.RESTR.CAVITY>
0

>  <SCORE.RESTR.norm>
0

>  <SCORE.SYSTEM>
0

>  <SCORE.SYSTEM.CONST>
0

>  <SCORE.SYSTEM.DIHEDRAL>
0

>  <SCORE.SYSTEM.SOLV>
0

>  <SCORE.SYSTEM.norm>
0

>  <SCORE.heavy>
22

>  <SCORE.norm>
-0.576161

>  <RMSD>
1.741

$$$$
lig.pdb
 OpenBabel11021811523D
libRbt.so/2013.1/901 2013/11/27
 22 23  0  0  0  0  0  0  0  0999 V2000
   -8.0434   -1.1011   -0.3759 C   0  0  1  0  0  0  0  0  0  0  0  0
   -6.3685    0.3600    0.8287 C   0  0  1  0  0  0  0  0  0  0  0  0
   -7.2433    1.6258    1.2405 C   0  0  1  0  0  0  0  0  0  0  0  0
   -6.2593    2.8717    1.3971 C   0  0  2  0  0  0  0  0  0  0  0  0
   -9.0098   -2.2878    0.0086 C   0  0  1  0  0  0  0  0  0  0  0  0
   -8.1454   -3.5306    0.2994 C   0  0  2  0  0  0  0  0  0  0  0  0
   -7.3417   -3.9436   -0.9463 C   0  0  2  0  0  0  0  0  0  0  0  0
   -6.3765   -2.7916   -1.4087 C   0  0  1  0  0  0  0  0  0  0  0  0
   -5.6024   -3.1836   -2.7002 C   0  0  0  0  0  0  0  0  0  0  0  0
   -5.2080    2.5695    2.5827 C   0  0  1  0  0  0  0  0  0  0  0  0
   -4.3453    1.2861    2.1329 C   0  0  0  0  0  0  0  0  0  0  0  0
   -5.3126    0.0305    1.9314 C   0  0  2  0  0  0  0  0  0  0  0  0
   -8.2545   -4.2720   -2.0473 F   0  0  0  0  0  0  0  0  0  0  0  0
   -9.8087   -1.8593    1.2217 N   0  0  0  0  0  0  0  0  0  0  0  0
   -4.7369   -4.2926   -2.5603 N   0  0  0  0  0  0  0  0  0  0  0  0
   -4.2461    3.7110    2.7575 N   0  0  0  0  0  0  0  0  0  0  0  0
   -4.5156   -1.1424    1.5173 N   0  0  0  0  0  0  0  0  0  0  0  0
   -7.1988   -0.7824    0.6853 O   0  0  0  0  0  0  0  0  0  0  0  0
   -8.2091    1.8877    0.1473 O   0  0  0  0  0  0  0  0  0  0  0  0
   -7.0498    3.9683    1.7485 O   0  0  0  0  0  0  0  0  0  0  0  0
   -8.8520   -4.3949    0.5773 O   0  0  0  0  0  0  0  0  0  0  0  0
   -7.2467   -1.5366   -1.6030 O   0  0  0  0  0  0  0  0  0  0  0  0
  1  5  1  0  0  0  0
  1 18  1  1  0  0  0
  2 18  1  1  0  0  0
  2  3  1  0  0  0  0
  2 12  1  0  0  0  0
  3 19  1  6  0  0  0
  3  4  1  0  0  0  0
  4 20  1  1  0  0  0
  4 10  1  0  0  0  0
  5  6  1  0  0  0  0
  5 14  1  1  0  0  0
  6 21  1  6  0  0  0
  7 13  1  6  0  0  0
  7  6  1  0  0  0  0
  8  9  1  6  0  0  0
  8  7  1  0  0  0  0
 10 16  1  6  0  0  0
 11 10  1  0  0  0  0
 12 17  1  6  0  0  0
 12 11  1  0  0  0  0
 15  9  1  0  0  0  0
 22  8  1  0  0  0  0
 22  1  1  0  0  0  0
M  END
>  <CHROM.1>
-167.55948042,77.01325672,-63.17518822,-6.83772060,-0.80560312,0.29212384
1.80826652,-0.12711066,-2.64516083

>  <Name>
lig.pdb

>  <RI>
0

>  <Rbt.Current_Directory>
/home/itssahil/PROJECTS/Mol_Feturizer/New_Systems/rnas/5bws

>  <Rbt.Executable>
rbdock ($Id: //depot/dev/client3/rdock/2013.1/src/exe/rbdock.cxx#4 $)

>  <Rbt.Library>
libRbt.so (2013.1, Build901 2013/11/27)

>  <Rbt.Parameter_File>
/export/apps/rDock/src/rDock_2013.1_src/data/scripts/dock_solv.prm

>  <Rbt.Receptor>
prm/pocket_docking_3.prm

>  <SCORE>
-12.7236

>  <SCORE.INTER>
-10.6067

>  <SCORE.INTER.CONST>
1

>  <SCORE.INTER.POLAR>
0

>  <SCORE.INTER.ROT>
3

>  <SCORE.INTER.SOLV>
17.9819

>  <SCORE.INTER.VDW>
-18.6651

>  <SCORE.INTER.norm>
-0.482124

>  <SCORE.INTRA>
-2.11684

>  <SCORE.INTRA.DIHEDRAL>
-3.99571

>  <SCORE.INTRA.DIHEDRAL.0>
6.10773

>  <SCORE.INTRA.POLAR>
0

>  <SCORE.INTRA.POLAR.0>
0

>  <SCORE.INTRA.REPUL>
0

>  <SCORE.INTRA.REPUL.0>
0

>  <SCORE.INTRA.SOLV>
-0.581091

>  <SCORE.INTRA.SOLV.lig_0>
-71.4024

>  <SCORE.INTRA.VDW>
0.171563

>  <SCORE.INTRA.VDW.0>
-1.86213

>  <SCORE.INTRA.norm>
-0.0962199

>  <SCORE.RESTR>
0

>  <SCORE.RESTR.CAVITY>
0

>  <SCORE.RESTR.norm>
0

>  <SCORE.SYSTEM>
0

>  <SCORE.SYSTEM.CONST>
0

>  <SCORE.SYSTEM.DIHEDRAL>
0

>  <SCORE.SYSTEM.SOLV>
0

>  <SCORE.SYSTEM.norm>
0

>  <SCORE.heavy>
22

>  <SCORE.norm>
-0.578343

>  <RMSD>
1.746

$$$$
lig.pdb
 OpenBabel11021811523D
libRbt.so/2013.1/901 2013/11/27
 22 23  0  0  0  0  0  0  0  0999 V2000
   -8.0411   -1.1088   -0.4095 C   0  0  1  0  0  0  0  0  0  0  0  0
   -6.3905    0.3590    0.8202 C   0  0  1  0  0  0  0  0  0  0  0  0
   -7.2720    1.6111    1.2586 C   0  0  1  0  0  0  0  0  0  0  0  0
   -6.2963    2.8619    1.4289 C   0  0  2  0  0  0  0  0  0  0  0  0
   -9.0274   -2.2807   -0.0301 C   0  0  1  0  0  0  0  0  0  0  0  0
   -8.1822   -3.5294    0.2906 C   0  0  2  0  0  0  0  0  0  0  0  0
   -7.3599   -3.9648   -0.9352 C   0  0  2  0  0  0  0  0  0  0  0  0
   -6.3737   -2.8286   -1.3920 C   0  0  1  0  0  0  0  0  0  0  0  0
   -5.5800   -3.2433   -2.6643 C   0  0  0  0  0  0  0  0  0  0  0  0
   -5.2345    2.5485    2.6021 C   0  0  1  0  0  0  0  0  0  0  0  0
   -4.3653    1.2793    2.1254 C   0  0  0  0  0  0  0  0  0  0  0  0
   -5.3244    0.0197    1.9101 C   0  0  2  0  0  0  0  0  0  0  0  0
   -8.2555   -4.2958   -2.0494 F   0  0  0  0  0  0  0  0  0  0  0  0
   -9.8441   -1.8301    1.1629 N   0  0  0  0  0  0  0  0  0  0  0  0
   -4.7165   -4.3491   -2.4914 N   0  0  0  0  0  0  0  0  0  0  0  0
   -4.2801    3.6944    2.7889 N   0  0  0  0  0  0  0  0  0  0  0  0
   -4.5214   -1.1401    1.4714 N   0  0  0  0  0  0  0  0  0  0  0  0
   -7.2131   -0.7872    0.6639 O   0  0  0  0  0  0  0  0  0  0  0  0
   -8.2474    1.8834    0.1766 O   0  0  0  0  0  0  0  0  0  0  0  0
   -7.0927    3.9465    1.8035 O   0  0  0  0  0  0  0  0  0  0  0  0
   -8.9032   -4.3829    0.5646 O   0  0  0  0  0  0  0  0  0  0  0  0
   -7.2264   -1.5665   -1.6165 O   0  0  0  0  0  0  0  0  0  0  0  0
  1  5  1  0  0  0  0
  1 18  1  1  0  0  0
  2 18  1  1  0  0  0
  2  3  1  0  0  0  0
  2 12  1  0  0  0  0
  3 19  1  6  0  0  0
  3  4  1  0  0  0  0
  4 20  1  1  0  0  0
  4 10  1  0  0  0  0
  5  6  1  0  0  0  0
  5 14  1  1  0  0  0
  6 21  1  6  0  0  0
  7 13  1  6  0  0  0
  7  6  1  0  0  0  0
  8  9  1  6  0  0  0
  8  7  1  0  0  0  0
 10 16  1  6  0  0  0
 11 10  1  0  0  0  0
 12 17  1  6  0  0  0
 12 11  1  0  0  0  0
 15  9  1  0  0  0  0
 22  8  1  0  0  0  0
 22  1  1  0  0  0  0
M  END
>  <CHROM.1>
-166.38529335,78.50375405,-63.95065188,-6.85461740,-0.81917135,0.29437051
1.80211301,-0.11054048,-2.64774308

>  <Name>
lig.pdb

>  <RI>
0

>  <Rbt.Current_Directory>
/home/itssahil/PROJECTS/Mol_Feturizer/New_Systems/rnas/5bws

>  <Rbt.Executable>
rbdock ($Id: //depot/dev/client3/rdock/2013.1/src/exe/rbdock.cxx#4 $)

>  <Rbt.Library>
libRbt.so (2013.1, Build901 2013/11/27)

>  <Rbt.Parameter_File>
/export/apps/rDock/src/rDock_2013.1_src/data/scripts/dock_solv.prm

>  <Rbt.Receptor>
prm/pocket_docking_3.prm

>  <SCORE>
-12.7817

>  <SCORE.INTER>
-10.873

>  <SCORE.INTER.CONST>
1

>  <SCORE.INTER.POLAR>
0

>  <SCORE.INTER.ROT>
3

>  <SCORE.INTER.SOLV>
17.7783

>  <SCORE.INTER.VDW>
-18.7748

>  <SCORE.INTER.norm>
-0.494229

>  <SCORE.INTRA>
-1.90866

>  <SCORE.INTRA.DIHEDRAL>
-3.61126

>  <SCORE.INTRA.DIHEDRAL.0>
6.10773

>  <SCORE.INTRA.POLAR>
0

>  <SCORE.INTRA.POLAR.0>
0

>  <SCORE.INTRA.REPUL>
0

>  <SCORE.INTRA.REPUL.0>
0

>  <SCORE.INTRA.SOLV>
-0.502622

>  <SCORE.INTRA.SOLV.lig_0>
-71.4024

>  <SCORE.INTRA.VDW>
0.148279

>  <SCORE.INTRA.VDW.0>
-1.86213

>  <SCORE.INTRA.norm>
-0.0867574

>  <SCORE.RESTR>
0

>  <SCORE.RESTR.CAVITY>
0

>  <SCORE.RESTR.norm>
0

>  <SCORE.SYSTEM>
0

>  <SCORE.SYSTEM.CONST>
0

>  <SCORE.SYSTEM.DIHEDRAL>
0

>  <SCORE.SYSTEM.SOLV>
0

>  <SCORE.SYSTEM.norm>
0

>  <SCORE.heavy>
22

>  <SCORE.norm>
-0.580986

>  <RMSD>
1.755

$$$$
lig.pdb
 OpenBabel11021811523D
libRbt.so/2013.1/901 2013/11/27
 22 23  0  0  0  0  0  0  0  0999 V2000
   -8.0288   -1.1434   -0.4581 C   0  0  1  0  0  0  0  0  0  0  0  0
   -6.3940    0.3293    0.7867 C   0  0  1  0  0  0  0  0  0  0  0  0
   -7.2834    1.5788    1.2165 C   0  0  1  0  0  0  0  0  0  0  0  0
   -6.3133    2.8325    1.3958 C   0  0  2  0  0  0  0  0  0  0  0  0
   -9.0294   -2.3040   -0.0814 C   0  0  1  0  0  0  0  0  0  0  0  0
   -8.1985   -3.5567    0.2603 C   0  0  2  0  0  0  0  0  0  0  0  0
   -7.3646   -4.0092   -0.9515 C   0  0  2  0  0  0  0  0  0  0  0  0
   -6.3636   -2.8848   -1.4054 C   0  0  1  0  0  0  0  0  0  0  0  0
   -5.5576   -3.3167   -2.6642 C   0  0  0  0  0  0  0  0  0  0  0  0
   -5.2618    2.5225    2.5792 C   0  0  1  0  0  0  0  0  0  0  0  0
   -4.3842    1.2559    2.1111 C   0  0  0  0  0  0  0  0  0  0  0  0
   -5.3374   -0.0067    1.8868 C   0  0  2  0  0  0  0  0  0  0  0  0
   -8.2490   -4.3423   -2.0740 F   0  0  0  0  0  0  0  0  0  0  0  0
   -9.8570   -1.8367    1.0976 N   0  0  0  0  0  0  0  0  0  0  0  0
   -4.7274   -4.4460   -2.4792 N   0  0  0  0  0  0  0  0  0  0  0  0
   -4.3127    3.6713    2.7749 N   0  0  0  0  0  0  0  0  0  0  0  0
   -4.5267   -1.1640    1.4561 N   0  0  0  0  0  0  0  0  0  0  0  0
   -7.2116   -0.8195    0.6227 O   0  0  0  0  0  0  0  0  0  0  0  0
   -8.2493    1.8479    0.1251 O   0  0  0  0  0  0  0  0  0  0  0  0
   -7.1165    3.9148    1.7627 O   0  0  0  0  0  0  0  0  0  0  0  0
   -8.9298   -4.4020    0.5324 O   0  0  0  0  0  0  0  0  0  0  0  0
   -7.2030   -1.6179   -1.6510 O   0  0  0  0  0  0  0  0  0  0  0  0
  1  5  1  0  0  0  0
  1 18  1  1  0  0  0
  2 18  1  1  0  0  0
  2  3  1  0  0  0  0
  2 12  1  0  0  0  0
  3 19  1  6  0  0  0
  3  4  1  0  0  0  0
  4 20  1  1  0  0  0
  4 10  1  0  0  0  0
  5  6  1  0  0  0  0
  5 14  1  1  0  0  0
  6 21  1  6  0  0  0
  7 13  1  6  0  0  0
  7  6  1  0  0  0  0
  8  9  1  6  0  0  0
  8  7  1  0  0  0  0
 10 16  1  6  0  0  0
 11 10  1  0  0  0  0
 12 17  1  6  0  0  0
 12 11  1  0  0  0  0
 15  9  1  0  0  0  0
 22  8  1  0  0  0  0
 22  1  1  0  0  0  0
M  END
>  <CHROM.1>
-165.54997631,78.46686615,-62.63187382,-6.86125595,-0.85542413,0.26525818
1.79733695,-0.09626087,-2.65311763

>  <Name>
lig.pdb

>  <RI>
0

>  <Rbt.Current_Directory>
/home/itssahil/PROJECTS/Mol_Feturizer/New_Systems/rnas/5bws

>  <Rbt.Executable>
rbdock ($Id: //depot/dev/client3/rdock/2013.1/src/exe/rbdock.cxx#4 $)

>  <Rbt.Library>
libRbt.so (2013.1, Build901 2013/11/27)

>  <Rbt.Parameter_File>
/export/apps/rDock/src/rDock_2013.1_src/data/scripts/dock_solv.prm

>  <Rbt.Receptor>
prm/pocket_docking_4.prm

>  <SCORE>
-12.7828

>  <SCORE.INTER>
-10.9371

>  <SCORE.INTER.CONST>
1

>  <SCORE.INTER.POLAR>
0

>  <SCORE.INTER.ROT>
3

>  <SCORE.INTER.SOLV>
17.592

>  <SCORE.INTER.VDW>
-18.7554

>  <SCORE.INTER.norm>
-0.497142

>  <SCORE.INTRA>
-1.84568

>  <SCORE.INTRA.DIHEDRAL>
-3.54282

>  <SCORE.INTRA.DIHEDRAL.0>
6.10773

>  <SCORE.INTRA.POLAR>
0

>  <SCORE.INTRA.POLAR.0>
0

>  <SCORE.INTRA.REPUL>
0

>  <SCORE.INTRA.REPUL.0>
0

>  <SCORE.INTRA.SOLV>
-0.454183

>  <SCORE.INTRA.SOLV.lig_0>
-71.4024

>  <SCORE.INTRA.VDW>
0.152821

>  <SCORE.INTRA.VDW.0>
-1.86213

>  <SCORE.INTRA.norm>
-0.0838946

>  <SCORE.RESTR>
0

>  <SCORE.RESTR.CAVITY>
0

>  <SCORE.RESTR.norm>
0

>  <SCORE.SYSTEM>
0

>  <SCORE.SYSTEM.CONST>
0

>  <SCORE.SYSTEM.DIHEDRAL>
0

>  <SCORE.SYSTEM.SOLV>
0

>  <SCORE.SYSTEM.norm>
0

>  <SCORE.heavy>
22

>  <SCORE.norm>
-0.581036

>  <RMSD>
1.761

$$$$
lig.pdb
 OpenBabel11021811523D
libRbt.so/2013.1/901 2013/11/27
 22 23  0  0  0  0  0  0  0  0999 V2000
   -8.0297   -1.1680   -0.4982 C   0  0  1  0  0  0  0  0  0  0  0  0
   -6.3834    0.3114    0.7233 C   0  0  1  0  0  0  0  0  0  0  0  0
   -7.2747    1.5698    1.1220 C   0  0  1  0  0  0  0  0  0  0  0  0
   -6.3042    2.8252    1.2876 C   0  0  2  0  0  0  0  0  0  0  0  0
   -9.0355   -2.3174   -0.1013 C   0  0  1  0  0  0  0  0  0  0  0  0
   -8.2108   -3.5725    0.2466 C   0  0  2  0  0  0  0  0  0  0  0  0
   -7.3902   -4.0435   -0.9672 C   0  0  2  0  0  0  0  0  0  0  0  0
   -6.3848   -2.9312   -1.4409 C   0  0  1  0  0  0  0  0  0  0  0  0
   -5.5923   -3.3819   -2.7016 C   0  0  0  0  0  0  0  0  0  0  0  0
   -5.2642    2.5352    2.4862 C   0  0  1  0  0  0  0  0  0  0  0  0
   -4.3845    1.2589    2.0493 C   0  0  0  0  0  0  0  0  0  0  0  0
   -5.3376   -0.0061    1.8391 C   0  0  2  0  0  0  0  0  0  0  0  0
   -8.2861   -4.3817   -2.0790 F   0  0  0  0  0  0  0  0  0  0  0  0
   -9.8500   -1.8320    1.0795 N   0  0  0  0  0  0  0  0  0  0  0  0
   -4.7503   -4.5004   -2.5054 N   0  0  0  0  0  0  0  0  0  0  0  0
   -4.3152    3.6859    2.6699 N   0  0  0  0  0  0  0  0  0  0  0  0
   -4.5249   -1.1723    1.4370 N   0  0  0  0  0  0  0  0  0  0  0  0
   -7.2013   -0.8389    0.5726 O   0  0  0  0  0  0  0  0  0  0  0  0
   -8.2299    1.8205    0.0170 O   0  0  0  0  0  0  0  0  0  0  0  0
   -7.1090    3.9151    1.6273 O   0  0  0  0  0  0  0  0  0  0  0  0
   -8.9459   -4.4096    0.5333 O   0  0  0  0  0  0  0  0  0  0  0  0
   -7.2171   -1.6608   -1.6928 O   0  0  0  0  0  0  0  0  0  0  0  0
  1  5  1  0  0  0  0
  1 18  1  1  0  0  0
  2 18  1  1  0  0  0
  2  3  1  0  0  0  0
  2 12  1  0  0  0  0
  3 19  1  6  0  0  0
  3  4  1  0  0  0  0
  4 20  1  1  0  0  0
  4 10  1  0  0  0  0
  5  6  1  0  0  0  0
  5 14  1  1  0  0  0
  6 21  1  6  0  0  0
  7 13  1  6  0  0  0
  7  6  1  0  0  0  0
  8  9  1  6  0  0  0
  8  7  1  0  0  0  0
 10 16  1  6  0  0  0
 11 10  1  0  0  0  0
 12 17  1  6  0  0  0
 12 11  1  0  0  0  0
 15  9  1  0  0  0  0
 22  8  1  0  0  0  0
 22  1  1  0  0  0  0
M  END
>  <CHROM.1>
-164.92740962,77.05114716,-63.72279018,-6.86713119,-0.87396295,0.21380043
1.80153580,-0.09656836,-2.66452486

>  <Name>
lig.pdb

>  <RI>
0

>  <Rbt.Current_Directory>
/home/itssahil/PROJECTS/Mol_Feturizer/New_Systems/rnas/5bws

>  <Rbt.Executable>
rbdock ($Id: //depot/dev/client3/rdock/2013.1/src/exe/rbdock.cxx#4 $)

>  <Rbt.Library>
libRbt.so (2013.1, Build901 2013/11/27)

>  <Rbt.Parameter_File>
/export/apps/rDock/src/rDock_2013.1_src/data/scripts/dock_solv.prm

>  <Rbt.Receptor>
prm/pocket_docking_4.prm

>  <SCORE>
-12.7452

>  <SCORE.INTER>
-10.8308

>  <SCORE.INTER.CONST>
1

>  <SCORE.INTER.POLAR>
0

>  <SCORE.INTER.ROT>
3

>  <SCORE.INTER.SOLV>
17.3609

>  <SCORE.INTER.VDW>
-18.6075

>  <SCORE.INTER.norm>
-0.492307

>  <SCORE.INTRA>
-1.91446

>  <SCORE.INTRA.DIHEDRAL>
-3.64957

>  <SCORE.INTRA.DIHEDRAL.0>
6.10773

>  <SCORE.INTRA.POLAR>
0

>  <SCORE.INTRA.POLAR.0>
0

>  <SCORE.INTRA.REPUL>
0

>  <SCORE.INTRA.REPUL.0>
0

>  <SCORE.INTRA.SOLV>
-0.523667

>  <SCORE.INTRA.SOLV.lig_0>
-71.4024

>  <SCORE.INTRA.VDW>
0.172154

>  <SCORE.INTRA.VDW.0>
-1.86213

>  <SCORE.INTRA.norm>
-0.0870211

>  <SCORE.RESTR>
0

>  <SCORE.RESTR.CAVITY>
0

>  <SCORE.RESTR.norm>
0

>  <SCORE.SYSTEM>
0

>  <SCORE.SYSTEM.CONST>
0

>  <SCORE.SYSTEM.DIHEDRAL>
0

>  <SCORE.SYSTEM.SOLV>
0

>  <SCORE.SYSTEM.norm>
0

>  <SCORE.heavy>
22

>  <SCORE.norm>
-0.579328

>  <RMSD>
1.764

$$$$
lig.pdb
 OpenBabel11021811523D
libRbt.so/2013.1/901 2013/11/27
 22 23  0  0  0  0  0  0  0  0999 V2000
   -8.0147   -1.1496   -0.4710 C   0  0  1  0  0  0  0  0  0  0  0  0
   -6.3965    0.3329    0.7839 C   0  0  1  0  0  0  0  0  0  0  0  0
   -7.2920    1.5784    1.2125 C   0  0  1  0  0  0  0  0  0  0  0  0
   -6.3272    2.8358    1.3957 C   0  0  2  0  0  0  0  0  0  0  0  0
   -9.0141   -2.3131   -0.1000 C   0  0  1  0  0  0  0  0  0  0  0  0
   -8.1814   -3.5613    0.2535 C   0  0  2  0  0  0  0  0  0  0  0  0
   -7.3343   -4.0142   -0.9488 C   0  0  2  0  0  0  0  0  0  0  0  0
   -6.3335   -2.8872   -1.3968 C   0  0  1  0  0  0  0  0  0  0  0  0
   -5.5138   -3.3198   -2.6466 C   0  0  0  0  0  0  0  0  0  0  0  0
   -5.2776    2.5287    2.5816 C   0  0  1  0  0  0  0  0  0  0  0  0
   -4.3939    1.2660    2.1145 C   0  0  0  0  0  0  0  0  0  0  0  0
   -5.3415   -0.0000    1.8864 C   0  0  2  0  0  0  0  0  0  0  0  0
   -8.2066   -4.3545   -2.0786 F   0  0  0  0  0  0  0  0  0  0  0  0
   -9.8548   -1.8454    1.0696 N   0  0  0  0  0  0  0  0  0  0  0  0
   -4.6574   -4.4257   -2.4414 N   0  0  0  0  0  0  0  0  0  0  0  0
   -4.3337    3.6810    2.7810 N   0  0  0  0  0  0  0  0  0  0  0  0
   -4.5251   -1.1538    1.4566 N   0  0  0  0  0  0  0  0  0  0  0  0
   -7.2091   -0.8189    0.6165 O   0  0  0  0  0  0  0  0  0  0  0  0
   -8.2560    1.8449    0.1189 O   0  0  0  0  0  0  0  0  0  0  0  0
   -7.1357    3.9145    1.7616 O   0  0  0  0  0  0  0  0  0  0  0  0
   -8.9119   -4.4087    0.5214 O   0  0  0  0  0  0  0  0  0  0  0  0
   -7.1757   -1.6245   -1.6545 O   0  0  0  0  0  0  0  0  0  0  0  0
  1  5  1  0  0  0  0
  1 18  1  1  0  0  0
  2 18  1  1  0  0  0
  2  3  1  0  0  0  0
  2 12  1  0  0  0  0
  3 19  1  6  0  0  0
  3  4  1  0  0  0  0
  4 20  1  1  0  0  0
  4 10  1  0  0  0  0
  5  6  1  0  0  0  0
  5 14  1  1  0  0  0
  6 21  1  6  0  0  0
  7 13  1  6  0  0  0
  7  6  1  0  0  0  0
  8  9  1  6  0  0  0
  8  7  1  0  0  0  0
 10 16  1  6  0  0  0
 11 10  1  0  0  0  0
 12 17  1  6  0  0  0
 12 11  1  0  0  0  0
 15  9  1  0  0  0  0
 22  8  1  0  0  0  0
 22  1  1  0  0  0  0
M  END
>  <CHROM.1>
-165.63582914,78.97611665,-64.04559535,-6.85109905,-0.85558060,0.26390991
1.79052926,-0.09158123,-2.65586332

>  <Name>
lig.pdb

>  <RI>
0

>  <Rbt.Current_Directory>
/home/itssahil/PROJECTS/Mol_Feturizer/New_Systems/rnas/5bws

>  <Rbt.Executable>
rbdock ($Id: //depot/dev/client3/rdock/2013.1/src/exe/rbdock.cxx#4 $)

>  <Rbt.Library>
libRbt.so (2013.1, Build901 2013/11/27)

>  <Rbt.Parameter_File>
/export/apps/rDock/src/rDock_2013.1_src/data/scripts/dock_solv.prm

>  <Rbt.Receptor>
prm/pocket_docking_4.prm

>  <SCORE>
-12.8313

>  <SCORE.INTER>
-11.0204

>  <SCORE.INTER.CONST>
1

>  <SCORE.INTER.POLAR>
0

>  <SCORE.INTER.ROT>
3

>  <SCORE.INTER.SOLV>
17.6174

>  <SCORE.INTER.VDW>
-18.8194

>  <SCORE.INTER.norm>
-0.500926

>  <SCORE.INTRA>
-1.81091

>  <SCORE.INTRA.DIHEDRAL>
-3.44011

>  <SCORE.INTRA.DIHEDRAL.0>
6.10773

>  <SCORE.INTRA.POLAR>
0

>  <SCORE.INTRA.POLAR.0>
0

>  <SCORE.INTRA.REPUL>
0

>  <SCORE.INTRA.REPUL.0>
0

>  <SCORE.INTRA.SOLV>
-0.465265

>  <SCORE.INTRA.SOLV.lig_0>
-71.4024

>  <SCORE.INTRA.VDW>
0.141784

>  <SCORE.INTRA.VDW.0>
-1.86213

>  <SCORE.INTRA.norm>
-0.0823139

>  <SCORE.RESTR>
0

>  <SCORE.RESTR.CAVITY>
0

>  <SCORE.RESTR.norm>
0

>  <SCORE.SYSTEM>
0

>  <SCORE.SYSTEM.CONST>
0

>  <SCORE.SYSTEM.DIHEDRAL>
0

>  <SCORE.SYSTEM.SOLV>
0

>  <SCORE.SYSTEM.norm>
0

>  <SCORE.heavy>
22

>  <SCORE.norm>
-0.58324

>  <RMSD>
1.764

$$$$
lig.pdb
 OpenBabel11021811523D
libRbt.so/2013.1/901 2013/11/27
 22 23  0  0  0  0  0  0  0  0999 V2000
   -8.0322   -1.1178   -0.4249 C   0  0  1  0  0  0  0  0  0  0  0  0
   -6.3928    0.3633    0.8040 C   0  0  1  0  0  0  0  0  0  0  0  0
   -7.2864    1.6045    1.2490 C   0  0  1  0  0  0  0  0  0  0  0  0
   -6.3238    2.8652    1.4203 C   0  0  2  0  0  0  0  0  0  0  0  0
   -9.0249   -2.2813   -0.0365 C   0  0  1  0  0  0  0  0  0  0  0  0
   -8.1863   -3.5315    0.2958 C   0  0  2  0  0  0  0  0  0  0  0  0
   -7.3651   -3.9816   -0.9254 C   0  0  2  0  0  0  0  0  0  0  0  0
   -6.3727   -2.8544   -1.3910 C   0  0  1  0  0  0  0  0  0  0  0  0
   -5.5799   -3.2840   -2.6590 C   0  0  0  0  0  0  0  0  0  0  0  0
   -5.2551    2.5595    2.5893 C   0  0  1  0  0  0  0  0  0  0  0  0
   -4.3738    1.3012    2.1060 C   0  0  0  0  0  0  0  0  0  0  0  0
   -5.3199    0.0321    1.8895 C   0  0  2  0  0  0  0  0  0  0  0  0
   -8.2613   -4.3176   -2.0377 F   0  0  0  0  0  0  0  0  0  0  0  0
   -9.8403   -1.8164    1.1519 N   0  0  0  0  0  0  0  0  0  0  0  0
   -4.7565   -4.4204   -2.4878 N   0  0  0  0  0  0  0  0  0  0  0  0
   -4.3126    3.7151    2.7769 N   0  0  0  0  0  0  0  0  0  0  0  0
   -4.5058   -1.1176    1.4448 N   0  0  0  0  0  0  0  0  0  0  0  0
   -7.2035   -0.7912    0.6465 O   0  0  0  0  0  0  0  0  0  0  0  0
   -8.2680    1.8696    0.1707 O   0  0  0  0  0  0  0  0  0  0  0  0
   -7.1307    3.9400    1.8008 O   0  0  0  0  0  0  0  0  0  0  0  0
   -8.9119   -4.3789    0.5764 O   0  0  0  0  0  0  0  0  0  0  0  0
   -7.2188   -1.5900   -1.6271 O   0  0  0  0  0  0  0  0  0  0  0  0
  1  5  1  0  0  0  0
  1 18  1  1  0  0  0
  2 18  1  1  0  0  0
  2  3  1  0  0  0  0
  2 12  1  0  0  0  0
  3 19  1  6  0  0  0
  3  4  1  0  0  0  0
  4 20  1  1  0  0  0
  4 10  1  0  0  0  0
  5  6  1  0  0  0  0
  5 14  1  1  0  0  0
  6 21  1  6  0  0  0
  7 13  1  6  0  0  0
  7  6  1  0  0  0  0
  8  9  1  6  0  0  0
  8  7  1  0  0  0  0
 10 16  1  6  0  0  0
 11 10  1  0  0  0  0
 12 17  1  6  0  0  0
 12 11  1  0  0  0  0
 15  9  1  0  0  0  0
 22  8  1  0  0  0  0
 22  1  1  0  0  0  0
M  END
>  <CHROM.1>
-165.19524369,78.44213682,-61.91114278,-6.86265672,-0.82544881,0.28806286
1.79750661,-0.10805780,-2.65175570

>  <Name>
lig.pdb

>  <RI>
0

>  <Rbt.Current_Directory>
/home/itssahil/PROJECTS/Mol_Feturizer/New_Systems/rnas/5bws

>  <Rbt.Executable>
rbdock ($Id: //depot/dev/client3/rdock/2013.1/src/exe/rbdock.cxx#4 $)

>  <Rbt.Library>
libRbt.so (2013.1, Build901 2013/11/27)

>  <Rbt.Parameter_File>
/export/apps/rDock/src/rDock_2013.1_src/data/scripts/dock_solv.prm

>  <Rbt.Receptor>
prm/pocket_docking_5.prm

>  <SCORE>
-12.7792

>  <SCORE.INTER>
-10.9633

>  <SCORE.INTER.CONST>
1

>  <SCORE.INTER.POLAR>
0

>  <SCORE.INTER.ROT>
3

>  <SCORE.INTER.SOLV>
17.5783

>  <SCORE.INTER.VDW>
-18.7683

>  <SCORE.INTER.norm>
-0.498333

>  <SCORE.INTRA>
-1.81591

>  <SCORE.INTRA.DIHEDRAL>
-3.5122

>  <SCORE.INTRA.DIHEDRAL.0>
6.10773

>  <SCORE.INTRA.POLAR>
0

>  <SCORE.INTRA.POLAR.0>
0

>  <SCORE.INTRA.REPUL>
0

>  <SCORE.INTRA.REPUL.0>
0

>  <SCORE.INTRA.SOLV>
-0.430419

>  <SCORE.INTRA.SOLV.lig_0>
-71.4024

>  <SCORE.INTRA.VDW>
0.1554

>  <SCORE.INTRA.VDW.0>
-1.86213

>  <SCORE.INTRA.norm>
-0.0825413

>  <SCORE.RESTR>
0

>  <SCORE.RESTR.CAVITY>
0

>  <SCORE.RESTR.norm>
0

>  <SCORE.SYSTEM>
0

>  <SCORE.SYSTEM.CONST>
0

>  <SCORE.SYSTEM.DIHEDRAL>
0

>  <SCORE.SYSTEM.SOLV>
0

>  <SCORE.SYSTEM.norm>
0

>  <SCORE.heavy>
22

>  <SCORE.norm>
-0.580874

>  <RMSD>
1.765

$$$$
lig.pdb
 OpenBabel11021811523D
libRbt.so/2013.1/901 2013/11/27
 22 23  0  0  0  0  0  0  0  0999 V2000
   -7.7511   -1.5967   -0.7899 C   0  0  1  0  0  0  0  0  0  0  0  0
   -6.2174   -0.0396    0.4806 C   0  0  1  0  0  0  0  0  0  0  0  0
   -7.2295    1.1522    0.7846 C   0  0  1  0  0  0  0  0  0  0  0  0
   -6.3718    2.4787    1.0080 C   0  0  2  0  0  0  0  0  0  0  0  0
   -8.9494   -2.5067   -0.3142 C   0  0  1  0  0  0  0  0  0  0  0  0
   -8.3591   -3.8114    0.2564 C   0  0  2  0  0  0  0  0  0  0  0  0
   -7.5693   -4.5739   -0.8221 C   0  0  2  0  0  0  0  0  0  0  0  0
   -6.3738   -3.7112   -1.3688 C   0  0  1  0  0  0  0  0  0  0  0  0
   -5.6060   -4.4562   -2.4985 C   0  0  0  0  0  0  0  0  0  0  0  0
   -5.4156    2.2802    2.2919 C   0  0  1  0  0  0  0  0  0  0  0  0
   -4.4105    1.0694    1.9492 C   0  0  0  0  0  0  0  0  0  0  0  0
   -5.2466   -0.2659    1.6829 C   0  0  2  0  0  0  0  0  0  0  0  0
   -8.4540   -4.9252   -1.9388 F   0  0  0  0  0  0  0  0  0  0  0  0
   -9.7293   -1.7357    0.7302 N   0  0  0  0  0  0  0  0  0  0  0  0
   -4.3431   -3.9081   -2.8197 N   0  0  0  0  0  0  0  0  0  0  0  0
   -4.5730    3.5010    2.5333 N   0  0  0  0  0  0  0  0  0  0  0  0
   -4.3191   -1.3716    1.3676 N   0  0  0  0  0  0  0  0  0  0  0  0
   -6.9325   -1.2498    0.2827 O   0  0  0  0  0  0  0  0  0  0  0  0
   -8.1063    1.3188   -0.3985 O   0  0  0  0  0  0  0  0  0  0  0  0
   -7.2806    3.5083    1.2630 O   0  0  0  0  0  0  0  0  0  0  0  0
   -9.2343   -4.4740    0.6004 O   0  0  0  0  0  0  0  0  0  0  0  0
   -6.9737   -2.3765   -1.8472 O   0  0  0  0  0  0  0  0  0  0  0  0
  1  5  1  0  0  0  0
  1 18  1  1  0  0  0
  2 18  1  1  0  0  0
  2  3  1  0  0  0  0
  2 12  1  0  0  0  0
  3 19  1  6  0  0  0
  3  4  1  0  0  0  0
  4 20  1  1  0  0  0
  4 10  1  0  0  0  0
  5  6  1  0  0  0  0
  5 14  1  1  0  0  0
  6 21  1  6  0  0  0
  7 13  1  6  0  0  0
  7  6  1  0  0  0  0
  8  9  1  6  0  0  0
  8  7  1  0  0  0  0
 10 16  1  6  0  0  0
 11 10  1  0  0  0  0
 12 17  1  6  0  0  0
 12 11  1  0  0  0  0
 15  9  1  0  0  0  0
 22  8  1  0  0  0  0
 22  1  1  0  0  0  0
M  END
>  <CHROM.1>
-146.24837410,70.07380420,-165.40764290,-6.84338171,-1.21492236,0.06710781
1.80379433,-0.10679151,-2.68941700

>  <Name>
lig.pdb

>  <RI>
0

>  <Rbt.Current_Directory>
/home/itssahil/PROJECTS/Mol_Feturizer/New_Systems/rnas/5bws

>  <Rbt.Executable>
rbdock ($Id: //depot/dev/client3/rdock/2013.1/src/exe/rbdock.cxx#4 $)

>  <Rbt.Library>
libRbt.so (2013.1, Build901 2013/11/27)

>  <Rbt.Parameter_File>
/export/apps/rDock/src/rDock_2013.1_src/data/scripts/dock_solv.prm

>  <Rbt.Receptor>
prm/pocket_docking_5.prm

>  <SCORE>
-9.47004

>  <SCORE.INTER>
-9.10155

>  <SCORE.INTER.CONST>
1

>  <SCORE.INTER.POLAR>
0

>  <SCORE.INTER.ROT>
3

>  <SCORE.INTER.SOLV>
19.3606

>  <SCORE.INTER.VDW>
-18.1212

>  <SCORE.INTER.norm>
-0.413707

>  <SCORE.INTRA>
-0.368495

>  <SCORE.INTRA.DIHEDRAL>
-0.581433

>  <SCORE.INTRA.DIHEDRAL.0>
6.10773

>  <SCORE.INTRA.POLAR>
0

>  <SCORE.INTRA.POLAR.0>
0

>  <SCORE.INTRA.REPUL>
0

>  <SCORE.INTRA.REPUL.0>
0

>  <SCORE.INTRA.SOLV>
-0.745325

>  <SCORE.INTRA.SOLV.lig_0>
-71.4024

>  <SCORE.INTRA.VDW>
0.294884

>  <SCORE.INTRA.VDW.0>
-1.86213

>  <SCORE.INTRA.norm>
-0.0167498

>  <SCORE.RESTR>
0

>  <SCORE.RESTR.CAVITY>
0

>  <SCORE.RESTR.norm>
0

>  <SCORE.SYSTEM>
0

>  <SCORE.SYSTEM.CONST>
0

>  <SCORE.SYSTEM.DIHEDRAL>
0

>  <SCORE.SYSTEM.SOLV>
0

>  <SCORE.SYSTEM.norm>
0

>  <SCORE.heavy>
22

>  <SCORE.norm>
-0.430456

>  <RMSD>
1.776

$$$$
lig.pdb
 OpenBabel11021811523D
libRbt.so/2013.1/901 2013/11/27
 22 23  0  0  0  0  0  0  0  0999 V2000
   -8.0161   -1.1506   -0.4689 C   0  0  1  0  0  0  0  0  0  0  0  0
   -6.4046    0.3354    0.7905 C   0  0  1  0  0  0  0  0  0  0  0  0
   -7.3087    1.5829    1.1948 C   0  0  1  0  0  0  0  0  0  0  0  0
   -6.3490    2.8434    1.3827 C   0  0  2  0  0  0  0  0  0  0  0  0
   -9.0165   -2.3135   -0.0991 C   0  0  1  0  0  0  0  0  0  0  0  0
   -8.1848   -3.5616    0.2573 C   0  0  2  0  0  0  0  0  0  0  0  0
   -7.3352   -4.0157   -0.9429 C   0  0  2  0  0  0  0  0  0  0  0  0
   -6.3333   -2.8894   -1.3898 C   0  0  1  0  0  0  0  0  0  0  0  0
   -5.5111   -3.3232   -2.6374 C   0  0  0  0  0  0  0  0  0  0  0  0
   -5.3177    2.5479    2.5874 C   0  0  1  0  0  0  0  0  0  0  0  0
   -4.4247    1.2830    2.1447 C   0  0  0  0  0  0  0  0  0  0  0  0
   -5.3666    0.0134    1.9122 C   0  0  2  0  0  0  0  0  0  0  0  0
   -8.2053   -4.3568   -2.0742 F   0  0  0  0  0  0  0  0  0  0  0  0
   -9.8595   -1.8447    1.0684 N   0  0  0  0  0  0  0  0  0  0  0  0
   -4.6999   -4.4651   -2.4464 N   0  0  0  0  0  0  0  0  0  0  0  0
   -4.3789    3.7035    2.7921 N   0  0  0  0  0  0  0  0  0  0  0  0
   -4.5417   -1.1424    1.5049 N   0  0  0  0  0  0  0  0  0  0  0  0
   -7.2126   -0.8192    0.6200 O   0  0  0  0  0  0  0  0  0  0  0  0
   -8.2558    1.8386    0.0840 O   0  0  0  0  0  0  0  0  0  0  0  0
   -7.1649    3.9237    1.7269 O   0  0  0  0  0  0  0  0  0  0  0  0
   -8.9160   -4.4086    0.5243 O   0  0  0  0  0  0  0  0  0  0  0  0
   -7.1747   -1.6267   -1.6503 O   0  0  0  0  0  0  0  0  0  0  0  0
  1  5  1  0  0  0  0
  1 18  1  1  0  0  0
  2 18  1  1  0  0  0
  2  3  1  0  0  0  0
  2 12  1  0  0  0  0
  3 19  1  6  0  0  0
  3  4  1  0  0  0  0
  4 20  1  1  0  0  0
  4 10  1  0  0  0  0
  5  6  1  0  0  0  0
  5 14  1  1  0  0  0
  6 21  1  6  0  0  0
  7 13  1  6  0  0  0
  7  6  1  0  0  0  0
  8  9  1  6  0  0  0
  8  7  1  0  0  0  0
 10 16  1  6  0  0  0
 11 10  1  0  0  0  0
 12 17  1  6  0  0  0
 12 11  1  0  0  0  0
 15  9  1  0  0  0  0
 22  8  1  0  0  0  0
 22  1  1  0  0  0  0
M  END
>  <CHROM.1>
-165.33590337,77.92773482,-61.37847895,-6.86394720,-0.85356582,0.26642037
1.78631162,-0.08614022,-2.65876536

>  <Name>
lig.pdb

>  <RI>
0

>  <Rbt.Current_Directory>
/home/itssahil/PROJECTS/Mol_Feturizer/New_Systems/rnas/5bws

>  <Rbt.Executable>
rbdock ($Id: //depot/dev/client3/rdock/2013.1/src/exe/rbdock.cxx#4 $)

>  <Rbt.Library>
libRbt.so (2013.1, Build901 2013/11/27)

>  <Rbt.Parameter_File>
/export/apps/rDock/src/rDock_2013.1_src/data/scripts/dock_solv.prm

>  <Rbt.Receptor>
prm/pocket_docking_5.prm

>  <SCORE>
-12.804

>  <SCORE.INTER>
-10.9382

>  <SCORE.INTER.CONST>
1

>  <SCORE.INTER.POLAR>
0

>  <SCORE.INTER.ROT>
3

>  <SCORE.INTER.SOLV>
17.6131

>  <SCORE.INTER.VDW>
-18.7631

>  <SCORE.INTER.norm>
-0.49719

>  <SCORE.INTRA>
-1.8658

>  <SCORE.INTRA.DIHEDRAL>
-3.61601

>  <SCORE.INTRA.DIHEDRAL.0>
6.10773

>  <SCORE.INTRA.POLAR>
0

>  <SCORE.INTRA.POLAR.0>
0

>  <SCORE.INTRA.REPUL>
0

>  <SCORE.INTRA.REPUL.0>
0

>  <SCORE.INTRA.SOLV>
-0.444576

>  <SCORE.INTRA.SOLV.lig_0>
-71.4024

>  <SCORE.INTRA.VDW>
0.164493

>  <SCORE.INTRA.VDW.0>
-1.86213

>  <SCORE.INTRA.norm>
-0.084809

>  <SCORE.RESTR>
0

>  <SCORE.RESTR.CAVITY>
0

>  <SCORE.RESTR.norm>
0

>  <SCORE.SYSTEM>
0

>  <SCORE.SYSTEM.CONST>
0

>  <SCORE.SYSTEM.DIHEDRAL>
0

>  <SCORE.SYSTEM.SOLV>
0

>  <SCORE.SYSTEM.norm>
0

>  <SCORE.heavy>
22

>  <SCORE.norm>
-0.581999

>  <RMSD>
1.782

$$$$
lig.pdb
 OpenBabel11021811523D
libRbt.so/2013.1/901 2013/11/27
 22 23  0  0  0  0  0  0  0  0999 V2000
   -8.0277   -1.1614   -0.4772 C   0  0  1  0  0  0  0  0  0  0  0  0
   -6.3814    0.3342    0.7245 C   0  0  1  0  0  0  0  0  0  0  0  0
   -7.2935    1.5872    1.0921 C   0  0  1  0  0  0  0  0  0  0  0  0
   -6.3407    2.8568    1.2524 C   0  0  2  0  0  0  0  0  0  0  0  0
   -9.0246   -2.3120   -0.0619 C   0  0  1  0  0  0  0  0  0  0  0  0
   -8.1920   -3.5646    0.2757 C   0  0  2  0  0  0  0  0  0  0  0  0
   -7.3897   -4.0367   -0.9499 C   0  0  2  0  0  0  0  0  0  0  0  0
   -6.3943   -2.9234   -1.4419 C   0  0  1  0  0  0  0  0  0  0  0  0
   -5.6209   -3.3753   -2.7141 C   0  0  0  0  0  0  0  0  0  0  0  0
   -5.3142    2.5973    2.4694 C   0  0  1  0  0  0  0  0  0  0  0  0
   -4.4130    1.3257    2.0638 C   0  0  0  0  0  0  0  0  0  0  0  0
   -5.3476    0.0461    1.8592 C   0  0  2  0  0  0  0  0  0  0  0  0
   -8.3024   -4.3792   -2.0466 F   0  0  0  0  0  0  0  0  0  0  0  0
   -9.8214   -1.8255    1.1306 N   0  0  0  0  0  0  0  0  0  0  0  0
   -4.7744   -4.4924   -2.5289 N   0  0  0  0  0  0  0  0  0  0  0  0
   -4.3819    3.7622    2.6491 N   0  0  0  0  0  0  0  0  0  0  0  0
   -4.5152   -1.1157    1.4857 N   0  0  0  0  0  0  0  0  0  0  0  0
   -7.1831   -0.8283    0.5796 O   0  0  0  0  0  0  0  0  0  0  0  0
   -8.2361    1.8098   -0.0296 O   0  0  0  0  0  0  0  0  0  0  0  0
   -7.1634    3.9415    1.5648 O   0  0  0  0  0  0  0  0  0  0  0  0
   -8.9208   -4.4026    0.5759 O   0  0  0  0  0  0  0  0  0  0  0  0
   -7.2331   -1.6553   -1.6834 O   0  0  0  0  0  0  0  0  0  0  0  0
  1  5  1  0  0  0  0
  1 18  1  1  0  0  0
  2 18  1  1  0  0  0
  2  3  1  0  0  0  0
  2 12  1  0  0  0  0
  3 19  1  6  0  0  0
  3  4  1  0  0  0  0
  4 20  1  1  0  0  0
  4 10  1  0  0  0  0
  5  6  1  0  0  0  0
  5 14  1  1  0  0  0
  6 21  1  6  0  0  0
  7 13  1  6  0  0  0
  7  6  1  0  0  0  0
  8  9  1  6  0  0  0
  8  7  1  0  0  0  0
 10 16  1  6  0  0  0
 11 10  1  0  0  0  0
 12 17  1  6  0  0  0
 12 11  1  0  0  0  0
 15  9  1  0  0  0  0
 22  8  1  0  0  0  0
 22  1  1  0  0  0  0
M  END
>  <CHROM.1>
-163.83096903,74.64064841,-63.67656404,-6.87847955,-0.85276977,0.21765388
1.79642784,-0.10534113,-2.66935207

>  <Name>
lig.pdb

>  <RI>
0

>  <Rbt.Current_Directory>
/home/itssahil/PROJECTS/Mol_Feturizer/New_Systems/rnas/5bws

>  <Rbt.Executable>
rbdock ($Id: //depot/dev/client3/rdock/2013.1/src/exe/rbdock.cxx#4 $)

>  <Rbt.Library>
libRbt.so (2013.1, Build901 2013/11/27)

>  <Rbt.Parameter_File>
/export/apps/rDock/src/rDock_2013.1_src/data/scripts/dock_solv.prm

>  <Rbt.Receptor>
prm/pocket_docking_5.prm

>  <SCORE>
-12.6998

>  <SCORE.INTER>
-10.6945

>  <SCORE.INTER.CONST>
1

>  <SCORE.INTER.POLAR>
0

>  <SCORE.INTER.ROT>
3

>  <SCORE.INTER.SOLV>
17.3386

>  <SCORE.INTER.VDW>
-18.5092

>  <SCORE.INTER.norm>
-0.486112

>  <SCORE.INTRA>
-2.00534

>  <SCORE.INTRA.DIHEDRAL>
-3.83482

>  <SCORE.INTRA.DIHEDRAL.0>
6.10773

>  <SCORE.INTRA.POLAR>
0

>  <SCORE.INTRA.POLAR.0>
0

>  <SCORE.INTRA.REPUL>
0

>  <SCORE.INTRA.REPUL.0>
0

>  <SCORE.INTRA.SOLV>
-0.598835

>  <SCORE.INTRA.SOLV.lig_0>
-71.4024

>  <SCORE.INTRA.VDW>
0.21149

>  <SCORE.INTRA.VDW.0>
-1.86213

>  <SCORE.INTRA.norm>
-0.0911517

>  <SCORE.RESTR>
0

>  <SCORE.RESTR.CAVITY>
0

>  <SCORE.RESTR.norm>
0

>  <SCORE.SYSTEM>
0

>  <SCORE.SYSTEM.CONST>
0

>  <SCORE.SYSTEM.DIHEDRAL>
0

>  <SCORE.SYSTEM.SOLV>
0

>  <SCORE.SYSTEM.norm>
0

>  <SCORE.heavy>
22

>  <SCORE.norm>
-0.577263

>  <RMSD>
1.789

$$$$
lig.pdb
 OpenBabel11021811523D
libRbt.so/2013.1/901 2013/11/27
 22 23  0  0  0  0  0  0  0  0999 V2000
   -7.9885   -1.3003   -0.5135 C   0  0  1  0  0  0  0  0  0  0  0  0
   -6.3483    0.1945    0.6974 C   0  0  1  0  0  0  0  0  0  0  0  0
   -7.2783    1.4413    1.0406 C   0  0  1  0  0  0  0  0  0  0  0  0
   -6.3396    2.7193    1.2159 C   0  0  2  0  0  0  0  0  0  0  0  0
   -8.9915   -2.4450   -0.0963 C   0  0  1  0  0  0  0  0  0  0  0  0
   -8.1659   -3.7039    0.2350 C   0  0  2  0  0  0  0  0  0  0  0  0
   -7.3722   -4.1788   -0.9950 C   0  0  2  0  0  0  0  0  0  0  0  0
   -6.3713   -3.0713   -1.4890 C   0  0  1  0  0  0  0  0  0  0  0  0
   -5.6065   -3.5257   -2.7655 C   0  0  0  0  0  0  0  0  0  0  0  0
   -5.3370    2.4731    2.4554 C   0  0  1  0  0  0  0  0  0  0  0  0
   -4.4170    1.2075    2.0741 C   0  0  0  0  0  0  0  0  0  0  0  0
   -5.3365   -0.0806    1.8550 C   0  0  2  0  0  0  0  0  0  0  0  0
   -8.2919   -4.5128   -2.0885 F   0  0  0  0  0  0  0  0  0  0  0  0
   -9.7798   -1.9557    1.1006 N   0  0  0  0  0  0  0  0  0  0  0  0
   -4.7262   -4.6152   -2.5740 N   0  0  0  0  0  0  0  0  0  0  0  0
   -4.4184    3.6465    2.6501 N   0  0  0  0  0  0  0  0  0  0  0  0
   -4.4868   -1.2369    1.5039 N   0  0  0  0  0  0  0  0  0  0  0  0
   -7.1371   -0.9752    0.5403 O   0  0  0  0  0  0  0  0  0  0  0  0
   -8.1987    1.6517   -0.1017 O   0  0  0  0  0  0  0  0  0  0  0  0
   -7.1777    3.7984    1.5063 O   0  0  0  0  0  0  0  0  0  0  0  0
   -8.8991   -4.5376    0.5366 O   0  0  0  0  0  0  0  0  0  0  0  0
   -7.2025   -1.7970   -1.7242 O   0  0  0  0  0  0  0  0  0  0  0  0
  1  5  1  0  0  0  0
  1 18  1  1  0  0  0
  2 18  1  1  0  0  0
  2  3  1  0  0  0  0
  2 12  1  0  0  0  0
  3 19  1  6  0  0  0
  3  4  1  0  0  0  0
  4 20  1  1  0  0  0
  4 10  1  0  0  0  0
  5  6  1  0  0  0  0
  5 14  1  1  0  0  0
  6 21  1  6  0  0  0
  7 13  1  6  0  0  0
  7  6  1  0  0  0  0
  8  9  1  6  0  0  0
  8  7  1  0  0  0  0
 10 16  1  6  0  0  0
 11 10  1  0  0  0  0
 12 17  1  6  0  0  0
 12 11  1  0  0  0  0
 15  9  1  0  0  0  0
 22  8  1  0  0  0  0
 22  1  1  0  0  0  0
M  END
>  <CHROM.1>
-162.38172243,72.44281903,-66.10001987,-6.86018637,-0.98898763,0.18399772
1.79179994,-0.10137859,-2.66729556

>  <Name>
lig.pdb

>  <RI>
0

>  <Rbt.Current_Directory>
/home/itssahil/PROJECTS/Mol_Feturizer/New_Systems/rnas/5bws

>  <Rbt.Executable>
rbdock ($Id: //depot/dev/client3/rdock/2013.1/src/exe/rbdock.cxx#4 $)

>  <Rbt.Library>
libRbt.so (2013.1, Build901 2013/11/27)

>  <Rbt.Parameter_File>
/export/apps/rDock/src/rDock_2013.1_src/data/scripts/dock_solv.prm

>  <Rbt.Receptor>
prm/pocket_docking_7.prm

>  <SCORE>
-12.6585

>  <SCORE.INTER>
-10.6473

>  <SCORE.INTER.CONST>
1

>  <SCORE.INTER.POLAR>
0

>  <SCORE.INTER.ROT>
3

>  <SCORE.INTER.SOLV>
17.5361

>  <SCORE.INTER.VDW>
-18.5436

>  <SCORE.INTER.norm>
-0.483967

>  <SCORE.INTRA>
-2.01121

>  <SCORE.INTRA.DIHEDRAL>
-3.80806

>  <SCORE.INTRA.DIHEDRAL.0>
6.10773

>  <SCORE.INTRA.POLAR>
0

>  <SCORE.INTRA.POLAR.0>
0

>  <SCORE.INTRA.REPUL>
0

>  <SCORE.INTRA.REPUL.0>
0

>  <SCORE.INTRA.SOLV>
-0.703136

>  <SCORE.INTRA.SOLV.lig_0>
-71.4024

>  <SCORE.INTRA.VDW>
0.244384

>  <SCORE.INTRA.VDW.0>
-1.86213

>  <SCORE.INTRA.norm>
-0.0914187

>  <SCORE.RESTR>
0

>  <SCORE.RESTR.CAVITY>
0

>  <SCORE.RESTR.norm>
0

>  <SCORE.SYSTEM>
0

>  <SCORE.SYSTEM.CONST>
0

>  <SCORE.SYSTEM.DIHEDRAL>
0

>  <SCORE.SYSTEM.SOLV>
0

>  <SCORE.SYSTEM.norm>
0

>  <SCORE.heavy>
22

>  <SCORE.norm>
-0.575385

>  <RMSD>
1.789

$$$$
lig.pdb
 OpenBabel11021811523D
libRbt.so/2013.1/901 2013/11/27
 22 23  0  0  0  0  0  0  0  0999 V2000
   -8.0374   -1.1921   -0.5111 C   0  0  1  0  0  0  0  0  0  0  0  0
   -6.4013    0.3039    0.7039 C   0  0  1  0  0  0  0  0  0  0  0  0
   -7.3120    1.5587    1.0688 C   0  0  1  0  0  0  0  0  0  0  0  0
   -6.3571    2.8259    1.2343 C   0  0  2  0  0  0  0  0  0  0  0  0
   -9.0365   -2.3443   -0.1059 C   0  0  1  0  0  0  0  0  0  0  0  0
   -8.2052   -3.5951    0.2415 C   0  0  2  0  0  0  0  0  0  0  0  0
   -7.3887   -4.0664   -0.9749 C   0  0  2  0  0  0  0  0  0  0  0  0
   -6.3902   -2.9515   -1.4569 C   0  0  1  0  0  0  0  0  0  0  0  0
   -5.6022   -3.4027   -2.7203 C   0  0  0  0  0  0  0  0  0  0  0  0
   -5.3363    2.5630    2.4554 C   0  0  1  0  0  0  0  0  0  0  0  0
   -4.4362    1.2897    2.0523 C   0  0  0  0  0  0  0  0  0  0  0  0
   -5.3729    0.0124    1.8427 C   0  0  2  0  0  0  0  0  0  0  0  0
   -8.2889   -4.4114   -2.0813 F   0  0  0  0  0  0  0  0  0  0  0  0
   -9.8472   -1.8587    1.0775 N   0  0  0  0  0  0  0  0  0  0  0  0
   -4.7510   -4.5142   -2.5238 N   0  0  0  0  0  0  0  0  0  0  0  0
   -4.4021    3.7257    2.6400 N   0  0  0  0  0  0  0  0  0  0  0  0
   -4.5416   -1.1510    1.4717 N   0  0  0  0  0  0  0  0  0  0  0  0
   -7.2050   -0.8566    0.5545 O   0  0  0  0  0  0  0  0  0  0  0  0
   -8.2494    1.7844   -0.0567 O   0  0  0  0  0  0  0  0  0  0  0  0
   -7.1786    3.9122    1.5441 O   0  0  0  0  0  0  0  0  0  0  0  0
   -8.9355   -4.4343    0.5344 O   0  0  0  0  0  0  0  0  0  0  0  0
   -7.2288   -1.6851   -1.7083 O   0  0  0  0  0  0  0  0  0  0  0  0
  1  5  1  0  0  0  0
  1 18  1  1  0  0  0
  2 18  1  1  0  0  0
  2  3  1  0  0  0  0
  2 12  1  0  0  0  0
  3 19  1  6  0  0  0
  3  4  1  0  0  0  0
  4 20  1  1  0  0  0
  4 10  1  0  0  0  0
  5  6  1  0  0  0  0
  5 14  1  1  0  0  0
  6 21  1  6  0  0  0
  7 13  1  6  0  0  0
  7  6  1  0  0  0  0
  8  9  1  6  0  0  0
  8  7  1  0  0  0  0
 10 16  1  6  0  0  0
 11 10  1  0  0  0  0
 12 17  1  6  0  0  0
 12 11  1  0  0  0  0
 15  9  1  0  0  0  0
 22  8  1  0  0  0  0
 22  1  1  0  0  0  0
M  END
>  <CHROM.1>
-164.22751898,75.22010821,-63.95086705,-6.88864390,-0.88345540,0.19430230
1.79322241,-0.09804904,-2.67044835

>  <Name>
lig.pdb

>  <RI>
0

>  <Rbt.Current_Directory>
/home/itssahil/PROJECTS/Mol_Feturizer/New_Systems/rnas/5bws

>  <Rbt.Executable>
rbdock ($Id: //depot/dev/client3/rdock/2013.1/src/exe/rbdock.cxx#4 $)

>  <Rbt.Library>
libRbt.so (2013.1, Build901 2013/11/27)

>  <Rbt.Parameter_File>
/export/apps/rDock/src/rDock_2013.1_src/data/scripts/dock_solv.prm

>  <Rbt.Receptor>
prm/pocket_docking_4.prm

>  <SCORE>
-12.7761

>  <SCORE.INTER>
-10.7793

>  <SCORE.INTER.CONST>
1

>  <SCORE.INTER.POLAR>
0

>  <SCORE.INTER.ROT>
3

>  <SCORE.INTER.SOLV>
17.3875

>  <SCORE.INTER.VDW>
-18.582

>  <SCORE.INTER.norm>
-0.489966

>  <SCORE.INTRA>
-1.99683

>  <SCORE.INTRA.DIHEDRAL>
-3.80583

>  <SCORE.INTRA.DIHEDRAL.0>
6.10773

>  <SCORE.INTRA.POLAR>
0

>  <SCORE.INTRA.POLAR.0>
0

>  <SCORE.INTRA.REPUL>
0

>  <SCORE.INTRA.REPUL.0>
0

>  <SCORE.INTRA.SOLV>
-0.590108

>  <SCORE.INTRA.SOLV.lig_0>
-71.4024

>  <SCORE.INTRA.VDW>
0.201138

>  <SCORE.INTRA.VDW.0>
-1.86213

>  <SCORE.INTRA.norm>
-0.0907651

>  <SCORE.RESTR>
0

>  <SCORE.RESTR.CAVITY>
0

>  <SCORE.RESTR.norm>
0

>  <SCORE.SYSTEM>
0

>  <SCORE.SYSTEM.CONST>
0

>  <SCORE.SYSTEM.DIHEDRAL>
0

>  <SCORE.SYSTEM.SOLV>
0

>  <SCORE.SYSTEM.norm>
0

>  <SCORE.heavy>
22

>  <SCORE.norm>
-0.580731

>  <RMSD>
1.802

$$$$
lig.pdb
 OpenBabel11021811523D
libRbt.so/2013.1/901 2013/11/27
 22 23  0  0  0  0  0  0  0  0999 V2000
   -7.7351   -1.6263   -0.8118 C   0  0  1  0  0  0  0  0  0  0  0  0
   -6.2104   -0.0612    0.4598 C   0  0  1  0  0  0  0  0  0  0  0  0
   -7.2533    1.1014    0.7724 C   0  0  1  0  0  0  0  0  0  0  0  0
   -6.4301    2.4465    1.0138 C   0  0  2  0  0  0  0  0  0  0  0  0
   -8.9331   -2.5247   -0.3142 C   0  0  1  0  0  0  0  0  0  0  0  0
   -8.3450   -3.8348    0.2464 C   0  0  2  0  0  0  0  0  0  0  0  0
   -7.5818   -4.6050   -0.8457 C   0  0  2  0  0  0  0  0  0  0  0  0
   -6.3883   -3.7538   -1.4143 C   0  0  1  0  0  0  0  0  0  0  0  0
   -5.6480   -4.5064   -2.5572 C   0  0  0  0  0  0  0  0  0  0  0  0
   -5.4743    2.2580    2.2996 C   0  0  1  0  0  0  0  0  0  0  0  0
   -4.4378    1.0766    1.9482 C   0  0  0  0  0  0  0  0  0  0  0  0
   -5.2390   -0.2763    1.6638 C   0  0  2  0  0  0  0  0  0  0  0  0
   -8.4897   -4.9484   -1.9462 F   0  0  0  0  0  0  0  0  0  0  0  0
   -9.6869   -1.7462    0.7437 N   0  0  0  0  0  0  0  0  0  0  0  0
   -4.3833   -3.9740   -2.8970 N   0  0  0  0  0  0  0  0  0  0  0  0
   -4.6636    3.4968    2.5579 N   0  0  0  0  0  0  0  0  0  0  0  0
   -4.2829   -1.3549    1.3405 N   0  0  0  0  0  0  0  0  0  0  0  0
   -6.8940   -1.2867    0.2458 O   0  0  0  0  0  0  0  0  0  0  0  0
   -8.1293    1.2589   -0.4126 O   0  0  0  0  0  0  0  0  0  0  0  0
   -7.3654    3.4502    1.2761 O   0  0  0  0  0  0  0  0  0  0  0  0
   -9.2200   -4.4890    0.6064 O   0  0  0  0  0  0  0  0  0  0  0  0
   -6.9842   -2.4137   -1.8824 O   0  0  0  0  0  0  0  0  0  0  0  0
  1  5  1  0  0  0  0
  1 18  1  1  0  0  0
  2 18  1  1  0  0  0
  2  3  1  0  0  0  0
  2 12  1  0  0  0  0
  3 19  1  6  0  0  0
  3  4  1  0  0  0  0
  4 20  1  1  0  0  0
  4 10  1  0  0  0  0
  5  6  1  0  0  0  0
  5 14  1  1  0  0  0
  6 21  1  6  0  0  0
  7 13  1  6  0  0  0
  7  6  1  0  0  0  0
  8  9  1  6  0  0  0
  8  7  1  0  0  0  0
 10 16  1  6  0  0  0
 11 10  1  0  0  0  0
 12 17  1  6  0  0  0
 12 11  1  0  0  0  0
 15  9  1  0  0  0  0
 22  8  1  0  0  0  0
 22  1  1  0  0  0  0
M  END
>  <CHROM.1>
-143.21887135,67.72686418,-165.12814920,-6.85874355,-1.24341996,0.05179702
1.79483754,-0.11441541,-2.68202222

>  <Name>
lig.pdb

>  <RI>
0

>  <Rbt.Current_Directory>
/home/itssahil/PROJECTS/Mol_Feturizer/New_Systems/rnas/5bws

>  <Rbt.Executable>
rbdock ($Id: //depot/dev/client3/rdock/2013.1/src/exe/rbdock.cxx#4 $)

>  <Rbt.Library>
libRbt.so (2013.1, Build901 2013/11/27)

>  <Rbt.Parameter_File>
/export/apps/rDock/src/rDock_2013.1_src/data/scripts/dock_solv.prm

>  <Rbt.Receptor>
prm/pocket_docking_7.prm

>  <SCORE>
-9.44928

>  <SCORE.INTER>
-9.33496

>  <SCORE.INTER.CONST>
1

>  <SCORE.INTER.POLAR>
0

>  <SCORE.INTER.ROT>
3

>  <SCORE.INTER.SOLV>
19.2304

>  <SCORE.INTER.VDW>
-18.2334

>  <SCORE.INTER.norm>
-0.424316

>  <SCORE.INTRA>
-0.114316

>  <SCORE.INTRA.DIHEDRAL>
-0.204246

>  <SCORE.INTRA.DIHEDRAL.0>
6.10773

>  <SCORE.INTRA.POLAR>
0

>  <SCORE.INTRA.POLAR.0>
0

>  <SCORE.INTRA.REPUL>
0

>  <SCORE.INTRA.REPUL.0>
0

>  <SCORE.INTRA.SOLV>
-0.709804

>  <SCORE.INTRA.SOLV.lig_0>
-71.4024

>  <SCORE.INTRA.VDW>
0.342709

>  <SCORE.INTRA.VDW.0>
-1.86213

>  <SCORE.INTRA.norm>
-0.00519619

>  <SCORE.RESTR>
0

>  <SCORE.RESTR.CAVITY>
0

>  <SCORE.RESTR.norm>
0

>  <SCORE.SYSTEM>
0

>  <SCORE.SYSTEM.CONST>
0

>  <SCORE.SYSTEM.DIHEDRAL>
0

>  <SCORE.SYSTEM.SOLV>
0

>  <SCORE.SYSTEM.norm>
0

>  <SCORE.heavy>
22

>  <SCORE.norm>
-0.429513

>  <RMSD>
1.807

$$$$
lig.pdb
 OpenBabel11021811523D
libRbt.so/2013.1/901 2013/11/27
 22 23  0  0  0  0  0  0  0  0999 V2000
   -8.0826   -1.1379   -0.5189 C   0  0  1  0  0  0  0  0  0  0  0  0
   -6.4970    0.4014    0.7090 C   0  0  1  0  0  0  0  0  0  0  0  0
   -7.4354    1.6374    1.0678 C   0  0  1  0  0  0  0  0  0  0  0  0
   -6.5079    2.9245    1.2360 C   0  0  2  0  0  0  0  0  0  0  0  0
   -9.0666   -2.3050   -0.1193 C   0  0  1  0  0  0  0  0  0  0  0  0
   -8.2179   -3.5360    0.2554 C   0  0  2  0  0  0  0  0  0  0  0  0
   -7.3713   -4.0036   -0.9417 C   0  0  2  0  0  0  0  0  0  0  0  0
   -6.3858   -2.8746   -1.4176 C   0  0  1  0  0  0  0  0  0  0  0  0
   -5.5672   -3.3232   -2.6624 C   0  0  0  0  0  0  0  0  0  0  0  0
   -5.4876    2.6845    2.4622 C   0  0  1  0  0  0  0  0  0  0  0  0
   -4.5594    1.4298    2.0653 C   0  0  0  0  0  0  0  0  0  0  0  0
   -5.4682    0.1329    1.8531 C   0  0  2  0  0  0  0  0  0  0  0  0
   -8.2450   -4.3769   -2.0599 F   0  0  0  0  0  0  0  0  0  0  0  0
   -9.9071   -1.8232    1.0447 N   0  0  0  0  0  0  0  0  0  0  0  0
   -4.7184   -4.4329   -2.4465 N   0  0  0  0  0  0  0  0  0  0  0  0
   -4.5787    3.8667    2.6496 N   0  0  0  0  0  0  0  0  0  0  0  0
   -4.6111   -1.0134    1.4877 N   0  0  0  0  0  0  0  0  0  0  0  0
   -7.2756   -0.7758    0.5576 O   0  0  0  0  0  0  0  0  0  0  0  0
   -8.3720    1.8420   -0.0623 O   0  0  0  0  0  0  0  0  0  0  0  0
   -7.3534    3.9938    1.5404 O   0  0  0  0  0  0  0  0  0  0  0  0
   -8.9372   -4.3861    0.5441 O   0  0  0  0  0  0  0  0  0  0  0  0
   -7.2438   -1.6272   -1.6967 O   0  0  0  0  0  0  0  0  0  0  0  0
  1  5  1  0  0  0  0
  1 18  1  1  0  0  0
  2 18  1  1  0  0  0
  2  3  1  0  0  0  0
  2 12  1  0  0  0  0
  3 19  1  6  0  0  0
  3  4  1  0  0  0  0
  4 20  1  1  0  0  0
  4 10  1  0  0  0  0
  5  6  1  0  0  0  0
  5 14  1  1  0  0  0
  6 21  1  6  0  0  0
  7 13  1  6  0  0  0
  7  6  1  0  0  0  0
  8  9  1  6  0  0  0
  8  7  1  0  0  0  0
 10 16  1  6  0  0  0
 11 10  1  0  0  0  0
 12 17  1  6  0  0  0
 12 11  1  0  0  0  0
 15  9  1  0  0  0  0
 22  8  1  0  0  0  0
 22  1  1  0  0  0  0
M  END
>  <CHROM.1>
-164.22212818,76.11121790,-62.75113479,-6.95017761,-0.80358020,0.20635164
1.76903594,-0.09333905,-2.68034123

>  <Name>
lig.pdb

>  <RI>
0

>  <Rbt.Current_Directory>
/home/itssahil/PROJECTS/Mol_Feturizer/New_Systems/rnas/5bws

>  <Rbt.Executable>
rbdock ($Id: //depot/dev/client3/rdock/2013.1/src/exe/rbdock.cxx#4 $)

>  <Rbt.Library>
libRbt.so (2013.1, Build901 2013/11/27)

>  <Rbt.Parameter_File>
/export/apps/rDock/src/rDock_2013.1_src/data/scripts/dock_solv.prm

>  <Rbt.Receptor>
prm/pocket_docking_4.prm

>  <SCORE>
-12.7915

>  <SCORE.INTER>
-10.8631

>  <SCORE.INTER.CONST>
1

>  <SCORE.INTER.POLAR>
0

>  <SCORE.INTER.ROT>
3

>  <SCORE.INTER.SOLV>
17.3041

>  <SCORE.INTER.VDW>
-18.6101

>  <SCORE.INTER.norm>
-0.493777

>  <SCORE.INTRA>
-1.9284

>  <SCORE.INTRA.DIHEDRAL>
-3.71137

>  <SCORE.INTRA.DIHEDRAL.0>
6.10773

>  <SCORE.INTRA.POLAR>
0

>  <SCORE.INTRA.POLAR.0>
0

>  <SCORE.INTRA.REPUL>
0

>  <SCORE.INTRA.REPUL.0>
0

>  <SCORE.INTRA.SOLV>
-0.524865

>  <SCORE.INTRA.SOLV.lig_0>
-71.4024

>  <SCORE.INTRA.VDW>
0.189723

>  <SCORE.INTRA.VDW.0>
-1.86213

>  <SCORE.INTRA.norm>
-0.0876543

>  <SCORE.RESTR>
0

>  <SCORE.RESTR.CAVITY>
0

>  <SCORE.RESTR.norm>
0

>  <SCORE.SYSTEM>
0

>  <SCORE.SYSTEM.CONST>
0

>  <SCORE.SYSTEM.DIHEDRAL>
0

>  <SCORE.SYSTEM.SOLV>
0

>  <SCORE.SYSTEM.norm>
0

>  <SCORE.heavy>
22

>  <SCORE.norm>
-0.581431

>  <RMSD>
1.894

$$$$
lig.pdb
 OpenBabel11021811523D
libRbt.so/2013.1/901 2013/11/27
 22 23  0  0  0  0  0  0  0  0999 V2000
   -8.0931   -1.1385   -0.5177 C   0  0  1  0  0  0  0  0  0  0  0  0
   -6.5025    0.4001    0.7046 C   0  0  1  0  0  0  0  0  0  0  0  0
   -7.4449    1.6321    1.0664 C   0  0  1  0  0  0  0  0  0  0  0  0
   -6.5219    2.9224    1.2346 C   0  0  2  0  0  0  0  0  0  0  0  0
   -9.0767   -2.3038   -0.1121 C   0  0  1  0  0  0  0  0  0  0  0  0
   -8.2280   -3.5374    0.2542 C   0  0  2  0  0  0  0  0  0  0  0  0
   -7.3918   -4.0053   -0.9500 C   0  0  2  0  0  0  0  0  0  0  0  0
   -6.4074   -2.8779   -1.4320 C   0  0  1  0  0  0  0  0  0  0  0  0
   -5.5994   -3.3266   -2.6837 C   0  0  0  0  0  0  0  0  0  0  0  0
   -5.4989    2.6848    2.4590 C   0  0  1  0  0  0  0  0  0  0  0  0
   -4.5665    1.4341    2.0591 C   0  0  0  0  0  0  0  0  0  0  0  0
   -5.4709    0.1341    1.8468 C   0  0  2  0  0  0  0  0  0  0  0  0
   -8.2750   -4.3750   -2.0620 F   0  0  0  0  0  0  0  0  0  0  0  0
   -9.9070   -1.8218    1.0590 N   0  0  0  0  0  0  0  0  0  0  0  0
   -4.7362   -4.4257   -2.4706 N   0  0  0  0  0  0  0  0  0  0  0  0
   -4.5941    3.8702    2.6463 N   0  0  0  0  0  0  0  0  0  0  0  0
   -4.6100   -1.0086    1.4787 N   0  0  0  0  0  0  0  0  0  0  0  0
   -7.2769   -0.7799    0.5530 O   0  0  0  0  0  0  0  0  0  0  0  0
   -8.3840    1.8346   -0.0621 O   0  0  0  0  0  0  0  0  0  0  0  0
   -7.3709    3.9883    1.5416 O   0  0  0  0  0  0  0  0  0  0  0  0
   -8.9470   -4.3863    0.5473 O   0  0  0  0  0  0  0  0  0  0  0  0
   -7.2646   -1.6281   -1.7026 O   0  0  0  0  0  0  0  0  0  0  0  0
  1  5  1  0  0  0  0
  1 18  1  1  0  0  0
  2 18  1  1  0  0  0
  2  3  1  0  0  0  0
  2 12  1  0  0  0  0
  3 19  1  6  0  0  0
  3  4  1  0  0  0  0
  4 20  1  1  0  0  0
  4 10  1  0  0  0  0
  5  6  1  0  0  0  0
  5 14  1  1  0  0  0
  6 21  1  6  0  0  0
  7 13  1  6  0  0  0
  7  6  1  0  0  0  0
  8  9  1  6  0  0  0
  8  7  1  0  0  0  0
 10 16  1  6  0  0  0
 11 10  1  0  0  0  0
 12 17  1  6  0  0  0
 12 11  1  0  0  0  0
 15  9  1  0  0  0  0
 22  8  1  0  0  0  0
 22  1  1  0  0  0  0
M  END
>  <CHROM.1>
-163.68843618,75.51833075,-63.67932572,-6.96312691,-0.80413254,0.20235203
1.77015551,-0.09803824,-2.67816372

>  <Name>
lig.pdb

>  <RI>
0

>  <Rbt.Current_Directory>
/home/itssahil/PROJECTS/Mol_Feturizer/New_Systems/rnas/5bws

>  <Rbt.Executable>
rbdock ($Id: //depot/dev/client3/rdock/2013.1/src/exe/rbdock.cxx#4 $)

>  <Rbt.Library>
libRbt.so (2013.1, Build901 2013/11/27)

>  <Rbt.Parameter_File>
/export/apps/rDock/src/rDock_2013.1_src/data/scripts/dock_solv.prm

>  <Rbt.Receptor>
prm/pocket_docking_5.prm

>  <SCORE>
-12.7778

>  <SCORE.INTER>
-10.848

>  <SCORE.INTER.CONST>
1

>  <SCORE.INTER.POLAR>
0

>  <SCORE.INTER.ROT>
3

>  <SCORE.INTER.SOLV>
17.3287

>  <SCORE.INTER.VDW>
-18.6082

>  <SCORE.INTER.norm>
-0.493092

>  <SCORE.INTRA>
-1.92981

>  <SCORE.INTRA.DIHEDRAL>
-3.69717

>  <SCORE.INTRA.DIHEDRAL.0>
6.10773

>  <SCORE.INTRA.POLAR>
0

>  <SCORE.INTRA.POLAR.0>
0

>  <SCORE.INTRA.REPUL>
0

>  <SCORE.INTRA.REPUL.0>
0

>  <SCORE.INTRA.SOLV>
-0.556913

>  <SCORE.INTRA.SOLV.lig_0>
-71.4024

>  <SCORE.INTRA.VDW>
0.197228

>  <SCORE.INTRA.VDW.0>
-1.86213

>  <SCORE.INTRA.norm>
-0.0877187

>  <SCORE.RESTR>
0

>  <SCORE.RESTR.CAVITY>
0

>  <SCORE.RESTR.norm>
0

>  <SCORE.SYSTEM>
0

>  <SCORE.SYSTEM.CONST>
0

>  <SCORE.SYSTEM.DIHEDRAL>
0

>  <SCORE.SYSTEM.SOLV>
0

>  <SCORE.SYSTEM.norm>
0

>  <SCORE.heavy>
22

>  <SCORE.norm>
-0.580811

>  <RMSD>
1.902

$$$$
lig.pdb
 OpenBabel11021811523D
libRbt.so/2013.1/901 2013/11/27
 22 23  0  0  0  0  0  0  0  0999 V2000
   -8.1017   -1.0935   -0.4914 C   0  0  1  0  0  0  0  0  0  0  0  0
   -6.5108    0.4221    0.7590 C   0  0  1  0  0  0  0  0  0  0  0  0
   -7.4361    1.6823    1.0632 C   0  0  1  0  0  0  0  0  0  0  0  0
   -6.4890    2.9533    1.2447 C   0  0  2  0  0  0  0  0  0  0  0  0
   -9.0858   -2.2687   -0.1164 C   0  0  1  0  0  0  0  0  0  0  0  0
   -8.2367   -3.5013    0.2524 C   0  0  2  0  0  0  0  0  0  0  0  0
   -7.3758   -3.9515   -0.9412 C   0  0  2  0  0  0  0  0  0  0  0  0
   -6.3894   -2.8134   -1.3930 C   0  0  1  0  0  0  0  0  0  0  0  0
   -5.5560   -3.2441   -2.6343 C   0  0  0  0  0  0  0  0  0  0  0  0
   -5.5192    2.7136    2.5113 C   0  0  1  0  0  0  0  0  0  0  0  0
   -4.6030    1.4341    2.1688 C   0  0  0  0  0  0  0  0  0  0  0  0
   -5.5300    0.1523    1.9442 C   0  0  2  0  0  0  0  0  0  0  0  0
   -8.2363   -4.3142   -2.0730 F   0  0  0  0  0  0  0  0  0  0  0  0
   -9.9402   -1.8039    1.0444 N   0  0  0  0  0  0  0  0  0  0  0  0
   -4.7391   -4.3806   -2.4359 N   0  0  0  0  0  0  0  0  0  0  0  0
   -4.5936    3.8804    2.7130 N   0  0  0  0  0  0  0  0  0  0  0  0
   -4.6839   -1.0168    1.6289 N   0  0  0  0  0  0  0  0  0  0  0  0
   -7.3074   -0.7418    0.5979 O   0  0  0  0  0  0  0  0  0  0  0  0
   -8.3265    1.8867   -0.1037 O   0  0  0  0  0  0  0  0  0  0  0  0
   -7.3228    4.0443    1.5007 O   0  0  0  0  0  0  0  0  0  0  0  0
   -8.9559   -4.3573    0.5232 O   0  0  0  0  0  0  0  0  0  0  0  0
   -7.2488   -1.5656   -1.6660 O   0  0  0  0  0  0  0  0  0  0  0  0
  1  5  1  0  0  0  0
  1 18  1  1  0  0  0
  2 18  1  1  0  0  0
  2  3  1  0  0  0  0
  2 12  1  0  0  0  0
  3 19  1  6  0  0  0
  3  4  1  0  0  0  0
  4 20  1  1  0  0  0
  4 10  1  0  0  0  0
  5  6  1  0  0  0  0
  5 14  1  1  0  0  0
  6 21  1  6  0  0  0
  7 13  1  6  0  0  0
  7  6  1  0  0  0  0
  8  9  1  6  0  0  0
  8  7  1  0  0  0  0
 10 16  1  6  0  0  0
 11 10  1  0  0  0  0
 12 17  1  6  0  0  0
 12 11  1  0  0  0  0
 15  9  1  0  0  0  0
 22  8  1  0  0  0  0
 22  1  1  0  0  0  0
M  END
>  <CHROM.1>
-165.78580777,74.79147655,-60.73859982,-6.96278120,-0.76571030,0.22972602
1.77114545,-0.08054694,-2.67816208

>  <Name>
lig.pdb

>  <RI>
0

>  <Rbt.Current_Directory>
/home/itssahil/PROJECTS/Mol_Feturizer/New_Systems/rnas/5bws

>  <Rbt.Executable>
rbdock ($Id: //depot/dev/client3/rdock/2013.1/src/exe/rbdock.cxx#4 $)

>  <Rbt.Library>
libRbt.so (2013.1, Build901 2013/11/27)

>  <Rbt.Parameter_File>
/export/apps/rDock/src/rDock_2013.1_src/data/scripts/dock_solv.prm

>  <Rbt.Receptor>
prm/pocket_docking_8.prm

>  <SCORE>
-12.7726

>  <SCORE.INTER>
-10.6357

>  <SCORE.INTER.CONST>
1

>  <SCORE.INTER.POLAR>
0

>  <SCORE.INTER.ROT>
3

>  <SCORE.INTER.SOLV>
17.8232

>  <SCORE.INTER.VDW>
-18.6315

>  <SCORE.INTER.norm>
-0.483442

>  <SCORE.INTRA>
-2.13684

>  <SCORE.INTRA.DIHEDRAL>
-4.12508

>  <SCORE.INTRA.DIHEDRAL.0>
6.10773

>  <SCORE.INTRA.POLAR>
0

>  <SCORE.INTRA.POLAR.0>
0

>  <SCORE.INTRA.REPUL>
0

>  <SCORE.INTRA.REPUL.0>
0

>  <SCORE.INTRA.SOLV>
-0.579617

>  <SCORE.INTRA.SOLV.lig_0>
-71.4024

>  <SCORE.INTRA.VDW>
0.215507

>  <SCORE.INTRA.VDW.0>
-1.86213

>  <SCORE.INTRA.norm>
-0.0971292

>  <SCORE.RESTR>
0

>  <SCORE.RESTR.CAVITY>
0

>  <SCORE.RESTR.norm>
0

>  <SCORE.SYSTEM>
0

>  <SCORE.SYSTEM.CONST>
0

>  <SCORE.SYSTEM.DIHEDRAL>
0

>  <SCORE.SYSTEM.SOLV>
0

>  <SCORE.SYSTEM.norm>
0

>  <SCORE.heavy>
22

>  <SCORE.norm>
-0.580571

>  <RMSD>
1.904

$$$$
lig.pdb
 OpenBabel11021811523D
libRbt.so/2013.1/901 2013/11/27
 22 23  0  0  0  0  0  0  0  0999 V2000
   -8.0926   -1.1199   -0.5246 C   0  0  1  0  0  0  0  0  0  0  0  0
   -6.5131    0.4337    0.6929 C   0  0  1  0  0  0  0  0  0  0  0  0
   -7.4606    1.6619    1.0543 C   0  0  1  0  0  0  0  0  0  0  0  0
   -6.5436    2.9573    1.2165 C   0  0  2  0  0  0  0  0  0  0  0  0
   -9.0649   -2.2944   -0.1180 C   0  0  1  0  0  0  0  0  0  0  0  0
   -8.2041   -3.5184    0.2527 C   0  0  2  0  0  0  0  0  0  0  0  0
   -7.3611   -3.9804   -0.9491 C   0  0  2  0  0  0  0  0  0  0  0  0
   -6.3875   -2.8440   -1.4320 C   0  0  1  0  0  0  0  0  0  0  0  0
   -5.5729   -3.2873   -2.6813 C   0  0  0  0  0  0  0  0  0  0  0  0
   -5.5157    2.7280    2.4384 C   0  0  1  0  0  0  0  0  0  0  0  0
   -4.5783    1.4809    2.0389 C   0  0  0  0  0  0  0  0  0  0  0  0
   -5.4767    0.1759    1.8326 C   0  0  2  0  0  0  0  0  0  0  0  0
   -8.2386   -4.3617   -2.0617 F   0  0  0  0  0  0  0  0  0  0  0  0
   -9.9021   -1.8183    1.0507 N   0  0  0  0  0  0  0  0  0  0  0  0
   -4.7147   -4.3907   -2.4698 N   0  0  0  0  0  0  0  0  0  0  0  0
   -4.6163    3.9183    2.6199 N   0  0  0  0  0  0  0  0  0  0  0  0
   -4.6113   -0.9634    1.4648 N   0  0  0  0  0  0  0  0  0  0  0  0
   -7.2820   -0.7505    0.5466 O   0  0  0  0  0  0  0  0  0  0  0  0
   -8.4041    1.8568   -0.0718 O   0  0  0  0  0  0  0  0  0  0  0  0
   -7.3970    4.0197    1.5233 O   0  0  0  0  0  0  0  0  0  0  0  0
   -8.9149   -4.3739    0.5465 O   0  0  0  0  0  0  0  0  0  0  0  0
   -7.2571   -1.6037   -1.7070 O   0  0  0  0  0  0  0  0  0  0  0  0
  1  5  1  0  0  0  0
  1 18  1  1  0  0  0
  2 18  1  1  0  0  0
  2  3  1  0  0  0  0
  2 12  1  0  0  0  0
  3 19  1  6  0  0  0
  3  4  1  0  0  0  0
  4 20  1  1  0  0  0
  4 10  1  0  0  0  0
  5  6  1  0  0  0  0
  5 14  1  1  0  0  0
  6 21  1  6  0  0  0
  7 13  1  6  0  0  0
  7  6  1  0  0  0  0
  8  9  1  6  0  0  0
  8  7  1  0  0  0  0
 10 16  1  6  0  0  0
 11 10  1  0  0  0  0
 12 17  1  6  0  0  0
 12 11  1  0  0  0  0
 15  9  1  0  0  0  0
 22  8  1  0  0  0  0
 22  1  1  0  0  0  0
M  END
>  <CHROM.1>
-164.14634440,75.98519533,-62.70542482,-6.96006100,-0.77542668,0.19366181
1.76389860,-0.10196589,-2.68180535

>  <Name>
lig.pdb

>  <RI>
0

>  <Rbt.Current_Directory>
/home/itssahil/PROJECTS/Mol_Feturizer/New_Systems/rnas/5bws

>  <Rbt.Executable>
rbdock ($Id: //depot/dev/client3/rdock/2013.1/src/exe/rbdock.cxx#4 $)

>  <Rbt.Library>
libRbt.so (2013.1, Build901 2013/11/27)

>  <Rbt.Parameter_File>
/export/apps/rDock/src/rDock_2013.1_src/data/scripts/dock_solv.prm

>  <Rbt.Receptor>
prm/pocket_docking_4.prm

>  <SCORE>
-12.7993

>  <SCORE.INTER>
-10.8678

>  <SCORE.INTER.CONST>
1

>  <SCORE.INTER.POLAR>
0

>  <SCORE.INTER.ROT>
3

>  <SCORE.INTER.SOLV>
17.2413

>  <SCORE.INTER.VDW>
-18.5923

>  <SCORE.INTER.norm>
-0.49399

>  <SCORE.INTRA>
-1.93151

>  <SCORE.INTRA.DIHEDRAL>
-3.71944

>  <SCORE.INTRA.DIHEDRAL.0>
6.10773

>  <SCORE.INTRA.POLAR>
0

>  <SCORE.INTRA.POLAR.0>
0

>  <SCORE.INTRA.REPUL>
0

>  <SCORE.INTRA.REPUL.0>
0

>  <SCORE.INTRA.SOLV>
-0.527349

>  <SCORE.INTRA.SOLV.lig_0>
-71.4024

>  <SCORE.INTRA.VDW>
0.191887

>  <SCORE.INTRA.VDW.0>
-1.86213

>  <SCORE.INTRA.norm>
-0.0877957

>  <SCORE.RESTR>
0

>  <SCORE.RESTR.CAVITY>
0

>  <SCORE.RESTR.norm>
0

>  <SCORE.SYSTEM>
0

>  <SCORE.SYSTEM.CONST>
0

>  <SCORE.SYSTEM.DIHEDRAL>
0

>  <SCORE.SYSTEM.SOLV>
0

>  <SCORE.SYSTEM.norm>
0

>  <SCORE.heavy>
22

>  <SCORE.norm>
-0.581786

>  <RMSD>
1.917

$$$$
lig.pdb
 OpenBabel11021811523D
libRbt.so/2013.1/901 2013/11/27
 22 23  0  0  0  0  0  0  0  0999 V2000
   -8.1006   -1.1054   -0.5111 C   0  0  1  0  0  0  0  0  0  0  0  0
   -6.5297    0.4488    0.7169 C   0  0  1  0  0  0  0  0  0  0  0  0
   -7.4814    1.6652    1.1063 C   0  0  1  0  0  0  0  0  0  0  0  0
   -6.5714    2.9645    1.2762 C   0  0  2  0  0  0  0  0  0  0  0  0
   -9.0690   -2.2855   -0.1114 C   0  0  1  0  0  0  0  0  0  0  0  0
   -8.2041   -3.5082    0.2537 C   0  0  2  0  0  0  0  0  0  0  0  0
   -7.3584   -3.9610   -0.9497 C   0  0  2  0  0  0  0  0  0  0  0  0
   -6.3886   -2.8187   -1.4259 C   0  0  1  0  0  0  0  0  0  0  0  0
   -5.5713   -3.2526   -2.6767 C   0  0  0  0  0  0  0  0  0  0  0  0
   -5.5281    2.7253    2.4830 C   0  0  1  0  0  0  0  0  0  0  0  0
   -4.5868    1.4905    2.0554 C   0  0  0  0  0  0  0  0  0  0  0  0
   -5.4787    0.1822    1.8410 C   0  0  2  0  0  0  0  0  0  0  0  0
   -8.2336   -4.3397   -2.0650 F   0  0  0  0  0  0  0  0  0  0  0  0
   -9.9089   -1.8184    1.0590 N   0  0  0  0  0  0  0  0  0  0  0  0
   -4.6979   -4.3441   -2.4661 N   0  0  0  0  0  0  0  0  0  0  0  0
   -4.6348    3.9192    2.6711 N   0  0  0  0  0  0  0  0  0  0  0  0
   -4.6098   -0.9457    1.4475 N   0  0  0  0  0  0  0  0  0  0  0  0
   -7.2923   -0.7386    0.5627 O   0  0  0  0  0  0  0  0  0  0  0  0
   -8.4390    1.8693   -0.0063 O   0  0  0  0  0  0  0  0  0  0  0  0
   -7.4285    4.0166    1.6076 O   0  0  0  0  0  0  0  0  0  0  0  0
   -8.9120   -4.3678    0.5426 O   0  0  0  0  0  0  0  0  0  0  0  0
   -7.2624   -1.5801   -1.6953 O   0  0  0  0  0  0  0  0  0  0  0  0
  1  5  1  0  0  0  0
  1 18  1  1  0  0  0
  2 18  1  1  0  0  0
  2  3  1  0  0  0  0
  2 12  1  0  0  0  0
  3 19  1  6  0  0  0
  3  4  1  0  0  0  0
  4 20  1  1  0  0  0
  4 10  1  0  0  0  0
  5  6  1  0  0  0  0
  5 14  1  1  0  0  0
  6 21  1  6  0  0  0
  7 13  1  6  0  0  0
  7  6  1  0  0  0  0
  8  9  1  6  0  0  0
  8  7  1  0  0  0  0
 10 16  1  6  0  0  0
 11 10  1  0  0  0  0
 12 17  1  6  0  0  0
 12 11  1  0  0  0  0
 15  9  1  0  0  0  0
 22  8  1  0  0  0  0
 22  1  1  0  0  0  0
M  END
>  <CHROM.1>
-164.01174337,76.78291551,-63.40561063,-6.96816324,-0.76213488,0.21428619
1.76024451,-0.10562547,-2.67425487

>  <Name>
lig.pdb

>  <RI>
0

>  <Rbt.Current_Directory>
/home/itssahil/PROJECTS/Mol_Feturizer/New_Systems/rnas/5bws

>  <Rbt.Executable>
rbdock ($Id: //depot/dev/client3/rdock/2013.1/src/exe/rbdock.cxx#4 $)

>  <Rbt.Library>
libRbt.so (2013.1, Build901 2013/11/27)

>  <Rbt.Parameter_File>
/export/apps/rDock/src/rDock_2013.1_src/data/scripts/dock_solv.prm

>  <Rbt.Receptor>
prm/pocket_docking_6.prm

>  <SCORE>
-12.7975

>  <SCORE.INTER>
-10.9371

>  <SCORE.INTER.CONST>
1

>  <SCORE.INTER.POLAR>
0

>  <SCORE.INTER.ROT>
3

>  <SCORE.INTER.SOLV>
17.3951

>  <SCORE.INTER.VDW>
-18.6898

>  <SCORE.INTER.norm>
-0.497143

>  <SCORE.INTRA>
-1.86038

>  <SCORE.INTRA.DIHEDRAL>
-3.5715

>  <SCORE.INTRA.DIHEDRAL.0>
6.10773

>  <SCORE.INTRA.POLAR>
0

>  <SCORE.INTRA.POLAR.0>
0

>  <SCORE.INTRA.REPUL>
0

>  <SCORE.INTRA.REPUL.0>
0

>  <SCORE.INTRA.SOLV>
-0.504606

>  <SCORE.INTRA.SOLV.lig_0>
-71.4024

>  <SCORE.INTRA.VDW>
0.177671

>  <SCORE.INTRA.VDW.0>
-1.86213

>  <SCORE.INTRA.norm>
-0.0845629

>  <SCORE.RESTR>
0

>  <SCORE.RESTR.CAVITY>
0

>  <SCORE.RESTR.norm>
0

>  <SCORE.SYSTEM>
0

>  <SCORE.SYSTEM.CONST>
0

>  <SCORE.SYSTEM.DIHEDRAL>
0

>  <SCORE.SYSTEM.SOLV>
0

>  <SCORE.SYSTEM.norm>
0

>  <SCORE.heavy>
22

>  <SCORE.norm>
-0.581705

>  <RMSD>
1.926

$$$$
lig.pdb
 OpenBabel11021811523D
libRbt.so/2013.1/901 2013/11/27
 22 23  0  0  0  0  0  0  0  0999 V2000
   -8.0975   -1.1326   -0.5253 C   0  0  1  0  0  0  0  0  0  0  0  0
   -6.5176    0.4212    0.6915 C   0  0  1  0  0  0  0  0  0  0  0  0
   -7.4749    1.6385    1.0642 C   0  0  1  0  0  0  0  0  0  0  0  0
   -6.5690    2.9409    1.2320 C   0  0  2  0  0  0  0  0  0  0  0  0
   -9.0753   -2.3000   -0.1113 C   0  0  1  0  0  0  0  0  0  0  0  0
   -8.2207   -3.5300    0.2534 C   0  0  2  0  0  0  0  0  0  0  0  0
   -7.3898   -3.9984   -0.9543 C   0  0  2  0  0  0  0  0  0  0  0  0
   -6.4116   -2.8692   -1.4447 C   0  0  1  0  0  0  0  0  0  0  0  0
   -5.6093   -3.3187   -2.6997 C   0  0  0  0  0  0  0  0  0  0  0  0
   -5.5349    2.7127    2.4489 C   0  0  1  0  0  0  0  0  0  0  0  0
   -4.5878    1.4767    2.0380 C   0  0  0  0  0  0  0  0  0  0  0  0
   -5.4752    0.1651    1.8260 C   0  0  2  0  0  0  0  0  0  0  0  0
   -8.2781   -4.3736   -2.0604 F   0  0  0  0  0  0  0  0  0  0  0  0
   -9.9004   -1.8175    1.0633 N   0  0  0  0  0  0  0  0  0  0  0  0
   -4.7485   -4.4205   -2.4911 N   0  0  0  0  0  0  0  0  0  0  0  0
   -4.6456    3.9099    2.6355 N   0  0  0  0  0  0  0  0  0  0  0  0
   -4.6008   -0.9639    1.4478 N   0  0  0  0  0  0  0  0  0  0  0  0
   -7.2765   -0.7688    0.5399 O   0  0  0  0  0  0  0  0  0  0  0  0
   -8.4238    1.8324   -0.0575 O   0  0  0  0  0  0  0  0  0  0  0  0
   -7.4308    3.9936    1.5487 O   0  0  0  0  0  0  0  0  0  0  0  0
   -8.9354   -4.3803    0.5527 O   0  0  0  0  0  0  0  0  0  0  0  0
   -7.2742   -1.6227   -1.7137 O   0  0  0  0  0  0  0  0  0  0  0  0
  1  5  1  0  0  0  0
  1 18  1  1  0  0  0
  2 18  1  1  0  0  0
  2  3  1  0  0  0  0
  2 12  1  0  0  0  0
  3 19  1  6  0  0  0
  3  4  1  0  0  0  0
  4 20  1  1  0  0  0
  4 10  1  0  0  0  0
  5  6  1  0  0  0  0
  5 14  1  1  0  0  0
  6 21  1  6  0  0  0
  7 13  1  6  0  0  0
  7  6  1  0  0  0  0
  8  9  1  6  0  0  0
  8  7  1  0  0  0  0
 10 16  1  6  0  0  0
 11 10  1  0  0  0  0
 12 17  1  6  0  0  0
 12 11  1  0  0  0  0
 15  9  1  0  0  0  0
 22  8  1  0  0  0  0
 22  1  1  0  0  0  0
M  END
>  <CHROM.1>
-162.84326313,75.30309810,-63.25555636,-6.97725211,-0.79055301,0.19480167
1.76363827,-0.10438661,-2.67819204

>  <Name>
lig.pdb

>  <RI>
0

>  <Rbt.Current_Directory>
/home/itssahil/PROJECTS/Mol_Feturizer/New_Systems/rnas/5bws

>  <Rbt.Executable>
rbdock ($Id: //depot/dev/client3/rdock/2013.1/src/exe/rbdock.cxx#4 $)

>  <Rbt.Library>
libRbt.so (2013.1, Build901 2013/11/27)

>  <Rbt.Parameter_File>
/export/apps/rDock/src/rDock_2013.1_src/data/scripts/dock_solv.prm

>  <Rbt.Receptor>
prm/pocket_docking_4.prm

>  <SCORE>
-12.8067

>  <SCORE.INTER>
-10.9342

>  <SCORE.INTER.CONST>
1

>  <SCORE.INTER.POLAR>
0

>  <SCORE.INTER.ROT>
3

>  <SCORE.INTER.SOLV>
17.2398

>  <SCORE.INTER.VDW>
-18.636

>  <SCORE.INTER.norm>
-0.497007

>  <SCORE.INTRA>
-1.87254

>  <SCORE.INTRA.DIHEDRAL>
-3.61469

>  <SCORE.INTRA.DIHEDRAL.0>
6.10773

>  <SCORE.INTRA.POLAR>
0

>  <SCORE.INTRA.POLAR.0>
0

>  <SCORE.INTRA.REPUL>
0

>  <SCORE.INTRA.REPUL.0>
0

>  <SCORE.INTRA.SOLV>
-0.534525

>  <SCORE.INTRA.SOLV.lig_0>
-71.4024

>  <SCORE.INTRA.VDW>
0.202069

>  <SCORE.INTRA.VDW.0>
-1.86213

>  <SCORE.INTRA.norm>
-0.0851154

>  <SCORE.RESTR>
0

>  <SCORE.RESTR.CAVITY>
0

>  <SCORE.RESTR.norm>
0

>  <SCORE.SYSTEM>
0

>  <SCORE.SYSTEM.CONST>
0

>  <SCORE.SYSTEM.DIHEDRAL>
0

>  <SCORE.SYSTEM.SOLV>
0

>  <SCORE.SYSTEM.norm>
0

>  <SCORE.heavy>
22

>  <SCORE.norm>
-0.582123

>  <RMSD>
1.927

$$$$
lig.pdb
 OpenBabel11021811523D
libRbt.so/2013.1/901 2013/11/27
 22 23  0  0  0  0  0  0  0  0999 V2000
   -8.1791   -0.9752   -0.3765 C   0  0  1  0  0  0  0  0  0  0  0  0
   -6.5528    0.5628    0.7986 C   0  0  1  0  0  0  0  0  0  0  0  0
   -7.4760    1.7879    1.2273 C   0  0  1  0  0  0  0  0  0  0  0  0
   -6.5466    3.0772    1.3657 C   0  0  2  0  0  0  0  0  0  0  0  0
   -9.1328   -2.1583    0.0488 C   0  0  1  0  0  0  0  0  0  0  0  0
   -8.2557   -3.3835    0.3740 C   0  0  2  0  0  0  0  0  0  0  0  0
   -7.4533   -3.8274   -0.8619 C   0  0  2  0  0  0  0  0  0  0  0  0
   -6.5008   -2.6815   -1.3639 C   0  0  1  0  0  0  0  0  0  0  0  0
   -5.7285   -3.1061   -2.6461 C   0  0  0  0  0  0  0  0  0  0  0  0
   -5.4604    2.8235    2.5311 C   0  0  1  0  0  0  0  0  0  0  0  0
   -4.5493    1.5801    2.0646 C   0  0  0  0  0  0  0  0  0  0  0  0
   -5.4624    0.2819    1.8810 C   0  0  2  0  0  0  0  0  0  0  0  0
   -8.3675   -4.1981   -1.9481 F   0  0  0  0  0  0  0  0  0  0  0  0
   -9.9306   -1.6998    1.2516 N   0  0  0  0  0  0  0  0  0  0  0  0
   -4.8482   -4.1989   -2.4746 N   0  0  0  0  0  0  0  0  0  0  0  0
   -4.5481    4.0074    2.6880 N   0  0  0  0  0  0  0  0  0  0  0  0
   -4.6211   -0.8539    1.4516 N   0  0  0  0  0  0  0  0  0  0  0  0
   -7.3331   -0.6161    0.6707 O   0  0  0  0  0  0  0  0  0  0  0  0
   -8.4732    2.0053    0.1528 O   0  0  0  0  0  0  0  0  0  0  0  0
   -7.3792    4.1371    1.7323 O   0  0  0  0  0  0  0  0  0  0  0  0
   -8.9530   -4.2453    0.6816 O   0  0  0  0  0  0  0  0  0  0  0  0
   -7.3835   -1.4411   -1.5930 O   0  0  0  0  0  0  0  0  0  0  0  0
  1  5  1  0  0  0  0
  1 18  1  1  0  0  0
  2 18  1  1  0  0  0
  2  3  1  0  0  0  0
  2 12  1  0  0  0  0
  3 19  1  6  0  0  0
  3  4  1  0  0  0  0
  4 20  1  1  0  0  0
  4 10  1  0  0  0  0
  5  6  1  0  0  0  0
  5 14  1  1  0  0  0
  6 21  1  6  0  0  0
  7 13  1  6  0  0  0
  7  6  1  0  0  0  0
  8  9  1  6  0  0  0
  8  7  1  0  0  0  0
 10 16  1  6  0  0  0
 11 10  1  0  0  0  0
 12 17  1  6  0  0  0
 12 11  1  0  0  0  0
 15  9  1  0  0  0  0
 22  8  1  0  0  0  0
 22  1  1  0  0  0  0
M  END
>  <CHROM.1>
-164.86041608,77.23642766,-63.41225461,-7.00843439,-0.64054693,0.30394414
1.78301822,-0.13783810,-2.66675722

>  <Name>
lig.pdb

>  <RI>
0

>  <Rbt.Current_Directory>
/home/itssahil/PROJECTS/Mol_Feturizer/New_Systems/rnas/5bws

>  <Rbt.Executable>
rbdock ($Id: //depot/dev/client3/rdock/2013.1/src/exe/rbdock.cxx#4 $)

>  <Rbt.Library>
libRbt.so (2013.1, Build901 2013/11/27)

>  <Rbt.Parameter_File>
/export/apps/rDock/src/rDock_2013.1_src/data/scripts/dock_solv.prm

>  <Rbt.Receptor>
prm/pocket_docking_6.prm

>  <SCORE>
-12.7827

>  <SCORE.INTER>
-10.8886

>  <SCORE.INTER.CONST>
1

>  <SCORE.INTER.POLAR>
0

>  <SCORE.INTER.ROT>
3

>  <SCORE.INTER.SOLV>
17.6015

>  <SCORE.INTER.VDW>
-18.7263

>  <SCORE.INTER.norm>
-0.494938

>  <SCORE.INTRA>
-1.89411

>  <SCORE.INTRA.DIHEDRAL>
-3.6213

>  <SCORE.INTRA.DIHEDRAL.0>
6.10773

>  <SCORE.INTRA.POLAR>
0

>  <SCORE.INTRA.POLAR.0>
0

>  <SCORE.INTRA.REPUL>
0

>  <SCORE.INTRA.REPUL.0>
0

>  <SCORE.INTRA.SOLV>
-0.507083

>  <SCORE.INTRA.SOLV.lig_0>
-71.4024

>  <SCORE.INTRA.VDW>
0.170079

>  <SCORE.INTRA.VDW.0>
-1.86213

>  <SCORE.INTRA.norm>
-0.086096

>  <SCORE.RESTR>
0

>  <SCORE.RESTR.CAVITY>
0

>  <SCORE.RESTR.norm>
0

>  <SCORE.SYSTEM>
0

>  <SCORE.SYSTEM.CONST>
0

>  <SCORE.SYSTEM.DIHEDRAL>
0

>  <SCORE.SYSTEM.SOLV>
0

>  <SCORE.SYSTEM.norm>
0

>  <SCORE.heavy>
22

>  <SCORE.norm>
-0.581034

>  <RMSD>
1.935

$$$$
lig.pdb
 OpenBabel11021811523D
libRbt.so/2013.1/901 2013/11/27
 22 23  0  0  0  0  0  0  0  0999 V2000
   -8.1134   -1.1151   -0.5101 C   0  0  1  0  0  0  0  0  0  0  0  0
   -6.5531    0.4210    0.7536 C   0  0  1  0  0  0  0  0  0  0  0  0
   -7.4957    1.6670    1.0638 C   0  0  1  0  0  0  0  0  0  0  0  0
   -6.5661    2.9498    1.2523 C   0  0  2  0  0  0  0  0  0  0  0  0
   -9.0901   -2.2984   -0.1416 C   0  0  1  0  0  0  0  0  0  0  0  0
   -8.2333   -3.5219    0.2396 C   0  0  2  0  0  0  0  0  0  0  0  0
   -7.3561   -3.9674   -0.9439 C   0  0  2  0  0  0  0  0  0  0  0  0
   -6.3759   -2.8215   -1.3890 C   0  0  1  0  0  0  0  0  0  0  0  0
   -5.5259   -3.2478   -2.6204 C   0  0  0  0  0  0  0  0  0  0  0  0
   -5.5938    2.7170    2.5182 C   0  0  1  0  0  0  0  0  0  0  0  0
   -4.6601    1.4519    2.1697 C   0  0  0  0  0  0  0  0  0  0  0  0
   -5.5693    0.1587    1.9380 C   0  0  2  0  0  0  0  0  0  0  0  0
   -8.2016   -4.3415   -2.0833 F   0  0  0  0  0  0  0  0  0  0  0  0
   -9.9607   -1.8384    1.0091 N   0  0  0  0  0  0  0  0  0  0  0  0
   -4.6946   -4.3714   -2.4080 N   0  0  0  0  0  0  0  0  0  0  0  0
   -4.6844    3.8953    2.7263 N   0  0  0  0  0  0  0  0  0  0  0  0
   -4.7071   -0.9972    1.6173 N   0  0  0  0  0  0  0  0  0  0  0  0
   -7.3336   -0.7528    0.5862 O   0  0  0  0  0  0  0  0  0  0  0  0
   -8.3882    1.8651   -0.1026 O   0  0  0  0  0  0  0  0  0  0  0  0
   -7.4149    4.0280    1.5133 O   0  0  0  0  0  0  0  0  0  0  0  0
   -8.9472   -4.3839    0.5056 O   0  0  0  0  0  0  0  0  0  0  0  0
   -7.2441   -1.5826   -1.6745 O   0  0  0  0  0  0  0  0  0  0  0  0
  1  5  1  0  0  0  0
  1 18  1  1  0  0  0
  2 18  1  1  0  0  0
  2  3  1  0  0  0  0
  2 12  1  0  0  0  0
  3 19  1  6  0  0  0
  3  4  1  0  0  0  0
  4 20  1  1  0  0  0
  4 10  1  0  0  0  0
  5  6  1  0  0  0  0
  5 14  1  1  0  0  0
  6 21  1  6  0  0  0
  7 13  1  6  0  0  0
  7  6  1  0  0  0  0
  8  9  1  6  0  0  0
  8  7  1  0  0  0  0
 10 16  1  6  0  0  0
 11 10  1  0  0  0  0
 12 17  1  6  0  0  0
 12 11  1  0  0  0  0
 15  9  1  0  0  0  0
 22  8  1  0  0  0  0
 22  1  1  0  0  0  0
M  END
>  <CHROM.1>
-165.56339644,75.39400220,-61.08325040,-6.98574054,-0.77546315,0.22611355
1.75707771,-0.07727748,-2.67971849

>  <Name>
lig.pdb

>  <RI>
0

>  <Rbt.Current_Directory>
/home/itssahil/PROJECTS/Mol_Feturizer/New_Systems/rnas/5bws

>  <Rbt.Executable>
rbdock ($Id: //depot/dev/client3/rdock/2013.1/src/exe/rbdock.cxx#4 $)

>  <Rbt.Library>
libRbt.so (2013.1, Build901 2013/11/27)

>  <Rbt.Parameter_File>
/export/apps/rDock/src/rDock_2013.1_src/data/scripts/dock_solv.prm

>  <Rbt.Receptor>
prm/pocket_docking_4.prm

>  <SCORE>
-12.7875

>  <SCORE.INTER>
-10.7082

>  <SCORE.INTER.CONST>
1

>  <SCORE.INTER.POLAR>
0

>  <SCORE.INTER.ROT>
3

>  <SCORE.INTER.SOLV>
17.9077

>  <SCORE.INTER.VDW>
-18.7081

>  <SCORE.INTER.norm>
-0.486737

>  <SCORE.INTRA>
-2.07934

>  <SCORE.INTRA.DIHEDRAL>
-4.01355

>  <SCORE.INTRA.DIHEDRAL.0>
6.10773

>  <SCORE.INTRA.POLAR>
0

>  <SCORE.INTRA.POLAR.0>
0

>  <SCORE.INTRA.REPUL>
0

>  <SCORE.INTRA.REPUL.0>
0

>  <SCORE.INTRA.SOLV>
-0.554774

>  <SCORE.INTRA.SOLV.lig_0>
-71.4024

>  <SCORE.INTRA.VDW>
0.204827

>  <SCORE.INTRA.VDW.0>
-1.86213

>  <SCORE.INTRA.norm>
-0.0945153

>  <SCORE.RESTR>
0

>  <SCORE.RESTR.CAVITY>
0

>  <SCORE.RESTR.norm>
0

>  <SCORE.SYSTEM>
0

>  <SCORE.SYSTEM.CONST>
0

>  <SCORE.SYSTEM.DIHEDRAL>
0

>  <SCORE.SYSTEM.SOLV>
0

>  <SCORE.SYSTEM.norm>
0

>  <SCORE.heavy>
22

>  <SCORE.norm>
-0.581252

>  <RMSD>
1.945

$$$$
lig.pdb
 OpenBabel11021811523D
libRbt.so/2013.1/901 2013/11/27
 22 23  0  0  0  0  0  0  0  0999 V2000
   -8.1203   -1.0183   -0.4337 C   0  0  1  0  0  0  0  0  0  0  0  0
   -6.5656    0.5633    0.7798 C   0  0  1  0  0  0  0  0  0  0  0  0
   -7.5239    1.7613    1.2083 C   0  0  1  0  0  0  0  0  0  0  0  0
   -6.6291    3.0728    1.3649 C   0  0  2  0  0  0  0  0  0  0  0  0
   -9.0639   -2.2162   -0.0276 C   0  0  1  0  0  0  0  0  0  0  0  0
   -8.1739   -3.4213    0.3356 C   0  0  2  0  0  0  0  0  0  0  0  0
   -7.3251   -3.8598   -0.8710 C   0  0  2  0  0  0  0  0  0  0  0  0
   -6.3797   -2.6998   -1.3535 C   0  0  1  0  0  0  0  0  0  0  0  0
   -5.5599   -3.1200   -2.6074 C   0  0  0  0  0  0  0  0  0  0  0  0
   -5.5479    2.8382    2.5389 C   0  0  1  0  0  0  0  0  0  0  0  0
   -4.6009    1.6220    2.0722 C   0  0  0  0  0  0  0  0  0  0  0  0
   -5.4787    0.3023    1.8706 C   0  0  2  0  0  0  0  0  0  0  0  0
   -8.1979   -4.2573   -1.9816 F   0  0  0  0  0  0  0  0  0  0  0  0
   -9.9073   -1.7633    1.1459 N   0  0  0  0  0  0  0  0  0  0  0  0
   -4.7099   -4.2332   -2.4155 N   0  0  0  0  0  0  0  0  0  0  0  0
   -4.6677    4.0438    2.7131 N   0  0  0  0  0  0  0  0  0  0  0  0
   -4.6046   -0.8084    1.4411 N   0  0  0  0  0  0  0  0  0  0  0  0
   -7.3143   -0.6341    0.6358 O   0  0  0  0  0  0  0  0  0  0  0  0
   -8.5162    1.9611    0.1258 O   0  0  0  0  0  0  0  0  0  0  0  0
   -7.4920    4.1083    1.7312 O   0  0  0  0  0  0  0  0  0  0  0  0
   -8.8638   -4.2939    0.6291 O   0  0  0  0  0  0  0  0  0  0  0  0
   -7.2785   -1.4788   -1.6209 O   0  0  0  0  0  0  0  0  0  0  0  0
  1  5  1  0  0  0  0
  1 18  1  1  0  0  0
  2 18  1  1  0  0  0
  2  3  1  0  0  0  0
  2 12  1  0  0  0  0
  3 19  1  6  0  0  0
  3  4  1  0  0  0  0
  4 20  1  1  0  0  0
  4 10  1  0  0  0  0
  5  6  1  0  0  0  0
  5 14  1  1  0  0  0
  6 21  1  6  0  0  0
  7 13  1  6  0  0  0
  7  6  1  0  0  0  0
  8  9  1  6  0  0  0
  8  7  1  0  0  0  0
 10 16  1  6  0  0  0
 11 10  1  0  0  0  0
 12 17  1  6  0  0  0
 12 11  1  0  0  0  0
 15  9  1  0  0  0  0
 22  8  1  0  0  0  0
 22  1  1  0  0  0  0
M  END
>  <CHROM.1>
-164.56531564,78.61044477,-60.63064026,-6.97856909,-0.66032137,0.28641243
1.75103608,-0.12356492,-2.67426697

>  <Name>
lig.pdb

>  <RI>
0

>  <Rbt.Current_Directory>
/home/itssahil/PROJECTS/Mol_Feturizer/New_Systems/rnas/5bws

>  <Rbt.Executable>
rbdock ($Id: //depot/dev/client3/rdock/2013.1/src/exe/rbdock.cxx#4 $)

>  <Rbt.Library>
libRbt.so (2013.1, Build901 2013/11/27)

>  <Rbt.Parameter_File>
/export/apps/rDock/src/rDock_2013.1_src/data/scripts/dock_solv.prm

>  <Rbt.Receptor>
prm/pocket_docking_5.prm

>  <SCORE>
-12.689

>  <SCORE.INTER>
-10.9499

>  <SCORE.INTER.CONST>
1

>  <SCORE.INTER.POLAR>
0

>  <SCORE.INTER.ROT>
3

>  <SCORE.INTER.SOLV>
17.4179

>  <SCORE.INTER.VDW>
-18.7059

>  <SCORE.INTER.norm>
-0.497721

>  <SCORE.INTRA>
-1.73915

>  <SCORE.INTRA.DIHEDRAL>
-3.41345

>  <SCORE.INTRA.DIHEDRAL.0>
6.10773

>  <SCORE.INTRA.POLAR>
0

>  <SCORE.INTRA.POLAR.0>
0

>  <SCORE.INTRA.REPUL>
0

>  <SCORE.INTRA.REPUL.0>
0

>  <SCORE.INTRA.SOLV>
-0.378972

>  <SCORE.INTRA.SOLV.lig_0>
-71.4024

>  <SCORE.INTRA.VDW>
0.157065

>  <SCORE.INTRA.VDW.0>
-1.86213

>  <SCORE.INTRA.norm>
-0.0790521

>  <SCORE.RESTR>
0

>  <SCORE.RESTR.CAVITY>
0

>  <SCORE.RESTR.norm>
0

>  <SCORE.SYSTEM>
0

>  <SCORE.SYSTEM.CONST>
0

>  <SCORE.SYSTEM.DIHEDRAL>
0

>  <SCORE.SYSTEM.SOLV>
0

>  <SCORE.SYSTEM.norm>
0

>  <SCORE.heavy>
22

>  <SCORE.norm>
-0.576773

>  <RMSD>
1.962

$$$$
lig.pdb
 OpenBabel11021811523D
libRbt.so/2013.1/901 2013/11/27
 22 23  0  0  0  0  0  0  0  0999 V2000
   -8.0952   -1.1184   -0.5118 C   0  0  1  0  0  0  0  0  0  0  0  0
   -6.5464    0.4331    0.7473 C   0  0  1  0  0  0  0  0  0  0  0  0
   -7.5108    1.6701    1.0245 C   0  0  1  0  0  0  0  0  0  0  0  0
   -6.6018    2.9670    1.2163 C   0  0  2  0  0  0  0  0  0  0  0  0
   -9.0723   -2.2978   -0.1321 C   0  0  1  0  0  0  0  0  0  0  0  0
   -8.2160   -3.5214    0.2499 C   0  0  2  0  0  0  0  0  0  0  0  0
   -7.3466   -3.9744   -0.9364 C   0  0  2  0  0  0  0  0  0  0  0  0
   -6.3664   -2.8327   -1.3925 C   0  0  1  0  0  0  0  0  0  0  0  0
   -5.5244   -3.2668   -2.6268 C   0  0  0  0  0  0  0  0  0  0  0  0
   -5.6516    2.7613    2.5035 C   0  0  1  0  0  0  0  0  0  0  0  0
   -4.6950    1.5047    2.1881 C   0  0  0  0  0  0  0  0  0  0  0  0
   -5.5828    0.1971    1.9537 C   0  0  2  0  0  0  0  0  0  0  0  0
   -8.1994   -4.3520   -2.0692 F   0  0  0  0  0  0  0  0  0  0  0  0
   -9.9353   -1.8304    1.0213 N   0  0  0  0  0  0  0  0  0  0  0  0
   -4.6820   -4.3809   -2.4089 N   0  0  0  0  0  0  0  0  0  0  0  0
   -4.7617    3.9536    2.7157 N   0  0  0  0  0  0  0  0  0  0  0  0
   -4.6997   -0.9509    1.6632 N   0  0  0  0  0  0  0  0  0  0  0  0
   -7.3083   -0.7526    0.5783 O   0  0  0  0  0  0  0  0  0  0  0  0
   -8.3827    1.8433   -0.1613 O   0  0  0  0  0  0  0  0  0  0  0  0
   -7.4693    4.0369    1.4481 O   0  0  0  0  0  0  0  0  0  0  0  0
   -8.9303   -4.3805    0.5241 O   0  0  0  0  0  0  0  0  0  0  0  0
   -7.2336   -1.5933   -1.6790 O   0  0  0  0  0  0  0  0  0  0  0  0
  1  5  1  0  0  0  0
  1 18  1  1  0  0  0
  2 18  1  1  0  0  0
  2  3  1  0  0  0  0
  2 12  1  0  0  0  0
  3 19  1  6  0  0  0
  3  4  1  0  0  0  0
  4 20  1  1  0  0  0
  4 10  1  0  0  0  0
  5  6  1  0  0  0  0
  5 14  1  1  0  0  0
  6 21  1  6  0  0  0
  7 13  1  6  0  0  0
  7  6  1  0  0  0  0
  8  9  1  6  0  0  0
  8  7  1  0  0  0  0
 10 16  1  6  0  0  0
 11 10  1  0  0  0  0
 12 17  1  6  0  0  0
 12 11  1  0  0  0  0
 15  9  1  0  0  0  0
 22  8  1  0  0  0  0
 22  1  1  0  0  0  0
M  END
>  <CHROM.1>
-164.12384645,73.19515082,-61.83602708,-6.99011556,-0.76705612,0.22114699
1.74895533,-0.07642415,-2.68505097

>  <Name>
lig.pdb

>  <RI>
0

>  <Rbt.Current_Directory>
/home/itssahil/PROJECTS/Mol_Feturizer/New_Systems/rnas/5bws

>  <Rbt.Executable>
rbdock ($Id: //depot/dev/client3/rdock/2013.1/src/exe/rbdock.cxx#4 $)

>  <Rbt.Library>
libRbt.so (2013.1, Build901 2013/11/27)

>  <Rbt.Parameter_File>
/export/apps/rDock/src/rDock_2013.1_src/data/scripts/dock_solv.prm

>  <Rbt.Receptor>
prm/pocket_docking_8.prm

>  <SCORE>
-12.7615

>  <SCORE.INTER>
-10.6401

>  <SCORE.INTER.CONST>
1

>  <SCORE.INTER.POLAR>
0

>  <SCORE.INTER.ROT>
3

>  <SCORE.INTER.SOLV>
17.8257

>  <SCORE.INTER.VDW>
-18.6353

>  <SCORE.INTER.norm>
-0.483643

>  <SCORE.INTRA>
-2.12138

>  <SCORE.INTRA.DIHEDRAL>
-4.09392

>  <SCORE.INTRA.DIHEDRAL.0>
6.10773

>  <SCORE.INTRA.POLAR>
0

>  <SCORE.INTRA.POLAR.0>
0

>  <SCORE.INTRA.REPUL>
0

>  <SCORE.INTRA.REPUL.0>
0

>  <SCORE.INTRA.SOLV>
-0.629629

>  <SCORE.INTRA.SOLV.lig_0>
-71.4024

>  <SCORE.INTRA.VDW>
0.240395

>  <SCORE.INTRA.VDW.0>
-1.86213

>  <SCORE.INTRA.norm>
-0.0964264

>  <SCORE.RESTR>
0

>  <SCORE.RESTR.CAVITY>
0

>  <SCORE.RESTR.norm>
0

>  <SCORE.SYSTEM>
0

>  <SCORE.SYSTEM.CONST>
0

>  <SCORE.SYSTEM.DIHEDRAL>
0

>  <SCORE.SYSTEM.SOLV>
0

>  <SCORE.SYSTEM.norm>
0

>  <SCORE.heavy>
22

>  <SCORE.norm>
-0.580069

>  <RMSD>
1.968

$$$$
lig.pdb
 OpenBabel11021811523D
libRbt.so/2013.1/901 2013/11/27
 22 23  0  0  0  0  0  0  0  0999 V2000
   -8.1094   -1.0526   -0.5163 C   0  0  1  0  0  0  0  0  0  0  0  0
   -6.5749    0.5127    0.7431 C   0  0  1  0  0  0  0  0  0  0  0  0
   -7.5439    1.7309    1.0808 C   0  0  1  0  0  0  0  0  0  0  0  0
   -6.6445    3.0351    1.2691 C   0  0  2  0  0  0  0  0  0  0  0  0
   -9.0792   -2.2380   -0.1363 C   0  0  1  0  0  0  0  0  0  0  0  0
   -8.2152   -3.4546    0.2504 C   0  0  2  0  0  0  0  0  0  0  0  0
   -7.3397   -3.9042   -0.9328 C   0  0  2  0  0  0  0  0  0  0  0  0
   -6.3666   -2.7566   -1.3891 C   0  0  1  0  0  0  0  0  0  0  0  0
   -5.5186   -3.1874   -2.6204 C   0  0  0  0  0  0  0  0  0  0  0  0
   -5.6473    2.8140    2.5176 C   0  0  1  0  0  0  0  0  0  0  0  0
   -4.6872    1.5769    2.1416 C   0  0  0  0  0  0  0  0  0  0  0  0
   -5.5668    0.2634    1.9097 C   0  0  2  0  0  0  0  0  0  0  0  0
   -8.1872   -4.2903   -2.0668 F   0  0  0  0  0  0  0  0  0  0  0  0
   -9.9482   -1.7742    1.0140 N   0  0  0  0  0  0  0  0  0  0  0  0
   -4.7041   -4.3240   -2.4122 N   0  0  0  0  0  0  0  0  0  0  0  0
   -4.7651    4.0129    2.7247 N   0  0  0  0  0  0  0  0  0  0  0  0
   -4.6805   -0.8667    1.5636 N   0  0  0  0  0  0  0  0  0  0  0  0
   -7.3278   -0.6788    0.5748 O   0  0  0  0  0  0  0  0  0  0  0  0
   -8.4589    1.9182   -0.0699 O   0  0  0  0  0  0  0  0  0  0  0  0
   -7.5164    4.0884    1.5544 O   0  0  0  0  0  0  0  0  0  0  0  0
   -8.9240   -4.3181    0.5249 O   0  0  0  0  0  0  0  0  0  0  0  0
   -7.2418   -1.5240   -1.6804 O   0  0  0  0  0  0  0  0  0  0  0  0
  1  5  1  0  0  0  0
  1 18  1  1  0  0  0
  2 18  1  1  0  0  0
  2  3  1  0  0  0  0
  2 12  1  0  0  0  0
  3 19  1  6  0  0  0
  3  4  1  0  0  0  0
  4 20  1  1  0  0  0
  4 10  1  0  0  0  0
  5  6  1  0  0  0  0
  5 14  1  1  0  0  0
  6 21  1  6  0  0  0
  7 13  1  6  0  0  0
  7  6  1  0  0  0  0
  8  9  1  6  0  0  0
  8  7  1  0  0  0  0
 10 16  1  6  0  0  0
 11 10  1  0  0  0  0
 12 17  1  6  0  0  0
 12 11  1  0  0  0  0
 15  9  1  0  0  0  0
 22  8  1  0  0  0  0
 22  1  1  0  0  0  0
M  END
>  <CHROM.1>
-164.11031213,75.74707481,-59.70285097,-7.00107060,-0.70040762,0.22792691
1.74399923,-0.08428624,-2.68065975

>  <Name>
lig.pdb

>  <RI>
0

>  <Rbt.Current_Directory>
/home/itssahil/PROJECTS/Mol_Feturizer/New_Systems/rnas/5bws

>  <Rbt.Executable>
rbdock ($Id: //depot/dev/client3/rdock/2013.1/src/exe/rbdock.cxx#4 $)

>  <Rbt.Library>
libRbt.so (2013.1, Build901 2013/11/27)

>  <Rbt.Parameter_File>
/export/apps/rDock/src/rDock_2013.1_src/data/scripts/dock_solv.prm

>  <Rbt.Receptor>
prm/pocket_docking_6.prm

>  <SCORE>
-12.8229

>  <SCORE.INTER>
-10.9051

>  <SCORE.INTER.CONST>
1

>  <SCORE.INTER.POLAR>
0

>  <SCORE.INTER.ROT>
3

>  <SCORE.INTER.SOLV>
17.5659

>  <SCORE.INTER.VDW>
-18.7253

>  <SCORE.INTER.norm>
-0.495685

>  <SCORE.INTRA>
-1.91788

>  <SCORE.INTRA.DIHEDRAL>
-3.77394

>  <SCORE.INTRA.DIHEDRAL.0>
6.10773

>  <SCORE.INTRA.POLAR>
0

>  <SCORE.INTRA.POLAR.0>
0

>  <SCORE.INTRA.REPUL>
0

>  <SCORE.INTRA.REPUL.0>
0

>  <SCORE.INTRA.SOLV>
-0.470609

>  <SCORE.INTRA.SOLV.lig_0>
-71.4024

>  <SCORE.INTRA.VDW>
0.204395

>  <SCORE.INTRA.VDW.0>
-1.86213

>  <SCORE.INTRA.norm>
-0.0871763

>  <SCORE.RESTR>
0

>  <SCORE.RESTR.CAVITY>
0

>  <SCORE.RESTR.norm>
0

>  <SCORE.SYSTEM>
0

>  <SCORE.SYSTEM.CONST>
0

>  <SCORE.SYSTEM.DIHEDRAL>
0

>  <SCORE.SYSTEM.SOLV>
0

>  <SCORE.SYSTEM.norm>
0

>  <SCORE.heavy>
22

>  <SCORE.norm>
-0.582861

>  <RMSD>
1.984

$$$$
lig.pdb
 OpenBabel11021811523D
libRbt.so/2013.1/901 2013/11/27
 22 23  0  0  0  0  0  0  0  0999 V2000
   -8.1218   -1.0734   -0.5099 C   0  0  1  0  0  0  0  0  0  0  0  0
   -6.5842    0.4971    0.7393 C   0  0  1  0  0  0  0  0  0  0  0  0
   -7.5646    1.6997    1.0992 C   0  0  1  0  0  0  0  0  0  0  0  0
   -6.6799    3.0138    1.2874 C   0  0  2  0  0  0  0  0  0  0  0  0
   -9.0894   -2.2564   -0.1172 C   0  0  1  0  0  0  0  0  0  0  0  0
   -8.2234   -3.4758    0.2563 C   0  0  2  0  0  0  0  0  0  0  0  0
   -7.3661   -3.9268   -0.9396 C   0  0  2  0  0  0  0  0  0  0  0  0
   -6.3963   -2.7815   -1.4088 C   0  0  1  0  0  0  0  0  0  0  0  0
   -5.5671   -3.2137   -2.6524 C   0  0  0  0  0  0  0  0  0  0  0  0
   -5.6644    2.7955    2.5216 C   0  0  1  0  0  0  0  0  0  0  0  0
   -4.6932    1.5741    2.1233 C   0  0  0  0  0  0  0  0  0  0  0  0
   -5.5585    0.2512    1.8912 C   0  0  2  0  0  0  0  0  0  0  0  0
   -8.2307   -4.3095   -2.0618 F   0  0  0  0  0  0  0  0  0  0  0  0
   -9.9407   -1.7911    1.0457 N   0  0  0  0  0  0  0  0  0  0  0  0
   -4.7152   -4.3221   -2.4422 N   0  0  0  0  0  0  0  0  0  0  0  0
   -4.7952    4.0040    2.7279 N   0  0  0  0  0  0  0  0  0  0  0  0
   -4.6621   -0.8643    1.5247 N   0  0  0  0  0  0  0  0  0  0  0  0
   -7.3237   -0.7027    0.5702 O   0  0  0  0  0  0  0  0  0  0  0  0
   -8.4963    1.8846   -0.0384 O   0  0  0  0  0  0  0  0  0  0  0  0
   -7.5616    4.0534    1.5924 O   0  0  0  0  0  0  0  0  0  0  0  0
   -8.9307   -4.3375    0.5400 O   0  0  0  0  0  0  0  0  0  0  0  0
   -7.2721   -1.5462   -1.6866 O   0  0  0  0  0  0  0  0  0  0  0  0
  1  5  1  0  0  0  0
  1 18  1  1  0  0  0
  2 18  1  1  0  0  0
  2  3  1  0  0  0  0
  2 12  1  0  0  0  0
  3 19  1  6  0  0  0
  3  4  1  0  0  0  0
  4 20  1  1  0  0  0
  4 10  1  0  0  0  0
  5  6  1  0  0  0  0
  5 14  1  1  0  0  0
  6 21  1  6  0  0  0
  7 13  1  6  0  0  0
  7  6  1  0  0  0  0
  8  9  1  6  0  0  0
  8  7  1  0  0  0  0
 10 16  1  6  0  0  0
 11 10  1  0  0  0  0
 12 17  1  6  0  0  0
 12 11  1  0  0  0  0
 15  9  1  0  0  0  0
 22  8  1  0  0  0  0
 22  1  1  0  0  0  0
M  END
>  <CHROM.1>
-162.87106852,75.23235288,-61.97063382,-7.01943827,-0.71929266,0.22920090
1.74346981,-0.09555196,-2.67602629

>  <Name>
lig.pdb

>  <RI>
0

>  <Rbt.Current_Directory>
/home/itssahil/PROJECTS/Mol_Feturizer/New_Systems/rnas/5bws

>  <Rbt.Executable>
rbdock ($Id: //depot/dev/client3/rdock/2013.1/src/exe/rbdock.cxx#4 $)

>  <Rbt.Library>
libRbt.so (2013.1, Build901 2013/11/27)

>  <Rbt.Parameter_File>
/export/apps/rDock/src/rDock_2013.1_src/data/scripts/dock_solv.prm

>  <Rbt.Receptor>
prm/pocket_docking_5.prm

>  <SCORE>
-12.7938

>  <SCORE.INTER>
-10.919

>  <SCORE.INTER.CONST>
1

>  <SCORE.INTER.POLAR>
0

>  <SCORE.INTER.ROT>
3

>  <SCORE.INTER.SOLV>
17.5666

>  <SCORE.INTER.VDW>
-18.7349

>  <SCORE.INTER.norm>
-0.496317

>  <SCORE.INTRA>
-1.87487

>  <SCORE.INTRA.DIHEDRAL>
-3.65267

>  <SCORE.INTRA.DIHEDRAL.0>
6.10773

>  <SCORE.INTRA.POLAR>
0

>  <SCORE.INTRA.POLAR.0>
0

>  <SCORE.INTRA.REPUL>
0

>  <SCORE.INTRA.REPUL.0>
0

>  <SCORE.INTRA.SOLV>
-0.510103

>  <SCORE.INTRA.SOLV.lig_0>
-71.4024

>  <SCORE.INTRA.VDW>
0.206514

>  <SCORE.INTRA.VDW.0>
-1.86213

>  <SCORE.INTRA.norm>
-0.0852216

>  <SCORE.RESTR>
0

>  <SCORE.RESTR.CAVITY>
0

>  <SCORE.RESTR.norm>
0

>  <SCORE.SYSTEM>
0

>  <SCORE.SYSTEM.CONST>
0

>  <SCORE.SYSTEM.DIHEDRAL>
0

>  <SCORE.SYSTEM.SOLV>
0

>  <SCORE.SYSTEM.norm>
0

>  <SCORE.heavy>
22

>  <SCORE.norm>
-0.581539

>  <RMSD>
1.997

$$$$
lig.pdb
 OpenBabel11021811523D
libRbt.so/2013.1/901 2013/11/27
 22 23  0  0  0  0  0  0  0  0999 V2000
   -8.1640   -1.0522   -0.4619 C   0  0  1  0  0  0  0  0  0  0  0  0
   -6.5974    0.5108    0.7605 C   0  0  1  0  0  0  0  0  0  0  0  0
   -7.5571    1.7363    1.0982 C   0  0  1  0  0  0  0  0  0  0  0  0
   -6.6498    3.0379    1.2649 C   0  0  2  0  0  0  0  0  0  0  0  0
   -9.1254   -2.2371   -0.0597 C   0  0  1  0  0  0  0  0  0  0  0  0
   -8.2533   -3.4542    0.3072 C   0  0  2  0  0  0  0  0  0  0  0  0
   -7.4054   -3.9041   -0.8957 C   0  0  2  0  0  0  0  0  0  0  0  0
   -6.4423   -2.7570   -1.3742 C   0  0  1  0  0  0  0  0  0  0  0  0
   -5.6229   -3.1883   -2.6245 C   0  0  0  0  0  0  0  0  0  0  0  0
   -5.6397    2.8233    2.5042 C   0  0  1  0  0  0  0  0  0  0  0  0
   -4.6894    1.5785    2.1284 C   0  0  0  0  0  0  0  0  0  0  0  0
   -5.5774    0.2670    1.9179 C   0  0  2  0  0  0  0  0  0  0  0  0
   -8.2787   -4.2899   -2.0100 F   0  0  0  0  0  0  0  0  0  0  0  0
   -9.9676   -1.7729    1.1101 N   0  0  0  0  0  0  0  0  0  0  0  0
   -4.7573   -4.2867   -2.4174 N   0  0  0  0  0  0  0  0  0  0  0  0
   -4.7498    4.0199    2.6908 N   0  0  0  0  0  0  0  0  0  0  0  0
   -4.7001   -0.8701    1.5719 N   0  0  0  0  0  0  0  0  0  0  0  0
   -7.3575   -0.6787    0.6111 O   0  0  0  0  0  0  0  0  0  0  0  0
   -8.4841    1.9177   -0.0438 O   0  0  0  0  0  0  0  0  0  0  0  0
   -7.5137    4.0977    1.5506 O   0  0  0  0  0  0  0  0  0  0  0  0
   -8.9561   -4.3173    0.5978 O   0  0  0  0  0  0  0  0  0  0  0  0
   -7.3234   -1.5240   -1.6454 O   0  0  0  0  0  0  0  0  0  0  0  0
  1  5  1  0  0  0  0
  1 18  1  1  0  0  0
  2 18  1  1  0  0  0
  2  3  1  0  0  0  0
  2 12  1  0  0  0  0
  3 19  1  6  0  0  0
  3  4  1  0  0  0  0
  4 20  1  1  0  0  0
  4 10  1  0  0  0  0
  5  6  1  0  0  0  0
  5 14  1  1  0  0  0
  6 21  1  6  0  0  0
  7 13  1  6  0  0  0
  7  6  1  0  0  0  0
  8  9  1  6  0  0  0
  8  7  1  0  0  0  0
 10 16  1  6  0  0  0
 11 10  1  0  0  0  0
 12 17  1  6  0  0  0
 12 11  1  0  0  0  0
 15  9  1  0  0  0  0
 22  8  1  0  0  0  0
 22  1  1  0  0  0  0
M  END
>  <CHROM.1>
-164.30320301,75.01166821,-62.53601734,-7.03679089,-0.69712818,0.25303723
1.75523998,-0.10262687,-2.68261818

>  <Name>
lig.pdb

>  <RI>
0

>  <Rbt.Current_Directory>
/home/itssahil/PROJECTS/Mol_Feturizer/New_Systems/rnas/5bws

>  <Rbt.Executable>
rbdock ($Id: //depot/dev/client3/rdock/2013.1/src/exe/rbdock.cxx#4 $)

>  <Rbt.Library>
libRbt.so (2013.1, Build901 2013/11/27)

>  <Rbt.Parameter_File>
/export/apps/rDock/src/rDock_2013.1_src/data/scripts/dock_solv.prm

>  <Rbt.Receptor>
prm/pocket_docking_6.prm

>  <SCORE>
-12.7579

>  <SCORE.INTER>
-10.7421

>  <SCORE.INTER.CONST>
1

>  <SCORE.INTER.POLAR>
0

>  <SCORE.INTER.ROT>
3

>  <SCORE.INTER.SOLV>
17.6818

>  <SCORE.INTER.VDW>
-18.6553

>  <SCORE.INTER.norm>
-0.488275

>  <SCORE.INTRA>
-2.01586

>  <SCORE.INTRA.DIHEDRAL>
-3.8774

>  <SCORE.INTRA.DIHEDRAL.0>
6.10773

>  <SCORE.INTRA.POLAR>
0

>  <SCORE.INTRA.POLAR.0>
0

>  <SCORE.INTRA.REPUL>
0

>  <SCORE.INTRA.REPUL.0>
0

>  <SCORE.INTRA.SOLV>
-0.570198

>  <SCORE.INTRA.SOLV.lig_0>
-71.4024

>  <SCORE.INTRA.VDW>
0.207943

>  <SCORE.INTRA.VDW.0>
-1.86213

>  <SCORE.INTRA.norm>
-0.0916299

>  <SCORE.RESTR>
0

>  <SCORE.RESTR.CAVITY>
0

>  <SCORE.RESTR.norm>
0

>  <SCORE.SYSTEM>
0

>  <SCORE.SYSTEM.CONST>
0

>  <SCORE.SYSTEM.DIHEDRAL>
0

>  <SCORE.SYSTEM.SOLV>
0

>  <SCORE.SYSTEM.norm>
0

>  <SCORE.heavy>
22

>  <SCORE.norm>
-0.579905

>  <RMSD>
1.998

$$$$
lig.pdb
 OpenBabel11021811523D
libRbt.so/2013.1/901 2013/11/27
 22 23  0  0  0  0  0  0  0  0999 V2000
   -8.1712   -1.0496   -0.4497 C   0  0  1  0  0  0  0  0  0  0  0  0
   -6.6007    0.5172    0.7627 C   0  0  1  0  0  0  0  0  0  0  0  0
   -7.5560    1.7498    1.0872 C   0  0  1  0  0  0  0  0  0  0  0  0
   -6.6435    3.0489    1.2447 C   0  0  2  0  0  0  0  0  0  0  0  0
   -9.1276   -2.2374   -0.0441 C   0  0  1  0  0  0  0  0  0  0  0  0
   -8.2506   -3.4500    0.3256 C   0  0  2  0  0  0  0  0  0  0  0  0
   -7.4014   -3.8997   -0.8765 C   0  0  2  0  0  0  0  0  0  0  0  0
   -6.4431   -2.7500   -1.3584 C   0  0  1  0  0  0  0  0  0  0  0  0
   -5.6226   -3.1812   -2.6080 C   0  0  0  0  0  0  0  0  0  0  0  0
   -5.6373    2.8409    2.4883 C   0  0  1  0  0  0  0  0  0  0  0  0
   -4.6915    1.5888    2.1259 C   0  0  0  0  0  0  0  0  0  0  0  0
   -5.5847    0.2793    1.9248 C   0  0  2  0  0  0  0  0  0  0  0  0
   -8.2736   -4.2917   -1.9894 F   0  0  0  0  0  0  0  0  0  0  0  0
   -9.9712   -1.7735    1.1250 N   0  0  0  0  0  0  0  0  0  0  0  0
   -4.7562   -4.2788   -2.3998 N   0  0  0  0  0  0  0  0  0  0  0  0
   -4.7427    4.0353    2.6666 N   0  0  0  0  0  0  0  0  0  0  0  0
   -4.7115   -0.8645    1.5910 N   0  0  0  0  0  0  0  0  0  0  0  0
   -7.3656   -0.6702    0.6219 O   0  0  0  0  0  0  0  0  0  0  0  0
   -8.4794    1.9251   -0.0586 O   0  0  0  0  0  0  0  0  0  0  0  0
   -7.5034    4.1149    1.5190 O   0  0  0  0  0  0  0  0  0  0  0  0
   -8.9498   -4.3152    0.6187 O   0  0  0  0  0  0  0  0  0  0  0  0
   -7.3292   -1.5212   -1.6324 O   0  0  0  0  0  0  0  0  0  0  0  0
  1  5  1  0  0  0  0
  1 18  1  1  0  0  0
  2 18  1  1  0  0  0
  2  3  1  0  0  0  0
  2 12  1  0  0  0  0
  3 19  1  6  0  0  0
  3  4  1  0  0  0  0
  4 20  1  1  0  0  0
  4 10  1  0  0  0  0
  5  6  1  0  0  0  0
  5 14  1  1  0  0  0
  6 21  1  6  0  0  0
  7 13  1  6  0  0  0
  7  6  1  0  0  0  0
  8  9  1  6  0  0  0
  8  7  1  0  0  0  0
 10 16  1  6  0  0  0
 11 10  1  0  0  0  0
 12 17  1  6  0  0  0
 12 11  1  0  0  0  0
 15  9  1  0  0  0  0
 22  8  1  0  0  0  0
 22  1  1  0  0  0  0
M  END
>  <CHROM.1>
-164.92164626,75.01195616,-62.30686604,-7.03666335,-0.68997098,0.25785817
1.75629880,-0.10439217,-2.68775392

>  <Name>
lig.pdb

>  <RI>
0

>  <Rbt.Current_Directory>
/home/itssahil/PROJECTS/Mol_Feturizer/New_Systems/rnas/5bws

>  <Rbt.Executable>
rbdock ($Id: //depot/dev/client3/rdock/2013.1/src/exe/rbdock.cxx#4 $)

>  <Rbt.Library>
libRbt.so (2013.1, Build901 2013/11/27)

>  <Rbt.Parameter_File>
/export/apps/rDock/src/rDock_2013.1_src/data/scripts/dock_solv.prm

>  <Rbt.Receptor>
prm/pocket_docking_7.prm

>  <SCORE>
-12.759

>  <SCORE.INTER>
-10.6936

>  <SCORE.INTER.CONST>
1

>  <SCORE.INTER.POLAR>
0

>  <SCORE.INTER.ROT>
3

>  <SCORE.INTER.SOLV>
17.6649

>  <SCORE.INTER.VDW>
-18.6174

>  <SCORE.INTER.norm>
-0.486072

>  <SCORE.INTRA>
-2.06537

>  <SCORE.INTRA.DIHEDRAL>
-3.96546

>  <SCORE.INTRA.DIHEDRAL.0>
6.10773

>  <SCORE.INTRA.POLAR>
0

>  <SCORE.INTRA.POLAR.0>
0

>  <SCORE.INTRA.REPUL>
0

>  <SCORE.INTRA.REPUL.0>
0

>  <SCORE.INTRA.SOLV>
-0.581553

>  <SCORE.INTRA.SOLV.lig_0>
-71.4024

>  <SCORE.INTRA.VDW>
0.208137

>  <SCORE.INTRA.VDW.0>
-1.86213

>  <SCORE.INTRA.norm>
-0.0938804

>  <SCORE.RESTR>
0

>  <SCORE.RESTR.CAVITY>
0

>  <SCORE.RESTR.norm>
0

>  <SCORE.SYSTEM>
0

>  <SCORE.SYSTEM.CONST>
0

>  <SCORE.SYSTEM.DIHEDRAL>
0

>  <SCORE.SYSTEM.SOLV>
0

>  <SCORE.SYSTEM.norm>
0

>  <SCORE.heavy>
22

>  <SCORE.norm>
-0.579953

>  <RMSD>
2.000

$$$$
lig.pdb
 OpenBabel11021811523D
libRbt.so/2013.1/901 2013/11/27
 22 23  0  0  0  0  0  0  0  0999 V2000
   -8.1737   -1.0202   -0.4505 C   0  0  1  0  0  0  0  0  0  0  0  0
   -6.5971    0.5373    0.7661 C   0  0  1  0  0  0  0  0  0  0  0  0
   -7.5536    1.7635    1.1102 C   0  0  1  0  0  0  0  0  0  0  0  0
   -6.6438    3.0637    1.2750 C   0  0  2  0  0  0  0  0  0  0  0  0
   -9.1173   -2.2208   -0.0527 C   0  0  1  0  0  0  0  0  0  0  0  0
   -8.2277   -3.4323    0.2895 C   0  0  2  0  0  0  0  0  0  0  0  0
   -7.3882   -3.8578   -0.9280 C   0  0  2  0  0  0  0  0  0  0  0  0
   -6.4433   -2.6941   -1.4027 C   0  0  1  0  0  0  0  0  0  0  0  0
   -5.6330   -3.1007   -2.6672 C   0  0  0  0  0  0  0  0  0  0  0  0
   -5.6283    2.8455    2.5092 C   0  0  1  0  0  0  0  0  0  0  0  0
   -4.6815    1.6001    2.1270 C   0  0  0  0  0  0  0  0  0  0  0  0
   -5.5722    0.2902    1.9184 C   0  0  2  0  0  0  0  0  0  0  0  0
   -8.2694   -4.2396   -2.0375 F   0  0  0  0  0  0  0  0  0  0  0  0
   -9.9517   -1.7805    1.1319 N   0  0  0  0  0  0  0  0  0  0  0  0
   -4.7596   -4.1974   -2.4856 N   0  0  0  0  0  0  0  0  0  0  0  0
   -4.7359    4.0406    2.6938 N   0  0  0  0  0  0  0  0  0  0  0  0
   -4.6981   -0.8475    1.5665 N   0  0  0  0  0  0  0  0  0  0  0  0
   -7.3596   -0.6509    0.6181 O   0  0  0  0  0  0  0  0  0  0  0  0
   -8.4856    1.9482   -0.0272 O   0  0  0  0  0  0  0  0  0  0  0  0
   -7.5048    4.1242    1.5665 O   0  0  0  0  0  0  0  0  0  0  0  0
   -8.9176   -4.3069    0.5770 O   0  0  0  0  0  0  0  0  0  0  0  0
   -7.3410   -1.4679   -1.6490 O   0  0  0  0  0  0  0  0  0  0  0  0
  1  5  1  0  0  0  0
  1 18  1  1  0  0  0
  2 18  1  1  0  0  0
  2  3  1  0  0  0  0
  2 12  1  0  0  0  0
  3 19  1  6  0  0  0
  3  4  1  0  0  0  0
  4 20  1  1  0  0  0
  4 10  1  0  0  0  0
  5  6  1  0  0  0  0
  5 14  1  1  0  0  0
  6 21  1  6  0  0  0
  7 13  1  6  0  0  0
  7  6  1  0  0  0  0
  8  9  1  6  0  0  0
  8  7  1  0  0  0  0
 10 16  1  6  0  0  0
 11 10  1  0  0  0  0
 12 17  1  6  0  0  0
 12 11  1  0  0  0  0
 15  9  1  0  0  0  0
 22  8  1  0  0  0  0
 22  1  1  0  0  0  0
M  END
>  <CHROM.1>
-165.22267393,74.86627688,-62.12951580,-7.03088289,-0.66322379,0.24687108
1.75653031,-0.11649859,-2.67447961

>  <Name>
lig.pdb

>  <RI>
0

>  <Rbt.Current_Directory>
/home/itssahil/PROJECTS/Mol_Feturizer/New_Systems/rnas/5bws

>  <Rbt.Executable>
rbdock ($Id: //depot/dev/client3/rdock/2013.1/src/exe/rbdock.cxx#4 $)

>  <Rbt.Library>
libRbt.so (2013.1, Build901 2013/11/27)

>  <Rbt.Parameter_File>
/export/apps/rDock/src/rDock_2013.1_src/data/scripts/dock_solv.prm

>  <Rbt.Receptor>
prm/pocket_docking_4.prm

>  <SCORE>
-12.7812

>  <SCORE.INTER>
-10.6822

>  <SCORE.INTER.CONST>
1

>  <SCORE.INTER.POLAR>
0

>  <SCORE.INTER.ROT>
3

>  <SCORE.INTER.SOLV>
17.9035

>  <SCORE.INTER.VDW>
-18.6893

>  <SCORE.INTER.norm>
-0.485553

>  <SCORE.INTRA>
-2.09905

>  <SCORE.INTRA.DIHEDRAL>
-4.02763

>  <SCORE.INTRA.DIHEDRAL.0>
6.10773

>  <SCORE.INTRA.POLAR>
0

>  <SCORE.INTRA.POLAR.0>
0

>  <SCORE.INTRA.REPUL>
0

>  <SCORE.INTRA.REPUL.0>
0

>  <SCORE.INTRA.SOLV>
-0.592033

>  <SCORE.INTRA.SOLV.lig_0>
-71.4024

>  <SCORE.INTRA.VDW>
0.210779

>  <SCORE.INTRA.VDW.0>
-1.86213

>  <SCORE.INTRA.norm>
-0.0954114

>  <SCORE.RESTR>
0

>  <SCORE.RESTR.CAVITY>
0

>  <SCORE.RESTR.norm>
0

>  <SCORE.SYSTEM>
0

>  <SCORE.SYSTEM.CONST>
0

>  <SCORE.SYSTEM.DIHEDRAL>
0

>  <SCORE.SYSTEM.SOLV>
0

>  <SCORE.SYSTEM.norm>
0

>  <SCORE.heavy>
22

>  <SCORE.norm>
-0.580964

>  <RMSD>
2.001

$$$$
lig.pdb
 OpenBabel11021811523D
libRbt.so/2013.1/901 2013/11/27
 22 23  0  0  0  0  0  0  0  0999 V2000
   -8.1990   -0.9870   -0.4405 C   0  0  1  0  0  0  0  0  0  0  0  0
   -6.6156    0.5647    0.7745 C   0  0  1  0  0  0  0  0  0  0  0  0
   -7.5611    1.7981    1.1235 C   0  0  1  0  0  0  0  0  0  0  0  0
   -6.6406    3.0913    1.2839 C   0  0  2  0  0  0  0  0  0  0  0  0
   -9.1440   -2.1873   -0.0449 C   0  0  1  0  0  0  0  0  0  0  0  0
   -8.2557   -3.3989    0.3001 C   0  0  2  0  0  0  0  0  0  0  0  0
   -7.4129   -3.8250   -0.9151 C   0  0  2  0  0  0  0  0  0  0  0  0
   -6.4665   -2.6617   -1.3875 C   0  0  1  0  0  0  0  0  0  0  0  0
   -5.6528   -3.0688   -2.6497 C   0  0  0  0  0  0  0  0  0  0  0  0
   -5.6207    2.8653    2.5130 C   0  0  1  0  0  0  0  0  0  0  0  0
   -4.6852    1.6129    2.1260 C   0  0  0  0  0  0  0  0  0  0  0  0
   -5.5868    0.3097    1.9217 C   0  0  2  0  0  0  0  0  0  0  0  0
   -8.2912   -4.2069   -2.0268 F   0  0  0  0  0  0  0  0  0  0  0  0
   -9.9815   -1.7464    1.1373 N   0  0  0  0  0  0  0  0  0  0  0  0
   -4.7802   -4.1657   -2.4653 N   0  0  0  0  0  0  0  0  0  0  0  0
   -4.7183    4.0536    2.6933 N   0  0  0  0  0  0  0  0  0  0  0  0
   -4.7231   -0.8345    1.5653 N   0  0  0  0  0  0  0  0  0  0  0  0
   -7.3877   -0.6177    0.6303 O   0  0  0  0  0  0  0  0  0  0  0  0
   -8.4973    1.9899   -0.0092 O   0  0  0  0  0  0  0  0  0  0  0  0
   -7.4922    4.1582    1.5798 O   0  0  0  0  0  0  0  0  0  0  0  0
   -8.9466   -4.2732    0.5859 O   0  0  0  0  0  0  0  0  0  0  0  0
   -7.3632   -1.4353   -1.6365 O   0  0  0  0  0  0  0  0  0  0  0  0
  1  5  1  0  0  0  0
  1 18  1  1  0  0  0
  2 18  1  1  0  0  0
  2  3  1  0  0  0  0
  2 12  1  0  0  0  0
  3 19  1  6  0  0  0
  3  4  1  0  0  0  0
  4 20  1  1  0  0  0
  4 10  1  0  0  0  0
  5  6  1  0  0  0  0
  5 14  1  1  0  0  0
  6 21  1  6  0  0  0
  7 13  1  6  0  0  0
  7  6  1  0  0  0  0
  8  9  1  6  0  0  0
  8  7  1  0  0  0  0
 10 16  1  6  0  0  0
 11 10  1  0  0  0  0
 12 17  1  6  0  0  0
 12 11  1  0  0  0  0
 15  9  1  0  0  0  0
 22  8  1  0  0  0  0
 22  1  1  0  0  0  0
M  END
>  <CHROM.1>
-165.86478023,75.60034250,-62.13356417,-7.04641133,-0.63394858,0.25655816
1.76094613,-0.11556243,-2.67508921

>  <Name>
lig.pdb

>  <RI>
0

>  <Rbt.Current_Directory>
/home/itssahil/PROJECTS/Mol_Feturizer/New_Systems/rnas/5bws

>  <Rbt.Executable>
rbdock ($Id: //depot/dev/client3/rdock/2013.1/src/exe/rbdock.cxx#4 $)

>  <Rbt.Library>
libRbt.so (2013.1, Build901 2013/11/27)

>  <Rbt.Parameter_File>
/export/apps/rDock/src/rDock_2013.1_src/data/scripts/dock_solv.prm

>  <Rbt.Receptor>
prm/pocket_docking_4.prm

>  <SCORE>
-12.7831

>  <SCORE.INTER>
-10.6872

>  <SCORE.INTER.CONST>
1

>  <SCORE.INTER.POLAR>
0

>  <SCORE.INTER.ROT>
3

>  <SCORE.INTER.SOLV>
17.9594

>  <SCORE.INTER.VDW>
-18.7112

>  <SCORE.INTER.norm>
-0.48578

>  <SCORE.INTRA>
-2.09591

>  <SCORE.INTRA.DIHEDRAL>
-4.01169

>  <SCORE.INTRA.DIHEDRAL.0>
6.10773

>  <SCORE.INTRA.POLAR>
0

>  <SCORE.INTRA.POLAR.0>
0

>  <SCORE.INTRA.REPUL>
0

>  <SCORE.INTRA.REPUL.0>
0

>  <SCORE.INTRA.SOLV>
-0.576723

>  <SCORE.INTRA.SOLV.lig_0>
-71.4024

>  <SCORE.INTRA.VDW>
0.198302

>  <SCORE.INTRA.VDW.0>
-1.86213

>  <SCORE.INTRA.norm>
-0.0952684

>  <SCORE.RESTR>
0

>  <SCORE.RESTR.CAVITY>
0

>  <SCORE.RESTR.norm>
0

>  <SCORE.SYSTEM>
0

>  <SCORE.SYSTEM.CONST>
0

>  <SCORE.SYSTEM.DIHEDRAL>
0

>  <SCORE.SYSTEM.SOLV>
0

>  <SCORE.SYSTEM.norm>
0

>  <SCORE.heavy>
22

>  <SCORE.norm>
-0.581049

>  <RMSD>
2.007

$$$$
lig.pdb
 OpenBabel11021811523D
libRbt.so/2013.1/901 2013/11/27
 22 23  0  0  0  0  0  0  0  0999 V2000
   -8.1465   -1.1048   -0.5318 C   0  0  1  0  0  0  0  0  0  0  0  0
   -6.5961    0.4740    0.6909 C   0  0  1  0  0  0  0  0  0  0  0  0
   -7.5651    1.7011    0.9946 C   0  0  1  0  0  0  0  0  0  0  0  0
   -6.6646    3.0077    1.1592 C   0  0  2  0  0  0  0  0  0  0  0  0
   -9.1052   -2.2915   -0.1286 C   0  0  1  0  0  0  0  0  0  0  0  0
   -8.2301   -3.5016    0.2538 C   0  0  2  0  0  0  0  0  0  0  0  0
   -7.3707   -3.9560   -0.9393 C   0  0  2  0  0  0  0  0  0  0  0  0
   -6.4096   -2.8076   -1.4186 C   0  0  1  0  0  0  0  0  0  0  0  0
   -5.5785   -3.2438   -2.6595 C   0  0  0  0  0  0  0  0  0  0  0  0
   -5.6760    2.8133    2.4190 C   0  0  1  0  0  0  0  0  0  0  0  0
   -4.7157    1.5664    2.0774 C   0  0  0  0  0  0  0  0  0  0  0  0
   -5.5961    0.2494    1.8694 C   0  0  2  0  0  0  0  0  0  0  0  0
   -8.2335   -4.3539   -2.0576 F   0  0  0  0  0  0  0  0  0  0  0  0
   -9.9587   -1.8231    1.0314 N   0  0  0  0  0  0  0  0  0  0  0  0
   -4.7124   -4.3392   -2.4390 N   0  0  0  0  0  0  0  0  0  0  0  0
   -4.7929    4.0152    2.6047 N   0  0  0  0  0  0  0  0  0  0  0  0
   -4.7096   -0.8896    1.5548 N   0  0  0  0  0  0  0  0  0  0  0  0
   -7.3501   -0.7198    0.5446 O   0  0  0  0  0  0  0  0  0  0  0  0
   -8.4723    1.8639   -0.1660 O   0  0  0  0  0  0  0  0  0  0  0  0
   -7.5364    4.0687    1.4150 O   0  0  0  0  0  0  0  0  0  0  0  0
   -8.9310   -4.3661    0.5451 O   0  0  0  0  0  0  0  0  0  0  0  0
   -7.2945   -1.5809   -1.7055 O   0  0  0  0  0  0  0  0  0  0  0  0
  1  5  1  0  0  0  0
  1 18  1  1  0  0  0
  2 18  1  1  0  0  0
  2  3  1  0  0  0  0
  2 12  1  0  0  0  0
  3 19  1  6  0  0  0
  3  4  1  0  0  0  0
  4 20  1  1  0  0  0
  4 10  1  0  0  0  0
  5  6  1  0  0  0  0
  5 14  1  1  0  0  0
  6 21  1  6  0  0  0
  7 13  1  6  0  0  0
  7  6  1  0  0  0  0
  8  9  1  6  0  0  0
  8  7  1  0  0  0  0
 10 16  1  6  0  0  0
 11 10  1  0  0  0  0
 12 17  1  6  0  0  0
 12 11  1  0  0  0  0
 15  9  1  0  0  0  0
 22  8  1  0  0  0  0
 22  1  1  0  0  0  0
M  END
>  <CHROM.1>
-164.35508812,74.34736531,-62.33824677,-7.02843476,-0.73750024,0.18608552
1.74712695,-0.09591565,-2.69255090

>  <Name>
lig.pdb

>  <RI>
0

>  <Rbt.Current_Directory>
/home/itssahil/PROJECTS/Mol_Feturizer/New_Systems/rnas/5bws

>  <Rbt.Executable>
rbdock ($Id: //depot/dev/client3/rdock/2013.1/src/exe/rbdock.cxx#4 $)

>  <Rbt.Library>
libRbt.so (2013.1, Build901 2013/11/27)

>  <Rbt.Parameter_File>
/export/apps/rDock/src/rDock_2013.1_src/data/scripts/dock_solv.prm

>  <Rbt.Receptor>
prm/pocket_docking_7.prm

>  <SCORE>
-12.7471

>  <SCORE.INTER>
-10.6808

>  <SCORE.INTER.CONST>
1

>  <SCORE.INTER.POLAR>
0

>  <SCORE.INTER.ROT>
3

>  <SCORE.INTER.SOLV>
17.4708

>  <SCORE.INTER.VDW>
-18.5441

>  <SCORE.INTER.norm>
-0.485493

>  <SCORE.INTRA>
-2.06628

>  <SCORE.INTRA.DIHEDRAL>
-3.97504

>  <SCORE.INTRA.DIHEDRAL.0>
6.10773

>  <SCORE.INTRA.POLAR>
0

>  <SCORE.INTRA.POLAR.0>
0

>  <SCORE.INTRA.REPUL>
0

>  <SCORE.INTRA.REPUL.0>
0

>  <SCORE.INTRA.SOLV>
-0.596312

>  <SCORE.INTRA.SOLV.lig_0>
-71.4024

>  <SCORE.INTRA.VDW>
0.219399

>  <SCORE.INTRA.VDW.0>
-1.86213

>  <SCORE.INTRA.norm>
-0.0939218

>  <SCORE.RESTR>
0

>  <SCORE.RESTR.CAVITY>
0

>  <SCORE.RESTR.norm>
0

>  <SCORE.SYSTEM>
0

>  <SCORE.SYSTEM.CONST>
0

>  <SCORE.SYSTEM.DIHEDRAL>
0

>  <SCORE.SYSTEM.SOLV>
0

>  <SCORE.SYSTEM.norm>
0

>  <SCORE.heavy>
22

>  <SCORE.norm>
-0.579414

>  <RMSD>
2.010

$$$$
lig.pdb
 OpenBabel11021811523D
libRbt.so/2013.1/901 2013/11/27
 22 23  0  0  0  0  0  0  0  0999 V2000
   -8.1423   -1.1582   -0.5581 C   0  0  1  0  0  0  0  0  0  0  0  0
   -6.6039    0.4098    0.6932 C   0  0  1  0  0  0  0  0  0  0  0  0
   -7.5641    1.6579    0.9325 C   0  0  1  0  0  0  0  0  0  0  0  0
   -6.6494    2.9528    1.1115 C   0  0  2  0  0  0  0  0  0  0  0  0
   -9.1126   -2.3430   -0.1774 C   0  0  1  0  0  0  0  0  0  0  0  0
   -8.2491   -3.5546    0.2261 C   0  0  2  0  0  0  0  0  0  0  0  0
   -7.3625   -4.0111   -0.9461 C   0  0  2  0  0  0  0  0  0  0  0  0
   -6.3880   -2.8647   -1.4028 C   0  0  1  0  0  0  0  0  0  0  0  0
   -5.5284   -3.3029   -2.6234 C   0  0  0  0  0  0  0  0  0  0  0  0
   -5.7186    2.7666    2.4157 C   0  0  1  0  0  0  0  0  0  0  0  0
   -4.7658    1.4981    2.1384 C   0  0  0  0  0  0  0  0  0  0  0  0
   -5.6587    0.1917    1.9173 C   0  0  2  0  0  0  0  0  0  0  0  0
   -8.1992   -4.4078   -2.0844 F   0  0  0  0  0  0  0  0  0  0  0  0
   -9.9926   -1.8725    0.9617 N   0  0  0  0  0  0  0  0  0  0  0  0
   -4.6955   -4.4215   -2.3921 N   0  0  0  0  0  0  0  0  0  0  0  0
   -4.8240    3.9574    2.6169 N   0  0  0  0  0  0  0  0  0  0  0  0
   -4.7791   -0.9673    1.6619 N   0  0  0  0  0  0  0  0  0  0  0  0
   -7.3710   -0.7743    0.5368 O   0  0  0  0  0  0  0  0  0  0  0  0
   -8.4183    1.8130   -0.2686 O   0  0  0  0  0  0  0  0  0  0  0  0
   -7.5132    4.0323    1.3101 O   0  0  0  0  0  0  0  0  0  0  0  0
   -8.9583   -4.4177    0.5009 O   0  0  0  0  0  0  0  0  0  0  0  0
   -7.2635   -1.6364   -1.7110 O   0  0  0  0  0  0  0  0  0  0  0  0
  1  5  1  0  0  0  0
  1 18  1  1  0  0  0
  2 18  1  1  0  0  0
  2  3  1  0  0  0  0
  2 12  1  0  0  0  0
  3 19  1  6  0  0  0
  3  4  1  0  0  0  0
  4 20  1  1  0  0  0
  4 10  1  0  0  0  0
  5  6  1  0  0  0  0
  5 14  1  1  0  0  0
  6 21  1  6  0  0  0
  7 13  1  6  0  0  0
  7  6  1  0  0  0  0
  8  9  1  6  0  0  0
  8  7  1  0  0  0  0
 10 16  1  6  0  0  0
 11 10  1  0  0  0  0
 12 17  1  6  0  0  0
 12 11  1  0  0  0  0
 15  9  1  0  0  0  0
 22  8  1  0  0  0  0
 22  1  1  0  0  0  0
M  END
>  <CHROM.1>
-165.29679581,73.37130317,-60.77452935,-7.03227460,-0.79344817,0.17309073
1.74445802,-0.07070897,-2.69954154

>  <Name>
lig.pdb

>  <RI>
0

>  <Rbt.Current_Directory>
/home/itssahil/PROJECTS/Mol_Feturizer/New_Systems/rnas/5bws

>  <Rbt.Executable>
rbdock ($Id: //depot/dev/client3/rdock/2013.1/src/exe/rbdock.cxx#4 $)

>  <Rbt.Library>
libRbt.so (2013.1, Build901 2013/11/27)

>  <Rbt.Parameter_File>
/export/apps/rDock/src/rDock_2013.1_src/data/scripts/dock_solv.prm

>  <Rbt.Receptor>
prm/pocket_docking_6.prm

>  <SCORE>
-12.7819

>  <SCORE.INTER>
-10.5857

>  <SCORE.INTER.CONST>
1

>  <SCORE.INTER.POLAR>
0

>  <SCORE.INTER.ROT>
3

>  <SCORE.INTER.SOLV>
17.8348

>  <SCORE.INTER.VDW>
-18.6021

>  <SCORE.INTER.norm>
-0.48117

>  <SCORE.INTRA>
-2.19615

>  <SCORE.INTRA.DIHEDRAL>
-4.24142

>  <SCORE.INTRA.DIHEDRAL.0>
6.10773

>  <SCORE.INTRA.POLAR>
0

>  <SCORE.INTRA.POLAR.0>
0

>  <SCORE.INTRA.REPUL>
0

>  <SCORE.INTRA.REPUL.0>
0

>  <SCORE.INTRA.SOLV>
-0.630173

>  <SCORE.INTRA.SOLV.lig_0>
-71.4024

>  <SCORE.INTRA.VDW>
0.239646

>  <SCORE.INTRA.VDW.0>
-1.86213

>  <SCORE.INTRA.norm>
-0.0998249

>  <SCORE.RESTR>
0

>  <SCORE.RESTR.CAVITY>
0

>  <SCORE.RESTR.norm>
0

>  <SCORE.SYSTEM>
0

>  <SCORE.SYSTEM.CONST>
0

>  <SCORE.SYSTEM.DIHEDRAL>
0

>  <SCORE.SYSTEM.SOLV>
0

>  <SCORE.SYSTEM.norm>
0

>  <SCORE.heavy>
22

>  <SCORE.norm>
-0.580995

>  <RMSD>
2.017

$$$$
lig.pdb
 OpenBabel11021811523D
libRbt.so/2013.1/901 2013/11/27
 22 23  0  0  0  0  0  0  0  0999 V2000
   -8.2581   -0.9301   -0.4019 C   0  0  1  0  0  0  0  0  0  0  0  0
   -6.6717    0.6153    0.8173 C   0  0  1  0  0  0  0  0  0  0  0  0
   -7.5897    1.8533    1.2194 C   0  0  1  0  0  0  0  0  0  0  0  0
   -6.6485    3.1325    1.3709 C   0  0  2  0  0  0  0  0  0  0  0  0
   -9.2052   -2.1318   -0.0159 C   0  0  1  0  0  0  0  0  0  0  0  0
   -8.3183   -3.3399    0.3450 C   0  0  2  0  0  0  0  0  0  0  0  0
   -7.4576   -3.7672   -0.8571 C   0  0  2  0  0  0  0  0  0  0  0  0
   -6.5080   -2.6027   -1.3199 C   0  0  1  0  0  0  0  0  0  0  0  0
   -5.6758   -3.0113   -2.5694 C   0  0  0  0  0  0  0  0  0  0  0  0
   -5.5907    2.8729    2.5608 C   0  0  1  0  0  0  0  0  0  0  0  0
   -4.6842    1.6166    2.1207 C   0  0  0  0  0  0  0  0  0  0  0  0
   -5.6082    0.3280    1.9245 C   0  0  2  0  0  0  0  0  0  0  0  0
   -8.3194   -4.1549   -1.9797 F   0  0  0  0  0  0  0  0  0  0  0  0
  -10.0601   -1.6898    1.1533 N   0  0  0  0  0  0  0  0  0  0  0  0
   -4.8280   -4.1265   -2.3796 N   0  0  0  0  0  0  0  0  0  0  0  0
   -4.6683    4.0472    2.7310 N   0  0  0  0  0  0  0  0  0  0  0  0
   -4.7710   -0.8198    1.5194 N   0  0  0  0  0  0  0  0  0  0  0  0
   -7.4627   -0.5553    0.6788 O   0  0  0  0  0  0  0  0  0  0  0  0
   -8.5610    2.0760    0.1224 O   0  0  0  0  0  0  0  0  0  0  0  0
   -7.4765    4.2040    1.7138 O   0  0  0  0  0  0  0  0  0  0  0  0
   -9.0107   -4.2153    0.6239 O   0  0  0  0  0  0  0  0  0  0  0  0
   -7.4045   -1.3795   -1.5850 O   0  0  0  0  0  0  0  0  0  0  0  0
  1  5  1  0  0  0  0
  1 18  1  1  0  0  0
  2 18  1  1  0  0  0
  2  3  1  0  0  0  0
  2 12  1  0  0  0  0
  3 19  1  6  0  0  0
  3  4  1  0  0  0  0
  4 20  1  1  0  0  0
  4 10  1  0  0  0  0
  5  6  1  0  0  0  0
  5 14  1  1  0  0  0
  6 21  1  6  0  0  0
  7 13  1  6  0  0  0
  7  6  1  0  0  0  0
  8  9  1  6  0  0  0
  8  7  1  0  0  0  0
 10 16  1  6  0  0  0
 11 10  1  0  0  0  0
 12 17  1  6  0  0  0
 12 11  1  0  0  0  0
 15  9  1  0  0  0  0
 22  8  1  0  0  0  0
 22  1  1  0  0  0  0
M  END
>  <CHROM.1>
-167.45155132,79.39664596,-60.59010174,-7.08101140,-0.58850861,0.30893968
1.76776068,-0.11376792,-2.67360992

>  <Name>
lig.pdb

>  <RI>
0

>  <Rbt.Current_Directory>
/home/itssahil/PROJECTS/Mol_Feturizer/New_Systems/rnas/5bws

>  <Rbt.Executable>
rbdock ($Id: //depot/dev/client3/rdock/2013.1/src/exe/rbdock.cxx#4 $)

>  <Rbt.Library>
libRbt.so (2013.1, Build901 2013/11/27)

>  <Rbt.Parameter_File>
/export/apps/rDock/src/rDock_2013.1_src/data/scripts/dock_solv.prm

>  <Rbt.Receptor>
prm/pocket_docking_4.prm

>  <SCORE>
-12.6887

>  <SCORE.INTER>
-10.7969

>  <SCORE.INTER.CONST>
1

>  <SCORE.INTER.POLAR>
0

>  <SCORE.INTER.ROT>
3

>  <SCORE.INTER.SOLV>
17.9622

>  <SCORE.INTER.VDW>
-18.7853

>  <SCORE.INTER.norm>
-0.490766

>  <SCORE.INTRA>
-1.89183

>  <SCORE.INTRA.DIHEDRAL>
-3.65287

>  <SCORE.INTRA.DIHEDRAL.0>
6.10773

>  <SCORE.INTRA.POLAR>
0

>  <SCORE.INTRA.POLAR.0>
0

>  <SCORE.INTRA.REPUL>
0

>  <SCORE.INTRA.REPUL.0>
0

>  <SCORE.INTRA.SOLV>
-0.416467

>  <SCORE.INTRA.SOLV.lig_0>
-71.4024

>  <SCORE.INTRA.VDW>
0.142836

>  <SCORE.INTRA.VDW.0>
-1.86213

>  <SCORE.INTRA.norm>
-0.0859924

>  <SCORE.RESTR>
0

>  <SCORE.RESTR.CAVITY>
0

>  <SCORE.RESTR.norm>
0

>  <SCORE.SYSTEM>
0

>  <SCORE.SYSTEM.CONST>
0

>  <SCORE.SYSTEM.DIHEDRAL>
0

>  <SCORE.SYSTEM.SOLV>
0

>  <SCORE.SYSTEM.norm>
0

>  <SCORE.heavy>
22

>  <SCORE.norm>
-0.576759

>  <RMSD>
2.020

$$$$
lig.pdb
 OpenBabel11021811523D
libRbt.so/2013.1/901 2013/11/27
 22 23  0  0  0  0  0  0  0  0999 V2000
   -8.1317   -1.1769   -0.5799 C   0  0  1  0  0  0  0  0  0  0  0  0
   -6.5998    0.4024    0.6652 C   0  0  1  0  0  0  0  0  0  0  0  0
   -7.5792    1.6314    0.9251 C   0  0  1  0  0  0  0  0  0  0  0  0
   -6.6855    2.9405    1.1062 C   0  0  2  0  0  0  0  0  0  0  0  0
   -9.1100   -2.3499   -0.1838 C   0  0  1  0  0  0  0  0  0  0  0  0
   -8.2548   -3.5672    0.2201 C   0  0  2  0  0  0  0  0  0  0  0  0
   -7.3823   -4.0394   -0.9564 C   0  0  2  0  0  0  0  0  0  0  0  0
   -6.4008   -2.9053   -1.4283 C   0  0  1  0  0  0  0  0  0  0  0  0
   -5.5556   -3.3593   -2.6532 C   0  0  0  0  0  0  0  0  0  0  0  0
   -5.7383    2.7595    2.3994 C   0  0  1  0  0  0  0  0  0  0  0  0
   -4.7664    1.5104    2.1014 C   0  0  0  0  0  0  0  0  0  0  0  0
   -5.6385    0.1905    1.8778 C   0  0  2  0  0  0  0  0  0  0  0  0
   -8.2322   -4.4352   -2.0852 F   0  0  0  0  0  0  0  0  0  0  0  0
   -9.9759   -1.8639    0.9596 N   0  0  0  0  0  0  0  0  0  0  0  0
   -4.7024   -4.4601   -2.4108 N   0  0  0  0  0  0  0  0  0  0  0  0
   -4.8627    3.9641    2.6020 N   0  0  0  0  0  0  0  0  0  0  0  0
   -4.7414   -0.9506    1.6034 N   0  0  0  0  0  0  0  0  0  0  0  0
   -7.3477   -0.7935    0.5061 O   0  0  0  0  0  0  0  0  0  0  0  0
   -8.4481    1.7818   -0.2659 O   0  0  0  0  0  0  0  0  0  0  0  0
   -7.5660    4.0030    1.3230 O   0  0  0  0  0  0  0  0  0  0  0  0
   -8.9699   -4.4217    0.5063 O   0  0  0  0  0  0  0  0  0  0  0  0
   -7.2671   -1.6706   -1.7370 O   0  0  0  0  0  0  0  0  0  0  0  0
  1  5  1  0  0  0  0
  1 18  1  1  0  0  0
  2 18  1  1  0  0  0
  2  3  1  0  0  0  0
  2 12  1  0  0  0  0
  3 19  1  6  0  0  0
  3  4  1  0  0  0  0
  4 20  1  1  0  0  0
  4 10  1  0  0  0  0
  5  6  1  0  0  0  0
  5 14  1  1  0  0  0
  6 21  1  6  0  0  0
  7 13  1  6  0  0  0
  7  6  1  0  0  0  0
  8  9  1  6  0  0  0
  8  7  1  0  0  0  0
 10 16  1  6  0  0  0
 11 10  1  0  0  0  0
 12 17  1  6  0  0  0
 12 11  1  0  0  0  0
 15  9  1  0  0  0  0
 22  8  1  0  0  0  0
 22  1  1  0  0  0  0
M  END
>  <CHROM.1>
-163.23474401,72.81861500,-62.53498117,-7.04189550,-0.81011743,0.15708015
1.74105503,-0.07340020,-2.69908487

>  <Name>
lig.pdb

>  <RI>
0

>  <Rbt.Current_Directory>
/home/itssahil/PROJECTS/Mol_Feturizer/New_Systems/rnas/5bws

>  <Rbt.Executable>
rbdock ($Id: //depot/dev/client3/rdock/2013.1/src/exe/rbdock.cxx#4 $)

>  <Rbt.Library>
libRbt.so (2013.1, Build901 2013/11/27)

>  <Rbt.Parameter_File>
/export/apps/rDock/src/rDock_2013.1_src/data/scripts/dock_solv.prm

>  <Rbt.Receptor>
prm/pocket_docking_8.prm

>  <SCORE>
-12.7948

>  <SCORE.INTER>
-10.721

>  <SCORE.INTER.CONST>
1

>  <SCORE.INTER.POLAR>
0

>  <SCORE.INTER.ROT>
3

>  <SCORE.INTER.SOLV>
17.514

>  <SCORE.INTER.VDW>
-18.5854

>  <SCORE.INTER.norm>
-0.48732

>  <SCORE.INTRA>
-2.07375

>  <SCORE.INTRA.DIHEDRAL>
-4.00111

>  <SCORE.INTRA.DIHEDRAL.0>
6.10773

>  <SCORE.INTRA.POLAR>
0

>  <SCORE.INTRA.POLAR.0>
0

>  <SCORE.INTRA.REPUL>
0

>  <SCORE.INTRA.REPUL.0>
0

>  <SCORE.INTRA.SOLV>
-0.637308

>  <SCORE.INTRA.SOLV.lig_0>
-71.4024

>  <SCORE.INTRA.VDW>
0.245463

>  <SCORE.INTRA.VDW.0>
-1.86213

>  <SCORE.INTRA.norm>
-0.0942612

>  <SCORE.RESTR>
0

>  <SCORE.RESTR.CAVITY>
0

>  <SCORE.RESTR.norm>
0

>  <SCORE.SYSTEM>
0

>  <SCORE.SYSTEM.CONST>
0

>  <SCORE.SYSTEM.DIHEDRAL>
0

>  <SCORE.SYSTEM.SOLV>
0

>  <SCORE.SYSTEM.norm>
0

>  <SCORE.heavy>
22

>  <SCORE.norm>
-0.581582

>  <RMSD>
2.026

$$$$
lig.pdb
 OpenBabel11021811523D
libRbt.so/2013.1/901 2013/11/27
 22 23  0  0  0  0  0  0  0  0999 V2000
   -8.1385   -1.1567   -0.5716 C   0  0  1  0  0  0  0  0  0  0  0  0
   -6.6109    0.4219    0.6797 C   0  0  1  0  0  0  0  0  0  0  0  0
   -7.5893    1.6493    0.9500 C   0  0  1  0  0  0  0  0  0  0  0  0
   -6.6951    2.9577    1.1338 C   0  0  2  0  0  0  0  0  0  0  0  0
   -9.1043   -2.3433   -0.1853 C   0  0  1  0  0  0  0  0  0  0  0  0
   -8.2363   -3.5544    0.2097 C   0  0  2  0  0  0  0  0  0  0  0  0
   -7.3582   -4.0080   -0.9699 C   0  0  2  0  0  0  0  0  0  0  0  0
   -6.3887   -2.8598   -1.4323 C   0  0  1  0  0  0  0  0  0  0  0  0
   -5.5379   -3.2951   -2.6602 C   0  0  0  0  0  0  0  0  0  0  0  0
   -5.7423    2.7704    2.4219 C   0  0  1  0  0  0  0  0  0  0  0  0
   -4.7715    1.5230    2.1135 C   0  0  0  0  0  0  0  0  0  0  0  0
   -5.6443    0.2040    1.8871 C   0  0  2  0  0  0  0  0  0  0  0  0
   -8.2031   -4.4041   -2.1023 F   0  0  0  0  0  0  0  0  0  0  0  0
   -9.9761   -1.8755    0.9613 N   0  0  0  0  0  0  0  0  0  0  0  0
   -4.6700   -4.3859   -2.4246 N   0  0  0  0  0  0  0  0  0  0  0  0
   -4.8660    3.9741    2.6268 N   0  0  0  0  0  0  0  0  0  0  0  0
   -4.7482   -0.9355    1.6030 N   0  0  0  0  0  0  0  0  0  0  0  0
   -7.3592   -0.7735    0.5179 O   0  0  0  0  0  0  0  0  0  0  0  0
   -8.4635    1.8055   -0.2365 O   0  0  0  0  0  0  0  0  0  0  0  0
   -7.5748    4.0189    1.3598 O   0  0  0  0  0  0  0  0  0  0  0  0
   -8.9424   -4.4187    0.4888 O   0  0  0  0  0  0  0  0  0  0  0  0
   -7.2680   -1.6321   -1.7320 O   0  0  0  0  0  0  0  0  0  0  0  0
  1  5  1  0  0  0  0
  1 18  1  1  0  0  0
  2 18  1  1  0  0  0
  2  3  1  0  0  0  0
  2 12  1  0  0  0  0
  3 19  1  6  0  0  0
  3  4  1  0  0  0  0
  4 20  1  1  0  0  0
  4 10  1  0  0  0  0
  5  6  1  0  0  0  0
  5 14  1  1  0  0  0
  6 21  1  6  0  0  0
  7 13  1  6  0  0  0
  7  6  1  0  0  0  0
  8  9  1  6  0  0  0
  8  7  1  0  0  0  0
 10 16  1  6  0  0  0
 11 10  1  0  0  0  0
 12 17  1  6  0  0  0
 12 11  1  0  0  0  0
 15  9  1  0  0  0  0
 22  8  1  0  0  0  0
 22  1  1  0  0  0  0
M  END
>  <CHROM.1>
-164.09923274,73.43721735,-62.72683320,-7.03850457,-0.78758377,0.16340679
1.73797470,-0.07889047,-2.69354685

>  <Name>
lig.pdb

>  <RI>
0

>  <Rbt.Current_Directory>
/home/itssahil/PROJECTS/Mol_Feturizer/New_Systems/rnas/5bws

>  <Rbt.Executable>
rbdock ($Id: //depot/dev/client3/rdock/2013.1/src/exe/rbdock.cxx#4 $)

>  <Rbt.Library>
libRbt.so (2013.1, Build901 2013/11/27)

>  <Rbt.Parameter_File>
/export/apps/rDock/src/rDock_2013.1_src/data/scripts/dock_solv.prm

>  <Rbt.Receptor>
prm/pocket_docking_4.prm

>  <SCORE>
-12.7484

>  <SCORE.INTER>
-10.6401

>  <SCORE.INTER.CONST>
1

>  <SCORE.INTER.POLAR>
0

>  <SCORE.INTER.ROT>
3

>  <SCORE.INTER.SOLV>
17.7216

>  <SCORE.INTER.VDW>
-18.6006

>  <SCORE.INTER.norm>
-0.483641

>  <SCORE.INTRA>
-2.10828

>  <SCORE.INTRA.DIHEDRAL>
-4.04646

>  <SCORE.INTRA.DIHEDRAL.0>
6.10773

>  <SCORE.INTRA.POLAR>
0

>  <SCORE.INTRA.POLAR.0>
0

>  <SCORE.INTRA.REPUL>
0

>  <SCORE.INTRA.REPUL.0>
0

>  <SCORE.INTRA.SOLV>
-0.637904

>  <SCORE.INTRA.SOLV.lig_0>
-71.4024

>  <SCORE.INTRA.VDW>
0.2339

>  <SCORE.INTRA.VDW.0>
-1.86213

>  <SCORE.INTRA.norm>
-0.095831

>  <SCORE.RESTR>
0

>  <SCORE.RESTR.CAVITY>
0

>  <SCORE.RESTR.norm>
0

>  <SCORE.SYSTEM>
0

>  <SCORE.SYSTEM.CONST>
0

>  <SCORE.SYSTEM.DIHEDRAL>
0

>  <SCORE.SYSTEM.SOLV>
0

>  <SCORE.SYSTEM.norm>
0

>  <SCORE.heavy>
22

>  <SCORE.norm>
-0.579472

>  <RMSD>
2.031

$$$$
lig.pdb
 OpenBabel11021811523D
libRbt.so/2013.1/901 2013/11/27
 22 23  0  0  0  0  0  0  0  0999 V2000
   -8.2208   -1.1314   -0.5445 C   0  0  1  0  0  0  0  0  0  0  0  0
   -6.6666    0.4364    0.6874 C   0  0  1  0  0  0  0  0  0  0  0  0
   -7.6271    1.6708    0.9886 C   0  0  1  0  0  0  0  0  0  0  0  0
   -6.7170    2.9702    1.1577 C   0  0  2  0  0  0  0  0  0  0  0  0
   -9.1865   -2.3151   -0.1491 C   0  0  1  0  0  0  0  0  0  0  0  0
   -8.3184   -3.5292    0.2364 C   0  0  2  0  0  0  0  0  0  0  0  0
   -7.4536   -3.9849   -0.9523 C   0  0  2  0  0  0  0  0  0  0  0  0
   -6.4852   -2.8395   -1.4239 C   0  0  1  0  0  0  0  0  0  0  0  0
   -5.6484   -3.2768   -2.6606 C   0  0  0  0  0  0  0  0  0  0  0  0
   -5.7345    2.7669    2.4209 C   0  0  1  0  0  0  0  0  0  0  0  0
   -4.7828    1.5129    2.0817 C   0  0  0  0  0  0  0  0  0  0  0  0
   -5.6727    0.2030    1.8693 C   0  0  2  0  0  0  0  0  0  0  0  0
   -8.3113   -4.3776   -2.0763 F   0  0  0  0  0  0  0  0  0  0  0  0
  -10.0450   -1.8453    1.0066 N   0  0  0  0  0  0  0  0  0  0  0  0
   -4.7527   -4.3447   -2.4240 N   0  0  0  0  0  0  0  0  0  0  0  0
   -4.8427    3.9617    2.6110 N   0  0  0  0  0  0  0  0  0  0  0  0
   -4.7940   -0.9427    1.5570 N   0  0  0  0  0  0  0  0  0  0  0  0
   -7.4293   -0.7513    0.5373 O   0  0  0  0  0  0  0  0  0  0  0  0
   -8.5286    1.8417   -0.1752 O   0  0  0  0  0  0  0  0  0  0  0  0
   -7.5813    4.0377    1.4112 O   0  0  0  0  0  0  0  0  0  0  0  0
   -9.0243   -4.3915    0.5221 O   0  0  0  0  0  0  0  0  0  0  0  0
   -7.3636   -1.6089   -1.7139 O   0  0  0  0  0  0  0  0  0  0  0  0
  1  5  1  0  0  0  0
  1 18  1  1  0  0  0
  2 18  1  1  0  0  0
  2  3  1  0  0  0  0
  2 12  1  0  0  0  0
  3 19  1  6  0  0  0
  3  4  1  0  0  0  0
  4 20  1  1  0  0  0
  4 10  1  0  0  0  0
  5  6  1  0  0  0  0
  5 14  1  1  0  0  0
  6 21  1  6  0  0  0
  7 13  1  6  0  0  0
  7  6  1  0  0  0  0
  8  9  1  6  0  0  0
  8  7  1  0  0  0  0
 10 16  1  6  0  0  0
 11 10  1  0  0  0  0
 12 17  1  6  0  0  0
 12 11  1  0  0  0  0
 15  9  1  0  0  0  0
 22  8  1  0  0  0  0
 22  1  1  0  0  0  0
M  END
>  <CHROM.1>
-164.68443069,74.61230985,-64.51623694,-7.09849428,-0.76987265,0.17915797
1.75075454,-0.08993150,-2.69128567

>  <Name>
lig.pdb

>  <RI>
0

>  <Rbt.Current_Directory>
/home/itssahil/PROJECTS/Mol_Feturizer/New_Systems/rnas/5bws

>  <Rbt.Executable>
rbdock ($Id: //depot/dev/client3/rdock/2013.1/src/exe/rbdock.cxx#4 $)

>  <Rbt.Library>
libRbt.so (2013.1, Build901 2013/11/27)

>  <Rbt.Parameter_File>
/export/apps/rDock/src/rDock_2013.1_src/data/scripts/dock_solv.prm

>  <Rbt.Receptor>
prm/pocket_docking_5.prm

>  <SCORE>
-12.7224

>  <SCORE.INTER>
-10.6454

>  <SCORE.INTER.CONST>
1

>  <SCORE.INTER.POLAR>
0

>  <SCORE.INTER.ROT>
3

>  <SCORE.INTER.SOLV>
17.8252

>  <SCORE.INTER.VDW>
-18.6387

>  <SCORE.INTER.norm>
-0.483884

>  <SCORE.INTRA>
-2.07694

>  <SCORE.INTRA.DIHEDRAL>
-3.93181

>  <SCORE.INTRA.DIHEDRAL.0>
6.10773

>  <SCORE.INTRA.POLAR>
0

>  <SCORE.INTRA.POLAR.0>
0

>  <SCORE.INTRA.REPUL>
0

>  <SCORE.INTRA.REPUL.0>
0

>  <SCORE.INTRA.SOLV>
-0.641207

>  <SCORE.INTRA.SOLV.lig_0>
-71.4024

>  <SCORE.INTRA.VDW>
0.209565

>  <SCORE.INTRA.VDW.0>
-1.86213

>  <SCORE.INTRA.norm>
-0.0944065

>  <SCORE.RESTR>
0

>  <SCORE.RESTR.CAVITY>
0

>  <SCORE.RESTR.norm>
0

>  <SCORE.SYSTEM>
0

>  <SCORE.SYSTEM.CONST>
0

>  <SCORE.SYSTEM.DIHEDRAL>
0

>  <SCORE.SYSTEM.SOLV>
0

>  <SCORE.SYSTEM.norm>
0

>  <SCORE.heavy>
22

>  <SCORE.norm>
-0.578291

>  <RMSD>
2.053

$$$$
lig.pdb
 OpenBabel11021811523D
libRbt.so/2013.1/901 2013/11/27
 22 23  0  0  0  0  0  0  0  0999 V2000
   -8.1449   -1.1562   -0.5742 C   0  0  1  0  0  0  0  0  0  0  0  0
   -6.6315    0.4432    0.6680 C   0  0  1  0  0  0  0  0  0  0  0  0
   -7.6170    1.6651    0.9375 C   0  0  1  0  0  0  0  0  0  0  0  0
   -6.7309    2.9803    1.1115 C   0  0  2  0  0  0  0  0  0  0  0  0
   -9.1044   -2.3456   -0.1807 C   0  0  1  0  0  0  0  0  0  0  0  0
   -8.2298   -3.5473    0.2286 C   0  0  2  0  0  0  0  0  0  0  0  0
   -7.3441   -4.0057   -0.9435 C   0  0  2  0  0  0  0  0  0  0  0  0
   -6.3805   -2.8552   -1.4127 C   0  0  1  0  0  0  0  0  0  0  0  0
   -5.5222   -3.2960   -2.6333 C   0  0  0  0  0  0  0  0  0  0  0  0
   -5.7708    2.8051    2.3959 C   0  0  1  0  0  0  0  0  0  0  0  0
   -4.7930    1.5629    2.0884 C   0  0  0  0  0  0  0  0  0  0  0  0
   -5.6579    0.2371    1.8717 C   0  0  2  0  0  0  0  0  0  0  0  0
   -8.1821   -4.4177   -2.0755 F   0  0  0  0  0  0  0  0  0  0  0  0
   -9.9836   -1.8734    0.9583 N   0  0  0  0  0  0  0  0  0  0  0  0
   -4.6912   -4.4159   -2.4016 N   0  0  0  0  0  0  0  0  0  0  0  0
   -4.9018    4.0155    2.5915 N   0  0  0  0  0  0  0  0  0  0  0  0
   -4.7554   -0.8976    1.5885 N   0  0  0  0  0  0  0  0  0  0  0  0
   -7.3725   -0.7579    0.5148 O   0  0  0  0  0  0  0  0  0  0  0  0
   -8.4977    1.8102   -0.2456 O   0  0  0  0  0  0  0  0  0  0  0  0
   -7.6167    4.0365    1.3369 O   0  0  0  0  0  0  0  0  0  0  0  0
   -8.9312   -4.4138    0.5128 O   0  0  0  0  0  0  0  0  0  0  0  0
   -7.2668   -1.6363   -1.7268 O   0  0  0  0  0  0  0  0  0  0  0  0
  1  5  1  0  0  0  0
  1 18  1  1  0  0  0
  2 18  1  1  0  0  0
  2  3  1  0  0  0  0
  2 12  1  0  0  0  0
  3 19  1  6  0  0  0
  3  4  1  0  0  0  0
  4 20  1  1  0  0  0
  4 10  1  0  0  0  0
  5  6  1  0  0  0  0
  5 14  1  1  0  0  0
  6 21  1  6  0  0  0
  7 13  1  6  0  0  0
  7  6  1  0  0  0  0
  8  9  1  6  0  0  0
  8  7  1  0  0  0  0
 10 16  1  6  0  0  0
 11 10  1  0  0  0  0
 12 17  1  6  0  0  0
 12 11  1  0  0  0  0
 15  9  1  0  0  0  0
 22  8  1  0  0  0  0
 22  1  1  0  0  0  0
M  END
>  <CHROM.1>
-164.17746077,74.03698461,-60.06521691,-7.04894423,-0.77657772,0.16259473
1.73141193,-0.07939485,-2.70175977

>  <Name>
lig.pdb

>  <RI>
0

>  <Rbt.Current_Directory>
/home/itssahil/PROJECTS/Mol_Feturizer/New_Systems/rnas/5bws

>  <Rbt.Executable>
rbdock ($Id: //depot/dev/client3/rdock/2013.1/src/exe/rbdock.cxx#4 $)

>  <Rbt.Library>
libRbt.so (2013.1, Build901 2013/11/27)

>  <Rbt.Parameter_File>
/export/apps/rDock/src/rDock_2013.1_src/data/scripts/dock_solv.prm

>  <Rbt.Receptor>
prm/pocket_docking_8.prm

>  <SCORE>
-12.7664

>  <SCORE.INTER>
-10.7152

>  <SCORE.INTER.CONST>
1

>  <SCORE.INTER.POLAR>
0

>  <SCORE.INTER.ROT>
3

>  <SCORE.INTER.SOLV>
17.4732

>  <SCORE.INTER.VDW>
-18.5678

>  <SCORE.INTER.norm>
-0.487053

>  <SCORE.INTRA>
-2.05127

>  <SCORE.INTRA.DIHEDRAL>
-4.00999

>  <SCORE.INTRA.DIHEDRAL.0>
6.10773

>  <SCORE.INTRA.POLAR>
0

>  <SCORE.INTRA.POLAR.0>
0

>  <SCORE.INTRA.REPUL>
0

>  <SCORE.INTRA.REPUL.0>
0

>  <SCORE.INTRA.SOLV>
-0.555082

>  <SCORE.INTRA.SOLV.lig_0>
-71.4024

>  <SCORE.INTRA.VDW>
0.231268

>  <SCORE.INTRA.VDW.0>
-1.86213

>  <SCORE.INTRA.norm>
-0.0932394

>  <SCORE.RESTR>
0

>  <SCORE.RESTR.CAVITY>
0

>  <SCORE.RESTR.norm>
0

>  <SCORE.SYSTEM>
0

>  <SCORE.SYSTEM.CONST>
0

>  <SCORE.SYSTEM.DIHEDRAL>
0

>  <SCORE.SYSTEM.SOLV>
0

>  <SCORE.SYSTEM.norm>
0

>  <SCORE.heavy>
22

>  <SCORE.norm>
-0.580292

>  <RMSD>
2.054

$$$$
lig.pdb
 OpenBabel11021811523D
libRbt.so/2013.1/901 2013/11/27
 22 23  0  0  0  0  0  0  0  0999 V2000
   -8.1303   -1.1673   -0.5842 C   0  0  1  0  0  0  0  0  0  0  0  0
   -6.6341    0.4498    0.6558 C   0  0  1  0  0  0  0  0  0  0  0  0
   -7.6418    1.6512    0.9353 C   0  0  1  0  0  0  0  0  0  0  0  0
   -6.7803    2.9823    1.1127 C   0  0  2  0  0  0  0  0  0  0  0  0
   -9.0858   -2.3569   -0.1818 C   0  0  1  0  0  0  0  0  0  0  0  0
   -8.2073   -3.5560    0.2264 C   0  0  2  0  0  0  0  0  0  0  0  0
   -7.3273   -4.0167   -0.9491 C   0  0  2  0  0  0  0  0  0  0  0  0
   -6.3680   -2.8663   -1.4272 C   0  0  1  0  0  0  0  0  0  0  0  0
   -5.5158   -3.3096   -2.6511 C   0  0  0  0  0  0  0  0  0  0  0  0
   -5.8121    2.8190    2.3926 C   0  0  1  0  0  0  0  0  0  0  0  0
   -4.8119    1.5974    2.0750 C   0  0  0  0  0  0  0  0  0  0  0  0
   -5.6521    0.2564    1.8547 C   0  0  2  0  0  0  0  0  0  0  0  0
   -8.1709   -4.4334   -2.0752 F   0  0  0  0  0  0  0  0  0  0  0  0
   -9.9595   -1.8824    0.9605 N   0  0  0  0  0  0  0  0  0  0  0  0
   -4.6659   -4.4142   -2.4143 N   0  0  0  0  0  0  0  0  0  0  0  0
   -4.9657    4.0449    2.5911 N   0  0  0  0  0  0  0  0  0  0  0  0
   -4.7291   -0.8593    1.5622 N   0  0  0  0  0  0  0  0  0  0  0  0
   -7.3525   -0.7644    0.4992 O   0  0  0  0  0  0  0  0  0  0  0  0
   -8.5296    1.7855   -0.2436 O   0  0  0  0  0  0  0  0  0  0  0  0
   -7.6853    4.0202    1.3469 O   0  0  0  0  0  0  0  0  0  0  0  0
   -8.9057   -4.4226    0.5171 O   0  0  0  0  0  0  0  0  0  0  0  0
   -7.2579   -1.6496   -1.7402 O   0  0  0  0  0  0  0  0  0  0  0  0
  1  5  1  0  0  0  0
  1 18  1  1  0  0  0
  2 18  1  1  0  0  0
  2  3  1  0  0  0  0
  2 12  1  0  0  0  0
  3 19  1  6  0  0  0
  3  4  1  0  0  0  0
  4 20  1  1  0  0  0
  4 10  1  0  0  0  0
  5  6  1  0  0  0  0
  5 14  1  1  0  0  0
  6 21  1  6  0  0  0
  7 13  1  6  0  0  0
  7  6  1  0  0  0  0
  8  9  1  6  0  0  0
  8  7  1  0  0  0  0
 10 16  1  6  0  0  0
 11 10  1  0  0  0  0
 12 17  1  6  0  0  0
 12 11  1  0  0  0  0
 15  9  1  0  0  0  0
 22  8  1  0  0  0  0
 22  1  1  0  0  0  0
M  END
>  <CHROM.1>
-162.79671806,73.45856119,-61.03496168,-7.05179410,-0.77851067,0.15612784
1.72184465,-0.08422885,-2.70134323

>  <Name>
lig.pdb

>  <RI>
0

>  <Rbt.Current_Directory>
/home/itssahil/PROJECTS/Mol_Feturizer/New_Systems/rnas/5bws

>  <Rbt.Executable>
rbdock ($Id: //depot/dev/client3/rdock/2013.1/src/exe/rbdock.cxx#4 $)

>  <Rbt.Library>
libRbt.so (2013.1, Build901 2013/11/27)

>  <Rbt.Parameter_File>
/export/apps/rDock/src/rDock_2013.1_src/data/scripts/dock_solv.prm

>  <Rbt.Receptor>
prm/pocket_docking_6.prm

>  <SCORE>
-12.8169

>  <SCORE.INTER>
-10.8334

>  <SCORE.INTER.CONST>
1

>  <SCORE.INTER.POLAR>
0

>  <SCORE.INTER.ROT>
3

>  <SCORE.INTER.SOLV>
17.3103

>  <SCORE.INTER.VDW>
-18.5924

>  <SCORE.INTER.norm>
-0.492428

>  <SCORE.INTRA>
-1.98346

>  <SCORE.INTRA.DIHEDRAL>
-3.87993

>  <SCORE.INTRA.DIHEDRAL.0>
6.10773

>  <SCORE.INTRA.POLAR>
0

>  <SCORE.INTRA.POLAR.0>
0

>  <SCORE.INTRA.REPUL>
0

>  <SCORE.INTRA.REPUL.0>
0

>  <SCORE.INTRA.SOLV>
-0.564425

>  <SCORE.INTRA.SOLV.lig_0>
-71.4024

>  <SCORE.INTRA.VDW>
0.238721

>  <SCORE.INTRA.VDW.0>
-1.86213

>  <SCORE.INTRA.norm>
-0.0901571

>  <SCORE.RESTR>
0

>  <SCORE.RESTR.CAVITY>
0

>  <SCORE.RESTR.norm>
0

>  <SCORE.SYSTEM>
0

>  <SCORE.SYSTEM.CONST>
0

>  <SCORE.SYSTEM.DIHEDRAL>
0

>  <SCORE.SYSTEM.SOLV>
0

>  <SCORE.SYSTEM.norm>
0

>  <SCORE.heavy>
22

>  <SCORE.norm>
-0.582585

>  <RMSD>
2.074

$$$$
lig.pdb
 OpenBabel11021811523D
libRbt.so/2013.1/901 2013/11/27
 22 23  0  0  0  0  0  0  0  0999 V2000
   -8.1900   -1.1697   -0.5519 C   0  0  1  0  0  0  0  0  0  0  0  0
   -6.6460    0.4363    0.6432 C   0  0  1  0  0  0  0  0  0  0  0  0
   -7.6346    1.6603    0.8913 C   0  0  1  0  0  0  0  0  0  0  0  0
   -6.7517    2.9807    1.0416 C   0  0  2  0  0  0  0  0  0  0  0  0
   -9.1458   -2.3497   -0.1227 C   0  0  1  0  0  0  0  0  0  0  0  0
   -8.2680   -3.5545    0.2700 C   0  0  2  0  0  0  0  0  0  0  0  0
   -7.4193   -4.0272   -0.9237 C   0  0  2  0  0  0  0  0  0  0  0  0
   -6.4618   -2.8867   -1.4285 C   0  0  1  0  0  0  0  0  0  0  0  0
   -5.6419   -3.3419   -2.6699 C   0  0  0  0  0  0  0  0  0  0  0  0
   -5.7909    2.8307    2.3286 C   0  0  1  0  0  0  0  0  0  0  0  0
   -4.8100    1.5858    2.0429 C   0  0  0  0  0  0  0  0  0  0  0  0
   -5.6716    0.2541    1.8501 C   0  0  2  0  0  0  0  0  0  0  0  0
   -8.2921   -4.4412   -2.0282 F   0  0  0  0  0  0  0  0  0  0  0  0
   -9.9888   -1.8634    1.0376 N   0  0  0  0  0  0  0  0  0  0  0  0
   -4.7538   -4.4162   -2.4338 N   0  0  0  0  0  0  0  0  0  0  0  0
   -4.9249    4.0467    2.5024 N   0  0  0  0  0  0  0  0  0  0  0  0
   -4.7663   -0.8831    1.5868 N   0  0  0  0  0  0  0  0  0  0  0  0
   -7.3840   -0.7692    0.5116 O   0  0  0  0  0  0  0  0  0  0  0  0
   -8.5159    1.7822   -0.2940 O   0  0  0  0  0  0  0  0  0  0  0  0
   -7.6402    4.0385    1.2485 O   0  0  0  0  0  0  0  0  0  0  0  0
   -8.9667   -4.4141    0.5803 O   0  0  0  0  0  0  0  0  0  0  0  0
   -7.3486   -1.6638   -1.7258 O   0  0  0  0  0  0  0  0  0  0  0  0
  1  5  1  0  0  0  0
  1 18  1  1  0  0  0
  2 18  1  1  0  0  0
  2  3  1  0  0  0  0
  2 12  1  0  0  0  0
  3 19  1  6  0  0  0
  3  4  1  0  0  0  0
  4 20  1  1  0  0  0
  4 10  1  0  0  0  0
  5  6  1  0  0  0  0
  5 14  1  1  0  0  0
  6 21  1  6  0  0  0
  7 13  1  6  0  0  0
  7  6  1  0  0  0  0
  8  9  1  6  0  0  0
  8  7  1  0  0  0  0
 10 16  1  6  0  0  0
 11 10  1  0  0  0  0
 12 17  1  6  0  0  0
 12 11  1  0  0  0  0
 15  9  1  0  0  0  0
 22  8  1  0  0  0  0
 22  1  1  0  0  0  0
M  END
>  <CHROM.1>
-163.18946244,71.78470522,-63.60855290,-7.09029825,-0.78180442,0.15187000
1.74041642,-0.09769274,-2.70978292

>  <Name>
lig.pdb

>  <RI>
0

>  <Rbt.Current_Directory>
/home/itssahil/PROJECTS/Mol_Feturizer/New_Systems/rnas/5bws

>  <Rbt.Executable>
rbdock ($Id: //depot/dev/client3/rdock/2013.1/src/exe/rbdock.cxx#4 $)

>  <Rbt.Library>
libRbt.so (2013.1, Build901 2013/11/27)

>  <Rbt.Parameter_File>
/export/apps/rDock/src/rDock_2013.1_src/data/scripts/dock_solv.prm

>  <Rbt.Receptor>
prm/pocket_docking_7.prm

>  <SCORE>
-12.6871

>  <SCORE.INTER>
-10.5519

>  <SCORE.INTER.CONST>
1

>  <SCORE.INTER.POLAR>
0

>  <SCORE.INTER.ROT>
3

>  <SCORE.INTER.SOLV>
17.2716

>  <SCORE.INTER.VDW>
-18.3918

>  <SCORE.INTER.norm>
-0.479632

>  <SCORE.INTRA>
-2.13522

>  <SCORE.INTRA.DIHEDRAL>
-4.08763

>  <SCORE.INTRA.DIHEDRAL.0>
6.10773

>  <SCORE.INTRA.POLAR>
0

>  <SCORE.INTRA.POLAR.0>
0

>  <SCORE.INTRA.REPUL>
0

>  <SCORE.INTRA.REPUL.0>
0

>  <SCORE.INTRA.SOLV>
-0.704951

>  <SCORE.INTRA.SOLV.lig_0>
-71.4024

>  <SCORE.INTRA.VDW>
0.261067

>  <SCORE.INTRA.VDW.0>
-1.86213

>  <SCORE.INTRA.norm>
-0.0970557

>  <SCORE.RESTR>
0

>  <SCORE.RESTR.CAVITY>
0

>  <SCORE.RESTR.norm>
0

>  <SCORE.SYSTEM>
0

>  <SCORE.SYSTEM.CONST>
0

>  <SCORE.SYSTEM.DIHEDRAL>
0

>  <SCORE.SYSTEM.SOLV>
0

>  <SCORE.SYSTEM.norm>
0

>  <SCORE.heavy>
22

>  <SCORE.norm>
-0.576688

>  <RMSD>
2.079

$$$$
lig.pdb
 OpenBabel11021811523D
libRbt.so/2013.1/901 2013/11/27
 22 23  0  0  0  0  0  0  0  0999 V2000
   -8.2053   -1.0864   -0.5370 C   0  0  1  0  0  0  0  0  0  0  0  0
   -6.6764    0.5064    0.6947 C   0  0  1  0  0  0  0  0  0  0  0  0
   -7.6563    1.7276    0.9872 C   0  0  1  0  0  0  0  0  0  0  0  0
   -6.7662    3.0407    1.1560 C   0  0  2  0  0  0  0  0  0  0  0  0
   -9.1632   -2.2750   -0.1373 C   0  0  1  0  0  0  0  0  0  0  0  0
   -8.2871   -3.4797    0.2595 C   0  0  2  0  0  0  0  0  0  0  0  0
   -7.4143   -3.9364   -0.9229 C   0  0  2  0  0  0  0  0  0  0  0  0
   -6.4530   -2.7865   -1.3984 C   0  0  1  0  0  0  0  0  0  0  0  0
   -5.6081   -3.2254   -2.6290 C   0  0  0  0  0  0  0  0  0  0  0  0
   -5.7867    2.8563    2.4243 C   0  0  1  0  0  0  0  0  0  0  0  0
   -4.8151    1.6152    2.0938 C   0  0  0  0  0  0  0  0  0  0  0  0
   -5.6847    0.2916    1.8820 C   0  0  2  0  0  0  0  0  0  0  0  0
   -8.2645   -4.3432   -2.0475 F   0  0  0  0  0  0  0  0  0  0  0  0
  -10.0298   -1.8043    1.0119 N   0  0  0  0  0  0  0  0  0  0  0  0
   -4.7347   -4.3117   -2.3927 N   0  0  0  0  0  0  0  0  0  0  0  0
   -4.9134    4.0646    2.6143 N   0  0  0  0  0  0  0  0  0  0  0  0
   -4.7878   -0.8421    1.5776 N   0  0  0  0  0  0  0  0  0  0  0  0
   -7.4210   -0.6929    0.5453 O   0  0  0  0  0  0  0  0  0  0  0  0
   -8.5549    1.8812   -0.1812 O   0  0  0  0  0  0  0  0  0  0  0  0
   -7.6473    4.0963    1.4018 O   0  0  0  0  0  0  0  0  0  0  0  0
   -8.9873   -4.3455    0.5482 O   0  0  0  0  0  0  0  0  0  0  0  0
   -7.3399   -1.5648   -1.6999 O   0  0  0  0  0  0  0  0  0  0  0  0
  1  5  1  0  0  0  0
  1 18  1  1  0  0  0
  2 18  1  1  0  0  0
  2  3  1  0  0  0  0
  2 12  1  0  0  0  0
  3 19  1  6  0  0  0
  3  4  1  0  0  0  0
  4 20  1  1  0  0  0
  4 10  1  0  0  0  0
  5  6  1  0  0  0  0
  5 14  1  1  0  0  0
  6 21  1  6  0  0  0
  7 13  1  6  0  0  0
  7  6  1  0  0  0  0
  8  9  1  6  0  0  0
  8  7  1  0  0  0  0
 10 16  1  6  0  0  0
 11 10  1  0  0  0  0
 12 17  1  6  0  0  0
 12 11  1  0  0  0  0
 15  9  1  0  0  0  0
 22  8  1  0  0  0  0
 22  1  1  0  0  0  0
M  END
>  <CHROM.1>
-164.14785712,74.38241441,-62.65866844,-7.09833045,-0.71048786,0.19211179
1.73780654,-0.08908649,-2.69734915

>  <Name>
lig.pdb

>  <RI>
0

>  <Rbt.Current_Directory>
/home/itssahil/PROJECTS/Mol_Feturizer/New_Systems/rnas/5bws

>  <Rbt.Executable>
rbdock ($Id: //depot/dev/client3/rdock/2013.1/src/exe/rbdock.cxx#4 $)

>  <Rbt.Library>
libRbt.so (2013.1, Build901 2013/11/27)

>  <Rbt.Parameter_File>
/export/apps/rDock/src/rDock_2013.1_src/data/scripts/dock_solv.prm

>  <Rbt.Receptor>
prm/pocket_docking_5.prm

>  <SCORE>
-12.7886

>  <SCORE.INTER>
-10.7405

>  <SCORE.INTER.CONST>
1

>  <SCORE.INTER.POLAR>
0

>  <SCORE.INTER.ROT>
3

>  <SCORE.INTER.SOLV>
17.5794

>  <SCORE.INTER.VDW>
-18.6202

>  <SCORE.INTER.norm>
-0.488206

>  <SCORE.INTRA>
-2.04806

>  <SCORE.INTRA.DIHEDRAL>
-3.93605

>  <SCORE.INTRA.DIHEDRAL.0>
6.10773

>  <SCORE.INTRA.POLAR>
0

>  <SCORE.INTRA.POLAR.0>
0

>  <SCORE.INTRA.REPUL>
0

>  <SCORE.INTRA.REPUL.0>
0

>  <SCORE.INTRA.SOLV>
-0.596271

>  <SCORE.INTRA.SOLV.lig_0>
-71.4024

>  <SCORE.INTRA.VDW>
0.218102

>  <SCORE.INTRA.VDW.0>
-1.86213

>  <SCORE.INTRA.norm>
-0.0930936

>  <SCORE.RESTR>
0

>  <SCORE.RESTR.CAVITY>
0

>  <SCORE.RESTR.norm>
0

>  <SCORE.SYSTEM>
0

>  <SCORE.SYSTEM.CONST>
0

>  <SCORE.SYSTEM.DIHEDRAL>
0

>  <SCORE.SYSTEM.SOLV>
0

>  <SCORE.SYSTEM.norm>
0

>  <SCORE.heavy>
22

>  <SCORE.norm>
-0.581299

>  <RMSD>
2.081

$$$$
lig.pdb
 OpenBabel11021811523D
libRbt.so/2013.1/901 2013/11/27
 22 23  0  0  0  0  0  0  0  0999 V2000
   -8.1568   -1.1589   -0.5878 C   0  0  1  0  0  0  0  0  0  0  0  0
   -6.6433    0.4512    0.6403 C   0  0  1  0  0  0  0  0  0  0  0  0
   -7.6430    1.6658    0.8899 C   0  0  1  0  0  0  0  0  0  0  0  0
   -6.7712    2.9910    1.0604 C   0  0  2  0  0  0  0  0  0  0  0  0
   -9.1183   -2.3410   -0.1775 C   0  0  1  0  0  0  0  0  0  0  0  0
   -8.2459   -3.5448    0.2300 C   0  0  2  0  0  0  0  0  0  0  0  0
   -7.3746   -4.0147   -0.9484 C   0  0  2  0  0  0  0  0  0  0  0  0
   -6.4099   -2.8721   -1.4342 C   0  0  1  0  0  0  0  0  0  0  0  0
   -5.5664   -3.3245   -2.6608 C   0  0  0  0  0  0  0  0  0  0  0  0
   -5.8216    2.8364    2.3552 C   0  0  1  0  0  0  0  0  0  0  0  0
   -4.8290    1.6012    2.0677 C   0  0  0  0  0  0  0  0  0  0  0  0
   -5.6791    0.2651    1.8548 C   0  0  2  0  0  0  0  0  0  0  0  0
   -8.2262   -4.4289   -2.0693 F   0  0  0  0  0  0  0  0  0  0  0  0
   -9.9834   -1.8574    0.9676 N   0  0  0  0  0  0  0  0  0  0  0  0
   -4.7171   -4.4293   -2.4226 N   0  0  0  0  0  0  0  0  0  0  0  0
   -4.9661    4.0569    2.5481 N   0  0  0  0  0  0  0  0  0  0  0  0
   -4.7630   -0.8631    1.5899 N   0  0  0  0  0  0  0  0  0  0  0  0
   -7.3712   -0.7583    0.4909 O   0  0  0  0  0  0  0  0  0  0  0  0
   -8.5139    1.7920   -0.3026 O   0  0  0  0  0  0  0  0  0  0  0  0
   -7.6693    4.0405    1.2683 O   0  0  0  0  0  0  0  0  0  0  0  0
   -8.9488   -4.4059    0.5264 O   0  0  0  0  0  0  0  0  0  0  0  0
   -7.2930   -1.6504   -1.7465 O   0  0  0  0  0  0  0  0  0  0  0  0
  1  5  1  0  0  0  0
  1 18  1  1  0  0  0
  2 18  1  1  0  0  0
  2  3  1  0  0  0  0
  2 12  1  0  0  0  0
  3 19  1  6  0  0  0
  3  4  1  0  0  0  0
  4 20  1  1  0  0  0
  4 10  1  0  0  0  0
  5  6  1  0  0  0  0
  5 14  1  1  0  0  0
  6 21  1  6  0  0  0
  7 13  1  6  0  0  0
  7  6  1  0  0  0  0
  8  9  1  6  0  0  0
  8  7  1  0  0  0  0
 10 16  1  6  0  0  0
 11 10  1  0  0  0  0
 12 17  1  6  0  0  0
 12 11  1  0  0  0  0
 15  9  1  0  0  0  0
 22  8  1  0  0  0  0
 22  1  1  0  0  0  0
M  END
>  <CHROM.1>
-162.83845403,72.26866846,-61.38561408,-7.07573362,-0.77199677,0.14133828
1.72903821,-0.08236071,-2.70684200

>  <Name>
lig.pdb

>  <RI>
0

>  <Rbt.Current_Directory>
/home/itssahil/PROJECTS/Mol_Feturizer/New_Systems/rnas/5bws

>  <Rbt.Executable>
rbdock ($Id: //depot/dev/client3/rdock/2013.1/src/exe/rbdock.cxx#4 $)

>  <Rbt.Library>
libRbt.so (2013.1, Build901 2013/11/27)

>  <Rbt.Parameter_File>
/export/apps/rDock/src/rDock_2013.1_src/data/scripts/dock_solv.prm

>  <Rbt.Receptor>
prm/pocket_docking_5.prm

>  <SCORE>
-12.8492

>  <SCORE.INTER>
-10.784

>  <SCORE.INTER.CONST>
1

>  <SCORE.INTER.POLAR>
0

>  <SCORE.INTER.ROT>
3

>  <SCORE.INTER.SOLV>
17.2712

>  <SCORE.INTER.VDW>
-18.5464

>  <SCORE.INTER.norm>
-0.490182

>  <SCORE.INTRA>
-2.06524

>  <SCORE.INTRA.DIHEDRAL>
-4.02279

>  <SCORE.INTRA.DIHEDRAL.0>
6.10773

>  <SCORE.INTRA.POLAR>
0

>  <SCORE.INTRA.POLAR.0>
0

>  <SCORE.INTRA.REPUL>
0

>  <SCORE.INTRA.REPUL.0>
0

>  <SCORE.INTRA.SOLV>
-0.624424

>  <SCORE.INTRA.SOLV.lig_0>
-71.4024

>  <SCORE.INTRA.VDW>
0.258363

>  <SCORE.INTRA.VDW.0>
-1.86213

>  <SCORE.INTRA.norm>
-0.0938748

>  <SCORE.RESTR>
0

>  <SCORE.RESTR.CAVITY>
0

>  <SCORE.RESTR.norm>
0

>  <SCORE.SYSTEM>
0

>  <SCORE.SYSTEM.CONST>
0

>  <SCORE.SYSTEM.DIHEDRAL>
0

>  <SCORE.SYSTEM.SOLV>
0

>  <SCORE.SYSTEM.norm>
0

>  <SCORE.heavy>
22

>  <SCORE.norm>
-0.584057

>  <RMSD>
2.084

$$$$
lig.pdb
 OpenBabel11021811523D
libRbt.so/2013.1/901 2013/11/27
 22 23  0  0  0  0  0  0  0  0999 V2000
   -8.1442   -1.1583   -0.5922 C   0  0  1  0  0  0  0  0  0  0  0  0
   -6.6480    0.4614    0.6444 C   0  0  1  0  0  0  0  0  0  0  0  0
   -7.6527    1.6724    0.8913 C   0  0  1  0  0  0  0  0  0  0  0  0
   -6.7861    3.0007    1.0644 C   0  0  2  0  0  0  0  0  0  0  0  0
   -9.1025   -2.3451   -0.1884 C   0  0  1  0  0  0  0  0  0  0  0  0
   -8.2268   -3.5429    0.2299 C   0  0  2  0  0  0  0  0  0  0  0  0
   -7.3418   -4.0101   -0.9393 C   0  0  2  0  0  0  0  0  0  0  0  0
   -6.3794   -2.8628   -1.4186 C   0  0  1  0  0  0  0  0  0  0  0  0
   -5.5218   -3.3128   -2.6363 C   0  0  0  0  0  0  0  0  0  0  0  0
   -5.8396    2.8493    2.3618 C   0  0  1  0  0  0  0  0  0  0  0  0
   -4.8418    1.6177    2.0770 C   0  0  0  0  0  0  0  0  0  0  0  0
   -5.6865    0.2786    1.8616 C   0  0  2  0  0  0  0  0  0  0  0  0
   -8.1804   -4.4317   -2.0672 F   0  0  0  0  0  0  0  0  0  0  0  0
   -9.9811   -1.8643    0.9476 N   0  0  0  0  0  0  0  0  0  0  0  0
   -4.6722   -4.4154   -2.3893 N   0  0  0  0  0  0  0  0  0  0  0  0
   -4.9890    4.0729    2.5572 N   0  0  0  0  0  0  0  0  0  0  0  0
   -4.7657   -0.8463    1.5992 N   0  0  0  0  0  0  0  0  0  0  0  0
   -7.3711   -0.7507    0.4928 O   0  0  0  0  0  0  0  0  0  0  0  0
   -8.5207    1.7956   -0.3035 O   0  0  0  0  0  0  0  0  0  0  0  0
   -7.6885    4.0470    1.2699 O   0  0  0  0  0  0  0  0  0  0  0  0
   -8.9273   -4.4075    0.5216 O   0  0  0  0  0  0  0  0  0  0  0  0
   -7.2668   -1.6470   -1.7417 O   0  0  0  0  0  0  0  0  0  0  0  0
  1  5  1  0  0  0  0
  1 18  1  1  0  0  0
  2 18  1  1  0  0  0
  2  3  1  0  0  0  0
  2 12  1  0  0  0  0
  3 19  1  6  0  0  0
  3  4  1  0  0  0  0
  4 20  1  1  0  0  0
  4 10  1  0  0  0  0
  5  6  1  0  0  0  0
  5 14  1  1  0  0  0
  6 21  1  6  0  0  0
  7 13  1  6  0  0  0
  7  6  1  0  0  0  0
  8  9  1  6  0  0  0
  8  7  1  0  0  0  0
 10 16  1  6  0  0  0
 11 10  1  0  0  0  0
 12 17  1  6  0  0  0
 12 11  1  0  0  0  0
 15  9  1  0  0  0  0
 22  8  1  0  0  0  0
 22  1  1  0  0  0  0
M  END
>  <CHROM.1>
-163.08465283,72.79080463,-61.14397442,-7.06712517,-0.76542246,0.14588539
1.72199934,-0.07766913,-2.70925185

>  <Name>
lig.pdb

>  <RI>
0

>  <Rbt.Current_Directory>
/home/itssahil/PROJECTS/Mol_Feturizer/New_Systems/rnas/5bws

>  <Rbt.Executable>
rbdock ($Id: //depot/dev/client3/rdock/2013.1/src/exe/rbdock.cxx#4 $)

>  <Rbt.Library>
libRbt.so (2013.1, Build901 2013/11/27)

>  <Rbt.Parameter_File>
/export/apps/rDock/src/rDock_2013.1_src/data/scripts/dock_solv.prm

>  <Rbt.Receptor>
prm/pocket_docking_4.prm

>  <SCORE>
-12.8442

>  <SCORE.INTER>
-10.7916

>  <SCORE.INTER.CONST>
1

>  <SCORE.INTER.POLAR>
0

>  <SCORE.INTER.ROT>
3

>  <SCORE.INTER.SOLV>
17.2823

>  <SCORE.INTER.VDW>
-18.5551

>  <SCORE.INTER.norm>
-0.490526

>  <SCORE.INTRA>
-2.05266

>  <SCORE.INTRA.DIHEDRAL>
-4.00114

>  <SCORE.INTRA.DIHEDRAL.0>
6.10773

>  <SCORE.INTRA.POLAR>
0

>  <SCORE.INTRA.POLAR.0>
0

>  <SCORE.INTRA.REPUL>
0

>  <SCORE.INTRA.REPUL.0>
0

>  <SCORE.INTRA.SOLV>
-0.603816

>  <SCORE.INTRA.SOLV.lig_0>
-71.4024

>  <SCORE.INTRA.VDW>
0.249821

>  <SCORE.INTRA.VDW.0>
-1.86213

>  <SCORE.INTRA.norm>
-0.0933026

>  <SCORE.RESTR>
0

>  <SCORE.RESTR.CAVITY>
0

>  <SCORE.RESTR.norm>
0

>  <SCORE.SYSTEM>
0

>  <SCORE.SYSTEM.CONST>
0

>  <SCORE.SYSTEM.DIHEDRAL>
0

>  <SCORE.SYSTEM.SOLV>
0

>  <SCORE.SYSTEM.norm>
0

>  <SCORE.heavy>
22

>  <SCORE.norm>
-0.583828

>  <RMSD>
2.090

$$$$
lig.pdb
 OpenBabel11021811523D
libRbt.so/2013.1/901 2013/11/27
 22 23  0  0  0  0  0  0  0  0999 V2000
   -8.1364   -1.1650   -0.5773 C   0  0  1  0  0  0  0  0  0  0  0  0
   -6.6402    0.4573    0.6558 C   0  0  1  0  0  0  0  0  0  0  0  0
   -7.6499    1.6656    0.8959 C   0  0  1  0  0  0  0  0  0  0  0  0
   -6.7885    2.9972    1.0690 C   0  0  2  0  0  0  0  0  0  0  0  0
   -9.0868   -2.3577   -0.1717 C   0  0  1  0  0  0  0  0  0  0  0  0
   -8.2031   -3.5527    0.2371 C   0  0  2  0  0  0  0  0  0  0  0  0
   -7.3230   -4.0119   -0.9389 C   0  0  2  0  0  0  0  0  0  0  0  0
   -6.3687   -2.8586   -1.4200 C   0  0  1  0  0  0  0  0  0  0  0  0
   -5.5165   -3.3005   -2.6444 C   0  0  0  0  0  0  0  0  0  0  0  0
   -5.8464    2.8522    2.3704 C   0  0  1  0  0  0  0  0  0  0  0  0
   -4.8434    1.6232    2.0924 C   0  0  0  0  0  0  0  0  0  0  0  0
   -5.6827    0.2808    1.8771 C   0  0  2  0  0  0  0  0  0  0  0  0
   -8.1664   -4.4336   -2.0631 F   0  0  0  0  0  0  0  0  0  0  0  0
   -9.9607   -1.8847    0.9711 N   0  0  0  0  0  0  0  0  0  0  0  0
   -4.6625   -4.4019   -2.4071 N   0  0  0  0  0  0  0  0  0  0  0  0
   -5.0007    4.0791    2.5660 N   0  0  0  0  0  0  0  0  0  0  0  0
   -4.7572   -0.8417    1.6210 N   0  0  0  0  0  0  0  0  0  0  0  0
   -7.3587   -0.7575    0.5045 O   0  0  0  0  0  0  0  0  0  0  0  0
   -8.5137    1.7830   -0.3026 O   0  0  0  0  0  0  0  0  0  0  0  0
   -7.6951    4.0409    1.2684 O   0  0  0  0  0  0  0  0  0  0  0  0
   -8.8978   -4.4216    0.5302 O   0  0  0  0  0  0  0  0  0  0  0  0
   -7.2637   -1.6458   -1.7337 O   0  0  0  0  0  0  0  0  0  0  0  0
  1  5  1  0  0  0  0
  1 18  1  1  0  0  0
  2 18  1  1  0  0  0
  2  3  1  0  0  0  0
  2 12  1  0  0  0  0
  3 19  1  6  0  0  0
  3  4  1  0  0  0  0
  4 20  1  1  0  0  0
  4 10  1  0  0  0  0
  5  6  1  0  0  0  0
  5 14  1  1  0  0  0
  6 21  1  6  0  0  0
  7 13  1  6  0  0  0
  7  6  1  0  0  0  0
  8  9  1  6  0  0  0
  8  7  1  0  0  0  0
 10 16  1  6  0  0  0
 11 10  1  0  0  0  0
 12 17  1  6  0  0  0
 12 11  1  0  0  0  0
 15  9  1  0  0  0  0
 22  8  1  0  0  0  0
 22  1  1  0  0  0  0
M  END
>  <CHROM.1>
-163.08670556,72.13238683,-61.00655595,-7.05917978,-0.76802439,0.15291489
1.71970932,-0.08329666,-2.70773804

>  <Name>
lig.pdb

>  <RI>
0

>  <Rbt.Current_Directory>
/home/itssahil/PROJECTS/Mol_Feturizer/New_Systems/rnas/5bws

>  <Rbt.Executable>
rbdock ($Id: //depot/dev/client3/rdock/2013.1/src/exe/rbdock.cxx#4 $)

>  <Rbt.Library>
libRbt.so (2013.1, Build901 2013/11/27)

>  <Rbt.Parameter_File>
/export/apps/rDock/src/rDock_2013.1_src/data/scripts/dock_solv.prm

>  <Rbt.Receptor>
prm/pocket_docking_8.prm

>  <SCORE>
-12.8374

>  <SCORE.INTER>
-10.7455

>  <SCORE.INTER.CONST>
1

>  <SCORE.INTER.POLAR>
0

>  <SCORE.INTER.ROT>
3

>  <SCORE.INTER.SOLV>
17.3401

>  <SCORE.INTER.VDW>
-18.5437

>  <SCORE.INTER.norm>
-0.48843

>  <SCORE.INTRA>
-2.09197

>  <SCORE.INTRA.DIHEDRAL>
-4.07783

>  <SCORE.INTRA.DIHEDRAL.0>
6.10773

>  <SCORE.INTRA.POLAR>
0

>  <SCORE.INTRA.POLAR.0>
0

>  <SCORE.INTRA.REPUL>
0

>  <SCORE.INTRA.REPUL.0>
0

>  <SCORE.INTRA.SOLV>
-0.629675

>  <SCORE.INTRA.SOLV.lig_0>
-71.4024

>  <SCORE.INTRA.VDW>
0.261787

>  <SCORE.INTRA.VDW.0>
-1.86213

>  <SCORE.INTRA.norm>
-0.0950894

>  <SCORE.RESTR>
0

>  <SCORE.RESTR.CAVITY>
0

>  <SCORE.RESTR.norm>
0

>  <SCORE.SYSTEM>
0

>  <SCORE.SYSTEM.CONST>
0

>  <SCORE.SYSTEM.DIHEDRAL>
0

>  <SCORE.SYSTEM.SOLV>
0

>  <SCORE.SYSTEM.norm>
0

>  <SCORE.heavy>
22

>  <SCORE.norm>
-0.583519

>  <RMSD>
2.091

$$$$
lig.pdb
 OpenBabel11021811523D
libRbt.so/2013.1/901 2013/11/27
 22 23  0  0  0  0  0  0  0  0999 V2000
   -8.1670   -1.1437   -0.6006 C   0  0  1  0  0  0  0  0  0  0  0  0
   -6.6603    0.4665    0.6358 C   0  0  1  0  0  0  0  0  0  0  0  0
   -7.6613    1.6759    0.9047 C   0  0  1  0  0  0  0  0  0  0  0  0
   -6.7919    3.0021    1.0798 C   0  0  2  0  0  0  0  0  0  0  0  0
   -9.1306   -2.3257   -0.1951 C   0  0  1  0  0  0  0  0  0  0  0  0
   -8.2603   -3.5299    0.2156 C   0  0  2  0  0  0  0  0  0  0  0  0
   -7.3839   -3.9995   -0.9592 C   0  0  2  0  0  0  0  0  0  0  0  0
   -6.4168   -2.8569   -1.4402 C   0  0  1  0  0  0  0  0  0  0  0  0
   -5.5681   -3.3089   -2.6634 C   0  0  0  0  0  0  0  0  0  0  0  0
   -5.8309    2.8386    2.3651 C   0  0  1  0  0  0  0  0  0  0  0  0
   -4.8373    1.6088    2.0582 C   0  0  0  0  0  0  0  0  0  0  0  0
   -5.6853    0.2723    1.8404 C   0  0  2  0  0  0  0  0  0  0  0  0
   -8.2307   -4.4129   -2.0840 F   0  0  0  0  0  0  0  0  0  0  0  0
  -10.0005   -1.8424    0.9464 N   0  0  0  0  0  0  0  0  0  0  0  0
   -4.6839   -4.3821   -2.4086 N   0  0  0  0  0  0  0  0  0  0  0  0
   -4.9773    4.0598    2.5618 N   0  0  0  0  0  0  0  0  0  0  0  0
   -4.7683   -0.8508    1.5577 N   0  0  0  0  0  0  0  0  0  0  0  0
   -7.3860   -0.7438    0.4817 O   0  0  0  0  0  0  0  0  0  0  0  0
   -8.5426    1.8102   -0.2791 O   0  0  0  0  0  0  0  0  0  0  0  0
   -7.6911    4.0470    1.3047 O   0  0  0  0  0  0  0  0  0  0  0  0
   -8.9646   -4.3910    0.5085 O   0  0  0  0  0  0  0  0  0  0  0  0
   -7.2983   -1.6347   -1.7557 O   0  0  0  0  0  0  0  0  0  0  0  0
  1  5  1  0  0  0  0
  1 18  1  1  0  0  0
  2 18  1  1  0  0  0
  2  3  1  0  0  0  0
  2 12  1  0  0  0  0
  3 19  1  6  0  0  0
  3  4  1  0  0  0  0
  4 20  1  1  0  0  0
  4 10  1  0  0  0  0
  5  6  1  0  0  0  0
  5 14  1  1  0  0  0
  6 21  1  6  0  0  0
  7 13  1  6  0  0  0
  7  6  1  0  0  0  0
  8  9  1  6  0  0  0
  8  7  1  0  0  0  0
 10 16  1  6  0  0  0
 11 10  1  0  0  0  0
 12 17  1  6  0  0  0
 12 11  1  0  0  0  0
 15  9  1  0  0  0  0
 22  8  1  0  0  0  0
 22  1  1  0  0  0  0
M  END
>  <CHROM.1>
-162.72036398,73.09003209,-63.62193843,-7.08605977,-0.75790514,0.13846012
1.72738695,-0.08108015,-2.70392695

>  <Name>
lig.pdb

>  <RI>
0

>  <Rbt.Current_Directory>
/home/itssahil/PROJECTS/Mol_Feturizer/New_Systems/rnas/5bws

>  <Rbt.Executable>
rbdock ($Id: //depot/dev/client3/rdock/2013.1/src/exe/rbdock.cxx#4 $)

>  <Rbt.Library>
libRbt.so (2013.1, Build901 2013/11/27)

>  <Rbt.Parameter_File>
/export/apps/rDock/src/rDock_2013.1_src/data/scripts/dock_solv.prm

>  <Rbt.Receptor>
prm/pocket_docking_8.prm

>  <SCORE>
-12.8128

>  <SCORE.INTER>
-10.7991

>  <SCORE.INTER.CONST>
1

>  <SCORE.INTER.POLAR>
0

>  <SCORE.INTER.ROT>
3

>  <SCORE.INTER.SOLV>
17.3474

>  <SCORE.INTER.VDW>
-18.5819

>  <SCORE.INTER.norm>
-0.490868

>  <SCORE.INTRA>
-2.01365

>  <SCORE.INTRA.DIHEDRAL>
-3.86941

>  <SCORE.INTRA.DIHEDRAL.0>
6.10773

>  <SCORE.INTRA.POLAR>
0

>  <SCORE.INTRA.POLAR.0>
0

>  <SCORE.INTRA.REPUL>
0

>  <SCORE.INTRA.REPUL.0>
0

>  <SCORE.INTRA.SOLV>
-0.634384

>  <SCORE.INTRA.SOLV.lig_0>
-71.4024

>  <SCORE.INTRA.VDW>
0.238246

>  <SCORE.INTRA.VDW.0>
-1.86213

>  <SCORE.INTRA.norm>
-0.0915297

>  <SCORE.RESTR>
0

>  <SCORE.RESTR.CAVITY>
0

>  <SCORE.RESTR.norm>
0

>  <SCORE.SYSTEM>
0

>  <SCORE.SYSTEM.CONST>
0

>  <SCORE.SYSTEM.DIHEDRAL>
0

>  <SCORE.SYSTEM.SOLV>
0

>  <SCORE.SYSTEM.norm>
0

>  <SCORE.heavy>
22

>  <SCORE.norm>
-0.582398

>  <RMSD>
2.092

$$$$
lig.pdb
 OpenBabel11021811523D
libRbt.so/2013.1/901 2013/11/27
 22 23  0  0  0  0  0  0  0  0999 V2000
   -8.1411   -1.1593   -0.5880 C   0  0  1  0  0  0  0  0  0  0  0  0
   -6.6459    0.4631    0.6463 C   0  0  1  0  0  0  0  0  0  0  0  0
   -7.6538    1.6724    0.8883 C   0  0  1  0  0  0  0  0  0  0  0  0
   -6.7905    3.0029    1.0609 C   0  0  2  0  0  0  0  0  0  0  0  0
   -9.0984   -2.3461   -0.1816 C   0  0  1  0  0  0  0  0  0  0  0  0
   -8.2217   -3.5434    0.2358 C   0  0  2  0  0  0  0  0  0  0  0  0
   -7.3388   -4.0112   -0.9347 C   0  0  2  0  0  0  0  0  0  0  0  0
   -6.3775   -2.8640   -1.4166 C   0  0  1  0  0  0  0  0  0  0  0  0
   -5.5221   -3.3146   -2.6356 C   0  0  0  0  0  0  0  0  0  0  0  0
   -5.8469    2.8561    2.3610 C   0  0  1  0  0  0  0  0  0  0  0  0
   -4.8458    1.6260    2.0811 C   0  0  0  0  0  0  0  0  0  0  0  0
   -5.6871    0.2848    1.8662 C   0  0  2  0  0  0  0  0  0  0  0  0
   -8.1794   -4.4337   -2.0608 F   0  0  0  0  0  0  0  0  0  0  0  0
   -9.9750   -1.8647    0.9557 N   0  0  0  0  0  0  0  0  0  0  0  0
   -4.6770   -4.4212   -2.3915 N   0  0  0  0  0  0  0  0  0  0  0  0
   -4.9994    4.0819    2.5561 N   0  0  0  0  0  0  0  0  0  0  0  0
   -4.7632   -0.8387    1.6084 N   0  0  0  0  0  0  0  0  0  0  0  0
   -7.3661   -0.7508    0.4953 O   0  0  0  0  0  0  0  0  0  0  0  0
   -8.5191    1.7915   -0.3090 O   0  0  0  0  0  0  0  0  0  0  0  0
   -7.6956    4.0477    1.2620 O   0  0  0  0  0  0  0  0  0  0  0  0
   -8.9215   -4.4080    0.5294 O   0  0  0  0  0  0  0  0  0  0  0  0
   -7.2658   -1.6486   -1.7388 O   0  0  0  0  0  0  0  0  0  0  0  0
  1  5  1  0  0  0  0
  1 18  1  1  0  0  0
  2 18  1  1  0  0  0
  2  3  1  0  0  0  0
  2 12  1  0  0  0  0
  3 19  1  6  0  0  0
  3  4  1  0  0  0  0
  4 20  1  1  0  0  0
  4 10  1  0  0  0  0
  5  6  1  0  0  0  0
  5 14  1  1  0  0  0
  6 21  1  6  0  0  0
  7 13  1  6  0  0  0
  7  6  1  0  0  0  0
  8  9  1  6  0  0  0
  8  7  1  0  0  0  0
 10 16  1  6  0  0  0
 11 10  1  0  0  0  0
 12 17  1  6  0  0  0
 12 11  1  0  0  0  0
 15  9  1  0  0  0  0
 22  8  1  0  0  0  0
 22  1  1  0  0  0  0
M  END
>  <CHROM.1>
-162.89266824,72.43019463,-60.82948302,-7.06698007,-0.76455773,0.14805187
1.72087026,-0.07848818,-2.71008286

>  <Name>
lig.pdb

>  <RI>
0

>  <Rbt.Current_Directory>
/home/itssahil/PROJECTS/Mol_Feturizer/New_Systems/rnas/5bws

>  <Rbt.Executable>
rbdock ($Id: //depot/dev/client3/rdock/2013.1/src/exe/rbdock.cxx#4 $)

>  <Rbt.Library>
libRbt.so (2013.1, Build901 2013/11/27)

>  <Rbt.Parameter_File>
/export/apps/rDock/src/rDock_2013.1_src/data/scripts/dock_solv.prm

>  <Rbt.Receptor>
prm/pocket_docking_6.prm

>  <SCORE>
-12.8501

>  <SCORE.INTER>
-10.7951

>  <SCORE.INTER.CONST>
1

>  <SCORE.INTER.POLAR>
0

>  <SCORE.INTER.ROT>
3

>  <SCORE.INTER.SOLV>
17.2453

>  <SCORE.INTER.VDW>
-18.5452

>  <SCORE.INTER.norm>
-0.490687

>  <SCORE.INTRA>
-2.05503

>  <SCORE.INTRA.DIHEDRAL>
-4.01695

>  <SCORE.INTRA.DIHEDRAL.0>
6.10773

>  <SCORE.INTRA.POLAR>
0

>  <SCORE.INTRA.POLAR.0>
0

>  <SCORE.INTRA.REPUL>
0

>  <SCORE.INTRA.REPUL.0>
0

>  <SCORE.INTRA.SOLV>
-0.607357

>  <SCORE.INTRA.SOLV.lig_0>
-71.4024

>  <SCORE.INTRA.VDW>
0.257118

>  <SCORE.INTRA.VDW.0>
-1.86213

>  <SCORE.INTRA.norm>
-0.0934107

>  <SCORE.RESTR>
0

>  <SCORE.RESTR.CAVITY>
0

>  <SCORE.RESTR.norm>
0

>  <SCORE.SYSTEM>
0

>  <SCORE.SYSTEM.CONST>
0

>  <SCORE.SYSTEM.DIHEDRAL>
0

>  <SCORE.SYSTEM.SOLV>
0

>  <SCORE.SYSTEM.norm>
0

>  <SCORE.heavy>
22

>  <SCORE.norm>
-0.584098

>  <RMSD>
2.093

$$$$
lig.pdb
 OpenBabel11021811523D
libRbt.so/2013.1/901 2013/11/27
 22 23  0  0  0  0  0  0  0  0999 V2000
   -8.1669   -1.1449   -0.5819 C   0  0  1  0  0  0  0  0  0  0  0  0
   -6.6564    0.4676    0.6468 C   0  0  1  0  0  0  0  0  0  0  0  0
   -7.6545    1.6843    0.8922 C   0  0  1  0  0  0  0  0  0  0  0  0
   -6.7810    3.0085    1.0611 C   0  0  2  0  0  0  0  0  0  0  0  0
   -9.1169   -2.3382   -0.1773 C   0  0  1  0  0  0  0  0  0  0  0  0
   -8.2329   -3.5350    0.2256 C   0  0  2  0  0  0  0  0  0  0  0  0
   -7.3563   -3.9913   -0.9541 C   0  0  2  0  0  0  0  0  0  0  0  0
   -6.4026   -2.8371   -1.4344 C   0  0  1  0  0  0  0  0  0  0  0  0
   -5.5539   -3.2759   -2.6624 C   0  0  0  0  0  0  0  0  0  0  0  0
   -5.8335    2.8552    2.3576 C   0  0  1  0  0  0  0  0  0  0  0  0
   -4.8424    1.6178    2.0744 C   0  0  0  0  0  0  0  0  0  0  0  0
   -5.6943    0.2827    1.8631 C   0  0  2  0  0  0  0  0  0  0  0  0
   -8.2030   -4.4091   -2.0774 F   0  0  0  0  0  0  0  0  0  0  0  0
   -9.9875   -1.8681    0.9692 N   0  0  0  0  0  0  0  0  0  0  0  0
   -4.6950   -4.3742   -2.4288 N   0  0  0  0  0  0  0  0  0  0  0  0
   -4.9764    4.0749    2.5491 N   0  0  0  0  0  0  0  0  0  0  0  0
   -4.7796   -0.8476    1.6022 N   0  0  0  0  0  0  0  0  0  0  0  0
   -7.3860   -0.7411    0.4990 O   0  0  0  0  0  0  0  0  0  0  0  0
   -8.5235    1.8092   -0.3019 O   0  0  0  0  0  0  0  0  0  0  0  0
   -7.6776    4.0599    1.2653 O   0  0  0  0  0  0  0  0  0  0  0  0
   -8.9274   -4.4043    0.5179 O   0  0  0  0  0  0  0  0  0  0  0  0
   -7.2976   -1.6228   -1.7421 O   0  0  0  0  0  0  0  0  0  0  0  0
  1  5  1  0  0  0  0
  1 18  1  1  0  0  0
  2 18  1  1  0  0  0
  2  3  1  0  0  0  0
  2 12  1  0  0  0  0
  3 19  1  6  0  0  0
  3  4  1  0  0  0  0
  4 20  1  1  0  0  0
  4 10  1  0  0  0  0
  5  6  1  0  0  0  0
  5 14  1  1  0  0  0
  6 21  1  6  0  0  0
  7 13  1  6  0  0  0
  7  6  1  0  0  0  0
  8  9  1  6  0  0  0
  8  7  1  0  0  0  0
 10 16  1  6  0  0  0
 11 10  1  0  0  0  0
 12 17  1  6  0  0  0
 12 11  1  0  0  0  0
 15  9  1  0  0  0  0
 22  8  1  0  0  0  0
 22  1  1  0  0  0  0
M  END
>  <CHROM.1>
-163.71798748,72.50877181,-61.31743518,-7.07688878,-0.75293246,0.14221615
1.72638028,-0.08639066,-2.70595214

>  <Name>
lig.pdb

>  <RI>
0

>  <Rbt.Current_Directory>
/home/itssahil/PROJECTS/Mol_Feturizer/New_Systems/rnas/5bws

>  <Rbt.Executable>
rbdock ($Id: //depot/dev/client3/rdock/2013.1/src/exe/rbdock.cxx#4 $)

>  <Rbt.Library>
libRbt.so (2013.1, Build901 2013/11/27)

>  <Rbt.Parameter_File>
/export/apps/rDock/src/rDock_2013.1_src/data/scripts/dock_solv.prm

>  <Rbt.Receptor>
prm/pocket_docking_4.prm

>  <SCORE>
-12.82

>  <SCORE.INTER>
-10.6936

>  <SCORE.INTER.CONST>
1

>  <SCORE.INTER.POLAR>
0

>  <SCORE.INTER.ROT>
3

>  <SCORE.INTER.SOLV>
17.4124

>  <SCORE.INTER.VDW>
-18.5332

>  <SCORE.INTER.norm>
-0.486072

>  <SCORE.INTRA>
-2.12639

>  <SCORE.INTRA.DIHEDRAL>
-4.12342

>  <SCORE.INTRA.DIHEDRAL.0>
6.10773

>  <SCORE.INTRA.POLAR>
0

>  <SCORE.INTRA.POLAR.0>
0

>  <SCORE.INTRA.REPUL>
0

>  <SCORE.INTRA.REPUL.0>
0

>  <SCORE.INTRA.SOLV>
-0.637335

>  <SCORE.INTRA.SOLV.lig_0>
-71.4024

>  <SCORE.INTRA.VDW>
0.253983

>  <SCORE.INTRA.VDW.0>
-1.86213

>  <SCORE.INTRA.norm>
-0.0966542

>  <SCORE.RESTR>
0

>  <SCORE.RESTR.CAVITY>
0

>  <SCORE.RESTR.norm>
0

>  <SCORE.SYSTEM>
0

>  <SCORE.SYSTEM.CONST>
0

>  <SCORE.SYSTEM.DIHEDRAL>
0

>  <SCORE.SYSTEM.SOLV>
0

>  <SCORE.SYSTEM.norm>
0

>  <SCORE.heavy>
22

>  <SCORE.norm>
-0.582727

>  <RMSD>
2.094

$$$$
lig.pdb
 OpenBabel11021811523D
libRbt.so/2013.1/901 2013/11/27
 22 23  0  0  0  0  0  0  0  0999 V2000
   -8.1369   -1.1578   -0.5991 C   0  0  1  0  0  0  0  0  0  0  0  0
   -6.6484    0.4619    0.6467 C   0  0  1  0  0  0  0  0  0  0  0  0
   -7.6611    1.6662    0.8943 C   0  0  1  0  0  0  0  0  0  0  0  0
   -6.8028    2.9987    1.0763 C   0  0  2  0  0  0  0  0  0  0  0  0
   -9.1000   -2.3416   -0.1976 C   0  0  1  0  0  0  0  0  0  0  0  0
   -8.2292   -3.5426    0.2213 C   0  0  2  0  0  0  0  0  0  0  0  0
   -7.3440   -4.0122   -0.9468 C   0  0  2  0  0  0  0  0  0  0  0  0
   -6.3768   -2.8680   -1.4239 C   0  0  1  0  0  0  0  0  0  0  0  0
   -5.5189   -3.3203   -2.6406 C   0  0  0  0  0  0  0  0  0  0  0  0
   -5.8608    2.8475    2.3771 C   0  0  1  0  0  0  0  0  0  0  0  0
   -4.8548    1.6227    2.0915 C   0  0  0  0  0  0  0  0  0  0  0  0
   -5.6910    0.2798    1.8672 C   0  0  2  0  0  0  0  0  0  0  0  0
   -8.1823   -4.4302   -2.0763 F   0  0  0  0  0  0  0  0  0  0  0  0
   -9.9786   -1.8583    0.9373 N   0  0  0  0  0  0  0  0  0  0  0  0
   -4.6631   -4.4170   -2.3889 N   0  0  0  0  0  0  0  0  0  0  0  0
   -5.0180    4.0750    2.5809 N   0  0  0  0  0  0  0  0  0  0  0  0
   -4.7627   -0.8389    1.6042 N   0  0  0  0  0  0  0  0  0  0  0  0
   -7.3640   -0.7536    0.4873 O   0  0  0  0  0  0  0  0  0  0  0  0
   -8.5248    1.7893   -0.3037 O   0  0  0  0  0  0  0  0  0  0  0  0
   -7.7119    4.0390    1.2822 O   0  0  0  0  0  0  0  0  0  0  0  0
   -8.9331   -4.4050    0.5114 O   0  0  0  0  0  0  0  0  0  0  0  0
   -7.2594   -1.6489   -1.7476 O   0  0  0  0  0  0  0  0  0  0  0  0
  1  5  1  0  0  0  0
  1 18  1  1  0  0  0
  2 18  1  1  0  0  0
  2  3  1  0  0  0  0
  2 12  1  0  0  0  0
  3 19  1  6  0  0  0
  3  4  1  0  0  0  0
  4 20  1  1  0  0  0
  4 10  1  0  0  0  0
  5  6  1  0  0  0  0
  5 14  1  1  0  0  0
  6 21  1  6  0  0  0
  7 13  1  6  0  0  0
  7  6  1  0  0  0  0
  8  9  1  6  0  0  0
  8  7  1  0  0  0  0
 10 16  1  6  0  0  0
 11 10  1  0  0  0  0
 12 17  1  6  0  0  0
 12 11  1  0  0  0  0
 15  9  1  0  0  0  0
 22  8  1  0  0  0  0
 22  1  1  0  0  0  0
M  END
>  <CHROM.1>
-162.34791742,72.36483401,-61.78624943,-7.07110324,-0.76613526,0.14616916
1.71879079,-0.07399849,-2.70684235

>  <Name>
lig.pdb

>  <RI>
0

>  <Rbt.Current_Directory>
/home/itssahil/PROJECTS/Mol_Feturizer/New_Systems/rnas/5bws

>  <Rbt.Executable>
rbdock ($Id: //depot/dev/client3/rdock/2013.1/src/exe/rbdock.cxx#4 $)

>  <Rbt.Library>
libRbt.so (2013.1, Build901 2013/11/27)

>  <Rbt.Parameter_File>
/export/apps/rDock/src/rDock_2013.1_src/data/scripts/dock_solv.prm

>  <Rbt.Receptor>
prm/pocket_docking_4.prm

>  <SCORE>
-12.8353

>  <SCORE.INTER>
-10.8185

>  <SCORE.INTER.CONST>
1

>  <SCORE.INTER.POLAR>
0

>  <SCORE.INTER.ROT>
3

>  <SCORE.INTER.SOLV>
17.3139

>  <SCORE.INTER.VDW>
-18.5836

>  <SCORE.INTER.norm>
-0.491749

>  <SCORE.INTRA>
-2.01683

>  <SCORE.INTRA.DIHEDRAL>
-3.9342

>  <SCORE.INTRA.DIHEDRAL.0>
6.10773

>  <SCORE.INTRA.POLAR>
0

>  <SCORE.INTRA.POLAR.0>
0

>  <SCORE.INTRA.REPUL>
0

>  <SCORE.INTRA.REPUL.0>
0

>  <SCORE.INTRA.SOLV>
-0.610797

>  <SCORE.INTRA.SOLV.lig_0>
-71.4024

>  <SCORE.INTRA.VDW>
0.255674

>  <SCORE.INTRA.VDW.0>
-1.86213

>  <SCORE.INTRA.norm>
-0.0916739

>  <SCORE.RESTR>
0

>  <SCORE.RESTR.CAVITY>
0

>  <SCORE.RESTR.norm>
0

>  <SCORE.SYSTEM>
0

>  <SCORE.SYSTEM.CONST>
0

>  <SCORE.SYSTEM.DIHEDRAL>
0

>  <SCORE.SYSTEM.SOLV>
0

>  <SCORE.SYSTEM.norm>
0

>  <SCORE.heavy>
22

>  <SCORE.norm>
-0.583423

>  <RMSD>
2.096

$$$$
lig.pdb
 OpenBabel11021811523D
libRbt.so/2013.1/901 2013/11/27
 22 23  0  0  0  0  0  0  0  0999 V2000
   -8.2160   -1.0974   -0.5432 C   0  0  1  0  0  0  0  0  0  0  0  0
   -6.6964    0.5042    0.6884 C   0  0  1  0  0  0  0  0  0  0  0  0
   -7.6812    1.7203    0.9854 C   0  0  1  0  0  0  0  0  0  0  0  0
   -6.7969    3.0376    1.1529 C   0  0  2  0  0  0  0  0  0  0  0  0
   -9.1711   -2.2880   -0.1427 C   0  0  1  0  0  0  0  0  0  0  0  0
   -8.2922   -3.4887    0.2597 C   0  0  2  0  0  0  0  0  0  0  0  0
   -7.4149   -3.9460   -0.9192 C   0  0  2  0  0  0  0  0  0  0  0  0
   -6.4562   -2.7944   -1.3956 C   0  0  1  0  0  0  0  0  0  0  0  0
   -5.6067   -3.2340   -2.6228 C   0  0  0  0  0  0  0  0  0  0  0  0
   -5.8125    2.8563    2.4180 C   0  0  1  0  0  0  0  0  0  0  0  0
   -4.8360    1.6203    2.0829 C   0  0  0  0  0  0  0  0  0  0  0  0
   -5.6999    0.2928    1.8723 C   0  0  2  0  0  0  0  0  0  0  0  0
   -8.2610   -4.3587   -2.0448 F   0  0  0  0  0  0  0  0  0  0  0  0
  -10.0421   -1.8168    1.0031 N   0  0  0  0  0  0  0  0  0  0  0  0
   -4.7339   -4.3198   -2.3826 N   0  0  0  0  0  0  0  0  0  0  0  0
   -4.9444    4.0686    2.6066 N   0  0  0  0  0  0  0  0  0  0  0  0
   -4.7986   -0.8362    1.5637 N   0  0  0  0  0  0  0  0  0  0  0  0
   -7.4357   -0.6984    0.5398 O   0  0  0  0  0  0  0  0  0  0  0  0
   -8.5842    1.8710   -0.1800 O   0  0  0  0  0  0  0  0  0  0  0  0
   -7.6822    4.0886    1.4028 O   0  0  0  0  0  0  0  0  0  0  0  0
   -8.9904   -4.3560    0.5491 O   0  0  0  0  0  0  0  0  0  0  0  0
   -7.3462   -1.5763   -1.7027 O   0  0  0  0  0  0  0  0  0  0  0  0
  1  5  1  0  0  0  0
  1 18  1  1  0  0  0
  2 18  1  1  0  0  0
  2  3  1  0  0  0  0
  2 12  1  0  0  0  0
  3 19  1  6  0  0  0
  3  4  1  0  0  0  0
  4 20  1  1  0  0  0
  4 10  1  0  0  0  0
  5  6  1  0  0  0  0
  5 14  1  1  0  0  0
  6 21  1  6  0  0  0
  7 13  1  6  0  0  0
  7  6  1  0  0  0  0
  8  9  1  6  0  0  0
  8  7  1  0  0  0  0
 10 16  1  6  0  0  0
 11 10  1  0  0  0  0
 12 17  1  6  0  0  0
 12 11  1  0  0  0  0
 15  9  1  0  0  0  0
 22  8  1  0  0  0  0
 22  1  1  0  0  0  0
M  END
>  <CHROM.1>
-164.07745264,74.74178754,-62.44533433,-7.11187120,-0.71694927,0.18955605
1.73369449,-0.08921920,-2.69923987

>  <Name>
lig.pdb

>  <RI>
0

>  <Rbt.Current_Directory>
/home/itssahil/PROJECTS/Mol_Feturizer/New_Systems/rnas/5bws

>  <Rbt.Executable>
rbdock ($Id: //depot/dev/client3/rdock/2013.1/src/exe/rbdock.cxx#4 $)

>  <Rbt.Library>
libRbt.so (2013.1, Build901 2013/11/27)

>  <Rbt.Parameter_File>
/export/apps/rDock/src/rDock_2013.1_src/data/scripts/dock_solv.prm

>  <Rbt.Receptor>
prm/pocket_docking_7.prm

>  <SCORE>
-12.7856

>  <SCORE.INTER>
-10.7696

>  <SCORE.INTER.CONST>
1

>  <SCORE.INTER.POLAR>
0

>  <SCORE.INTER.ROT>
3

>  <SCORE.INTER.SOLV>
17.5394

>  <SCORE.INTER.VDW>
-18.6262

>  <SCORE.INTER.norm>
-0.489527

>  <SCORE.INTRA>
-2.01597

>  <SCORE.INTRA.DIHEDRAL>
-3.88343

>  <SCORE.INTRA.DIHEDRAL.0>
6.10773

>  <SCORE.INTRA.POLAR>
0

>  <SCORE.INTRA.POLAR.0>
0

>  <SCORE.INTRA.REPUL>
0

>  <SCORE.INTRA.REPUL.0>
0

>  <SCORE.INTRA.SOLV>
-0.573991

>  <SCORE.INTRA.SOLV.lig_0>
-71.4024

>  <SCORE.INTRA.VDW>
0.21274

>  <SCORE.INTRA.VDW.0>
-1.86213

>  <SCORE.INTRA.norm>
-0.0916349

>  <SCORE.RESTR>
0

>  <SCORE.RESTR.CAVITY>
0

>  <SCORE.RESTR.norm>
0

>  <SCORE.SYSTEM>
0

>  <SCORE.SYSTEM.CONST>
0

>  <SCORE.SYSTEM.DIHEDRAL>
0

>  <SCORE.SYSTEM.SOLV>
0

>  <SCORE.SYSTEM.norm>
0

>  <SCORE.heavy>
22

>  <SCORE.norm>
-0.581162

>  <RMSD>
2.098

$$$$
lig.pdb
 OpenBabel11021811523D
libRbt.so/2013.1/901 2013/11/27
 22 23  0  0  0  0  0  0  0  0999 V2000
   -8.1689   -1.1460   -0.5784 C   0  0  1  0  0  0  0  0  0  0  0  0
   -6.6648    0.4672    0.6571 C   0  0  1  0  0  0  0  0  0  0  0  0
   -7.6685    1.6753    0.9220 C   0  0  1  0  0  0  0  0  0  0  0  0
   -6.8018    3.0033    1.0969 C   0  0  2  0  0  0  0  0  0  0  0  0
   -9.1199   -2.3393   -0.1760 C   0  0  1  0  0  0  0  0  0  0  0  0
   -8.2367   -3.5374    0.2251 C   0  0  2  0  0  0  0  0  0  0  0  0
   -7.3601   -3.9923   -0.9551 C   0  0  2  0  0  0  0  0  0  0  0  0
   -6.4055   -2.8379   -1.4333 C   0  0  1  0  0  0  0  0  0  0  0  0
   -5.5568   -3.2753   -2.6618 C   0  0  0  0  0  0  0  0  0  0  0  0
   -5.8432    2.8435    2.3844 C   0  0  1  0  0  0  0  0  0  0  0  0
   -4.8468    1.6151    2.0815 C   0  0  0  0  0  0  0  0  0  0  0  0
   -5.6920    0.2767    1.8641 C   0  0  2  0  0  0  0  0  0  0  0  0
   -8.2068   -4.4076   -2.0793 F   0  0  0  0  0  0  0  0  0  0  0  0
   -9.9904   -1.8705    0.9711 N   0  0  0  0  0  0  0  0  0  0  0  0
   -4.6937   -4.3702   -2.4278 N   0  0  0  0  0  0  0  0  0  0  0  0
   -4.9922    4.0665    2.5809 N   0  0  0  0  0  0  0  0  0  0  0  0
   -4.7724   -0.8453    1.5851 N   0  0  0  0  0  0  0  0  0  0  0  0
   -7.3880   -0.7445    0.5034 O   0  0  0  0  0  0  0  0  0  0  0  0
   -8.5475    1.8062   -0.2639 O   0  0  0  0  0  0  0  0  0  0  0  0
   -7.7033    4.0470    1.3182 O   0  0  0  0  0  0  0  0  0  0  0  0
   -8.9319   -4.4067    0.5158 O   0  0  0  0  0  0  0  0  0  0  0  0
   -7.2996   -1.6225   -1.7391 O   0  0  0  0  0  0  0  0  0  0  0  0
  1  5  1  0  0  0  0
  1 18  1  1  0  0  0
  2 18  1  1  0  0  0
  2  3  1  0  0  0  0
  2 12  1  0  0  0  0
  3 19  1  6  0  0  0
  3  4  1  0  0  0  0
  4 20  1  1  0  0  0
  4 10  1  0  0  0  0
  5  6  1  0  0  0  0
  5 14  1  1  0  0  0
  6 21  1  6  0  0  0
  7 13  1  6  0  0  0
  7  6  1  0  0  0  0
  8  9  1  6  0  0  0
  8  7  1  0  0  0  0
 10 16  1  6  0  0  0
 11 10  1  0  0  0  0
 12 17  1  6  0  0  0
 12 11  1  0  0  0  0
 15  9  1  0  0  0  0
 22  8  1  0  0  0  0
 22  1  1  0  0  0  0
M  END
>  <CHROM.1>
-163.26363410,72.90037877,-61.62460688,-7.08362005,-0.75583992,0.15265188
1.72396193,-0.08703520,-2.70155677

>  <Name>
lig.pdb

>  <RI>
0

>  <Rbt.Current_Directory>
/home/itssahil/PROJECTS/Mol_Feturizer/New_Systems/rnas/5bws

>  <Rbt.Executable>
rbdock ($Id: //depot/dev/client3/rdock/2013.1/src/exe/rbdock.cxx#4 $)

>  <Rbt.Library>
libRbt.so (2013.1, Build901 2013/11/27)

>  <Rbt.Parameter_File>
/export/apps/rDock/src/rDock_2013.1_src/data/scripts/dock_solv.prm

>  <Rbt.Receptor>
prm/pocket_docking_6.prm

>  <SCORE>
-12.81

>  <SCORE.INTER>
-10.7445

>  <SCORE.INTER.CONST>
1

>  <SCORE.INTER.POLAR>
0

>  <SCORE.INTER.ROT>
3

>  <SCORE.INTER.SOLV>
17.4642

>  <SCORE.INTER.VDW>
-18.5844

>  <SCORE.INTER.norm>
-0.488387

>  <SCORE.INTRA>
-2.06549

>  <SCORE.INTRA.DIHEDRAL>
-4.00945

>  <SCORE.INTRA.DIHEDRAL.0>
6.10773

>  <SCORE.INTRA.POLAR>
0

>  <SCORE.INTRA.POLAR.0>
0

>  <SCORE.INTRA.REPUL>
0

>  <SCORE.INTRA.REPUL.0>
0

>  <SCORE.INTRA.SOLV>
-0.6145

>  <SCORE.INTRA.SOLV.lig_0>
-71.4024

>  <SCORE.INTRA.VDW>
0.246481

>  <SCORE.INTRA.VDW.0>
-1.86213

>  <SCORE.INTRA.norm>
-0.093886

>  <SCORE.RESTR>
0

>  <SCORE.RESTR.CAVITY>
0

>  <SCORE.RESTR.norm>
0

>  <SCORE.SYSTEM>
0

>  <SCORE.SYSTEM.CONST>
0

>  <SCORE.SYSTEM.DIHEDRAL>
0

>  <SCORE.SYSTEM.SOLV>
0

>  <SCORE.SYSTEM.norm>
0

>  <SCORE.heavy>
22

>  <SCORE.norm>
-0.582273

>  <RMSD>
2.099

$$$$
lig.pdb
 OpenBabel11021811523D
libRbt.so/2013.1/901 2013/11/27
 22 23  0  0  0  0  0  0  0  0999 V2000
   -8.1694   -1.1582   -0.5906 C   0  0  1  0  0  0  0  0  0  0  0  0
   -6.6549    0.4546    0.6327 C   0  0  1  0  0  0  0  0  0  0  0  0
   -7.6576    1.6683    0.8743 C   0  0  1  0  0  0  0  0  0  0  0  0
   -6.7887    2.9957    1.0431 C   0  0  2  0  0  0  0  0  0  0  0  0
   -9.1228   -2.3463   -0.1787 C   0  0  1  0  0  0  0  0  0  0  0  0
   -8.2422   -3.5468    0.2208 C   0  0  2  0  0  0  0  0  0  0  0  0
   -7.3748   -4.0090   -0.9634 C   0  0  2  0  0  0  0  0  0  0  0  0
   -6.4184   -2.8602   -1.4510 C   0  0  1  0  0  0  0  0  0  0  0  0
   -5.5791   -3.3049   -2.6834 C   0  0  0  0  0  0  0  0  0  0  0  0
   -5.8434    2.8473    2.3418 C   0  0  1  0  0  0  0  0  0  0  0  0
   -4.8477    1.6128    2.0623 C   0  0  0  0  0  0  0  0  0  0  0  0
   -5.6946    0.2746    1.8512 C   0  0  2  0  0  0  0  0  0  0  0  0
   -8.2302   -4.4243   -2.0811 F   0  0  0  0  0  0  0  0  0  0  0  0
   -9.9843   -1.8703    0.9723 N   0  0  0  0  0  0  0  0  0  0  0  0
   -4.7359   -4.4169   -2.4577 N   0  0  0  0  0  0  0  0  0  0  0  0
   -4.9907    4.0701    2.5333 N   0  0  0  0  0  0  0  0  0  0  0  0
   -4.7757   -0.8531    1.5937 N   0  0  0  0  0  0  0  0  0  0  0  0
   -7.3802   -0.7567    0.4851 O   0  0  0  0  0  0  0  0  0  0  0  0
   -8.5245    1.7887   -0.3216 O   0  0  0  0  0  0  0  0  0  0  0  0
   -7.6892    4.0443    1.2440 O   0  0  0  0  0  0  0  0  0  0  0  0
   -8.9392   -4.4123    0.5185 O   0  0  0  0  0  0  0  0  0  0  0  0
   -7.3093   -1.6420   -1.7552 O   0  0  0  0  0  0  0  0  0  0  0  0
  1  5  1  0  0  0  0
  1 18  1  1  0  0  0
  2 18  1  1  0  0  0
  2  3  1  0  0  0  0
  2 12  1  0  0  0  0
  3 19  1  6  0  0  0
  3  4  1  0  0  0  0
  4 20  1  1  0  0  0
  4 10  1  0  0  0  0
  5  6  1  0  0  0  0
  5 14  1  1  0  0  0
  6 21  1  6  0  0  0
  7 13  1  6  0  0  0
  7  6  1  0  0  0  0
  8  9  1  6  0  0  0
  8  7  1  0  0  0  0
 10 16  1  6  0  0  0
 11 10  1  0  0  0  0
 12 17  1  6  0  0  0
 12 11  1  0  0  0  0
 15  9  1  0  0  0  0
 22  8  1  0  0  0  0
 22  1  1  0  0  0  0
M  END
>  <CHROM.1>
-163.01058948,71.73515644,-60.60294829,-7.08658238,-0.76735663,0.12992783
1.72742555,-0.08772499,-2.70620184

>  <Name>
lig.pdb

>  <RI>
0

>  <Rbt.Current_Directory>
/home/itssahil/PROJECTS/Mol_Feturizer/New_Systems/rnas/5bws

>  <Rbt.Executable>
rbdock ($Id: //depot/dev/client3/rdock/2013.1/src/exe/rbdock.cxx#4 $)

>  <Rbt.Library>
libRbt.so (2013.1, Build901 2013/11/27)

>  <Rbt.Parameter_File>
/export/apps/rDock/src/rDock_2013.1_src/data/scripts/dock_solv.prm

>  <Rbt.Receptor>
prm/pocket_docking_4.prm

>  <SCORE>
-12.8009

>  <SCORE.INTER>
-10.6966

>  <SCORE.INTER.CONST>
1

>  <SCORE.INTER.POLAR>
0

>  <SCORE.INTER.ROT>
3

>  <SCORE.INTER.SOLV>
17.3144

>  <SCORE.INTER.VDW>
-18.5025

>  <SCORE.INTER.norm>
-0.486207

>  <SCORE.INTRA>
-2.10438

>  <SCORE.INTRA.DIHEDRAL>
-4.11287

>  <SCORE.INTRA.DIHEDRAL.0>
6.10773

>  <SCORE.INTRA.POLAR>
0

>  <SCORE.INTRA.POLAR.0>
0

>  <SCORE.INTRA.REPUL>
0

>  <SCORE.INTRA.REPUL.0>
0

>  <SCORE.INTRA.SOLV>
-0.636099

>  <SCORE.INTRA.SOLV.lig_0>
-71.4024

>  <SCORE.INTRA.VDW>
0.270099

>  <SCORE.INTRA.VDW.0>
-1.86213

>  <SCORE.INTRA.norm>
-0.0956538

>  <SCORE.RESTR>
0

>  <SCORE.RESTR.CAVITY>
0

>  <SCORE.RESTR.norm>
0

>  <SCORE.SYSTEM>
0

>  <SCORE.SYSTEM.CONST>
0

>  <SCORE.SYSTEM.DIHEDRAL>
0

>  <SCORE.SYSTEM.SOLV>
0

>  <SCORE.SYSTEM.norm>
0

>  <SCORE.heavy>
22

>  <SCORE.norm>
-0.581861

>  <RMSD>
2.100

$$$$
lig.pdb
 OpenBabel11021811523D
libRbt.so/2013.1/901 2013/11/27
 22 23  0  0  0  0  0  0  0  0999 V2000
   -8.1699   -1.1442   -0.5822 C   0  0  1  0  0  0  0  0  0  0  0  0
   -6.6645    0.4742    0.6449 C   0  0  1  0  0  0  0  0  0  0  0  0
   -7.6677    1.6856    0.8960 C   0  0  1  0  0  0  0  0  0  0  0  0
   -6.7999    3.0138    1.0642 C   0  0  2  0  0  0  0  0  0  0  0  0
   -9.1186   -2.3376   -0.1750 C   0  0  1  0  0  0  0  0  0  0  0  0
   -8.2333   -3.5329    0.2297 C   0  0  2  0  0  0  0  0  0  0  0  0
   -7.3569   -3.9905   -0.9497 C   0  0  2  0  0  0  0  0  0  0  0  0
   -6.4045   -2.8364   -1.4326 C   0  0  1  0  0  0  0  0  0  0  0  0
   -5.5561   -3.2767   -2.6603 C   0  0  0  0  0  0  0  0  0  0  0  0
   -5.8472    2.8627    2.3572 C   0  0  1  0  0  0  0  0  0  0  0  0
   -4.8512    1.6306    2.0683 C   0  0  0  0  0  0  0  0  0  0  0  0
   -5.6973    0.2918    1.8576 C   0  0  2  0  0  0  0  0  0  0  0  0
   -8.2038   -4.4111   -2.0717 F   0  0  0  0  0  0  0  0  0  0  0  0
   -9.9890   -1.8662    0.9712 N   0  0  0  0  0  0  0  0  0  0  0  0
   -4.6828   -4.3621   -2.4201 N   0  0  0  0  0  0  0  0  0  0  0  0
   -4.9953    4.0861    2.5479 N   0  0  0  0  0  0  0  0  0  0  0  0
   -4.7781   -0.8336    1.5914 N   0  0  0  0  0  0  0  0  0  0  0  0
   -7.3888   -0.7377    0.4975 O   0  0  0  0  0  0  0  0  0  0  0  0
   -8.5413    1.8085   -0.2948 O   0  0  0  0  0  0  0  0  0  0  0  0
   -7.7009    4.0604    1.2734 O   0  0  0  0  0  0  0  0  0  0  0  0
   -8.9269   -4.4023    0.5239 O   0  0  0  0  0  0  0  0  0  0  0  0
   -7.3008   -1.6235   -1.7420 O   0  0  0  0  0  0  0  0  0  0  0  0
  1  5  1  0  0  0  0
  1 18  1  1  0  0  0
  2 18  1  1  0  0  0
  2  3  1  0  0  0  0
  2 12  1  0  0  0  0
  3 19  1  6  0  0  0
  3  4  1  0  0  0  0
  4 20  1  1  0  0  0
  4 10  1  0  0  0  0
  5  6  1  0  0  0  0
  5 14  1  1  0  0  0
  6 21  1  6  0  0  0
  7 13  1  6  0  0  0
  7  6  1  0  0  0  0
  8  9  1  6  0  0  0
  8  7  1  0  0  0  0
 10 16  1  6  0  0  0
 11 10  1  0  0  0  0
 12 17  1  6  0  0  0
 12 11  1  0  0  0  0
 15  9  1  0  0  0  0
 22  8  1  0  0  0  0
 22  1  1  0  0  0  0
M  END
>  <CHROM.1>
-163.44283854,72.61348383,-62.13238790,-7.08278315,-0.74908403,0.14381290
1.72388616,-0.08772755,-2.70659063

>  <Name>
lig.pdb

>  <RI>
0

>  <Rbt.Current_Directory>
/home/itssahil/PROJECTS/Mol_Feturizer/New_Systems/rnas/5bws

>  <Rbt.Executable>
rbdock ($Id: //depot/dev/client3/rdock/2013.1/src/exe/rbdock.cxx#4 $)

>  <Rbt.Library>
libRbt.so (2013.1, Build901 2013/11/27)

>  <Rbt.Parameter_File>
/export/apps/rDock/src/rDock_2013.1_src/data/scripts/dock_solv.prm

>  <Rbt.Receptor>
prm/pocket_docking_6.prm

>  <SCORE>
-12.8237

>  <SCORE.INTER>
-10.7212

>  <SCORE.INTER.CONST>
1

>  <SCORE.INTER.POLAR>
0

>  <SCORE.INTER.ROT>
3

>  <SCORE.INTER.SOLV>
17.3771

>  <SCORE.INTER.VDW>
-18.5399

>  <SCORE.INTER.norm>
-0.487328

>  <SCORE.INTRA>
-2.10247

>  <SCORE.INTRA.DIHEDRAL>
-4.06184

>  <SCORE.INTRA.DIHEDRAL.0>
6.10773

>  <SCORE.INTRA.POLAR>
0

>  <SCORE.INTRA.POLAR.0>
0

>  <SCORE.INTRA.REPUL>
0

>  <SCORE.INTRA.REPUL.0>
0

>  <SCORE.INTRA.SOLV>
-0.643141

>  <SCORE.INTRA.SOLV.lig_0>
-71.4024

>  <SCORE.INTRA.VDW>
0.250016

>  <SCORE.INTRA.VDW.0>
-1.86213

>  <SCORE.INTRA.norm>
-0.0955669

>  <SCORE.RESTR>
0

>  <SCORE.RESTR.CAVITY>
0

>  <SCORE.RESTR.norm>
0

>  <SCORE.SYSTEM>
0

>  <SCORE.SYSTEM.CONST>
0

>  <SCORE.SYSTEM.DIHEDRAL>
0

>  <SCORE.SYSTEM.SOLV>
0

>  <SCORE.SYSTEM.norm>
0

>  <SCORE.heavy>
22

>  <SCORE.norm>
-0.582895

>  <RMSD>
2.103

$$$$
lig.pdb
 OpenBabel11021811523D
libRbt.so/2013.1/901 2013/11/27
 22 23  0  0  0  0  0  0  0  0999 V2000
   -8.2003   -1.0983   -0.5506 C   0  0  1  0  0  0  0  0  0  0  0  0
   -6.6818    0.5031    0.6826 C   0  0  1  0  0  0  0  0  0  0  0  0
   -7.6820    1.7093    0.9683 C   0  0  1  0  0  0  0  0  0  0  0  0
   -6.8128    3.0353    1.1455 C   0  0  2  0  0  0  0  0  0  0  0  0
   -9.1682   -2.2751   -0.1403 C   0  0  1  0  0  0  0  0  0  0  0  0
   -8.3024   -3.4864    0.2592 C   0  0  2  0  0  0  0  0  0  0  0  0
   -7.4395   -3.9581   -0.9246 C   0  0  2  0  0  0  0  0  0  0  0  0
   -6.4690   -2.8205   -1.4107 C   0  0  1  0  0  0  0  0  0  0  0  0
   -5.6341   -3.2744   -2.6426 C   0  0  0  0  0  0  0  0  0  0  0  0
   -5.8409    2.8640    2.4216 C   0  0  1  0  0  0  0  0  0  0  0  0
   -4.8484    1.6378    2.0978 C   0  0  0  0  0  0  0  0  0  0  0  0
   -5.6966    0.3018    1.8776 C   0  0  2  0  0  0  0  0  0  0  0  0
   -8.2988   -4.3625   -2.0432 F   0  0  0  0  0  0  0  0  0  0  0  0
  -10.0249   -1.7896    1.0103 N   0  0  0  0  0  0  0  0  0  0  0  0
   -4.7640   -4.3624   -2.4020 N   0  0  0  0  0  0  0  0  0  0  0  0
   -4.9872    4.0849    2.6197 N   0  0  0  0  0  0  0  0  0  0  0  0
   -4.7806   -0.8182    1.5794 N   0  0  0  0  0  0  0  0  0  0  0  0
   -7.4073   -0.7069    0.5260 O   0  0  0  0  0  0  0  0  0  0  0  0
   -8.5733    1.8509   -0.2072 O   0  0  0  0  0  0  0  0  0  0  0  0
   -7.7113    4.0775    1.3852 O   0  0  0  0  0  0  0  0  0  0  0  0
   -9.0099   -4.3436    0.5557 O   0  0  0  0  0  0  0  0  0  0  0  0
   -7.3451   -1.5916   -1.7148 O   0  0  0  0  0  0  0  0  0  0  0  0
  1  5  1  0  0  0  0
  1 18  1  1  0  0  0
  2 18  1  1  0  0  0
  2  3  1  0  0  0  0
  2 12  1  0  0  0  0
  3 19  1  6  0  0  0
  3  4  1  0  0  0  0
  4 20  1  1  0  0  0
  4 10  1  0  0  0  0
  5  6  1  0  0  0  0
  5 14  1  1  0  0  0
  6 21  1  6  0  0  0
  7 13  1  6  0  0  0
  7  6  1  0  0  0  0
  8  9  1  6  0  0  0
  8  7  1  0  0  0  0
 10 16  1  6  0  0  0
 11 10  1  0  0  0  0
 12 17  1  6  0  0  0
 12 11  1  0  0  0  0
 15  9  1  0  0  0  0
 22  8  1  0  0  0  0
 22  1  1  0  0  0  0
M  END
>  <CHROM.1>
-162.10315183,72.85571120,-63.05824996,-7.12039858,-0.72044339,0.18494501
1.73248080,-0.08564662,-2.69837286

>  <Name>
lig.pdb

>  <RI>
0

>  <Rbt.Current_Directory>
/home/itssahil/PROJECTS/Mol_Feturizer/New_Systems/rnas/5bws

>  <Rbt.Executable>
rbdock ($Id: //depot/dev/client3/rdock/2013.1/src/exe/rbdock.cxx#4 $)

>  <Rbt.Library>
libRbt.so (2013.1, Build901 2013/11/27)

>  <Rbt.Parameter_File>
/export/apps/rDock/src/rDock_2013.1_src/data/scripts/dock_solv.prm

>  <Rbt.Receptor>
prm/pocket_docking_5.prm

>  <SCORE>
-12.7683

>  <SCORE.INTER>
-10.7986

>  <SCORE.INTER.CONST>
1

>  <SCORE.INTER.POLAR>
0

>  <SCORE.INTER.ROT>
3

>  <SCORE.INTER.SOLV>
17.4068

>  <SCORE.INTER.VDW>
-18.6013

>  <SCORE.INTER.norm>
-0.490846

>  <SCORE.INTRA>
-1.96967

>  <SCORE.INTRA.DIHEDRAL>
-3.81814

>  <SCORE.INTRA.DIHEDRAL.0>
6.10773

>  <SCORE.INTRA.POLAR>
0

>  <SCORE.INTRA.POLAR.0>
0

>  <SCORE.INTRA.REPUL>
0

>  <SCORE.INTRA.REPUL.0>
0

>  <SCORE.INTRA.SOLV>
-0.608812

>  <SCORE.INTRA.SOLV.lig_0>
-71.4024

>  <SCORE.INTRA.VDW>
0.243807

>  <SCORE.INTRA.VDW.0>
-1.86213

>  <SCORE.INTRA.norm>
-0.0895305

>  <SCORE.RESTR>
0

>  <SCORE.RESTR.CAVITY>
0

>  <SCORE.RESTR.norm>
0

>  <SCORE.SYSTEM>
0

>  <SCORE.SYSTEM.CONST>
0

>  <SCORE.SYSTEM.DIHEDRAL>
0

>  <SCORE.SYSTEM.SOLV>
0

>  <SCORE.SYSTEM.norm>
0

>  <SCORE.heavy>
22

>  <SCORE.norm>
-0.580376

>  <RMSD>
2.104

$$$$
lig.pdb
 OpenBabel11021811523D
libRbt.so/2013.1/901 2013/11/27
 22 23  0  0  0  0  0  0  0  0999 V2000
   -8.1515   -1.1515   -0.5978 C   0  0  1  0  0  0  0  0  0  0  0  0
   -6.6633    0.4757    0.6387 C   0  0  1  0  0  0  0  0  0  0  0  0
   -7.6741    1.6813    0.8871 C   0  0  1  0  0  0  0  0  0  0  0  0
   -6.8143    3.0140    1.0601 C   0  0  2  0  0  0  0  0  0  0  0  0
   -9.1094   -2.3379   -0.1918 C   0  0  1  0  0  0  0  0  0  0  0  0
   -8.2335   -3.5337    0.2313 C   0  0  2  0  0  0  0  0  0  0  0  0
   -7.3463   -4.0038   -0.9351 C   0  0  2  0  0  0  0  0  0  0  0  0
   -6.3841   -2.8572   -1.4164 C   0  0  1  0  0  0  0  0  0  0  0  0
   -5.5244   -3.3101   -2.6315 C   0  0  0  0  0  0  0  0  0  0  0  0
   -5.8658    2.8669    2.3567 C   0  0  1  0  0  0  0  0  0  0  0  0
   -4.8619    1.6406    2.0703 C   0  0  0  0  0  0  0  0  0  0  0  0
   -5.6998    0.2973    1.8550 C   0  0  2  0  0  0  0  0  0  0  0  0
   -8.1829   -4.4294   -2.0630 F   0  0  0  0  0  0  0  0  0  0  0  0
   -9.9901   -1.8543    0.9414 N   0  0  0  0  0  0  0  0  0  0  0  0
   -4.6784   -4.4149   -2.3816 N   0  0  0  0  0  0  0  0  0  0  0  0
   -5.0214    4.0947    2.5519 N   0  0  0  0  0  0  0  0  0  0  0  0
   -4.7734   -0.8227    1.5912 N   0  0  0  0  0  0  0  0  0  0  0  0
   -7.3803   -0.7401    0.4872 O   0  0  0  0  0  0  0  0  0  0  0  0
   -8.5438    1.8007   -0.3069 O   0  0  0  0  0  0  0  0  0  0  0  0
   -7.7218    4.0555    1.2669 O   0  0  0  0  0  0  0  0  0  0  0  0
   -8.9337   -4.3980    0.5246 O   0  0  0  0  0  0  0  0  0  0  0  0
   -7.2720   -1.6430   -1.7445 O   0  0  0  0  0  0  0  0  0  0  0  0
  1  5  1  0  0  0  0
  1 18  1  1  0  0  0
  2 18  1  1  0  0  0
  2  3  1  0  0  0  0
  2 12  1  0  0  0  0
  3 19  1  6  0  0  0
  3  4  1  0  0  0  0
  4 20  1  1  0  0  0
  4 10  1  0  0  0  0
  5  6  1  0  0  0  0
  5 14  1  1  0  0  0
  6 21  1  6  0  0  0
  7 13  1  6  0  0  0
  7  6  1  0  0  0  0
  8  9  1  6  0  0  0
  8  7  1  0  0  0  0
 10 16  1  6  0  0  0
 11 10  1  0  0  0  0
 12 17  1  6  0  0  0
 12 11  1  0  0  0  0
 15  9  1  0  0  0  0
 22  8  1  0  0  0  0
 22  1  1  0  0  0  0
M  END
>  <CHROM.1>
-162.76575037,72.83901017,-60.88834325,-7.08029173,-0.75522327,0.14379899
1.71841650,-0.07685170,-2.71103640

>  <Name>
lig.pdb

>  <RI>
0

>  <Rbt.Current_Directory>
/home/itssahil/PROJECTS/Mol_Feturizer/New_Systems/rnas/5bws

>  <Rbt.Executable>
rbdock ($Id: //depot/dev/client3/rdock/2013.1/src/exe/rbdock.cxx#4 $)

>  <Rbt.Library>
libRbt.so (2013.1, Build901 2013/11/27)

>  <Rbt.Parameter_File>
/export/apps/rDock/src/rDock_2013.1_src/data/scripts/dock_solv.prm

>  <Rbt.Receptor>
prm/pocket_docking_4.prm

>  <SCORE>
-12.8461

>  <SCORE.INTER>
-10.8273

>  <SCORE.INTER.CONST>
1

>  <SCORE.INTER.POLAR>
0

>  <SCORE.INTER.ROT>
3

>  <SCORE.INTER.SOLV>
17.2031

>  <SCORE.INTER.VDW>
-18.5526

>  <SCORE.INTER.norm>
-0.492152

>  <SCORE.INTRA>
-2.01874

>  <SCORE.INTRA.DIHEDRAL>
-3.95054

>  <SCORE.INTRA.DIHEDRAL.0>
6.10773

>  <SCORE.INTRA.POLAR>
0

>  <SCORE.INTRA.POLAR.0>
0

>  <SCORE.INTRA.REPUL>
0

>  <SCORE.INTRA.REPUL.0>
0

>  <SCORE.INTRA.SOLV>
-0.586611

>  <SCORE.INTRA.SOLV.lig_0>
-71.4024

>  <SCORE.INTRA.VDW>
0.249836

>  <SCORE.INTRA.VDW.0>
-1.86213

>  <SCORE.INTRA.norm>
-0.0917609

>  <SCORE.RESTR>
0

>  <SCORE.RESTR.CAVITY>
0

>  <SCORE.RESTR.norm>
0

>  <SCORE.SYSTEM>
0

>  <SCORE.SYSTEM.CONST>
0

>  <SCORE.SYSTEM.DIHEDRAL>
0

>  <SCORE.SYSTEM.SOLV>
0

>  <SCORE.SYSTEM.norm>
0

>  <SCORE.heavy>
22

>  <SCORE.norm>
-0.583913

>  <RMSD>
2.107

$$$$
lig.pdb
 OpenBabel11021811523D
libRbt.so/2013.1/901 2013/11/27
 22 23  0  0  0  0  0  0  0  0999 V2000
   -8.1517   -1.1568   -0.5919 C   0  0  1  0  0  0  0  0  0  0  0  0
   -6.6652    0.4764    0.6385 C   0  0  1  0  0  0  0  0  0  0  0  0
   -7.6796    1.6802    0.8812 C   0  0  1  0  0  0  0  0  0  0  0  0
   -6.8237    3.0159    1.0506 C   0  0  2  0  0  0  0  0  0  0  0  0
   -9.1072   -2.3435   -0.1809 C   0  0  1  0  0  0  0  0  0  0  0  0
   -8.2288   -3.5371    0.2431 C   0  0  2  0  0  0  0  0  0  0  0  0
   -7.3436   -4.0089   -0.9241 C   0  0  2  0  0  0  0  0  0  0  0  0
   -6.3839   -2.8622   -1.4103 C   0  0  1  0  0  0  0  0  0  0  0  0
   -5.5263   -3.3170   -2.6262 C   0  0  0  0  0  0  0  0  0  0  0  0
   -5.8767    2.8760    2.3490 C   0  0  1  0  0  0  0  0  0  0  0  0
   -4.8691    1.6514    2.0685 C   0  0  0  0  0  0  0  0  0  0  0  0
   -5.7030    0.3051    1.8568 C   0  0  2  0  0  0  0  0  0  0  0  0
   -8.1821   -4.4383   -2.0491 F   0  0  0  0  0  0  0  0  0  0  0  0
   -9.9860   -1.8583    0.9530 N   0  0  0  0  0  0  0  0  0  0  0  0
   -4.6755   -4.4176   -2.3744 N   0  0  0  0  0  0  0  0  0  0  0  0
   -5.0360    4.1068    2.5411 N   0  0  0  0  0  0  0  0  0  0  0  0
   -4.7732   -0.8134    1.5984 N   0  0  0  0  0  0  0  0  0  0  0  0
   -7.3787   -0.7418    0.4903 O   0  0  0  0  0  0  0  0  0  0  0  0
   -8.5479    1.7929   -0.3145 O   0  0  0  0  0  0  0  0  0  0  0  0
   -7.7344    4.0556    1.2524 O   0  0  0  0  0  0  0  0  0  0  0  0
   -8.9272   -4.4016    0.5401 O   0  0  0  0  0  0  0  0  0  0  0  0
   -7.2741   -1.6500   -1.7394 O   0  0  0  0  0  0  0  0  0  0  0  0
  1  5  1  0  0  0  0
  1 18  1  1  0  0  0
  2 18  1  1  0  0  0
  2  3  1  0  0  0  0
  2 12  1  0  0  0  0
  3 19  1  6  0  0  0
  3  4  1  0  0  0  0
  4 20  1  1  0  0  0
  4 10  1  0  0  0  0
  5  6  1  0  0  0  0
  5 14  1  1  0  0  0
  6 21  1  6  0  0  0
  7 13  1  6  0  0  0
  7  6  1  0  0  0  0
  8  9  1  6  0  0  0
  8  7  1  0  0  0  0
 10 16  1  6  0  0  0
 11 10  1  0  0  0  0
 12 17  1  6  0  0  0
 12 11  1  0  0  0  0
 15  9  1  0  0  0  0
 22  8  1  0  0  0  0
 22  1  1  0  0  0  0
M  END
>  <CHROM.1>
-162.62097868,72.54586409,-61.06382955,-7.08241615,-0.75620415,0.14656159
1.71681178,-0.07866762,-2.71371936

>  <Name>
lig.pdb

>  <RI>
0

>  <Rbt.Current_Directory>
/home/itssahil/PROJECTS/Mol_Feturizer/New_Systems/rnas/5bws

>  <Rbt.Executable>
rbdock ($Id: //depot/dev/client3/rdock/2013.1/src/exe/rbdock.cxx#4 $)

>  <Rbt.Library>
libRbt.so (2013.1, Build901 2013/11/27)

>  <Rbt.Parameter_File>
/export/apps/rDock/src/rDock_2013.1_src/data/scripts/dock_solv.prm

>  <Rbt.Receptor>
prm/pocket_docking_4.prm

>  <SCORE>
-12.8494

>  <SCORE.INTER>
-10.8243

>  <SCORE.INTER.CONST>
1

>  <SCORE.INTER.POLAR>
0

>  <SCORE.INTER.ROT>
3

>  <SCORE.INTER.SOLV>
17.1527

>  <SCORE.INTER.VDW>
-18.5337

>  <SCORE.INTER.norm>
-0.492012

>  <SCORE.INTRA>
-2.02519

>  <SCORE.INTRA.DIHEDRAL>
-3.96187

>  <SCORE.INTRA.DIHEDRAL.0>
6.10773

>  <SCORE.INTRA.POLAR>
0

>  <SCORE.INTRA.POLAR.0>
0

>  <SCORE.INTRA.REPUL>
0

>  <SCORE.INTRA.REPUL.0>
0

>  <SCORE.INTRA.SOLV>
-0.597461

>  <SCORE.INTRA.SOLV.lig_0>
-71.4024

>  <SCORE.INTRA.VDW>
0.254477

>  <SCORE.INTRA.VDW.0>
-1.86213

>  <SCORE.INTRA.norm>
-0.0920539

>  <SCORE.RESTR>
0

>  <SCORE.RESTR.CAVITY>
0

>  <SCORE.RESTR.norm>
0

>  <SCORE.SYSTEM>
0

>  <SCORE.SYSTEM.CONST>
0

>  <SCORE.SYSTEM.DIHEDRAL>
0

>  <SCORE.SYSTEM.SOLV>
0

>  <SCORE.SYSTEM.norm>
0

>  <SCORE.heavy>
22

>  <SCORE.norm>
-0.584066

>  <RMSD>
2.113

$$$$
lig.pdb
 OpenBabel11021811523D
libRbt.so/2013.1/901 2013/11/27
 22 23  0  0  0  0  0  0  0  0999 V2000
   -8.1579   -1.1533   -0.5754 C   0  0  1  0  0  0  0  0  0  0  0  0
   -6.6778    0.4811    0.6613 C   0  0  1  0  0  0  0  0  0  0  0  0
   -7.6977    1.6758    0.9247 C   0  0  1  0  0  0  0  0  0  0  0  0
   -6.8490    3.0153    1.0996 C   0  0  2  0  0  0  0  0  0  0  0  0
   -9.1015   -2.3517   -0.1708 C   0  0  1  0  0  0  0  0  0  0  0  0
   -8.2110   -3.5409    0.2405 C   0  0  2  0  0  0  0  0  0  0  0  0
   -7.3259   -3.9953   -0.9336 C   0  0  2  0  0  0  0  0  0  0  0  0
   -6.3781   -2.8363   -1.4138 C   0  0  1  0  0  0  0  0  0  0  0  0
   -5.5208   -3.2737   -2.6363 C   0  0  0  0  0  0  0  0  0  0  0  0
   -5.8894    2.8690    2.3881 C   0  0  1  0  0  0  0  0  0  0  0  0
   -4.8765    1.6538    2.0866 C   0  0  0  0  0  0  0  0  0  0  0  0
   -5.7036    0.3042    1.8692 C   0  0  2  0  0  0  0  0  0  0  0  0
   -8.1646   -4.4230   -2.0591 F   0  0  0  0  0  0  0  0  0  0  0  0
   -9.9804   -1.8835    0.9701 N   0  0  0  0  0  0  0  0  0  0  0  0
   -4.6608   -4.3699   -2.3969 N   0  0  0  0  0  0  0  0  0  0  0  0
   -5.0550    4.1034    2.5847 N   0  0  0  0  0  0  0  0  0  0  0  0
   -4.7689   -0.8056    1.5915 N   0  0  0  0  0  0  0  0  0  0  0  0
   -7.3846   -0.7403    0.5075 O   0  0  0  0  0  0  0  0  0  0  0  0
   -8.5774    1.7944   -0.2620 O   0  0  0  0  0  0  0  0  0  0  0  0
   -7.7645    4.0470    1.3196 O   0  0  0  0  0  0  0  0  0  0  0  0
   -8.9008   -4.4139    0.5328 O   0  0  0  0  0  0  0  0  0  0  0  0
   -7.2800   -1.6294   -1.7299 O   0  0  0  0  0  0  0  0  0  0  0  0
  1  5  1  0  0  0  0
  1 18  1  1  0  0  0
  2 18  1  1  0  0  0
  2  3  1  0  0  0  0
  2 12  1  0  0  0  0
  3 19  1  6  0  0  0
  3  4  1  0  0  0  0
  4 20  1  1  0  0  0
  4 10  1  0  0  0  0
  5  6  1  0  0  0  0
  5 14  1  1  0  0  0
  6 21  1  6  0  0  0
  7 13  1  6  0  0  0
  7  6  1  0  0  0  0
  8  9  1  6  0  0  0
  8  7  1  0  0  0  0
 10 16  1  6  0  0  0
 11 10  1  0  0  0  0
 12 17  1  6  0  0  0
 12 11  1  0  0  0  0
 15  9  1  0  0  0  0
 22  8  1  0  0  0  0
 22  1  1  0  0  0  0
M  END
>  <CHROM.1>
-162.85113957,72.98808607,-60.98321233,-7.08467186,-0.75094927,0.16221942
1.71237135,-0.08667987,-2.70581196

>  <Name>
lig.pdb

>  <RI>
0

>  <Rbt.Current_Directory>
/home/itssahil/PROJECTS/Mol_Feturizer/New_Systems/rnas/5bws

>  <Rbt.Executable>
rbdock ($Id: //depot/dev/client3/rdock/2013.1/src/exe/rbdock.cxx#4 $)

>  <Rbt.Library>
libRbt.so (2013.1, Build901 2013/11/27)

>  <Rbt.Parameter_File>
/export/apps/rDock/src/rDock_2013.1_src/data/scripts/dock_solv.prm

>  <Rbt.Receptor>
prm/pocket_docking_6.prm

>  <SCORE>
-12.8136

>  <SCORE.INTER>
-10.7954

>  <SCORE.INTER.CONST>
1

>  <SCORE.INTER.POLAR>
0

>  <SCORE.INTER.ROT>
3

>  <SCORE.INTER.SOLV>
17.3659

>  <SCORE.INTER.VDW>
-18.5856

>  <SCORE.INTER.norm>
-0.4907

>  <SCORE.INTRA>
-2.01815

>  <SCORE.INTRA.DIHEDRAL>
-3.94492

>  <SCORE.INTRA.DIHEDRAL.0>
6.10773

>  <SCORE.INTRA.POLAR>
0

>  <SCORE.INTRA.POLAR.0>
0

>  <SCORE.INTRA.REPUL>
0

>  <SCORE.INTRA.REPUL.0>
0

>  <SCORE.INTRA.SOLV>
-0.58527

>  <SCORE.INTRA.SOLV.lig_0>
-71.4024

>  <SCORE.INTRA.VDW>
0.246945

>  <SCORE.INTRA.VDW.0>
-1.86213

>  <SCORE.INTRA.norm>
-0.0917342

>  <SCORE.RESTR>
0

>  <SCORE.RESTR.CAVITY>
0

>  <SCORE.RESTR.norm>
0

>  <SCORE.SYSTEM>
0

>  <SCORE.SYSTEM.CONST>
0

>  <SCORE.SYSTEM.DIHEDRAL>
0

>  <SCORE.SYSTEM.SOLV>
0

>  <SCORE.SYSTEM.norm>
0

>  <SCORE.heavy>
22

>  <SCORE.norm>
-0.582434

>  <RMSD>
2.122

$$$$
lig.pdb
 OpenBabel11021811523D
libRbt.so/2013.1/901 2013/11/27
 22 23  0  0  0  0  0  0  0  0999 V2000
   -8.2162   -1.1366   -0.5567 C   0  0  1  0  0  0  0  0  0  0  0  0
   -6.7089    0.4875    0.6606 C   0  0  1  0  0  0  0  0  0  0  0  0
   -7.7236    1.6821    0.9442 C   0  0  1  0  0  0  0  0  0  0  0  0
   -6.8709    3.0200    1.1119 C   0  0  2  0  0  0  0  0  0  0  0  0
   -9.1637   -2.3264   -0.1364 C   0  0  1  0  0  0  0  0  0  0  0  0
   -8.2775   -3.5247    0.2571 C   0  0  2  0  0  0  0  0  0  0  0  0
   -7.4184   -3.9860   -0.9336 C   0  0  2  0  0  0  0  0  0  0  0  0
   -6.4684   -2.8355   -1.4297 C   0  0  1  0  0  0  0  0  0  0  0  0
   -5.6379   -3.2794   -2.6683 C   0  0  0  0  0  0  0  0  0  0  0  0
   -5.8924    2.8673    2.3853 C   0  0  1  0  0  0  0  0  0  0  0  0
   -4.8853    1.6524    2.0637 C   0  0  0  0  0  0  0  0  0  0  0  0
   -5.7170    0.3046    1.8530 C   0  0  2  0  0  0  0  0  0  0  0  0
   -8.2817   -4.4041   -2.0441 F   0  0  0  0  0  0  0  0  0  0  0  0
  -10.0171   -1.8513    1.0210 N   0  0  0  0  0  0  0  0  0  0  0  0
   -4.7465   -4.3510   -2.4325 N   0  0  0  0  0  0  0  0  0  0  0  0
   -5.0538    4.1001    2.5746 N   0  0  0  0  0  0  0  0  0  0  0  0
   -4.7877   -0.8050    1.5568 N   0  0  0  0  0  0  0  0  0  0  0  0
   -7.4193   -0.7325    0.5123 O   0  0  0  0  0  0  0  0  0  0  0  0
   -8.6208    1.8065   -0.2288 O   0  0  0  0  0  0  0  0  0  0  0  0
   -7.7820    4.0517    1.3499 O   0  0  0  0  0  0  0  0  0  0  0  0
   -8.9702   -4.3914    0.5609 O   0  0  0  0  0  0  0  0  0  0  0  0
   -7.3643   -1.6195   -1.7277 O   0  0  0  0  0  0  0  0  0  0  0  0
  1  5  1  0  0  0  0
  1 18  1  1  0  0  0
  2 18  1  1  0  0  0
  2  3  1  0  0  0  0
  2 12  1  0  0  0  0
  3 19  1  6  0  0  0
  3  4  1  0  0  0  0
  4 20  1  1  0  0  0
  4 10  1  0  0  0  0
  5  6  1  0  0  0  0
  5 14  1  1  0  0  0
  6 21  1  6  0  0  0
  7 13  1  6  0  0  0
  7  6  1  0  0  0  0
  8  9  1  6  0  0  0
  8  7  1  0  0  0  0
 10 16  1  6  0  0  0
 11 10  1  0  0  0  0
 12 17  1  6  0  0  0
 12 11  1  0  0  0  0
 15  9  1  0  0  0  0
 22  8  1  0  0  0  0
 22  1  1  0  0  0  0
M  END
>  <CHROM.1>
-162.14668250,72.52197347,-63.30547786,-7.13574477,-0.74153826,0.16711582
1.72341089,-0.09867728,-2.70166791

>  <Name>
lig.pdb

>  <RI>
0

>  <Rbt.Current_Directory>
/home/itssahil/PROJECTS/Mol_Feturizer/New_Systems/rnas/5bws

>  <Rbt.Executable>
rbdock ($Id: //depot/dev/client3/rdock/2013.1/src/exe/rbdock.cxx#4 $)

>  <Rbt.Library>
libRbt.so (2013.1, Build901 2013/11/27)

>  <Rbt.Parameter_File>
/export/apps/rDock/src/rDock_2013.1_src/data/scripts/dock_solv.prm

>  <Rbt.Receptor>
prm/pocket_docking_6.prm

>  <SCORE>
-12.7658

>  <SCORE.INTER>
-10.771

>  <SCORE.INTER.CONST>
1

>  <SCORE.INTER.POLAR>
0

>  <SCORE.INTER.ROT>
3

>  <SCORE.INTER.SOLV>
17.3757

>  <SCORE.INTER.VDW>
-18.5726

>  <SCORE.INTER.norm>
-0.48959

>  <SCORE.INTRA>
-1.99488

>  <SCORE.INTRA.DIHEDRAL>
-3.85783

>  <SCORE.INTRA.DIHEDRAL.0>
6.10773

>  <SCORE.INTRA.POLAR>
0

>  <SCORE.INTRA.POLAR.0>
0

>  <SCORE.INTRA.REPUL>
0

>  <SCORE.INTRA.REPUL.0>
0

>  <SCORE.INTRA.SOLV>
-0.629963

>  <SCORE.INTRA.SOLV.lig_0>
-71.4024

>  <SCORE.INTRA.VDW>
0.249019

>  <SCORE.INTRA.VDW.0>
-1.86213

>  <SCORE.INTRA.norm>
-0.0906762

>  <SCORE.RESTR>
0

>  <SCORE.RESTR.CAVITY>
0

>  <SCORE.RESTR.norm>
0

>  <SCORE.SYSTEM>
0

>  <SCORE.SYSTEM.CONST>
0

>  <SCORE.SYSTEM.DIHEDRAL>
0

>  <SCORE.SYSTEM.SOLV>
0

>  <SCORE.SYSTEM.norm>
0

>  <SCORE.heavy>
22

>  <SCORE.norm>
-0.580266

>  <RMSD>
2.139

$$$$
lig.pdb
 OpenBabel11021811523D
libRbt.so/2013.1/901 2013/11/27
 22 23  0  0  0  0  0  0  0  0999 V2000
   -8.0031   -1.2380   -0.6907 C   0  0  1  0  0  0  0  0  0  0  0  0
   -6.6595    0.4521    0.6245 C   0  0  1  0  0  0  0  0  0  0  0  0
   -7.6978    1.6376    0.8556 C   0  0  1  0  0  0  0  0  0  0  0  0
   -6.8669    2.9849    1.0555 C   0  0  2  0  0  0  0  0  0  0  0  0
   -9.0155   -2.3941   -0.3322 C   0  0  1  0  0  0  0  0  0  0  0  0
   -8.2072   -3.5724    0.2461 C   0  0  2  0  0  0  0  0  0  0  0  0
   -7.2037   -4.1100   -0.7896 C   0  0  2  0  0  0  0  0  0  0  0  0
   -6.1793   -2.9976   -1.2203 C   0  0  1  0  0  0  0  0  0  0  0  0
   -5.1975   -3.5205   -2.3082 C   0  0  0  0  0  0  0  0  0  0  0  0
   -5.9462    2.8478    2.3729 C   0  0  1  0  0  0  0  0  0  0  0  0
   -4.9135    1.6417    2.1037 C   0  0  0  0  0  0  0  0  0  0  0  0
   -5.7213    0.2846    1.8619 C   0  0  2  0  0  0  0  0  0  0  0  0
   -7.9170   -4.5882   -1.9794 F   0  0  0  0  0  0  0  0  0  0  0  0
  -10.0087   -1.8448    0.6705 N   0  0  0  0  0  0  0  0  0  0  0  0
   -5.8158   -3.9930   -3.4885 N   0  0  0  0  0  0  0  0  0  0  0  0
   -5.1294    4.0898    2.5942 N   0  0  0  0  0  0  0  0  0  0  0  0
   -4.7685   -0.8168    1.6139 N   0  0  0  0  0  0  0  0  0  0  0  0
   -7.3502   -0.7757    0.4500 O   0  0  0  0  0  0  0  0  0  0  0  0
   -8.5417    1.7477   -0.3577 O   0  0  0  0  0  0  0  0  0  0  0  0
   -7.7981    4.0083    1.2465 O   0  0  0  0  0  0  0  0  0  0  0  0
   -8.9468   -4.4148    0.5045 O   0  0  0  0  0  0  0  0  0  0  0  0
   -7.0096   -1.7958   -1.7066 O   0  0  0  0  0  0  0  0  0  0  0  0
  1  5  1  0  0  0  0
  1 18  1  1  0  0  0
  2 18  1  1  0  0  0
  2  3  1  0  0  0  0
  2 12  1  0  0  0  0
  3 19  1  6  0  0  0
  3  4  1  0  0  0  0
  4 20  1  1  0  0  0
  4 10  1  0  0  0  0
  5  6  1  0  0  0  0
  5 14  1  1  0  0  0
  6 21  1  6  0  0  0
  7 13  1  6  0  0  0
  7  6  1  0  0  0  0
  8  9  1  6  0  0  0
  8  7  1  0  0  0  0
 10 16  1  6  0  0  0
 11 10  1  0  0  0  0
 12 17  1  6  0  0  0
 12 11  1  0  0  0  0
 15  9  1  0  0  0  0
 22  8  1  0  0  0  0
 22  1  1  0  0  0  0
M  END
>  <CHROM.1>
-161.47021000,78.16552874,58.14040532,-7.07929615,-0.79360810,0.10549692
1.71062097,-0.10691426,-2.69189482

>  <Name>
lig.pdb

>  <RI>
0

>  <Rbt.Current_Directory>
/home/itssahil/PROJECTS/Mol_Feturizer/New_Systems/rnas/5bws

>  <Rbt.Executable>
rbdock ($Id: //depot/dev/client3/rdock/2013.1/src/exe/rbdock.cxx#4 $)

>  <Rbt.Library>
libRbt.so (2013.1, Build901 2013/11/27)

>  <Rbt.Parameter_File>
/export/apps/rDock/src/rDock_2013.1_src/data/scripts/dock_solv.prm

>  <Rbt.Receptor>
prm/pocket_docking_5.prm

>  <SCORE>
-10.2379

>  <SCORE.INTER>
-9.34121

>  <SCORE.INTER.CONST>
1

>  <SCORE.INTER.POLAR>
0

>  <SCORE.INTER.ROT>
3

>  <SCORE.INTER.SOLV>
21.9614

>  <SCORE.INTER.VDW>
-19.1479

>  <SCORE.INTER.norm>
-0.4246

>  <SCORE.INTRA>
-0.896735

>  <SCORE.INTRA.DIHEDRAL>
-3.01858

>  <SCORE.INTRA.DIHEDRAL.0>
6.10773

>  <SCORE.INTRA.POLAR>
0

>  <SCORE.INTRA.POLAR.0>
0

>  <SCORE.INTRA.REPUL>
0

>  <SCORE.INTRA.REPUL.0>
0

>  <SCORE.INTRA.SOLV>
0.893432

>  <SCORE.INTRA.SOLV.lig_0>
-71.4024

>  <SCORE.INTRA.VDW>
0.165838

>  <SCORE.INTRA.VDW.0>
-1.86213

>  <SCORE.INTRA.norm>
-0.0407607

>  <SCORE.RESTR>
0

>  <SCORE.RESTR.CAVITY>
0

>  <SCORE.RESTR.norm>
0

>  <SCORE.SYSTEM>
0

>  <SCORE.SYSTEM.CONST>
0

>  <SCORE.SYSTEM.DIHEDRAL>
0

>  <SCORE.SYSTEM.SOLV>
0

>  <SCORE.SYSTEM.norm>
0

>  <SCORE.heavy>
22

>  <SCORE.norm>
-0.465361

>  <RMSD>
2.150

$$$$
lig.pdb
 OpenBabel11021811523D
libRbt.so/2013.1/901 2013/11/27
 22 23  0  0  0  0  0  0  0  0999 V2000
   -8.0249   -1.2379   -0.6956 C   0  0  1  0  0  0  0  0  0  0  0  0
   -6.6842    0.4559    0.6177 C   0  0  1  0  0  0  0  0  0  0  0  0
   -7.7197    1.6444    0.8463 C   0  0  1  0  0  0  0  0  0  0  0  0
   -6.8857    2.9902    1.0426 C   0  0  2  0  0  0  0  0  0  0  0  0
   -9.0206   -2.4095   -0.3408 C   0  0  1  0  0  0  0  0  0  0  0  0
   -8.1954   -3.5785    0.2326 C   0  0  2  0  0  0  0  0  0  0  0  0
   -7.1851   -4.0980   -0.8056 C   0  0  2  0  0  0  0  0  0  0  0  0
   -6.1768   -2.9697   -1.2329 C   0  0  1  0  0  0  0  0  0  0  0  0
   -5.1884   -3.4747   -2.3233 C   0  0  0  0  0  0  0  0  0  0  0  0
   -5.9648    2.8542    2.3601 C   0  0  1  0  0  0  0  0  0  0  0  0
   -4.9350    1.6451    2.0934 C   0  0  0  0  0  0  0  0  0  0  0  0
   -5.7460    0.2892    1.8551 C   0  0  2  0  0  0  0  0  0  0  0  0
   -7.8924   -4.5819   -1.9967 F   0  0  0  0  0  0  0  0  0  0  0  0
  -10.0208   -1.8780    0.6645 N   0  0  0  0  0  0  0  0  0  0  0  0
   -5.8004   -3.9424   -3.5087 N   0  0  0  0  0  0  0  0  0  0  0  0
   -5.1450    4.0948    2.5781 N   0  0  0  0  0  0  0  0  0  0  0  0
   -4.7959   -0.8150    1.6095 N   0  0  0  0  0  0  0  0  0  0  0  0
   -7.3779   -0.7707    0.4464 O   0  0  0  0  0  0  0  0  0  0  0  0
   -8.5637    1.7536   -0.3670 O   0  0  0  0  0  0  0  0  0  0  0  0
   -7.8144    4.0163    1.2315 O   0  0  0  0  0  0  0  0  0  0  0  0
   -8.9229   -4.4321    0.4884 O   0  0  0  0  0  0  0  0  0  0  0  0
   -7.0243   -1.7780   -1.7142 O   0  0  0  0  0  0  0  0  0  0  0  0
  1  5  1  0  0  0  0
  1 18  1  1  0  0  0
  2 18  1  1  0  0  0
  2  3  1  0  0  0  0
  2 12  1  0  0  0  0
  3 19  1  6  0  0  0
  3  4  1  0  0  0  0
  4 20  1  1  0  0  0
  4 10  1  0  0  0  0
  5  6  1  0  0  0  0
  5 14  1  1  0  0  0
  6 21  1  6  0  0  0
  7 13  1  6  0  0  0
  7  6  1  0  0  0  0
  8  9  1  6  0  0  0
  8  7  1  0  0  0  0
 10 16  1  6  0  0  0
 11 10  1  0  0  0  0
 12 17  1  6  0  0  0
 12 11  1  0  0  0  0
 15  9  1  0  0  0  0
 22  8  1  0  0  0  0
 22  1  1  0  0  0  0
M  END
>  <CHROM.1>
-162.68659937,78.61511293,58.58345718,-7.08731075,-0.78705896,0.09425175
1.70732046,-0.11537355,-2.69139946

>  <Name>
lig.pdb

>  <RI>
0

>  <Rbt.Current_Directory>
/home/itssahil/PROJECTS/Mol_Feturizer/New_Systems/rnas/5bws

>  <Rbt.Executable>
rbdock ($Id: //depot/dev/client3/rdock/2013.1/src/exe/rbdock.cxx#4 $)

>  <Rbt.Library>
libRbt.so (2013.1, Build901 2013/11/27)

>  <Rbt.Parameter_File>
/export/apps/rDock/src/rDock_2013.1_src/data/scripts/dock_solv.prm

>  <Rbt.Receptor>
prm/pocket_docking_4.prm

>  <SCORE>
-10.2561

>  <SCORE.INTER>
-9.27234

>  <SCORE.INTER.CONST>
1

>  <SCORE.INTER.POLAR>
0

>  <SCORE.INTER.ROT>
3

>  <SCORE.INTER.SOLV>
22.1904

>  <SCORE.INTER.VDW>
-19.1784

>  <SCORE.INTER.norm>
-0.42147

>  <SCORE.INTRA>
-0.983776

>  <SCORE.INTRA.DIHEDRAL>
-3.13922

>  <SCORE.INTRA.DIHEDRAL.0>
6.10773

>  <SCORE.INTRA.POLAR>
0

>  <SCORE.INTRA.POLAR.0>
0

>  <SCORE.INTRA.REPUL>
0

>  <SCORE.INTRA.REPUL.0>
0

>  <SCORE.INTRA.SOLV>
0.869345

>  <SCORE.INTRA.SOLV.lig_0>
-71.4024

>  <SCORE.INTRA.VDW>
0.151162

>  <SCORE.INTRA.VDW.0>
-1.86213

>  <SCORE.INTRA.norm>
-0.0447171

>  <SCORE.RESTR>
0

>  <SCORE.RESTR.CAVITY>
0

>  <SCORE.RESTR.norm>
0

>  <SCORE.SYSTEM>
0

>  <SCORE.SYSTEM.CONST>
0

>  <SCORE.SYSTEM.DIHEDRAL>
0

>  <SCORE.SYSTEM.SOLV>
0

>  <SCORE.SYSTEM.norm>
0

>  <SCORE.heavy>
22

>  <SCORE.norm>
-0.466187

>  <RMSD>
2.168

$$$$
lig.pdb
 OpenBabel11021811523D
libRbt.so/2013.1/901 2013/11/27
 22 23  0  0  0  0  0  0  0  0999 V2000
   -8.0253   -1.2648   -0.6823 C   0  0  1  0  0  0  0  0  0  0  0  0
   -6.6856    0.4381    0.6201 C   0  0  1  0  0  0  0  0  0  0  0  0
   -7.7291    1.6192    0.8506 C   0  0  1  0  0  0  0  0  0  0  0  0
   -6.9044    2.9716    1.0411 C   0  0  2  0  0  0  0  0  0  0  0  0
   -9.0077   -2.4452   -0.3193 C   0  0  1  0  0  0  0  0  0  0  0  0
   -8.1670   -3.6081    0.2439 C   0  0  2  0  0  0  0  0  0  0  0  0
   -7.1631   -4.1177   -0.8053 C   0  0  2  0  0  0  0  0  0  0  0  0
   -6.1685   -2.9805   -1.2409 C   0  0  1  0  0  0  0  0  0  0  0  0
   -5.1871   -3.4756   -2.3421 C   0  0  0  0  0  0  0  0  0  0  0  0
   -5.9774    2.8450    2.3552 C   0  0  1  0  0  0  0  0  0  0  0  0
   -4.9396    1.6432    2.0867 C   0  0  0  0  0  0  0  0  0  0  0  0
   -5.7413    0.2808    1.8542 C   0  0  2  0  0  0  0  0  0  0  0  0
   -7.8784   -4.6057   -1.9900 F   0  0  0  0  0  0  0  0  0  0  0  0
  -10.0020   -1.9235    0.6969 N   0  0  0  0  0  0  0  0  0  0  0  0
   -5.8079   -3.9799   -3.5077 N   0  0  0  0  0  0  0  0  0  0  0  0
   -5.1661    4.0922    2.5676 N   0  0  0  0  0  0  0  0  0  0  0  0
   -4.7838   -0.8166    1.6069 N   0  0  0  0  0  0  0  0  0  0  0  0
   -7.3706   -0.7940    0.4538 O   0  0  0  0  0  0  0  0  0  0  0  0
   -8.5787    1.7197   -0.3596 O   0  0  0  0  0  0  0  0  0  0  0  0
   -7.8401    3.9910    1.2317 O   0  0  0  0  0  0  0  0  0  0  0  0
   -8.8848   -4.4682    0.5057 O   0  0  0  0  0  0  0  0  0  0  0  0
   -7.0306   -1.7951   -1.7118 O   0  0  0  0  0  0  0  0  0  0  0  0
  1  5  1  0  0  0  0
  1 18  1  1  0  0  0
  2 18  1  1  0  0  0
  2  3  1  0  0  0  0
  2 12  1  0  0  0  0
  3 19  1  6  0  0  0
  3  4  1  0  0  0  0
  4 20  1  1  0  0  0
  4 10  1  0  0  0  0
  5  6  1  0  0  0  0
  5 14  1  1  0  0  0
  6 21  1  6  0  0  0
  7 13  1  6  0  0  0
  7  6  1  0  0  0  0
  8  9  1  6  0  0  0
  8  7  1  0  0  0  0
 10 16  1  6  0  0  0
 11 10  1  0  0  0  0
 12 17  1  6  0  0  0
 12 11  1  0  0  0  0
 15  9  1  0  0  0  0
 22  8  1  0  0  0  0
 22  1  1  0  0  0  0
M  END
>  <CHROM.1>
-162.67905238,78.20335155,56.96344730,-7.08518218,-0.80784021,0.09777466
1.70344467,-0.12446191,-2.69200798

>  <Name>
lig.pdb

>  <RI>
0

>  <Rbt.Current_Directory>
/home/itssahil/PROJECTS/Mol_Feturizer/New_Systems/rnas/5bws

>  <Rbt.Executable>
rbdock ($Id: //depot/dev/client3/rdock/2013.1/src/exe/rbdock.cxx#4 $)

>  <Rbt.Library>
libRbt.so (2013.1, Build901 2013/11/27)

>  <Rbt.Parameter_File>
/export/apps/rDock/src/rDock_2013.1_src/data/scripts/dock_solv.prm

>  <Rbt.Receptor>
prm/pocket_docking_8.prm

>  <SCORE>
-10.267

>  <SCORE.INTER>
-9.29658

>  <SCORE.INTER.CONST>
1

>  <SCORE.INTER.POLAR>
0

>  <SCORE.INTER.ROT>
3

>  <SCORE.INTER.SOLV>
22.0568

>  <SCORE.INTER.VDW>
-19.15

>  <SCORE.INTER.norm>
-0.422572

>  <SCORE.INTRA>
-0.970414

>  <SCORE.INTRA.DIHEDRAL>
-3.17564

>  <SCORE.INTRA.DIHEDRAL.0>
6.10773

>  <SCORE.INTRA.POLAR>
0

>  <SCORE.INTRA.POLAR.0>
0

>  <SCORE.INTRA.REPUL>
0

>  <SCORE.INTRA.REPUL.0>
0

>  <SCORE.INTRA.SOLV>
0.862274

>  <SCORE.INTRA.SOLV.lig_0>
-71.4024

>  <SCORE.INTRA.VDW>
0.186269

>  <SCORE.INTRA.VDW.0>
-1.86213

>  <SCORE.INTRA.norm>
-0.0441097

>  <SCORE.RESTR>
0

>  <SCORE.RESTR.CAVITY>
0

>  <SCORE.RESTR.norm>
0

>  <SCORE.SYSTEM>
0

>  <SCORE.SYSTEM.CONST>
0

>  <SCORE.SYSTEM.DIHEDRAL>
0

>  <SCORE.SYSTEM.SOLV>
0

>  <SCORE.SYSTEM.norm>
0

>  <SCORE.heavy>
22

>  <SCORE.norm>
-0.466681

>  <RMSD>
2.177

$$$$
lig.pdb
 OpenBabel11021811523D
libRbt.so/2013.1/901 2013/11/27
 22 23  0  0  0  0  0  0  0  0999 V2000
   -8.0240   -1.2624   -0.6927 C   0  0  1  0  0  0  0  0  0  0  0  0
   -6.7019    0.4514    0.6135 C   0  0  1  0  0  0  0  0  0  0  0  0
   -7.7459    1.6309    0.8500 C   0  0  1  0  0  0  0  0  0  0  0  0
   -6.9222    2.9841    1.0386 C   0  0  2  0  0  0  0  0  0  0  0  0
   -9.0203   -2.4318   -0.3320 C   0  0  1  0  0  0  0  0  0  0  0  0
   -8.1972   -3.5928    0.2603 C   0  0  2  0  0  0  0  0  0  0  0  0
   -7.1786   -4.1220   -0.7649 C   0  0  2  0  0  0  0  0  0  0  0  0
   -6.1692   -2.9967   -1.1974 C   0  0  1  0  0  0  0  0  0  0  0  0
   -5.1721   -3.5119   -2.2750 C   0  0  0  0  0  0  0  0  0  0  0  0
   -5.9891    2.8571    2.3483 C   0  0  1  0  0  0  0  0  0  0  0  0
   -4.9509    1.6570    2.0738 C   0  0  0  0  0  0  0  0  0  0  0  0
   -5.7519    0.2938    1.8431 C   0  0  2  0  0  0  0  0  0  0  0  0
   -7.8765   -4.6203   -1.9556 F   0  0  0  0  0  0  0  0  0  0  0  0
  -10.0286   -1.8910    0.6601 N   0  0  0  0  0  0  0  0  0  0  0  0
   -5.7742   -3.9840   -3.4637 N   0  0  0  0  0  0  0  0  0  0  0  0
   -5.1785    4.1051    2.5587 N   0  0  0  0  0  0  0  0  0  0  0  0
   -4.7942   -0.8021    1.5902 N   0  0  0  0  0  0  0  0  0  0  0  0
   -7.3861   -0.7813    0.4487 O   0  0  0  0  0  0  0  0  0  0  0  0
   -8.6010    1.7317   -0.3562 O   0  0  0  0  0  0  0  0  0  0  0  0
   -7.8583    4.0021    1.2346 O   0  0  0  0  0  0  0  0  0  0  0  0
   -8.9250   -4.4449    0.5203 O   0  0  0  0  0  0  0  0  0  0  0  0
   -7.0152   -1.8119   -1.6979 O   0  0  0  0  0  0  0  0  0  0  0  0
  1  5  1  0  0  0  0
  1 18  1  1  0  0  0
  2 18  1  1  0  0  0
  2  3  1  0  0  0  0
  2 12  1  0  0  0  0
  3 19  1  6  0  0  0
  3  4  1  0  0  0  0
  4 20  1  1  0  0  0
  4 10  1  0  0  0  0
  5  6  1  0  0  0  0
  5 14  1  1  0  0  0
  6 21  1  6  0  0  0
  7 13  1  6  0  0  0
  7  6  1  0  0  0  0
  8  9  1  6  0  0  0
  8  7  1  0  0  0  0
 10 16  1  6  0  0  0
 11 10  1  0  0  0  0
 12 17  1  6  0  0  0
 12 11  1  0  0  0  0
 15  9  1  0  0  0  0
 22  8  1  0  0  0  0
 22  1  1  0  0  0  0
M  END
>  <CHROM.1>
-162.32004893,79.49979313,59.06118125,-7.09517002,-0.80204296,0.10503715
1.70091430,-0.11242025,-2.69962550

>  <Name>
lig.pdb

>  <RI>
0

>  <Rbt.Current_Directory>
/home/itssahil/PROJECTS/Mol_Feturizer/New_Systems/rnas/5bws

>  <Rbt.Executable>
rbdock ($Id: //depot/dev/client3/rdock/2013.1/src/exe/rbdock.cxx#4 $)

>  <Rbt.Library>
libRbt.so (2013.1, Build901 2013/11/27)

>  <Rbt.Parameter_File>
/export/apps/rDock/src/rDock_2013.1_src/data/scripts/dock_solv.prm

>  <Rbt.Receptor>
prm/pocket_docking_6.prm

>  <SCORE>
-10.2568

>  <SCORE.INTER>
-9.36925

>  <SCORE.INTER.CONST>
1

>  <SCORE.INTER.POLAR>
0

>  <SCORE.INTER.ROT>
3

>  <SCORE.INTER.SOLV>
21.9002

>  <SCORE.INTER.VDW>
-19.1462

>  <SCORE.INTER.norm>
-0.425875

>  <SCORE.INTRA>
-0.887521

>  <SCORE.INTRA.DIHEDRAL>
-2.9485

>  <SCORE.INTRA.DIHEDRAL.0>
6.10773

>  <SCORE.INTRA.POLAR>
0

>  <SCORE.INTRA.POLAR.0>
0

>  <SCORE.INTRA.REPUL>
0

>  <SCORE.INTRA.REPUL.0>
0

>  <SCORE.INTRA.SOLV>
0.912798

>  <SCORE.INTRA.SOLV.lig_0>
-71.4024

>  <SCORE.INTRA.VDW>
0.130328

>  <SCORE.INTRA.VDW.0>
-1.86213

>  <SCORE.INTRA.norm>
-0.0403419

>  <SCORE.RESTR>
0

>  <SCORE.RESTR.CAVITY>
0

>  <SCORE.RESTR.norm>
0

>  <SCORE.SYSTEM>
0

>  <SCORE.SYSTEM.CONST>
0

>  <SCORE.SYSTEM.DIHEDRAL>
0

>  <SCORE.SYSTEM.SOLV>
0

>  <SCORE.SYSTEM.norm>
0

>  <SCORE.heavy>
22

>  <SCORE.norm>
-0.466217

>  <RMSD>
2.183

$$$$
lig.pdb
 OpenBabel11021811523D
libRbt.so/2013.1/901 2013/11/27
 22 23  0  0  0  0  0  0  0  0999 V2000
   -6.6031   -0.5897   -0.4992 C   0  0  1  0  0  0  0  0  0  0  0  0
   -5.4079    0.1284    1.6096 C   0  0  1  0  0  0  0  0  0  0  0  0
   -3.9332   -0.3466    1.2399 C   0  0  1  0  0  0  0  0  0  0  0  0
   -2.9077    0.5345    2.0868 C   0  0  2  0  0  0  0  0  0  0  0  0
   -8.0322   -1.1687   -0.8346 C   0  0  1  0  0  0  0  0  0  0  0  0
   -8.0628   -2.6458   -0.3944 C   0  0  2  0  0  0  0  0  0  0  0  0
   -7.0134   -3.4688   -1.1623 C   0  0  2  0  0  0  0  0  0  0  0  0
   -5.5612   -2.9255   -0.9010 C   0  0  1  0  0  0  0  0  0  0  0  0
   -4.5022   -3.7196   -1.7187 C   0  0  0  0  0  0  0  0  0  0  0  0
   -3.0667    2.0832    1.6645 C   0  0  1  0  0  0  0  0  0  0  0  0
   -4.5662    2.5261    2.0504 C   0  0  0  0  0  0  0  0  0  0  0  0
   -5.6166    1.6324    1.2436 C   0  0  2  0  0  0  0  0  0  0  0  0
   -7.2900   -3.4176   -2.6025 F   0  0  0  0  0  0  0  0  0  0  0  0
   -9.0550   -0.3364   -0.0897 N   0  0  0  0  0  0  0  0  0  0  0  0
   -4.5479   -5.1220   -1.5460 N   0  0  0  0  0  0  0  0  0  0  0  0
   -2.1302    2.9575    2.4500 N   0  0  0  0  0  0  0  0  0  0  0  0
   -6.9894    2.0425    1.6034 N   0  0  0  0  0  0  0  0  0  0  0  0
   -6.3620   -0.6210    0.8726 O   0  0  0  0  0  0  0  0  0  0  0  0
   -3.8030   -1.7716    1.6255 O   0  0  0  0  0  0  0  0  0  0  0  0
   -1.6252    0.0933    1.7525 O   0  0  0  0  0  0  0  0  0  0  0  0
   -9.1046   -3.0664   -0.6418 O   0  0  0  0  0  0  0  0  0  0  0  0
   -5.5780   -1.4282   -1.2584 O   0  0  0  0  0  0  0  0  0  0  0  0
  1  5  1  0  0  0  0
  1 18  1  1  0  0  0
  2 18  1  6  0  0  0
  2  3  1  0  0  0  0
  2 12  1  0  0  0  0
  3 19  1  1  0  0  0
  3  4  1  0  0  0  0
  4 20  1  6  0  0  0
  4 10  1  0  0  0  0
  5  6  1  0  0  0  0
  5 14  1  1  0  0  0
  6 21  1  6  0  0  0
  7 13  1  6  0  0  0
  7  6  1  0  0  0  0
  8  9  1  6  0  0  0
  8  7  1  0  0  0  0
 10 16  1  1  0  0  0
 11 10  1  0  0  0  0
 12 17  1  1  0  0  0
 12 11  1  0  0  0  0
 15  9  1  0  0  0  0
 22  8  1  0  0  0  0
 22  1  1  0  0  0  0
M  END
>  <CHROM.1>
-160.23749548,-68.28986333,-53.24404900,-5.55196654,-0.90939668,0.25360234
2.15969225,0.17930730,-2.64465233

>  <Name>
lig.pdb

>  <RI>
0

>  <Rbt.Current_Directory>
/home/itssahil/PROJECTS/Mol_Feturizer/New_Systems/rnas/5bws

>  <Rbt.Executable>
rbdock ($Id: //depot/dev/client3/rdock/2013.1/src/exe/rbdock.cxx#4 $)

>  <Rbt.Library>
libRbt.so (2013.1, Build901 2013/11/27)

>  <Rbt.Parameter_File>
/export/apps/rDock/src/rDock_2013.1_src/data/scripts/dock_solv.prm

>  <Rbt.Receptor>
prm/pocket_docking_2.prm

>  <SCORE>
-9.74732

>  <SCORE.INTER>
-8.63213

>  <SCORE.INTER.CONST>
1

>  <SCORE.INTER.POLAR>
0

>  <SCORE.INTER.ROT>
3

>  <SCORE.INTER.SOLV>
17.4208

>  <SCORE.INTER.VDW>
-17.1617

>  <SCORE.INTER.norm>
-0.392369

>  <SCORE.INTRA>
-1.17827

>  <SCORE.INTRA.DIHEDRAL>
-3.84742

>  <SCORE.INTRA.DIHEDRAL.0>
6.10773

>  <SCORE.INTRA.POLAR>
0

>  <SCORE.INTRA.POLAR.0>
0

>  <SCORE.INTRA.REPUL>
0

>  <SCORE.INTRA.REPUL.0>
0

>  <SCORE.INTRA.SOLV>
1.12934

>  <SCORE.INTRA.SOLV.lig_0>
-71.4024

>  <SCORE.INTRA.VDW>
0.18077

>  <SCORE.INTRA.VDW.0>
-1.86213

>  <SCORE.INTRA.norm>
-0.0535579

>  <SCORE.RESTR>
0.063085

>  <SCORE.RESTR.CAVITY>
0.063085

>  <SCORE.RESTR.norm>
0.0028675

>  <SCORE.SYSTEM>
0

>  <SCORE.SYSTEM.CONST>
0

>  <SCORE.SYSTEM.DIHEDRAL>
0

>  <SCORE.SYSTEM.SOLV>
0

>  <SCORE.SYSTEM.norm>
0

>  <SCORE.heavy>
22

>  <SCORE.norm>
-0.44306

>  <RMSD>
2.264

$$$$
lig.pdb
 OpenBabel11021811523D
libRbt.so/2013.1/901 2013/11/27
 22 23  0  0  0  0  0  0  0  0999 V2000
   -6.3977   -1.4748   -1.4846 C   0  0  1  0  0  0  0  0  0  0  0  0
   -4.9419   -0.3903    0.2749 C   0  0  1  0  0  0  0  0  0  0  0  0
   -3.5223   -0.6963    0.9291 C   0  0  1  0  0  0  0  0  0  0  0  0
   -3.2504    0.4073    2.0487 C   0  0  2  0  0  0  0  0  0  0  0  0
   -7.6484   -1.6745   -0.5434 C   0  0  1  0  0  0  0  0  0  0  0  0
   -7.4498   -2.9871    0.2402 C   0  0  2  0  0  0  0  0  0  0  0  0
   -7.3655   -4.1897   -0.7164 C   0  0  2  0  0  0  0  0  0  0  0  0
   -6.1562   -4.0426   -1.7105 C   0  0  1  0  0  0  0  0  0  0  0  0
   -6.1000   -5.2289   -2.7156 C   0  0  0  0  0  0  0  0  0  0  0  0
   -3.1901    1.8618    1.3539 C   0  0  1  0  0  0  0  0  0  0  0  0
   -4.6379    2.1347    0.7035 C   0  0  0  0  0  0  0  0  0  0  0  0
   -4.9531    1.0198   -0.3967 C   0  0  2  0  0  0  0  0  0  0  0  0
   -8.6074   -4.3050   -1.4894 F   0  0  0  0  0  0  0  0  0  0  0  0
   -7.7310   -0.4746    0.3769 N   0  0  0  0  0  0  0  0  0  0  0  0
   -4.9675   -5.2373   -3.5617 N   0  0  0  0  0  0  0  0  0  0  0  0
   -2.9521    2.9396    2.3739 N   0  0  0  0  0  0  0  0  0  0  0  0
   -6.2827    1.2748   -0.9878 N   0  0  0  0  0  0  0  0  0  0  0  0
   -5.2286   -1.3421   -0.7385 O   0  0  0  0  0  0  0  0  0  0  0  0
   -3.5889   -2.0372    1.5566 O   0  0  0  0  0  0  0  0  0  0  0  0
   -2.0070    0.1121    2.6124 O   0  0  0  0  0  0  0  0  0  0  0  0
   -8.3636   -3.1318    0.9240 O   0  0  0  0  0  0  0  0  0  0  0  0
   -6.3244   -2.6836   -2.4139 O   0  0  0  0  0  0  0  0  0  0  0  0
  1  5  1  0  0  0  0
  1 18  1  1  0  0  0
  2 18  1  6  0  0  0
  2  3  1  0  0  0  0
  2 12  1  0  0  0  0
  3 19  1  1  0  0  0
  3  4  1  0  0  0  0
  4 20  1  6  0  0  0
  4 10  1  0  0  0  0
  5  6  1  0  0  0  0
  5 14  1  1  0  0  0
  6 21  1  1  0  0  0
  7 13  1  6  0  0  0
  7  6  1  0  0  0  0
  8  9  1  6  0  0  0
  8  7  1  0  0  0  0
 10 16  1  1  0  0  0
 11 10  1  0  0  0  0
 12 17  1  1  0  0  0
 12 11  1  0  0  0  0
 15  9  1  0  0  0  0
 22  8  1  0  0  0  0
 22  1  1  0  0  0  0
M  END
>  <CHROM.1>
-56.96746440,175.49519752,-174.27002851,-5.56704994,-1.43608058,-0.16192771
2.10550821,0.16227421,-2.68873791

>  <Name>
lig.pdb

>  <RI>
0

>  <Rbt.Current_Directory>
/home/itssahil/PROJECTS/Mol_Feturizer/New_Systems/rnas/5bws

>  <Rbt.Executable>
rbdock ($Id: //depot/dev/client3/rdock/2013.1/src/exe/rbdock.cxx#4 $)

>  <Rbt.Library>
libRbt.so (2013.1, Build901 2013/11/27)

>  <Rbt.Parameter_File>
/export/apps/rDock/src/rDock_2013.1_src/data/scripts/dock_solv.prm

>  <Rbt.Receptor>
prm/pocket_docking_2.prm

>  <SCORE>
-8.79477

>  <SCORE.INTER>
-8.8888

>  <SCORE.INTER.CONST>
1

>  <SCORE.INTER.POLAR>
0

>  <SCORE.INTER.ROT>
3

>  <SCORE.INTER.SOLV>
17.2906

>  <SCORE.INTER.VDW>
-17.2894

>  <SCORE.INTER.norm>
-0.404037

>  <SCORE.INTRA>
0.0937932

>  <SCORE.INTRA.DIHEDRAL>
-5.84273

>  <SCORE.INTRA.DIHEDRAL.0>
6.10773

>  <SCORE.INTRA.POLAR>
0

>  <SCORE.INTRA.POLAR.0>
0

>  <SCORE.INTRA.REPUL>
0

>  <SCORE.INTRA.REPUL.0>
0

>  <SCORE.INTRA.SOLV>
3.66594

>  <SCORE.INTRA.SOLV.lig_0>
-71.4024

>  <SCORE.INTRA.VDW>
1.18219

>  <SCORE.INTRA.VDW.0>
-1.86213

>  <SCORE.INTRA.norm>
0.00426333

>  <SCORE.RESTR>
0.000241974

>  <SCORE.RESTR.CAVITY>
0.000241974

>  <SCORE.RESTR.norm>
1.09988e-05

>  <SCORE.SYSTEM>
0

>  <SCORE.SYSTEM.CONST>
0

>  <SCORE.SYSTEM.DIHEDRAL>
0

>  <SCORE.SYSTEM.SOLV>
0

>  <SCORE.SYSTEM.norm>
0

>  <SCORE.heavy>
22

>  <SCORE.norm>
-0.399762

>  <RMSD>
2.306

$$$$
lig.pdb
 OpenBabel11021811523D
libRbt.so/2013.1/901 2013/11/27
 22 23  0  0  0  0  0  0  0  0999 V2000
   -7.7828   -1.6298   -0.9559 C   0  0  1  0  0  0  0  0  0  0  0  0
   -6.3203    0.0459    0.2459 C   0  0  1  0  0  0  0  0  0  0  0  0
   -7.2861    1.1765   -0.3251 C   0  0  1  0  0  0  0  0  0  0  0  0
   -6.5960    2.5903   -0.0603 C   0  0  2  0  0  0  0  0  0  0  0  0
   -8.8118   -2.6940   -0.4092 C   0  0  1  0  0  0  0  0  0  0  0  0
   -8.0197   -3.9440    0.0227 C   0  0  2  0  0  0  0  0  0  0  0  0
   -7.2731   -4.5607   -1.1735 C   0  0  2  0  0  0  0  0  0  0  0  0
   -6.2495   -3.5407   -1.7930 C   0  0  1  0  0  0  0  0  0  0  0  0
   -5.5323   -4.1405   -3.0366 C   0  0  0  0  0  0  0  0  0  0  0  0
   -6.4351    2.8107    1.5296 C   0  0  1  0  0  0  0  0  0  0  0  0
   -5.4567    1.6514    2.0702 C   0  0  0  0  0  0  0  0  0  0  0  0
   -6.1069    0.2204    1.7832 C   0  0  2  0  0  0  0  0  0  0  0  0
   -8.2306   -4.9646   -2.2095 F   0  0  0  0  0  0  0  0  0  0  0  0
   -9.5532   -2.0663    0.7525 N   0  0  0  0  0  0  0  0  0  0  0  0
   -4.9093   -5.3904   -2.8175 N   0  0  0  0  0  0  0  0  0  0  0  0
   -5.7724    4.1258    1.8295 N   0  0  0  0  0  0  0  0  0  0  0  0
   -5.2039   -0.8381    2.2799 N   0  0  0  0  0  0  0  0  0  0  0  0
   -6.8949   -1.2362    0.0430 O   0  0  0  0  0  0  0  0  0  0  0  0
   -7.4314    0.9581   -1.7837 O   0  0  0  0  0  0  0  0  0  0  0  0
   -7.4561    3.5620   -0.5772 O   0  0  0  0  0  0  0  0  0  0  0  0
   -8.7718   -4.7192    0.4187 O   0  0  0  0  0  0  0  0  0  0  0  0
   -7.0443   -2.2661   -2.1306 O   0  0  0  0  0  0  0  0  0  0  0  0
  1  5  1  0  0  0  0
  1 18  1  1  0  0  0
  2 18  1  1  0  0  0
  2  3  1  0  0  0  0
  2 12  1  0  0  0  0
  3 19  1  6  0  0  0
  3  4  1  0  0  0  0
  4 20  1  1  0  0  0
  4 10  1  0  0  0  0
  5  6  1  0  0  0  0
  5 14  1  1  0  0  0
  6 21  1  6  0  0  0
  7 13  1  6  0  0  0
  7  6  1  0  0  0  0
  8  9  1  6  0  0  0
  8  7  1  0  0  0  0
 10 16  1  6  0  0  0
 11 10  1  0  0  0  0
 12 17  1  6  0  0  0
 12 11  1  0  0  0  0
 15  9  1  0  0  0  0
 22  8  1  0  0  0  0
 22  1  1  0  0  0  0
M  END
>  <CHROM.1>
-145.06710920,27.72113508,-53.62508726,-6.99464848,-1.18383083,-0.33886987
-1.78626783,1.01922033,0.53123020

>  <Name>
lig.pdb

>  <RI>
0

>  <Rbt.Current_Directory>
/home/itssahil/PROJECTS/Mol_Feturizer/New_Systems/rnas/5bws

>  <Rbt.Executable>
rbdock ($Id: //depot/dev/client3/rdock/2013.1/src/exe/rbdock.cxx#4 $)

>  <Rbt.Library>
libRbt.so (2013.1, Build901 2013/11/27)

>  <Rbt.Parameter_File>
/export/apps/rDock/src/rDock_2013.1_src/data/scripts/dock_solv.prm

>  <Rbt.Receptor>
prm/pocket_docking_7.prm

>  <SCORE>
-6.73135

>  <SCORE.INTER>
-9.05275

>  <SCORE.INTER.CONST>
1

>  <SCORE.INTER.POLAR>
0

>  <SCORE.INTER.ROT>
3

>  <SCORE.INTER.SOLV>
16.8597

>  <SCORE.INTER.VDW>
-17.2551

>  <SCORE.INTER.norm>
-0.411489

>  <SCORE.INTRA>
2.3214

>  <SCORE.INTRA.DIHEDRAL>
2.58528

>  <SCORE.INTRA.DIHEDRAL.0>
6.10773

>  <SCORE.INTRA.POLAR>
0

>  <SCORE.INTRA.POLAR.0>
0

>  <SCORE.INTRA.REPUL>
0

>  <SCORE.INTRA.REPUL.0>
0

>  <SCORE.INTRA.SOLV>
-0.545737

>  <SCORE.INTRA.SOLV.lig_0>
-71.4024

>  <SCORE.INTRA.VDW>
1.30163

>  <SCORE.INTRA.VDW.0>
-1.86213

>  <SCORE.INTRA.norm>
0.105518

>  <SCORE.RESTR>
0

>  <SCORE.RESTR.CAVITY>
0

>  <SCORE.RESTR.norm>
0

>  <SCORE.SYSTEM>
0

>  <SCORE.SYSTEM.CONST>
0

>  <SCORE.SYSTEM.DIHEDRAL>
0

>  <SCORE.SYSTEM.SOLV>
0

>  <SCORE.SYSTEM.norm>
0

>  <SCORE.heavy>
22

>  <SCORE.norm>
-0.30597

>  <RMSD>
2.391

$$$$
lig.pdb
 OpenBabel11021811523D
libRbt.so/2013.1/901 2013/11/27
 22 23  0  0  0  0  0  0  0  0999 V2000
   -7.7358    0.1108   -0.4269 C   0  0  1  0  0  0  0  0  0  0  0  0
   -6.3166    1.6542    0.9856 C   0  0  1  0  0  0  0  0  0  0  0  0
   -7.4005    2.7477    1.3934 C   0  0  1  0  0  0  0  0  0  0  0  0
   -6.6275    4.1020    1.7306 C   0  0  2  0  0  0  0  0  0  0  0  0
   -9.2019   -0.2804    0.0062 C   0  0  1  0  0  0  0  0  0  0  0  0
   -9.1180   -1.5468    0.8812 C   0  0  2  0  0  0  0  0  0  0  0  0
   -8.5161   -2.7215    0.0898 C   0  0  2  0  0  0  0  0  0  0  0  0
   -7.0610   -2.3887   -0.4045 C   0  0  1  0  0  0  0  0  0  0  0  0
   -6.4695   -3.5516   -1.2522 C   0  0  0  0  0  0  0  0  0  0  0  0
   -5.6521    3.8543    2.9913 C   0  0  1  0  0  0  0  0  0  0  0  0
   -4.5743    2.7447    2.5433 C   0  0  0  0  0  0  0  0  0  0  0  0
   -5.3253    1.3868    2.1625 C   0  0  2  0  0  0  0  0  0  0  0  0
   -9.3569   -3.0272   -1.0732 F   0  0  0  0  0  0  0  0  0  0  0  0
   -9.7886    0.8918    0.7646 N   0  0  0  0  0  0  0  0  0  0  0  0
   -5.1503   -3.3387   -1.7136 N   0  0  0  0  0  0  0  0  0  0  0  0
   -4.8873    5.1009    3.3373 N   0  0  0  0  0  0  0  0  0  0  0  0
   -4.3315    0.3743    1.7510 N   0  0  0  0  0  0  0  0  0  0  0  0
   -6.9545    0.4225    0.6837 O   0  0  0  0  0  0  0  0  0  0  0  0
   -8.2940    2.9601    0.2303 O   0  0  0  0  0  0  0  0  0  0  0  0
   -7.5983    5.0453    2.0754 O   0  0  0  0  0  0  0  0  0  0  0  0
  -10.1879   -1.8314    1.1939 O   0  0  0  0  0  0  0  0  0  0  0  0
   -7.1532   -1.0717   -1.1965 O   0  0  0  0  0  0  0  0  0  0  0  0
  1  5  1  0  0  0  0
  1 18  1  1  0  0  0
  2 18  1  1  0  0  0
  2  3  1  0  0  0  0
  2 12  1  0  0  0  0
  3 19  1  6  0  0  0
  3  4  1  0  0  0  0
  4 20  1  1  0  0  0
  4 10  1  0  0  0  0
  5  6  1  0  0  0  0
  5 14  1  1  0  0  0
  6 21  1  6  0  0  0
  7 13  1  6  0  0  0
  7  6  1  0  0  0  0
  8  9  1  6  0  0  0
  8  7  1  0  0  0  0
 10 16  1  6  0  0  0
 11 10  1  0  0  0  0
 12 17  1  6  0  0  0
 12 11  1  0  0  0  0
 15  9  1  0  0  0  0
 22  8  1  0  0  0  0
 22  1  1  0  0  0  0
M  END
>  <CHROM.1>
-118.75416729,71.40247854,-178.85280256,-7.22653845,0.48537443,0.72138954
1.84623879,0.07441454,-2.73450013

>  <Name>
lig.pdb

>  <RI>
0

>  <Rbt.Current_Directory>
/home/itssahil/PROJECTS/Mol_Feturizer/New_Systems/rnas/5bws

>  <Rbt.Executable>
rbdock ($Id: //depot/dev/client3/rdock/2013.1/src/exe/rbdock.cxx#4 $)

>  <Rbt.Library>
libRbt.so (2013.1, Build901 2013/11/27)

>  <Rbt.Parameter_File>
/export/apps/rDock/src/rDock_2013.1_src/data/scripts/dock_solv.prm

>  <Rbt.Receptor>
prm/pocket_docking_7.prm

>  <SCORE>
-6.4048

>  <SCORE.INTER>
-8.02792

>  <SCORE.INTER.CONST>
1

>  <SCORE.INTER.POLAR>
0

>  <SCORE.INTER.ROT>
3

>  <SCORE.INTER.SOLV>
15.7884

>  <SCORE.INTER.VDW>
-16.2148

>  <SCORE.INTER.norm>
-0.364906

>  <SCORE.INTRA>
1.62312

>  <SCORE.INTRA.DIHEDRAL>
1.71334

>  <SCORE.INTRA.DIHEDRAL.0>
6.10773

>  <SCORE.INTRA.POLAR>
0

>  <SCORE.INTRA.POLAR.0>
0

>  <SCORE.INTRA.REPUL>
0

>  <SCORE.INTRA.REPUL.0>
0

>  <SCORE.INTRA.SOLV>
0.587586

>  <SCORE.INTRA.SOLV.lig_0>
-71.4024

>  <SCORE.INTRA.VDW>
0.472657

>  <SCORE.INTRA.VDW.0>
-1.86213

>  <SCORE.INTRA.norm>
0.0737782

>  <SCORE.RESTR>
0

>  <SCORE.RESTR.CAVITY>
0

>  <SCORE.RESTR.norm>
0

>  <SCORE.SYSTEM>
0

>  <SCORE.SYSTEM.CONST>
0

>  <SCORE.SYSTEM.DIHEDRAL>
0

>  <SCORE.SYSTEM.SOLV>
0

>  <SCORE.SYSTEM.norm>
0

>  <SCORE.heavy>
22

>  <SCORE.norm>
-0.291127

>  <RMSD>
2.406

$$$$
lig.pdb
 OpenBabel11021811523D
libRbt.so/2013.1/901 2013/11/27
 22 23  0  0  0  0  0  0  0  0999 V2000
   -5.8243   -0.7946   -0.4423 C   0  0  1  0  0  0  0  0  0  0  0  0
   -4.6727   -0.3019    1.7537 C   0  0  1  0  0  0  0  0  0  0  0  0
   -3.2763   -0.9046    1.2806 C   0  0  1  0  0  0  0  0  0  0  0  0
   -2.1364   -0.2899    2.2123 C   0  0  2  0  0  0  0  0  0  0  0  0
   -7.3281   -0.9289   -0.9011 C   0  0  1  0  0  0  0  0  0  0  0  0
   -7.8531   -2.2953   -0.4177 C   0  0  2  0  0  0  0  0  0  0  0  0
   -7.0489   -3.4462   -1.0479 C   0  0  2  0  0  0  0  0  0  0  0  0
   -5.5279   -3.3575   -0.6591 C   0  0  1  0  0  0  0  0  0  0  0  0
   -4.7013   -4.4869   -1.3388 C   0  0  0  0  0  0  0  0  0  0  0  0
   -2.0962    1.3104    2.0131 C   0  0  1  0  0  0  0  0  0  0  0  0
   -3.5213    1.8824    2.4984 C   0  0  0  0  0  0  0  0  0  0  0  0
   -4.6871    1.2528    1.6054 C   0  0  2  0  0  0  0  0  0  0  0  0
   -7.1711   -3.4033   -2.5095 F   0  0  0  0  0  0  0  0  0  0  0  0
   -8.1022    0.2211   -0.2915 N   0  0  0  0  0  0  0  0  0  0  0  0
   -3.3295   -4.5060   -0.9981 N   0  0  0  0  0  0  0  0  0  0  0  0
   -1.0460    1.9384    2.8855 N   0  0  0  0  0  0  0  0  0  0  0  0
   -5.9911    1.7801    2.0568 N   0  0  0  0  0  0  0  0  0  0  0  0
   -5.7237   -0.8119    0.9472 O   0  0  0  0  0  0  0  0  0  0  0  0
   -3.3292   -2.3745    1.4615 O   0  0  0  0  0  0  0  0  0  0  0  0
   -0.9257   -0.8397    1.7844 O   0  0  0  0  0  0  0  0  0  0  0  0
   -8.9486   -2.3921   -0.7551 O   0  0  0  0  0  0  0  0  0  0  0  0
   -5.0486   -1.9521   -1.0658 O   0  0  0  0  0  0  0  0  0  0  0  0
  1  5  1  0  0  0  0
  1 18  1  1  0  0  0
  2 18  1  6  0  0  0
  2  3  1  0  0  0  0
  2 12  1  0  0  0  0
  3 19  1  1  0  0  0
  3  4  1  0  0  0  0
  4 20  1  6  0  0  0
  4 10  1  0  0  0  0
  5  6  1  0  0  0  0
  5 14  1  1  0  0  0
  6 21  1  6  0  0  0
  7 13  1  6  0  0  0
  7  6  1  0  0  0  0
  8  9  1  6  0  0  0
  8  7  1  0  0  0  0
 10 16  1  1  0  0  0
 11 10  1  0  0  0  0
 12 17  1  1  0  0  0
 12 11  1  0  0  0  0
 15  9  1  0  0  0  0
 22  8  1  0  0  0  0
 22  1  1  0  0  0  0
M  END
>  <CHROM.1>
-157.75108818,-53.48681874,-177.71233925,-4.95004655,-1.18128142,0.40850609
2.34972685,0.27835309,-2.64031370

>  <Name>
lig.pdb

>  <RI>
0

>  <Rbt.Current_Directory>
/home/itssahil/PROJECTS/Mol_Feturizer/New_Systems/rnas/5bws

>  <Rbt.Executable>
rbdock ($Id: //depot/dev/client3/rdock/2013.1/src/exe/rbdock.cxx#4 $)

>  <Rbt.Library>
libRbt.so (2013.1, Build901 2013/11/27)

>  <Rbt.Parameter_File>
/export/apps/rDock/src/rDock_2013.1_src/data/scripts/dock_solv.prm

>  <Rbt.Receptor>
prm/pocket_docking_4.prm

>  <SCORE>
-9.98718

>  <SCORE.INTER>
-8.81495

>  <SCORE.INTER.CONST>
1

>  <SCORE.INTER.POLAR>
0

>  <SCORE.INTER.ROT>
3

>  <SCORE.INTER.SOLV>
22.316

>  <SCORE.INTER.VDW>
-18.9153

>  <SCORE.INTER.norm>
-0.40068

>  <SCORE.INTRA>
-1.17223

>  <SCORE.INTRA.DIHEDRAL>
-3.70072

>  <SCORE.INTRA.DIHEDRAL.0>
6.10773

>  <SCORE.INTRA.POLAR>
0

>  <SCORE.INTRA.POLAR.0>
0

>  <SCORE.INTRA.REPUL>
0

>  <SCORE.INTRA.REPUL.0>
0

>  <SCORE.INTRA.SOLV>
1.56569

>  <SCORE.INTRA.SOLV.lig_0>
-71.4024

>  <SCORE.INTRA.VDW>
-0.104715

>  <SCORE.INTRA.VDW.0>
-1.86213

>  <SCORE.INTRA.norm>
-0.053283

>  <SCORE.RESTR>
0

>  <SCORE.RESTR.CAVITY>
0

>  <SCORE.RESTR.norm>
0

>  <SCORE.SYSTEM>
0

>  <SCORE.SYSTEM.CONST>
0

>  <SCORE.SYSTEM.DIHEDRAL>
0

>  <SCORE.SYSTEM.SOLV>
0

>  <SCORE.SYSTEM.norm>
0

>  <SCORE.heavy>
22

>  <SCORE.norm>
-0.453963

>  <RMSD>
2.410

$$$$
lig.pdb
 OpenBabel11021811523D
libRbt.so/2013.1/901 2013/11/27
 22 23  0  0  0  0  0  0  0  0999 V2000
   -5.8168   -1.4511   -0.5071 C   0  0  1  0  0  0  0  0  0  0  0  0
   -4.9844   -0.5250    1.6931 C   0  0  1  0  0  0  0  0  0  0  0  0
   -3.4453   -0.7004    1.3221 C   0  0  1  0  0  0  0  0  0  0  0  0
   -2.6017    0.2836    2.2523 C   0  0  2  0  0  0  0  0  0  0  0  0
   -7.1704   -2.0920   -1.0042 C   0  0  1  0  0  0  0  0  0  0  0  0
   -7.2421   -3.5332   -0.4619 C   0  0  2  0  0  0  0  0  0  0  0  0
   -6.0767   -4.3811   -1.0016 C   0  0  2  0  0  0  0  0  0  0  0  0
   -4.6887   -3.7805   -0.5714 C   0  0  1  0  0  0  0  0  0  0  0  0
   -3.5069   -4.6029   -1.1611 C   0  0  0  0  0  0  0  0  0  0  0  0
   -3.0325    1.8063    1.9392 C   0  0  1  0  0  0  0  0  0  0  0  0
   -4.5903    1.9446    2.3235 C   0  0  0  0  0  0  0  0  0  0  0  0
   -5.4564    0.9407    1.4319 C   0  0  2  0  0  0  0  0  0  0  0  0
   -6.1364   -4.4429   -2.4665 F   0  0  0  0  0  0  0  0  0  0  0  0
   -8.3061   -1.2359   -0.4839 N   0  0  0  0  0  0  0  0  0  0  0  0
   -3.4472   -4.6281   -2.5733 N   0  0  0  0  0  0  0  0  0  0  0  0
   -2.2746    2.7724    2.8057 N   0  0  0  0  0  0  0  0  0  0  0  0
   -6.8835    1.0714    1.7906 N   0  0  0  0  0  0  0  0  0  0  0  0
   -5.7824   -1.3753    0.8837 O   0  0  0  0  0  0  0  0  0  0  0  0
   -3.0648   -2.1042    1.6069 O   0  0  0  0  0  0  0  0  0  0  0  0
   -1.2581    0.1044    1.9149 O   0  0  0  0  0  0  0  0  0  0  0  0
   -8.2284   -3.9992   -0.8273 O   0  0  0  0  0  0  0  0  0  0  0  0
   -4.6765   -2.3143   -1.0406 O   0  0  0  0  0  0  0  0  0  0  0  0
  1  5  1  0  0  0  0
  1 18  1  1  0  0  0
  2 18  1  6  0  0  0
  2  3  1  0  0  0  0
  2 12  1  0  0  0  0
  3 19  1  1  0  0  0
  3  4  1  0  0  0  0
  4 20  1  6  0  0  0
  4 10  1  0  0  0  0
  5  6  1  0  0  0  0
  5 14  1  1  0  0  0
  6 21  1  6  0  0  0
  7 13  1  6  0  0  0
  7  6  1  0  0  0  0
  8  9  1  6  0  0  0
  8  7  1  0  0  0  0
 10 16  1  1  0  0  0
 11 10  1  0  0  0  0
 12 17  1  1  0  0  0
 12 11  1  0  0  0  0
 15  9  1  0  0  0  0
 22  8  1  0  0  0  0
 22  1  1  0  0  0  0
M  END
>  <CHROM.1>
-158.55092008,-54.78441521,62.03610289,-4.94423409,-1.53187456,0.31253114
2.00040798,0.11738007,-2.58137673

>  <Name>
lig.pdb

>  <RI>
0

>  <Rbt.Current_Directory>
/home/itssahil/PROJECTS/Mol_Feturizer/New_Systems/rnas/5bws

>  <Rbt.Executable>
rbdock ($Id: //depot/dev/client3/rdock/2013.1/src/exe/rbdock.cxx#4 $)

>  <Rbt.Library>
libRbt.so (2013.1, Build901 2013/11/27)

>  <Rbt.Parameter_File>
/export/apps/rDock/src/rDock_2013.1_src/data/scripts/dock_solv.prm

>  <Rbt.Receptor>
prm/blind_docking_20.prm

>  <SCORE>
-9.33486

>  <SCORE.INTER>
-9.16774

>  <SCORE.INTER.CONST>
1

>  <SCORE.INTER.POLAR>
0

>  <SCORE.INTER.ROT>
3

>  <SCORE.INTER.SOLV>
21.4869

>  <SCORE.INTER.VDW>
-18.8741

>  <SCORE.INTER.norm>
-0.416716

>  <SCORE.INTRA>
-0.855153

>  <SCORE.INTRA.DIHEDRAL>
-3.91571

>  <SCORE.INTRA.DIHEDRAL.0>
6.10773

>  <SCORE.INTRA.POLAR>
0

>  <SCORE.INTRA.POLAR.0>
0

>  <SCORE.INTRA.REPUL>
0

>  <SCORE.INTRA.REPUL.0>
0

>  <SCORE.INTRA.SOLV>
2.19567

>  <SCORE.INTRA.SOLV.lig_0>
-71.4024

>  <SCORE.INTRA.VDW>
0.00486725

>  <SCORE.INTRA.VDW.0>
-1.86213

>  <SCORE.INTRA.norm>
-0.0388706

>  <SCORE.RESTR>
0.68804

>  <SCORE.RESTR.CAVITY>
0.68804

>  <SCORE.RESTR.norm>
0.0312745

>  <SCORE.SYSTEM>
0

>  <SCORE.SYSTEM.CONST>
0

>  <SCORE.SYSTEM.DIHEDRAL>
0

>  <SCORE.SYSTEM.SOLV>
0

>  <SCORE.SYSTEM.norm>
0

>  <SCORE.heavy>
22

>  <SCORE.norm>
-0.424312

>  <RMSD>
2.418

$$$$
lig.pdb
 OpenBabel11021811523D
libRbt.so/2013.1/901 2013/11/27
 22 23  0  0  0  0  0  0  0  0999 V2000
   -5.9317   -0.9755   -0.2732 C   0  0  1  0  0  0  0  0  0  0  0  0
   -4.6849   -0.4157    1.8536 C   0  0  1  0  0  0  0  0  0  0  0  0
   -3.2459   -0.9145    1.3873 C   0  0  1  0  0  0  0  0  0  0  0  0
   -2.1541   -0.1468    2.2612 C   0  0  2  0  0  0  0  0  0  0  0  0
   -7.3200   -1.6241   -0.6502 C   0  0  1  0  0  0  0  0  0  0  0  0
   -7.2600   -3.1213   -0.2884 C   0  0  2  0  0  0  0  0  0  0  0  0
   -6.1572   -3.8356   -1.0896 C   0  0  2  0  0  0  0  0  0  0  0  0
   -4.7433   -3.2173   -0.7881 C   0  0  1  0  0  0  0  0  0  0  0  0
   -3.6325   -3.8995   -1.6376 C   0  0  0  0  0  0  0  0  0  0  0  0
   -2.2642    1.4366    1.9734 C   0  0  1  0  0  0  0  0  0  0  0  0
   -3.7287    1.9030    2.4543 C   0  0  0  0  0  0  0  0  0  0  0  0
   -4.8444    1.1204    1.6203 C   0  0  2  0  0  0  0  0  0  0  0  0
   -6.4293   -3.7257   -2.5274 F   0  0  0  0  0  0  0  0  0  0  0  0
   -8.3966   -0.8977    0.1287 N   0  0  0  0  0  0  0  0  0  0  0  0
   -3.4930   -5.2903   -1.4260 N   0  0  0  0  0  0  0  0  0  0  0  0
   -1.2637    2.2060    2.7893 N   0  0  0  0  0  0  0  0  0  0  0  0
   -6.1847    1.5514    2.0674 N   0  0  0  0  0  0  0  0  0  0  0  0
   -5.6960   -1.0641    1.0971 O   0  0  0  0  0  0  0  0  0  0  0  0
   -3.1608   -2.3706    1.6498 O   0  0  0  0  0  0  0  0  0  0  0  0
   -0.9043   -0.6075    1.8406 O   0  0  0  0  0  0  0  0  0  0  0  0
   -8.2721   -3.5924   -0.5661 O   0  0  0  0  0  0  0  0  0  0  0  0
   -4.8522   -1.7072   -1.0667 O   0  0  0  0  0  0  0  0  0  0  0  0
  1  5  1  0  0  0  0
  1 18  1  1  0  0  0
  2 18  1  6  0  0  0
  2  3  1  0  0  0  0
  2 12  1  0  0  0  0
  3 19  1  1  0  0  0
  3  4  1  0  0  0  0
  4 20  1  6  0  0  0
  4 10  1  0  0  0  0
  5  6  1  0  0  0  0
  5 14  1  1  0  0  0
  6 21  1  6  0  0  0
  7 13  1  6  0  0  0
  7  6  1  0  0  0  0
  8  9  1  6  0  0  0
  8  7  1  0  0  0  0
 10 16  1  1  0  0  0
 11 10  1  0  0  0  0
 12 17  1  1  0  0  0
 12 11  1  0  0  0  0
 15  9  1  0  0  0  0
 22  8  1  0  0  0  0
 22  1  1  0  0  0  0
M  END
>  <CHROM.1>
-168.64090819,-63.74794526,-59.97731110,-4.77298438,-1.38712462,0.44296634
2.17404530,0.15922065,-2.57965658

>  <Name>
lig.pdb

>  <RI>
0

>  <Rbt.Current_Directory>
/home/itssahil/PROJECTS/Mol_Feturizer/New_Systems/rnas/5bws

>  <Rbt.Executable>
rbdock ($Id: //depot/dev/client3/rdock/2013.1/src/exe/rbdock.cxx#4 $)

>  <Rbt.Library>
libRbt.so (2013.1, Build901 2013/11/27)

>  <Rbt.Parameter_File>
/export/apps/rDock/src/rDock_2013.1_src/data/scripts/dock_solv.prm

>  <Rbt.Receptor>
prm/blind_docking_20.prm

>  <SCORE>
-10.7765

>  <SCORE.INTER>
-9.26443

>  <SCORE.INTER.CONST>
1

>  <SCORE.INTER.POLAR>
0

>  <SCORE.INTER.ROT>
3

>  <SCORE.INTER.SOLV>
20.6847

>  <SCORE.INTER.VDW>
-18.6712

>  <SCORE.INTER.norm>
-0.421111

>  <SCORE.INTRA>
-2.30161

>  <SCORE.INTRA.DIHEDRAL>
-5.4179

>  <SCORE.INTRA.DIHEDRAL.0>
6.10773

>  <SCORE.INTRA.POLAR>
0

>  <SCORE.INTRA.POLAR.0>
0

>  <SCORE.INTRA.REPUL>
0

>  <SCORE.INTRA.REPUL.0>
0

>  <SCORE.INTRA.SOLV>
0.593472

>  <SCORE.INTRA.SOLV.lig_0>
-71.4024

>  <SCORE.INTRA.VDW>
0.110607

>  <SCORE.INTRA.VDW.0>
-1.86213

>  <SCORE.INTRA.norm>
-0.104619

>  <SCORE.RESTR>
0.789511

>  <SCORE.RESTR.CAVITY>
0.789511

>  <SCORE.RESTR.norm>
0.0358868

>  <SCORE.SYSTEM>
0

>  <SCORE.SYSTEM.CONST>
0

>  <SCORE.SYSTEM.DIHEDRAL>
0

>  <SCORE.SYSTEM.SOLV>
0

>  <SCORE.SYSTEM.norm>
0

>  <SCORE.heavy>
22

>  <SCORE.norm>
-0.489842

>  <RMSD>
2.448

$$$$
lig.pdb
 OpenBabel11021811523D
libRbt.so/2013.1/901 2013/11/27
 22 23  0  0  0  0  0  0  0  0999 V2000
   -5.7146   -1.2055   -0.3332 C   0  0  1  0  0  0  0  0  0  0  0  0
   -4.6175   -0.4835    1.8270 C   0  0  1  0  0  0  0  0  0  0  0  0
   -3.1554   -0.9540    1.4052 C   0  0  1  0  0  0  0  0  0  0  0  0
   -2.1052   -0.1481    2.2957 C   0  0  2  0  0  0  0  0  0  0  0  0
   -7.1195   -1.7834   -0.7605 C   0  0  1  0  0  0  0  0  0  0  0  0
   -7.2132   -3.2343   -0.2484 C   0  0  2  0  0  0  0  0  0  0  0  0
   -6.1161   -4.1105   -0.8786 C   0  0  2  0  0  0  0  0  0  0  0  0
   -4.6826   -3.5726   -0.5210 C   0  0  1  0  0  0  0  0  0  0  0  0
   -3.5712   -4.4226   -1.2015 C   0  0  0  0  0  0  0  0  0  0  0  0
   -2.2453    1.4280    1.9820 C   0  0  1  0  0  0  0  0  0  0  0  0
   -3.7326    1.8657    2.4181 C   0  0  0  0  0  0  0  0  0  0  0  0
   -4.8072    1.0448    1.5671 C   0  0  2  0  0  0  0  0  0  0  0  0
   -6.2672   -4.1327   -2.3380 F   0  0  0  0  0  0  0  0  0  0  0  0
   -8.1878   -0.8996   -0.1514 N   0  0  0  0  0  0  0  0  0  0  0  0
   -3.5979   -4.4131   -2.6149 N   0  0  0  0  0  0  0  0  0  0  0  0
   -1.2850    2.2327    2.8121 N   0  0  0  0  0  0  0  0  0  0  0  0
   -6.1686    1.4497    1.9732 N   0  0  0  0  0  0  0  0  0  0  0  0
   -5.5928   -1.1666    1.0542 O   0  0  0  0  0  0  0  0  0  0  0  0
   -3.0426   -2.4038    1.6912 O   0  0  0  0  0  0  0  0  0  0  0  0
   -0.8343   -0.5843    1.9143 O   0  0  0  0  0  0  0  0  0  0  0  0
   -8.2370   -3.6542   -0.5629 O   0  0  0  0  0  0  0  0  0  0  0  0
   -4.6428   -2.0963   -0.9560 O   0  0  0  0  0  0  0  0  0  0  0  0
  1  5  1  0  0  0  0
  1 18  1  1  0  0  0
  2 18  1  6  0  0  0
  2  3  1  0  0  0  0
  2 12  1  0  0  0  0
  3 19  1  1  0  0  0
  3  4  1  0  0  0  0
  4 20  1  6  0  0  0
  4 10  1  0  0  0  0
  5  6  1  0  0  0  0
  5 14  1  1  0  0  0
  6 21  1  6  0  0  0
  7 13  1  6  0  0  0
  7  6  1  0  0  0  0
  8  9  1  6  0  0  0
  8  7  1  0  0  0  0
 10 16  1  1  0  0  0
 11 10  1  0  0  0  0
 12 17  1  1  0  0  0
 12 11  1  0  0  0  0
 15  9  1  0  0  0  0
 22  8  1  0  0  0  0
 22  1  1  0  0  0  0
M  END
>  <CHROM.1>
-166.33848841,-56.93395389,62.08492674,-4.69433139,-1.48495400,0.42666879
2.14793456,0.13755956,-2.56698575

>  <Name>
lig.pdb

>  <RI>
0

>  <Rbt.Current_Directory>
/home/itssahil/PROJECTS/Mol_Feturizer/New_Systems/rnas/5bws

>  <Rbt.Executable>
rbdock ($Id: //depot/dev/client3/rdock/2013.1/src/exe/rbdock.cxx#4 $)

>  <Rbt.Library>
libRbt.so (2013.1, Build901 2013/11/27)

>  <Rbt.Parameter_File>
/export/apps/rDock/src/rDock_2013.1_src/data/scripts/dock_solv.prm

>  <Rbt.Receptor>
prm/blind_docking_20.prm

>  <SCORE>
-9.71978

>  <SCORE.INTER>
-8.93891

>  <SCORE.INTER.CONST>
1

>  <SCORE.INTER.POLAR>
0

>  <SCORE.INTER.ROT>
3

>  <SCORE.INTER.SOLV>
22.4626

>  <SCORE.INTER.VDW>
-19.0468

>  <SCORE.INTER.norm>
-0.406314

>  <SCORE.INTRA>
-1.59861

>  <SCORE.INTRA.DIHEDRAL>
-5.16098

>  <SCORE.INTRA.DIHEDRAL.0>
6.10773

>  <SCORE.INTRA.POLAR>
0

>  <SCORE.INTRA.POLAR.0>
0

>  <SCORE.INTRA.REPUL>
0

>  <SCORE.INTRA.REPUL.0>
0

>  <SCORE.INTRA.SOLV>
1.82011

>  <SCORE.INTRA.SOLV.lig_0>
-71.4024

>  <SCORE.INTRA.VDW>
0.0718224

>  <SCORE.INTRA.VDW.0>
-1.86213

>  <SCORE.INTRA.norm>
-0.0726643

>  <SCORE.RESTR>
0.817747

>  <SCORE.RESTR.CAVITY>
0.817747

>  <SCORE.RESTR.norm>
0.0371703

>  <SCORE.SYSTEM>
0

>  <SCORE.SYSTEM.CONST>
0

>  <SCORE.SYSTEM.DIHEDRAL>
0

>  <SCORE.SYSTEM.SOLV>
0

>  <SCORE.SYSTEM.norm>
0

>  <SCORE.heavy>
22

>  <SCORE.norm>
-0.441808

>  <RMSD>
2.464

$$$$
lig.pdb
 OpenBabel11021811523D
libRbt.so/2013.1/901 2013/11/27
 22 23  0  0  0  0  0  0  0  0999 V2000
   -5.4967   -0.8956   -0.7162 C   0  0  1  0  0  0  0  0  0  0  0  0
   -4.7936   -0.1526    1.5957 C   0  0  1  0  0  0  0  0  0  0  0  0
   -3.2911   -0.6429    1.3975 C   0  0  1  0  0  0  0  0  0  0  0  0
   -2.3806    0.1263    2.4579 C   0  0  2  0  0  0  0  0  0  0  0  0
   -6.8598   -1.2896   -1.4067 C   0  0  1  0  0  0  0  0  0  0  0  0
   -7.2684   -2.6842   -0.8923 C   0  0  2  0  0  0  0  0  0  0  0  0
   -6.2119   -3.7385   -1.2674 C   0  0  2  0  0  0  0  0  0  0  0  0
   -4.8132   -3.3916   -0.6385 C   0  0  1  0  0  0  0  0  0  0  0  0
   -3.7290   -4.4247   -1.0604 C   0  0  0  0  0  0  0  0  0  0  0  0
   -2.4448    1.7104    2.1596 C   0  0  1  0  0  0  0  0  0  0  0  0
   -3.9748    2.1681    2.3674 C   0  0  0  0  0  0  0  0  0  0  0  0
   -4.9159    1.3836    1.3419 C   0  0  2  0  0  0  0  0  0  0  0  0
   -6.0735   -3.8144   -2.7262 F   0  0  0  0  0  0  0  0  0  0  0  0
   -7.8831   -0.2329   -1.0466 N   0  0  0  0  0  0  0  0  0  0  0  0
   -3.4518   -4.4622   -2.4461 N   0  0  0  0  0  0  0  0  0  0  0  0
   -1.6135    2.4812    3.1463 N   0  0  0  0  0  0  0  0  0  0  0  0
   -6.3175    1.8067    1.5389 N   0  0  0  0  0  0  0  0  0  0  0  0
   -5.6466   -0.8027    0.6658 O   0  0  0  0  0  0  0  0  0  0  0  0
   -3.2475   -2.0996    1.6667 O   0  0  0  0  0  0  0  0  0  0  0  0
   -1.0727   -0.3269    2.2704 O   0  0  0  0  0  0  0  0  0  0  0  0
   -8.2610   -2.9703   -1.3986 O   0  0  0  0  0  0  0  0  0  0  0  0
   -4.4683   -1.9604   -1.0888 O   0  0  0  0  0  0  0  0  0  0  0  0
  1  5  1  0  0  0  0
  1 18  1  1  0  0  0
  2 18  1  6  0  0  0
  2  3  1  0  0  0  0
  2 12  1  0  0  0  0
  3 19  1  1  0  0  0
  3  4  1  0  0  0  0
  4 20  1  6  0  0  0
  4 10  1  0  0  0  0
  5  6  1  0  0  0  0
  5 14  1  1  0  0  0
  6 21  1  6  0  0  0
  7 13  1  6  0  0  0
  7  6  1  0  0  0  0
  8  9  1  6  0  0  0
  8  7  1  0  0  0  0
 10 16  1  1  0  0  0
 11 10  1  0  0  0  0
 12 17  1  1  0  0  0
 12 11  1  0  0  0  0
 15  9  1  0  0  0  0
 22  8  1  0  0  0  0
 22  1  1  0  0  0  0
M  END
>  <CHROM.1>
-162.00560946,-51.79933080,63.51315247,-4.74845958,-1.16523047,0.22210559
2.10383950,0.33149739,-2.59445775

>  <Name>
lig.pdb

>  <RI>
0

>  <Rbt.Current_Directory>
/home/itssahil/PROJECTS/Mol_Feturizer/New_Systems/rnas/5bws

>  <Rbt.Executable>
rbdock ($Id: //depot/dev/client3/rdock/2013.1/src/exe/rbdock.cxx#4 $)

>  <Rbt.Library>
libRbt.so (2013.1, Build901 2013/11/27)

>  <Rbt.Parameter_File>
/export/apps/rDock/src/rDock_2013.1_src/data/scripts/dock_solv.prm

>  <Rbt.Receptor>
prm/pocket_docking_5.prm

>  <SCORE>
-10.9371

>  <SCORE.INTER>
-9.82769

>  <SCORE.INTER.CONST>
1

>  <SCORE.INTER.POLAR>
0

>  <SCORE.INTER.ROT>
3

>  <SCORE.INTER.SOLV>
21.5043

>  <SCORE.INTER.VDW>
-19.3199

>  <SCORE.INTER.norm>
-0.446713

>  <SCORE.INTRA>
-1.1094

>  <SCORE.INTRA.DIHEDRAL>
-4.2513

>  <SCORE.INTRA.DIHEDRAL.0>
6.10773

>  <SCORE.INTRA.POLAR>
0

>  <SCORE.INTRA.POLAR.0>
0

>  <SCORE.INTRA.REPUL>
0

>  <SCORE.INTRA.REPUL.0>
0

>  <SCORE.INTRA.SOLV>
1.98607

>  <SCORE.INTRA.SOLV.lig_0>
-71.4024

>  <SCORE.INTRA.VDW>
0.0232142

>  <SCORE.INTRA.VDW.0>
-1.86213

>  <SCORE.INTRA.norm>
-0.0504274

>  <SCORE.RESTR>
0

>  <SCORE.RESTR.CAVITY>
0

>  <SCORE.RESTR.norm>
0

>  <SCORE.SYSTEM>
0

>  <SCORE.SYSTEM.CONST>
0

>  <SCORE.SYSTEM.DIHEDRAL>
0

>  <SCORE.SYSTEM.SOLV>
0

>  <SCORE.SYSTEM.norm>
0

>  <SCORE.heavy>
22

>  <SCORE.norm>
-0.497141

>  <RMSD>
2.481

$$$$
lig.pdb
 OpenBabel11021811523D
libRbt.so/2013.1/901 2013/11/27
 22 23  0  0  0  0  0  0  0  0999 V2000
   -5.5287   -0.9999   -0.6639 C   0  0  1  0  0  0  0  0  0  0  0  0
   -4.7652   -0.1280    1.5829 C   0  0  1  0  0  0  0  0  0  0  0  0
   -3.2965   -0.7259    1.4331 C   0  0  1  0  0  0  0  0  0  0  0  0
   -2.3382    0.0733    2.4271 C   0  0  2  0  0  0  0  0  0  0  0  0
   -6.8883   -1.4947   -1.2937 C   0  0  1  0  0  0  0  0  0  0  0  0
   -7.2382   -2.8564   -0.6616 C   0  0  2  0  0  0  0  0  0  0  0  0
   -6.1512   -3.9007   -0.9719 C   0  0  2  0  0  0  0  0  0  0  0  0
   -4.7554   -3.4566   -0.4004 C   0  0  1  0  0  0  0  0  0  0  0  0
   -3.6423   -4.4827   -0.7597 C   0  0  0  0  0  0  0  0  0  0  0  0
   -2.3042    1.6269    1.9940 C   0  0  1  0  0  0  0  0  0  0  0  0
   -3.8024    2.1949    2.1561 C   0  0  0  0  0  0  0  0  0  0  0  0
   -4.7922    1.3854    1.1980 C   0  0  2  0  0  0  0  0  0  0  0  0
   -6.0348   -4.0892   -2.4225 F   0  0  0  0  0  0  0  0  0  0  0  0
   -7.9425   -0.4481   -0.9992 N   0  0  0  0  0  0  0  0  0  0  0  0
   -3.4489   -4.6884   -2.1449 N   0  0  0  0  0  0  0  0  0  0  0  0
   -1.4250    2.4263    2.9141 N   0  0  0  0  0  0  0  0  0  0  0  0
   -6.1644    1.9101    1.3528 N   0  0  0  0  0  0  0  0  0  0  0  0
   -5.6586   -0.8011    0.7090 O   0  0  0  0  0  0  0  0  0  0  0  0
   -3.3432   -2.1540    1.8262 O   0  0  0  0  0  0  0  0  0  0  0  0
   -1.0613   -0.4746    2.2839 O   0  0  0  0  0  0  0  0  0  0  0  0
   -8.2283   -3.2162   -1.1238 O   0  0  0  0  0  0  0  0  0  0  0  0
   -4.4694   -2.0554   -0.9704 O   0  0  0  0  0  0  0  0  0  0  0  0
  1  5  1  0  0  0  0
  1 18  1  1  0  0  0
  2 18  1  6  0  0  0
  2  3  1  0  0  0  0
  2 12  1  0  0  0  0
  3 19  1  1  0  0  0
  3  4  1  0  0  0  0
  4 20  1  6  0  0  0
  4 10  1  0  0  0  0
  5  6  1  0  0  0  0
  5 14  1  1  0  0  0
  6 21  1  6  0  0  0
  7 13  1  6  0  0  0
  7  6  1  0  0  0  0
  8  9  1  6  0  0  0
  8  7  1  0  0  0  0
 10 16  1  1  0  0  0
 11 10  1  0  0  0  0
 12 17  1  1  0  0  0
 12 11  1  0  0  0  0
 15  9  1  0  0  0  0
 22  8  1  0  0  0  0
 22  1  1  0  0  0  0
M  END
>  <CHROM.1>
-166.80532947,-53.09698923,59.47461019,-4.70770031,-1.26599077,0.29797523
2.13061315,0.33316482,-2.67101021

>  <Name>
lig.pdb

>  <RI>
0

>  <Rbt.Current_Directory>
/home/itssahil/PROJECTS/Mol_Feturizer/New_Systems/rnas/5bws

>  <Rbt.Executable>
rbdock ($Id: //depot/dev/client3/rdock/2013.1/src/exe/rbdock.cxx#4 $)

>  <Rbt.Library>
libRbt.so (2013.1, Build901 2013/11/27)

>  <Rbt.Parameter_File>
/export/apps/rDock/src/rDock_2013.1_src/data/scripts/dock_solv.prm

>  <Rbt.Receptor>
prm/blind_docking_20.prm

>  <SCORE>
-9.91881

>  <SCORE.INTER>
-9.0923

>  <SCORE.INTER.CONST>
1

>  <SCORE.INTER.POLAR>
0

>  <SCORE.INTER.ROT>
3

>  <SCORE.INTER.SOLV>
21.3853

>  <SCORE.INTER.VDW>
-18.79

>  <SCORE.INTER.norm>
-0.413286

>  <SCORE.INTRA>
-1.45151

>  <SCORE.INTRA.DIHEDRAL>
-5.04614

>  <SCORE.INTRA.DIHEDRAL.0>
6.10773

>  <SCORE.INTRA.POLAR>
0

>  <SCORE.INTRA.POLAR.0>
0

>  <SCORE.INTRA.REPUL>
0

>  <SCORE.INTRA.REPUL.0>
0

>  <SCORE.INTRA.SOLV>
1.80131

>  <SCORE.INTRA.SOLV.lig_0>
-71.4024

>  <SCORE.INTRA.VDW>
0.170904

>  <SCORE.INTRA.VDW.0>
-1.86213

>  <SCORE.INTRA.norm>
-0.0659777

>  <SCORE.RESTR>
0.625002

>  <SCORE.RESTR.CAVITY>
0.625002

>  <SCORE.RESTR.norm>
0.0284092

>  <SCORE.SYSTEM>
0

>  <SCORE.SYSTEM.CONST>
0

>  <SCORE.SYSTEM.DIHEDRAL>
0

>  <SCORE.SYSTEM.SOLV>
0

>  <SCORE.SYSTEM.norm>
0

>  <SCORE.heavy>
22

>  <SCORE.norm>
-0.450855

>  <RMSD>
2.493

$$$$
lig.pdb
 OpenBabel11021811523D
libRbt.so/2013.1/901 2013/11/27
 22 23  0  0  0  0  0  0  0  0999 V2000
   -5.5449   -0.9921   -0.6689 C   0  0  1  0  0  0  0  0  0  0  0  0
   -4.7495   -0.1446    1.5762 C   0  0  1  0  0  0  0  0  0  0  0  0
   -3.2881   -0.7451    1.3745 C   0  0  1  0  0  0  0  0  0  0  0  0
   -2.3025    0.0194    2.3691 C   0  0  2  0  0  0  0  0  0  0  0  0
   -6.9081   -1.4900   -1.2884 C   0  0  1  0  0  0  0  0  0  0  0  0
   -7.2539   -2.8489   -0.6480 C   0  0  2  0  0  0  0  0  0  0  0  0
   -6.1686   -3.8945   -0.9598 C   0  0  2  0  0  0  0  0  0  0  0  0
   -4.7695   -3.4475   -0.3986 C   0  0  1  0  0  0  0  0  0  0  0  0
   -3.6583   -4.4750   -0.7596 C   0  0  0  0  0  0  0  0  0  0  0  0
   -2.2697    1.5850    1.9816 C   0  0  1  0  0  0  0  0  0  0  0  0
   -3.7605    2.1554    2.1953 C   0  0  0  0  0  0  0  0  0  0  0  0
   -4.7768    1.3797    1.2370 C   0  0  2  0  0  0  0  0  0  0  0  0
   -6.0606   -4.0896   -2.4102 F   0  0  0  0  0  0  0  0  0  0  0  0
   -7.9607   -0.4423   -0.9926 N   0  0  0  0  0  0  0  0  0  0  0  0
   -3.4392   -4.6504   -2.1451 N   0  0  0  0  0  0  0  0  0  0  0  0
   -1.3649    2.3523    2.9042 N   0  0  0  0  0  0  0  0  0  0  0  0
   -6.1421    1.9064    1.4393 N   0  0  0  0  0  0  0  0  0  0  0  0
   -5.6667   -0.7870    0.7038 O   0  0  0  0  0  0  0  0  0  0  0  0
   -3.3338   -2.1840    1.7262 O   0  0  0  0  0  0  0  0  0  0  0  0
   -1.0324   -0.5304    2.1801 O   0  0  0  0  0  0  0  0  0  0  0  0
   -8.2467   -3.2110   -1.1026 O   0  0  0  0  0  0  0  0  0  0  0  0
   -4.4872   -2.0488   -0.9767 O   0  0  0  0  0  0  0  0  0  0  0  0
  1  5  1  0  0  0  0
  1 18  1  1  0  0  0
  2 18  1  6  0  0  0
  2  3  1  0  0  0  0
  2 12  1  0  0  0  0
  3 19  1  1  0  0  0
  3  4  1  0  0  0  0
  4 20  1  6  0  0  0
  4 10  1  0  0  0  0
  5  6  1  0  0  0  0
  5 14  1  1  0  0  0
  6 21  1  6  0  0  0
  7 13  1  6  0  0  0
  7  6  1  0  0  0  0
  8  9  1  6  0  0  0
  8  7  1  0  0  0  0
 10 16  1  1  0  0  0
 11 10  1  0  0  0  0
 12 17  1  1  0  0  0
 12 11  1  0  0  0  0
 15  9  1  0  0  0  0
 22  8  1  0  0  0  0
 22  1  1  0  0  0  0
M  END
>  <CHROM.1>
-168.86944596,-50.30536429,61.70507211,-4.70400259,-1.27626069,0.29140606
2.14101723,0.31927313,-2.66588821

>  <Name>
lig.pdb

>  <RI>
0

>  <Rbt.Current_Directory>
/home/itssahil/PROJECTS/Mol_Feturizer/New_Systems/rnas/5bws

>  <Rbt.Executable>
rbdock ($Id: //depot/dev/client3/rdock/2013.1/src/exe/rbdock.cxx#4 $)

>  <Rbt.Library>
libRbt.so (2013.1, Build901 2013/11/27)

>  <Rbt.Parameter_File>
/export/apps/rDock/src/rDock_2013.1_src/data/scripts/dock_solv.prm

>  <Rbt.Receptor>
prm/blind_docking_20.prm

>  <SCORE>
-9.84301

>  <SCORE.INTER>
-9.05283

>  <SCORE.INTER.CONST>
1

>  <SCORE.INTER.POLAR>
0

>  <SCORE.INTER.ROT>
3

>  <SCORE.INTER.SOLV>
21.7336

>  <SCORE.INTER.VDW>
-18.8798

>  <SCORE.INTER.norm>
-0.411492

>  <SCORE.INTRA>
-1.41703

>  <SCORE.INTRA.DIHEDRAL>
-5.04684

>  <SCORE.INTRA.DIHEDRAL.0>
6.10773

>  <SCORE.INTRA.POLAR>
0

>  <SCORE.INTRA.POLAR.0>
0

>  <SCORE.INTRA.REPUL>
0

>  <SCORE.INTRA.REPUL.0>
0

>  <SCORE.INTRA.SOLV>
1.67435

>  <SCORE.INTRA.SOLV.lig_0>
-71.4024

>  <SCORE.INTRA.VDW>
0.269218

>  <SCORE.INTRA.VDW.0>
-1.86213

>  <SCORE.INTRA.norm>
-0.0644103

>  <SCORE.RESTR>
0.626849

>  <SCORE.RESTR.CAVITY>
0.626849

>  <SCORE.RESTR.norm>
0.0284931

>  <SCORE.SYSTEM>
0

>  <SCORE.SYSTEM.CONST>
0

>  <SCORE.SYSTEM.DIHEDRAL>
0

>  <SCORE.SYSTEM.SOLV>
0

>  <SCORE.SYSTEM.norm>
0

>  <SCORE.heavy>
22

>  <SCORE.norm>
-0.44741

>  <RMSD>
2.493

$$$$
lig.pdb
 OpenBabel11021811523D
libRbt.so/2013.1/901 2013/11/27
 22 23  0  0  0  0  0  0  0  0999 V2000
   -5.5639   -1.2143   -0.7675 C   0  0  1  0  0  0  0  0  0  0  0  0
   -4.8316   -0.4494    1.5282 C   0  0  1  0  0  0  0  0  0  0  0  0
   -3.3201   -0.9013    1.3088 C   0  0  1  0  0  0  0  0  0  0  0  0
   -2.4130   -0.0989    2.3474 C   0  0  2  0  0  0  0  0  0  0  0  0
   -6.9196   -1.6871   -1.4221 C   0  0  1  0  0  0  0  0  0  0  0  0
   -7.2326   -3.1030   -0.8990 C   0  0  2  0  0  0  0  0  0  0  0  0
   -6.1268   -4.0941   -1.3034 C   0  0  2  0  0  0  0  0  0  0  0  0
   -4.7345   -3.6662   -0.7113 C   0  0  1  0  0  0  0  0  0  0  0  0
   -3.6035   -4.6345   -1.1633 C   0  0  0  0  0  0  0  0  0  0  0  0
   -2.5245    1.4802    2.0372 C   0  0  1  0  0  0  0  0  0  0  0  0
   -4.0626    1.8989    2.2668 C   0  0  0  0  0  0  0  0  0  0  0  0
   -4.9993    1.0807    1.2638 C   0  0  2  0  0  0  0  0  0  0  0  0
   -6.0230   -4.1621   -2.7656 F   0  0  0  0  0  0  0  0  0  0  0  0
   -7.9928   -0.6918   -1.0336 N   0  0  0  0  0  0  0  0  0  0  0  0
   -3.3815   -4.6780   -2.5588 N   0  0  0  0  0  0  0  0  0  0  0  0
   -1.6980    2.2815    3.0033 N   0  0  0  0  0  0  0  0  0  0  0  0
   -6.4082    1.4681    1.4808 N   0  0  0  0  0  0  0  0  0  0  0  0
   -5.6823   -1.1301    0.6182 O   0  0  0  0  0  0  0  0  0  0  0  0
   -3.2331   -2.3539    1.5893 O   0  0  0  0  0  0  0  0  0  0  0  0
   -1.0968   -0.5187    2.1417 O   0  0  0  0  0  0  0  0  0  0  0  0
   -8.2199   -3.4466   -1.3792 O   0  0  0  0  0  0  0  0  0  0  0  0
   -4.4855   -2.2174   -1.1687 O   0  0  0  0  0  0  0  0  0  0  0  0
  1  5  1  0  0  0  0
  1 18  1  1  0  0  0
  2 18  1  6  0  0  0
  2  3  1  0  0  0  0
  2 12  1  0  0  0  0
  3 19  1  1  0  0  0
  3  4  1  0  0  0  0
  4 20  1  6  0  0  0
  4 10  1  0  0  0  0
  5  6  1  0  0  0  0
  5 14  1  1  0  0  0
  6 21  1  6  0  0  0
  7 13  1  6  0  0  0
  7  6  1  0  0  0  0
  8  9  1  6  0  0  0
  8  7  1  0  0  0  0
 10 16  1  1  0  0  0
 11 10  1  0  0  0  0
 12 17  1  1  0  0  0
 12 11  1  0  0  0  0
 15  9  1  0  0  0  0
 22  8  1  0  0  0  0
 22  1  1  0  0  0  0
M  END
>  <CHROM.1>
-163.14169852,-52.85117162,62.18296473,-4.76229233,-1.46691742,0.15411410
2.08106805,0.29167988,-2.58530546

>  <Name>
lig.pdb

>  <RI>
0

>  <Rbt.Current_Directory>
/home/itssahil/PROJECTS/Mol_Feturizer/New_Systems/rnas/5bws

>  <Rbt.Executable>
rbdock ($Id: //depot/dev/client3/rdock/2013.1/src/exe/rbdock.cxx#4 $)

>  <Rbt.Library>
libRbt.so (2013.1, Build901 2013/11/27)

>  <Rbt.Parameter_File>
/export/apps/rDock/src/rDock_2013.1_src/data/scripts/dock_solv.prm

>  <Rbt.Receptor>
prm/pocket_docking_8.prm

>  <SCORE>
-11.2522

>  <SCORE.INTER>
-10.0131

>  <SCORE.INTER.CONST>
1

>  <SCORE.INTER.POLAR>
0

>  <SCORE.INTER.ROT>
3

>  <SCORE.INTER.SOLV>
21.7705

>  <SCORE.INTER.VDW>
-19.5323

>  <SCORE.INTER.norm>
-0.455143

>  <SCORE.INTRA>
-1.23906

>  <SCORE.INTRA.DIHEDRAL>
-4.52533

>  <SCORE.INTRA.DIHEDRAL.0>
6.10773

>  <SCORE.INTRA.POLAR>
0

>  <SCORE.INTRA.POLAR.0>
0

>  <SCORE.INTRA.REPUL>
0

>  <SCORE.INTRA.REPUL.0>
0

>  <SCORE.INTRA.SOLV>
1.95244

>  <SCORE.INTRA.SOLV.lig_0>
-71.4024

>  <SCORE.INTRA.VDW>
0.0473842

>  <SCORE.INTRA.VDW.0>
-1.86213

>  <SCORE.INTRA.norm>
-0.0563211

>  <SCORE.RESTR>
0

>  <SCORE.RESTR.CAVITY>
0

>  <SCORE.RESTR.norm>
0

>  <SCORE.SYSTEM>
0

>  <SCORE.SYSTEM.CONST>
0

>  <SCORE.SYSTEM.DIHEDRAL>
0

>  <SCORE.SYSTEM.SOLV>
0

>  <SCORE.SYSTEM.norm>
0

>  <SCORE.heavy>
22

>  <SCORE.norm>
-0.511464

>  <RMSD>
2.516

$$$$
lig.pdb
 OpenBabel11021811523D
libRbt.so/2013.1/901 2013/11/27
 22 23  0  0  0  0  0  0  0  0999 V2000
   -5.7443   -0.9820   -0.8013 C   0  0  1  0  0  0  0  0  0  0  0  0
   -4.8430   -0.4240    1.4938 C   0  0  1  0  0  0  0  0  0  0  0  0
   -3.3533   -0.9017    1.1946 C   0  0  1  0  0  0  0  0  0  0  0  0
   -2.3860   -0.1673    2.2291 C   0  0  2  0  0  0  0  0  0  0  0  0
   -7.1147   -1.4964   -1.3907 C   0  0  1  0  0  0  0  0  0  0  0  0
   -7.2772   -2.9774   -0.9949 C   0  0  2  0  0  0  0  0  0  0  0  0
   -6.1427   -3.8315   -1.5882 C   0  0  2  0  0  0  0  0  0  0  0  0
   -4.7382   -3.3526   -1.0684 C   0  0  1  0  0  0  0  0  0  0  0  0
   -3.5845   -4.1773   -1.7085 C   0  0  0  0  0  0  0  0  0  0  0  0
   -2.4693    1.4260    1.9915 C   0  0  1  0  0  0  0  0  0  0  0  0
   -3.9859    1.8707    2.3006 C   0  0  0  0  0  0  0  0  0  0  0  0
   -4.9818    1.1198    1.3021 C   0  0  2  0  0  0  0  0  0  0  0  0
   -6.1636   -3.7473   -3.0530 F   0  0  0  0  0  0  0  0  0  0  0  0
   -8.2186   -0.6339   -0.8154 N   0  0  0  0  0  0  0  0  0  0  0  0
   -3.6106   -5.5604   -1.4168 N   0  0  0  0  0  0  0  0  0  0  0  0
   -1.5852    2.1644    2.9569 N   0  0  0  0  0  0  0  0  0  0  0  0
   -6.3708    1.5307    1.5921 N   0  0  0  0  0  0  0  0  0  0  0  0
   -5.7459   -1.0438    0.5905 O   0  0  0  0  0  0  0  0  0  0  0  0
   -3.2924   -2.3668    1.4089 O   0  0  0  0  0  0  0  0  0  0  0  0
   -1.0900   -0.6090    1.9527 O   0  0  0  0  0  0  0  0  0  0  0  0
   -8.2756   -3.3509   -1.4275 O   0  0  0  0  0  0  0  0  0  0  0  0
   -4.6358   -1.8506   -1.3905 O   0  0  0  0  0  0  0  0  0  0  0  0
  1  5  1  0  0  0  0
  1 18  1  1  0  0  0
  2 18  1  6  0  0  0
  2  3  1  0  0  0  0
  2 12  1  0  0  0  0
  3 19  1  1  0  0  0
  3  4  1  0  0  0  0
  4 20  1  6  0  0  0
  4 10  1  0  0  0  0
  5  6  1  0  0  0  0
  5 14  1  1  0  0  0
  6 21  1  6  0  0  0
  7 13  1  6  0  0  0
  7  6  1  0  0  0  0
  8  9  1  6  0  0  0
  8  7  1  0  0  0  0
 10 16  1  1  0  0  0
 11 10  1  0  0  0  0
 12 17  1  1  0  0  0
 12 11  1  0  0  0  0
 15  9  1  0  0  0  0
 22  8  1  0  0  0  0
 22  1  1  0  0  0  0
M  END
>  <CHROM.1>
-165.39557889,-58.41958440,-61.78001146,-4.81259726,-1.39477935,0.10127036
2.12159188,0.31072949,-2.59168896

>  <Name>
lig.pdb

>  <RI>
0

>  <Rbt.Current_Directory>
/home/itssahil/PROJECTS/Mol_Feturizer/New_Systems/rnas/5bws

>  <Rbt.Executable>
rbdock ($Id: //depot/dev/client3/rdock/2013.1/src/exe/rbdock.cxx#4 $)

>  <Rbt.Library>
libRbt.so (2013.1, Build901 2013/11/27)

>  <Rbt.Parameter_File>
/export/apps/rDock/src/rDock_2013.1_src/data/scripts/dock_solv.prm

>  <Rbt.Receptor>
prm/pocket_docking_8.prm

>  <SCORE>
-12.3629

>  <SCORE.INTER>
-10.2539

>  <SCORE.INTER.CONST>
1

>  <SCORE.INTER.POLAR>
0

>  <SCORE.INTER.ROT>
3

>  <SCORE.INTER.SOLV>
20.5091

>  <SCORE.INTER.VDW>
-19.2723

>  <SCORE.INTER.norm>
-0.466085

>  <SCORE.INTRA>
-2.10908

>  <SCORE.INTRA.DIHEDRAL>
-5.07903

>  <SCORE.INTRA.DIHEDRAL.0>
6.10773

>  <SCORE.INTRA.POLAR>
0

>  <SCORE.INTRA.POLAR.0>
0

>  <SCORE.INTRA.REPUL>
0

>  <SCORE.INTRA.REPUL.0>
0

>  <SCORE.INTRA.SOLV>
0.707539

>  <SCORE.INTRA.SOLV.lig_0>
-71.4024

>  <SCORE.INTRA.VDW>
0.0766709

>  <SCORE.INTRA.VDW.0>
-1.86213

>  <SCORE.INTRA.norm>
-0.095867

>  <SCORE.RESTR>
0

>  <SCORE.RESTR.CAVITY>
0

>  <SCORE.RESTR.norm>
0

>  <SCORE.SYSTEM>
0

>  <SCORE.SYSTEM.CONST>
0

>  <SCORE.SYSTEM.DIHEDRAL>
0

>  <SCORE.SYSTEM.SOLV>
0

>  <SCORE.SYSTEM.norm>
0

>  <SCORE.heavy>
22

>  <SCORE.norm>
-0.561952

>  <RMSD>
2.518

$$$$
lig.pdb
 OpenBabel11021811523D
libRbt.so/2013.1/901 2013/11/27
 22 23  0  0  0  0  0  0  0  0999 V2000
   -5.7226   -0.9839   -0.8199 C   0  0  1  0  0  0  0  0  0  0  0  0
   -4.8834   -0.4026    1.4929 C   0  0  1  0  0  0  0  0  0  0  0  0
   -3.3811   -0.8621    1.2303 C   0  0  1  0  0  0  0  0  0  0  0  0
   -2.4476   -0.1109    2.2835 C   0  0  2  0  0  0  0  0  0  0  0  0
   -7.0866   -1.4814   -1.4381 C   0  0  1  0  0  0  0  0  0  0  0  0
   -7.2802   -2.9575   -1.0383 C   0  0  2  0  0  0  0  0  0  0  0  0
   -6.1452   -3.8315   -1.6007 C   0  0  2  0  0  0  0  0  0  0  0  0
   -4.7460   -3.3704   -1.0513 C   0  0  1  0  0  0  0  0  0  0  0  0
   -3.5903   -4.2157   -1.6602 C   0  0  0  0  0  0  0  0  0  0  0  0
   -2.5458    1.4802    2.0369 C   0  0  1  0  0  0  0  0  0  0  0  0
   -4.0749    1.9065    2.3089 C   0  0  0  0  0  0  0  0  0  0  0  0
   -5.0376    1.1385    1.2911 C   0  0  2  0  0  0  0  0  0  0  0  0
   -6.1311   -3.7553   -3.0661 F   0  0  0  0  0  0  0  0  0  0  0  0
   -8.1905   -0.5995   -0.8929 N   0  0  0  0  0  0  0  0  0  0  0  0
   -3.6501   -5.5984   -1.3718 N   0  0  0  0  0  0  0  0  0  0  0  0
   -1.6940    2.2340    3.0191 N   0  0  0  0  0  0  0  0  0  0  0  0
   -6.4381    1.5325    1.5471 N   0  0  0  0  0  0  0  0  0  0  0  0
   -5.7571   -1.0378    0.5718 O   0  0  0  0  0  0  0  0  0  0  0  0
   -3.3064   -2.3255    1.4526 O   0  0  0  0  0  0  0  0  0  0  0  0
   -1.1399   -0.5369    2.0391 O   0  0  0  0  0  0  0  0  0  0  0  0
   -8.2738   -3.3187   -1.4918 O   0  0  0  0  0  0  0  0  0  0  0  0
   -4.6139   -1.8720   -1.3788 O   0  0  0  0  0  0  0  0  0  0  0  0
  1  5  1  0  0  0  0
  1 18  1  1  0  0  0
  2 18  1  6  0  0  0
  2  3  1  0  0  0  0
  2 12  1  0  0  0  0
  3 19  1  1  0  0  0
  3  4  1  0  0  0  0
  4 20  1  6  0  0  0
  4 10  1  0  0  0  0
  5  6  1  0  0  0  0
  5 14  1  1  0  0  0
  6 21  1  6  0  0  0
  7 13  1  6  0  0  0
  7  6  1  0  0  0  0
  8  9  1  6  0  0  0
  8  7  1  0  0  0  0
 10 16  1  1  0  0  0
 11 10  1  0  0  0  0
 12 17  1  1  0  0  0
 12 11  1  0  0  0  0
 15  9  1  0  0  0  0
 22  8  1  0  0  0  0
 22  1  1  0  0  0  0
M  END
>  <CHROM.1>
-163.88911738,-58.28921042,-61.24276701,-4.83524770,-1.37715048,0.10612047
2.10578213,0.33089236,-2.59601548

>  <Name>
lig.pdb

>  <RI>
0

>  <Rbt.Current_Directory>
/home/itssahil/PROJECTS/Mol_Feturizer/New_Systems/rnas/5bws

>  <Rbt.Executable>
rbdock ($Id: //depot/dev/client3/rdock/2013.1/src/exe/rbdock.cxx#4 $)

>  <Rbt.Library>
libRbt.so (2013.1, Build901 2013/11/27)

>  <Rbt.Parameter_File>
/export/apps/rDock/src/rDock_2013.1_src/data/scripts/dock_solv.prm

>  <Rbt.Receptor>
prm/pocket_docking_6.prm

>  <SCORE>
-12.4074

>  <SCORE.INTER>
-10.4111

>  <SCORE.INTER.CONST>
1

>  <SCORE.INTER.POLAR>
0

>  <SCORE.INTER.ROT>
3

>  <SCORE.INTER.SOLV>
20.3419

>  <SCORE.INTER.VDW>
-19.3214

>  <SCORE.INTER.norm>
-0.473233

>  <SCORE.INTRA>
-1.99624

>  <SCORE.INTRA.DIHEDRAL>
-4.8784

>  <SCORE.INTRA.DIHEDRAL.0>
6.10773

>  <SCORE.INTRA.POLAR>
0

>  <SCORE.INTRA.POLAR.0>
0

>  <SCORE.INTRA.REPUL>
0

>  <SCORE.INTRA.REPUL.0>
0

>  <SCORE.INTRA.SOLV>
0.76108

>  <SCORE.INTRA.SOLV.lig_0>
-71.4024

>  <SCORE.INTRA.VDW>
0.0624166

>  <SCORE.INTRA.VDW.0>
-1.86213

>  <SCORE.INTRA.norm>
-0.0907384

>  <SCORE.RESTR>
0

>  <SCORE.RESTR.CAVITY>
0

>  <SCORE.RESTR.norm>
0

>  <SCORE.SYSTEM>
0

>  <SCORE.SYSTEM.CONST>
0

>  <SCORE.SYSTEM.DIHEDRAL>
0

>  <SCORE.SYSTEM.SOLV>
0

>  <SCORE.SYSTEM.norm>
0

>  <SCORE.heavy>
22

>  <SCORE.norm>
-0.563972

>  <RMSD>
2.520

$$$$
lig.pdb
 OpenBabel11021811523D
libRbt.so/2013.1/901 2013/11/27
 22 23  0  0  0  0  0  0  0  0999 V2000
   -5.7183   -0.9900   -0.8242 C   0  0  1  0  0  0  0  0  0  0  0  0
   -4.8853   -0.4160    1.4927 C   0  0  1  0  0  0  0  0  0  0  0  0
   -3.3821   -0.8705    1.2262 C   0  0  1  0  0  0  0  0  0  0  0  0
   -2.4497   -0.1251    2.2845 C   0  0  2  0  0  0  0  0  0  0  0  0
   -7.0824   -1.4803   -1.4480 C   0  0  1  0  0  0  0  0  0  0  0  0
   -7.2839   -2.9563   -1.0517 C   0  0  2  0  0  0  0  0  0  0  0  0
   -6.1508   -3.8343   -1.6117 C   0  0  2  0  0  0  0  0  0  0  0  0
   -4.7515   -3.3805   -1.0565 C   0  0  1  0  0  0  0  0  0  0  0  0
   -3.5975   -4.2298   -1.6629 C   0  0  0  0  0  0  0  0  0  0  0  0
   -2.5514    1.4676    2.0494 C   0  0  1  0  0  0  0  0  0  0  0  0
   -4.0812    1.8887    2.3252 C   0  0  0  0  0  0  0  0  0  0  0  0
   -5.0427    1.1261    1.3021 C   0  0  2  0  0  0  0  0  0  0  0  0
   -6.1312   -3.7554   -3.0769 F   0  0  0  0  0  0  0  0  0  0  0  0
   -8.1842   -0.5945   -0.9050 N   0  0  0  0  0  0  0  0  0  0  0  0
   -3.6559   -5.6103   -1.3643 N   0  0  0  0  0  0  0  0  0  0  0  0
   -1.7007    2.2160    3.0368 N   0  0  0  0  0  0  0  0  0  0  0  0
   -6.4439    1.5154    1.5615 N   0  0  0  0  0  0  0  0  0  0  0  0
   -5.7579   -1.0464    0.5674 O   0  0  0  0  0  0  0  0  0  0  0  0
   -3.3043   -2.3353    1.4378 O   0  0  0  0  0  0  0  0  0  0  0  0
   -1.1413   -0.5465    2.0366 O   0  0  0  0  0  0  0  0  0  0  0  0
   -8.2775   -3.3122   -1.5093 O   0  0  0  0  0  0  0  0  0  0  0  0
   -4.6117   -1.8820   -1.3808 O   0  0  0  0  0  0  0  0  0  0  0  0
  1  5  1  0  0  0  0
  1 18  1  1  0  0  0
  2 18  1  6  0  0  0
  2  3  1  0  0  0  0
  2 12  1  0  0  0  0
  3 19  1  1  0  0  0
  3  4  1  0  0  0  0
  4 20  1  6  0  0  0
  4 10  1  0  0  0  0
  5  6  1  0  0  0  0
  5 14  1  1  0  0  0
  6 21  1  6  0  0  0
  7 13  1  6  0  0  0
  7  6  1  0  0  0  0
  8  9  1  6  0  0  0
  8  7  1  0  0  0  0
 10 16  1  1  0  0  0
 11 10  1  0  0  0  0
 12 17  1  1  0  0  0
 12 11  1  0  0  0  0
 15  9  1  0  0  0  0
 22  8  1  0  0  0  0
 22  1  1  0  0  0  0
M  END
>  <CHROM.1>
-163.84257084,-57.78455133,-61.94969532,-4.83739044,-1.38531047,0.10420646
2.10549302,0.33312625,-2.59360251

>  <Name>
lig.pdb

>  <RI>
0

>  <Rbt.Current_Directory>
/home/itssahil/PROJECTS/Mol_Feturizer/New_Systems/rnas/5bws

>  <Rbt.Executable>
rbdock ($Id: //depot/dev/client3/rdock/2013.1/src/exe/rbdock.cxx#4 $)

>  <Rbt.Library>
libRbt.so (2013.1, Build901 2013/11/27)

>  <Rbt.Parameter_File>
/export/apps/rDock/src/rDock_2013.1_src/data/scripts/dock_solv.prm

>  <Rbt.Receptor>
prm/pocket_docking_7.prm

>  <SCORE>
-12.3966

>  <SCORE.INTER>
-10.4038

>  <SCORE.INTER.CONST>
1

>  <SCORE.INTER.POLAR>
0

>  <SCORE.INTER.ROT>
3

>  <SCORE.INTER.SOLV>
20.4175

>  <SCORE.INTER.VDW>
-19.3417

>  <SCORE.INTER.norm>
-0.472898

>  <SCORE.INTRA>
-1.99287

>  <SCORE.INTRA.DIHEDRAL>
-4.85387

>  <SCORE.INTRA.DIHEDRAL.0>
6.10773

>  <SCORE.INTRA.POLAR>
0

>  <SCORE.INTRA.POLAR.0>
0

>  <SCORE.INTRA.REPUL>
0

>  <SCORE.INTRA.REPUL.0>
0

>  <SCORE.INTRA.SOLV>
0.746359

>  <SCORE.INTRA.SOLV.lig_0>
-71.4024

>  <SCORE.INTRA.VDW>
0.0608822

>  <SCORE.INTRA.VDW.0>
-1.86213

>  <SCORE.INTRA.norm>
-0.0905851

>  <SCORE.RESTR>
0

>  <SCORE.RESTR.CAVITY>
0

>  <SCORE.RESTR.norm>
0

>  <SCORE.SYSTEM>
0

>  <SCORE.SYSTEM.CONST>
0

>  <SCORE.SYSTEM.DIHEDRAL>
0

>  <SCORE.SYSTEM.SOLV>
0

>  <SCORE.SYSTEM.norm>
0

>  <SCORE.heavy>
22

>  <SCORE.norm>
-0.563483

>  <RMSD>
2.523

$$$$
lig.pdb
 OpenBabel11021811523D
libRbt.so/2013.1/901 2013/11/27
 22 23  0  0  0  0  0  0  0  0999 V2000
   -5.7190   -0.9877   -0.8140 C   0  0  1  0  0  0  0  0  0  0  0  0
   -4.8379   -0.4251    1.4878 C   0  0  1  0  0  0  0  0  0  0  0  0
   -3.3477   -0.9042    1.1929 C   0  0  1  0  0  0  0  0  0  0  0  0
   -2.3835   -0.1759    2.2346 C   0  0  2  0  0  0  0  0  0  0  0  0
   -7.0911   -1.4829   -1.4160 C   0  0  1  0  0  0  0  0  0  0  0  0
   -7.2836   -2.9580   -1.0118 C   0  0  2  0  0  0  0  0  0  0  0  0
   -6.1571   -3.8355   -1.5856 C   0  0  2  0  0  0  0  0  0  0  0  0
   -4.7507   -3.3769   -1.0526 C   0  0  1  0  0  0  0  0  0  0  0  0
   -3.6039   -4.2259   -1.6731 C   0  0  0  0  0  0  0  0  0  0  0  0
   -2.4629    1.4186    2.0032 C   0  0  1  0  0  0  0  0  0  0  0  0
   -3.9801    1.8648    2.3078 C   0  0  0  0  0  0  0  0  0  0  0  0
   -4.9731    1.1198    1.3019 C   0  0  2  0  0  0  0  0  0  0  0  0
   -6.1593   -3.7615   -3.0511 F   0  0  0  0  0  0  0  0  0  0  0  0
   -8.1866   -0.5975   -0.8598 N   0  0  0  0  0  0  0  0  0  0  0  0
   -3.6561   -5.6058   -1.3706 N   0  0  0  0  0  0  0  0  0  0  0  0
   -1.5817    2.1513    2.9754 N   0  0  0  0  0  0  0  0  0  0  0  0
   -6.3625    1.5320    1.5877 N   0  0  0  0  0  0  0  0  0  0  0  0
   -5.7380   -1.0394    0.5782 O   0  0  0  0  0  0  0  0  0  0  0  0
   -3.2905   -2.3703    1.4015 O   0  0  0  0  0  0  0  0  0  0  0  0
   -1.0872   -0.6187    1.9619 O   0  0  0  0  0  0  0  0  0  0  0  0
   -8.2832   -3.3175   -1.4535 O   0  0  0  0  0  0  0  0  0  0  0  0
   -4.6188   -1.8793   -1.3839 O   0  0  0  0  0  0  0  0  0  0  0  0
  1  5  1  0  0  0  0
  1 18  1  1  0  0  0
  2 18  1  6  0  0  0
  2  3  1  0  0  0  0
  2 12  1  0  0  0  0
  3 19  1  1  0  0  0
  3  4  1  0  0  0  0
  4 20  1  6  0  0  0
  4 10  1  0  0  0  0
  5  6  1  0  0  0  0
  5 14  1  1  0  0  0
  6 21  1  6  0  0  0
  7 13  1  6  0  0  0
  7  6  1  0  0  0  0
  8  9  1  6  0  0  0
  8  7  1  0  0  0  0
 10 16  1  1  0  0  0
 11 10  1  0  0  0  0
 12 17  1  1  0  0  0
 12 11  1  0  0  0  0
 15  9  1  0  0  0  0
 22  8  1  0  0  0  0
 22  1  1  0  0  0  0
M  END
>  <CHROM.1>
-165.16663016,-57.40388161,-61.86559686,-4.81006369,-1.40007700,0.10134921
2.12363963,0.32237757,-2.59835295

>  <Name>
lig.pdb

>  <RI>
0

>  <Rbt.Current_Directory>
/home/itssahil/PROJECTS/Mol_Feturizer/New_Systems/rnas/5bws

>  <Rbt.Executable>
rbdock ($Id: //depot/dev/client3/rdock/2013.1/src/exe/rbdock.cxx#4 $)

>  <Rbt.Library>
libRbt.so (2013.1, Build901 2013/11/27)

>  <Rbt.Parameter_File>
/export/apps/rDock/src/rDock_2013.1_src/data/scripts/dock_solv.prm

>  <Rbt.Receptor>
prm/pocket_docking_6.prm

>  <SCORE>
-12.4261

>  <SCORE.INTER>
-10.3481

>  <SCORE.INTER.CONST>
1

>  <SCORE.INTER.POLAR>
0

>  <SCORE.INTER.ROT>
3

>  <SCORE.INTER.SOLV>
20.5457

>  <SCORE.INTER.VDW>
-19.3473

>  <SCORE.INTER.norm>
-0.470368

>  <SCORE.INTRA>
-2.07801

>  <SCORE.INTRA.DIHEDRAL>
-5.02696

>  <SCORE.INTRA.DIHEDRAL.0>
6.10773

>  <SCORE.INTRA.POLAR>
0

>  <SCORE.INTRA.POLAR.0>
0

>  <SCORE.INTRA.REPUL>
0

>  <SCORE.INTRA.REPUL.0>
0

>  <SCORE.INTRA.SOLV>
0.7145

>  <SCORE.INTRA.SOLV.lig_0>
-71.4024

>  <SCORE.INTRA.VDW>
0.0782162

>  <SCORE.INTRA.VDW.0>
-1.86213

>  <SCORE.INTRA.norm>
-0.0944552

>  <SCORE.RESTR>
0

>  <SCORE.RESTR.CAVITY>
0

>  <SCORE.RESTR.norm>
0

>  <SCORE.SYSTEM>
0

>  <SCORE.SYSTEM.CONST>
0

>  <SCORE.SYSTEM.DIHEDRAL>
0

>  <SCORE.SYSTEM.SOLV>
0

>  <SCORE.SYSTEM.norm>
0

>  <SCORE.heavy>
22

>  <SCORE.norm>
-0.564823

>  <RMSD>
2.525

$$$$
lig.pdb
 OpenBabel11021811523D
libRbt.so/2013.1/901 2013/11/27
 22 23  0  0  0  0  0  0  0  0999 V2000
   -5.7271   -0.9878   -0.8195 C   0  0  1  0  0  0  0  0  0  0  0  0
   -4.8388   -0.4353    1.4821 C   0  0  1  0  0  0  0  0  0  0  0  0
   -3.3475   -0.9133    1.1912 C   0  0  1  0  0  0  0  0  0  0  0  0
   -2.3862   -0.1812    2.2329 C   0  0  2  0  0  0  0  0  0  0  0  0
   -7.0974   -1.4925   -1.4174 C   0  0  1  0  0  0  0  0  0  0  0  0
   -7.2709   -2.9734   -1.0262 C   0  0  2  0  0  0  0  0  0  0  0  0
   -6.1385   -3.8329   -1.6156 C   0  0  2  0  0  0  0  0  0  0  0  0
   -4.7339   -3.3637   -1.0872 C   0  0  1  0  0  0  0  0  0  0  0  0
   -3.5818   -4.1939   -1.7232 C   0  0  0  0  0  0  0  0  0  0  0  0
   -2.4672    1.4126    1.9975 C   0  0  1  0  0  0  0  0  0  0  0  0
   -3.9855    1.8576    2.2980 C   0  0  0  0  0  0  0  0  0  0  0  0
   -4.9756    1.1089    1.2920 C   0  0  2  0  0  0  0  0  0  0  0  0
   -6.1510   -3.7449   -3.0803 F   0  0  0  0  0  0  0  0  0  0  0  0
   -8.1991   -0.6248   -0.8458 N   0  0  0  0  0  0  0  0  0  0  0  0
   -3.6059   -5.5741   -1.4182 N   0  0  0  0  0  0  0  0  0  0  0  0
   -1.5887    2.1489    2.9696 N   0  0  0  0  0  0  0  0  0  0  0  0
   -6.3661    1.5201    1.5742 N   0  0  0  0  0  0  0  0  0  0  0  0
   -5.7364   -1.0530    0.5722 O   0  0  0  0  0  0  0  0  0  0  0  0
   -3.2888   -2.3788    1.4035 O   0  0  0  0  0  0  0  0  0  0  0  0
   -1.0888   -0.6231    1.9638 O   0  0  0  0  0  0  0  0  0  0  0  0
   -8.2693   -3.3398   -1.4650 O   0  0  0  0  0  0  0  0  0  0  0  0
   -4.6208   -1.8616   -1.4050 O   0  0  0  0  0  0  0  0  0  0  0  0
  1  5  1  0  0  0  0
  1 18  1  1  0  0  0
  2 18  1  6  0  0  0
  2  3  1  0  0  0  0
  2 12  1  0  0  0  0
  3 19  1  1  0  0  0
  3  4  1  0  0  0  0
  4 20  1  6  0  0  0
  4 10  1  0  0  0  0
  5  6  1  0  0  0  0
  5 14  1  1  0  0  0
  6 21  1  6  0  0  0
  7 13  1  6  0  0  0
  7  6  1  0  0  0  0
  8  9  1  6  0  0  0
  8  7  1  0  0  0  0
 10 16  1  1  0  0  0
 11 10  1  0  0  0  0
 12 17  1  1  0  0  0
 12 11  1  0  0  0  0
 15  9  1  0  0  0  0
 22  8  1  0  0  0  0
 22  1  1  0  0  0  0
M  END
>  <CHROM.1>
-165.03239599,-58.49442399,-62.71594009,-4.80593152,-1.40210446,0.08815538
2.12113374,0.31782785,-2.59037827

>  <Name>
lig.pdb

>  <RI>
0

>  <Rbt.Current_Directory>
/home/itssahil/PROJECTS/Mol_Feturizer/New_Systems/rnas/5bws

>  <Rbt.Executable>
rbdock ($Id: //depot/dev/client3/rdock/2013.1/src/exe/rbdock.cxx#4 $)

>  <Rbt.Library>
libRbt.so (2013.1, Build901 2013/11/27)

>  <Rbt.Parameter_File>
/export/apps/rDock/src/rDock_2013.1_src/data/scripts/dock_solv.prm

>  <Rbt.Receptor>
prm/pocket_docking_3.prm

>  <SCORE>
-12.3751

>  <SCORE.INTER>
-10.2886

>  <SCORE.INTER.CONST>
1

>  <SCORE.INTER.POLAR>
0

>  <SCORE.INTER.ROT>
3

>  <SCORE.INTER.SOLV>
20.5238

>  <SCORE.INTER.VDW>
-19.3003

>  <SCORE.INTER.norm>
-0.467664

>  <SCORE.INTRA>
-2.08647

>  <SCORE.INTRA.DIHEDRAL>
-5.01704

>  <SCORE.INTRA.DIHEDRAL.0>
6.10773

>  <SCORE.INTRA.POLAR>
0

>  <SCORE.INTRA.POLAR.0>
0

>  <SCORE.INTRA.REPUL>
0

>  <SCORE.INTRA.REPUL.0>
0

>  <SCORE.INTRA.SOLV>
0.706361

>  <SCORE.INTRA.SOLV.lig_0>
-71.4024

>  <SCORE.INTRA.VDW>
0.0688715

>  <SCORE.INTRA.VDW.0>
-1.86213

>  <SCORE.INTRA.norm>
-0.0948395

>  <SCORE.RESTR>
0

>  <SCORE.RESTR.CAVITY>
0

>  <SCORE.RESTR.norm>
0

>  <SCORE.SYSTEM>
0

>  <SCORE.SYSTEM.CONST>
0

>  <SCORE.SYSTEM.DIHEDRAL>
0

>  <SCORE.SYSTEM.SOLV>
0

>  <SCORE.SYSTEM.norm>
0

>  <SCORE.heavy>
22

>  <SCORE.norm>
-0.562504

>  <RMSD>
2.527

$$$$
lig.pdb
 OpenBabel11021811523D
libRbt.so/2013.1/901 2013/11/27
 22 23  0  0  0  0  0  0  0  0999 V2000
   -5.5115   -1.1067   -0.8108 C   0  0  1  0  0  0  0  0  0  0  0  0
   -4.8295   -0.3736    1.5106 C   0  0  1  0  0  0  0  0  0  0  0  0
   -3.3195   -0.8436    1.3211 C   0  0  1  0  0  0  0  0  0  0  0  0
   -2.4266   -0.0676    2.3916 C   0  0  2  0  0  0  0  0  0  0  0  0
   -6.8560   -1.5516   -1.5068 C   0  0  1  0  0  0  0  0  0  0  0  0
   -7.2074   -2.9656   -1.0034 C   0  0  2  0  0  0  0  0  0  0  0  0
   -6.1077   -3.9726   -1.3842 C   0  0  2  0  0  0  0  0  0  0  0  0
   -4.7255   -3.5728   -0.7501 C   0  0  1  0  0  0  0  0  0  0  0  0
   -3.5988   -4.5571   -1.1775 C   0  0  0  0  0  0  0  0  0  0  0  0
   -2.5092    1.5168    2.1001 C   0  0  1  0  0  0  0  0  0  0  0  0
   -4.0465    1.9539    2.2987 C   0  0  0  0  0  0  0  0  0  0  0  0
   -4.9699    1.1620    1.2628 C   0  0  2  0  0  0  0  0  0  0  0  0
   -5.9639   -4.0319   -2.8433 F   0  0  0  0  0  0  0  0  0  0  0  0
   -7.9227   -0.5408   -1.1409 N   0  0  0  0  0  0  0  0  0  0  0  0
   -3.3658   -4.6242   -2.5703 N   0  0  0  0  0  0  0  0  0  0  0  0
   -1.6951    2.2938    3.0962 N   0  0  0  0  0  0  0  0  0  0  0  0
   -6.3782    1.5661    1.4515 N   0  0  0  0  0  0  0  0  0  0  0  0
   -5.6674   -1.0304    0.5716 O   0  0  0  0  0  0  0  0  0  0  0  0
   -3.2590   -2.3008    1.5841 O   0  0  0  0  0  0  0  0  0  0  0  0
   -1.1117   -0.5030    2.2116 O   0  0  0  0  0  0  0  0  0  0  0  0
   -8.1865   -3.2888   -1.5137 O   0  0  0  0  0  0  0  0  0  0  0  0
   -4.4393   -2.1253   -1.1892 O   0  0  0  0  0  0  0  0  0  0  0  0
  1  5  1  0  0  0  0
  1 18  1  1  0  0  0
  2 18  1  6  0  0  0
  2  3  1  0  0  0  0
  2 12  1  0  0  0  0
  3 19  1  1  0  0  0
  3  4  1  0  0  0  0
  4 20  1  6  0  0  0
  4 10  1  0  0  0  0
  5  6  1  0  0  0  0
  5 14  1  1  0  0  0
  6 21  1  6  0  0  0
  7 13  1  6  0  0  0
  7  6  1  0  0  0  0
  8  9  1  6  0  0  0
  8  7  1  0  0  0  0
 10 16  1  1  0  0  0
 11 10  1  0  0  0  0
 12 17  1  1  0  0  0
 12 11  1  0  0  0  0
 15  9  1  0  0  0  0
 22  8  1  0  0  0  0
 22  1  1  0  0  0  0
M  END
>  <CHROM.1>
-163.30787423,-52.31218046,60.36788786,-4.74129094,-1.38114571,0.13030255
2.07934796,0.32273531,-2.57699156

>  <Name>
lig.pdb

>  <RI>
0

>  <Rbt.Current_Directory>
/home/itssahil/PROJECTS/Mol_Feturizer/New_Systems/rnas/5bws

>  <Rbt.Executable>
rbdock ($Id: //depot/dev/client3/rdock/2013.1/src/exe/rbdock.cxx#4 $)

>  <Rbt.Library>
libRbt.so (2013.1, Build901 2013/11/27)

>  <Rbt.Parameter_File>
/export/apps/rDock/src/rDock_2013.1_src/data/scripts/dock_solv.prm

>  <Rbt.Receptor>
prm/pocket_docking_3.prm

>  <SCORE>
-11.1599

>  <SCORE.INTER>
-9.95467

>  <SCORE.INTER.CONST>
1

>  <SCORE.INTER.POLAR>
0

>  <SCORE.INTER.ROT>
3

>  <SCORE.INTER.SOLV>
21.8256

>  <SCORE.INTER.VDW>
-19.5116

>  <SCORE.INTER.norm>
-0.452485

>  <SCORE.INTRA>
-1.2052

>  <SCORE.INTRA.DIHEDRAL>
-4.52756

>  <SCORE.INTRA.DIHEDRAL.0>
6.10773

>  <SCORE.INTRA.POLAR>
0

>  <SCORE.INTRA.POLAR.0>
0

>  <SCORE.INTRA.REPUL>
0

>  <SCORE.INTRA.REPUL.0>
0

>  <SCORE.INTRA.SOLV>
1.95396

>  <SCORE.INTRA.SOLV.lig_0>
-71.4024

>  <SCORE.INTRA.VDW>
0.0816002

>  <SCORE.INTRA.VDW.0>
-1.86213

>  <SCORE.INTRA.norm>
-0.0547816

>  <SCORE.RESTR>
0

>  <SCORE.RESTR.CAVITY>
0

>  <SCORE.RESTR.norm>
0

>  <SCORE.SYSTEM>
0

>  <SCORE.SYSTEM.CONST>
0

>  <SCORE.SYSTEM.DIHEDRAL>
0

>  <SCORE.SYSTEM.SOLV>
0

>  <SCORE.SYSTEM.norm>
0

>  <SCORE.heavy>
22

>  <SCORE.norm>
-0.507267

>  <RMSD>
2.528

$$$$
lig.pdb
 OpenBabel11021811523D
libRbt.so/2013.1/901 2013/11/27
 22 23  0  0  0  0  0  0  0  0999 V2000
   -5.7054   -0.9915   -0.8111 C   0  0  1  0  0  0  0  0  0  0  0  0
   -4.7976   -0.4303    1.4807 C   0  0  1  0  0  0  0  0  0  0  0  0
   -3.3122   -0.9304    1.1970 C   0  0  1  0  0  0  0  0  0  0  0  0
   -2.3419   -0.1936    2.2268 C   0  0  2  0  0  0  0  0  0  0  0  0
   -7.0840   -1.4900   -1.3951 C   0  0  1  0  0  0  0  0  0  0  0  0
   -7.2630   -2.9685   -0.9968 C   0  0  2  0  0  0  0  0  0  0  0  0
   -6.1409   -3.8369   -1.5930 C   0  0  2  0  0  0  0  0  0  0  0  0
   -4.7289   -3.3743   -1.0787 C   0  0  1  0  0  0  0  0  0  0  0  0
   -3.5875   -4.2137   -1.7217 C   0  0  0  0  0  0  0  0  0  0  0  0
   -2.4040    1.3972    1.9665 C   0  0  1  0  0  0  0  0  0  0  0  0
   -3.9168    1.8648    2.2605 C   0  0  0  0  0  0  0  0  0  0  0  0
   -4.9162    1.1122    1.2667 C   0  0  2  0  0  0  0  0  0  0  0  0
   -6.1659   -3.7542   -3.0578 F   0  0  0  0  0  0  0  0  0  0  0  0
   -8.1754   -0.6136   -0.8170 N   0  0  0  0  0  0  0  0  0  0  0  0
   -3.6045   -5.5887   -1.3938 N   0  0  0  0  0  0  0  0  0  0  0  0
   -1.5165    2.1381    2.9268 N   0  0  0  0  0  0  0  0  0  0  0  0
   -6.3016    1.5442    1.5427 N   0  0  0  0  0  0  0  0  0  0  0  0
   -5.7029   -1.0515    0.5809 O   0  0  0  0  0  0  0  0  0  0  0  0
   -3.2708   -2.3930    1.4321 O   0  0  0  0  0  0  0  0  0  0  0  0
   -1.0499   -0.6549    1.9643 O   0  0  0  0  0  0  0  0  0  0  0  0
   -8.2673   -3.3304   -1.4254 O   0  0  0  0  0  0  0  0  0  0  0  0
   -4.6096   -1.8740   -1.4030 O   0  0  0  0  0  0  0  0  0  0  0  0
  1  5  1  0  0  0  0
  1 18  1  1  0  0  0
  2 18  1  6  0  0  0
  2  3  1  0  0  0  0
  2 12  1  0  0  0  0
  3 19  1  1  0  0  0
  3  4  1  0  0  0  0
  4 20  1  6  0  0  0
  4 10  1  0  0  0  0
  5  6  1  0  0  0  0
  5 14  1  1  0  0  0
  6 21  1  6  0  0  0
  7 13  1  6  0  0  0
  7  6  1  0  0  0  0
  8  9  1  6  0  0  0
  8  7  1  0  0  0  0
 10 16  1  1  0  0  0
 11 10  1  0  0  0  0
 12 17  1  1  0  0  0
 12 11  1  0  0  0  0
 15  9  1  0  0  0  0
 22  8  1  0  0  0  0
 22  1  1  0  0  0  0
M  END
>  <CHROM.1>
-164.68275859,-59.56631445,-63.69717484,-4.77948770,-1.40719286,0.09240369
2.13307221,0.31921202,-2.60079974

>  <Name>
lig.pdb

>  <RI>
0

>  <Rbt.Current_Directory>
/home/itssahil/PROJECTS/Mol_Feturizer/New_Systems/rnas/5bws

>  <Rbt.Executable>
rbdock ($Id: //depot/dev/client3/rdock/2013.1/src/exe/rbdock.cxx#4 $)

>  <Rbt.Library>
libRbt.so (2013.1, Build901 2013/11/27)

>  <Rbt.Parameter_File>
/export/apps/rDock/src/rDock_2013.1_src/data/scripts/dock_solv.prm

>  <Rbt.Receptor>
prm/pocket_docking_3.prm

>  <SCORE>
-12.4053

>  <SCORE.INTER>
-10.3367

>  <SCORE.INTER.CONST>
1

>  <SCORE.INTER.POLAR>
0

>  <SCORE.INTER.ROT>
3

>  <SCORE.INTER.SOLV>
20.4818

>  <SCORE.INTER.VDW>
-19.3184

>  <SCORE.INTER.norm>
-0.469851

>  <SCORE.INTRA>
-2.0686

>  <SCORE.INTRA.DIHEDRAL>
-4.9576

>  <SCORE.INTRA.DIHEDRAL.0>
6.10773

>  <SCORE.INTRA.POLAR>
0

>  <SCORE.INTRA.POLAR.0>
0

>  <SCORE.INTRA.REPUL>
0

>  <SCORE.INTRA.REPUL.0>
0

>  <SCORE.INTRA.SOLV>
0.700907

>  <SCORE.INTRA.SOLV.lig_0>
-71.4024

>  <SCORE.INTRA.VDW>
0.0597498

>  <SCORE.INTRA.VDW.0>
-1.86213

>  <SCORE.INTRA.norm>
-0.0940271

>  <SCORE.RESTR>
0

>  <SCORE.RESTR.CAVITY>
0

>  <SCORE.RESTR.norm>
0

>  <SCORE.SYSTEM>
0

>  <SCORE.SYSTEM.CONST>
0

>  <SCORE.SYSTEM.DIHEDRAL>
0

>  <SCORE.SYSTEM.SOLV>
0

>  <SCORE.SYSTEM.norm>
0

>  <SCORE.heavy>
22

>  <SCORE.norm>
-0.563878

>  <RMSD>
2.531

$$$$
lig.pdb
 OpenBabel11021811523D
libRbt.so/2013.1/901 2013/11/27
 22 23  0  0  0  0  0  0  0  0999 V2000
   -5.5041   -1.0840   -0.8468 C   0  0  1  0  0  0  0  0  0  0  0  0
   -4.7946   -0.3583    1.4686 C   0  0  1  0  0  0  0  0  0  0  0  0
   -3.2928   -0.8548    1.2810 C   0  0  1  0  0  0  0  0  0  0  0  0
   -2.3854   -0.0835    2.3426 C   0  0  2  0  0  0  0  0  0  0  0  0
   -6.8553   -1.5306   -1.5286 C   0  0  1  0  0  0  0  0  0  0  0  0
   -7.1983   -2.9461   -1.0236 C   0  0  2  0  0  0  0  0  0  0  0  0
   -6.1008   -3.9502   -1.4180 C   0  0  2  0  0  0  0  0  0  0  0  0
   -4.7126   -3.5486   -0.7986 C   0  0  1  0  0  0  0  0  0  0  0  0
   -3.5887   -4.5299   -1.2399 C   0  0  0  0  0  0  0  0  0  0  0  0
   -2.4426    1.4993    2.0363 C   0  0  1  0  0  0  0  0  0  0  0  0
   -3.9721    1.9633    2.2335 C   0  0  0  0  0  0  0  0  0  0  0  0
   -4.9103    1.1770    1.2067 C   0  0  2  0  0  0  0  0  0  0  0  0
   -5.9730   -4.0070   -2.8787 F   0  0  0  0  0  0  0  0  0  0  0  0
   -7.9200   -0.5225   -1.1495 N   0  0  0  0  0  0  0  0  0  0  0  0
   -3.3833   -4.6083   -2.6364 N   0  0  0  0  0  0  0  0  0  0  0  0
   -1.6140    2.2721    3.0237 N   0  0  0  0  0  0  0  0  0  0  0  0
   -6.3115    1.6059    1.3939 N   0  0  0  0  0  0  0  0  0  0  0  0
   -5.6449   -1.0100    0.5373 O   0  0  0  0  0  0  0  0  0  0  0  0
   -3.2558   -2.3102    1.5576 O   0  0  0  0  0  0  0  0  0  0  0  0
   -1.0781   -0.5421    2.1644 O   0  0  0  0  0  0  0  0  0  0  0  0
   -8.1823   -3.2704   -1.5235 O   0  0  0  0  0  0  0  0  0  0  0  0
   -4.4342   -2.0998   -1.2387 O   0  0  0  0  0  0  0  0  0  0  0  0
  1  5  1  0  0  0  0
  1 18  1  1  0  0  0
  2 18  1  6  0  0  0
  2  3  1  0  0  0  0
  2 12  1  0  0  0  0
  3 19  1  1  0  0  0
  3  4  1  0  0  0  0
  4 20  1  6  0  0  0
  4 10  1  0  0  0  0
  5  6  1  0  0  0  0
  5 14  1  1  0  0  0
  6 21  1  6  0  0  0
  7 13  1  6  0  0  0
  7  6  1  0  0  0  0
  8  9  1  6  0  0  0
  8  7  1  0  0  0  0
 10 16  1  1  0  0  0
 11 10  1  0  0  0  0
 12 17  1  1  0  0  0
 12 11  1  0  0  0  0
 15  9  1  0  0  0  0
 22  8  1  0  0  0  0
 22  1  1  0  0  0  0
M  END
>  <CHROM.1>
-163.63351108,-53.42224545,59.53634692,-4.71755651,-1.37087968,0.08763707
2.09129578,0.32180162,-2.58015521

>  <Name>
lig.pdb

>  <RI>
0

>  <Rbt.Current_Directory>
/home/itssahil/PROJECTS/Mol_Feturizer/New_Systems/rnas/5bws

>  <Rbt.Executable>
rbdock ($Id: //depot/dev/client3/rdock/2013.1/src/exe/rbdock.cxx#4 $)

>  <Rbt.Library>
libRbt.so (2013.1, Build901 2013/11/27)

>  <Rbt.Parameter_File>
/export/apps/rDock/src/rDock_2013.1_src/data/scripts/dock_solv.prm

>  <Rbt.Receptor>
prm/pocket_docking_3.prm

>  <SCORE>
-11.1519

>  <SCORE.INTER>
-9.89313

>  <SCORE.INTER.CONST>
1

>  <SCORE.INTER.POLAR>
0

>  <SCORE.INTER.ROT>
3

>  <SCORE.INTER.SOLV>
21.8339

>  <SCORE.INTER.VDW>
-19.4734

>  <SCORE.INTER.norm>
-0.449688

>  <SCORE.INTRA>
-1.25876

>  <SCORE.INTRA.DIHEDRAL>
-4.65021

>  <SCORE.INTRA.DIHEDRAL.0>
6.10773

>  <SCORE.INTRA.POLAR>
0

>  <SCORE.INTRA.POLAR.0>
0

>  <SCORE.INTRA.REPUL>
0

>  <SCORE.INTRA.REPUL.0>
0

>  <SCORE.INTRA.SOLV>
1.95283

>  <SCORE.INTRA.SOLV.lig_0>
-71.4024

>  <SCORE.INTRA.VDW>
0.0899376

>  <SCORE.INTRA.VDW.0>
-1.86213

>  <SCORE.INTRA.norm>
-0.0572162

>  <SCORE.RESTR>
0

>  <SCORE.RESTR.CAVITY>
0

>  <SCORE.RESTR.norm>
0

>  <SCORE.SYSTEM>
0

>  <SCORE.SYSTEM.CONST>
0

>  <SCORE.SYSTEM.DIHEDRAL>
0

>  <SCORE.SYSTEM.SOLV>
0

>  <SCORE.SYSTEM.norm>
0

>  <SCORE.heavy>
22

>  <SCORE.norm>
-0.506904

>  <RMSD>
2.533

$$$$
lig.pdb
 OpenBabel11021811523D
libRbt.so/2013.1/901 2013/11/27
 22 23  0  0  0  0  0  0  0  0999 V2000
   -5.6665   -0.9276   -0.8258 C   0  0  1  0  0  0  0  0  0  0  0  0
   -4.7855   -0.3758    1.4786 C   0  0  1  0  0  0  0  0  0  0  0  0
   -3.3046   -0.8968    1.2092 C   0  0  1  0  0  0  0  0  0  0  0  0
   -2.3349   -0.1786    2.2528 C   0  0  2  0  0  0  0  0  0  0  0  0
   -7.0440   -1.4028   -1.4316 C   0  0  1  0  0  0  0  0  0  0  0  0
   -7.2586   -2.8752   -1.0288 C   0  0  2  0  0  0  0  0  0  0  0  0
   -6.1433   -3.7685   -1.6002 C   0  0  2  0  0  0  0  0  0  0  0  0
   -4.7319   -3.3303   -1.0634 C   0  0  1  0  0  0  0  0  0  0  0  0
   -3.5958   -4.1952   -1.6815 C   0  0  0  0  0  0  0  0  0  0  0  0
   -2.3706    1.4139    1.9985 C   0  0  1  0  0  0  0  0  0  0  0  0
   -3.8794    1.9028    2.2777 C   0  0  0  0  0  0  0  0  0  0  0  0
   -4.8787    1.1692    1.2698 C   0  0  2  0  0  0  0  0  0  0  0  0
   -6.1407   -3.6936   -3.0657 F   0  0  0  0  0  0  0  0  0  0  0  0
   -8.1282   -0.5022   -0.8777 N   0  0  0  0  0  0  0  0  0  0  0  0
   -3.6669   -5.5741   -1.3777 N   0  0  0  0  0  0  0  0  0  0  0  0
   -1.4828    2.1376    2.9716 N   0  0  0  0  0  0  0  0  0  0  0  0
   -6.2606    1.6206    1.5323 N   0  0  0  0  0  0  0  0  0  0  0  0
   -5.6898   -0.9798    0.5662 O   0  0  0  0  0  0  0  0  0  0  0  0
   -3.2874   -2.3608    1.4386 O   0  0  0  0  0  0  0  0  0  0  0  0
   -1.0470   -0.6581    2.0026 O   0  0  0  0  0  0  0  0  0  0  0  0
   -8.2621   -3.2201   -1.4732 O   0  0  0  0  0  0  0  0  0  0  0  0
   -4.5777   -1.8345   -1.3935 O   0  0  0  0  0  0  0  0  0  0  0  0
  1  5  1  0  0  0  0
  1 18  1  1  0  0  0
  2 18  1  6  0  0  0
  2  3  1  0  0  0  0
  2 12  1  0  0  0  0
  3 19  1  1  0  0  0
  3  4  1  0  0  0  0
  4 20  1  6  0  0  0
  4 10  1  0  0  0  0
  5  6  1  0  0  0  0
  5 14  1  1  0  0  0
  6 21  1  6  0  0  0
  7 13  1  6  0  0  0
  7  6  1  0  0  0  0
  8  9  1  6  0  0  0
  8  7  1  0  0  0  0
 10 16  1  1  0  0  0
 11 10  1  0  0  0  0
 12 17  1  1  0  0  0
 12 11  1  0  0  0  0
 15  9  1  0  0  0  0
 22  8  1  0  0  0  0
 22  1  1  0  0  0  0
M  END
>  <CHROM.1>
-164.97283894,-58.70709270,-61.98565363,-4.76483478,-1.35699539,0.09346530
2.13922315,0.33939357,-2.60561414

>  <Name>
lig.pdb

>  <RI>
0

>  <Rbt.Current_Directory>
/home/itssahil/PROJECTS/Mol_Feturizer/New_Systems/rnas/5bws

>  <Rbt.Executable>
rbdock ($Id: //depot/dev/client3/rdock/2013.1/src/exe/rbdock.cxx#4 $)

>  <Rbt.Library>
libRbt.so (2013.1, Build901 2013/11/27)

>  <Rbt.Parameter_File>
/export/apps/rDock/src/rDock_2013.1_src/data/scripts/dock_solv.prm

>  <Rbt.Receptor>
prm/pocket_docking_8.prm

>  <SCORE>
-12.3692

>  <SCORE.INTER>
-10.284

>  <SCORE.INTER.CONST>
1

>  <SCORE.INTER.POLAR>
0

>  <SCORE.INTER.ROT>
3

>  <SCORE.INTER.SOLV>
20.4391

>  <SCORE.INTER.VDW>
-19.269

>  <SCORE.INTER.norm>
-0.467454

>  <SCORE.INTRA>
-2.08522

>  <SCORE.INTRA.DIHEDRAL>
-5.0245

>  <SCORE.INTRA.DIHEDRAL.0>
6.10773

>  <SCORE.INTRA.POLAR>
0

>  <SCORE.INTRA.POLAR.0>
0

>  <SCORE.INTRA.REPUL>
0

>  <SCORE.INTRA.REPUL.0>
0

>  <SCORE.INTRA.SOLV>
0.71446

>  <SCORE.INTRA.SOLV.lig_0>
-71.4024

>  <SCORE.INTRA.VDW>
0.0697996

>  <SCORE.INTRA.VDW.0>
-1.86213

>  <SCORE.INTRA.norm>
-0.0947826

>  <SCORE.RESTR>
0

>  <SCORE.RESTR.CAVITY>
0

>  <SCORE.RESTR.norm>
0

>  <SCORE.SYSTEM>
0

>  <SCORE.SYSTEM.CONST>
0

>  <SCORE.SYSTEM.DIHEDRAL>
0

>  <SCORE.SYSTEM.SOLV>
0

>  <SCORE.SYSTEM.norm>
0

>  <SCORE.heavy>
22

>  <SCORE.norm>
-0.562236

>  <RMSD>
2.537

$$$$
lig.pdb
 OpenBabel11021811523D
libRbt.so/2013.1/901 2013/11/27
 22 23  0  0  0  0  0  0  0  0999 V2000
   -5.4524   -1.0437   -0.8056 C   0  0  1  0  0  0  0  0  0  0  0  0
   -4.7367   -0.3458    1.5164 C   0  0  1  0  0  0  0  0  0  0  0  0
   -3.2401   -0.8538    1.3186 C   0  0  1  0  0  0  0  0  0  0  0  0
   -2.3230   -0.1052    2.3881 C   0  0  2  0  0  0  0  0  0  0  0  0
   -6.8111   -1.4560   -1.4941 C   0  0  1  0  0  0  0  0  0  0  0  0
   -7.1858   -2.8675   -1.0007 C   0  0  2  0  0  0  0  0  0  0  0  0
   -6.1091   -3.8921   -1.4000 C   0  0  2  0  0  0  0  0  0  0  0  0
   -4.7142   -3.5251   -0.7741 C   0  0  1  0  0  0  0  0  0  0  0  0
   -3.6105   -4.5270   -1.2200 C   0  0  0  0  0  0  0  0  0  0  0  0
   -2.3659    1.4819    2.1028 C   0  0  1  0  0  0  0  0  0  0  0  0
   -3.8906    1.9577    2.3098 C   0  0  0  0  0  0  0  0  0  0  0  0
   -4.8386    1.1939    1.2750 C   0  0  2  0  0  0  0  0  0  0  0  0
   -5.9787   -3.9406   -2.8608 F   0  0  0  0  0  0  0  0  0  0  0  0
   -7.8549   -0.4281   -1.1100 N   0  0  0  0  0  0  0  0  0  0  0  0
   -3.3879   -4.5831   -2.6150 N   0  0  0  0  0  0  0  0  0  0  0  0
   -1.5279    2.2338    3.0983 N   0  0  0  0  0  0  0  0  0  0  0  0
   -6.2352    1.6334    1.4714 N   0  0  0  0  0  0  0  0  0  0  0  0
   -5.5953   -0.9772    0.5787 O   0  0  0  0  0  0  0  0  0  0  0  0
   -3.2161   -2.3131    1.5759 O   0  0  0  0  0  0  0  0  0  0  0  0
   -1.0205   -0.5737    2.2007 O   0  0  0  0  0  0  0  0  0  0  0  0
   -8.1753   -3.1669   -1.5055 O   0  0  0  0  0  0  0  0  0  0  0  0
   -4.4035   -2.0794   -1.2025 O   0  0  0  0  0  0  0  0  0  0  0  0
  1  5  1  0  0  0  0
  1 18  1  1  0  0  0
  2 18  1  6  0  0  0
  2  3  1  0  0  0  0
  2 12  1  0  0  0  0
  3 19  1  1  0  0  0
  3  4  1  0  0  0  0
  4 20  1  6  0  0  0
  4 10  1  0  0  0  0
  5  6  1  0  0  0  0
  5 14  1  1  0  0  0
  6 21  1  6  0  0  0
  7 13  1  6  0  0  0
  7  6  1  0  0  0  0
  8  9  1  6  0  0  0
  8  7  1  0  0  0  0
 10 16  1  1  0  0  0
 11 10  1  0  0  0  0
 12 17  1  1  0  0  0
 12 11  1  0  0  0  0
 15  9  1  0  0  0  0
 22  8  1  0  0  0  0
 22  1  1  0  0  0  0
M  END
>  <CHROM.1>
-163.32811331,-52.83098520,60.53027187,-4.67838704,-1.34479550,0.12713825
2.10389889,0.32946690,-2.57628665

>  <Name>
lig.pdb

>  <RI>
0

>  <Rbt.Current_Directory>
/home/itssahil/PROJECTS/Mol_Feturizer/New_Systems/rnas/5bws

>  <Rbt.Executable>
rbdock ($Id: //depot/dev/client3/rdock/2013.1/src/exe/rbdock.cxx#4 $)

>  <Rbt.Library>
libRbt.so (2013.1, Build901 2013/11/27)

>  <Rbt.Parameter_File>
/export/apps/rDock/src/rDock_2013.1_src/data/scripts/dock_solv.prm

>  <Rbt.Receptor>
prm/pocket_docking_4.prm

>  <SCORE>
-11.1025

>  <SCORE.INTER>
-9.87145

>  <SCORE.INTER.CONST>
1

>  <SCORE.INTER.POLAR>
0

>  <SCORE.INTER.ROT>
3

>  <SCORE.INTER.SOLV>
21.893

>  <SCORE.INTER.VDW>
-19.4786

>  <SCORE.INTER.norm>
-0.448702

>  <SCORE.INTRA>
-1.23102

>  <SCORE.INTRA.DIHEDRAL>
-4.56703

>  <SCORE.INTRA.DIHEDRAL.0>
6.10773

>  <SCORE.INTRA.POLAR>
0

>  <SCORE.INTRA.POLAR.0>
0

>  <SCORE.INTRA.REPUL>
0

>  <SCORE.INTRA.REPUL.0>
0

>  <SCORE.INTRA.SOLV>
1.95591

>  <SCORE.INTRA.SOLV.lig_0>
-71.4024

>  <SCORE.INTRA.VDW>
0.0745418

>  <SCORE.INTRA.VDW.0>
-1.86213

>  <SCORE.INTRA.norm>
-0.0559554

>  <SCORE.RESTR>
0

>  <SCORE.RESTR.CAVITY>
0

>  <SCORE.RESTR.norm>
0

>  <SCORE.SYSTEM>
0

>  <SCORE.SYSTEM.CONST>
0

>  <SCORE.SYSTEM.DIHEDRAL>
0

>  <SCORE.SYSTEM.SOLV>
0

>  <SCORE.SYSTEM.norm>
0

>  <SCORE.heavy>
22

>  <SCORE.norm>
-0.504658

>  <RMSD>
2.540

$$$$
lig.pdb
 OpenBabel11021811523D
libRbt.so/2013.1/901 2013/11/27
 22 23  0  0  0  0  0  0  0  0999 V2000
   -5.6544   -1.0056   -0.8227 C   0  0  1  0  0  0  0  0  0  0  0  0
   -4.7866   -0.4214    1.4788 C   0  0  1  0  0  0  0  0  0  0  0  0
   -3.2977   -0.9227    1.2160 C   0  0  1  0  0  0  0  0  0  0  0  0
   -2.3405   -0.1821    2.2555 C   0  0  2  0  0  0  0  0  0  0  0  0
   -7.0307   -1.4862   -1.4269 C   0  0  1  0  0  0  0  0  0  0  0  0
   -7.2458   -2.9552   -1.0119 C   0  0  2  0  0  0  0  0  0  0  0  0
   -6.1293   -3.8531   -1.5735 C   0  0  2  0  0  0  0  0  0  0  0  0
   -4.7189   -3.4101   -1.0379 C   0  0  1  0  0  0  0  0  0  0  0  0
   -3.5816   -4.2801   -1.6464 C   0  0  0  0  0  0  0  0  0  0  0  0
   -2.3991    1.4077    1.9885 C   0  0  1  0  0  0  0  0  0  0  0  0
   -3.9155    1.8765    2.2612 C   0  0  0  0  0  0  0  0  0  0  0  0
   -4.9021    1.1203    1.2575 C   0  0  2  0  0  0  0  0  0  0  0  0
   -6.1240   -3.7908   -3.0396 F   0  0  0  0  0  0  0  0  0  0  0  0
   -8.1161   -0.5811   -0.8828 N   0  0  0  0  0  0  0  0  0  0  0  0
   -3.6596   -5.6581   -1.3407 N   0  0  0  0  0  0  0  0  0  0  0  0
   -1.5239    2.1521    2.9572 N   0  0  0  0  0  0  0  0  0  0  0  0
   -6.2910    1.5535    1.5141 N   0  0  0  0  0  0  0  0  0  0  0  0
   -5.6803   -1.0459    0.5698 O   0  0  0  0  0  0  0  0  0  0  0  0
   -3.2595   -2.3845    1.4572 O   0  0  0  0  0  0  0  0  0  0  0  0
   -1.0453   -0.6446    2.0113 O   0  0  0  0  0  0  0  0  0  0  0  0
   -8.2484   -3.3041   -1.4552 O   0  0  0  0  0  0  0  0  0  0  0  0
   -4.5644   -1.9172   -1.3805 O   0  0  0  0  0  0  0  0  0  0  0  0
  1  5  1  0  0  0  0
  1 18  1  1  0  0  0
  2 18  1  6  0  0  0
  2  3  1  0  0  0  0
  2 12  1  0  0  0  0
  3 19  1  1  0  0  0
  3  4  1  0  0  0  0
  4 20  1  6  0  0  0
  4 10  1  0  0  0  0
  5  6  1  0  0  0  0
  5 14  1  1  0  0  0
  6 21  1  6  0  0  0
  7 13  1  6  0  0  0
  7  6  1  0  0  0  0
  8  9  1  6  0  0  0
  8  7  1  0  0  0  0
 10 16  1  1  0  0  0
 11 10  1  0  0  0  0
 12 17  1  1  0  0  0
 12 11  1  0  0  0  0
 15  9  1  0  0  0  0
 22  8  1  0  0  0  0
 22  1  1  0  0  0  0
M  END
>  <CHROM.1>
-164.18974259,-58.63039819,-61.45335720,-4.76319115,-1.41219593,0.10168154
2.12926118,0.33703701,-2.61288560

>  <Name>
lig.pdb

>  <RI>
0

>  <Rbt.Current_Directory>
/home/itssahil/PROJECTS/Mol_Feturizer/New_Systems/rnas/5bws

>  <Rbt.Executable>
rbdock ($Id: //depot/dev/client3/rdock/2013.1/src/exe/rbdock.cxx#4 $)

>  <Rbt.Library>
libRbt.so (2013.1, Build901 2013/11/27)

>  <Rbt.Parameter_File>
/export/apps/rDock/src/rDock_2013.1_src/data/scripts/dock_solv.prm

>  <Rbt.Receptor>
prm/pocket_docking_3.prm

>  <SCORE>
-12.3967

>  <SCORE.INTER>
-10.3698

>  <SCORE.INTER.CONST>
1

>  <SCORE.INTER.POLAR>
0

>  <SCORE.INTER.ROT>
3

>  <SCORE.INTER.SOLV>
20.4139

>  <SCORE.INTER.VDW>
-19.3178

>  <SCORE.INTER.norm>
-0.471353

>  <SCORE.INTRA>
-2.0269

>  <SCORE.INTRA.DIHEDRAL>
-4.92354

>  <SCORE.INTRA.DIHEDRAL.0>
6.10773

>  <SCORE.INTRA.POLAR>
0

>  <SCORE.INTRA.POLAR.0>
0

>  <SCORE.INTRA.REPUL>
0

>  <SCORE.INTRA.REPUL.0>
0

>  <SCORE.INTRA.SOLV>
0.742257

>  <SCORE.INTRA.SOLV.lig_0>
-71.4024

>  <SCORE.INTRA.VDW>
0.0637347

>  <SCORE.INTRA.VDW.0>
-1.86213

>  <SCORE.INTRA.norm>
-0.092132

>  <SCORE.RESTR>
0

>  <SCORE.RESTR.CAVITY>
0

>  <SCORE.RESTR.norm>
0

>  <SCORE.SYSTEM>
0

>  <SCORE.SYSTEM.CONST>
0

>  <SCORE.SYSTEM.DIHEDRAL>
0

>  <SCORE.SYSTEM.SOLV>
0

>  <SCORE.SYSTEM.norm>
0

>  <SCORE.heavy>
22

>  <SCORE.norm>
-0.563485

>  <RMSD>
2.543

$$$$
lig.pdb
 OpenBabel11021811523D
libRbt.so/2013.1/901 2013/11/27
 22 23  0  0  0  0  0  0  0  0999 V2000
   -7.2997    0.0596   -0.0892 C   0  0  1  0  0  0  0  0  0  0  0  0
   -5.1485    0.5933    1.1268 C   0  0  1  0  0  0  0  0  0  0  0  0
   -4.7819    1.5520    2.3448 C   0  0  1  0  0  0  0  0  0  0  0  0
   -3.1921    1.6632    2.4197 C   0  0  2  0  0  0  0  0  0  0  0  0
   -8.7862    0.5793    0.0124 C   0  0  1  0  0  0  0  0  0  0  0  0
   -9.4334   -0.0688    1.2523 C   0  0  2  0  0  0  0  0  0  0  0  0
   -9.4634   -1.6016    1.1175 C   0  0  2  0  0  0  0  0  0  0  0  0
   -8.0117   -2.1893    0.9778 C   0  0  1  0  0  0  0  0  0  0  0  0
   -8.0402   -3.7330    0.7856 C   0  0  0  0  0  0  0  0  0  0  0  0
   -2.5731    0.2030    2.7144 C   0  0  1  0  0  0  0  0  0  0  0  0
   -2.9649   -0.7364    1.4663 C   0  0  0  0  0  0  0  0  0  0  0  0
   -4.5549   -0.8349    1.3443 C   0  0  2  0  0  0  0  0  0  0  0  0
  -10.2496   -1.9872   -0.0599 F   0  0  0  0  0  0  0  0  0  0  0  0
   -8.7419    2.0891    0.1229 N   0  0  0  0  0  0  0  0  0  0  0  0
   -8.5512   -4.1671   -0.4589 N   0  0  0  0  0  0  0  0  0  0  0  0
   -1.0724    0.2537    2.7773 N   0  0  0  0  0  0  0  0  0  0  0  0
   -4.9073   -1.6962    0.1970 N   0  0  0  0  0  0  0  0  0  0  0  0
   -6.5572    0.4528    1.0222 O   0  0  0  0  0  0  0  0  0  0  0  0
   -5.3623    2.8867    2.0653 O   0  0  0  0  0  0  0  0  0  0  0  0
   -2.8972    2.5146    3.4871 O   0  0  0  0  0  0  0  0  0  0  0  0
  -10.5175    0.3096    1.3232 O   0  0  0  0  0  0  0  0  0  0  0  0
   -7.3519   -1.4614   -0.2075 O   0  0  0  0  0  0  0  0  0  0  0  0
  1  5  1  0  0  0  0
  1 18  1  1  0  0  0
  2 18  1  1  0  0  0
  2  3  1  0  0  0  0
  2 12  1  0  0  0  0
  3 19  1  6  0  0  0
  3  4  1  0  0  0  0
  4 20  1  1  0  0  0
  4 10  1  0  0  0  0
  5  6  1  0  0  0  0
  5 14  1  1  0  0  0
  6 21  1  6  0  0  0
  7 13  1  6  0  0  0
  7  6  1  0  0  0  0
  8  9  1  6  0  0  0
  8  7  1  0  0  0  0
 10 16  1  6  0  0  0
 11 10  1  0  0  0  0
 12 17  1  6  0  0  0
 12 11  1  0  0  0  0
 15  9  1  0  0  0  0
 22  8  1  0  0  0  0
 22  1  1  0  0  0  0
M  END
>  <CHROM.1>
-156.97005225,158.95696429,69.63436412,-6.45269982,-0.23971024,1.15737877
2.69614037,0.22104702,-2.90113494

>  <Name>
lig.pdb

>  <RI>
0

>  <Rbt.Current_Directory>
/home/itssahil/PROJECTS/Mol_Feturizer/New_Systems/rnas/5bws

>  <Rbt.Executable>
rbdock ($Id: //depot/dev/client3/rdock/2013.1/src/exe/rbdock.cxx#4 $)

>  <Rbt.Library>
libRbt.so (2013.1, Build901 2013/11/27)

>  <Rbt.Parameter_File>
/export/apps/rDock/src/rDock_2013.1_src/data/scripts/dock_solv.prm

>  <Rbt.Receptor>
prm/pocket_docking_8.prm

>  <SCORE>
-7.74114

>  <SCORE.INTER>
-9.01496

>  <SCORE.INTER.CONST>
1

>  <SCORE.INTER.POLAR>
0

>  <SCORE.INTER.ROT>
3

>  <SCORE.INTER.SOLV>
16.3799

>  <SCORE.INTER.VDW>
-17.0699

>  <SCORE.INTER.norm>
-0.409771

>  <SCORE.INTRA>
1.27381

>  <SCORE.INTRA.DIHEDRAL>
-1.49046

>  <SCORE.INTRA.DIHEDRAL.0>
6.10773

>  <SCORE.INTRA.POLAR>
0

>  <SCORE.INTRA.POLAR.0>
0

>  <SCORE.INTRA.REPUL>
0

>  <SCORE.INTRA.REPUL.0>
0

>  <SCORE.INTRA.SOLV>
3.06732

>  <SCORE.INTRA.SOLV.lig_0>
-71.4024

>  <SCORE.INTRA.VDW>
0.485382

>  <SCORE.INTRA.VDW.0>
-1.86213

>  <SCORE.INTRA.norm>
0.0579006

>  <SCORE.RESTR>
0

>  <SCORE.RESTR.CAVITY>
0

>  <SCORE.RESTR.norm>
0

>  <SCORE.SYSTEM>
0

>  <SCORE.SYSTEM.CONST>
0

>  <SCORE.SYSTEM.DIHEDRAL>
0

>  <SCORE.SYSTEM.SOLV>
0

>  <SCORE.SYSTEM.norm>
0

>  <SCORE.heavy>
22

>  <SCORE.norm>
-0.35187

>  <RMSD>
2.564

$$$$
lig.pdb
 OpenBabel11021811523D
libRbt.so/2013.1/901 2013/11/27
 22 23  0  0  0  0  0  0  0  0999 V2000
   -5.8729   -1.5151   -0.8486 C   0  0  1  0  0  0  0  0  0  0  0  0
   -4.9316   -0.8635    1.4054 C   0  0  1  0  0  0  0  0  0  0  0  0
   -3.4068   -1.1883    1.0789 C   0  0  1  0  0  0  0  0  0  0  0  0
   -2.4994   -0.3306    2.0720 C   0  0  2  0  0  0  0  0  0  0  0  0
   -7.1877   -2.2129   -1.3723 C   0  0  1  0  0  0  0  0  0  0  0  0
   -7.1132   -3.7076   -1.0025 C   0  0  2  0  0  0  0  0  0  0  0  0
   -5.9049   -4.3802   -1.6778 C   0  0  2  0  0  0  0  0  0  0  0  0
   -4.5553   -3.7115   -1.2264 C   0  0  1  0  0  0  0  0  0  0  0  0
   -3.3350   -4.3517   -1.9488 C   0  0  0  0  0  0  0  0  0  0  0  0
   -2.7569    1.2387    1.8014 C   0  0  1  0  0  0  0  0  0  0  0  0
   -4.3047    1.5282    2.1393 C   0  0  0  0  0  0  0  0  0  0  0  0
   -5.2379    0.6519    1.1832 C   0  0  2  0  0  0  0  0  0  0  0  0
   -6.0233   -4.2780   -3.1369 F   0  0  0  0  0  0  0  0  0  0  0  0
   -8.3680   -1.5272   -0.7164 N   0  0  0  0  0  0  0  0  0  0  0  0
   -3.1200   -5.7176   -1.6543 N   0  0  0  0  0  0  0  0  0  0  0  0
   -1.9343    2.0899    2.7275 N   0  0  0  0  0  0  0  0  0  0  0  0
   -6.6556    0.9208    1.4994 N   0  0  0  0  0  0  0  0  0  0  0  0
   -5.7840   -1.5972    0.5394 O   0  0  0  0  0  0  0  0  0  0  0  0
   -3.1858   -2.6331    1.3240 O   0  0  0  0  0  0  0  0  0  0  0  0
   -1.1706   -0.6395    1.7725 O   0  0  0  0  0  0  0  0  0  0  0  0
   -8.0715   -4.2146   -1.3872 O   0  0  0  0  0  0  0  0  0  0  0  0
   -4.6880   -2.2059   -1.5187 O   0  0  0  0  0  0  0  0  0  0  0  0
  1  5  1  0  0  0  0
  1 18  1  1  0  0  0
  2 18  1  6  0  0  0
  2  3  1  0  0  0  0
  2 12  1  0  0  0  0
  3 19  1  1  0  0  0
  3  4  1  0  0  0  0
  4 20  1  6  0  0  0
  4 10  1  0  0  0  0
  5  6  1  0  0  0  0
  5 14  1  1  0  0  0
  6 21  1  6  0  0  0
  7 13  1  6  0  0  0
  7  6  1  0  0  0  0
  8  9  1  6  0  0  0
  8  7  1  0  0  0  0
 10 16  1  1  0  0  0
 11 10  1  0  0  0  0
 12 17  1  1  0  0  0
 12 11  1  0  0  0  0
 15  9  1  0  0  0  0
 22  8  1  0  0  0  0
 22  1  1  0  0  0  0
M  END
>  <CHROM.1>
-165.11904025,-62.36564891,-63.74032185,-4.83043071,-1.81755272,-0.00268973
2.04245411,0.21003248,-2.55943926

>  <Name>
lig.pdb

>  <RI>
0

>  <Rbt.Current_Directory>
/home/itssahil/PROJECTS/Mol_Feturizer/New_Systems/rnas/5bws

>  <Rbt.Executable>
rbdock ($Id: //depot/dev/client3/rdock/2013.1/src/exe/rbdock.cxx#4 $)

>  <Rbt.Library>
libRbt.so (2013.1, Build901 2013/11/27)

>  <Rbt.Parameter_File>
/export/apps/rDock/src/rDock_2013.1_src/data/scripts/dock_solv.prm

>  <Rbt.Receptor>
prm/blind_docking_40.prm

>  <SCORE>
-11.2717

>  <SCORE.INTER>
-9.57782

>  <SCORE.INTER.CONST>
1

>  <SCORE.INTER.POLAR>
0

>  <SCORE.INTER.ROT>
3

>  <SCORE.INTER.SOLV>
20.7204

>  <SCORE.INTER.VDW>
-18.892

>  <SCORE.INTER.norm>
-0.435356

>  <SCORE.INTRA>
-2.09386

>  <SCORE.INTRA.DIHEDRAL>
-4.98825

>  <SCORE.INTRA.DIHEDRAL.0>
6.10773

>  <SCORE.INTRA.POLAR>
0

>  <SCORE.INTRA.POLAR.0>
0

>  <SCORE.INTRA.REPUL>
0

>  <SCORE.INTRA.REPUL.0>
0

>  <SCORE.INTRA.SOLV>
0.670769

>  <SCORE.INTRA.SOLV.lig_0>
-71.4024

>  <SCORE.INTRA.VDW>
0.0648766

>  <SCORE.INTRA.VDW.0>
-1.86213

>  <SCORE.INTRA.norm>
-0.0951755

>  <SCORE.RESTR>
0.399953

>  <SCORE.RESTR.CAVITY>
0.399953

>  <SCORE.RESTR.norm>
0.0181797

>  <SCORE.SYSTEM>
0

>  <SCORE.SYSTEM.CONST>
0

>  <SCORE.SYSTEM.DIHEDRAL>
0

>  <SCORE.SYSTEM.SOLV>
0

>  <SCORE.SYSTEM.norm>
0

>  <SCORE.heavy>
22

>  <SCORE.norm>
-0.512352

>  <RMSD>
2.620

$$$$
lig.pdb
 OpenBabel11021811523D
libRbt.so/2013.1/901 2013/11/27
 22 23  0  0  0  0  0  0  0  0999 V2000
   -7.7561   -1.4192   -0.3874 C   0  0  1  0  0  0  0  0  0  0  0  0
   -6.9879   -0.0457    1.5912 C   0  0  1  0  0  0  0  0  0  0  0  0
   -5.4614    0.1191    1.1670 C   0  0  1  0  0  0  0  0  0  0  0  0
   -4.8925    1.4268    1.8822 C   0  0  2  0  0  0  0  0  0  0  0  0
   -8.6966   -2.6658   -0.6146 C   0  0  1  0  0  0  0  0  0  0  0  0
   -7.9847   -3.9092   -0.0459 C   0  0  2  0  0  0  0  0  0  0  0  0
   -6.6558   -4.1639   -0.7793 C   0  0  2  0  0  0  0  0  0  0  0  0
   -5.6767   -2.9435   -0.6235 C   0  0  1  0  0  0  0  0  0  0  0  0
   -4.3537   -3.1732   -1.4093 C   0  0  0  0  0  0  0  0  0  0  0  0
   -5.7105    2.7145    1.3580 C   0  0  1  0  0  0  0  0  0  0  0  0
   -7.2452    2.5118    1.8022 C   0  0  0  0  0  0  0  0  0  0  0  0
   -7.8301    1.1858    1.1295 C   0  0  2  0  0  0  0  0  0  0  0  0
   -6.9059   -4.3959   -2.2065 F   0  0  0  0  0  0  0  0  0  0  0  0
  -10.0068   -2.3920    0.0940 N   0  0  0  0  0  0  0  0  0  0  0  0
   -3.6207   -4.3165   -1.0169 N   0  0  0  0  0  0  0  0  0  0  0  0
   -5.2205    3.9727    2.0181 N   0  0  0  0  0  0  0  0  0  0  0  0
   -9.2369    1.0050    1.5422 N   0  0  0  0  0  0  0  0  0  0  0  0
   -7.5462   -1.1944    0.9715 O   0  0  0  0  0  0  0  0  0  0  0  0
   -4.7234   -1.0729    1.6474 O   0  0  0  0  0  0  0  0  0  0  0  0
   -3.5533    1.5437    1.5027 O   0  0  0  0  0  0  0  0  0  0  0  0
   -8.6710   -4.8169   -0.2146 O   0  0  0  0  0  0  0  0  0  0  0  0
   -6.4407   -1.6984   -1.1097 O   0  0  0  0  0  0  0  0  0  0  0  0
  1  5  1  0  0  0  0
  1 18  1  1  0  0  0
  2 18  1  6  0  0  0
  2  3  1  0  0  0  0
  2 12  1  0  0  0  0
  3 19  1  1  0  0  0
  3  4  1  0  0  0  0
  4 20  1  6  0  0  0
  4 10  1  0  0  0  0
  5  6  1  0  0  0  0
  5 14  1  1  0  0  0
  6 21  1  6  0  0  0
  7 13  1  6  0  0  0
  7  6  1  0  0  0  0
  8  9  1  6  0  0  0
  8  7  1  0  0  0  0
 10 16  1  1  0  0  0
 11 10  1  0  0  0  0
 12 17  1  1  0  0  0
 12 11  1  0  0  0  0
 15  9  1  0  0  0  0
 22  8  1  0  0  0  0
 22  1  1  0  0  0  0
M  END
>  <CHROM.1>
-166.73183873,-65.17486298,-59.35427456,-6.58536293,-1.14647418,0.33895667
1.75312232,-0.06660408,-2.71467303

>  <Name>
lig.pdb

>  <RI>
0

>  <Rbt.Current_Directory>
/home/itssahil/PROJECTS/Mol_Feturizer/New_Systems/rnas/5bws

>  <Rbt.Executable>
rbdock ($Id: //depot/dev/client3/rdock/2013.1/src/exe/rbdock.cxx#4 $)

>  <Rbt.Library>
libRbt.so (2013.1, Build901 2013/11/27)

>  <Rbt.Parameter_File>
/export/apps/rDock/src/rDock_2013.1_src/data/scripts/dock_solv.prm

>  <Rbt.Receptor>
prm/pocket_docking_5.prm

>  <SCORE>
-9.60441

>  <SCORE.INTER>
-7.46119

>  <SCORE.INTER.CONST>
1

>  <SCORE.INTER.POLAR>
0

>  <SCORE.INTER.ROT>
3

>  <SCORE.INTER.SOLV>
21.7648

>  <SCORE.INTER.VDW>
-17.8291

>  <SCORE.INTER.norm>
-0.339145

>  <SCORE.INTRA>
-2.14322

>  <SCORE.INTRA.DIHEDRAL>
-5.13809

>  <SCORE.INTRA.DIHEDRAL.0>
6.10773

>  <SCORE.INTRA.POLAR>
0

>  <SCORE.INTRA.POLAR.0>
0

>  <SCORE.INTRA.REPUL>
0

>  <SCORE.INTRA.REPUL.0>
0

>  <SCORE.INTRA.SOLV>
0.651613

>  <SCORE.INTRA.SOLV.lig_0>
-71.4024

>  <SCORE.INTRA.VDW>
0.100016

>  <SCORE.INTRA.VDW.0>
-1.86213

>  <SCORE.INTRA.norm>
-0.0974192

>  <SCORE.RESTR>
0

>  <SCORE.RESTR.CAVITY>
0

>  <SCORE.RESTR.norm>
0

>  <SCORE.SYSTEM>
0

>  <SCORE.SYSTEM.CONST>
0

>  <SCORE.SYSTEM.DIHEDRAL>
0

>  <SCORE.SYSTEM.SOLV>
0

>  <SCORE.SYSTEM.norm>
0

>  <SCORE.heavy>
22

>  <SCORE.norm>
-0.436564

>  <RMSD>
2.821

$$$$
lig.pdb
 OpenBabel11021811523D
libRbt.so/2013.1/901 2013/11/27
 22 23  0  0  0  0  0  0  0  0999 V2000
   -7.8351   -1.4595   -0.3529 C   0  0  1  0  0  0  0  0  0  0  0  0
   -7.1118   -0.0193    1.5949 C   0  0  1  0  0  0  0  0  0  0  0  0
   -5.5834    0.1572    1.1824 C   0  0  1  0  0  0  0  0  0  0  0  0
   -5.0422    1.4928    1.8669 C   0  0  2  0  0  0  0  0  0  0  0  0
   -8.8078   -2.6853   -0.5565 C   0  0  1  0  0  0  0  0  0  0  0  0
   -8.1451   -3.9282    0.0699 C   0  0  2  0  0  0  0  0  0  0  0  0
   -6.8100   -4.2474   -0.6259 C   0  0  2  0  0  0  0  0  0  0  0  0
   -5.7980   -3.0515   -0.4919 C   0  0  1  0  0  0  0  0  0  0  0  0
   -4.4669   -3.3475   -1.2412 C   0  0  0  0  0  0  0  0  0  0  0  0
   -5.8738    2.7528    1.2986 C   0  0  1  0  0  0  0  0  0  0  0  0
   -7.4100    2.5388    1.7321 C   0  0  0  0  0  0  0  0  0  0  0  0
   -7.9674    1.1859    1.0903 C   0  0  2  0  0  0  0  0  0  0  0  0
   -7.0381   -4.5223   -2.0491 F   0  0  0  0  0  0  0  0  0  0  0  0
  -10.1231   -2.3484    0.1142 N   0  0  0  0  0  0  0  0  0  0  0  0
   -4.6177   -3.7081   -2.5998 N   0  0  0  0  0  0  0  0  0  0  0  0
   -5.4101    4.0361    1.9286 N   0  0  0  0  0  0  0  0  0  0  0  0
   -9.3758    0.9948    1.4931 N   0  0  0  0  0  0  0  0  0  0  0  0
   -7.6458   -1.1931    1.0014 O   0  0  0  0  0  0  0  0  0  0  0  0
   -4.8328   -1.0095    1.7034 O   0  0  0  0  0  0  0  0  0  0  0  0
   -3.7009    1.6198    1.4984 O   0  0  0  0  0  0  0  0  0  0  0  0
   -8.8547   -4.8208   -0.0816 O   0  0  0  0  0  0  0  0  0  0  0  0
   -6.5143   -1.8026   -1.0372 O   0  0  0  0  0  0  0  0  0  0  0  0
  1  5  1  0  0  0  0
  1 18  1  1  0  0  0
  2 18  1  6  0  0  0
  2  3  1  0  0  0  0
  2 12  1  0  0  0  0
  3 19  1  1  0  0  0
  3  4  1  0  0  0  0
  4 20  1  6  0  0  0
  4 10  1  0  0  0  0
  5  6  1  0  0  0  0
  5 14  1  1  0  0  0
  6 21  1  6  0  0  0
  7 13  1  6  0  0  0
  7  6  1  0  0  0  0
  8  9  1  6  0  0  0
  8  7  1  0  0  0  0
 10 16  1  1  0  0  0
 11 10  1  0  0  0  0
 12 17  1  1  0  0  0
 12 11  1  0  0  0  0
 15  9  1  0  0  0  0
 22  8  1  0  0  0  0
 22  1  1  0  0  0  0
M  END
>  <CHROM.1>
-164.14776661,-65.03981912,53.89994544,-6.75660433,-1.13173163,0.30803990
1.76306599,-0.15258788,-2.69394303

>  <Name>
lig.pdb

>  <RI>
0

>  <Rbt.Current_Directory>
/home/itssahil/PROJECTS/Mol_Feturizer/New_Systems/rnas/5bws

>  <Rbt.Executable>
rbdock ($Id: //depot/dev/client3/rdock/2013.1/src/exe/rbdock.cxx#4 $)

>  <Rbt.Library>
libRbt.so (2013.1, Build901 2013/11/27)

>  <Rbt.Parameter_File>
/export/apps/rDock/src/rDock_2013.1_src/data/scripts/dock_solv.prm

>  <Rbt.Receptor>
prm/pocket_docking_5.prm

>  <SCORE>
-8.52103

>  <SCORE.INTER>
-7.36689

>  <SCORE.INTER.CONST>
1

>  <SCORE.INTER.POLAR>
0

>  <SCORE.INTER.ROT>
3

>  <SCORE.INTER.SOLV>
21.2073

>  <SCORE.INTER.VDW>
-17.5804

>  <SCORE.INTER.norm>
-0.334858

>  <SCORE.INTRA>
-1.15415

>  <SCORE.INTRA.DIHEDRAL>
-4.67613

>  <SCORE.INTRA.DIHEDRAL.0>
6.10773

>  <SCORE.INTRA.POLAR>
0

>  <SCORE.INTRA.POLAR.0>
0

>  <SCORE.INTRA.REPUL>
0

>  <SCORE.INTRA.REPUL.0>
0

>  <SCORE.INTRA.SOLV>
1.9836

>  <SCORE.INTRA.SOLV.lig_0>
-71.4024

>  <SCORE.INTRA.VDW>
0.19212

>  <SCORE.INTRA.VDW.0>
-1.86213

>  <SCORE.INTRA.norm>
-0.0524612

>  <SCORE.RESTR>
0

>  <SCORE.RESTR.CAVITY>
0

>  <SCORE.RESTR.norm>
0

>  <SCORE.SYSTEM>
0

>  <SCORE.SYSTEM.CONST>
0

>  <SCORE.SYSTEM.DIHEDRAL>
0

>  <SCORE.SYSTEM.SOLV>
0

>  <SCORE.SYSTEM.norm>
0

>  <SCORE.heavy>
22

>  <SCORE.norm>
-0.38732

>  <RMSD>
2.862

$$$$
lig.pdb
 OpenBabel11021811523D
libRbt.so/2013.1/901 2013/11/27
 22 23  0  0  0  0  0  0  0  0999 V2000
   -8.0592    0.6147    0.1187 C   0  0  1  0  0  0  0  0  0  0  0  0
   -5.7367    0.8057    1.0988 C   0  0  1  0  0  0  0  0  0  0  0  0
   -5.1628    1.6063    2.3505 C   0  0  1  0  0  0  0  0  0  0  0  0
   -3.5729    1.6410    2.2230 C   0  0  2  0  0  0  0  0  0  0  0  0
   -9.4945    1.1081    0.5507 C   0  0  1  0  0  0  0  0  0  0  0  0
   -9.9870    0.1980    1.6933 C   0  0  2  0  0  0  0  0  0  0  0  0
  -10.0975   -1.2629    1.2221 C   0  0  2  0  0  0  0  0  0  0  0  0
   -8.7047   -1.8135    0.7432 C   0  0  1  0  0  0  0  0  0  0  0  0
   -8.8222   -3.2720    0.2141 C   0  0  0  0  0  0  0  0  0  0  0  0
   -3.0049    0.1322    2.2773 C   0  0  1  0  0  0  0  0  0  0  0  0
   -3.6064   -0.6448    1.0014 C   0  0  0  0  0  0  0  0  0  0  0  0
   -5.2020   -0.6617    1.0838 C   0  0  2  0  0  0  0  0  0  0  0  0
  -11.0561   -1.3630    0.1156 F   0  0  0  0  0  0  0  0  0  0  0  0
   -9.3742    2.5520    0.9912 N   0  0  0  0  0  0  0  0  0  0  0  0
   -7.6263   -3.8105   -0.3133 N   0  0  0  0  0  0  0  0  0  0  0  0
   -1.5081    0.1120    2.1435 N   0  0  0  0  0  0  0  0  0  0  0  0
   -5.7471   -1.3741   -0.0899 N   0  0  0  0  0  0  0  0  0  0  0  0
   -7.1528    0.7375    1.1697 O   0  0  0  0  0  0  0  0  0  0  0  0
   -5.6978    2.9872    2.2929 O   0  0  0  0  0  0  0  0  0  0  0  0
   -3.0954    2.3548    3.3247 O   0  0  0  0  0  0  0  0  0  0  0  0
  -11.0342    0.5580    2.0050 O   0  0  0  0  0  0  0  0  0  0  0  0
   -8.1889   -0.8384   -0.3306 O   0  0  0  0  0  0  0  0  0  0  0  0
  1  5  1  0  0  0  0
  1 18  1  1  0  0  0
  2 18  1  1  0  0  0
  2  3  1  0  0  0  0
  2 12  1  0  0  0  0
  3 19  1  6  0  0  0
  3  4  1  0  0  0  0
  4 20  1  1  0  0  0
  4 10  1  0  0  0  0
  5  6  1  0  0  0  0
  5 14  1  1  0  0  0
  6 21  1  6  0  0  0
  7 13  1  6  0  0  0
  7  6  1  0  0  0  0
  8  9  1  6  0  0  0
  8  7  1  0  0  0  0
 10 16  1  6  0  0  0
 11 10  1  0  0  0  0
 12 17  1  6  0  0  0
 12 11  1  0  0  0  0
 15  9  1  0  0  0  0
 22  8  1  0  0  0  0
 22  1  1  0  0  0  0
M  END
>  <CHROM.1>
-158.73823479,153.04332951,176.24257496,-6.97619644,0.02385115,1.17101130
2.79252844,0.11241941,-2.76709131

>  <Name>
lig.pdb

>  <RI>
0

>  <Rbt.Current_Directory>
/home/itssahil/PROJECTS/Mol_Feturizer/New_Systems/rnas/5bws

>  <Rbt.Executable>
rbdock ($Id: //depot/dev/client3/rdock/2013.1/src/exe/rbdock.cxx#4 $)

>  <Rbt.Library>
libRbt.so (2013.1, Build901 2013/11/27)

>  <Rbt.Parameter_File>
/export/apps/rDock/src/rDock_2013.1_src/data/scripts/dock_solv.prm

>  <Rbt.Receptor>
prm/pocket_docking_5.prm

>  <SCORE>
-7.82476

>  <SCORE.INTER>
-9.3506

>  <SCORE.INTER.CONST>
1

>  <SCORE.INTER.POLAR>
0

>  <SCORE.INTER.ROT>
3

>  <SCORE.INTER.SOLV>
15.458

>  <SCORE.INTER.VDW>
-16.9864

>  <SCORE.INTER.norm>
-0.425027

>  <SCORE.INTRA>
1.52584

>  <SCORE.INTRA.DIHEDRAL>
-1.01723

>  <SCORE.INTRA.DIHEDRAL.0>
6.10773

>  <SCORE.INTRA.POLAR>
0

>  <SCORE.INTRA.POLAR.0>
0

>  <SCORE.INTRA.REPUL>
0

>  <SCORE.INTRA.REPUL.0>
0

>  <SCORE.INTRA.SOLV>
3.48384

>  <SCORE.INTRA.SOLV.lig_0>
-71.4024

>  <SCORE.INTRA.VDW>
0.292537

>  <SCORE.INTRA.VDW.0>
-1.86213

>  <SCORE.INTRA.norm>
0.0693565

>  <SCORE.RESTR>
0

>  <SCORE.RESTR.CAVITY>
0

>  <SCORE.RESTR.norm>
0

>  <SCORE.SYSTEM>
0

>  <SCORE.SYSTEM.CONST>
0

>  <SCORE.SYSTEM.DIHEDRAL>
0

>  <SCORE.SYSTEM.SOLV>
0

>  <SCORE.SYSTEM.norm>
0

>  <SCORE.heavy>
22

>  <SCORE.norm>
-0.355671

>  <RMSD>
2.947

$$$$
lig.pdb
 OpenBabel11021811523D
libRbt.so/2013.1/901 2013/11/27
 22 23  0  0  0  0  0  0  0  0999 V2000
   -7.8063   -1.3556   -1.2168 C   0  0  1  0  0  0  0  0  0  0  0  0
   -7.2974    0.5876    0.3182 C   0  0  1  0  0  0  0  0  0  0  0  0
   -6.0920    0.9880    1.2793 C   0  0  1  0  0  0  0  0  0  0  0  0
   -6.5133    2.3083    2.0698 C   0  0  2  0  0  0  0  0  0  0  0  0
   -8.7788   -2.2295   -0.3332 C   0  0  1  0  0  0  0  0  0  0  0  0
   -7.9199   -3.1952    0.5071 C   0  0  2  0  0  0  0  0  0  0  0  0
   -7.1087   -4.1381   -0.3992 C   0  0  2  0  0  0  0  0  0  0  0  0
   -6.1371   -3.3311   -1.3357 C   0  0  1  0  0  0  0  0  0  0  0  0
   -5.3552   -4.2766   -2.2925 C   0  0  0  0  0  0  0  0  0  0  0  0
   -6.7445    3.5057    1.0139 C   0  0  1  0  0  0  0  0  0  0  0  0
   -7.9655    3.0653    0.0606 C   0  0  0  0  0  0  0  0  0  0  0  0
   -7.5851    1.7219   -0.7162 C   0  0  2  0  0  0  0  0  0  0  0  0
   -8.0148   -4.9402   -1.2292 F   0  0  0  0  0  0  0  0  0  0  0  0
   -9.5848   -1.2880    0.5371 N   0  0  0  0  0  0  0  0  0  0  0  0
   -6.1626   -5.0191   -3.1843 N   0  0  0  0  0  0  0  0  0  0  0  0
   -7.1606    4.7701    1.7117 N   0  0  0  0  0  0  0  0  0  0  0  0
   -8.7095    1.3227   -1.5871 N   0  0  0  0  0  0  0  0  0  0  0  0
   -6.9682   -0.5806   -0.4180 O   0  0  0  0  0  0  0  0  0  0  0  0
   -5.8853   -0.1226    2.2385 O   0  0  0  0  0  0  0  0  0  0  0  0
   -5.4461    2.6327    2.9105 O   0  0  0  0  0  0  0  0  0  0  0  0
   -8.6308   -3.8327    1.1487 O   0  0  0  0  0  0  0  0  0  0  0  0
   -7.0024   -2.3098   -2.0962 O   0  0  0  0  0  0  0  0  0  0  0  0
  1  5  1  0  0  0  0
  1 18  1  1  0  0  0
  2 18  1  6  0  0  0
  2  3  1  0  0  0  0
  2 12  1  0  0  0  0
  3 19  1  1  0  0  0
  3  4  1  0  0  0  0
  4 20  1  1  0  0  0
  4 10  1  0  0  0  0
  5  6  1  0  0  0  0
  5 14  1  1  0  0  0
  6 21  1  1  0  0  0
  7 13  1  6  0  0  0
  7  6  1  0  0  0  0
  8  9  1  6  0  0  0
  8  7  1  0  0  0  0
 10 16  1  1  0  0  0
 11 10  1  0  0  0  0
 12 17  1  6  0  0  0
 12 11  1  0  0  0  0
 15  9  1  0  0  0  0
 22  8  1  0  0  0  0
 22  1  1  0  0  0  0
M  END
>  <CHROM.1>
-74.40996670,170.19483401,61.74194016,-7.22078308,-0.79211334,-0.04468866
1.71527459,1.25163802,-2.90729342

>  <Name>
lig.pdb

>  <RI>
0

>  <Rbt.Current_Directory>
/home/itssahil/PROJECTS/Mol_Feturizer/New_Systems/rnas/5bws

>  <Rbt.Executable>
rbdock ($Id: //depot/dev/client3/rdock/2013.1/src/exe/rbdock.cxx#4 $)

>  <Rbt.Library>
libRbt.so (2013.1, Build901 2013/11/27)

>  <Rbt.Parameter_File>
/export/apps/rDock/src/rDock_2013.1_src/data/scripts/dock_solv.prm

>  <Rbt.Receptor>
prm/pocket_docking_8.prm

>  <SCORE>
-7.38922

>  <SCORE.INTER>
-7.37371

>  <SCORE.INTER.CONST>
1

>  <SCORE.INTER.POLAR>
0

>  <SCORE.INTER.ROT>
3

>  <SCORE.INTER.SOLV>
16.1345

>  <SCORE.INTER.VDW>
-15.894

>  <SCORE.INTER.norm>
-0.335169

>  <SCORE.INTRA>
-0.0155082

>  <SCORE.INTRA.DIHEDRAL>
-4.65352

>  <SCORE.INTRA.DIHEDRAL.0>
6.10773

>  <SCORE.INTRA.POLAR>
0

>  <SCORE.INTRA.POLAR.0>
0

>  <SCORE.INTRA.REPUL>
0

>  <SCORE.INTRA.REPUL.0>
0

>  <SCORE.INTRA.SOLV>
3.60572

>  <SCORE.INTRA.SOLV.lig_0>
-71.4024

>  <SCORE.INTRA.VDW>
0.508393

>  <SCORE.INTRA.VDW.0>
-1.86213

>  <SCORE.INTRA.norm>
-0.000704917

>  <SCORE.RESTR>
0

>  <SCORE.RESTR.CAVITY>
0

>  <SCORE.RESTR.norm>
0

>  <SCORE.SYSTEM>
0

>  <SCORE.SYSTEM.CONST>
0

>  <SCORE.SYSTEM.DIHEDRAL>
0

>  <SCORE.SYSTEM.SOLV>
0

>  <SCORE.SYSTEM.norm>
0

>  <SCORE.heavy>
22

>  <SCORE.norm>
-0.335874

>  <RMSD>
3.162

$$$$
lig.pdb
 OpenBabel11021811523D
libRbt.so/2013.1/901 2013/11/27
 22 23  0  0  0  0  0  0  0  0999 V2000
   -5.4457   -1.6003    0.4243 C   0  0  1  0  0  0  0  0  0  0  0  0
   -4.6785    0.8073    0.3479 C   0  0  1  0  0  0  0  0  0  0  0  0
   -6.0587    1.5348    0.6690 C   0  0  1  0  0  0  0  0  0  0  0  0
   -5.7254    2.9618    1.2997 C   0  0  2  0  0  0  0  0  0  0  0  0
   -5.5988   -2.7994   -0.5901 C   0  0  1  0  0  0  0  0  0  0  0  0
   -6.6006   -2.3744   -1.6819 C   0  0  2  0  0  0  0  0  0  0  0  0
   -7.9817   -2.0749   -1.0726 C   0  0  2  0  0  0  0  0  0  0  0  0
   -7.8998   -0.9071   -0.0229 C   0  0  1  0  0  0  0  0  0  0  0  0
   -9.2832   -0.6380    0.6362 C   0  0  0  0  0  0  0  0  0  0  0  0
   -4.9231    2.7541    2.6836 C   0  0  1  0  0  0  0  0  0  0  0  0
   -3.5385    2.0162    2.3203 C   0  0  0  0  0  0  0  0  0  0  0  0
   -3.8433    0.5978    1.6509 C   0  0  2  0  0  0  0  0  0  0  0  0
   -8.5103   -3.2739   -0.4122 F   0  0  0  0  0  0  0  0  0  0  0  0
   -4.2296   -3.0966   -1.1650 N   0  0  0  0  0  0  0  0  0  0  0  0
   -9.7258   -1.6477    1.5212 N   0  0  0  0  0  0  0  0  0  0  0  0
   -4.5710    4.0746    3.3088 N   0  0  0  0  0  0  0  0  0  0  0  0
   -2.5695   -0.0726    1.3187 N   0  0  0  0  0  0  0  0  0  0  0  0
   -4.9202   -0.4760   -0.2087 O   0  0  0  0  0  0  0  0  0  0  0  0
   -6.7885    1.7124   -0.6085 O   0  0  0  0  0  0  0  0  0  0  0  0
   -6.9490    3.5819    1.5631 O   0  0  0  0  0  0  0  0  0  0  0  0
   -6.7123   -3.2506   -2.4189 O   0  0  0  0  0  0  0  0  0  0  0  0
   -6.8273   -1.3108    1.0052 O   0  0  0  0  0  0  0  0  0  0  0  0
  1  5  1  0  0  0  0
  1 18  1  6  0  0  0
  2 18  1  1  0  0  0
  2  3  1  0  0  0  0
  2 12  1  0  0  0  0
  3 19  1  6  0  0  0
  3  4  1  0  0  0  0
  4 20  1  1  0  0  0
  4 10  1  0  0  0  0
  5  6  1  0  0  0  0
  5 14  1  6  0  0  0
  6 21  1  6  0  0  0
  7 13  1  1  0  0  0
  7  6  1  0  0  0  0
  8  9  1  1  0  0  0
  8  7  1  0  0  0  0
 10 16  1  6  0  0  0
 11 10  1  0  0  0  0
 12 17  1  6  0  0  0
 12 11  1  0  0  0  0
 15  9  1  0  0  0  0
 22  8  1  0  0  0  0
 22  1  1  0  0  0  0
M  END
>  <CHROM.1>
177.64356830,-69.27177879,70.49155437,-6.11969690,-0.20261379,0.45020540
-1.96903695,0.00429056,0.49295659

>  <Name>
lig.pdb

>  <RI>
0

>  <Rbt.Current_Directory>
/home/itssahil/PROJECTS/Mol_Feturizer/New_Systems/rnas/5bws

>  <Rbt.Executable>
rbdock ($Id: //depot/dev/client3/rdock/2013.1/src/exe/rbdock.cxx#4 $)

>  <Rbt.Library>
libRbt.so (2013.1, Build901 2013/11/27)

>  <Rbt.Parameter_File>
/export/apps/rDock/src/rDock_2013.1_src/data/scripts/dock_solv.prm

>  <Rbt.Receptor>
prm/pocket_docking_3.prm

>  <SCORE>
-8.50899

>  <SCORE.INTER>
-6.48846

>  <SCORE.INTER.CONST>
1

>  <SCORE.INTER.POLAR>
0

>  <SCORE.INTER.ROT>
3

>  <SCORE.INTER.SOLV>
20.3806

>  <SCORE.INTER.VDW>
-16.7192

>  <SCORE.INTER.norm>
-0.29493

>  <SCORE.INTRA>
-2.02053

>  <SCORE.INTRA.DIHEDRAL>
-5.27445

>  <SCORE.INTRA.DIHEDRAL.0>
6.10773

>  <SCORE.INTRA.POLAR>
0

>  <SCORE.INTRA.POLAR.0>
0

>  <SCORE.INTRA.REPUL>
0

>  <SCORE.INTRA.REPUL.0>
0

>  <SCORE.INTRA.SOLV>
0.986221

>  <SCORE.INTRA.SOLV.lig_0>
-71.4024

>  <SCORE.INTRA.VDW>
0.123586

>  <SCORE.INTRA.VDW.0>
-1.86213

>  <SCORE.INTRA.norm>
-0.0918423

>  <SCORE.RESTR>
0

>  <SCORE.RESTR.CAVITY>
0

>  <SCORE.RESTR.norm>
0

>  <SCORE.SYSTEM>
0

>  <SCORE.SYSTEM.CONST>
0

>  <SCORE.SYSTEM.DIHEDRAL>
0

>  <SCORE.SYSTEM.SOLV>
0

>  <SCORE.SYSTEM.norm>
0

>  <SCORE.heavy>
22

>  <SCORE.norm>
-0.386772

>  <RMSD>
3.168

$$$$
lig.pdb
 OpenBabel11021811523D
libRbt.so/2013.1/901 2013/11/27
 22 23  0  0  0  0  0  0  0  0999 V2000
   -5.7896   -2.3479    0.1913 C   0  0  1  0  0  0  0  0  0  0  0  0
   -4.9842    0.0302   -0.1038 C   0  0  1  0  0  0  0  0  0  0  0  0
   -6.3106    0.8748    0.1496 C   0  0  1  0  0  0  0  0  0  0  0  0
   -5.8794    2.3213    0.6665 C   0  0  2  0  0  0  0  0  0  0  0  0
   -6.0324   -3.6105   -0.7236 C   0  0  1  0  0  0  0  0  0  0  0  0
   -7.1204   -3.2495   -1.7542 C   0  0  2  0  0  0  0  0  0  0  0  0
   -8.4443   -2.8961   -1.0535 C   0  0  2  0  0  0  0  0  0  0  0  0
   -8.2695   -1.6617   -0.0955 C   0  0  1  0  0  0  0  0  0  0  0  0
   -9.5916   -1.3353    0.6570 C   0  0  0  0  0  0  0  0  0  0  0  0
   -5.0944    2.1699    2.0675 C   0  0  1  0  0  0  0  0  0  0  0  0
   -3.7642    1.3112    1.7729 C   0  0  0  0  0  0  0  0  0  0  0  0
   -4.1664   -0.1316    1.2169 C   0  0  2  0  0  0  0  0  0  0  0  0
   -8.9209   -4.0429   -0.2719 F   0  0  0  0  0  0  0  0  0  0  0  0
   -4.7176   -3.9591   -1.3893 N   0  0  0  0  0  0  0  0  0  0  0  0
   -9.5374   -0.1894    1.4831 N   0  0  0  0  0  0  0  0  0  0  0  0
   -4.6517    3.5087    2.5875 N   0  0  0  0  0  0  0  0  0  0  0  0
   -2.9421   -0.9131    0.9472 N   0  0  0  0  0  0  0  0  0  0  0  0
   -5.3142   -1.2737   -0.5577 O   0  0  0  0  0  0  0  0  0  0  0  0
   -7.0255    0.9998   -1.1425 O   0  0  0  0  0  0  0  0  0  0  0  0
   -7.0571    3.0437    0.8720 O   0  0  0  0  0  0  0  0  0  0  0  0
   -7.2974   -4.1718   -2.4185 O   0  0  0  0  0  0  0  0  0  0  0  0
   -7.1164   -2.0063    0.8645 O   0  0  0  0  0  0  0  0  0  0  0  0
  1  5  1  0  0  0  0
  1 18  1  6  0  0  0
  2 18  1  1  0  0  0
  2  3  1  0  0  0  0
  2 12  1  0  0  0  0
  3 19  1  6  0  0  0
  3  4  1  0  0  0  0
  4 20  1  1  0  0  0
  4 10  1  0  0  0  0
  5  6  1  0  0  0  0
  5 14  1  6  0  0  0
  6 21  1  6  0  0  0
  7 13  1  1  0  0  0
  7  6  1  0  0  0  0
  8  9  1  1  0  0  0
  8  7  1  0  0  0  0
 10 16  1  6  0  0  0
 11 10  1  0  0  0  0
 12 17  1  6  0  0  0
 12 11  1  0  0  0  0
 15  9  1  0  0  0  0
 22  8  1  0  0  0  0
 22  1  1  0  0  0  0
M  END
>  <CHROM.1>
179.65259457,-76.48639488,-176.59928219,-6.42318283,-0.84305780,0.15620320
-1.95284553,-0.01273661,0.40473238

>  <Name>
lig.pdb

>  <RI>
0

>  <Rbt.Current_Directory>
/home/itssahil/PROJECTS/Mol_Feturizer/New_Systems/rnas/5bws

>  <Rbt.Executable>
rbdock ($Id: //depot/dev/client3/rdock/2013.1/src/exe/rbdock.cxx#4 $)

>  <Rbt.Library>
libRbt.so (2013.1, Build901 2013/11/27)

>  <Rbt.Parameter_File>
/export/apps/rDock/src/rDock_2013.1_src/data/scripts/dock_solv.prm

>  <Rbt.Receptor>
prm/pocket_docking_2.prm

>  <SCORE>
-8.04375

>  <SCORE.INTER>
-6.15758

>  <SCORE.INTER.CONST>
1

>  <SCORE.INTER.POLAR>
0

>  <SCORE.INTER.ROT>
3

>  <SCORE.INTER.SOLV>
17.9648

>  <SCORE.INTER.VDW>
-15.6933

>  <SCORE.INTER.norm>
-0.27989

>  <SCORE.INTRA>
-2.15158

>  <SCORE.INTRA.DIHEDRAL>
-4.80368

>  <SCORE.INTRA.DIHEDRAL.0>
6.10773

>  <SCORE.INTRA.POLAR>
0

>  <SCORE.INTRA.POLAR.0>
0

>  <SCORE.INTRA.REPUL>
0

>  <SCORE.INTRA.REPUL.0>
0

>  <SCORE.INTRA.SOLV>
0.617172

>  <SCORE.INTRA.SOLV.lig_0>
-71.4024

>  <SCORE.INTRA.VDW>
-0.0583323

>  <SCORE.INTRA.VDW.0>
-1.86213

>  <SCORE.INTRA.norm>
-0.0977993

>  <SCORE.RESTR>
0.265417

>  <SCORE.RESTR.CAVITY>
0.265417

>  <SCORE.RESTR.norm>
0.0120644

>  <SCORE.SYSTEM>
0

>  <SCORE.SYSTEM.CONST>
0

>  <SCORE.SYSTEM.DIHEDRAL>
0

>  <SCORE.SYSTEM.SOLV>
0

>  <SCORE.SYSTEM.norm>
0

>  <SCORE.heavy>
22

>  <SCORE.norm>
-0.365625

>  <RMSD>
3.210

$$$$
lig.pdb
 OpenBabel11021811523D
libRbt.so/2013.1/901 2013/11/27
 22 23  0  0  0  0  0  0  0  0999 V2000
   -5.3884   -2.3576    0.0171 C   0  0  1  0  0  0  0  0  0  0  0  0
   -4.9125    0.1249   -0.0309 C   0  0  1  0  0  0  0  0  0  0  0  0
   -6.3674    0.7242    0.2158 C   0  0  1  0  0  0  0  0  0  0  0  0
   -6.1977    2.1699    0.8690 C   0  0  2  0  0  0  0  0  0  0  0  0
   -5.3068   -3.5718   -0.9875 C   0  0  1  0  0  0  0  0  0  0  0  0
   -6.3052   -3.3102   -2.1326 C   0  0  2  0  0  0  0  0  0  0  0  0
   -7.7446   -3.2205   -1.5956 C   0  0  2  0  0  0  0  0  0  0  0  0
   -7.8934   -2.0478   -0.5589 C   0  0  1  0  0  0  0  0  0  0  0  0
   -9.3331   -1.9882    0.0282 C   0  0  0  0  0  0  0  0  0  0  0  0
   -5.4572    2.0225    2.2945 C   0  0  1  0  0  0  0  0  0  0  0  0
   -3.9945    1.4135    2.0059 C   0  0  0  0  0  0  0  0  0  0  0  0
   -4.1346   -0.0206    1.3156 C   0  0  2  0  0  0  0  0  0  0  0  0
   -8.1182   -4.4821   -0.9458 F   0  0  0  0  0  0  0  0  0  0  0  0
   -3.8813   -3.6609   -1.4907 N   0  0  0  0  0  0  0  0  0  0  0  0
   -9.5366   -0.9830    1.0012 N   0  0  0  0  0  0  0  0  0  0  0  0
   -5.2589    3.3638    2.9428 N   0  0  0  0  0  0  0  0  0  0  0  0
   -2.7899   -0.5726    1.0522 N   0  0  0  0  0  0  0  0  0  0  0  0
   -5.0080   -1.1701   -0.6045 O   0  0  0  0  0  0  0  0  0  0  0  0
   -7.0390    0.8472   -1.0995 O   0  0  0  0  0  0  0  0  0  0  0  0
   -7.4842    2.6768    1.0664 O   0  0  0  0  0  0  0  0  0  0  0  0
   -6.2457   -4.1975   -2.8624 O   0  0  0  0  0  0  0  0  0  0  0  0
   -6.8254   -2.2779    0.5258 O   0  0  0  0  0  0  0  0  0  0  0  0
  1  5  1  0  0  0  0
  1 18  1  6  0  0  0
  2 18  1  1  0  0  0
  2  3  1  0  0  0  0
  2 12  1  0  0  0  0
  3 19  1  6  0  0  0
  3  4  1  0  0  0  0
  4 20  1  1  0  0  0
  4 10  1  0  0  0  0
  5  6  1  0  0  0  0
  5 14  1  6  0  0  0
  6 21  1  6  0  0  0
  7 13  1  1  0  0  0
  7  6  1  0  0  0  0
  8  9  1  1  0  0  0
  8  7  1  0  0  0  0
 10 16  1  6  0  0  0
 11 10  1  0  0  0  0
 12 17  1  6  0  0  0
 12 11  1  0  0  0  0
 15  9  1  0  0  0  0
 22  8  1  0  0  0  0
 22  1  1  0  0  0  0
M  END
>  <CHROM.1>
-178.06937833,-73.53000968,178.15373796,-6.19540779,-0.98515218,0.01388665
-1.78680311,-0.03427838,0.49283223

>  <Name>
lig.pdb

>  <RI>
0

>  <Rbt.Current_Directory>
/home/itssahil/PROJECTS/Mol_Feturizer/New_Systems/rnas/5bws

>  <Rbt.Executable>
rbdock ($Id: //depot/dev/client3/rdock/2013.1/src/exe/rbdock.cxx#4 $)

>  <Rbt.Library>
libRbt.so (2013.1, Build901 2013/11/27)

>  <Rbt.Parameter_File>
/export/apps/rDock/src/rDock_2013.1_src/data/scripts/dock_solv.prm

>  <Rbt.Receptor>
prm/pocket_docking_7.prm

>  <SCORE>
-10.4168

>  <SCORE.INTER>
-8.08213

>  <SCORE.INTER.CONST>
1

>  <SCORE.INTER.POLAR>
0

>  <SCORE.INTER.ROT>
3

>  <SCORE.INTER.SOLV>
19.7685

>  <SCORE.INTER.VDW>
-17.5776

>  <SCORE.INTER.norm>
-0.36737

>  <SCORE.INTRA>
-2.33462

>  <SCORE.INTRA.DIHEDRAL>
-5.20845

>  <SCORE.INTRA.DIHEDRAL.0>
6.10773

>  <SCORE.INTRA.POLAR>
0

>  <SCORE.INTRA.POLAR.0>
0

>  <SCORE.INTRA.REPUL>
0

>  <SCORE.INTRA.REPUL.0>
0

>  <SCORE.INTRA.SOLV>
0.707878

>  <SCORE.INTRA.SOLV.lig_0>
-71.4024

>  <SCORE.INTRA.VDW>
-0.0843386

>  <SCORE.INTRA.VDW.0>
-1.86213

>  <SCORE.INTRA.norm>
-0.106119

>  <SCORE.RESTR>
0

>  <SCORE.RESTR.CAVITY>
0

>  <SCORE.RESTR.norm>
0

>  <SCORE.SYSTEM>
0

>  <SCORE.SYSTEM.CONST>
0

>  <SCORE.SYSTEM.DIHEDRAL>
0

>  <SCORE.SYSTEM.SOLV>
0

>  <SCORE.SYSTEM.norm>
0

>  <SCORE.heavy>
22

>  <SCORE.norm>
-0.473489

>  <RMSD>
3.259

$$$$
lig.pdb
 OpenBabel11021811523D
libRbt.so/2013.1/901 2013/11/27
 22 23  0  0  0  0  0  0  0  0999 V2000
   -5.3522   -2.3849   -0.0087 C   0  0  1  0  0  0  0  0  0  0  0  0
   -4.8786    0.0976   -0.0711 C   0  0  1  0  0  0  0  0  0  0  0  0
   -6.3376    0.7049    0.1281 C   0  0  1  0  0  0  0  0  0  0  0  0
   -6.1807    2.1562    0.7717 C   0  0  2  0  0  0  0  0  0  0  0  0
   -5.2918   -3.6012   -1.0124 C   0  0  1  0  0  0  0  0  0  0  0  0
   -6.2955   -3.3296   -2.1504 C   0  0  2  0  0  0  0  0  0  0  0  0
   -7.7299   -3.2230   -1.6030 C   0  0  2  0  0  0  0  0  0  0  0  0
   -7.8578   -2.0475   -0.5666 C   0  0  1  0  0  0  0  0  0  0  0  0
   -9.2923   -1.9709    0.0309 C   0  0  0  0  0  0  0  0  0  0  0  0
   -5.4819    2.0202    2.2191 C   0  0  1  0  0  0  0  0  0  0  0  0
   -4.0140    1.4028    1.9784 C   0  0  0  0  0  0  0  0  0  0  0  0
   -4.1401   -0.0375    1.2985 C   0  0  2  0  0  0  0  0  0  0  0  0
   -8.1129   -4.4795   -0.9489 F   0  0  0  0  0  0  0  0  0  0  0  0
   -3.8710   -3.7069   -1.5260 N   0  0  0  0  0  0  0  0  0  0  0  0
   -9.4714   -0.9767    1.0198 N   0  0  0  0  0  0  0  0  0  0  0  0
   -5.2968    3.3670    2.8598 N   0  0  0  0  0  0  0  0  0  0  0  0
   -2.7907   -0.5971    1.0790 N   0  0  0  0  0  0  0  0  0  0  0  0
   -4.9630   -1.2026   -0.6345 O   0  0  0  0  0  0  0  0  0  0  0  0
   -6.9709    0.8174   -1.2071 O   0  0  0  0  0  0  0  0  0  0  0  0
   -7.4703    2.6699    0.9272 O   0  0  0  0  0  0  0  0  0  0  0  0
   -6.2514   -4.2184   -2.8795 O   0  0  0  0  0  0  0  0  0  0  0  0
   -6.7844   -2.2884    0.5104 O   0  0  0  0  0  0  0  0  0  0  0  0
  1  5  1  0  0  0  0
  1 18  1  6  0  0  0
  2 18  1  1  0  0  0
  2  3  1  0  0  0  0
  2 12  1  0  0  0  0
  3 19  1  6  0  0  0
  3  4  1  0  0  0  0
  4 20  1  1  0  0  0
  4 10  1  0  0  0  0
  5  6  1  0  0  0  0
  5 14  1  6  0  0  0
  6 21  1  6  0  0  0
  7 13  1  1  0  0  0
  7  6  1  0  0  0  0
  8  9  1  1  0  0  0
  8  7  1  0  0  0  0
 10 16  1  6  0  0  0
 11 10  1  0  0  0  0
 12 17  1  6  0  0  0
 12 11  1  0  0  0  0
 15  9  1  0  0  0  0
 22  8  1  0  0  0  0
 22  1  1  0  0  0  0
M  END
>  <CHROM.1>
-179.68604522,-74.27802519,177.17033643,-6.17746261,-0.99911978,-0.02314311
-1.78025510,-0.03928107,0.48422769

>  <Name>
lig.pdb

>  <RI>
0

>  <Rbt.Current_Directory>
/home/itssahil/PROJECTS/Mol_Feturizer/New_Systems/rnas/5bws

>  <Rbt.Executable>
rbdock ($Id: //depot/dev/client3/rdock/2013.1/src/exe/rbdock.cxx#4 $)

>  <Rbt.Library>
libRbt.so (2013.1, Build901 2013/11/27)

>  <Rbt.Parameter_File>
/export/apps/rDock/src/rDock_2013.1_src/data/scripts/dock_solv.prm

>  <Rbt.Receptor>
prm/pocket_docking_3.prm

>  <SCORE>
-10.4156

>  <SCORE.INTER>
-8.12252

>  <SCORE.INTER.CONST>
1

>  <SCORE.INTER.POLAR>
0

>  <SCORE.INTER.ROT>
3

>  <SCORE.INTER.SOLV>
19.4966

>  <SCORE.INTER.VDW>
-17.5139

>  <SCORE.INTER.norm>
-0.369205

>  <SCORE.INTRA>
-2.29306

>  <SCORE.INTRA.DIHEDRAL>
-5.1159

>  <SCORE.INTRA.DIHEDRAL.0>
6.10773

>  <SCORE.INTRA.POLAR>
0

>  <SCORE.INTRA.POLAR.0>
0

>  <SCORE.INTRA.REPUL>
0

>  <SCORE.INTRA.REPUL.0>
0

>  <SCORE.INTRA.SOLV>
0.69062

>  <SCORE.INTRA.SOLV.lig_0>
-71.4024

>  <SCORE.INTRA.VDW>
-0.0804255

>  <SCORE.INTRA.VDW.0>
-1.86213

>  <SCORE.INTRA.norm>
-0.10423

>  <SCORE.RESTR>
0

>  <SCORE.RESTR.CAVITY>
0

>  <SCORE.RESTR.norm>
0

>  <SCORE.SYSTEM>
0

>  <SCORE.SYSTEM.CONST>
0

>  <SCORE.SYSTEM.DIHEDRAL>
0

>  <SCORE.SYSTEM.SOLV>
0

>  <SCORE.SYSTEM.norm>
0

>  <SCORE.heavy>
22

>  <SCORE.norm>
-0.473436

>  <RMSD>
3.269

$$$$
lig.pdb
 OpenBabel11021811523D
libRbt.so/2013.1/901 2013/11/27
 22 23  0  0  0  0  0  0  0  0999 V2000
   -5.9645   -1.8050    0.4048 C   0  0  1  0  0  0  0  0  0  0  0  0
   -5.5296    0.6750    0.1770 C   0  0  1  0  0  0  0  0  0  0  0  0
   -6.9422    1.2719    0.6076 C   0  0  1  0  0  0  0  0  0  0  0  0
   -6.7018    2.7480    1.1630 C   0  0  2  0  0  0  0  0  0  0  0  0
   -6.1182   -3.0465   -0.5571 C   0  0  1  0  0  0  0  0  0  0  0  0
   -7.3202   -2.7833   -1.4857 C   0  0  2  0  0  0  0  0  0  0  0  0
   -8.6189   -2.6351   -0.6734 C   0  0  2  0  0  0  0  0  0  0  0  0
   -8.5256   -1.4322    0.3348 C   0  0  1  0  0  0  0  0  0  0  0  0
   -9.8151   -1.3128    1.1971 C   0  0  0  0  0  0  0  0  0  0  0  0
   -5.7584    2.6744    2.4695 C   0  0  1  0  0  0  0  0  0  0  0  0
   -4.3442    2.0660    1.9968 C   0  0  0  0  0  0  0  0  0  0  0  0
   -4.5609    0.5998    1.3998 C   0  0  2  0  0  0  0  0  0  0  0  0
   -8.8855   -3.8674    0.0774 F   0  0  0  0  0  0  0  0  0  0  0  0
   -4.8263   -3.1927   -1.3337 N   0  0  0  0  0  0  0  0  0  0  0  0
  -10.9855   -0.9883    0.4736 N   0  0  0  0  0  0  0  0  0  0  0  0
   -5.4888    4.0463    3.0206 N   0  0  0  0  0  0  0  0  0  0  0  0
   -3.2606    0.0485    0.9668 N   0  0  0  0  0  0  0  0  0  0  0  0
   -5.6875   -0.6462   -0.3175 O   0  0  0  0  0  0  0  0  0  0  0  0
   -7.8009    1.3270   -0.5990 O   0  0  0  0  0  0  0  0  0  0  0  0
   -7.9535    3.2518    1.5243 O   0  0  0  0  0  0  0  0  0  0  0  0
   -7.4318   -3.6904   -2.1844 O   0  0  0  0  0  0  0  0  0  0  0  0
   -7.2668   -1.6676    1.1892 O   0  0  0  0  0  0  0  0  0  0  0  0
  1  5  1  0  0  0  0
  1 18  1  6  0  0  0
  2 18  1  1  0  0  0
  2  3  1  0  0  0  0
  2 12  1  0  0  0  0
  3 19  1  6  0  0  0
  3  4  1  0  0  0  0
  4 20  1  1  0  0  0
  4 10  1  0  0  0  0
  5  6  1  0  0  0  0
  5 14  1  6  0  0  0
  6 21  1  6  0  0  0
  7 13  1  1  0  0  0
  7  6  1  0  0  0  0
  8  9  1  1  0  0  0
  8  7  1  0  0  0  0
 10 16  1  6  0  0  0
 11 10  1  0  0  0  0
 12 17  1  6  0  0  0
 12 11  1  0  0  0  0
 15  9  1  0  0  0  0
 22  8  1  0  0  0  0
 22  1  1  0  0  0  0
M  END
>  <CHROM.1>
177.51934224,-72.96101970,-65.15409162,-6.86141636,-0.43259829,0.42733429
-1.92126025,0.04281654,0.43251397

>  <Name>
lig.pdb

>  <RI>
0

>  <Rbt.Current_Directory>
/home/itssahil/PROJECTS/Mol_Feturizer/New_Systems/rnas/5bws

>  <Rbt.Executable>
rbdock ($Id: //depot/dev/client3/rdock/2013.1/src/exe/rbdock.cxx#4 $)

>  <Rbt.Library>
libRbt.so (2013.1, Build901 2013/11/27)

>  <Rbt.Parameter_File>
/export/apps/rDock/src/rDock_2013.1_src/data/scripts/dock_solv.prm

>  <Rbt.Receptor>
prm/pocket_docking_4.prm

>  <SCORE>
-9.18483

>  <SCORE.INTER>
-6.70134

>  <SCORE.INTER.CONST>
1

>  <SCORE.INTER.POLAR>
0

>  <SCORE.INTER.ROT>
3

>  <SCORE.INTER.SOLV>
21.1179

>  <SCORE.INTER.VDW>
-17.1069

>  <SCORE.INTER.norm>
-0.304606

>  <SCORE.INTRA>
-2.48349

>  <SCORE.INTRA.DIHEDRAL>
-5.18152

>  <SCORE.INTRA.DIHEDRAL.0>
6.10773

>  <SCORE.INTRA.POLAR>
0

>  <SCORE.INTRA.POLAR.0>
0

>  <SCORE.INTRA.REPUL>
0

>  <SCORE.INTRA.REPUL.0>
0

>  <SCORE.INTRA.SOLV>
-0.0592514

>  <SCORE.INTRA.SOLV.lig_0>
-71.4024

>  <SCORE.INTRA.VDW>
0.136899

>  <SCORE.INTRA.VDW.0>
-1.86213

>  <SCORE.INTRA.norm>
-0.112886

>  <SCORE.RESTR>
0

>  <SCORE.RESTR.CAVITY>
0

>  <SCORE.RESTR.norm>
0

>  <SCORE.SYSTEM>
0

>  <SCORE.SYSTEM.CONST>
0

>  <SCORE.SYSTEM.DIHEDRAL>
0

>  <SCORE.SYSTEM.SOLV>
0

>  <SCORE.SYSTEM.norm>
0

>  <SCORE.heavy>
22

>  <SCORE.norm>
-0.417492

>  <RMSD>
3.426

$$$$
lig.pdb
 OpenBabel11021811523D
libRbt.so/2013.1/901 2013/11/27
 22 23  0  0  0  0  0  0  0  0999 V2000
   -5.9533   -1.7530    0.4315 C   0  0  1  0  0  0  0  0  0  0  0  0
   -5.5076    0.7255    0.2093 C   0  0  1  0  0  0  0  0  0  0  0  0
   -6.9215    1.3166    0.6437 C   0  0  1  0  0  0  0  0  0  0  0  0
   -6.6854    2.7927    1.2009 C   0  0  2  0  0  0  0  0  0  0  0  0
   -6.1196   -2.9899   -0.5343 C   0  0  1  0  0  0  0  0  0  0  0  0
   -7.3167   -2.7103   -1.4643 C   0  0  2  0  0  0  0  0  0  0  0  0
   -8.6151   -2.5494   -0.6540 C   0  0  2  0  0  0  0  0  0  0  0  0
   -8.5098   -1.3505    0.3578 C   0  0  1  0  0  0  0  0  0  0  0  0
   -9.7995   -1.2186    1.2181 C   0  0  0  0  0  0  0  0  0  0  0  0
   -5.7391    2.7205    2.5053 C   0  0  1  0  0  0  0  0  0  0  0  0
   -4.3236    2.1180    2.0288 C   0  0  0  0  0  0  0  0  0  0  0  0
   -4.5361    0.6520    1.4300 C   0  0  2  0  0  0  0  0  0  0  0  0
   -8.8973   -3.7806    0.0928 F   0  0  0  0  0  0  0  0  0  0  0  0
   -4.8280   -3.1489   -1.3088 N   0  0  0  0  0  0  0  0  0  0  0  0
  -10.9773   -0.9472    0.4849 N   0  0  0  0  0  0  0  0  0  0  0  0
   -5.4733    4.0926    3.0580 N   0  0  0  0  0  0  0  0  0  0  0  0
   -3.2347    0.1061    0.9934 N   0  0  0  0  0  0  0  0  0  0  0  0
   -5.6616   -0.5955   -0.2869 O   0  0  0  0  0  0  0  0  0  0  0  0
   -7.7829    1.3703   -0.5611 O   0  0  0  0  0  0  0  0  0  0  0  0
   -7.9382    3.2913    1.5655 O   0  0  0  0  0  0  0  0  0  0  0  0
   -7.4374   -3.6140   -2.1658 O   0  0  0  0  0  0  0  0  0  0  0  0
   -7.2554   -1.6028    1.2139 O   0  0  0  0  0  0  0  0  0  0  0  0
  1  5  1  0  0  0  0
  1 18  1  6  0  0  0
  2 18  1  1  0  0  0
  2  3  1  0  0  0  0
  2 12  1  0  0  0  0
  3 19  1  6  0  0  0
  3  4  1  0  0  0  0
  4 20  1  1  0  0  0
  4 10  1  0  0  0  0
  5  6  1  0  0  0  0
  5 14  1  6  0  0  0
  6 21  1  6  0  0  0
  7 13  1  1  0  0  0
  7  6  1  0  0  0  0
  8  9  1  1  0  0  0
  8  7  1  0  0  0  0
 10 16  1  6  0  0  0
 11 10  1  0  0  0  0
 12 17  1  6  0  0  0
 12 11  1  0  0  0  0
 15  9  1  0  0  0  0
 22  8  1  0  0  0  0
 22  1  1  0  0  0  0
M  END
>  <CHROM.1>
176.56898602,-71.87109917,-62.01565311,-6.84939210,-0.37391787,0.45480953
-1.92691857,0.04080490,0.43705638

>  <Name>
lig.pdb

>  <RI>
0

>  <Rbt.Current_Directory>
/home/itssahil/PROJECTS/Mol_Feturizer/New_Systems/rnas/5bws

>  <Rbt.Executable>
rbdock ($Id: //depot/dev/client3/rdock/2013.1/src/exe/rbdock.cxx#4 $)

>  <Rbt.Library>
libRbt.so (2013.1, Build901 2013/11/27)

>  <Rbt.Parameter_File>
/export/apps/rDock/src/rDock_2013.1_src/data/scripts/dock_solv.prm

>  <Rbt.Receptor>
prm/pocket_docking_5.prm

>  <SCORE>
-9.1293

>  <SCORE.INTER>
-6.62864

>  <SCORE.INTER.CONST>
1

>  <SCORE.INTER.POLAR>
0

>  <SCORE.INTER.ROT>
3

>  <SCORE.INTER.SOLV>
21.0095

>  <SCORE.INTER.VDW>
-17.0223

>  <SCORE.INTER.norm>
-0.301302

>  <SCORE.INTRA>
-2.50066

>  <SCORE.INTRA.DIHEDRAL>
-5.35931

>  <SCORE.INTRA.DIHEDRAL.0>
6.10773

>  <SCORE.INTRA.POLAR>
0

>  <SCORE.INTRA.POLAR.0>
0

>  <SCORE.INTRA.REPUL>
0

>  <SCORE.INTRA.REPUL.0>
0

>  <SCORE.INTRA.SOLV>
-0.0132765

>  <SCORE.INTRA.SOLV.lig_0>
-71.4024

>  <SCORE.INTRA.VDW>
0.185632

>  <SCORE.INTRA.VDW.0>
-1.86213

>  <SCORE.INTRA.norm>
-0.113666

>  <SCORE.RESTR>
0

>  <SCORE.RESTR.CAVITY>
0

>  <SCORE.RESTR.norm>
0

>  <SCORE.SYSTEM>
0

>  <SCORE.SYSTEM.CONST>
0

>  <SCORE.SYSTEM.DIHEDRAL>
0

>  <SCORE.SYSTEM.SOLV>
0

>  <SCORE.SYSTEM.norm>
0

>  <SCORE.heavy>
22

>  <SCORE.norm>
-0.414968

>  <RMSD>
3.429

$$$$
lig.pdb
 OpenBabel11021811523D
libRbt.so/2013.1/901 2013/11/27
 22 23  0  0  0  0  0  0  0  0999 V2000
   -6.0005   -1.7893    0.4297 C   0  0  1  0  0  0  0  0  0  0  0  0
   -5.5455    0.6860    0.1905 C   0  0  1  0  0  0  0  0  0  0  0  0
   -6.9505    1.2964    0.6272 C   0  0  1  0  0  0  0  0  0  0  0  0
   -6.6944    2.7724    1.1758 C   0  0  2  0  0  0  0  0  0  0  0  0
   -6.1538   -3.0360   -0.5255 C   0  0  1  0  0  0  0  0  0  0  0  0
   -7.3513   -2.7751   -1.4604 C   0  0  2  0  0  0  0  0  0  0  0  0
   -8.6528   -2.6186   -0.6542 C   0  0  2  0  0  0  0  0  0  0  0  0
   -8.5602   -1.4099    0.3472 C   0  0  1  0  0  0  0  0  0  0  0  0
   -9.8529   -1.2819    1.2037 C   0  0  0  0  0  0  0  0  0  0  0  0
   -5.7440    2.6955    2.4770 C   0  0  1  0  0  0  0  0  0  0  0  0
   -4.3377    2.0734    1.9982 C   0  0  0  0  0  0  0  0  0  0  0  0
   -4.5703    0.6071    1.4079 C   0  0  2  0  0  0  0  0  0  0  0  0
   -8.9258   -3.8456    0.1028 F   0  0  0  0  0  0  0  0  0  0  0  0
   -4.8592   -3.1904   -1.2959 N   0  0  0  0  0  0  0  0  0  0  0  0
  -11.0239   -0.9829    0.4703 N   0  0  0  0  0  0  0  0  0  0  0  0
   -5.4596    4.0670    3.0216 N   0  0  0  0  0  0  0  0  0  0  0  0
   -3.2773    0.0432    0.9692 N   0  0  0  0  0  0  0  0  0  0  0  0
   -5.7174   -0.6356   -0.2983 O   0  0  0  0  0  0  0  0  0  0  0  0
   -7.8158    1.3544   -0.5746 O   0  0  0  0  0  0  0  0  0  0  0  0
   -7.9397    3.2880    1.5426 O   0  0  0  0  0  0  0  0  0  0  0  0
   -7.4626   -3.6860   -2.1542 O   0  0  0  0  0  0  0  0  0  0  0  0
   -7.3055   -1.6437    1.2081 O   0  0  0  0  0  0  0  0  0  0  0  0
  1  5  1  0  0  0  0
  1 18  1  6  0  0  0
  2 18  1  1  0  0  0
  2  3  1  0  0  0  0
  2 12  1  0  0  0  0
  3 19  1  6  0  0  0
  3  4  1  0  0  0  0
  4 20  1  1  0  0  0
  4 10  1  0  0  0  0
  5  6  1  0  0  0  0
  5 14  1  6  0  0  0
  6 21  1  6  0  0  0
  7 13  1  1  0  0  0
  7  6  1  0  0  0  0
  8  9  1  1  0  0  0
  8  7  1  0  0  0  0
 10 16  1  6  0  0  0
 11 10  1  0  0  0  0
 12 17  1  6  0  0  0
 12 11  1  0  0  0  0
 15  9  1  0  0  0  0
 22  8  1  0  0  0  0
 22  1  1  0  0  0  0
M  END
>  <CHROM.1>
178.16675576,-72.92983446,-64.04027595,-6.88061472,-0.41658890,0.44387206
-1.93039386,0.04024220,0.42870761

>  <Name>
lig.pdb

>  <RI>
0

>  <Rbt.Current_Directory>
/home/itssahil/PROJECTS/Mol_Feturizer/New_Systems/rnas/5bws

>  <Rbt.Executable>
rbdock ($Id: //depot/dev/client3/rdock/2013.1/src/exe/rbdock.cxx#4 $)

>  <Rbt.Library>
libRbt.so (2013.1, Build901 2013/11/27)

>  <Rbt.Parameter_File>
/export/apps/rDock/src/rDock_2013.1_src/data/scripts/dock_solv.prm

>  <Rbt.Receptor>
prm/pocket_docking_5.prm

>  <SCORE>
-9.21731

>  <SCORE.INTER>
-6.72722

>  <SCORE.INTER.CONST>
1

>  <SCORE.INTER.POLAR>
0

>  <SCORE.INTER.ROT>
3

>  <SCORE.INTER.SOLV>
21.1715

>  <SCORE.INTER.VDW>
-17.142

>  <SCORE.INTER.norm>
-0.305783

>  <SCORE.INTRA>
-2.4901

>  <SCORE.INTRA.DIHEDRAL>
-5.23574

>  <SCORE.INTRA.DIHEDRAL.0>
6.10773

>  <SCORE.INTRA.POLAR>
0

>  <SCORE.INTRA.POLAR.0>
0

>  <SCORE.INTRA.REPUL>
0

>  <SCORE.INTRA.REPUL.0>
0

>  <SCORE.INTRA.SOLV>
-0.0323637

>  <SCORE.INTRA.SOLV.lig_0>
-71.4024

>  <SCORE.INTRA.VDW>
0.143958

>  <SCORE.INTRA.VDW.0>
-1.86213

>  <SCORE.INTRA.norm>
-0.113186

>  <SCORE.RESTR>
0

>  <SCORE.RESTR.CAVITY>
0

>  <SCORE.RESTR.norm>
0

>  <SCORE.SYSTEM>
0

>  <SCORE.SYSTEM.CONST>
0

>  <SCORE.SYSTEM.DIHEDRAL>
0

>  <SCORE.SYSTEM.SOLV>
0

>  <SCORE.SYSTEM.norm>
0

>  <SCORE.heavy>
22

>  <SCORE.norm>
-0.418969

>  <RMSD>
3.429

$$$$
lig.pdb
 OpenBabel11021811523D
libRbt.so/2013.1/901 2013/11/27
 22 23  0  0  0  0  0  0  0  0999 V2000
   -5.4491   -2.5022   -0.0930 C   0  0  1  0  0  0  0  0  0  0  0  0
   -5.1628   -0.0011   -0.3247 C   0  0  1  0  0  0  0  0  0  0  0  0
   -6.6636    0.5255   -0.2401 C   0  0  1  0  0  0  0  0  0  0  0  0
   -6.6270    2.0249    0.3039 C   0  0  2  0  0  0  0  0  0  0  0  0
   -5.3776   -3.7670   -1.0338 C   0  0  1  0  0  0  0  0  0  0  0  0
   -6.4404   -3.5998   -2.1379 C   0  0  2  0  0  0  0  0  0  0  0  0
   -7.8532   -3.5247   -1.5324 C   0  0  2  0  0  0  0  0  0  0  0  0
   -7.9889   -2.3015   -0.5538 C   0  0  1  0  0  0  0  0  0  0  0  0
   -9.3984   -2.2536    0.1032 C   0  0  0  0  0  0  0  0  0  0  0  0
   -5.9978    2.0334    1.7892 C   0  0  1  0  0  0  0  0  0  0  0  0
   -4.4853    1.4944    1.6642 C   0  0  0  0  0  0  0  0  0  0  0  0
   -4.4901    0.0054    1.0848 C   0  0  2  0  0  0  0  0  0  0  0  0
   -8.1514   -4.7592   -0.7974 F   0  0  0  0  0  0  0  0  0  0  0  0
   -3.9769   -3.8401   -1.6050 N   0  0  0  0  0  0  0  0  0  0  0  0
   -9.5803   -1.2139    1.0437 N   0  0  0  0  0  0  0  0  0  0  0  0
   -5.9266    3.4303    2.3391 N   0  0  0  0  0  0  0  0  0  0  0  0
   -3.1002   -0.4820    0.9711 N   0  0  0  0  0  0  0  0  0  0  0  0
   -5.1403   -1.3398   -0.7963 O   0  0  0  0  0  0  0  0  0  0  0  0
   -7.2318    0.5054   -1.6086 O   0  0  0  0  0  0  0  0  0  0  0  0
   -7.9511    2.4659    0.3601 O   0  0  0  0  0  0  0  0  0  0  0  0
   -6.3880   -4.5239   -2.8211 O   0  0  0  0  0  0  0  0  0  0  0  0
   -6.8606   -2.4385    0.4847 O   0  0  0  0  0  0  0  0  0  0  0  0
  1  5  1  0  0  0  0
  1 18  1  6  0  0  0
  2 18  1  1  0  0  0
  2  3  1  0  0  0  0
  2 12  1  0  0  0  0
  3 19  1  6  0  0  0
  3  4  1  0  0  0  0
  4 20  1  1  0  0  0
  4 10  1  0  0  0  0
  5  6  1  0  0  0  0
  5 14  1  6  0  0  0
  6 21  1  6  0  0  0
  7 13  1  1  0  0  0
  7  6  1  0  0  0  0
  8  9  1  1  0  0  0
  8  7  1  0  0  0  0
 10 16  1  6  0  0  0
 11 10  1  0  0  0  0
 12 17  1  6  0  0  0
 12 11  1  0  0  0  0
 15  9  1  0  0  0  0
 22  8  1  0  0  0  0
 22  1  1  0  0  0  0
M  END
>  <CHROM.1>
176.43283171,-76.56627613,177.32751117,-6.41914319,-1.15062539,-0.18385998
-1.71024175,-0.00048321,0.41324533

>  <Name>
lig.pdb

>  <RI>
0

>  <Rbt.Current_Directory>
/home/itssahil/PROJECTS/Mol_Feturizer/New_Systems/rnas/5bws

>  <Rbt.Executable>
rbdock ($Id: //depot/dev/client3/rdock/2013.1/src/exe/rbdock.cxx#4 $)

>  <Rbt.Library>
libRbt.so (2013.1, Build901 2013/11/27)

>  <Rbt.Parameter_File>
/export/apps/rDock/src/rDock_2013.1_src/data/scripts/dock_solv.prm

>  <Rbt.Receptor>
prm/pocket_docking_3.prm

>  <SCORE>
-10.238

>  <SCORE.INTER>
-8.11125

>  <SCORE.INTER.CONST>
1

>  <SCORE.INTER.POLAR>
0

>  <SCORE.INTER.ROT>
3

>  <SCORE.INTER.SOLV>
17.9985

>  <SCORE.INTER.VDW>
-17.007

>  <SCORE.INTER.norm>
-0.368693

>  <SCORE.INTRA>
-2.12679

>  <SCORE.INTRA.DIHEDRAL>
-4.74561

>  <SCORE.INTRA.DIHEDRAL.0>
6.10773

>  <SCORE.INTRA.POLAR>
0

>  <SCORE.INTRA.POLAR.0>
0

>  <SCORE.INTRA.REPUL>
0

>  <SCORE.INTRA.REPUL.0>
0

>  <SCORE.INTRA.SOLV>
0.628956

>  <SCORE.INTRA.SOLV.lig_0>
-71.4024

>  <SCORE.INTRA.VDW>
-0.0684627

>  <SCORE.INTRA.VDW.0>
-1.86213

>  <SCORE.INTRA.norm>
-0.0966723

>  <SCORE.RESTR>
0

>  <SCORE.RESTR.CAVITY>
0

>  <SCORE.RESTR.norm>
0

>  <SCORE.SYSTEM>
0

>  <SCORE.SYSTEM.CONST>
0

>  <SCORE.SYSTEM.DIHEDRAL>
0

>  <SCORE.SYSTEM.SOLV>
0

>  <SCORE.SYSTEM.norm>
0

>  <SCORE.heavy>
22

>  <SCORE.norm>
-0.465366

>  <RMSD>
3.452

$$$$
lig.pdb
 OpenBabel11021811523D
libRbt.so/2013.1/901 2013/11/27
 22 23  0  0  0  0  0  0  0  0999 V2000
   -5.4443   -2.5144   -0.1080 C   0  0  1  0  0  0  0  0  0  0  0  0
   -5.1725   -0.0110   -0.3328 C   0  0  1  0  0  0  0  0  0  0  0  0
   -6.6768    0.5024   -0.2301 C   0  0  1  0  0  0  0  0  0  0  0  0
   -6.6470    2.0005    0.3178 C   0  0  2  0  0  0  0  0  0  0  0  0
   -5.3906   -3.7732   -1.0581 C   0  0  1  0  0  0  0  0  0  0  0  0
   -6.4701   -3.5962   -2.1443 C   0  0  2  0  0  0  0  0  0  0  0  0
   -7.8732   -3.5217   -1.5164 C   0  0  2  0  0  0  0  0  0  0  0  0
   -7.9905   -2.3047   -0.5278 C   0  0  1  0  0  0  0  0  0  0  0  0
   -9.3895   -2.2578    0.1515 C   0  0  0  0  0  0  0  0  0  0  0  0
   -6.0017    2.0101    1.7962 C   0  0  1  0  0  0  0  0  0  0  0  0
   -4.4862    1.4846    1.6531 C   0  0  0  0  0  0  0  0  0  0  0  0
   -4.4845   -0.0027    1.0693 C   0  0  2  0  0  0  0  0  0  0  0  0
   -8.1628   -4.7603   -0.7848 F   0  0  0  0  0  0  0  0  0  0  0  0
   -3.9992   -3.8458   -1.6515 N   0  0  0  0  0  0  0  0  0  0  0  0
   -9.5640   -1.2060    1.0798 N   0  0  0  0  0  0  0  0  0  0  0  0
   -5.9365    3.4060    2.3494 N   0  0  0  0  0  0  0  0  0  0  0  0
   -3.0918   -0.4779    0.9390 N   0  0  0  0  0  0  0  0  0  0  0  0
   -5.1437   -1.3481   -0.8085 O   0  0  0  0  0  0  0  0  0  0  0  0
   -7.2598    0.4814   -1.5925 O   0  0  0  0  0  0  0  0  0  0  0  0
   -7.9742    2.4300    0.3897 O   0  0  0  0  0  0  0  0  0  0  0  0
   -6.4307   -4.5159   -2.8343 O   0  0  0  0  0  0  0  0  0  0  0  0
   -6.8465   -2.4511    0.4920 O   0  0  0  0  0  0  0  0  0  0  0  0
  1  5  1  0  0  0  0
  1 18  1  6  0  0  0
  2 18  1  1  0  0  0
  2  3  1  0  0  0  0
  2 12  1  0  0  0  0
  3 19  1  6  0  0  0
  3  4  1  0  0  0  0
  4 20  1  1  0  0  0
  4 10  1  0  0  0  0
  5  6  1  0  0  0  0
  5 14  1  6  0  0  0
  6 21  1  6  0  0  0
  7 13  1  1  0  0  0
  7  6  1  0  0  0  0
  8  9  1  1  0  0  0
  8  7  1  0  0  0  0
 10 16  1  6  0  0  0
 11 10  1  0  0  0  0
 12 17  1  6  0  0  0
 12 11  1  0  0  0  0
 15  9  1  0  0  0  0
 22  8  1  0  0  0  0
 22  1  1  0  0  0  0
M  END
>  <CHROM.1>
175.52672054,-76.04797561,178.65512371,-6.42824251,-1.16015566,-0.18130378
-1.71030880,0.01105577,0.41842856

>  <Name>
lig.pdb

>  <RI>
0

>  <Rbt.Current_Directory>
/home/itssahil/PROJECTS/Mol_Feturizer/New_Systems/rnas/5bws

>  <Rbt.Executable>
rbdock ($Id: //depot/dev/client3/rdock/2013.1/src/exe/rbdock.cxx#4 $)

>  <Rbt.Library>
libRbt.so (2013.1, Build901 2013/11/27)

>  <Rbt.Parameter_File>
/export/apps/rDock/src/rDock_2013.1_src/data/scripts/dock_solv.prm

>  <Rbt.Receptor>
prm/pocket_docking_6.prm

>  <SCORE>
-10.2047

>  <SCORE.INTER>
-8.09328

>  <SCORE.INTER.CONST>
1

>  <SCORE.INTER.POLAR>
0

>  <SCORE.INTER.ROT>
3

>  <SCORE.INTER.SOLV>
18.0336

>  <SCORE.INTER.VDW>
-17.0067

>  <SCORE.INTER.norm>
-0.367876

>  <SCORE.INTRA>
-2.11146

>  <SCORE.INTRA.DIHEDRAL>
-4.80291

>  <SCORE.INTRA.DIHEDRAL.0>
6.10773

>  <SCORE.INTRA.POLAR>
0

>  <SCORE.INTRA.POLAR.0>
0

>  <SCORE.INTRA.REPUL>
0

>  <SCORE.INTRA.REPUL.0>
0

>  <SCORE.INTRA.SOLV>
0.697764

>  <SCORE.INTRA.SOLV.lig_0>
-71.4024

>  <SCORE.INTRA.VDW>
-0.0588893

>  <SCORE.INTRA.VDW.0>
-1.86213

>  <SCORE.INTRA.norm>
-0.0959756

>  <SCORE.RESTR>
0

>  <SCORE.RESTR.CAVITY>
0

>  <SCORE.RESTR.norm>
0

>  <SCORE.SYSTEM>
0

>  <SCORE.SYSTEM.CONST>
0

>  <SCORE.SYSTEM.DIHEDRAL>
0

>  <SCORE.SYSTEM.SOLV>
0

>  <SCORE.SYSTEM.norm>
0

>  <SCORE.heavy>
22

>  <SCORE.norm>
-0.463852

>  <RMSD>
3.457

$$$$
lig.pdb
 OpenBabel11021811523D
libRbt.so/2013.1/901 2013/11/27
 22 23  0  0  0  0  0  0  0  0999 V2000
   -5.4207   -2.5119   -0.1131 C   0  0  1  0  0  0  0  0  0  0  0  0
   -5.1656   -0.0064   -0.3334 C   0  0  1  0  0  0  0  0  0  0  0  0
   -6.6744    0.4962   -0.2436 C   0  0  1  0  0  0  0  0  0  0  0  0
   -6.6602    1.9939    0.3059 C   0  0  2  0  0  0  0  0  0  0  0  0
   -5.3376   -3.7708   -1.0609 C   0  0  1  0  0  0  0  0  0  0  0  0
   -6.4023   -3.6076   -2.1636 C   0  0  2  0  0  0  0  0  0  0  0  0
   -7.8156   -3.5490   -1.5573 C   0  0  2  0  0  0  0  0  0  0  0  0
   -7.9624   -2.3326   -0.5719 C   0  0  1  0  0  0  0  0  0  0  0  0
   -9.3721   -2.3016    0.0858 C   0  0  0  0  0  0  0  0  0  0  0  0
   -6.0280    2.0068    1.7899 C   0  0  1  0  0  0  0  0  0  0  0  0
   -4.5075    1.4922    1.6597 C   0  0  0  0  0  0  0  0  0  0  0  0
   -4.4900    0.0055    1.0747 C   0  0  2  0  0  0  0  0  0  0  0  0
   -8.1019   -4.7903   -0.8290 F   0  0  0  0  0  0  0  0  0  0  0  0
   -3.9365   -3.8276   -1.6329 N   0  0  0  0  0  0  0  0  0  0  0  0
   -9.5554   -1.2839    1.0497 N   0  0  0  0  0  0  0  0  0  0  0  0
   -5.9777    3.4026    2.3449 N   0  0  0  0  0  0  0  0  0  0  0  0
   -3.0929   -0.4595    0.9562 N   0  0  0  0  0  0  0  0  0  0  0  0
   -5.1231   -1.3428   -0.8101 O   0  0  0  0  0  0  0  0  0  0  0  0
   -7.2453    0.4723   -1.6110 O   0  0  0  0  0  0  0  0  0  0  0  0
   -7.9910    2.4138    0.3666 O   0  0  0  0  0  0  0  0  0  0  0  0
   -6.3415   -4.5273   -2.8520 O   0  0  0  0  0  0  0  0  0  0  0  0
   -6.8325   -2.4647    0.4654 O   0  0  0  0  0  0  0  0  0  0  0  0
  1  5  1  0  0  0  0
  1 18  1  6  0  0  0
  2 18  1  1  0  0  0
  2  3  1  0  0  0  0
  2 12  1  0  0  0  0
  3 19  1  6  0  0  0
  3  4  1  0  0  0  0
  4 20  1  1  0  0  0
  4 10  1  0  0  0  0
  5  6  1  0  0  0  0
  5 14  1  6  0  0  0
  6 21  1  6  0  0  0
  7 13  1  1  0  0  0
  7  6  1  0  0  0  0
  8  9  1  1  0  0  0
  8  7  1  0  0  0  0
 10 16  1  6  0  0  0
 11 10  1  0  0  0  0
 12 17  1  6  0  0  0
 12 11  1  0  0  0  0
 15  9  1  0  0  0  0
 22  8  1  0  0  0  0
 22  1  1  0  0  0  0
M  END
>  <CHROM.1>
176.02350958,-76.09237551,176.22988113,-6.40914892,-1.17059157,-0.19681967
-1.69902351,0.00605041,0.41900012

>  <Name>
lig.pdb

>  <RI>
0

>  <Rbt.Current_Directory>
/home/itssahil/PROJECTS/Mol_Feturizer/New_Systems/rnas/5bws

>  <Rbt.Executable>
rbdock ($Id: //depot/dev/client3/rdock/2013.1/src/exe/rbdock.cxx#4 $)

>  <Rbt.Library>
libRbt.so (2013.1, Build901 2013/11/27)

>  <Rbt.Parameter_File>
/export/apps/rDock/src/rDock_2013.1_src/data/scripts/dock_solv.prm

>  <Rbt.Receptor>
prm/pocket_docking_3.prm

>  <SCORE>
-10.2185

>  <SCORE.INTER>
-8.09538

>  <SCORE.INTER.CONST>
1

>  <SCORE.INTER.POLAR>
0

>  <SCORE.INTER.ROT>
3

>  <SCORE.INTER.SOLV>
18.2145

>  <SCORE.INTER.VDW>
-17.0684

>  <SCORE.INTER.norm>
-0.367972

>  <SCORE.INTRA>
-2.12308

>  <SCORE.INTRA.DIHEDRAL>
-4.77228

>  <SCORE.INTRA.DIHEDRAL.0>
6.10773

>  <SCORE.INTRA.POLAR>
0

>  <SCORE.INTRA.POLAR.0>
0

>  <SCORE.INTRA.REPUL>
0

>  <SCORE.INTRA.REPUL.0>
0

>  <SCORE.INTRA.SOLV>
0.651575

>  <SCORE.INTRA.SOLV.lig_0>
-71.4024

>  <SCORE.INTRA.VDW>
-0.0627313

>  <SCORE.INTRA.VDW.0>
-1.86213

>  <SCORE.INTRA.norm>
-0.0965038

>  <SCORE.RESTR>
0

>  <SCORE.RESTR.CAVITY>
0

>  <SCORE.RESTR.norm>
0

>  <SCORE.SYSTEM>
0

>  <SCORE.SYSTEM.CONST>
0

>  <SCORE.SYSTEM.DIHEDRAL>
0

>  <SCORE.SYSTEM.SOLV>
0

>  <SCORE.SYSTEM.norm>
0

>  <SCORE.heavy>
22

>  <SCORE.norm>
-0.464475

>  <RMSD>
3.464

$$$$
lig.pdb
 OpenBabel11021811523D
libRbt.so/2013.1/901 2013/11/27
 22 23  0  0  0  0  0  0  0  0999 V2000
   -5.4996   -2.7575   -0.0897 C   0  0  1  0  0  0  0  0  0  0  0  0
   -5.0270   -0.3316    0.4421 C   0  0  1  0  0  0  0  0  0  0  0  0
   -3.6174   -0.3898    1.1813 C   0  0  1  0  0  0  0  0  0  0  0  0
   -3.5085    0.8880    2.1304 C   0  0  2  0  0  0  0  0  0  0  0  0
   -5.3565   -3.7125   -1.3377 C   0  0  1  0  0  0  0  0  0  0  0  0
   -6.3591   -3.2460   -2.4117 C   0  0  2  0  0  0  0  0  0  0  0  0
   -7.8043   -3.3409   -1.8912 C   0  0  2  0  0  0  0  0  0  0  0  0
   -8.0128   -2.4363   -0.6221 C   0  0  1  0  0  0  0  0  0  0  0  0
   -9.4571   -2.5717   -0.0595 C   0  0  0  0  0  0  0  0  0  0  0  0
   -3.5570    2.2235    1.2269 C   0  0  1  0  0  0  0  0  0  0  0  0
   -4.9916    2.2467    0.4955 C   0  0  0  0  0  0  0  0  0  0  0  0
   -5.1435    0.9561   -0.4341 C   0  0  2  0  0  0  0  0  0  0  0  0
   -8.1233   -4.7305   -1.5443 F   0  0  0  0  0  0  0  0  0  0  0  0
   -3.9254   -3.6251   -1.8254 N   0  0  0  0  0  0  0  0  0  0  0  0
   -9.7460   -1.7349    1.0426 N   0  0  0  0  0  0  0  0  0  0  0  0
   -3.4744    3.4578    2.0804 N   0  0  0  0  0  0  0  0  0  0  0  0
   -6.4617    0.9828   -1.1003 N   0  0  0  0  0  0  0  0  0  0  0  0
   -5.1705   -1.4460   -0.4254 O   0  0  0  0  0  0  0  0  0  0  0  0
   -3.5829   -1.6240    2.0010 O   0  0  0  0  0  0  0  0  0  0  0  0
   -2.2706    0.8089    2.7727 O   0  0  0  0  0  0  0  0  0  0  0  0
   -6.2547   -3.9448   -3.3195 O   0  0  0  0  0  0  0  0  0  0  0  0
   -6.9417   -2.8557    0.4011 O   0  0  0  0  0  0  0  0  0  0  0  0
  1  5  1  0  0  0  0
  1 18  1  6  0  0  0
  2 18  1  6  0  0  0
  2  3  1  0  0  0  0
  2 12  1  0  0  0  0
  3 19  1  1  0  0  0
  3  4  1  0  0  0  0
  4 20  1  6  0  0  0
  4 10  1  0  0  0  0
  5  6  1  0  0  0  0
  5 14  1  6  0  0  0
  6 21  1  6  0  0  0
  7 13  1  1  0  0  0
  7  6  1  0  0  0  0
  8  9  1  1  0  0  0
  8  7  1  0  0  0  0
 10 16  1  1  0  0  0
 11 10  1  0  0  0  0
 12 17  1  1  0  0  0
 12 11  1  0  0  0  0
 15  9  1  0  0  0  0
 22  8  1  0  0  0  0
 22  1  1  0  0  0  0
M  END
>  <CHROM.1>
-172.18727998,78.36099408,-176.83541979,-5.67156694,-1.31016359,-0.06732805
-2.15001282,-0.03384116,0.52085274

>  <Name>
lig.pdb

>  <RI>
0

>  <Rbt.Current_Directory>
/home/itssahil/PROJECTS/Mol_Feturizer/New_Systems/rnas/5bws

>  <Rbt.Executable>
rbdock ($Id: //depot/dev/client3/rdock/2013.1/src/exe/rbdock.cxx#4 $)

>  <Rbt.Library>
libRbt.so (2013.1, Build901 2013/11/27)

>  <Rbt.Parameter_File>
/export/apps/rDock/src/rDock_2013.1_src/data/scripts/dock_solv.prm

>  <Rbt.Receptor>
prm/pocket_docking_2.prm

>  <SCORE>
-8.21164

>  <SCORE.INTER>
-6.68623

>  <SCORE.INTER.CONST>
1

>  <SCORE.INTER.POLAR>
0

>  <SCORE.INTER.ROT>
3

>  <SCORE.INTER.SOLV>
22.2045

>  <SCORE.INTER.VDW>
-17.459

>  <SCORE.INTER.norm>
-0.30392

>  <SCORE.INTRA>
-2.58315

>  <SCORE.INTRA.DIHEDRAL>
-4.23363

>  <SCORE.INTRA.DIHEDRAL.0>
6.10773

>  <SCORE.INTRA.POLAR>
0

>  <SCORE.INTRA.POLAR.0>
0

>  <SCORE.INTRA.REPUL>
0

>  <SCORE.INTRA.REPUL.0>
0

>  <SCORE.INTRA.SOLV>
-1.1301

>  <SCORE.INTRA.SOLV.lig_0>
-71.4024

>  <SCORE.INTRA.VDW>
0.0987156

>  <SCORE.INTRA.VDW.0>
-1.86213

>  <SCORE.INTRA.norm>
-0.117416

>  <SCORE.RESTR>
1.05774

>  <SCORE.RESTR.CAVITY>
1.05774

>  <SCORE.RESTR.norm>
0.0480791

>  <SCORE.SYSTEM>
0

>  <SCORE.SYSTEM.CONST>
0

>  <SCORE.SYSTEM.DIHEDRAL>
0

>  <SCORE.SYSTEM.SOLV>
0

>  <SCORE.SYSTEM.norm>
0

>  <SCORE.heavy>
22

>  <SCORE.norm>
-0.373256

>  <RMSD>
3.586

$$$$
lig.pdb
 OpenBabel11021811523D
libRbt.so/2013.1/901 2013/11/27
 22 23  0  0  0  0  0  0  0  0999 V2000
   -4.8705   -2.9452   -0.1459 C   0  0  1  0  0  0  0  0  0  0  0  0
   -4.3614   -0.6004    0.6503 C   0  0  1  0  0  0  0  0  0  0  0  0
   -3.0218   -0.7956    1.4896 C   0  0  1  0  0  0  0  0  0  0  0  0
   -2.9402    0.3817    2.5632 C   0  0  2  0  0  0  0  0  0  0  0  0
   -4.7308   -3.7663   -1.4863 C   0  0  1  0  0  0  0  0  0  0  0  0
   -5.6814   -3.1431   -2.5276 C   0  0  2  0  0  0  0  0  0  0  0  0
   -7.1439   -3.2289   -2.0561 C   0  0  2  0  0  0  0  0  0  0  0  0
   -7.3516   -2.4574   -0.7019 C   0  0  1  0  0  0  0  0  0  0  0  0
   -8.8161   -2.5880   -0.1930 C   0  0  0  0  0  0  0  0  0  0  0  0
   -2.8585    1.7961    1.7919 C   0  0  1  0  0  0  0  0  0  0  0  0
   -4.2250    1.9570    0.9550 C   0  0  0  0  0  0  0  0  0  0  0  0
   -4.3515    0.7672   -0.1040 C   0  0  2  0  0  0  0  0  0  0  0  0
   -7.5303   -4.6322   -1.8699 F   0  0  0  0  0  0  0  0  0  0  0  0
   -3.2837   -3.6907   -1.9263 N   0  0  0  0  0  0  0  0  0  0  0  0
   -9.1775   -3.8807    0.2507 N   0  0  0  0  0  0  0  0  0  0  0  0
   -2.7969    2.9404    2.7643 N   0  0  0  0  0  0  0  0  0  0  0  0
   -5.6074    0.9198   -0.8667 N   0  0  0  0  0  0  0  0  0  0  0  0
   -4.4776   -1.6211   -0.3293 O   0  0  0  0  0  0  0  0  0  0  0  0
   -3.1064   -2.1008    2.1865 O   0  0  0  0  0  0  0  0  0  0  0  0
   -1.7645    0.1832    3.2908 O   0  0  0  0  0  0  0  0  0  0  0  0
   -5.5796   -3.7444   -3.5030 O   0  0  0  0  0  0  0  0  0  0  0  0
   -6.3292   -3.0313    0.2957 O   0  0  0  0  0  0  0  0  0  0  0  0
  1  5  1  0  0  0  0
  1 18  1  6  0  0  0
  2 18  1  6  0  0  0
  2  3  1  0  0  0  0
  2 12  1  0  0  0  0
  3 19  1  1  0  0  0
  3  4  1  0  0  0  0
  4 20  1  6  0  0  0
  4 10  1  0  0  0  0
  5  6  1  0  0  0  0
  5 14  1  6  0  0  0
  6 21  1  6  0  0  0
  7 13  1  1  0  0  0
  7  6  1  0  0  0  0
  8  9  1  1  0  0  0
  8  7  1  0  0  0  0
 10 16  1  1  0  0  0
 11 10  1  0  0  0  0
 12 17  1  1  0  0  0
 12 11  1  0  0  0  0
 15  9  1  0  0  0  0
 22  8  1  0  0  0  0
 22  1  1  0  0  0  0
M  END
>  <CHROM.1>
-174.76623511,77.45905597,69.35371354,-5.02542843,-1.58338906,0.00786359
-2.16208620,-0.05279579,0.62224266

>  <Name>
lig.pdb

>  <RI>
0

>  <Rbt.Current_Directory>
/home/itssahil/PROJECTS/Mol_Feturizer/New_Systems/rnas/5bws

>  <Rbt.Executable>
rbdock ($Id: //depot/dev/client3/rdock/2013.1/src/exe/rbdock.cxx#4 $)

>  <Rbt.Library>
libRbt.so (2013.1, Build901 2013/11/27)

>  <Rbt.Parameter_File>
/export/apps/rDock/src/rDock_2013.1_src/data/scripts/dock_solv.prm

>  <Rbt.Receptor>
prm/blind_docking_20.prm

>  <SCORE>
-10.4885

>  <SCORE.INTER>
-8.64047

>  <SCORE.INTER.CONST>
1

>  <SCORE.INTER.POLAR>
0

>  <SCORE.INTER.ROT>
3

>  <SCORE.INTER.SOLV>
28.701

>  <SCORE.INTER.VDW>
-20.9273

>  <SCORE.INTER.norm>
-0.392749

>  <SCORE.INTRA>
-1.85615

>  <SCORE.INTRA.DIHEDRAL>
-4.25965

>  <SCORE.INTRA.DIHEDRAL.0>
6.10773

>  <SCORE.INTRA.POLAR>
0

>  <SCORE.INTRA.POLAR.0>
0

>  <SCORE.INTRA.REPUL>
0

>  <SCORE.INTRA.REPUL.0>
0

>  <SCORE.INTRA.SOLV>
0.50192

>  <SCORE.INTRA.SOLV.lig_0>
-71.4024

>  <SCORE.INTRA.VDW>
0.0227175

>  <SCORE.INTRA.VDW.0>
-1.86213

>  <SCORE.INTRA.norm>
-0.0843703

>  <SCORE.RESTR>
0.00817001

>  <SCORE.RESTR.CAVITY>
0.00817001

>  <SCORE.RESTR.norm>
0.000371364

>  <SCORE.SYSTEM>
0

>  <SCORE.SYSTEM.CONST>
0

>  <SCORE.SYSTEM.DIHEDRAL>
0

>  <SCORE.SYSTEM.SOLV>
0

>  <SCORE.SYSTEM.norm>
0

>  <SCORE.heavy>
22

>  <SCORE.norm>
-0.476748

>  <RMSD>
3.592

$$$$
lig.pdb
 OpenBabel11021811523D
libRbt.so/2013.1/901 2013/11/27
 22 23  0  0  0  0  0  0  0  0999 V2000
   -4.8738   -2.9395   -0.1420 C   0  0  1  0  0  0  0  0  0  0  0  0
   -4.3421   -0.5981    0.6495 C   0  0  1  0  0  0  0  0  0  0  0  0
   -2.9934   -0.7983    1.4729 C   0  0  1  0  0  0  0  0  0  0  0  0
   -2.8950    0.3784    2.5457 C   0  0  2  0  0  0  0  0  0  0  0  0
   -4.7380   -3.7651   -1.4800 C   0  0  1  0  0  0  0  0  0  0  0  0
   -5.6846   -3.1396   -2.5236 C   0  0  2  0  0  0  0  0  0  0  0  0
   -7.1477   -3.2161   -2.0526 C   0  0  2  0  0  0  0  0  0  0  0  0
   -7.3519   -2.4396   -0.7007 C   0  0  1  0  0  0  0  0  0  0  0  0
   -8.8174   -2.5607   -0.1921 C   0  0  0  0  0  0  0  0  0  0  0  0
   -2.8174    1.7927    1.7738 C   0  0  1  0  0  0  0  0  0  0  0  0
   -4.1931    1.9586    0.9532 C   0  0  0  0  0  0  0  0  0  0  0  0
   -4.3363    0.7697   -0.1045 C   0  0  2  0  0  0  0  0  0  0  0  0
   -7.5420   -4.6167   -1.8626 F   0  0  0  0  0  0  0  0  0  0  0  0
   -3.2903   -3.6988   -1.9195 N   0  0  0  0  0  0  0  0  0  0  0  0
   -9.1881   -3.8517    0.2489 N   0  0  0  0  0  0  0  0  0  0  0  0
   -2.7402    2.9364    2.7458 N   0  0  0  0  0  0  0  0  0  0  0  0
   -5.6006    0.9269   -0.8523 N   0  0  0  0  0  0  0  0  0  0  0  0
   -4.4735   -1.6182   -0.3289 O   0  0  0  0  0  0  0  0  0  0  0  0
   -3.0744   -2.1034    2.1704 O   0  0  0  0  0  0  0  0  0  0  0  0
   -1.7115    0.1755    3.2593 O   0  0  0  0  0  0  0  0  0  0  0  0
   -5.5856   -3.7443   -3.4972 O   0  0  0  0  0  0  0  0  0  0  0  0
   -6.3332   -3.0164    0.2991 O   0  0  0  0  0  0  0  0  0  0  0  0
  1  5  1  0  0  0  0
  1 18  1  6  0  0  0
  2 18  1  6  0  0  0
  2  3  1  0  0  0  0
  2 12  1  0  0  0  0
  3 19  1  1  0  0  0
  3  4  1  0  0  0  0
  4 20  1  6  0  0  0
  4 10  1  0  0  0  0
  5  6  1  0  0  0  0
  5 14  1  6  0  0  0
  6 21  1  6  0  0  0
  7 13  1  1  0  0  0
  7  6  1  0  0  0  0
  8  9  1  1  0  0  0
  8  7  1  0  0  0  0
 10 16  1  1  0  0  0
 11 10  1  0  0  0  0
 12 17  1  1  0  0  0
 12 11  1  0  0  0  0
 15  9  1  0  0  0  0
 22  8  1  0  0  0  0
 22  1  1  0  0  0  0
M  END
>  <CHROM.1>
-174.22503323,77.72687133,69.05680372,-5.01320793,-1.57817834,0.00492606
-2.17104784,-0.06304583,0.61334231

>  <Name>
lig.pdb

>  <RI>
0

>  <Rbt.Current_Directory>
/home/itssahil/PROJECTS/Mol_Feturizer/New_Systems/rnas/5bws

>  <Rbt.Executable>
rbdock ($Id: //depot/dev/client3/rdock/2013.1/src/exe/rbdock.cxx#4 $)

>  <Rbt.Library>
libRbt.so (2013.1, Build901 2013/11/27)

>  <Rbt.Parameter_File>
/export/apps/rDock/src/rDock_2013.1_src/data/scripts/dock_solv.prm

>  <Rbt.Receptor>
prm/blind_docking_20.prm

>  <SCORE>
-10.4796

>  <SCORE.INTER>
-8.65929

>  <SCORE.INTER.CONST>
1

>  <SCORE.INTER.POLAR>
0

>  <SCORE.INTER.ROT>
3

>  <SCORE.INTER.SOLV>
28.6569

>  <SCORE.INTER.VDW>
-20.9251

>  <SCORE.INTER.norm>
-0.393604

>  <SCORE.INTRA>
-1.82434

>  <SCORE.INTRA.DIHEDRAL>
-4.20948

>  <SCORE.INTRA.DIHEDRAL.0>
6.10773

>  <SCORE.INTRA.POLAR>
0

>  <SCORE.INTRA.POLAR.0>
0

>  <SCORE.INTRA.REPUL>
0

>  <SCORE.INTRA.REPUL.0>
0

>  <SCORE.INTRA.SOLV>
0.517186

>  <SCORE.INTRA.SOLV.lig_0>
-71.4024

>  <SCORE.INTRA.VDW>
0.0218065

>  <SCORE.INTRA.VDW.0>
-1.86213

>  <SCORE.INTRA.norm>
-0.0829246

>  <SCORE.RESTR>
0.00399424

>  <SCORE.RESTR.CAVITY>
0.00399424

>  <SCORE.RESTR.norm>
0.000181556

>  <SCORE.SYSTEM>
0

>  <SCORE.SYSTEM.CONST>
0

>  <SCORE.SYSTEM.DIHEDRAL>
0

>  <SCORE.SYSTEM.SOLV>
0

>  <SCORE.SYSTEM.norm>
0

>  <SCORE.heavy>
22

>  <SCORE.norm>
-0.476347

>  <RMSD>
3.593

$$$$
lig.pdb
 OpenBabel11021811523D
libRbt.so/2013.1/901 2013/11/27
 22 23  0  0  0  0  0  0  0  0999 V2000
   -4.9205   -2.9027   -0.1257 C   0  0  1  0  0  0  0  0  0  0  0  0
   -4.3647   -0.5684    0.6701 C   0  0  1  0  0  0  0  0  0  0  0  0
   -3.0166   -0.7935    1.4880 C   0  0  1  0  0  0  0  0  0  0  0  0
   -2.8953    0.3774    2.5647 C   0  0  2  0  0  0  0  0  0  0  0  0
   -4.8190   -3.7192   -1.4722 C   0  0  1  0  0  0  0  0  0  0  0  0
   -5.7841   -3.0802   -2.4904 C   0  0  2  0  0  0  0  0  0  0  0  0
   -7.2371   -3.1512   -1.9882 C   0  0  2  0  0  0  0  0  0  0  0  0
   -7.4070   -2.3835   -0.6266 C   0  0  1  0  0  0  0  0  0  0  0  0
   -8.8618   -2.4994   -0.0871 C   0  0  0  0  0  0  0  0  0  0  0  0
   -2.7974    1.7932    1.7978 C   0  0  1  0  0  0  0  0  0  0  0  0
   -4.1731    1.9845    0.9826 C   0  0  0  0  0  0  0  0  0  0  0  0
   -4.3393    0.8019   -0.0789 C   0  0  2  0  0  0  0  0  0  0  0  0
   -7.6360   -4.5507   -1.7999 F   0  0  0  0  0  0  0  0  0  0  0  0
   -3.3808   -3.6585   -1.9427 N   0  0  0  0  0  0  0  0  0  0  0  0
   -9.0984   -1.8248    1.1324 N   0  0  0  0  0  0  0  0  0  0  0  0
   -2.6983    2.9319    2.7736 N   0  0  0  0  0  0  0  0  0  0  0  0
   -5.6034    0.9824   -0.8217 N   0  0  0  0  0  0  0  0  0  0  0  0
   -4.5161   -1.5825   -0.3116 O   0  0  0  0  0  0  0  0  0  0  0  0
   -3.1164   -2.0997    2.1810 O   0  0  0  0  0  0  0  0  0  0  0  0
   -1.7128    0.1527    3.2734 O   0  0  0  0  0  0  0  0  0  0  0  0
   -5.7101   -3.6782   -3.4703 O   0  0  0  0  0  0  0  0  0  0  0  0
   -6.3704   -2.9739    0.3465 O   0  0  0  0  0  0  0  0  0  0  0  0
  1  5  1  0  0  0  0
  1 18  1  6  0  0  0
  2 18  1  6  0  0  0
  2  3  1  0  0  0  0
  2 12  1  0  0  0  0
  3 19  1  1  0  0  0
  3  4  1  0  0  0  0
  4 20  1  6  0  0  0
  4 10  1  0  0  0  0
  5  6  1  0  0  0  0
  5 14  1  6  0  0  0
  6 21  1  6  0  0  0
  7 13  1  1  0  0  0
  7  6  1  0  0  0  0
  8  9  1  1  0  0  0
  8  7  1  0  0  0  0
 10 16  1  1  0  0  0
 11 10  1  0  0  0  0
 12 17  1  1  0  0  0
 12 11  1  0  0  0  0
 15  9  1  0  0  0  0
 22  8  1  0  0  0  0
 22  1  1  0  0  0  0
M  END
>  <CHROM.1>
-174.63811397,76.81380587,-179.53334376,-5.04759606,-1.45548080,0.07423440
-2.17065289,-0.05277608,0.64981976

>  <Name>
lig.pdb

>  <RI>
0

>  <Rbt.Current_Directory>
/home/itssahil/PROJECTS/Mol_Feturizer/New_Systems/rnas/5bws

>  <Rbt.Executable>
rbdock ($Id: //depot/dev/client3/rdock/2013.1/src/exe/rbdock.cxx#4 $)

>  <Rbt.Library>
libRbt.so (2013.1, Build901 2013/11/27)

>  <Rbt.Parameter_File>
/export/apps/rDock/src/rDock_2013.1_src/data/scripts/dock_solv.prm

>  <Rbt.Receptor>
prm/blind_docking_20.prm

>  <SCORE>
-12.5181

>  <SCORE.INTER>
-9.72679

>  <SCORE.INTER.CONST>
1

>  <SCORE.INTER.POLAR>
0

>  <SCORE.INTER.ROT>
3

>  <SCORE.INTER.SOLV>
23.9531

>  <SCORE.INTER.VDW>
-20.0689

>  <SCORE.INTER.norm>
-0.442127

>  <SCORE.INTRA>
-2.79476

>  <SCORE.INTRA.DIHEDRAL>
-4.65682

>  <SCORE.INTRA.DIHEDRAL.0>
6.10773

>  <SCORE.INTRA.POLAR>
0

>  <SCORE.INTRA.POLAR.0>
0

>  <SCORE.INTRA.REPUL>
0

>  <SCORE.INTRA.REPUL.0>
0

>  <SCORE.INTRA.SOLV>
-1.16498

>  <SCORE.INTRA.SOLV.lig_0>
-71.4024

>  <SCORE.INTRA.VDW>
0.116145

>  <SCORE.INTRA.VDW.0>
-1.86213

>  <SCORE.INTRA.norm>
-0.127034

>  <SCORE.RESTR>
0.00344291

>  <SCORE.RESTR.CAVITY>
0.00344291

>  <SCORE.RESTR.norm>
0.000156496

>  <SCORE.SYSTEM>
0

>  <SCORE.SYSTEM.CONST>
0

>  <SCORE.SYSTEM.DIHEDRAL>
0

>  <SCORE.SYSTEM.SOLV>
0

>  <SCORE.SYSTEM.norm>
0

>  <SCORE.heavy>
22

>  <SCORE.norm>
-0.569005

>  <RMSD>
3.631

$$$$
lig.pdb
 OpenBabel11021811523D
libRbt.so/2013.1/901 2013/11/27
 22 23  0  0  0  0  0  0  0  0999 V2000
   -4.9135   -2.9079   -0.1239 C   0  0  1  0  0  0  0  0  0  0  0  0
   -4.3633   -0.5726    0.6729 C   0  0  1  0  0  0  0  0  0  0  0  0
   -3.0170   -0.7939    1.4949 C   0  0  1  0  0  0  0  0  0  0  0  0
   -2.9019    0.3778    2.5716 C   0  0  2  0  0  0  0  0  0  0  0  0
   -4.8042   -3.7253   -1.4692 C   0  0  1  0  0  0  0  0  0  0  0  0
   -5.7643   -3.0879   -2.4930 C   0  0  2  0  0  0  0  0  0  0  0  0
   -7.2200   -3.1597   -1.9986 C   0  0  2  0  0  0  0  0  0  0  0  0
   -7.3977   -2.3910   -0.6385 C   0  0  1  0  0  0  0  0  0  0  0  0
   -8.8552   -2.5076   -0.1067 C   0  0  0  0  0  0  0  0  0  0  0  0
   -2.8054    1.7934    1.8043 C   0  0  1  0  0  0  0  0  0  0  0  0
   -4.1792    1.9809    0.9850 C   0  0  0  0  0  0  0  0  0  0  0  0
   -4.3392    0.7975   -0.0765 C   0  0  2  0  0  0  0  0  0  0  0  0
   -7.6187   -4.5593   -1.8113 F   0  0  0  0  0  0  0  0  0  0  0  0
   -3.3636   -3.6639   -1.9321 N   0  0  0  0  0  0  0  0  0  0  0  0
   -9.0987   -1.8329    1.1115 N   0  0  0  0  0  0  0  0  0  0  0  0
   -2.7121    2.9328    2.7800 N   0  0  0  0  0  0  0  0  0  0  0  0
   -5.6016    0.9744   -0.8231 N   0  0  0  0  0  0  0  0  0  0  0  0
   -4.5091   -1.5875   -0.3088 O   0  0  0  0  0  0  0  0  0  0  0  0
   -3.1155   -2.1001    2.1881 O   0  0  0  0  0  0  0  0  0  0  0  0
   -1.7209    0.1563    3.2838 O   0  0  0  0  0  0  0  0  0  0  0  0
   -5.6847   -3.6867   -3.4721 O   0  0  0  0  0  0  0  0  0  0  0  0
   -6.3658   -2.9798    0.3406 O   0  0  0  0  0  0  0  0  0  0  0  0
  1  5  1  0  0  0  0
  1 18  1  6  0  0  0
  2 18  1  6  0  0  0
  2  3  1  0  0  0  0
  2 12  1  0  0  0  0
  3 19  1  1  0  0  0
  3  4  1  0  0  0  0
  4 20  1  6  0  0  0
  4 10  1  0  0  0  0
  5  6  1  0  0  0  0
  5 14  1  6  0  0  0
  6 21  1  6  0  0  0
  7 13  1  1  0  0  0
  7  6  1  0  0  0  0
  8  9  1  1  0  0  0
  8  7  1  0  0  0  0
 10 16  1  1  0  0  0
 11 10  1  0  0  0  0
 12 17  1  1  0  0  0
 12 11  1  0  0  0  0
 15  9  1  0  0  0  0
 22  8  1  0  0  0  0
 22  1  1  0  0  0  0
M  END
>  <CHROM.1>
-174.61110006,76.96827449,-179.57595778,-5.04251520,-1.46008570,0.07342225
-2.16710770,-0.05720108,0.64827365

>  <Name>
lig.pdb

>  <RI>
0

>  <Rbt.Current_Directory>
/home/itssahil/PROJECTS/Mol_Feturizer/New_Systems/rnas/5bws

>  <Rbt.Executable>
rbdock ($Id: //depot/dev/client3/rdock/2013.1/src/exe/rbdock.cxx#4 $)

>  <Rbt.Library>
libRbt.so (2013.1, Build901 2013/11/27)

>  <Rbt.Parameter_File>
/export/apps/rDock/src/rDock_2013.1_src/data/scripts/dock_solv.prm

>  <Rbt.Receptor>
prm/blind_docking_20.prm

>  <SCORE>
-12.4928

>  <SCORE.INTER>
-9.71345

>  <SCORE.INTER.CONST>
1

>  <SCORE.INTER.POLAR>
0

>  <SCORE.INTER.ROT>
3

>  <SCORE.INTER.SOLV>
23.9712

>  <SCORE.INTER.VDW>
-20.066

>  <SCORE.INTER.norm>
-0.441521

>  <SCORE.INTRA>
-2.78101

>  <SCORE.INTRA.DIHEDRAL>
-4.63303

>  <SCORE.INTRA.DIHEDRAL.0>
6.10773

>  <SCORE.INTRA.POLAR>
0

>  <SCORE.INTRA.POLAR.0>
0

>  <SCORE.INTRA.REPUL>
0

>  <SCORE.INTRA.REPUL.0>
0

>  <SCORE.INTRA.SOLV>
-1.15652

>  <SCORE.INTRA.SOLV.lig_0>
-71.4024

>  <SCORE.INTRA.VDW>
0.113767

>  <SCORE.INTRA.VDW.0>
-1.86213

>  <SCORE.INTRA.norm>
-0.12641

>  <SCORE.RESTR>
0.0016635

>  <SCORE.RESTR.CAVITY>
0.0016635

>  <SCORE.RESTR.norm>
7.56136e-05

>  <SCORE.SYSTEM>
0

>  <SCORE.SYSTEM.CONST>
0

>  <SCORE.SYSTEM.DIHEDRAL>
0

>  <SCORE.SYSTEM.SOLV>
0

>  <SCORE.SYSTEM.norm>
0

>  <SCORE.heavy>
22

>  <SCORE.norm>
-0.567855

>  <RMSD>
3.633

$$$$
lig.pdb
 OpenBabel11021811523D
libRbt.so/2013.1/901 2013/11/27
 22 23  0  0  0  0  0  0  0  0999 V2000
   -4.9061   -2.9239   -0.1387 C   0  0  1  0  0  0  0  0  0  0  0  0
   -4.3618   -0.5858    0.6538 C   0  0  1  0  0  0  0  0  0  0  0  0
   -3.0200   -0.7928    1.4867 C   0  0  1  0  0  0  0  0  0  0  0  0
   -2.9219    0.3848    2.5585 C   0  0  2  0  0  0  0  0  0  0  0  0
   -4.8058   -3.7417   -1.4846 C   0  0  1  0  0  0  0  0  0  0  0  0
   -5.7637   -3.0969   -2.5060 C   0  0  2  0  0  0  0  0  0  0  0  0
   -7.2186   -3.1582   -2.0082 C   0  0  2  0  0  0  0  0  0  0  0  0
   -7.3877   -2.3888   -0.6475 C   0  0  1  0  0  0  0  0  0  0  0  0
   -8.8448   -2.4950   -0.1124 C   0  0  0  0  0  0  0  0  0  0  0  0
   -2.8306    1.7976    1.7852 C   0  0  1  0  0  0  0  0  0  0  0  0
   -4.1996    1.9705    0.9549 C   0  0  0  0  0  0  0  0  0  0  0  0
   -4.3427    0.7808   -0.1021 C   0  0  2  0  0  0  0  0  0  0  0  0
   -7.6271   -4.5550   -1.8205 F   0  0  0  0  0  0  0  0  0  0  0  0
   -3.3658   -3.6906   -1.9507 N   0  0  0  0  0  0  0  0  0  0  0  0
   -9.0759   -1.8346    1.1161 N   0  0  0  0  0  0  0  0  0  0  0  0
   -2.7533    2.9422    2.7560 N   0  0  0  0  0  0  0  0  0  0  0  0
   -5.6008    0.9445   -0.8588 N   0  0  0  0  0  0  0  0  0  0  0  0
   -4.4926   -1.6065   -0.3241 O   0  0  0  0  0  0  0  0  0  0  0  0
   -3.1135   -2.0964    2.1855 O   0  0  0  0  0  0  0  0  0  0  0  0
   -1.7445    0.1759    3.2805 O   0  0  0  0  0  0  0  0  0  0  0  0
   -5.6906   -3.6959   -3.4854 O   0  0  0  0  0  0  0  0  0  0  0  0
   -6.3579   -2.9854    0.3291 O   0  0  0  0  0  0  0  0  0  0  0  0
  1  5  1  0  0  0  0
  1 18  1  6  0  0  0
  2 18  1  6  0  0  0
  2  3  1  0  0  0  0
  2 12  1  0  0  0  0
  3 19  1  1  0  0  0
  3  4  1  0  0  0  0
  4 20  1  6  0  0  0
  4 10  1  0  0  0  0
  5  6  1  0  0  0  0
  5 14  1  6  0  0  0
  6 21  1  6  0  0  0
  7 13  1  1  0  0  0
  7  6  1  0  0  0  0
  8  9  1  1  0  0  0
  8  7  1  0  0  0  0
 10 16  1  1  0  0  0
 11 10  1  0  0  0  0
 12 17  1  1  0  0  0
 12 11  1  0  0  0  0
 15  9  1  0  0  0  0
 22  8  1  0  0  0  0
 22  1  1  0  0  0  0
M  END
>  <CHROM.1>
-175.94323919,77.95424335,179.58370061,-5.04585867,-1.46474401,0.05950114
-2.16250036,-0.05685662,0.64859440

>  <Name>
lig.pdb

>  <RI>
0

>  <Rbt.Current_Directory>
/home/itssahil/PROJECTS/Mol_Feturizer/New_Systems/rnas/5bws

>  <Rbt.Executable>
rbdock ($Id: //depot/dev/client3/rdock/2013.1/src/exe/rbdock.cxx#4 $)

>  <Rbt.Library>
libRbt.so (2013.1, Build901 2013/11/27)

>  <Rbt.Parameter_File>
/export/apps/rDock/src/rDock_2013.1_src/data/scripts/dock_solv.prm

>  <Rbt.Receptor>
prm/blind_docking_20.prm

>  <SCORE>
-12.4783

>  <SCORE.INTER>
-9.75551

>  <SCORE.INTER.CONST>
1

>  <SCORE.INTER.POLAR>
0

>  <SCORE.INTER.ROT>
3

>  <SCORE.INTER.SOLV>
23.8997

>  <SCORE.INTER.VDW>
-20.0702

>  <SCORE.INTER.norm>
-0.443432

>  <SCORE.INTRA>
-2.72366

>  <SCORE.INTRA.DIHEDRAL>
-4.5473

>  <SCORE.INTRA.DIHEDRAL.0>
6.10773

>  <SCORE.INTRA.POLAR>
0

>  <SCORE.INTRA.POLAR.0>
0

>  <SCORE.INTRA.REPUL>
0

>  <SCORE.INTRA.REPUL.0>
0

>  <SCORE.INTRA.SOLV>
-1.09041

>  <SCORE.INTRA.SOLV.lig_0>
-71.4024

>  <SCORE.INTRA.VDW>
0.0951915

>  <SCORE.INTRA.VDW.0>
-1.86213

>  <SCORE.INTRA.norm>
-0.123803

>  <SCORE.RESTR>
0.000828832

>  <SCORE.RESTR.CAVITY>
0.000828832

>  <SCORE.RESTR.norm>
3.76742e-05

>  <SCORE.SYSTEM>
0

>  <SCORE.SYSTEM.CONST>
0

>  <SCORE.SYSTEM.DIHEDRAL>
0

>  <SCORE.SYSTEM.SOLV>
0

>  <SCORE.SYSTEM.norm>
0

>  <SCORE.heavy>
22

>  <SCORE.norm>
-0.567197

>  <RMSD>
3.635

$$$$
lig.pdb
 OpenBabel11021811523D
libRbt.so/2013.1/901 2013/11/27
 22 23  0  0  0  0  0  0  0  0999 V2000
   -5.0088   -3.0076   -0.1441 C   0  0  1  0  0  0  0  0  0  0  0  0
   -4.5249   -0.6594    0.6577 C   0  0  1  0  0  0  0  0  0  0  0  0
   -3.1280   -0.7891    1.4120 C   0  0  1  0  0  0  0  0  0  0  0  0
   -3.0449    0.3801    2.4943 C   0  0  2  0  0  0  0  0  0  0  0  0
   -4.8529   -3.8241   -1.4854 C   0  0  1  0  0  0  0  0  0  0  0  0
   -5.8180   -3.2208   -2.5250 C   0  0  2  0  0  0  0  0  0  0  0  0
   -7.2777   -3.3390   -2.0520 C   0  0  2  0  0  0  0  0  0  0  0  0
   -7.5007   -2.5735   -0.6968 C   0  0  1  0  0  0  0  0  0  0  0  0
   -8.9613   -2.7365   -0.1863 C   0  0  0  0  0  0  0  0  0  0  0  0
   -3.0873    1.8045    1.7383 C   0  0  1  0  0  0  0  0  0  0  0  0
   -4.5090    1.8984    0.9877 C   0  0  0  0  0  0  0  0  0  0  0  0
   -4.6352    0.7141   -0.0774 C   0  0  2  0  0  0  0  0  0  0  0  0
   -7.6332   -4.7506   -1.8667 F   0  0  0  0  0  0  0  0  0  0  0  0
   -3.4083   -3.7167   -1.9270 N   0  0  0  0  0  0  0  0  0  0  0  0
   -9.2309   -2.1106    1.0523 N   0  0  0  0  0  0  0  0  0  0  0  0
   -3.0286    2.9406    2.7204 N   0  0  0  0  0  0  0  0  0  0  0  0
   -5.9417    0.8051   -0.7608 N   0  0  0  0  0  0  0  0  0  0  0  0
   -4.6451   -1.6752   -0.3266 O   0  0  0  0  0  0  0  0  0  0  0  0
   -3.0990   -2.1039    2.0952 O   0  0  0  0  0  0  0  0  0  0  0  0
   -1.8180    0.2392    3.1468 O   0  0  0  0  0  0  0  0  0  0  0  0
   -5.7043   -3.8189   -3.5012 O   0  0  0  0  0  0  0  0  0  0  0  0
   -6.4648   -3.1260    0.2991 O   0  0  0  0  0  0  0  0  0  0  0  0
  1  5  1  0  0  0  0
  1 18  1  6  0  0  0
  2 18  1  6  0  0  0
  2  3  1  0  0  0  0
  2 12  1  0  0  0  0
  3 19  1  1  0  0  0
  3  4  1  0  0  0  0
  4 20  1  6  0  0  0
  4 10  1  0  0  0  0
  5  6  1  0  0  0  0
  5 14  1  6  0  0  0
  6 21  1  6  0  0  0
  7 13  1  1  0  0  0
  7  6  1  0  0  0  0
  8  9  1  1  0  0  0
  8  7  1  0  0  0  0
 10 16  1  1  0  0  0
 11 10  1  0  0  0  0
 12 17  1  1  0  0  0
 12 11  1  0  0  0  0
 15  9  1  0  0  0  0
 22  8  1  0  0  0  0
 22  1  1  0  0  0  0
M  END
>  <CHROM.1>
-173.42114597,80.43386250,178.09218717,-5.17347529,-1.55741067,0.03049401
-2.14310445,-0.05688137,0.63046624

>  <Name>
lig.pdb

>  <RI>
0

>  <Rbt.Current_Directory>
/home/itssahil/PROJECTS/Mol_Feturizer/New_Systems/rnas/5bws

>  <Rbt.Executable>
rbdock ($Id: //depot/dev/client3/rdock/2013.1/src/exe/rbdock.cxx#4 $)

>  <Rbt.Library>
libRbt.so (2013.1, Build901 2013/11/27)

>  <Rbt.Parameter_File>
/export/apps/rDock/src/rDock_2013.1_src/data/scripts/dock_solv.prm

>  <Rbt.Receptor>
prm/pocket_docking_5.prm

>  <SCORE>
-13.139

>  <SCORE.INTER>
-10.7116

>  <SCORE.INTER.CONST>
1

>  <SCORE.INTER.POLAR>
0

>  <SCORE.INTER.ROT>
3

>  <SCORE.INTER.SOLV>
23.3058

>  <SCORE.INTER.VDW>
-20.5097

>  <SCORE.INTER.norm>
-0.48689

>  <SCORE.INTRA>
-2.43127

>  <SCORE.INTRA.DIHEDRAL>
-4.01002

>  <SCORE.INTRA.DIHEDRAL.0>
6.10773

>  <SCORE.INTRA.POLAR>
0

>  <SCORE.INTRA.POLAR.0>
0

>  <SCORE.INTRA.REPUL>
0

>  <SCORE.INTRA.REPUL.0>
0

>  <SCORE.INTRA.SOLV>
-0.943169

>  <SCORE.INTRA.SOLV.lig_0>
-71.4024

>  <SCORE.INTRA.VDW>
0.0453215

>  <SCORE.INTRA.VDW.0>
-1.86213

>  <SCORE.INTRA.norm>
-0.110512

>  <SCORE.RESTR>
0.00390057

>  <SCORE.RESTR.CAVITY>
0.00390057

>  <SCORE.RESTR.norm>
0.000177299

>  <SCORE.SYSTEM>
0

>  <SCORE.SYSTEM.CONST>
0

>  <SCORE.SYSTEM.DIHEDRAL>
0

>  <SCORE.SYSTEM.SOLV>
0

>  <SCORE.SYSTEM.norm>
0

>  <SCORE.heavy>
22

>  <SCORE.norm>
-0.597226

>  <RMSD>
3.635

$$$$
lig.pdb
 OpenBabel11021811523D
libRbt.so/2013.1/901 2013/11/27
 22 23  0  0  0  0  0  0  0  0999 V2000
   -4.9073   -2.9274   -0.1355 C   0  0  1  0  0  0  0  0  0  0  0  0
   -4.3609   -0.5888    0.6544 C   0  0  1  0  0  0  0  0  0  0  0  0
   -3.0187   -0.7963    1.4865 C   0  0  1  0  0  0  0  0  0  0  0  0
   -2.9186    0.3822    2.5572 C   0  0  2  0  0  0  0  0  0  0  0  0
   -4.8039   -3.7477   -1.4795 C   0  0  1  0  0  0  0  0  0  0  0  0
   -5.7595   -3.1050   -2.5042 C   0  0  2  0  0  0  0  0  0  0  0  0
   -7.2156   -3.1655   -2.0096 C   0  0  2  0  0  0  0  0  0  0  0  0
   -7.3877   -2.3934   -0.6507 C   0  0  1  0  0  0  0  0  0  0  0  0
   -8.8460   -2.4986   -0.1186 C   0  0  0  0  0  0  0  0  0  0  0  0
   -2.8265    1.7942    1.7824 C   0  0  1  0  0  0  0  0  0  0  0  0
   -4.1960    1.9676    0.9530 C   0  0  0  0  0  0  0  0  0  0  0  0
   -4.3410    0.7771   -0.1028 C   0  0  2  0  0  0  0  0  0  0  0  0
   -7.6244   -4.5619   -1.8200 F   0  0  0  0  0  0  0  0  0  0  0  0
   -3.3629   -3.6974   -1.9425 N   0  0  0  0  0  0  0  0  0  0  0  0
   -9.0859   -1.8153    1.0955 N   0  0  0  0  0  0  0  0  0  0  0  0
   -2.7474    2.9396    2.7521 N   0  0  0  0  0  0  0  0  0  0  0  0
   -5.5996    0.9413   -0.8587 N   0  0  0  0  0  0  0  0  0  0  0  0
   -4.4934   -1.6102   -0.3225 O   0  0  0  0  0  0  0  0  0  0  0  0
   -3.1130   -2.0991    2.1865 O   0  0  0  0  0  0  0  0  0  0  0  0
   -1.7410    0.1729    3.2785 O   0  0  0  0  0  0  0  0  0  0  0  0
   -5.6843   -3.7059   -3.4823 O   0  0  0  0  0  0  0  0  0  0  0  0
   -6.3600   -2.9880    0.3293 O   0  0  0  0  0  0  0  0  0  0  0  0
  1  5  1  0  0  0  0
  1 18  1  6  0  0  0
  2 18  1  6  0  0  0
  2  3  1  0  0  0  0
  2 12  1  0  0  0  0
  3 19  1  1  0  0  0
  3  4  1  0  0  0  0
  4 20  1  6  0  0  0
  4 10  1  0  0  0  0
  5  6  1  0  0  0  0
  5 14  1  6  0  0  0
  6 21  1  6  0  0  0
  7 13  1  1  0  0  0
  7  6  1  0  0  0  0
  8  9  1  1  0  0  0
  8  7  1  0  0  0  0
 10 16  1  1  0  0  0
 11 10  1  0  0  0  0
 12 17  1  1  0  0  0
 12 11  1  0  0  0  0
 15  9  1  0  0  0  0
 22  8  1  0  0  0  0
 22  1  1  0  0  0  0
M  END
>  <CHROM.1>
-175.73158494,77.90993663,-179.30386674,-5.04441294,-1.46817825,0.05868487
-2.16317425,-0.06187798,0.64473178

>  <Name>
lig.pdb

>  <RI>
0

>  <Rbt.Current_Directory>
/home/itssahil/PROJECTS/Mol_Feturizer/New_Systems/rnas/5bws

>  <Rbt.Executable>
rbdock ($Id: //depot/dev/client3/rdock/2013.1/src/exe/rbdock.cxx#4 $)

>  <Rbt.Library>
libRbt.so (2013.1, Build901 2013/11/27)

>  <Rbt.Parameter_File>
/export/apps/rDock/src/rDock_2013.1_src/data/scripts/dock_solv.prm

>  <Rbt.Receptor>
prm/blind_docking_20.prm

>  <SCORE>
-12.4903

>  <SCORE.INTER>
-9.75962

>  <SCORE.INTER.CONST>
1

>  <SCORE.INTER.POLAR>
0

>  <SCORE.INTER.ROT>
3

>  <SCORE.INTER.SOLV>
23.8739

>  <SCORE.INTER.VDW>
-20.0644

>  <SCORE.INTER.norm>
-0.443619

>  <SCORE.INTRA>
-2.73071

>  <SCORE.INTRA.DIHEDRAL>
-4.54439

>  <SCORE.INTRA.DIHEDRAL.0>
6.10773

>  <SCORE.INTRA.POLAR>
0

>  <SCORE.INTRA.POLAR.0>
0

>  <SCORE.INTRA.REPUL>
0

>  <SCORE.INTRA.REPUL.0>
0

>  <SCORE.INTRA.SOLV>
-1.11054

>  <SCORE.INTRA.SOLV.lig_0>
-71.4024

>  <SCORE.INTRA.VDW>
0.0967502

>  <SCORE.INTRA.VDW.0>
-1.86213

>  <SCORE.INTRA.norm>
-0.124123

>  <SCORE.RESTR>
0

>  <SCORE.RESTR.CAVITY>
0

>  <SCORE.RESTR.norm>
0

>  <SCORE.SYSTEM>
0

>  <SCORE.SYSTEM.CONST>
0

>  <SCORE.SYSTEM.DIHEDRAL>
0

>  <SCORE.SYSTEM.SOLV>
0

>  <SCORE.SYSTEM.norm>
0

>  <SCORE.heavy>
22

>  <SCORE.norm>
-0.567742

>  <RMSD>
3.636

$$$$
lig.pdb
 OpenBabel11021811523D
libRbt.so/2013.1/901 2013/11/27
 22 23  0  0  0  0  0  0  0  0999 V2000
   -5.0147   -3.0666   -0.1789 C   0  0  1  0  0  0  0  0  0  0  0  0
   -4.5193   -0.7198    0.6201 C   0  0  1  0  0  0  0  0  0  0  0  0
   -3.1199   -0.8791    1.3641 C   0  0  1  0  0  0  0  0  0  0  0  0
   -3.0060    0.2855    2.4486 C   0  0  2  0  0  0  0  0  0  0  0  0
   -4.8728   -3.8802   -1.5235 C   0  0  1  0  0  0  0  0  0  0  0  0
   -5.8603   -3.2849   -2.5466 C   0  0  2  0  0  0  0  0  0  0  0  0
   -7.3110   -3.4175   -2.0501 C   0  0  2  0  0  0  0  0  0  0  0  0
   -7.5192   -2.6556   -0.6906 C   0  0  1  0  0  0  0  0  0  0  0  0
   -8.9698   -2.8330   -0.1566 C   0  0  0  0  0  0  0  0  0  0  0  0
   -3.0254    1.7123    1.6963 C   0  0  1  0  0  0  0  0  0  0  0  0
   -4.4503    1.8363    0.9560 C   0  0  0  0  0  0  0  0  0  0  0  0
   -4.6075    0.6575   -0.1110 C   0  0  2  0  0  0  0  0  0  0  0  0
   -7.6501   -4.8326   -1.8608 F   0  0  0  0  0  0  0  0  0  0  0  0
   -3.4366   -3.7585   -1.9884 N   0  0  0  0  0  0  0  0  0  0  0  0
   -9.2639   -2.1027    1.0176 N   0  0  0  0  0  0  0  0  0  0  0  0
   -2.9372    2.8446    2.6806 N   0  0  0  0  0  0  0  0  0  0  0  0
   -5.9167    0.7761   -0.7849 N   0  0  0  0  0  0  0  0  0  0  0  0
   -4.6666   -1.7305   -0.3657 O   0  0  0  0  0  0  0  0  0  0  0  0
   -3.1123   -2.1959    2.0441 O   0  0  0  0  0  0  0  0  0  0  0  0
   -1.7776    0.1186    3.0920 O   0  0  0  0  0  0  0  0  0  0  0  0
   -5.7568   -3.8809   -3.5252 O   0  0  0  0  0  0  0  0  0  0  0  0
   -6.4621   -3.1992    0.2877 O   0  0  0  0  0  0  0  0  0  0  0  0
  1  5  1  0  0  0  0
  1 18  1  6  0  0  0
  2 18  1  6  0  0  0
  2  3  1  0  0  0  0
  2 12  1  0  0  0  0
  3 19  1  1  0  0  0
  3  4  1  0  0  0  0
  4 20  1  6  0  0  0
  4 10  1  0  0  0  0
  5  6  1  0  0  0  0
  5 14  1  6  0  0  0
  6 21  1  6  0  0  0
  7 13  1  1  0  0  0
  7  6  1  0  0  0  0
  8  9  1  1  0  0  0
  8  7  1  0  0  0  0
 10 16  1  1  0  0  0
 11 10  1  0  0  0  0
 12 17  1  1  0  0  0
 12 11  1  0  0  0  0
 15  9  1  0  0  0  0
 22  8  1  0  0  0  0
 22  1  1  0  0  0  0
M  END
>  <CHROM.1>
-172.31886605,78.22004966,-175.90966227,-5.17110895,-1.62766346,0.00220896
-2.15545524,-0.04894623,0.63090007

>  <Name>
lig.pdb

>  <RI>
0

>  <Rbt.Current_Directory>
/home/itssahil/PROJECTS/Mol_Feturizer/New_Systems/rnas/5bws

>  <Rbt.Executable>
rbdock ($Id: //depot/dev/client3/rdock/2013.1/src/exe/rbdock.cxx#4 $)

>  <Rbt.Library>
libRbt.so (2013.1, Build901 2013/11/27)

>  <Rbt.Parameter_File>
/export/apps/rDock/src/rDock_2013.1_src/data/scripts/dock_solv.prm

>  <Rbt.Receptor>
prm/pocket_docking_6.prm

>  <SCORE>
-13.3151

>  <SCORE.INTER>
-10.722

>  <SCORE.INTER.CONST>
1

>  <SCORE.INTER.POLAR>
0

>  <SCORE.INTER.ROT>
3

>  <SCORE.INTER.SOLV>
23.4862

>  <SCORE.INTER.VDW>
-20.5767

>  <SCORE.INTER.norm>
-0.487362

>  <SCORE.INTRA>
-2.59311

>  <SCORE.INTRA.DIHEDRAL>
-4.24106

>  <SCORE.INTRA.DIHEDRAL.0>
6.10773

>  <SCORE.INTRA.POLAR>
0

>  <SCORE.INTRA.POLAR.0>
0

>  <SCORE.INTRA.REPUL>
0

>  <SCORE.INTRA.REPUL.0>
0

>  <SCORE.INTRA.SOLV>
-1.14731

>  <SCORE.INTRA.SOLV.lig_0>
-71.4024

>  <SCORE.INTRA.VDW>
0.101073

>  <SCORE.INTRA.VDW.0>
-1.86213

>  <SCORE.INTRA.norm>
-0.117869

>  <SCORE.RESTR>
0

>  <SCORE.RESTR.CAVITY>
0

>  <SCORE.RESTR.norm>
0

>  <SCORE.SYSTEM>
0

>  <SCORE.SYSTEM.CONST>
0

>  <SCORE.SYSTEM.DIHEDRAL>
0

>  <SCORE.SYSTEM.SOLV>
0

>  <SCORE.SYSTEM.norm>
0

>  <SCORE.heavy>
22

>  <SCORE.norm>
-0.605231

>  <RMSD>
3.651

$$$$
lig.pdb
 OpenBabel11021811523D
libRbt.so/2013.1/901 2013/11/27
 22 23  0  0  0  0  0  0  0  0999 V2000
   -4.9357   -3.0158   -0.1616 C   0  0  1  0  0  0  0  0  0  0  0  0
   -4.3898   -0.6841    0.6487 C   0  0  1  0  0  0  0  0  0  0  0  0
   -3.0501   -0.9193    1.4775 C   0  0  1  0  0  0  0  0  0  0  0  0
   -2.9332    0.2458    2.5611 C   0  0  2  0  0  0  0  0  0  0  0  0
   -4.8162   -3.8273   -1.5096 C   0  0  1  0  0  0  0  0  0  0  0  0
   -5.7747   -3.1905   -2.5353 C   0  0  2  0  0  0  0  0  0  0  0  0
   -7.2322   -3.2712   -2.0479 C   0  0  2  0  0  0  0  0  0  0  0  0
   -7.4200   -2.5089   -0.6856 C   0  0  1  0  0  0  0  0  0  0  0  0
   -8.8793   -2.6347   -0.1610 C   0  0  0  0  0  0  0  0  0  0  0  0
   -2.8221    1.6648    1.8020 C   0  0  1  0  0  0  0  0  0  0  0  0
   -4.1895    1.8663    0.9755 C   0  0  0  0  0  0  0  0  0  0  0  0
   -4.3515    0.6897   -0.0933 C   0  0  2  0  0  0  0  0  0  0  0  0
   -7.6250   -4.6736   -1.8680 F   0  0  0  0  0  0  0  0  0  0  0  0
   -3.3738   -3.7571   -1.9656 N   0  0  0  0  0  0  0  0  0  0  0  0
   -9.1244   -1.9901    1.0731 N   0  0  0  0  0  0  0  0  0  0  0  0
   -2.7266    2.7982    2.7843 N   0  0  0  0  0  0  0  0  0  0  0  0
   -5.6081    0.8796   -0.8465 N   0  0  0  0  0  0  0  0  0  0  0  0
   -4.5369   -1.6927   -0.3393 O   0  0  0  0  0  0  0  0  0  0  0  0
   -3.1620   -2.2284    2.1631 O   0  0  0  0  0  0  0  0  0  0  0  0
   -1.7581    0.0122    3.2792 O   0  0  0  0  0  0  0  0  0  0  0  0
   -5.6877   -3.7849   -3.5164 O   0  0  0  0  0  0  0  0  0  0  0  0
   -6.3898   -3.0966    0.2960 O   0  0  0  0  0  0  0  0  0  0  0  0
  1  5  1  0  0  0  0
  1 18  1  6  0  0  0
  2 18  1  6  0  0  0
  2  3  1  0  0  0  0
  2 12  1  0  0  0  0
  3 19  1  1  0  0  0
  3  4  1  0  0  0  0
  4 20  1  6  0  0  0
  4 10  1  0  0  0  0
  5  6  1  0  0  0  0
  5 14  1  6  0  0  0
  6 21  1  6  0  0  0
  7 13  1  1  0  0  0
  7  6  1  0  0  0  0
  8  9  1  1  0  0  0
  8  7  1  0  0  0  0
 10 16  1  1  0  0  0
 11 10  1  0  0  0  0
 12 17  1  1  0  0  0
 12 11  1  0  0  0  0
 15  9  1  0  0  0  0
 22  8  1  0  0  0  0
 22  1  1  0  0  0  0
M  END
>  <CHROM.1>
-174.03565972,76.08882491,179.13613712,-5.06232284,-1.57724674,0.04347718
-2.16513203,-0.05310545,0.65735563

>  <Name>
lig.pdb

>  <RI>
0

>  <Rbt.Current_Directory>
/home/itssahil/PROJECTS/Mol_Feturizer/New_Systems/rnas/5bws

>  <Rbt.Executable>
rbdock ($Id: //depot/dev/client3/rdock/2013.1/src/exe/rbdock.cxx#4 $)

>  <Rbt.Library>
libRbt.so (2013.1, Build901 2013/11/27)

>  <Rbt.Parameter_File>
/export/apps/rDock/src/rDock_2013.1_src/data/scripts/dock_solv.prm

>  <Rbt.Receptor>
prm/blind_docking_40.prm

>  <SCORE>
-12.6625

>  <SCORE.INTER>
-9.85062

>  <SCORE.INTER.CONST>
1

>  <SCORE.INTER.POLAR>
0

>  <SCORE.INTER.ROT>
3

>  <SCORE.INTER.SOLV>
24.0147

>  <SCORE.INTER.VDW>
-20.172

>  <SCORE.INTER.norm>
-0.447756

>  <SCORE.INTRA>
-2.81999

>  <SCORE.INTRA.DIHEDRAL>
-4.72524

>  <SCORE.INTRA.DIHEDRAL.0>
6.10773

>  <SCORE.INTRA.POLAR>
0

>  <SCORE.INTRA.POLAR.0>
0

>  <SCORE.INTRA.REPUL>
0

>  <SCORE.INTRA.REPUL.0>
0

>  <SCORE.INTRA.SOLV>
-1.17175

>  <SCORE.INTRA.SOLV.lig_0>
-71.4024

>  <SCORE.INTRA.VDW>
0.128511

>  <SCORE.INTRA.VDW.0>
-1.86213

>  <SCORE.INTRA.norm>
-0.128181

>  <SCORE.RESTR>
0.00806477

>  <SCORE.RESTR.CAVITY>
0.00806477

>  <SCORE.RESTR.norm>
0.000366581

>  <SCORE.SYSTEM>
0

>  <SCORE.SYSTEM.CONST>
0

>  <SCORE.SYSTEM.DIHEDRAL>
0

>  <SCORE.SYSTEM.SOLV>
0

>  <SCORE.SYSTEM.norm>
0

>  <SCORE.heavy>
22

>  <SCORE.norm>
-0.57557

>  <RMSD>
3.652

$$$$
lig.pdb
 OpenBabel11021811523D
libRbt.so/2013.1/901 2013/11/27
 22 23  0  0  0  0  0  0  0  0999 V2000
   -5.0002   -3.0776   -0.1932 C   0  0  1  0  0  0  0  0  0  0  0  0
   -4.5169   -0.7201    0.5812 C   0  0  1  0  0  0  0  0  0  0  0  0
   -3.1258   -0.8668    1.3430 C   0  0  1  0  0  0  0  0  0  0  0  0
   -3.0265    0.3120    2.4134 C   0  0  2  0  0  0  0  0  0  0  0  0
   -4.8668   -3.9027   -1.5317 C   0  0  1  0  0  0  0  0  0  0  0  0
   -5.8589   -3.3146   -2.5544 C   0  0  2  0  0  0  0  0  0  0  0  0
   -7.3071   -3.4406   -2.0490 C   0  0  2  0  0  0  0  0  0  0  0  0
   -7.5068   -2.6669   -0.6948 C   0  0  1  0  0  0  0  0  0  0  0  0
   -8.9547   -2.8375   -0.1516 C   0  0  0  0  0  0  0  0  0  0  0  0
   -3.0402    1.7290    1.6426 C   0  0  1  0  0  0  0  0  0  0  0  0
   -4.4568    1.8404    0.8846 C   0  0  0  0  0  0  0  0  0  0  0  0
   -4.5995    0.6475   -0.1687 C   0  0  2  0  0  0  0  0  0  0  0  0
   -7.6473   -4.8535   -1.8460 F   0  0  0  0  0  0  0  0  0  0  0  0
   -3.4330   -3.7873   -2.0053 N   0  0  0  0  0  0  0  0  0  0  0  0
   -9.2409   -2.0983    1.0189 N   0  0  0  0  0  0  0  0  0  0  0  0
   -2.9654    2.8740    2.6131 N   0  0  0  0  0  0  0  0  0  0  0  0
   -5.9012    0.7546   -0.8589 N   0  0  0  0  0  0  0  0  0  0  0  0
   -4.6511   -1.7437   -0.3931 O   0  0  0  0  0  0  0  0  0  0  0  0
   -3.1233   -2.1746    2.0400 O   0  0  0  0  0  0  0  0  0  0  0  0
   -1.8051    0.1561    3.0729 O   0  0  0  0  0  0  0  0  0  0  0  0
   -5.7616   -3.9189   -3.5285 O   0  0  0  0  0  0  0  0  0  0  0  0
   -6.4452   -3.2040    0.2823 O   0  0  0  0  0  0  0  0  0  0  0  0
  1  5  1  0  0  0  0
  1 18  1  6  0  0  0
  2 18  1  6  0  0  0
  2  3  1  0  0  0  0
  2 12  1  0  0  0  0
  3 19  1  1  0  0  0
  3  4  1  0  0  0  0
  4 20  1  6  0  0  0
  4 10  1  0  0  0  0
  5  6  1  0  0  0  0
  5 14  1  6  0  0  0
  6 21  1  6  0  0  0
  7 13  1  1  0  0  0
  7  6  1  0  0  0  0
  8  9  1  1  0  0  0
  8  7  1  0  0  0  0
 10 16  1  1  0  0  0
 11 10  1  0  0  0  0
 12 17  1  1  0  0  0
 12 11  1  0  0  0  0
 15  9  1  0  0  0  0
 22  8  1  0  0  0  0
 22  1  1  0  0  0  0
M  END
>  <CHROM.1>
-173.38294183,78.30581792,-175.98644596,-5.17019585,-1.63173932,-0.01988983
-2.15042111,-0.04356836,0.62503908

>  <Name>
lig.pdb

>  <RI>
0

>  <Rbt.Current_Directory>
/home/itssahil/PROJECTS/Mol_Feturizer/New_Systems/rnas/5bws

>  <Rbt.Executable>
rbdock ($Id: //depot/dev/client3/rdock/2013.1/src/exe/rbdock.cxx#4 $)

>  <Rbt.Library>
libRbt.so (2013.1, Build901 2013/11/27)

>  <Rbt.Parameter_File>
/export/apps/rDock/src/rDock_2013.1_src/data/scripts/dock_solv.prm

>  <Rbt.Receptor>
prm/pocket_docking_4.prm

>  <SCORE>
-13.2554

>  <SCORE.INTER>
-10.6317

>  <SCORE.INTER.CONST>
1

>  <SCORE.INTER.POLAR>
0

>  <SCORE.INTER.ROT>
3

>  <SCORE.INTER.SOLV>
23.5098

>  <SCORE.INTER.VDW>
-20.5244

>  <SCORE.INTER.norm>
-0.483258

>  <SCORE.INTRA>
-2.62372

>  <SCORE.INTRA.DIHEDRAL>
-4.30341

>  <SCORE.INTRA.DIHEDRAL.0>
6.10773

>  <SCORE.INTRA.POLAR>
0

>  <SCORE.INTRA.POLAR.0>
0

>  <SCORE.INTRA.REPUL>
0

>  <SCORE.INTRA.REPUL.0>
0

>  <SCORE.INTRA.SOLV>
-1.13902

>  <SCORE.INTRA.SOLV.lig_0>
-71.4024

>  <SCORE.INTRA.VDW>
0.0974976

>  <SCORE.INTRA.VDW.0>
-1.86213

>  <SCORE.INTRA.norm>
-0.11926

>  <SCORE.RESTR>
0

>  <SCORE.RESTR.CAVITY>
0

>  <SCORE.RESTR.norm>
0

>  <SCORE.SYSTEM>
0

>  <SCORE.SYSTEM.CONST>
0

>  <SCORE.SYSTEM.DIHEDRAL>
0

>  <SCORE.SYSTEM.SOLV>
0

>  <SCORE.SYSTEM.norm>
0

>  <SCORE.heavy>
22

>  <SCORE.norm>
-0.602518

>  <RMSD>
3.652

$$$$
lig.pdb
 OpenBabel11021811523D
libRbt.so/2013.1/901 2013/11/27
 22 23  0  0  0  0  0  0  0  0999 V2000
   -5.0051   -3.0715   -0.1964 C   0  0  1  0  0  0  0  0  0  0  0  0
   -4.5096   -0.7262    0.6068 C   0  0  1  0  0  0  0  0  0  0  0  0
   -3.1123   -0.8896    1.3537 C   0  0  1  0  0  0  0  0  0  0  0  0
   -2.9983    0.2732    2.4401 C   0  0  2  0  0  0  0  0  0  0  0  0
   -4.8720   -3.8807   -1.5446 C   0  0  1  0  0  0  0  0  0  0  0  0
   -5.8650   -3.2811   -2.5598 C   0  0  2  0  0  0  0  0  0  0  0  0
   -7.3128   -3.4140   -2.0552 C   0  0  2  0  0  0  0  0  0  0  0  0
   -7.5122   -2.6564   -0.6919 C   0  0  1  0  0  0  0  0  0  0  0  0
   -8.9598   -2.8343   -0.1499 C   0  0  0  0  0  0  0  0  0  0  0  0
   -3.0129    1.7012    1.6898 C   0  0  1  0  0  0  0  0  0  0  0  0
   -4.4359    1.8293    0.9465 C   0  0  0  0  0  0  0  0  0  0  0  0
   -4.5932    0.6523   -0.1225 C   0  0  2  0  0  0  0  0  0  0  0  0
   -7.6521   -4.8294   -1.8686 F   0  0  0  0  0  0  0  0  0  0  0  0
   -3.4385   -3.7588   -2.0176 N   0  0  0  0  0  0  0  0  0  0  0  0
   -9.2401   -2.1235    1.0395 N   0  0  0  0  0  0  0  0  0  0  0  0
   -2.9245    2.8319    2.6760 N   0  0  0  0  0  0  0  0  0  0  0  0
   -5.9007    0.7747   -0.7991 N   0  0  0  0  0  0  0  0  0  0  0  0
   -4.6569   -1.7352   -0.3808 O   0  0  0  0  0  0  0  0  0  0  0  0
   -3.1089   -2.2074    2.0317 O   0  0  0  0  0  0  0  0  0  0  0  0
   -1.7716    0.1028    3.0860 O   0  0  0  0  0  0  0  0  0  0  0  0
   -5.7678   -3.8739   -3.5410 O   0  0  0  0  0  0  0  0  0  0  0  0
   -6.4498   -3.2044    0.2783 O   0  0  0  0  0  0  0  0  0  0  0  0
  1  5  1  0  0  0  0
  1 18  1  6  0  0  0
  2 18  1  6  0  0  0
  2  3  1  0  0  0  0
  2 12  1  0  0  0  0
  3 19  1  1  0  0  0
  3  4  1  0  0  0  0
  4 20  1  6  0  0  0
  4 10  1  0  0  0  0
  5  6  1  0  0  0  0
  5 14  1  6  0  0  0
  6 21  1  6  0  0  0
  7 13  1  1  0  0  0
  7  6  1  0  0  0  0
  8  9  1  1  0  0  0
  8  7  1  0  0  0  0
 10 16  1  1  0  0  0
 11 10  1  0  0  0  0
 12 17  1  1  0  0  0
 12 11  1  0  0  0  0
 15  9  1  0  0  0  0
 22  8  1  0  0  0  0
 22  1  1  0  0  0  0
M  END
>  <CHROM.1>
-172.68183563,78.05246023,-176.81515502,-5.16423887,-1.63279772,-0.00704426
-2.15635187,-0.04178453,0.63683874

>  <Name>
lig.pdb

>  <RI>
0

>  <Rbt.Current_Directory>
/home/itssahil/PROJECTS/Mol_Feturizer/New_Systems/rnas/5bws

>  <Rbt.Executable>
rbdock ($Id: //depot/dev/client3/rdock/2013.1/src/exe/rbdock.cxx#4 $)

>  <Rbt.Library>
libRbt.so (2013.1, Build901 2013/11/27)

>  <Rbt.Parameter_File>
/export/apps/rDock/src/rDock_2013.1_src/data/scripts/dock_solv.prm

>  <Rbt.Receptor>
prm/pocket_docking_6.prm

>  <SCORE>
-13.2981

>  <SCORE.INTER>
-10.6702

>  <SCORE.INTER.CONST>
1

>  <SCORE.INTER.POLAR>
0

>  <SCORE.INTER.ROT>
3

>  <SCORE.INTER.SOLV>
23.5579

>  <SCORE.INTER.VDW>
-20.5661

>  <SCORE.INTER.norm>
-0.485008

>  <SCORE.INTRA>
-2.62788

>  <SCORE.INTRA.DIHEDRAL>
-4.31653

>  <SCORE.INTRA.DIHEDRAL.0>
6.10773

>  <SCORE.INTRA.POLAR>
0

>  <SCORE.INTRA.POLAR.0>
0

>  <SCORE.INTRA.REPUL>
0

>  <SCORE.INTRA.REPUL.0>
0

>  <SCORE.INTRA.SOLV>
-1.14403

>  <SCORE.INTRA.SOLV.lig_0>
-71.4024

>  <SCORE.INTRA.VDW>
0.102391

>  <SCORE.INTRA.VDW.0>
-1.86213

>  <SCORE.INTRA.norm>
-0.119449

>  <SCORE.RESTR>
0

>  <SCORE.RESTR.CAVITY>
0

>  <SCORE.RESTR.norm>
0

>  <SCORE.SYSTEM>
0

>  <SCORE.SYSTEM.CONST>
0

>  <SCORE.SYSTEM.DIHEDRAL>
0

>  <SCORE.SYSTEM.SOLV>
0

>  <SCORE.SYSTEM.norm>
0

>  <SCORE.heavy>
22

>  <SCORE.norm>
-0.604458

>  <RMSD>
3.653

$$$$
lig.pdb
 OpenBabel11021811523D
libRbt.so/2013.1/901 2013/11/27
 22 23  0  0  0  0  0  0  0  0999 V2000
   -5.1354   -2.1610    0.3504 C   0  0  1  0  0  0  0  0  0  0  0  0
   -4.1399   -0.0299    1.2771 C   0  0  1  0  0  0  0  0  0  0  0  0
   -2.8230   -0.6237    1.9484 C   0  0  1  0  0  0  0  0  0  0  0  0
   -2.3634    0.3815    3.0989 C   0  0  2  0  0  0  0  0  0  0  0  0
   -5.2080   -2.8723   -1.0564 C   0  0  1  0  0  0  0  0  0  0  0  0
   -6.1448   -2.0461   -1.9598 C   0  0  2  0  0  0  0  0  0  0  0  0
   -7.5655   -1.9893   -1.3708 C   0  0  2  0  0  0  0  0  0  0  0  0
   -7.5656   -1.3196    0.0518 C   0  0  1  0  0  0  0  0  0  0  0  0
   -8.9913   -1.3101    0.6747 C   0  0  0  0  0  0  0  0  0  0  0  0
   -2.0024    1.8092    2.4406 C   0  0  1  0  0  0  0  0  0  0  0  0
   -3.3534    2.3759    1.7720 C   0  0  0  0  0  0  0  0  0  0  0  0
   -3.8582    1.3678    0.6398 C   0  0  2  0  0  0  0  0  0  0  0  0
   -8.1183   -3.3440   -1.2605 F   0  0  0  0  0  0  0  0  0  0  0  0
   -3.8015   -2.9401   -1.6136 N   0  0  0  0  0  0  0  0  0  0  0  0
   -9.9292   -0.4963   -0.0010 N   0  0  0  0  0  0  0  0  0  0  0  0
   -1.5788    2.7978    3.4904 N   0  0  0  0  0  0  0  0  0  0  0  0
   -5.0982    1.8925    0.0320 N   0  0  0  0  0  0  0  0  0  0  0  0
   -4.5864   -0.8856    0.2362 O   0  0  0  0  0  0  0  0  0  0  0  0
   -3.1664   -1.9374    2.5420 O   0  0  0  0  0  0  0  0  0  0  0  0
   -1.2152   -0.1650    3.6768 O   0  0  0  0  0  0  0  0  0  0  0  0
   -6.1981   -2.5675   -2.9838 O   0  0  0  0  0  0  0  0  0  0  0  0
   -6.5546   -2.1023    0.9094 O   0  0  0  0  0  0  0  0  0  0  0  0
  1  5  1  0  0  0  0
  1 18  1  6  0  0  0
  2 18  1  6  0  0  0
  2  3  1  0  0  0  0
  2 12  1  0  0  0  0
  3 19  1  1  0  0  0
  3  4  1  0  0  0  0
  4 20  1  6  0  0  0
  4 10  1  0  0  0  0
  5  6  1  0  0  0  0
  5 14  1  6  0  0  0
  6 21  1  6  0  0  0
  7 13  1  1  0  0  0
  7  6  1  0  0  0  0
  8  9  1  1  0  0  0
  8  7  1  0  0  0  0
 10 16  1  1  0  0  0
 11 10  1  0  0  0  0
 12 17  1  1  0  0  0
 12 11  1  0  0  0  0
 15  9  1  0  0  0  0
 22  8  1  0  0  0  0
 22  1  1  0  0  0  0
M  END
>  <CHROM.1>
-167.94902672,69.25895914,-66.23050243,-5.01210747,-0.80111534,0.56738776
-2.42030949,-0.25915524,0.56436387

>  <Name>
lig.pdb

>  <RI>
0

>  <Rbt.Current_Directory>
/home/itssahil/PROJECTS/Mol_Feturizer/New_Systems/rnas/5bws

>  <Rbt.Executable>
rbdock ($Id: //depot/dev/client3/rdock/2013.1/src/exe/rbdock.cxx#4 $)

>  <Rbt.Library>
libRbt.so (2013.1, Build901 2013/11/27)

>  <Rbt.Parameter_File>
/export/apps/rDock/src/rDock_2013.1_src/data/scripts/dock_solv.prm

>  <Rbt.Receptor>
prm/blind_docking_20.prm

>  <SCORE>
-8.30154

>  <SCORE.INTER>
-5.67547

>  <SCORE.INTER.CONST>
1

>  <SCORE.INTER.POLAR>
0

>  <SCORE.INTER.ROT>
3

>  <SCORE.INTER.SOLV>
24.8372

>  <SCORE.INTER.VDW>
-17.6627

>  <SCORE.INTER.norm>
-0.257976

>  <SCORE.INTRA>
-2.62607

>  <SCORE.INTRA.DIHEDRAL>
-4.85758

>  <SCORE.INTRA.DIHEDRAL.0>
6.10773

>  <SCORE.INTRA.POLAR>
0

>  <SCORE.INTRA.POLAR.0>
0

>  <SCORE.INTRA.REPUL>
0

>  <SCORE.INTRA.REPUL.0>
0

>  <SCORE.INTRA.SOLV>
-0.991302

>  <SCORE.INTRA.SOLV.lig_0>
-71.4024

>  <SCORE.INTRA.VDW>
0.298373

>  <SCORE.INTRA.VDW.0>
-1.86213

>  <SCORE.INTRA.norm>
-0.119367

>  <SCORE.RESTR>
0

>  <SCORE.RESTR.CAVITY>
0

>  <SCORE.RESTR.norm>
0

>  <SCORE.SYSTEM>
0

>  <SCORE.SYSTEM.CONST>
0

>  <SCORE.SYSTEM.DIHEDRAL>
0

>  <SCORE.SYSTEM.SOLV>
0

>  <SCORE.SYSTEM.norm>
0

>  <SCORE.heavy>
22

>  <SCORE.norm>
-0.377343

>  <RMSD>
3.655

$$$$
lig.pdb
 OpenBabel11021811523D
libRbt.so/2013.1/901 2013/11/27
 22 23  0  0  0  0  0  0  0  0999 V2000
   -4.9770   -3.0809   -0.1779 C   0  0  1  0  0  0  0  0  0  0  0  0
   -4.5124   -0.7264    0.6171 C   0  0  1  0  0  0  0  0  0  0  0  0
   -3.1213   -0.8503    1.3831 C   0  0  1  0  0  0  0  0  0  0  0  0
   -3.0493    0.3234    2.4613 C   0  0  2  0  0  0  0  0  0  0  0  0
   -4.8078   -3.9016   -1.5150 C   0  0  1  0  0  0  0  0  0  0  0  0
   -5.7723   -3.3101   -2.5620 C   0  0  2  0  0  0  0  0  0  0  0  0
   -7.2334   -3.4378   -2.0959 C   0  0  2  0  0  0  0  0  0  0  0  0
   -7.4692   -2.6685   -0.7450 C   0  0  1  0  0  0  0  0  0  0  0  0
   -8.9312   -2.8408   -0.2413 C   0  0  0  0  0  0  0  0  0  0  0  0
   -3.0883    1.7446    1.6992 C   0  0  1  0  0  0  0  0  0  0  0  0
   -4.5041    1.8327    0.9368 C   0  0  0  0  0  0  0  0  0  0  0  0
   -4.6194    0.6440   -0.1245 C   0  0  2  0  0  0  0  0  0  0  0  0
   -7.5789   -4.8513   -1.9066 F   0  0  0  0  0  0  0  0  0  0  0  0
   -3.3618   -3.7847   -1.9497 N   0  0  0  0  0  0  0  0  0  0  0  0
   -9.2358   -2.1407    0.9485 N   0  0  0  0  0  0  0  0  0  0  0  0
   -3.0397    2.8848    2.6772 N   0  0  0  0  0  0  0  0  0  0  0  0
   -5.9205    0.7296   -0.8188 N   0  0  0  0  0  0  0  0  0  0  0  0
   -4.6227   -1.7463   -0.3641 O   0  0  0  0  0  0  0  0  0  0  0  0
   -3.0953   -2.1623    2.0718 O   0  0  0  0  0  0  0  0  0  0  0  0
   -1.8274    0.1875    3.1242 O   0  0  0  0  0  0  0  0  0  0  0  0
   -5.6489   -3.9113   -3.5350 O   0  0  0  0  0  0  0  0  0  0  0  0
   -6.4342   -3.2088    0.2584 O   0  0  0  0  0  0  0  0  0  0  0  0
  1  5  1  0  0  0  0
  1 18  1  6  0  0  0
  2 18  1  6  0  0  0
  2  3  1  0  0  0  0
  2 12  1  0  0  0  0
  3 19  1  1  0  0  0
  3  4  1  0  0  0  0
  4 20  1  6  0  0  0
  4 10  1  0  0  0  0
  5  6  1  0  0  0  0
  5 14  1  6  0  0  0
  6 21  1  6  0  0  0
  7 13  1  1  0  0  0
  7  6  1  0  0  0  0
  8  9  1  1  0  0  0
  8  7  1  0  0  0  0
 10 16  1  1  0  0  0
 11 10  1  0  0  0  0
 12 17  1  1  0  0  0
 12 11  1  0  0  0  0
 15  9  1  0  0  0  0
 22  8  1  0  0  0  0
 22  1  1  0  0  0  0
M  END
>  <CHROM.1>
-173.25796273,79.97939035,-178.00418493,-5.15157370,-1.63070833,-0.01074795
-2.13571611,-0.06403016,0.62427214

>  <Name>
lig.pdb

>  <RI>
0

>  <Rbt.Current_Directory>
/home/itssahil/PROJECTS/Mol_Feturizer/New_Systems/rnas/5bws

>  <Rbt.Executable>
rbdock ($Id: //depot/dev/client3/rdock/2013.1/src/exe/rbdock.cxx#4 $)

>  <Rbt.Library>
libRbt.so (2013.1, Build901 2013/11/27)

>  <Rbt.Parameter_File>
/export/apps/rDock/src/rDock_2013.1_src/data/scripts/dock_solv.prm

>  <Rbt.Receptor>
prm/pocket_docking_3.prm

>  <SCORE>
-13.3089

>  <SCORE.INTER>
-10.8095

>  <SCORE.INTER.CONST>
1

>  <SCORE.INTER.POLAR>
0

>  <SCORE.INTER.ROT>
3

>  <SCORE.INTER.SOLV>
23.5796

>  <SCORE.INTER.VDW>
-20.6662

>  <SCORE.INTER.norm>
-0.491342

>  <SCORE.INTRA>
-2.49935

>  <SCORE.INTRA.DIHEDRAL>
-4.07322

>  <SCORE.INTRA.DIHEDRAL.0>
6.10773

>  <SCORE.INTRA.POLAR>
0

>  <SCORE.INTRA.POLAR.0>
0

>  <SCORE.INTRA.REPUL>
0

>  <SCORE.INTRA.REPUL.0>
0

>  <SCORE.INTRA.SOLV>
-1.03313

>  <SCORE.INTRA.SOLV.lig_0>
-71.4024

>  <SCORE.INTRA.VDW>
0.0538223

>  <SCORE.INTRA.VDW.0>
-1.86213

>  <SCORE.INTRA.norm>
-0.113607

>  <SCORE.RESTR>
0

>  <SCORE.RESTR.CAVITY>
0

>  <SCORE.RESTR.norm>
0

>  <SCORE.SYSTEM>
0

>  <SCORE.SYSTEM.CONST>
0

>  <SCORE.SYSTEM.DIHEDRAL>
0

>  <SCORE.SYSTEM.SOLV>
0

>  <SCORE.SYSTEM.norm>
0

>  <SCORE.heavy>
22

>  <SCORE.norm>
-0.604949

>  <RMSD>
3.655

$$$$
lig.pdb
 OpenBabel11021811523D
libRbt.so/2013.1/901 2013/11/27
 22 23  0  0  0  0  0  0  0  0999 V2000
   -5.0003   -3.0813   -0.1798 C   0  0  1  0  0  0  0  0  0  0  0  0
   -4.4982   -0.7348    0.6160 C   0  0  1  0  0  0  0  0  0  0  0  0
   -3.0955   -0.8736    1.3577 C   0  0  1  0  0  0  0  0  0  0  0  0
   -2.9948    0.2953    2.4387 C   0  0  2  0  0  0  0  0  0  0  0  0
   -4.8558   -3.9002   -1.5209 C   0  0  1  0  0  0  0  0  0  0  0  0
   -5.8263   -3.2957   -2.5548 C   0  0  2  0  0  0  0  0  0  0  0  0
   -7.2831   -3.4092   -2.0716 C   0  0  2  0  0  0  0  0  0  0  0  0
   -7.4946   -2.6410   -0.7161 C   0  0  1  0  0  0  0  0  0  0  0  0
   -8.9523   -2.7993   -0.1953 C   0  0  0  0  0  0  0  0  0  0  0  0
   -3.0343    1.7197    1.6826 C   0  0  1  0  0  0  0  0  0  0  0  0
   -4.4621    1.8230    0.9447 C   0  0  0  0  0  0  0  0  0  0  0  0
   -4.6059    0.6392   -0.1187 C   0  0  2  0  0  0  0  0  0  0  0  0
   -7.6412   -4.8195   -1.8818 F   0  0  0  0  0  0  0  0  0  0  0  0
   -3.4139   -3.7973   -1.9725 N   0  0  0  0  0  0  0  0  0  0  0  0
   -9.2392   -2.0877    0.9920 N   0  0  0  0  0  0  0  0  0  0  0  0
   -2.9591    2.8558    2.6636 N   0  0  0  0  0  0  0  0  0  0  0  0
   -5.9179    0.7388   -0.7904 N   0  0  0  0  0  0  0  0  0  0  0  0
   -4.6342   -1.7500   -0.3667 O   0  0  0  0  0  0  0  0  0  0  0  0
   -3.0692   -2.1883    2.0412 O   0  0  0  0  0  0  0  0  0  0  0  0
   -1.7630    0.1464    3.0802 O   0  0  0  0  0  0  0  0  0  0  0  0
   -5.7209   -3.8955   -3.5308 O   0  0  0  0  0  0  0  0  0  0  0  0
   -6.4535   -3.1949    0.2736 O   0  0  0  0  0  0  0  0  0  0  0  0
  1  5  1  0  0  0  0
  1 18  1  6  0  0  0
  2 18  1  6  0  0  0
  2  3  1  0  0  0  0
  2 12  1  0  0  0  0
  3 19  1  1  0  0  0
  3  4  1  0  0  0  0
  4 20  1  6  0  0  0
  4 10  1  0  0  0  0
  5  6  1  0  0  0  0
  5 14  1  6  0  0  0
  6 21  1  6  0  0  0
  7 13  1  1  0  0  0
  7  6  1  0  0  0  0
  8  9  1  1  0  0  0
  8  7  1  0  0  0  0
 10 16  1  1  0  0  0
 11 10  1  0  0  0  0
 12 17  1  1  0  0  0
 12 11  1  0  0  0  0
 15  9  1  0  0  0  0
 22  8  1  0  0  0  0
 22  1  1  0  0  0  0
M  END
>  <CHROM.1>
-173.09052053,80.16584424,-177.35860373,-5.15541283,-1.62929103,-0.00849735
-2.15289227,-0.06229593,0.62414653

>  <Name>
lig.pdb

>  <RI>
0

>  <Rbt.Current_Directory>
/home/itssahil/PROJECTS/Mol_Feturizer/New_Systems/rnas/5bws

>  <Rbt.Executable>
rbdock ($Id: //depot/dev/client3/rdock/2013.1/src/exe/rbdock.cxx#4 $)

>  <Rbt.Library>
libRbt.so (2013.1, Build901 2013/11/27)

>  <Rbt.Parameter_File>
/export/apps/rDock/src/rDock_2013.1_src/data/scripts/dock_solv.prm

>  <Rbt.Receptor>
prm/pocket_docking_3.prm

>  <SCORE>
-13.3005

>  <SCORE.INTER>
-10.8261

>  <SCORE.INTER.CONST>
1

>  <SCORE.INTER.POLAR>
0

>  <SCORE.INTER.ROT>
3

>  <SCORE.INTER.SOLV>
23.3307

>  <SCORE.INTER.VDW>
-20.5943

>  <SCORE.INTER.norm>
-0.492093

>  <SCORE.INTRA>
-2.47445

>  <SCORE.INTRA.DIHEDRAL>
-4.02095

>  <SCORE.INTRA.DIHEDRAL.0>
6.10773

>  <SCORE.INTRA.POLAR>
0

>  <SCORE.INTRA.POLAR.0>
0

>  <SCORE.INTRA.REPUL>
0

>  <SCORE.INTRA.REPUL.0>
0

>  <SCORE.INTRA.SOLV>
-1.0314

>  <SCORE.INTRA.SOLV.lig_0>
-71.4024

>  <SCORE.INTRA.VDW>
0.0517274

>  <SCORE.INTRA.VDW.0>
-1.86213

>  <SCORE.INTRA.norm>
-0.112475

>  <SCORE.RESTR>
0

>  <SCORE.RESTR.CAVITY>
0

>  <SCORE.RESTR.norm>
0

>  <SCORE.SYSTEM>
0

>  <SCORE.SYSTEM.CONST>
0

>  <SCORE.SYSTEM.DIHEDRAL>
0

>  <SCORE.SYSTEM.SOLV>
0

>  <SCORE.SYSTEM.norm>
0

>  <SCORE.heavy>
22

>  <SCORE.norm>
-0.604568

>  <RMSD>
3.656

$$$$
lig.pdb
 OpenBabel11021811523D
libRbt.so/2013.1/901 2013/11/27
 22 23  0  0  0  0  0  0  0  0999 V2000
   -4.9895   -3.1031   -0.2199 C   0  0  1  0  0  0  0  0  0  0  0  0
   -4.5169   -0.7476    0.5671 C   0  0  1  0  0  0  0  0  0  0  0  0
   -3.1121   -0.8897    1.3042 C   0  0  1  0  0  0  0  0  0  0  0  0
   -3.0043    0.2802    2.3835 C   0  0  2  0  0  0  0  0  0  0  0  0
   -4.8439   -3.9205   -1.5618 C   0  0  1  0  0  0  0  0  0  0  0  0
   -5.8439   -3.3422   -2.5825 C   0  0  2  0  0  0  0  0  0  0  0  0
   -7.2903   -3.4909   -2.0782 C   0  0  2  0  0  0  0  0  0  0  0  0
   -7.5014   -2.7259   -0.7208 C   0  0  1  0  0  0  0  0  0  0  0  0
   -8.9470   -2.9193   -0.1790 C   0  0  0  0  0  0  0  0  0  0  0  0
   -3.0421    1.7038    1.6258 C   0  0  1  0  0  0  0  0  0  0  0  0
   -4.4721    1.8104    0.8927 C   0  0  0  0  0  0  0  0  0  0  0  0
   -4.6231    0.6259   -0.1689 C   0  0  2  0  0  0  0  0  0  0  0  0
   -7.6106   -4.9093   -1.8813 F   0  0  0  0  0  0  0  0  0  0  0  0
   -3.4117   -3.7827   -2.0343 N   0  0  0  0  0  0  0  0  0  0  0  0
   -9.2664   -2.1361    0.9537 N   0  0  0  0  0  0  0  0  0  0  0  0
   -2.9602    2.8408    2.6053 N   0  0  0  0  0  0  0  0  0  0  0  0
   -5.9370    0.7286   -0.8362 N   0  0  0  0  0  0  0  0  0  0  0  0
   -4.6593   -1.7636   -0.4140 O   0  0  0  0  0  0  0  0  0  0  0  0
   -3.0874   -2.2037    1.9892 O   0  0  0  0  0  0  0  0  0  0  0  0
   -1.7707    0.1283    3.0210 O   0  0  0  0  0  0  0  0  0  0  0  0
   -5.7377   -3.9409   -3.5590 O   0  0  0  0  0  0  0  0  0  0  0  0
   -6.4328   -3.2520    0.2545 O   0  0  0  0  0  0  0  0  0  0  0  0
  1  5  1  0  0  0  0
  1 18  1  6  0  0  0
  2 18  1  6  0  0  0
  2  3  1  0  0  0  0
  2 12  1  0  0  0  0
  3 19  1  1  0  0  0
  3  4  1  0  0  0  0
  4 20  1  6  0  0  0
  4 10  1  0  0  0  0
  5  6  1  0  0  0  0
  5 14  1  6  0  0  0
  6 21  1  6  0  0  0
  7 13  1  1  0  0  0
  7  6  1  0  0  0  0
  8  9  1  1  0  0  0
  8  7  1  0  0  0  0
 10 16  1  1  0  0  0
 11 10  1  0  0  0  0
 12 17  1  1  0  0  0
 12 11  1  0  0  0  0
 15  9  1  0  0  0  0
 22  8  1  0  0  0  0
 22  1  1  0  0  0  0
M  END
>  <CHROM.1>
-172.16456610,78.04640447,-172.83294587,-5.16146728,-1.66459658,-0.04570488
-2.15001896,-0.04423842,0.62373146

>  <Name>
lig.pdb

>  <RI>
0

>  <Rbt.Current_Directory>
/home/itssahil/PROJECTS/Mol_Feturizer/New_Systems/rnas/5bws

>  <Rbt.Executable>
rbdock ($Id: //depot/dev/client3/rdock/2013.1/src/exe/rbdock.cxx#4 $)

>  <Rbt.Library>
libRbt.so (2013.1, Build901 2013/11/27)

>  <Rbt.Parameter_File>
/export/apps/rDock/src/rDock_2013.1_src/data/scripts/dock_solv.prm

>  <Rbt.Receptor>
prm/pocket_docking_4.prm

>  <SCORE>
-13.2557

>  <SCORE.INTER>
-10.6999

>  <SCORE.INTER.CONST>
1

>  <SCORE.INTER.POLAR>
0

>  <SCORE.INTER.ROT>
3

>  <SCORE.INTER.SOLV>
23.7169

>  <SCORE.INTER.VDW>
-20.6389

>  <SCORE.INTER.norm>
-0.486357

>  <SCORE.INTRA>
-2.5558

>  <SCORE.INTRA.DIHEDRAL>
-4.13304

>  <SCORE.INTRA.DIHEDRAL.0>
6.10773

>  <SCORE.INTRA.POLAR>
0

>  <SCORE.INTRA.POLAR.0>
0

>  <SCORE.INTRA.REPUL>
0

>  <SCORE.INTRA.REPUL.0>
0

>  <SCORE.INTRA.SOLV>
-1.1904

>  <SCORE.INTRA.SOLV.lig_0>
-71.4024

>  <SCORE.INTRA.VDW>
0.10592

>  <SCORE.INTRA.VDW.0>
-1.86213

>  <SCORE.INTRA.norm>
-0.116173

>  <SCORE.RESTR>
0

>  <SCORE.RESTR.CAVITY>
0

>  <SCORE.RESTR.norm>
0

>  <SCORE.SYSTEM>
0

>  <SCORE.SYSTEM.CONST>
0

>  <SCORE.SYSTEM.DIHEDRAL>
0

>  <SCORE.SYSTEM.SOLV>
0

>  <SCORE.SYSTEM.norm>
0

>  <SCORE.heavy>
22

>  <SCORE.norm>
-0.60253

>  <RMSD>
3.663

$$$$
lig.pdb
 OpenBabel11021811523D
libRbt.so/2013.1/901 2013/11/27
 22 23  0  0  0  0  0  0  0  0999 V2000
   -5.0369   -3.1588   -0.2175 C   0  0  1  0  0  0  0  0  0  0  0  0
   -4.5326   -0.8028    0.5484 C   0  0  1  0  0  0  0  0  0  0  0  0
   -3.1279   -0.9223    1.2897 C   0  0  1  0  0  0  0  0  0  0  0  0
   -3.0336    0.2617    2.3549 C   0  0  2  0  0  0  0  0  0  0  0  0
   -4.9253   -3.9877   -1.5555 C   0  0  1  0  0  0  0  0  0  0  0  0
   -5.9105   -3.3818   -2.5746 C   0  0  2  0  0  0  0  0  0  0  0  0
   -7.3585   -3.4795   -2.0626 C   0  0  2  0  0  0  0  0  0  0  0  0
   -7.5373   -2.7006   -0.7085 C   0  0  1  0  0  0  0  0  0  0  0  0
   -8.9858   -2.8429   -0.1587 C   0  0  0  0  0  0  0  0  0  0  0  0
   -3.0838    1.6755    1.5798 C   0  0  1  0  0  0  0  0  0  0  0  0
   -4.5133    1.7593    0.8428 C   0  0  0  0  0  0  0  0  0  0  0  0
   -4.6507    0.5605   -0.2045 C   0  0  2  0  0  0  0  0  0  0  0  0
   -7.7249   -4.8854   -1.8564 F   0  0  0  0  0  0  0  0  0  0  0  0
   -3.4916   -3.9003   -2.0356 N   0  0  0  0  0  0  0  0  0  0  0  0
   -9.2487   -2.1072    1.0196 N   0  0  0  0  0  0  0  0  0  0  0  0
   -3.0149    2.8251    2.5455 N   0  0  0  0  0  0  0  0  0  0  0  0
   -5.9642    0.6422   -0.8754 N   0  0  0  0  0  0  0  0  0  0  0  0
   -4.6632   -1.8320   -0.4205 O   0  0  0  0  0  0  0  0  0  0  0  0
   -3.0918   -2.2275    1.9907 O   0  0  0  0  0  0  0  0  0  0  0  0
   -1.7999    0.1296    2.9964 O   0  0  0  0  0  0  0  0  0  0  0  0
   -5.8291   -3.9889   -3.5483 O   0  0  0  0  0  0  0  0  0  0  0  0
   -6.4819   -3.2569    0.2646 O   0  0  0  0  0  0  0  0  0  0  0  0
  1  5  1  0  0  0  0
  1 18  1  6  0  0  0
  2 18  1  6  0  0  0
  2  3  1  0  0  0  0
  2 12  1  0  0  0  0
  3 19  1  1  0  0  0
  3  4  1  0  0  0  0
  4 20  1  6  0  0  0
  4 10  1  0  0  0  0
  5  6  1  0  0  0  0
  5 14  1  6  0  0  0
  6 21  1  6  0  0  0
  7 13  1  1  0  0  0
  7  6  1  0  0  0  0
  8  9  1  1  0  0  0
  8  7  1  0  0  0  0
 10 16  1  1  0  0  0
 11 10  1  0  0  0  0
 12 17  1  1  0  0  0
 12 11  1  0  0  0  0
 15  9  1  0  0  0  0
 22  8  1  0  0  0  0
 22  1  1  0  0  0  0
M  END
>  <CHROM.1>
-174.85422230,81.08160357,-176.57703411,-5.20536850,-1.69143000,-0.05161770
-2.15573897,-0.05207895,0.61636013

>  <Name>
lig.pdb

>  <RI>
0

>  <Rbt.Current_Directory>
/home/itssahil/PROJECTS/Mol_Feturizer/New_Systems/rnas/5bws

>  <Rbt.Executable>
rbdock ($Id: //depot/dev/client3/rdock/2013.1/src/exe/rbdock.cxx#4 $)

>  <Rbt.Library>
libRbt.so (2013.1, Build901 2013/11/27)

>  <Rbt.Parameter_File>
/export/apps/rDock/src/rDock_2013.1_src/data/scripts/dock_solv.prm

>  <Rbt.Receptor>
prm/pocket_docking_8.prm

>  <SCORE>
-13.1768

>  <SCORE.INTER>
-10.7496

>  <SCORE.INTER.CONST>
1

>  <SCORE.INTER.POLAR>
0

>  <SCORE.INTER.ROT>
3

>  <SCORE.INTER.SOLV>
23.0451

>  <SCORE.INTER.VDW>
-20.4481

>  <SCORE.INTER.norm>
-0.488618

>  <SCORE.INTRA>
-2.4272

>  <SCORE.INTRA.DIHEDRAL>
-3.95494

>  <SCORE.INTRA.DIHEDRAL.0>
6.10773

>  <SCORE.INTRA.POLAR>
0

>  <SCORE.INTRA.POLAR.0>
0

>  <SCORE.INTRA.REPUL>
0

>  <SCORE.INTRA.REPUL.0>
0

>  <SCORE.INTRA.SOLV>
-0.968291

>  <SCORE.INTRA.SOLV.lig_0>
-71.4024

>  <SCORE.INTRA.VDW>
0.0344196

>  <SCORE.INTRA.VDW.0>
-1.86213

>  <SCORE.INTRA.norm>
-0.110327

>  <SCORE.RESTR>
0

>  <SCORE.RESTR.CAVITY>
0

>  <SCORE.RESTR.norm>
0

>  <SCORE.SYSTEM>
0

>  <SCORE.SYSTEM.CONST>
0

>  <SCORE.SYSTEM.DIHEDRAL>
0

>  <SCORE.SYSTEM.SOLV>
0

>  <SCORE.SYSTEM.norm>
0

>  <SCORE.heavy>
22

>  <SCORE.norm>
-0.598945

>  <RMSD>
3.667

$$$$
lig.pdb
 OpenBabel11021811523D
libRbt.so/2013.1/901 2013/11/27
 22 23  0  0  0  0  0  0  0  0999 V2000
   -5.0296   -3.1741   -0.1990 C   0  0  1  0  0  0  0  0  0  0  0  0
   -4.5199   -0.8283    0.5938 C   0  0  1  0  0  0  0  0  0  0  0  0
   -3.1182   -0.9613    1.3384 C   0  0  1  0  0  0  0  0  0  0  0  0
   -3.0228    0.2107    2.4166 C   0  0  2  0  0  0  0  0  0  0  0  0
   -4.9107   -3.9904   -1.5442 C   0  0  1  0  0  0  0  0  0  0  0  0
   -5.8875   -3.3722   -2.5641 C   0  0  2  0  0  0  0  0  0  0  0  0
   -7.3392   -3.4713   -2.0631 C   0  0  2  0  0  0  0  0  0  0  0  0
   -7.5254   -2.7051   -0.7027 C   0  0  1  0  0  0  0  0  0  0  0  0
   -8.9781   -2.8491   -0.1643 C   0  0  0  0  0  0  0  0  0  0  0  0
   -3.0648    1.6330    1.6567 C   0  0  1  0  0  0  0  0  0  0  0  0
   -4.4915    1.7304    0.9159 C   0  0  0  0  0  0  0  0  0  0  0  0
   -4.6300    0.5436   -0.1447 C   0  0  2  0  0  0  0  0  0  0  0  0
   -7.7103   -4.8782   -1.8730 F   0  0  0  0  0  0  0  0  0  0  0  0
   -3.4736   -3.9019   -2.0136 N   0  0  0  0  0  0  0  0  0  0  0  0
   -9.2408   -2.1428    1.0319 N   0  0  0  0  0  0  0  0  0  0  0  0
   -2.9946    2.7718    2.6350 N   0  0  0  0  0  0  0  0  0  0  0  0
   -5.9410    0.6378   -0.8191 N   0  0  0  0  0  0  0  0  0  0  0  0
   -4.6513   -1.8464   -0.3866 O   0  0  0  0  0  0  0  0  0  0  0  0
   -3.0896   -2.2742    2.0254 O   0  0  0  0  0  0  0  0  0  0  0  0
   -1.7918    0.0668    3.0608 O   0  0  0  0  0  0  0  0  0  0  0  0
   -5.8008   -3.9702   -3.5431 O   0  0  0  0  0  0  0  0  0  0  0  0
   -6.4781   -3.2734    0.2721 O   0  0  0  0  0  0  0  0  0  0  0  0
  1  5  1  0  0  0  0
  1 18  1  6  0  0  0
  2 18  1  6  0  0  0
  2  3  1  0  0  0  0
  2 12  1  0  0  0  0
  3 19  1  1  0  0  0
  3  4  1  0  0  0  0
  4 20  1  6  0  0  0
  4 10  1  0  0  0  0
  5  6  1  0  0  0  0
  5 14  1  6  0  0  0
  6 21  1  6  0  0  0
  7 13  1  1  0  0  0
  7  6  1  0  0  0  0
  8  9  1  1  0  0  0
  8  7  1  0  0  0  0
 10 16  1  1  0  0  0
 11 10  1  0  0  0  0
 12 17  1  1  0  0  0
 12 11  1  0  0  0  0
 15  9  1  0  0  0  0
 22  8  1  0  0  0  0
 22  1  1  0  0  0  0
M  END
>  <CHROM.1>
-174.58586726,81.00662560,-177.62166492,-5.19110121,-1.71049179,-0.02005119
-2.15590782,-0.05716024,0.62692054

>  <Name>
lig.pdb

>  <RI>
0

>  <Rbt.Current_Directory>
/home/itssahil/PROJECTS/Mol_Feturizer/New_Systems/rnas/5bws

>  <Rbt.Executable>
rbdock ($Id: //depot/dev/client3/rdock/2013.1/src/exe/rbdock.cxx#4 $)

>  <Rbt.Library>
libRbt.so (2013.1, Build901 2013/11/27)

>  <Rbt.Parameter_File>
/export/apps/rDock/src/rDock_2013.1_src/data/scripts/dock_solv.prm

>  <Rbt.Receptor>
prm/pocket_docking_7.prm

>  <SCORE>
-13.1918

>  <SCORE.INTER>
-10.7584

>  <SCORE.INTER.CONST>
1

>  <SCORE.INTER.POLAR>
0

>  <SCORE.INTER.ROT>
3

>  <SCORE.INTER.SOLV>
23.0887

>  <SCORE.INTER.VDW>
-20.4685

>  <SCORE.INTER.norm>
-0.48902

>  <SCORE.INTRA>
-2.43334

>  <SCORE.INTRA.DIHEDRAL>
-3.97549

>  <SCORE.INTRA.DIHEDRAL.0>
6.10773

>  <SCORE.INTRA.POLAR>
0

>  <SCORE.INTRA.POLAR.0>
0

>  <SCORE.INTRA.REPUL>
0

>  <SCORE.INTRA.REPUL.0>
0

>  <SCORE.INTRA.SOLV>
-0.962494

>  <SCORE.INTRA.SOLV.lig_0>
-71.4024

>  <SCORE.INTRA.VDW>
0.0356532

>  <SCORE.INTRA.VDW.0>
-1.86213

>  <SCORE.INTRA.norm>
-0.110606

>  <SCORE.RESTR>
0

>  <SCORE.RESTR.CAVITY>
0

>  <SCORE.RESTR.norm>
0

>  <SCORE.SYSTEM>
0

>  <SCORE.SYSTEM.CONST>
0

>  <SCORE.SYSTEM.DIHEDRAL>
0

>  <SCORE.SYSTEM.SOLV>
0

>  <SCORE.SYSTEM.norm>
0

>  <SCORE.heavy>
22

>  <SCORE.norm>
-0.599626

>  <RMSD>
3.671

$$$$
lig.pdb
 OpenBabel11021811523D
libRbt.so/2013.1/901 2013/11/27
 22 23  0  0  0  0  0  0  0  0999 V2000
   -5.0559   -2.2958    0.2232 C   0  0  1  0  0  0  0  0  0  0  0  0
   -4.0720   -0.1766    1.1888 C   0  0  1  0  0  0  0  0  0  0  0  0
   -2.7446   -0.7459    1.8604 C   0  0  1  0  0  0  0  0  0  0  0  0
   -2.3203    0.2524    3.0303 C   0  0  2  0  0  0  0  0  0  0  0  0
   -5.0468   -3.0215   -1.1780 C   0  0  1  0  0  0  0  0  0  0  0  0
   -5.9164   -2.1964   -2.1472 C   0  0  2  0  0  0  0  0  0  0  0  0
   -7.3707   -2.1199   -1.6497 C   0  0  2  0  0  0  0  0  0  0  0  0
   -7.4539   -1.4349   -0.2369 C   0  0  1  0  0  0  0  0  0  0  0  0
   -8.9159   -1.4052    0.2946 C   0  0  0  0  0  0  0  0  0  0  0  0
   -1.9928    1.6997    2.3977 C   0  0  1  0  0  0  0  0  0  0  0  0
   -3.3537    2.2410    1.7279 C   0  0  0  0  0  0  0  0  0  0  0  0
   -3.8232    1.2383    0.5760 C   0  0  2  0  0  0  0  0  0  0  0  0
   -7.9431   -3.4681   -1.5608 F   0  0  0  0  0  0  0  0  0  0  0  0
   -3.6087   -3.1086   -1.6445 N   0  0  0  0  0  0  0  0  0  0  0  0
   -9.0824   -0.7550    1.5388 N   0  0  0  0  0  0  0  0  0  0  0  0
   -1.6033    2.6821    3.4663 N   0  0  0  0  0  0  0  0  0  0  0  0
   -5.0723    1.7395   -0.0328 N   0  0  0  0  0  0  0  0  0  0  0  0
   -4.4880   -1.0269    0.1309 O   0  0  0  0  0  0  0  0  0  0  0  0
   -3.0570   -2.0778    2.4304 O   0  0  0  0  0  0  0  0  0  0  0  0
   -1.1620   -0.2726    3.6081 O   0  0  0  0  0  0  0  0  0  0  0  0
   -5.9102   -2.7283   -3.1672 O   0  0  0  0  0  0  0  0  0  0  0  0
   -6.5069   -2.2177    0.6908 O   0  0  0  0  0  0  0  0  0  0  0  0
  1  5  1  0  0  0  0
  1 18  1  6  0  0  0
  2 18  1  6  0  0  0
  2  3  1  0  0  0  0
  2 12  1  0  0  0  0
  3 19  1  1  0  0  0
  3  4  1  0  0  0  0
  4 20  1  6  0  0  0
  4 10  1  0  0  0  0
  5  6  1  0  0  0  0
  5 14  1  6  0  0  0
  6 21  1  6  0  0  0
  7 13  1  1  0  0  0
  7  6  1  0  0  0  0
  8  9  1  1  0  0  0
  8  7  1  0  0  0  0
 10 16  1  1  0  0  0
 11 10  1  0  0  0  0
 12 17  1  1  0  0  0
 12 11  1  0  0  0  0
 15  9  1  0  0  0  0
 22  8  1  0  0  0  0
 22  1  1  0  0  0  0
M  END
>  <CHROM.1>
-166.40657632,72.23395951,-177.54748389,-4.87913532,-0.93879464,0.50224399
-2.34145073,-0.14651798,0.70024921

>  <Name>
lig.pdb

>  <RI>
0

>  <Rbt.Current_Directory>
/home/itssahil/PROJECTS/Mol_Feturizer/New_Systems/rnas/5bws

>  <Rbt.Executable>
rbdock ($Id: //depot/dev/client3/rdock/2013.1/src/exe/rbdock.cxx#4 $)

>  <Rbt.Library>
libRbt.so (2013.1, Build901 2013/11/27)

>  <Rbt.Parameter_File>
/export/apps/rDock/src/rDock_2013.1_src/data/scripts/dock_solv.prm

>  <Rbt.Receptor>
prm/blind_docking_20.prm

>  <SCORE>
-9.15831

>  <SCORE.INTER>
-6.50655

>  <SCORE.INTER.CONST>
1

>  <SCORE.INTER.POLAR>
0

>  <SCORE.INTER.ROT>
3

>  <SCORE.INTER.SOLV>
24.2444

>  <SCORE.INTER.VDW>
-18.0192

>  <SCORE.INTER.norm>
-0.295752

>  <SCORE.INTRA>
-2.65306

>  <SCORE.INTRA.DIHEDRAL>
-4.49637

>  <SCORE.INTRA.DIHEDRAL.0>
6.10773

>  <SCORE.INTRA.POLAR>
0

>  <SCORE.INTRA.POLAR.0>
0

>  <SCORE.INTRA.REPUL>
0

>  <SCORE.INTRA.REPUL.0>
0

>  <SCORE.INTRA.SOLV>
-1.25839

>  <SCORE.INTRA.SOLV.lig_0>
-71.4024

>  <SCORE.INTRA.VDW>
0.224316

>  <SCORE.INTRA.VDW.0>
-1.86213

>  <SCORE.INTRA.norm>
-0.120594

>  <SCORE.RESTR>
0.00130796

>  <SCORE.RESTR.CAVITY>
0.00130796

>  <SCORE.RESTR.norm>
5.94529e-05

>  <SCORE.SYSTEM>
0

>  <SCORE.SYSTEM.CONST>
0

>  <SCORE.SYSTEM.DIHEDRAL>
0

>  <SCORE.SYSTEM.SOLV>
0

>  <SCORE.SYSTEM.norm>
0

>  <SCORE.heavy>
22

>  <SCORE.norm>
-0.416287

>  <RMSD>
3.685

$$$$
lig.pdb
 OpenBabel11021811523D
libRbt.so/2013.1/901 2013/11/27
 22 23  0  0  0  0  0  0  0  0999 V2000
   -5.0703   -2.2960    0.2356 C   0  0  1  0  0  0  0  0  0  0  0  0
   -4.0737   -0.1807    1.1968 C   0  0  1  0  0  0  0  0  0  0  0  0
   -2.7397   -0.7476    1.8570 C   0  0  1  0  0  0  0  0  0  0  0  0
   -2.3088    0.2498    3.0253 C   0  0  2  0  0  0  0  0  0  0  0  0
   -5.0442   -3.0337   -1.1592 C   0  0  1  0  0  0  0  0  0  0  0  0
   -5.8964   -2.2133   -2.1476 C   0  0  2  0  0  0  0  0  0  0  0  0
   -7.3574   -2.1266   -1.6718 C   0  0  2  0  0  0  0  0  0  0  0  0
   -7.4578   -1.4292   -0.2661 C   0  0  1  0  0  0  0  0  0  0  0  0
   -8.9271   -1.3891    0.2441 C   0  0  0  0  0  0  0  0  0  0  0  0
   -1.9901    1.6990    2.3926 C   0  0  1  0  0  0  0  0  0  0  0  0
   -3.3576    2.2379    1.7345 C   0  0  0  0  0  0  0  0  0  0  0  0
   -3.8335    1.2359    0.5845 C   0  0  2  0  0  0  0  0  0  0  0  0
   -7.9366   -3.4717   -1.5796 F   0  0  0  0  0  0  0  0  0  0  0  0
   -3.6000   -3.1306   -1.6043 N   0  0  0  0  0  0  0  0  0  0  0  0
   -9.1153   -0.6893    1.4580 N   0  0  0  0  0  0  0  0  0  0  0  0
   -1.5949    2.6806    3.4599 N   0  0  0  0  0  0  0  0  0  0  0  0
   -5.0887    1.7349   -0.0136 N   0  0  0  0  0  0  0  0  0  0  0  0
   -4.4958   -1.0303    0.1407 O   0  0  0  0  0  0  0  0  0  0  0  0
   -3.0440   -2.0813    2.4270 O   0  0  0  0  0  0  0  0  0  0  0  0
   -1.1447   -0.2731    3.5930 O   0  0  0  0  0  0  0  0  0  0  0  0
   -5.8779   -2.7540   -3.1629 O   0  0  0  0  0  0  0  0  0  0  0  0
   -6.5275   -2.2080    0.6816 O   0  0  0  0  0  0  0  0  0  0  0  0
  1  5  1  0  0  0  0
  1 18  1  6  0  0  0
  2 18  1  6  0  0  0
  2  3  1  0  0  0  0
  2 12  1  0  0  0  0
  3 19  1  1  0  0  0
  3  4  1  0  0  0  0
  4 20  1  6  0  0  0
  4 10  1  0  0  0  0
  5  6  1  0  0  0  0
  5 14  1  6  0  0  0
  6 21  1  6  0  0  0
  7 13  1  1  0  0  0
  7  6  1  0  0  0  0
  8  9  1  1  0  0  0
  8  7  1  0  0  0  0
 10 16  1  1  0  0  0
 11 10  1  0  0  0  0
 12 17  1  1  0  0  0
 12 11  1  0  0  0  0
 15  9  1  0  0  0  0
 22  8  1  0  0  0  0
 22  1  1  0  0  0  0
M  END
>  <CHROM.1>
-165.41597153,72.84698841,-175.54579550,-4.87807952,-0.93968344,0.49646913
-2.34589604,-0.16630695,0.68252955

>  <Name>
lig.pdb

>  <RI>
0

>  <Rbt.Current_Directory>
/home/itssahil/PROJECTS/Mol_Feturizer/New_Systems/rnas/5bws

>  <Rbt.Executable>
rbdock ($Id: //depot/dev/client3/rdock/2013.1/src/exe/rbdock.cxx#4 $)

>  <Rbt.Library>
libRbt.so (2013.1, Build901 2013/11/27)

>  <Rbt.Parameter_File>
/export/apps/rDock/src/rDock_2013.1_src/data/scripts/dock_solv.prm

>  <Rbt.Receptor>
prm/blind_docking_20.prm

>  <SCORE>
-9.2421

>  <SCORE.INTER>
-6.71885

>  <SCORE.INTER.CONST>
1

>  <SCORE.INTER.POLAR>
0

>  <SCORE.INTER.ROT>
3

>  <SCORE.INTER.SOLV>
23.992

>  <SCORE.INTER.VDW>
-18.0766

>  <SCORE.INTER.norm>
-0.305402

>  <SCORE.INTRA>
-2.52359

>  <SCORE.INTRA.DIHEDRAL>
-4.25076

>  <SCORE.INTRA.DIHEDRAL.0>
6.10773

>  <SCORE.INTRA.POLAR>
0

>  <SCORE.INTRA.POLAR.0>
0

>  <SCORE.INTRA.REPUL>
0

>  <SCORE.INTRA.REPUL.0>
0

>  <SCORE.INTRA.SOLV>
-1.22733

>  <SCORE.INTRA.SOLV.lig_0>
-71.4024

>  <SCORE.INTRA.VDW>
0.215459

>  <SCORE.INTRA.VDW.0>
-1.86213

>  <SCORE.INTRA.norm>
-0.114709

>  <SCORE.RESTR>
0.0003395

>  <SCORE.RESTR.CAVITY>
0.0003395

>  <SCORE.RESTR.norm>
1.54318e-05

>  <SCORE.SYSTEM>
0

>  <SCORE.SYSTEM.CONST>
0

>  <SCORE.SYSTEM.DIHEDRAL>
0

>  <SCORE.SYSTEM.SOLV>
0

>  <SCORE.SYSTEM.norm>
0

>  <SCORE.heavy>
22

>  <SCORE.norm>
-0.420096

>  <RMSD>
3.687

$$$$
lig.pdb
 OpenBabel11021811523D
libRbt.so/2013.1/901 2013/11/27
 22 23  0  0  0  0  0  0  0  0999 V2000
   -5.4007   -2.0189    0.4764 C   0  0  1  0  0  0  0  0  0  0  0  0
   -4.2879   -0.0331    1.5762 C   0  0  1  0  0  0  0  0  0  0  0  0
   -2.8346   -0.6367    1.8221 C   0  0  1  0  0  0  0  0  0  0  0  0
   -2.1675    0.1673    3.0278 C   0  0  2  0  0  0  0  0  0  0  0  0
   -5.3073   -2.6250   -0.9776 C   0  0  1  0  0  0  0  0  0  0  0  0
   -6.2113   -1.7857   -1.9022 C   0  0  2  0  0  0  0  0  0  0  0  0
   -7.6784   -1.8517   -1.4423 C   0  0  2  0  0  0  0  0  0  0  0  0
   -7.8430   -1.2922    0.0179 C   0  0  1  0  0  0  0  0  0  0  0  0
   -9.3152   -1.4081    0.5078 C   0  0  0  0  0  0  0  0  0  0  0  0
   -2.0129    1.7173    2.6085 C   0  0  1  0  0  0  0  0  0  0  0  0
   -3.4981    2.2912    2.3668 C   0  0  0  0  0  0  0  0  0  0  0  0
   -4.2050    1.4773    1.1875 C   0  0  2  0  0  0  0  0  0  0  0  0
   -8.1545   -3.2392   -1.4781 F   0  0  0  0  0  0  0  0  0  0  0  0
   -3.8563   -2.5732   -1.4080 N   0  0  0  0  0  0  0  0  0  0  0  0
   -9.5421   -0.9409    1.8226 N   0  0  0  0  0  0  0  0  0  0  0  0
   -1.4027    2.5212    3.7221 N   0  0  0  0  0  0  0  0  0  0  0  0
   -5.5669    2.0075    0.9723 N   0  0  0  0  0  0  0  0  0  0  0  0
   -4.9233   -0.7103    0.5025 O   0  0  0  0  0  0  0  0  0  0  0  0
   -2.9903   -2.0616    2.1987 O   0  0  0  0  0  0  0  0  0  0  0  0
   -0.9008   -0.3858    3.2294 O   0  0  0  0  0  0  0  0  0  0  0  0
   -6.1434   -2.2306   -2.9609 O   0  0  0  0  0  0  0  0  0  0  0  0
   -6.8640   -2.0807    0.9068 O   0  0  0  0  0  0  0  0  0  0  0  0
  1  5  1  0  0  0  0
  1 18  1  6  0  0  0
  2 18  1  6  0  0  0
  2  3  1  0  0  0  0
  2 12  1  0  0  0  0
  3 19  1  1  0  0  0
  3  4  1  0  0  0  0
  4 20  1  6  0  0  0
  4 10  1  0  0  0  0
  5  6  1  0  0  0  0
  5 14  1  6  0  0  0
  6 21  1  6  0  0  0
  7 13  1  1  0  0  0
  7  6  1  0  0  0  0
  8  9  1  1  0  0  0
  8  7  1  0  0  0  0
 10 16  1  1  0  0  0
 11 10  1  0  0  0  0
 12 17  1  1  0  0  0
 12 11  1  0  0  0  0
 15  9  1  0  0  0  0
 22  8  1  0  0  0  0
 22  1  1  0  0  0  0
M  END
>  <CHROM.1>
-149.40266942,70.05270921,179.19986047,-5.08615166,-0.77898754,0.73122894
-2.42087113,-0.10023465,0.74889251

>  <Name>
lig.pdb

>  <RI>
0

>  <Rbt.Current_Directory>
/home/itssahil/PROJECTS/Mol_Feturizer/New_Systems/rnas/5bws

>  <Rbt.Executable>
rbdock ($Id: //depot/dev/client3/rdock/2013.1/src/exe/rbdock.cxx#4 $)

>  <Rbt.Library>
libRbt.so (2013.1, Build901 2013/11/27)

>  <Rbt.Parameter_File>
/export/apps/rDock/src/rDock_2013.1_src/data/scripts/dock_solv.prm

>  <Rbt.Receptor>
prm/blind_docking_20.prm

>  <SCORE>
-7.78286

>  <SCORE.INTER>
-6.77012

>  <SCORE.INTER.CONST>
1

>  <SCORE.INTER.POLAR>
0

>  <SCORE.INTER.ROT>
3

>  <SCORE.INTER.SOLV>
22.4767

>  <SCORE.INTER.VDW>
-17.6056

>  <SCORE.INTER.norm>
-0.307733

>  <SCORE.INTRA>
-1.01274

>  <SCORE.INTRA.DIHEDRAL>
-1.90361

>  <SCORE.INTRA.DIHEDRAL.0>
6.10773

>  <SCORE.INTRA.POLAR>
0

>  <SCORE.INTRA.POLAR.0>
0

>  <SCORE.INTRA.REPUL>
0

>  <SCORE.INTRA.REPUL.0>
0

>  <SCORE.INTRA.SOLV>
-0.684882

>  <SCORE.INTRA.SOLV.lig_0>
-71.4024

>  <SCORE.INTRA.VDW>
0.281503

>  <SCORE.INTRA.VDW.0>
-1.86213

>  <SCORE.INTRA.norm>
-0.0460337

>  <SCORE.RESTR>
0

>  <SCORE.RESTR.CAVITY>
0

>  <SCORE.RESTR.norm>
0

>  <SCORE.SYSTEM>
0

>  <SCORE.SYSTEM.CONST>
0

>  <SCORE.SYSTEM.DIHEDRAL>
0

>  <SCORE.SYSTEM.SOLV>
0

>  <SCORE.SYSTEM.norm>
0

>  <SCORE.heavy>
22

>  <SCORE.norm>
-0.353766

>  <RMSD>
3.707

$$$$
lig.pdb
 OpenBabel11021811523D
libRbt.so/2013.1/901 2013/11/27
 22 23  0  0  0  0  0  0  0  0999 V2000
   -5.3084   -1.5577    0.8018 C   0  0  1  0  0  0  0  0  0  0  0  0
   -4.2008    0.4215    1.9187 C   0  0  1  0  0  0  0  0  0  0  0  0
   -2.7382   -0.1835    2.0972 C   0  0  1  0  0  0  0  0  0  0  0  0
   -2.0277    0.5969    3.2937 C   0  0  2  0  0  0  0  0  0  0  0  0
   -5.4284   -2.0521   -0.6919 C   0  0  1  0  0  0  0  0  0  0  0  0
   -6.4942   -1.1885   -1.3951 C   0  0  2  0  0  0  0  0  0  0  0  0
   -7.8666   -1.3519   -0.7182 C   0  0  2  0  0  0  0  0  0  0  0  0
   -7.8144   -0.9075    0.7892 C   0  0  1  0  0  0  0  0  0  0  0  0
   -9.1855   -1.1230    1.4924 C   0  0  0  0  0  0  0  0  0  0  0  0
   -1.8917    2.1557    2.9015 C   0  0  1  0  0  0  0  0  0  0  0  0
   -3.3860    2.7308    2.7278 C   0  0  0  0  0  0  0  0  0  0  0  0
   -4.1352    1.9399    1.5591 C   0  0  2  0  0  0  0  0  0  0  0  0
   -8.2979   -2.7528   -0.7880 F   0  0  0  0  0  0  0  0  0  0  0  0
   -4.0667   -1.9057   -1.3384 N   0  0  0  0  0  0  0  0  0  0  0  0
  -10.2637   -0.4071    0.9237 N   0  0  0  0  0  0  0  0  0  0  0  0
   -1.2416    2.9376    4.0081 N   0  0  0  0  0  0  0  0  0  0  0  0
   -5.5052    2.4710    1.4062 N   0  0  0  0  0  0  0  0  0  0  0  0
   -4.8749   -0.2347    0.8556 O   0  0  0  0  0  0  0  0  0  0  0  0
   -2.8772   -1.6163    2.4494 O   0  0  0  0  0  0  0  0  0  0  0  0
   -0.7534    0.0429    3.4360 O   0  0  0  0  0  0  0  0  0  0  0  0
   -6.5816   -1.5521   -2.4830 O   0  0  0  0  0  0  0  0  0  0  0  0
   -6.6818   -1.7146    1.4494 O   0  0  0  0  0  0  0  0  0  0  0  0
  1  5  1  0  0  0  0
  1 18  1  6  0  0  0
  2 18  1  6  0  0  0
  2  3  1  0  0  0  0
  2 12  1  0  0  0  0
  3 19  1  1  0  0  0
  3  4  1  0  0  0  0
  4 20  1  6  0  0  0
  4 10  1  0  0  0  0
  5  6  1  0  0  0  0
  5 14  1  6  0  0  0
  6 21  1  6  0  0  0
  7 13  1  1  0  0  0
  7  6  1  0  0  0  0
  8  9  1  1  0  0  0
  8  7  1  0  0  0  0
 10 16  1  1  0  0  0
 11 10  1  0  0  0  0
 12 17  1  1  0  0  0
 12 11  1  0  0  0  0
 15  9  1  0  0  0  0
 22  8  1  0  0  0  0
 22  1  1  0  0  0  0
M  END
>  <CHROM.1>
-155.49627212,67.54572849,-60.10395797,-5.11122933,-0.30412644,1.09491587
-2.49227982,-0.12448436,0.69009909

>  <Name>
lig.pdb

>  <RI>
0

>  <Rbt.Current_Directory>
/home/itssahil/PROJECTS/Mol_Feturizer/New_Systems/rnas/5bws

>  <Rbt.Executable>
rbdock ($Id: //depot/dev/client3/rdock/2013.1/src/exe/rbdock.cxx#4 $)

>  <Rbt.Library>
libRbt.so (2013.1, Build901 2013/11/27)

>  <Rbt.Parameter_File>
/export/apps/rDock/src/rDock_2013.1_src/data/scripts/dock_solv.prm

>  <Rbt.Receptor>
prm/blind_docking_20.prm

>  <SCORE>
-6.78089

>  <SCORE.INTER>
-5.27273

>  <SCORE.INTER.CONST>
1

>  <SCORE.INTER.POLAR>
0

>  <SCORE.INTER.ROT>
3

>  <SCORE.INTER.SOLV>
22.1653

>  <SCORE.INTER.VDW>
-16.5036

>  <SCORE.INTER.norm>
-0.23967

>  <SCORE.INTRA>
-1.50816

>  <SCORE.INTRA.DIHEDRAL>
-3.24997

>  <SCORE.INTRA.DIHEDRAL.0>
6.10773

>  <SCORE.INTRA.POLAR>
0

>  <SCORE.INTRA.POLAR.0>
0

>  <SCORE.INTRA.REPUL>
0

>  <SCORE.INTRA.REPUL.0>
0

>  <SCORE.INTRA.SOLV>
-0.496233

>  <SCORE.INTRA.SOLV.lig_0>
-71.4024

>  <SCORE.INTRA.VDW>
0.364944

>  <SCORE.INTRA.VDW.0>
-1.86213

>  <SCORE.INTRA.norm>
-0.0685526

>  <SCORE.RESTR>
0

>  <SCORE.RESTR.CAVITY>
0

>  <SCORE.RESTR.norm>
0

>  <SCORE.SYSTEM>
0

>  <SCORE.SYSTEM.CONST>
0

>  <SCORE.SYSTEM.DIHEDRAL>
0

>  <SCORE.SYSTEM.SOLV>
0

>  <SCORE.SYSTEM.norm>
0

>  <SCORE.heavy>
22

>  <SCORE.norm>
-0.308222

>  <RMSD>
3.798

$$$$
lig.pdb
 OpenBabel11021811523D
libRbt.so/2013.1/901 2013/11/27
 22 23  0  0  0  0  0  0  0  0999 V2000
   -9.0979   -0.7866    0.0349 C   0  0  1  0  0  0  0  0  0  0  0  0
   -8.1061    1.2029    1.2389 C   0  0  1  0  0  0  0  0  0  0  0  0
   -6.6452    1.8106    1.4221 C   0  0  1  0  0  0  0  0  0  0  0  0
   -6.7522    3.0522    2.4182 C   0  0  2  0  0  0  0  0  0  0  0  0
   -9.5159   -1.6396    1.2950 C   0  0  1  0  0  0  0  0  0  0  0  0
   -8.2994   -2.4841    1.7231 C   0  0  2  0  0  0  0  0  0  0  0  0
   -7.8799   -3.4500    0.6008 C   0  0  2  0  0  0  0  0  0  0  0  0
   -7.4797   -2.6680   -0.7033 C   0  0  1  0  0  0  0  0  0  0  0  0
   -7.1080   -3.6423   -1.8580 C   0  0  0  0  0  0  0  0  0  0  0  0
   -7.6961    4.1809    1.7569 C   0  0  1  0  0  0  0  0  0  0  0  0
   -9.1597    3.5312    1.5856 C   0  0  0  0  0  0  0  0  0  0  0  0
   -9.0755    2.2602    0.6211 C   0  0  2  0  0  0  0  0  0  0  0  0
   -8.9824   -4.3664    0.2881 F   0  0  0  0  0  0  0  0  0  0  0  0
   -9.9462   -0.6776    2.3827 N   0  0  0  0  0  0  0  0  0  0  0  0
   -5.9385   -4.4054   -1.6379 N   0  0  0  0  0  0  0  0  0  0  0  0
   -7.8415    5.3671    2.6683 N   0  0  0  0  0  0  0  0  0  0  0  0
  -10.4205    1.6683    0.4698 N   0  0  0  0  0  0  0  0  0  0  0  0
   -8.0675    0.0965    0.3503 O   0  0  0  0  0  0  0  0  0  0  0  0
   -5.7872    0.7621    2.0227 O   0  0  0  0  0  0  0  0  0  0  0  0
   -5.4600    3.5605    2.5693 O   0  0  0  0  0  0  0  0  0  0  0  0
   -8.6070   -3.1067    2.6402 O   0  0  0  0  0  0  0  0  0  0  0  0
   -8.6723   -1.7620   -1.0595 O   0  0  0  0  0  0  0  0  0  0  0  0
  1  5  1  0  0  0  0
  1 18  1  1  0  0  0
  2 18  1  6  0  0  0
  2  3  1  0  0  0  0
  2 12  1  0  0  0  0
  3 19  1  1  0  0  0
  3  4  1  0  0  0  0
  4 20  1  6  0  0  0
  4 10  1  0  0  0  0
  5  6  1  0  0  0  0
  5 14  1  1  0  0  0
  6 21  1  1  0  0  0
  7 13  1  6  0  0  0
  7  6  1  0  0  0  0
  8  9  1  6  0  0  0
  8  7  1  0  0  0  0
 10 16  1  1  0  0  0
 11 10  1  0  0  0  0
 12 17  1  1  0  0  0
 12 11  1  0  0  0  0
 15  9  1  0  0  0  0
 22  8  1  0  0  0  0
 22  1  1  0  0  0  0
M  END
>  <CHROM.1>
-65.42781143,172.90797870,-66.24836536,-8.01635451,-0.14399428,0.94457517
1.62891604,-0.13655593,-2.83461151

>  <Name>
lig.pdb

>  <RI>
0

>  <Rbt.Current_Directory>
/home/itssahil/PROJECTS/Mol_Feturizer/New_Systems/rnas/5bws

>  <Rbt.Executable>
rbdock ($Id: //depot/dev/client3/rdock/2013.1/src/exe/rbdock.cxx#4 $)

>  <Rbt.Library>
libRbt.so (2013.1, Build901 2013/11/27)

>  <Rbt.Parameter_File>
/export/apps/rDock/src/rDock_2013.1_src/data/scripts/dock_solv.prm

>  <Rbt.Receptor>
prm/pocket_docking_6.prm

>  <SCORE>
-10.9952

>  <SCORE.INTER>
-10.4992

>  <SCORE.INTER.CONST>
1

>  <SCORE.INTER.POLAR>
0

>  <SCORE.INTER.ROT>
3

>  <SCORE.INTER.SOLV>
14.4359

>  <SCORE.INTER.VDW>
-17.4114

>  <SCORE.INTER.norm>
-0.477236

>  <SCORE.INTRA>
-0.49597

>  <SCORE.INTRA.DIHEDRAL>
-5.57487

>  <SCORE.INTRA.DIHEDRAL.0>
6.10773

>  <SCORE.INTRA.POLAR>
0

>  <SCORE.INTRA.POLAR.0>
0

>  <SCORE.INTRA.REPUL>
0

>  <SCORE.INTRA.REPUL.0>
0

>  <SCORE.INTRA.SOLV>
3.18736

>  <SCORE.INTRA.SOLV.lig_0>
-71.4024

>  <SCORE.INTRA.VDW>
0.697784

>  <SCORE.INTRA.VDW.0>
-1.86213

>  <SCORE.INTRA.norm>
-0.0225441

>  <SCORE.RESTR>
0

>  <SCORE.RESTR.CAVITY>
0

>  <SCORE.RESTR.norm>
0

>  <SCORE.SYSTEM>
0

>  <SCORE.SYSTEM.CONST>
0

>  <SCORE.SYSTEM.DIHEDRAL>
0

>  <SCORE.SYSTEM.SOLV>
0

>  <SCORE.SYSTEM.norm>
0

>  <SCORE.heavy>
22

>  <SCORE.norm>
-0.49978

>  <RMSD>
3.813

$$$$
lig.pdb
 OpenBabel11021811523D
libRbt.so/2013.1/901 2013/11/27
 22 23  0  0  0  0  0  0  0  0999 V2000
   -6.2201   -0.9567    1.2341 C   0  0  1  0  0  0  0  0  0  0  0  0
   -4.6213    0.8039    2.0917 C   0  0  1  0  0  0  0  0  0  0  0  0
   -3.2559   -0.0136    2.0274 C   0  0  1  0  0  0  0  0  0  0  0  0
   -2.2438    0.6394    3.0736 C   0  0  2  0  0  0  0  0  0  0  0  0
   -5.8832   -1.8491   -0.0230 C   0  0  1  0  0  0  0  0  0  0  0  0
   -6.3927   -1.1145   -1.2788 C   0  0  2  0  0  0  0  0  0  0  0  0
   -7.9179   -0.9176   -1.2182 C   0  0  2  0  0  0  0  0  0  0  0  0
   -8.3319   -0.0610    0.0337 C   0  0  1  0  0  0  0  0  0  0  0  0
   -9.8771    0.0940    0.1296 C   0  0  0  0  0  0  0  0  0  0  0  0
   -1.9471    2.1648    2.6408 C   0  0  1  0  0  0  0  0  0  0  0  0
   -3.3469    2.9575    2.7157 C   0  0  0  0  0  0  0  0  0  0  0  0
   -4.3936    2.2995    1.7036 C   0  0  2  0  0  0  0  0  0  0  0  0
   -8.5904   -2.2199   -1.1489 F   0  0  0  0  0  0  0  0  0  0  0  0
   -4.3829   -2.0521   -0.0575 N   0  0  0  0  0  0  0  0  0  0  0  0
  -10.5699   -1.0810    0.5010 N   0  0  0  0  0  0  0  0  0  0  0  0
   -1.0089    2.8294    3.6087 N   0  0  0  0  0  0  0  0  0  0  0  0
   -5.6754    3.0300    1.7785 N   0  0  0  0  0  0  0  0  0  0  0  0
   -5.5567    0.2668    1.1689 O   0  0  0  0  0  0  0  0  0  0  0  0
   -3.5437   -1.4136    2.4194 O   0  0  0  0  0  0  0  0  0  0  0  0
   -1.0604   -0.0994    3.0049 O   0  0  0  0  0  0  0  0  0  0  0  0
   -6.1482   -1.7678   -2.1935 O   0  0  0  0  0  0  0  0  0  0  0  0
   -7.7338   -0.7620    1.2669 O   0  0  0  0  0  0  0  0  0  0  0  0
  1  5  1  0  0  0  0
  1 18  1  6  0  0  0
  2 18  1  6  0  0  0
  2  3  1  0  0  0  0
  2 12  1  0  0  0  0
  3 19  1  1  0  0  0
  3  4  1  0  0  0  0
  4 20  1  6  0  0  0
  4 10  1  0  0  0  0
  5  6  1  0  0  0  0
  5 14  1  6  0  0  0
  6 21  1  6  0  0  0
  7 13  1  1  0  0  0
  7  6  1  0  0  0  0
  8  9  1  1  0  0  0
  8  7  1  0  0  0  0
 10 16  1  1  0  0  0
 11 10  1  0  0  0  0
 12 17  1  1  0  0  0
 12 11  1  0  0  0  0
 15  9  1  0  0  0  0
 22  8  1  0  0  0  0
 22  1  1  0  0  0  0
M  END
>  <CHROM.1>
-120.27334506,70.03095137,71.51605386,-5.43658049,-0.02758786,1.03527715
-2.57904838,-0.25111796,0.51791156

>  <Name>
lig.pdb

>  <RI>
0

>  <Rbt.Current_Directory>
/home/itssahil/PROJECTS/Mol_Feturizer/New_Systems/rnas/5bws

>  <Rbt.Executable>
rbdock ($Id: //depot/dev/client3/rdock/2013.1/src/exe/rbdock.cxx#4 $)

>  <Rbt.Library>
libRbt.so (2013.1, Build901 2013/11/27)

>  <Rbt.Parameter_File>
/export/apps/rDock/src/rDock_2013.1_src/data/scripts/dock_solv.prm

>  <Rbt.Receptor>
prm/pocket_docking_2.prm

>  <SCORE>
-2.96301

>  <SCORE.INTER>
-5.61087

>  <SCORE.INTER.CONST>
1

>  <SCORE.INTER.POLAR>
0

>  <SCORE.INTER.ROT>
3

>  <SCORE.INTER.SOLV>
21.4385

>  <SCORE.INTER.VDW>
-16.4867

>  <SCORE.INTER.norm>
-0.255039

>  <SCORE.INTRA>
2.31053

>  <SCORE.INTRA.DIHEDRAL>
2.04307

>  <SCORE.INTRA.DIHEDRAL.0>
6.10773

>  <SCORE.INTRA.POLAR>
0

>  <SCORE.INTRA.POLAR.0>
0

>  <SCORE.INTRA.REPUL>
0

>  <SCORE.INTRA.REPUL.0>
0

>  <SCORE.INTRA.SOLV>
2.11618

>  <SCORE.INTRA.SOLV.lig_0>
-71.4024

>  <SCORE.INTRA.VDW>
0.230901

>  <SCORE.INTRA.VDW.0>
-1.86213

>  <SCORE.INTRA.norm>
0.105024

>  <SCORE.RESTR>
0.337333

>  <SCORE.RESTR.CAVITY>
0.337333

>  <SCORE.RESTR.norm>
0.0153333

>  <SCORE.SYSTEM>
0

>  <SCORE.SYSTEM.CONST>
0

>  <SCORE.SYSTEM.DIHEDRAL>
0

>  <SCORE.SYSTEM.SOLV>
0

>  <SCORE.SYSTEM.norm>
0

>  <SCORE.heavy>
22

>  <SCORE.norm>
-0.134682

>  <RMSD>
3.822

$$$$
lig.pdb
 OpenBabel11021811523D
libRbt.so/2013.1/901 2013/11/27
 22 23  0  0  0  0  0  0  0  0999 V2000
   -4.5149   -3.6285   -0.4206 C   0  0  1  0  0  0  0  0  0  0  0  0
   -4.5560   -1.2115    0.3193 C   0  0  1  0  0  0  0  0  0  0  0  0
   -3.2727   -0.8864    1.2050 C   0  0  1  0  0  0  0  0  0  0  0  0
   -3.6484    0.3096    2.1918 C   0  0  2  0  0  0  0  0  0  0  0  0
   -4.2291   -4.4196   -1.7558 C   0  0  1  0  0  0  0  0  0  0  0  0
   -5.2037   -3.9035   -2.8329 C   0  0  2  0  0  0  0  0  0  0  0  0
   -6.6638   -4.1603   -2.4198 C   0  0  2  0  0  0  0  0  0  0  0  0
   -7.0120   -3.4263   -1.0736 C   0  0  1  0  0  0  0  0  0  0  0  0
   -8.4704   -3.7280   -0.6232 C   0  0  0  0  0  0  0  0  0  0  0  0
   -4.0138    1.6180    1.3219 C   0  0  1  0  0  0  0  0  0  0  0  0
   -5.3109    1.2517    0.4404 C   0  0  0  0  0  0  0  0  0  0  0  0
   -4.9738    0.0295   -0.5320 C   0  0  2  0  0  0  0  0  0  0  0  0
   -6.8927   -5.5999   -2.2514 F   0  0  0  0  0  0  0  0  0  0  0  0
   -2.7842   -4.1751   -2.1381 N   0  0  0  0  0  0  0  0  0  0  0  0
   -8.6947   -5.0534   -0.1856 N   0  0  0  0  0  0  0  0  0  0  0  0
   -4.3921    2.7702    2.2097 N   0  0  0  0  0  0  0  0  0  0  0  0
   -6.1678   -0.3024   -1.3361 N   0  0  0  0  0  0  0  0  0  0  0  0
   -4.2705   -2.2669   -0.5860 O   0  0  0  0  0  0  0  0  0  0  0  0
   -2.9434   -2.0978    1.9927 O   0  0  0  0  0  0  0  0  0  0  0  0
   -2.5124    0.5689    2.9621 O   0  0  0  0  0  0  0  0  0  0  0  0
   -4.9951   -4.4831   -3.8045 O   0  0  0  0  0  0  0  0  0  0  0  0
   -5.9700   -3.8849   -0.0372 O   0  0  0  0  0  0  0  0  0  0  0  0
  1  5  1  0  0  0  0
  1 18  1  6  0  0  0
  2 18  1  6  0  0  0
  2  3  1  0  0  0  0
  2 12  1  0  0  0  0
  3 19  1  1  0  0  0
  3  4  1  0  0  0  0
  4 20  1  1  0  0  0
  4 10  1  0  0  0  0
  5  6  1  0  0  0  0
  5 14  1  6  0  0  0
  6 21  1  6  0  0  0
  7 13  1  1  0  0  0
  7  6  1  0  0  0  0
  8  9  1  1  0  0  0
  8  7  1  0  0  0  0
 10 16  1  1  0  0  0
 11 10  1  0  0  0  0
 12 17  1  1  0  0  0
 12 11  1  0  0  0  0
 15  9  1  0  0  0  0
 22  8  1  0  0  0  0
 22  1  1  0  0  0  0
M  END
>  <CHROM.1>
171.90381479,94.86693349,69.87051357,-5.07574246,-2.19184507,-0.34872469
-1.94147901,-0.03234876,0.58344540

>  <Name>
lig.pdb

>  <RI>
0

>  <Rbt.Current_Directory>
/home/itssahil/PROJECTS/Mol_Feturizer/New_Systems/rnas/5bws

>  <Rbt.Executable>
rbdock ($Id: //depot/dev/client3/rdock/2013.1/src/exe/rbdock.cxx#4 $)

>  <Rbt.Library>
libRbt.so (2013.1, Build901 2013/11/27)

>  <Rbt.Parameter_File>
/export/apps/rDock/src/rDock_2013.1_src/data/scripts/dock_solv.prm

>  <Rbt.Receptor>
prm/blind_docking_20.prm

>  <SCORE>
-7.51368

>  <SCORE.INTER>
-7.82359

>  <SCORE.INTER.CONST>
1

>  <SCORE.INTER.POLAR>
0

>  <SCORE.INTER.ROT>
3

>  <SCORE.INTER.SOLV>
26.9352

>  <SCORE.INTER.VDW>
-19.7941

>  <SCORE.INTER.norm>
-0.355618

>  <SCORE.INTRA>
0.212298

>  <SCORE.INTRA.DIHEDRAL>
-0.937495

>  <SCORE.INTRA.DIHEDRAL.0>
6.10773

>  <SCORE.INTRA.POLAR>
0

>  <SCORE.INTRA.POLAR.0>
0

>  <SCORE.INTRA.REPUL>
0

>  <SCORE.INTRA.REPUL.0>
0

>  <SCORE.INTRA.SOLV>
1.88802

>  <SCORE.INTRA.SOLV.lig_0>
-71.4024

>  <SCORE.INTRA.VDW>
-0.262966

>  <SCORE.INTRA.VDW.0>
-1.86213

>  <SCORE.INTRA.norm>
0.0096499

>  <SCORE.RESTR>
0.0976128

>  <SCORE.RESTR.CAVITY>
0.0976128

>  <SCORE.RESTR.norm>
0.00443695

>  <SCORE.SYSTEM>
0

>  <SCORE.SYSTEM.CONST>
0

>  <SCORE.SYSTEM.DIHEDRAL>
0

>  <SCORE.SYSTEM.SOLV>
0

>  <SCORE.SYSTEM.norm>
0

>  <SCORE.heavy>
22

>  <SCORE.norm>
-0.341531

>  <RMSD>
3.834

$$$$
lig.pdb
 OpenBabel11021811523D
libRbt.so/2013.1/901 2013/11/27
 22 23  0  0  0  0  0  0  0  0999 V2000
   -6.6291   -1.3083    0.8331 C   0  0  1  0  0  0  0  0  0  0  0  0
   -6.3625    1.1788    0.4662 C   0  0  1  0  0  0  0  0  0  0  0  0
   -7.8270    1.6284    0.9021 C   0  0  1  0  0  0  0  0  0  0  0  0
   -7.7551    3.1549    1.3601 C   0  0  2  0  0  0  0  0  0  0  0  0
   -6.4530   -2.6284   -0.0133 C   0  0  1  0  0  0  0  0  0  0  0  0
   -7.4900   -2.6048   -1.1536 C   0  0  2  0  0  0  0  0  0  0  0  0
   -8.9225   -2.5761   -0.5919 C   0  0  2  0  0  0  0  0  0  0  0  0
   -9.1613   -1.2988    0.2935 C   0  0  1  0  0  0  0  0  0  0  0  0
  -10.5904   -1.2935    0.9087 C   0  0  0  0  0  0  0  0  0  0  0  0
   -6.7806    3.2778    2.6398 C   0  0  1  0  0  0  0  0  0  0  0  0
   -5.3140    2.8143    2.1625 C   0  0  0  0  0  0  0  0  0  0  0  0
   -5.3646    1.2979    1.6617 C   0  0  2  0  0  0  0  0  0  0  0  0
   -9.1677   -3.7728    0.2211 F   0  0  0  0  0  0  0  0  0  0  0  0
   -5.0338   -2.6535   -0.5413 N   0  0  0  0  0  0  0  0  0  0  0  0
  -10.8416   -0.2404    1.8179 N   0  0  0  0  0  0  0  0  0  0  0  0
   -6.6672    4.7043    3.0989 N   0  0  0  0  0  0  0  0  0  0  0  0
   -4.0171    0.8798    1.2239 N   0  0  0  0  0  0  0  0  0  0  0  0
   -6.3699   -0.1805    0.0572 O   0  0  0  0  0  0  0  0  0  0  0  0
   -8.7130    1.5036   -0.2793 O   0  0  0  0  0  0  0  0  0  0  0  0
   -9.0503    3.5271    1.7277 O   0  0  0  0  0  0  0  0  0  0  0  0
   -7.3614   -3.5689   -1.7679 O   0  0  0  0  0  0  0  0  0  0  0  0
   -8.0587   -1.2928    1.3680 O   0  0  0  0  0  0  0  0  0  0  0  0
  1  5  1  0  0  0  0
  1 18  1  6  0  0  0
  2 18  1  1  0  0  0
  2  3  1  0  0  0  0
  2 12  1  0  0  0  0
  3 19  1  6  0  0  0
  3  4  1  0  0  0  0
  4 20  1  1  0  0  0
  4 10  1  0  0  0  0
  5  6  1  0  0  0  0
  5 14  1  6  0  0  0
  6 21  1  6  0  0  0
  7 13  1  1  0  0  0
  7  6  1  0  0  0  0
  8  9  1  1  0  0  0
  8  7  1  0  0  0  0
 10 16  1  6  0  0  0
 11 10  1  0  0  0  0
 12 17  1  6  0  0  0
 12 11  1  0  0  0  0
 15  9  1  0  0  0  0
 22  8  1  0  0  0  0
 22  1  1  0  0  0  0
M  END
>  <CHROM.1>
-176.92011010,-65.48505894,174.41497427,-7.49898828,-0.03596778,0.72364802
-1.75642596,0.07397048,0.39195397

>  <Name>
lig.pdb

>  <RI>
0

>  <Rbt.Current_Directory>
/home/itssahil/PROJECTS/Mol_Feturizer/New_Systems/rnas/5bws

>  <Rbt.Executable>
rbdock ($Id: //depot/dev/client3/rdock/2013.1/src/exe/rbdock.cxx#4 $)

>  <Rbt.Library>
libRbt.so (2013.1, Build901 2013/11/27)

>  <Rbt.Parameter_File>
/export/apps/rDock/src/rDock_2013.1_src/data/scripts/dock_solv.prm

>  <Rbt.Receptor>
prm/pocket_docking_7.prm

>  <SCORE>
-11.2486

>  <SCORE.INTER>
-8.85023

>  <SCORE.INTER.CONST>
1

>  <SCORE.INTER.POLAR>
0

>  <SCORE.INTER.ROT>
3

>  <SCORE.INTER.SOLV>
16.7885

>  <SCORE.INTER.VDW>
-17.0963

>  <SCORE.INTER.norm>
-0.402283

>  <SCORE.INTRA>
-2.39837

>  <SCORE.INTRA.DIHEDRAL>
-5.79842

>  <SCORE.INTRA.DIHEDRAL.0>
6.10773

>  <SCORE.INTRA.POLAR>
0

>  <SCORE.INTRA.POLAR.0>
0

>  <SCORE.INTRA.REPUL>
0

>  <SCORE.INTRA.REPUL.0>
0

>  <SCORE.INTRA.SOLV>
1.12541

>  <SCORE.INTRA.SOLV.lig_0>
-71.4024

>  <SCORE.INTRA.VDW>
-0.0618656

>  <SCORE.INTRA.VDW.0>
-1.86213

>  <SCORE.INTRA.norm>
-0.109017

>  <SCORE.RESTR>
0

>  <SCORE.RESTR.CAVITY>
0

>  <SCORE.RESTR.norm>
0

>  <SCORE.SYSTEM>
0

>  <SCORE.SYSTEM.CONST>
0

>  <SCORE.SYSTEM.DIHEDRAL>
0

>  <SCORE.SYSTEM.SOLV>
0

>  <SCORE.SYSTEM.norm>
0

>  <SCORE.heavy>
22

>  <SCORE.norm>
-0.5113

>  <RMSD>
3.921

$$$$
lig.pdb
 OpenBabel11021811523D
libRbt.so/2013.1/901 2013/11/27
 22 23  0  0  0  0  0  0  0  0999 V2000
   -6.6445   -1.3365    0.8373 C   0  0  1  0  0  0  0  0  0  0  0  0
   -6.3738    1.1485    0.4597 C   0  0  1  0  0  0  0  0  0  0  0  0
   -7.8406    1.5986    0.8877 C   0  0  1  0  0  0  0  0  0  0  0  0
   -7.7722    3.1277    1.3379 C   0  0  2  0  0  0  0  0  0  0  0  0
   -6.4621   -2.6611   -0.0007 C   0  0  1  0  0  0  0  0  0  0  0  0
   -7.4894   -2.6428   -1.1498 C   0  0  2  0  0  0  0  0  0  0  0  0
   -8.9266   -2.6103   -0.6004 C   0  0  2  0  0  0  0  0  0  0  0  0
   -9.1720   -1.3283    0.2763 C   0  0  1  0  0  0  0  0  0  0  0  0
  -10.6063   -1.3189    0.8793 C   0  0  0  0  0  0  0  0  0  0  0  0
   -6.8028    3.2584    2.6206 C   0  0  1  0  0  0  0  0  0  0  0  0
   -5.3338    2.7942    2.1513 C   0  0  0  0  0  0  0  0  0  0  0  0
   -5.3806    1.2751    1.6584 C   0  0  2  0  0  0  0  0  0  0  0  0
   -9.1794   -3.8027    0.2167 F   0  0  0  0  0  0  0  0  0  0  0  0
   -5.0385   -2.6897   -0.5165 N   0  0  0  0  0  0  0  0  0  0  0  0
  -10.8751   -0.2425    1.7554 N   0  0  0  0  0  0  0  0  0  0  0  0
   -6.6928    4.6875    3.0727 N   0  0  0  0  0  0  0  0  0  0  0  0
   -4.0309    0.8564    1.2280 N   0  0  0  0  0  0  0  0  0  0  0  0
   -6.3780   -0.2129    0.0578 O   0  0  0  0  0  0  0  0  0  0  0  0
   -8.7218    1.4665   -0.2965 O   0  0  0  0  0  0  0  0  0  0  0  0
   -9.0692    3.5002    1.6986 O   0  0  0  0  0  0  0  0  0  0  0  0
   -7.3561   -3.6102   -1.7580 O   0  0  0  0  0  0  0  0  0  0  0  0
   -8.0786   -1.3174    1.3600 O   0  0  0  0  0  0  0  0  0  0  0  0
  1  5  1  0  0  0  0
  1 18  1  6  0  0  0
  2 18  1  1  0  0  0
  2  3  1  0  0  0  0
  2 12  1  0  0  0  0
  3 19  1  6  0  0  0
  3  4  1  0  0  0  0
  4 20  1  1  0  0  0
  4 10  1  0  0  0  0
  5  6  1  0  0  0  0
  5 14  1  6  0  0  0
  6 21  1  1  0  0  0
  7 13  1  1  0  0  0
  7  6  1  0  0  0  0
  8  9  1  1  0  0  0
  8  7  1  0  0  0  0
 10 16  1  6  0  0  0
 11 10  1  0  0  0  0
 12 17  1  6  0  0  0
 12 11  1  0  0  0  0
 15  9  1  0  0  0  0
 22  8  1  0  0  0  0
 22  1  1  0  0  0  0
M  END
>  <CHROM.1>
-176.95239520,-65.17997764,175.89814433,-7.51229444,-0.06374129,0.71371052
-1.75440499,0.06566253,0.38707378

>  <Name>
lig.pdb

>  <RI>
0

>  <Rbt.Current_Directory>
/home/itssahil/PROJECTS/Mol_Feturizer/New_Systems/rnas/5bws

>  <Rbt.Executable>
rbdock ($Id: //depot/dev/client3/rdock/2013.1/src/exe/rbdock.cxx#4 $)

>  <Rbt.Library>
libRbt.so (2013.1, Build901 2013/11/27)

>  <Rbt.Parameter_File>
/export/apps/rDock/src/rDock_2013.1_src/data/scripts/dock_solv.prm

>  <Rbt.Receptor>
prm/pocket_docking_4.prm

>  <SCORE>
-11.2469

>  <SCORE.INTER>
-8.82811

>  <SCORE.INTER.CONST>
1

>  <SCORE.INTER.POLAR>
0

>  <SCORE.INTER.ROT>
3

>  <SCORE.INTER.SOLV>
16.7962

>  <SCORE.INTER.VDW>
-17.0842

>  <SCORE.INTER.norm>
-0.401278

>  <SCORE.INTRA>
-2.41881

>  <SCORE.INTRA.DIHEDRAL>
-5.86678

>  <SCORE.INTRA.DIHEDRAL.0>
6.10773

>  <SCORE.INTRA.POLAR>
0

>  <SCORE.INTRA.POLAR.0>
0

>  <SCORE.INTRA.REPUL>
0

>  <SCORE.INTRA.REPUL.0>
0

>  <SCORE.INTRA.SOLV>
1.14456

>  <SCORE.INTRA.SOLV.lig_0>
-71.4024

>  <SCORE.INTRA.VDW>
-0.0577032

>  <SCORE.INTRA.VDW.0>
-1.86213

>  <SCORE.INTRA.norm>
-0.109946

>  <SCORE.RESTR>
0

>  <SCORE.RESTR.CAVITY>
0

>  <SCORE.RESTR.norm>
0

>  <SCORE.SYSTEM>
0

>  <SCORE.SYSTEM.CONST>
0

>  <SCORE.SYSTEM.DIHEDRAL>
0

>  <SCORE.SYSTEM.SOLV>
0

>  <SCORE.SYSTEM.norm>
0

>  <SCORE.heavy>
22

>  <SCORE.norm>
-0.511224

>  <RMSD>
3.923

$$$$
lig.pdb
 OpenBabel11021811523D
libRbt.so/2013.1/901 2013/11/27
 22 23  0  0  0  0  0  0  0  0999 V2000
   -6.6330   -1.2957    0.8438 C   0  0  1  0  0  0  0  0  0  0  0  0
   -6.3369    1.1856    0.4608 C   0  0  1  0  0  0  0  0  0  0  0  0
   -7.7964    1.6769    0.8676 C   0  0  1  0  0  0  0  0  0  0  0  0
   -7.6915    3.2032    1.3201 C   0  0  2  0  0  0  0  0  0  0  0  0
   -6.5184   -2.6202   -0.0063 C   0  0  1  0  0  0  0  0  0  0  0  0
   -7.5936   -2.5722   -1.1099 C   0  0  2  0  0  0  0  0  0  0  0  0
   -9.0046   -2.5084   -0.4987 C   0  0  2  0  0  0  0  0  0  0  0  0
   -9.1814   -1.2252    0.3925 C   0  0  1  0  0  0  0  0  0  0  0  0
  -10.5877   -1.1849    1.0570 C   0  0  0  0  0  0  0  0  0  0  0  0
   -6.7377    3.3059    2.6169 C   0  0  1  0  0  0  0  0  0  0  0  0
   -5.2757    2.8005    2.1689 C   0  0  0  0  0  0  0  0  0  0  0  0
   -5.3582    1.2835    1.6740 C   0  0  2  0  0  0  0  0  0  0  0  0
   -9.2502   -3.6984    0.3240 F   0  0  0  0  0  0  0  0  0  0  0  0
   -5.1195   -2.6800   -0.5833 N   0  0  0  0  0  0  0  0  0  0  0  0
  -10.8145   -0.0729    1.9001 N   0  0  0  0  0  0  0  0  0  0  0  0
   -6.5939    4.7311    3.0718 N   0  0  0  0  0  0  0  0  0  0  0  0
   -4.0148    0.8270    1.2630 N   0  0  0  0  0  0  0  0  0  0  0  0
   -6.3737   -0.1750    0.0577 O   0  0  0  0  0  0  0  0  0  0  0  0
   -8.6636    1.5703   -0.3295 O   0  0  0  0  0  0  0  0  0  0  0  0
   -8.9826    3.6121    1.6620 O   0  0  0  0  0  0  0  0  0  0  0  0
   -7.5097   -3.5395   -1.7269 O   0  0  0  0  0  0  0  0  0  0  0  0
   -8.0423   -1.2453    1.4280 O   0  0  0  0  0  0  0  0  0  0  0  0
  1  5  1  0  0  0  0
  1 18  1  6  0  0  0
  2 18  1  1  0  0  0
  2  3  1  0  0  0  0
  2 12  1  0  0  0  0
  3 19  1  6  0  0  0
  3  4  1  0  0  0  0
  4 20  1  1  0  0  0
  4 10  1  0  0  0  0
  5  6  1  0  0  0  0
  5 14  1  6  0  0  0
  6 21  1  1  0  0  0
  7 13  1  1  0  0  0
  7  6  1  0  0  0  0
  8  9  1  1  0  0  0
  8  7  1  0  0  0  0
 10 16  1  6  0  0  0
 11 10  1  0  0  0  0
 12 17  1  6  0  0  0
 12 11  1  0  0  0  0
 15  9  1  0  0  0  0
 22  8  1  0  0  0  0
 22  1  1  0  0  0  0
M  END
>  <CHROM.1>
-177.84689006,-67.88538851,178.68499154,-7.50674906,0.00285953,0.74518477
-1.77202910,0.07625934,0.38330122

>  <Name>
lig.pdb

>  <RI>
0

>  <Rbt.Current_Directory>
/home/itssahil/PROJECTS/Mol_Feturizer/New_Systems/rnas/5bws

>  <Rbt.Executable>
rbdock ($Id: //depot/dev/client3/rdock/2013.1/src/exe/rbdock.cxx#4 $)

>  <Rbt.Library>
libRbt.so (2013.1, Build901 2013/11/27)

>  <Rbt.Parameter_File>
/export/apps/rDock/src/rDock_2013.1_src/data/scripts/dock_solv.prm

>  <Rbt.Receptor>
prm/pocket_docking_8.prm

>  <SCORE>
-11.2653

>  <SCORE.INTER>
-8.81861

>  <SCORE.INTER.CONST>
1

>  <SCORE.INTER.POLAR>
0

>  <SCORE.INTER.ROT>
3

>  <SCORE.INTER.SOLV>
16.4487

>  <SCORE.INTER.VDW>
-16.962

>  <SCORE.INTER.norm>
-0.400846

>  <SCORE.INTRA>
-2.44667

>  <SCORE.INTRA.DIHEDRAL>
-5.77349

>  <SCORE.INTRA.DIHEDRAL.0>
6.10773

>  <SCORE.INTRA.POLAR>
0

>  <SCORE.INTRA.POLAR.0>
0

>  <SCORE.INTRA.REPUL>
0

>  <SCORE.INTRA.REPUL.0>
0

>  <SCORE.INTRA.SOLV>
1.04837

>  <SCORE.INTRA.SOLV.lig_0>
-71.4024

>  <SCORE.INTRA.VDW>
-0.0841149

>  <SCORE.INTRA.VDW.0>
-1.86213

>  <SCORE.INTRA.norm>
-0.111212

>  <SCORE.RESTR>
0

>  <SCORE.RESTR.CAVITY>
0

>  <SCORE.RESTR.norm>
0

>  <SCORE.SYSTEM>
0

>  <SCORE.SYSTEM.CONST>
0

>  <SCORE.SYSTEM.DIHEDRAL>
0

>  <SCORE.SYSTEM.SOLV>
0

>  <SCORE.SYSTEM.norm>
0

>  <SCORE.heavy>
22

>  <SCORE.norm>
-0.512058

>  <RMSD>
3.925

$$$$
lig.pdb
 OpenBabel11021811523D
libRbt.so/2013.1/901 2013/11/27
 22 23  0  0  0  0  0  0  0  0999 V2000
   -6.6398   -1.2653    0.8537 C   0  0  1  0  0  0  0  0  0  0  0  0
   -6.3486    1.2173    0.4750 C   0  0  1  0  0  0  0  0  0  0  0  0
   -7.7996    1.7106    0.9090 C   0  0  1  0  0  0  0  0  0  0  0  0
   -7.6828    3.2346    1.3659 C   0  0  2  0  0  0  0  0  0  0  0  0
   -6.5169   -2.5880    0.0019 C   0  0  1  0  0  0  0  0  0  0  0  0
   -7.5987   -2.5498   -1.0956 C   0  0  2  0  0  0  0  0  0  0  0  0
   -9.0068   -2.5004   -0.4764 C   0  0  2  0  0  0  0  0  0  0  0  0
   -9.1913   -1.2196    0.4168 C   0  0  1  0  0  0  0  0  0  0  0  0
  -10.5941   -1.1936    1.0892 C   0  0  0  0  0  0  0  0  0  0  0  0
   -6.7065    3.3295    2.6465 C   0  0  1  0  0  0  0  0  0  0  0  0
   -5.2538    2.8222    2.1711 C   0  0  0  0  0  0  0  0  0  0  0  0
   -5.3489    1.3076    1.6715 C   0  0  2  0  0  0  0  0  0  0  0  0
   -9.2360   -3.6933    0.3467 F   0  0  0  0  0  0  0  0  0  0  0  0
   -5.1207   -2.6336   -0.5829 N   0  0  0  0  0  0  0  0  0  0  0  0
  -10.8193   -0.0959    1.9512 N   0  0  0  0  0  0  0  0  0  0  0  0
   -6.5512    4.7524    3.1047 N   0  0  0  0  0  0  0  0  0  0  0  0
   -4.0139    0.8493    1.2355 N   0  0  0  0  0  0  0  0  0  0  0  0
   -6.3960   -0.1415    0.0670 O   0  0  0  0  0  0  0  0  0  0  0  0
   -8.6876    1.6112   -0.2733 O   0  0  0  0  0  0  0  0  0  0  0  0
   -8.9667    3.6455    1.7318 O   0  0  0  0  0  0  0  0  0  0  0  0
   -7.5088   -3.5158   -1.7137 O   0  0  0  0  0  0  0  0  0  0  0  0
   -8.0462   -1.2292    1.4459 O   0  0  0  0  0  0  0  0  0  0  0  0
  1  5  1  0  0  0  0
  1 18  1  6  0  0  0
  2 18  1  1  0  0  0
  2  3  1  0  0  0  0
  2 12  1  0  0  0  0
  3 19  1  6  0  0  0
  3  4  1  0  0  0  0
  4 20  1  1  0  0  0
  4 10  1  0  0  0  0
  5  6  1  0  0  0  0
  5 14  1  6  0  0  0
  6 21  1  6  0  0  0
  7 13  1  1  0  0  0
  7  6  1  0  0  0  0
  8  9  1  1  0  0  0
  8  7  1  0  0  0  0
 10 16  1  6  0  0  0
 11 10  1  0  0  0  0
 12 17  1  6  0  0  0
 12 11  1  0  0  0  0
 15  9  1  0  0  0  0
 22  8  1  0  0  0  0
 22  1  1  0  0  0  0
M  END
>  <CHROM.1>
-176.71304499,-68.14101514,177.71294933,-7.50473936,0.02439251,0.76776786
-1.77684965,0.08801421,0.38643978

>  <Name>
lig.pdb

>  <RI>
0

>  <Rbt.Current_Directory>
/home/itssahil/PROJECTS/Mol_Feturizer/New_Systems/rnas/5bws

>  <Rbt.Executable>
rbdock ($Id: //depot/dev/client3/rdock/2013.1/src/exe/rbdock.cxx#4 $)

>  <Rbt.Library>
libRbt.so (2013.1, Build901 2013/11/27)

>  <Rbt.Parameter_File>
/export/apps/rDock/src/rDock_2013.1_src/data/scripts/dock_solv.prm

>  <Rbt.Receptor>
prm/pocket_docking_8.prm

>  <SCORE>
-11.2565

>  <SCORE.INTER>
-8.81686

>  <SCORE.INTER.CONST>
1

>  <SCORE.INTER.POLAR>
0

>  <SCORE.INTER.ROT>
3

>  <SCORE.INTER.SOLV>
16.593

>  <SCORE.INTER.VDW>
-17.0089

>  <SCORE.INTER.norm>
-0.400767

>  <SCORE.INTRA>
-2.43966

>  <SCORE.INTRA.DIHEDRAL>
-5.71081

>  <SCORE.INTRA.DIHEDRAL.0>
6.10773

>  <SCORE.INTRA.POLAR>
0

>  <SCORE.INTRA.POLAR.0>
0

>  <SCORE.INTRA.REPUL>
0

>  <SCORE.INTRA.REPUL.0>
0

>  <SCORE.INTRA.SOLV>
1.00906

>  <SCORE.INTRA.SOLV.lig_0>
-71.4024

>  <SCORE.INTRA.VDW>
-0.0887914

>  <SCORE.INTRA.VDW.0>
-1.86213

>  <SCORE.INTRA.norm>
-0.110894

>  <SCORE.RESTR>
0

>  <SCORE.RESTR.CAVITY>
0

>  <SCORE.RESTR.norm>
0

>  <SCORE.SYSTEM>
0

>  <SCORE.SYSTEM.CONST>
0

>  <SCORE.SYSTEM.DIHEDRAL>
0

>  <SCORE.SYSTEM.SOLV>
0

>  <SCORE.SYSTEM.norm>
0

>  <SCORE.heavy>
22

>  <SCORE.norm>
-0.51166

>  <RMSD>
3.927

$$$$
lig.pdb
 OpenBabel11021811523D
libRbt.so/2013.1/901 2013/11/27
 22 23  0  0  0  0  0  0  0  0999 V2000
   -6.6560   -1.2518    0.8606 C   0  0  1  0  0  0  0  0  0  0  0  0
   -6.3631    1.2315    0.4883 C   0  0  1  0  0  0  0  0  0  0  0  0
   -7.8142    1.7084    0.9399 C   0  0  1  0  0  0  0  0  0  0  0  0
   -7.7086    3.2331    1.3975 C   0  0  2  0  0  0  0  0  0  0  0  0
   -6.5071   -2.5743    0.0128 C   0  0  1  0  0  0  0  0  0  0  0  0
   -7.5642   -2.5423   -1.1088 C   0  0  2  0  0  0  0  0  0  0  0  0
   -8.9861   -2.4999   -0.5214 C   0  0  2  0  0  0  0  0  0  0  0  0
   -9.1972   -1.2196    0.3666 C   0  0  1  0  0  0  0  0  0  0  0  0
  -10.6149   -1.2006    1.0073 C   0  0  0  0  0  0  0  0  0  0  0  0
   -6.7185    3.3370    2.6668 C   0  0  1  0  0  0  0  0  0  0  0  0
   -5.2660    2.8461    2.1738 C   0  0  0  0  0  0  0  0  0  0  0  0
   -5.3504    1.3312    1.6732 C   0  0  2  0  0  0  0  0  0  0  0  0
   -9.2275   -3.6935    0.2972 F   0  0  0  0  0  0  0  0  0  0  0  0
   -5.0980   -2.6129   -0.5406 N   0  0  0  0  0  0  0  0  0  0  0  0
  -10.8636   -0.1059    1.8667 N   0  0  0  0  0  0  0  0  0  0  0  0
   -6.5733    4.7609    3.1252 N   0  0  0  0  0  0  0  0  0  0  0  0
   -4.0158    0.8880    1.2209 N   0  0  0  0  0  0  0  0  0  0  0  0
   -6.4004   -0.1272    0.0789 O   0  0  0  0  0  0  0  0  0  0  0  0
   -8.7148    1.6010   -0.2321 O   0  0  0  0  0  0  0  0  0  0  0  0
   -8.9925    3.6295    1.7790 O   0  0  0  0  0  0  0  0  0  0  0  0
   -7.4554   -3.5082   -1.7241 O   0  0  0  0  0  0  0  0  0  0  0  0
   -8.0755   -1.2227    1.4211 O   0  0  0  0  0  0  0  0  0  0  0  0
  1  5  1  0  0  0  0
  1 18  1  6  0  0  0
  2 18  1  1  0  0  0
  2  3  1  0  0  0  0
  2 12  1  0  0  0  0
  3 19  1  6  0  0  0
  3  4  1  0  0  0  0
  4 20  1  1  0  0  0
  4 10  1  0  0  0  0
  5  6  1  0  0  0  0
  5 14  1  6  0  0  0
  6 21  1  6  0  0  0
  7 13  1  1  0  0  0
  7  6  1  0  0  0  0
  8  9  1  1  0  0  0
  8  7  1  0  0  0  0
 10 16  1  6  0  0  0
 11 10  1  0  0  0  0
 12 17  1  6  0  0  0
 12 11  1  0  0  0  0
 15  9  1  0  0  0  0
 22  8  1  0  0  0  0
 22  1  1  0  0  0  0
M  END
>  <CHROM.1>
-176.38568978,-66.37454510,177.51693144,-7.51050069,0.03102272,0.76321002
-1.77398631,0.07978637,0.39078952

>  <Name>
lig.pdb

>  <RI>
0

>  <Rbt.Current_Directory>
/home/itssahil/PROJECTS/Mol_Feturizer/New_Systems/rnas/5bws

>  <Rbt.Executable>
rbdock ($Id: //depot/dev/client3/rdock/2013.1/src/exe/rbdock.cxx#4 $)

>  <Rbt.Library>
libRbt.so (2013.1, Build901 2013/11/27)

>  <Rbt.Parameter_File>
/export/apps/rDock/src/rDock_2013.1_src/data/scripts/dock_solv.prm

>  <Rbt.Receptor>
prm/pocket_docking_7.prm

>  <SCORE>
-11.2589

>  <SCORE.INTER>
-8.81841

>  <SCORE.INTER.CONST>
1

>  <SCORE.INTER.POLAR>
0

>  <SCORE.INTER.ROT>
3

>  <SCORE.INTER.SOLV>
16.7489

>  <SCORE.INTER.VDW>
-17.0619

>  <SCORE.INTER.norm>
-0.400837

>  <SCORE.INTRA>
-2.44049

>  <SCORE.INTRA.DIHEDRAL>
-5.81973

>  <SCORE.INTRA.DIHEDRAL.0>
6.10773

>  <SCORE.INTRA.POLAR>
0

>  <SCORE.INTRA.POLAR.0>
0

>  <SCORE.INTRA.REPUL>
0

>  <SCORE.INTRA.REPUL.0>
0

>  <SCORE.INTRA.SOLV>
1.09345

>  <SCORE.INTRA.SOLV.lig_0>
-71.4024

>  <SCORE.INTRA.VDW>
-0.0773462

>  <SCORE.INTRA.VDW.0>
-1.86213

>  <SCORE.INTRA.norm>
-0.110931

>  <SCORE.RESTR>
0

>  <SCORE.RESTR.CAVITY>
0

>  <SCORE.RESTR.norm>
0

>  <SCORE.SYSTEM>
0

>  <SCORE.SYSTEM.CONST>
0

>  <SCORE.SYSTEM.DIHEDRAL>
0

>  <SCORE.SYSTEM.SOLV>
0

>  <SCORE.SYSTEM.norm>
0

>  <SCORE.heavy>
22

>  <SCORE.norm>
-0.511768

>  <RMSD>
3.931

$$$$
lig.pdb
 OpenBabel11021811523D
libRbt.so/2013.1/901 2013/11/27
 22 23  0  0  0  0  0  0  0  0999 V2000
   -6.6492   -1.2611    0.8665 C   0  0  1  0  0  0  0  0  0  0  0  0
   -6.3608    1.2219    0.4886 C   0  0  1  0  0  0  0  0  0  0  0  0
   -7.8104    1.7055    0.9377 C   0  0  1  0  0  0  0  0  0  0  0  0
   -7.6990    3.2303    1.3937 C   0  0  2  0  0  0  0  0  0  0  0  0
   -6.5270   -2.5834    0.0141 C   0  0  1  0  0  0  0  0  0  0  0  0
   -7.6077   -2.5432   -1.0845 C   0  0  2  0  0  0  0  0  0  0  0  0
   -9.0163   -2.4925   -0.4668 C   0  0  2  0  0  0  0  0  0  0  0  0
   -9.2002   -1.2121    0.4270 C   0  0  1  0  0  0  0  0  0  0  0  0
  -10.6037   -1.1848    1.0980 C   0  0  0  0  0  0  0  0  0  0  0  0
   -6.7102    3.3314    2.6641 C   0  0  1  0  0  0  0  0  0  0  0  0
   -5.2591    2.8339    2.1736 C   0  0  0  0  0  0  0  0  0  0  0  0
   -5.3493    1.3187    1.6747 C   0  0  2  0  0  0  0  0  0  0  0  0
   -9.2478   -3.6857    0.3554 F   0  0  0  0  0  0  0  0  0  0  0  0
   -5.1303   -2.6303   -0.5693 N   0  0  0  0  0  0  0  0  0  0  0  0
  -10.8382   -0.0733    1.9394 N   0  0  0  0  0  0  0  0  0  0  0  0
   -6.5596    4.7553    3.1210 N   0  0  0  0  0  0  0  0  0  0  0  0
   -4.0159    0.8694    1.2248 N   0  0  0  0  0  0  0  0  0  0  0  0
   -6.4033   -0.1371    0.0808 O   0  0  0  0  0  0  0  0  0  0  0  0
   -8.7099    1.6004   -0.2354 O   0  0  0  0  0  0  0  0  0  0  0  0
   -8.9818    3.6325    1.7729 O   0  0  0  0  0  0  0  0  0  0  0  0
   -7.5182   -3.5090   -1.7031 O   0  0  0  0  0  0  0  0  0  0  0  0
   -8.0563   -1.2237    1.4573 O   0  0  0  0  0  0  0  0  0  0  0  0
  1  5  1  0  0  0  0
  1 18  1  6  0  0  0
  2 18  1  1  0  0  0
  2  3  1  0  0  0  0
  2 12  1  0  0  0  0
  3 19  1  6  0  0  0
  3  4  1  0  0  0  0
  4 20  1  1  0  0  0
  4 10  1  0  0  0  0
  5  6  1  0  0  0  0
  5 14  1  6  0  0  0
  6 21  1  6  0  0  0
  7 13  1  1  0  0  0
  7  6  1  0  0  0  0
  8  9  1  1  0  0  0
  8  7  1  0  0  0  0
 10 16  1  6  0  0  0
 11 10  1  0  0  0  0
 12 17  1  6  0  0  0
 12 11  1  0  0  0  0
 15  9  1  0  0  0  0
 22  8  1  0  0  0  0
 22  1  1  0  0  0  0
M  END
>  <CHROM.1>
-177.02596661,-67.19702800,178.92597029,-7.51489047,0.02920564,0.78108429
-1.77756341,0.08928088,0.38860139

>  <Name>
lig.pdb

>  <RI>
0

>  <Rbt.Current_Directory>
/home/itssahil/PROJECTS/Mol_Feturizer/New_Systems/rnas/5bws

>  <Rbt.Executable>
rbdock ($Id: //depot/dev/client3/rdock/2013.1/src/exe/rbdock.cxx#4 $)

>  <Rbt.Library>
libRbt.so (2013.1, Build901 2013/11/27)

>  <Rbt.Parameter_File>
/export/apps/rDock/src/rDock_2013.1_src/data/scripts/dock_solv.prm

>  <Rbt.Receptor>
prm/pocket_docking_6.prm

>  <SCORE>
-11.2591

>  <SCORE.INTER>
-8.79532

>  <SCORE.INTER.CONST>
1

>  <SCORE.INTER.POLAR>
0

>  <SCORE.INTER.ROT>
3

>  <SCORE.INTER.SOLV>
16.7051

>  <SCORE.INTER.VDW>
-17.0319

>  <SCORE.INTER.norm>
-0.399787

>  <SCORE.INTRA>
-2.46383

>  <SCORE.INTRA.DIHEDRAL>
-5.80477

>  <SCORE.INTRA.DIHEDRAL.0>
6.10773

>  <SCORE.INTRA.POLAR>
0

>  <SCORE.INTRA.POLAR.0>
0

>  <SCORE.INTRA.REPUL>
0

>  <SCORE.INTRA.REPUL.0>
0

>  <SCORE.INTRA.SOLV>
1.06536

>  <SCORE.INTRA.SOLV.lig_0>
-71.4024

>  <SCORE.INTRA.VDW>
-0.0941195

>  <SCORE.INTRA.VDW.0>
-1.86213

>  <SCORE.INTRA.norm>
-0.111992

>  <SCORE.RESTR>
0

>  <SCORE.RESTR.CAVITY>
0

>  <SCORE.RESTR.norm>
0

>  <SCORE.SYSTEM>
0

>  <SCORE.SYSTEM.CONST>
0

>  <SCORE.SYSTEM.DIHEDRAL>
0

>  <SCORE.SYSTEM.SOLV>
0

>  <SCORE.SYSTEM.norm>
0

>  <SCORE.heavy>
22

>  <SCORE.norm>
-0.511779

>  <RMSD>
3.935

$$$$
lig.pdb
 OpenBabel11021811523D
libRbt.so/2013.1/901 2013/11/27
 22 23  0  0  0  0  0  0  0  0999 V2000
   -6.6621   -1.1797    0.9303 C   0  0  1  0  0  0  0  0  0  0  0  0
   -6.4169    1.3084    0.5552 C   0  0  1  0  0  0  0  0  0  0  0  0
   -7.8878    1.7607    0.9659 C   0  0  1  0  0  0  0  0  0  0  0  0
   -7.8216    3.2882    1.4215 C   0  0  2  0  0  0  0  0  0  0  0  0
   -6.5141   -2.4993    0.0777 C   0  0  1  0  0  0  0  0  0  0  0  0
   -7.5813   -2.4698   -1.0343 C   0  0  2  0  0  0  0  0  0  0  0  0
   -8.9981   -2.4361   -0.4343 C   0  0  2  0  0  0  0  0  0  0  0  0
   -9.2077   -1.1591    0.4589 C   0  0  1  0  0  0  0  0  0  0  0  0
  -10.6198   -1.1489    1.1122 C   0  0  0  0  0  0  0  0  0  0  0  0
   -6.8683    3.4129    2.7168 C   0  0  1  0  0  0  0  0  0  0  0  0
   -5.3946    2.9465    2.2649 C   0  0  0  0  0  0  0  0  0  0  0  0
   -5.4387    1.4290    1.7668 C   0  0  2  0  0  0  0  0  0  0  0  0
   -9.2262   -3.6330    0.3834 F   0  0  0  0  0  0  0  0  0  0  0  0
   -5.1097   -2.5293   -0.4882 N   0  0  0  0  0  0  0  0  0  0  0  0
  -10.8777   -0.0410    1.9516 N   0  0  0  0  0  0  0  0  0  0  0  0
   -6.7607    4.8403    3.1746 N   0  0  0  0  0  0  0  0  0  0  0  0
   -4.0846    1.0083    1.3523 N   0  0  0  0  0  0  0  0  0  0  0  0
   -6.4192   -0.0518    0.1492 O   0  0  0  0  0  0  0  0  0  0  0  0
   -8.7543    1.6343   -0.2298 O   0  0  0  0  0  0  0  0  0  0  0  0
   -9.1222    3.6628    1.7668 O   0  0  0  0  0  0  0  0  0  0  0  0
   -7.4731   -3.4336   -1.6531 O   0  0  0  0  0  0  0  0  0  0  0  0
   -8.0767   -1.1592    1.5034 O   0  0  0  0  0  0  0  0  0  0  0  0
  1  5  1  0  0  0  0
  1 18  1  6  0  0  0
  2 18  1  1  0  0  0
  2  3  1  0  0  0  0
  2 12  1  0  0  0  0
  3 19  1  6  0  0  0
  3  4  1  0  0  0  0
  4 20  1  1  0  0  0
  4 10  1  0  0  0  0
  5  6  1  0  0  0  0
  5 14  1  6  0  0  0
  6 21  1  6  0  0  0
  7 13  1  1  0  0  0
  7  6  1  0  0  0  0
  8  9  1  1  0  0  0
  8  7  1  0  0  0  0
 10 16  1  6  0  0  0
 11 10  1  0  0  0  0
 12 17  1  6  0  0  0
 12 11  1  0  0  0  0
 15  9  1  0  0  0  0
 22  8  1  0  0  0  0
 22  1  1  0  0  0  0
M  END
>  <CHROM.1>
-178.05426516,-67.12154693,178.95510832,-7.56164282,0.10055272,0.82932644
-1.75093111,0.07960439,0.38571031

>  <Name>
lig.pdb

>  <RI>
0

>  <Rbt.Current_Directory>
/home/itssahil/PROJECTS/Mol_Feturizer/New_Systems/rnas/5bws

>  <Rbt.Executable>
rbdock ($Id: //depot/dev/client3/rdock/2013.1/src/exe/rbdock.cxx#4 $)

>  <Rbt.Library>
libRbt.so (2013.1, Build901 2013/11/27)

>  <Rbt.Parameter_File>
/export/apps/rDock/src/rDock_2013.1_src/data/scripts/dock_solv.prm

>  <Rbt.Receptor>
prm/pocket_docking_8.prm

>  <SCORE>
-11.2059

>  <SCORE.INTER>
-8.76728

>  <SCORE.INTER.CONST>
1

>  <SCORE.INTER.POLAR>
0

>  <SCORE.INTER.ROT>
3

>  <SCORE.INTER.SOLV>
16.6088

>  <SCORE.INTER.VDW>
-16.9811

>  <SCORE.INTER.norm>
-0.398513

>  <SCORE.INTRA>
-2.43857

>  <SCORE.INTRA.DIHEDRAL>
-5.83509

>  <SCORE.INTRA.DIHEDRAL.0>
6.10773

>  <SCORE.INTRA.POLAR>
0

>  <SCORE.INTRA.POLAR.0>
0

>  <SCORE.INTRA.REPUL>
0

>  <SCORE.INTRA.REPUL.0>
0

>  <SCORE.INTRA.SOLV>
1.09567

>  <SCORE.INTRA.SOLV.lig_0>
-71.4024

>  <SCORE.INTRA.VDW>
-0.0688602

>  <SCORE.INTRA.VDW.0>
-1.86213

>  <SCORE.INTRA.norm>
-0.110844

>  <SCORE.RESTR>
0

>  <SCORE.RESTR.CAVITY>
0

>  <SCORE.RESTR.norm>
0

>  <SCORE.SYSTEM>
0

>  <SCORE.SYSTEM.CONST>
0

>  <SCORE.SYSTEM.DIHEDRAL>
0

>  <SCORE.SYSTEM.SOLV>
0

>  <SCORE.SYSTEM.norm>
0

>  <SCORE.heavy>
22

>  <SCORE.norm>
-0.509357

>  <RMSD>
4.004

$$$$
lig.pdb
 OpenBabel11021811523D
libRbt.so/2013.1/901 2013/11/27
 22 23  0  0  0  0  0  0  0  0999 V2000
   -7.6877    2.2908    0.2577 C   0  0  1  0  0  0  0  0  0  0  0  0
   -5.4631    2.4552    1.4473 C   0  0  1  0  0  0  0  0  0  0  0  0
   -4.9841    3.0112    2.8610 C   0  0  1  0  0  0  0  0  0  0  0  0
   -3.3888    2.9990    2.8775 C   0  0  2  0  0  0  0  0  0  0  0  0
   -9.0720    3.0219    0.4562 C   0  0  1  0  0  0  0  0  0  0  0  0
   -9.8012    2.3488    1.6358 C   0  0  2  0  0  0  0  0  0  0  0  0
  -10.0751    0.8644    1.3363 C   0  0  2  0  0  0  0  0  0  0  0  0
   -8.7364    0.0761    1.0937 C   0  0  1  0  0  0  0  0  0  0  0  0
   -9.0112   -1.4130    0.7359 C   0  0  0  0  0  0  0  0  0  0  0  0
   -2.8700    1.4794    2.7235 C   0  0  1  0  0  0  0  0  0  0  0  0
   -3.3736    0.9519    1.2876 C   0  0  0  0  0  0  0  0  0  0  0  0
   -4.9698    0.9894    1.2293 C   0  0  2  0  0  0  0  0  0  0  0  0
  -10.9244    0.7402    0.1461 F   0  0  0  0  0  0  0  0  0  0  0  0
   -8.7878    4.4843    0.7286 N   0  0  0  0  0  0  0  0  0  0  0  0
   -7.8539   -2.1920    0.5069 N   0  0  0  0  0  0  0  0  0  0  0  0
   -1.3683    1.4181    2.7166 N   0  0  0  0  0  0  0  0  0  0  0  0
   -5.4248    0.5062   -0.0904 N   0  0  0  0  0  0  0  0  0  0  0  0
   -6.8811    2.4365    1.3843 O   0  0  0  0  0  0  0  0  0  0  0  0
   -5.4734    4.4038    2.9929 O   0  0  0  0  0  0  0  0  0  0  0  0
   -2.9946    3.4985    4.1210 O   0  0  0  0  0  0  0  0  0  0  0  0
  -10.8108    2.8819    1.7772 O   0  0  0  0  0  0  0  0  0  0  0  0
   -7.9815    0.8194   -0.0234 O   0  0  0  0  0  0  0  0  0  0  0  0
  1  5  1  0  0  0  0
  1 18  1  1  0  0  0
  2 18  1  1  0  0  0
  2  3  1  0  0  0  0
  2 12  1  0  0  0  0
  3 19  1  6  0  0  0
  3  4  1  0  0  0  0
  4 20  1  1  0  0  0
  4 10  1  0  0  0  0
  5  6  1  0  0  0  0
  5 14  1  1  0  0  0
  6 21  1  6  0  0  0
  7 13  1  6  0  0  0
  7  6  1  0  0  0  0
  8  9  1  6  0  0  0
  8  7  1  0  0  0  0
 10 16  1  6  0  0  0
 11 10  1  0  0  0  0
 12 17  1  6  0  0  0
 12 11  1  0  0  0  0
 15  9  1  0  0  0  0
 22  8  1  0  0  0  0
 22  1  1  0  0  0  0
M  END
>  <CHROM.1>
-151.11533309,165.50518384,-179.79352135,-6.79501709,1.74175809,1.45727655
2.87729261,0.21732944,-2.80546688

>  <Name>
lig.pdb

>  <RI>
0

>  <Rbt.Current_Directory>
/home/itssahil/PROJECTS/Mol_Feturizer/New_Systems/rnas/5bws

>  <Rbt.Executable>
rbdock ($Id: //depot/dev/client3/rdock/2013.1/src/exe/rbdock.cxx#4 $)

>  <Rbt.Library>
libRbt.so (2013.1, Build901 2013/11/27)

>  <Rbt.Parameter_File>
/export/apps/rDock/src/rDock_2013.1_src/data/scripts/dock_solv.prm

>  <Rbt.Receptor>
prm/pocket_docking_7.prm

>  <SCORE>
-5.80536

>  <SCORE.INTER>
-6.3999

>  <SCORE.INTER.CONST>
1

>  <SCORE.INTER.POLAR>
0

>  <SCORE.INTER.ROT>
3

>  <SCORE.INTER.SOLV>
10.3833

>  <SCORE.INTER.VDW>
-13.3277

>  <SCORE.INTER.norm>
-0.290904

>  <SCORE.INTRA>
0.594537

>  <SCORE.INTRA.DIHEDRAL>
-1.72809

>  <SCORE.INTRA.DIHEDRAL.0>
6.10773

>  <SCORE.INTRA.POLAR>
0

>  <SCORE.INTRA.POLAR.0>
0

>  <SCORE.INTRA.REPUL>
0

>  <SCORE.INTRA.REPUL.0>
0

>  <SCORE.INTRA.SOLV>
2.08043

>  <SCORE.INTRA.SOLV.lig_0>
-71.4024

>  <SCORE.INTRA.VDW>
0.418364

>  <SCORE.INTRA.VDW.0>
-1.86213

>  <SCORE.INTRA.norm>
0.0270244

>  <SCORE.RESTR>
0

>  <SCORE.RESTR.CAVITY>
0

>  <SCORE.RESTR.norm>
0

>  <SCORE.SYSTEM>
0

>  <SCORE.SYSTEM.CONST>
0

>  <SCORE.SYSTEM.DIHEDRAL>
0

>  <SCORE.SYSTEM.SOLV>
0

>  <SCORE.SYSTEM.norm>
0

>  <SCORE.heavy>
22

>  <SCORE.norm>
-0.26388

>  <RMSD>
4.007

$$$$
lig.pdb
 OpenBabel11021811523D
libRbt.so/2013.1/901 2013/11/27
 22 23  0  0  0  0  0  0  0  0999 V2000
   -7.4437    1.9601    0.5977 C   0  0  1  0  0  0  0  0  0  0  0  0
   -5.6116    1.4801    2.2723 C   0  0  1  0  0  0  0  0  0  0  0  0
   -5.2561    0.0358    1.7024 C   0  0  1  0  0  0  0  0  0  0  0  0
   -3.7680   -0.3176    2.1562 C   0  0  2  0  0  0  0  0  0  0  0  0
   -8.8592    2.6572    0.6154 C   0  0  1  0  0  0  0  0  0  0  0  0
   -9.8211    1.7614    1.4208 C   0  0  2  0  0  0  0  0  0  0  0  0
   -9.9687    0.3802    0.7582 C   0  0  2  0  0  0  0  0  0  0  0  0
   -8.5852   -0.3624    0.6759 C   0  0  1  0  0  0  0  0  0  0  0  0
   -8.7198   -1.7356   -0.0431 C   0  0  0  0  0  0  0  0  0  0  0  0
   -2.7494    0.7524    1.5084 C   0  0  1  0  0  0  0  0  0  0  0  0
   -3.1397    2.1966    2.1046 C   0  0  0  0  0  0  0  0  0  0  0  0
   -4.6412    2.5600    1.6967 C   0  0  2  0  0  0  0  0  0  0  0  0
  -10.5122    0.5282   -0.5967 F   0  0  0  0  0  0  0  0  0  0  0  0
   -8.6946    4.0224    1.2499 N   0  0  0  0  0  0  0  0  0  0  0  0
   -7.5217   -2.4810   -0.1290 N   0  0  0  0  0  0  0  0  0  0  0  0
   -1.3324    0.4702    1.9222 N   0  0  0  0  0  0  0  0  0  0  0  0
   -4.9932    3.8846    2.2479 N   0  0  0  0  0  0  0  0  0  0  0  0
   -6.9274    1.8475    1.8869 O   0  0  0  0  0  0  0  0  0  0  0  0
   -6.2032   -0.9356    2.2989 O   0  0  0  0  0  0  0  0  0  0  0  0
   -3.4843   -1.5894    1.6533 O   0  0  0  0  0  0  0  0  0  0  0  0
  -10.8527    2.2703    1.4304 O   0  0  0  0  0  0  0  0  0  0  0  0
   -7.6153    0.5882   -0.0493 O   0  0  0  0  0  0  0  0  0  0  0  0
  1  5  1  0  0  0  0
  1 18  1  1  0  0  0
  2 18  1  6  0  0  0
  2  3  1  0  0  0  0
  2 12  1  0  0  0  0
  3 19  1  1  0  0  0
  3  4  1  0  0  0  0
  4 20  1  6  0  0  0
  4 10  1  0  0  0  0
  5  6  1  0  0  0  0
  5 14  1  1  0  0  0
  6 21  1  6  0  0  0
  7 13  1  6  0  0  0
  7  6  1  0  0  0  0
  8  9  1  6  0  0  0
  8  7  1  0  0  0  0
 10 16  1  1  0  0  0
 11 10  1  0  0  0  0
 12 17  1  1  0  0  0
 12 11  1  0  0  0  0
 15  9  1  0  0  0  0
 22  8  1  0  0  0  0
 22  1  1  0  0  0  0
M  END
>  <CHROM.1>
-169.10308529,-58.45021281,-178.55845002,-6.74036935,0.88098969,1.21851136
-3.11886501,0.22253492,-2.92859489

>  <Name>
lig.pdb

>  <RI>
0

>  <Rbt.Current_Directory>
/home/itssahil/PROJECTS/Mol_Feturizer/New_Systems/rnas/5bws

>  <Rbt.Executable>
rbdock ($Id: //depot/dev/client3/rdock/2013.1/src/exe/rbdock.cxx#4 $)

>  <Rbt.Library>
libRbt.so (2013.1, Build901 2013/11/27)

>  <Rbt.Parameter_File>
/export/apps/rDock/src/rDock_2013.1_src/data/scripts/dock_solv.prm

>  <Rbt.Receptor>
prm/pocket_docking_6.prm

>  <SCORE>
-8.54304

>  <SCORE.INTER>
-6.40416

>  <SCORE.INTER.CONST>
1

>  <SCORE.INTER.POLAR>
0

>  <SCORE.INTER.ROT>
3

>  <SCORE.INTER.SOLV>
14.0967

>  <SCORE.INTER.VDW>
-14.5683

>  <SCORE.INTER.norm>
-0.291098

>  <SCORE.INTRA>
-2.13888

>  <SCORE.INTRA.DIHEDRAL>
-5.51566

>  <SCORE.INTRA.DIHEDRAL.0>
6.10773

>  <SCORE.INTRA.POLAR>
0

>  <SCORE.INTRA.POLAR.0>
0

>  <SCORE.INTRA.REPUL>
0

>  <SCORE.INTRA.REPUL.0>
0

>  <SCORE.INTRA.SOLV>
1.39263

>  <SCORE.INTRA.SOLV.lig_0>
-71.4024

>  <SCORE.INTRA.VDW>
-0.0773618

>  <SCORE.INTRA.VDW.0>
-1.86213

>  <SCORE.INTRA.norm>
-0.0972218

>  <SCORE.RESTR>
0

>  <SCORE.RESTR.CAVITY>
0

>  <SCORE.RESTR.norm>
0

>  <SCORE.SYSTEM>
0

>  <SCORE.SYSTEM.CONST>
0

>  <SCORE.SYSTEM.DIHEDRAL>
0

>  <SCORE.SYSTEM.SOLV>
0

>  <SCORE.SYSTEM.norm>
0

>  <SCORE.heavy>
22

>  <SCORE.norm>
-0.38832

>  <RMSD>
4.029

$$$$
lig.pdb
 OpenBabel11021811523D
libRbt.so/2013.1/901 2013/11/27
 22 23  0  0  0  0  0  0  0  0999 V2000
   -9.3251   -1.0102   -0.0426 C   0  0  1  0  0  0  0  0  0  0  0  0
   -7.8435    0.8103   -0.9818 C   0  0  1  0  0  0  0  0  0  0  0  0
   -8.9168    1.9575   -1.2445 C   0  0  1  0  0  0  0  0  0  0  0  0
   -8.3428    2.9139   -2.3852 C   0  0  2  0  0  0  0  0  0  0  0  0
   -9.5915   -1.6718    1.3650 C   0  0  1  0  0  0  0  0  0  0  0  0
   -8.3096   -2.4134    1.7927 C   0  0  2  0  0  0  0  0  0  0  0  0
   -7.9606   -3.5283    0.7908 C   0  0  2  0  0  0  0  0  0  0  0  0
   -7.7133   -2.9438   -0.6477 C   0  0  1  0  0  0  0  0  0  0  0  0
   -7.4145   -4.0729   -1.6757 C   0  0  0  0  0  0  0  0  0  0  0  0
   -6.9790    3.5996   -1.8636 C   0  0  1  0  0  0  0  0  0  0  0  0
   -5.9216    2.4122   -1.6076 C   0  0  0  0  0  0  0  0  0  0  0  0
   -6.4890    1.4162   -0.4946 C   0  0  2  0  0  0  0  0  0  0  0  0
   -9.0523   -4.5067    0.7272 F   0  0  0  0  0  0  0  0  0  0  0  0
   -9.9543   -0.5664    2.3345 N   0  0  0  0  0  0  0  0  0  0  0  0
   -6.2540   -4.8327   -1.4028 N   0  0  0  0  0  0  0  0  0  0  0  0
   -6.3896    4.4994   -2.9132 N   0  0  0  0  0  0  0  0  0  0  0  0
   -5.5154    0.3289   -0.2659 N   0  0  0  0  0  0  0  0  0  0  0  0
   -8.3037   -0.0659    0.0358 O   0  0  0  0  0  0  0  0  0  0  0  0
  -10.1661    1.3141   -1.7153 O   0  0  0  0  0  0  0  0  0  0  0  0
   -9.3041    3.9036   -2.6031 O   0  0  0  0  0  0  0  0  0  0  0  0
   -8.5068   -2.8968    2.8179 O   0  0  0  0  0  0  0  0  0  0  0  0
   -8.9671   -2.1300   -1.0163 O   0  0  0  0  0  0  0  0  0  0  0  0
  1  5  1  0  0  0  0
  1 18  1  1  0  0  0
  2 18  1  1  0  0  0
  2  3  1  0  0  0  0
  2 12  1  0  0  0  0
  3 19  1  6  0  0  0
  3  4  1  0  0  0  0
  4 20  1  1  0  0  0
  4 10  1  0  0  0  0
  5  6  1  0  0  0  0
  5 14  1  1  0  0  0
  6 21  1  1  0  0  0
  7 13  1  6  0  0  0
  7  6  1  0  0  0  0
  8  9  1  6  0  0  0
  8  7  1  0  0  0  0
 10 16  1  6  0  0  0
 11 10  1  0  0  0  0
 12 17  1  6  0  0  0
 12 11  1  0  0  0  0
 15  9  1  0  0  0  0
 22  8  1  0  0  0  0
 22  1  1  0  0  0  0
M  END
>  <CHROM.1>
-174.72986246,72.12002761,-61.69943688,-8.09991464,-0.40295360,-0.48435136
1.68559570,-0.65740962,2.83131820

>  <Name>
lig.pdb

>  <RI>
0

>  <Rbt.Current_Directory>
/home/itssahil/PROJECTS/Mol_Feturizer/New_Systems/rnas/5bws

>  <Rbt.Executable>
rbdock ($Id: //depot/dev/client3/rdock/2013.1/src/exe/rbdock.cxx#4 $)

>  <Rbt.Library>
libRbt.so (2013.1, Build901 2013/11/27)

>  <Rbt.Parameter_File>
/export/apps/rDock/src/rDock_2013.1_src/data/scripts/dock_solv.prm

>  <Rbt.Receptor>
prm/pocket_docking_7.prm

>  <SCORE>
-9.75405

>  <SCORE.INTER>
-6.94535

>  <SCORE.INTER.CONST>
1

>  <SCORE.INTER.POLAR>
0

>  <SCORE.INTER.ROT>
3

>  <SCORE.INTER.SOLV>
14.9046

>  <SCORE.INTER.VDW>
-15.1984

>  <SCORE.INTER.norm>
-0.315698

>  <SCORE.INTRA>
-2.80869

>  <SCORE.INTRA.DIHEDRAL>
-5.25778

>  <SCORE.INTRA.DIHEDRAL.0>
6.10773

>  <SCORE.INTRA.POLAR>
0

>  <SCORE.INTRA.POLAR.0>
0

>  <SCORE.INTRA.REPUL>
0

>  <SCORE.INTRA.REPUL.0>
0

>  <SCORE.INTRA.SOLV>
-0.85047

>  <SCORE.INTRA.SOLV.lig_0>
-71.4024

>  <SCORE.INTRA.VDW>
0.245431

>  <SCORE.INTRA.VDW.0>
-1.86213

>  <SCORE.INTRA.norm>
-0.127668

>  <SCORE.RESTR>
0

>  <SCORE.RESTR.CAVITY>
0

>  <SCORE.RESTR.norm>
0

>  <SCORE.SYSTEM>
0

>  <SCORE.SYSTEM.CONST>
0

>  <SCORE.SYSTEM.DIHEDRAL>
0

>  <SCORE.SYSTEM.SOLV>
0

>  <SCORE.SYSTEM.norm>
0

>  <SCORE.heavy>
22

>  <SCORE.norm>
-0.443366

>  <RMSD>
4.071

$$$$
lig.pdb
 OpenBabel11021811523D
libRbt.so/2013.1/901 2013/11/27
 22 23  0  0  0  0  0  0  0  0999 V2000
   -6.5225   -0.3085    1.2802 C   0  0  1  0  0  0  0  0  0  0  0  0
   -6.1632    2.1740    0.9652 C   0  0  1  0  0  0  0  0  0  0  0  0
   -7.6762    2.6081    1.2090 C   0  0  1  0  0  0  0  0  0  0  0  0
   -7.6803    4.1376    1.6626 C   0  0  2  0  0  0  0  0  0  0  0  0
   -6.1811   -1.6354    0.4972 C   0  0  1  0  0  0  0  0  0  0  0  0
   -6.9596   -1.6169   -0.8331 C   0  0  2  0  0  0  0  0  0  0  0  0
   -8.4772   -1.5796   -0.5802 C   0  0  2  0  0  0  0  0  0  0  0  0
   -8.8882   -0.2951    0.2282 C   0  0  1  0  0  0  0  0  0  0  0  0
  -10.4136   -0.2807    0.5342 C   0  0  0  0  0  0  0  0  0  0  0  0
   -6.8776    4.2786    3.0546 C   0  0  1  0  0  0  0  0  0  0  0  0
   -5.3571    3.8305    2.7701 C   0  0  0  0  0  0  0  0  0  0  0  0
   -5.3265    2.3111    2.2768 C   0  0  2  0  0  0  0  0  0  0  0  0
   -8.8908   -2.7695    0.1722 F   0  0  0  0  0  0  0  0  0  0  0  0
   -4.6836   -1.6688    0.2745 N   0  0  0  0  0  0  0  0  0  0  0  0
  -10.8421   -1.2562    1.4635 N   0  0  0  0  0  0  0  0  0  0  0  0
   -6.8395    5.7087    3.5153 N   0  0  0  0  0  0  0  0  0  0  0  0
   -3.9296    1.9072    2.0161 N   0  0  0  0  0  0  0  0  0  0  0  0
   -6.1032    0.8127    0.5673 O   0  0  0  0  0  0  0  0  0  0  0  0
   -8.4037    2.4667   -0.0744 O   0  0  0  0  0  0  0  0  0  0  0  0
   -9.0158    4.4960    1.8606 O   0  0  0  0  0  0  0  0  0  0  0  0
   -6.7111   -2.5859   -1.4011 O   0  0  0  0  0  0  0  0  0  0  0  0
   -8.0318   -0.2847    1.5075 O   0  0  0  0  0  0  0  0  0  0  0  0
  1  5  1  0  0  0  0
  1 18  1  6  0  0  0
  2 18  1  1  0  0  0
  2  3  1  0  0  0  0
  2 12  1  0  0  0  0
  3 19  1  6  0  0  0
  3  4  1  0  0  0  0
  4 20  1  1  0  0  0
  4 10  1  0  0  0  0
  5  6  1  0  0  0  0
  5 14  1  6  0  0  0
  6 21  1  1  0  0  0
  7 13  1  1  0  0  0
  7  6  1  0  0  0  0
  8  9  1  1  0  0  0
  8  7  1  0  0  0  0
 10 16  1  6  0  0  0
 11 10  1  0  0  0  0
 12 17  1  6  0  0  0
 12 11  1  0  0  0  0
 15  9  1  0  0  0  0
 22  8  1  0  0  0  0
 22  1  1  0  0  0  0
M  END
>  <CHROM.1>
-176.28835228,-61.15779978,69.21616264,-7.31576798,0.86989165,1.01469862
-1.75602635,-0.04458268,0.38566468

>  <Name>
lig.pdb

>  <RI>
0

>  <Rbt.Current_Directory>
/home/itssahil/PROJECTS/Mol_Feturizer/New_Systems/rnas/5bws

>  <Rbt.Executable>
rbdock ($Id: //depot/dev/client3/rdock/2013.1/src/exe/rbdock.cxx#4 $)

>  <Rbt.Library>
libRbt.so (2013.1, Build901 2013/11/27)

>  <Rbt.Parameter_File>
/export/apps/rDock/src/rDock_2013.1_src/data/scripts/dock_solv.prm

>  <Rbt.Receptor>
prm/pocket_docking_7.prm

>  <SCORE>
-9.00801

>  <SCORE.INTER>
-6.99269

>  <SCORE.INTER.CONST>
1

>  <SCORE.INTER.POLAR>
0

>  <SCORE.INTER.ROT>
3

>  <SCORE.INTER.SOLV>
17.5175

>  <SCORE.INTER.VDW>
-16.101

>  <SCORE.INTER.norm>
-0.317849

>  <SCORE.INTRA>
-2.01532

>  <SCORE.INTRA.DIHEDRAL>
-5.73003

>  <SCORE.INTRA.DIHEDRAL.0>
6.10773

>  <SCORE.INTRA.POLAR>
0

>  <SCORE.INTRA.POLAR.0>
0

>  <SCORE.INTRA.REPUL>
0

>  <SCORE.INTRA.REPUL.0>
0

>  <SCORE.INTRA.SOLV>
1.28369

>  <SCORE.INTRA.SOLV.lig_0>
-71.4024

>  <SCORE.INTRA.VDW>
0.20785

>  <SCORE.INTRA.VDW.0>
-1.86213

>  <SCORE.INTRA.norm>
-0.0916057

>  <SCORE.RESTR>
0

>  <SCORE.RESTR.CAVITY>
0

>  <SCORE.RESTR.norm>
0

>  <SCORE.SYSTEM>
0

>  <SCORE.SYSTEM.CONST>
0

>  <SCORE.SYSTEM.DIHEDRAL>
0

>  <SCORE.SYSTEM.SOLV>
0

>  <SCORE.SYSTEM.norm>
0

>  <SCORE.heavy>
22

>  <SCORE.norm>
-0.409455

>  <RMSD>
4.147

$$$$
lig.pdb
 OpenBabel11021811523D
libRbt.so/2013.1/901 2013/11/27
 22 23  0  0  0  0  0  0  0  0999 V2000
   -6.5569   -0.7617    1.0535 C   0  0  1  0  0  0  0  0  0  0  0  0
   -7.1852    1.5768    1.7801 C   0  0  1  0  0  0  0  0  0  0  0  0
   -5.7060    2.1668    1.8087 C   0  0  1  0  0  0  0  0  0  0  0  0
   -5.7043    3.4390    2.7714 C   0  0  2  0  0  0  0  0  0  0  0  0
   -6.8256   -1.6977   -0.1882 C   0  0  1  0  0  0  0  0  0  0  0  0
   -8.3316   -2.0254   -0.2204 C   0  0  2  0  0  0  0  0  0  0  0  0
   -8.7571   -2.7759    1.0541 C   0  0  2  0  0  0  0  0  0  0  0  0
   -8.4864   -1.9127    2.3401 C   0  0  1  0  0  0  0  0  0  0  0  0
   -8.8635   -2.6891    3.6347 C   0  0  0  0  0  0  0  0  0  0  0  0
   -6.6909    4.5622    2.1653 C   0  0  1  0  0  0  0  0  0  0  0  0
   -8.1723    3.9306    2.1501 C   0  0  0  0  0  0  0  0  0  0  0  0
   -8.1941    2.6303    1.2219 C   0  0  2  0  0  0  0  0  0  0  0  0
   -8.0189   -4.0394    1.1633 F   0  0  0  0  0  0  0  0  0  0  0  0
   -6.3828   -0.9552   -1.4316 N   0  0  0  0  0  0  0  0  0  0  0  0
   -8.5596   -2.0165    4.8404 N   0  0  0  0  0  0  0  0  0  0  0  0
   -6.7359    5.7770    3.0490 N   0  0  0  0  0  0  0  0  0  0  0  0
   -9.5548    2.0552    1.2137 N   0  0  0  0  0  0  0  0  0  0  0  0
   -7.2433    0.4441    0.9265 O   0  0  0  0  0  0  0  0  0  0  0  0
   -4.8094    1.1234    2.3598 O   0  0  0  0  0  0  0  0  0  0  0  0
   -4.3972    3.9313    2.7868 O   0  0  0  0  0  0  0  0  0  0  0  0
   -8.5248   -2.7095   -1.1248 O   0  0  0  0  0  0  0  0  0  0  0  0
   -6.9987   -1.5185    2.3034 O   0  0  0  0  0  0  0  0  0  0  0  0
  1  5  1  0  0  0  0
  1 18  1  6  0  0  0
  2 18  1  6  0  0  0
  2  3  1  0  0  0  0
  2 12  1  0  0  0  0
  3 19  1  1  0  0  0
  3  4  1  0  0  0  0
  4 20  1  6  0  0  0
  4 10  1  0  0  0  0
  5  6  1  0  0  0  0
  5 14  1  6  0  0  0
  6 21  1  6  0  0  0
  7 13  1  1  0  0  0
  7  6  1  0  0  0  0
  8  9  1  1  0  0  0
  8  7  1  0  0  0  0
 10 16  1  1  0  0  0
 11 10  1  0  0  0  0
 12 17  1  1  0  0  0
 12 11  1  0  0  0  0
 15  9  1  0  0  0  0
 22  8  1  0  0  0  0
 22  1  1  0  0  0  0
M  END
>  <CHROM.1>
-175.11050644,61.71440668,175.67749566,-7.28902825,0.30903159,1.61590232
-2.33233728,1.19318259,0.92809733

>  <Name>
lig.pdb

>  <RI>
0

>  <Rbt.Current_Directory>
/home/itssahil/PROJECTS/Mol_Feturizer/New_Systems/rnas/5bws

>  <Rbt.Executable>
rbdock ($Id: //depot/dev/client3/rdock/2013.1/src/exe/rbdock.cxx#4 $)

>  <Rbt.Library>
libRbt.so (2013.1, Build901 2013/11/27)

>  <Rbt.Parameter_File>
/export/apps/rDock/src/rDock_2013.1_src/data/scripts/dock_solv.prm

>  <Rbt.Receptor>
prm/pocket_docking_6.prm

>  <SCORE>
-10.6995

>  <SCORE.INTER>
-7.38261

>  <SCORE.INTER.CONST>
1

>  <SCORE.INTER.POLAR>
0

>  <SCORE.INTER.ROT>
3

>  <SCORE.INTER.SOLV>
21.3907

>  <SCORE.INTER.VDW>
-17.652

>  <SCORE.INTER.norm>
-0.335573

>  <SCORE.INTRA>
-3.3169

>  <SCORE.INTRA.DIHEDRAL>
-5.90555

>  <SCORE.INTRA.DIHEDRAL.0>
6.10773

>  <SCORE.INTRA.POLAR>
0

>  <SCORE.INTRA.POLAR.0>
0

>  <SCORE.INTRA.REPUL>
0

>  <SCORE.INTRA.REPUL.0>
0

>  <SCORE.INTRA.SOLV>
-1.54065

>  <SCORE.INTRA.SOLV.lig_0>
-71.4024

>  <SCORE.INTRA.VDW>
0.406203

>  <SCORE.INTRA.VDW.0>
-1.86213

>  <SCORE.INTRA.norm>
-0.150768

>  <SCORE.RESTR>
0

>  <SCORE.RESTR.CAVITY>
0

>  <SCORE.RESTR.norm>
0

>  <SCORE.SYSTEM>
0

>  <SCORE.SYSTEM.CONST>
0

>  <SCORE.SYSTEM.DIHEDRAL>
0

>  <SCORE.SYSTEM.SOLV>
0

>  <SCORE.SYSTEM.norm>
0

>  <SCORE.heavy>
22

>  <SCORE.norm>
-0.486341

>  <RMSD>
4.349

$$$$
lig.pdb
 OpenBabel11021811523D
libRbt.so/2013.1/901 2013/11/27
 22 23  0  0  0  0  0  0  0  0999 V2000
   -6.5297   -0.6197    0.9022 C   0  0  1  0  0  0  0  0  0  0  0  0
   -7.1728    1.6867    1.7133 C   0  0  1  0  0  0  0  0  0  0  0  0
   -5.7004    2.2917    1.7677 C   0  0  1  0  0  0  0  0  0  0  0  0
   -5.7138    3.5239    2.7809 C   0  0  2  0  0  0  0  0  0  0  0  0
   -6.9523   -1.5955   -0.2637 C   0  0  1  0  0  0  0  0  0  0  0  0
   -8.4536   -1.9065   -0.1036 C   0  0  2  0  0  0  0  0  0  0  0  0
   -8.7287   -2.6068    1.2389 C   0  0  2  0  0  0  0  0  0  0  0  0
   -8.2993   -1.7023    2.4513 C   0  0  1  0  0  0  0  0  0  0  0  0
   -8.5241   -2.4284    3.8089 C   0  0  0  0  0  0  0  0  0  0  0  0
   -6.7125    4.6595    2.2193 C   0  0  1  0  0  0  0  0  0  0  0  0
   -8.1867    4.0125    2.1766 C   0  0  0  0  0  0  0  0  0  0  0  0
   -8.1931    2.7505    1.1967 C   0  0  2  0  0  0  0  0  0  0  0  0
   -7.9922   -3.8742    1.3048 F   0  0  0  0  0  0  0  0  0  0  0  0
   -6.6564   -0.9022   -1.5772 N   0  0  0  0  0  0  0  0  0  0  0  0
   -9.8718   -2.4947    4.2308 N   0  0  0  0  0  0  0  0  0  0  0  0
   -6.7720    5.8371    3.1512 N   0  0  0  0  0  0  0  0  0  0  0  0
   -9.5472    2.1610    1.1635 N   0  0  0  0  0  0  0  0  0  0  0  0
   -7.2174    0.5888    0.8147 O   0  0  0  0  0  0  0  0  0  0  0  0
   -4.7926    1.2370    2.2774 O   0  0  0  0  0  0  0  0  0  0  0  0
   -4.4124    4.0298    2.8179 O   0  0  0  0  0  0  0  0  0  0  0  0
   -8.7590   -2.6196   -0.9531 O   0  0  0  0  0  0  0  0  0  0  0  0
   -6.8239   -1.3271    2.2226 O   0  0  0  0  0  0  0  0  0  0  0  0
  1  5  1  0  0  0  0
  1 18  1  1  0  0  0
  2 18  1  6  0  0  0
  2  3  1  0  0  0  0
  2 12  1  0  0  0  0
  3 19  1  1  0  0  0
  3  4  1  0  0  0  0
  4 20  1  6  0  0  0
  4 10  1  0  0  0  0
  5  6  1  0  0  0  0
  5 14  1  6  0  0  0
  6 21  1  6  0  0  0
  7 13  1  6  0  0  0
  7  6  1  0  0  0  0
  8  9  1  1  0  0  0
  8  7  1  0  0  0  0
 10 16  1  1  0  0  0
 11 10  1  0  0  0  0
 12 17  1  1  0  0  0
 12 11  1  0  0  0  0
 15  9  1  0  0  0  0
 22  8  1  0  0  0  0
 22  1  1  0  0  0  0
M  END
>  <CHROM.1>
176.11437801,62.55067652,-75.57686070,-7.34741433,0.40857580,1.60316773,-2.13222909
1.02118816,0.68024497

>  <Name>
lig.pdb

>  <RI>
0

>  <Rbt.Current_Directory>
/home/itssahil/PROJECTS/Mol_Feturizer/New_Systems/rnas/5bws

>  <Rbt.Executable>
rbdock ($Id: //depot/dev/client3/rdock/2013.1/src/exe/rbdock.cxx#4 $)

>  <Rbt.Library>
libRbt.so (2013.1, Build901 2013/11/27)

>  <Rbt.Parameter_File>
/export/apps/rDock/src/rDock_2013.1_src/data/scripts/dock_solv.prm

>  <Rbt.Receptor>
prm/pocket_docking_5.prm

>  <SCORE>
-11.2248

>  <SCORE.INTER>
-8.34445

>  <SCORE.INTER.CONST>
1

>  <SCORE.INTER.POLAR>
0

>  <SCORE.INTER.ROT>
3

>  <SCORE.INTER.SOLV>
21.266

>  <SCORE.INTER.VDW>
-18.2516

>  <SCORE.INTER.norm>
-0.379293

>  <SCORE.INTRA>
-2.88034

>  <SCORE.INTRA.DIHEDRAL>
-5.16713

>  <SCORE.INTRA.DIHEDRAL.0>
6.10773

>  <SCORE.INTRA.POLAR>
0

>  <SCORE.INTRA.POLAR.0>
0

>  <SCORE.INTRA.REPUL>
0

>  <SCORE.INTRA.REPUL.0>
0

>  <SCORE.INTRA.SOLV>
-1.37102

>  <SCORE.INTRA.SOLV.lig_0>
-71.4024

>  <SCORE.INTRA.VDW>
0.388739

>  <SCORE.INTRA.VDW.0>
-1.86213

>  <SCORE.INTRA.norm>
-0.130924

>  <SCORE.RESTR>
0

>  <SCORE.RESTR.CAVITY>
0

>  <SCORE.RESTR.norm>
0

>  <SCORE.SYSTEM>
0

>  <SCORE.SYSTEM.CONST>
0

>  <SCORE.SYSTEM.DIHEDRAL>
0

>  <SCORE.SYSTEM.SOLV>
0

>  <SCORE.SYSTEM.norm>
0

>  <SCORE.heavy>
22

>  <SCORE.norm>
-0.510218

>  <RMSD>
4.390

$$$$
lig.pdb
 OpenBabel11021811523D
libRbt.so/2013.1/901 2013/11/27
 22 23  0  0  0  0  0  0  0  0999 V2000
   -6.9306    2.7908    0.6983 C   0  0  1  0  0  0  0  0  0  0  0  0
   -4.6538    1.8943    1.3337 C   0  0  1  0  0  0  0  0  0  0  0  0
   -4.4852    2.7153    2.6882 C   0  0  1  0  0  0  0  0  0  0  0  0
   -2.9261    2.8094    3.0134 C   0  0  2  0  0  0  0  0  0  0  0  0
   -8.3114    2.1964    0.2186 C   0  0  1  0  0  0  0  0  0  0  0  0
   -8.0619    1.3977   -1.0761 C   0  0  2  0  0  0  0  0  0  0  0  0
   -7.5145    2.3110   -2.1872 C   0  0  2  0  0  0  0  0  0  0  0  0
   -6.1499    2.9674   -1.7639 C   0  0  1  0  0  0  0  0  0  0  0  0
   -5.6204    3.9347   -2.8615 C   0  0  0  0  0  0  0  0  0  0  0  0
   -2.3427    1.3227    3.2408 C   0  0  1  0  0  0  0  0  0  0  0  0
   -2.5318    0.5244    1.8550 C   0  0  0  0  0  0  0  0  0  0  0  0
   -4.0842    0.4479    1.4847 C   0  0  2  0  0  0  0  0  0  0  0  0
   -8.4819    3.3728   -2.4872 F   0  0  0  0  0  0  0  0  0  0  0  0
   -8.8478    1.3178    1.3293 N   0  0  0  0  0  0  0  0  0  0  0  0
   -6.4614    5.0370   -3.1376 N   0  0  0  0  0  0  0  0  0  0  0  0
   -0.8691    1.3584    3.5343 N   0  0  0  0  0  0  0  0  0  0  0  0
   -4.2504   -0.2838    0.2122 N   0  0  0  0  0  0  0  0  0  0  0  0
   -6.0291    1.7733    1.0034 O   0  0  0  0  0  0  0  0  0  0  0  0
   -5.0315    4.0752    2.4682 O   0  0  0  0  0  0  0  0  0  0  0  0
   -2.8046    3.5400    4.1976 O   0  0  0  0  0  0  0  0  0  0  0  0
   -9.0700    0.9673   -1.4252 O   0  0  0  0  0  0  0  0  0  0  0  0
   -6.3992    3.6806   -0.4225 O   0  0  0  0  0  0  0  0  0  0  0  0
  1  5  1  0  0  0  0
  1 18  1  6  0  0  0
  2 18  1  1  0  0  0
  2  3  1  0  0  0  0
  2 12  1  0  0  0  0
  3 19  1  6  0  0  0
  3  4  1  0  0  0  0
  4 20  1  1  0  0  0
  4 10  1  0  0  0  0
  5  6  1  0  0  0  0
  5 14  1  1  0  0  0
  6 21  1  6  0  0  0
  7 13  1  1  0  0  0
  7  6  1  0  0  0  0
  8  9  1  6  0  0  0
  8  7  1  0  0  0  0
 10 16  1  6  0  0  0
 11 10  1  0  0  0  0
 12 17  1  6  0  0  0
 12 11  1  0  0  0  0
 15  9  1  0  0  0  0
 22  8  1  0  0  0  0
 22  1  1  0  0  0  0
M  END
>  <CHROM.1>
172.97172975,63.19173866,61.99941616,-5.59588603,2.31989895,0.50602254,2.59034865
-0.55444540,-0.68461860

>  <Name>
lig.pdb

>  <RI>
0

>  <Rbt.Current_Directory>
/home/itssahil/PROJECTS/Mol_Feturizer/New_Systems/rnas/5bws

>  <Rbt.Executable>
rbdock ($Id: //depot/dev/client3/rdock/2013.1/src/exe/rbdock.cxx#4 $)

>  <Rbt.Library>
libRbt.so (2013.1, Build901 2013/11/27)

>  <Rbt.Parameter_File>
/export/apps/rDock/src/rDock_2013.1_src/data/scripts/dock_solv.prm

>  <Rbt.Receptor>
prm/pocket_docking_7.prm

>  <SCORE>
-6.71898

>  <SCORE.INTER>
-4.20927

>  <SCORE.INTER.CONST>
1

>  <SCORE.INTER.POLAR>
0

>  <SCORE.INTER.ROT>
3

>  <SCORE.INTER.SOLV>
13.125

>  <SCORE.INTER.VDW>
-12.7812

>  <SCORE.INTER.norm>
-0.19133

>  <SCORE.INTRA>
-2.50971

>  <SCORE.INTRA.DIHEDRAL>
-5.79966

>  <SCORE.INTRA.DIHEDRAL.0>
6.10773

>  <SCORE.INTRA.POLAR>
0

>  <SCORE.INTRA.POLAR.0>
0

>  <SCORE.INTRA.REPUL>
0

>  <SCORE.INTRA.REPUL.0>
0

>  <SCORE.INTRA.SOLV>
0.161517

>  <SCORE.INTRA.SOLV.lig_0>
-71.4024

>  <SCORE.INTRA.VDW>
0.309362

>  <SCORE.INTRA.VDW.0>
-1.86213

>  <SCORE.INTRA.norm>
-0.114078

>  <SCORE.RESTR>
0

>  <SCORE.RESTR.CAVITY>
0

>  <SCORE.RESTR.norm>
0

>  <SCORE.SYSTEM>
0

>  <SCORE.SYSTEM.CONST>
0

>  <SCORE.SYSTEM.DIHEDRAL>
0

>  <SCORE.SYSTEM.SOLV>
0

>  <SCORE.SYSTEM.norm>
0

>  <SCORE.heavy>
22

>  <SCORE.norm>
-0.305408

>  <RMSD>
4.450

$$$$
lig.pdb
 OpenBabel11021811523D
libRbt.so/2013.1/901 2013/11/27
 22 23  0  0  0  0  0  0  0  0999 V2000
   -5.4512    0.2423    1.7924 C   0  0  1  0  0  0  0  0  0  0  0  0
   -5.7541    2.7158    1.3670 C   0  0  1  0  0  0  0  0  0  0  0  0
   -7.3434    2.6919    1.4701 C   0  0  1  0  0  0  0  0  0  0  0  0
   -7.8344    4.1696    1.8171 C   0  0  2  0  0  0  0  0  0  0  0  0
   -4.5501   -0.9213    1.2230 C   0  0  1  0  0  0  0  0  0  0  0  0
   -4.9910   -1.1985   -0.2278 C   0  0  2  0  0  0  0  0  0  0  0  0
   -6.4601   -1.6541   -0.2772 C   0  0  2  0  0  0  0  0  0  0  0  0
   -7.4177   -0.5526    0.3078 C   0  0  1  0  0  0  0  0  0  0  0  0
   -8.8982   -1.0309    0.3110 C   0  0  0  0  0  0  0  0  0  0  0  0
   -7.2358    4.6028    3.2510 C   0  0  1  0  0  0  0  0  0  0  0  0
   -5.6316    4.6138    3.1090 C   0  0  0  0  0  0  0  0  0  0  0  0
   -5.1147    3.1519    2.7237 C   0  0  2  0  0  0  0  0  0  0  0  0
   -6.6289   -2.8912    0.4936 F   0  0  0  0  0  0  0  0  0  0  0  0
   -3.1071   -0.4677    1.2977 N   0  0  0  0  0  0  0  0  0  0  0  0
   -9.8234   -0.0954    0.8282 N   0  0  0  0  0  0  0  0  0  0  0  0
   -7.6582    5.9985    3.6148 N   0  0  0  0  0  0  0  0  0  0  0  0
   -3.6434    3.1694    2.5933 N   0  0  0  0  0  0  0  0  0  0  0  0
   -5.2639    1.4176    1.0681 O   0  0  0  0  0  0  0  0  0  0  0  0
   -7.8799    2.2854    0.1497 O   0  0  0  0  0  0  0  0  0  0  0  0
   -9.2284    4.1241    1.8926 O   0  0  0  0  0  0  0  0  0  0  0  0
   -4.3344   -2.0484   -0.6401 O   0  0  0  0  0  0  0  0  0  0  0  0
   -6.9029   -0.2240    1.7210 O   0  0  0  0  0  0  0  0  0  0  0  0
  1  5  1  0  0  0  0
  1 18  1  6  0  0  0
  2 18  1  1  0  0  0
  2  3  1  0  0  0  0
  2 12  1  0  0  0  0
  3 19  1  6  0  0  0
  3  4  1  0  0  0  0
  4 20  1  1  0  0  0
  4 10  1  0  0  0  0
  5  6  1  0  0  0  0
  5 14  1  6  0  0  0
  6 21  1  1  0  0  0
  7 13  1  1  0  0  0
  7  6  1  0  0  0  0
  8  9  1  1  0  0  0
  8  7  1  0  0  0  0
 10 16  1  6  0  0  0
 11 10  1  0  0  0  0
 12 17  1  6  0  0  0
 12 11  1  0  0  0  0
 15  9  1  0  0  0  0
 22  8  1  0  0  0  0
 22  1  1  0  0  0  0
M  END
>  <CHROM.1>
-171.24387726,-57.96558809,179.78391145,-6.43559024,1.20408966,1.32860687
-1.37960090,-0.12840773,0.39377905

>  <Name>
lig.pdb

>  <RI>
0

>  <Rbt.Current_Directory>
/home/itssahil/PROJECTS/Mol_Feturizer/New_Systems/rnas/5bws

>  <Rbt.Executable>
rbdock ($Id: //depot/dev/client3/rdock/2013.1/src/exe/rbdock.cxx#4 $)

>  <Rbt.Library>
libRbt.so (2013.1, Build901 2013/11/27)

>  <Rbt.Parameter_File>
/export/apps/rDock/src/rDock_2013.1_src/data/scripts/dock_solv.prm

>  <Rbt.Receptor>
prm/pocket_docking_6.prm

>  <SCORE>
-9.51458

>  <SCORE.INTER>
-7.32018

>  <SCORE.INTER.CONST>
1

>  <SCORE.INTER.POLAR>
0

>  <SCORE.INTER.ROT>
3

>  <SCORE.INTER.SOLV>
18.5611

>  <SCORE.INTER.VDW>
-16.6671

>  <SCORE.INTER.norm>
-0.332735

>  <SCORE.INTRA>
-2.1944

>  <SCORE.INTRA.DIHEDRAL>
-5.71276

>  <SCORE.INTRA.DIHEDRAL.0>
6.10773

>  <SCORE.INTRA.POLAR>
0

>  <SCORE.INTRA.POLAR.0>
0

>  <SCORE.INTRA.REPUL>
0

>  <SCORE.INTRA.REPUL.0>
0

>  <SCORE.INTRA.SOLV>
1.37076

>  <SCORE.INTRA.SOLV.lig_0>
-71.4024

>  <SCORE.INTRA.VDW>
-0.023405

>  <SCORE.INTRA.VDW.0>
-1.86213

>  <SCORE.INTRA.norm>
-0.0997456

>  <SCORE.RESTR>
0

>  <SCORE.RESTR.CAVITY>
0

>  <SCORE.RESTR.norm>
0

>  <SCORE.SYSTEM>
0

>  <SCORE.SYSTEM.CONST>
0

>  <SCORE.SYSTEM.DIHEDRAL>
0

>  <SCORE.SYSTEM.SOLV>
0

>  <SCORE.SYSTEM.norm>
0

>  <SCORE.heavy>
22

>  <SCORE.norm>
-0.432481

>  <RMSD>
4.463

$$$$
lig.pdb
 OpenBabel11021811523D
libRbt.so/2013.1/901 2013/11/27
 22 23  0  0  0  0  0  0  0  0999 V2000
   -6.7312   -0.7848    0.4976 C   0  0  1  0  0  0  0  0  0  0  0  0
   -7.1245    1.6513   -0.0520 C   0  0  1  0  0  0  0  0  0  0  0  0
   -6.0651    2.2944    0.9485 C   0  0  1  0  0  0  0  0  0  0  0  0
   -6.5203    3.7941    1.2468 C   0  0  2  0  0  0  0  0  0  0  0  0
   -6.4433   -2.1150   -0.3010 C   0  0  1  0  0  0  0  0  0  0  0  0
   -7.6010   -2.3334   -1.2952 C   0  0  2  0  0  0  0  0  0  0  0  0
   -8.9393   -2.4934   -0.5523 C   0  0  2  0  0  0  0  0  0  0  0  0
   -9.2766   -1.2127    0.2952 C   0  0  1  0  0  0  0  0  0  0  0  0
  -10.6011   -1.3916    1.0917 C   0  0  0  0  0  0  0  0  0  0  0  0
   -6.5006    4.6363   -0.1289 C   0  0  1  0  0  0  0  0  0  0  0  0
   -7.5794    3.9574   -1.1133 C   0  0  0  0  0  0  0  0  0  0  0  0
   -7.1681    2.4402   -1.3993 C   0  0  2  0  0  0  0  0  0  0  0  0
   -8.8820   -3.6557    0.3416 F   0  0  0  0  0  0  0  0  0  0  0  0
   -5.1146   -1.9511   -1.0089 N   0  0  0  0  0  0  0  0  0  0  0  0
  -10.9189   -0.3246    1.9630 N   0  0  0  0  0  0  0  0  0  0  0  0
   -6.9396    6.0555    0.0988 N   0  0  0  0  0  0  0  0  0  0  0  0
   -8.1622    1.8232   -2.3011 N   0  0  0  0  0  0  0  0  0  0  0  0
   -6.7587    0.3143   -0.3582 O   0  0  0  0  0  0  0  0  0  0  0  0
   -6.0876    1.5075    2.2041 O   0  0  0  0  0  0  0  0  0  0  0  0
   -5.5826    4.3317    2.1315 O   0  0  0  0  0  0  0  0  0  0  0  0
   -7.3903   -3.3046   -1.8746 O   0  0  0  0  0  0  0  0  0  0  0  0
   -8.0677   -0.9592    1.2142 O   0  0  0  0  0  0  0  0  0  0  0  0
  1  5  1  0  0  0  0
  1 18  1  6  0  0  0
  2 18  1  6  0  0  0
  2  3  1  0  0  0  0
  2 12  1  0  0  0  0
  3 19  1  1  0  0  0
  3  4  1  0  0  0  0
  4 20  1  1  0  0  0
  4 10  1  0  0  0  0
  5  6  1  0  0  0  0
  5 14  1  6  0  0  0
  6 21  1  1  0  0  0
  7 13  1  1  0  0  0
  7  6  1  0  0  0  0
  8  9  1  1  0  0  0
  8  7  1  0  0  0  0
 10 16  1  1  0  0  0
 11 10  1  0  0  0  0
 12 17  1  6  0  0  0
 12 11  1  0  0  0  0
 15  9  1  0  0  0  0
 22  8  1  0  0  0  0
 22  1  1  0  0  0  0
M  END
>  <CHROM.1>
172.67170962,66.71104955,175.14645591,-7.48314642,0.48447290,0.10258043,-1.87838081
0.57355748,0.26916135

>  <Name>
lig.pdb

>  <RI>
0

>  <Rbt.Current_Directory>
/home/itssahil/PROJECTS/Mol_Feturizer/New_Systems/rnas/5bws

>  <Rbt.Executable>
rbdock ($Id: //depot/dev/client3/rdock/2013.1/src/exe/rbdock.cxx#4 $)

>  <Rbt.Library>
libRbt.so (2013.1, Build901 2013/11/27)

>  <Rbt.Parameter_File>
/export/apps/rDock/src/rDock_2013.1_src/data/scripts/dock_solv.prm

>  <Rbt.Receptor>
prm/pocket_docking_8.prm

>  <SCORE>
-7.69695

>  <SCORE.INTER>
-4.50672

>  <SCORE.INTER.CONST>
1

>  <SCORE.INTER.POLAR>
0

>  <SCORE.INTER.ROT>
3

>  <SCORE.INTER.SOLV>
16.6943

>  <SCORE.INTER.VDW>
-14.1692

>  <SCORE.INTER.norm>
-0.204851

>  <SCORE.INTRA>
-3.19023

>  <SCORE.INTRA.DIHEDRAL>
-5.53824

>  <SCORE.INTRA.DIHEDRAL.0>
6.10773

>  <SCORE.INTRA.POLAR>
0

>  <SCORE.INTRA.POLAR.0>
0

>  <SCORE.INTRA.REPUL>
0

>  <SCORE.INTRA.REPUL.0>
0

>  <SCORE.INTRA.SOLV>
-1.3629

>  <SCORE.INTRA.SOLV.lig_0>
-71.4024

>  <SCORE.INTRA.VDW>
0.260343

>  <SCORE.INTRA.VDW.0>
-1.86213

>  <SCORE.INTRA.norm>
-0.14501

>  <SCORE.RESTR>
0

>  <SCORE.RESTR.CAVITY>
0

>  <SCORE.RESTR.norm>
0

>  <SCORE.SYSTEM>
0

>  <SCORE.SYSTEM.CONST>
0

>  <SCORE.SYSTEM.DIHEDRAL>
0

>  <SCORE.SYSTEM.SOLV>
0

>  <SCORE.SYSTEM.norm>
0

>  <SCORE.heavy>
22

>  <SCORE.norm>
-0.349861

>  <RMSD>
4.477

$$$$
lig.pdb
 OpenBabel11021811523D
libRbt.so/2013.1/901 2013/11/27
 22 23  0  0  0  0  0  0  0  0999 V2000
   -8.3533    2.5502   -0.7293 C   0  0  1  0  0  0  0  0  0  0  0  0
   -6.5189    3.2141    0.8787 C   0  0  1  0  0  0  0  0  0  0  0  0
   -6.4512    3.7548    2.3753 C   0  0  1  0  0  0  0  0  0  0  0  0
   -4.9136    3.9183    2.7683 C   0  0  2  0  0  0  0  0  0  0  0  0
   -9.7154    3.2455   -1.1182 C   0  0  1  0  0  0  0  0  0  0  0  0
  -10.7539    2.8984   -0.0332 C   0  0  2  0  0  0  0  0  0  0  0  0
  -10.9874    1.3789    0.0367 C   0  0  2  0  0  0  0  0  0  0  0  0
   -9.6592    0.6145    0.3889 C   0  0  1  0  0  0  0  0  0  0  0  0
   -9.8781   -0.9259    0.4061 C   0  0  0  0  0  0  0  0  0  0  0  0
   -4.1974    2.4739    2.7139 C   0  0  1  0  0  0  0  0  0  0  0  0
   -4.2871    1.9597    1.1904 C   0  0  0  0  0  0  0  0  0  0  0  0
   -5.8189    1.8232    0.7570 C   0  0  2  0  0  0  0  0  0  0  0  0
  -11.4932    0.8884   -1.2505 F   0  0  0  0  0  0  0  0  0  0  0  0
   -9.4656    4.7367   -1.2041 N   0  0  0  0  0  0  0  0  0  0  0  0
   -8.7409   -1.6833    0.7688 N   0  0  0  0  0  0  0  0  0  0  0  0
   -2.7390    2.5793    3.0611 N   0  0  0  0  0  0  0  0  0  0  0  0
   -5.8939    1.3530   -0.6414 N   0  0  0  0  0  0  0  0  0  0  0  0
   -7.8708    3.0417    0.4818 O   0  0  0  0  0  0  0  0  0  0  0  0
   -7.1187    5.0775    2.4130 O   0  0  0  0  0  0  0  0  0  0  0  0
   -4.8814    4.4013    4.0786 O   0  0  0  0  0  0  0  0  0  0  0  0
  -11.7465    3.4043   -0.3198 O   0  0  0  0  0  0  0  0  0  0  0  0
   -8.6103    1.0476   -0.6515 O   0  0  0  0  0  0  0  0  0  0  0  0
  1  5  1  0  0  0  0
  1 18  1  1  0  0  0
  2 18  1  1  0  0  0
  2  3  1  0  0  0  0
  2 12  1  0  0  0  0
  3 19  1  6  0  0  0
  3  4  1  0  0  0  0
  4 20  1  1  0  0  0
  4 10  1  0  0  0  0
  5  6  1  0  0  0  0
  5 14  1  1  0  0  0
  6 21  1  6  0  0  0
  7 13  1  6  0  0  0
  7  6  1  0  0  0  0
  8  9  1  6  0  0  0
  8  7  1  0  0  0  0
 10 16  1  6  0  0  0
 11 10  1  0  0  0  0
 12 17  1  6  0  0  0
 12 11  1  0  0  0  0
 15  9  1  0  0  0  0
 22  8  1  0  0  0  0
 22  1  1  0  0  0  0
M  END
>  <CHROM.1>
-147.01637669,-177.81460396,-177.54672173,-7.80124540,2.35455197,0.72497318
2.81713873,0.43874397,-2.97893495

>  <Name>
lig.pdb

>  <RI>
0

>  <Rbt.Current_Directory>
/home/itssahil/PROJECTS/Mol_Feturizer/New_Systems/rnas/5bws

>  <Rbt.Executable>
rbdock ($Id: //depot/dev/client3/rdock/2013.1/src/exe/rbdock.cxx#4 $)

>  <Rbt.Library>
libRbt.so (2013.1, Build901 2013/11/27)

>  <Rbt.Parameter_File>
/export/apps/rDock/src/rDock_2013.1_src/data/scripts/dock_solv.prm

>  <Rbt.Receptor>
prm/pocket_docking_7.prm

>  <SCORE>
-5.19336

>  <SCORE.INTER>
-5.35428

>  <SCORE.INTER.CONST>
1

>  <SCORE.INTER.POLAR>
0

>  <SCORE.INTER.ROT>
3

>  <SCORE.INTER.SOLV>
11.2573

>  <SCORE.INTER.VDW>
-12.922

>  <SCORE.INTER.norm>
-0.243376

>  <SCORE.INTRA>
0.160922

>  <SCORE.INTRA.DIHEDRAL>
-1.90048

>  <SCORE.INTRA.DIHEDRAL.0>
6.10773

>  <SCORE.INTRA.POLAR>
0

>  <SCORE.INTRA.POLAR.0>
0

>  <SCORE.INTRA.REPUL>
0

>  <SCORE.INTRA.REPUL.0>
0

>  <SCORE.INTRA.SOLV>
0.393997

>  <SCORE.INTRA.SOLV.lig_0>
-71.4024

>  <SCORE.INTRA.VDW>
0.914162

>  <SCORE.INTRA.VDW.0>
-1.86213

>  <SCORE.INTRA.norm>
0.00731464

>  <SCORE.RESTR>
0

>  <SCORE.RESTR.CAVITY>
0

>  <SCORE.RESTR.norm>
0

>  <SCORE.SYSTEM>
0

>  <SCORE.SYSTEM.CONST>
0

>  <SCORE.SYSTEM.DIHEDRAL>
0

>  <SCORE.SYSTEM.SOLV>
0

>  <SCORE.SYSTEM.norm>
0

>  <SCORE.heavy>
22

>  <SCORE.norm>
-0.236062

>  <RMSD>
4.612

$$$$
lig.pdb
 OpenBabel11021811523D
libRbt.so/2013.1/901 2013/11/27
 22 23  0  0  0  0  0  0  0  0999 V2000
   -6.7369   -0.0768    1.2384 C   0  0  1  0  0  0  0  0  0  0  0  0
   -6.9702    2.4006    1.6849 C   0  0  1  0  0  0  0  0  0  0  0  0
   -5.5172    2.9171    2.0838 C   0  0  1  0  0  0  0  0  0  0  0  0
   -5.6917    4.2067    3.0067 C   0  0  2  0  0  0  0  0  0  0  0  0
   -6.2292   -0.9647    0.0367 C   0  0  1  0  0  0  0  0  0  0  0  0
   -7.2934   -0.9117   -1.0773 C   0  0  2  0  0  0  0  0  0  0  0  0
   -8.6337   -1.4844   -0.5832 C   0  0  2  0  0  0  0  0  0  0  0  0
   -9.1861   -0.6658    0.6403 C   0  0  1  0  0  0  0  0  0  0  0  0
  -10.5130   -1.2746    1.1782 C   0  0  0  0  0  0  0  0  0  0  0  0
   -6.4319    5.3650    2.1624 C   0  0  1  0  0  0  0  0  0  0  0  0
   -7.8925    4.8074    1.7761 C   0  0  0  0  0  0  0  0  0  0  0  0
   -7.7477    3.4914    0.8817 C   0  0  2  0  0  0  0  0  0  0  0  0
   -8.4643   -2.8857   -0.1824 F   0  0  0  0  0  0  0  0  0  0  0  0
   -4.9007   -0.4028   -0.4245 N   0  0  0  0  0  0  0  0  0  0  0  0
  -11.0660   -0.6028    2.2924 N   0  0  0  0  0  0  0  0  0  0  0  0
   -6.6346    6.5981    2.9973 N   0  0  0  0  0  0  0  0  0  0  0  0
   -9.0905    2.9844    0.5324 N   0  0  0  0  0  0  0  0  0  0  0  0
   -6.8703    1.2553    0.8523 O   0  0  0  0  0  0  0  0  0  0  0  0
   -4.8459    1.8418    2.8516 O   0  0  0  0  0  0  0  0  0  0  0  0
   -4.4069    4.6339    3.3499 O   0  0  0  0  0  0  0  0  0  0  0  0
   -6.9223   -1.5613   -1.9512 O   0  0  0  0  0  0  0  0  0  0  0  0
   -8.0722   -0.6525    1.7029 O   0  0  0  0  0  0  0  0  0  0  0  0
  1  5  1  0  0  0  0
  1 18  1  6  0  0  0
  2 18  1  6  0  0  0
  2  3  1  0  0  0  0
  2 12  1  0  0  0  0
  3 19  1  1  0  0  0
  3  4  1  0  0  0  0
  4 20  1  6  0  0  0
  4 10  1  0  0  0  0
  5  6  1  0  0  0  0
  5 14  1  6  0  0  0
  6 21  1  6  0  0  0
  7 13  1  1  0  0  0
  7  6  1  0  0  0  0
  8  9  1  1  0  0  0
  8  7  1  0  0  0  0
 10 16  1  1  0  0  0
 11 10  1  0  0  0  0
 12 17  1  1  0  0  0
 12 11  1  0  0  0  0
 15  9  1  0  0  0  0
 22  8  1  0  0  0  0
 22  1  1  0  0  0  0
M  END
>  <CHROM.1>
-162.81604754,85.44470499,179.24578394,-7.27103916,1.24181238,1.12882576
-1.89678300,0.12789390,0.43652678

>  <Name>
lig.pdb

>  <RI>
0

>  <Rbt.Current_Directory>
/home/itssahil/PROJECTS/Mol_Feturizer/New_Systems/rnas/5bws

>  <Rbt.Executable>
rbdock ($Id: //depot/dev/client3/rdock/2013.1/src/exe/rbdock.cxx#4 $)

>  <Rbt.Library>
libRbt.so (2013.1, Build901 2013/11/27)

>  <Rbt.Parameter_File>
/export/apps/rDock/src/rDock_2013.1_src/data/scripts/dock_solv.prm

>  <Rbt.Receptor>
prm/pocket_docking_5.prm

>  <SCORE>
-8.96613

>  <SCORE.INTER>
-7.73477

>  <SCORE.INTER.CONST>
1

>  <SCORE.INTER.POLAR>
0

>  <SCORE.INTER.ROT>
3

>  <SCORE.INTER.SOLV>
18.9753

>  <SCORE.INTER.VDW>
-17.0816

>  <SCORE.INTER.norm>
-0.351581

>  <SCORE.INTRA>
-1.23136

>  <SCORE.INTRA.DIHEDRAL>
-1.99367

>  <SCORE.INTRA.DIHEDRAL.0>
6.10773

>  <SCORE.INTRA.POLAR>
0

>  <SCORE.INTRA.POLAR.0>
0

>  <SCORE.INTRA.REPUL>
0

>  <SCORE.INTRA.REPUL.0>
0

>  <SCORE.INTRA.SOLV>
-0.451934

>  <SCORE.INTRA.SOLV.lig_0>
-71.4024

>  <SCORE.INTRA.VDW>
-0.00855938

>  <SCORE.INTRA.VDW.0>
-1.86213

>  <SCORE.INTRA.norm>
-0.0559711

>  <SCORE.RESTR>
0

>  <SCORE.RESTR.CAVITY>
0

>  <SCORE.RESTR.norm>
0

>  <SCORE.SYSTEM>
0

>  <SCORE.SYSTEM.CONST>
0

>  <SCORE.SYSTEM.DIHEDRAL>
0

>  <SCORE.SYSTEM.SOLV>
0

>  <SCORE.SYSTEM.norm>
0

>  <SCORE.heavy>
22

>  <SCORE.norm>
-0.407552

>  <RMSD>
4.626

$$$$
lig.pdb
 OpenBabel11021811523D
libRbt.so/2013.1/901 2013/11/27
 22 23  0  0  0  0  0  0  0  0999 V2000
   -9.6566   -1.1431    0.0109 C   0  0  1  0  0  0  0  0  0  0  0  0
   -8.6389    0.7571   -1.3100 C   0  0  1  0  0  0  0  0  0  0  0  0
   -9.7961    1.8504   -1.3619 C   0  0  1  0  0  0  0  0  0  0  0  0
   -9.5659    2.7464   -2.6617 C   0  0  2  0  0  0  0  0  0  0  0  0
   -9.6127   -1.6684    1.4982 C   0  0  1  0  0  0  0  0  0  0  0  0
   -8.1836   -2.1708    1.7838 C   0  0  2  0  0  0  0  0  0  0  0  0
   -7.8138   -3.3345    0.8471 C   0  0  2  0  0  0  0  0  0  0  0  0
   -7.8689   -2.8914   -0.6605 C   0  0  1  0  0  0  0  0  0  0  0  0
   -7.5498   -4.0791   -1.6135 C   0  0  0  0  0  0  0  0  0  0  0  0
   -8.1492    3.5074   -2.5352 C   0  0  1  0  0  0  0  0  0  0  0  0
   -7.0070    2.3732   -2.4835 C   0  0  0  0  0  0  0  0  0  0  0  0
   -7.2358    1.4359   -1.2099 C   0  0  2  0  0  0  0  0  0  0  0  0
   -8.7389   -4.4556    1.0489 F   0  0  0  0  0  0  0  0  0  0  0  0
   -9.9992   -0.5196    2.4061 N   0  0  0  0  0  0  0  0  0  0  0  0
   -6.2271   -4.5708   -1.5274 N   0  0  0  0  0  0  0  0  0  0  0  0
   -7.8790    4.3536   -3.7475 N   0  0  0  0  0  0  0  0  0  0  0  0
   -6.1862    0.3971   -1.1694 N   0  0  0  0  0  0  0  0  0  0  0  0
   -8.7929   -0.0636   -0.1621 O   0  0  0  0  0  0  0  0  0  0  0  0
  -11.0914    1.1385   -1.4702 O   0  0  0  0  0  0  0  0  0  0  0  0
  -10.5963    3.6890   -2.6893 O   0  0  0  0  0  0  0  0  0  0  0  0
   -8.1545   -2.5553    2.8676 O   0  0  0  0  0  0  0  0  0  0  0  0
   -9.2732   -2.3073   -0.8990 O   0  0  0  0  0  0  0  0  0  0  0  0
  1  5  1  0  0  0  0
  1 18  1  1  0  0  0
  2 18  1  1  0  0  0
  2  3  1  0  0  0  0
  2 12  1  0  0  0  0
  3 19  1  6  0  0  0
  3  4  1  0  0  0  0
  4 20  1  1  0  0  0
  4 10  1  0  0  0  0
  5  6  1  0  0  0  0
  5 14  1  1  0  0  0
  6 21  1  1  0  0  0
  7 13  1  6  0  0  0
  7  6  1  0  0  0  0
  8  9  1  6  0  0  0
  8  7  1  0  0  0  0
 10 16  1  6  0  0  0
 11 10  1  0  0  0  0
 12 17  1  6  0  0  0
 12 11  1  0  0  0  0
 15  9  1  0  0  0  0
 22  8  1  0  0  0  0
 22  1  1  0  0  0  0
M  END
>  <CHROM.1>
-173.69512955,80.14716845,-66.09054395,-8.57872840,-0.40467249,-0.65327526
1.43992414,-0.73776336,2.58606644

>  <Name>
lig.pdb

>  <RI>
0

>  <Rbt.Current_Directory>
/home/itssahil/PROJECTS/Mol_Feturizer/New_Systems/rnas/5bws

>  <Rbt.Executable>
rbdock ($Id: //depot/dev/client3/rdock/2013.1/src/exe/rbdock.cxx#4 $)

>  <Rbt.Library>
libRbt.so (2013.1, Build901 2013/11/27)

>  <Rbt.Parameter_File>
/export/apps/rDock/src/rDock_2013.1_src/data/scripts/dock_solv.prm

>  <Rbt.Receptor>
prm/pocket_docking_6.prm

>  <SCORE>
-10.2016

>  <SCORE.INTER>
-8.01692

>  <SCORE.INTER.CONST>
1

>  <SCORE.INTER.POLAR>
0

>  <SCORE.INTER.ROT>
3

>  <SCORE.INTER.SOLV>
16.022

>  <SCORE.INTER.VDW>
-16.2853

>  <SCORE.INTER.norm>
-0.364405

>  <SCORE.INTRA>
-2.18472

>  <SCORE.INTRA.DIHEDRAL>
-3.95399

>  <SCORE.INTRA.DIHEDRAL.0>
6.10773

>  <SCORE.INTRA.POLAR>
0

>  <SCORE.INTRA.POLAR.0>
0

>  <SCORE.INTRA.REPUL>
0

>  <SCORE.INTRA.REPUL.0>
0

>  <SCORE.INTRA.SOLV>
-0.596762

>  <SCORE.INTRA.SOLV.lig_0>
-71.4024

>  <SCORE.INTRA.VDW>
0.0906597

>  <SCORE.INTRA.VDW.0>
-1.86213

>  <SCORE.INTRA.norm>
-0.0993052

>  <SCORE.RESTR>
0

>  <SCORE.RESTR.CAVITY>
0

>  <SCORE.RESTR.norm>
0

>  <SCORE.SYSTEM>
0

>  <SCORE.SYSTEM.CONST>
0

>  <SCORE.SYSTEM.DIHEDRAL>
0

>  <SCORE.SYSTEM.SOLV>
0

>  <SCORE.SYSTEM.norm>
0

>  <SCORE.heavy>
22

>  <SCORE.norm>
-0.463711

>  <RMSD>
4.781

$$$$
lig.pdb
 OpenBabel11021811523D
libRbt.so/2013.1/901 2013/11/27
 22 23  0  0  0  0  0  0  0  0999 V2000
   -9.0427    2.7963    0.2697 C   0  0  1  0  0  0  0  0  0  0  0  0
   -6.9541    1.4446    0.7195 C   0  0  1  0  0  0  0  0  0  0  0  0
   -6.3694    2.3605    1.8841 C   0  0  1  0  0  0  0  0  0  0  0  0
   -4.7976    2.1009    1.9694 C   0  0  2  0  0  0  0  0  0  0  0  0
  -10.5780    2.5042    0.0519 C   0  0  1  0  0  0  0  0  0  0  0  0
  -10.7135    1.5282   -1.1335 C   0  0  2  0  0  0  0  0  0  0  0  0
  -10.1502    2.1503   -2.4235 C   0  0  2  0  0  0  0  0  0  0  0  0
   -8.6251    2.4997   -2.2682 C   0  0  1  0  0  0  0  0  0  0  0  0
   -8.0649    3.1797   -3.5506 C   0  0  0  0  0  0  0  0  0  0  0  0
   -4.5368    0.5562    2.3542 C   0  0  1  0  0  0  0  0  0  0  0  0
   -5.1415   -0.3368    1.1582 C   0  0  0  0  0  0  0  0  0  0  0  0
   -6.7108   -0.0676    1.0251 C   0  0  2  0  0  0  0  0  0  0  0  0
  -10.8887    3.3742   -2.7553 F   0  0  0  0  0  0  0  0  0  0  0  0
  -11.1229    1.9128    1.3352 N   0  0  0  0  0  0  0  0  0  0  0  0
   -8.6272    4.4424   -3.8471 N   0  0  0  0  0  0  0  0  0  0  0  0
   -3.0657    0.2580    2.4301 N   0  0  0  0  0  0  0  0  0  0  0  0
   -7.2586   -0.8881   -0.0745 N   0  0  0  0  0  0  0  0  0  0  0  0
   -8.3569    1.6317    0.6081 O   0  0  0  0  0  0  0  0  0  0  0  0
   -6.6221    3.7752    1.5222 O   0  0  0  0  0  0  0  0  0  0  0  0
   -4.3082    2.9205    2.9892 O   0  0  0  0  0  0  0  0  0  0  0  0
  -11.8335    1.3184   -1.2919 O   0  0  0  0  0  0  0  0  0  0  0  0
   -8.5015    3.3985   -1.0244 O   0  0  0  0  0  0  0  0  0  0  0  0
  1  5  1  0  0  0  0
  1 18  1  6  0  0  0
  2 18  1  1  0  0  0
  2  3  1  0  0  0  0
  2 12  1  0  0  0  0
  3 19  1  6  0  0  0
  3  4  1  0  0  0  0
  4 20  1  1  0  0  0
  4 10  1  0  0  0  0
  5  6  1  0  0  0  0
  5 14  1  1  0  0  0
  6 21  1  6  0  0  0
  7 13  1  1  0  0  0
  7  6  1  0  0  0  0
  8  9  1  6  0  0  0
  8  7  1  0  0  0  0
 10 16  1  6  0  0  0
 11 10  1  0  0  0  0
 12 17  1  6  0  0  0
 12 11  1  0  0  0  0
 15  9  1  0  0  0  0
 22  8  1  0  0  0  0
 22  1  1  0  0  0  0
M  END
>  <CHROM.1>
171.43343524,63.13226407,64.67921391,-7.88145609,1.99691077,-0.03627430,2.52459334
-0.29178087,-0.82947429

>  <Name>
lig.pdb

>  <RI>
0

>  <Rbt.Current_Directory>
/home/itssahil/PROJECTS/Mol_Feturizer/New_Systems/rnas/5bws

>  <Rbt.Executable>
rbdock ($Id: //depot/dev/client3/rdock/2013.1/src/exe/rbdock.cxx#4 $)

>  <Rbt.Library>
libRbt.so (2013.1, Build901 2013/11/27)

>  <Rbt.Parameter_File>
/export/apps/rDock/src/rDock_2013.1_src/data/scripts/dock_solv.prm

>  <Rbt.Receptor>
prm/pocket_docking_8.prm

>  <SCORE>
-7.27238

>  <SCORE.INTER>
-4.80965

>  <SCORE.INTER.CONST>
1

>  <SCORE.INTER.POLAR>
0

>  <SCORE.INTER.ROT>
3

>  <SCORE.INTER.SOLV>
9.97124

>  <SCORE.INTER.VDW>
-12.1302

>  <SCORE.INTER.norm>
-0.218621

>  <SCORE.INTRA>
-2.46273

>  <SCORE.INTRA.DIHEDRAL>
-5.62229

>  <SCORE.INTRA.DIHEDRAL.0>
6.10773

>  <SCORE.INTRA.POLAR>
0

>  <SCORE.INTRA.POLAR.0>
0

>  <SCORE.INTRA.REPUL>
0

>  <SCORE.INTRA.REPUL.0>
0

>  <SCORE.INTRA.SOLV>
0.154782

>  <SCORE.INTRA.SOLV.lig_0>
-71.4024

>  <SCORE.INTRA.VDW>
0.271023

>  <SCORE.INTRA.VDW.0>
-1.86213

>  <SCORE.INTRA.norm>
-0.111942

>  <SCORE.RESTR>
0

>  <SCORE.RESTR.CAVITY>
0

>  <SCORE.RESTR.norm>
0

>  <SCORE.SYSTEM>
0

>  <SCORE.SYSTEM.CONST>
0

>  <SCORE.SYSTEM.DIHEDRAL>
0

>  <SCORE.SYSTEM.SOLV>
0

>  <SCORE.SYSTEM.norm>
0

>  <SCORE.heavy>
22

>  <SCORE.norm>
-0.330563

>  <RMSD>
4.923

$$$$
lig.pdb
 OpenBabel11021811523D
libRbt.so/2013.1/901 2013/11/27
 22 23  0  0  0  0  0  0  0  0999 V2000
   -9.7572   -0.9900    0.0252 C   0  0  1  0  0  0  0  0  0  0  0  0
   -8.8171    1.0018   -1.2158 C   0  0  1  0  0  0  0  0  0  0  0  0
  -10.0475    2.0047   -1.3473 C   0  0  1  0  0  0  0  0  0  0  0  0
   -9.7973    2.9222   -2.6282 C   0  0  2  0  0  0  0  0  0  0  0  0
   -9.8851   -1.4468    1.5302 C   0  0  1  0  0  0  0  0  0  0  0  0
   -8.4726   -1.7848    2.0469 C   0  0  2  0  0  0  0  0  0  0  0  0
   -7.8552   -2.9406    1.2398 C   0  0  2  0  0  0  0  0  0  0  0  0
   -7.7273   -2.5674   -0.2822 C   0  0  1  0  0  0  0  0  0  0  0  0
   -7.1550   -3.7531   -1.1113 C   0  0  0  0  0  0  0  0  0  0  0  0
   -8.4544    3.7875   -2.4048 C   0  0  1  0  0  0  0  0  0  0  0  0
   -7.2358    2.7426   -2.2745 C   0  0  0  0  0  0  0  0  0  0  0  0
   -7.4797    1.7842   -1.0195 C   0  0  2  0  0  0  0  0  0  0  0  0
   -8.6862   -4.1432    1.3681 F   0  0  0  0  0  0  0  0  0  0  0  0
  -10.5131   -0.3087    2.3072 N   0  0  0  0  0  0  0  0  0  0  0  0
   -6.7995   -3.4309   -2.4411 N   0  0  0  0  0  0  0  0  0  0  0  0
   -8.1666    4.6578   -3.5958 N   0  0  0  0  0  0  0  0  0  0  0  0
   -6.3597    0.8276   -0.9069 N   0  0  0  0  0  0  0  0  0  0  0  0
   -8.9868    0.1660   -0.0811 O   0  0  0  0  0  0  0  0  0  0  0  0
  -11.2747    1.1975   -1.5443 O   0  0  0  0  0  0  0  0  0  0  0  0
  -10.8919    3.7843   -2.7268 O   0  0  0  0  0  0  0  0  0  0  0  0
   -8.5685   -2.1196    3.1433 O   0  0  0  0  0  0  0  0  0  0  0  0
   -9.1304   -2.1438   -0.7534 O   0  0  0  0  0  0  0  0  0  0  0  0
  1  5  1  0  0  0  0
  1 18  1  1  0  0  0
  2 18  1  1  0  0  0
  2  3  1  0  0  0  0
  2 12  1  0  0  0  0
  3 19  1  6  0  0  0
  3  4  1  0  0  0  0
  4 20  1  1  0  0  0
  4 10  1  0  0  0  0
  5  6  1  0  0  0  0
  5 14  1  1  0  0  0
  6 21  1  1  0  0  0
  7 13  1  6  0  0  0
  7  6  1  0  0  0  0
  8  9  1  6  0  0  0
  8  7  1  0  0  0  0
 10 16  1  6  0  0  0
 11 10  1  0  0  0  0
 12 17  1  6  0  0  0
 12 11  1  0  0  0  0
 15  9  1  0  0  0  0
 22  8  1  0  0  0  0
 22  1  1  0  0  0  0
M  END
>  <CHROM.1>
-168.97259668,81.41202668,-169.89964209,-8.75914955,-0.09969768,-0.54472192
1.43327407,-0.73030470,2.53990836

>  <Name>
lig.pdb

>  <RI>
0

>  <Rbt.Current_Directory>
/home/itssahil/PROJECTS/Mol_Feturizer/New_Systems/rnas/5bws

>  <Rbt.Executable>
rbdock ($Id: //depot/dev/client3/rdock/2013.1/src/exe/rbdock.cxx#4 $)

>  <Rbt.Library>
libRbt.so (2013.1, Build901 2013/11/27)

>  <Rbt.Parameter_File>
/export/apps/rDock/src/rDock_2013.1_src/data/scripts/dock_solv.prm

>  <Rbt.Receptor>
prm/pocket_docking_7.prm

>  <SCORE>
-8.5526

>  <SCORE.INTER>
-6.53363

>  <SCORE.INTER.CONST>
1

>  <SCORE.INTER.POLAR>
0

>  <SCORE.INTER.ROT>
3

>  <SCORE.INTER.SOLV>
18.8674

>  <SCORE.INTER.VDW>
-16.2449

>  <SCORE.INTER.norm>
-0.296983

>  <SCORE.INTRA>
-2.01897

>  <SCORE.INTRA.DIHEDRAL>
-3.12767

>  <SCORE.INTRA.DIHEDRAL.0>
6.10773

>  <SCORE.INTRA.POLAR>
0

>  <SCORE.INTRA.POLAR.0>
0

>  <SCORE.INTRA.REPUL>
0

>  <SCORE.INTRA.REPUL.0>
0

>  <SCORE.INTRA.SOLV>
-0.968109

>  <SCORE.INTRA.SOLV.lig_0>
-71.4024

>  <SCORE.INTRA.VDW>
0.0289196

>  <SCORE.INTRA.VDW.0>
-1.86213

>  <SCORE.INTRA.norm>
-0.0917713

>  <SCORE.RESTR>
0

>  <SCORE.RESTR.CAVITY>
0

>  <SCORE.RESTR.norm>
0

>  <SCORE.SYSTEM>
0

>  <SCORE.SYSTEM.CONST>
0

>  <SCORE.SYSTEM.DIHEDRAL>
0

>  <SCORE.SYSTEM.SOLV>
0

>  <SCORE.SYSTEM.norm>
0

>  <SCORE.heavy>
22

>  <SCORE.norm>
-0.388754

>  <RMSD>
4.950

$$$$
lig.pdb
 OpenBabel11021811523D
libRbt.so/2013.1/901 2013/11/27
 22 23  0  0  0  0  0  0  0  0999 V2000
   -8.5775    3.6904    0.1424 C   0  0  1  0  0  0  0  0  0  0  0  0
   -7.3247    3.3191    2.3066 C   0  0  1  0  0  0  0  0  0  0  0  0
   -6.3603    2.1932    1.7244 C   0  0  1  0  0  0  0  0  0  0  0  0
   -5.0647    2.1292    2.6533 C   0  0  2  0  0  0  0  0  0  0  0  0
  -10.0826    3.7783   -0.3236 C   0  0  1  0  0  0  0  0  0  0  0  0
  -10.7371    2.4038   -0.0813 C   0  0  2  0  0  0  0  0  0  0  0  0
  -10.0368    1.3096   -0.9064 C   0  0  2  0  0  0  0  0  0  0  0  0
   -8.5182    1.1876   -0.5175 C   0  0  1  0  0  0  0  0  0  0  0  0
   -7.7932    0.1210   -1.3879 C   0  0  0  0  0  0  0  0  0  0  0  0
   -4.2956    3.5456    2.5863 C   0  0  1  0  0  0  0  0  0  0  0  0
   -5.2996    4.6564    3.1795 C   0  0  0  0  0  0  0  0  0  0  0  0
   -6.6249    4.7153    2.2890 C   0  0  2  0  0  0  0  0  0  0  0  0
  -10.1396    1.6163   -2.3377 F   0  0  0  0  0  0  0  0  0  0  0  0
  -10.7528    4.8723    0.4810 N   0  0  0  0  0  0  0  0  0  0  0  0
   -8.1373   -1.2185   -1.0947 N   0  0  0  0  0  0  0  0  0  0  0  0
   -3.0737    3.5401    3.4613 N   0  0  0  0  0  0  0  0  0  0  0  0
   -7.5418    5.7345    2.8394 N   0  0  0  0  0  0  0  0  0  0  0  0
   -8.4931    3.4233    1.5072 O   0  0  0  0  0  0  0  0  0  0  0  0
   -7.0810    0.8996    1.7844 O   0  0  0  0  0  0  0  0  0  0  0  0
   -4.2411    1.1306    2.1285 O   0  0  0  0  0  0  0  0  0  0  0  0
  -11.8334    2.4695   -0.4236 O   0  0  0  0  0  0  0  0  0  0  0  0
   -7.9064    2.5913   -0.6771 O   0  0  0  0  0  0  0  0  0  0  0  0
  1  5  1  0  0  0  0
  1 18  1  1  0  0  0
  2 18  1  6  0  0  0
  2  3  1  0  0  0  0
  2 12  1  0  0  0  0
  3 19  1  1  0  0  0
  3  4  1  0  0  0  0
  4 20  1  6  0  0  0
  4 10  1  0  0  0  0
  5  6  1  0  0  0  0
  5 14  1  1  0  0  0
  6 21  1  6  0  0  0
  7 13  1  6  0  0  0
  7  6  1  0  0  0  0
  8  9  1  6  0  0  0
  8  7  1  0  0  0  0
 10 16  1  1  0  0  0
 11 10  1  0  0  0  0
 12 17  1  1  0  0  0
 12 11  1  0  0  0  0
 15  9  1  0  0  0  0
 22  8  1  0  0  0  0
 22  1  1  0  0  0  0
M  END
>  <CHROM.1>
-177.49324873,-57.47088440,-71.82595555,-7.76651313,2.60194434,0.82366065
2.65155823,0.45447520,-2.61992456

>  <Name>
lig.pdb

>  <RI>
0

>  <Rbt.Current_Directory>
/home/itssahil/PROJECTS/Mol_Feturizer/New_Systems/rnas/5bws

>  <Rbt.Executable>
rbdock ($Id: //depot/dev/client3/rdock/2013.1/src/exe/rbdock.cxx#4 $)

>  <Rbt.Library>
libRbt.so (2013.1, Build901 2013/11/27)

>  <Rbt.Parameter_File>
/export/apps/rDock/src/rDock_2013.1_src/data/scripts/dock_solv.prm

>  <Rbt.Receptor>
prm/pocket_docking_8.prm

>  <SCORE>
-7.36385

>  <SCORE.INTER>
-5.29851

>  <SCORE.INTER.CONST>
1

>  <SCORE.INTER.POLAR>
0

>  <SCORE.INTER.ROT>
3

>  <SCORE.INTER.SOLV>
16.4025

>  <SCORE.INTER.VDW>
-14.5998

>  <SCORE.INTER.norm>
-0.240841

>  <SCORE.INTRA>
-2.06534

>  <SCORE.INTRA.DIHEDRAL>
-5.5515

>  <SCORE.INTRA.DIHEDRAL.0>
6.10773

>  <SCORE.INTRA.POLAR>
0

>  <SCORE.INTRA.POLAR.0>
0

>  <SCORE.INTRA.REPUL>
0

>  <SCORE.INTRA.REPUL.0>
0

>  <SCORE.INTRA.SOLV>
0.344342

>  <SCORE.INTRA.SOLV.lig_0>
-71.4024

>  <SCORE.INTRA.VDW>
0.538235

>  <SCORE.INTRA.VDW.0>
-1.86213

>  <SCORE.INTRA.norm>
-0.0938792

>  <SCORE.RESTR>
0

>  <SCORE.RESTR.CAVITY>
0

>  <SCORE.RESTR.norm>
0

>  <SCORE.SYSTEM>
0

>  <SCORE.SYSTEM.CONST>
0

>  <SCORE.SYSTEM.DIHEDRAL>
0

>  <SCORE.SYSTEM.SOLV>
0

>  <SCORE.SYSTEM.norm>
0

>  <SCORE.heavy>
22

>  <SCORE.norm>
-0.334721

>  <RMSD>
5.000

$$$$
lig.pdb
 OpenBabel11021811523D
libRbt.so/2013.1/901 2013/11/27
 22 23  0  0  0  0  0  0  0  0999 V2000
   -9.7759   -1.0815    0.1295 C   0  0  1  0  0  0  0  0  0  0  0  0
   -8.9793    0.9551   -1.1389 C   0  0  1  0  0  0  0  0  0  0  0  0
  -10.2651    1.8952   -1.1413 C   0  0  1  0  0  0  0  0  0  0  0  0
  -10.1621    2.8634   -2.4051 C   0  0  2  0  0  0  0  0  0  0  0  0
   -9.6594   -1.6415    1.6001 C   0  0  1  0  0  0  0  0  0  0  0  0
   -8.1857   -2.0180    1.8509 C   0  0  2  0  0  0  0  0  0  0  0  0
   -7.7265   -3.1164    0.8756 C   0  0  2  0  0  0  0  0  0  0  0  0
   -7.8470   -2.6386   -0.6175 C   0  0  1  0  0  0  0  0  0  0  0  0
   -7.4364   -3.7652   -1.6090 C   0  0  0  0  0  0  0  0  0  0  0  0
   -8.8510    3.7910   -2.2553 C   0  0  1  0  0  0  0  0  0  0  0  0
   -7.5750    2.8084   -2.2547 C   0  0  0  0  0  0  0  0  0  0  0  0
   -7.6716    1.8006   -1.0187 C   0  0  2  0  0  0  0  0  0  0  0  0
   -8.5415   -4.3230    1.0577 F   0  0  0  0  0  0  0  0  0  0  0  0
  -10.1343   -0.5587    2.5464 N   0  0  0  0  0  0  0  0  0  0  0  0
   -6.0701   -4.1257   -1.5655 N   0  0  0  0  0  0  0  0  0  0  0  0
   -8.7013    4.7113   -3.4340 N   0  0  0  0  0  0  0  0  0  0  0  0
   -6.4996    0.9013   -1.0251 N   0  0  0  0  0  0  0  0  0  0  0  0
   -9.0177    0.0772   -0.0241 O   0  0  0  0  0  0  0  0  0  0  0  0
  -11.4618    1.0308   -1.2716 O   0  0  0  0  0  0  0  0  0  0  0  0
  -11.3029    3.6692   -2.3899 O   0  0  0  0  0  0  0  0  0  0  0  0
   -8.1035   -2.4281    2.9226 O   0  0  0  0  0  0  0  0  0  0  0  0
   -9.3027   -2.1798   -0.8192 O   0  0  0  0  0  0  0  0  0  0  0  0
  1  5  1  0  0  0  0
  1 18  1  1  0  0  0
  2 18  1  1  0  0  0
  2  3  1  0  0  0  0
  2 12  1  0  0  0  0
  3 19  1  6  0  0  0
  3  4  1  0  0  0  0
  4 20  1  1  0  0  0
  4 10  1  0  0  0  0
  5  6  1  0  0  0  0
  5 14  1  1  0  0  0
  6 21  1  1  0  0  0
  7 13  1  6  0  0  0
  7  6  1  0  0  0  0
  8  9  1  6  0  0  0
  8  7  1  0  0  0  0
 10 16  1  6  0  0  0
 11 10  1  0  0  0  0
 12 17  1  6  0  0  0
 12 11  1  0  0  0  0
 15  9  1  0  0  0  0
 22  8  1  0  0  0  0
 22  1  1  0  0  0  0
M  END
>  <CHROM.1>
-172.27233286,77.48778113,-66.70756749,-8.81045236,-0.22122920,-0.51643587
1.31272527,-0.69560329,2.53822433

>  <Name>
lig.pdb

>  <RI>
0

>  <Rbt.Current_Directory>
/home/itssahil/PROJECTS/Mol_Feturizer/New_Systems/rnas/5bws

>  <Rbt.Executable>
rbdock ($Id: //depot/dev/client3/rdock/2013.1/src/exe/rbdock.cxx#4 $)

>  <Rbt.Library>
libRbt.so (2013.1, Build901 2013/11/27)

>  <Rbt.Parameter_File>
/export/apps/rDock/src/rDock_2013.1_src/data/scripts/dock_solv.prm

>  <Rbt.Receptor>
prm/pocket_docking_7.prm

>  <SCORE>
-10.4463

>  <SCORE.INTER>
-8.1032

>  <SCORE.INTER.CONST>
1

>  <SCORE.INTER.POLAR>
0

>  <SCORE.INTER.ROT>
3

>  <SCORE.INTER.SOLV>
15.2757

>  <SCORE.INTER.VDW>
-16.094

>  <SCORE.INTER.norm>
-0.368327

>  <SCORE.INTRA>
-2.34313

>  <SCORE.INTRA.DIHEDRAL>
-4.24682

>  <SCORE.INTRA.DIHEDRAL.0>
6.10773

>  <SCORE.INTRA.POLAR>
0

>  <SCORE.INTRA.POLAR.0>
0

>  <SCORE.INTRA.REPUL>
0

>  <SCORE.INTRA.REPUL.0>
0

>  <SCORE.INTRA.SOLV>
-0.739561

>  <SCORE.INTRA.SOLV.lig_0>
-71.4024

>  <SCORE.INTRA.VDW>
0.150061

>  <SCORE.INTRA.VDW.0>
-1.86213

>  <SCORE.INTRA.norm>
-0.106506

>  <SCORE.RESTR>
0

>  <SCORE.RESTR.CAVITY>
0

>  <SCORE.RESTR.norm>
0

>  <SCORE.SYSTEM>
0

>  <SCORE.SYSTEM.CONST>
0

>  <SCORE.SYSTEM.DIHEDRAL>
0

>  <SCORE.SYSTEM.SOLV>
0

>  <SCORE.SYSTEM.norm>
0

>  <SCORE.heavy>
22

>  <SCORE.norm>
-0.474833

>  <RMSD>
5.024

$$$$
lig.pdb
 OpenBabel11021811523D
libRbt.so/2013.1/901 2013/11/27
 22 23  0  0  0  0  0  0  0  0999 V2000
   -6.0919    1.1868    1.7682 C   0  0  1  0  0  0  0  0  0  0  0  0
   -3.6036    1.1732    1.3215 C   0  0  1  0  0  0  0  0  0  0  0  0
   -3.2879    2.0832    2.5901 C   0  0  1  0  0  0  0  0  0  0  0  0
   -1.7492    1.8870    2.9634 C   0  0  2  0  0  0  0  0  0  0  0  0
   -7.3899    0.9346    0.9070 C   0  0  1  0  0  0  0  0  0  0  0  0
   -7.6051    2.1620   -0.0005 C   0  0  2  0  0  0  0  0  0  0  0  0
   -7.8191    3.4341    0.8388 C   0  0  2  0  0  0  0  0  0  0  0  0
   -6.5731    3.7307    1.7509 C   0  0  1  0  0  0  0  0  0  0  0  0
   -6.8073    4.9845    2.6419 C   0  0  0  0  0  0  0  0  0  0  0  0
   -1.4947    0.3454    3.3642 C   0  0  1  0  0  0  0  0  0  0  0  0
   -1.8251   -0.5418    2.0613 C   0  0  0  0  0  0  0  0  0  0  0  0
   -3.3528   -0.3347    1.6418 C   0  0  2  0  0  0  0  0  0  0  0  0
   -9.0064    3.2824    1.6876 F   0  0  0  0  0  0  0  0  0  0  0  0
   -7.1734   -0.3306    0.1035 N   0  0  0  0  0  0  0  0  0  0  0  0
   -5.6681    5.4311    3.3498 N   0  0  0  0  0  0  0  0  0  0  0  0
   -0.0514    0.1067    3.7086 N   0  0  0  0  0  0  0  0  0  0  0  0
   -3.6487   -1.1496    0.4456 N   0  0  0  0  0  0  0  0  0  0  0  0
   -4.9681    1.3046    0.9530 O   0  0  0  0  0  0  0  0  0  0  0  0
   -3.5329    3.4948    2.2111 O   0  0  0  0  0  0  0  0  0  0  0  0
   -1.4959    2.7005    4.0702 O   0  0  0  0  0  0  0  0  0  0  0  0
   -8.5529    1.9770   -0.6256 O   0  0  0  0  0  0  0  0  0  0  0  0
   -6.3195    2.4589    2.5806 O   0  0  0  0  0  0  0  0  0  0  0  0
  1  5  1  0  0  0  0
  1 18  1  6  0  0  0
  2 18  1  1  0  0  0
  2  3  1  0  0  0  0
  2 12  1  0  0  0  0
  3 19  1  6  0  0  0
  3  4  1  0  0  0  0
  4 20  1  1  0  0  0
  4 10  1  0  0  0  0
  5  6  1  0  0  0  0
  5 14  1  6  0  0  0
  6 21  1  1  0  0  0
  7 13  1  1  0  0  0
  7  6  1  0  0  0  0
  8  9  1  1  0  0  0
  8  7  1  0  0  0  0
 10 16  1  6  0  0  0
 11 10  1  0  0  0  0
 12 17  1  6  0  0  0
 12 11  1  0  0  0  0
 15  9  1  0  0  0  0
 22  8  1  0  0  0  0
 22  1  1  0  0  0  0
M  END
>  <CHROM.1>
-161.38330635,-50.57649445,-171.38378864,-4.97751249,1.87899249,1.83495520
3.00118642,-0.39438127,0.48461456

>  <Name>
lig.pdb

>  <RI>
0

>  <Rbt.Current_Directory>
/home/itssahil/PROJECTS/Mol_Feturizer/New_Systems/rnas/5bws

>  <Rbt.Executable>
rbdock ($Id: //depot/dev/client3/rdock/2013.1/src/exe/rbdock.cxx#4 $)

>  <Rbt.Library>
libRbt.so (2013.1, Build901 2013/11/27)

>  <Rbt.Parameter_File>
/export/apps/rDock/src/rDock_2013.1_src/data/scripts/dock_solv.prm

>  <Rbt.Receptor>
prm/pocket_docking_7.prm

>  <SCORE>
-7.15688

>  <SCORE.INTER>
-5.89665

>  <SCORE.INTER.CONST>
1

>  <SCORE.INTER.POLAR>
0

>  <SCORE.INTER.ROT>
3

>  <SCORE.INTER.SOLV>
16.7062

>  <SCORE.INTER.VDW>
-15.0998

>  <SCORE.INTER.norm>
-0.268029

>  <SCORE.INTRA>
-1.26023

>  <SCORE.INTRA.DIHEDRAL>
-3.83363

>  <SCORE.INTRA.DIHEDRAL.0>
6.10773

>  <SCORE.INTRA.POLAR>
0

>  <SCORE.INTRA.POLAR.0>
0

>  <SCORE.INTRA.REPUL>
0

>  <SCORE.INTRA.REPUL.0>
0

>  <SCORE.INTRA.SOLV>
1.46367

>  <SCORE.INTRA.SOLV.lig_0>
-71.4024

>  <SCORE.INTRA.VDW>
-0.0752476

>  <SCORE.INTRA.VDW.0>
-1.86213

>  <SCORE.INTRA.norm>
-0.0572832

>  <SCORE.RESTR>
0

>  <SCORE.RESTR.CAVITY>
0

>  <SCORE.RESTR.norm>
0

>  <SCORE.SYSTEM>
0

>  <SCORE.SYSTEM.CONST>
0

>  <SCORE.SYSTEM.DIHEDRAL>
0

>  <SCORE.SYSTEM.SOLV>
0

>  <SCORE.SYSTEM.norm>
0

>  <SCORE.heavy>
22

>  <SCORE.norm>
-0.325313

>  <RMSD>
5.142

$$$$
lig.pdb
 OpenBabel11021811523D
libRbt.so/2013.1/901 2013/11/27
 22 23  0  0  0  0  0  0  0  0999 V2000
   -9.6791   -0.7270    0.1199 C   0  0  1  0  0  0  0  0  0  0  0  0
   -8.9117    1.5869   -0.5499 C   0  0  1  0  0  0  0  0  0  0  0  0
   -7.8402    1.1785   -1.6553 C   0  0  1  0  0  0  0  0  0  0  0  0
   -7.6755    2.4095   -2.6567 C   0  0  2  0  0  0  0  0  0  0  0  0
   -9.7850   -1.5706    1.4492 C   0  0  1  0  0  0  0  0  0  0  0  0
   -8.3559   -1.8184    1.9711 C   0  0  2  0  0  0  0  0  0  0  0  0
   -7.5309   -2.6224    0.9506 C   0  0  2  0  0  0  0  0  0  0  0  0
   -7.4107   -1.8542   -0.4160 C   0  0  1  0  0  0  0  0  0  0  0  0
   -6.6246   -2.6877   -1.4687 C   0  0  0  0  0  0  0  0  0  0  0  0
   -9.0853    2.6875   -3.3896 C   0  0  1  0  0  0  0  0  0  0  0  0
  -10.1410    3.0943   -2.2434 C   0  0  0  0  0  0  0  0  0  0  0  0
  -10.2972    1.8916   -1.2033 C   0  0  2  0  0  0  0  0  0  0  0  0
   -8.1601   -3.9263    0.7113 F   0  0  0  0  0  0  0  0  0  0  0  0
  -10.6165   -0.7774    2.4355 N   0  0  0  0  0  0  0  0  0  0  0  0
   -7.2041   -3.9364   -1.7904 N   0  0  0  0  0  0  0  0  0  0  0  0
   -8.9845    3.8527   -4.3333 N   0  0  0  0  0  0  0  0  0  0  0  0
  -11.2652    2.2719   -0.1541 N   0  0  0  0  0  0  0  0  0  0  0  0
   -9.1028    0.5178    0.3642 O   0  0  0  0  0  0  0  0  0  0  0  0
   -6.5529    0.9187   -0.9686 O   0  0  0  0  0  0  0  0  0  0  0  0
   -6.7261    2.0308   -3.6087 O   0  0  0  0  0  0  0  0  0  0  0  0
   -8.4354   -2.4354    2.9388 O   0  0  0  0  0  0  0  0  0  0  0  0
   -8.8462   -1.5350   -0.8719 O   0  0  0  0  0  0  0  0  0  0  0  0
  1  5  1  0  0  0  0
  1 18  1  1  0  0  0
  2 18  1  1  0  0  0
  2  3  1  0  0  0  0
  2 12  1  0  0  0  0
  3 19  1  1  0  0  0
  3  4  1  0  0  0  0
  4 20  1  6  0  0  0
  4 10  1  0  0  0  0
  5  6  1  0  0  0  0
  5 14  1  1  0  0  0
  6 21  1  1  0  0  0
  7 13  1  6  0  0  0
  7  6  1  0  0  0  0
  8  9  1  6  0  0  0
  8  7  1  0  0  0  0
 10 16  1  6  0  0  0
 11 10  1  0  0  0  0
 12 17  1  1  0  0  0
 12 11  1  0  0  0  0
 15  9  1  0  0  0  0
 22  8  1  0  0  0  0
 22  1  1  0  0  0  0
M  END
>  <CHROM.1>
-175.82468094,-67.38054788,60.31676829,-8.57131843,-0.13424311,-0.62807395
1.46447646,-0.77479849,2.45567278

>  <Name>
lig.pdb

>  <RI>
0

>  <Rbt.Current_Directory>
/home/itssahil/PROJECTS/Mol_Feturizer/New_Systems/rnas/5bws

>  <Rbt.Executable>
rbdock ($Id: //depot/dev/client3/rdock/2013.1/src/exe/rbdock.cxx#4 $)

>  <Rbt.Library>
libRbt.so (2013.1, Build901 2013/11/27)

>  <Rbt.Parameter_File>
/export/apps/rDock/src/rDock_2013.1_src/data/scripts/dock_solv.prm

>  <Rbt.Receptor>
prm/pocket_docking_8.prm

>  <SCORE>
-9.41304

>  <SCORE.INTER>
-7.33971

>  <SCORE.INTER.CONST>
1

>  <SCORE.INTER.POLAR>
0

>  <SCORE.INTER.ROT>
3

>  <SCORE.INTER.SOLV>
17.8476

>  <SCORE.INTER.VDW>
-16.4423

>  <SCORE.INTER.norm>
-0.333623

>  <SCORE.INTRA>
-2.07333

>  <SCORE.INTRA.DIHEDRAL>
-5.75371

>  <SCORE.INTRA.DIHEDRAL.0>
6.10773

>  <SCORE.INTRA.POLAR>
0

>  <SCORE.INTRA.POLAR.0>
0

>  <SCORE.INTRA.REPUL>
0

>  <SCORE.INTRA.REPUL.0>
0

>  <SCORE.INTRA.SOLV>
1.34051

>  <SCORE.INTRA.SOLV.lig_0>
-71.4024

>  <SCORE.INTRA.VDW>
0.133267

>  <SCORE.INTRA.VDW.0>
-1.86213

>  <SCORE.INTRA.norm>
-0.0942423

>  <SCORE.RESTR>
0

>  <SCORE.RESTR.CAVITY>
0

>  <SCORE.RESTR.norm>
0

>  <SCORE.SYSTEM>
0

>  <SCORE.SYSTEM.CONST>
0

>  <SCORE.SYSTEM.DIHEDRAL>
0

>  <SCORE.SYSTEM.SOLV>
0

>  <SCORE.SYSTEM.norm>
0

>  <SCORE.heavy>
22

>  <SCORE.norm>
-0.427865

>  <RMSD>
5.256

$$$$
lig.pdb
 OpenBabel11021811523D
libRbt.so/2013.1/901 2013/11/27
 22 23  0  0  0  0  0  0  0  0999 V2000
   -4.5713    1.1526    2.5663 C   0  0  1  0  0  0  0  0  0  0  0  0
   -5.6369    3.2799    1.7118 C   0  0  1  0  0  0  0  0  0  0  0  0
   -7.0601    2.5942    1.5084 C   0  0  1  0  0  0  0  0  0  0  0  0
   -8.1596    3.7495    1.4686 C   0  0  2  0  0  0  0  0  0  0  0  0
   -3.0915    0.6220    2.7035 C   0  0  1  0  0  0  0  0  0  0  0  0
   -2.5986    0.2180    1.2999 C   0  0  2  0  0  0  0  0  0  0  0  0
   -3.4669   -0.9113    0.7175 C   0  0  2  0  0  0  0  0  0  0  0  0
   -4.9681   -0.4633    0.5828 C   0  0  1  0  0  0  0  0  0  0  0  0
   -5.8598   -1.6200    0.0464 C   0  0  0  0  0  0  0  0  0  0  0  0
   -8.1634    4.5249    2.8831 C   0  0  1  0  0  0  0  0  0  0  0  0
   -6.7120    5.2017    3.0543 C   0  0  0  0  0  0  0  0  0  0  0  0
   -5.5861    4.0680    3.0592 C   0  0  2  0  0  0  0  0  0  0  0  0
   -3.3980   -2.0950    1.5819 F   0  0  0  0  0  0  0  0  0  0  0  0
   -2.2540    1.7355    3.2970 N   0  0  0  0  0  0  0  0  0  0  0  0
   -7.2222   -1.2866   -0.1301 N   0  0  0  0  0  0  0  0  0  0  0  0
   -9.1744    5.6369    2.8883 N   0  0  0  0  0  0  0  0  0  0  0  0
   -4.2578    4.6954    3.2147 N   0  0  0  0  0  0  0  0  0  0  0  0
   -4.6204    2.2903    1.7637 O   0  0  0  0  0  0  0  0  0  0  0  0
   -7.0406    1.8796    0.2102 O   0  0  0  0  0  0  0  0  0  0  0  0
   -9.3946    3.1246    1.2805 O   0  0  0  0  0  0  0  0  0  0  0  0
   -1.5206   -0.1705    1.4025 O   0  0  0  0  0  0  0  0  0  0  0  0
   -5.4111    0.0236    1.9744 O   0  0  0  0  0  0  0  0  0  0  0  0
  1  5  1  0  0  0  0
  1 18  1  6  0  0  0
  2 18  1  1  0  0  0
  2  3  1  0  0  0  0
  2 12  1  0  0  0  0
  3 19  1  6  0  0  0
  3  4  1  0  0  0  0
  4 20  1  1  0  0  0
  4 10  1  0  0  0  0
  5  6  1  0  0  0  0
  5 14  1  6  0  0  0
  6 21  1  1  0  0  0
  7 13  1  1  0  0  0
  7  6  1  0  0  0  0
  8  9  1  1  0  0  0
  8  7  1  0  0  0  0
 10 16  1  6  0  0  0
 11 10  1  0  0  0  0
 12 17  1  6  0  0  0
 12 11  1  0  0  0  0
 15  9  1  0  0  0  0
 22  8  1  0  0  0  0
 22  1  1  0  0  0  0
M  END
>  <CHROM.1>
-159.39528470,-51.70654621,-178.71421124,-5.43785990,1.66317015,1.75680656
-0.83463638,-0.28939562,0.44388904

>  <Name>
lig.pdb

>  <RI>
0

>  <Rbt.Current_Directory>
/home/itssahil/PROJECTS/Mol_Feturizer/New_Systems/rnas/5bws

>  <Rbt.Executable>
rbdock ($Id: //depot/dev/client3/rdock/2013.1/src/exe/rbdock.cxx#4 $)

>  <Rbt.Library>
libRbt.so (2013.1, Build901 2013/11/27)

>  <Rbt.Parameter_File>
/export/apps/rDock/src/rDock_2013.1_src/data/scripts/dock_solv.prm

>  <Rbt.Receptor>
prm/pocket_docking_8.prm

>  <SCORE>
-9.15806

>  <SCORE.INTER>
-7.90527

>  <SCORE.INTER.CONST>
1

>  <SCORE.INTER.POLAR>
0

>  <SCORE.INTER.ROT>
3

>  <SCORE.INTER.SOLV>
18.9841

>  <SCORE.INTER.VDW>
-17.1982

>  <SCORE.INTER.norm>
-0.359331

>  <SCORE.INTRA>
-1.25279

>  <SCORE.INTRA.DIHEDRAL>
-3.86592

>  <SCORE.INTRA.DIHEDRAL.0>
6.10773

>  <SCORE.INTRA.POLAR>
0

>  <SCORE.INTRA.POLAR.0>
0

>  <SCORE.INTRA.REPUL>
0

>  <SCORE.INTRA.REPUL.0>
0

>  <SCORE.INTRA.SOLV>
1.55797

>  <SCORE.INTRA.SOLV.lig_0>
-71.4024

>  <SCORE.INTRA.VDW>
-0.0988119

>  <SCORE.INTRA.VDW.0>
-1.86213

>  <SCORE.INTRA.norm>
-0.056945

>  <SCORE.RESTR>
0

>  <SCORE.RESTR.CAVITY>
0

>  <SCORE.RESTR.norm>
0

>  <SCORE.SYSTEM>
0

>  <SCORE.SYSTEM.CONST>
0

>  <SCORE.SYSTEM.DIHEDRAL>
0

>  <SCORE.SYSTEM.SOLV>
0

>  <SCORE.SYSTEM.norm>
0

>  <SCORE.heavy>
22

>  <SCORE.norm>
-0.416276

>  <RMSD>
5.371

$$$$
lig.pdb
 OpenBabel11021811523D
libRbt.so/2013.1/901 2013/11/27
 22 23  0  0  0  0  0  0  0  0999 V2000
   -4.2551    0.8727    0.9809 C   0  0  1  0  0  0  0  0  0  0  0  0
   -6.1556    2.0298    2.1811 C   0  0  1  0  0  0  0  0  0  0  0  0
   -5.3153    3.3770    2.3076 C   0  0  1  0  0  0  0  0  0  0  0  0
   -6.3375    4.5667    2.5990 C   0  0  2  0  0  0  0  0  0  0  0  0
   -3.8002   -0.6199    0.7455 C   0  0  1  0  0  0  0  0  0  0  0  0
   -3.2563   -1.1680    2.0797 C   0  0  2  0  0  0  0  0  0  0  0  0
   -2.0355   -0.3569    2.5490 C   0  0  2  0  0  0  0  0  0  0  0  0
   -2.4078    1.1542    2.7730 C   0  0  1  0  0  0  0  0  0  0  0  0
   -1.1642    1.9890    3.1941 C   0  0  0  0  0  0  0  0  0  0  0  0
   -7.3502    4.7113    1.3517 C   0  0  1  0  0  0  0  0  0  0  0  0
   -8.1786    3.3336    1.2542 C   0  0  0  0  0  0  0  0  0  0  0  0
   -7.1738    2.1176    1.0000 C   0  0  2  0  0  0  0  0  0  0  0  0
   -0.9625   -0.4411    1.5516 F   0  0  0  0  0  0  0  0  0  0  0  0
   -5.0054   -1.4003    0.2641 N   0  0  0  0  0  0  0  0  0  0  0  0
   -0.5608    1.5852    4.4071 N   0  0  0  0  0  0  0  0  0  0  0  0
   -8.3462    5.8117    1.5877 N   0  0  0  0  0  0  0  0  0  0  0  0
   -7.9397    0.8574    0.9133 N   0  0  0  0  0  0  0  0  0  0  0  0
   -5.2903    0.9374    1.9112 O   0  0  0  0  0  0  0  0  0  0  0  0
   -4.3844    3.2281    3.4512 O   0  0  0  0  0  0  0  0  0  0  0  0
   -5.5769    5.7326    2.7147 O   0  0  0  0  0  0  0  0  0  0  0  0
   -2.9233   -2.2552    1.9053 O   0  0  0  0  0  0  0  0  0  0  0  0
   -3.0346    1.6549    1.4590 O   0  0  0  0  0  0  0  0  0  0  0  0
  1  5  1  0  0  0  0
  1 18  1  1  0  0  0
  2 18  1  6  0  0  0
  2  3  1  0  0  0  0
  2 12  1  0  0  0  0
  3 19  1  1  0  0  0
  3  4  1  0  0  0  0
  4 20  1  6  0  0  0
  4 10  1  0  0  0  0
  5  6  1  0  0  0  0
  5 14  1  1  0  0  0
  6 21  1  6  0  0  0
  7 13  1  6  0  0  0
  7  6  1  0  0  0  0
  8  9  1  6  0  0  0
  8  7  1  0  0  0  0
 10 16  1  1  0  0  0
 11 10  1  0  0  0  0
 12 17  1  1  0  0  0
 12 11  1  0  0  0  0
 15  9  1  0  0  0  0
 22  8  1  0  0  0  0
 22  1  1  0  0  0  0
M  END
>  <CHROM.1>
-165.28991483,-46.24140076,-61.22906370,-4.53544202,1.68628439,1.96995337
0.65428643,0.36077992,-2.78833826

>  <Name>
lig.pdb

>  <RI>
0

>  <Rbt.Current_Directory>
/home/itssahil/PROJECTS/Mol_Feturizer/New_Systems/rnas/5bws

>  <Rbt.Executable>
rbdock ($Id: //depot/dev/client3/rdock/2013.1/src/exe/rbdock.cxx#4 $)

>  <Rbt.Library>
libRbt.so (2013.1, Build901 2013/11/27)

>  <Rbt.Parameter_File>
/export/apps/rDock/src/rDock_2013.1_src/data/scripts/dock_solv.prm

>  <Rbt.Receptor>
prm/pocket_docking_7.prm

>  <SCORE>
-10.8082

>  <SCORE.INTER>
-9.27094

>  <SCORE.INTER.CONST>
1

>  <SCORE.INTER.POLAR>
0

>  <SCORE.INTER.ROT>
3

>  <SCORE.INTER.SOLV>
14.6481

>  <SCORE.INTER.VDW>
-16.6633

>  <SCORE.INTER.norm>
-0.421406

>  <SCORE.INTRA>
-1.53726

>  <SCORE.INTRA.DIHEDRAL>
-4.1896

>  <SCORE.INTRA.DIHEDRAL.0>
6.10773

>  <SCORE.INTRA.POLAR>
0

>  <SCORE.INTRA.POLAR.0>
0

>  <SCORE.INTRA.REPUL>
0

>  <SCORE.INTRA.REPUL.0>
0

>  <SCORE.INTRA.SOLV>
0.645659

>  <SCORE.INTRA.SOLV.lig_0>
-71.4024

>  <SCORE.INTRA.VDW>
0.23471

>  <SCORE.INTRA.VDW.0>
-1.86213

>  <SCORE.INTRA.norm>
-0.0698756

>  <SCORE.RESTR>
0

>  <SCORE.RESTR.CAVITY>
0

>  <SCORE.RESTR.norm>
0

>  <SCORE.SYSTEM>
0

>  <SCORE.SYSTEM.CONST>
0

>  <SCORE.SYSTEM.DIHEDRAL>
0

>  <SCORE.SYSTEM.SOLV>
0

>  <SCORE.SYSTEM.norm>
0

>  <SCORE.heavy>
22

>  <SCORE.norm>
-0.491282

>  <RMSD>
5.716

$$$$
lig.pdb
 OpenBabel11021811523D
libRbt.so/2013.1/901 2013/11/27
 22 23  0  0  0  0  0  0  0  0999 V2000
   -7.7034   -6.4692   -1.9333 C   0  0  1  0  0  0  0  0  0  0  0  0
   -6.3183   -4.4049   -1.4732 C   0  0  1  0  0  0  0  0  0  0  0  0
   -7.3767   -3.5400   -0.6554 C   0  0  1  0  0  0  0  0  0  0  0  0
   -6.9718   -2.0038   -0.8014 C   0  0  2  0  0  0  0  0  0  0  0  0
   -7.7859   -7.9460   -1.3835 C   0  0  1  0  0  0  0  0  0  0  0  0
   -6.4983   -8.6827   -1.8026 C   0  0  2  0  0  0  0  0  0  0  0  0
   -6.3742   -8.7418   -3.3354 C   0  0  2  0  0  0  0  0  0  0  0  0
   -6.3199   -7.2991   -3.9582 C   0  0  1  0  0  0  0  0  0  0  0  0
   -6.2503   -7.3535   -5.5116 C   0  0  0  0  0  0  0  0  0  0  0  0
   -5.5137   -1.7769   -0.1498 C   0  0  1  0  0  0  0  0  0  0  0  0
   -4.4736   -2.6660   -0.9992 C   0  0  0  0  0  0  0  0  0  0  0  0
   -4.8782   -4.2086   -0.9015 C   0  0  2  0  0  0  0  0  0  0  0  0
   -7.5174   -9.4645   -3.9046 F   0  0  0  0  0  0  0  0  0  0  0  0
   -7.9291   -7.8716    0.1223 N   0  0  0  0  0  0  0  0  0  0  0  0
   -5.1388   -8.0551   -6.0321 N   0  0  0  0  0  0  0  0  0  0  0  0
   -5.0802   -0.3436   -0.2787 N   0  0  0  0  0  0  0  0  0  0  0  0
   -3.9215   -5.0179   -1.6839 N   0  0  0  0  0  0  0  0  0  0  0  0
   -6.6292   -5.7859   -1.3673 O   0  0  0  0  0  0  0  0  0  0  0  0
   -8.7117   -3.7633   -1.2588 O   0  0  0  0  0  0  0  0  0  0  0  0
   -7.9182   -1.2675   -0.0850 O   0  0  0  0  0  0  0  0  0  0  0  0
   -6.5616   -9.7595   -1.4027 O   0  0  0  0  0  0  0  0  0  0  0  0
   -7.5664   -6.5511   -3.4514 O   0  0  0  0  0  0  0  0  0  0  0  0
  1  5  1  0  0  0  0
  1 18  1  1  0  0  0
  2 18  1  1  0  0  0
  2  3  1  0  0  0  0
  2 12  1  0  0  0  0
  3 19  1  6  0  0  0
  3  4  1  0  0  0  0
  4 20  1  1  0  0  0
  4 10  1  0  0  0  0
  5  6  1  0  0  0  0
  5 14  1  1  0  0  0
  6 21  1  6  0  0  0
  7 13  1  6  0  0  0
  7  6  1  0  0  0  0
  8  9  1  6  0  0  0
  8  7  1  0  0  0  0
 10 16  1  6  0  0  0
 11 10  1  0  0  0  0
 12 17  1  6  0  0  0
 12 11  1  0  0  0  0
 15  9  1  0  0  0  0
 22  8  1  0  0  0  0
 22  1  1  0  0  0  0
M  END
>  <CHROM.1>
-171.45307677,70.29682720,-58.95985427,-6.56443269,-5.64868330,-1.94801672
1.67430729,-0.81693483,-2.64931843

>  <Name>
lig.pdb

>  <RI>
0

>  <Rbt.Current_Directory>
/home/itssahil/PROJECTS/Mol_Feturizer/New_Systems/rnas/5bws

>  <Rbt.Executable>
rbdock ($Id: //depot/dev/client3/rdock/2013.1/src/exe/rbdock.cxx#4 $)

>  <Rbt.Library>
libRbt.so (2013.1, Build901 2013/11/27)

>  <Rbt.Parameter_File>
/export/apps/rDock/src/rDock_2013.1_src/data/scripts/dock_solv.prm

>  <Rbt.Receptor>
prm/pocket_docking_7.prm

>  <SCORE>
-6.08661

>  <SCORE.INTER>
-3.34716

>  <SCORE.INTER.CONST>
1

>  <SCORE.INTER.POLAR>
0

>  <SCORE.INTER.ROT>
3

>  <SCORE.INTER.SOLV>
12.2503

>  <SCORE.INTER.VDW>
-11.9149

>  <SCORE.INTER.norm>
-0.152144

>  <SCORE.INTRA>
-2.73945

>  <SCORE.INTRA.DIHEDRAL>
-5.23639

>  <SCORE.INTRA.DIHEDRAL.0>
6.10773

>  <SCORE.INTRA.POLAR>
0

>  <SCORE.INTRA.POLAR.0>
0

>  <SCORE.INTRA.REPUL>
0

>  <SCORE.INTRA.REPUL.0>
0

>  <SCORE.INTRA.SOLV>
-0.827821

>  <SCORE.INTRA.SOLV.lig_0>
-71.4024

>  <SCORE.INTRA.VDW>
0.292656

>  <SCORE.INTRA.VDW.0>
-1.86213

>  <SCORE.INTRA.norm>
-0.124521

>  <SCORE.RESTR>
0

>  <SCORE.RESTR.CAVITY>
0

>  <SCORE.RESTR.norm>
0

>  <SCORE.SYSTEM>
0

>  <SCORE.SYSTEM.CONST>
0

>  <SCORE.SYSTEM.DIHEDRAL>
0

>  <SCORE.SYSTEM.SOLV>
0

>  <SCORE.SYSTEM.norm>
0

>  <SCORE.heavy>
22

>  <SCORE.norm>
-0.276664

>  <RMSD>
5.789

$$$$
lig.pdb
 OpenBabel11021811523D
libRbt.so/2013.1/901 2013/11/27
 22 23  0  0  0  0  0  0  0  0999 V2000
  -10.2434    3.8570    0.2168 C   0  0  1  0  0  0  0  0  0  0  0  0
   -8.7268    3.4072    2.1888 C   0  0  1  0  0  0  0  0  0  0  0  0
   -7.4341    2.7389    1.5412 C   0  0  1  0  0  0  0  0  0  0  0  0
   -6.1937    3.0435    2.4973 C   0  0  2  0  0  0  0  0  0  0  0  0
  -11.4339    3.1188   -0.5098 C   0  0  1  0  0  0  0  0  0  0  0  0
  -10.9360    1.7262   -0.9447 C   0  0  2  0  0  0  0  0  0  0  0  0
   -9.7637    1.8472   -1.9344 C   0  0  2  0  0  0  0  0  0  0  0  0
   -8.5479    2.6051   -1.2868 C   0  0  1  0  0  0  0  0  0  0  0  0
   -7.3813    2.7786   -2.3016 C   0  0  0  0  0  0  0  0  0  0  0  0
   -5.9620    4.6382    2.5710 C   0  0  1  0  0  0  0  0  0  0  0  0
   -7.2865    5.2777    3.2271 C   0  0  0  0  0  0  0  0  0  0  0  0
   -8.5529    4.9547    2.3081 C   0  0  2  0  0  0  0  0  0  0  0  0
  -10.1930    2.5723   -3.1357 F   0  0  0  0  0  0  0  0  0  0  0  0
  -12.5865    3.0262    0.4681 N   0  0  0  0  0  0  0  0  0  0  0  0
   -6.7420    1.5766   -2.6827 N   0  0  0  0  0  0  0  0  0  0  0  0
   -4.8111    4.9768    3.4762 N   0  0  0  0  0  0  0  0  0  0  0  0
   -9.7641    5.5424    2.9162 N   0  0  0  0  0  0  0  0  0  0  0  0
   -9.8613    3.1725    1.3686 O   0  0  0  0  0  0  0  0  0  0  0  0
   -7.6629    1.2762    1.4723 O   0  0  0  0  0  0  0  0  0  0  0  0
   -5.0771    2.4405    1.9137 O   0  0  0  0  0  0  0  0  0  0  0  0
  -11.8046    1.1909   -1.4761 O   0  0  0  0  0  0  0  0  0  0  0  0
   -9.0881    3.9533   -0.7762 O   0  0  0  0  0  0  0  0  0  0  0  0
  1  5  1  0  0  0  0
  1 18  1  1  0  0  0
  2 18  1  6  0  0  0
  2  3  1  0  0  0  0
  2 12  1  0  0  0  0
  3 19  1  1  0  0  0
  3  4  1  0  0  0  0
  4 20  1  6  0  0  0
  4 10  1  0  0  0  0
  5  6  1  0  0  0  0
  5 14  1  1  0  0  0
  6 21  1  6  0  0  0
  7 13  1  6  0  0  0
  7  6  1  0  0  0  0
  8  9  1  6  0  0  0
  8  7  1  0  0  0  0
 10 16  1  1  0  0  0
 11 10  1  0  0  0  0
 12 17  1  1  0  0  0
 12 11  1  0  0  0  0
 15  9  1  0  0  0  0
 22  8  1  0  0  0  0
 22  1  1  0  0  0  0
M  END
>  <CHROM.1>
170.66416334,-80.71597037,-67.41202355,-8.66083903,3.13470278,0.44214512
2.29405848,0.10848866,-2.07494262

>  <Name>
lig.pdb

>  <RI>
0

>  <Rbt.Current_Directory>
/home/itssahil/PROJECTS/Mol_Feturizer/New_Systems/rnas/5bws

>  <Rbt.Executable>
rbdock ($Id: //depot/dev/client3/rdock/2013.1/src/exe/rbdock.cxx#4 $)

>  <Rbt.Library>
libRbt.so (2013.1, Build901 2013/11/27)

>  <Rbt.Parameter_File>
/export/apps/rDock/src/rDock_2013.1_src/data/scripts/dock_solv.prm

>  <Rbt.Receptor>
prm/pocket_docking_8.prm

>  <SCORE>
-6.52106

>  <SCORE.INTER>
-4.88654

>  <SCORE.INTER.CONST>
1

>  <SCORE.INTER.POLAR>
0

>  <SCORE.INTER.ROT>
3

>  <SCORE.INTER.SOLV>
23.0789

>  <SCORE.INTER.VDW>
-16.5507

>  <SCORE.INTER.norm>
-0.222115

>  <SCORE.INTRA>
-1.63452

>  <SCORE.INTRA.DIHEDRAL>
-3.56949

>  <SCORE.INTRA.DIHEDRAL.0>
6.10773

>  <SCORE.INTRA.POLAR>
0

>  <SCORE.INTRA.POLAR.0>
0

>  <SCORE.INTRA.REPUL>
0

>  <SCORE.INTRA.REPUL.0>
0

>  <SCORE.INTRA.SOLV>
-0.146866

>  <SCORE.INTRA.SOLV.lig_0>
-71.4024

>  <SCORE.INTRA.VDW>
0.223653

>  <SCORE.INTRA.VDW.0>
-1.86213

>  <SCORE.INTRA.norm>
-0.0742965

>  <SCORE.RESTR>
0

>  <SCORE.RESTR.CAVITY>
0

>  <SCORE.RESTR.norm>
0

>  <SCORE.SYSTEM>
0

>  <SCORE.SYSTEM.CONST>
0

>  <SCORE.SYSTEM.DIHEDRAL>
0

>  <SCORE.SYSTEM.SOLV>
0

>  <SCORE.SYSTEM.norm>
0

>  <SCORE.heavy>
22

>  <SCORE.norm>
-0.296412

>  <RMSD>
5.813

$$$$
lig.pdb
 OpenBabel11021811523D
libRbt.so/2013.1/901 2013/11/27
 22 23  0  0  0  0  0  0  0  0999 V2000
   -7.5603   -0.5641    0.3927 C   0  0  1  0  0  0  0  0  0  0  0  0
   -6.6120   -2.6601   -0.6556 C   0  0  1  0  0  0  0  0  0  0  0  0
   -7.1050   -3.6221   -1.8254 C   0  0  1  0  0  0  0  0  0  0  0  0
   -6.2132   -4.9442   -1.7814 C   0  0  2  0  0  0  0  0  0  0  0  0
   -8.7223   -1.0480    1.3444 C   0  0  1  0  0  0  0  0  0  0  0  0
  -10.0270   -1.0808    0.5242 C   0  0  2  0  0  0  0  0  0  0  0  0
  -10.3812    0.3224    0.0006 C   0  0  2  0  0  0  0  0  0  0  0  0
   -9.2477    0.8846   -0.9328 C   0  0  1  0  0  0  0  0  0  0  0  0
   -9.5759    2.3254   -1.4200 C   0  0  0  0  0  0  0  0  0  0  0  0
   -4.6728   -4.5525   -2.0568 C   0  0  1  0  0  0  0  0  0  0  0  0
   -4.2113   -3.5806   -0.8584 C   0  0  0  0  0  0  0  0  0  0  0  0
   -5.1148   -2.2628   -0.8552 C   0  0  2  0  0  0  0  0  0  0  0  0
  -10.5743    1.2446    1.1255 F   0  0  0  0  0  0  0  0  0  0  0  0
   -8.3503   -2.4194    1.8684 N   0  0  0  0  0  0  0  0  0  0  0  0
   -8.5950    2.9077   -2.2550 N   0  0  0  0  0  0  0  0  0  0  0  0
   -3.7884   -5.7667   -2.0084 N   0  0  0  0  0  0  0  0  0  0  0  0
   -4.6876   -1.3769    0.2470 N   0  0  0  0  0  0  0  0  0  0  0  0
   -7.3703   -1.4601   -0.6572 O   0  0  0  0  0  0  0  0  0  0  0  0
   -8.5223   -3.9678   -1.5647 O   0  0  0  0  0  0  0  0  0  0  0  0
   -6.6702   -5.7733   -2.8084 O   0  0  0  0  0  0  0  0  0  0  0  0
  -10.8730   -1.4316    1.2204 O   0  0  0  0  0  0  0  0  0  0  0  0
   -7.9380    0.8209   -0.1260 O   0  0  0  0  0  0  0  0  0  0  0  0
  1  5  1  0  0  0  0
  1 18  1  6  0  0  0
  2 18  1  6  0  0  0
  2  3  1  0  0  0  0
  2 12  1  0  0  0  0
  3 19  1  1  0  0  0
  3  4  1  0  0  0  0
  4 20  1  6  0  0  0
  4 10  1  0  0  0  0
  5  6  1  0  0  0  0
  5 14  1  6  0  0  0
  6 21  1  1  0  0  0
  7 13  1  1  0  0  0
  7  6  1  0  0  0  0
  8  9  1  1  0  0  0
  8  7  1  0  0  0  0
 10 16  1  1  0  0  0
 11 10  1  0  0  0  0
 12 17  1  1  0  0  0
 12 11  1  0  0  0  0
 15  9  1  0  0  0  0
 22  8  1  0  0  0  0
 22  1  1  0  0  0  0
M  END
>  <CHROM.1>
-83.22851665,158.34692113,179.36350162,-7.65253413,-1.69311600,-0.57375077
-2.30259759,-0.43382351,3.08368470

>  <Name>
lig.pdb

>  <RI>
0

>  <Rbt.Current_Directory>
/home/itssahil/PROJECTS/Mol_Feturizer/New_Systems/rnas/5bws

>  <Rbt.Executable>
rbdock ($Id: //depot/dev/client3/rdock/2013.1/src/exe/rbdock.cxx#4 $)

>  <Rbt.Library>
libRbt.so (2013.1, Build901 2013/11/27)

>  <Rbt.Parameter_File>
/export/apps/rDock/src/rDock_2013.1_src/data/scripts/dock_solv.prm

>  <Rbt.Receptor>
prm/pocket_docking_4.prm

>  <SCORE>
-9.41443

>  <SCORE.INTER>
-9.30197

>  <SCORE.INTER.CONST>
1

>  <SCORE.INTER.POLAR>
0

>  <SCORE.INTER.ROT>
3

>  <SCORE.INTER.SOLV>
14.4866

>  <SCORE.INTER.VDW>
-16.6302

>  <SCORE.INTER.norm>
-0.422817

>  <SCORE.INTRA>
-0.112465

>  <SCORE.INTRA.DIHEDRAL>
-1.67858

>  <SCORE.INTRA.DIHEDRAL.0>
6.10773

>  <SCORE.INTRA.POLAR>
0

>  <SCORE.INTRA.POLAR.0>
0

>  <SCORE.INTRA.REPUL>
0

>  <SCORE.INTRA.REPUL.0>
0

>  <SCORE.INTRA.SOLV>
1.04371

>  <SCORE.INTRA.SOLV.lig_0>
-71.4024

>  <SCORE.INTRA.VDW>
0.204967

>  <SCORE.INTRA.VDW.0>
-1.86213

>  <SCORE.INTRA.norm>
-0.00511203

>  <SCORE.RESTR>
0

>  <SCORE.RESTR.CAVITY>
0

>  <SCORE.RESTR.norm>
0

>  <SCORE.SYSTEM>
0

>  <SCORE.SYSTEM.CONST>
0

>  <SCORE.SYSTEM.DIHEDRAL>
0

>  <SCORE.SYSTEM.SOLV>
0

>  <SCORE.SYSTEM.norm>
0

>  <SCORE.heavy>
22

>  <SCORE.norm>
-0.427929

>  <RMSD>
5.873

$$$$
lig.pdb
 OpenBabel11021811523D
libRbt.so/2013.1/901 2013/11/27
 22 23  0  0  0  0  0  0  0  0999 V2000
   -7.7120   -0.3671    0.3992 C   0  0  1  0  0  0  0  0  0  0  0  0
   -6.7187   -2.4425   -0.6482 C   0  0  1  0  0  0  0  0  0  0  0  0
   -7.2414   -3.4356   -1.7784 C   0  0  1  0  0  0  0  0  0  0  0  0
   -6.3422   -4.7525   -1.7280 C   0  0  2  0  0  0  0  0  0  0  0  0
   -8.8336   -0.9210    1.3611 C   0  0  1  0  0  0  0  0  0  0  0  0
  -10.1434   -1.0251    0.5549 C   0  0  2  0  0  0  0  0  0  0  0  0
  -10.5834    0.3576    0.0421 C   0  0  2  0  0  0  0  0  0  0  0  0
   -9.4944    0.9880   -0.9008 C   0  0  1  0  0  0  0  0  0  0  0  0
   -9.9102    2.4095   -1.3774 C   0  0  0  0  0  0  0  0  0  0  0  0
   -4.8126   -4.3613   -2.0589 C   0  0  1  0  0  0  0  0  0  0  0  0
   -4.3206   -3.3578   -0.8994 C   0  0  0  0  0  0  0  0  0  0  0  0
   -5.2300   -2.0441   -0.9021 C   0  0  2  0  0  0  0  0  0  0  0  0
  -10.8165    1.2624    1.1735 F   0  0  0  0  0  0  0  0  0  0  0  0
   -8.3777   -2.2709    1.8742 N   0  0  0  0  0  0  0  0  0  0  0  0
   -8.9623    3.0613   -2.1991 N   0  0  0  0  0  0  0  0  0  0  0  0
   -3.9212   -5.5702   -2.0066 N   0  0  0  0  0  0  0  0  0  0  0  0
   -4.7747   -1.1290    0.1644 N   0  0  0  0  0  0  0  0  0  0  0  0
   -7.4826   -1.2461   -0.6571 O   0  0  0  0  0  0  0  0  0  0  0  0
   -8.6486   -3.7807   -1.4671 O   0  0  0  0  0  0  0  0  0  0  0  0
   -6.8254   -5.6090   -2.7199 O   0  0  0  0  0  0  0  0  0  0  0  0
  -10.9601   -1.4269    1.2585 O   0  0  0  0  0  0  0  0  0  0  0  0
   -8.1744    0.9962   -0.1086 O   0  0  0  0  0  0  0  0  0  0  0  0
  1  5  1  0  0  0  0
  1 18  1  6  0  0  0
  2 18  1  6  0  0  0
  2  3  1  0  0  0  0
  2 12  1  0  0  0  0
  3 19  1  1  0  0  0
  3  4  1  0  0  0  0
  4 20  1  6  0  0  0
  4 10  1  0  0  0  0
  5  6  1  0  0  0  0
  5 14  1  6  0  0  0
  6 21  1  1  0  0  0
  7 13  1  1  0  0  0
  7  6  1  0  0  0  0
  8  9  1  1  0  0  0
  8  7  1  0  0  0  0
 10 16  1  1  0  0  0
 11 10  1  0  0  0  0
 12 17  1  1  0  0  0
 12 11  1  0  0  0  0
 15  9  1  0  0  0  0
 22  8  1  0  0  0  0
 22  1  1  0  0  0  0
M  END
>  <CHROM.1>
-79.24007477,154.06522182,178.19268150,-7.81168444,-1.54350832,-0.55153143
-2.32253637,-0.42379744,3.08103932

>  <Name>
lig.pdb

>  <RI>
0

>  <Rbt.Current_Directory>
/home/itssahil/PROJECTS/Mol_Feturizer/New_Systems/rnas/5bws

>  <Rbt.Executable>
rbdock ($Id: //depot/dev/client3/rdock/2013.1/src/exe/rbdock.cxx#4 $)

>  <Rbt.Library>
libRbt.so (2013.1, Build901 2013/11/27)

>  <Rbt.Parameter_File>
/export/apps/rDock/src/rDock_2013.1_src/data/scripts/dock_solv.prm

>  <Rbt.Receptor>
prm/pocket_docking_5.prm

>  <SCORE>
-9.63971

>  <SCORE.INTER>
-9.53391

>  <SCORE.INTER.CONST>
1

>  <SCORE.INTER.POLAR>
0

>  <SCORE.INTER.ROT>
3

>  <SCORE.INTER.SOLV>
14.3545

>  <SCORE.INTER.VDW>
-16.7408

>  <SCORE.INTER.norm>
-0.43336

>  <SCORE.INTRA>
-0.105798

>  <SCORE.INTRA.DIHEDRAL>
-1.57798

>  <SCORE.INTRA.DIHEDRAL.0>
6.10773

>  <SCORE.INTRA.POLAR>
0

>  <SCORE.INTRA.POLAR.0>
0

>  <SCORE.INTRA.REPUL>
0

>  <SCORE.INTRA.REPUL.0>
0

>  <SCORE.INTRA.SOLV>
1.13825

>  <SCORE.INTRA.SOLV.lig_0>
-71.4024

>  <SCORE.INTRA.VDW>
0.114067

>  <SCORE.INTRA.VDW.0>
-1.86213

>  <SCORE.INTRA.norm>
-0.00480902

>  <SCORE.RESTR>
0

>  <SCORE.RESTR.CAVITY>
0

>  <SCORE.RESTR.norm>
0

>  <SCORE.SYSTEM>
0

>  <SCORE.SYSTEM.CONST>
0

>  <SCORE.SYSTEM.DIHEDRAL>
0

>  <SCORE.SYSTEM.SOLV>
0

>  <SCORE.SYSTEM.norm>
0

>  <SCORE.heavy>
22

>  <SCORE.norm>
-0.438169

>  <RMSD>
5.890

$$$$
lig.pdb
 OpenBabel11021811523D
libRbt.so/2013.1/901 2013/11/27
 22 23  0  0  0  0  0  0  0  0999 V2000
   -7.6866   -0.2943    0.3846 C   0  0  1  0  0  0  0  0  0  0  0  0
   -6.7029   -2.3640   -0.6831 C   0  0  1  0  0  0  0  0  0  0  0  0
   -7.2802   -3.3623   -1.7817 C   0  0  1  0  0  0  0  0  0  0  0  0
   -6.4051   -4.6956   -1.7406 C   0  0  2  0  0  0  0  0  0  0  0  0
   -8.7982   -0.8812    1.3385 C   0  0  1  0  0  0  0  0  0  0  0  0
  -10.1068   -0.9944    0.5316 C   0  0  2  0  0  0  0  0  0  0  0  0
  -10.5698    0.3886    0.0404 C   0  0  2  0  0  0  0  0  0  0  0  0
   -9.4921    1.0512   -0.8933 C   0  0  1  0  0  0  0  0  0  0  0  0
   -9.9315    2.4729   -1.3477 C   0  0  0  0  0  0  0  0  0  0  0  0
   -4.8797   -4.3391   -2.1253 C   0  0  1  0  0  0  0  0  0  0  0  0
   -4.3319   -3.3293   -0.9967 C   0  0  0  0  0  0  0  0  0  0  0  0
   -5.2158   -1.9982   -0.9898 C   0  0  2  0  0  0  0  0  0  0  0  0
  -10.8167    1.2720    1.1858 F   0  0  0  0  0  0  0  0  0  0  0  0
   -8.3198   -2.2312    1.8305 N   0  0  0  0  0  0  0  0  0  0  0  0
   -8.9885    3.1589   -2.1468 N   0  0  0  0  0  0  0  0  0  0  0  0
   -4.0102   -5.5643   -2.0837 N   0  0  0  0  0  0  0  0  0  0  0  0
   -4.7093   -1.0775    0.0485 N   0  0  0  0  0  0  0  0  0  0  0  0
   -7.4438   -1.1531   -0.6853 O   0  0  0  0  0  0  0  0  0  0  0  0
   -8.6831   -3.6755   -1.4211 O   0  0  0  0  0  0  0  0  0  0  0  0
   -6.9360   -5.5563   -2.7043 O   0  0  0  0  0  0  0  0  0  0  0  0
  -10.9161   -1.4203    1.2295 O   0  0  0  0  0  0  0  0  0  0  0  0
   -8.1717    1.0689   -0.1019 O   0  0  0  0  0  0  0  0  0  0  0  0
  1  5  1  0  0  0  0
  1 18  1  6  0  0  0
  2 18  1  6  0  0  0
  2  3  1  0  0  0  0
  2 12  1  0  0  0  0
  3 19  1  1  0  0  0
  3  4  1  0  0  0  0
  4 20  1  6  0  0  0
  4 10  1  0  0  0  0
  5  6  1  0  0  0  0
  5 14  1  6  0  0  0
  6 21  1  1  0  0  0
  7 13  1  1  0  0  0
  7  6  1  0  0  0  0
  8  9  1  1  0  0  0
  8  7  1  0  0  0  0
 10 16  1  1  0  0  0
 11 10  1  0  0  0  0
 12 17  1  1  0  0  0
 12 11  1  0  0  0  0
 15  9  1  0  0  0  0
 22  8  1  0  0  0  0
 22  1  1  0  0  0  0
M  END
>  <CHROM.1>
-76.58282547,150.01442557,177.48334999,-7.81690414,-1.49186557,-0.57228566
-2.30962890,-0.41606117,3.09973107

>  <Name>
lig.pdb

>  <RI>
0

>  <Rbt.Current_Directory>
/home/itssahil/PROJECTS/Mol_Feturizer/New_Systems/rnas/5bws

>  <Rbt.Executable>
rbdock ($Id: //depot/dev/client3/rdock/2013.1/src/exe/rbdock.cxx#4 $)

>  <Rbt.Library>
libRbt.so (2013.1, Build901 2013/11/27)

>  <Rbt.Parameter_File>
/export/apps/rDock/src/rDock_2013.1_src/data/scripts/dock_solv.prm

>  <Rbt.Receptor>
prm/pocket_docking_8.prm

>  <SCORE>
-9.61722

>  <SCORE.INTER>
-9.65868

>  <SCORE.INTER.CONST>
1

>  <SCORE.INTER.POLAR>
0

>  <SCORE.INTER.ROT>
3

>  <SCORE.INTER.SOLV>
14.1242

>  <SCORE.INTER.VDW>
-16.7472

>  <SCORE.INTER.norm>
-0.439031

>  <SCORE.INTRA>
0.0414606

>  <SCORE.INTRA.DIHEDRAL>
-1.21295

>  <SCORE.INTRA.DIHEDRAL.0>
6.10773

>  <SCORE.INTRA.POLAR>
0

>  <SCORE.INTRA.POLAR.0>
0

>  <SCORE.INTRA.REPUL>
0

>  <SCORE.INTRA.REPUL.0>
0

>  <SCORE.INTRA.SOLV>
1.18809

>  <SCORE.INTRA.SOLV.lig_0>
-71.4024

>  <SCORE.INTRA.VDW>
0.0538868

>  <SCORE.INTRA.VDW.0>
-1.86213

>  <SCORE.INTRA.norm>
0.00188457

>  <SCORE.RESTR>
0

>  <SCORE.RESTR.CAVITY>
0

>  <SCORE.RESTR.norm>
0

>  <SCORE.SYSTEM>
0

>  <SCORE.SYSTEM.CONST>
0

>  <SCORE.SYSTEM.DIHEDRAL>
0

>  <SCORE.SYSTEM.SOLV>
0

>  <SCORE.SYSTEM.norm>
0

>  <SCORE.heavy>
22

>  <SCORE.norm>
-0.437146

>  <RMSD>
5.902

$$$$
lig.pdb
 OpenBabel11021811523D
libRbt.so/2013.1/901 2013/11/27
 22 23  0  0  0  0  0  0  0  0999 V2000
   -7.7003   -0.3267    0.3860 C   0  0  1  0  0  0  0  0  0  0  0  0
   -6.7211   -2.3983   -0.6821 C   0  0  1  0  0  0  0  0  0  0  0  0
   -7.2841   -3.3909   -1.7934 C   0  0  1  0  0  0  0  0  0  0  0  0
   -6.4035   -4.7206   -1.7544 C   0  0  2  0  0  0  0  0  0  0  0  0
   -8.8177   -0.8991    1.3419 C   0  0  1  0  0  0  0  0  0  0  0  0
  -10.1279   -1.0000    0.5360 C   0  0  2  0  0  0  0  0  0  0  0  0
  -10.5760    0.3867    0.0415 C   0  0  2  0  0  0  0  0  0  0  0  0
   -9.4917    1.0352   -0.8944 C   0  0  1  0  0  0  0  0  0  0  0  0
   -9.9158    2.4605   -1.3520 C   0  0  0  0  0  0  0  0  0  0  0  0
   -4.8762   -4.3544   -2.1227 C   0  0  1  0  0  0  0  0  0  0  0  0
   -4.3431   -3.3507   -0.9816 C   0  0  0  0  0  0  0  0  0  0  0  0
   -5.2329   -2.0237   -0.9727 C   0  0  2  0  0  0  0  0  0  0  0  0
  -10.8127    1.2756    1.1848 F   0  0  0  0  0  0  0  0  0  0  0  0
   -8.3538   -2.2530    1.8371 N   0  0  0  0  0  0  0  0  0  0  0  0
   -8.9675    3.1325   -2.1569 N   0  0  0  0  0  0  0  0  0  0  0  0
   -4.0017   -5.5760   -2.0825 N   0  0  0  0  0  0  0  0  0  0  0  0
   -4.7399   -1.1086    0.0769 N   0  0  0  0  0  0  0  0  0  0  0  0
   -7.4673   -1.1908   -0.6818 O   0  0  0  0  0  0  0  0  0  0  0  0
   -8.6888   -3.7129   -1.4476 O   0  0  0  0  0  0  0  0  0  0  0  0
   -6.9218   -5.5763   -2.7292 O   0  0  0  0  0  0  0  0  0  0  0  0
  -10.9414   -1.4153    1.2353 O   0  0  0  0  0  0  0  0  0  0  0  0
   -8.1707    1.0405   -0.1036 O   0  0  0  0  0  0  0  0  0  0  0  0
  1  5  1  0  0  0  0
  1 18  1  6  0  0  0
  2 18  1  6  0  0  0
  2  3  1  0  0  0  0
  2 12  1  0  0  0  0
  3 19  1  1  0  0  0
  3  4  1  0  0  0  0
  4 20  1  6  0  0  0
  4 10  1  0  0  0  0
  5  6  1  0  0  0  0
  5 14  1  6  0  0  0
  6 21  1  1  0  0  0
  7 13  1  1  0  0  0
  7  6  1  0  0  0  0
  8  9  1  1  0  0  0
  8  7  1  0  0  0  0
 10 16  1  1  0  0  0
 11 10  1  0  0  0  0
 12 17  1  1  0  0  0
 12 11  1  0  0  0  0
 15  9  1  0  0  0  0
 22  8  1  0  0  0  0
 22  1  1  0  0  0  0
M  END
>  <CHROM.1>
-77.72699329,151.48129736,177.67811857,-7.82394780,-1.51170431,-0.57275357
-2.31009768,-0.42027185,3.09789267

>  <Name>
lig.pdb

>  <RI>
0

>  <Rbt.Current_Directory>
/home/itssahil/PROJECTS/Mol_Feturizer/New_Systems/rnas/5bws

>  <Rbt.Executable>
rbdock ($Id: //depot/dev/client3/rdock/2013.1/src/exe/rbdock.cxx#4 $)

>  <Rbt.Library>
libRbt.so (2013.1, Build901 2013/11/27)

>  <Rbt.Parameter_File>
/export/apps/rDock/src/rDock_2013.1_src/data/scripts/dock_solv.prm

>  <Rbt.Receptor>
prm/pocket_docking_5.prm

>  <SCORE>
-9.64486

>  <SCORE.INTER>
-9.63607

>  <SCORE.INTER.CONST>
1

>  <SCORE.INTER.POLAR>
0

>  <SCORE.INTER.ROT>
3

>  <SCORE.INTER.SOLV>
14.1483

>  <SCORE.INTER.VDW>
-16.7401

>  <SCORE.INTER.norm>
-0.438003

>  <SCORE.INTRA>
-0.00879242

>  <SCORE.INTRA.DIHEDRAL>
-1.32378

>  <SCORE.INTRA.DIHEDRAL.0>
6.10773

>  <SCORE.INTRA.POLAR>
0

>  <SCORE.INTRA.POLAR.0>
0

>  <SCORE.INTRA.REPUL>
0

>  <SCORE.INTRA.REPUL.0>
0

>  <SCORE.INTRA.SOLV>
1.15941

>  <SCORE.INTRA.SOLV.lig_0>
-71.4024

>  <SCORE.INTRA.VDW>
0.0733898

>  <SCORE.INTRA.VDW.0>
-1.86213

>  <SCORE.INTRA.norm>
-0.000399656

>  <SCORE.RESTR>
0

>  <SCORE.RESTR.CAVITY>
0

>  <SCORE.RESTR.norm>
0

>  <SCORE.SYSTEM>
0

>  <SCORE.SYSTEM.CONST>
0

>  <SCORE.SYSTEM.DIHEDRAL>
0

>  <SCORE.SYSTEM.SOLV>
0

>  <SCORE.SYSTEM.norm>
0

>  <SCORE.heavy>
22

>  <SCORE.norm>
-0.438403

>  <RMSD>
5.908

$$$$
lig.pdb
 OpenBabel11021811523D
libRbt.so/2013.1/901 2013/11/27
 22 23  0  0  0  0  0  0  0  0999 V2000
   -7.7203   -0.3261    0.3648 C   0  0  1  0  0  0  0  0  0  0  0  0
   -6.7313   -2.3939   -0.7017 C   0  0  1  0  0  0  0  0  0  0  0  0
   -7.2835   -3.3954   -1.8104 C   0  0  1  0  0  0  0  0  0  0  0  0
   -6.3819   -4.7111   -1.7750 C   0  0  2  0  0  0  0  0  0  0  0  0
   -8.8122   -0.9024    1.3474 C   0  0  1  0  0  0  0  0  0  0  0  0
  -10.1359   -1.0280    0.5674 C   0  0  2  0  0  0  0  0  0  0  0  0
  -10.6107    0.3479    0.0674 C   0  0  2  0  0  0  0  0  0  0  0  0
   -9.5524    1.0001   -0.8953 C   0  0  1  0  0  0  0  0  0  0  0  0
  -10.0030    2.4151   -1.3593 C   0  0  0  0  0  0  0  0  0  0  0  0
   -4.8622   -4.3211   -2.1499 C   0  0  1  0  0  0  0  0  0  0  0  0
   -4.3400   -3.3089   -1.0113 C   0  0  0  0  0  0  0  0  0  0  0  0
   -5.2505   -1.9960   -0.9987 C   0  0  2  0  0  0  0  0  0  0  0  0
  -10.8372    1.2455    1.2059 F   0  0  0  0  0  0  0  0  0  0  0  0
   -8.3221   -2.2452    1.8474 N   0  0  0  0  0  0  0  0  0  0  0  0
   -9.0898    3.0802   -2.2092 N   0  0  0  0  0  0  0  0  0  0  0  0
   -3.9684   -5.5288   -2.1132 N   0  0  0  0  0  0  0  0  0  0  0  0
   -4.7674   -1.0730    0.0487 N   0  0  0  0  0  0  0  0  0  0  0  0
   -7.4965   -1.1982   -0.6984 O   0  0  0  0  0  0  0  0  0  0  0  0
   -8.6814   -3.7394   -1.4586 O   0  0  0  0  0  0  0  0  0  0  0  0
   -6.8909   -5.5751   -2.7474 O   0  0  0  0  0  0  0  0  0  0  0  0
  -10.9309   -1.4461    1.2861 O   0  0  0  0  0  0  0  0  0  0  0  0
   -8.2171    1.0300   -0.1297 O   0  0  0  0  0  0  0  0  0  0  0  0
  1  5  1  0  0  0  0
  1 18  1  6  0  0  0
  2 18  1  6  0  0  0
  2  3  1  0  0  0  0
  2 12  1  0  0  0  0
  3 19  1  1  0  0  0
  3  4  1  0  0  0  0
  4 20  1  6  0  0  0
  4 10  1  0  0  0  0
  5  6  1  0  0  0  0
  5 14  1  6  0  0  0
  6 21  1  1  0  0  0
  7 13  1  1  0  0  0
  7  6  1  0  0  0  0
  8  9  1  1  0  0  0
  8  7  1  0  0  0  0
 10 16  1  1  0  0  0
 11 10  1  0  0  0  0
 12 17  1  1  0  0  0
 12 11  1  0  0  0  0
 15  9  1  0  0  0  0
 22  8  1  0  0  0  0
 22  1  1  0  0  0  0
M  END
>  <CHROM.1>
-77.96599811,152.63934229,178.81750657,-7.83890613,-1.51718517,-0.58161757
-2.33083271,-0.43948392,3.07855563

>  <Name>
lig.pdb

>  <RI>
0

>  <Rbt.Current_Directory>
/home/itssahil/PROJECTS/Mol_Feturizer/New_Systems/rnas/5bws

>  <Rbt.Executable>
rbdock ($Id: //depot/dev/client3/rdock/2013.1/src/exe/rbdock.cxx#4 $)

>  <Rbt.Library>
libRbt.so (2013.1, Build901 2013/11/27)

>  <Rbt.Parameter_File>
/export/apps/rDock/src/rDock_2013.1_src/data/scripts/dock_solv.prm

>  <Rbt.Receptor>
prm/pocket_docking_6.prm

>  <SCORE>
-9.60266

>  <SCORE.INTER>
-9.51322

>  <SCORE.INTER.CONST>
1

>  <SCORE.INTER.POLAR>
0

>  <SCORE.INTER.ROT>
3

>  <SCORE.INTER.SOLV>
14.5542

>  <SCORE.INTER.VDW>
-16.7936

>  <SCORE.INTER.norm>
-0.432419

>  <SCORE.INTRA>
-0.0894318

>  <SCORE.INTRA.DIHEDRAL>
-1.51894

>  <SCORE.INTRA.DIHEDRAL.0>
6.10773

>  <SCORE.INTRA.POLAR>
0

>  <SCORE.INTRA.POLAR.0>
0

>  <SCORE.INTRA.REPUL>
0

>  <SCORE.INTRA.REPUL.0>
0

>  <SCORE.INTRA.SOLV>
1.15292

>  <SCORE.INTRA.SOLV.lig_0>
-71.4024

>  <SCORE.INTRA.VDW>
0.0935792

>  <SCORE.INTRA.VDW.0>
-1.86213

>  <SCORE.INTRA.norm>
-0.00406508

>  <SCORE.RESTR>
0

>  <SCORE.RESTR.CAVITY>
0

>  <SCORE.RESTR.norm>
0

>  <SCORE.SYSTEM>
0

>  <SCORE.SYSTEM.CONST>
0

>  <SCORE.SYSTEM.DIHEDRAL>
0

>  <SCORE.SYSTEM.SOLV>
0

>  <SCORE.SYSTEM.norm>
0

>  <SCORE.heavy>
22

>  <SCORE.norm>
-0.436484

>  <RMSD>
5.910

$$$$
lig.pdb
 OpenBabel11021811523D
libRbt.so/2013.1/901 2013/11/27
 22 23  0  0  0  0  0  0  0  0999 V2000
   -7.7265   -0.2957    0.3749 C   0  0  1  0  0  0  0  0  0  0  0  0
   -6.7428   -2.3702   -0.6835 C   0  0  1  0  0  0  0  0  0  0  0  0
   -7.3177   -3.3745   -1.7780 C   0  0  1  0  0  0  0  0  0  0  0  0
   -6.4387   -4.7051   -1.7321 C   0  0  2  0  0  0  0  0  0  0  0  0
   -8.8143   -0.8895    1.3517 C   0  0  1  0  0  0  0  0  0  0  0  0
  -10.1333   -1.0301    0.5664 C   0  0  2  0  0  0  0  0  0  0  0  0
  -10.6245    0.3409    0.0689 C   0  0  2  0  0  0  0  0  0  0  0  0
   -9.5713    1.0100   -0.8879 C   0  0  1  0  0  0  0  0  0  0  0  0
  -10.0389    2.4205   -1.3492 C   0  0  0  0  0  0  0  0  0  0  0  0
   -4.9144   -4.3456   -2.1187 C   0  0  1  0  0  0  0  0  0  0  0  0
   -4.3692   -3.3298   -0.9942 C   0  0  0  0  0  0  0  0  0  0  0  0
   -5.2569   -2.0013   -0.9922 C   0  0  2  0  0  0  0  0  0  0  0  0
  -10.8669    1.2320    1.2093 F   0  0  0  0  0  0  0  0  0  0  0  0
   -8.3082   -2.2272    1.8495 N   0  0  0  0  0  0  0  0  0  0  0  0
   -9.1261    3.1051   -2.1839 N   0  0  0  0  0  0  0  0  0  0  0  0
   -4.0414   -5.5681   -2.0727 N   0  0  0  0  0  0  0  0  0  0  0  0
   -4.7527   -1.0751    0.0423 N   0  0  0  0  0  0  0  0  0  0  0  0
   -7.4872   -1.1615   -0.6901 O   0  0  0  0  0  0  0  0  0  0  0  0
   -8.7196   -3.6903   -1.4156 O   0  0  0  0  0  0  0  0  0  0  0  0
   -6.9674   -5.5710   -2.6921 O   0  0  0  0  0  0  0  0  0  0  0  0
  -10.9254   -1.4609    1.2809 O   0  0  0  0  0  0  0  0  0  0  0  0
   -8.2393    1.0552   -0.1173 O   0  0  0  0  0  0  0  0  0  0  0  0
  1  5  1  0  0  0  0
  1 18  1  6  0  0  0
  2 18  1  6  0  0  0
  2  3  1  0  0  0  0
  2 12  1  0  0  0  0
  3 19  1  1  0  0  0
  3  4  1  0  0  0  0
  4 20  1  6  0  0  0
  4 10  1  0  0  0  0
  5  6  1  0  0  0  0
  5 14  1  6  0  0  0
  6 21  1  1  0  0  0
  7 13  1  1  0  0  0
  7  6  1  0  0  0  0
  8  9  1  1  0  0  0
  8  7  1  0  0  0  0
 10 16  1  1  0  0  0
 11 10  1  0  0  0  0
 12 17  1  1  0  0  0
 12 11  1  0  0  0  0
 15  9  1  0  0  0  0
 22  8  1  0  0  0  0
 22  1  1  0  0  0  0
M  END
>  <CHROM.1>
-75.68523419,150.37627201,178.27536307,-7.86176306,-1.51080418,-0.56523987
-2.32116845,-0.42642032,3.08599930

>  <Name>
lig.pdb

>  <RI>
0

>  <Rbt.Current_Directory>
/home/itssahil/PROJECTS/Mol_Feturizer/New_Systems/rnas/5bws

>  <Rbt.Executable>
rbdock ($Id: //depot/dev/client3/rdock/2013.1/src/exe/rbdock.cxx#4 $)

>  <Rbt.Library>
libRbt.so (2013.1, Build901 2013/11/27)

>  <Rbt.Parameter_File>
/export/apps/rDock/src/rDock_2013.1_src/data/scripts/dock_solv.prm

>  <Rbt.Receptor>
prm/pocket_docking_6.prm

>  <SCORE>
-9.65603

>  <SCORE.INTER>
-9.62494

>  <SCORE.INTER.CONST>
1

>  <SCORE.INTER.POLAR>
0

>  <SCORE.INTER.ROT>
3

>  <SCORE.INTER.SOLV>
14.4407

>  <SCORE.INTER.VDW>
-16.8302

>  <SCORE.INTER.norm>
-0.437497

>  <SCORE.INTRA>
-0.0310891

>  <SCORE.INTRA.DIHEDRAL>
-1.41981

>  <SCORE.INTRA.DIHEDRAL.0>
6.10773

>  <SCORE.INTRA.POLAR>
0

>  <SCORE.INTRA.POLAR.0>
0

>  <SCORE.INTRA.REPUL>
0

>  <SCORE.INTRA.REPUL.0>
0

>  <SCORE.INTRA.SOLV>
1.22504

>  <SCORE.INTRA.SOLV.lig_0>
-71.4024

>  <SCORE.INTRA.VDW>
0.0662953

>  <SCORE.INTRA.VDW.0>
-1.86213

>  <SCORE.INTRA.norm>
-0.00141314

>  <SCORE.RESTR>
0

>  <SCORE.RESTR.CAVITY>
0

>  <SCORE.RESTR.norm>
0

>  <SCORE.SYSTEM>
0

>  <SCORE.SYSTEM.CONST>
0

>  <SCORE.SYSTEM.DIHEDRAL>
0

>  <SCORE.SYSTEM.SOLV>
0

>  <SCORE.SYSTEM.norm>
0

>  <SCORE.heavy>
22

>  <SCORE.norm>
-0.43891

>  <RMSD>
5.916

$$$$
lig.pdb
 OpenBabel11021811523D
libRbt.so/2013.1/901 2013/11/27
 22 23  0  0  0  0  0  0  0  0999 V2000
   -5.2477    0.0387    0.4232 C   0  0  1  0  0  0  0  0  0  0  0  0
   -7.5995    0.2421    1.3281 C   0  0  1  0  0  0  0  0  0  0  0  0
   -7.5575    1.8274    1.1798 C   0  0  1  0  0  0  0  0  0  0  0  0
   -9.0601    2.3626    1.2101 C   0  0  2  0  0  0  0  0  0  0  0  0
   -4.1301   -1.0754    0.4318 C   0  0  1  0  0  0  0  0  0  0  0  0
   -3.5321   -1.1390    1.8512 C   0  0  2  0  0  0  0  0  0  0  0  0
   -2.8826    0.2029    2.2335 C   0  0  2  0  0  0  0  0  0  0  0  0
   -3.9351    1.3708    2.2136 C   0  0  1  0  0  0  0  0  0  0  0  0
   -3.2717    2.7386    2.5454 C   0  0  0  0  0  0  0  0  0  0  0  0
   -9.8642    1.7527   -0.0483 C   0  0  1  0  0  0  0  0  0  0  0  0
   -9.8841    0.1528    0.1347 C   0  0  0  0  0  0  0  0  0  0  0  0
   -8.3876   -0.4069    0.1462 C   0  0  2  0  0  0  0  0  0  0  0  0
   -1.7986    0.5214    1.2971 F   0  0  0  0  0  0  0  0  0  0  0  0
   -4.7789   -2.3845    0.0333 N   0  0  0  0  0  0  0  0  0  0  0  0
   -4.1640    3.8337    2.6000 N   0  0  0  0  0  0  0  0  0  0  0  0
  -11.2938    2.2161   -0.0535 N   0  0  0  0  0  0  0  0  0  0  0  0
   -8.4130   -1.8741    0.3160 N   0  0  0  0  0  0  0  0  0  0  0  0
   -6.2826   -0.2868    1.2974 O   0  0  0  0  0  0  0  0  0  0  0  0
   -6.8102    2.3740    2.3370 O   0  0  0  0  0  0  0  0  0  0  0  0
   -8.9957    3.7525    1.0881 O   0  0  0  0  0  0  0  0  0  0  0  0
   -2.7162   -1.9500    1.8545 O   0  0  0  0  0  0  0  0  0  0  0  0
   -4.5860    1.3563    0.8185 O   0  0  0  0  0  0  0  0  0  0  0  0
  1  5  1  0  0  0  0
  1 18  1  1  0  0  0
  2 18  1  6  0  0  0
  2  3  1  0  0  0  0
  2 12  1  0  0  0  0
  3 19  1  1  0  0  0
  3  4  1  0  0  0  0
  4 20  1  6  0  0  0
  4 10  1  0  0  0  0
  5  6  1  0  0  0  0
  5 14  1  1  0  0  0
  6 21  1  6  0  0  0
  7 13  1  6  0  0  0
  7  6  1  0  0  0  0
  8  9  1  6  0  0  0
  8  7  1  0  0  0  0
 10 16  1  1  0  0  0
 11 10  1  0  0  0  0
 12 17  1  1  0  0  0
 12 11  1  0  0  0  0
 15  9  1  0  0  0  0
 22  8  1  0  0  0  0
 22  1  1  0  0  0  0
M  END
>  <CHROM.1>
-161.97187930,-45.06132250,-177.58883571,-6.06502782,0.72421099,1.16173451
0.17988726,0.22954356,-2.85648218

>  <Name>
lig.pdb

>  <RI>
0

>  <Rbt.Current_Directory>
/home/itssahil/PROJECTS/Mol_Feturizer/New_Systems/rnas/5bws

>  <Rbt.Executable>
rbdock ($Id: //depot/dev/client3/rdock/2013.1/src/exe/rbdock.cxx#4 $)

>  <Rbt.Library>
libRbt.so (2013.1, Build901 2013/11/27)

>  <Rbt.Parameter_File>
/export/apps/rDock/src/rDock_2013.1_src/data/scripts/dock_solv.prm

>  <Rbt.Receptor>
prm/pocket_docking_7.prm

>  <SCORE>
-7.80065

>  <SCORE.INTER>
-6.76757

>  <SCORE.INTER.CONST>
1

>  <SCORE.INTER.POLAR>
0

>  <SCORE.INTER.ROT>
3

>  <SCORE.INTER.SOLV>
15.495

>  <SCORE.INTER.VDW>
-15.2767

>  <SCORE.INTER.norm>
-0.307617

>  <SCORE.INTRA>
-1.03308

>  <SCORE.INTRA.DIHEDRAL>
-3.55053

>  <SCORE.INTRA.DIHEDRAL.0>
6.10773

>  <SCORE.INTRA.POLAR>
0

>  <SCORE.INTRA.POLAR.0>
0

>  <SCORE.INTRA.REPUL>
0

>  <SCORE.INTRA.REPUL.0>
0

>  <SCORE.INTRA.SOLV>
1.47197

>  <SCORE.INTRA.SOLV.lig_0>
-71.4024

>  <SCORE.INTRA.VDW>
0.00620208

>  <SCORE.INTRA.VDW.0>
-1.86213

>  <SCORE.INTRA.norm>
-0.0469581

>  <SCORE.RESTR>
0

>  <SCORE.RESTR.CAVITY>
0

>  <SCORE.RESTR.norm>
0

>  <SCORE.SYSTEM>
0

>  <SCORE.SYSTEM.CONST>
0

>  <SCORE.SYSTEM.DIHEDRAL>
0

>  <SCORE.SYSTEM.SOLV>
0

>  <SCORE.SYSTEM.norm>
0

>  <SCORE.heavy>
22

>  <SCORE.norm>
-0.354575

>  <RMSD>
5.930

$$$$
lig.pdb
 OpenBabel11021811523D
libRbt.so/2013.1/901 2013/11/27
 22 23  0  0  0  0  0  0  0  0999 V2000
   -7.6814   -0.9493    0.4781 C   0  0  1  0  0  0  0  0  0  0  0  0
   -6.7286   -2.9321   -0.7677 C   0  0  1  0  0  0  0  0  0  0  0  0
   -7.2005   -3.8588   -1.9742 C   0  0  1  0  0  0  0  0  0  0  0  0
   -6.0602   -4.9441   -2.2336 C   0  0  2  0  0  0  0  0  0  0  0  0
   -8.8508   -1.1530    1.5179 C   0  0  1  0  0  0  0  0  0  0  0  0
  -10.1880   -1.0191    0.7628 C   0  0  2  0  0  0  0  0  0  0  0  0
  -10.3295    0.3819    0.1418 C   0  0  2  0  0  0  0  0  0  0  0  0
   -9.1737    0.6688   -0.8849 C   0  0  1  0  0  0  0  0  0  0  0  0
   -9.2810    2.1049   -1.4740 C   0  0  0  0  0  0  0  0  0  0  0  0
   -4.7021   -4.1904   -2.6691 C   0  0  1  0  0  0  0  0  0  0  0  0
   -4.2579   -3.2640   -1.4289 C   0  0  0  0  0  0  0  0  0  0  0  0
   -5.4006   -2.1903   -1.1220 C   0  0  2  0  0  0  0  0  0  0  0  0
  -10.2972    1.4038    1.1944 F   0  0  0  0  0  0  0  0  0  0  0  0
   -8.6865   -2.5258    2.1358 N   0  0  0  0  0  0  0  0  0  0  0  0
   -8.3173    2.4157   -2.4605 N   0  0  0  0  0  0  0  0  0  0  0  0
   -3.5906   -5.1731   -2.9088 N   0  0  0  0  0  0  0  0  0  0  0  0
   -4.9877   -1.3453    0.0172 N   0  0  0  0  0  0  0  0  0  0  0  0
   -7.7078   -1.9394   -0.5018 O   0  0  0  0  0  0  0  0  0  0  0  0
   -8.4519   -4.5388   -1.5644 O   0  0  0  0  0  0  0  0  0  0  0  0
   -6.5011   -5.7482   -3.2872 O   0  0  0  0  0  0  0  0  0  0  0  0
  -11.0389   -1.1656    1.5230 O   0  0  0  0  0  0  0  0  0  0  0  0
   -7.8488    0.4383   -0.1355 O   0  0  0  0  0  0  0  0  0  0  0  0
  1  5  1  0  0  0  0
  1 18  1  6  0  0  0
  2 18  1  6  0  0  0
  2  3  1  0  0  0  0
  2 12  1  0  0  0  0
  3 19  1  1  0  0  0
  3  4  1  0  0  0  0
  4 20  1  6  0  0  0
  4 10  1  0  0  0  0
  5  6  1  0  0  0  0
  5 14  1  6  0  0  0
  6 21  1  1  0  0  0
  7 13  1  1  0  0  0
  7  6  1  0  0  0  0
  8  9  1  1  0  0  0
  8  7  1  0  0  0  0
 10 16  1  1  0  0  0
 11 10  1  0  0  0  0
 12 17  1  1  0  0  0
 12 11  1  0  0  0  0
 15  9  1  0  0  0  0
 22  8  1  0  0  0  0
 22  1  1  0  0  0  0
M  END
>  <CHROM.1>
-116.13665263,179.27640647,-176.78863805,-7.66810870,-1.76365484,-0.68447266
2.42580066,0.63777585,-0.12810149

>  <Name>
lig.pdb

>  <RI>
0

>  <Rbt.Current_Directory>
/home/itssahil/PROJECTS/Mol_Feturizer/New_Systems/rnas/5bws

>  <Rbt.Executable>
rbdock ($Id: //depot/dev/client3/rdock/2013.1/src/exe/rbdock.cxx#4 $)

>  <Rbt.Library>
libRbt.so (2013.1, Build901 2013/11/27)

>  <Rbt.Parameter_File>
/export/apps/rDock/src/rDock_2013.1_src/data/scripts/dock_solv.prm

>  <Rbt.Receptor>
prm/pocket_docking_8.prm

>  <SCORE>
-7.33972

>  <SCORE.INTER>
-8.76513

>  <SCORE.INTER.CONST>
1

>  <SCORE.INTER.POLAR>
0

>  <SCORE.INTER.ROT>
3

>  <SCORE.INTER.SOLV>
17.3146

>  <SCORE.INTER.VDW>
-17.2149

>  <SCORE.INTER.norm>
-0.398415

>  <SCORE.INTRA>
1.42541

>  <SCORE.INTRA.DIHEDRAL>
1.06004

>  <SCORE.INTRA.DIHEDRAL.0>
6.10773

>  <SCORE.INTRA.POLAR>
0

>  <SCORE.INTRA.POLAR.0>
0

>  <SCORE.INTRA.REPUL>
0

>  <SCORE.INTRA.REPUL.0>
0

>  <SCORE.INTRA.SOLV>
-0.0477761

>  <SCORE.INTRA.SOLV.lig_0>
-71.4024

>  <SCORE.INTRA.VDW>
0.919275

>  <SCORE.INTRA.VDW.0>
-1.86213

>  <SCORE.INTRA.norm>
0.0647913

>  <SCORE.RESTR>
0

>  <SCORE.RESTR.CAVITY>
0

>  <SCORE.RESTR.norm>
0

>  <SCORE.SYSTEM>
0

>  <SCORE.SYSTEM.CONST>
0

>  <SCORE.SYSTEM.DIHEDRAL>
0

>  <SCORE.SYSTEM.SOLV>
0

>  <SCORE.SYSTEM.norm>
0

>  <SCORE.heavy>
22

>  <SCORE.norm>
-0.333624

>  <RMSD>
5.930

$$$$
lig.pdb
 OpenBabel11021811523D
libRbt.so/2013.1/901 2013/11/27
 22 23  0  0  0  0  0  0  0  0999 V2000
   -7.1056   -2.0076    1.1472 C   0  0  1  0  0  0  0  0  0  0  0  0
   -9.4428   -1.7292    2.0697 C   0  0  1  0  0  0  0  0  0  0  0  0
   -9.0049   -1.8404    3.5970 C   0  0  1  0  0  0  0  0  0  0  0  0
  -10.2915   -2.2489    4.4473 C   0  0  2  0  0  0  0  0  0  0  0  0
   -6.2346   -1.3613    0.0009 C   0  0  1  0  0  0  0  0  0  0  0  0
   -6.9882   -1.5458   -1.3311 C   0  0  2  0  0  0  0  0  0  0  0  0
   -7.1800   -3.0389   -1.6507 C   0  0  2  0  0  0  0  0  0  0  0  0
   -8.0150   -3.7584   -0.5294 C   0  0  1  0  0  0  0  0  0  0  0  0
   -8.1642   -5.2796   -0.8204 C   0  0  0  0  0  0  0  0  0  0  0  0
  -11.4022   -1.0863    4.3175 C   0  0  1  0  0  0  0  0  0  0  0  0
  -11.8178   -1.0020    2.7639 C   0  0  0  0  0  0  0  0  0  0  0  0
  -10.5375   -0.6310    1.8830 C   0  0  2  0  0  0  0  0  0  0  0  0
   -5.8749   -3.6988   -1.7714 F   0  0  0  0  0  0  0  0  0  0  0  0
   -6.0363    0.1014    0.3395 N   0  0  0  0  0  0  0  0  0  0  0  0
   -8.4838   -5.5994   -2.1598 N   0  0  0  0  0  0  0  0  0  0  0  0
  -12.6433   -1.4345    5.0902 N   0  0  0  0  0  0  0  0  0  0  0  0
  -10.9253   -0.5569    0.4594 N   0  0  0  0  0  0  0  0  0  0  0  0
   -8.3317   -1.3572    1.2684 O   0  0  0  0  0  0  0  0  0  0  0  0
   -7.9797   -2.9056    3.7011 O   0  0  0  0  0  0  0  0  0  0  0  0
   -9.8801   -2.3489    5.7784 O   0  0  0  0  0  0  0  0  0  0  0  0
   -6.3506   -1.0760   -2.1655 O   0  0  0  0  0  0  0  0  0  0  0  0
   -7.2956   -3.4827    0.8035 O   0  0  0  0  0  0  0  0  0  0  0  0
  1  5  1  0  0  0  0
  1 18  1  6  0  0  0
  2 18  1  6  0  0  0
  2  3  1  0  0  0  0
  2 12  1  0  0  0  0
  3 19  1  6  0  0  0
  3  4  1  0  0  0  0
  4 20  1  1  0  0  0
  4 10  1  0  0  0  0
  5  6  1  0  0  0  0
  5 14  1  1  0  0  0
  6 21  1  6  0  0  0
  7 13  1  1  0  0  0
  7  6  1  0  0  0  0
  8  9  1  6  0  0  0
  8  7  1  0  0  0  0
 10 16  1  1  0  0  0
 11 10  1  0  0  0  0
 12 17  1  6  0  0  0
 12 11  1  0  0  0  0
 15  9  1  0  0  0  0
 22  8  1  0  0  0  0
 22  1  1  0  0  0  0
M  END
>  <CHROM.1>
172.24116341,56.97827507,-44.22905115,-8.57112427,-2.21087730,1.20551308
-0.48624073,0.86403040,0.35497070

>  <Name>
lig.pdb

>  <RI>
0

>  <Rbt.Current_Directory>
/home/itssahil/PROJECTS/Mol_Feturizer/New_Systems/rnas/5bws

>  <Rbt.Executable>
rbdock ($Id: //depot/dev/client3/rdock/2013.1/src/exe/rbdock.cxx#4 $)

>  <Rbt.Library>
libRbt.so (2013.1, Build901 2013/11/27)

>  <Rbt.Parameter_File>
/export/apps/rDock/src/rDock_2013.1_src/data/scripts/dock_solv.prm

>  <Rbt.Receptor>
prm/blind_docking_20.prm

>  <SCORE>
-5.47431

>  <SCORE.INTER>
-4.00115

>  <SCORE.INTER.CONST>
1

>  <SCORE.INTER.POLAR>
0

>  <SCORE.INTER.ROT>
3

>  <SCORE.INTER.SOLV>
23.358

>  <SCORE.INTER.VDW>
-16.0534

>  <SCORE.INTER.norm>
-0.181871

>  <SCORE.INTRA>
-2.23885

>  <SCORE.INTRA.DIHEDRAL>
-4.91836

>  <SCORE.INTRA.DIHEDRAL.0>
6.10773

>  <SCORE.INTRA.POLAR>
0

>  <SCORE.INTRA.POLAR.0>
0

>  <SCORE.INTRA.REPUL>
0

>  <SCORE.INTRA.REPUL.0>
0

>  <SCORE.INTRA.SOLV>
-0.768621

>  <SCORE.INTRA.SOLV.lig_0>
-71.4024

>  <SCORE.INTRA.VDW>
0.604643

>  <SCORE.INTRA.VDW.0>
-1.86213

>  <SCORE.INTRA.norm>
-0.101766

>  <SCORE.RESTR>
0.765688

>  <SCORE.RESTR.CAVITY>
0.765688

>  <SCORE.RESTR.norm>
0.034804

>  <SCORE.SYSTEM>
0

>  <SCORE.SYSTEM.CONST>
0

>  <SCORE.SYSTEM.DIHEDRAL>
0

>  <SCORE.SYSTEM.SOLV>
0

>  <SCORE.SYSTEM.norm>
0

>  <SCORE.heavy>
22

>  <SCORE.norm>
-0.248832

>  <RMSD>
5.932

$$$$
lig.pdb
 OpenBabel11021811523D
libRbt.so/2013.1/901 2013/11/27
 22 23  0  0  0  0  0  0  0  0999 V2000
   -7.1010   -1.8663    1.2913 C   0  0  1  0  0  0  0  0  0  0  0  0
   -9.4411   -1.6917    2.2319 C   0  0  1  0  0  0  0  0  0  0  0  0
   -9.0601   -1.8707    3.7680 C   0  0  1  0  0  0  0  0  0  0  0  0
  -10.3582   -2.3879    4.5379 C   0  0  2  0  0  0  0  0  0  0  0  0
   -6.2022   -1.0583    0.2767 C   0  0  1  0  0  0  0  0  0  0  0  0
   -6.9380   -1.0101   -1.0771 C   0  0  2  0  0  0  0  0  0  0  0  0
   -7.1486   -2.4278   -1.6378 C   0  0  2  0  0  0  0  0  0  0  0  0
   -8.0120   -3.3046   -0.6592 C   0  0  1  0  0  0  0  0  0  0  0  0
   -8.1809   -4.7553   -1.1957 C   0  0  0  0  0  0  0  0  0  0  0  0
  -11.5189   -1.2733    4.4257 C   0  0  1  0  0  0  0  0  0  0  0  0
  -11.8752   -1.1186    2.8628 C   0  0  0  0  0  0  0  0  0  0  0  0
  -10.5804   -0.6373    2.0600 C   0  0  2  0  0  0  0  0  0  0  0  0
   -5.8524   -3.0828   -1.8477 F   0  0  0  0  0  0  0  0  0  0  0  0
   -5.9859    0.3260    0.8513 N   0  0  0  0  0  0  0  0  0  0  0  0
   -6.9819   -5.4989   -1.2845 N   0  0  0  0  0  0  0  0  0  0  0  0
  -12.7714   -1.7237    5.1235 N   0  0  0  0  0  0  0  0  0  0  0  0
  -10.9136   -0.4991    0.6274 N   0  0  0  0  0  0  0  0  0  0  0  0
   -8.3183   -1.2220    1.5012 O   0  0  0  0  0  0  0  0  0  0  0  0
   -7.9886   -2.8907    3.8563 O   0  0  0  0  0  0  0  0  0  0  0  0
   -9.9964   -2.5455    5.8778 O   0  0  0  0  0  0  0  0  0  0  0  0
   -6.2801   -0.4227   -1.8157 O   0  0  0  0  0  0  0  0  0  0  0  0
   -7.3091   -3.2623    0.7099 O   0  0  0  0  0  0  0  0  0  0  0  0
  1  5  1  0  0  0  0
  1 18  1  6  0  0  0
  2 18  1  6  0  0  0
  2  3  1  0  0  0  0
  2 12  1  0  0  0  0
  3 19  1  6  0  0  0
  3  4  1  0  0  0  0
  4 20  1  1  0  0  0
  4 10  1  0  0  0  0
  5  6  1  0  0  0  0
  5 14  1  1  0  0  0
  6 21  1  6  0  0  0
  7 13  1  1  0  0  0
  7  6  1  0  0  0  0
  8  9  1  6  0  0  0
  8  7  1  0  0  0  0
 10 16  1  1  0  0  0
 11 10  1  0  0  0  0
 12 17  1  6  0  0  0
 12 11  1  0  0  0  0
 15  9  1  0  0  0  0
 22  8  1  0  0  0  0
 22  1  1  0  0  0  0
M  END
>  <CHROM.1>
173.14127571,63.71193652,64.41908138,-8.51825380,-2.03735416,1.35012121,-0.10517939
0.90540334,-0.01258824

>  <Name>
lig.pdb

>  <RI>
0

>  <Rbt.Current_Directory>
/home/itssahil/PROJECTS/Mol_Feturizer/New_Systems/rnas/5bws

>  <Rbt.Executable>
rbdock ($Id: //depot/dev/client3/rdock/2013.1/src/exe/rbdock.cxx#4 $)

>  <Rbt.Library>
libRbt.so (2013.1, Build901 2013/11/27)

>  <Rbt.Parameter_File>
/export/apps/rDock/src/rDock_2013.1_src/data/scripts/dock_solv.prm

>  <Rbt.Receptor>
prm/blind_docking_20.prm

>  <SCORE>
-7.01726

>  <SCORE.INTER>
-5.34848

>  <SCORE.INTER.CONST>
1

>  <SCORE.INTER.POLAR>
0

>  <SCORE.INTER.ROT>
3

>  <SCORE.INTER.SOLV>
18.8007

>  <SCORE.INTER.VDW>
-15.4326

>  <SCORE.INTER.norm>
-0.243113

>  <SCORE.INTRA>
-2.5235

>  <SCORE.INTRA.DIHEDRAL>
-5.73772

>  <SCORE.INTRA.DIHEDRAL.0>
6.10773

>  <SCORE.INTRA.POLAR>
0

>  <SCORE.INTRA.POLAR.0>
0

>  <SCORE.INTRA.REPUL>
0

>  <SCORE.INTRA.REPUL.0>
0

>  <SCORE.INTRA.SOLV>
0.152975

>  <SCORE.INTRA.SOLV.lig_0>
-71.4024

>  <SCORE.INTRA.VDW>
0.268878

>  <SCORE.INTRA.VDW.0>
-1.86213

>  <SCORE.INTRA.norm>
-0.114704

>  <SCORE.RESTR>
0.854714

>  <SCORE.RESTR.CAVITY>
0.854714

>  <SCORE.RESTR.norm>
0.0388506

>  <SCORE.SYSTEM>
0

>  <SCORE.SYSTEM.CONST>
0

>  <SCORE.SYSTEM.DIHEDRAL>
0

>  <SCORE.SYSTEM.SOLV>
0

>  <SCORE.SYSTEM.norm>
0

>  <SCORE.heavy>
22

>  <SCORE.norm>
-0.318966

>  <RMSD>
5.982

$$$$
lig.pdb
 OpenBabel11021811523D
libRbt.so/2013.1/901 2013/11/27
 22 23  0  0  0  0  0  0  0  0999 V2000
   -7.5717   -0.1130    0.1429 C   0  0  1  0  0  0  0  0  0  0  0  0
   -6.7679   -2.3018   -0.8340 C   0  0  1  0  0  0  0  0  0  0  0  0
   -7.4263   -3.3873   -1.7958 C   0  0  1  0  0  0  0  0  0  0  0  0
   -6.4969   -4.6840   -1.7802 C   0  0  2  0  0  0  0  0  0  0  0  0
   -8.2266   -0.6251    1.4841 C   0  0  1  0  0  0  0  0  0  0  0  0
   -9.6910   -1.0026    1.1850 C   0  0  2  0  0  0  0  0  0  0  0  0
  -10.4839    0.2218    0.6945 C   0  0  2  0  0  0  0  0  0  0  0  0
   -9.8656    0.8084   -0.6268 C   0  0  1  0  0  0  0  0  0  0  0  0
  -10.6304    2.0794   -1.0961 C   0  0  0  0  0  0  0  0  0  0  0  0
   -5.0428   -4.2995   -2.3632 C   0  0  1  0  0  0  0  0  0  0  0  0
   -4.4108   -3.2016   -1.3688 C   0  0  0  0  0  0  0  0  0  0  0  0
   -5.3432   -1.9045   -1.3357 C   0  0  2  0  0  0  0  0  0  0  0  0
  -10.4849    1.2659    1.7254 F   0  0  0  0  0  0  0  0  0  0  0  0
   -7.4239   -1.8155    1.9657 N   0  0  0  0  0  0  0  0  0  0  0  0
  -10.0634    2.7353   -2.2128 N   0  0  0  0  0  0  0  0  0  0  0  0
   -4.1236   -5.4885   -2.3528 N   0  0  0  0  0  0  0  0  0  0  0  0
   -4.7588   -0.9026   -0.4208 N   0  0  0  0  0  0  0  0  0  0  0  0
   -7.5544   -1.1201   -0.8197 O   0  0  0  0  0  0  0  0  0  0  0  0
   -8.7634   -3.7258   -1.2536 O   0  0  0  0  0  0  0  0  0  0  0  0
   -7.0993   -5.6220   -2.6218 O   0  0  0  0  0  0  0  0  0  0  0  0
  -10.1671   -1.3735    2.1644 O   0  0  0  0  0  0  0  0  0  0  0  0
   -8.3809    1.0907   -0.3332 O   0  0  0  0  0  0  0  0  0  0  0  0
  1  5  1  0  0  0  0
  1 18  1  6  0  0  0
  2 18  1  6  0  0  0
  2  3  1  0  0  0  0
  2 12  1  0  0  0  0
  3 19  1  1  0  0  0
  3  4  1  0  0  0  0
  4 20  1  6  0  0  0
  4 10  1  0  0  0  0
  5  6  1  0  0  0  0
  5 14  1  6  0  0  0
  6 21  1  1  0  0  0
  7 13  1  1  0  0  0
  7  6  1  0  0  0  0
  8  9  1  1  0  0  0
  8  7  1  0  0  0  0
 10 16  1  1  0  0  0
 11 10  1  0  0  0  0
 12 17  1  1  0  0  0
 12 11  1  0  0  0  0
 15  9  1  0  0  0  0
 22  8  1  0  0  0  0
 22  1  1  0  0  0  0
M  END
>  <CHROM.1>
-69.98555646,159.43437814,174.68662998,-7.82822495,-1.48564514,-0.50438018
-2.50461404,-0.71026280,2.82245943

>  <Name>
lig.pdb

>  <RI>
0

>  <Rbt.Current_Directory>
/home/itssahil/PROJECTS/Mol_Feturizer/New_Systems/rnas/5bws

>  <Rbt.Executable>
rbdock ($Id: //depot/dev/client3/rdock/2013.1/src/exe/rbdock.cxx#4 $)

>  <Rbt.Library>
libRbt.so (2013.1, Build901 2013/11/27)

>  <Rbt.Parameter_File>
/export/apps/rDock/src/rDock_2013.1_src/data/scripts/dock_solv.prm

>  <Rbt.Receptor>
prm/pocket_docking_6.prm

>  <SCORE>
-9.71374

>  <SCORE.INTER>
-9.07337

>  <SCORE.INTER.CONST>
1

>  <SCORE.INTER.POLAR>
0

>  <SCORE.INTER.ROT>
3

>  <SCORE.INTER.SOLV>
15.6712

>  <SCORE.INTER.VDW>
-16.8727

>  <SCORE.INTER.norm>
-0.412426

>  <SCORE.INTRA>
-0.640363

>  <SCORE.INTRA.DIHEDRAL>
-3.63014

>  <SCORE.INTRA.DIHEDRAL.0>
6.10773

>  <SCORE.INTRA.POLAR>
0

>  <SCORE.INTRA.POLAR.0>
0

>  <SCORE.INTRA.REPUL>
0

>  <SCORE.INTRA.REPUL.0>
0

>  <SCORE.INTRA.SOLV>
1.81962

>  <SCORE.INTRA.SOLV.lig_0>
-71.4024

>  <SCORE.INTRA.VDW>
0.264898

>  <SCORE.INTRA.VDW.0>
-1.86213

>  <SCORE.INTRA.norm>
-0.0291074

>  <SCORE.RESTR>
0

>  <SCORE.RESTR.CAVITY>
0

>  <SCORE.RESTR.norm>
0

>  <SCORE.SYSTEM>
0

>  <SCORE.SYSTEM.CONST>
0

>  <SCORE.SYSTEM.DIHEDRAL>
0

>  <SCORE.SYSTEM.SOLV>
0

>  <SCORE.SYSTEM.norm>
0

>  <SCORE.heavy>
22

>  <SCORE.norm>
-0.441533

>  <RMSD>
5.996

$$$$
lig.pdb
 OpenBabel11021811523D
libRbt.so/2013.1/901 2013/11/27
 22 23  0  0  0  0  0  0  0  0999 V2000
   -7.7439   -0.0886    0.0824 C   0  0  1  0  0  0  0  0  0  0  0  0
   -6.8813   -2.3003   -0.7869 C   0  0  1  0  0  0  0  0  0  0  0  0
   -7.4405   -3.4217   -1.7702 C   0  0  1  0  0  0  0  0  0  0  0  0
   -6.4338   -4.6586   -1.7260 C   0  0  2  0  0  0  0  0  0  0  0  0
   -8.2477   -0.5262    1.5124 C   0  0  1  0  0  0  0  0  0  0  0  0
   -9.7032   -1.0153    1.3753 C   0  0  2  0  0  0  0  0  0  0  0  0
  -10.6155    0.1136    0.8638 C   0  0  2  0  0  0  0  0  0  0  0  0
  -10.1513    0.6247   -0.5489 C   0  0  1  0  0  0  0  0  0  0  0  0
  -11.0372    1.8035   -1.0454 C   0  0  0  0  0  0  0  0  0  0  0  0
   -4.9884   -4.1834   -2.2620 C   0  0  1  0  0  0  0  0  0  0  0  0
   -4.4574   -3.0515   -1.2470 C   0  0  0  0  0  0  0  0  0  0  0  0
   -5.4686   -1.8145   -1.2425 C   0  0  2  0  0  0  0  0  0  0  0  0
  -10.6005    1.2380    1.8065 F   0  0  0  0  0  0  0  0  0  0  0  0
   -7.3287   -1.6215    2.0115 N   0  0  0  0  0  0  0  0  0  0  0  0
  -10.9294    2.9893   -0.2833 N   0  0  0  0  0  0  0  0  0  0  0  0
   -3.9983   -5.3135   -2.2232 N   0  0  0  0  0  0  0  0  0  0  0  0
   -4.9767   -0.7810   -0.3086 N   0  0  0  0  0  0  0  0  0  0  0  0
   -7.7394   -1.1695   -0.7967 O   0  0  0  0  0  0  0  0  0  0  0  0
   -8.7707   -3.8435   -1.2713 O   0  0  0  0  0  0  0  0  0  0  0  0
   -6.9500   -5.6296   -2.5872 O   0  0  0  0  0  0  0  0  0  0  0  0
  -10.0691   -1.3316    2.4191 O   0  0  0  0  0  0  0  0  0  0  0  0
   -8.6698    1.0199   -0.4116 O   0  0  0  0  0  0  0  0  0  0  0  0
  1  5  1  0  0  0  0
  1 18  1  6  0  0  0
  2 18  1  6  0  0  0
  2  3  1  0  0  0  0
  2 12  1  0  0  0  0
  3 19  1  1  0  0  0
  3  4  1  0  0  0  0
  4 20  1  6  0  0  0
  4 10  1  0  0  0  0
  5  6  1  0  0  0  0
  5 14  1  6  0  0  0
  6 21  1  1  0  0  0
  7 13  1  1  0  0  0
  7  6  1  0  0  0  0
  8  9  1  1  0  0  0
  8  7  1  0  0  0  0
 10 16  1  1  0  0  0
 11 10  1  0  0  0  0
 12 17  1  1  0  0  0
 12 11  1  0  0  0  0
 15  9  1  0  0  0  0
 22  8  1  0  0  0  0
 22  1  1  0  0  0  0
M  END
>  <CHROM.1>
-69.77816066,167.59035031,66.08377424,-7.93759472,-1.46934552,-0.35137279
-2.27367966,-0.22934591,-2.88761573

>  <Name>
lig.pdb

>  <RI>
0

>  <Rbt.Current_Directory>
/home/itssahil/PROJECTS/Mol_Feturizer/New_Systems/rnas/5bws

>  <Rbt.Executable>
rbdock ($Id: //depot/dev/client3/rdock/2013.1/src/exe/rbdock.cxx#4 $)

>  <Rbt.Library>
libRbt.so (2013.1, Build901 2013/11/27)

>  <Rbt.Parameter_File>
/export/apps/rDock/src/rDock_2013.1_src/data/scripts/dock_solv.prm

>  <Rbt.Receptor>
prm/pocket_docking_5.prm

>  <SCORE>
-9.7287

>  <SCORE.INTER>
-9.63334

>  <SCORE.INTER.CONST>
1

>  <SCORE.INTER.POLAR>
0

>  <SCORE.INTER.ROT>
3

>  <SCORE.INTER.SOLV>
14.1611

>  <SCORE.INTER.VDW>
-16.7426

>  <SCORE.INTER.norm>
-0.437879

>  <SCORE.INTRA>
-0.0953654

>  <SCORE.INTRA.DIHEDRAL>
-4.77805

>  <SCORE.INTRA.DIHEDRAL.0>
6.10773

>  <SCORE.INTRA.POLAR>
0

>  <SCORE.INTRA.POLAR.0>
0

>  <SCORE.INTRA.REPUL>
0

>  <SCORE.INTRA.REPUL.0>
0

>  <SCORE.INTRA.SOLV>
3.78655

>  <SCORE.INTRA.SOLV.lig_0>
-71.4024

>  <SCORE.INTRA.VDW>
0.400385

>  <SCORE.INTRA.VDW.0>
-1.86213

>  <SCORE.INTRA.norm>
-0.00433479

>  <SCORE.RESTR>
0

>  <SCORE.RESTR.CAVITY>
0

>  <SCORE.RESTR.norm>
0

>  <SCORE.SYSTEM>
0

>  <SCORE.SYSTEM.CONST>
0

>  <SCORE.SYSTEM.DIHEDRAL>
0

>  <SCORE.SYSTEM.SOLV>
0

>  <SCORE.SYSTEM.norm>
0

>  <SCORE.heavy>
22

>  <SCORE.norm>
-0.442214

>  <RMSD>
6.062

$$$$
lig.pdb
 OpenBabel11021811523D
libRbt.so/2013.1/901 2013/11/27
 22 23  0  0  0  0  0  0  0  0999 V2000
   -7.3588    0.8030    1.4147 C   0  0  1  0  0  0  0  0  0  0  0  0
   -7.5745   -0.7660   -0.5559 C   0  0  1  0  0  0  0  0  0  0  0  0
   -6.1919   -1.5492   -0.4460 C   0  0  1  0  0  0  0  0  0  0  0  0
   -6.3793   -2.9740   -1.1389 C   0  0  2  0  0  0  0  0  0  0  0  0
   -7.3129    2.3621    1.6537 C   0  0  1  0  0  0  0  0  0  0  0  0
   -6.0488    2.9124    0.9642 C   0  0  2  0  0  0  0  0  0  0  0  0
   -4.7783    2.2909    1.5708 C   0  0  2  0  0  0  0  0  0  0  0  0
   -4.7709    0.7280    1.3984 C   0  0  1  0  0  0  0  0  0  0  0  0
   -3.5152    0.0898    2.0591 C   0  0  0  0  0  0  0  0  0  0  0  0
   -7.5041   -3.8078   -0.3378 C   0  0  1  0  0  0  0  0  0  0  0  0
   -8.8833   -2.9865   -0.4690 C   0  0  0  0  0  0  0  0  0  0  0  0
   -8.7123   -1.5385    0.1843 C   0  0  2  0  0  0  0  0  0  0  0  0
   -4.6940    2.6137    2.9998 F   0  0  0  0  0  0  0  0  0  0  0  0
   -8.5780    2.9568    1.0712 N   0  0  0  0  0  0  0  0  0  0  0  0
   -3.4100   -1.3114    1.9042 N   0  0  0  0  0  0  0  0  0  0  0  0
   -7.7289   -5.1548   -0.9652 N   0  0  0  0  0  0  0  0  0  0  0  0
   -9.9799   -0.7902    0.0591 N   0  0  0  0  0  0  0  0  0  0  0  0
   -7.4636    0.5098    0.0567 O   0  0  0  0  0  0  0  0  0  0  0  0
   -5.1666   -0.7695   -1.1788 O   0  0  0  0  0  0  0  0  0  0  0  0
   -5.1535   -3.6359   -1.0379 O   0  0  0  0  0  0  0  0  0  0  0  0
   -6.0161    4.0486    1.1415 O   0  0  0  0  0  0  0  0  0  0  0  0
   -6.0849    0.2092    2.0103 O   0  0  0  0  0  0  0  0  0  0  0  0
  1  5  1  0  0  0  0
  1 18  1  6  0  0  0
  2 18  1  1  0  0  0
  2  3  1  0  0  0  0
  2 12  1  0  0  0  0
  3 19  1  6  0  0  0
  3  4  1  0  0  0  0
  4 20  1  1  0  0  0
  4 10  1  0  0  0  0
  5  6  1  0  0  0  0
  5 14  1  6  0  0  0
  6 21  1  1  0  0  0
  7 13  1  1  0  0  0
  7  6  1  0  0  0  0
  8  9  1  1  0  0  0
  8  7  1  0  0  0  0
 10 16  1  6  0  0  0
 11 10  1  0  0  0  0
 12 17  1  6  0  0  0
 12 11  1  0  0  0  0
 15  9  1  0  0  0  0
 22  8  1  0  0  0  0
 22  1  1  0  0  0  0
M  END
>  <CHROM.1>
-177.81802219,-70.98571025,-177.77999567,-6.46307534,-0.20891086,0.59193779
1.31165599,-0.23268606,0.34231262

>  <Name>
lig.pdb

>  <RI>
0

>  <Rbt.Current_Directory>
/home/itssahil/PROJECTS/Mol_Feturizer/New_Systems/rnas/5bws

>  <Rbt.Executable>
rbdock ($Id: //depot/dev/client3/rdock/2013.1/src/exe/rbdock.cxx#4 $)

>  <Rbt.Library>
libRbt.so (2013.1, Build901 2013/11/27)

>  <Rbt.Parameter_File>
/export/apps/rDock/src/rDock_2013.1_src/data/scripts/dock_solv.prm

>  <Rbt.Receptor>
prm/pocket_docking_6.prm

>  <SCORE>
-10.2429

>  <SCORE.INTER>
-7.84062

>  <SCORE.INTER.CONST>
1

>  <SCORE.INTER.POLAR>
0

>  <SCORE.INTER.ROT>
3

>  <SCORE.INTER.SOLV>
16.5324

>  <SCORE.INTER.VDW>
-16.3379

>  <SCORE.INTER.norm>
-0.356392

>  <SCORE.INTRA>
-2.40227

>  <SCORE.INTRA.DIHEDRAL>
-5.48497

>  <SCORE.INTRA.DIHEDRAL.0>
6.10773

>  <SCORE.INTRA.POLAR>
0

>  <SCORE.INTRA.POLAR.0>
0

>  <SCORE.INTRA.REPUL>
0

>  <SCORE.INTRA.REPUL.0>
0

>  <SCORE.INTRA.SOLV>
0.891775

>  <SCORE.INTRA.SOLV.lig_0>
-71.4024

>  <SCORE.INTRA.VDW>
-0.105676

>  <SCORE.INTRA.VDW.0>
-1.86213

>  <SCORE.INTRA.norm>
-0.109194

>  <SCORE.RESTR>
0

>  <SCORE.RESTR.CAVITY>
0

>  <SCORE.RESTR.norm>
0

>  <SCORE.SYSTEM>
0

>  <SCORE.SYSTEM.CONST>
0

>  <SCORE.SYSTEM.DIHEDRAL>
0

>  <SCORE.SYSTEM.SOLV>
0

>  <SCORE.SYSTEM.norm>
0

>  <SCORE.heavy>
22

>  <SCORE.norm>
-0.465586

>  <RMSD>
6.086

$$$$
lig.pdb
 OpenBabel11021811523D
libRbt.so/2013.1/901 2013/11/27
 22 23  0  0  0  0  0  0  0  0999 V2000
   -7.3624    0.8105    1.4209 C   0  0  1  0  0  0  0  0  0  0  0  0
   -7.5776   -0.7448   -0.5605 C   0  0  1  0  0  0  0  0  0  0  0  0
   -6.1983   -1.5337   -0.4509 C   0  0  1  0  0  0  0  0  0  0  0  0
   -6.3883   -2.9533   -1.1537 C   0  0  2  0  0  0  0  0  0  0  0  0
   -7.3215    2.3680    1.6709 C   0  0  1  0  0  0  0  0  0  0  0  0
   -6.0582    2.9270    0.9869 C   0  0  2  0  0  0  0  0  0  0  0  0
   -4.7866    2.3051    1.5910 C   0  0  2  0  0  0  0  0  0  0  0  0
   -4.7742    0.7436    1.4075 C   0  0  1  0  0  0  0  0  0  0  0  0
   -3.5174    0.1046    2.0654 C   0  0  0  0  0  0  0  0  0  0  0  0
   -7.5189   -3.7882   -0.3620 C   0  0  1  0  0  0  0  0  0  0  0  0
   -8.8946   -2.9612   -0.4926 C   0  0  0  0  0  0  0  0  0  0  0  0
   -8.7208   -1.5180    0.1706 C   0  0  2  0  0  0  0  0  0  0  0  0
   -4.7051    2.6181    3.0223 F   0  0  0  0  0  0  0  0  0  0  0  0
   -8.5876    2.9630    1.0908 N   0  0  0  0  0  0  0  0  0  0  0  0
   -3.4225   -1.2990    1.9254 N   0  0  0  0  0  0  0  0  0  0  0  0
   -7.7462   -5.1304   -0.9989 N   0  0  0  0  0  0  0  0  0  0  0  0
   -9.9852   -0.7644    0.0458 N   0  0  0  0  0  0  0  0  0  0  0  0
   -7.4644    0.5265    0.0607 O   0  0  0  0  0  0  0  0  0  0  0  0
   -5.1676   -0.7529   -1.1751 O   0  0  0  0  0  0  0  0  0  0  0  0
   -5.1652   -3.6202   -1.0527 O   0  0  0  0  0  0  0  0  0  0  0  0
   -6.0292    4.0620    1.1723 O   0  0  0  0  0  0  0  0  0  0  0  0
   -6.0874    0.2164    2.0140 O   0  0  0  0  0  0  0  0  0  0  0  0
  1  5  1  0  0  0  0
  1 18  1  6  0  0  0
  2 18  1  1  0  0  0
  2  3  1  0  0  0  0
  2 12  1  0  0  0  0
  3 19  1  6  0  0  0
  3  4  1  0  0  0  0
  4 20  1  1  0  0  0
  4 10  1  0  0  0  0
  5  6  1  0  0  0  0
  5 14  1  6  0  0  0
  6 21  1  1  0  0  0
  7 13  1  1  0  0  0
  7  6  1  0  0  0  0
  8  9  1  1  0  0  0
  8  7  1  0  0  0  0
 10 16  1  6  0  0  0
 11 10  1  0  0  0  0
 12 17  1  6  0  0  0
 12 11  1  0  0  0  0
 15  9  1  0  0  0  0
 22  8  1  0  0  0  0
 22  1  1  0  0  0  0
M  END
>  <CHROM.1>
-177.45249978,-70.93318740,-179.07303409,-6.47096049,-0.19376146,0.59419971
1.31040638,-0.23568641,0.34842745

>  <Name>
lig.pdb

>  <RI>
0

>  <Rbt.Current_Directory>
/home/itssahil/PROJECTS/Mol_Feturizer/New_Systems/rnas/5bws

>  <Rbt.Executable>
rbdock ($Id: //depot/dev/client3/rdock/2013.1/src/exe/rbdock.cxx#4 $)

>  <Rbt.Library>
libRbt.so (2013.1, Build901 2013/11/27)

>  <Rbt.Parameter_File>
/export/apps/rDock/src/rDock_2013.1_src/data/scripts/dock_solv.prm

>  <Rbt.Receptor>
prm/pocket_docking_8.prm

>  <SCORE>
-10.254

>  <SCORE.INTER>
-7.83677

>  <SCORE.INTER.CONST>
1

>  <SCORE.INTER.POLAR>
0

>  <SCORE.INTER.ROT>
3

>  <SCORE.INTER.SOLV>
16.5219

>  <SCORE.INTER.VDW>
-16.3318

>  <SCORE.INTER.norm>
-0.356217

>  <SCORE.INTRA>
-2.41722

>  <SCORE.INTRA.DIHEDRAL>
-5.49642

>  <SCORE.INTRA.DIHEDRAL.0>
6.10773

>  <SCORE.INTRA.POLAR>
0

>  <SCORE.INTRA.POLAR.0>
0

>  <SCORE.INTRA.REPUL>
0

>  <SCORE.INTRA.REPUL.0>
0

>  <SCORE.INTRA.SOLV>
0.879024

>  <SCORE.INTRA.SOLV.lig_0>
-71.4024

>  <SCORE.INTRA.VDW>
-0.108516

>  <SCORE.INTRA.VDW.0>
-1.86213

>  <SCORE.INTRA.norm>
-0.109873

>  <SCORE.RESTR>
0

>  <SCORE.RESTR.CAVITY>
0

>  <SCORE.RESTR.norm>
0

>  <SCORE.SYSTEM>
0

>  <SCORE.SYSTEM.CONST>
0

>  <SCORE.SYSTEM.DIHEDRAL>
0

>  <SCORE.SYSTEM.SOLV>
0

>  <SCORE.SYSTEM.norm>
0

>  <SCORE.heavy>
22

>  <SCORE.norm>
-0.46609

>  <RMSD>
6.093

$$$$
lig.pdb
 OpenBabel11021811523D
libRbt.so/2013.1/901 2013/11/27
 22 23  0  0  0  0  0  0  0  0999 V2000
   -8.7551    0.6990    1.2804 C   0  0  1  0  0  0  0  0  0  0  0  0
   -8.5213   -0.7991   -0.7425 C   0  0  1  0  0  0  0  0  0  0  0  0
   -6.9441   -0.8500   -0.9589 C   0  0  1  0  0  0  0  0  0  0  0  0
   -6.5952   -2.2181   -1.7017 C   0  0  2  0  0  0  0  0  0  0  0  0
   -9.3117    2.1416    1.5951 C   0  0  1  0  0  0  0  0  0  0  0  0
   -8.4601    3.1615    0.8135 C   0  0  2  0  0  0  0  0  0  0  0  0
   -6.9879    3.1019    1.2579 C   0  0  2  0  0  0  0  0  0  0  0  0
   -6.3738    1.6769    1.0038 C   0  0  1  0  0  0  0  0  0  0  0  0
   -4.9022    1.5957    1.5025 C   0  0  0  0  0  0  0  0  0  0  0  0
   -7.0219   -3.4556   -0.7589 C   0  0  1  0  0  0  0  0  0  0  0  0
   -8.6179   -3.3700   -0.5613 C   0  0  0  0  0  0  0  0  0  0  0  0
   -8.9999   -1.9900    0.1475 C   0  0  2  0  0  0  0  0  0  0  0  0
   -6.8808    3.4199    2.6864 F   0  0  0  0  0  0  0  0  0  0  0  0
  -10.7656    2.1787    1.1728 N   0  0  0  0  0  0  0  0  0  0  0  0
   -4.2697    0.3501    1.2858 N   0  0  0  0  0  0  0  0  0  0  0  0
   -6.7274   -4.7703   -1.4248 N   0  0  0  0  0  0  0  0  0  0  0  0
  -10.4647   -1.9172    0.3241 N   0  0  0  0  0  0  0  0  0  0  0  0
   -8.8846    0.3993   -0.0740 O   0  0  0  0  0  0  0  0  0  0  0  0
   -6.5647    0.2953   -1.8195 O   0  0  0  0  0  0  0  0  0  0  0  0
   -5.2109   -2.2344   -1.8877 O   0  0  0  0  0  0  0  0  0  0  0  0
   -8.8662    4.2124    1.0461 O   0  0  0  0  0  0  0  0  0  0  0  0
   -7.2921    0.6662    1.7148 O   0  0  0  0  0  0  0  0  0  0  0  0
  1  5  1  0  0  0  0
  1 18  1  6  0  0  0
  2 18  1  1  0  0  0
  2  3  1  0  0  0  0
  2 12  1  0  0  0  0
  3 19  1  6  0  0  0
  3  4  1  0  0  0  0
  4 20  1  1  0  0  0
  4 10  1  0  0  0  0
  5  6  1  0  0  0  0
  5 14  1  6  0  0  0
  6 21  1  1  0  0  0
  7 13  1  1  0  0  0
  7  6  1  0  0  0  0
  8  9  1  1  0  0  0
  8  7  1  0  0  0  0
 10 16  1  6  0  0  0
 11 10  1  0  0  0  0
 12 17  1  6  0  0  0
 12 11  1  0  0  0  0
 15  9  1  0  0  0  0
 22  8  1  0  0  0  0
 22  1  1  0  0  0  0
M  END
>  <CHROM.1>
-178.99468964,-77.10067023,-178.84221603,-7.58444504,0.17354116,0.29412233
1.69232350,0.05913968,0.42237797

>  <Name>
lig.pdb

>  <RI>
0

>  <Rbt.Current_Directory>
/home/itssahil/PROJECTS/Mol_Feturizer/New_Systems/rnas/5bws

>  <Rbt.Executable>
rbdock ($Id: //depot/dev/client3/rdock/2013.1/src/exe/rbdock.cxx#4 $)

>  <Rbt.Library>
libRbt.so (2013.1, Build901 2013/11/27)

>  <Rbt.Parameter_File>
/export/apps/rDock/src/rDock_2013.1_src/data/scripts/dock_solv.prm

>  <Rbt.Receptor>
prm/pocket_docking_7.prm

>  <SCORE>
-9.5529

>  <SCORE.INTER>
-7.40349

>  <SCORE.INTER.CONST>
1

>  <SCORE.INTER.POLAR>
0

>  <SCORE.INTER.ROT>
3

>  <SCORE.INTER.SOLV>
15.9032

>  <SCORE.INTER.VDW>
-15.8367

>  <SCORE.INTER.norm>
-0.336522

>  <SCORE.INTRA>
-2.14941

>  <SCORE.INTRA.DIHEDRAL>
-4.74684

>  <SCORE.INTRA.DIHEDRAL.0>
6.10773

>  <SCORE.INTRA.POLAR>
0

>  <SCORE.INTRA.POLAR.0>
0

>  <SCORE.INTRA.REPUL>
0

>  <SCORE.INTRA.REPUL.0>
0

>  <SCORE.INTRA.SOLV>
0.517286

>  <SCORE.INTRA.SOLV.lig_0>
-71.4024

>  <SCORE.INTRA.VDW>
-0.0346377

>  <SCORE.INTRA.VDW.0>
-1.86213

>  <SCORE.INTRA.norm>
-0.0977007

>  <SCORE.RESTR>
0

>  <SCORE.RESTR.CAVITY>
0

>  <SCORE.RESTR.norm>
0

>  <SCORE.SYSTEM>
0

>  <SCORE.SYSTEM.CONST>
0

>  <SCORE.SYSTEM.DIHEDRAL>
0

>  <SCORE.SYSTEM.SOLV>
0

>  <SCORE.SYSTEM.norm>
0

>  <SCORE.heavy>
22

>  <SCORE.norm>
-0.434223

>  <RMSD>
6.099

$$$$
lig.pdb
 OpenBabel11021811523D
libRbt.so/2013.1/901 2013/11/27
 22 23  0  0  0  0  0  0  0  0999 V2000
   -7.6381   -0.1013    0.1020 C   0  0  1  0  0  0  0  0  0  0  0  0
   -6.9055   -2.3177   -0.8686 C   0  0  1  0  0  0  0  0  0  0  0  0
   -7.6355   -3.4366   -1.7359 C   0  0  1  0  0  0  0  0  0  0  0  0
   -6.6991   -4.7281   -1.7580 C   0  0  2  0  0  0  0  0  0  0  0  0
   -8.2516   -0.5457    1.4863 C   0  0  1  0  0  0  0  0  0  0  0  0
   -9.7394   -0.8811    1.2621 C   0  0  2  0  0  0  0  0  0  0  0  0
  -10.5110    0.3535    0.7634 C   0  0  2  0  0  0  0  0  0  0  0  0
   -9.9307    0.8743   -0.6020 C   0  0  1  0  0  0  0  0  0  0  0  0
  -10.6718    2.1552   -1.0823 C   0  0  0  0  0  0  0  0  0  0  0  0
   -5.3024   -4.3565   -2.4744 C   0  0  1  0  0  0  0  0  0  0  0  0
   -4.5960   -3.2243   -1.5728 C   0  0  0  0  0  0  0  0  0  0  0  0
   -5.5313   -1.9308   -1.5019 C   0  0  2  0  0  0  0  0  0  0  0  0
  -10.4323    1.4305    1.7570 F   0  0  0  0  0  0  0  0  0  0  0  0
   -7.4694   -1.7471    1.9746 N   0  0  0  0  0  0  0  0  0  0  0  0
  -10.1530    2.7339   -2.2632 N   0  0  0  0  0  0  0  0  0  0  0  0
   -4.3773   -5.5406   -2.5042 N   0  0  0  0  0  0  0  0  0  0  0  0
   -4.8785   -0.8974   -0.6724 N   0  0  0  0  0  0  0  0  0  0  0  0
   -7.6962   -1.1396   -0.8252 O   0  0  0  0  0  0  0  0  0  0  0  0
   -8.9194   -3.7631   -1.0716 O   0  0  0  0  0  0  0  0  0  0  0  0
   -7.3641   -5.6955   -2.5150 O   0  0  0  0  0  0  0  0  0  0  0  0
  -10.1850   -1.2026    2.2728 O   0  0  0  0  0  0  0  0  0  0  0  0
   -8.4260    1.1137   -0.3808 O   0  0  0  0  0  0  0  0  0  0  0  0
  1  5  1  0  0  0  0
  1 18  1  6  0  0  0
  2 18  1  6  0  0  0
  2  3  1  0  0  0  0
  2 12  1  0  0  0  0
  3 19  1  1  0  0  0
  3  4  1  0  0  0  0
  4 20  1  6  0  0  0
  4 10  1  0  0  0  0
  5  6  1  0  0  0  0
  5 14  1  6  0  0  0
  6 21  1  1  0  0  0
  7 13  1  1  0  0  0
  7  6  1  0  0  0  0
  8  9  1  1  0  0  0
  8  7  1  0  0  0  0
 10 16  1  1  0  0  0
 11 10  1  0  0  0  0
 12 17  1  1  0  0  0
 12 11  1  0  0  0  0
 15  9  1  0  0  0  0
 22  8  1  0  0  0  0
 22  1  1  0  0  0  0
M  END
>  <CHROM.1>
-73.37169249,159.49986511,176.25500466,-7.94093097,-1.46009507,-0.51732840
-2.50688783,-0.76648154,2.79726185

>  <Name>
lig.pdb

>  <RI>
0

>  <Rbt.Current_Directory>
/home/itssahil/PROJECTS/Mol_Feturizer/New_Systems/rnas/5bws

>  <Rbt.Executable>
rbdock ($Id: //depot/dev/client3/rdock/2013.1/src/exe/rbdock.cxx#4 $)

>  <Rbt.Library>
libRbt.so (2013.1, Build901 2013/11/27)

>  <Rbt.Parameter_File>
/export/apps/rDock/src/rDock_2013.1_src/data/scripts/dock_solv.prm

>  <Rbt.Receptor>
prm/pocket_docking_8.prm

>  <SCORE>
-9.60199

>  <SCORE.INTER>
-8.98783

>  <SCORE.INTER.CONST>
1

>  <SCORE.INTER.POLAR>
0

>  <SCORE.INTER.ROT>
3

>  <SCORE.INTER.SOLV>
15.9247

>  <SCORE.INTER.VDW>
-16.9001

>  <SCORE.INTER.norm>
-0.408538

>  <SCORE.INTRA>
-0.61416

>  <SCORE.INTRA.DIHEDRAL>
-3.32615

>  <SCORE.INTRA.DIHEDRAL.0>
6.10773

>  <SCORE.INTRA.POLAR>
0

>  <SCORE.INTRA.POLAR.0>
0

>  <SCORE.INTRA.REPUL>
0

>  <SCORE.INTRA.REPUL.0>
0

>  <SCORE.INTRA.SOLV>
1.62128

>  <SCORE.INTRA.SOLV.lig_0>
-71.4024

>  <SCORE.INTRA.VDW>
0.238272

>  <SCORE.INTRA.VDW.0>
-1.86213

>  <SCORE.INTRA.norm>
-0.0279164

>  <SCORE.RESTR>
0

>  <SCORE.RESTR.CAVITY>
0

>  <SCORE.RESTR.norm>
0

>  <SCORE.SYSTEM>
0

>  <SCORE.SYSTEM.CONST>
0

>  <SCORE.SYSTEM.DIHEDRAL>
0

>  <SCORE.SYSTEM.SOLV>
0

>  <SCORE.SYSTEM.norm>
0

>  <SCORE.heavy>
22

>  <SCORE.norm>
-0.436454

>  <RMSD>
6.099

$$$$
lig.pdb
 OpenBabel11021811523D
libRbt.so/2013.1/901 2013/11/27
 22 23  0  0  0  0  0  0  0  0999 V2000
   -7.0924    0.3283    1.4397 C   0  0  1  0  0  0  0  0  0  0  0  0
   -7.6671   -1.2577   -0.4433 C   0  0  1  0  0  0  0  0  0  0  0  0
   -6.2858   -2.0350   -0.6013 C   0  0  1  0  0  0  0  0  0  0  0  0
   -6.5982   -3.4658   -1.2340 C   0  0  2  0  0  0  0  0  0  0  0  0
   -6.9602    1.8878    1.6408 C   0  0  1  0  0  0  0  0  0  0  0  0
   -5.8233    2.3908    0.7294 C   0  0  2  0  0  0  0  0  0  0  0  0
   -4.4836    1.7369    1.1119 C   0  0  2  0  0  0  0  0  0  0  0  0
   -4.5517    0.1728    0.9668 C   0  0  1  0  0  0  0  0  0  0  0  0
   -3.2174   -0.4967    1.4053 C   0  0  0  0  0  0  0  0  0  0  0  0
   -7.5397   -4.2974   -0.2221 C   0  0  1  0  0  0  0  0  0  0  0  0
   -8.9220   -3.4823   -0.0859 C   0  0  0  0  0  0  0  0  0  0  0  0
   -8.6337   -2.0286    0.5110 C   0  0  2  0  0  0  0  0  0  0  0  0
   -4.1379    2.0730    2.4978 F   0  0  0  0  0  0  0  0  0  0  0  0
   -8.2910    2.5150    1.2816 N   0  0  0  0  0  0  0  0  0  0  0  0
   -2.7904   -0.1694    2.7127 N   0  0  0  0  0  0  0  0  0  0  0  0
   -7.8763   -5.6502   -0.7838 N   0  0  0  0  0  0  0  0  0  0  0  0
   -9.9050   -1.2859    0.6317 N   0  0  0  0  0  0  0  0  0  0  0  0
   -7.4448    0.0232    0.1267 O   0  0  0  0  0  0  0  0  0  0  0  0
   -5.4281   -1.2573   -1.5265 O   0  0  0  0  0  0  0  0  0  0  0  0
   -5.3730   -4.1225   -1.3708 O   0  0  0  0  0  0  0  0  0  0  0  0
   -5.7272    3.5273    0.8793 O   0  0  0  0  0  0  0  0  0  0  0  0
   -5.7505   -0.2981    1.8101 O   0  0  0  0  0  0  0  0  0  0  0  0
  1  5  1  0  0  0  0
  1 18  1  6  0  0  0
  2 18  1  1  0  0  0
  2  3  1  0  0  0  0
  2 12  1  0  0  0  0
  3 19  1  6  0  0  0
  3  4  1  0  0  0  0
  4 20  1  1  0  0  0
  4 10  1  0  0  0  0
  5  6  1  0  0  0  0
  5 14  1  6  0  0  0
  6 21  1  1  0  0  0
  7 13  1  1  0  0  0
  7  6  1  0  0  0  0
  8  9  1  1  0  0  0
  8  7  1  0  0  0  0
 10 16  1  6  0  0  0
 11 10  1  0  0  0  0
 12 17  1  6  0  0  0
 12 11  1  0  0  0  0
 15  9  1  0  0  0  0
 22  8  1  0  0  0  0
 22  1  1  0  0  0  0
M  END
>  <CHROM.1>
-179.50665492,-71.80734306,55.22142171,-6.33083240,-0.63931127,0.54023221
1.18398801,-0.11788780,0.33028586

>  <Name>
lig.pdb

>  <RI>
0

>  <Rbt.Current_Directory>
/home/itssahil/PROJECTS/Mol_Feturizer/New_Systems/rnas/5bws

>  <Rbt.Executable>
rbdock ($Id: //depot/dev/client3/rdock/2013.1/src/exe/rbdock.cxx#4 $)

>  <Rbt.Library>
libRbt.so (2013.1, Build901 2013/11/27)

>  <Rbt.Parameter_File>
/export/apps/rDock/src/rDock_2013.1_src/data/scripts/dock_solv.prm

>  <Rbt.Receptor>
prm/pocket_docking_5.prm

>  <SCORE>
-9.87612

>  <SCORE.INTER>
-8.01288

>  <SCORE.INTER.CONST>
1

>  <SCORE.INTER.POLAR>
0

>  <SCORE.INTER.ROT>
3

>  <SCORE.INTER.SOLV>
16.0556

>  <SCORE.INTER.VDW>
-16.2938

>  <SCORE.INTER.norm>
-0.364222

>  <SCORE.INTRA>
-1.86324

>  <SCORE.INTRA.DIHEDRAL>
-5.35526

>  <SCORE.INTRA.DIHEDRAL.0>
6.10773

>  <SCORE.INTRA.POLAR>
0

>  <SCORE.INTRA.POLAR.0>
0

>  <SCORE.INTRA.REPUL>
0

>  <SCORE.INTRA.REPUL.0>
0

>  <SCORE.INTRA.SOLV>
1.17819

>  <SCORE.INTRA.SOLV.lig_0>
-71.4024

>  <SCORE.INTRA.VDW>
0.225291

>  <SCORE.INTRA.VDW.0>
-1.86213

>  <SCORE.INTRA.norm>
-0.0846927

>  <SCORE.RESTR>
0

>  <SCORE.RESTR.CAVITY>
0

>  <SCORE.RESTR.norm>
0

>  <SCORE.SYSTEM>
0

>  <SCORE.SYSTEM.CONST>
0

>  <SCORE.SYSTEM.DIHEDRAL>
0

>  <SCORE.SYSTEM.SOLV>
0

>  <SCORE.SYSTEM.norm>
0

>  <SCORE.heavy>
22

>  <SCORE.norm>
-0.448915

>  <RMSD>
6.105

$$$$
lig.pdb
 OpenBabel11021811523D
libRbt.so/2013.1/901 2013/11/27
 22 23  0  0  0  0  0  0  0  0999 V2000
   -7.5201    0.6893    1.3956 C   0  0  1  0  0  0  0  0  0  0  0  0
   -7.7361   -0.9485   -0.5182 C   0  0  1  0  0  0  0  0  0  0  0  0
   -6.3478   -1.7239   -0.4270 C   0  0  1  0  0  0  0  0  0  0  0  0
   -6.5520   -3.1714   -1.0661 C   0  0  2  0  0  0  0  0  0  0  0  0
   -7.3495    2.2481    1.5720 C   0  0  1  0  0  0  0  0  0  0  0  0
   -6.0242    2.6609    0.9016 C   0  0  2  0  0  0  0  0  0  0  0  0
   -4.8287    1.9627    1.5736 C   0  0  2  0  0  0  0  0  0  0  0  0
   -4.9484    0.3987    1.4655 C   0  0  1  0  0  0  0  0  0  0  0  0
   -3.7704   -0.3125    2.1917 C   0  0  0  0  0  0  0  0  0  0  0  0
   -7.6474   -3.9812   -0.2020 C   0  0  1  0  0  0  0  0  0  0  0  0
   -9.0331   -3.1685   -0.3158 C   0  0  0  0  0  0  0  0  0  0  0  0
   -8.8467   -1.6991    0.2834 C   0  0  2  0  0  0  0  0  0  0  0  0
   -4.7583    2.3391    2.9902 F   0  0  0  0  0  0  0  0  0  0  0  0
   -8.5426    2.9201    0.9253 N   0  0  0  0  0  0  0  0  0  0  0  0
   -2.4900   -0.0312    1.6626 N   0  0  0  0  0  0  0  0  0  0  0  0
   -7.8871   -5.3489   -0.7769 N   0  0  0  0  0  0  0  0  0  0  0  0
  -10.1204   -0.9588    0.1743 N   0  0  0  0  0  0  0  0  0  0  0  0
   -7.6104    0.3472    0.0480 O   0  0  0  0  0  0  0  0  0  0  0  0
   -5.3494   -0.9662   -1.2179 O   0  0  0  0  0  0  0  0  0  0  0  0
   -5.3211   -3.8264   -0.9827 O   0  0  0  0  0  0  0  0  0  0  0  0
   -5.9008    3.7970    1.0333 O   0  0  0  0  0  0  0  0  0  0  0  0
   -6.3185    0.0180    2.0555 O   0  0  0  0  0  0  0  0  0  0  0  0
  1  5  1  0  0  0  0
  1 18  1  6  0  0  0
  2 18  1  1  0  0  0
  2  3  1  0  0  0  0
  2 12  1  0  0  0  0
  3 19  1  6  0  0  0
  3  4  1  0  0  0  0
  4 20  1  1  0  0  0
  4 10  1  0  0  0  0
  5  6  1  0  0  0  0
  5 14  1  6  0  0  0
  6 21  1  1  0  0  0
  7 13  1  1  0  0  0
  7  6  1  0  0  0  0
  8  9  1  1  0  0  0
  8  7  1  0  0  0  0
 10 16  1  6  0  0  0
 11 10  1  0  0  0  0
 12 17  1  6  0  0  0
 12 11  1  0  0  0  0
 15  9  1  0  0  0  0
 22  8  1  0  0  0  0
 22  1  1  0  0  0  0
M  END
>  <CHROM.1>
178.31590795,-73.97129439,-62.16996789,-6.53575412,-0.34720139,0.60880831
1.23535863,-0.18844550,0.32773269

>  <Name>
lig.pdb

>  <RI>
0

>  <Rbt.Current_Directory>
/home/itssahil/PROJECTS/Mol_Feturizer/New_Systems/rnas/5bws

>  <Rbt.Executable>
rbdock ($Id: //depot/dev/client3/rdock/2013.1/src/exe/rbdock.cxx#4 $)

>  <Rbt.Library>
libRbt.so (2013.1, Build901 2013/11/27)

>  <Rbt.Parameter_File>
/export/apps/rDock/src/rDock_2013.1_src/data/scripts/dock_solv.prm

>  <Rbt.Receptor>
prm/pocket_docking_3.prm

>  <SCORE>
-10.4411

>  <SCORE.INTER>
-7.98788

>  <SCORE.INTER.CONST>
1

>  <SCORE.INTER.POLAR>
0

>  <SCORE.INTER.ROT>
3

>  <SCORE.INTER.SOLV>
16.5065

>  <SCORE.INTER.VDW>
-16.4274

>  <SCORE.INTER.norm>
-0.363086

>  <SCORE.INTRA>
-2.45317

>  <SCORE.INTRA.DIHEDRAL>
-5.1533

>  <SCORE.INTRA.DIHEDRAL.0>
6.10773

>  <SCORE.INTRA.POLAR>
0

>  <SCORE.INTRA.POLAR.0>
0

>  <SCORE.INTRA.REPUL>
0

>  <SCORE.INTRA.REPUL.0>
0

>  <SCORE.INTRA.SOLV>
-0.0420754

>  <SCORE.INTRA.SOLV.lig_0>
-71.4024

>  <SCORE.INTRA.VDW>
0.144521

>  <SCORE.INTRA.VDW.0>
-1.86213

>  <SCORE.INTRA.norm>
-0.111508

>  <SCORE.RESTR>
0

>  <SCORE.RESTR.CAVITY>
0

>  <SCORE.RESTR.norm>
0

>  <SCORE.SYSTEM>
0

>  <SCORE.SYSTEM.CONST>
0

>  <SCORE.SYSTEM.DIHEDRAL>
0

>  <SCORE.SYSTEM.SOLV>
0

>  <SCORE.SYSTEM.norm>
0

>  <SCORE.heavy>
22

>  <SCORE.norm>
-0.474593

>  <RMSD>
6.112

$$$$
lig.pdb
 OpenBabel11021811523D
libRbt.so/2013.1/901 2013/11/27
 22 23  0  0  0  0  0  0  0  0999 V2000
   -7.4913    0.6800    1.3912 C   0  0  1  0  0  0  0  0  0  0  0  0
   -7.7479   -0.9628   -0.5131 C   0  0  1  0  0  0  0  0  0  0  0  0
   -6.3722   -1.7594   -0.4131 C   0  0  1  0  0  0  0  0  0  0  0  0
   -6.5970   -3.2070   -1.0449 C   0  0  2  0  0  0  0  0  0  0  0  0
   -7.2972    2.2370    1.5590 C   0  0  1  0  0  0  0  0  0  0  0  0
   -5.9753    2.6290    0.8696 C   0  0  2  0  0  0  0  0  0  0  0  0
   -4.7806    1.9172    1.5288 C   0  0  2  0  0  0  0  0  0  0  0  0
   -4.9231    0.3546    1.4287 C   0  0  1  0  0  0  0  0  0  0  0  0
   -3.7454   -0.3698    2.1424 C   0  0  0  0  0  0  0  0  0  0  0  0
   -7.7078   -3.9948   -0.1802 C   0  0  1  0  0  0  0  0  0  0  0  0
   -9.0802   -3.1611   -0.3031 C   0  0  0  0  0  0  0  0  0  0  0  0
   -8.8728   -1.6916    0.2887 C   0  0  2  0  0  0  0  0  0  0  0  0
   -4.6865    2.2982    2.9428 F   0  0  0  0  0  0  0  0  0  0  0  0
   -8.4894    2.9227    0.9252 N   0  0  0  0  0  0  0  0  0  0  0  0
   -2.4702   -0.1212    1.5852 N   0  0  0  0  0  0  0  0  0  0  0  0
   -7.9670   -5.3617   -0.7484 N   0  0  0  0  0  0  0  0  0  0  0  0
  -10.1344   -0.9320    0.1713 N   0  0  0  0  0  0  0  0  0  0  0  0
   -7.6039    0.3338    0.0464 O   0  0  0  0  0  0  0  0  0  0  0  0
   -5.3596   -1.0217   -1.2047 O   0  0  0  0  0  0  0  0  0  0  0  0
   -5.3767   -3.8806   -0.9538 O   0  0  0  0  0  0  0  0  0  0  0  0
   -5.8347    3.7638    0.9950 O   0  0  0  0  0  0  0  0  0  0  0  0
   -6.2903   -0.0051    2.0382 O   0  0  0  0  0  0  0  0  0  0  0  0
  1  5  1  0  0  0  0
  1 18  1  6  0  0  0
  2 18  1  1  0  0  0
  2  3  1  0  0  0  0
  2 12  1  0  0  0  0
  3 19  1  6  0  0  0
  3  4  1  0  0  0  0
  4 20  1  1  0  0  0
  4 10  1  0  0  0  0
  5  6  1  0  0  0  0
  5 14  1  6  0  0  0
  6 21  1  1  0  0  0
  7 13  1  1  0  0  0
  7  6  1  0  0  0  0
  8  9  1  1  0  0  0
  8  7  1  0  0  0  0
 10 16  1  6  0  0  0
 11 10  1  0  0  0  0
 12 17  1  6  0  0  0
 12 11  1  0  0  0  0
 15  9  1  0  0  0  0
 22  8  1  0  0  0  0
 22  1  1  0  0  0  0
M  END
>  <CHROM.1>
177.97342945,-72.84667552,-62.92099780,-6.53007568,-0.37406596,0.59855781
1.21747635,-0.18463368,0.31741505

>  <Name>
lig.pdb

>  <RI>
0

>  <Rbt.Current_Directory>
/home/itssahil/PROJECTS/Mol_Feturizer/New_Systems/rnas/5bws

>  <Rbt.Executable>
rbdock ($Id: //depot/dev/client3/rdock/2013.1/src/exe/rbdock.cxx#4 $)

>  <Rbt.Library>
libRbt.so (2013.1, Build901 2013/11/27)

>  <Rbt.Parameter_File>
/export/apps/rDock/src/rDock_2013.1_src/data/scripts/dock_solv.prm

>  <Rbt.Receptor>
prm/pocket_docking_3.prm

>  <SCORE>
-10.4658

>  <SCORE.INTER>
-7.97227

>  <SCORE.INTER.CONST>
1

>  <SCORE.INTER.POLAR>
0

>  <SCORE.INTER.ROT>
3

>  <SCORE.INTER.SOLV>
16.9425

>  <SCORE.INTER.VDW>
-16.5623

>  <SCORE.INTER.norm>
-0.362376

>  <SCORE.INTRA>
-2.4935

>  <SCORE.INTRA.DIHEDRAL>
-5.26999

>  <SCORE.INTRA.DIHEDRAL.0>
6.10773

>  <SCORE.INTRA.POLAR>
0

>  <SCORE.INTRA.POLAR.0>
0

>  <SCORE.INTRA.REPUL>
0

>  <SCORE.INTRA.REPUL.0>
0

>  <SCORE.INTRA.SOLV>
-0.0222813

>  <SCORE.INTRA.SOLV.lig_0>
-71.4024

>  <SCORE.INTRA.VDW>
0.152638

>  <SCORE.INTRA.VDW.0>
-1.86213

>  <SCORE.INTRA.norm>
-0.113341

>  <SCORE.RESTR>
0

>  <SCORE.RESTR.CAVITY>
0

>  <SCORE.RESTR.norm>
0

>  <SCORE.SYSTEM>
0

>  <SCORE.SYSTEM.CONST>
0

>  <SCORE.SYSTEM.DIHEDRAL>
0

>  <SCORE.SYSTEM.SOLV>
0

>  <SCORE.SYSTEM.norm>
0

>  <SCORE.heavy>
22

>  <SCORE.norm>
-0.475717

>  <RMSD>
6.113

$$$$
lig.pdb
 OpenBabel11021811523D
libRbt.so/2013.1/901 2013/11/27
 22 23  0  0  0  0  0  0  0  0999 V2000
   -7.1128    0.6182    1.3926 C   0  0  1  0  0  0  0  0  0  0  0  0
   -7.6821   -0.8798   -0.5627 C   0  0  1  0  0  0  0  0  0  0  0  0
   -6.3911   -1.8085   -0.6512 C   0  0  1  0  0  0  0  0  0  0  0  0
   -6.8240   -3.1862   -1.3293 C   0  0  2  0  0  0  0  0  0  0  0  0
   -6.7543    2.1378    1.6215 C   0  0  1  0  0  0  0  0  0  0  0  0
   -5.4509    2.4400    0.8560 C   0  0  2  0  0  0  0  0  0  0  0  0
   -4.2899    1.5820    1.3893 C   0  0  2  0  0  0  0  0  0  0  0  0
   -4.5930    0.0480    1.2236 C   0  0  1  0  0  0  0  0  0  0  0  0
   -3.4464   -0.8239    1.8118 C   0  0  0  0  0  0  0  0  0  0  0  0
   -7.9158   -3.9165   -0.3930 C   0  0  1  0  0  0  0  0  0  0  0  0
   -9.2021   -2.9498   -0.3257 C   0  0  0  0  0  0  0  0  0  0  0  0
   -8.7882   -1.5462    0.3157 C   0  0  2  0  0  0  0  0  0  0  0  0
   -4.0612    1.8726    2.8093 F   0  0  0  0  0  0  0  0  0  0  0  0
   -7.9137    2.9684    1.1121 N   0  0  0  0  0  0  0  0  0  0  0  0
   -2.1538   -0.5042    1.3370 N   0  0  0  0  0  0  0  0  0  0  0  0
   -8.3682   -5.2147   -1.0002 N   0  0  0  0  0  0  0  0  0  0  0  0
   -9.9718   -0.6640    0.3729 N   0  0  0  0  0  0  0  0  0  0  0  0
   -7.3517    0.3601    0.0445 O   0  0  0  0  0  0  0  0  0  0  0  0
   -5.3940   -1.1232   -1.5071 O   0  0  0  0  0  0  0  0  0  0  0  0
   -5.6753   -3.9775   -1.4038 O   0  0  0  0  0  0  0  0  0  0  0  0
   -5.1903    3.5476    1.0260 O   0  0  0  0  0  0  0  0  0  0  0  0
   -5.9438   -0.2132    1.9144 O   0  0  0  0  0  0  0  0  0  0  0  0
  1  5  1  0  0  0  0
  1 18  1  6  0  0  0
  2 18  1  1  0  0  0
  2  3  1  0  0  0  0
  2 12  1  0  0  0  0
  3 19  1  6  0  0  0
  3  4  1  0  0  0  0
  4 20  1  1  0  0  0
  4 10  1  0  0  0  0
  5  6  1  0  0  0  0
  5 14  1  6  0  0  0
  6 21  1  1  0  0  0
  7 13  1  1  0  0  0
  7  6  1  0  0  0  0
  8  9  1  1  0  0  0
  8  7  1  0  0  0  0
 10 16  1  6  0  0  0
 11 10  1  0  0  0  0
 12 17  1  6  0  0  0
 12 11  1  0  0  0  0
 15  9  1  0  0  0  0
 22  8  1  0  0  0  0
 22  1  1  0  0  0  0
M  END
>  <CHROM.1>
179.04629722,-75.18159646,-52.46285334,-6.32692675,-0.46738093,0.48266711
1.09101432,-0.14698088,0.35549907

>  <Name>
lig.pdb

>  <RI>
0

>  <Rbt.Current_Directory>
/home/itssahil/PROJECTS/Mol_Feturizer/New_Systems/rnas/5bws

>  <Rbt.Executable>
rbdock ($Id: //depot/dev/client3/rdock/2013.1/src/exe/rbdock.cxx#4 $)

>  <Rbt.Library>
libRbt.so (2013.1, Build901 2013/11/27)

>  <Rbt.Parameter_File>
/export/apps/rDock/src/rDock_2013.1_src/data/scripts/dock_solv.prm

>  <Rbt.Receptor>
prm/pocket_docking_2.prm

>  <SCORE>
-7.30873

>  <SCORE.INTER>
-6.14947

>  <SCORE.INTER.CONST>
1

>  <SCORE.INTER.POLAR>
0

>  <SCORE.INTER.ROT>
3

>  <SCORE.INTER.SOLV>
18.6119

>  <SCORE.INTER.VDW>
-15.9036

>  <SCORE.INTER.norm>
-0.279521

>  <SCORE.INTRA>
-2.19467

>  <SCORE.INTRA.DIHEDRAL>
-4.82016

>  <SCORE.INTRA.DIHEDRAL.0>
6.10773

>  <SCORE.INTRA.POLAR>
0

>  <SCORE.INTRA.POLAR.0>
0

>  <SCORE.INTRA.REPUL>
0

>  <SCORE.INTRA.REPUL.0>
0

>  <SCORE.INTRA.SOLV>
0.0674131

>  <SCORE.INTRA.SOLV.lig_0>
-71.4024

>  <SCORE.INTRA.VDW>
0.181702

>  <SCORE.INTRA.VDW.0>
-1.86213

>  <SCORE.INTRA.norm>
-0.0997579

>  <SCORE.RESTR>
1.03541

>  <SCORE.RESTR.CAVITY>
1.03541

>  <SCORE.RESTR.norm>
0.0470641

>  <SCORE.SYSTEM>
0

>  <SCORE.SYSTEM.CONST>
0

>  <SCORE.SYSTEM.DIHEDRAL>
0

>  <SCORE.SYSTEM.SOLV>
0

>  <SCORE.SYSTEM.norm>
0

>  <SCORE.heavy>
22

>  <SCORE.norm>
-0.332215

>  <RMSD>
6.115

$$$$
lig.pdb
 OpenBabel11021811523D
libRbt.so/2013.1/901 2013/11/27
 22 23  0  0  0  0  0  0  0  0999 V2000
   -7.4787    0.7100    1.4028 C   0  0  1  0  0  0  0  0  0  0  0  0
   -7.6852   -0.9177   -0.5205 C   0  0  1  0  0  0  0  0  0  0  0  0
   -6.2879   -1.6769   -0.4308 C   0  0  1  0  0  0  0  0  0  0  0  0
   -6.4731   -3.1229   -1.0790 C   0  0  2  0  0  0  0  0  0  0  0  0
   -7.3920    2.2742    1.5921 C   0  0  1  0  0  0  0  0  0  0  0  0
   -6.1055    2.7669    0.9005 C   0  0  2  0  0  0  0  0  0  0  0  0
   -4.8596    2.1307    1.5421 C   0  0  2  0  0  0  0  0  0  0  0  0
   -4.8939    0.5635    1.4200 C   0  0  1  0  0  0  0  0  0  0  0  0
   -3.6638   -0.0873    2.1159 C   0  0  0  0  0  0  0  0  0  0  0  0
   -7.5607   -3.9510   -0.2225 C   0  0  1  0  0  0  0  0  0  0  0  0
   -8.9558   -3.1543   -0.3347 C   0  0  0  0  0  0  0  0  0  0  0  0
   -8.7886   -1.6865    0.2738 C   0  0  2  0  0  0  0  0  0  0  0  0
   -4.7822    2.4972    2.9609 F   0  0  0  0  0  0  0  0  0  0  0  0
   -8.6335    2.8843    0.9756 N   0  0  0  0  0  0  0  0  0  0  0  0
   -2.4100    0.3031    1.5924 N   0  0  0  0  0  0  0  0  0  0  0  0
   -7.7826   -5.3180   -0.8063 N   0  0  0  0  0  0  0  0  0  0  0  0
  -10.0708   -0.9609    0.1662 N   0  0  0  0  0  0  0  0  0  0  0  0
   -7.5765    0.3759    0.0537 O   0  0  0  0  0  0  0  0  0  0  0  0
   -5.2969   -0.9024   -1.2146 O   0  0  0  0  0  0  0  0  0  0  0  0
   -5.2346   -3.7634   -0.9967 O   0  0  0  0  0  0  0  0  0  0  0  0
   -6.0431    3.9069    1.0417 O   0  0  0  0  0  0  0  0  0  0  0  0
   -6.2285    0.1010    2.0324 O   0  0  0  0  0  0  0  0  0  0  0  0
  1  5  1  0  0  0  0
  1 18  1  6  0  0  0
  2 18  1  1  0  0  0
  2  3  1  0  0  0  0
  2 12  1  0  0  0  0
  3 19  1  6  0  0  0
  3  4  1  0  0  0  0
  4 20  1  1  0  0  0
  4 10  1  0  0  0  0
  5  6  1  0  0  0  0
  5 14  1  6  0  0  0
  6 21  1  1  0  0  0
  7 13  1  1  0  0  0
  7  6  1  0  0  0  0
  8  9  1  1  0  0  0
  8  7  1  0  0  0  0
 10 16  1  6  0  0  0
 11 10  1  0  0  0  0
 12 17  1  6  0  0  0
 12 11  1  0  0  0  0
 15  9  1  0  0  0  0
 22  8  1  0  0  0  0
 22  1  1  0  0  0  0
M  END
>  <CHROM.1>
-179.40139100,-73.19790707,-60.26479043,-6.50496780,-0.26726244,0.59506903
1.25133817,-0.16223137,0.33653393

>  <Name>
lig.pdb

>  <RI>
0

>  <Rbt.Current_Directory>
/home/itssahil/PROJECTS/Mol_Feturizer/New_Systems/rnas/5bws

>  <Rbt.Executable>
rbdock ($Id: //depot/dev/client3/rdock/2013.1/src/exe/rbdock.cxx#4 $)

>  <Rbt.Library>
libRbt.so (2013.1, Build901 2013/11/27)

>  <Rbt.Parameter_File>
/export/apps/rDock/src/rDock_2013.1_src/data/scripts/dock_solv.prm

>  <Rbt.Receptor>
prm/pocket_docking_4.prm

>  <SCORE>
-10.4409

>  <SCORE.INTER>
-7.94196

>  <SCORE.INTER.CONST>
1

>  <SCORE.INTER.POLAR>
0

>  <SCORE.INTER.ROT>
3

>  <SCORE.INTER.SOLV>
16.1743

>  <SCORE.INTER.VDW>
-16.2861

>  <SCORE.INTER.norm>
-0.360998

>  <SCORE.INTRA>
-2.49898

>  <SCORE.INTRA.DIHEDRAL>
-5.27756

>  <SCORE.INTRA.DIHEDRAL.0>
6.10773

>  <SCORE.INTRA.POLAR>
0

>  <SCORE.INTRA.POLAR.0>
0

>  <SCORE.INTRA.REPUL>
0

>  <SCORE.INTRA.REPUL.0>
0

>  <SCORE.INTRA.SOLV>
0.0508467

>  <SCORE.INTRA.SOLV.lig_0>
-71.4024

>  <SCORE.INTRA.VDW>
0.114379

>  <SCORE.INTRA.VDW.0>
-1.86213

>  <SCORE.INTRA.norm>
-0.11359

>  <SCORE.RESTR>
0

>  <SCORE.RESTR.CAVITY>
0

>  <SCORE.RESTR.norm>
0

>  <SCORE.SYSTEM>
0

>  <SCORE.SYSTEM.CONST>
0

>  <SCORE.SYSTEM.DIHEDRAL>
0

>  <SCORE.SYSTEM.SOLV>
0

>  <SCORE.SYSTEM.norm>
0

>  <SCORE.heavy>
22

>  <SCORE.norm>
-0.474588

>  <RMSD>
6.119

$$$$
lig.pdb
 OpenBabel11021811523D
libRbt.so/2013.1/901 2013/11/27
 22 23  0  0  0  0  0  0  0  0999 V2000
   -7.3150    0.7880    1.4324 C   0  0  1  0  0  0  0  0  0  0  0  0
   -7.6035   -0.8561   -0.4663 C   0  0  1  0  0  0  0  0  0  0  0  0
   -6.2601   -1.6970   -0.3075 C   0  0  1  0  0  0  0  0  0  0  0  0
   -6.5089   -3.1417   -0.9370 C   0  0  2  0  0  0  0  0  0  0  0  0
   -7.2556    2.3553    1.6061 C   0  0  1  0  0  0  0  0  0  0  0  0
   -5.9959    2.8674    0.8800 C   0  0  2  0  0  0  0  0  0  0  0  0
   -4.7227    2.2622    1.4974 C   0  0  2  0  0  0  0  0  0  0  0  0
   -4.7280    0.6936    1.3896 C   0  0  1  0  0  0  0  0  0  0  0  0
   -3.4690    0.0741    2.0618 C   0  0  0  0  0  0  0  0  0  0  0  0
   -7.6778   -3.8847   -0.1101 C   0  0  1  0  0  0  0  0  0  0  0  0
   -9.0158   -3.0070   -0.2920 C   0  0  0  0  0  0  0  0  0  0  0  0
   -8.7821   -1.5402    0.2967 C   0  0  2  0  0  0  0  0  0  0  0  0
   -4.6195    2.6431    2.9107 F   0  0  0  0  0  0  0  0  0  0  0  0
   -8.5233    2.9347    1.0139 N   0  0  0  0  0  0  0  0  0  0  0  0
   -3.3617   -1.3304    1.9411 N   0  0  0  0  0  0  0  0  0  0  0  0
   -7.9607   -5.2471   -0.6780 N   0  0  0  0  0  0  0  0  0  0  0  0
  -10.0121   -0.7402    0.1252 N   0  0  0  0  0  0  0  0  0  0  0  0
   -7.4376    0.4398    0.0889 O   0  0  0  0  0  0  0  0  0  0  0  0
   -5.1936   -1.0002   -1.0647 O   0  0  0  0  0  0  0  0  0  0  0  0
   -5.3163   -3.8547   -0.7940 O   0  0  0  0  0  0  0  0  0  0  0  0
   -5.9535    4.0097    1.0099 O   0  0  0  0  0  0  0  0  0  0  0  0
   -6.0382    0.2100    2.0374 O   0  0  0  0  0  0  0  0  0  0  0  0
  1  5  1  0  0  0  0
  1 18  1  6  0  0  0
  2 18  1  1  0  0  0
  2  3  1  0  0  0  0
  2 12  1  0  0  0  0
  3 19  1  6  0  0  0
  3  4  1  0  0  0  0
  4 20  1  1  0  0  0
  4 10  1  0  0  0  0
  5  6  1  0  0  0  0
  5 14  1  6  0  0  0
  6 21  1  1  0  0  0
  7 13  1  1  0  0  0
  7  6  1  0  0  0  0
  8  9  1  1  0  0  0
  8  7  1  0  0  0  0
 10 16  1  6  0  0  0
 11 10  1  0  0  0  0
 12 17  1  6  0  0  0
 12 11  1  0  0  0  0
 15  9  1  0  0  0  0
 22  8  1  0  0  0  0
 22  1  1  0  0  0  0
M  END
>  <CHROM.1>
-175.79804086,-70.21152825,-176.59385490,-6.48145230,-0.26647627,0.64790607
1.27401681,-0.23095301,0.28985185

>  <Name>
lig.pdb

>  <RI>
0

>  <Rbt.Current_Directory>
/home/itssahil/PROJECTS/Mol_Feturizer/New_Systems/rnas/5bws

>  <Rbt.Executable>
rbdock ($Id: //depot/dev/client3/rdock/2013.1/src/exe/rbdock.cxx#4 $)

>  <Rbt.Library>
libRbt.so (2013.1, Build901 2013/11/27)

>  <Rbt.Parameter_File>
/export/apps/rDock/src/rDock_2013.1_src/data/scripts/dock_solv.prm

>  <Rbt.Receptor>
prm/pocket_docking_3.prm

>  <SCORE>
-10.2053

>  <SCORE.INTER>
-7.81462

>  <SCORE.INTER.CONST>
1

>  <SCORE.INTER.POLAR>
0

>  <SCORE.INTER.ROT>
3

>  <SCORE.INTER.SOLV>
17.3656

>  <SCORE.INTER.VDW>
-16.5983

>  <SCORE.INTER.norm>
-0.35521

>  <SCORE.INTRA>
-2.39072

>  <SCORE.INTRA.DIHEDRAL>
-5.47456

>  <SCORE.INTRA.DIHEDRAL.0>
6.10773

>  <SCORE.INTRA.POLAR>
0

>  <SCORE.INTRA.POLAR.0>
0

>  <SCORE.INTRA.REPUL>
0

>  <SCORE.INTRA.REPUL.0>
0

>  <SCORE.INTRA.SOLV>
0.917858

>  <SCORE.INTRA.SOLV.lig_0>
-71.4024

>  <SCORE.INTRA.VDW>
-0.112368

>  <SCORE.INTRA.VDW.0>
-1.86213

>  <SCORE.INTRA.norm>
-0.108669

>  <SCORE.RESTR>
0

>  <SCORE.RESTR.CAVITY>
0

>  <SCORE.RESTR.norm>
0

>  <SCORE.SYSTEM>
0

>  <SCORE.SYSTEM.CONST>
0

>  <SCORE.SYSTEM.DIHEDRAL>
0

>  <SCORE.SYSTEM.SOLV>
0

>  <SCORE.SYSTEM.norm>
0

>  <SCORE.heavy>
22

>  <SCORE.norm>
-0.463879

>  <RMSD>
6.120

$$$$
lig.pdb
 OpenBabel11021811523D
libRbt.so/2013.1/901 2013/11/27
 22 23  0  0  0  0  0  0  0  0999 V2000
   -7.3199    0.7810    1.4744 C   0  0  1  0  0  0  0  0  0  0  0  0
   -7.6043   -0.8267   -0.4557 C   0  0  1  0  0  0  0  0  0  0  0  0
   -6.2560   -1.6661   -0.3351 C   0  0  1  0  0  0  0  0  0  0  0  0
   -6.5097   -3.0981   -0.9909 C   0  0  2  0  0  0  0  0  0  0  0  0
   -7.2620    2.3448    1.6776 C   0  0  1  0  0  0  0  0  0  0  0  0
   -5.9979    2.8705    0.9691 C   0  0  2  0  0  0  0  0  0  0  0  0
   -4.7285    2.2541    1.5831 C   0  0  2  0  0  0  0  0  0  0  0  0
   -4.7327    0.6877    1.4462 C   0  0  1  0  0  0  0  0  0  0  0  0
   -3.4778    0.0560    2.1147 C   0  0  0  0  0  0  0  0  0  0  0  0
   -7.6635   -3.8624   -0.1621 C   0  0  1  0  0  0  0  0  0  0  0  0
   -9.0069   -2.9858   -0.3051 C   0  0  0  0  0  0  0  0  0  0  0  0
   -8.7689   -1.5308    0.3107 C   0  0  2  0  0  0  0  0  0  0  0  0
   -4.6342    2.6087    3.0039 F   0  0  0  0  0  0  0  0  0  0  0  0
   -8.5261    2.9349    1.0883 N   0  0  0  0  0  0  0  0  0  0  0  0
   -3.3766   -1.3477    1.9804 N   0  0  0  0  0  0  0  0  0  0  0  0
   -7.9507   -5.2136   -0.7541 N   0  0  0  0  0  0  0  0  0  0  0  0
  -10.0039   -0.7317    0.1748 N   0  0  0  0  0  0  0  0  0  0  0  0
   -7.4340    0.4578    0.1240 O   0  0  0  0  0  0  0  0  0  0  0  0
   -5.2034   -0.9498   -1.0937 O   0  0  0  0  0  0  0  0  0  0  0  0
   -5.3129   -3.8098   -0.8811 O   0  0  0  0  0  0  0  0  0  0  0  0
   -5.9565    4.0101    1.1204 O   0  0  0  0  0  0  0  0  0  0  0  0
   -6.0469    0.1921    2.0767 O   0  0  0  0  0  0  0  0  0  0  0  0
  1  5  1  0  0  0  0
  1 18  1  6  0  0  0
  2 18  1  1  0  0  0
  2  3  1  0  0  0  0
  2 12  1  0  0  0  0
  3 19  1  6  0  0  0
  3  4  1  0  0  0  0
  4 20  1  1  0  0  0
  4 10  1  0  0  0  0
  5  6  1  0  0  0  0
  5 14  1  6  0  0  0
  6 21  1  1  0  0  0
  7 13  1  1  0  0  0
  7  6  1  0  0  0  0
  8  9  1  1  0  0  0
  8  7  1  0  0  0  0
 10 16  1  6  0  0  0
 11 10  1  0  0  0  0
 12 17  1  6  0  0  0
 12 11  1  0  0  0  0
 15  9  1  0  0  0  0
 22  8  1  0  0  0  0
 22  1  1  0  0  0  0
M  END
>  <CHROM.1>
-175.37707687,-71.68327431,-177.21664895,-6.48280151,-0.25796990,0.67255147
1.27747637,-0.23155945,0.31244376

>  <Name>
lig.pdb

>  <RI>
0

>  <Rbt.Current_Directory>
/home/itssahil/PROJECTS/Mol_Feturizer/New_Systems/rnas/5bws

>  <Rbt.Executable>
rbdock ($Id: //depot/dev/client3/rdock/2013.1/src/exe/rbdock.cxx#4 $)

>  <Rbt.Library>
libRbt.so (2013.1, Build901 2013/11/27)

>  <Rbt.Parameter_File>
/export/apps/rDock/src/rDock_2013.1_src/data/scripts/dock_solv.prm

>  <Rbt.Receptor>
prm/pocket_docking_4.prm

>  <SCORE>
-10.2776

>  <SCORE.INTER>
-7.93048

>  <SCORE.INTER.CONST>
1

>  <SCORE.INTER.POLAR>
0

>  <SCORE.INTER.ROT>
3

>  <SCORE.INTER.SOLV>
17.3252

>  <SCORE.INTER.VDW>
-16.662

>  <SCORE.INTER.norm>
-0.360476

>  <SCORE.INTRA>
-2.34709

>  <SCORE.INTRA.DIHEDRAL>
-5.31989

>  <SCORE.INTRA.DIHEDRAL.0>
6.10773

>  <SCORE.INTRA.POLAR>
0

>  <SCORE.INTRA.POLAR.0>
0

>  <SCORE.INTRA.REPUL>
0

>  <SCORE.INTRA.REPUL.0>
0

>  <SCORE.INTRA.SOLV>
0.838589

>  <SCORE.INTRA.SOLV.lig_0>
-71.4024

>  <SCORE.INTRA.VDW>
-0.106436

>  <SCORE.INTRA.VDW.0>
-1.86213

>  <SCORE.INTRA.norm>
-0.106686

>  <SCORE.RESTR>
0

>  <SCORE.RESTR.CAVITY>
0

>  <SCORE.RESTR.norm>
0

>  <SCORE.SYSTEM>
0

>  <SCORE.SYSTEM.CONST>
0

>  <SCORE.SYSTEM.DIHEDRAL>
0

>  <SCORE.SYSTEM.SOLV>
0

>  <SCORE.SYSTEM.norm>
0

>  <SCORE.heavy>
22

>  <SCORE.norm>
-0.467162

>  <RMSD>
6.121

$$$$
lig.pdb
 OpenBabel11021811523D
libRbt.so/2013.1/901 2013/11/27
 22 23  0  0  0  0  0  0  0  0999 V2000
   -7.3606    0.8171    1.4713 C   0  0  1  0  0  0  0  0  0  0  0  0
   -7.6474   -0.7901   -0.4589 C   0  0  1  0  0  0  0  0  0  0  0  0
   -6.2925   -1.6178   -0.3319 C   0  0  1  0  0  0  0  0  0  0  0  0
   -6.5307   -3.0518   -0.9893 C   0  0  2  0  0  0  0  0  0  0  0  0
   -7.3040    2.3808    1.6761 C   0  0  1  0  0  0  0  0  0  0  0  0
   -6.0502    2.9106    0.9525 C   0  0  2  0  0  0  0  0  0  0  0  0
   -4.7716    2.2964    1.5494 C   0  0  2  0  0  0  0  0  0  0  0  0
   -4.7738    0.7302    1.4102 C   0  0  1  0  0  0  0  0  0  0  0  0
   -3.5090    0.1005    2.0618 C   0  0  0  0  0  0  0  0  0  0  0  0
   -7.6817   -3.8263   -0.1662 C   0  0  1  0  0  0  0  0  0  0  0  0
   -9.0319   -2.9613   -0.3154 C   0  0  0  0  0  0  0  0  0  0  0  0
   -8.8095   -1.5045    0.3018 C   0  0  2  0  0  0  0  0  0  0  0  0
   -4.6602    2.6490    2.9694 F   0  0  0  0  0  0  0  0  0  0  0  0
   -8.5768    2.9687    1.1038 N   0  0  0  0  0  0  0  0  0  0  0  0
   -3.4094   -1.3035    1.9298 N   0  0  0  0  0  0  0  0  0  0  0  0
   -7.9544   -5.1798   -0.7599 N   0  0  0  0  0  0  0  0  0  0  0  0
  -10.0507   -0.7161    0.1602 N   0  0  0  0  0  0  0  0  0  0  0  0
   -7.4911    0.4956    0.1220 O   0  0  0  0  0  0  0  0  0  0  0  0
   -5.2426   -0.8922   -1.0853 O   0  0  0  0  0  0  0  0  0  0  0  0
   -5.3282   -3.7531   -0.8739 O   0  0  0  0  0  0  0  0  0  0  0  0
   -6.0097    4.0501    1.1050 O   0  0  0  0  0  0  0  0  0  0  0  0
   -6.0787    0.2304    2.0565 O   0  0  0  0  0  0  0  0  0  0  0  0
  1  5  1  0  0  0  0
  1 18  1  6  0  0  0
  2 18  1  1  0  0  0
  2  3  1  0  0  0  0
  2 12  1  0  0  0  0
  3 19  1  6  0  0  0
  3  4  1  0  0  0  0
  4 20  1  1  0  0  0
  4 10  1  0  0  0  0
  5  6  1  0  0  0  0
  5 14  1  6  0  0  0
  6 21  1  1  0  0  0
  7 13  1  1  0  0  0
  7  6  1  0  0  0  0
  8  9  1  1  0  0  0
  8  7  1  0  0  0  0
 10 16  1  6  0  0  0
 11 10  1  0  0  0  0
 12 17  1  6  0  0  0
 12 11  1  0  0  0  0
 15  9  1  0  0  0  0
 22  8  1  0  0  0  0
 22  1  1  0  0  0  0
M  END
>  <CHROM.1>
-176.31331194,-70.33959722,-177.51057120,-6.51865365,-0.21873259,0.65977937
1.28104091,-0.22343288,0.31182299

>  <Name>
lig.pdb

>  <RI>
0

>  <Rbt.Current_Directory>
/home/itssahil/PROJECTS/Mol_Feturizer/New_Systems/rnas/5bws

>  <Rbt.Executable>
rbdock ($Id: //depot/dev/client3/rdock/2013.1/src/exe/rbdock.cxx#4 $)

>  <Rbt.Library>
libRbt.so (2013.1, Build901 2013/11/27)

>  <Rbt.Parameter_File>
/export/apps/rDock/src/rDock_2013.1_src/data/scripts/dock_solv.prm

>  <Rbt.Receptor>
prm/pocket_docking_6.prm

>  <SCORE>
-10.3096

>  <SCORE.INTER>
-7.90679

>  <SCORE.INTER.CONST>
1

>  <SCORE.INTER.POLAR>
0

>  <SCORE.INTER.ROT>
3

>  <SCORE.INTER.SOLV>
17.1571

>  <SCORE.INTER.VDW>
-16.5902

>  <SCORE.INTER.norm>
-0.3594

>  <SCORE.INTRA>
-2.40285

>  <SCORE.INTRA.DIHEDRAL>
-5.5015

>  <SCORE.INTRA.DIHEDRAL.0>
6.10773

>  <SCORE.INTRA.POLAR>
0

>  <SCORE.INTRA.POLAR.0>
0

>  <SCORE.INTRA.REPUL>
0

>  <SCORE.INTRA.REPUL.0>
0

>  <SCORE.INTRA.SOLV>
0.907643

>  <SCORE.INTRA.SOLV.lig_0>
-71.4024

>  <SCORE.INTRA.VDW>
-0.105915

>  <SCORE.INTRA.VDW.0>
-1.86213

>  <SCORE.INTRA.norm>
-0.10922

>  <SCORE.RESTR>
0

>  <SCORE.RESTR.CAVITY>
0

>  <SCORE.RESTR.norm>
0

>  <SCORE.SYSTEM>
0

>  <SCORE.SYSTEM.CONST>
0

>  <SCORE.SYSTEM.DIHEDRAL>
0

>  <SCORE.SYSTEM.SOLV>
0

>  <SCORE.SYSTEM.norm>
0

>  <SCORE.heavy>
22

>  <SCORE.norm>
-0.46862

>  <RMSD>
6.122

$$$$
lig.pdb
 OpenBabel11021811523D
libRbt.so/2013.1/901 2013/11/27
 22 23  0  0  0  0  0  0  0  0999 V2000
   -7.3318    0.8110    1.4158 C   0  0  1  0  0  0  0  0  0  0  0  0
   -7.6373   -0.8096   -0.5003 C   0  0  1  0  0  0  0  0  0  0  0  0
   -6.2934   -1.6556   -0.3765 C   0  0  1  0  0  0  0  0  0  0  0  0
   -6.5570   -3.0913   -1.0203 C   0  0  2  0  0  0  0  0  0  0  0  0
   -7.2545    2.3756    1.6061 C   0  0  1  0  0  0  0  0  0  0  0  0
   -5.9889    2.8809    0.8854 C   0  0  2  0  0  0  0  0  0  0  0  0
   -4.7228    2.2546    1.4962 C   0  0  2  0  0  0  0  0  0  0  0  0
   -4.7461    0.6874    1.3719 C   0  0  1  0  0  0  0  0  0  0  0  0
   -3.4943    0.0464    2.0374 C   0  0  0  0  0  0  0  0  0  0  0  0
   -7.7127   -3.8425   -0.1823 C   0  0  1  0  0  0  0  0  0  0  0  0
   -9.0516   -2.9595   -0.3287 C   0  0  0  0  0  0  0  0  0  0  0  0
   -8.8038   -1.5010    0.2748 C   0  0  2  0  0  0  0  0  0  0  0  0
   -4.6152    2.6193    2.9135 F   0  0  0  0  0  0  0  0  0  0  0  0
   -8.5154    2.9757    1.0202 N   0  0  0  0  0  0  0  0  0  0  0  0
   -3.3930   -1.3554    1.8850 N   0  0  0  0  0  0  0  0  0  0  0  0
   -8.0091   -5.1967   -0.7629 N   0  0  0  0  0  0  0  0  0  0  0  0
  -10.0346   -0.6961    0.1358 N   0  0  0  0  0  0  0  0  0  0  0  0
   -7.4583    0.4785    0.0688 O   0  0  0  0  0  0  0  0  0  0  0  0
   -5.2390   -0.9513   -1.1436 O   0  0  0  0  0  0  0  0  0  0  0  0
   -5.3638   -3.8088   -0.9080 O   0  0  0  0  0  0  0  0  0  0  0  0
   -5.9334    4.0212    1.0274 O   0  0  0  0  0  0  0  0  0  0  0  0
   -6.0618    0.2120    2.0146 O   0  0  0  0  0  0  0  0  0  0  0  0
  1  5  1  0  0  0  0
  1 18  1  6  0  0  0
  2 18  1  1  0  0  0
  2  3  1  0  0  0  0
  2 12  1  0  0  0  0
  3 19  1  6  0  0  0
  3  4  1  0  0  0  0
  4 20  1  1  0  0  0
  4 10  1  0  0  0  0
  5  6  1  0  0  0  0
  5 14  1  6  0  0  0
  6 21  1  1  0  0  0
  7 13  1  1  0  0  0
  7  6  1  0  0  0  0
  8  9  1  1  0  0  0
  8  7  1  0  0  0  0
 10 16  1  6  0  0  0
 11 10  1  0  0  0  0
 12 17  1  6  0  0  0
 12 11  1  0  0  0  0
 15  9  1  0  0  0  0
 22  8  1  0  0  0  0
 22  1  1  0  0  0  0
M  END
>  <CHROM.1>
-175.88649492,-71.31502141,-175.71380235,-6.50238225,-0.24366704,0.61572396
1.26865182,-0.22764108,0.30230369

>  <Name>
lig.pdb

>  <RI>
0

>  <Rbt.Current_Directory>
/home/itssahil/PROJECTS/Mol_Feturizer/New_Systems/rnas/5bws

>  <Rbt.Executable>
rbdock ($Id: //depot/dev/client3/rdock/2013.1/src/exe/rbdock.cxx#4 $)

>  <Rbt.Library>
libRbt.so (2013.1, Build901 2013/11/27)

>  <Rbt.Parameter_File>
/export/apps/rDock/src/rDock_2013.1_src/data/scripts/dock_solv.prm

>  <Rbt.Receptor>
prm/pocket_docking_3.prm

>  <SCORE>
-10.2658

>  <SCORE.INTER>
-7.91855

>  <SCORE.INTER.CONST>
1

>  <SCORE.INTER.POLAR>
0

>  <SCORE.INTER.ROT>
3

>  <SCORE.INTER.SOLV>
17.2066

>  <SCORE.INTER.VDW>
-16.6146

>  <SCORE.INTER.norm>
-0.359934

>  <SCORE.INTRA>
-2.34729

>  <SCORE.INTRA.DIHEDRAL>
-5.34287

>  <SCORE.INTRA.DIHEDRAL.0>
6.10773

>  <SCORE.INTRA.POLAR>
0

>  <SCORE.INTRA.POLAR.0>
0

>  <SCORE.INTRA.REPUL>
0

>  <SCORE.INTRA.REPUL.0>
0

>  <SCORE.INTRA.SOLV>
0.862691

>  <SCORE.INTRA.SOLV.lig_0>
-71.4024

>  <SCORE.INTRA.VDW>
-0.107201

>  <SCORE.INTRA.VDW.0>
-1.86213

>  <SCORE.INTRA.norm>
-0.106695

>  <SCORE.RESTR>
0

>  <SCORE.RESTR.CAVITY>
0

>  <SCORE.RESTR.norm>
0

>  <SCORE.SYSTEM>
0

>  <SCORE.SYSTEM.CONST>
0

>  <SCORE.SYSTEM.DIHEDRAL>
0

>  <SCORE.SYSTEM.SOLV>
0

>  <SCORE.SYSTEM.norm>
0

>  <SCORE.heavy>
22

>  <SCORE.norm>
-0.466629

>  <RMSD>
6.124

$$$$
lig.pdb
 OpenBabel11021811523D
libRbt.so/2013.1/901 2013/11/27
 22 23  0  0  0  0  0  0  0  0999 V2000
   -7.3210    0.7637    1.4074 C   0  0  1  0  0  0  0  0  0  0  0  0
   -7.5949   -0.8602   -0.5107 C   0  0  1  0  0  0  0  0  0  0  0  0
   -6.2571   -1.7084   -0.3442 C   0  0  1  0  0  0  0  0  0  0  0  0
   -6.5043   -3.1457   -0.9908 C   0  0  2  0  0  0  0  0  0  0  0  0
   -7.2788    2.3295    1.5990 C   0  0  1  0  0  0  0  0  0  0  0  0
   -6.0191    2.8624    0.8880 C   0  0  2  0  0  0  0  0  0  0  0  0
   -4.7444    2.2631    1.5079 C   0  0  2  0  0  0  0  0  0  0  0  0
   -4.7330    0.6958    1.3826 C   0  0  1  0  0  0  0  0  0  0  0  0
   -3.4726    0.0815    2.0571 C   0  0  0  0  0  0  0  0  0  0  0  0
   -7.6861   -3.8919   -0.1853 C   0  0  1  0  0  0  0  0  0  0  0  0
   -9.0181   -3.0067   -0.3745 C   0  0  0  0  0  0  0  0  0  0  0  0
   -8.7854   -1.5467    0.2314 C   0  0  2  0  0  0  0  0  0  0  0  0
   -4.6552    2.6291    2.9261 F   0  0  0  0  0  0  0  0  0  0  0  0
   -8.5480    2.9027    1.0040 N   0  0  0  0  0  0  0  0  0  0  0  0
   -3.3607   -1.3228    1.9389 N   0  0  0  0  0  0  0  0  0  0  0  0
   -7.9678   -5.2474   -0.7701 N   0  0  0  0  0  0  0  0  0  0  0  0
  -10.0099   -0.7399    0.0532 N   0  0  0  0  0  0  0  0  0  0  0  0
   -7.4303    0.4294    0.0593 O   0  0  0  0  0  0  0  0  0  0  0  0
   -5.1787   -1.0087   -1.0817 O   0  0  0  0  0  0  0  0  0  0  0  0
   -5.3165   -3.8652   -0.8407 O   0  0  0  0  0  0  0  0  0  0  0  0
   -5.9892    4.0035    1.0309 O   0  0  0  0  0  0  0  0  0  0  0  0
   -6.0429    0.1918    2.0153 O   0  0  0  0  0  0  0  0  0  0  0  0
  1  5  1  0  0  0  0
  1 18  1  6  0  0  0
  2 18  1  1  0  0  0
  2  3  1  0  0  0  0
  2 12  1  0  0  0  0
  3 19  1  6  0  0  0
  3  4  1  0  0  0  0
  4 20  1  1  0  0  0
  4 10  1  0  0  0  0
  5  6  1  0  0  0  0
  5 14  1  6  0  0  0
  6 21  1  1  0  0  0
  7 13  1  1  0  0  0
  7  6  1  0  0  0  0
  8  9  1  1  0  0  0
  8  7  1  0  0  0  0
 10 16  1  6  0  0  0
 11 10  1  0  0  0  0
 12 17  1  6  0  0  0
 12 11  1  0  0  0  0
 15  9  1  0  0  0  0
 22  8  1  0  0  0  0
 22  1  1  0  0  0  0
M  END
>  <CHROM.1>
-174.97856133,-70.14025180,-177.50662616,-6.48920416,-0.27436854,0.61993391
1.27606862,-0.23842184,0.30069710

>  <Name>
lig.pdb

>  <RI>
0

>  <Rbt.Current_Directory>
/home/itssahil/PROJECTS/Mol_Feturizer/New_Systems/rnas/5bws

>  <Rbt.Executable>
rbdock ($Id: //depot/dev/client3/rdock/2013.1/src/exe/rbdock.cxx#4 $)

>  <Rbt.Library>
libRbt.so (2013.1, Build901 2013/11/27)

>  <Rbt.Parameter_File>
/export/apps/rDock/src/rDock_2013.1_src/data/scripts/dock_solv.prm

>  <Rbt.Receptor>
prm/pocket_docking_3.prm

>  <SCORE>
-10.2682

>  <SCORE.INTER>
-7.87647

>  <SCORE.INTER.CONST>
1

>  <SCORE.INTER.POLAR>
0

>  <SCORE.INTER.ROT>
3

>  <SCORE.INTER.SOLV>
17.3803

>  <SCORE.INTER.VDW>
-16.6444

>  <SCORE.INTER.norm>
-0.358021

>  <SCORE.INTRA>
-2.39175

>  <SCORE.INTRA.DIHEDRAL>
-5.46377

>  <SCORE.INTRA.DIHEDRAL.0>
6.10773

>  <SCORE.INTRA.POLAR>
0

>  <SCORE.INTRA.POLAR.0>
0

>  <SCORE.INTRA.REPUL>
0

>  <SCORE.INTRA.REPUL.0>
0

>  <SCORE.INTRA.SOLV>
0.918062

>  <SCORE.INTRA.SOLV.lig_0>
-71.4024

>  <SCORE.INTRA.VDW>
-0.118891

>  <SCORE.INTRA.VDW.0>
-1.86213

>  <SCORE.INTRA.norm>
-0.108716

>  <SCORE.RESTR>
0

>  <SCORE.RESTR.CAVITY>
0

>  <SCORE.RESTR.norm>
0

>  <SCORE.SYSTEM>
0

>  <SCORE.SYSTEM.CONST>
0

>  <SCORE.SYSTEM.DIHEDRAL>
0

>  <SCORE.SYSTEM.SOLV>
0

>  <SCORE.SYSTEM.norm>
0

>  <SCORE.heavy>
22

>  <SCORE.norm>
-0.466737

>  <RMSD>
6.125

$$$$
lig.pdb
 OpenBabel11021811523D
libRbt.so/2013.1/901 2013/11/27
 22 23  0  0  0  0  0  0  0  0999 V2000
   -7.4403    0.6717    1.4241 C   0  0  1  0  0  0  0  0  0  0  0  0
   -7.7237   -0.9687   -0.4786 C   0  0  1  0  0  0  0  0  0  0  0  0
   -6.3537   -1.7746   -0.3752 C   0  0  1  0  0  0  0  0  0  0  0  0
   -6.5871   -3.2210   -1.0067 C   0  0  2  0  0  0  0  0  0  0  0  0
   -7.2974    2.2339    1.5950 C   0  0  1  0  0  0  0  0  0  0  0  0
   -6.0067    2.6753    0.8771 C   0  0  2  0  0  0  0  0  0  0  0  0
   -4.7726    2.0036    1.5051 C   0  0  2  0  0  0  0  0  0  0  0  0
   -4.8620    0.4373    1.4005 C   0  0  1  0  0  0  0  0  0  0  0  0
   -3.6432   -0.2478    2.0832 C   0  0  0  0  0  0  0  0  0  0  0  0
   -7.7051   -4.0006   -0.1439 C   0  0  1  0  0  0  0  0  0  0  0  0
   -9.0715   -3.1576   -0.2702 C   0  0  0  0  0  0  0  0  0  0  0  0
   -8.8552   -1.6892    0.3213 C   0  0  2  0  0  0  0  0  0  0  0  0
   -4.6590    2.3818    2.9183 F   0  0  0  0  0  0  0  0  0  0  0  0
   -8.5276    2.8795    0.9924 N   0  0  0  0  0  0  0  0  0  0  0  0
   -2.3897    0.0579    1.5055 N   0  0  0  0  0  0  0  0  0  0  0  0
   -7.9725   -5.3661   -0.7120 N   0  0  0  0  0  0  0  0  0  0  0  0
  -10.1113   -0.9211    0.2009 N   0  0  0  0  0  0  0  0  0  0  0  0
   -7.5719    0.3272    0.0806 O   0  0  0  0  0  0  0  0  0  0  0  0
   -5.3343   -1.0443   -1.1651 O   0  0  0  0  0  0  0  0  0  0  0  0
   -5.3717   -3.9029   -0.9128 O   0  0  0  0  0  0  0  0  0  0  0  0
   -5.9034    3.8139    1.0049 O   0  0  0  0  0  0  0  0  0  0  0  0
   -6.2011    0.0269    2.0397 O   0  0  0  0  0  0  0  0  0  0  0  0
  1  5  1  0  0  0  0
  1 18  1  6  0  0  0
  2 18  1  1  0  0  0
  2  3  1  0  0  0  0
  2 12  1  0  0  0  0
  3 19  1  6  0  0  0
  3  4  1  0  0  0  0
  4 20  1  1  0  0  0
  4 10  1  0  0  0  0
  5  6  1  0  0  0  0
  5 14  1  6  0  0  0
  6 21  1  1  0  0  0
  7 13  1  1  0  0  0
  7  6  1  0  0  0  0
  8  9  1  1  0  0  0
  8  7  1  0  0  0  0
 10 16  1  6  0  0  0
 11 10  1  0  0  0  0
 12 17  1  6  0  0  0
 12 11  1  0  0  0  0
 15  9  1  0  0  0  0
 22  8  1  0  0  0  0
 22  1  1  0  0  0  0
M  END
>  <CHROM.1>
-179.93353231,-71.82565784,-62.36093272,-6.50982276,-0.34855986,0.61320815
1.21487656,-0.16198568,0.31658535

>  <Name>
lig.pdb

>  <RI>
0

>  <Rbt.Current_Directory>
/home/itssahil/PROJECTS/Mol_Feturizer/New_Systems/rnas/5bws

>  <Rbt.Executable>
rbdock ($Id: //depot/dev/client3/rdock/2013.1/src/exe/rbdock.cxx#4 $)

>  <Rbt.Library>
libRbt.so (2013.1, Build901 2013/11/27)

>  <Rbt.Parameter_File>
/export/apps/rDock/src/rDock_2013.1_src/data/scripts/dock_solv.prm

>  <Rbt.Receptor>
prm/pocket_docking_3.prm

>  <SCORE>
-10.4115

>  <SCORE.INTER>
-7.84913

>  <SCORE.INTER.CONST>
1

>  <SCORE.INTER.POLAR>
0

>  <SCORE.INTER.ROT>
3

>  <SCORE.INTER.SOLV>
17.1625

>  <SCORE.INTER.VDW>
-16.5536

>  <SCORE.INTER.norm>
-0.356778

>  <SCORE.INTRA>
-2.56242

>  <SCORE.INTRA.DIHEDRAL>
-5.4167

>  <SCORE.INTRA.DIHEDRAL.0>
6.10773

>  <SCORE.INTRA.POLAR>
0

>  <SCORE.INTRA.POLAR.0>
0

>  <SCORE.INTRA.REPUL>
0

>  <SCORE.INTRA.REPUL.0>
0

>  <SCORE.INTRA.SOLV>
0.0579087

>  <SCORE.INTRA.SOLV.lig_0>
-71.4024

>  <SCORE.INTRA.VDW>
0.116981

>  <SCORE.INTRA.VDW.0>
-1.86213

>  <SCORE.INTRA.norm>
-0.116473

>  <SCORE.RESTR>
0

>  <SCORE.RESTR.CAVITY>
0

>  <SCORE.RESTR.norm>
0

>  <SCORE.SYSTEM>
0

>  <SCORE.SYSTEM.CONST>
0

>  <SCORE.SYSTEM.DIHEDRAL>
0

>  <SCORE.SYSTEM.SOLV>
0

>  <SCORE.SYSTEM.norm>
0

>  <SCORE.heavy>
22

>  <SCORE.norm>
-0.473252

>  <RMSD>
6.126

$$$$
lig.pdb
 OpenBabel11021811523D
libRbt.so/2013.1/901 2013/11/27
 22 23  0  0  0  0  0  0  0  0999 V2000
   -7.5097    0.7134    1.3934 C   0  0  1  0  0  0  0  0  0  0  0  0
   -7.7257   -0.9275   -0.5177 C   0  0  1  0  0  0  0  0  0  0  0  0
   -6.3362   -1.6999   -0.4191 C   0  0  1  0  0  0  0  0  0  0  0  0
   -6.5346   -3.1490   -1.0563 C   0  0  2  0  0  0  0  0  0  0  0  0
   -7.4041    2.2778    1.5704 C   0  0  1  0  0  0  0  0  0  0  0  0
   -6.1081    2.7486    0.8811 C   0  0  2  0  0  0  0  0  0  0  0  0
   -4.8736    2.1020    1.5340 C   0  0  2  0  0  0  0  0  0  0  0  0
   -4.9271    0.5344    1.4245 C   0  0  1  0  0  0  0  0  0  0  0  0
   -3.7087   -0.1260    2.1318 C   0  0  0  0  0  0  0  0  0  0  0  0
   -7.6320   -3.9594   -0.1955 C   0  0  1  0  0  0  0  0  0  0  0  0
   -9.0189   -3.1498   -0.3168 C   0  0  0  0  0  0  0  0  0  0  0  0
   -8.8382   -1.6790    0.2804 C   0  0  2  0  0  0  0  0  0  0  0  0
   -4.7984    2.4792    2.9501 F   0  0  0  0  0  0  0  0  0  0  0  0
   -8.6348    2.8984    0.9428 N   0  0  0  0  0  0  0  0  0  0  0  0
   -2.4487    0.2242    1.5948 N   0  0  0  0  0  0  0  0  0  0  0  0
   -7.8664   -5.3287   -0.7690 N   0  0  0  0  0  0  0  0  0  0  0  0
  -10.1130   -0.9415    0.1645 N   0  0  0  0  0  0  0  0  0  0  0  0
   -7.6052    0.3694    0.0467 O   0  0  0  0  0  0  0  0  0  0  0  0
   -5.3360   -0.9415   -1.2070 O   0  0  0  0  0  0  0  0  0  0  0  0
   -5.3027   -3.8012   -0.9665 O   0  0  0  0  0  0  0  0  0  0  0  0
   -6.0321    3.8888    1.0133 O   0  0  0  0  0  0  0  0  0  0  0  0
   -6.2704    0.0939    2.0341 O   0  0  0  0  0  0  0  0  0  0  0  0
  1  5  1  0  0  0  0
  1 18  1  6  0  0  0
  2 18  1  1  0  0  0
  2  3  1  0  0  0  0
  2 12  1  0  0  0  0
  3 19  1  6  0  0  0
  3  4  1  0  0  0  0
  4 20  1  1  0  0  0
  4 10  1  0  0  0  0
  5  6  1  0  0  0  0
  5 14  1  6  0  0  0
  6 21  1  1  0  0  0
  7 13  1  1  0  0  0
  7  6  1  0  0  0  0
  8  9  1  1  0  0  0
  8  7  1  0  0  0  0
 10 16  1  6  0  0  0
 11 10  1  0  0  0  0
 12 17  1  6  0  0  0
 12 11  1  0  0  0  0
 15  9  1  0  0  0  0
 22  8  1  0  0  0  0
 22  1  1  0  0  0  0
M  END
>  <CHROM.1>
-179.49441571,-73.35491855,-61.42217837,-6.54185343,-0.28329569,0.59705337
1.24338521,-0.16929413,0.32747298

>  <Name>
lig.pdb

>  <RI>
0

>  <Rbt.Current_Directory>
/home/itssahil/PROJECTS/Mol_Feturizer/New_Systems/rnas/5bws

>  <Rbt.Executable>
rbdock ($Id: //depot/dev/client3/rdock/2013.1/src/exe/rbdock.cxx#4 $)

>  <Rbt.Library>
libRbt.so (2013.1, Build901 2013/11/27)

>  <Rbt.Parameter_File>
/export/apps/rDock/src/rDock_2013.1_src/data/scripts/dock_solv.prm

>  <Rbt.Receptor>
prm/pocket_docking_4.prm

>  <SCORE>
-10.4418

>  <SCORE.INTER>
-7.94329

>  <SCORE.INTER.CONST>
1

>  <SCORE.INTER.POLAR>
0

>  <SCORE.INTER.ROT>
3

>  <SCORE.INTER.SOLV>
16.3798

>  <SCORE.INTER.VDW>
-16.3555

>  <SCORE.INTER.norm>
-0.361058

>  <SCORE.INTRA>
-2.49852

>  <SCORE.INTRA.DIHEDRAL>
-5.25196

>  <SCORE.INTRA.DIHEDRAL.0>
6.10773

>  <SCORE.INTRA.POLAR>
0

>  <SCORE.INTRA.POLAR.0>
0

>  <SCORE.INTRA.REPUL>
0

>  <SCORE.INTRA.REPUL.0>
0

>  <SCORE.INTRA.SOLV>
0.0320723

>  <SCORE.INTRA.SOLV.lig_0>
-71.4024

>  <SCORE.INTRA.VDW>
0.111418

>  <SCORE.INTRA.VDW.0>
-1.86213

>  <SCORE.INTRA.norm>
-0.113569

>  <SCORE.RESTR>
0

>  <SCORE.RESTR.CAVITY>
0

>  <SCORE.RESTR.norm>
0

>  <SCORE.SYSTEM>
0

>  <SCORE.SYSTEM.CONST>
0

>  <SCORE.SYSTEM.DIHEDRAL>
0

>  <SCORE.SYSTEM.SOLV>
0

>  <SCORE.SYSTEM.norm>
0

>  <SCORE.heavy>
22

>  <SCORE.norm>
-0.474628

>  <RMSD>
6.128

$$$$
lig.pdb
 OpenBabel11021811523D
libRbt.so/2013.1/901 2013/11/27
 22 23  0  0  0  0  0  0  0  0999 V2000
   -7.4742    0.6606    1.4082 C   0  0  1  0  0  0  0  0  0  0  0  0
   -7.7256   -0.9844   -0.4949 C   0  0  1  0  0  0  0  0  0  0  0  0
   -6.3508   -1.7830   -0.3998 C   0  0  1  0  0  0  0  0  0  0  0  0
   -6.5802   -3.2306   -1.0298 C   0  0  2  0  0  0  0  0  0  0  0  0
   -7.3337    2.2232    1.5776 C   0  0  1  0  0  0  0  0  0  0  0  0
   -6.0276    2.6615    0.8861 C   0  0  2  0  0  0  0  0  0  0  0  0
   -4.8077    1.9908    1.5422 C   0  0  2  0  0  0  0  0  0  0  0  0
   -4.8962    0.4242    1.4404 C   0  0  1  0  0  0  0  0  0  0  0  0
   -3.6928   -0.2598    2.1509 C   0  0  0  0  0  0  0  0  0  0  0  0
   -7.6887   -4.0162   -0.1600 C   0  0  1  0  0  0  0  0  0  0  0  0
   -9.0603   -3.1806   -0.2780 C   0  0  0  0  0  0  0  0  0  0  0  0
   -8.8484   -1.7109    0.3119 C   0  0  2  0  0  0  0  0  0  0  0  0
   -4.7240    2.3730    2.9564 F   0  0  0  0  0  0  0  0  0  0  0  0
   -8.5502    2.8680    0.9469 N   0  0  0  0  0  0  0  0  0  0  0  0
   -2.4245    0.0696    1.6204 N   0  0  0  0  0  0  0  0  0  0  0  0
   -7.9522   -5.3831   -0.7264 N   0  0  0  0  0  0  0  0  0  0  0  0
  -10.1093   -0.9496    0.1991 N   0  0  0  0  0  0  0  0  0  0  0  0
   -7.5774    0.3124    0.0632 O   0  0  0  0  0  0  0  0  0  0  0  0
   -5.3401   -1.0473   -1.1960 O   0  0  0  0  0  0  0  0  0  0  0  0
   -5.3606   -3.9061   -0.9431 O   0  0  0  0  0  0  0  0  0  0  0  0
   -5.9261    3.8004    1.0127 O   0  0  0  0  0  0  0  0  0  0  0  0
   -6.2490    0.0168    2.0520 O   0  0  0  0  0  0  0  0  0  0  0  0
  1  5  1  0  0  0  0
  1 18  1  6  0  0  0
  2 18  1  1  0  0  0
  2  3  1  0  0  0  0
  2 12  1  0  0  0  0
  3 19  1  6  0  0  0
  3  4  1  0  0  0  0
  4 20  1  1  0  0  0
  4 10  1  0  0  0  0
  5  6  1  0  0  0  0
  5 14  1  6  0  0  0
  6 21  1  1  0  0  0
  7 13  1  1  0  0  0
  7  6  1  0  0  0  0
  8  9  1  1  0  0  0
  8  7  1  0  0  0  0
 10 16  1  6  0  0  0
 11 10  1  0  0  0  0
 12 17  1  6  0  0  0
 12 11  1  0  0  0  0
 15  9  1  0  0  0  0
 22  8  1  0  0  0  0
 22  1  1  0  0  0  0
M  END
>  <CHROM.1>
-179.55658679,-73.65022252,-60.84597091,-6.52603821,-0.36047500,0.61605325
1.22353306,-0.17506637,0.32011914

>  <Name>
lig.pdb

>  <RI>
0

>  <Rbt.Current_Directory>
/home/itssahil/PROJECTS/Mol_Feturizer/New_Systems/rnas/5bws

>  <Rbt.Executable>
rbdock ($Id: //depot/dev/client3/rdock/2013.1/src/exe/rbdock.cxx#4 $)

>  <Rbt.Library>
libRbt.so (2013.1, Build901 2013/11/27)

>  <Rbt.Parameter_File>
/export/apps/rDock/src/rDock_2013.1_src/data/scripts/dock_solv.prm

>  <Rbt.Receptor>
prm/pocket_docking_6.prm

>  <SCORE>
-10.4694

>  <SCORE.INTER>
-7.98821

>  <SCORE.INTER.CONST>
1

>  <SCORE.INTER.POLAR>
0

>  <SCORE.INTER.ROT>
3

>  <SCORE.INTER.SOLV>
16.8062

>  <SCORE.INTER.VDW>
-16.5275

>  <SCORE.INTER.norm>
-0.3631

>  <SCORE.INTRA>
-2.48123

>  <SCORE.INTRA.DIHEDRAL>
-5.22089

>  <SCORE.INTRA.DIHEDRAL.0>
6.10773

>  <SCORE.INTRA.POLAR>
0

>  <SCORE.INTRA.POLAR.0>
0

>  <SCORE.INTRA.REPUL>
0

>  <SCORE.INTRA.REPUL.0>
0

>  <SCORE.INTRA.SOLV>
0.0279876

>  <SCORE.INTRA.SOLV.lig_0>
-71.4024

>  <SCORE.INTRA.VDW>
0.115226

>  <SCORE.INTRA.VDW.0>
-1.86213

>  <SCORE.INTRA.norm>
-0.112783

>  <SCORE.RESTR>
0

>  <SCORE.RESTR.CAVITY>
0

>  <SCORE.RESTR.norm>
0

>  <SCORE.SYSTEM>
0

>  <SCORE.SYSTEM.CONST>
0

>  <SCORE.SYSTEM.DIHEDRAL>
0

>  <SCORE.SYSTEM.SOLV>
0

>  <SCORE.SYSTEM.norm>
0

>  <SCORE.heavy>
22

>  <SCORE.norm>
-0.475883

>  <RMSD>
6.129

$$$$
lig.pdb
 OpenBabel11021811523D
libRbt.so/2013.1/901 2013/11/27
 22 23  0  0  0  0  0  0  0  0999 V2000
   -7.4698    0.6897    1.4188 C   0  0  1  0  0  0  0  0  0  0  0  0
   -7.7236   -0.9523   -0.4867 C   0  0  1  0  0  0  0  0  0  0  0  0
   -6.3471   -1.7471   -0.3847 C   0  0  1  0  0  0  0  0  0  0  0  0
   -6.5689   -3.1947   -1.0176 C   0  0  2  0  0  0  0  0  0  0  0  0
   -7.3462    2.2533    1.5916 C   0  0  1  0  0  0  0  0  0  0  0  0
   -6.0522    2.7092    0.8888 C   0  0  2  0  0  0  0  0  0  0  0  0
   -4.8181    2.0510    1.5308 C   0  0  2  0  0  0  0  0  0  0  0  0
   -4.8890    0.4838    1.4250 C   0  0  1  0  0  0  0  0  0  0  0  0
   -3.6707   -0.1880    2.1216 C   0  0  0  0  0  0  0  0  0  0  0  0
   -7.6801   -3.9843   -0.1551 C   0  0  1  0  0  0  0  0  0  0  0  0
   -9.0534   -3.1524   -0.2799 C   0  0  0  0  0  0  0  0  0  0  0  0
   -8.8489   -1.6828    0.3129 C   0  0  2  0  0  0  0  0  0  0  0  0
   -4.7251    2.4300    2.9453 F   0  0  0  0  0  0  0  0  0  0  0  0
   -8.5764    2.8856    0.9749 N   0  0  0  0  0  0  0  0  0  0  0  0
   -2.4128    0.1446    1.5688 N   0  0  0  0  0  0  0  0  0  0  0  0
   -7.9366   -5.3513   -0.7245 N   0  0  0  0  0  0  0  0  0  0  0  0
  -10.1112   -0.9249    0.1939 N   0  0  0  0  0  0  0  0  0  0  0  0
   -7.5821    0.3443    0.0738 O   0  0  0  0  0  0  0  0  0  0  0  0
   -5.3340   -1.0077   -1.1742 O   0  0  0  0  0  0  0  0  0  0  0  0
   -5.3479   -3.8668   -0.9248 O   0  0  0  0  0  0  0  0  0  0  0  0
   -5.9630    3.8488    1.0179 O   0  0  0  0  0  0  0  0  0  0  0  0
   -6.2308    0.0585    2.0486 O   0  0  0  0  0  0  0  0  0  0  0  0
  1  5  1  0  0  0  0
  1 18  1  6  0  0  0
  2 18  1  1  0  0  0
  2  3  1  0  0  0  0
  2 12  1  0  0  0  0
  3 19  1  6  0  0  0
  3  4  1  0  0  0  0
  4 20  1  1  0  0  0
  4 10  1  0  0  0  0
  5  6  1  0  0  0  0
  5 14  1  6  0  0  0
  6 21  1  1  0  0  0
  7 13  1  1  0  0  0
  7  6  1  0  0  0  0
  8  9  1  1  0  0  0
  8  7  1  0  0  0  0
 10 16  1  6  0  0  0
 11 10  1  0  0  0  0
 12 17  1  6  0  0  0
 12 11  1  0  0  0  0
 15  9  1  0  0  0  0
 22  8  1  0  0  0  0
 22  1  1  0  0  0  0
M  END
>  <CHROM.1>
-179.39619231,-72.72224052,-61.61976177,-6.52553565,-0.31937434,0.61720402
1.22639774,-0.16667057,0.32080152

>  <Name>
lig.pdb

>  <RI>
0

>  <Rbt.Current_Directory>
/home/itssahil/PROJECTS/Mol_Feturizer/New_Systems/rnas/5bws

>  <Rbt.Executable>
rbdock ($Id: //depot/dev/client3/rdock/2013.1/src/exe/rbdock.cxx#4 $)

>  <Rbt.Library>
libRbt.so (2013.1, Build901 2013/11/27)

>  <Rbt.Parameter_File>
/export/apps/rDock/src/rDock_2013.1_src/data/scripts/dock_solv.prm

>  <Rbt.Receptor>
prm/pocket_docking_4.prm

>  <SCORE>
-10.425

>  <SCORE.INTER>
-7.8967

>  <SCORE.INTER.CONST>
1

>  <SCORE.INTER.POLAR>
0

>  <SCORE.INTER.ROT>
3

>  <SCORE.INTER.SOLV>
16.779

>  <SCORE.INTER.VDW>
-16.4575

>  <SCORE.INTER.norm>
-0.358941

>  <SCORE.INTRA>
-2.52827

>  <SCORE.INTRA.DIHEDRAL>
-5.32442

>  <SCORE.INTRA.DIHEDRAL.0>
6.10773

>  <SCORE.INTRA.POLAR>
0

>  <SCORE.INTRA.POLAR.0>
0

>  <SCORE.INTRA.REPUL>
0

>  <SCORE.INTRA.REPUL.0>
0

>  <SCORE.INTRA.SOLV>
0.0506654

>  <SCORE.INTRA.SOLV.lig_0>
-71.4024

>  <SCORE.INTRA.VDW>
0.108606

>  <SCORE.INTRA.VDW.0>
-1.86213

>  <SCORE.INTRA.norm>
-0.114922

>  <SCORE.RESTR>
0

>  <SCORE.RESTR.CAVITY>
0

>  <SCORE.RESTR.norm>
0

>  <SCORE.SYSTEM>
0

>  <SCORE.SYSTEM.CONST>
0

>  <SCORE.SYSTEM.DIHEDRAL>
0

>  <SCORE.SYSTEM.SOLV>
0

>  <SCORE.SYSTEM.norm>
0

>  <SCORE.heavy>
22

>  <SCORE.norm>
-0.473862

>  <RMSD>
6.131

$$$$
lig.pdb
 OpenBabel11021811523D
libRbt.so/2013.1/901 2013/11/27
 22 23  0  0  0  0  0  0  0  0999 V2000
   -6.3629    0.1497    1.3698 C   0  0  1  0  0  0  0  0  0  0  0  0
   -6.7793   -1.2011   -0.7261 C   0  0  1  0  0  0  0  0  0  0  0  0
   -5.4736   -2.1080   -0.6278 C   0  0  1  0  0  0  0  0  0  0  0  0
   -5.7425   -3.4456   -1.4547 C   0  0  2  0  0  0  0  0  0  0  0  0
   -6.4555    1.6658    1.7976 C   0  0  1  0  0  0  0  0  0  0  0  0
   -5.3471    2.4385    1.0554 C   0  0  2  0  0  0  0  0  0  0  0  0
   -3.9551    1.9089    1.4434 C   0  0  2  0  0  0  0  0  0  0  0  0
   -3.8017    0.3880    1.0753 C   0  0  1  0  0  0  0  0  0  0  0  0
   -2.4162   -0.1659    1.5160 C   0  0  0  0  0  0  0  0  0  0  0  0
   -6.9718   -4.2450   -0.7822 C   0  0  1  0  0  0  0  0  0  0  0  0
   -8.2699   -3.2988   -0.8982 C   0  0  0  0  0  0  0  0  0  0  0  0
   -8.0134   -1.9332   -0.1093 C   0  0  2  0  0  0  0  0  0  0  0  0
   -3.7381    2.0751    2.8851 F   0  0  0  0  0  0  0  0  0  0  0  0
   -7.8364    2.1669    1.4294 N   0  0  0  0  0  0  0  0  0  0  0  0
   -2.1625   -0.0943    2.9049 N   0  0  0  0  0  0  0  0  0  0  0  0
   -7.2748   -5.5079   -1.5385 N   0  0  0  0  0  0  0  0  0  0  0  0
   -9.2067   -1.0697   -0.2211 N   0  0  0  0  0  0  0  0  0  0  0  0
   -6.5949    0.0022    0.0040 O   0  0  0  0  0  0  0  0  0  0  0  0
   -4.3513   -1.3596   -1.2416 O   0  0  0  0  0  0  0  0  0  0  0  0
   -4.5823   -4.2178   -1.3610 O   0  0  0  0  0  0  0  0  0  0  0  0
   -5.4150    3.5428    1.3704 O   0  0  0  0  0  0  0  0  0  0  0  0
   -4.9718   -0.3508    1.7500 O   0  0  0  0  0  0  0  0  0  0  0  0
  1  5  1  0  0  0  0
  1 18  1  6  0  0  0
  2 18  1  1  0  0  0
  2  3  1  0  0  0  0
  2 12  1  0  0  0  0
  3 19  1  6  0  0  0
  3  4  1  0  0  0  0
  4 20  1  1  0  0  0
  4 10  1  0  0  0  0
  5  6  1  0  0  0  0
  5 14  1  6  0  0  0
  6 21  1  1  0  0  0
  7 13  1  1  0  0  0
  7  6  1  0  0  0  0
  8  9  1  1  0  0  0
  8  7  1  0  0  0  0
 10 16  1  6  0  0  0
 11 10  1  0  0  0  0
 12 17  1  6  0  0  0
 12 11  1  0  0  0  0
 15  9  1  0  0  0  0
 22  8  1  0  0  0  0
 22  1  1  0  0  0  0
M  END
>  <CHROM.1>
-170.59946552,-61.87830474,60.59928453,-5.66068689,-0.61766775,0.47080408
1.20198300,-0.20667663,0.42486848

>  <Name>
lig.pdb

>  <RI>
0

>  <Rbt.Current_Directory>
/home/itssahil/PROJECTS/Mol_Feturizer/New_Systems/rnas/5bws

>  <Rbt.Executable>
rbdock ($Id: //depot/dev/client3/rdock/2013.1/src/exe/rbdock.cxx#4 $)

>  <Rbt.Library>
libRbt.so (2013.1, Build901 2013/11/27)

>  <Rbt.Parameter_File>
/export/apps/rDock/src/rDock_2013.1_src/data/scripts/dock_solv.prm

>  <Rbt.Receptor>
prm/pocket_docking_4.prm

>  <SCORE>
-10.2455

>  <SCORE.INTER>
-8.34961

>  <SCORE.INTER.CONST>
1

>  <SCORE.INTER.POLAR>
0

>  <SCORE.INTER.ROT>
3

>  <SCORE.INTER.SOLV>
15.7224

>  <SCORE.INTER.VDW>
-16.4072

>  <SCORE.INTER.norm>
-0.379528

>  <SCORE.INTRA>
-1.89587

>  <SCORE.INTRA.DIHEDRAL>
-5.65913

>  <SCORE.INTRA.DIHEDRAL.0>
6.10773

>  <SCORE.INTRA.POLAR>
0

>  <SCORE.INTRA.POLAR.0>
0

>  <SCORE.INTRA.REPUL>
0

>  <SCORE.INTRA.REPUL.0>
0

>  <SCORE.INTRA.SOLV>
1.6168

>  <SCORE.INTRA.SOLV.lig_0>
-71.4024

>  <SCORE.INTRA.VDW>
0.12529

>  <SCORE.INTRA.VDW.0>
-1.86213

>  <SCORE.INTRA.norm>
-0.0861761

>  <SCORE.RESTR>
0

>  <SCORE.RESTR.CAVITY>
0

>  <SCORE.RESTR.norm>
0

>  <SCORE.SYSTEM>
0

>  <SCORE.SYSTEM.CONST>
0

>  <SCORE.SYSTEM.DIHEDRAL>
0

>  <SCORE.SYSTEM.SOLV>
0

>  <SCORE.SYSTEM.norm>
0

>  <SCORE.heavy>
22

>  <SCORE.norm>
-0.465704

>  <RMSD>
6.131

$$$$
lig.pdb
 OpenBabel11021811523D
libRbt.so/2013.1/901 2013/11/27
 22 23  0  0  0  0  0  0  0  0999 V2000
   -7.3221    0.7983    1.4794 C   0  0  1  0  0  0  0  0  0  0  0  0
   -7.5934   -0.8303   -0.4351 C   0  0  1  0  0  0  0  0  0  0  0  0
   -6.2468   -1.6661   -0.2765 C   0  0  1  0  0  0  0  0  0  0  0  0
   -6.4852   -3.1063   -0.9199 C   0  0  2  0  0  0  0  0  0  0  0  0
   -7.3104    2.3646    1.6706 C   0  0  1  0  0  0  0  0  0  0  0  0
   -6.0685    2.9231    0.9480 C   0  0  2  0  0  0  0  0  0  0  0  0
   -4.7761    2.3504    1.5563 C   0  0  2  0  0  0  0  0  0  0  0  0
   -4.7336    0.7837    1.4311 C   0  0  1  0  0  0  0  0  0  0  0  0
   -3.4547    0.1956    2.0941 C   0  0  0  0  0  0  0  0  0  0  0  0
   -7.6548   -3.8623   -0.1059 C   0  0  1  0  0  0  0  0  0  0  0  0
   -8.9961   -2.9895   -0.2872 C   0  0  0  0  0  0  0  0  0  0  0  0
   -8.7727   -1.5268    0.3156 C   0  0  2  0  0  0  0  0  0  0  0  0
   -4.6816    2.7186    2.9736 F   0  0  0  0  0  0  0  0  0  0  0  0
   -8.5965    2.9114    1.0871 N   0  0  0  0  0  0  0  0  0  0  0  0
   -3.3374   -1.2110    2.0139 N   0  0  0  0  0  0  0  0  0  0  0  0
   -7.9280   -5.2210   -0.6873 N   0  0  0  0  0  0  0  0  0  0  0  0
  -10.0057   -0.7313    0.1446 N   0  0  0  0  0  0  0  0  0  0  0  0
   -7.4368    0.4614    0.1324 O   0  0  0  0  0  0  0  0  0  0  0  0
   -5.1798   -0.9574   -1.0218 O   0  0  0  0  0  0  0  0  0  0  0  0
   -5.2899   -3.8148   -0.7768 O   0  0  0  0  0  0  0  0  0  0  0  0
   -6.0608    4.0647    1.0905 O   0  0  0  0  0  0  0  0  0  0  0  0
   -6.0270    0.2530    2.0757 O   0  0  0  0  0  0  0  0  0  0  0  0
  1  5  1  0  0  0  0
  1 18  1  6  0  0  0
  2 18  1  1  0  0  0
  2  3  1  0  0  0  0
  2 12  1  0  0  0  0
  3 19  1  6  0  0  0
  3  4  1  0  0  0  0
  4 20  1  1  0  0  0
  4 10  1  0  0  0  0
  5  6  1  0  0  0  0
  5 14  1  6  0  0  0
  6 21  1  1  0  0  0
  7 13  1  1  0  0  0
  7  6  1  0  0  0  0
  8  9  1  1  0  0  0
  8  7  1  0  0  0  0
 10 16  1  6  0  0  0
 11 10  1  0  0  0  0
 12 17  1  6  0  0  0
 12 11  1  0  0  0  0
 15  9  1  0  0  0  0
 22  8  1  0  0  0  0
 22  1  1  0  0  0  0
M  END
>  <CHROM.1>
-174.28890297,-70.16261525,-179.52522854,-6.49169253,-0.22362816,0.68761322
1.28527714,-0.22766739,0.30180295

>  <Name>
lig.pdb

>  <RI>
0

>  <Rbt.Current_Directory>
/home/itssahil/PROJECTS/Mol_Feturizer/New_Systems/rnas/5bws

>  <Rbt.Executable>
rbdock ($Id: //depot/dev/client3/rdock/2013.1/src/exe/rbdock.cxx#4 $)

>  <Rbt.Library>
libRbt.so (2013.1, Build901 2013/11/27)

>  <Rbt.Parameter_File>
/export/apps/rDock/src/rDock_2013.1_src/data/scripts/dock_solv.prm

>  <Rbt.Receptor>
prm/pocket_docking_5.prm

>  <SCORE>
-10.2135

>  <SCORE.INTER>
-7.82515

>  <SCORE.INTER.CONST>
1

>  <SCORE.INTER.POLAR>
0

>  <SCORE.INTER.ROT>
3

>  <SCORE.INTER.SOLV>
17.1376

>  <SCORE.INTER.VDW>
-16.5293

>  <SCORE.INTER.norm>
-0.355689

>  <SCORE.INTRA>
-2.38837

>  <SCORE.INTRA.DIHEDRAL>
-5.44707

>  <SCORE.INTRA.DIHEDRAL.0>
6.10773

>  <SCORE.INTRA.POLAR>
0

>  <SCORE.INTRA.POLAR.0>
0

>  <SCORE.INTRA.REPUL>
0

>  <SCORE.INTRA.REPUL.0>
0

>  <SCORE.INTRA.SOLV>
0.913266

>  <SCORE.INTRA.SOLV.lig_0>
-71.4024

>  <SCORE.INTRA.VDW>
-0.121474

>  <SCORE.INTRA.VDW.0>
-1.86213

>  <SCORE.INTRA.norm>
-0.108562

>  <SCORE.RESTR>
0

>  <SCORE.RESTR.CAVITY>
0

>  <SCORE.RESTR.norm>
0

>  <SCORE.SYSTEM>
0

>  <SCORE.SYSTEM.CONST>
0

>  <SCORE.SYSTEM.DIHEDRAL>
0

>  <SCORE.SYSTEM.SOLV>
0

>  <SCORE.SYSTEM.norm>
0

>  <SCORE.heavy>
22

>  <SCORE.norm>
-0.464251

>  <RMSD>
6.131

$$$$
lig.pdb
 OpenBabel11021811523D
libRbt.so/2013.1/901 2013/11/27
 22 23  0  0  0  0  0  0  0  0999 V2000
   -6.3407    0.1386    1.3555 C   0  0  1  0  0  0  0  0  0  0  0  0
   -6.7604   -1.2090   -0.7419 C   0  0  1  0  0  0  0  0  0  0  0  0
   -5.4589   -2.1218   -0.6431 C   0  0  1  0  0  0  0  0  0  0  0  0
   -5.7332   -3.4577   -1.4711 C   0  0  2  0  0  0  0  0  0  0  0  0
   -6.4540    1.6517    1.7890 C   0  0  1  0  0  0  0  0  0  0  0  0
   -5.3566    2.4423    1.0493 C   0  0  2  0  0  0  0  0  0  0  0  0
   -3.9574    1.9305    1.4349 C   0  0  2  0  0  0  0  0  0  0  0  0
   -3.7832    0.4133    1.0610 C   0  0  1  0  0  0  0  0  0  0  0  0
   -2.3899   -0.1231    1.4992 C   0  0  0  0  0  0  0  0  0  0  0  0
   -6.9667   -4.2519   -0.8003 C   0  0  1  0  0  0  0  0  0  0  0  0
   -8.2603   -3.2997   -0.9167 C   0  0  0  0  0  0  0  0  0  0  0  0
   -7.9984   -1.9359   -0.1267 C   0  0  2  0  0  0  0  0  0  0  0  0
   -3.7421    2.0943    2.8771 F   0  0  0  0  0  0  0  0  0  0  0  0
   -7.8418    2.1350    1.4232 N   0  0  0  0  0  0  0  0  0  0  0  0
   -2.1476   -0.0791    2.8912 N   0  0  0  0  0  0  0  0  0  0  0  0
   -7.2747   -5.5129   -1.5577 N   0  0  0  0  0  0  0  0  0  0  0  0
   -9.1877   -1.0668   -0.2389 N   0  0  0  0  0  0  0  0  0  0  0  0
   -6.5712   -0.0070   -0.0108 O   0  0  0  0  0  0  0  0  0  0  0  0
   -4.3327   -1.3781   -1.2553 O   0  0  0  0  0  0  0  0  0  0  0  0
   -4.5766   -4.2351   -1.3769 O   0  0  0  0  0  0  0  0  0  0  0  0
   -5.4396    3.5444    1.3685 O   0  0  0  0  0  0  0  0  0  0  0  0
   -4.9427   -0.3441    1.7334 O   0  0  0  0  0  0  0  0  0  0  0  0
  1  5  1  0  0  0  0
  1 18  1  6  0  0  0
  2 18  1  1  0  0  0
  2  3  1  0  0  0  0
  2 12  1  0  0  0  0
  3 19  1  6  0  0  0
  3  4  1  0  0  0  0
  4 20  1  1  0  0  0
  4 10  1  0  0  0  0
  5  6  1  0  0  0  0
  5 14  1  6  0  0  0
  6 21  1  1  0  0  0
  7 13  1  1  0  0  0
  7  6  1  0  0  0  0
  8  9  1  1  0  0  0
  8  7  1  0  0  0  0
 10 16  1  6  0  0  0
 11 10  1  0  0  0  0
 12 17  1  6  0  0  0
 12 11  1  0  0  0  0
 15  9  1  0  0  0  0
 22  8  1  0  0  0  0
 22  1  1  0  0  0  0
M  END
>  <CHROM.1>
-169.50139881,-61.93005287,61.85881163,-5.65148353,-0.61808035,0.45736810
1.20378150,-0.20401779,0.42670305

>  <Name>
lig.pdb

>  <RI>
0

>  <Rbt.Current_Directory>
/home/itssahil/PROJECTS/Mol_Feturizer/New_Systems/rnas/5bws

>  <Rbt.Executable>
rbdock ($Id: //depot/dev/client3/rdock/2013.1/src/exe/rbdock.cxx#4 $)

>  <Rbt.Library>
libRbt.so (2013.1, Build901 2013/11/27)

>  <Rbt.Parameter_File>
/export/apps/rDock/src/rDock_2013.1_src/data/scripts/dock_solv.prm

>  <Rbt.Receptor>
prm/pocket_docking_5.prm

>  <SCORE>
-10.2412

>  <SCORE.INTER>
-8.40067

>  <SCORE.INTER.CONST>
1

>  <SCORE.INTER.POLAR>
0

>  <SCORE.INTER.ROT>
3

>  <SCORE.INTER.SOLV>
15.6849

>  <SCORE.INTER.VDW>
-16.4287

>  <SCORE.INTER.norm>
-0.381848

>  <SCORE.INTRA>
-1.84052

>  <SCORE.INTRA.DIHEDRAL>
-5.54409

>  <SCORE.INTRA.DIHEDRAL.0>
6.10773

>  <SCORE.INTRA.POLAR>
0

>  <SCORE.INTRA.POLAR.0>
0

>  <SCORE.INTRA.REPUL>
0

>  <SCORE.INTRA.REPUL.0>
0

>  <SCORE.INTRA.SOLV>
1.6629

>  <SCORE.INTRA.SOLV.lig_0>
-71.4024

>  <SCORE.INTRA.VDW>
0.100073

>  <SCORE.INTRA.VDW.0>
-1.86213

>  <SCORE.INTRA.norm>
-0.08366

>  <SCORE.RESTR>
0

>  <SCORE.RESTR.CAVITY>
0

>  <SCORE.RESTR.norm>
0

>  <SCORE.SYSTEM>
0

>  <SCORE.SYSTEM.CONST>
0

>  <SCORE.SYSTEM.DIHEDRAL>
0

>  <SCORE.SYSTEM.SOLV>
0

>  <SCORE.SYSTEM.norm>
0

>  <SCORE.heavy>
22

>  <SCORE.norm>
-0.465508

>  <RMSD>
6.136

$$$$
lig.pdb
 OpenBabel11021811523D
libRbt.so/2013.1/901 2013/11/27
 22 23  0  0  0  0  0  0  0  0999 V2000
   -8.7149    0.8550    1.3282 C   0  0  1  0  0  0  0  0  0  0  0  0
   -8.5697   -0.6846   -0.6717 C   0  0  1  0  0  0  0  0  0  0  0  0
   -7.0001   -0.8442   -0.8910 C   0  0  1  0  0  0  0  0  0  0  0  0
   -6.7457   -2.2454   -1.6101 C   0  0  2  0  0  0  0  0  0  0  0  0
   -9.1266    2.3521    1.6099 C   0  0  1  0  0  0  0  0  0  0  0  0
   -8.1612    3.2663    0.8297 C   0  0  2  0  0  0  0  0  0  0  0  0
   -6.7111    3.0645    1.3038 C   0  0  2  0  0  0  0  0  0  0  0  0
   -6.2415    1.5801    1.0835 C   0  0  1  0  0  0  0  0  0  0  0  0
   -4.7951    1.3578    1.6122 C   0  0  0  0  0  0  0  0  0  0  0  0
   -7.2503   -3.4349   -0.6444 C   0  0  1  0  0  0  0  0  0  0  0  0
   -8.8364   -3.2398   -0.4445 C   0  0  0  0  0  0  0  0  0  0  0  0
   -9.1232   -1.8251    0.2406 C   0  0  2  0  0  0  0  0  0  0  0  0
   -6.5977    3.3943    2.7291 F   0  0  0  0  0  0  0  0  0  0  0  0
  -10.5612    2.5300    1.1586 N   0  0  0  0  0  0  0  0  0  0  0  0
   -4.2889    0.0512    1.4253 N   0  0  0  0  0  0  0  0  0  0  0  0
   -7.0464   -4.7778   -1.2875 N   0  0  0  0  0  0  0  0  0  0  0  0
  -10.5793   -1.6519    0.4195 N   0  0  0  0  0  0  0  0  0  0  0  0
   -8.8500    0.5469   -0.0238 O   0  0  0  0  0  0  0  0  0  0  0  0
   -6.5485    0.2580   -1.7728 O   0  0  0  0  0  0  0  0  0  0  0  0
   -5.3663   -2.3570   -1.7992 O   0  0  0  0  0  0  0  0  0  0  0  0
   -8.4618    4.3569    1.0383 O   0  0  0  0  0  0  0  0  0  0  0  0
   -7.2709    0.6807    1.7917 O   0  0  0  0  0  0  0  0  0  0  0  0
  1  5  1  0  0  0  0
  1 18  1  6  0  0  0
  2 18  1  1  0  0  0
  2  3  1  0  0  0  0
  2 12  1  0  0  0  0
  3 19  1  6  0  0  0
  3  4  1  0  0  0  0
  4 20  1  1  0  0  0
  4 10  1  0  0  0  0
  5  6  1  0  0  0  0
  5 14  1  6  0  0  0
  6 21  1  1  0  0  0
  7 13  1  1  0  0  0
  7  6  1  0  0  0  0
  8  9  1  1  0  0  0
  8  7  1  0  0  0  0
 10 16  1  6  0  0  0
 11 10  1  0  0  0  0
 12 17  1  6  0  0  0
 12 11  1  0  0  0  0
 15  9  1  0  0  0  0
 22  8  1  0  0  0  0
 22  1  1  0  0  0  0
M  END
>  <CHROM.1>
179.40156170,-78.15523687,-178.76292411,-7.55339889,0.21411775,0.36257224
1.62744746,0.01049986,0.41434380

>  <Name>
lig.pdb

>  <RI>
0

>  <Rbt.Current_Directory>
/home/itssahil/PROJECTS/Mol_Feturizer/New_Systems/rnas/5bws

>  <Rbt.Executable>
rbdock ($Id: //depot/dev/client3/rdock/2013.1/src/exe/rbdock.cxx#4 $)

>  <Rbt.Library>
libRbt.so (2013.1, Build901 2013/11/27)

>  <Rbt.Parameter_File>
/export/apps/rDock/src/rDock_2013.1_src/data/scripts/dock_solv.prm

>  <Rbt.Receptor>
prm/pocket_docking_6.prm

>  <SCORE>
-9.69411

>  <SCORE.INTER>
-7.57048

>  <SCORE.INTER.CONST>
1

>  <SCORE.INTER.POLAR>
0

>  <SCORE.INTER.ROT>
3

>  <SCORE.INTER.SOLV>
15.6864

>  <SCORE.INTER.VDW>
-15.8758

>  <SCORE.INTER.norm>
-0.344113

>  <SCORE.INTRA>
-2.12363

>  <SCORE.INTRA.DIHEDRAL>
-4.59097

>  <SCORE.INTRA.DIHEDRAL.0>
6.10773

>  <SCORE.INTRA.POLAR>
0

>  <SCORE.INTRA.POLAR.0>
0

>  <SCORE.INTRA.REPUL>
0

>  <SCORE.INTRA.REPUL.0>
0

>  <SCORE.INTRA.SOLV>
0.503109

>  <SCORE.INTRA.SOLV.lig_0>
-71.4024

>  <SCORE.INTRA.VDW>
-0.0796949

>  <SCORE.INTRA.VDW.0>
-1.86213

>  <SCORE.INTRA.norm>
-0.0965285

>  <SCORE.RESTR>
0

>  <SCORE.RESTR.CAVITY>
0

>  <SCORE.RESTR.norm>
0

>  <SCORE.SYSTEM>
0

>  <SCORE.SYSTEM.CONST>
0

>  <SCORE.SYSTEM.DIHEDRAL>
0

>  <SCORE.SYSTEM.SOLV>
0

>  <SCORE.SYSTEM.norm>
0

>  <SCORE.heavy>
22

>  <SCORE.norm>
-0.440641

>  <RMSD>
6.141

$$$$
lig.pdb
 OpenBabel11021811523D
libRbt.so/2013.1/901 2013/11/27
 22 23  0  0  0  0  0  0  0  0999 V2000
   -7.2725    0.7774    1.4405 C   0  0  1  0  0  0  0  0  0  0  0  0
   -7.5201   -0.7510   -0.5580 C   0  0  1  0  0  0  0  0  0  0  0  0
   -6.1590   -1.5714   -0.4511 C   0  0  1  0  0  0  0  0  0  0  0  0
   -6.3774   -2.9789   -1.1699 C   0  0  2  0  0  0  0  0  0  0  0  0
   -7.2249    2.3316    1.7097 C   0  0  1  0  0  0  0  0  0  0  0  0
   -5.9625    2.8946    1.0273 C   0  0  2  0  0  0  0  0  0  0  0  0
   -4.6906    2.2607    1.6179 C   0  0  2  0  0  0  0  0  0  0  0  0
   -4.6847    0.7015    1.4149 C   0  0  1  0  0  0  0  0  0  0  0  0
   -3.4273    0.0498    2.0593 C   0  0  0  0  0  0  0  0  0  0  0  0
   -7.5297   -3.7969   -0.3919 C   0  0  1  0  0  0  0  0  0  0  0  0
   -8.8862   -2.9382   -0.5195 C   0  0  0  0  0  0  0  0  0  0  0  0
   -8.6834   -1.5064    0.1600 C   0  0  2  0  0  0  0  0  0  0  0  0
   -4.6018    2.5554    3.0526 F   0  0  0  0  0  0  0  0  0  0  0  0
   -8.4914    2.9382    1.1427 N   0  0  0  0  0  0  0  0  0  0  0  0
   -2.1924    0.5001    1.5389 N   0  0  0  0  0  0  0  0  0  0  0  0
   -7.7839   -5.1268   -1.0442 N   0  0  0  0  0  0  0  0  0  0  0  0
   -9.9302   -0.7236    0.0380 N   0  0  0  0  0  0  0  0  0  0  0  0
   -7.3815    0.5108    0.0774 O   0  0  0  0  0  0  0  0  0  0  0  0
   -5.1081   -0.8060   -1.1625 O   0  0  0  0  0  0  0  0  0  0  0  0
   -5.1698   -3.6739   -1.0709 O   0  0  0  0  0  0  0  0  0  0  0  0
   -5.9287    4.0270    1.2267 O   0  0  0  0  0  0  0  0  0  0  0  0
   -5.9971    0.1715    2.0205 O   0  0  0  0  0  0  0  0  0  0  0  0
  1  5  1  0  0  0  0
  1 18  1  6  0  0  0
  2 18  1  1  0  0  0
  2  3  1  0  0  0  0
  2 12  1  0  0  0  0
  3 19  1  6  0  0  0
  3  4  1  0  0  0  0
  4 20  1  1  0  0  0
  4 10  1  0  0  0  0
  5  6  1  0  0  0  0
  5 14  1  6  0  0  0
  6 21  1  1  0  0  0
  7 13  1  1  0  0  0
  7  6  1  0  0  0  0
  8  9  1  1  0  0  0
  8  7  1  0  0  0  0
 10 16  1  6  0  0  0
 11 10  1  0  0  0  0
 12 17  1  6  0  0  0
 12 11  1  0  0  0  0
 15  9  1  0  0  0  0
 22  8  1  0  0  0  0
 22  1  1  0  0  0  0
M  END
>  <CHROM.1>
-176.52043455,-70.58119092,-60.32677164,-6.35841024,-0.13859185,0.58416518
1.22784327,-0.16053305,0.37453337

>  <Name>
lig.pdb

>  <RI>
0

>  <Rbt.Current_Directory>
/home/itssahil/PROJECTS/Mol_Feturizer/New_Systems/rnas/5bws

>  <Rbt.Executable>
rbdock ($Id: //depot/dev/client3/rdock/2013.1/src/exe/rbdock.cxx#4 $)

>  <Rbt.Library>
libRbt.so (2013.1, Build901 2013/11/27)

>  <Rbt.Parameter_File>
/export/apps/rDock/src/rDock_2013.1_src/data/scripts/dock_solv.prm

>  <Rbt.Receptor>
prm/pocket_docking_6.prm

>  <SCORE>
-10.3506

>  <SCORE.INTER>
-7.81088

>  <SCORE.INTER.CONST>
1

>  <SCORE.INTER.POLAR>
0

>  <SCORE.INTER.ROT>
3

>  <SCORE.INTER.SOLV>
15.9742

>  <SCORE.INTER.VDW>
-16.132

>  <SCORE.INTER.norm>
-0.35504

>  <SCORE.INTRA>
-2.53974

>  <SCORE.INTRA.DIHEDRAL>
-5.50684

>  <SCORE.INTRA.DIHEDRAL.0>
6.10773

>  <SCORE.INTRA.POLAR>
0

>  <SCORE.INTRA.POLAR.0>
0

>  <SCORE.INTRA.REPUL>
0

>  <SCORE.INTRA.REPUL.0>
0

>  <SCORE.INTRA.SOLV>
0.205392

>  <SCORE.INTRA.SOLV.lig_0>
-71.4024

>  <SCORE.INTRA.VDW>
0.110988

>  <SCORE.INTRA.VDW.0>
-1.86213

>  <SCORE.INTRA.norm>
-0.115443

>  <SCORE.RESTR>
0

>  <SCORE.RESTR.CAVITY>
0

>  <SCORE.RESTR.norm>
0

>  <SCORE.SYSTEM>
0

>  <SCORE.SYSTEM.CONST>
0

>  <SCORE.SYSTEM.DIHEDRAL>
0

>  <SCORE.SYSTEM.SOLV>
0

>  <SCORE.SYSTEM.norm>
0

>  <SCORE.heavy>
22

>  <SCORE.norm>
-0.470483

>  <RMSD>
6.142

$$$$
lig.pdb
 OpenBabel11021811523D
libRbt.so/2013.1/901 2013/11/27
 22 23  0  0  0  0  0  0  0  0999 V2000
   -7.4545    0.7410    1.4088 C   0  0  1  0  0  0  0  0  0  0  0  0
   -7.7116   -0.9059   -0.4920 C   0  0  1  0  0  0  0  0  0  0  0  0
   -6.3371   -1.7032   -0.3829 C   0  0  1  0  0  0  0  0  0  0  0  0
   -6.5598   -3.1523   -1.0120 C   0  0  2  0  0  0  0  0  0  0  0  0
   -7.3704    2.3074    1.5802 C   0  0  1  0  0  0  0  0  0  0  0  0
   -6.0948    2.7966    0.8661 C   0  0  2  0  0  0  0  0  0  0  0  0
   -4.8384    2.1712    1.4976 C   0  0  2  0  0  0  0  0  0  0  0  0
   -4.8693    0.6027    1.3928 C   0  0  1  0  0  0  0  0  0  0  0  0
   -3.6279   -0.0367    2.0791 C   0  0  0  0  0  0  0  0  0  0  0  0
   -7.6755   -3.9369   -0.1508 C   0  0  1  0  0  0  0  0  0  0  0  0
   -9.0466   -3.1026   -0.2828 C   0  0  0  0  0  0  0  0  0  0  0  0
   -8.8411   -1.6316    0.3061 C   0  0  2  0  0  0  0  0  0  0  0  0
   -4.7432    2.5532    2.9112 F   0  0  0  0  0  0  0  0  0  0  0  0
   -8.6220    2.9070    0.9739 N   0  0  0  0  0  0  0  0  0  0  0  0
   -2.3834    0.3349    1.5206 N   0  0  0  0  0  0  0  0  0  0  0  0
   -7.9329   -5.3052   -0.7168 N   0  0  0  0  0  0  0  0  0  0  0  0
  -10.1014   -0.8714    0.1804 N   0  0  0  0  0  0  0  0  0  0  0  0
   -7.5693    0.3921    0.0649 O   0  0  0  0  0  0  0  0  0  0  0  0
   -5.3198   -0.9684   -1.1713 O   0  0  0  0  0  0  0  0  0  0  0  0
   -5.3405   -3.8267   -0.9130 O   0  0  0  0  0  0  0  0  0  0  0  0
   -6.0343    3.9383    0.9942 O   0  0  0  0  0  0  0  0  0  0  0  0
   -6.1941    0.1427    2.0280 O   0  0  0  0  0  0  0  0  0  0  0  0
  1  5  1  0  0  0  0
  1 18  1  6  0  0  0
  2 18  1  1  0  0  0
  2  3  1  0  0  0  0
  2 12  1  0  0  0  0
  3 19  1  6  0  0  0
  3  4  1  0  0  0  0
  4 20  1  1  0  0  0
  4 10  1  0  0  0  0
  5  6  1  0  0  0  0
  5 14  1  6  0  0  0
  6 21  1  1  0  0  0
  7 13  1  1  0  0  0
  7  6  1  0  0  0  0
  8  9  1  1  0  0  0
  8  7  1  0  0  0  0
 10 16  1  6  0  0  0
 11 10  1  0  0  0  0
 12 17  1  6  0  0  0
 12 11  1  0  0  0  0
 15  9  1  0  0  0  0
 22  8  1  0  0  0  0
 22  1  1  0  0  0  0
M  END
>  <CHROM.1>
-177.85549451,-72.39140547,-61.24823072,-6.52489434,-0.24605211,0.60411680
1.22939576,-0.15606959,0.31850657

>  <Name>
lig.pdb

>  <RI>
0

>  <Rbt.Current_Directory>
/home/itssahil/PROJECTS/Mol_Feturizer/New_Systems/rnas/5bws

>  <Rbt.Executable>
rbdock ($Id: //depot/dev/client3/rdock/2013.1/src/exe/rbdock.cxx#4 $)

>  <Rbt.Library>
libRbt.so (2013.1, Build901 2013/11/27)

>  <Rbt.Parameter_File>
/export/apps/rDock/src/rDock_2013.1_src/data/scripts/dock_solv.prm

>  <Rbt.Receptor>
prm/pocket_docking_7.prm

>  <SCORE>
-10.3787

>  <SCORE.INTER>
-7.8629

>  <SCORE.INTER.CONST>
1

>  <SCORE.INTER.POLAR>
0

>  <SCORE.INTER.ROT>
3

>  <SCORE.INTER.SOLV>
16.5331

>  <SCORE.INTER.VDW>
-16.353

>  <SCORE.INTER.norm>
-0.357404

>  <SCORE.INTRA>
-2.51577

>  <SCORE.INTRA.DIHEDRAL>
-5.34553

>  <SCORE.INTRA.DIHEDRAL.0>
6.10773

>  <SCORE.INTRA.POLAR>
0

>  <SCORE.INTRA.POLAR.0>
0

>  <SCORE.INTRA.REPUL>
0

>  <SCORE.INTRA.REPUL.0>
0

>  <SCORE.INTRA.SOLV>
0.0994293

>  <SCORE.INTRA.SOLV.lig_0>
-71.4024

>  <SCORE.INTRA.VDW>
0.107283

>  <SCORE.INTRA.VDW.0>
-1.86213

>  <SCORE.INTRA.norm>
-0.114353

>  <SCORE.RESTR>
0

>  <SCORE.RESTR.CAVITY>
0

>  <SCORE.RESTR.norm>
0

>  <SCORE.SYSTEM>
0

>  <SCORE.SYSTEM.CONST>
0

>  <SCORE.SYSTEM.DIHEDRAL>
0

>  <SCORE.SYSTEM.SOLV>
0

>  <SCORE.SYSTEM.norm>
0

>  <SCORE.heavy>
22

>  <SCORE.norm>
-0.471758

>  <RMSD>
6.145

$$$$
lig.pdb
 OpenBabel11021811523D
libRbt.so/2013.1/901 2013/11/27
 22 23  0  0  0  0  0  0  0  0999 V2000
   -7.8920    1.0458    1.3995 C   0  0  1  0  0  0  0  0  0  0  0  0
   -8.1143   -0.6045   -0.5028 C   0  0  1  0  0  0  0  0  0  0  0  0
   -6.6543   -1.2400   -0.5453 C   0  0  1  0  0  0  0  0  0  0  0  0
   -6.7736   -2.7003   -1.1765 C   0  0  2  0  0  0  0  0  0  0  0  0
   -7.9139    2.6131    1.5816 C   0  0  1  0  0  0  0  0  0  0  0  0
   -6.7255    3.2004    0.7948 C   0  0  2  0  0  0  0  0  0  0  0  0
   -5.3890    2.6671    1.3405 C   0  0  2  0  0  0  0  0  0  0  0  0
   -5.3097    1.1013    1.2214 C   0  0  1  0  0  0  0  0  0  0  0  0
   -3.9837    0.5526    1.8225 C   0  0  0  0  0  0  0  0  0  0  0  0
   -7.7012   -3.6140   -0.2242 C   0  0  1  0  0  0  0  0  0  0  0  0
   -9.1642   -2.9411   -0.2041 C   0  0  0  0  0  0  0  0  0  0  0  0
   -9.0684   -1.4608    0.3893 C   0  0  2  0  0  0  0  0  0  0  0  0
   -5.2339    3.0470    2.7494 F   0  0  0  0  0  0  0  0  0  0  0  0
   -9.2421    3.1208    1.0606 N   0  0  0  0  0  0  0  0  0  0  0  0
   -3.8359   -0.8515    1.7519 N   0  0  0  0  0  0  0  0  0  0  0  0
   -7.8576   -4.9984   -0.7876 N   0  0  0  0  0  0  0  0  0  0  0  0
  -10.4130   -0.8490    0.4033 N   0  0  0  0  0  0  0  0  0  0  0  0
   -8.0647    0.6970    0.0617 O   0  0  0  0  0  0  0  0  0  0  0  0
   -5.8112   -0.3876   -1.4165 O   0  0  0  0  0  0  0  0  0  0  0  0
   -5.4822   -3.2313   -1.2114 O   0  0  0  0  0  0  0  0  0  0  0  0
   -6.7421    4.3427    0.9308 O   0  0  0  0  0  0  0  0  0  0  0  0
   -6.5542    0.5399    1.9329 O   0  0  0  0  0  0  0  0  0  0  0  0
  1  5  1  0  0  0  0
  1 18  1  6  0  0  0
  2 18  1  1  0  0  0
  2  3  1  0  0  0  0
  2 12  1  0  0  0  0
  3 19  1  6  0  0  0
  3  4  1  0  0  0  0
  4 20  1  1  0  0  0
  4 10  1  0  0  0  0
  5  6  1  0  0  0  0
  5 14  1  6  0  0  0
  6 21  1  1  0  0  0
  7 13  1  1  0  0  0
  7  6  1  0  0  0  0
  8  9  1  1  0  0  0
  8  7  1  0  0  0  0
 10 16  1  6  0  0  0
 11 10  1  0  0  0  0
 12 17  1  6  0  0  0
 12 11  1  0  0  0  0
 15  9  1  0  0  0  0
 22  8  1  0  0  0  0
 22  1  1  0  0  0  0
M  END
>  <CHROM.1>
-179.42950347,-74.30993276,-179.92904352,-6.94875139,0.05988840,0.54076995
1.37251461,-0.13954020,0.32676787

>  <Name>
lig.pdb

>  <RI>
0

>  <Rbt.Current_Directory>
/home/itssahil/PROJECTS/Mol_Feturizer/New_Systems/rnas/5bws

>  <Rbt.Executable>
rbdock ($Id: //depot/dev/client3/rdock/2013.1/src/exe/rbdock.cxx#4 $)

>  <Rbt.Library>
libRbt.so (2013.1, Build901 2013/11/27)

>  <Rbt.Parameter_File>
/export/apps/rDock/src/rDock_2013.1_src/data/scripts/dock_solv.prm

>  <Rbt.Receptor>
prm/pocket_docking_5.prm

>  <SCORE>
-9.71855

>  <SCORE.INTER>
-7.41651

>  <SCORE.INTER.CONST>
1

>  <SCORE.INTER.POLAR>
0

>  <SCORE.INTER.ROT>
3

>  <SCORE.INTER.SOLV>
15.0627

>  <SCORE.INTER.VDW>
-15.5653

>  <SCORE.INTER.norm>
-0.337114

>  <SCORE.INTRA>
-2.30204

>  <SCORE.INTRA.DIHEDRAL>
-5.13985

>  <SCORE.INTRA.DIHEDRAL.0>
6.10773

>  <SCORE.INTRA.POLAR>
0

>  <SCORE.INTRA.POLAR.0>
0

>  <SCORE.INTRA.REPUL>
0

>  <SCORE.INTRA.REPUL.0>
0

>  <SCORE.INTRA.SOLV>
0.710237

>  <SCORE.INTRA.SOLV.lig_0>
-71.4024

>  <SCORE.INTRA.VDW>
-0.0872312

>  <SCORE.INTRA.VDW.0>
-1.86213

>  <SCORE.INTRA.norm>
-0.104638

>  <SCORE.RESTR>
0

>  <SCORE.RESTR.CAVITY>
0

>  <SCORE.RESTR.norm>
0

>  <SCORE.SYSTEM>
0

>  <SCORE.SYSTEM.CONST>
0

>  <SCORE.SYSTEM.DIHEDRAL>
0

>  <SCORE.SYSTEM.SOLV>
0

>  <SCORE.SYSTEM.norm>
0

>  <SCORE.heavy>
22

>  <SCORE.norm>
-0.441752

>  <RMSD>
6.152

$$$$
lig.pdb
 OpenBabel11021811523D
libRbt.so/2013.1/901 2013/11/27
 22 23  0  0  0  0  0  0  0  0999 V2000
   -7.2417    0.6553    1.4005 C   0  0  1  0  0  0  0  0  0  0  0  0
   -7.8321   -0.9326   -0.4759 C   0  0  1  0  0  0  0  0  0  0  0  0
   -6.4572   -1.7293   -0.5863 C   0  0  1  0  0  0  0  0  0  0  0  0
   -6.7694   -3.1603   -1.2188 C   0  0  2  0  0  0  0  0  0  0  0  0
   -7.1199    2.2157    1.6022 C   0  0  1  0  0  0  0  0  0  0  0  0
   -6.0003    2.7295    0.6754 C   0  0  2  0  0  0  0  0  0  0  0  0
   -4.6499    2.0866    1.0378 C   0  0  2  0  0  0  0  0  0  0  0  0
   -4.7067    0.5221    0.8913 C   0  0  1  0  0  0  0  0  0  0  0  0
   -3.3607   -0.1366    1.3098 C   0  0  0  0  0  0  0  0  0  0  0  0
   -7.7526   -3.9722   -0.2308 C   0  0  1  0  0  0  0  0  0  0  0  0
   -9.1273   -3.1378   -0.1426 C   0  0  0  0  0  0  0  0  0  0  0  0
   -8.8378   -1.6839    0.4533 C   0  0  2  0  0  0  0  0  0  0  0  0
   -4.2874    2.4236    2.4192 F   0  0  0  0  0  0  0  0  0  0  0  0
   -8.4609    2.8320    1.2628 N   0  0  0  0  0  0  0  0  0  0  0  0
   -2.9764    0.0974    2.6500 N   0  0  0  0  0  0  0  0  0  0  0  0
   -8.0900   -5.3243   -0.7937 N   0  0  0  0  0  0  0  0  0  0  0  0
  -10.1021   -0.9236    0.5299 N   0  0  0  0  0  0  0  0  0  0  0  0
   -7.6101    0.3491    0.0922 O   0  0  0  0  0  0  0  0  0  0  0  0
   -5.5612   -0.9696   -1.4897 O   0  0  0  0  0  0  0  0  0  0  0  0
   -5.5495   -3.8341   -1.3136 O   0  0  0  0  0  0  0  0  0  0  0  0
   -5.9118    3.8666    0.8257 O   0  0  0  0  0  0  0  0  0  0  0  0
   -5.8894    0.0399    1.7509 O   0  0  0  0  0  0  0  0  0  0  0  0
  1  5  1  0  0  0  0
  1 18  1  6  0  0  0
  2 18  1  1  0  0  0
  2  3  1  0  0  0  0
  2 12  1  0  0  0  0
  3 19  1  6  0  0  0
  3  4  1  0  0  0  0
  4 20  1  1  0  0  0
  4 10  1  0  0  0  0
  5  6  1  0  0  0  0
  5 14  1  6  0  0  0
  6 21  1  1  0  0  0
  7 13  1  1  0  0  0
  7  6  1  0  0  0  0
  8  9  1  1  0  0  0
  8  7  1  0  0  0  0
 10 16  1  6  0  0  0
 11 10  1  0  0  0  0
 12 17  1  6  0  0  0
 12 11  1  0  0  0  0
 15  9  1  0  0  0  0
 22  8  1  0  0  0  0
 22  1  1  0  0  0  0
M  END
>  <CHROM.1>
-179.37550727,-68.98854965,60.49422157,-6.50254108,-0.31185965,0.50274510
1.17819186,-0.11859650,0.31908773

>  <Name>
lig.pdb

>  <RI>
0

>  <Rbt.Current_Directory>
/home/itssahil/PROJECTS/Mol_Feturizer/New_Systems/rnas/5bws

>  <Rbt.Executable>
rbdock ($Id: //depot/dev/client3/rdock/2013.1/src/exe/rbdock.cxx#4 $)

>  <Rbt.Library>
libRbt.so (2013.1, Build901 2013/11/27)

>  <Rbt.Parameter_File>
/export/apps/rDock/src/rDock_2013.1_src/data/scripts/dock_solv.prm

>  <Rbt.Receptor>
prm/pocket_docking_8.prm

>  <SCORE>
-9.734

>  <SCORE.INTER>
-7.62166

>  <SCORE.INTER.CONST>
1

>  <SCORE.INTER.POLAR>
0

>  <SCORE.INTER.ROT>
3

>  <SCORE.INTER.SOLV>
15.8112

>  <SCORE.INTER.VDW>
-15.9515

>  <SCORE.INTER.norm>
-0.346439

>  <SCORE.INTRA>
-2.11234

>  <SCORE.INTRA.DIHEDRAL>
-5.71111

>  <SCORE.INTRA.DIHEDRAL.0>
6.10773

>  <SCORE.INTRA.POLAR>
0

>  <SCORE.INTRA.POLAR.0>
0

>  <SCORE.INTRA.REPUL>
0

>  <SCORE.INTRA.REPUL.0>
0

>  <SCORE.INTRA.SOLV>
1.16865

>  <SCORE.INTRA.SOLV.lig_0>
-71.4024

>  <SCORE.INTRA.VDW>
0.158883

>  <SCORE.INTRA.VDW.0>
-1.86213

>  <SCORE.INTRA.norm>
-0.0960157

>  <SCORE.RESTR>
0

>  <SCORE.RESTR.CAVITY>
0

>  <SCORE.RESTR.norm>
0

>  <SCORE.SYSTEM>
0

>  <SCORE.SYSTEM.CONST>
0

>  <SCORE.SYSTEM.DIHEDRAL>
0

>  <SCORE.SYSTEM.SOLV>
0

>  <SCORE.SYSTEM.norm>
0

>  <SCORE.heavy>
22

>  <SCORE.norm>
-0.442455

>  <RMSD>
6.154

$$$$
lig.pdb
 OpenBabel11021811523D
libRbt.so/2013.1/901 2013/11/27
 22 23  0  0  0  0  0  0  0  0999 V2000
   -6.0784    0.3095    1.6467 C   0  0  1  0  0  0  0  0  0  0  0  0
   -6.6850   -0.8821   -0.4988 C   0  0  1  0  0  0  0  0  0  0  0  0
   -5.4635   -1.9042   -0.5144 C   0  0  1  0  0  0  0  0  0  0  0  0
   -5.8898   -3.1640   -1.3956 C   0  0  2  0  0  0  0  0  0  0  0  0
   -5.9615    1.8033    2.1419 C   0  0  1  0  0  0  0  0  0  0  0  0
   -4.7789    2.4590    1.4017 C   0  0  2  0  0  0  0  0  0  0  0  0
   -3.4598    1.7357    1.7260 C   0  0  2  0  0  0  0  0  0  0  0  0
   -3.5156    0.2265    1.2884 C   0  0  1  0  0  0  0  0  0  0  0  0
   -2.2048   -0.5225    1.6645 C   0  0  0  0  0  0  0  0  0  0  0  0
   -7.1543   -3.8892   -0.7046 C   0  0  1  0  0  0  0  0  0  0  0  0
   -8.3654   -2.8277   -0.7049 C   0  0  0  0  0  0  0  0  0  0  0  0
   -7.9507   -1.5368    0.1404 C   0  0  2  0  0  0  0  0  0  0  0  0
   -3.1895    1.8051    3.1666 F   0  0  0  0  0  0  0  0  0  0  0  0
   -7.2730    2.4960    1.8359 N   0  0  0  0  0  0  0  0  0  0  0  0
   -1.8939   -0.5197    3.0436 N   0  0  0  0  0  0  0  0  0  0  0  0
   -7.6045   -5.0757   -1.5098 N   0  0  0  0  0  0  0  0  0  0  0  0
   -9.0650   -0.5669    0.1347 N   0  0  0  0  0  0  0  0  0  0  0  0
   -6.3593    0.2570    0.2831 O   0  0  0  0  0  0  0  0  0  0  0  0
   -4.3074   -1.2236   -1.1441 O   0  0  0  0  0  0  0  0  0  0  0  0
   -4.8011   -4.0391   -1.4014 O   0  0  0  0  0  0  0  0  0  0  0  0
   -4.6942    3.5470    1.7658 O   0  0  0  0  0  0  0  0  0  0  0  0
   -4.7565   -0.3845    1.9644 O   0  0  0  0  0  0  0  0  0  0  0  0
  1  5  1  0  0  0  0
  1 18  1  6  0  0  0
  2 18  1  1  0  0  0
  2  3  1  0  0  0  0
  2 12  1  0  0  0  0
  3 19  1  6  0  0  0
  3  4  1  0  0  0  0
  4 20  1  1  0  0  0
  4 10  1  0  0  0  0
  5  6  1  0  0  0  0
  5 14  1  6  0  0  0
  6 21  1  1  0  0  0
  7 13  1  1  0  0  0
  7  6  1  0  0  0  0
  8  9  1  1  0  0  0
  8  7  1  0  0  0  0
 10 16  1  6  0  0  0
 11 10  1  0  0  0  0
 12 17  1  6  0  0  0
 12 11  1  0  0  0  0
 15  9  1  0  0  0  0
 22  8  1  0  0  0  0
 22  1  1  0  0  0  0
M  END
>  <CHROM.1>
-172.27963337,-63.26212345,59.04966171,-5.46084693,-0.49983716,0.68407822
1.09252941,-0.22635195,0.45445395

>  <Name>
lig.pdb

>  <RI>
0

>  <Rbt.Current_Directory>
/home/itssahil/PROJECTS/Mol_Feturizer/New_Systems/rnas/5bws

>  <Rbt.Executable>
rbdock ($Id: //depot/dev/client3/rdock/2013.1/src/exe/rbdock.cxx#4 $)

>  <Rbt.Library>
libRbt.so (2013.1, Build901 2013/11/27)

>  <Rbt.Parameter_File>
/export/apps/rDock/src/rDock_2013.1_src/data/scripts/dock_solv.prm

>  <Rbt.Receptor>
prm/pocket_docking_2.prm

>  <SCORE>
-8.12816

>  <SCORE.INTER>
-7.21661

>  <SCORE.INTER.CONST>
1

>  <SCORE.INTER.POLAR>
0

>  <SCORE.INTER.ROT>
3

>  <SCORE.INTER.SOLV>
17.0897

>  <SCORE.INTER.VDW>
-16.1076

>  <SCORE.INTER.norm>
-0.328028

>  <SCORE.INTRA>
-1.95301

>  <SCORE.INTRA.DIHEDRAL>
-5.75924

>  <SCORE.INTRA.DIHEDRAL.0>
6.10773

>  <SCORE.INTRA.POLAR>
0

>  <SCORE.INTRA.POLAR.0>
0

>  <SCORE.INTRA.REPUL>
0

>  <SCORE.INTRA.REPUL.0>
0

>  <SCORE.INTRA.SOLV>
1.54058

>  <SCORE.INTRA.SOLV.lig_0>
-71.4024

>  <SCORE.INTRA.VDW>
0.156314

>  <SCORE.INTRA.VDW.0>
-1.86213

>  <SCORE.INTRA.norm>
-0.0887733

>  <SCORE.RESTR>
1.04146

>  <SCORE.RESTR.CAVITY>
1.04146

>  <SCORE.RESTR.norm>
0.0473389

>  <SCORE.SYSTEM>
0

>  <SCORE.SYSTEM.CONST>
0

>  <SCORE.SYSTEM.DIHEDRAL>
0

>  <SCORE.SYSTEM.SOLV>
0

>  <SCORE.SYSTEM.norm>
0

>  <SCORE.heavy>
22

>  <SCORE.norm>
-0.369462

>  <RMSD>
6.155

$$$$
lig.pdb
 OpenBabel11021811523D
libRbt.so/2013.1/901 2013/11/27
 22 23  0  0  0  0  0  0  0  0999 V2000
   -6.3306    0.1113    1.3922 C   0  0  1  0  0  0  0  0  0  0  0  0
   -6.8365   -1.2540   -0.6745 C   0  0  1  0  0  0  0  0  0  0  0  0
   -5.5654   -2.2104   -0.5950 C   0  0  1  0  0  0  0  0  0  0  0  0
   -5.9078   -3.5482   -1.3941 C   0  0  2  0  0  0  0  0  0  0  0  0
   -6.3943    1.6334    1.8036 C   0  0  1  0  0  0  0  0  0  0  0  0
   -5.2865    2.3809    1.0353 C   0  0  2  0  0  0  0  0  0  0  0  0
   -3.8965    1.8353    1.4078 C   0  0  2  0  0  0  0  0  0  0  0  0
   -3.7712    0.3081    1.0551 C   0  0  1  0  0  0  0  0  0  0  0  0
   -2.3872   -0.2612    1.4808 C   0  0  0  0  0  0  0  0  0  0  0  0
   -7.1498   -4.2883   -0.6786 C   0  0  1  0  0  0  0  0  0  0  0  0
   -8.4123   -3.2931   -0.7765 C   0  0  0  0  0  0  0  0  0  0  0  0
   -8.0822   -1.9275   -0.0156 C   0  0  2  0  0  0  0  0  0  0  0  0
   -3.6545    2.0148    2.8439 F   0  0  0  0  0  0  0  0  0  0  0  0
   -7.7733    2.1506    1.4511 N   0  0  0  0  0  0  0  0  0  0  0  0
   -2.1000   -0.1542    2.8608 N   0  0  0  0  0  0  0  0  0  0  0  0
   -7.5216   -5.5490   -1.4073 N   0  0  0  0  0  0  0  0  0  0  0  0
   -9.2431   -1.0190   -0.1107 N   0  0  0  0  0  0  0  0  0  0  0  0
   -6.5862   -0.0485    0.0320 O   0  0  0  0  0  0  0  0  0  0  0  0
   -4.4307   -1.5162   -1.2484 O   0  0  0  0  0  0  0  0  0  0  0  0
   -4.7769   -4.3643   -1.3176 O   0  0  0  0  0  0  0  0  0  0  0  0
   -5.3332    3.4897    1.3383 O   0  0  0  0  0  0  0  0  0  0  0  0
   -4.9412   -0.4054    1.7566 O   0  0  0  0  0  0  0  0  0  0  0  0
  1  5  1  0  0  0  0
  1 18  1  6  0  0  0
  2 18  1  1  0  0  0
  2  3  1  0  0  0  0
  2 12  1  0  0  0  0
  3 19  1  6  0  0  0
  3  4  1  0  0  0  0
  4 20  1  1  0  0  0
  4 10  1  0  0  0  0
  5  6  1  0  0  0  0
  5 14  1  6  0  0  0
  6 21  1  1  0  0  0
  7 13  1  1  0  0  0
  7  6  1  0  0  0  0
  8  9  1  1  0  0  0
  8  7  1  0  0  0  0
 10 16  1  6  0  0  0
 11 10  1  0  0  0  0
 12 17  1  6  0  0  0
 12 11  1  0  0  0  0
 15  9  1  0  0  0  0
 22  8  1  0  0  0  0
 22  1  1  0  0  0  0
M  END
>  <CHROM.1>
-168.67698389,-62.79206593,59.44430213,-5.68875416,-0.67587953,0.49621481
1.16470326,-0.19715174,0.40527276

>  <Name>
lig.pdb

>  <RI>
0

>  <Rbt.Current_Directory>
/home/itssahil/PROJECTS/Mol_Feturizer/New_Systems/rnas/5bws

>  <Rbt.Executable>
rbdock ($Id: //depot/dev/client3/rdock/2013.1/src/exe/rbdock.cxx#4 $)

>  <Rbt.Library>
libRbt.so (2013.1, Build901 2013/11/27)

>  <Rbt.Parameter_File>
/export/apps/rDock/src/rDock_2013.1_src/data/scripts/dock_solv.prm

>  <Rbt.Receptor>
prm/pocket_docking_4.prm

>  <SCORE>
-10.1205

>  <SCORE.INTER>
-8.3726

>  <SCORE.INTER.CONST>
1

>  <SCORE.INTER.POLAR>
0

>  <SCORE.INTER.ROT>
3

>  <SCORE.INTER.SOLV>
15.7792

>  <SCORE.INTER.VDW>
-16.4415

>  <SCORE.INTER.norm>
-0.380573

>  <SCORE.INTRA>
-1.74788

>  <SCORE.INTRA.DIHEDRAL>
-5.45122

>  <SCORE.INTRA.DIHEDRAL.0>
6.10773

>  <SCORE.INTRA.POLAR>
0

>  <SCORE.INTRA.POLAR.0>
0

>  <SCORE.INTRA.REPUL>
0

>  <SCORE.INTRA.REPUL.0>
0

>  <SCORE.INTRA.SOLV>
1.7203

>  <SCORE.INTRA.SOLV.lig_0>
-71.4024

>  <SCORE.INTRA.VDW>
0.117579

>  <SCORE.INTRA.VDW.0>
-1.86213

>  <SCORE.INTRA.norm>
-0.0794491

>  <SCORE.RESTR>
0

>  <SCORE.RESTR.CAVITY>
0

>  <SCORE.RESTR.norm>
0

>  <SCORE.SYSTEM>
0

>  <SCORE.SYSTEM.CONST>
0

>  <SCORE.SYSTEM.DIHEDRAL>
0

>  <SCORE.SYSTEM.SOLV>
0

>  <SCORE.SYSTEM.norm>
0

>  <SCORE.heavy>
22

>  <SCORE.norm>
-0.460022

>  <RMSD>
6.156

$$$$
lig.pdb
 OpenBabel11021811523D
libRbt.so/2013.1/901 2013/11/27
 22 23  0  0  0  0  0  0  0  0999 V2000
   -7.7520   -0.0443   -0.0129 C   0  0  1  0  0  0  0  0  0  0  0  0
   -6.9471   -2.2832   -0.8677 C   0  0  1  0  0  0  0  0  0  0  0  0
   -7.6295   -3.4745   -1.6752 C   0  0  1  0  0  0  0  0  0  0  0  0
   -6.6299   -4.7178   -1.6523 C   0  0  2  0  0  0  0  0  0  0  0  0
   -8.1892   -0.4459    1.4491 C   0  0  1  0  0  0  0  0  0  0  0  0
   -9.6521   -0.9289    1.3929 C   0  0  2  0  0  0  0  0  0  0  0  0
  -10.5819    0.1939    0.8997 C   0  0  2  0  0  0  0  0  0  0  0  0
  -10.1831    0.6697   -0.5450 C   0  0  1  0  0  0  0  0  0  0  0  0
  -11.0855    1.8425   -1.0257 C   0  0  0  0  0  0  0  0  0  0  0  0
   -5.2613   -4.3099   -2.4025 C   0  0  1  0  0  0  0  0  0  0  0  0
   -4.6028   -3.1050   -1.5610 C   0  0  0  0  0  0  0  0  0  0  0  0
   -5.6008   -1.8575   -1.5352 C   0  0  2  0  0  0  0  0  0  0  0  0
  -10.5159    1.3393    1.8145 F   0  0  0  0  0  0  0  0  0  0  0  0
   -7.2531   -1.5354    1.9290 N   0  0  0  0  0  0  0  0  0  0  0  0
  -10.9305    3.0466   -0.3012 N   0  0  0  0  0  0  0  0  0  0  0  0
   -4.2786   -5.4469   -2.3919 N   0  0  0  0  0  0  0  0  0  0  0  0
   -4.9917   -0.7569   -0.7607 N   0  0  0  0  0  0  0  0  0  0  0  0
   -7.7952   -1.1449   -0.8661 O   0  0  0  0  0  0  0  0  0  0  0  0
   -8.8882   -3.8340   -0.9805 O   0  0  0  0  0  0  0  0  0  0  0  0
   -7.2538   -5.7498   -2.3572 O   0  0  0  0  0  0  0  0  0  0  0  0
   -9.9693   -1.2190    2.4600 O   0  0  0  0  0  0  0  0  0  0  0  0
   -8.6946    1.0586   -0.4876 O   0  0  0  0  0  0  0  0  0  0  0  0
  1  5  1  0  0  0  0
  1 18  1  6  0  0  0
  2 18  1  6  0  0  0
  2  3  1  0  0  0  0
  2 12  1  0  0  0  0
  3 19  1  1  0  0  0
  3  4  1  0  0  0  0
  4 20  1  6  0  0  0
  4 10  1  0  0  0  0
  5  6  1  0  0  0  0
  5 14  1  6  0  0  0
  6 21  1  1  0  0  0
  7 13  1  1  0  0  0
  7  6  1  0  0  0  0
  8  9  1  1  0  0  0
  8  7  1  0  0  0  0
 10 16  1  1  0  0  0
 11 10  1  0  0  0  0
 12 17  1  1  0  0  0
 12 11  1  0  0  0  0
 15  9  1  0  0  0  0
 22  8  1  0  0  0  0
 22  1  1  0  0  0  0
M  END
>  <CHROM.1>
-69.49265794,161.73873092,66.37701606,-8.00282749,-1.45600521,-0.39360821
-2.30555031,-0.46253175,-3.08293785

>  <Name>
lig.pdb

>  <RI>
0

>  <Rbt.Current_Directory>
/home/itssahil/PROJECTS/Mol_Feturizer/New_Systems/rnas/5bws

>  <Rbt.Executable>
rbdock ($Id: //depot/dev/client3/rdock/2013.1/src/exe/rbdock.cxx#4 $)

>  <Rbt.Library>
libRbt.so (2013.1, Build901 2013/11/27)

>  <Rbt.Parameter_File>
/export/apps/rDock/src/rDock_2013.1_src/data/scripts/dock_solv.prm

>  <Rbt.Receptor>
prm/pocket_docking_7.prm

>  <SCORE>
-9.6614

>  <SCORE.INTER>
-9.66572

>  <SCORE.INTER.CONST>
1

>  <SCORE.INTER.POLAR>
0

>  <SCORE.INTER.ROT>
3

>  <SCORE.INTER.SOLV>
14.0616

>  <SCORE.INTER.VDW>
-16.731

>  <SCORE.INTER.norm>
-0.439351

>  <SCORE.INTRA>
0.00431867

>  <SCORE.INTRA.DIHEDRAL>
-4.00111

>  <SCORE.INTRA.DIHEDRAL.0>
6.10773

>  <SCORE.INTRA.POLAR>
0

>  <SCORE.INTRA.POLAR.0>
0

>  <SCORE.INTRA.REPUL>
0

>  <SCORE.INTRA.REPUL.0>
0

>  <SCORE.INTRA.SOLV>
3.52442

>  <SCORE.INTRA.SOLV.lig_0>
-71.4024

>  <SCORE.INTRA.VDW>
0.242664

>  <SCORE.INTRA.VDW.0>
-1.86213

>  <SCORE.INTRA.norm>
0.000196303

>  <SCORE.RESTR>
0

>  <SCORE.RESTR.CAVITY>
0

>  <SCORE.RESTR.norm>
0

>  <SCORE.SYSTEM>
0

>  <SCORE.SYSTEM.CONST>
0

>  <SCORE.SYSTEM.DIHEDRAL>
0

>  <SCORE.SYSTEM.SOLV>
0

>  <SCORE.SYSTEM.norm>
0

>  <SCORE.heavy>
22

>  <SCORE.norm>
-0.439154

>  <RMSD>
6.156

$$$$
lig.pdb
 OpenBabel11021811523D
libRbt.so/2013.1/901 2013/11/27
 22 23  0  0  0  0  0  0  0  0999 V2000
   -7.7506    0.1064   -0.1120 C   0  0  1  0  0  0  0  0  0  0  0  0
   -6.9871   -2.1790   -0.8771 C   0  0  1  0  0  0  0  0  0  0  0  0
   -7.6766   -3.3794   -1.6649 C   0  0  1  0  0  0  0  0  0  0  0  0
   -6.7000   -4.6388   -1.5916 C   0  0  2  0  0  0  0  0  0  0  0  0
   -8.1271   -0.2431    1.3800 C   0  0  1  0  0  0  0  0  0  0  0  0
   -9.5858   -0.7413    1.3988 C   0  0  2  0  0  0  0  0  0  0  0  0
  -10.5458    0.3531    0.8996 C   0  0  2  0  0  0  0  0  0  0  0  0
  -10.2078    0.7769   -0.5764 C   0  0  1  0  0  0  0  0  0  0  0  0
  -11.1404    1.9221   -1.0660 C   0  0  0  0  0  0  0  0  0  0  0  0
   -5.3116   -4.2751   -2.3278 C   0  0  1  0  0  0  0  0  0  0  0  0
   -4.6463   -3.0598   -1.5067 C   0  0  0  0  0  0  0  0  0  0  0  0
   -5.6220   -1.7948   -1.5316 C   0  0  2  0  0  0  0  0  0  0  0  0
  -10.4571    1.5333    1.7671 F   0  0  0  0  0  0  0  0  0  0  0  0
   -7.1617   -1.3046    1.8643 N   0  0  0  0  0  0  0  0  0  0  0  0
  -10.9651    3.1565   -0.3997 N   0  0  0  0  0  0  0  0  0  0  0  0
   -4.3496   -5.4283   -2.2698 N   0  0  0  0  0  0  0  0  0  0  0  0
   -5.0068   -0.6848   -0.7756 N   0  0  0  0  0  0  0  0  0  0  0  0
   -7.8145   -1.0265   -0.9205 O   0  0  0  0  0  0  0  0  0  0  0  0
   -8.9534   -3.6983   -0.9835 O   0  0  0  0  0  0  0  0  0  0  0  0
   -7.3300   -5.6782   -2.2800 O   0  0  0  0  0  0  0  0  0  0  0  0
   -9.8589   -0.9932    2.4875 O   0  0  0  0  0  0  0  0  0  0  0  0
   -8.7224    1.1815   -0.5914 O   0  0  0  0  0  0  0  0  0  0  0  0
  1  5  1  0  0  0  0
  1 18  1  6  0  0  0
  2 18  1  6  0  0  0
  2  3  1  0  0  0  0
  2 12  1  0  0  0  0
  3 19  1  1  0  0  0
  3  4  1  0  0  0  0
  4 20  1  6  0  0  0
  4 10  1  0  0  0  0
  5  6  1  0  0  0  0
  5 14  1  6  0  0  0
  6 21  1  1  0  0  0
  7 13  1  1  0  0  0
  7  6  1  0  0  0  0
  8  9  1  1  0  0  0
  8  7  1  0  0  0  0
 10 16  1  1  0  0  0
 11 10  1  0  0  0  0
 12 17  1  1  0  0  0
 12 11  1  0  0  0  0
 15  9  1  0  0  0  0
 22  8  1  0  0  0  0
 22  1  1  0  0  0  0
M  END
>  <CHROM.1>
-66.80245606,163.04346293,66.74091948,-8.01260107,-1.33574911,-0.40347278
-2.25774991,-0.37093687,-3.01407672

>  <Name>
lig.pdb

>  <RI>
0

>  <Rbt.Current_Directory>
/home/itssahil/PROJECTS/Mol_Feturizer/New_Systems/rnas/5bws

>  <Rbt.Executable>
rbdock ($Id: //depot/dev/client3/rdock/2013.1/src/exe/rbdock.cxx#4 $)

>  <Rbt.Library>
libRbt.so (2013.1, Build901 2013/11/27)

>  <Rbt.Parameter_File>
/export/apps/rDock/src/rDock_2013.1_src/data/scripts/dock_solv.prm

>  <Rbt.Receptor>
prm/pocket_docking_8.prm

>  <SCORE>
-9.76469

>  <SCORE.INTER>
-9.75076

>  <SCORE.INTER.CONST>
1

>  <SCORE.INTER.POLAR>
0

>  <SCORE.INTER.ROT>
3

>  <SCORE.INTER.SOLV>
13.8385

>  <SCORE.INTER.VDW>
-16.7133

>  <SCORE.INTER.norm>
-0.443216

>  <SCORE.INTRA>
-0.0139333

>  <SCORE.INTRA.DIHEDRAL>
-4.38964

>  <SCORE.INTRA.DIHEDRAL.0>
6.10773

>  <SCORE.INTRA.POLAR>
0

>  <SCORE.INTRA.POLAR.0>
0

>  <SCORE.INTRA.REPUL>
0

>  <SCORE.INTRA.REPUL.0>
0

>  <SCORE.INTRA.SOLV>
3.77046

>  <SCORE.INTRA.SOLV.lig_0>
-71.4024

>  <SCORE.INTRA.VDW>
0.295656

>  <SCORE.INTRA.VDW.0>
-1.86213

>  <SCORE.INTRA.norm>
-0.000633334

>  <SCORE.RESTR>
0

>  <SCORE.RESTR.CAVITY>
0

>  <SCORE.RESTR.norm>
0

>  <SCORE.SYSTEM>
0

>  <SCORE.SYSTEM.CONST>
0

>  <SCORE.SYSTEM.DIHEDRAL>
0

>  <SCORE.SYSTEM.SOLV>
0

>  <SCORE.SYSTEM.norm>
0

>  <SCORE.heavy>
22

>  <SCORE.norm>
-0.44385

>  <RMSD>
6.162

$$$$
lig.pdb
 OpenBabel11021811523D
libRbt.so/2013.1/901 2013/11/27
 22 23  0  0  0  0  0  0  0  0999 V2000
   -6.0023    0.2669    1.6150 C   0  0  1  0  0  0  0  0  0  0  0  0
   -6.6148   -0.9208   -0.5311 C   0  0  1  0  0  0  0  0  0  0  0  0
   -5.4220   -1.9764   -0.5307 C   0  0  1  0  0  0  0  0  0  0  0  0
   -5.8755   -3.2287   -1.4089 C   0  0  2  0  0  0  0  0  0  0  0  0
   -5.8718    1.7607    2.1064 C   0  0  1  0  0  0  0  0  0  0  0  0
   -4.6697    2.3972    1.3811 C   0  0  2  0  0  0  0  0  0  0  0  0
   -3.3655    1.6570    1.7268 C   0  0  2  0  0  0  0  0  0  0  0  0
   -3.4360    0.1471    1.2939 C   0  0  1  0  0  0  0  0  0  0  0  0
   -2.1412   -0.6186    1.6914 C   0  0  0  0  0  0  0  0  0  0  0  0
   -7.1654   -3.9148   -0.7252 C   0  0  1  0  0  0  0  0  0  0  0  0
   -8.3466   -2.8203   -0.7417 C   0  0  0  0  0  0  0  0  0  0  0  0
   -7.9036   -1.5368    0.1005 C   0  0  2  0  0  0  0  0  0  0  0  0
   -3.1150    1.7280    3.1709 F   0  0  0  0  0  0  0  0  0  0  0  0
   -7.1690    2.4703    1.7792 N   0  0  0  0  0  0  0  0  0  0  0  0
   -1.7980   -0.5343    3.0602 N   0  0  0  0  0  0  0  0  0  0  0  0
   -7.6414   -5.0928   -1.5280 N   0  0  0  0  0  0  0  0  0  0  0  0
   -8.9904   -0.5364    0.0799 N   0  0  0  0  0  0  0  0  0  0  0  0
   -6.2643    0.2131    0.2476 O   0  0  0  0  0  0  0  0  0  0  0  0
   -4.2421   -1.3315   -1.1538 O   0  0  0  0  0  0  0  0  0  0  0  0
   -4.8114   -4.1336   -1.4006 O   0  0  0  0  0  0  0  0  0  0  0  0
   -4.5751    3.4853    1.7425 O   0  0  0  0  0  0  0  0  0  0  0  0
   -4.6948   -0.4443    1.9541 O   0  0  0  0  0  0  0  0  0  0  0  0
  1  5  1  0  0  0  0
  1 18  1  6  0  0  0
  2 18  1  1  0  0  0
  2  3  1  0  0  0  0
  2 12  1  0  0  0  0
  3 19  1  6  0  0  0
  3  4  1  0  0  0  0
  4 20  1  1  0  0  0
  4 10  1  0  0  0  0
  5  6  1  0  0  0  0
  5 14  1  6  0  0  0
  6 21  1  1  0  0  0
  7 13  1  1  0  0  0
  7  6  1  0  0  0  0
  8  9  1  1  0  0  0
  8  7  1  0  0  0  0
 10 16  1  6  0  0  0
 11 10  1  0  0  0  0
 12 17  1  6  0  0  0
 12 11  1  0  0  0  0
 15  9  1  0  0  0  0
 22  8  1  0  0  0  0
 22  1  1  0  0  0  0
M  END
>  <CHROM.1>
-171.21314268,-63.72060182,54.71079406,-5.39972444,-0.54952771,0.66638611
1.07478354,-0.24193482,0.44803949

>  <Name>
lig.pdb

>  <RI>
0

>  <Rbt.Current_Directory>
/home/itssahil/PROJECTS/Mol_Feturizer/New_Systems/rnas/5bws

>  <Rbt.Executable>
rbdock ($Id: //depot/dev/client3/rdock/2013.1/src/exe/rbdock.cxx#4 $)

>  <Rbt.Library>
libRbt.so (2013.1, Build901 2013/11/27)

>  <Rbt.Parameter_File>
/export/apps/rDock/src/rDock_2013.1_src/data/scripts/dock_solv.prm

>  <Rbt.Receptor>
prm/pocket_docking_2.prm

>  <SCORE>
-8.13512

>  <SCORE.INTER>
-7.37724

>  <SCORE.INTER.CONST>
1

>  <SCORE.INTER.POLAR>
0

>  <SCORE.INTER.ROT>
3

>  <SCORE.INTER.SOLV>
17.163

>  <SCORE.INTER.VDW>
-16.2392

>  <SCORE.INTER.norm>
-0.335329

>  <SCORE.INTRA>
-1.76424

>  <SCORE.INTRA.DIHEDRAL>
-5.56166

>  <SCORE.INTRA.DIHEDRAL.0>
6.10773

>  <SCORE.INTRA.POLAR>
0

>  <SCORE.INTRA.POLAR.0>
0

>  <SCORE.INTRA.REPUL>
0

>  <SCORE.INTRA.REPUL.0>
0

>  <SCORE.INTRA.SOLV>
1.61587

>  <SCORE.INTRA.SOLV.lig_0>
-71.4024

>  <SCORE.INTRA.VDW>
0.208662

>  <SCORE.INTRA.VDW.0>
-1.86213

>  <SCORE.INTRA.norm>
-0.0801925

>  <SCORE.RESTR>
1.00636

>  <SCORE.RESTR.CAVITY>
1.00636

>  <SCORE.RESTR.norm>
0.0457436

>  <SCORE.SYSTEM>
0

>  <SCORE.SYSTEM.CONST>
0

>  <SCORE.SYSTEM.DIHEDRAL>
0

>  <SCORE.SYSTEM.SOLV>
0

>  <SCORE.SYSTEM.norm>
0

>  <SCORE.heavy>
22

>  <SCORE.norm>
-0.369778

>  <RMSD>
6.169

$$$$
lig.pdb
 OpenBabel11021811523D
libRbt.so/2013.1/901 2013/11/27
 22 23  0  0  0  0  0  0  0  0999 V2000
   -5.5719    0.0611    2.2191 C   0  0  1  0  0  0  0  0  0  0  0  0
   -6.3727   -1.6991    0.5907 C   0  0  1  0  0  0  0  0  0  0  0  0
   -7.8837   -1.7325    0.0881 C   0  0  1  0  0  0  0  0  0  0  0  0
   -8.2257   -3.2316   -0.3374 C   0  0  2  0  0  0  0  0  0  0  0  0
   -5.5696    1.6375    2.2912 C   0  0  1  0  0  0  0  0  0  0  0  0
   -4.5745    2.1608    1.2366 C   0  0  2  0  0  0  0  0  0  0  0  0
   -3.1494    1.6596    1.5305 C   0  0  2  0  0  0  0  0  0  0  0  0
   -3.0826    0.0888    1.5080 C   0  0  1  0  0  0  0  0  0  0  0  0
   -1.6562   -0.4239    1.8592 C   0  0  0  0  0  0  0  0  0  0  0  0
   -7.2699   -3.6649   -1.5625 C   0  0  1  0  0  0  0  0  0  0  0  0
   -5.7548   -3.6174   -1.0187 C   0  0  0  0  0  0  0  0  0  0  0  0
   -5.3970   -2.1326   -0.5493 C   0  0  2  0  0  0  0  0  0  0  0  0
   -2.7102    2.1370    2.8467 F   0  0  0  0  0  0  0  0  0  0  0  0
   -6.9812    2.1149    2.0214 N   0  0  0  0  0  0  0  0  0  0  0  0
   -1.1506    0.0299    3.0990 N   0  0  0  0  0  0  0  0  0  0  0  0
   -7.5438   -5.0798   -1.9887 N   0  0  0  0  0  0  0  0  0  0  0  0
   -4.0071   -2.0965   -0.0502 N   0  0  0  0  0  0  0  0  0  0  0  0
   -6.0139   -0.3802    0.9737 O   0  0  0  0  0  0  0  0  0  0  0  0
   -8.7498   -1.3255    1.2197 O   0  0  0  0  0  0  0  0  0  0  0  0
   -9.5556   -3.2362   -0.7644 O   0  0  0  0  0  0  0  0  0  0  0  0
   -4.5727    3.3099    1.2924 O   0  0  0  0  0  0  0  0  0  0  0  0
   -4.1483   -0.4137    2.4988 O   0  0  0  0  0  0  0  0  0  0  0  0
  1  5  1  0  0  0  0
  1 18  1  6  0  0  0
  2 18  1  6  0  0  0
  2  3  1  0  0  0  0
  2 12  1  0  0  0  0
  3 19  1  1  0  0  0
  3  4  1  0  0  0  0
  4 20  1  6  0  0  0
  4 10  1  0  0  0  0
  5  6  1  0  0  0  0
  5 14  1  6  0  0  0
  6 21  1  1  0  0  0
  7 13  1  1  0  0  0
  7  6  1  0  0  0  0
  8  9  1  1  0  0  0
  8  7  1  0  0  0  0
 10 16  1  1  0  0  0
 11 10  1  0  0  0  0
 12 17  1  1  0  0  0
 12 11  1  0  0  0  0
 15  9  1  0  0  0  0
 22  8  1  0  0  0  0
 22  1  1  0  0  0  0
M  END
>  <CHROM.1>
-168.32571065,120.69630534,56.09846338,-5.43661024,-0.66560926,0.90619434
0.88146063,-0.14037793,0.44717682

>  <Name>
lig.pdb

>  <RI>
0

>  <Rbt.Current_Directory>
/home/itssahil/PROJECTS/Mol_Feturizer/New_Systems/rnas/5bws

>  <Rbt.Executable>
rbdock ($Id: //depot/dev/client3/rdock/2013.1/src/exe/rbdock.cxx#4 $)

>  <Rbt.Library>
libRbt.so (2013.1, Build901 2013/11/27)

>  <Rbt.Parameter_File>
/export/apps/rDock/src/rDock_2013.1_src/data/scripts/dock_solv.prm

>  <Rbt.Receptor>
prm/pocket_docking_2.prm

>  <SCORE>
-2.22169

>  <SCORE.INTER>
-5.29086

>  <SCORE.INTER.CONST>
1

>  <SCORE.INTER.POLAR>
0

>  <SCORE.INTER.ROT>
3

>  <SCORE.INTER.SOLV>
21.5959

>  <SCORE.INTER.VDW>
-16.3259

>  <SCORE.INTER.norm>
-0.240494

>  <SCORE.INTRA>
2.60415

>  <SCORE.INTRA.DIHEDRAL>
1.79561

>  <SCORE.INTRA.DIHEDRAL.0>
6.10773

>  <SCORE.INTRA.POLAR>
0

>  <SCORE.INTRA.POLAR.0>
0

>  <SCORE.INTRA.REPUL>
0

>  <SCORE.INTRA.REPUL.0>
0

>  <SCORE.INTRA.SOLV>
3.31655

>  <SCORE.INTRA.SOLV.lig_0>
-71.4024

>  <SCORE.INTRA.VDW>
0.0480689

>  <SCORE.INTRA.VDW.0>
-1.86213

>  <SCORE.INTRA.norm>
0.118371

>  <SCORE.RESTR>
0.465021

>  <SCORE.RESTR.CAVITY>
0.465021

>  <SCORE.RESTR.norm>
0.0211373

>  <SCORE.SYSTEM>
0

>  <SCORE.SYSTEM.CONST>
0

>  <SCORE.SYSTEM.DIHEDRAL>
0

>  <SCORE.SYSTEM.SOLV>
0

>  <SCORE.SYSTEM.norm>
0

>  <SCORE.heavy>
22

>  <SCORE.norm>
-0.100986

>  <RMSD>
6.175

$$$$
lig.pdb
 OpenBabel11021811523D
libRbt.so/2013.1/901 2013/11/27
 22 23  0  0  0  0  0  0  0  0999 V2000
   -7.2196   -1.2887    0.2173 C   0  0  1  0  0  0  0  0  0  0  0  0
   -8.8632   -2.2099    1.9028 C   0  0  1  0  0  0  0  0  0  0  0  0
   -8.6773   -1.8222    3.4365 C   0  0  1  0  0  0  0  0  0  0  0  0
  -10.1101   -1.8853    4.1352 C   0  0  2  0  0  0  0  0  0  0  0  0
   -5.9666   -1.8545   -0.5573 C   0  0  1  0  0  0  0  0  0  0  0  0
   -4.7970   -1.9595    0.4413 C   0  0  2  0  0  0  0  0  0  0  0  0
   -4.4332   -0.5755    1.0075 C   0  0  2  0  0  0  0  0  0  0  0  0
   -5.6505    0.0665    1.7679 C   0  0  1  0  0  0  0  0  0  0  0  0
   -5.3048    1.4892    2.2943 C   0  0  0  0  0  0  0  0  0  0  0  0
  -11.0824   -0.7974    3.4473 C   0  0  1  0  0  0  0  0  0  0  0  0
  -11.2447   -1.2199    1.9017 C   0  0  0  0  0  0  0  0  0  0  0  0
   -9.8166   -1.2021    1.1854 C   0  0  2  0  0  0  0  0  0  0  0  0
   -4.0236    0.3206   -0.0799 F   0  0  0  0  0  0  0  0  0  0  0  0
   -6.3460   -3.2056   -1.1265 N   0  0  0  0  0  0  0  0  0  0  0  0
   -5.0163    2.4405    1.2891 N   0  0  0  0  0  0  0  0  0  0  0  0
  -12.4533   -0.8307    4.0623 N   0  0  0  0  0  0  0  0  0  0  0  0
   -9.9724   -1.5921   -0.2309 N   0  0  0  0  0  0  0  0  0  0  0  0
   -7.6139   -2.1595    1.2309 O   0  0  0  0  0  0  0  0  0  0  0  0
   -7.7768   -2.8241    4.0542 O   0  0  0  0  0  0  0  0  0  0  0  0
   -9.9191   -1.5511    5.4780 O   0  0  0  0  0  0  0  0  0  0  0  0
   -3.8842   -2.3699   -0.1259 O   0  0  0  0  0  0  0  0  0  0  0  0
   -6.8329    0.0757    0.7821 O   0  0  0  0  0  0  0  0  0  0  0  0
  1  5  1  0  0  0  0
  1 18  1  1  0  0  0
  2 18  1  6  0  0  0
  2  3  1  0  0  0  0
  2 12  1  0  0  0  0
  3 19  1  1  0  0  0
  3  4  1  0  0  0  0
  4 20  1  1  0  0  0
  4 10  1  0  0  0  0
  5  6  1  0  0  0  0
  5 14  1  1  0  0  0
  6 21  1  6  0  0  0
  7 13  1  6  0  0  0
  7  6  1  0  0  0  0
  8  9  1  6  0  0  0
  8  7  1  0  0  0  0
 10 16  1  1  0  0  0
 11 10  1  0  0  0  0
 12 17  1  6  0  0  0
 12 11  1  0  0  0  0
 15  9  1  0  0  0  0
 22  8  1  0  0  0  0
 22  1  1  0  0  0  0
M  END
>  <CHROM.1>
-161.60343753,-114.20068922,63.24021973,-7.51987366,-1.12419538,1.65068275
0.27425781,-0.44497255,-2.30072555

>  <Name>
lig.pdb

>  <RI>
0

>  <Rbt.Current_Directory>
/home/itssahil/PROJECTS/Mol_Feturizer/New_Systems/rnas/5bws

>  <Rbt.Executable>
rbdock ($Id: //depot/dev/client3/rdock/2013.1/src/exe/rbdock.cxx#4 $)

>  <Rbt.Library>
libRbt.so (2013.1, Build901 2013/11/27)

>  <Rbt.Parameter_File>
/export/apps/rDock/src/rDock_2013.1_src/data/scripts/dock_solv.prm

>  <Rbt.Receptor>
prm/blind_docking_20.prm

>  <SCORE>
4.29542

>  <SCORE.INTER>
0.526914

>  <SCORE.INTER.CONST>
1

>  <SCORE.INTER.POLAR>
0

>  <SCORE.INTER.ROT>
3

>  <SCORE.INTER.SOLV>
21.6933

>  <SCORE.INTER.VDW>
-12.4798

>  <SCORE.INTER.norm>
0.0239507

>  <SCORE.INTRA>
3.76851

>  <SCORE.INTRA.DIHEDRAL>
2.50867

>  <SCORE.INTRA.DIHEDRAL.0>
6.10773

>  <SCORE.INTRA.POLAR>
0

>  <SCORE.INTRA.POLAR.0>
0

>  <SCORE.INTRA.REPUL>
0

>  <SCORE.INTRA.REPUL.0>
0

>  <SCORE.INTRA.SOLV>
1.68751

>  <SCORE.INTRA.SOLV.lig_0>
-71.4024

>  <SCORE.INTRA.VDW>
1.67042

>  <SCORE.INTRA.VDW.0>
-1.86213

>  <SCORE.INTRA.norm>
0.171296

>  <SCORE.RESTR>
0

>  <SCORE.RESTR.CAVITY>
0

>  <SCORE.RESTR.norm>
0

>  <SCORE.SYSTEM>
0

>  <SCORE.SYSTEM.CONST>
0

>  <SCORE.SYSTEM.DIHEDRAL>
0

>  <SCORE.SYSTEM.SOLV>
0

>  <SCORE.SYSTEM.norm>
0

>  <SCORE.heavy>
22

>  <SCORE.norm>
0.195247

>  <RMSD>
6.247

$$$$
lig.pdb
 OpenBabel11021811523D
libRbt.so/2013.1/901 2013/11/27
 22 23  0  0  0  0  0  0  0  0999 V2000
   -5.8739    2.3764    1.0656 C   0  0  1  0  0  0  0  0  0  0  0  0
   -5.7508   -0.1305    1.3687 C   0  0  1  0  0  0  0  0  0  0  0  0
   -7.0957   -0.4385    0.5728 C   0  0  1  0  0  0  0  0  0  0  0  0
   -7.0365   -1.9542    0.0785 C   0  0  2  0  0  0  0  0  0  0  0  0
   -5.5121    3.6510    1.9227 C   0  0  1  0  0  0  0  0  0  0  0  0
   -6.5223    3.7467    3.0833 C   0  0  2  0  0  0  0  0  0  0  0  0
   -7.9565    3.9115    2.5500 C   0  0  2  0  0  0  0  0  0  0  0  0
   -8.3754    2.6880    1.6557 C   0  0  1  0  0  0  0  0  0  0  0  0
   -9.8042    2.8763    1.0692 C   0  0  0  0  0  0  0  0  0  0  0  0
   -5.7921   -2.1325   -0.9324 C   0  0  1  0  0  0  0  0  0  0  0  0
   -4.4542   -1.8119   -0.0953 C   0  0  0  0  0  0  0  0  0  0  0  0
   -4.5040   -0.3091    0.4452 C   0  0  2  0  0  0  0  0  0  0  0  0
   -8.0590    5.1408    1.7553 F   0  0  0  0  0  0  0  0  0  0  0  0
   -4.0923    3.4847    2.4224 N   0  0  0  0  0  0  0  0  0  0  0  0
  -10.2820    1.7854    0.3075 N   0  0  0  0  0  0  0  0  0  0  0  0
   -5.6845   -3.5523   -1.4134 N   0  0  0  0  0  0  0  0  0  0  0  0
   -3.2752   -0.0222    1.2133 N   0  0  0  0  0  0  0  0  0  0  0  0
   -5.7491    1.2141    1.8238 O   0  0  0  0  0  0  0  0  0  0  0  0
   -8.2304   -0.2638    1.5100 O   0  0  0  0  0  0  0  0  0  0  0  0
   -8.2282   -2.2017   -0.6069 O   0  0  0  0  0  0  0  0  0  0  0  0
   -6.2581    4.6776    3.7053 O   0  0  0  0  0  0  0  0  0  0  0  0
   -7.3030    2.5536    0.5593 O   0  0  0  0  0  0  0  0  0  0  0  0
  1  5  1  0  0  0  0
  1 18  1  1  0  0  0
  2 18  1  6  0  0  0
  2  3  1  0  0  0  0
  2 12  1  0  0  0  0
  3 19  1  1  0  0  0
  3  4  1  0  0  0  0
  4 20  1  6  0  0  0
  4 10  1  0  0  0  0
  5  6  1  0  0  0  0
  5 14  1  1  0  0  0
  6 21  1  1  0  0  0
  7 13  1  6  0  0  0
  7  6  1  0  0  0  0
  8  9  1  6  0  0  0
  8  7  1  0  0  0  0
 10 16  1  1  0  0  0
 11 10  1  0  0  0  0
 12 17  1  1  0  0  0
 12 11  1  0  0  0  0
 15  9  1  0  0  0  0
 22  8  1  0  0  0  0
 22  1  1  0  0  0  0
M  END
>  <CHROM.1>
-167.80308511,-57.43631655,-176.90544614,-6.67450829,1.21477739,1.11106776
-1.76356388,0.17007954,-2.70505882

>  <Name>
lig.pdb

>  <RI>
0

>  <Rbt.Current_Directory>
/home/itssahil/PROJECTS/Mol_Feturizer/New_Systems/rnas/5bws

>  <Rbt.Executable>
rbdock ($Id: //depot/dev/client3/rdock/2013.1/src/exe/rbdock.cxx#4 $)

>  <Rbt.Library>
libRbt.so (2013.1, Build901 2013/11/27)

>  <Rbt.Parameter_File>
/export/apps/rDock/src/rDock_2013.1_src/data/scripts/dock_solv.prm

>  <Rbt.Receptor>
prm/pocket_docking_8.prm

>  <SCORE>
-8.85609

>  <SCORE.INTER>
-6.82718

>  <SCORE.INTER.CONST>
1

>  <SCORE.INTER.POLAR>
0

>  <SCORE.INTER.ROT>
3

>  <SCORE.INTER.SOLV>
12.4878

>  <SCORE.INTER.VDW>
-14.3141

>  <SCORE.INTER.norm>
-0.310326

>  <SCORE.INTRA>
-2.02891

>  <SCORE.INTRA.DIHEDRAL>
-5.32898

>  <SCORE.INTRA.DIHEDRAL.0>
6.10773

>  <SCORE.INTRA.POLAR>
0

>  <SCORE.INTRA.POLAR.0>
0

>  <SCORE.INTRA.REPUL>
0

>  <SCORE.INTRA.REPUL.0>
0

>  <SCORE.INTRA.SOLV>
1.42559

>  <SCORE.INTRA.SOLV.lig_0>
-71.4024

>  <SCORE.INTRA.VDW>
-0.0772153

>  <SCORE.INTRA.VDW.0>
-1.86213

>  <SCORE.INTRA.norm>
-0.092223

>  <SCORE.RESTR>
0

>  <SCORE.RESTR.CAVITY>
0

>  <SCORE.RESTR.norm>
0

>  <SCORE.SYSTEM>
0

>  <SCORE.SYSTEM.CONST>
0

>  <SCORE.SYSTEM.DIHEDRAL>
0

>  <SCORE.SYSTEM.SOLV>
0

>  <SCORE.SYSTEM.norm>
0

>  <SCORE.heavy>
22

>  <SCORE.norm>
-0.402549

>  <RMSD>
6.250

$$$$
lig.pdb
 OpenBabel11021811523D
libRbt.so/2013.1/901 2013/11/27
 22 23  0  0  0  0  0  0  0  0999 V2000
   -7.6849   -0.1137    0.0440 C   0  0  1  0  0  0  0  0  0  0  0  0
   -6.9939   -2.3706   -0.8615 C   0  0  1  0  0  0  0  0  0  0  0  0
   -7.7978   -3.5713   -1.5315 C   0  0  1  0  0  0  0  0  0  0  0  0
   -6.8361   -4.8437   -1.5705 C   0  0  2  0  0  0  0  0  0  0  0  0
   -8.2244   -0.4624    1.4853 C   0  0  1  0  0  0  0  0  0  0  0  0
   -9.7257   -0.7910    1.3652 C   0  0  2  0  0  0  0  0  0  0  0  0
  -10.5115    0.4205    0.8330 C   0  0  2  0  0  0  0  0  0  0  0  0
  -10.0033    0.8471   -0.5925 C   0  0  1  0  0  0  0  0  0  0  0  0
  -10.7572    2.1056   -1.1109 C   0  0  0  0  0  0  0  0  0  0  0  0
   -5.5546   -4.5098   -2.4916 C   0  0  1  0  0  0  0  0  0  0  0  0
   -4.7700   -3.2934   -1.7857 C   0  0  0  0  0  0  0  0  0  0  0  0
   -5.7243   -2.0149   -1.6988 C   0  0  2  0  0  0  0  0  0  0  0  0
  -10.3665    1.5562    1.7508 F   0  0  0  0  0  0  0  0  0  0  0  0
   -7.4282   -1.6415    2.0044 N   0  0  0  0  0  0  0  0  0  0  0  0
  -12.1488    1.9324   -1.2899 N   0  0  0  0  0  0  0  0  0  0  0  0
   -4.6080   -5.6760   -2.5456 N   0  0  0  0  0  0  0  0  0  0  0  0
   -4.9994   -0.9038   -1.0490 N   0  0  0  0  0  0  0  0  0  0  0  0
   -7.8053   -1.2069   -0.8112 O   0  0  0  0  0  0  0  0  0  0  0  0
   -8.9756   -3.8626   -0.6804 O   0  0  0  0  0  0  0  0  0  0  0  0
   -7.5657   -5.8830   -2.1524 O   0  0  0  0  0  0  0  0  0  0  0  0
  -10.1173   -1.0427    2.4172 O   0  0  0  0  0  0  0  0  0  0  0  0
   -8.4863    1.0795   -0.4702 O   0  0  0  0  0  0  0  0  0  0  0  0
  1  5  1  0  0  0  0
  1 18  1  6  0  0  0
  2 18  1  6  0  0  0
  2  3  1  0  0  0  0
  2 12  1  0  0  0  0
  3 19  1  1  0  0  0
  3  4  1  0  0  0  0
  4 20  1  6  0  0  0
  4 10  1  0  0  0  0
  5  6  1  0  0  0  0
  5 14  1  6  0  0  0
  6 21  1  1  0  0  0
  7 13  1  1  0  0  0
  7  6  1  0  0  0  0
  8  9  1  1  0  0  0
  8  7  1  0  0  0  0
 10 16  1  1  0  0  0
 11 10  1  0  0  0  0
 12 17  1  1  0  0  0
 12 11  1  0  0  0  0
 15  9  1  0  0  0  0
 22  8  1  0  0  0  0
 22  1  1  0  0  0  0
M  END
>  <CHROM.1>
-76.34975008,157.06262645,-62.51982295,-8.10790927,-1.52102805,-0.44755283
-2.29330978,-0.46227714,-3.09896347

>  <Name>
lig.pdb

>  <RI>
0

>  <Rbt.Current_Directory>
/home/itssahil/PROJECTS/Mol_Feturizer/New_Systems/rnas/5bws

>  <Rbt.Executable>
rbdock ($Id: //depot/dev/client3/rdock/2013.1/src/exe/rbdock.cxx#4 $)

>  <Rbt.Library>
libRbt.so (2013.1, Build901 2013/11/27)

>  <Rbt.Parameter_File>
/export/apps/rDock/src/rDock_2013.1_src/data/scripts/dock_solv.prm

>  <Rbt.Receptor>
prm/pocket_docking_8.prm

>  <SCORE>
-8.58039

>  <SCORE.INTER>
-8.41155

>  <SCORE.INTER.CONST>
1

>  <SCORE.INTER.POLAR>
0

>  <SCORE.INTER.ROT>
3

>  <SCORE.INTER.SOLV>
19.8015

>  <SCORE.INTER.VDW>
-17.8082

>  <SCORE.INTER.norm>
-0.382343

>  <SCORE.INTRA>
-0.168843

>  <SCORE.INTRA.DIHEDRAL>
-2.54395

>  <SCORE.INTRA.DIHEDRAL.0>
6.10773

>  <SCORE.INTRA.POLAR>
0

>  <SCORE.INTRA.POLAR.0>
0

>  <SCORE.INTRA.REPUL>
0

>  <SCORE.INTRA.REPUL.0>
0

>  <SCORE.INTRA.SOLV>
1.80517

>  <SCORE.INTRA.SOLV.lig_0>
-71.4024

>  <SCORE.INTRA.VDW>
0.200543

>  <SCORE.INTRA.VDW.0>
-1.86213

>  <SCORE.INTRA.norm>
-0.00767467

>  <SCORE.RESTR>
0

>  <SCORE.RESTR.CAVITY>
0

>  <SCORE.RESTR.norm>
0

>  <SCORE.SYSTEM>
0

>  <SCORE.SYSTEM.CONST>
0

>  <SCORE.SYSTEM.DIHEDRAL>
0

>  <SCORE.SYSTEM.SOLV>
0

>  <SCORE.SYSTEM.norm>
0

>  <SCORE.heavy>
22

>  <SCORE.norm>
-0.390018

>  <RMSD>
6.260

$$$$
lig.pdb
 OpenBabel11021811523D
libRbt.so/2013.1/901 2013/11/27
 22 23  0  0  0  0  0  0  0  0999 V2000
   -5.7745    0.6694    0.4821 C   0  0  1  0  0  0  0  0  0  0  0  0
   -8.1787    0.7770    1.2565 C   0  0  1  0  0  0  0  0  0  0  0  0
   -8.1629    2.3696    1.2773 C   0  0  1  0  0  0  0  0  0  0  0  0
   -9.6757    2.8753    1.2461 C   0  0  2  0  0  0  0  0  0  0  0  0
   -4.6068   -0.3899    0.5487 C   0  0  1  0  0  0  0  0  0  0  0  0
   -4.1079   -0.4577    2.0056 C   0  0  2  0  0  0  0  0  0  0  0  0
   -3.5538    0.9044    2.4597 C   0  0  2  0  0  0  0  0  0  0  0  0
   -4.6586    2.0210    2.3876 C   0  0  1  0  0  0  0  0  0  0  0  0
   -4.0884    3.4108    2.7928 C   0  0  0  0  0  0  0  0  0  0  0  0
  -10.3676    2.3889   -0.1275 C   0  0  1  0  0  0  0  0  0  0  0  0
  -10.3637    0.7785   -0.1136 C   0  0  0  0  0  0  0  0  0  0  0  0
   -8.8596    0.2439   -0.0440 C   0  0  2  0  0  0  0  0  0  0  0  0
   -2.4236    1.2959    1.6097 F   0  0  0  0  0  0  0  0  0  0  0  0
   -5.1606   -1.7190    0.0792 N   0  0  0  0  0  0  0  0  0  0  0  0
   -5.0265    4.4680    2.7668 N   0  0  0  0  0  0  0  0  0  0  0  0
  -11.8033    2.8281   -0.1957 N   0  0  0  0  0  0  0  0  0  0  0  0
   -8.8633   -1.2333   -0.0298 N   0  0  0  0  0  0  0  0  0  0  0  0
   -6.8511    0.2747    1.2735 O   0  0  0  0  0  0  0  0  0  0  0  0
   -7.5183    2.8028    2.5395 O   0  0  0  0  0  0  0  0  0  0  0  0
   -9.6350    4.2712    1.2744 O   0  0  0  0  0  0  0  0  0  0  0  0
   -3.2553   -1.2287    2.0514 O   0  0  0  0  0  0  0  0  0  0  0  0
   -5.2080    2.0076    0.9496 O   0  0  0  0  0  0  0  0  0  0  0  0
  1  5  1  0  0  0  0
  1 18  1  1  0  0  0
  2 18  1  6  0  0  0
  2  3  1  0  0  0  0
  2 12  1  0  0  0  0
  3 19  1  1  0  0  0
  3  4  1  0  0  0  0
  4 20  1  6  0  0  0
  4 10  1  0  0  0  0
  5  6  1  0  0  0  0
  5 14  1  1  0  0  0
  6 21  1  6  0  0  0
  7 13  1  6  0  0  0
  7  6  1  0  0  0  0
  8  9  1  6  0  0  0
  8  7  1  0  0  0  0
 10 16  1  1  0  0  0
 11 10  1  0  0  0  0
 12 17  1  1  0  0  0
 12 11  1  0  0  0  0
 15  9  1  0  0  0  0
 22  8  1  0  0  0  0
 22  1  1  0  0  0  0
M  END
>  <CHROM.1>
-164.72582354,-47.94860962,-179.37176010,-6.65562052,1.34934293,1.22544907
0.14222570,0.27588646,-2.78886480

>  <Name>
lig.pdb

>  <RI>
0

>  <Rbt.Current_Directory>
/home/itssahil/PROJECTS/Mol_Feturizer/New_Systems/rnas/5bws

>  <Rbt.Executable>
rbdock ($Id: //depot/dev/client3/rdock/2013.1/src/exe/rbdock.cxx#4 $)

>  <Rbt.Library>
libRbt.so (2013.1, Build901 2013/11/27)

>  <Rbt.Parameter_File>
/export/apps/rDock/src/rDock_2013.1_src/data/scripts/dock_solv.prm

>  <Rbt.Receptor>
prm/pocket_docking_7.prm

>  <SCORE>
-7.0304

>  <SCORE.INTER>
-5.65249

>  <SCORE.INTER.CONST>
1

>  <SCORE.INTER.POLAR>
0

>  <SCORE.INTER.ROT>
3

>  <SCORE.INTER.SOLV>
15.7277

>  <SCORE.INTER.VDW>
-14.6109

>  <SCORE.INTER.norm>
-0.256931

>  <SCORE.INTRA>
-1.37791

>  <SCORE.INTRA.DIHEDRAL>
-4.31976

>  <SCORE.INTRA.DIHEDRAL.0>
6.10773

>  <SCORE.INTRA.POLAR>
0

>  <SCORE.INTRA.POLAR.0>
0

>  <SCORE.INTRA.REPUL>
0

>  <SCORE.INTRA.REPUL.0>
0

>  <SCORE.INTRA.SOLV>
1.52653

>  <SCORE.INTRA.SOLV.lig_0>
-71.4024

>  <SCORE.INTRA.VDW>
0.0187059

>  <SCORE.INTRA.VDW.0>
-1.86213

>  <SCORE.INTRA.norm>
-0.0626321

>  <SCORE.RESTR>
0

>  <SCORE.RESTR.CAVITY>
0

>  <SCORE.RESTR.norm>
0

>  <SCORE.SYSTEM>
0

>  <SCORE.SYSTEM.CONST>
0

>  <SCORE.SYSTEM.DIHEDRAL>
0

>  <SCORE.SYSTEM.SOLV>
0

>  <SCORE.SYSTEM.norm>
0

>  <SCORE.heavy>
22

>  <SCORE.norm>
-0.319563

>  <RMSD>
6.262

$$$$
lig.pdb
 OpenBabel11021811523D
libRbt.so/2013.1/901 2013/11/27
 22 23  0  0  0  0  0  0  0  0999 V2000
   -8.7540    0.8537   -0.2069 C   0  0  1  0  0  0  0  0  0  0  0  0
   -7.9117   -1.4972   -0.6012 C   0  0  1  0  0  0  0  0  0  0  0  0
   -8.5927   -2.9002   -0.9247 C   0  0  1  0  0  0  0  0  0  0  0  0
   -7.4590   -4.0210   -0.8634 C   0  0  2  0  0  0  0  0  0  0  0  0
  -10.1622    1.4614    0.1639 C   0  0  1  0  0  0  0  0  0  0  0  0
  -11.0210    1.4887   -1.1159 C   0  0  2  0  0  0  0  0  0  0  0  0
  -10.3753    2.3809   -2.1909 C   0  0  2  0  0  0  0  0  0  0  0  0
   -8.9486    1.8523   -2.5877 C   0  0  1  0  0  0  0  0  0  0  0  0
   -8.2692    2.7823   -3.6337 C   0  0  0  0  0  0  0  0  0  0  0  0
   -6.3525   -3.7166   -1.9969 C   0  0  1  0  0  0  0  0  0  0  0  0
   -5.6889   -2.2936   -1.6386 C   0  0  0  0  0  0  0  0  0  0  0  0
   -6.8110   -1.1563   -1.6555 C   0  0  2  0  0  0  0  0  0  0  0  0
  -10.2537    3.7567   -1.6955 F   0  0  0  0  0  0  0  0  0  0  0  0
  -10.7757    0.5863    1.2369 N   0  0  0  0  0  0  0  0  0  0  0  0
   -6.9379    2.4363   -3.9599 N   0  0  0  0  0  0  0  0  0  0  0  0
   -5.2515   -4.7392   -1.9673 N   0  0  0  0  0  0  0  0  0  0  0  0
   -6.1962    0.1455   -1.3245 N   0  0  0  0  0  0  0  0  0  0  0  0
   -8.8800   -0.4604   -0.6525 O   0  0  0  0  0  0  0  0  0  0  0  0
   -9.6115   -3.1640    0.1187 O   0  0  0  0  0  0  0  0  0  0  0  0
   -8.0818   -5.2402   -1.1407 O   0  0  0  0  0  0  0  0  0  0  0  0
  -12.0462    1.9341   -0.8438 O   0  0  0  0  0  0  0  0  0  0  0  0
   -8.1383    1.7441   -1.2831 O   0  0  0  0  0  0  0  0  0  0  0  0
  1  5  1  0  0  0  0
  1 18  1  6  0  0  0
  2 18  1  6  0  0  0
  2  3  1  0  0  0  0
  2 12  1  0  0  0  0
  3 19  1  1  0  0  0
  3  4  1  0  0  0  0
  4 20  1  6  0  0  0
  4 10  1  0  0  0  0
  5  6  1  0  0  0  0
  5 14  1  1  0  0  0
  6 21  1  1  0  0  0
  7 13  1  1  0  0  0
  7  6  1  0  0  0  0
  8  9  1  6  0  0  0
  8  7  1  0  0  0  0
 10 16  1  1  0  0  0
 11 10  1  0  0  0  0
 12 17  1  1  0  0  0
 12 11  1  0  0  0  0
 15  9  1  0  0  0  0
 22  8  1  0  0  0  0
 22  1  1  0  0  0  0
M  END
>  <CHROM.1>
-153.98190386,167.54149978,175.01028762,-8.52893827,-0.30378909,-1.29982462
2.10056533,0.54661533,-0.34491135

>  <Name>
lig.pdb

>  <RI>
0

>  <Rbt.Current_Directory>
/home/itssahil/PROJECTS/Mol_Feturizer/New_Systems/rnas/5bws

>  <Rbt.Executable>
rbdock ($Id: //depot/dev/client3/rdock/2013.1/src/exe/rbdock.cxx#4 $)

>  <Rbt.Library>
libRbt.so (2013.1, Build901 2013/11/27)

>  <Rbt.Parameter_File>
/export/apps/rDock/src/rDock_2013.1_src/data/scripts/dock_solv.prm

>  <Rbt.Receptor>
prm/pocket_docking_6.prm

>  <SCORE>
-10.0843

>  <SCORE.INTER>
-10.7206

>  <SCORE.INTER.CONST>
1

>  <SCORE.INTER.POLAR>
0

>  <SCORE.INTER.ROT>
3

>  <SCORE.INTER.SOLV>
16.7593

>  <SCORE.INTER.VDW>
-18.3335

>  <SCORE.INTER.norm>
-0.487299

>  <SCORE.INTRA>
0.636267

>  <SCORE.INTRA.DIHEDRAL>
-2.42182

>  <SCORE.INTRA.DIHEDRAL.0>
6.10773

>  <SCORE.INTRA.POLAR>
0

>  <SCORE.INTRA.POLAR.0>
0

>  <SCORE.INTRA.REPUL>
0

>  <SCORE.INTRA.REPUL.0>
0

>  <SCORE.INTRA.SOLV>
2.43122

>  <SCORE.INTRA.SOLV.lig_0>
-71.4024

>  <SCORE.INTRA.VDW>
0.63157

>  <SCORE.INTRA.VDW.0>
-1.86213

>  <SCORE.INTRA.norm>
0.0289212

>  <SCORE.RESTR>
0

>  <SCORE.RESTR.CAVITY>
0

>  <SCORE.RESTR.norm>
0

>  <SCORE.SYSTEM>
0

>  <SCORE.SYSTEM.CONST>
0

>  <SCORE.SYSTEM.DIHEDRAL>
0

>  <SCORE.SYSTEM.SOLV>
0

>  <SCORE.SYSTEM.norm>
0

>  <SCORE.heavy>
22

>  <SCORE.norm>
-0.458377

>  <RMSD>
6.263

$$$$
lig.pdb
 OpenBabel11021811523D
libRbt.so/2013.1/901 2013/11/27
 22 23  0  0  0  0  0  0  0  0999 V2000
   -4.3193    2.0648    1.4827 C   0  0  1  0  0  0  0  0  0  0  0  0
   -6.4028    2.9055    2.6418 C   0  0  1  0  0  0  0  0  0  0  0  0
   -5.8099    4.3762    2.7918 C   0  0  1  0  0  0  0  0  0  0  0  0
   -7.0302    5.3740    3.0373 C   0  0  2  0  0  0  0  0  0  0  0  0
   -4.0162    0.6558    0.8401 C   0  0  1  0  0  0  0  0  0  0  0  0
   -3.5482   -0.2895    1.9642 C   0  0  2  0  0  0  0  0  0  0  0  0
   -2.2571    0.2333    2.6185 C   0  0  2  0  0  0  0  0  0  0  0  0
   -2.4761    1.6547    3.2540 C   0  0  1  0  0  0  0  0  0  0  0  0
   -1.1592    2.2111    3.8681 C   0  0  0  0  0  0  0  0  0  0  0  0
   -8.0044    5.3444    1.7519 C   0  0  1  0  0  0  0  0  0  0  0  0
   -8.5815    3.8457    1.6315 C   0  0  0  0  0  0  0  0  0  0  0  0
   -7.3753    2.8190    1.4227 C   0  0  2  0  0  0  0  0  0  0  0  0
   -1.1857    0.3172    1.6194 F   0  0  0  0  0  0  0  0  0  0  0  0
   -5.2886    0.1641    0.1822 N   0  0  0  0  0  0  0  0  0  0  0  0
   -1.3049    3.4155    4.5939 N   0  0  0  0  0  0  0  0  0  0  0  0
   -9.1817    6.2588    1.9436 N   0  0  0  0  0  0  0  0  0  0  0  0
   -7.9113    1.4466    1.3147 N   0  0  0  0  0  0  0  0  0  0  0  0
   -5.3543    1.9768    2.4113 O   0  0  0  0  0  0  0  0  0  0  0  0
   -4.9116    4.3877    3.9706 O   0  0  0  0  0  0  0  0  0  0  0  0
   -6.4845    6.6525    3.1747 O   0  0  0  0  0  0  0  0  0  0  0  0
   -3.3257   -1.3151    1.4932 O   0  0  0  0  0  0  0  0  0  0  0  0
   -3.0315    2.5577    2.1376 O   0  0  0  0  0  0  0  0  0  0  0  0
  1  5  1  0  0  0  0
  1 18  1  1  0  0  0
  2 18  1  6  0  0  0
  2  3  1  0  0  0  0
  2 12  1  0  0  0  0
  3 19  1  1  0  0  0
  3  4  1  0  0  0  0
  4 20  1  6  0  0  0
  4 10  1  0  0  0  0
  5  6  1  0  0  0  0
  5 14  1  1  0  0  0
  6 21  1  6  0  0  0
  7 13  1  6  0  0  0
  7  6  1  0  0  0  0
  8  9  1  6  0  0  0
  8  7  1  0  0  0  0
 10 16  1  1  0  0  0
 11 10  1  0  0  0  0
 12 17  1  1  0  0  0
 12 11  1  0  0  0  0
 15  9  1  0  0  0  0
 22  8  1  0  0  0  0
 22  1  1  0  0  0  0
M  END
>  <CHROM.1>
-141.00680683,-49.13062979,-173.06017279,-4.87676697,2.56801904,2.28340670
0.60182963,0.35435234,-2.66614683

>  <Name>
lig.pdb

>  <RI>
0

>  <Rbt.Current_Directory>
/home/itssahil/PROJECTS/Mol_Feturizer/New_Systems/rnas/5bws

>  <Rbt.Executable>
rbdock ($Id: //depot/dev/client3/rdock/2013.1/src/exe/rbdock.cxx#4 $)

>  <Rbt.Library>
libRbt.so (2013.1, Build901 2013/11/27)

>  <Rbt.Parameter_File>
/export/apps/rDock/src/rDock_2013.1_src/data/scripts/dock_solv.prm

>  <Rbt.Receptor>
prm/pocket_docking_6.prm

>  <SCORE>
-9.12411

>  <SCORE.INTER>
-9.91695

>  <SCORE.INTER.CONST>
1

>  <SCORE.INTER.POLAR>
0

>  <SCORE.INTER.ROT>
3

>  <SCORE.INTER.SOLV>
16.6833

>  <SCORE.INTER.VDW>
-17.7724

>  <SCORE.INTER.norm>
-0.45077

>  <SCORE.INTRA>
0.792834

>  <SCORE.INTRA.DIHEDRAL>
-0.133688

>  <SCORE.INTRA.DIHEDRAL.0>
6.10773

>  <SCORE.INTRA.POLAR>
0

>  <SCORE.INTRA.POLAR.0>
0

>  <SCORE.INTRA.REPUL>
0

>  <SCORE.INTRA.REPUL.0>
0

>  <SCORE.INTRA.SOLV>
1.59751

>  <SCORE.INTRA.SOLV.lig_0>
-71.4024

>  <SCORE.INTRA.VDW>
0.0609252

>  <SCORE.INTRA.VDW.0>
-1.86213

>  <SCORE.INTRA.norm>
0.0360379

>  <SCORE.RESTR>
0

>  <SCORE.RESTR.CAVITY>
0

>  <SCORE.RESTR.norm>
0

>  <SCORE.SYSTEM>
0

>  <SCORE.SYSTEM.CONST>
0

>  <SCORE.SYSTEM.DIHEDRAL>
0

>  <SCORE.SYSTEM.SOLV>
0

>  <SCORE.SYSTEM.norm>
0

>  <SCORE.heavy>
22

>  <SCORE.norm>
-0.414732

>  <RMSD>
6.264

$$$$
lig.pdb
 OpenBabel11021811523D
libRbt.so/2013.1/901 2013/11/27
 22 23  0  0  0  0  0  0  0  0999 V2000
   -8.4344    0.0412    0.3111 C   0  0  1  0  0  0  0  0  0  0  0  0
   -7.6054   -2.1613   -0.6126 C   0  0  1  0  0  0  0  0  0  0  0  0
   -8.3451   -3.5184   -0.9975 C   0  0  1  0  0  0  0  0  0  0  0  0
   -7.2341   -4.6503   -1.1699 C   0  0  2  0  0  0  0  0  0  0  0  0
   -9.8499    0.6805    0.5901 C   0  0  1  0  0  0  0  0  0  0  0  0
  -10.4644    1.0863   -0.7641 C   0  0  2  0  0  0  0  0  0  0  0  0
   -9.5888    2.1359   -1.4713 C   0  0  2  0  0  0  0  0  0  0  0  0
   -8.1462    1.5775   -1.7529 C   0  0  1  0  0  0  0  0  0  0  0  0
   -7.2405    2.6538   -2.4178 C   0  0  0  0  0  0  0  0  0  0  0  0
   -6.2486   -4.2441   -2.3807 C   0  0  1  0  0  0  0  0  0  0  0  0
   -5.5222   -2.8704   -1.9575 C   0  0  0  0  0  0  0  0  0  0  0  0
   -6.6166   -1.7267   -1.7408 C   0  0  2  0  0  0  0  0  0  0  0  0
   -9.4803    3.3414   -0.6417 F   0  0  0  0  0  0  0  0  0  0  0  0
  -10.6925   -0.3553    1.3047 N   0  0  0  0  0  0  0  0  0  0  0  0
   -7.6911    3.1141   -3.6762 N   0  0  0  0  0  0  0  0  0  0  0  0
   -5.1715   -5.2748   -2.5712 N   0  0  0  0  0  0  0  0  0  0  0  0
   -5.9440   -0.4705   -1.3513 N   0  0  0  0  0  0  0  0  0  0  0  0
   -8.5526   -1.1155   -0.4565 O   0  0  0  0  0  0  0  0  0  0  0  0
   -9.2520   -3.8759    0.1187 O   0  0  0  0  0  0  0  0  0  0  0  0
   -7.9072   -5.8296   -1.4973 O   0  0  0  0  0  0  0  0  0  0  0  0
  -11.4950    1.5541   -0.5582 O   0  0  0  0  0  0  0  0  0  0  0  0
   -7.5882    1.0923   -0.4025 O   0  0  0  0  0  0  0  0  0  0  0  0
  1  5  1  0  0  0  0
  1 18  1  6  0  0  0
  2 18  1  6  0  0  0
  2  3  1  0  0  0  0
  2 12  1  0  0  0  0
  3 19  1  1  0  0  0
  3  4  1  0  0  0  0
  4 20  1  6  0  0  0
  4 10  1  0  0  0  0
  5  6  1  0  0  0  0
  5 14  1  6  0  0  0
  6 21  1  1  0  0  0
  7 13  1  1  0  0  0
  7  6  1  0  0  0  0
  8  9  1  1  0  0  0
  8  7  1  0  0  0  0
 10 16  1  1  0  0  0
 11 10  1  0  0  0  0
 12 17  1  1  0  0  0
 12 11  1  0  0  0  0
 15  9  1  0  0  0  0
 22  8  1  0  0  0  0
 22  1  1  0  0  0  0
M  END
>  <CHROM.1>
-161.09312382,154.52478411,-61.58729885,-8.18318887,-0.80606835,-1.07414569
2.00267142,0.59098080,-0.17232521

>  <Name>
lig.pdb

>  <RI>
0

>  <Rbt.Current_Directory>
/home/itssahil/PROJECTS/Mol_Feturizer/New_Systems/rnas/5bws

>  <Rbt.Executable>
rbdock ($Id: //depot/dev/client3/rdock/2013.1/src/exe/rbdock.cxx#4 $)

>  <Rbt.Library>
libRbt.so (2013.1, Build901 2013/11/27)

>  <Rbt.Parameter_File>
/export/apps/rDock/src/rDock_2013.1_src/data/scripts/dock_solv.prm

>  <Rbt.Receptor>
prm/pocket_docking_5.prm

>  <SCORE>
-8.15982

>  <SCORE.INTER>
-9.13749

>  <SCORE.INTER.CONST>
1

>  <SCORE.INTER.POLAR>
0

>  <SCORE.INTER.ROT>
3

>  <SCORE.INTER.SOLV>
14.4274

>  <SCORE.INTER.VDW>
-16.5008

>  <SCORE.INTER.norm>
-0.41534

>  <SCORE.INTRA>
0.977664

>  <SCORE.INTRA.DIHEDRAL>
-1.71789

>  <SCORE.INTRA.DIHEDRAL.0>
6.10773

>  <SCORE.INTRA.POLAR>
0

>  <SCORE.INTRA.POLAR.0>
0

>  <SCORE.INTRA.REPUL>
0

>  <SCORE.INTRA.REPUL.0>
0

>  <SCORE.INTRA.SOLV>
2.2214

>  <SCORE.INTRA.SOLV.lig_0>
-71.4024

>  <SCORE.INTRA.VDW>
0.725913

>  <SCORE.INTRA.VDW.0>
-1.86213

>  <SCORE.INTRA.norm>
0.0444393

>  <SCORE.RESTR>
0

>  <SCORE.RESTR.CAVITY>
0

>  <SCORE.RESTR.norm>
0

>  <SCORE.SYSTEM>
0

>  <SCORE.SYSTEM.CONST>
0

>  <SCORE.SYSTEM.DIHEDRAL>
0

>  <SCORE.SYSTEM.SOLV>
0

>  <SCORE.SYSTEM.norm>
0

>  <SCORE.heavy>
22

>  <SCORE.norm>
-0.370901

>  <RMSD>
6.277

$$$$
lig.pdb
 OpenBabel11021811523D
libRbt.so/2013.1/901 2013/11/27
 22 23  0  0  0  0  0  0  0  0999 V2000
   -5.9673   -0.3049    1.7935 C   0  0  1  0  0  0  0  0  0  0  0  0
   -6.3886   -2.1865    0.1585 C   0  0  1  0  0  0  0  0  0  0  0  0
   -7.8415   -2.6942    0.5688 C   0  0  1  0  0  0  0  0  0  0  0  0
   -7.9717   -4.2202    0.1220 C   0  0  2  0  0  0  0  0  0  0  0  0
   -6.0831    1.2689    1.7910 C   0  0  1  0  0  0  0  0  0  0  0  0
   -5.0069    1.8240    0.8371 C   0  0  2  0  0  0  0  0  0  0  0  0
   -3.5963    1.4420    1.3196 C   0  0  2  0  0  0  0  0  0  0  0  0
   -3.4184   -0.1191    1.3792 C   0  0  1  0  0  0  0  0  0  0  0  0
   -2.0126   -0.5101    1.9193 C   0  0  0  0  0  0  0  0  0  0  0  0
   -7.8312   -4.3154   -1.4822 C   0  0  1  0  0  0  0  0  0  0  0  0
   -6.3549   -3.7934   -1.8584 C   0  0  0  0  0  0  0  0  0  0  0  0
   -6.1833   -2.2764   -1.3872 C   0  0  2  0  0  0  0  0  0  0  0  0
   -3.3532    2.0012    2.6543 F   0  0  0  0  0  0  0  0  0  0  0  0
   -7.4816    1.6291    1.3351 N   0  0  0  0  0  0  0  0  0  0  0  0
   -1.7293   -0.0502    3.2257 N   0  0  0  0  0  0  0  0  0  0  0  0
   -7.9306   -5.7399   -1.9508 N   0  0  0  0  0  0  0  0  0  0  0  0
   -4.8270   -1.8046   -1.7337 N   0  0  0  0  0  0  0  0  0  0  0  0
   -6.2242   -0.8255    0.5270 O   0  0  0  0  0  0  0  0  0  0  0  0
   -7.9601   -2.5944    2.0427 O   0  0  0  0  0  0  0  0  0  0  0  0
   -9.2479   -4.6437    0.5003 O   0  0  0  0  0  0  0  0  0  0  0  0
   -5.0917    2.9712    0.8385 O   0  0  0  0  0  0  0  0  0  0  0  0
   -4.5583   -0.6611    2.2606 O   0  0  0  0  0  0  0  0  0  0  0  0
  1  5  1  0  0  0  0
  1 18  1  6  0  0  0
  2 18  1  6  0  0  0
  2  3  1  0  0  0  0
  2 12  1  0  0  0  0
  3 19  1  1  0  0  0
  3  4  1  0  0  0  0
  4 20  1  6  0  0  0
  4 10  1  0  0  0  0
  5  6  1  0  0  0  0
  5 14  1  6  0  0  0
  6 21  1  1  0  0  0
  7 13  1  1  0  0  0
  7  6  1  0  0  0  0
  8  9  1  1  0  0  0
  8  7  1  0  0  0  0
 10 16  1  1  0  0  0
 11 10  1  0  0  0  0
 12 17  1  1  0  0  0
 12 11  1  0  0  0  0
 15  9  1  0  0  0  0
 22  8  1  0  0  0  0
 22  1  1  0  0  0  0
M  END
>  <CHROM.1>
-171.09804280,77.60434064,60.30304129,-5.75541207,-1.11325182,0.72992052
0.98108087,-0.01703978,0.43851268

>  <Name>
lig.pdb

>  <RI>
0

>  <Rbt.Current_Directory>
/home/itssahil/PROJECTS/Mol_Feturizer/New_Systems/rnas/5bws

>  <Rbt.Executable>
rbdock ($Id: //depot/dev/client3/rdock/2013.1/src/exe/rbdock.cxx#4 $)

>  <Rbt.Library>
libRbt.so (2013.1, Build901 2013/11/27)

>  <Rbt.Parameter_File>
/export/apps/rDock/src/rDock_2013.1_src/data/scripts/dock_solv.prm

>  <Rbt.Receptor>
prm/pocket_docking_3.prm

>  <SCORE>
-9.93121

>  <SCORE.INTER>
-8.21175

>  <SCORE.INTER.CONST>
1

>  <SCORE.INTER.POLAR>
0

>  <SCORE.INTER.ROT>
3

>  <SCORE.INTER.SOLV>
22.933

>  <SCORE.INTER.VDW>
-18.7188

>  <SCORE.INTER.norm>
-0.373261

>  <SCORE.INTRA>
-1.71946

>  <SCORE.INTRA.DIHEDRAL>
-4.29746

>  <SCORE.INTRA.DIHEDRAL.0>
6.10773

>  <SCORE.INTRA.POLAR>
0

>  <SCORE.INTRA.POLAR.0>
0

>  <SCORE.INTRA.REPUL>
0

>  <SCORE.INTRA.REPUL.0>
0

>  <SCORE.INTRA.SOLV>
0.599491

>  <SCORE.INTRA.SOLV.lig_0>
-71.4024

>  <SCORE.INTRA.VDW>
0.129528

>  <SCORE.INTRA.VDW.0>
-1.86213

>  <SCORE.INTRA.norm>
-0.0781572

>  <SCORE.RESTR>
0

>  <SCORE.RESTR.CAVITY>
0

>  <SCORE.RESTR.norm>
0

>  <SCORE.SYSTEM>
0

>  <SCORE.SYSTEM.CONST>
0

>  <SCORE.SYSTEM.DIHEDRAL>
0

>  <SCORE.SYSTEM.SOLV>
0

>  <SCORE.SYSTEM.norm>
0

>  <SCORE.heavy>
22

>  <SCORE.norm>
-0.451419

>  <RMSD>
6.300

$$$$
lig.pdb
 OpenBabel11021811523D
libRbt.so/2013.1/901 2013/11/27
 22 23  0  0  0  0  0  0  0  0999 V2000
   -8.9155   -1.1877    1.9001 C   0  0  1  0  0  0  0  0  0  0  0  0
   -9.5279   -2.3658    4.0515 C   0  0  1  0  0  0  0  0  0  0  0  0
   -8.3949   -2.0196    5.1161 C   0  0  1  0  0  0  0  0  0  0  0  0
   -9.0475   -2.0992    6.5698 C   0  0  2  0  0  0  0  0  0  0  0  0
   -8.8539   -1.6240    0.3848 C   0  0  1  0  0  0  0  0  0  0  0  0
   -7.5703   -2.4526    0.1799 C   0  0  2  0  0  0  0  0  0  0  0  0
   -6.3193   -1.6132    0.4944 C   0  0  2  0  0  0  0  0  0  0  0  0
   -6.3289   -1.1139    1.9853 C   0  0  1  0  0  0  0  0  0  0  0  0
   -5.0939   -0.2188    2.2923 C   0  0  0  0  0  0  0  0  0  0  0  0
  -10.2145   -0.9917    6.6869 C   0  0  1  0  0  0  0  0  0  0  0  0
  -11.3376   -1.3723    5.5973 C   0  0  0  0  0  0  0  0  0  0  0  0
  -10.7007   -1.3375    4.1323 C   0  0  2  0  0  0  0  0  0  0  0  0
   -6.2571   -0.4501   -0.3980 F   0  0  0  0  0  0  0  0  0  0  0  0
  -10.1002   -2.4301    0.0845 N   0  0  0  0  0  0  0  0  0  0  0  0
   -5.0231    0.9746    1.5377 N   0  0  0  0  0  0  0  0  0  0  0  0
  -10.8726   -1.0394    8.0372 N   0  0  0  0  0  0  0  0  0  0  0  0
  -11.7353   -1.6891    3.1383 N   0  0  0  0  0  0  0  0  0  0  0  0
   -8.9991   -2.2993    2.7358 O   0  0  0  0  0  0  0  0  0  0  0  0
   -7.3264   -3.0392    4.9929 O   0  0  0  0  0  0  0  0  0  0  0  0
   -8.0340   -1.8015    7.4837 O   0  0  0  0  0  0  0  0  0  0  0  0
   -7.5262   -2.7676   -0.9257 O   0  0  0  0  0  0  0  0  0  0  0  0
   -7.6605   -0.3699    2.1942 O   0  0  0  0  0  0  0  0  0  0  0  0
  1  5  1  0  0  0  0
  1 18  1  1  0  0  0
  2 18  1  6  0  0  0
  2  3  1  0  0  0  0
  2 12  1  0  0  0  0
  3 19  1  1  0  0  0
  3  4  1  0  0  0  0
  4 20  1  1  0  0  0
  4 10  1  0  0  0  0
  5  6  1  0  0  0  0
  5 14  1  1  0  0  0
  6 21  1  6  0  0  0
  7 13  1  6  0  0  0
  7  6  1  0  0  0  0
  8  9  1  6  0  0  0
  8  7  1  0  0  0  0
 10 16  1  1  0  0  0
 11 10  1  0  0  0  0
 12 17  1  6  0  0  0
 12 11  1  0  0  0  0
 15  9  1  0  0  0  0
 22  8  1  0  0  0  0
 22  1  1  0  0  0  0
M  END
>  <CHROM.1>
-155.83003386,-87.89784796,62.38420712,-8.39079307,-1.50892180,3.05221644
1.08121992,-0.28408223,-1.65207851

>  <Name>
lig.pdb

>  <RI>
0

>  <Rbt.Current_Directory>
/home/itssahil/PROJECTS/Mol_Feturizer/New_Systems/rnas/5bws

>  <Rbt.Executable>
rbdock ($Id: //depot/dev/client3/rdock/2013.1/src/exe/rbdock.cxx#4 $)

>  <Rbt.Library>
libRbt.so (2013.1, Build901 2013/11/27)

>  <Rbt.Parameter_File>
/export/apps/rDock/src/rDock_2013.1_src/data/scripts/dock_solv.prm

>  <Rbt.Receptor>
prm/blind_docking_20.prm

>  <SCORE>
-0.532976

>  <SCORE.INTER>
-2.14086

>  <SCORE.INTER.CONST>
1

>  <SCORE.INTER.POLAR>
0

>  <SCORE.INTER.ROT>
3

>  <SCORE.INTER.SOLV>
24.5187

>  <SCORE.INTER.VDW>
-15.2001

>  <SCORE.INTER.norm>
-0.0973117

>  <SCORE.INTRA>
1.54924

>  <SCORE.INTRA.DIHEDRAL>
-0.364243

>  <SCORE.INTRA.DIHEDRAL.0>
6.10773

>  <SCORE.INTRA.POLAR>
0

>  <SCORE.INTRA.POLAR.0>
0

>  <SCORE.INTRA.REPUL>
0

>  <SCORE.INTRA.REPUL.0>
0

>  <SCORE.INTRA.SOLV>
2.1899

>  <SCORE.INTRA.SOLV.lig_0>
-71.4024

>  <SCORE.INTRA.VDW>
0.636412

>  <SCORE.INTRA.VDW.0>
-1.86213

>  <SCORE.INTRA.norm>
0.0704201

>  <SCORE.RESTR>
0.0586407

>  <SCORE.RESTR.CAVITY>
0.0586407

>  <SCORE.RESTR.norm>
0.00266549

>  <SCORE.SYSTEM>
0

>  <SCORE.SYSTEM.CONST>
0

>  <SCORE.SYSTEM.DIHEDRAL>
0

>  <SCORE.SYSTEM.SOLV>
0

>  <SCORE.SYSTEM.norm>
0

>  <SCORE.heavy>
22

>  <SCORE.norm>
-0.0242262

>  <RMSD>
6.307

$$$$
lig.pdb
 OpenBabel11021811523D
libRbt.so/2013.1/901 2013/11/27
 22 23  0  0  0  0  0  0  0  0999 V2000
   -5.6045    0.0842    2.1662 C   0  0  1  0  0  0  0  0  0  0  0  0
   -6.1675   -1.7803    0.5545 C   0  0  1  0  0  0  0  0  0  0  0  0
   -7.7422   -1.7352    0.3194 C   0  0  1  0  0  0  0  0  0  0  0  0
   -8.2213   -3.2052   -0.0742 C   0  0  2  0  0  0  0  0  0  0  0  0
   -5.8592    1.6401    2.0989 C   0  0  1  0  0  0  0  0  0  0  0  0
   -4.7477    2.2675    1.2345 C   0  0  2  0  0  0  0  0  0  0  0  0
   -3.3633    2.0292    1.8632 C   0  0  2  0  0  0  0  0  0  0  0  0
   -3.0538    0.4931    1.9928 C   0  0  1  0  0  0  0  0  0  0  0  0
   -1.6791    0.2469    2.6786 C   0  0  0  0  0  0  0  0  0  0  0  0
   -7.5107   -3.6408   -1.4553 C   0  0  1  0  0  0  0  0  0  0  0  0
   -5.9243   -3.6733   -1.1802 C   0  0  0  0  0  0  0  0  0  0  0  0
   -5.4228   -2.2196   -0.7462 C   0  0  2  0  0  0  0  0  0  0  0  0
   -3.3041    2.6420    3.1952 F   0  0  0  0  0  0  0  0  0  0  0  0
   -7.2323    1.8585    1.4986 N   0  0  0  0  0  0  0  0  0  0  0  0
   -1.5099    0.8996    3.9212 N   0  0  0  0  0  0  0  0  0  0  0  0
   -7.9190   -5.0295   -1.8597 N   0  0  0  0  0  0  0  0  0  0  0  0
   -3.9678   -2.2568   -0.4938 N   0  0  0  0  0  0  0  0  0  0  0  0
   -5.6876   -0.4897    0.8994 O   0  0  0  0  0  0  0  0  0  0  0  0
   -8.3818   -1.3266    1.5924 O   0  0  0  0  0  0  0  0  0  0  0  0
   -9.6035   -3.1412   -0.2654 O   0  0  0  0  0  0  0  0  0  0  0  0
   -4.9340    3.4018    1.1886 O   0  0  0  0  0  0  0  0  0  0  0  0
   -4.2225   -0.1290    2.7785 O   0  0  0  0  0  0  0  0  0  0  0  0
  1  5  1  0  0  0  0
  1 18  1  6  0  0  0
  2 18  1  6  0  0  0
  2  3  1  0  0  0  0
  2 12  1  0  0  0  0
  3 19  1  1  0  0  0
  3  4  1  0  0  0  0
  4 20  1  6  0  0  0
  4 10  1  0  0  0  0
  5  6  1  0  0  0  0
  5 14  1  6  0  0  0
  6 21  1  1  0  0  0
  7 13  1  1  0  0  0
  7  6  1  0  0  0  0
  8  9  1  1  0  0  0
  8  7  1  0  0  0  0
 10 16  1  1  0  0  0
 11 10  1  0  0  0  0
 12 17  1  1  0  0  0
 12 11  1  0  0  0  0
 15  9  1  0  0  0  0
 22  8  1  0  0  0  0
 22  1  1  0  0  0  0
M  END
>  <CHROM.1>
-146.16623135,87.63324770,53.01356047,-5.53755463,-0.53383624,1.04483067
0.93446572,-0.16885359,0.44355227

>  <Name>
lig.pdb

>  <RI>
0

>  <Rbt.Current_Directory>
/home/itssahil/PROJECTS/Mol_Feturizer/New_Systems/rnas/5bws

>  <Rbt.Executable>
rbdock ($Id: //depot/dev/client3/rdock/2013.1/src/exe/rbdock.cxx#4 $)

>  <Rbt.Library>
libRbt.so (2013.1, Build901 2013/11/27)

>  <Rbt.Parameter_File>
/export/apps/rDock/src/rDock_2013.1_src/data/scripts/dock_solv.prm

>  <Rbt.Receptor>
prm/pocket_docking_2.prm

>  <SCORE>
-3.35938

>  <SCORE.INTER>
-5.88882

>  <SCORE.INTER.CONST>
1

>  <SCORE.INTER.POLAR>
0

>  <SCORE.INTER.ROT>
3

>  <SCORE.INTER.SOLV>
21.6618

>  <SCORE.INTER.VDW>
-16.7465

>  <SCORE.INTER.norm>
-0.267674

>  <SCORE.INTRA>
1.88313

>  <SCORE.INTRA.DIHEDRAL>
1.54068

>  <SCORE.INTRA.DIHEDRAL.0>
6.10773

>  <SCORE.INTRA.POLAR>
0

>  <SCORE.INTRA.POLAR.0>
0

>  <SCORE.INTRA.REPUL>
0

>  <SCORE.INTRA.REPUL.0>
0

>  <SCORE.INTRA.SOLV>
1.90176

>  <SCORE.INTRA.SOLV.lig_0>
-71.4024

>  <SCORE.INTRA.VDW>
0.161907

>  <SCORE.INTRA.VDW.0>
-1.86213

>  <SCORE.INTRA.norm>
0.0855968

>  <SCORE.RESTR>
0.646309

>  <SCORE.RESTR.CAVITY>
0.646309

>  <SCORE.RESTR.norm>
0.0293777

>  <SCORE.SYSTEM>
0

>  <SCORE.SYSTEM.CONST>
0

>  <SCORE.SYSTEM.DIHEDRAL>
0

>  <SCORE.SYSTEM.SOLV>
0

>  <SCORE.SYSTEM.norm>
0

>  <SCORE.heavy>
22

>  <SCORE.norm>
-0.152699

>  <RMSD>
6.315

$$$$
lig.pdb
 OpenBabel11021811523D
libRbt.so/2013.1/901 2013/11/27
 22 23  0  0  0  0  0  0  0  0999 V2000
   -4.5066    2.0939    1.3574 C   0  0  1  0  0  0  0  0  0  0  0  0
   -5.2519   -0.3171    1.5090 C   0  0  1  0  0  0  0  0  0  0  0  0
   -6.5488   -0.1630    0.5973 C   0  0  1  0  0  0  0  0  0  0  0  0
   -6.9114   -1.6028    0.0134 C   0  0  2  0  0  0  0  0  0  0  0  0
   -3.9611    3.1940    2.3484 C   0  0  1  0  0  0  0  0  0  0  0  0
   -5.1051    3.5813    3.3063 C   0  0  2  0  0  0  0  0  0  0  0  0
   -6.2938    4.1746    2.5295 C   0  0  2  0  0  0  0  0  0  0  0  0
   -6.8706    3.1407    1.4947 C   0  0  1  0  0  0  0  0  0  0  0  0
   -8.0369    3.7551    0.6682 C   0  0  0  0  0  0  0  0  0  0  0  0
   -5.6951   -2.1200   -0.9115 C   0  0  1  0  0  0  0  0  0  0  0  0
   -4.4046   -2.2614    0.0415 C   0  0  0  0  0  0  0  0  0  0  0  0
   -4.0412   -0.8386    0.6713 C   0  0  2  0  0  0  0  0  0  0  0  0
   -5.8725    5.3833    1.8121 F   0  0  0  0  0  0  0  0  0  0  0  0
   -2.7796    2.6039    3.0897 N   0  0  0  0  0  0  0  0  0  0  0  0
   -8.5657    2.9085   -0.3329 N   0  0  0  0  0  0  0  0  0  0  0  0
   -5.9836   -3.4841   -1.4724 N   0  0  0  0  0  0  0  0  0  0  0  0
   -2.8582   -0.9758    1.5453 N   0  0  0  0  0  0  0  0  0  0  0  0
   -4.8803    0.9426    2.0474 O   0  0  0  0  0  0  0  0  0  0  0  0
   -7.6556    0.3195    1.4567 O   0  0  0  0  0  0  0  0  0  0  0  0
   -8.0546   -1.4428   -0.7730 O   0  0  0  0  0  0  0  0  0  0  0  0
   -4.7059    4.3849    4.0263 O   0  0  0  0  0  0  0  0  0  0  0  0
   -5.6922    2.6972    0.6087 O   0  0  0  0  0  0  0  0  0  0  0  0
  1  5  1  0  0  0  0
  1 18  1  1  0  0  0
  2 18  1  6  0  0  0
  2  3  1  0  0  0  0
  2 12  1  0  0  0  0
  3 19  1  1  0  0  0
  3  4  1  0  0  0  0
  4 20  1  6  0  0  0
  4 10  1  0  0  0  0
  5  6  1  0  0  0  0
  5 14  1  1  0  0  0
  6 21  1  1  0  0  0
  7 13  1  6  0  0  0
  7  6  1  0  0  0  0
  8  9  1  6  0  0  0
  8  7  1  0  0  0  0
 10 16  1  1  0  0  0
 11 10  1  0  0  0  0
 12 17  1  1  0  0  0
 12 11  1  0  0  0  0
 15  9  1  0  0  0  0
 22  8  1  0  0  0  0
 22  1  1  0  0  0  0
M  END
>  <CHROM.1>
-171.19171076,-61.14698331,176.94547732,-5.69195972,1.25597383,1.18116962
-1.49841070,0.44580292,-2.74815731

>  <Name>
lig.pdb

>  <RI>
0

>  <Rbt.Current_Directory>
/home/itssahil/PROJECTS/Mol_Feturizer/New_Systems/rnas/5bws

>  <Rbt.Executable>
rbdock ($Id: //depot/dev/client3/rdock/2013.1/src/exe/rbdock.cxx#4 $)

>  <Rbt.Library>
libRbt.so (2013.1, Build901 2013/11/27)

>  <Rbt.Parameter_File>
/export/apps/rDock/src/rDock_2013.1_src/data/scripts/dock_solv.prm

>  <Rbt.Receptor>
prm/pocket_docking_7.prm

>  <SCORE>
-9.39196

>  <SCORE.INTER>
-7.127

>  <SCORE.INTER.CONST>
1

>  <SCORE.INTER.POLAR>
0

>  <SCORE.INTER.ROT>
3

>  <SCORE.INTER.SOLV>
15.1078

>  <SCORE.INTER.VDW>
-15.3873

>  <SCORE.INTER.norm>
-0.323954

>  <SCORE.INTRA>
-2.26496

>  <SCORE.INTRA.DIHEDRAL>
-5.68853

>  <SCORE.INTRA.DIHEDRAL.0>
6.10773

>  <SCORE.INTRA.POLAR>
0

>  <SCORE.INTRA.POLAR.0>
0

>  <SCORE.INTRA.REPUL>
0

>  <SCORE.INTRA.REPUL.0>
0

>  <SCORE.INTRA.SOLV>
1.311

>  <SCORE.INTRA.SOLV.lig_0>
-71.4024

>  <SCORE.INTRA.VDW>
-0.0761993

>  <SCORE.INTRA.VDW.0>
-1.86213

>  <SCORE.INTRA.norm>
-0.102953

>  <SCORE.RESTR>
0

>  <SCORE.RESTR.CAVITY>
0

>  <SCORE.RESTR.norm>
0

>  <SCORE.SYSTEM>
0

>  <SCORE.SYSTEM.CONST>
0

>  <SCORE.SYSTEM.DIHEDRAL>
0

>  <SCORE.SYSTEM.SOLV>
0

>  <SCORE.SYSTEM.norm>
0

>  <SCORE.heavy>
22

>  <SCORE.norm>
-0.426907

>  <RMSD>
6.319

$$$$
lig.pdb
 OpenBabel11021811523D
libRbt.so/2013.1/901 2013/11/27
 22 23  0  0  0  0  0  0  0  0999 V2000
   -4.5600    2.0763    1.3285 C   0  0  1  0  0  0  0  0  0  0  0  0
   -5.2704   -0.3451    1.4812 C   0  0  1  0  0  0  0  0  0  0  0  0
   -6.5590   -0.2056    0.5554 C   0  0  1  0  0  0  0  0  0  0  0  0
   -6.9027   -1.6504   -0.0273 C   0  0  2  0  0  0  0  0  0  0  0  0
   -3.9866    3.1679    2.3132 C   0  0  1  0  0  0  0  0  0  0  0  0
   -5.1037    3.5481    3.3051 C   0  0  2  0  0  0  0  0  0  0  0  0
   -6.3128    4.1484    2.5660 C   0  0  2  0  0  0  0  0  0  0  0  0
   -6.9184    3.1234    1.5390 C   0  0  1  0  0  0  0  0  0  0  0  0
   -8.1064    3.7453    0.7498 C   0  0  0  0  0  0  0  0  0  0  0  0
   -5.6722   -2.1600   -0.9375 C   0  0  1  0  0  0  0  0  0  0  0  0
   -4.3906   -2.2868    0.0295 C   0  0  0  0  0  0  0  0  0  0  0  0
   -4.0465   -0.8588    0.6580 C   0  0  2  0  0  0  0  0  0  0  0  0
   -5.9102    5.3627    1.8472 F   0  0  0  0  0  0  0  0  0  0  0  0
   -2.7859    2.5711    3.0170 N   0  0  0  0  0  0  0  0  0  0  0  0
   -8.7219    2.8758   -0.1796 N   0  0  0  0  0  0  0  0  0  0  0  0
   -5.9428   -3.5285   -1.4967 N   0  0  0  0  0  0  0  0  0  0  0  0
   -2.8716   -0.9825    1.5449 N   0  0  0  0  0  0  0  0  0  0  0  0
   -4.9157    0.9197    2.0191 O   0  0  0  0  0  0  0  0  0  0  0  0
   -7.6790    0.2701    1.4014 O   0  0  0  0  0  0  0  0  0  0  0  0
   -8.0390   -1.5032   -0.8262 O   0  0  0  0  0  0  0  0  0  0  0  0
   -4.6844    4.3455    4.0205 O   0  0  0  0  0  0  0  0  0  0  0  0
   -5.7651    2.6865    0.6175 O   0  0  0  0  0  0  0  0  0  0  0  0
  1  5  1  0  0  0  0
  1 18  1  1  0  0  0
  2 18  1  6  0  0  0
  2  3  1  0  0  0  0
  2 12  1  0  0  0  0
  3 19  1  1  0  0  0
  3  4  1  0  0  0  0
  4 20  1  6  0  0  0
  4 10  1  0  0  0  0
  5  6  1  0  0  0  0
  5 14  1  1  0  0  0
  6 21  1  1  0  0  0
  7 13  1  6  0  0  0
  7  6  1  0  0  0  0
  8  9  1  6  0  0  0
  8  7  1  0  0  0  0
 10 16  1  1  0  0  0
 11 10  1  0  0  0  0
 12 17  1  1  0  0  0
 12 11  1  0  0  0  0
 15  9  1  0  0  0  0
 22  8  1  0  0  0  0
 22  1  1  0  0  0  0
M  END
>  <CHROM.1>
-169.45854675,-60.32071606,-178.93340942,-5.71370943,1.22618037,1.17650042
1.51049548,-0.42665956,0.40236581

>  <Name>
lig.pdb

>  <RI>
0

>  <Rbt.Current_Directory>
/home/itssahil/PROJECTS/Mol_Feturizer/New_Systems/rnas/5bws

>  <Rbt.Executable>
rbdock ($Id: //depot/dev/client3/rdock/2013.1/src/exe/rbdock.cxx#4 $)

>  <Rbt.Library>
libRbt.so (2013.1, Build901 2013/11/27)

>  <Rbt.Parameter_File>
/export/apps/rDock/src/rDock_2013.1_src/data/scripts/dock_solv.prm

>  <Rbt.Receptor>
prm/pocket_docking_4.prm

>  <SCORE>
-9.412

>  <SCORE.INTER>
-7.21356

>  <SCORE.INTER.CONST>
1

>  <SCORE.INTER.POLAR>
0

>  <SCORE.INTER.ROT>
3

>  <SCORE.INTER.SOLV>
14.9676

>  <SCORE.INTER.VDW>
-15.3982

>  <SCORE.INTER.norm>
-0.327889

>  <SCORE.INTRA>
-2.19844

>  <SCORE.INTRA.DIHEDRAL>
-5.56602

>  <SCORE.INTRA.DIHEDRAL.0>
6.10773

>  <SCORE.INTRA.POLAR>
0

>  <SCORE.INTRA.POLAR.0>
0

>  <SCORE.INTRA.REPUL>
0

>  <SCORE.INTRA.REPUL.0>
0

>  <SCORE.INTRA.SOLV>
1.34802

>  <SCORE.INTRA.SOLV.lig_0>
-71.4024

>  <SCORE.INTRA.VDW>
-0.0894436

>  <SCORE.INTRA.VDW.0>
-1.86213

>  <SCORE.INTRA.norm>
-0.0999291

>  <SCORE.RESTR>
0

>  <SCORE.RESTR.CAVITY>
0

>  <SCORE.RESTR.norm>
0

>  <SCORE.SYSTEM>
0

>  <SCORE.SYSTEM.CONST>
0

>  <SCORE.SYSTEM.DIHEDRAL>
0

>  <SCORE.SYSTEM.SOLV>
0

>  <SCORE.SYSTEM.norm>
0

>  <SCORE.heavy>
22

>  <SCORE.norm>
-0.427818

>  <RMSD>
6.325

$$$$
lig.pdb
 OpenBabel11021811523D
libRbt.so/2013.1/901 2013/11/27
 22 23  0  0  0  0  0  0  0  0999 V2000
   -5.7485    3.2180    1.5712 C   0  0  1  0  0  0  0  0  0  0  0  0
   -5.3302    0.7824    2.1041 C   0  0  1  0  0  0  0  0  0  0  0  0
   -6.4202    0.2471    1.0735 C   0  0  1  0  0  0  0  0  0  0  0  0
   -6.0664   -1.2701    0.7298 C   0  0  2  0  0  0  0  0  0  0  0  0
   -5.7963    4.5779    2.3702 C   0  0  1  0  0  0  0  0  0  0  0  0
   -7.0317    4.5457    3.2916 C   0  0  2  0  0  0  0  0  0  0  0  0
   -8.3264    4.4204    2.4692 C   0  0  2  0  0  0  0  0  0  0  0  0
   -8.3344    3.0984    1.6179 C   0  0  1  0  0  0  0  0  0  0  0  0
   -9.6165    2.9945    0.7426 C   0  0  0  0  0  0  0  0  0  0  0  0
   -4.6194   -1.3278    0.0192 C   0  0  1  0  0  0  0  0  0  0  0  0
   -3.5467   -0.7788    1.0875 C   0  0  0  0  0  0  0  0  0  0  0  0
   -3.8998    0.7295    1.4792 C   0  0  2  0  0  0  0  0  0  0  0  0
   -8.4619    5.5696    1.5669 F   0  0  0  0  0  0  0  0  0  0  0  0
   -4.5080    4.6975    3.1572 N   0  0  0  0  0  0  0  0  0  0  0  0
   -9.7370    3.9894   -0.2545 N   0  0  0  0  0  0  0  0  0  0  0  0
   -4.2336   -2.7427   -0.3094 N   0  0  0  0  0  0  0  0  0  0  0  0
   -2.9134    1.2262    2.4603 N   0  0  0  0  0  0  0  0  0  0  0  0
   -5.5951    2.1368    2.4364 O   0  0  0  0  0  0  0  0  0  0  0  0
   -7.7446    0.3125    1.7354 O   0  0  0  0  0  0  0  0  0  0  0  0
   -7.0398   -1.7182   -0.1662 O   0  0  0  0  0  0  0  0  0  0  0  0
   -7.0658    5.5387    3.8713 O   0  0  0  0  0  0  0  0  0  0  0  0
   -7.0461    3.1071    0.7750 O   0  0  0  0  0  0  0  0  0  0  0  0
  1  5  1  0  0  0  0
  1 18  1  1  0  0  0
  2 18  1  6  0  0  0
  2  3  1  0  0  0  0
  2 12  1  0  0  0  0
  3 19  1  1  0  0  0
  3  4  1  0  0  0  0
  4 20  1  6  0  0  0
  4 10  1  0  0  0  0
  5  6  1  0  0  0  0
  5 14  1  1  0  0  0
  6 21  1  6  0  0  0
  7 13  1  6  0  0  0
  7  6  1  0  0  0  0
  8  9  1  6  0  0  0
  8  7  1  0  0  0  0
 10 16  1  1  0  0  0
 11 10  1  0  0  0  0
 12 17  1  1  0  0  0
 12 11  1  0  0  0  0
 15  9  1  0  0  0  0
 22  8  1  0  0  0  0
 22  1  1  0  0  0  0
M  END
>  <CHROM.1>
-170.70864653,-54.61584457,64.57261629,-6.37954303,2.02699632,1.53992278
-2.04931127,0.35612313,-2.70941126

>  <Name>
lig.pdb

>  <RI>
0

>  <Rbt.Current_Directory>
/home/itssahil/PROJECTS/Mol_Feturizer/New_Systems/rnas/5bws

>  <Rbt.Executable>
rbdock ($Id: //depot/dev/client3/rdock/2013.1/src/exe/rbdock.cxx#4 $)

>  <Rbt.Library>
libRbt.so (2013.1, Build901 2013/11/27)

>  <Rbt.Parameter_File>
/export/apps/rDock/src/rDock_2013.1_src/data/scripts/dock_solv.prm

>  <Rbt.Receptor>
prm/pocket_docking_8.prm

>  <SCORE>
-7.80574

>  <SCORE.INTER>
-6.08241

>  <SCORE.INTER.CONST>
1

>  <SCORE.INTER.POLAR>
0

>  <SCORE.INTER.ROT>
3

>  <SCORE.INTER.SOLV>
17.5789

>  <SCORE.INTER.VDW>
-15.5146

>  <SCORE.INTER.norm>
-0.276473

>  <SCORE.INTRA>
-1.72333

>  <SCORE.INTRA.DIHEDRAL>
-5.4705

>  <SCORE.INTRA.DIHEDRAL.0>
6.10773

>  <SCORE.INTRA.POLAR>
0

>  <SCORE.INTRA.POLAR.0>
0

>  <SCORE.INTRA.REPUL>
0

>  <SCORE.INTRA.REPUL.0>
0

>  <SCORE.INTRA.SOLV>
1.58516

>  <SCORE.INTRA.SOLV.lig_0>
-71.4024

>  <SCORE.INTRA.VDW>
0.219336

>  <SCORE.INTRA.VDW.0>
-1.86213

>  <SCORE.INTRA.norm>
-0.0783333

>  <SCORE.RESTR>
0

>  <SCORE.RESTR.CAVITY>
0

>  <SCORE.RESTR.norm>
0

>  <SCORE.SYSTEM>
0

>  <SCORE.SYSTEM.CONST>
0

>  <SCORE.SYSTEM.DIHEDRAL>
0

>  <SCORE.SYSTEM.SOLV>
0

>  <SCORE.SYSTEM.norm>
0

>  <SCORE.heavy>
22

>  <SCORE.norm>
-0.354806

>  <RMSD>
6.326

$$$$
lig.pdb
 OpenBabel11021811523D
libRbt.so/2013.1/901 2013/11/27
 22 23  0  0  0  0  0  0  0  0999 V2000
   -4.5609    2.0812    1.3227 C   0  0  1  0  0  0  0  0  0  0  0  0
   -5.3112   -0.3281    1.4763 C   0  0  1  0  0  0  0  0  0  0  0  0
   -6.6198   -0.1755    0.5811 C   0  0  1  0  0  0  0  0  0  0  0  0
   -6.9851   -1.6148   -0.0023 C   0  0  2  0  0  0  0  0  0  0  0  0
   -3.9942    3.1735    2.3105 C   0  0  1  0  0  0  0  0  0  0  0  0
   -5.1237    3.5682    3.2825 C   0  0  2  0  0  0  0  0  0  0  0  0
   -6.3159    4.1743    2.5210 C   0  0  2  0  0  0  0  0  0  0  0  0
   -6.9137    3.1487    1.4900 C   0  0  1  0  0  0  0  0  0  0  0  0
   -8.0838    3.7759    0.6787 C   0  0  0  0  0  0  0  0  0  0  0  0
   -5.7787   -2.1256   -0.9435 C   0  0  1  0  0  0  0  0  0  0  0  0
   -4.4761   -2.2656   -0.0069 C   0  0  0  0  0  0  0  0  0  0  0  0
   -4.1094   -0.8435    0.6223 C   0  0  2  0  0  0  0  0  0  0  0  0
   -5.8919    5.3813    1.8022 F   0  0  0  0  0  0  0  0  0  0  0  0
   -2.8097    2.5707    3.0365 N   0  0  0  0  0  0  0  0  0  0  0  0
   -8.6819    2.9110   -0.2662 N   0  0  0  0  0  0  0  0  0  0  0  0
   -6.0699   -3.4890   -1.5048 N   0  0  0  0  0  0  0  0  0  0  0  0
   -2.9153   -0.9793    1.4812 N   0  0  0  0  0  0  0  0  0  0  0  0
   -4.9370    0.9314    2.0137 O   0  0  0  0  0  0  0  0  0  0  0  0
   -7.7174    0.3012    1.4554 O   0  0  0  0  0  0  0  0  0  0  0  0
   -8.1384   -1.4562   -0.7741 O   0  0  0  0  0  0  0  0  0  0  0  0
   -4.7092    4.3661    4.0001 O   0  0  0  0  0  0  0  0  0  0  0  0
   -5.7495    2.6973    0.5893 O   0  0  0  0  0  0  0  0  0  0  0  0
  1  5  1  0  0  0  0
  1 18  1  1  0  0  0
  2 18  1  6  0  0  0
  2  3  1  0  0  0  0
  2 12  1  0  0  0  0
  3 19  1  1  0  0  0
  3  4  1  0  0  0  0
  4 20  1  6  0  0  0
  4 10  1  0  0  0  0
  5  6  1  0  0  0  0
  5 14  1  1  0  0  0
  6 21  1  1  0  0  0
  7 13  1  6  0  0  0
  7  6  1  0  0  0  0
  8  9  1  6  0  0  0
  8  7  1  0  0  0  0
 10 16  1  1  0  0  0
 11 10  1  0  0  0  0
 12 17  1  1  0  0  0
 12 11  1  0  0  0  0
 15  9  1  0  0  0  0
 22  8  1  0  0  0  0
 22  1  1  0  0  0  0
M  END
>  <CHROM.1>
-170.40351429,-61.93778822,-179.60548851,-5.74673280,1.24818590,1.16038353
-1.49088820,0.43204942,-2.74930578

>  <Name>
lig.pdb

>  <RI>
0

>  <Rbt.Current_Directory>
/home/itssahil/PROJECTS/Mol_Feturizer/New_Systems/rnas/5bws

>  <Rbt.Executable>
rbdock ($Id: //depot/dev/client3/rdock/2013.1/src/exe/rbdock.cxx#4 $)

>  <Rbt.Library>
libRbt.so (2013.1, Build901 2013/11/27)

>  <Rbt.Parameter_File>
/export/apps/rDock/src/rDock_2013.1_src/data/scripts/dock_solv.prm

>  <Rbt.Receptor>
prm/pocket_docking_4.prm

>  <SCORE>
-9.47831

>  <SCORE.INTER>
-7.19978

>  <SCORE.INTER.CONST>
1

>  <SCORE.INTER.POLAR>
0

>  <SCORE.INTER.ROT>
3

>  <SCORE.INTER.SOLV>
14.9034

>  <SCORE.INTER.VDW>
-15.3677

>  <SCORE.INTER.norm>
-0.327263

>  <SCORE.INTRA>
-2.27853

>  <SCORE.INTRA.DIHEDRAL>
-5.64111

>  <SCORE.INTRA.DIHEDRAL.0>
6.10773

>  <SCORE.INTRA.POLAR>
0

>  <SCORE.INTRA.POLAR.0>
0

>  <SCORE.INTRA.REPUL>
0

>  <SCORE.INTRA.REPUL.0>
0

>  <SCORE.INTRA.SOLV>
1.28919

>  <SCORE.INTRA.SOLV.lig_0>
-71.4024

>  <SCORE.INTRA.VDW>
-0.102574

>  <SCORE.INTRA.VDW.0>
-1.86213

>  <SCORE.INTRA.norm>
-0.10357

>  <SCORE.RESTR>
0

>  <SCORE.RESTR.CAVITY>
0

>  <SCORE.RESTR.norm>
0

>  <SCORE.SYSTEM>
0

>  <SCORE.SYSTEM.CONST>
0

>  <SCORE.SYSTEM.DIHEDRAL>
0

>  <SCORE.SYSTEM.SOLV>
0

>  <SCORE.SYSTEM.norm>
0

>  <SCORE.heavy>
22

>  <SCORE.norm>
-0.430832

>  <RMSD>
6.330

$$$$
lig.pdb
 OpenBabel11021811523D
libRbt.so/2013.1/901 2013/11/27
 22 23  0  0  0  0  0  0  0  0999 V2000
   -4.2848    2.0493    1.4581 C   0  0  1  0  0  0  0  0  0  0  0  0
   -6.3888    2.8815    2.5860 C   0  0  1  0  0  0  0  0  0  0  0  0
   -5.7796    4.3462    2.7305 C   0  0  1  0  0  0  0  0  0  0  0  0
   -6.9878    5.3565    2.9849 C   0  0  2  0  0  0  0  0  0  0  0  0
   -3.8870    0.6357    0.8807 C   0  0  1  0  0  0  0  0  0  0  0  0
   -3.4200   -0.2447    2.0568 C   0  0  2  0  0  0  0  0  0  0  0  0
   -2.1840    0.3650    2.7416 C   0  0  2  0  0  0  0  0  0  0  0  0
   -2.4982    1.7951    3.3147 C   0  0  1  0  0  0  0  0  0  0  0  0
   -1.2366    2.4383    3.9590 C   0  0  0  0  0  0  0  0  0  0  0  0
   -7.9723    5.3362    1.7072 C   0  0  1  0  0  0  0  0  0  0  0  0
   -8.5656    3.8434    1.5922 C   0  0  0  0  0  0  0  0  0  0  0  0
   -7.3716    2.8043    1.3746 C   0  0  2  0  0  0  0  0  0  0  0  0
   -1.0778    0.4676    1.7830 F   0  0  0  0  0  0  0  0  0  0  0  0
   -5.1056    0.0577    0.1919 N   0  0  0  0  0  0  0  0  0  0  0  0
   -1.4684    3.6651    4.6223 N   0  0  0  0  0  0  0  0  0  0  0  0
   -9.1386    6.2627    1.9076 N   0  0  0  0  0  0  0  0  0  0  0  0
   -7.9224    1.4375    1.2717 N   0  0  0  0  0  0  0  0  0  0  0  0
   -5.3516    1.9420    2.3478 O   0  0  0  0  0  0  0  0  0  0  0  0
   -4.8721    4.3491    3.9021 O   0  0  0  0  0  0  0  0  0  0  0  0
   -6.4280    6.6294    3.1172 O   0  0  0  0  0  0  0  0  0  0  0  0
   -3.1284   -1.2739    1.6333 O   0  0  0  0  0  0  0  0  0  0  0  0
   -3.0507    2.6291    2.1445 O   0  0  0  0  0  0  0  0  0  0  0  0
  1  5  1  0  0  0  0
  1 18  1  1  0  0  0
  2 18  1  6  0  0  0
  2  3  1  0  0  0  0
  2 12  1  0  0  0  0
  3 19  1  1  0  0  0
  3  4  1  0  0  0  0
  4 20  1  6  0  0  0
  4 10  1  0  0  0  0
  5  6  1  0  0  0  0
  5 14  1  1  0  0  0
  6 21  1  6  0  0  0
  7 13  1  6  0  0  0
  7  6  1  0  0  0  0
  8  9  1  6  0  0  0
  8  7  1  0  0  0  0
 10 16  1  1  0  0  0
 11 10  1  0  0  0  0
 12 17  1  1  0  0  0
 12 11  1  0  0  0  0
 15  9  1  0  0  0  0
 22  8  1  0  0  0  0
 22  1  1  0  0  0  0
M  END
>  <CHROM.1>
-147.15825320,-45.59005667,-173.64527027,-4.83719045,2.60197250,2.29289259
0.58655950,0.35731850,-2.67657985

>  <Name>
lig.pdb

>  <RI>
0

>  <Rbt.Current_Directory>
/home/itssahil/PROJECTS/Mol_Feturizer/New_Systems/rnas/5bws

>  <Rbt.Executable>
rbdock ($Id: //depot/dev/client3/rdock/2013.1/src/exe/rbdock.cxx#4 $)

>  <Rbt.Library>
libRbt.so (2013.1, Build901 2013/11/27)

>  <Rbt.Parameter_File>
/export/apps/rDock/src/rDock_2013.1_src/data/scripts/dock_solv.prm

>  <Rbt.Receptor>
prm/pocket_docking_6.prm

>  <SCORE>
-9.15837

>  <SCORE.INTER>
-9.48251

>  <SCORE.INTER.CONST>
1

>  <SCORE.INTER.POLAR>
0

>  <SCORE.INTER.ROT>
3

>  <SCORE.INTER.SOLV>
17.2132

>  <SCORE.INTER.VDW>
-17.6594

>  <SCORE.INTER.norm>
-0.431023

>  <SCORE.INTRA>
0.324138

>  <SCORE.INTRA.DIHEDRAL>
-0.851278

>  <SCORE.INTRA.DIHEDRAL.0>
6.10773

>  <SCORE.INTRA.POLAR>
0

>  <SCORE.INTRA.POLAR.0>
0

>  <SCORE.INTRA.REPUL>
0

>  <SCORE.INTRA.REPUL.0>
0

>  <SCORE.INTRA.SOLV>
1.42634

>  <SCORE.INTRA.SOLV.lig_0>
-71.4024

>  <SCORE.INTRA.VDW>
0.0366053

>  <SCORE.INTRA.VDW.0>
-1.86213

>  <SCORE.INTRA.norm>
0.0147336

>  <SCORE.RESTR>
0

>  <SCORE.RESTR.CAVITY>
0

>  <SCORE.RESTR.norm>
0

>  <SCORE.SYSTEM>
0

>  <SCORE.SYSTEM.CONST>
0

>  <SCORE.SYSTEM.DIHEDRAL>
0

>  <SCORE.SYSTEM.SOLV>
0

>  <SCORE.SYSTEM.norm>
0

>  <SCORE.heavy>
22

>  <SCORE.norm>
-0.41629

>  <RMSD>
6.330

$$$$
lig.pdb
 OpenBabel11021811523D
libRbt.so/2013.1/901 2013/11/27
 22 23  0  0  0  0  0  0  0  0999 V2000
   -6.1436    2.3911    1.6638 C   0  0  1  0  0  0  0  0  0  0  0  0
   -3.8116    1.9260    2.5222 C   0  0  1  0  0  0  0  0  0  0  0  0
   -2.6616    1.0551    1.8467 C   0  0  1  0  0  0  0  0  0  0  0  0
   -1.6272    0.6394    2.9879 C   0  0  2  0  0  0  0  0  0  0  0  0
   -6.8278    2.5213    0.2478 C   0  0  1  0  0  0  0  0  0  0  0  0
   -6.3619    3.8470   -0.3860 C   0  0  2  0  0  0  0  0  0  0  0  0
   -6.7940    5.0479    0.4739 C   0  0  2  0  0  0  0  0  0  0  0  0
   -6.1737    4.9676    1.9165 C   0  0  1  0  0  0  0  0  0  0  0  0
   -6.6522    6.1504    2.8070 C   0  0  0  0  0  0  0  0  0  0  0  0
   -0.9617    1.9711    3.6091 C   0  0  1  0  0  0  0  0  0  0  0  0
   -2.1515    2.8248    4.2794 C   0  0  0  0  0  0  0  0  0  0  0  0
   -3.2236    3.2230    3.1637 C   0  0  2  0  0  0  0  0  0  0  0  0
   -8.2566    5.0862    0.5849 F   0  0  0  0  0  0  0  0  0  0  0  0
   -6.4111    1.3230   -0.5792 N   0  0  0  0  0  0  0  0  0  0  0  0
   -8.0486    6.2063    3.0199 N   0  0  0  0  0  0  0  0  0  0  0  0
    0.0106    1.6306    4.7034 N   0  0  0  0  0  0  0  0  0  0  0  0
   -4.3126    4.0040    3.7853 N   0  0  0  0  0  0  0  0  0  0  0  0
   -4.7568    2.3310    1.5436 O   0  0  0  0  0  0  0  0  0  0  0  0
   -3.2870   -0.1602    1.2738 O   0  0  0  0  0  0  0  0  0  0  0  0
   -0.6361   -0.1294    2.3733 O   0  0  0  0  0  0  0  0  0  0  0  0
   -6.8635    3.9408   -1.4170 O   0  0  0  0  0  0  0  0  0  0  0  0
   -6.5732    3.5977    2.4943 O   0  0  0  0  0  0  0  0  0  0  0  0
  1  5  1  0  0  0  0
  1 18  1  6  0  0  0
  2 18  1  6  0  0  0
  2  3  1  0  0  0  0
  2 12  1  0  0  0  0
  3 19  1  1  0  0  0
  3  4  1  0  0  0  0
  4 20  1  6  0  0  0
  4 10  1  0  0  0  0
  5  6  1  0  0  0  0
  5 14  1  6  0  0  0
  6 21  1  6  0  0  0
  7 13  1  1  0  0  0
  7  6  1  0  0  0  0
  8  9  1  1  0  0  0
  8  7  1  0  0  0  0
 10 16  1  1  0  0  0
 11 10  1  0  0  0  0
 12 17  1  1  0  0  0
 12 11  1  0  0  0  0
 15  9  1  0  0  0  0
 22  8  1  0  0  0  0
 22  1  1  0  0  0  0
M  END
>  <CHROM.1>
-164.93589408,139.99940828,61.21940340,-4.71632069,2.93475696,1.91153113
3.02614013,-0.61268710,0.79394805

>  <Name>
lig.pdb

>  <RI>
0

>  <Rbt.Current_Directory>
/home/itssahil/PROJECTS/Mol_Feturizer/New_Systems/rnas/5bws

>  <Rbt.Executable>
rbdock ($Id: //depot/dev/client3/rdock/2013.1/src/exe/rbdock.cxx#4 $)

>  <Rbt.Library>
libRbt.so (2013.1, Build901 2013/11/27)

>  <Rbt.Parameter_File>
/export/apps/rDock/src/rDock_2013.1_src/data/scripts/dock_solv.prm

>  <Rbt.Receptor>
prm/pocket_docking_5.prm

>  <SCORE>
-6.27867

>  <SCORE.INTER>
-8.52847

>  <SCORE.INTER.CONST>
1

>  <SCORE.INTER.POLAR>
0

>  <SCORE.INTER.ROT>
3

>  <SCORE.INTER.SOLV>
15.6648

>  <SCORE.INTER.VDW>
-16.5072

>  <SCORE.INTER.norm>
-0.387658

>  <SCORE.INTRA>
2.2498

>  <SCORE.INTRA.DIHEDRAL>
0.360164

>  <SCORE.INTRA.DIHEDRAL.0>
6.10773

>  <SCORE.INTRA.POLAR>
0

>  <SCORE.INTRA.POLAR.0>
0

>  <SCORE.INTRA.REPUL>
0

>  <SCORE.INTRA.REPUL.0>
0

>  <SCORE.INTRA.SOLV>
3.62953

>  <SCORE.INTRA.SOLV.lig_0>
-71.4024

>  <SCORE.INTRA.VDW>
0.254959

>  <SCORE.INTRA.VDW.0>
-1.86213

>  <SCORE.INTRA.norm>
0.102264

>  <SCORE.RESTR>
0

>  <SCORE.RESTR.CAVITY>
0

>  <SCORE.RESTR.norm>
0

>  <SCORE.SYSTEM>
0

>  <SCORE.SYSTEM.CONST>
0

>  <SCORE.SYSTEM.DIHEDRAL>
0

>  <SCORE.SYSTEM.SOLV>
0

>  <SCORE.SYSTEM.norm>
0

>  <SCORE.heavy>
22

>  <SCORE.norm>
-0.285394

>  <RMSD>
6.334

$$$$
lig.pdb
 OpenBabel11021811523D
libRbt.so/2013.1/901 2013/11/27
 22 23  0  0  0  0  0  0  0  0999 V2000
   -4.6068    2.0765    1.3179 C   0  0  1  0  0  0  0  0  0  0  0  0
   -5.3404   -0.3377    1.4754 C   0  0  1  0  0  0  0  0  0  0  0  0
   -6.6483   -0.1987    0.5771 C   0  0  1  0  0  0  0  0  0  0  0  0
   -6.9997   -1.6424   -0.0038 C   0  0  2  0  0  0  0  0  0  0  0  0
   -4.0248    3.1646    2.3014 C   0  0  1  0  0  0  0  0  0  0  0  0
   -5.1413    3.5607    3.2878 C   0  0  2  0  0  0  0  0  0  0  0  0
   -6.3406    4.1724    2.5421 C   0  0  2  0  0  0  0  0  0  0  0  0
   -6.9539    3.1512    1.5159 C   0  0  1  0  0  0  0  0  0  0  0  0
   -8.1317    3.7840    0.7201 C   0  0  0  0  0  0  0  0  0  0  0  0
   -5.7869   -2.1448   -0.9412 C   0  0  1  0  0  0  0  0  0  0  0  0
   -4.4851   -2.2713   -0.0015 C   0  0  0  0  0  0  0  0  0  0  0  0
   -4.1323   -0.8445    0.6251 C   0  0  2  0  0  0  0  0  0  0  0  0
   -5.9213    5.3797    1.8211 F   0  0  0  0  0  0  0  0  0  0  0  0
   -2.8337    2.5564    3.0117 N   0  0  0  0  0  0  0  0  0  0  0  0
   -8.7524    2.9191   -0.2101 N   0  0  0  0  0  0  0  0  0  0  0  0
   -6.0649   -3.5120   -1.4998 N   0  0  0  0  0  0  0  0  0  0  0  0
   -2.9388   -0.9679    1.4870 N   0  0  0  0  0  0  0  0  0  0  0  0
   -4.9783    0.9262    2.0107 O   0  0  0  0  0  0  0  0  0  0  0  0
   -7.7519    0.2704    1.4480 O   0  0  0  0  0  0  0  0  0  0  0  0
   -8.1528   -1.4957   -0.7784 O   0  0  0  0  0  0  0  0  0  0  0  0
   -4.7156    4.3555    4.0023 O   0  0  0  0  0  0  0  0  0  0  0  0
   -5.8021    2.6982    0.6003 O   0  0  0  0  0  0  0  0  0  0  0  0
  1  5  1  0  0  0  0
  1 18  1  1  0  0  0
  2 18  1  6  0  0  0
  2  3  1  0  0  0  0
  2 12  1  0  0  0  0
  3 19  1  1  0  0  0
  3  4  1  0  0  0  0
  4 20  1  6  0  0  0
  4 10  1  0  0  0  0
  5  6  1  0  0  0  0
  5 14  1  1  0  0  0
  6 21  1  1  0  0  0
  7 13  1  6  0  0  0
  7  6  1  0  0  0  0
  8  9  1  6  0  0  0
  8  7  1  0  0  0  0
 10 16  1  1  0  0  0
 11 10  1  0  0  0  0
 12 17  1  1  0  0  0
 12 11  1  0  0  0  0
 15  9  1  0  0  0  0
 22  8  1  0  0  0  0
 22  1  1  0  0  0  0
M  END
>  <CHROM.1>
-169.18885140,-62.15675625,-179.00159063,-5.77463535,1.23884894,1.16697379
1.49625401,-0.42366381,0.39401509

>  <Name>
lig.pdb

>  <RI>
0

>  <Rbt.Current_Directory>
/home/itssahil/PROJECTS/Mol_Feturizer/New_Systems/rnas/5bws

>  <Rbt.Executable>
rbdock ($Id: //depot/dev/client3/rdock/2013.1/src/exe/rbdock.cxx#4 $)

>  <Rbt.Library>
libRbt.so (2013.1, Build901 2013/11/27)

>  <Rbt.Parameter_File>
/export/apps/rDock/src/rDock_2013.1_src/data/scripts/dock_solv.prm

>  <Rbt.Receptor>
prm/pocket_docking_5.prm

>  <SCORE>
-9.43721

>  <SCORE.INTER>
-7.22899

>  <SCORE.INTER.CONST>
1

>  <SCORE.INTER.POLAR>
0

>  <SCORE.INTER.ROT>
3

>  <SCORE.INTER.SOLV>
14.778

>  <SCORE.INTER.VDW>
-15.3453

>  <SCORE.INTER.norm>
-0.328591

>  <SCORE.INTRA>
-2.20822

>  <SCORE.INTRA.DIHEDRAL>
-5.51715

>  <SCORE.INTRA.DIHEDRAL.0>
6.10773

>  <SCORE.INTRA.POLAR>
0

>  <SCORE.INTRA.POLAR.0>
0

>  <SCORE.INTRA.REPUL>
0

>  <SCORE.INTRA.REPUL.0>
0

>  <SCORE.INTRA.SOLV>
1.31009

>  <SCORE.INTRA.SOLV.lig_0>
-71.4024

>  <SCORE.INTRA.VDW>
-0.104688

>  <SCORE.INTRA.VDW.0>
-1.86213

>  <SCORE.INTRA.norm>
-0.100374

>  <SCORE.RESTR>
0

>  <SCORE.RESTR.CAVITY>
0

>  <SCORE.RESTR.norm>
0

>  <SCORE.SYSTEM>
0

>  <SCORE.SYSTEM.CONST>
0

>  <SCORE.SYSTEM.DIHEDRAL>
0

>  <SCORE.SYSTEM.SOLV>
0

>  <SCORE.SYSTEM.norm>
0

>  <SCORE.heavy>
22

>  <SCORE.norm>
-0.428964

>  <RMSD>
6.338

$$$$
lig.pdb
 OpenBabel11021811523D
libRbt.so/2013.1/901 2013/11/27
 22 23  0  0  0  0  0  0  0  0999 V2000
   -4.8376   -1.0639    1.5476 C   0  0  1  0  0  0  0  0  0  0  0  0
   -5.4902   -2.9135   -0.0476 C   0  0  1  0  0  0  0  0  0  0  0  0
   -7.0577   -2.6461    0.0444 C   0  0  1  0  0  0  0  0  0  0  0  0
   -7.8095   -3.9784   -0.4082 C   0  0  2  0  0  0  0  0  0  0  0  0
   -5.3467    0.4140    1.3313 C   0  0  1  0  0  0  0  0  0  0  0  0
   -4.3223    1.1449    0.4408 C   0  0  2  0  0  0  0  0  0  0  0  0
   -2.9440    1.2013    1.1230 C   0  0  2  0  0  0  0  0  0  0  0  0
   -2.3867   -0.2425    1.4008 C   0  0  1  0  0  0  0  0  0  0  0  0
   -1.0188   -0.1905    2.1403 C   0  0  0  0  0  0  0  0  0  0  0  0
   -7.4354   -4.3012   -1.9438 C   0  0  1  0  0  0  0  0  0  0  0  0
   -5.8473   -4.5632   -1.9976 C   0  0  0  0  0  0  0  0  0  0  0  0
   -5.0687   -3.2552   -1.5122 C   0  0  2  0  0  0  0  0  0  0  0  0
   -3.0417    1.9278    2.3942 F   0  0  0  0  0  0  0  0  0  0  0  0
   -6.7117    0.3424    0.6795 N   0  0  0  0  0  0  0  0  0  0  0  0
   -1.0770    0.3064    3.4625 N   0  0  0  0  0  0  0  0  0  0  0  0
   -8.1086   -5.5608   -2.4118 N   0  0  0  0  0  0  0  0  0  0  0  0
   -3.6132   -3.5027   -1.5623 N   0  0  0  0  0  0  0  0  0  0  0  0
   -4.7725   -1.7507    0.3371 O   0  0  0  0  0  0  0  0  0  0  0  0
   -7.3865   -2.3435    1.4574 O   0  0  0  0  0  0  0  0  0  0  0  0
   -9.1791   -3.7218   -0.3100 O   0  0  0  0  0  0  0  0  0  0  0  0
   -4.6942    2.2225    0.2864 O   0  0  0  0  0  0  0  0  0  0  0  0
   -3.4651   -0.9846    2.2110 O   0  0  0  0  0  0  0  0  0  0  0  0
  1  5  1  0  0  0  0
  1 18  1  6  0  0  0
  2 18  1  6  0  0  0
  2  3  1  0  0  0  0
  2 12  1  0  0  0  0
  3 19  1  1  0  0  0
  3  4  1  0  0  0  0
  4 20  1  6  0  0  0
  4 10  1  0  0  0  0
  5  6  1  0  0  0  0
  5 14  1  6  0  0  0
  6 21  1  1  0  0  0
  7 13  1  1  0  0  0
  7  6  1  0  0  0  0
  8  9  1  1  0  0  0
  8  7  1  0  0  0  0
 10 16  1  1  0  0  0
 11 10  1  0  0  0  0
 12 17  1  1  0  0  0
 12 11  1  0  0  0  0
 15  9  1  0  0  0  0
 22  8  1  0  0  0  0
 22  1  1  0  0  0  0
M  END
>  <CHROM.1>
-118.10721046,58.10062569,67.34994413,-5.06088657,-1.45815635,0.44458676
0.90019088,-0.09959581,0.48465081

>  <Name>
lig.pdb

>  <RI>
0

>  <Rbt.Current_Directory>
/home/itssahil/PROJECTS/Mol_Feturizer/New_Systems/rnas/5bws

>  <Rbt.Executable>
rbdock ($Id: //depot/dev/client3/rdock/2013.1/src/exe/rbdock.cxx#4 $)

>  <Rbt.Library>
libRbt.so (2013.1, Build901 2013/11/27)

>  <Rbt.Parameter_File>
/export/apps/rDock/src/rDock_2013.1_src/data/scripts/dock_solv.prm

>  <Rbt.Receptor>
prm/blind_docking_20.prm

>  <SCORE>
-4.71261

>  <SCORE.INTER>
-6.99254

>  <SCORE.INTER.CONST>
1

>  <SCORE.INTER.POLAR>
0

>  <SCORE.INTER.ROT>
3

>  <SCORE.INTER.SOLV>
23.3476

>  <SCORE.INTER.VDW>
-18.0442

>  <SCORE.INTER.norm>
-0.317843

>  <SCORE.INTRA>
2.03757

>  <SCORE.INTRA.DIHEDRAL>
1.28647

>  <SCORE.INTRA.DIHEDRAL.0>
6.10773

>  <SCORE.INTRA.POLAR>
0

>  <SCORE.INTRA.POLAR.0>
0

>  <SCORE.INTRA.REPUL>
0

>  <SCORE.INTRA.REPUL.0>
0

>  <SCORE.INTRA.SOLV>
2.01838

>  <SCORE.INTRA.SOLV.lig_0>
-71.4024

>  <SCORE.INTRA.VDW>
0.38515

>  <SCORE.INTRA.VDW.0>
-1.86213

>  <SCORE.INTRA.norm>
0.092617

>  <SCORE.RESTR>
0.24236

>  <SCORE.RESTR.CAVITY>
0.24236

>  <SCORE.RESTR.norm>
0.0110164

>  <SCORE.SYSTEM>
0

>  <SCORE.SYSTEM.CONST>
0

>  <SCORE.SYSTEM.DIHEDRAL>
0

>  <SCORE.SYSTEM.SOLV>
0

>  <SCORE.SYSTEM.norm>
0

>  <SCORE.heavy>
22

>  <SCORE.norm>
-0.214209

>  <RMSD>
6.342

$$$$
lig.pdb
 OpenBabel11021811523D
libRbt.so/2013.1/901 2013/11/27
 22 23  0  0  0  0  0  0  0  0999 V2000
   -7.4720   -0.8759    1.4281 C   0  0  1  0  0  0  0  0  0  0  0  0
   -7.0879   -2.7544   -0.2196 C   0  0  1  0  0  0  0  0  0  0  0  0
   -8.3180   -3.7136    0.1029 C   0  0  1  0  0  0  0  0  0  0  0  0
   -7.9149   -5.1928   -0.3385 C   0  0  2  0  0  0  0  0  0  0  0  0
   -7.9774    0.6182    1.3801 C   0  0  1  0  0  0  0  0  0  0  0  0
   -6.9462    1.4444    0.5861 C   0  0  2  0  0  0  0  0  0  0  0  0
   -5.5722    1.4189    1.2790 C   0  0  2  0  0  0  0  0  0  0  0  0
   -5.0190   -0.0485    1.3923 C   0  0  1  0  0  0  0  0  0  0  0  0
   -3.6558   -0.0851    2.1415 C   0  0  0  0  0  0  0  0  0  0  0  0
   -7.6517   -5.2166   -1.9298 C   0  0  1  0  0  0  0  0  0  0  0  0
   -6.4063   -4.2368   -2.2170 C   0  0  0  0  0  0  0  0  0  0  0  0
   -6.7690   -2.7529   -1.7486 C   0  0  2  0  0  0  0  0  0  0  0  0
   -5.6772    1.9945    2.6246 F   0  0  0  0  0  0  0  0  0  0  0  0
   -9.3383    0.6251    0.7159 N   0  0  0  0  0  0  0  0  0  0  0  0
   -3.0352   -1.3546    2.1837 N   0  0  0  0  0  0  0  0  0  0  0  0
   -7.2513   -6.5896   -2.3918 N   0  0  0  0  0  0  0  0  0  0  0  0
   -5.6223   -1.8600   -2.0131 N   0  0  0  0  0  0  0  0  0  0  0  0
   -7.4000   -1.4191    0.1471 O   0  0  0  0  0  0  0  0  0  0  0  0
   -8.5538   -3.6766    1.5655 O   0  0  0  0  0  0  0  0  0  0  0  0
   -9.0038   -6.0142   -0.0374 O   0  0  0  0  0  0  0  0  0  0  0  0
   -7.3155    2.5334    0.5544 O   0  0  0  0  0  0  0  0  0  0  0  0
   -6.1038   -0.8766    2.1049 O   0  0  0  0  0  0  0  0  0  0  0  0
  1  5  1  0  0  0  0
  1 18  1  6  0  0  0
  2 18  1  6  0  0  0
  2  3  1  0  0  0  0
  2 12  1  0  0  0  0
  3 19  1  1  0  0  0
  3  4  1  0  0  0  0
  4 20  1  6  0  0  0
  4 10  1  0  0  0  0
  5  6  1  0  0  0  0
  5 14  1  6  0  0  0
  6 21  1  1  0  0  0
  7 13  1  1  0  0  0
  7  6  1  0  0  0  0
  8  9  1  1  0  0  0
  8  7  1  0  0  0  0
 10 16  1  1  0  0  0
 11 10  1  0  0  0  0
 12 17  1  1  0  0  0
 12 11  1  0  0  0  0
 15  9  1  0  0  0  0
 22  8  1  0  0  0  0
 22  1  1  0  0  0  0
M  END
>  <CHROM.1>
-174.94341885,74.04918571,-174.77703634,-6.82311327,-1.67531781,0.39015335
1.31687445,-0.09928515,0.39360409

>  <Name>
lig.pdb

>  <RI>
0

>  <Rbt.Current_Directory>
/home/itssahil/PROJECTS/Mol_Feturizer/New_Systems/rnas/5bws

>  <Rbt.Executable>
rbdock ($Id: //depot/dev/client3/rdock/2013.1/src/exe/rbdock.cxx#4 $)

>  <Rbt.Library>
libRbt.so (2013.1, Build901 2013/11/27)

>  <Rbt.Parameter_File>
/export/apps/rDock/src/rDock_2013.1_src/data/scripts/dock_solv.prm

>  <Rbt.Receptor>
prm/pocket_docking_4.prm

>  <SCORE>
-11.3319

>  <SCORE.INTER>
-8.35023

>  <SCORE.INTER.CONST>
1

>  <SCORE.INTER.POLAR>
0

>  <SCORE.INTER.ROT>
3

>  <SCORE.INTER.SOLV>
20.847

>  <SCORE.INTER.VDW>
-18.1158

>  <SCORE.INTER.norm>
-0.379556

>  <SCORE.INTRA>
-2.98171

>  <SCORE.INTRA.DIHEDRAL>
-4.95161

>  <SCORE.INTRA.DIHEDRAL.0>
6.10773

>  <SCORE.INTRA.POLAR>
0

>  <SCORE.INTRA.POLAR.0>
0

>  <SCORE.INTRA.REPUL>
0

>  <SCORE.INTRA.REPUL.0>
0

>  <SCORE.INTRA.SOLV>
-1.33715

>  <SCORE.INTRA.SOLV.lig_0>
-71.4024

>  <SCORE.INTRA.VDW>
0.162672

>  <SCORE.INTRA.VDW.0>
-1.86213

>  <SCORE.INTRA.norm>
-0.135532

>  <SCORE.RESTR>
0

>  <SCORE.RESTR.CAVITY>
0

>  <SCORE.RESTR.norm>
0

>  <SCORE.SYSTEM>
0

>  <SCORE.SYSTEM.CONST>
0

>  <SCORE.SYSTEM.DIHEDRAL>
0

>  <SCORE.SYSTEM.SOLV>
0

>  <SCORE.SYSTEM.norm>
0

>  <SCORE.heavy>
22

>  <SCORE.norm>
-0.515088

>  <RMSD>
6.343

$$$$
lig.pdb
 OpenBabel11021811523D
libRbt.so/2013.1/901 2013/11/27
 22 23  0  0  0  0  0  0  0  0999 V2000
   -7.5754   -0.8211    1.3902 C   0  0  1  0  0  0  0  0  0  0  0  0
   -7.1753   -2.6902   -0.2643 C   0  0  1  0  0  0  0  0  0  0  0  0
   -8.3597   -3.6856    0.1141 C   0  0  1  0  0  0  0  0  0  0  0  0
   -7.9285   -5.1542   -0.3359 C   0  0  2  0  0  0  0  0  0  0  0  0
   -8.0383    0.6868    1.3441 C   0  0  1  0  0  0  0  0  0  0  0  0
   -6.9814    1.4854    0.5557 C   0  0  2  0  0  0  0  0  0  0  0  0
   -5.6112    1.4196    1.2533 C   0  0  2  0  0  0  0  0  0  0  0  0
   -5.0999   -0.0631    1.3650 C   0  0  1  0  0  0  0  0  0  0  0  0
   -3.7410   -0.1398    2.1188 C   0  0  0  0  0  0  0  0  0  0  0  0
   -7.7308   -5.1802   -1.9366 C   0  0  1  0  0  0  0  0  0  0  0  0
   -6.5302   -4.1634   -2.2805 C   0  0  0  0  0  0  0  0  0  0  0  0
   -6.9202   -2.6887   -1.8051 C   0  0  2  0  0  0  0  0  0  0  0  0
   -5.7046    1.9948    2.5999 F   0  0  0  0  0  0  0  0  0  0  0  0
   -9.3961    0.7336    0.6751 N   0  0  0  0  0  0  0  0  0  0  0  0
   -3.1522   -1.4246    2.1523 N   0  0  0  0  0  0  0  0  0  0  0  0
   -7.3064   -6.5428   -2.4078 N   0  0  0  0  0  0  0  0  0  0  0  0
   -5.8143   -1.7618   -2.1218 N   0  0  0  0  0  0  0  0  0  0  0  0
   -7.5142   -1.3631    0.1082 O   0  0  0  0  0  0  0  0  0  0  0  0
   -8.5359   -3.6465    1.5851 O   0  0  0  0  0  0  0  0  0  0  0  0
   -8.9773   -6.0077    0.0144 O   0  0  0  0  0  0  0  0  0  0  0  0
   -7.3197    2.5845    0.5253 O   0  0  0  0  0  0  0  0  0  0  0  0
   -6.2101   -0.8619    2.0718 O   0  0  0  0  0  0  0  0  0  0  0  0
  1  5  1  0  0  0  0
  1 18  1  6  0  0  0
  2 18  1  6  0  0  0
  2  3  1  0  0  0  0
  2 12  1  0  0  0  0
  3 19  1  1  0  0  0
  3  4  1  0  0  0  0
  4 20  1  6  0  0  0
  4 10  1  0  0  0  0
  5  6  1  0  0  0  0
  5 14  1  6  0  0  0
  6 21  1  1  0  0  0
  7 13  1  1  0  0  0
  7  6  1  0  0  0  0
  8  9  1  1  0  0  0
  8  7  1  0  0  0  0
 10 16  1  1  0  0  0
 11 10  1  0  0  0  0
 12 17  1  1  0  0  0
 12 11  1  0  0  0  0
 15  9  1  0  0  0  0
 22  8  1  0  0  0  0
 22  1  1  0  0  0  0
M  END
>  <CHROM.1>
-178.28843179,72.68543769,-174.36671702,-6.89098083,-1.64230466,0.36402332
1.32062768,-0.15676250,0.37622138

>  <Name>
lig.pdb

>  <RI>
0

>  <Rbt.Current_Directory>
/home/itssahil/PROJECTS/Mol_Feturizer/New_Systems/rnas/5bws

>  <Rbt.Executable>
rbdock ($Id: //depot/dev/client3/rdock/2013.1/src/exe/rbdock.cxx#4 $)

>  <Rbt.Library>
libRbt.so (2013.1, Build901 2013/11/27)

>  <Rbt.Parameter_File>
/export/apps/rDock/src/rDock_2013.1_src/data/scripts/dock_solv.prm

>  <Rbt.Receptor>
prm/pocket_docking_6.prm

>  <SCORE>
-11.4617

>  <SCORE.INTER>
-8.30573

>  <SCORE.INTER.CONST>
1

>  <SCORE.INTER.POLAR>
0

>  <SCORE.INTER.ROT>
3

>  <SCORE.INTER.SOLV>
21.464

>  <SCORE.INTER.VDW>
-18.2918

>  <SCORE.INTER.norm>
-0.377533

>  <SCORE.INTRA>
-3.15594

>  <SCORE.INTRA.DIHEDRAL>
-5.21218

>  <SCORE.INTRA.DIHEDRAL.0>
6.10773

>  <SCORE.INTRA.POLAR>
0

>  <SCORE.INTRA.POLAR.0>
0

>  <SCORE.INTRA.REPUL>
0

>  <SCORE.INTRA.REPUL.0>
0

>  <SCORE.INTRA.SOLV>
-1.4181

>  <SCORE.INTRA.SOLV.lig_0>
-71.4024

>  <SCORE.INTRA.VDW>
0.159205

>  <SCORE.INTRA.VDW.0>
-1.86213

>  <SCORE.INTRA.norm>
-0.143452

>  <SCORE.RESTR>
0

>  <SCORE.RESTR.CAVITY>
0

>  <SCORE.RESTR.norm>
0

>  <SCORE.SYSTEM>
0

>  <SCORE.SYSTEM.CONST>
0

>  <SCORE.SYSTEM.DIHEDRAL>
0

>  <SCORE.SYSTEM.SOLV>
0

>  <SCORE.SYSTEM.norm>
0

>  <SCORE.heavy>
22

>  <SCORE.norm>
-0.520985

>  <RMSD>
6.348

$$$$
lig.pdb
 OpenBabel11021811523D
libRbt.so/2013.1/901 2013/11/27
 22 23  0  0  0  0  0  0  0  0999 V2000
   -5.8209    1.3829    0.6516 C   0  0  1  0  0  0  0  0  0  0  0  0
   -6.2935   -1.0645    1.0736 C   0  0  1  0  0  0  0  0  0  0  0  0
   -7.8352   -1.0370    0.6746 C   0  0  1  0  0  0  0  0  0  0  0  0
   -8.2610   -2.5179    0.2613 C   0  0  2  0  0  0  0  0  0  0  0  0
   -5.0736    2.5563    1.3964 C   0  0  1  0  0  0  0  0  0  0  0  0
   -5.8749    2.8999    2.6678 C   0  0  2  0  0  0  0  0  0  0  0  0
   -7.2933    3.3778    2.3098 C   0  0  2  0  0  0  0  0  0  0  0  0
   -8.0893    2.2666    1.5328 C   0  0  1  0  0  0  0  0  0  0  0  0
   -9.5043    2.7652    1.1203 C   0  0  0  0  0  0  0  0  0  0  0  0
   -7.4071   -2.9730   -1.0294 C   0  0  1  0  0  0  0  0  0  0  0  0
   -5.8580   -2.9870   -0.5894 C   0  0  0  0  0  0  0  0  0  0  0  0
   -5.4140   -1.5215   -0.1335 C   0  0  2  0  0  0  0  0  0  0  0  0
   -7.2221    4.5841    1.4773 F   0  0  0  0  0  0  0  0  0  0  0  0
   -3.6738    2.0796    1.7230 N   0  0  0  0  0  0  0  0  0  0  0  0
  -10.2825    1.8225    0.4102 N   0  0  0  0  0  0  0  0  0  0  0  0
   -7.7619   -4.3723   -1.4475 N   0  0  0  0  0  0  0  0  0  0  0  0
   -3.9931   -1.5418    0.2703 N   0  0  0  0  0  0  0  0  0  0  0  0
   -5.8605    0.2362    1.4420 O   0  0  0  0  0  0  0  0  0  0  0  0
   -8.6070   -0.6105    1.8657 O   0  0  0  0  0  0  0  0  0  0  0  0
   -9.6160   -2.4691   -0.0745 O   0  0  0  0  0  0  0  0  0  0  0  0
   -5.3297    3.7569    3.2079 O   0  0  0  0  0  0  0  0  0  0  0  0
   -7.2281    1.8722    0.3192 O   0  0  0  0  0  0  0  0  0  0  0  0
  1  5  1  0  0  0  0
  1 18  1  1  0  0  0
  2 18  1  6  0  0  0
  2  3  1  0  0  0  0
  2 12  1  0  0  0  0
  3 19  1  1  0  0  0
  3  4  1  0  0  0  0
  4 20  1  6  0  0  0
  4 10  1  0  0  0  0
  5  6  1  0  0  0  0
  5 14  1  1  0  0  0
  6 21  1  6  0  0  0
  7 13  1  6  0  0  0
  7  6  1  0  0  0  0
  8  9  1  6  0  0  0
  8  7  1  0  0  0  0
 10 16  1  1  0  0  0
 11 10  1  0  0  0  0
 12 17  1  1  0  0  0
 12 11  1  0  0  0  0
 15  9  1  0  0  0  0
 22  8  1  0  0  0  0
 22  1  1  0  0  0  0
M  END
>  <CHROM.1>
-171.64179327,-62.56777461,179.74171382,-6.94637412,0.46041065,0.89224034
-1.43696344,0.09721709,-2.79088731

>  <Name>
lig.pdb

>  <RI>
0

>  <Rbt.Current_Directory>
/home/itssahil/PROJECTS/Mol_Feturizer/New_Systems/rnas/5bws

>  <Rbt.Executable>
rbdock ($Id: //depot/dev/client3/rdock/2013.1/src/exe/rbdock.cxx#4 $)

>  <Rbt.Library>
libRbt.so (2013.1, Build901 2013/11/27)

>  <Rbt.Parameter_File>
/export/apps/rDock/src/rDock_2013.1_src/data/scripts/dock_solv.prm

>  <Rbt.Receptor>
prm/pocket_docking_5.prm

>  <SCORE>
-8.93159

>  <SCORE.INTER>
-6.58349

>  <SCORE.INTER.CONST>
1

>  <SCORE.INTER.POLAR>
0

>  <SCORE.INTER.ROT>
3

>  <SCORE.INTER.SOLV>
15.7182

>  <SCORE.INTER.VDW>
-15.2284

>  <SCORE.INTER.norm>
-0.299249

>  <SCORE.INTRA>
-2.3481

>  <SCORE.INTRA.DIHEDRAL>
-5.73309

>  <SCORE.INTRA.DIHEDRAL.0>
6.10773

>  <SCORE.INTRA.POLAR>
0

>  <SCORE.INTRA.POLAR.0>
0

>  <SCORE.INTRA.REPUL>
0

>  <SCORE.INTRA.REPUL.0>
0

>  <SCORE.INTRA.SOLV>
1.24289

>  <SCORE.INTRA.SOLV.lig_0>
-71.4024

>  <SCORE.INTRA.VDW>
-0.103

>  <SCORE.INTRA.VDW.0>
-1.86213

>  <SCORE.INTRA.norm>
-0.106732

>  <SCORE.RESTR>
0

>  <SCORE.RESTR.CAVITY>
0

>  <SCORE.RESTR.norm>
0

>  <SCORE.SYSTEM>
0

>  <SCORE.SYSTEM.CONST>
0

>  <SCORE.SYSTEM.DIHEDRAL>
0

>  <SCORE.SYSTEM.SOLV>
0

>  <SCORE.SYSTEM.norm>
0

>  <SCORE.heavy>
22

>  <SCORE.norm>
-0.405981

>  <RMSD>
6.349

$$$$
lig.pdb
 OpenBabel11021811523D
libRbt.so/2013.1/901 2013/11/27
 22 23  0  0  0  0  0  0  0  0999 V2000
   -7.5525   -0.8219    1.3883 C   0  0  1  0  0  0  0  0  0  0  0  0
   -7.1616   -2.6928   -0.2665 C   0  0  1  0  0  0  0  0  0  0  0  0
   -8.3529   -3.6771    0.1197 C   0  0  1  0  0  0  0  0  0  0  0  0
   -7.9371   -5.1501   -0.3304 C   0  0  2  0  0  0  0  0  0  0  0  0
   -8.0072    0.6884    1.3421 C   0  0  1  0  0  0  0  0  0  0  0  0
   -6.9416    1.4827    0.5611 C   0  0  2  0  0  0  0  0  0  0  0  0
   -5.5757    1.4085    1.2664 C   0  0  2  0  0  0  0  0  0  0  0  0
   -5.0730   -0.0771    1.3786 C   0  0  1  0  0  0  0  0  0  0  0  0
   -3.7188   -0.1623    2.1401 C   0  0  0  0  0  0  0  0  0  0  0  0
   -7.7481   -5.1802   -1.9321 C   0  0  1  0  0  0  0  0  0  0  0  0
   -6.5404   -4.1746   -2.2839 C   0  0  0  0  0  0  0  0  0  0  0  0
   -6.9147   -2.6958   -1.8087 C   0  0  2  0  0  0  0  0  0  0  0  0
   -5.6739    1.9820    2.6135 F   0  0  0  0  0  0  0  0  0  0  0  0
   -9.3608    0.7436    0.6654 N   0  0  0  0  0  0  0  0  0  0  0  0
   -3.1359   -1.4497    2.1729 N   0  0  0  0  0  0  0  0  0  0  0  0
   -7.3384   -6.5472   -2.4034 N   0  0  0  0  0  0  0  0  0  0  0  0
   -5.8024   -1.7792   -2.1327 N   0  0  0  0  0  0  0  0  0  0  0  0
   -7.4868   -1.3621    0.1057 O   0  0  0  0  0  0  0  0  0  0  0  0
   -8.5209   -3.6342    1.5915 O   0  0  0  0  0  0  0  0  0  0  0  0
   -8.9915   -5.9937    0.0268 O   0  0  0  0  0  0  0  0  0  0  0  0
   -7.2738    2.5837    0.5306 O   0  0  0  0  0  0  0  0  0  0  0  0
   -6.1914   -0.8711    2.0776 O   0  0  0  0  0  0  0  0  0  0  0  0
  1  5  1  0  0  0  0
  1 18  1  6  0  0  0
  2 18  1  6  0  0  0
  2  3  1  0  0  0  0
  2 12  1  0  0  0  0
  3 19  1  1  0  0  0
  3  4  1  0  0  0  0
  4 20  1  6  0  0  0
  4 10  1  0  0  0  0
  5  6  1  0  0  0  0
  5 14  1  6  0  0  0
  6 21  1  1  0  0  0
  7 13  1  1  0  0  0
  7  6  1  0  0  0  0
  8  9  1  1  0  0  0
  8  7  1  0  0  0  0
 10 16  1  1  0  0  0
 11 10  1  0  0  0  0
 12 17  1  1  0  0  0
 12 11  1  0  0  0  0
 15  9  1  0  0  0  0
 22  8  1  0  0  0  0
 22  1  1  0  0  0  0
M  END
>  <CHROM.1>
-177.81690915,71.81386672,-174.26663729,-6.87594241,-1.64635684,0.36883492
1.31325078,-0.17070319,0.37359269

>  <Name>
lig.pdb

>  <RI>
0

>  <Rbt.Current_Directory>
/home/itssahil/PROJECTS/Mol_Feturizer/New_Systems/rnas/5bws

>  <Rbt.Executable>
rbdock ($Id: //depot/dev/client3/rdock/2013.1/src/exe/rbdock.cxx#4 $)

>  <Rbt.Library>
libRbt.so (2013.1, Build901 2013/11/27)

>  <Rbt.Parameter_File>
/export/apps/rDock/src/rDock_2013.1_src/data/scripts/dock_solv.prm

>  <Rbt.Receptor>
prm/pocket_docking_7.prm

>  <SCORE>
-11.448

>  <SCORE.INTER>
-8.25084

>  <SCORE.INTER.CONST>
1

>  <SCORE.INTER.POLAR>
0

>  <SCORE.INTER.ROT>
3

>  <SCORE.INTER.SOLV>
21.6728

>  <SCORE.INTER.VDW>
-18.3248

>  <SCORE.INTER.norm>
-0.375038

>  <SCORE.INTRA>
-3.19711

>  <SCORE.INTRA.DIHEDRAL>
-5.29732

>  <SCORE.INTRA.DIHEDRAL.0>
6.10773

>  <SCORE.INTRA.POLAR>
0

>  <SCORE.INTRA.POLAR.0>
0

>  <SCORE.INTRA.REPUL>
0

>  <SCORE.INTRA.REPUL.0>
0

>  <SCORE.INTRA.SOLV>
-1.44768

>  <SCORE.INTRA.SOLV.lig_0>
-71.4024

>  <SCORE.INTRA.VDW>
0.175391

>  <SCORE.INTRA.VDW.0>
-1.86213

>  <SCORE.INTRA.norm>
-0.145323

>  <SCORE.RESTR>
0

>  <SCORE.RESTR.CAVITY>
0

>  <SCORE.RESTR.norm>
0

>  <SCORE.SYSTEM>
0

>  <SCORE.SYSTEM.CONST>
0

>  <SCORE.SYSTEM.DIHEDRAL>
0

>  <SCORE.SYSTEM.SOLV>
0

>  <SCORE.SYSTEM.norm>
0

>  <SCORE.heavy>
22

>  <SCORE.norm>
-0.520362

>  <RMSD>
6.350

$$$$
lig.pdb
 OpenBabel11021811523D
libRbt.so/2013.1/901 2013/11/27
 22 23  0  0  0  0  0  0  0  0999 V2000
   -7.5752   -0.8240    1.3831 C   0  0  1  0  0  0  0  0  0  0  0  0
   -7.1733   -2.6961   -0.2676 C   0  0  1  0  0  0  0  0  0  0  0  0
   -8.3560   -3.6900    0.1203 C   0  0  1  0  0  0  0  0  0  0  0  0
   -7.9273   -5.1602   -0.3268 C   0  0  2  0  0  0  0  0  0  0  0  0
   -8.0374    0.6840    1.3337 C   0  0  1  0  0  0  0  0  0  0  0  0
   -6.9778    1.4812    0.5477 C   0  0  2  0  0  0  0  0  0  0  0  0
   -5.6097    1.4158    1.2496 C   0  0  2  0  0  0  0  0  0  0  0  0
   -5.0994   -0.0669    1.3647 C   0  0  1  0  0  0  0  0  0  0  0  0
   -3.7428   -0.1432    2.1229 C   0  0  0  0  0  0  0  0  0  0  0  0
   -7.7378   -5.1918   -1.9284 C   0  0  1  0  0  0  0  0  0  0  0  0
   -6.5388   -4.1764   -2.2820 C   0  0  0  0  0  0  0  0  0  0  0  0
   -6.9261   -2.7000   -1.8097 C   0  0  2  0  0  0  0  0  0  0  0  0
   -5.7072    1.9928    2.5952 F   0  0  0  0  0  0  0  0  0  0  0  0
   -9.3931    0.7304    0.6604 N   0  0  0  0  0  0  0  0  0  0  0  0
   -3.1686   -1.4335    2.1845 N   0  0  0  0  0  0  0  0  0  0  0  0
   -7.3161   -6.5561   -2.3970 N   0  0  0  0  0  0  0  0  0  0  0  0
   -5.8218   -1.7744   -2.1353 N   0  0  0  0  0  0  0  0  0  0  0  0
   -7.5101   -1.3676    0.1020 O   0  0  0  0  0  0  0  0  0  0  0  0
   -8.5246   -3.6458    1.5921 O   0  0  0  0  0  0  0  0  0  0  0  0
   -8.9744   -6.0122    0.0319 O   0  0  0  0  0  0  0  0  0  0  0  0
   -7.3156    2.5804    0.5148 O   0  0  0  0  0  0  0  0  0  0  0  0
   -6.2120   -0.8644    2.0690 O   0  0  0  0  0  0  0  0  0  0  0  0
  1  5  1  0  0  0  0
  1 18  1  6  0  0  0
  2 18  1  6  0  0  0
  2  3  1  0  0  0  0
  2 12  1  0  0  0  0
  3 19  1  1  0  0  0
  3  4  1  0  0  0  0
  4 20  1  6  0  0  0
  4 10  1  0  0  0  0
  5  6  1  0  0  0  0
  5 14  1  6  0  0  0
  6 21  1  1  0  0  0
  7 13  1  1  0  0  0
  7  6  1  0  0  0  0
  8  9  1  1  0  0  0
  8  7  1  0  0  0  0
 10 16  1  1  0  0  0
 11 10  1  0  0  0  0
 12 17  1  1  0  0  0
 12 11  1  0  0  0  0
 15  9  1  0  0  0  0
 22  8  1  0  0  0  0
 22  1  1  0  0  0  0
M  END
>  <CHROM.1>
-178.13862235,72.11787270,-175.65746406,-6.89189612,-1.64797293,0.36419929
1.31979976,-0.17145713,0.37103653

>  <Name>
lig.pdb

>  <RI>
0

>  <Rbt.Current_Directory>
/home/itssahil/PROJECTS/Mol_Feturizer/New_Systems/rnas/5bws

>  <Rbt.Executable>
rbdock ($Id: //depot/dev/client3/rdock/2013.1/src/exe/rbdock.cxx#4 $)

>  <Rbt.Library>
libRbt.so (2013.1, Build901 2013/11/27)

>  <Rbt.Parameter_File>
/export/apps/rDock/src/rDock_2013.1_src/data/scripts/dock_solv.prm

>  <Rbt.Receptor>
prm/pocket_docking_3.prm

>  <SCORE>
-11.4683

>  <SCORE.INTER>
-8.26422

>  <SCORE.INTER.CONST>
1

>  <SCORE.INTER.POLAR>
0

>  <SCORE.INTER.ROT>
3

>  <SCORE.INTER.SOLV>
21.5519

>  <SCORE.INTER.VDW>
-18.2935

>  <SCORE.INTER.norm>
-0.375646

>  <SCORE.INTRA>
-3.20409

>  <SCORE.INTRA.DIHEDRAL>
-5.32014

>  <SCORE.INTRA.DIHEDRAL.0>
6.10773

>  <SCORE.INTRA.POLAR>
0

>  <SCORE.INTRA.POLAR.0>
0

>  <SCORE.INTRA.REPUL>
0

>  <SCORE.INTRA.REPUL.0>
0

>  <SCORE.INTRA.SOLV>
-1.42493

>  <SCORE.INTRA.SOLV.lig_0>
-71.4024

>  <SCORE.INTRA.VDW>
0.168447

>  <SCORE.INTRA.VDW.0>
-1.86213

>  <SCORE.INTRA.norm>
-0.14564

>  <SCORE.RESTR>
0

>  <SCORE.RESTR.CAVITY>
0

>  <SCORE.RESTR.norm>
0

>  <SCORE.SYSTEM>
0

>  <SCORE.SYSTEM.CONST>
0

>  <SCORE.SYSTEM.DIHEDRAL>
0

>  <SCORE.SYSTEM.SOLV>
0

>  <SCORE.SYSTEM.norm>
0

>  <SCORE.heavy>
22

>  <SCORE.norm>
-0.521287

>  <RMSD>
6.351

$$$$
lig.pdb
 OpenBabel11021811523D
libRbt.so/2013.1/901 2013/11/27
 22 23  0  0  0  0  0  0  0  0999 V2000
   -7.4861   -0.9163    1.3890 C   0  0  1  0  0  0  0  0  0  0  0  0
   -7.1350   -2.7910   -0.2704 C   0  0  1  0  0  0  0  0  0  0  0  0
   -8.3340   -3.7699    0.1055 C   0  0  1  0  0  0  0  0  0  0  0  0
   -7.9250   -5.2432   -0.3496 C   0  0  2  0  0  0  0  0  0  0  0  0
   -7.9026    0.6051    1.3466 C   0  0  1  0  0  0  0  0  0  0  0  0
   -6.8291    1.3705    0.5478 C   0  0  2  0  0  0  0  0  0  0  0  0
   -5.4550    1.2625    1.2323 C   0  0  2  0  0  0  0  0  0  0  0  0
   -4.9887   -0.2353    1.3398 C   0  0  1  0  0  0  0  0  0  0  0  0
   -3.6257   -0.3538    2.0807 C   0  0  0  0  0  0  0  0  0  0  0  0
   -7.7287   -5.2668   -1.9506 C   0  0  1  0  0  0  0  0  0  0  0  0
   -6.5132   -4.2669   -2.2919 C   0  0  0  0  0  0  0  0  0  0  0  0
   -6.8809   -2.7882   -1.8114 C   0  0  2  0  0  0  0  0  0  0  0  0
   -5.5177    1.8406    2.5795 F   0  0  0  0  0  0  0  0  0  0  0  0
   -9.2646    0.6938    0.6905 N   0  0  0  0  0  0  0  0  0  0  0  0
   -3.0914   -1.6615    2.1357 N   0  0  0  0  0  0  0  0  0  0  0  0
   -7.3250   -6.6340   -2.4265 N   0  0  0  0  0  0  0  0  0  0  0  0
   -5.7616   -1.8768   -2.1257 N   0  0  0  0  0  0  0  0  0  0  0  0
   -7.4539   -1.4602    0.1067 O   0  0  0  0  0  0  0  0  0  0  0  0
   -8.5087   -3.7331    1.5767 O   0  0  0  0  0  0  0  0  0  0  0  0
   -8.9862   -6.0821   -0.0014 O   0  0  0  0  0  0  0  0  0  0  0  0
   -7.1335    2.4796    0.5200 O   0  0  0  0  0  0  0  0  0  0  0  0
   -6.1163   -0.9992    2.0575 O   0  0  0  0  0  0  0  0  0  0  0  0
  1  5  1  0  0  0  0
  1 18  1  6  0  0  0
  2 18  1  6  0  0  0
  2  3  1  0  0  0  0
  2 12  1  0  0  0  0
  3 19  1  1  0  0  0
  3  4  1  0  0  0  0
  4 20  1  6  0  0  0
  4 10  1  0  0  0  0
  5  6  1  0  0  0  0
  5 14  1  6  0  0  0
  6 21  1  1  0  0  0
  7 13  1  1  0  0  0
  7  6  1  0  0  0  0
  8  9  1  1  0  0  0
  8  7  1  0  0  0  0
 10 16  1  1  0  0  0
 11 10  1  0  0  0  0
 12 17  1  1  0  0  0
 12 11  1  0  0  0  0
 15  9  1  0  0  0  0
 22  8  1  0  0  0  0
 22  1  1  0  0  0  0
M  END
>  <CHROM.1>
-179.59690548,73.77572994,-175.74229928,-6.81388747,-1.75794734,0.35296942
1.29970363,-0.16408806,0.37227612

>  <Name>
lig.pdb

>  <RI>
0

>  <Rbt.Current_Directory>
/home/itssahil/PROJECTS/Mol_Feturizer/New_Systems/rnas/5bws

>  <Rbt.Executable>
rbdock ($Id: //depot/dev/client3/rdock/2013.1/src/exe/rbdock.cxx#4 $)

>  <Rbt.Library>
libRbt.so (2013.1, Build901 2013/11/27)

>  <Rbt.Parameter_File>
/export/apps/rDock/src/rDock_2013.1_src/data/scripts/dock_solv.prm

>  <Rbt.Receptor>
prm/pocket_docking_7.prm

>  <SCORE>
-11.405

>  <SCORE.INTER>
-8.28651

>  <SCORE.INTER.CONST>
1

>  <SCORE.INTER.POLAR>
0

>  <SCORE.INTER.ROT>
3

>  <SCORE.INTER.SOLV>
22.1462

>  <SCORE.INTER.VDW>
-18.5064

>  <SCORE.INTER.norm>
-0.37666

>  <SCORE.INTRA>
-3.11844

>  <SCORE.INTRA.DIHEDRAL>
-5.14322

>  <SCORE.INTRA.DIHEDRAL.0>
6.10773

>  <SCORE.INTRA.POLAR>
0

>  <SCORE.INTRA.POLAR.0>
0

>  <SCORE.INTRA.REPUL>
0

>  <SCORE.INTRA.REPUL.0>
0

>  <SCORE.INTRA.SOLV>
-1.36678

>  <SCORE.INTRA.SOLV.lig_0>
-71.4024

>  <SCORE.INTRA.VDW>
0.136555

>  <SCORE.INTRA.VDW.0>
-1.86213

>  <SCORE.INTRA.norm>
-0.141747

>  <SCORE.RESTR>
0

>  <SCORE.RESTR.CAVITY>
0

>  <SCORE.RESTR.norm>
0

>  <SCORE.SYSTEM>
0

>  <SCORE.SYSTEM.CONST>
0

>  <SCORE.SYSTEM.DIHEDRAL>
0

>  <SCORE.SYSTEM.SOLV>
0

>  <SCORE.SYSTEM.norm>
0

>  <SCORE.heavy>
22

>  <SCORE.norm>
-0.518407

>  <RMSD>
6.351

$$$$
lig.pdb
 OpenBabel11021811523D
libRbt.so/2013.1/901 2013/11/27
 22 23  0  0  0  0  0  0  0  0999 V2000
   -7.5751   -0.8325    1.4104 C   0  0  1  0  0  0  0  0  0  0  0  0
   -7.1895   -2.6996   -0.2500 C   0  0  1  0  0  0  0  0  0  0  0  0
   -8.3822   -3.6916    0.1113 C   0  0  1  0  0  0  0  0  0  0  0  0
   -7.9535   -5.1595   -0.3434 C   0  0  2  0  0  0  0  0  0  0  0  0
   -8.0458    0.6732    1.3710 C   0  0  1  0  0  0  0  0  0  0  0  0
   -7.0017    1.4776    0.5714 C   0  0  2  0  0  0  0  0  0  0  0  0
   -5.6234    1.4177    1.2534 C   0  0  2  0  0  0  0  0  0  0  0  0
   -5.1038   -0.0626    1.3579 C   0  0  1  0  0  0  0  0  0  0  0  0
   -3.7360   -0.1334    2.0962 C   0  0  0  0  0  0  0  0  0  0  0  0
   -7.7408   -5.1769   -1.9423 C   0  0  1  0  0  0  0  0  0  0  0  0
   -6.5323   -4.1637   -2.2688 C   0  0  0  0  0  0  0  0  0  0  0  0
   -6.9199   -2.6901   -1.7883 C   0  0  2  0  0  0  0  0  0  0  0  0
   -5.7044    1.9913    2.6016 F   0  0  0  0  0  0  0  0  0  0  0  0
   -9.4113    0.7140    0.7174 N   0  0  0  0  0  0  0  0  0  0  0  0
   -3.1727   -1.4273    2.1800 N   0  0  0  0  0  0  0  0  0  0  0  0
   -7.3184   -6.5386   -2.4176 N   0  0  0  0  0  0  0  0  0  0  0  0
   -5.8068   -1.7665   -2.0890 N   0  0  0  0  0  0  0  0  0  0  0  0
   -7.5258   -1.3730    0.1272 O   0  0  0  0  0  0  0  0  0  0  0  0
   -8.5720   -3.6604    1.5808 O   0  0  0  0  0  0  0  0  0  0  0  0
   -9.0095   -6.0100   -0.0081 O   0  0  0  0  0  0  0  0  0  0  0  0
   -7.3456    2.5751    0.5459 O   0  0  0  0  0  0  0  0  0  0  0  0
   -6.2020   -0.8673    2.0764 O   0  0  0  0  0  0  0  0  0  0  0  0
  1  5  1  0  0  0  0
  1 18  1  6  0  0  0
  2 18  1  6  0  0  0
  2  3  1  0  0  0  0
  2 12  1  0  0  0  0
  3 19  1  1  0  0  0
  3  4  1  0  0  0  0
  4 20  1  6  0  0  0
  4 10  1  0  0  0  0
  5  6  1  0  0  0  0
  5 14  1  6  0  0  0
  6 21  1  1  0  0  0
  7 13  1  1  0  0  0
  7  6  1  0  0  0  0
  8  9  1  1  0  0  0
  8  7  1  0  0  0  0
 10 16  1  1  0  0  0
 11 10  1  0  0  0  0
 12 17  1  1  0  0  0
 12 11  1  0  0  0  0
 15  9  1  0  0  0  0
 22  8  1  0  0  0  0
 22  1  1  0  0  0  0
M  END
>  <CHROM.1>
-178.03028224,73.85050898,-177.37810175,-6.90240369,-1.64754875,0.37163020
1.31901878,-0.13798044,0.38253348

>  <Name>
lig.pdb

>  <RI>
0

>  <Rbt.Current_Directory>
/home/itssahil/PROJECTS/Mol_Feturizer/New_Systems/rnas/5bws

>  <Rbt.Executable>
rbdock ($Id: //depot/dev/client3/rdock/2013.1/src/exe/rbdock.cxx#4 $)

>  <Rbt.Library>
libRbt.so (2013.1, Build901 2013/11/27)

>  <Rbt.Parameter_File>
/export/apps/rDock/src/rDock_2013.1_src/data/scripts/dock_solv.prm

>  <Rbt.Receptor>
prm/pocket_docking_5.prm

>  <SCORE>
-11.35

>  <SCORE.INTER>
-8.26177

>  <SCORE.INTER.CONST>
1

>  <SCORE.INTER.POLAR>
0

>  <SCORE.INTER.ROT>
3

>  <SCORE.INTER.SOLV>
21.5036

>  <SCORE.INTER.VDW>
-18.2757

>  <SCORE.INTER.norm>
-0.375535

>  <SCORE.INTRA>
-3.08819

>  <SCORE.INTRA.DIHEDRAL>
-5.15592

>  <SCORE.INTRA.DIHEDRAL.0>
6.10773

>  <SCORE.INTRA.POLAR>
0

>  <SCORE.INTRA.POLAR.0>
0

>  <SCORE.INTRA.REPUL>
0

>  <SCORE.INTRA.REPUL.0>
0

>  <SCORE.INTRA.SOLV>
-1.33508

>  <SCORE.INTRA.SOLV.lig_0>
-71.4024

>  <SCORE.INTRA.VDW>
0.157302

>  <SCORE.INTRA.VDW.0>
-1.86213

>  <SCORE.INTRA.norm>
-0.140372

>  <SCORE.RESTR>
0

>  <SCORE.RESTR.CAVITY>
0

>  <SCORE.RESTR.norm>
0

>  <SCORE.SYSTEM>
0

>  <SCORE.SYSTEM.CONST>
0

>  <SCORE.SYSTEM.DIHEDRAL>
0

>  <SCORE.SYSTEM.SOLV>
0

>  <SCORE.SYSTEM.norm>
0

>  <SCORE.heavy>
22

>  <SCORE.norm>
-0.515908

>  <RMSD>
6.352

$$$$
lig.pdb
 OpenBabel11021811523D
libRbt.so/2013.1/901 2013/11/27
 22 23  0  0  0  0  0  0  0  0999 V2000
   -7.5676   -0.8321    1.3888 C   0  0  1  0  0  0  0  0  0  0  0  0
   -7.1740   -2.7016   -0.2668 C   0  0  1  0  0  0  0  0  0  0  0  0
   -8.3609   -3.6922    0.1166 C   0  0  1  0  0  0  0  0  0  0  0  0
   -7.9371   -5.1627   -0.3343 C   0  0  2  0  0  0  0  0  0  0  0  0
   -8.0379    0.6736    1.3446 C   0  0  1  0  0  0  0  0  0  0  0  0
   -6.9864    1.4778    0.5547 C   0  0  2  0  0  0  0  0  0  0  0  0
   -5.6145    1.4181    1.2495 C   0  0  2  0  0  0  0  0  0  0  0  0
   -5.0959   -0.0622    1.3593 C   0  0  1  0  0  0  0  0  0  0  0  0
   -3.7352   -0.1328    2.1105 C   0  0  0  0  0  0  0  0  0  0  0  0
   -7.7457   -5.1901   -1.9358 C   0  0  1  0  0  0  0  0  0  0  0  0
   -6.5424   -4.1782   -2.2848 C   0  0  0  0  0  0  0  0  0  0  0  0
   -6.9248   -2.7018   -1.8086 C   0  0  2  0  0  0  0  0  0  0  0  0
   -5.7082    1.9921    2.5968 F   0  0  0  0  0  0  0  0  0  0  0  0
   -9.3972    0.7142    0.6782 N   0  0  0  0  0  0  0  0  0  0  0  0
   -3.1465   -1.4173    2.1534 N   0  0  0  0  0  0  0  0  0  0  0  0
   -7.3285   -6.5546   -2.4079 N   0  0  0  0  0  0  0  0  0  0  0  0
   -5.8166   -1.7793   -2.1300 N   0  0  0  0  0  0  0  0  0  0  0  0
   -7.5063   -1.3729    0.1063 O   0  0  0  0  0  0  0  0  0  0  0  0
   -8.5312   -3.6517    1.5883 O   0  0  0  0  0  0  0  0  0  0  0  0
   -8.9878   -6.0118    0.0205 O   0  0  0  0  0  0  0  0  0  0  0  0
   -7.3301    2.5753    0.5256 O   0  0  0  0  0  0  0  0  0  0  0  0
   -6.2009   -0.8667    2.0677 O   0  0  0  0  0  0  0  0  0  0  0  0
  1  5  1  0  0  0  0
  1 18  1  6  0  0  0
  2 18  1  6  0  0  0
  2  3  1  0  0  0  0
  2 12  1  0  0  0  0
  3 19  1  1  0  0  0
  3  4  1  0  0  0  0
  4 20  1  6  0  0  0
  4 10  1  0  0  0  0
  5  6  1  0  0  0  0
  5 14  1  6  0  0  0
  6 21  1  1  0  0  0
  7 13  1  1  0  0  0
  7  6  1  0  0  0  0
  8  9  1  1  0  0  0
  8  7  1  0  0  0  0
 10 16  1  1  0  0  0
 11 10  1  0  0  0  0
 12 17  1  1  0  0  0
 12 11  1  0  0  0  0
 15  9  1  0  0  0  0
 22  8  1  0  0  0  0
 22  1  1  0  0  0  0
M  END
>  <CHROM.1>
-177.63246447,72.29501925,-174.96369573,-6.89332291,-1.64976758,0.36274863
1.31856077,-0.15370942,0.37662339

>  <Name>
lig.pdb

>  <RI>
0

>  <Rbt.Current_Directory>
/home/itssahil/PROJECTS/Mol_Feturizer/New_Systems/rnas/5bws

>  <Rbt.Executable>
rbdock ($Id: //depot/dev/client3/rdock/2013.1/src/exe/rbdock.cxx#4 $)

>  <Rbt.Library>
libRbt.so (2013.1, Build901 2013/11/27)

>  <Rbt.Parameter_File>
/export/apps/rDock/src/rDock_2013.1_src/data/scripts/dock_solv.prm

>  <Rbt.Receptor>
prm/pocket_docking_5.prm

>  <SCORE>
-11.4646

>  <SCORE.INTER>
-8.28761

>  <SCORE.INTER.CONST>
1

>  <SCORE.INTER.POLAR>
0

>  <SCORE.INTER.ROT>
3

>  <SCORE.INTER.SOLV>
21.5314

>  <SCORE.INTER.VDW>
-18.3022

>  <SCORE.INTER.norm>
-0.37671

>  <SCORE.INTRA>
-3.17702

>  <SCORE.INTRA.DIHEDRAL>
-5.26645

>  <SCORE.INTRA.DIHEDRAL.0>
6.10773

>  <SCORE.INTRA.POLAR>
0

>  <SCORE.INTRA.POLAR.0>
0

>  <SCORE.INTRA.REPUL>
0

>  <SCORE.INTRA.REPUL.0>
0

>  <SCORE.INTRA.SOLV>
-1.42226

>  <SCORE.INTRA.SOLV.lig_0>
-71.4024

>  <SCORE.INTRA.VDW>
0.167337

>  <SCORE.INTRA.VDW.0>
-1.86213

>  <SCORE.INTRA.norm>
-0.14441

>  <SCORE.RESTR>
0

>  <SCORE.RESTR.CAVITY>
0

>  <SCORE.RESTR.norm>
0

>  <SCORE.SYSTEM>
0

>  <SCORE.SYSTEM.CONST>
0

>  <SCORE.SYSTEM.DIHEDRAL>
0

>  <SCORE.SYSTEM.SOLV>
0

>  <SCORE.SYSTEM.norm>
0

>  <SCORE.heavy>
22

>  <SCORE.norm>
-0.52112

>  <RMSD>
6.353

$$$$
lig.pdb
 OpenBabel11021811523D
libRbt.so/2013.1/901 2013/11/27
 22 23  0  0  0  0  0  0  0  0999 V2000
   -7.4366   -0.9285    1.3912 C   0  0  1  0  0  0  0  0  0  0  0  0
   -7.0969   -2.8065   -0.2668 C   0  0  1  0  0  0  0  0  0  0  0  0
   -8.3144   -3.7619    0.1101 C   0  0  1  0  0  0  0  0  0  0  0  0
   -7.9332   -5.2435   -0.3425 C   0  0  2  0  0  0  0  0  0  0  0  0
   -7.9085    0.5767    1.3529 C   0  0  1  0  0  0  0  0  0  0  0  0
   -6.8675    1.3818    0.5501 C   0  0  2  0  0  0  0  0  0  0  0  0
   -5.4871    1.3232    1.2281 C   0  0  2  0  0  0  0  0  0  0  0  0
   -4.9660   -0.1567    1.3314 C   0  0  1  0  0  0  0  0  0  0  0  0
   -3.5961   -0.2263    2.0657 C   0  0  0  0  0  0  0  0  0  0  0  0
   -7.7368   -5.2733   -1.9433 C   0  0  1  0  0  0  0  0  0  0  0  0
   -6.5024   -4.2972   -2.2857 C   0  0  0  0  0  0  0  0  0  0  0  0
   -6.8421   -2.8110   -1.8077 C   0  0  2  0  0  0  0  0  0  0  0  0
   -5.5646    1.8970    2.5764 F   0  0  0  0  0  0  0  0  0  0  0  0
   -9.2760    0.6164    0.7033 N   0  0  0  0  0  0  0  0  0  0  0  0
   -3.0117   -1.5128    2.1119 N   0  0  0  0  0  0  0  0  0  0  0  0
   -7.3589   -6.6487   -2.4169 N   0  0  0  0  0  0  0  0  0  0  0  0
   -5.7056   -1.9215   -2.1231 N   0  0  0  0  0  0  0  0  0  0  0  0
   -7.3906   -1.4693    0.1080 O   0  0  0  0  0  0  0  0  0  0  0  0
   -8.4889   -3.7194    1.5812 O   0  0  0  0  0  0  0  0  0  0  0  0
   -9.0102   -6.0615    0.0066 O   0  0  0  0  0  0  0  0  0  0  0  0
   -7.2123    2.4790    0.5254 O   0  0  0  0  0  0  0  0  0  0  0  0
   -6.0615   -0.9622    2.0532 O   0  0  0  0  0  0  0  0  0  0  0  0
  1  5  1  0  0  0  0
  1 18  1  6  0  0  0
  2 18  1  6  0  0  0
  2  3  1  0  0  0  0
  2 12  1  0  0  0  0
  3 19  1  1  0  0  0
  3  4  1  0  0  0  0
  4 20  1  6  0  0  0
  4 10  1  0  0  0  0
  5  6  1  0  0  0  0
  5 14  1  6  0  0  0
  6 21  1  1  0  0  0
  7 13  1  1  0  0  0
  7  6  1  0  0  0  0
  8  9  1  1  0  0  0
  8  7  1  0  0  0  0
 10 16  1  1  0  0  0
 11 10  1  0  0  0  0
 12 17  1  1  0  0  0
 12 11  1  0  0  0  0
 15  9  1  0  0  0  0
 22  8  1  0  0  0  0
 22  1  1  0  0  0  0
M  END
>  <CHROM.1>
-175.77810615,72.50395890,-175.51457144,-6.80591817,-1.74346655,0.35422019
1.29859812,-0.12268102,0.38277834

>  <Name>
lig.pdb

>  <RI>
0

>  <Rbt.Current_Directory>
/home/itssahil/PROJECTS/Mol_Feturizer/New_Systems/rnas/5bws

>  <Rbt.Executable>
rbdock ($Id: //depot/dev/client3/rdock/2013.1/src/exe/rbdock.cxx#4 $)

>  <Rbt.Library>
libRbt.so (2013.1, Build901 2013/11/27)

>  <Rbt.Parameter_File>
/export/apps/rDock/src/rDock_2013.1_src/data/scripts/dock_solv.prm

>  <Rbt.Receptor>
prm/pocket_docking_6.prm

>  <SCORE>
-11.362

>  <SCORE.INTER>
-8.25081

>  <SCORE.INTER.CONST>
1

>  <SCORE.INTER.POLAR>
0

>  <SCORE.INTER.ROT>
3

>  <SCORE.INTER.SOLV>
21.7973

>  <SCORE.INTER.VDW>
-18.3663

>  <SCORE.INTER.norm>
-0.375037

>  <SCORE.INTRA>
-3.11123

>  <SCORE.INTRA.DIHEDRAL>
-5.20142

>  <SCORE.INTRA.DIHEDRAL.0>
6.10773

>  <SCORE.INTRA.POLAR>
0

>  <SCORE.INTRA.POLAR.0>
0

>  <SCORE.INTRA.REPUL>
0

>  <SCORE.INTRA.REPUL.0>
0

>  <SCORE.INTRA.SOLV>
-1.39444

>  <SCORE.INTRA.SOLV.lig_0>
-71.4024

>  <SCORE.INTRA.VDW>
0.186701

>  <SCORE.INTRA.VDW.0>
-1.86213

>  <SCORE.INTRA.norm>
-0.14142

>  <SCORE.RESTR>
0

>  <SCORE.RESTR.CAVITY>
0

>  <SCORE.RESTR.norm>
0

>  <SCORE.SYSTEM>
0

>  <SCORE.SYSTEM.CONST>
0

>  <SCORE.SYSTEM.DIHEDRAL>
0

>  <SCORE.SYSTEM.SOLV>
0

>  <SCORE.SYSTEM.norm>
0

>  <SCORE.heavy>
22

>  <SCORE.norm>
-0.516456

>  <RMSD>
6.357

$$$$
lig.pdb
 OpenBabel11021811523D
libRbt.so/2013.1/901 2013/11/27
 22 23  0  0  0  0  0  0  0  0999 V2000
   -7.5270   -0.8664    1.4151 C   0  0  1  0  0  0  0  0  0  0  0  0
   -7.1724   -2.7310   -0.2549 C   0  0  1  0  0  0  0  0  0  0  0  0
   -8.3592   -3.7153    0.1445 C   0  0  1  0  0  0  0  0  0  0  0  0
   -7.9530   -5.1866   -0.3197 C   0  0  2  0  0  0  0  0  0  0  0  0
   -7.9914    0.6415    1.3854 C   0  0  1  0  0  0  0  0  0  0  0  0
   -6.9497    1.4447    0.5816 C   0  0  2  0  0  0  0  0  0  0  0  0
   -5.5667    1.3760    1.2531 C   0  0  2  0  0  0  0  0  0  0  0  0
   -5.0528   -0.1069    1.3477 C   0  0  1  0  0  0  0  0  0  0  0  0
   -3.6800   -0.1868    2.0757 C   0  0  0  0  0  0  0  0  0  0  0  0
   -7.7890   -5.2085   -1.9243 C   0  0  1  0  0  0  0  0  0  0  0  0
   -6.5851   -4.2030   -2.2895 C   0  0  0  0  0  0  0  0  0  0  0  0
   -6.9495   -2.7262   -1.8007 C   0  0  2  0  0  0  0  0  0  0  0  0
   -5.6353    1.9443    2.6043 F   0  0  0  0  0  0  0  0  0  0  0  0
   -9.3615    0.6909    0.7420 N   0  0  0  0  0  0  0  0  0  0  0  0
   -3.1072   -1.4783    2.1232 N   0  0  0  0  0  0  0  0  0  0  0  0
   -7.3890   -6.5736   -2.4091 N   0  0  0  0  0  0  0  0  0  0  0  0
   -5.8407   -1.8097   -2.1371 N   0  0  0  0  0  0  0  0  0  0  0  0
   -7.4895   -1.4017    0.1294 O   0  0  0  0  0  0  0  0  0  0  0  0
   -8.5043   -3.6800    1.6190 O   0  0  0  0  0  0  0  0  0  0  0  0
   -9.0033   -6.0303    0.0493 O   0  0  0  0  0  0  0  0  0  0  0  0
   -7.2890    2.5438    0.5631 O   0  0  0  0  0  0  0  0  0  0  0  0
   -6.1493   -0.9099    2.0709 O   0  0  0  0  0  0  0  0  0  0  0  0
  1  5  1  0  0  0  0
  1 18  1  6  0  0  0
  2 18  1  6  0  0  0
  2  3  1  0  0  0  0
  2 12  1  0  0  0  0
  3 19  1  1  0  0  0
  3  4  1  0  0  0  0
  4 20  1  6  0  0  0
  4 10  1  0  0  0  0
  5  6  1  0  0  0  0
  5 14  1  6  0  0  0
  6 21  1  1  0  0  0
  7 13  1  1  0  0  0
  7  6  1  0  0  0  0
  8  9  1  1  0  0  0
  8  7  1  0  0  0  0
 10 16  1  1  0  0  0
 11 10  1  0  0  0  0
 12 17  1  1  0  0  0
 12 11  1  0  0  0  0
 15  9  1  0  0  0  0
 22  8  1  0  0  0  0
 22  1  1  0  0  0  0
M  END
>  <CHROM.1>
-177.46235081,72.20829634,-176.00129747,-6.87703286,-1.68254598,0.37550459
1.30670384,-0.14321384,0.37872700

>  <Name>
lig.pdb

>  <RI>
0

>  <Rbt.Current_Directory>
/home/itssahil/PROJECTS/Mol_Feturizer/New_Systems/rnas/5bws

>  <Rbt.Executable>
rbdock ($Id: //depot/dev/client3/rdock/2013.1/src/exe/rbdock.cxx#4 $)

>  <Rbt.Library>
libRbt.so (2013.1, Build901 2013/11/27)

>  <Rbt.Parameter_File>
/export/apps/rDock/src/rDock_2013.1_src/data/scripts/dock_solv.prm

>  <Rbt.Receptor>
prm/pocket_docking_6.prm

>  <SCORE>
-11.3773

>  <SCORE.INTER>
-8.18695

>  <SCORE.INTER.CONST>
1

>  <SCORE.INTER.POLAR>
0

>  <SCORE.INTER.ROT>
3

>  <SCORE.INTER.SOLV>
22.0407

>  <SCORE.INTER.VDW>
-18.4049

>  <SCORE.INTER.norm>
-0.372134

>  <SCORE.INTRA>
-3.19035

>  <SCORE.INTRA.DIHEDRAL>
-5.30563

>  <SCORE.INTRA.DIHEDRAL.0>
6.10773

>  <SCORE.INTRA.POLAR>
0

>  <SCORE.INTRA.POLAR.0>
0

>  <SCORE.INTRA.REPUL>
0

>  <SCORE.INTRA.REPUL.0>
0

>  <SCORE.INTRA.SOLV>
-1.4125

>  <SCORE.INTRA.SOLV.lig_0>
-71.4024

>  <SCORE.INTRA.VDW>
0.168713

>  <SCORE.INTRA.VDW.0>
-1.86213

>  <SCORE.INTRA.norm>
-0.145016

>  <SCORE.RESTR>
0

>  <SCORE.RESTR.CAVITY>
0

>  <SCORE.RESTR.norm>
0

>  <SCORE.SYSTEM>
0

>  <SCORE.SYSTEM.CONST>
0

>  <SCORE.SYSTEM.DIHEDRAL>
0

>  <SCORE.SYSTEM.SOLV>
0

>  <SCORE.SYSTEM.norm>
0

>  <SCORE.heavy>
22

>  <SCORE.norm>
-0.51715

>  <RMSD>
6.358

$$$$
lig.pdb
 OpenBabel11021811523D
libRbt.so/2013.1/901 2013/11/27
 22 23  0  0  0  0  0  0  0  0999 V2000
   -7.4835   -0.9135    1.3792 C   0  0  1  0  0  0  0  0  0  0  0  0
   -7.1196   -2.7881   -0.2775 C   0  0  1  0  0  0  0  0  0  0  0  0
   -8.3220   -3.7573    0.1124 C   0  0  1  0  0  0  0  0  0  0  0  0
   -7.9264   -5.2353   -0.3394 C   0  0  2  0  0  0  0  0  0  0  0  0
   -7.9275    0.6001    1.3355 C   0  0  1  0  0  0  0  0  0  0  0  0
   -6.8593    1.3871    0.5508 C   0  0  2  0  0  0  0  0  0  0  0  0
   -5.4913    1.3028    1.2508 C   0  0  2  0  0  0  0  0  0  0  0  0
   -4.9988   -0.1863    1.3603 C   0  0  1  0  0  0  0  0  0  0  0  0
   -3.6423   -0.2815    2.1165 C   0  0  0  0  0  0  0  0  0  0  0  0
   -7.7432   -5.2673   -1.9418 C   0  0  1  0  0  0  0  0  0  0  0  0
   -6.5239   -4.2771   -2.2973 C   0  0  0  0  0  0  0  0  0  0  0  0
   -6.8778   -2.7938   -1.8205 C   0  0  2  0  0  0  0  0  0  0  0  0
   -5.5802    1.8764    2.5985 F   0  0  0  0  0  0  0  0  0  0  0  0
   -9.2834    0.6652    0.6640 N   0  0  0  0  0  0  0  0  0  0  0  0
   -3.0745   -1.5755    2.1570 N   0  0  0  0  0  0  0  0  0  0  0  0
   -7.3524   -6.6393   -2.4148 N   0  0  0  0  0  0  0  0  0  0  0  0
   -5.7551   -1.8913   -2.1479 N   0  0  0  0  0  0  0  0  0  0  0  0
   -7.4266   -1.4535    0.0961 O   0  0  0  0  0  0  0  0  0  0  0  0
   -8.4845   -3.7128    1.5848 O   0  0  0  0  0  0  0  0  0  0  0  0
   -8.9903   -6.0656    0.0210 O   0  0  0  0  0  0  0  0  0  0  0  0
   -7.1839    2.4904    0.5221 O   0  0  0  0  0  0  0  0  0  0  0  0
   -6.1201   -0.9727    2.0633 O   0  0  0  0  0  0  0  0  0  0  0  0
  1  5  1  0  0  0  0
  1 18  1  6  0  0  0
  2 18  1  6  0  0  0
  2  3  1  0  0  0  0
  2 12  1  0  0  0  0
  3 19  1  1  0  0  0
  3  4  1  0  0  0  0
  4 20  1  6  0  0  0
  4 10  1  0  0  0  0
  5  6  1  0  0  0  0
  5 14  1  6  0  0  0
  6 21  1  1  0  0  0
  7 13  1  1  0  0  0
  7  6  1  0  0  0  0
  8  9  1  1  0  0  0
  8  7  1  0  0  0  0
 10 16  1  1  0  0  0
 11 10  1  0  0  0  0
 12 17  1  1  0  0  0
 12 11  1  0  0  0  0
 15  9  1  0  0  0  0
 22  8  1  0  0  0  0
 22  1  1  0  0  0  0
M  END
>  <CHROM.1>
-177.43287135,71.68839003,-174.81681663,-6.82376704,-1.74217355,0.35748017
1.30167246,-0.16932945,0.37266895

>  <Name>
lig.pdb

>  <RI>
0

>  <Rbt.Current_Directory>
/home/itssahil/PROJECTS/Mol_Feturizer/New_Systems/rnas/5bws

>  <Rbt.Executable>
rbdock ($Id: //depot/dev/client3/rdock/2013.1/src/exe/rbdock.cxx#4 $)

>  <Rbt.Library>
libRbt.so (2013.1, Build901 2013/11/27)

>  <Rbt.Parameter_File>
/export/apps/rDock/src/rDock_2013.1_src/data/scripts/dock_solv.prm

>  <Rbt.Receptor>
prm/pocket_docking_7.prm

>  <SCORE>
-11.3822

>  <SCORE.INTER>
-8.17743

>  <SCORE.INTER.CONST>
1

>  <SCORE.INTER.POLAR>
0

>  <SCORE.INTER.ROT>
3

>  <SCORE.INTER.SOLV>
22.0663

>  <SCORE.INTER.VDW>
-18.407

>  <SCORE.INTER.norm>
-0.371701

>  <SCORE.INTRA>
-3.20477

>  <SCORE.INTRA.DIHEDRAL>
-5.32338

>  <SCORE.INTRA.DIHEDRAL.0>
6.10773

>  <SCORE.INTRA.POLAR>
0

>  <SCORE.INTRA.POLAR.0>
0

>  <SCORE.INTRA.REPUL>
0

>  <SCORE.INTRA.REPUL.0>
0

>  <SCORE.INTRA.SOLV>
-1.44284

>  <SCORE.INTRA.SOLV.lig_0>
-71.4024

>  <SCORE.INTRA.VDW>
0.178338

>  <SCORE.INTRA.VDW.0>
-1.86213

>  <SCORE.INTRA.norm>
-0.145671

>  <SCORE.RESTR>
0

>  <SCORE.RESTR.CAVITY>
0

>  <SCORE.RESTR.norm>
0

>  <SCORE.SYSTEM>
0

>  <SCORE.SYSTEM.CONST>
0

>  <SCORE.SYSTEM.DIHEDRAL>
0

>  <SCORE.SYSTEM.SOLV>
0

>  <SCORE.SYSTEM.norm>
0

>  <SCORE.heavy>
22

>  <SCORE.norm>
-0.517373

>  <RMSD>
6.358

$$$$
lig.pdb
 OpenBabel11021811523D
libRbt.so/2013.1/901 2013/11/27
 22 23  0  0  0  0  0  0  0  0999 V2000
   -8.7747    0.9004   -0.1918 C   0  0  1  0  0  0  0  0  0  0  0  0
   -7.9418   -1.4592   -0.5520 C   0  0  1  0  0  0  0  0  0  0  0  0
   -8.6094   -2.8605   -0.9092 C   0  0  1  0  0  0  0  0  0  0  0  0
   -7.4638   -3.9706   -0.8811 C   0  0  2  0  0  0  0  0  0  0  0  0
  -10.1641    1.5262    0.2179 C   0  0  1  0  0  0  0  0  0  0  0  0
  -11.0823    1.4988   -1.0201 C   0  0  2  0  0  0  0  0  0  0  0  0
  -10.4883    2.3418   -2.1625 C   0  0  2  0  0  0  0  0  0  0  0  0
   -9.0817    1.7939   -2.6023 C   0  0  1  0  0  0  0  0  0  0  0  0
   -8.4526    2.6760   -3.7190 C   0  0  0  0  0  0  0  0  0  0  0  0
   -6.3651   -3.6252   -2.0106 C   0  0  1  0  0  0  0  0  0  0  0  0
   -5.7150   -2.2051   -1.6181 C   0  0  0  0  0  0  0  0  0  0  0  0
   -6.8490   -1.0796   -1.6013 C   0  0  2  0  0  0  0  0  0  0  0  0
  -10.3439    3.7379   -1.7342 F   0  0  0  0  0  0  0  0  0  0  0  0
  -10.7261    0.7001    1.3559 N   0  0  0  0  0  0  0  0  0  0  0  0
   -8.1480    4.0002   -3.3288 N   0  0  0  0  0  0  0  0  0  0  0  0
   -5.2534   -4.6366   -2.0117 N   0  0  0  0  0  0  0  0  0  0  0  0
   -6.2464    0.2196   -1.2390 N   0  0  0  0  0  0  0  0  0  0  0  0
   -8.9210   -0.4317   -0.5728 O   0  0  0  0  0  0  0  0  0  0  0  0
   -9.6212   -3.1619    0.1309 O   0  0  0  0  0  0  0  0  0  0  0  0
   -8.0750   -5.1886   -1.1876 O   0  0  0  0  0  0  0  0  0  0  0  0
  -12.0936    1.9574   -0.7199 O   0  0  0  0  0  0  0  0  0  0  0  0
   -8.2107    1.7417   -1.3339 O   0  0  0  0  0  0  0  0  0  0  0  0
  1  5  1  0  0  0  0
  1 18  1  6  0  0  0
  2 18  1  6  0  0  0
  2  3  1  0  0  0  0
  2 12  1  0  0  0  0
  3 19  1  1  0  0  0
  3  4  1  0  0  0  0
  4 20  1  6  0  0  0
  4 10  1  0  0  0  0
  5  6  1  0  0  0  0
  5 14  1  1  0  0  0
  6 21  1  1  0  0  0
  7 13  1  1  0  0  0
  7  6  1  0  0  0  0
  8  9  1  6  0  0  0
  8  7  1  0  0  0  0
 10 16  1  1  0  0  0
 11 10  1  0  0  0  0
 12 17  1  1  0  0  0
 12 11  1  0  0  0  0
 15  9  1  0  0  0  0
 22  8  1  0  0  0  0
 22  1  1  0  0  0  0
M  END
>  <CHROM.1>
-155.65351583,173.13074976,64.46950003,-8.62433706,-0.20423232,-1.25260128
2.08820533,0.54177083,-0.34417369

>  <Name>
lig.pdb

>  <RI>
0

>  <Rbt.Current_Directory>
/home/itssahil/PROJECTS/Mol_Feturizer/New_Systems/rnas/5bws

>  <Rbt.Executable>
rbdock ($Id: //depot/dev/client3/rdock/2013.1/src/exe/rbdock.cxx#4 $)

>  <Rbt.Library>
libRbt.so (2013.1, Build901 2013/11/27)

>  <Rbt.Parameter_File>
/export/apps/rDock/src/rDock_2013.1_src/data/scripts/dock_solv.prm

>  <Rbt.Receptor>
prm/pocket_docking_8.prm

>  <SCORE>
-10.6749

>  <SCORE.INTER>
-11.4093

>  <SCORE.INTER.CONST>
1

>  <SCORE.INTER.POLAR>
0

>  <SCORE.INTER.ROT>
3

>  <SCORE.INTER.SOLV>
14.2711

>  <SCORE.INTER.VDW>
-17.9632

>  <SCORE.INTER.norm>
-0.518603

>  <SCORE.INTRA>
0.734311

>  <SCORE.INTRA.DIHEDRAL>
-3.25379

>  <SCORE.INTRA.DIHEDRAL.0>
6.10773

>  <SCORE.INTRA.POLAR>
0

>  <SCORE.INTRA.POLAR.0>
0

>  <SCORE.INTRA.REPUL>
0

>  <SCORE.INTRA.REPUL.0>
0

>  <SCORE.INTRA.SOLV>
2.74914

>  <SCORE.INTRA.SOLV.lig_0>
-71.4024

>  <SCORE.INTRA.VDW>
0.986637

>  <SCORE.INTRA.VDW.0>
-1.86213

>  <SCORE.INTRA.norm>
0.0333778

>  <SCORE.RESTR>
0

>  <SCORE.RESTR.CAVITY>
0

>  <SCORE.RESTR.norm>
0

>  <SCORE.SYSTEM>
0

>  <SCORE.SYSTEM.CONST>
0

>  <SCORE.SYSTEM.DIHEDRAL>
0

>  <SCORE.SYSTEM.SOLV>
0

>  <SCORE.SYSTEM.norm>
0

>  <SCORE.heavy>
22

>  <SCORE.norm>
-0.485225

>  <RMSD>
6.363

$$$$
lig.pdb
 OpenBabel11021811523D
libRbt.so/2013.1/901 2013/11/27
 22 23  0  0  0  0  0  0  0  0999 V2000
   -7.4574   -0.9137    1.3350 C   0  0  1  0  0  0  0  0  0  0  0  0
   -7.1114   -2.8033   -0.3085 C   0  0  1  0  0  0  0  0  0  0  0  0
   -8.3343   -3.7452    0.0846 C   0  0  1  0  0  0  0  0  0  0  0  0
   -7.9674   -5.2340   -0.3559 C   0  0  2  0  0  0  0  0  0  0  0  0
   -7.8825    0.6050    1.2795 C   0  0  1  0  0  0  0  0  0  0  0  0
   -6.7958    1.3755    0.5037 C   0  0  2  0  0  0  0  0  0  0  0  0
   -5.4371    1.2778    1.2198 C   0  0  2  0  0  0  0  0  0  0  0  0
   -4.9639   -0.2168    1.3415 C   0  0  1  0  0  0  0  0  0  0  0  0
   -3.6175   -0.3249    2.1137 C   0  0  0  0  0  0  0  0  0  0  0  0
   -7.7805   -5.2808   -1.9575 C   0  0  1  0  0  0  0  0  0  0  0  0
   -6.5404   -4.3179   -2.3162 C   0  0  0  0  0  0  0  0  0  0  0  0
   -6.8655   -2.8245   -1.8507 C   0  0  2  0  0  0  0  0  0  0  0  0
   -5.5344    1.8585    2.5638 F   0  0  0  0  0  0  0  0  0  0  0  0
   -9.2296    0.6834    0.5922 N   0  0  0  0  0  0  0  0  0  0  0  0
   -3.0661   -1.6256    2.1666 N   0  0  0  0  0  0  0  0  0  0  0  0
   -7.4162   -6.6637   -2.4199 N   0  0  0  0  0  0  0  0  0  0  0  0
   -5.7238   -1.9472   -2.1810 N   0  0  0  0  0  0  0  0  0  0  0  0
   -7.3924   -1.4601    0.0551 O   0  0  0  0  0  0  0  0  0  0  0  0
   -8.5000   -3.6871    1.5561 O   0  0  0  0  0  0  0  0  0  0  0  0
   -9.0489   -6.0400    0.0072 O   0  0  0  0  0  0  0  0  0  0  0  0
   -7.1065    2.4825    0.4664 O   0  0  0  0  0  0  0  0  0  0  0  0
   -6.1028   -0.9863    2.0350 O   0  0  0  0  0  0  0  0  0  0  0  0
  1  5  1  0  0  0  0
  1 18  1  6  0  0  0
  2 18  1  6  0  0  0
  2  3  1  0  0  0  0
  2 12  1  0  0  0  0
  3 19  1  1  0  0  0
  3  4  1  0  0  0  0
  4 20  1  6  0  0  0
  4 10  1  0  0  0  0
  5  6  1  0  0  0  0
  5 14  1  6  0  0  0
  6 21  1  1  0  0  0
  7 13  1  1  0  0  0
  7  6  1  0  0  0  0
  8  9  1  1  0  0  0
  8  7  1  0  0  0  0
 10 16  1  1  0  0  0
 11 10  1  0  0  0  0
 12 17  1  1  0  0  0
 12 11  1  0  0  0  0
 15  9  1  0  0  0  0
 22  8  1  0  0  0  0
 22  1  1  0  0  0  0
M  END
>  <CHROM.1>
-176.69441477,70.85788364,-174.82675316,-6.81011062,-1.75536406,0.32813901
1.28747497,-0.18802728,0.36394788

>  <Name>
lig.pdb

>  <RI>
0

>  <Rbt.Current_Directory>
/home/itssahil/PROJECTS/Mol_Feturizer/New_Systems/rnas/5bws

>  <Rbt.Executable>
rbdock ($Id: //depot/dev/client3/rdock/2013.1/src/exe/rbdock.cxx#4 $)

>  <Rbt.Library>
libRbt.so (2013.1, Build901 2013/11/27)

>  <Rbt.Parameter_File>
/export/apps/rDock/src/rDock_2013.1_src/data/scripts/dock_solv.prm

>  <Rbt.Receptor>
prm/pocket_docking_5.prm

>  <SCORE>
-11.3945

>  <SCORE.INTER>
-8.1646

>  <SCORE.INTER.CONST>
1

>  <SCORE.INTER.POLAR>
0

>  <SCORE.INTER.ROT>
3

>  <SCORE.INTER.SOLV>
22.2938

>  <SCORE.INTER.VDW>
-18.4743

>  <SCORE.INTER.norm>
-0.371118

>  <SCORE.INTRA>
-3.22993

>  <SCORE.INTRA.DIHEDRAL>
-5.38951

>  <SCORE.INTRA.DIHEDRAL.0>
6.10773

>  <SCORE.INTRA.POLAR>
0

>  <SCORE.INTRA.POLAR.0>
0

>  <SCORE.INTRA.REPUL>
0

>  <SCORE.INTRA.REPUL.0>
0

>  <SCORE.INTRA.SOLV>
-1.46014

>  <SCORE.INTRA.SOLV.lig_0>
-71.4024

>  <SCORE.INTRA.VDW>
0.194897

>  <SCORE.INTRA.VDW.0>
-1.86213

>  <SCORE.INTRA.norm>
-0.146815

>  <SCORE.RESTR>
0

>  <SCORE.RESTR.CAVITY>
0

>  <SCORE.RESTR.norm>
0

>  <SCORE.SYSTEM>
0

>  <SCORE.SYSTEM.CONST>
0

>  <SCORE.SYSTEM.DIHEDRAL>
0

>  <SCORE.SYSTEM.SOLV>
0

>  <SCORE.SYSTEM.norm>
0

>  <SCORE.heavy>
22

>  <SCORE.norm>
-0.517933

>  <RMSD>
6.364

$$$$
lig.pdb
 OpenBabel11021811523D
libRbt.so/2013.1/901 2013/11/27
 22 23  0  0  0  0  0  0  0  0999 V2000
   -5.8399    1.3726    0.6162 C   0  0  1  0  0  0  0  0  0  0  0  0
   -6.3129   -1.0755    1.0335 C   0  0  1  0  0  0  0  0  0  0  0  0
   -7.8505   -1.0357    0.6198 C   0  0  1  0  0  0  0  0  0  0  0  0
   -8.2854   -2.5142    0.2070 C   0  0  2  0  0  0  0  0  0  0  0  0
   -5.0560    2.5323    1.3448 C   0  0  1  0  0  0  0  0  0  0  0  0
   -5.8158    2.8799    2.6402 C   0  0  2  0  0  0  0  0  0  0  0  0
   -7.2374    3.3783    2.3255 C   0  0  2  0  0  0  0  0  0  0  0  0
   -8.0701    2.2816    1.5664 C   0  0  1  0  0  0  0  0  0  0  0  0
   -9.4895    2.8010    1.1971 C   0  0  0  0  0  0  0  0  0  0  0  0
   -7.4233   -2.9807   -1.0741 C   0  0  1  0  0  0  0  0  0  0  0  0
   -5.8786   -3.0070   -0.6195 C   0  0  0  0  0  0  0  0  0  0  0  0
   -5.4261   -1.5439   -0.1638 C   0  0  2  0  0  0  0  0  0  0  0  0
   -7.1740    4.5878    1.4969 F   0  0  0  0  0  0  0  0  0  0  0  0
   -3.6538    2.0356    1.6287 N   0  0  0  0  0  0  0  0  0  0  0  0
  -10.2943    1.8781    0.4905 N   0  0  0  0  0  0  0  0  0  0  0  0
   -7.7865   -4.3782   -1.4913 N   0  0  0  0  0  0  0  0  0  0  0  0
   -4.0094   -1.5754    0.2534 N   0  0  0  0  0  0  0  0  0  0  0  0
   -5.8721    0.2226    1.4020 O   0  0  0  0  0  0  0  0  0  0  0  0
   -8.6297   -0.5987    1.8022 O   0  0  0  0  0  0  0  0  0  0  0  0
   -9.6366   -2.4545   -0.1417 O   0  0  0  0  0  0  0  0  0  0  0  0
   -5.2439    3.7269    3.1684 O   0  0  0  0  0  0  0  0  0  0  0  0
   -7.2494    1.8822    0.3266 O   0  0  0  0  0  0  0  0  0  0  0  0
  1  5  1  0  0  0  0
  1 18  1  1  0  0  0
  2 18  1  6  0  0  0
  2  3  1  0  0  0  0
  2 12  1  0  0  0  0
  3 19  1  1  0  0  0
  3  4  1  0  0  0  0
  4 20  1  6  0  0  0
  4 10  1  0  0  0  0
  5  6  1  0  0  0  0
  5 14  1  1  0  0  0
  6 21  1  6  0  0  0
  7 13  1  6  0  0  0
  7  6  1  0  0  0  0
  8  9  1  6  0  0  0
  8  7  1  0  0  0  0
 10 16  1  1  0  0  0
 11 10  1  0  0  0  0
 12 17  1  1  0  0  0
 12 11  1  0  0  0  0
 15  9  1  0  0  0  0
 22  8  1  0  0  0  0
 22  1  1  0  0  0  0
M  END
>  <CHROM.1>
-170.54371888,-61.16600881,178.98236074,-6.94278015,0.45662408,0.86979550
-1.43196487,0.08867164,-2.78535181

>  <Name>
lig.pdb

>  <RI>
0

>  <Rbt.Current_Directory>
/home/itssahil/PROJECTS/Mol_Feturizer/New_Systems/rnas/5bws

>  <Rbt.Executable>
rbdock ($Id: //depot/dev/client3/rdock/2013.1/src/exe/rbdock.cxx#4 $)

>  <Rbt.Library>
libRbt.so (2013.1, Build901 2013/11/27)

>  <Rbt.Parameter_File>
/export/apps/rDock/src/rDock_2013.1_src/data/scripts/dock_solv.prm

>  <Rbt.Receptor>
prm/pocket_docking_4.prm

>  <SCORE>
-8.92775

>  <SCORE.INTER>
-6.66174

>  <SCORE.INTER.CONST>
1

>  <SCORE.INTER.POLAR>
0

>  <SCORE.INTER.ROT>
3

>  <SCORE.INTER.SOLV>
15.9547

>  <SCORE.INTER.VDW>
-15.3594

>  <SCORE.INTER.norm>
-0.302806

>  <SCORE.INTRA>
-2.26601

>  <SCORE.INTRA.DIHEDRAL>
-5.66224

>  <SCORE.INTRA.DIHEDRAL.0>
6.10773

>  <SCORE.INTRA.POLAR>
0

>  <SCORE.INTRA.POLAR.0>
0

>  <SCORE.INTRA.REPUL>
0

>  <SCORE.INTRA.REPUL.0>
0

>  <SCORE.INTRA.SOLV>
1.31502

>  <SCORE.INTRA.SOLV.lig_0>
-71.4024

>  <SCORE.INTRA.VDW>
-0.0924044

>  <SCORE.INTRA.VDW.0>
-1.86213

>  <SCORE.INTRA.norm>
-0.103001

>  <SCORE.RESTR>
0

>  <SCORE.RESTR.CAVITY>
0

>  <SCORE.RESTR.norm>
0

>  <SCORE.SYSTEM>
0

>  <SCORE.SYSTEM.CONST>
0

>  <SCORE.SYSTEM.DIHEDRAL>
0

>  <SCORE.SYSTEM.SOLV>
0

>  <SCORE.SYSTEM.norm>
0

>  <SCORE.heavy>
22

>  <SCORE.norm>
-0.405807

>  <RMSD>
6.366

$$$$
lig.pdb
 OpenBabel11021811523D
libRbt.so/2013.1/901 2013/11/27
 22 23  0  0  0  0  0  0  0  0999 V2000
   -3.4920   -4.8700   -1.8397 C   0  0  1  0  0  0  0  0  0  0  0  0
   -5.7633   -3.9987   -1.1517 C   0  0  1  0  0  0  0  0  0  0  0  0
   -5.5088   -2.4432   -1.3813 C   0  0  1  0  0  0  0  0  0  0  0  0
   -6.5371   -1.6378   -0.4654 C   0  0  2  0  0  0  0  0  0  0  0  0
   -2.8919   -5.7236   -3.0235 C   0  0  1  0  0  0  0  0  0  0  0  0
   -3.4742   -7.1476   -2.9266 C   0  0  2  0  0  0  0  0  0  0  0  0
   -3.0762   -7.8138   -1.5976 C   0  0  2  0  0  0  0  0  0  0  0  0
   -3.6145   -6.9960   -0.3673 C   0  0  1  0  0  0  0  0  0  0  0  0
   -3.1674   -7.6354    0.9789 C   0  0  0  0  0  0  0  0  0  0  0  0
   -8.0426   -1.9834   -0.9304 C   0  0  1  0  0  0  0  0  0  0  0  0
   -8.2618   -3.5601   -0.6861 C   0  0  0  0  0  0  0  0  0  0  0  0
   -7.2175   -4.3917   -1.5641 C   0  0  2  0  0  0  0  0  0  0  0  0
   -1.6152   -7.9124   -1.5026 F   0  0  0  0  0  0  0  0  0  0  0  0
   -3.2730   -5.0450   -4.3226 N   0  0  0  0  0  0  0  0  0  0  0  0
   -3.6237   -8.9568    1.1891 N   0  0  0  0  0  0  0  0  0  0  0  0
   -9.0507   -1.2592   -0.0832 N   0  0  0  0  0  0  0  0  0  0  0  0
   -7.4228   -5.8364   -1.3340 N   0  0  0  0  0  0  0  0  0  0  0  0
   -4.8764   -4.7629   -1.9544 O   0  0  0  0  0  0  0  0  0  0  0  0
   -4.1212   -2.1407   -0.9578 O   0  0  0  0  0  0  0  0  0  0  0  0
   -6.2879   -0.2798   -0.6773 O   0  0  0  0  0  0  0  0  0  0  0  0
   -3.0337   -7.7686   -3.7890 O   0  0  0  0  0  0  0  0  0  0  0  0
   -3.0983   -5.5551   -0.5337 O   0  0  0  0  0  0  0  0  0  0  0  0
  1  5  1  0  0  0  0
  1 18  1  6  0  0  0
  2 18  1  6  0  0  0
  2  3  1  0  0  0  0
  2 12  1  0  0  0  0
  3 19  1  1  0  0  0
  3  4  1  0  0  0  0
  4 20  1  6  0  0  0
  4 10  1  0  0  0  0
  5  6  1  0  0  0  0
  5 14  1  6  0  0  0
  6 21  1  6  0  0  0
  7 13  1  1  0  0  0
  7  6  1  0  0  0  0
  8  9  1  1  0  0  0
  8  7  1  0  0  0  0
 10 16  1  1  0  0  0
 11 10  1  0  0  0  0
 12 17  1  1  0  0  0
 12 11  1  0  0  0  0
 15  9  1  0  0  0  0
 22  8  1  0  0  0  0
 22  1  1  0  0  0  0
M  END
>  <CHROM.1>
-174.78289515,67.43700916,-60.76998216,-4.81057923,-4.92530904,-1.31926422
-0.61341602,0.71373072,-0.61065976

>  <Name>
lig.pdb

>  <RI>
0

>  <Rbt.Current_Directory>
/home/itssahil/PROJECTS/Mol_Feturizer/New_Systems/rnas/5bws

>  <Rbt.Executable>
rbdock ($Id: //depot/dev/client3/rdock/2013.1/src/exe/rbdock.cxx#4 $)

>  <Rbt.Library>
libRbt.so (2013.1, Build901 2013/11/27)

>  <Rbt.Parameter_File>
/export/apps/rDock/src/rDock_2013.1_src/data/scripts/dock_solv.prm

>  <Rbt.Receptor>
prm/pocket_docking_8.prm

>  <SCORE>
-10.4505

>  <SCORE.INTER>
-7.43835

>  <SCORE.INTER.CONST>
1

>  <SCORE.INTER.POLAR>
0

>  <SCORE.INTER.ROT>
3

>  <SCORE.INTER.SOLV>
16.2437

>  <SCORE.INTER.VDW>
-15.9735

>  <SCORE.INTER.norm>
-0.338107

>  <SCORE.INTRA>
-3.01212

>  <SCORE.INTRA.DIHEDRAL>
-5.70002

>  <SCORE.INTRA.DIHEDRAL.0>
6.10773

>  <SCORE.INTRA.POLAR>
0

>  <SCORE.INTRA.POLAR.0>
0

>  <SCORE.INTRA.REPUL>
0

>  <SCORE.INTRA.REPUL.0>
0

>  <SCORE.INTRA.SOLV>
-0.954249

>  <SCORE.INTRA.SOLV.lig_0>
-71.4024

>  <SCORE.INTRA.VDW>
0.315017

>  <SCORE.INTRA.VDW.0>
-1.86213

>  <SCORE.INTRA.norm>
-0.136914

>  <SCORE.RESTR>
0

>  <SCORE.RESTR.CAVITY>
0

>  <SCORE.RESTR.norm>
0

>  <SCORE.SYSTEM>
0

>  <SCORE.SYSTEM.CONST>
0

>  <SCORE.SYSTEM.DIHEDRAL>
0

>  <SCORE.SYSTEM.SOLV>
0

>  <SCORE.SYSTEM.norm>
0

>  <SCORE.heavy>
22

>  <SCORE.norm>
-0.475021

>  <RMSD>
6.370

$$$$
lig.pdb
 OpenBabel11021811523D
libRbt.so/2013.1/901 2013/11/27
 22 23  0  0  0  0  0  0  0  0999 V2000
   -5.3312   -6.2805   -2.0258 C   0  0  1  0  0  0  0  0  0  0  0  0
   -6.7138   -4.3029   -1.2716 C   0  0  1  0  0  0  0  0  0  0  0  0
   -6.9819   -2.8711   -1.9160 C   0  0  1  0  0  0  0  0  0  0  0  0
   -7.6164   -1.9374   -0.7887 C   0  0  2  0  0  0  0  0  0  0  0  0
   -3.8722   -5.8262   -1.6324 C   0  0  1  0  0  0  0  0  0  0  0  0
   -3.2845   -5.0339   -2.8169 C   0  0  2  0  0  0  0  0  0  0  0  0
   -3.1955   -5.9147   -4.0758 C   0  0  2  0  0  0  0  0  0  0  0  0
   -4.6152   -6.4333   -4.5092 C   0  0  1  0  0  0  0  0  0  0  0  0
   -4.5237   -7.3691   -5.7488 C   0  0  0  0  0  0  0  0  0  0  0  0
   -9.0290   -2.5595   -0.3201 C   0  0  1  0  0  0  0  0  0  0  0  0
   -8.7190   -4.0033    0.3224 C   0  0  0  0  0  0  0  0  0  0  0  0
   -8.0467   -4.9488   -0.7762 C   0  0  2  0  0  0  0  0  0  0  0  0
   -2.3234   -7.0672   -3.8222 F   0  0  0  0  0  0  0  0  0  0  0  0
   -3.9731   -4.9790   -0.3811 N   0  0  0  0  0  0  0  0  0  0  0  0
   -5.7564   -7.9176   -6.1711 N   0  0  0  0  0  0  0  0  0  0  0  0
   -9.6593   -1.7213    0.7564 N   0  0  0  0  0  0  0  0  0  0  0  0
   -7.7634   -6.2705   -0.1800 N   0  0  0  0  0  0  0  0  0  0  0  0
   -6.1558   -5.1781   -2.2400 O   0  0  0  0  0  0  0  0  0  0  0  0
   -5.6783   -2.3145   -2.3488 O   0  0  0  0  0  0  0  0  0  0  0  0
   -7.8330   -0.6881   -1.3747 O   0  0  0  0  0  0  0  0  0  0  0  0
   -2.2202   -4.7057   -2.5288 O   0  0  0  0  0  0  0  0  0  0  0  0
   -5.2216   -7.1395   -3.2830 O   0  0  0  0  0  0  0  0  0  0  0  0
  1  5  1  0  0  0  0
  1 18  1  6  0  0  0
  2 18  1  6  0  0  0
  2  3  1  0  0  0  0
  2 12  1  0  0  0  0
  3 19  1  1  0  0  0
  3  4  1  0  0  0  0
  4 20  1  6  0  0  0
  4 10  1  0  0  0  0
  5  6  1  0  0  0  0
  5 14  1  1  0  0  0
  6 21  1  1  0  0  0
  7 13  1  1  0  0  0
  7  6  1  0  0  0  0
  8  9  1  6  0  0  0
  8  7  1  0  0  0  0
 10 16  1  1  0  0  0
 11 10  1  0  0  0  0
 12 17  1  1  0  0  0
 12 11  1  0  0  0  0
 15  9  1  0  0  0  0
 22  8  1  0  0  0  0
 22  1  1  0  0  0  0
M  END
>  <CHROM.1>
-73.87747058,153.32103432,177.77456125,-5.77136752,-4.81075958,-2.18005952
0.86146482,-0.22799022,-2.60495732

>  <Name>
lig.pdb

>  <RI>
0

>  <Rbt.Current_Directory>
/home/itssahil/PROJECTS/Mol_Feturizer/New_Systems/rnas/5bws

>  <Rbt.Executable>
rbdock ($Id: //depot/dev/client3/rdock/2013.1/src/exe/rbdock.cxx#4 $)

>  <Rbt.Library>
libRbt.so (2013.1, Build901 2013/11/27)

>  <Rbt.Parameter_File>
/export/apps/rDock/src/rDock_2013.1_src/data/scripts/dock_solv.prm

>  <Rbt.Receptor>
prm/pocket_docking_6.prm

>  <SCORE>
-9.33354

>  <SCORE.INTER>
-9.03841

>  <SCORE.INTER.CONST>
1

>  <SCORE.INTER.POLAR>
0

>  <SCORE.INTER.ROT>
3

>  <SCORE.INTER.SOLV>
19.4826

>  <SCORE.INTER.VDW>
-18.1198

>  <SCORE.INTER.norm>
-0.410837

>  <SCORE.INTRA>
-0.29513

>  <SCORE.INTRA.DIHEDRAL>
-2.2023

>  <SCORE.INTRA.DIHEDRAL.0>
6.10773

>  <SCORE.INTRA.POLAR>
0

>  <SCORE.INTRA.POLAR.0>
0

>  <SCORE.INTRA.REPUL>
0

>  <SCORE.INTRA.REPUL.0>
0

>  <SCORE.INTRA.SOLV>
1.38349

>  <SCORE.INTRA.SOLV.lig_0>
-71.4024

>  <SCORE.INTRA.VDW>
0.114271

>  <SCORE.INTRA.VDW.0>
-1.86213

>  <SCORE.INTRA.norm>
-0.013415

>  <SCORE.RESTR>
0

>  <SCORE.RESTR.CAVITY>
0

>  <SCORE.RESTR.norm>
0

>  <SCORE.SYSTEM>
0

>  <SCORE.SYSTEM.CONST>
0

>  <SCORE.SYSTEM.DIHEDRAL>
0

>  <SCORE.SYSTEM.SOLV>
0

>  <SCORE.SYSTEM.norm>
0

>  <SCORE.heavy>
22

>  <SCORE.norm>
-0.424252

>  <RMSD>
6.379

$$$$
lig.pdb
 OpenBabel11021811523D
libRbt.so/2013.1/901 2013/11/27
 22 23  0  0  0  0  0  0  0  0999 V2000
   -7.6112   -0.8375    1.3813 C   0  0  1  0  0  0  0  0  0  0  0  0
   -7.1818   -2.7163   -0.2548 C   0  0  1  0  0  0  0  0  0  0  0  0
   -8.3761   -3.7039    0.1129 C   0  0  1  0  0  0  0  0  0  0  0  0
   -7.9447   -5.1774   -0.3206 C   0  0  2  0  0  0  0  0  0  0  0  0
   -8.0097    0.6879    1.3148 C   0  0  1  0  0  0  0  0  0  0  0  0
   -6.8900    1.4405    0.5690 C   0  0  2  0  0  0  0  0  0  0  0  0
   -5.5530    1.3207    1.3217 C   0  0  2  0  0  0  0  0  0  0  0  0
   -5.1078   -0.1814    1.4557 C   0  0  1  0  0  0  0  0  0  0  0  0
   -3.7848   -0.3114    2.2642 C   0  0  0  0  0  0  0  0  0  0  0  0
   -7.7236   -5.2153   -1.9181 C   0  0  1  0  0  0  0  0  0  0  0  0
   -6.5135   -4.2061   -2.2512 C   0  0  0  0  0  0  0  0  0  0  0  0
   -6.9040   -2.7265   -1.7917 C   0  0  2  0  0  0  0  0  0  0  0  0
   -5.6772    1.9030    2.6628 F   0  0  0  0  0  0  0  0  0  0  0  0
   -9.3363    0.7883    0.5912 N   0  0  0  0  0  0  0  0  0  0  0  0
   -2.6728    0.3495    1.6937 N   0  0  0  0  0  0  0  0  0  0  0  0
   -7.2983   -6.5830   -2.3735 N   0  0  0  0  0  0  0  0  0  0  0  0
   -5.7896   -1.8066   -2.0984 N   0  0  0  0  0  0  0  0  0  0  0  0
   -7.5203   -1.3851    0.1034 O   0  0  0  0  0  0  0  0  0  0  0  0
   -8.5737   -3.6539    1.5808 O   0  0  0  0  0  0  0  0  0  0  0  0
   -9.0023   -6.0239    0.0200 O   0  0  0  0  0  0  0  0  0  0  0  0
   -7.1815    2.5524    0.5237 O   0  0  0  0  0  0  0  0  0  0  0  0
   -6.2774   -0.9321    2.1178 O   0  0  0  0  0  0  0  0  0  0  0  0
  1  5  1  0  0  0  0
  1 18  1  6  0  0  0
  2 18  1  6  0  0  0
  2  3  1  0  0  0  0
  2 12  1  0  0  0  0
  3 19  1  1  0  0  0
  3  4  1  0  0  0  0
  4 20  1  6  0  0  0
  4 10  1  0  0  0  0
  5  6  1  0  0  0  0
  5 14  1  6  0  0  0
  6 21  1  1  0  0  0
  7 13  1  1  0  0  0
  7  6  1  0  0  0  0
  8  9  1  1  0  0  0
  8  7  1  0  0  0  0
 10 16  1  1  0  0  0
 11 10  1  0  0  0  0
 12 17  1  1  0  0  0
 12 11  1  0  0  0  0
 15  9  1  0  0  0  0
 22  8  1  0  0  0  0
 22  1  1  0  0  0  0
M  END
>  <CHROM.1>
179.63038294,71.97582634,-60.84837659,-6.85991557,-1.60441547,0.36395143
1.28290171,0.04057177,0.42375470

>  <Name>
lig.pdb

>  <RI>
0

>  <Rbt.Current_Directory>
/home/itssahil/PROJECTS/Mol_Feturizer/New_Systems/rnas/5bws

>  <Rbt.Executable>
rbdock ($Id: //depot/dev/client3/rdock/2013.1/src/exe/rbdock.cxx#4 $)

>  <Rbt.Library>
libRbt.so (2013.1, Build901 2013/11/27)

>  <Rbt.Parameter_File>
/export/apps/rDock/src/rDock_2013.1_src/data/scripts/dock_solv.prm

>  <Rbt.Receptor>
prm/pocket_docking_3.prm

>  <SCORE>
-11.7

>  <SCORE.INTER>
-8.79913

>  <SCORE.INTER.CONST>
1

>  <SCORE.INTER.POLAR>
0

>  <SCORE.INTER.ROT>
3

>  <SCORE.INTER.SOLV>
18.5455

>  <SCORE.INTER.VDW>
-17.6479

>  <SCORE.INTER.norm>
-0.39996

>  <SCORE.INTRA>
-2.90092

>  <SCORE.INTRA.DIHEDRAL>
-5.41721

>  <SCORE.INTRA.DIHEDRAL.0>
6.10773

>  <SCORE.INTRA.POLAR>
0

>  <SCORE.INTRA.POLAR.0>
0

>  <SCORE.INTRA.REPUL>
0

>  <SCORE.INTRA.REPUL.0>
0

>  <SCORE.INTRA.SOLV>
-0.856154

>  <SCORE.INTRA.SOLV.lig_0>
-71.4024

>  <SCORE.INTRA.VDW>
0.235764

>  <SCORE.INTRA.VDW.0>
-1.86213

>  <SCORE.INTRA.norm>
-0.13186

>  <SCORE.RESTR>
0

>  <SCORE.RESTR.CAVITY>
0

>  <SCORE.RESTR.norm>
0

>  <SCORE.SYSTEM>
0

>  <SCORE.SYSTEM.CONST>
0

>  <SCORE.SYSTEM.DIHEDRAL>
0

>  <SCORE.SYSTEM.SOLV>
0

>  <SCORE.SYSTEM.norm>
0

>  <SCORE.heavy>
22

>  <SCORE.norm>
-0.53182

>  <RMSD>
6.382

$$$$
lig.pdb
 OpenBabel11021811523D
libRbt.so/2013.1/901 2013/11/27
 22 23  0  0  0  0  0  0  0  0999 V2000
   -7.6124   -0.8604    1.3772 C   0  0  1  0  0  0  0  0  0  0  0  0
   -7.1778   -2.7345   -0.2629 C   0  0  1  0  0  0  0  0  0  0  0  0
   -8.3678   -3.7273    0.1051 C   0  0  1  0  0  0  0  0  0  0  0  0
   -7.9315   -5.1985   -0.3316 C   0  0  2  0  0  0  0  0  0  0  0  0
   -8.0269    0.6609    1.3143 C   0  0  1  0  0  0  0  0  0  0  0  0
   -6.9179    1.4260    0.5653 C   0  0  2  0  0  0  0  0  0  0  0  0
   -5.5768    1.3190    1.3127 C   0  0  2  0  0  0  0  0  0  0  0  0
   -5.1156   -0.1785    1.4429 C   0  0  1  0  0  0  0  0  0  0  0  0
   -3.7883   -0.2960    2.2461 C   0  0  0  0  0  0  0  0  0  0  0  0
   -7.7129   -5.2328   -1.9294 C   0  0  1  0  0  0  0  0  0  0  0  0
   -6.5073   -4.2185   -2.2628 C   0  0  0  0  0  0  0  0  0  0  0  0
   -6.9026   -2.7411   -1.8003 C   0  0  2  0  0  0  0  0  0  0  0  0
   -5.7020    1.8982    2.6551 F   0  0  0  0  0  0  0  0  0  0  0  0
   -9.3572    0.7486    0.5959 N   0  0  0  0  0  0  0  0  0  0  0  0
   -2.6894    0.3909    1.6811 N   0  0  0  0  0  0  0  0  0  0  0  0
   -7.2832   -6.5981   -2.3879 N   0  0  0  0  0  0  0  0  0  0  0  0
   -5.7922   -1.8165   -2.1073 N   0  0  0  0  0  0  0  0  0  0  0  0
   -7.5208   -1.4053    0.0982 O   0  0  0  0  0  0  0  0  0  0  0  0
   -8.5631   -3.6805    1.5735 O   0  0  0  0  0  0  0  0  0  0  0  0
   -8.9853   -6.0495    0.0094 O   0  0  0  0  0  0  0  0  0  0  0  0
   -7.2210    2.5349    0.5226 O   0  0  0  0  0  0  0  0  0  0  0  0
   -6.2750   -0.9422    2.1084 O   0  0  0  0  0  0  0  0  0  0  0  0
  1  5  1  0  0  0  0
  1 18  1  6  0  0  0
  2 18  1  6  0  0  0
  2  3  1  0  0  0  0
  2 12  1  0  0  0  0
  3 19  1  1  0  0  0
  3  4  1  0  0  0  0
  4 20  1  6  0  0  0
  4 10  1  0  0  0  0
  5  6  1  0  0  0  0
  5 14  1  6  0  0  0
  6 21  1  1  0  0  0
  7 13  1  1  0  0  0
  7  6  1  0  0  0  0
  8  9  1  1  0  0  0
  8  7  1  0  0  0  0
 10 16  1  1  0  0  0
 11 10  1  0  0  0  0
 12 17  1  1  0  0  0
 12 11  1  0  0  0  0
 15  9  1  0  0  0  0
 22  8  1  0  0  0  0
 22  1  1  0  0  0  0
M  END
>  <CHROM.1>
-179.95008413,71.93244728,-60.09779738,-6.86459811,-1.61729144,0.35586115
1.28697871,0.05017690,0.42616081

>  <Name>
lig.pdb

>  <RI>
0

>  <Rbt.Current_Directory>
/home/itssahil/PROJECTS/Mol_Feturizer/New_Systems/rnas/5bws

>  <Rbt.Executable>
rbdock ($Id: //depot/dev/client3/rdock/2013.1/src/exe/rbdock.cxx#4 $)

>  <Rbt.Library>
libRbt.so (2013.1, Build901 2013/11/27)

>  <Rbt.Parameter_File>
/export/apps/rDock/src/rDock_2013.1_src/data/scripts/dock_solv.prm

>  <Rbt.Receptor>
prm/pocket_docking_3.prm

>  <SCORE>
-11.7126

>  <SCORE.INTER>
-8.80015

>  <SCORE.INTER.CONST>
1

>  <SCORE.INTER.POLAR>
0

>  <SCORE.INTER.ROT>
3

>  <SCORE.INTER.SOLV>
18.5012

>  <SCORE.INTER.VDW>
-17.6338

>  <SCORE.INTER.norm>
-0.400007

>  <SCORE.INTRA>
-2.91249

>  <SCORE.INTRA.DIHEDRAL>
-5.4253

>  <SCORE.INTRA.DIHEDRAL.0>
6.10773

>  <SCORE.INTRA.POLAR>
0

>  <SCORE.INTRA.POLAR.0>
0

>  <SCORE.INTRA.REPUL>
0

>  <SCORE.INTRA.REPUL.0>
0

>  <SCORE.INTRA.SOLV>
-0.844682

>  <SCORE.INTRA.SOLV.lig_0>
-71.4024

>  <SCORE.INTRA.VDW>
0.222504

>  <SCORE.INTRA.VDW.0>
-1.86213

>  <SCORE.INTRA.norm>
-0.132386

>  <SCORE.RESTR>
0

>  <SCORE.RESTR.CAVITY>
0

>  <SCORE.RESTR.norm>
0

>  <SCORE.SYSTEM>
0

>  <SCORE.SYSTEM.CONST>
0

>  <SCORE.SYSTEM.DIHEDRAL>
0

>  <SCORE.SYSTEM.SOLV>
0

>  <SCORE.SYSTEM.norm>
0

>  <SCORE.heavy>
22

>  <SCORE.norm>
-0.532393

>  <RMSD>
6.386

$$$$
lig.pdb
 OpenBabel11021811523D
libRbt.so/2013.1/901 2013/11/27
 22 23  0  0  0  0  0  0  0  0999 V2000
   -7.8444   -0.8659    1.2709 C   0  0  1  0  0  0  0  0  0  0  0  0
   -7.2674   -2.7487   -0.3145 C   0  0  1  0  0  0  0  0  0  0  0  0
   -8.4317   -3.7734    0.0479 C   0  0  1  0  0  0  0  0  0  0  0  0
   -7.9352   -5.2380   -0.3438 C   0  0  2  0  0  0  0  0  0  0  0  0
   -8.4726    0.5779    1.1657 C   0  0  1  0  0  0  0  0  0  0  0  0
   -7.4783    1.4752    0.4026 C   0  0  2  0  0  0  0  0  0  0  0  0
   -6.1425    1.5812    1.1595 C   0  0  2  0  0  0  0  0  0  0  0  0
   -5.4722    0.1694    1.3316 C   0  0  1  0  0  0  0  0  0  0  0  0
   -4.1489    0.2644    2.1445 C   0  0  0  0  0  0  0  0  0  0  0  0
   -7.6760   -5.3007   -1.9347 C   0  0  1  0  0  0  0  0  0  0  0  0
   -6.4976   -4.2532   -2.2627 C   0  0  0  0  0  0  0  0  0  0  0  0
   -6.9541   -2.7803   -1.8443 C   0  0  2  0  0  0  0  0  0  0  0  0
   -6.3615    2.1703    2.4855 F   0  0  0  0  0  0  0  0  0  0  0  0
   -9.7952    0.4550    0.4383 N   0  0  0  0  0  0  0  0  0  0  0  0
   -3.4473   -0.9552    2.2816 N   0  0  0  0  0  0  0  0  0  0  0  0
   -7.1891   -6.6603   -2.3508 N   0  0  0  0  0  0  0  0  0  0  0  0
   -5.8684   -1.8250   -2.1460 N   0  0  0  0  0  0  0  0  0  0  0  0
   -7.6641   -1.4242    0.0072 O   0  0  0  0  0  0  0  0  0  0  0  0
   -8.6649   -3.7004    1.5097 O   0  0  0  0  0  0  0  0  0  0  0  0
   -8.9676   -6.1170   -0.0084 O   0  0  0  0  0  0  0  0  0  0  0  0
   -7.9371    2.5276    0.3291 O   0  0  0  0  0  0  0  0  0  0  0  0
   -6.5157   -0.7360    2.0110 O   0  0  0  0  0  0  0  0  0  0  0  0
  1  5  1  0  0  0  0
  1 18  1  6  0  0  0
  2 18  1  6  0  0  0
  2  3  1  0  0  0  0
  2 12  1  0  0  0  0
  3 19  1  1  0  0  0
  3  4  1  0  0  0  0
  4 20  1  6  0  0  0
  4 10  1  0  0  0  0
  5  6  1  0  0  0  0
  5 14  1  6  0  0  0
  6 21  1  1  0  0  0
  7 13  1  1  0  0  0
  7  6  1  0  0  0  0
  8  9  1  1  0  0  0
  8  7  1  0  0  0  0
 10 16  1  1  0  0  0
 11 10  1  0  0  0  0
 12 17  1  1  0  0  0
 12 11  1  0  0  0  0
 15  9  1  0  0  0  0
 22  8  1  0  0  0  0
 22  1  1  0  0  0  0
M  END
>  <CHROM.1>
-172.48721510,69.82254241,-176.75736360,-7.13038981,-1.63387515,0.30164688
1.39248513,-0.14281575,0.37044665

>  <Name>
lig.pdb

>  <RI>
0

>  <Rbt.Current_Directory>
/home/itssahil/PROJECTS/Mol_Feturizer/New_Systems/rnas/5bws

>  <Rbt.Executable>
rbdock ($Id: //depot/dev/client3/rdock/2013.1/src/exe/rbdock.cxx#4 $)

>  <Rbt.Library>
libRbt.so (2013.1, Build901 2013/11/27)

>  <Rbt.Parameter_File>
/export/apps/rDock/src/rDock_2013.1_src/data/scripts/dock_solv.prm

>  <Rbt.Receptor>
prm/pocket_docking_6.prm

>  <SCORE>
-11.3339

>  <SCORE.INTER>
-8.19132

>  <SCORE.INTER.CONST>
1

>  <SCORE.INTER.POLAR>
0

>  <SCORE.INTER.ROT>
3

>  <SCORE.INTER.SOLV>
19.6483

>  <SCORE.INTER.VDW>
-17.6103

>  <SCORE.INTER.norm>
-0.372333

>  <SCORE.INTRA>
-3.14263

>  <SCORE.INTRA.DIHEDRAL>
-5.327

>  <SCORE.INTRA.DIHEDRAL.0>
6.10773

>  <SCORE.INTRA.POLAR>
0

>  <SCORE.INTRA.POLAR.0>
0

>  <SCORE.INTRA.REPUL>
0

>  <SCORE.INTRA.REPUL.0>
0

>  <SCORE.INTRA.SOLV>
-1.44172

>  <SCORE.INTRA.SOLV.lig_0>
-71.4024

>  <SCORE.INTRA.VDW>
0.241735

>  <SCORE.INTRA.VDW.0>
-1.86213

>  <SCORE.INTRA.norm>
-0.142847

>  <SCORE.RESTR>
0

>  <SCORE.RESTR.CAVITY>
0

>  <SCORE.RESTR.norm>
0

>  <SCORE.SYSTEM>
0

>  <SCORE.SYSTEM.CONST>
0

>  <SCORE.SYSTEM.DIHEDRAL>
0

>  <SCORE.SYSTEM.SOLV>
0

>  <SCORE.SYSTEM.norm>
0

>  <SCORE.heavy>
22

>  <SCORE.norm>
-0.515179

>  <RMSD>
6.393

$$$$
lig.pdb
 OpenBabel11021811523D
libRbt.so/2013.1/901 2013/11/27
 22 23  0  0  0  0  0  0  0  0999 V2000
   -7.5687   -0.9635    1.2508 C   0  0  1  0  0  0  0  0  0  0  0  0
   -7.1517   -2.8548   -0.3742 C   0  0  1  0  0  0  0  0  0  0  0  0
   -8.3563   -3.8176    0.0245 C   0  0  1  0  0  0  0  0  0  0  0  0
   -7.9579   -5.3029   -0.4005 C   0  0  2  0  0  0  0  0  0  0  0  0
   -7.9331    0.5699    1.1745 C   0  0  1  0  0  0  0  0  0  0  0  0
   -6.7813    1.2977    0.4535 C   0  0  2  0  0  0  0  0  0  0  0  0
   -5.4643    1.1503    1.2358 C   0  0  2  0  0  0  0  0  0  0  0  0
   -5.0542   -0.3607    1.3806 C   0  0  1  0  0  0  0  0  0  0  0  0
   -3.7526   -0.5179    2.2184 C   0  0  0  0  0  0  0  0  0  0  0  0
   -7.7653   -5.3613   -2.0010 C   0  0  1  0  0  0  0  0  0  0  0  0
   -6.5440   -4.3768   -2.3656 C   0  0  0  0  0  0  0  0  0  0  0  0
   -6.9009   -2.8859   -1.9155 C   0  0  2  0  0  0  0  0  0  0  0  0
   -5.6060    1.7366    2.5735 F   0  0  0  0  0  0  0  0  0  0  0  0
   -9.2408    0.6977    0.4214 N   0  0  0  0  0  0  0  0  0  0  0  0
   -2.5915    0.0215    1.6188 N   0  0  0  0  0  0  0  0  0  0  0  0
   -7.3716   -6.7408   -2.4490 N   0  0  0  0  0  0  0  0  0  0  0  0
   -5.7763   -1.9887   -2.2511 N   0  0  0  0  0  0  0  0  0  0  0  0
   -7.4611   -1.5143   -0.0245 O   0  0  0  0  0  0  0  0  0  0  0  0
   -8.5275   -3.7489    1.4950 O   0  0  0  0  0  0  0  0  0  0  0  0
   -9.0238   -6.1272   -0.0326 O   0  0  0  0  0  0  0  0  0  0  0  0
   -7.0480    2.4156    0.4010 O   0  0  0  0  0  0  0  0  0  0  0  0
   -6.2540   -1.0857    2.0168 O   0  0  0  0  0  0  0  0  0  0  0  0
  1  5  1  0  0  0  0
  1 18  1  6  0  0  0
  2 18  1  6  0  0  0
  2  3  1  0  0  0  0
  2 12  1  0  0  0  0
  3 19  1  1  0  0  0
  3  4  1  0  0  0  0
  4 20  1  6  0  0  0
  4 10  1  0  0  0  0
  5  6  1  0  0  0  0
  5 14  1  6  0  0  0
  6 21  1  1  0  0  0
  7 13  1  1  0  0  0
  7  6  1  0  0  0  0
  8  9  1  1  0  0  0
  8  7  1  0  0  0  0
 10 16  1  1  0  0  0
 11 10  1  0  0  0  0
 12 17  1  1  0  0  0
 12 11  1  0  0  0  0
 15  9  1  0  0  0  0
 22  8  1  0  0  0  0
 22  1  1  0  0  0  0
M  END
>  <CHROM.1>
-179.90782429,69.37332131,-65.91076090,-6.82270299,-1.75587334,0.26190880
1.26978897,-0.00309964,0.41289248

>  <Name>
lig.pdb

>  <RI>
0

>  <Rbt.Current_Directory>
/home/itssahil/PROJECTS/Mol_Feturizer/New_Systems/rnas/5bws

>  <Rbt.Executable>
rbdock ($Id: //depot/dev/client3/rdock/2013.1/src/exe/rbdock.cxx#4 $)

>  <Rbt.Library>
libRbt.so (2013.1, Build901 2013/11/27)

>  <Rbt.Parameter_File>
/export/apps/rDock/src/rDock_2013.1_src/data/scripts/dock_solv.prm

>  <Rbt.Receptor>
prm/pocket_docking_4.prm

>  <SCORE>
-11.7291

>  <SCORE.INTER>
-8.7051

>  <SCORE.INTER.CONST>
1

>  <SCORE.INTER.POLAR>
0

>  <SCORE.INTER.ROT>
3

>  <SCORE.INTER.SOLV>
19.4404

>  <SCORE.INTER.VDW>
-17.8835

>  <SCORE.INTER.norm>
-0.395686

>  <SCORE.INTRA>
-3.02402

>  <SCORE.INTRA.DIHEDRAL>
-5.55438

>  <SCORE.INTRA.DIHEDRAL.0>
6.10773

>  <SCORE.INTRA.POLAR>
0

>  <SCORE.INTRA.POLAR.0>
0

>  <SCORE.INTRA.REPUL>
0

>  <SCORE.INTRA.REPUL.0>
0

>  <SCORE.INTRA.SOLV>
-1.0332

>  <SCORE.INTRA.SOLV.lig_0>
-71.4024

>  <SCORE.INTRA.VDW>
0.269764

>  <SCORE.INTRA.VDW.0>
-1.86213

>  <SCORE.INTRA.norm>
-0.137456

>  <SCORE.RESTR>
0

>  <SCORE.RESTR.CAVITY>
0

>  <SCORE.RESTR.norm>
0

>  <SCORE.SYSTEM>
0

>  <SCORE.SYSTEM.CONST>
0

>  <SCORE.SYSTEM.DIHEDRAL>
0

>  <SCORE.SYSTEM.SOLV>
0

>  <SCORE.SYSTEM.norm>
0

>  <SCORE.heavy>
22

>  <SCORE.norm>
-0.533142

>  <RMSD>
6.403

$$$$
lig.pdb
 OpenBabel11021811523D
libRbt.so/2013.1/901 2013/11/27
 22 23  0  0  0  0  0  0  0  0999 V2000
   -8.0976   -1.2367    1.0884 C   0  0  1  0  0  0  0  0  0  0  0  0
   -7.3539   -3.2094   -0.3067 C   0  0  1  0  0  0  0  0  0  0  0  0
   -8.0653   -4.4696   -0.9723 C   0  0  1  0  0  0  0  0  0  0  0  0
   -6.9379   -5.3569   -1.6702 C   0  0  2  0  0  0  0  0  0  0  0  0
   -9.2321   -1.0544    2.1699 C   0  0  1  0  0  0  0  0  0  0  0  0
  -10.5699   -0.8614    1.4288 C   0  0  2  0  0  0  0  0  0  0  0  0
  -10.5321    0.4000    0.5480 C   0  0  2  0  0  0  0  0  0  0  0  0
   -9.3980    0.3030   -0.5369 C   0  0  1  0  0  0  0  0  0  0  0  0
   -9.3198    1.5992   -1.3939 C   0  0  0  0  0  0  0  0  0  0  0  0
   -6.2319   -4.4939   -2.8359 C   0  0  1  0  0  0  0  0  0  0  0  0
   -5.5272   -3.2310   -2.1273 C   0  0  0  0  0  0  0  0  0  0  0  0
   -6.6305   -2.3437   -1.3868 C   0  0  2  0  0  0  0  0  0  0  0  0
  -10.2973    1.5864    1.3790 F   0  0  0  0  0  0  0  0  0  0  0  0
   -9.2432   -2.2927    3.0418 N   0  0  0  0  0  0  0  0  0  0  0  0
  -10.5266    1.9609   -2.0352 N   0  0  0  0  0  0  0  0  0  0  0  0
   -5.1478   -5.2840   -3.5135 N   0  0  0  0  0  0  0  0  0  0  0  0
   -5.9774   -1.1885   -0.7378 N   0  0  0  0  0  0  0  0  0  0  0  0
   -8.3183   -2.3792    0.3222 O   0  0  0  0  0  0  0  0  0  0  0  0
   -8.7158   -5.2490    0.1074 O   0  0  0  0  0  0  0  0  0  0  0  0
   -7.5846   -6.4577   -2.2369 O   0  0  0  0  0  0  0  0  0  0  0  0
  -11.3950   -0.7265    2.2190 O   0  0  0  0  0  0  0  0  0  0  0  0
   -8.0870    0.0173    0.2179 O   0  0  0  0  0  0  0  0  0  0  0  0
  1  5  1  0  0  0  0
  1 18  1  6  0  0  0
  2 18  1  6  0  0  0
  2  3  1  0  0  0  0
  2 12  1  0  0  0  0
  3 19  1  1  0  0  0
  3  4  1  0  0  0  0
  4 20  1  6  0  0  0
  4 10  1  0  0  0  0
  5  6  1  0  0  0  0
  5 14  1  1  0  0  0
  6 21  1  1  0  0  0
  7 13  1  1  0  0  0
  7  6  1  0  0  0  0
  8  9  1  1  0  0  0
  8  7  1  0  0  0  0
 10 16  1  1  0  0  0
 11 10  1  0  0  0  0
 12 17  1  1  0  0  0
 12 11  1  0  0  0  0
 15  9  1  0  0  0  0
 22  8  1  0  0  0  0
 22  1  1  0  0  0  0
M  END
>  <CHROM.1>
-150.34236825,175.27372389,-56.05886298,-8.37443659,-1.96446107,-0.28976546
2.53483989,0.91642025,-0.36816740

>  <Name>
lig.pdb

>  <RI>
0

>  <Rbt.Current_Directory>
/home/itssahil/PROJECTS/Mol_Feturizer/New_Systems/rnas/5bws

>  <Rbt.Executable>
rbdock ($Id: //depot/dev/client3/rdock/2013.1/src/exe/rbdock.cxx#4 $)

>  <Rbt.Library>
libRbt.so (2013.1, Build901 2013/11/27)

>  <Rbt.Parameter_File>
/export/apps/rDock/src/rDock_2013.1_src/data/scripts/dock_solv.prm

>  <Rbt.Receptor>
prm/pocket_docking_5.prm

>  <SCORE>
-8.25648

>  <SCORE.INTER>
-8.58207

>  <SCORE.INTER.CONST>
1

>  <SCORE.INTER.POLAR>
0

>  <SCORE.INTER.ROT>
3

>  <SCORE.INTER.SOLV>
20.7164

>  <SCORE.INTER.VDW>
-18.2268

>  <SCORE.INTER.norm>
-0.390094

>  <SCORE.INTRA>
0.32559

>  <SCORE.INTRA.DIHEDRAL>
-2.40483

>  <SCORE.INTRA.DIHEDRAL.0>
6.10773

>  <SCORE.INTRA.POLAR>
0

>  <SCORE.INTRA.POLAR.0>
0

>  <SCORE.INTRA.REPUL>
0

>  <SCORE.INTRA.REPUL.0>
0

>  <SCORE.INTRA.SOLV>
1.38733

>  <SCORE.INTRA.SOLV.lig_0>
-71.4024

>  <SCORE.INTRA.VDW>
0.834336

>  <SCORE.INTRA.VDW.0>
-1.86213

>  <SCORE.INTRA.norm>
0.0147996

>  <SCORE.RESTR>
0

>  <SCORE.RESTR.CAVITY>
0

>  <SCORE.RESTR.norm>
0

>  <SCORE.SYSTEM>
0

>  <SCORE.SYSTEM.CONST>
0

>  <SCORE.SYSTEM.DIHEDRAL>
0

>  <SCORE.SYSTEM.SOLV>
0

>  <SCORE.SYSTEM.norm>
0

>  <SCORE.heavy>
22

>  <SCORE.norm>
-0.375295

>  <RMSD>
6.403

$$$$
lig.pdb
 OpenBabel11021811523D
libRbt.so/2013.1/901 2013/11/27
 22 23  0  0  0  0  0  0  0  0999 V2000
   -7.9373   -0.9565    1.2590 C   0  0  1  0  0  0  0  0  0  0  0  0
   -7.3530   -2.8199   -0.3466 C   0  0  1  0  0  0  0  0  0  0  0  0
   -8.4566   -3.9025    0.0368 C   0  0  1  0  0  0  0  0  0  0  0  0
   -7.8971   -5.3392   -0.3732 C   0  0  2  0  0  0  0  0  0  0  0  0
   -8.6011    0.4728    1.1785 C   0  0  1  0  0  0  0  0  0  0  0  0
   -7.6654    1.3870    0.3630 C   0  0  2  0  0  0  0  0  0  0  0  0
   -6.2966    1.5260    1.0524 C   0  0  2  0  0  0  0  0  0  0  0  0
   -5.5880    0.1299    1.1976 C   0  0  1  0  0  0  0  0  0  0  0  0
   -4.2286    0.2579    1.9437 C   0  0  0  0  0  0  0  0  0  0  0  0
   -7.6714   -5.3828   -1.9699 C   0  0  1  0  0  0  0  0  0  0  0  0
   -6.5540   -4.2768   -2.3190 C   0  0  0  0  0  0  0  0  0  0  0  0
   -7.0733   -2.8300   -1.8831 C   0  0  2  0  0  0  0  0  0  0  0  0
   -6.4627    2.1176    2.3849 F   0  0  0  0  0  0  0  0  0  0  0  0
   -9.9550    0.3174    0.5179 N   0  0  0  0  0  0  0  0  0  0  0  0
   -3.4881   -0.9425    2.0390 N   0  0  0  0  0  0  0  0  0  0  0  0
   -7.1273   -6.7149   -2.4036 N   0  0  0  0  0  0  0  0  0  0  0  0
   -6.0434   -1.8209   -2.2044 N   0  0  0  0  0  0  0  0  0  0  0  0
   -7.8074   -1.5180   -0.0095 O   0  0  0  0  0  0  0  0  0  0  0  0
   -8.6598   -3.8467    1.5038 O   0  0  0  0  0  0  0  0  0  0  0  0
   -8.8769   -6.2696   -0.0191 O   0  0  0  0  0  0  0  0  0  0  0  0
   -8.1502    2.4288    0.3075 O   0  0  0  0  0  0  0  0  0  0  0  0
   -6.5768   -0.7939    1.9319 O   0  0  0  0  0  0  0  0  0  0  0  0
  1  5  1  0  0  0  0
  1 18  1  6  0  0  0
  2 18  1  6  0  0  0
  2  3  1  0  0  0  0
  2 12  1  0  0  0  0
  3 19  1  1  0  0  0
  3  4  1  0  0  0  0
  4 20  1  6  0  0  0
  4 10  1  0  0  0  0
  5  6  1  0  0  0  0
  5 14  1  6  0  0  0
  6 21  1  1  0  0  0
  7 13  1  1  0  0  0
  7  6  1  0  0  0  0
  8  9  1  1  0  0  0
  8  7  1  0  0  0  0
 10 16  1  1  0  0  0
 11 10  1  0  0  0  0
 12 17  1  1  0  0  0
 12 11  1  0  0  0  0
 15  9  1  0  0  0  0
 22  8  1  0  0  0  0
 22  1  1  0  0  0  0
M  END
>  <CHROM.1>
-174.94371224,72.54994875,-176.11859152,-7.20903779,-1.70805326,0.24721955
1.41695540,-0.07688530,0.37214136

>  <Name>
lig.pdb

>  <RI>
0

>  <Rbt.Current_Directory>
/home/itssahil/PROJECTS/Mol_Feturizer/New_Systems/rnas/5bws

>  <Rbt.Executable>
rbdock ($Id: //depot/dev/client3/rdock/2013.1/src/exe/rbdock.cxx#4 $)

>  <Rbt.Library>
libRbt.so (2013.1, Build901 2013/11/27)

>  <Rbt.Parameter_File>
/export/apps/rDock/src/rDock_2013.1_src/data/scripts/dock_solv.prm

>  <Rbt.Receptor>
prm/pocket_docking_6.prm

>  <SCORE>
-11.3062

>  <SCORE.INTER>
-8.2156

>  <SCORE.INTER.CONST>
1

>  <SCORE.INTER.POLAR>
0

>  <SCORE.INTER.ROT>
3

>  <SCORE.INTER.SOLV>
19.5344

>  <SCORE.INTER.VDW>
-17.5885

>  <SCORE.INTER.norm>
-0.373436

>  <SCORE.INTRA>
-3.09058

>  <SCORE.INTRA.DIHEDRAL>
-5.1764

>  <SCORE.INTRA.DIHEDRAL.0>
6.10773

>  <SCORE.INTRA.POLAR>
0

>  <SCORE.INTRA.POLAR.0>
0

>  <SCORE.INTRA.REPUL>
0

>  <SCORE.INTRA.REPUL.0>
0

>  <SCORE.INTRA.SOLV>
-1.37978

>  <SCORE.INTRA.SOLV.lig_0>
-71.4024

>  <SCORE.INTRA.VDW>
0.187506

>  <SCORE.INTRA.VDW.0>
-1.86213

>  <SCORE.INTRA.norm>
-0.140481

>  <SCORE.RESTR>
0

>  <SCORE.RESTR.CAVITY>
0

>  <SCORE.RESTR.norm>
0

>  <SCORE.SYSTEM>
0

>  <SCORE.SYSTEM.CONST>
0

>  <SCORE.SYSTEM.DIHEDRAL>
0

>  <SCORE.SYSTEM.SOLV>
0

>  <SCORE.SYSTEM.norm>
0

>  <SCORE.heavy>
22

>  <SCORE.norm>
-0.513918

>  <RMSD>
6.405

$$$$
lig.pdb
 OpenBabel11021811523D
libRbt.so/2013.1/901 2013/11/27
 22 23  0  0  0  0  0  0  0  0999 V2000
   -7.9480   -0.9481    1.2859 C   0  0  1  0  0  0  0  0  0  0  0  0
   -7.3564   -2.8005   -0.3296 C   0  0  1  0  0  0  0  0  0  0  0  0
   -8.4623   -3.8831    0.0472 C   0  0  1  0  0  0  0  0  0  0  0  0
   -7.9050   -5.3186   -0.3701 C   0  0  2  0  0  0  0  0  0  0  0  0
   -8.6279    0.4741    1.2131 C   0  0  1  0  0  0  0  0  0  0  0  0
   -7.7006    1.4043    0.4061 C   0  0  2  0  0  0  0  0  0  0  0  0
   -6.3351    1.5542    1.0998 C   0  0  2  0  0  0  0  0  0  0  0  0
   -5.6111    0.1652    1.2376 C   0  0  1  0  0  0  0  0  0  0  0  0
   -4.2551    0.3037    1.9879 C   0  0  0  0  0  0  0  0  0  0  0  0
   -7.6781   -5.3541   -1.9668 C   0  0  1  0  0  0  0  0  0  0  0  0
   -6.5585   -4.2483   -2.3091 C   0  0  0  0  0  0  0  0  0  0  0  0
   -7.0755   -2.8029   -1.8659 C   0  0  2  0  0  0  0  0  0  0  0  0
   -6.5111    2.1351    2.4358 F   0  0  0  0  0  0  0  0  0  0  0  0
   -9.9783    0.3078    0.5482 N   0  0  0  0  0  0  0  0  0  0  0  0
   -3.5274   -0.9003    2.1264 N   0  0  0  0  0  0  0  0  0  0  0  0
   -7.1360   -6.6849   -2.4071 N   0  0  0  0  0  0  0  0  0  0  0  0
   -6.0435   -1.7940   -2.1811 N   0  0  0  0  0  0  0  0  0  0  0  0
   -7.8087   -1.4996    0.0141 O   0  0  0  0  0  0  0  0  0  0  0  0
   -8.6666   -3.8348    1.5142 O   0  0  0  0  0  0  0  0  0  0  0  0
   -8.8868   -6.2491   -0.0217 O   0  0  0  0  0  0  0  0  0  0  0  0
   -8.1970    2.4409    0.3562 O   0  0  0  0  0  0  0  0  0  0  0  0
   -6.5911   -0.7745    1.9633 O   0  0  0  0  0  0  0  0  0  0  0  0
  1  5  1  0  0  0  0
  1 18  1  6  0  0  0
  2 18  1  6  0  0  0
  2  3  1  0  0  0  0
  2 12  1  0  0  0  0
  3 19  1  1  0  0  0
  3  4  1  0  0  0  0
  4 20  1  6  0  0  0
  4 10  1  0  0  0  0
  5  6  1  0  0  0  0
  5 14  1  6  0  0  0
  6 21  1  1  0  0  0
  7 13  1  1  0  0  0
  7  6  1  0  0  0  0
  8  9  1  1  0  0  0
  8  7  1  0  0  0  0
 10 16  1  1  0  0  0
 11 10  1  0  0  0  0
 12 17  1  1  0  0  0
 12 11  1  0  0  0  0
 15  9  1  0  0  0  0
 22  8  1  0  0  0  0
 22  1  1  0  0  0  0
M  END
>  <CHROM.1>
-173.98072259,72.02643170,-178.65999194,-7.22726111,-1.68691456,0.27466386
1.41996495,-0.08137248,0.37877197

>  <Name>
lig.pdb

>  <RI>
0

>  <Rbt.Current_Directory>
/home/itssahil/PROJECTS/Mol_Feturizer/New_Systems/rnas/5bws

>  <Rbt.Executable>
rbdock ($Id: //depot/dev/client3/rdock/2013.1/src/exe/rbdock.cxx#4 $)

>  <Rbt.Library>
libRbt.so (2013.1, Build901 2013/11/27)

>  <Rbt.Parameter_File>
/export/apps/rDock/src/rDock_2013.1_src/data/scripts/dock_solv.prm

>  <Rbt.Receptor>
prm/pocket_docking_5.prm

>  <SCORE>
-11.3341

>  <SCORE.INTER>
-8.23508

>  <SCORE.INTER.CONST>
1

>  <SCORE.INTER.POLAR>
0

>  <SCORE.INTER.ROT>
3

>  <SCORE.INTER.SOLV>
19.5419

>  <SCORE.INTER.VDW>
-17.604

>  <SCORE.INTER.norm>
-0.374322

>  <SCORE.INTRA>
-3.09903

>  <SCORE.INTRA.DIHEDRAL>
-5.23129

>  <SCORE.INTRA.DIHEDRAL.0>
6.10773

>  <SCORE.INTRA.POLAR>
0

>  <SCORE.INTRA.POLAR.0>
0

>  <SCORE.INTRA.REPUL>
0

>  <SCORE.INTRA.REPUL.0>
0

>  <SCORE.INTRA.SOLV>
-1.36202

>  <SCORE.INTRA.SOLV.lig_0>
-71.4024

>  <SCORE.INTRA.VDW>
0.197621

>  <SCORE.INTRA.VDW.0>
-1.86213

>  <SCORE.INTRA.norm>
-0.140865

>  <SCORE.RESTR>
0

>  <SCORE.RESTR.CAVITY>
0

>  <SCORE.RESTR.norm>
0

>  <SCORE.SYSTEM>
0

>  <SCORE.SYSTEM.CONST>
0

>  <SCORE.SYSTEM.DIHEDRAL>
0

>  <SCORE.SYSTEM.SOLV>
0

>  <SCORE.SYSTEM.norm>
0

>  <SCORE.heavy>
22

>  <SCORE.norm>
-0.515187

>  <RMSD>
6.409

$$$$
lig.pdb
 OpenBabel11021811523D
libRbt.so/2013.1/901 2013/11/27
 22 23  0  0  0  0  0  0  0  0999 V2000
   -7.9506   -0.9592    1.2721 C   0  0  1  0  0  0  0  0  0  0  0  0
   -7.3514   -2.8076   -0.3452 C   0  0  1  0  0  0  0  0  0  0  0  0
   -8.4567   -3.8893    0.0359 C   0  0  1  0  0  0  0  0  0  0  0  0
   -7.9020   -5.3253   -0.3826 C   0  0  2  0  0  0  0  0  0  0  0  0
   -8.6384    0.4592    1.1998 C   0  0  1  0  0  0  0  0  0  0  0  0
   -7.7126    1.3971    0.4002 C   0  0  2  0  0  0  0  0  0  0  0  0
   -6.3515    1.5530    1.1013 C   0  0  2  0  0  0  0  0  0  0  0  0
   -5.6201    0.1679    1.2389 C   0  0  1  0  0  0  0  0  0  0  0  0
   -4.2688    0.3122    1.9964 C   0  0  0  0  0  0  0  0  0  0  0  0
   -7.6806   -5.3618   -1.9801 C   0  0  1  0  0  0  0  0  0  0  0  0
   -6.5614   -4.2570   -2.3269 C   0  0  0  0  0  0  0  0  0  0  0  0
   -7.0759   -2.8110   -1.8826 C   0  0  2  0  0  0  0  0  0  0  0  0
   -6.5378    2.1290    2.4380 F   0  0  0  0  0  0  0  0  0  0  0  0
   -9.9844    0.2869    0.5275 N   0  0  0  0  0  0  0  0  0  0  0  0
   -3.5239   -0.8835    2.1153 N   0  0  0  0  0  0  0  0  0  0  0  0
   -7.1411   -6.6932   -2.4217 N   0  0  0  0  0  0  0  0  0  0  0  0
   -6.0443   -1.8029   -2.2018 N   0  0  0  0  0  0  0  0  0  0  0  0
   -7.8016   -1.5062   -0.0006 O   0  0  0  0  0  0  0  0  0  0  0  0
   -8.6559   -3.8401    1.5036 O   0  0  0  0  0  0  0  0  0  0  0  0
   -8.8832   -6.2550   -0.0304 O   0  0  0  0  0  0  0  0  0  0  0  0
   -8.2148    2.4309    0.3507 O   0  0  0  0  0  0  0  0  0  0  0  0
   -6.5982   -0.7797    1.9568 O   0  0  0  0  0  0  0  0  0  0  0  0
  1  5  1  0  0  0  0
  1 18  1  6  0  0  0
  2 18  1  6  0  0  0
  2  3  1  0  0  0  0
  2 12  1  0  0  0  0
  3 19  1  1  0  0  0
  3  4  1  0  0  0  0
  4 20  1  6  0  0  0
  4 10  1  0  0  0  0
  5  6  1  0  0  0  0
  5 14  1  6  0  0  0
  6 21  1  1  0  0  0
  7 13  1  1  0  0  0
  7  6  1  0  0  0  0
  8  9  1  1  0  0  0
  8  7  1  0  0  0  0
 10 16  1  1  0  0  0
 11 10  1  0  0  0  0
 12 17  1  1  0  0  0
 12 11  1  0  0  0  0
 15  9  1  0  0  0  0
 22  8  1  0  0  0  0
 22  1  1  0  0  0  0
M  END
>  <CHROM.1>
-173.35299093,71.21852990,-177.62813662,-7.23182761,-1.69274304,0.26489809
1.42165024,-0.08400578,0.38052153

>  <Name>
lig.pdb

>  <RI>
0

>  <Rbt.Current_Directory>
/home/itssahil/PROJECTS/Mol_Feturizer/New_Systems/rnas/5bws

>  <Rbt.Executable>
rbdock ($Id: //depot/dev/client3/rdock/2013.1/src/exe/rbdock.cxx#4 $)

>  <Rbt.Library>
libRbt.so (2013.1, Build901 2013/11/27)

>  <Rbt.Parameter_File>
/export/apps/rDock/src/rDock_2013.1_src/data/scripts/dock_solv.prm

>  <Rbt.Receptor>
prm/pocket_docking_5.prm

>  <SCORE>
-11.3312

>  <SCORE.INTER>
-8.21104

>  <SCORE.INTER.CONST>
1

>  <SCORE.INTER.POLAR>
0

>  <SCORE.INTER.ROT>
3

>  <SCORE.INTER.SOLV>
19.5979

>  <SCORE.INTER.VDW>
-17.6067

>  <SCORE.INTER.norm>
-0.373229

>  <SCORE.INTRA>
-3.12013

>  <SCORE.INTRA.DIHEDRAL>
-5.26604

>  <SCORE.INTRA.DIHEDRAL.0>
6.10773

>  <SCORE.INTRA.POLAR>
0

>  <SCORE.INTRA.POLAR.0>
0

>  <SCORE.INTRA.REPUL>
0

>  <SCORE.INTRA.REPUL.0>
0

>  <SCORE.INTRA.SOLV>
-1.40192

>  <SCORE.INTRA.SOLV.lig_0>
-71.4024

>  <SCORE.INTRA.VDW>
0.213854

>  <SCORE.INTRA.VDW.0>
-1.86213

>  <SCORE.INTRA.norm>
-0.141824

>  <SCORE.RESTR>
0

>  <SCORE.RESTR.CAVITY>
0

>  <SCORE.RESTR.norm>
0

>  <SCORE.SYSTEM>
0

>  <SCORE.SYSTEM.CONST>
0

>  <SCORE.SYSTEM.DIHEDRAL>
0

>  <SCORE.SYSTEM.SOLV>
0

>  <SCORE.SYSTEM.norm>
0

>  <SCORE.heavy>
22

>  <SCORE.norm>
-0.515053

>  <RMSD>
6.413

$$$$
lig.pdb
 OpenBabel11021811523D
libRbt.so/2013.1/901 2013/11/27
 22 23  0  0  0  0  0  0  0  0999 V2000
   -4.5406    2.0901    1.3421 C   0  0  1  0  0  0  0  0  0  0  0  0
   -5.3035   -0.3149    1.5000 C   0  0  1  0  0  0  0  0  0  0  0  0
   -6.6216   -0.1512    0.6209 C   0  0  1  0  0  0  0  0  0  0  0  0
   -7.0040   -1.5866    0.0390 C   0  0  2  0  0  0  0  0  0  0  0  0
   -3.9773    3.1860    2.3279 C   0  0  1  0  0  0  0  0  0  0  0  0
   -5.1082    3.5797    3.2986 C   0  0  2  0  0  0  0  0  0  0  0  0
   -6.3017    4.1810    2.5355 C   0  0  2  0  0  0  0  0  0  0  0  0
   -6.8963    3.1517    1.5064 C   0  0  1  0  0  0  0  0  0  0  0  0
   -8.0678    3.7740    0.6934 C   0  0  0  0  0  0  0  0  0  0  0  0
   -5.8127   -2.1041   -0.9176 C   0  0  1  0  0  0  0  0  0  0  0  0
   -4.5000   -2.2553    0.0031 C   0  0  0  0  0  0  0  0  0  0  0  0
   -4.1157   -0.8371    0.6306 C   0  0  2  0  0  0  0  0  0  0  0  0
   -5.8807    5.3877    1.8144 F   0  0  0  0  0  0  0  0  0  0  0  0
   -2.7914    2.5879    3.0555 N   0  0  0  0  0  0  0  0  0  0  0  0
   -7.7014    4.8492   -0.1482 N   0  0  0  0  0  0  0  0  0  0  0  0
   -6.1203   -3.4643   -1.4780 N   0  0  0  0  0  0  0  0  0  0  0  0
   -2.9124   -0.9832    1.4750 N   0  0  0  0  0  0  0  0  0  0  0  0
   -4.9139    0.9407    2.0354 O   0  0  0  0  0  0  0  0  0  0  0  0
   -7.7052    0.3315    1.5092 O   0  0  0  0  0  0  0  0  0  0  0  0
   -8.1654   -1.4183   -0.7186 O   0  0  0  0  0  0  0  0  0  0  0  0
   -4.6960    4.3801    4.0148 O   0  0  0  0  0  0  0  0  0  0  0  0
   -5.7306    2.7015    0.6071 O   0  0  0  0  0  0  0  0  0  0  0  0
  1  5  1  0  0  0  0
  1 18  1  1  0  0  0
  2 18  1  6  0  0  0
  2  3  1  0  0  0  0
  2 12  1  0  0  0  0
  3 19  1  1  0  0  0
  3  4  1  0  0  0  0
  4 20  1  6  0  0  0
  4 10  1  0  0  0  0
  5  6  1  0  0  0  0
  5 14  1  1  0  0  0
  6 21  1  1  0  0  0
  7 13  1  6  0  0  0
  7  6  1  0  0  0  0
  8  9  1  6  0  0  0
  8  7  1  0  0  0  0
 10 16  1  1  0  0  0
 11 10  1  0  0  0  0
 12 17  1  1  0  0  0
 12 11  1  0  0  0  0
 15  9  1  0  0  0  0
 22  8  1  0  0  0  0
 22  1  1  0  0  0  0
M  END
>  <CHROM.1>
-171.42034181,-61.78694199,64.81182776,-5.70051223,1.34787097,1.18686832
-1.52148045,0.47862681,-2.77954363

>  <Name>
lig.pdb

>  <RI>
0

>  <Rbt.Current_Directory>
/home/itssahil/PROJECTS/Mol_Feturizer/New_Systems/rnas/5bws

>  <Rbt.Executable>
rbdock ($Id: //depot/dev/client3/rdock/2013.1/src/exe/rbdock.cxx#4 $)

>  <Rbt.Library>
libRbt.so (2013.1, Build901 2013/11/27)

>  <Rbt.Parameter_File>
/export/apps/rDock/src/rDock_2013.1_src/data/scripts/dock_solv.prm

>  <Rbt.Receptor>
prm/pocket_docking_7.prm

>  <SCORE>
-9.17772

>  <SCORE.INTER>
-7.21601

>  <SCORE.INTER.CONST>
1

>  <SCORE.INTER.POLAR>
0

>  <SCORE.INTER.ROT>
3

>  <SCORE.INTER.SOLV>
15.1556

>  <SCORE.INTER.VDW>
-15.4625

>  <SCORE.INTER.norm>
-0.328

>  <SCORE.INTRA>
-1.96171

>  <SCORE.INTRA.DIHEDRAL>
-5.64926

>  <SCORE.INTRA.DIHEDRAL.0>
6.10773

>  <SCORE.INTRA.POLAR>
0

>  <SCORE.INTRA.POLAR.0>
0

>  <SCORE.INTRA.REPUL>
0

>  <SCORE.INTRA.REPUL.0>
0

>  <SCORE.INTRA.SOLV>
1.54301

>  <SCORE.INTRA.SOLV.lig_0>
-71.4024

>  <SCORE.INTRA.VDW>
0.0914186

>  <SCORE.INTRA.VDW.0>
-1.86213

>  <SCORE.INTRA.norm>
-0.0891687

>  <SCORE.RESTR>
0

>  <SCORE.RESTR.CAVITY>
0

>  <SCORE.RESTR.norm>
0

>  <SCORE.SYSTEM>
0

>  <SCORE.SYSTEM.CONST>
0

>  <SCORE.SYSTEM.DIHEDRAL>
0

>  <SCORE.SYSTEM.SOLV>
0

>  <SCORE.SYSTEM.norm>
0

>  <SCORE.heavy>
22

>  <SCORE.norm>
-0.417169

>  <RMSD>
6.416

$$$$
lig.pdb
 OpenBabel11021811523D
libRbt.so/2013.1/901 2013/11/27
 22 23  0  0  0  0  0  0  0  0999 V2000
   -7.9415   -0.9983    1.1630 C   0  0  1  0  0  0  0  0  0  0  0  0
   -7.3091   -2.8690   -0.4155 C   0  0  1  0  0  0  0  0  0  0  0  0
   -8.4205   -3.9345   -0.0072 C   0  0  1  0  0  0  0  0  0  0  0  0
   -7.8766   -5.3832   -0.3952 C   0  0  2  0  0  0  0  0  0  0  0  0
   -8.6101    0.4269    1.0533 C   0  0  1  0  0  0  0  0  0  0  0  0
   -7.6437    1.3481    0.2827 C   0  0  2  0  0  0  0  0  0  0  0  0
   -6.3090    1.4949    1.0347 C   0  0  2  0  0  0  0  0  0  0  0  0
   -5.5990    0.1031    1.2111 C   0  0  1  0  0  0  0  0  0  0  0  0
   -4.2763    0.2390    2.0192 C   0  0  0  0  0  0  0  0  0  0  0  0
   -7.6602   -5.4567   -1.9921 C   0  0  1  0  0  0  0  0  0  0  0  0
   -6.5347   -4.3674   -2.3665 C   0  0  0  0  0  0  0  0  0  0  0  0
   -7.0382   -2.9085   -1.9531 C   0  0  2  0  0  0  0  0  0  0  0  0
   -6.5402    2.0839    2.3586 F   0  0  0  0  0  0  0  0  0  0  0  0
   -9.9311    0.2637    0.3308 N   0  0  0  0  0  0  0  0  0  0  0  0
   -3.5377   -0.9588    2.1550 N   0  0  0  0  0  0  0  0  0  0  0  0
   -7.1308   -6.8012   -2.4055 N   0  0  0  0  0  0  0  0  0  0  0  0
   -6.0009   -1.9147   -2.2976 N   0  0  0  0  0  0  0  0  0  0  0  0
   -7.7497   -1.5573   -0.0986 O   0  0  0  0  0  0  0  0  0  0  0  0
   -8.6150   -3.8514    1.4596 O   0  0  0  0  0  0  0  0  0  0  0  0
   -8.8628   -6.2982   -0.0196 O   0  0  0  0  0  0  0  0  0  0  0  0
   -8.1321    2.3868    0.2058 O   0  0  0  0  0  0  0  0  0  0  0  0
   -6.6146   -0.8278    1.8981 O   0  0  0  0  0  0  0  0  0  0  0  0
  1  5  1  0  0  0  0
  1 18  1  6  0  0  0
  2 18  1  6  0  0  0
  2  3  1  0  0  0  0
  2 12  1  0  0  0  0
  3 19  1  1  0  0  0
  3  4  1  0  0  0  0
  4 20  1  6  0  0  0
  4 10  1  0  0  0  0
  5  6  1  0  0  0  0
  5 14  1  6  0  0  0
  6 21  1  1  0  0  0
  7 13  1  1  0  0  0
  7  6  1  0  0  0  0
  8  9  1  1  0  0  0
  8  7  1  0  0  0  0
 10 16  1  1  0  0  0
 11 10  1  0  0  0  0
 12 17  1  1  0  0  0
 12 11  1  0  0  0  0
 15  9  1  0  0  0  0
 22  8  1  0  0  0  0
 22  1  1  0  0  0  0
M  END
>  <CHROM.1>
-172.91823210,68.44914826,-176.51844804,-7.20398908,-1.75297958,0.20354351
1.42107517,-0.15292563,0.36197093

>  <Name>
lig.pdb

>  <RI>
0

>  <Rbt.Current_Directory>
/home/itssahil/PROJECTS/Mol_Feturizer/New_Systems/rnas/5bws

>  <Rbt.Executable>
rbdock ($Id: //depot/dev/client3/rdock/2013.1/src/exe/rbdock.cxx#4 $)

>  <Rbt.Library>
libRbt.so (2013.1, Build901 2013/11/27)

>  <Rbt.Parameter_File>
/export/apps/rDock/src/rDock_2013.1_src/data/scripts/dock_solv.prm

>  <Rbt.Receptor>
prm/pocket_docking_5.prm

>  <SCORE>
-11.3656

>  <SCORE.INTER>
-8.1388

>  <SCORE.INTER.CONST>
1

>  <SCORE.INTER.POLAR>
0

>  <SCORE.INTER.ROT>
3

>  <SCORE.INTER.SOLV>
19.8315

>  <SCORE.INTER.VDW>
-17.6364

>  <SCORE.INTER.norm>
-0.369945

>  <SCORE.INTRA>
-3.22676

>  <SCORE.INTRA.DIHEDRAL>
-5.4706

>  <SCORE.INTRA.DIHEDRAL.0>
6.10773

>  <SCORE.INTRA.POLAR>
0

>  <SCORE.INTRA.POLAR.0>
0

>  <SCORE.INTRA.REPUL>
0

>  <SCORE.INTRA.REPUL.0>
0

>  <SCORE.INTRA.SOLV>
-1.47941

>  <SCORE.INTRA.SOLV.lig_0>
-71.4024

>  <SCORE.INTRA.VDW>
0.248252

>  <SCORE.INTRA.VDW.0>
-1.86213

>  <SCORE.INTRA.norm>
-0.146671

>  <SCORE.RESTR>
0

>  <SCORE.RESTR.CAVITY>
0

>  <SCORE.RESTR.norm>
0

>  <SCORE.SYSTEM>
0

>  <SCORE.SYSTEM.CONST>
0

>  <SCORE.SYSTEM.DIHEDRAL>
0

>  <SCORE.SYSTEM.SOLV>
0

>  <SCORE.SYSTEM.norm>
0

>  <SCORE.heavy>
22

>  <SCORE.norm>
-0.516616

>  <RMSD>
6.420

$$$$
lig.pdb
 OpenBabel11021811523D
libRbt.so/2013.1/901 2013/11/27
 22 23  0  0  0  0  0  0  0  0999 V2000
   -7.9429   -1.0115    1.1699 C   0  0  1  0  0  0  0  0  0  0  0  0
   -7.3249   -2.8748   -0.4230 C   0  0  1  0  0  0  0  0  0  0  0  0
   -8.4348   -3.9464   -0.0273 C   0  0  1  0  0  0  0  0  0  0  0  0
   -7.8863   -5.3904   -0.4264 C   0  0  2  0  0  0  0  0  0  0  0  0
   -8.6436    0.3993    1.0762 C   0  0  1  0  0  0  0  0  0  0  0  0
   -7.7152    1.3402    0.2830 C   0  0  2  0  0  0  0  0  0  0  0  0
   -6.3663    1.5151    1.0031 C   0  0  2  0  0  0  0  0  0  0  0  0
   -5.6234    0.1386    1.1625 C   0  0  1  0  0  0  0  0  0  0  0  0
   -4.2851    0.3023    1.9389 C   0  0  0  0  0  0  0  0  0  0  0  0
   -7.6653   -5.4494   -2.0232 C   0  0  1  0  0  0  0  0  0  0  0  0
   -6.5413   -4.3541   -2.3849 C   0  0  0  0  0  0  0  0  0  0  0  0
   -7.0495   -2.9001   -1.9602 C   0  0  2  0  0  0  0  0  0  0  0  0
   -6.5783    2.0997    2.3322 F   0  0  0  0  0  0  0  0  0  0  0  0
   -9.9776    0.2083    0.3853 N   0  0  0  0  0  0  0  0  0  0  0  0
   -3.5325   -0.8858    2.0823 N   0  0  0  0  0  0  0  0  0  0  0  0
   -7.1315   -6.7889   -2.4468 N   0  0  0  0  0  0  0  0  0  0  0  0
   -6.0137   -1.9009   -2.2930 N   0  0  0  0  0  0  0  0  0  0  0  0
   -7.7695   -1.5670   -0.0960 O   0  0  0  0  0  0  0  0  0  0  0  0
   -8.6336   -3.8766    1.4397 O   0  0  0  0  0  0  0  0  0  0  0  0
   -8.8714   -6.3110   -0.0616 O   0  0  0  0  0  0  0  0  0  0  0  0
   -8.2268    2.3685    0.2178 O   0  0  0  0  0  0  0  0  0  0  0  0
   -6.6028   -0.8131    1.8733 O   0  0  0  0  0  0  0  0  0  0  0  0
  1  5  1  0  0  0  0
  1 18  1  6  0  0  0
  2 18  1  6  0  0  0
  2  3  1  0  0  0  0
  2 12  1  0  0  0  0
  3 19  1  1  0  0  0
  3  4  1  0  0  0  0
  4 20  1  6  0  0  0
  4 10  1  0  0  0  0
  5  6  1  0  0  0  0
  5 14  1  6  0  0  0
  6 21  1  1  0  0  0
  7 13  1  1  0  0  0
  7  6  1  0  0  0  0
  8  9  1  1  0  0  0
  8  7  1  0  0  0  0
 10 16  1  1  0  0  0
 11 10  1  0  0  0  0
 12 17  1  1  0  0  0
 12 11  1  0  0  0  0
 15  9  1  0  0  0  0
 22  8  1  0  0  0  0
 22  1  1  0  0  0  0
M  END
>  <CHROM.1>
-172.07100778,69.73055924,-177.83118210,-7.22620937,-1.74935751,0.18527284
1.42490652,-0.10105677,0.37052490

>  <Name>
lig.pdb

>  <RI>
0

>  <Rbt.Current_Directory>
/home/itssahil/PROJECTS/Mol_Feturizer/New_Systems/rnas/5bws

>  <Rbt.Executable>
rbdock ($Id: //depot/dev/client3/rdock/2013.1/src/exe/rbdock.cxx#4 $)

>  <Rbt.Library>
libRbt.so (2013.1, Build901 2013/11/27)

>  <Rbt.Parameter_File>
/export/apps/rDock/src/rDock_2013.1_src/data/scripts/dock_solv.prm

>  <Rbt.Receptor>
prm/pocket_docking_6.prm

>  <SCORE>
-11.3497

>  <SCORE.INTER>
-8.21615

>  <SCORE.INTER.CONST>
1

>  <SCORE.INTER.POLAR>
0

>  <SCORE.INTER.ROT>
3

>  <SCORE.INTER.SOLV>
19.6087

>  <SCORE.INTER.VDW>
-17.6137

>  <SCORE.INTER.norm>
-0.373462

>  <SCORE.INTRA>
-3.13353

>  <SCORE.INTRA.DIHEDRAL>
-5.3255

>  <SCORE.INTRA.DIHEDRAL.0>
6.10773

>  <SCORE.INTRA.POLAR>
0

>  <SCORE.INTRA.POLAR.0>
0

>  <SCORE.INTRA.REPUL>
0

>  <SCORE.INTRA.REPUL.0>
0

>  <SCORE.INTRA.SOLV>
-1.42918

>  <SCORE.INTRA.SOLV.lig_0>
-71.4024

>  <SCORE.INTRA.VDW>
0.243809

>  <SCORE.INTRA.VDW.0>
-1.86213

>  <SCORE.INTRA.norm>
-0.142433

>  <SCORE.RESTR>
0

>  <SCORE.RESTR.CAVITY>
0

>  <SCORE.RESTR.norm>
0

>  <SCORE.SYSTEM>
0

>  <SCORE.SYSTEM.CONST>
0

>  <SCORE.SYSTEM.DIHEDRAL>
0

>  <SCORE.SYSTEM.SOLV>
0

>  <SCORE.SYSTEM.norm>
0

>  <SCORE.heavy>
22

>  <SCORE.norm>
-0.515895

>  <RMSD>
6.424

$$$$
lig.pdb
 OpenBabel11021811523D
libRbt.so/2013.1/901 2013/11/27
 22 23  0  0  0  0  0  0  0  0999 V2000
   -7.7378   -1.0072    0.9974 C   0  0  1  0  0  0  0  0  0  0  0  0
   -7.1763   -2.9611   -0.5053 C   0  0  1  0  0  0  0  0  0  0  0  0
   -8.3791   -3.9247   -0.1031 C   0  0  1  0  0  0  0  0  0  0  0  0
   -7.9385   -5.4223   -0.4323 C   0  0  2  0  0  0  0  0  0  0  0  0
   -8.0760    0.5248    0.8275 C   0  0  1  0  0  0  0  0  0  0  0  0
   -6.8556    1.2133    0.1851 C   0  0  2  0  0  0  0  0  0  0  0  0
   -5.6160    1.0874    1.0884 C   0  0  2  0  0  0  0  0  0  0  0  0
   -5.2383   -0.4197    1.3297 C   0  0  1  0  0  0  0  0  0  0  0  0
   -4.0192   -0.5532    2.2872 C   0  0  0  0  0  0  0  0  0  0  0  0
   -7.6810   -5.5611   -2.0187 C   0  0  1  0  0  0  0  0  0  0  0  0
   -6.4633   -4.5737   -2.3875 C   0  0  0  0  0  0  0  0  0  0  0  0
   -6.8636   -3.0684   -2.0318 C   0  0  2  0  0  0  0  0  0  0  0  0
   -5.8706    1.7287    2.3834 F   0  0  0  0  0  0  0  0  0  0  0  0
   -9.3091    0.6323   -0.0450 N   0  0  0  0  0  0  0  0  0  0  0  0
   -2.8089   -0.0224    1.7853 N   0  0  0  0  0  0  0  0  0  0  0  0
   -7.2460   -6.9544   -2.3768 N   0  0  0  0  0  0  0  0  0  0  0  0
   -5.7421   -2.1686   -2.3707 N   0  0  0  0  0  0  0  0  0  0  0  0
   -7.5224   -1.6102   -0.2399 O   0  0  0  0  0  0  0  0  0  0  0  0
   -8.6101   -3.7819    1.3539 O   0  0  0  0  0  0  0  0  0  0  0  0
   -9.0039   -6.2466   -0.0629 O   0  0  0  0  0  0  0  0  0  0  0  0
   -7.1035    2.3302    0.0642 O   0  0  0  0  0  0  0  0  0  0  0  0
   -6.4989   -1.1086    1.8833 O   0  0  0  0  0  0  0  0  0  0  0  0
  1  5  1  0  0  0  0
  1 18  1  6  0  0  0
  2 18  1  6  0  0  0
  2  3  1  0  0  0  0
  2 12  1  0  0  0  0
  3 19  1  1  0  0  0
  3  4  1  0  0  0  0
  4 20  1  6  0  0  0
  4 10  1  0  0  0  0
  5  6  1  0  0  0  0
  5 14  1  6  0  0  0
  6 21  1  1  0  0  0
  7 13  1  1  0  0  0
  7  6  1  0  0  0  0
  8  9  1  1  0  0  0
  8  7  1  0  0  0  0
 10 16  1  1  0  0  0
 11 10  1  0  0  0  0
 12 17  1  1  0  0  0
 12 11  1  0  0  0  0
 15  9  1  0  0  0  0
 22  8  1  0  0  0  0
 22  1  1  0  0  0  0
M  END
>  <CHROM.1>
178.91831563,66.82148699,-64.62940232,-6.90049380,-1.84942399,0.13118642
1.30368302,-0.13055798,0.35467583

>  <Name>
lig.pdb

>  <RI>
0

>  <Rbt.Current_Directory>
/home/itssahil/PROJECTS/Mol_Feturizer/New_Systems/rnas/5bws

>  <Rbt.Executable>
rbdock ($Id: //depot/dev/client3/rdock/2013.1/src/exe/rbdock.cxx#4 $)

>  <Rbt.Library>
libRbt.so (2013.1, Build901 2013/11/27)

>  <Rbt.Parameter_File>
/export/apps/rDock/src/rDock_2013.1_src/data/scripts/dock_solv.prm

>  <Rbt.Receptor>
prm/pocket_docking_5.prm

>  <SCORE>
-11.7845

>  <SCORE.INTER>
-8.6902

>  <SCORE.INTER.CONST>
1

>  <SCORE.INTER.POLAR>
0

>  <SCORE.INTER.ROT>
3

>  <SCORE.INTER.SOLV>
18.4061

>  <SCORE.INTER.VDW>
-17.5288

>  <SCORE.INTER.norm>
-0.395009

>  <SCORE.INTRA>
-3.0943

>  <SCORE.INTRA.DIHEDRAL>
-5.79463

>  <SCORE.INTRA.DIHEDRAL.0>
6.10773

>  <SCORE.INTRA.POLAR>
0

>  <SCORE.INTRA.POLAR.0>
0

>  <SCORE.INTRA.REPUL>
0

>  <SCORE.INTRA.REPUL.0>
0

>  <SCORE.INTRA.SOLV>
-1.05577

>  <SCORE.INTRA.SOLV.lig_0>
-71.4024

>  <SCORE.INTRA.VDW>
0.330905

>  <SCORE.INTRA.VDW.0>
-1.86213

>  <SCORE.INTRA.norm>
-0.14065

>  <SCORE.RESTR>
0

>  <SCORE.RESTR.CAVITY>
0

>  <SCORE.RESTR.norm>
0

>  <SCORE.SYSTEM>
0

>  <SCORE.SYSTEM.CONST>
0

>  <SCORE.SYSTEM.DIHEDRAL>
0

>  <SCORE.SYSTEM.SOLV>
0

>  <SCORE.SYSTEM.norm>
0

>  <SCORE.heavy>
22

>  <SCORE.norm>
-0.535659

>  <RMSD>
6.426

$$$$
lig.pdb
 OpenBabel11021811523D
libRbt.so/2013.1/901 2013/11/27
 22 23  0  0  0  0  0  0  0  0999 V2000
   -7.6506   -1.0558    1.0767 C   0  0  1  0  0  0  0  0  0  0  0  0
   -7.1553   -2.9852   -0.4800 C   0  0  1  0  0  0  0  0  0  0  0  0
   -8.3639   -3.9462   -0.0892 C   0  0  1  0  0  0  0  0  0  0  0  0
   -7.9421   -5.4396   -0.4594 C   0  0  2  0  0  0  0  0  0  0  0  0
   -8.0107    0.4750    0.9459 C   0  0  1  0  0  0  0  0  0  0  0  0
   -6.8267    1.1857    0.2608 C   0  0  2  0  0  0  0  0  0  0  0  0
   -5.5470    1.0588    1.1062 C   0  0  2  0  0  0  0  0  0  0  0  0
   -5.1445   -0.4479    1.3069 C   0  0  1  0  0  0  0  0  0  0  0  0
   -3.8828   -0.5833    2.2073 C   0  0  0  0  0  0  0  0  0  0  0  0
   -7.7019   -5.5421   -2.0513 C   0  0  1  0  0  0  0  0  0  0  0  0
   -6.4778   -4.5583   -2.4082 C   0  0  0  0  0  0  0  0  0  0  0  0
   -6.8589   -3.0582   -2.0118 C   0  0  2  0  0  0  0  0  0  0  0  0
   -5.7499    1.6778    2.4210 F   0  0  0  0  0  0  0  0  0  0  0  0
   -9.2824    0.5830    0.1307 N   0  0  0  0  0  0  0  0  0  0  0  0
   -2.7053   -0.0160    1.6687 N   0  0  0  0  0  0  0  0  0  0  0  0
   -7.2850   -6.9305   -2.4476 N   0  0  0  0  0  0  0  0  0  0  0  0
   -5.7316   -2.1617   -2.3401 N   0  0  0  0  0  0  0  0  0  0  0  0
   -7.4847   -1.6378   -0.1782 O   0  0  0  0  0  0  0  0  0  0  0  0
   -8.5789   -3.8369    1.3731 O   0  0  0  0  0  0  0  0  0  0  0  0
   -9.0122   -6.2619   -0.0993 O   0  0  0  0  0  0  0  0  0  0  0  0
   -7.0904    2.3017    0.1685 O   0  0  0  0  0  0  0  0  0  0  0  0
   -6.3726   -1.1580    1.9051 O   0  0  0  0  0  0  0  0  0  0  0  0
  1  5  1  0  0  0  0
  1 18  1  6  0  0  0
  2 18  1  6  0  0  0
  2  3  1  0  0  0  0
  2 12  1  0  0  0  0
  3 19  1  1  0  0  0
  3  4  1  0  0  0  0
  4 20  1  6  0  0  0
  4 10  1  0  0  0  0
  5  6  1  0  0  0  0
  5 14  1  6  0  0  0
  6 21  1  1  0  0  0
  7 13  1  1  0  0  0
  7  6  1  0  0  0  0
  8  9  1  1  0  0  0
  8  7  1  0  0  0  0
 10 16  1  1  0  0  0
 11 10  1  0  0  0  0
 12 17  1  1  0  0  0
 12 11  1  0  0  0  0
 15  9  1  0  0  0  0
 22  8  1  0  0  0  0
 22  1  1  0  0  0  0
M  END
>  <CHROM.1>
179.83809511,68.47955164,-63.78489548,-6.85795601,-1.87168731,0.14965214
1.28954841,-0.05573270,0.38321660

>  <Name>
lig.pdb

>  <RI>
0

>  <Rbt.Current_Directory>
/home/itssahil/PROJECTS/Mol_Feturizer/New_Systems/rnas/5bws

>  <Rbt.Executable>
rbdock ($Id: //depot/dev/client3/rdock/2013.1/src/exe/rbdock.cxx#4 $)

>  <Rbt.Library>
libRbt.so (2013.1, Build901 2013/11/27)

>  <Rbt.Parameter_File>
/export/apps/rDock/src/rDock_2013.1_src/data/scripts/dock_solv.prm

>  <Rbt.Receptor>
prm/pocket_docking_5.prm

>  <SCORE>
-11.6634

>  <SCORE.INTER>
-8.59791

>  <SCORE.INTER.CONST>
1

>  <SCORE.INTER.POLAR>
0

>  <SCORE.INTER.ROT>
3

>  <SCORE.INTER.SOLV>
18.7948

>  <SCORE.INTER.VDW>
-17.5969

>  <SCORE.INTER.norm>
-0.390814

>  <SCORE.INTRA>
-3.06548

>  <SCORE.INTRA.DIHEDRAL>
-5.70408

>  <SCORE.INTRA.DIHEDRAL.0>
6.10773

>  <SCORE.INTRA.POLAR>
0

>  <SCORE.INTRA.POLAR.0>
0

>  <SCORE.INTRA.REPUL>
0

>  <SCORE.INTRA.REPUL.0>
0

>  <SCORE.INTRA.SOLV>
-1.00566

>  <SCORE.INTRA.SOLV.lig_0>
-71.4024

>  <SCORE.INTRA.VDW>
0.289387

>  <SCORE.INTRA.VDW.0>
-1.86213

>  <SCORE.INTRA.norm>
-0.13934

>  <SCORE.RESTR>
0

>  <SCORE.RESTR.CAVITY>
0

>  <SCORE.RESTR.norm>
0

>  <SCORE.SYSTEM>
0

>  <SCORE.SYSTEM.CONST>
0

>  <SCORE.SYSTEM.DIHEDRAL>
0

>  <SCORE.SYSTEM.SOLV>
0

>  <SCORE.SYSTEM.norm>
0

>  <SCORE.heavy>
22

>  <SCORE.norm>
-0.530154

>  <RMSD>
6.427

$$$$
lig.pdb
 OpenBabel11021811523D
libRbt.so/2013.1/901 2013/11/27
 22 23  0  0  0  0  0  0  0  0999 V2000
   -7.7058   -1.0229    1.0249 C   0  0  1  0  0  0  0  0  0  0  0  0
   -7.1530   -2.9739   -0.4849 C   0  0  1  0  0  0  0  0  0  0  0  0
   -8.3638   -3.9349   -0.1007 C   0  0  1  0  0  0  0  0  0  0  0  0
   -7.9260   -5.4323   -0.4346 C   0  0  2  0  0  0  0  0  0  0  0  0
   -8.0932    0.4976    0.8575 C   0  0  1  0  0  0  0  0  0  0  0  0
   -6.9067    1.2205    0.1895 C   0  0  2  0  0  0  0  0  0  0  0  0
   -5.6467    1.1348    1.0689 C   0  0  2  0  0  0  0  0  0  0  0  0
   -5.2191   -0.3595    1.3069 C   0  0  1  0  0  0  0  0  0  0  0  0
   -3.9782   -0.4531    2.2409 C   0  0  0  0  0  0  0  0  0  0  0  0
   -7.6530   -5.5626   -2.0191 C   0  0  1  0  0  0  0  0  0  0  0  0
   -6.4275   -4.5781   -2.3694 C   0  0  0  0  0  0  0  0  0  0  0  0
   -6.8252   -3.0733   -2.0087 C   0  0  2  0  0  0  0  0  0  0  0  0
   -5.8953    1.7724    2.3669 F   0  0  0  0  0  0  0  0  0  0  0  0
   -9.3456    0.5651    0.0088 N   0  0  0  0  0  0  0  0  0  0  0  0
   -2.8126    0.1741    1.7445 N   0  0  0  0  0  0  0  0  0  0  0  0
   -7.2201   -6.9555   -2.3812 N   0  0  0  0  0  0  0  0  0  0  0  0
   -5.6966   -2.1761   -2.3307 N   0  0  0  0  0  0  0  0  0  0  0  0
   -7.4963   -1.6232   -0.2148 O   0  0  0  0  0  0  0  0  0  0  0  0
   -8.6090   -3.8000    1.3546 O   0  0  0  0  0  0  0  0  0  0  0  0
   -8.9985   -6.2543   -0.0810 O   0  0  0  0  0  0  0  0  0  0  0  0
   -7.1904    2.3290    0.0706 O   0  0  0  0  0  0  0  0  0  0  0  0
   -6.4474   -1.0841    1.8868 O   0  0  0  0  0  0  0  0  0  0  0  0
  1  5  1  0  0  0  0
  1 18  1  6  0  0  0
  2 18  1  6  0  0  0
  2  3  1  0  0  0  0
  2 12  1  0  0  0  0
  3 19  1  1  0  0  0
  3  4  1  0  0  0  0
  4 20  1  6  0  0  0
  4 10  1  0  0  0  0
  5  6  1  0  0  0  0
  5 14  1  6  0  0  0
  6 21  1  1  0  0  0
  7 13  1  1  0  0  0
  7  6  1  0  0  0  0
  8  9  1  1  0  0  0
  8  7  1  0  0  0  0
 10 16  1  1  0  0  0
 11 10  1  0  0  0  0
 12 17  1  1  0  0  0
 12 11  1  0  0  0  0
 15  9  1  0  0  0  0
 22  8  1  0  0  0  0
 22  1  1  0  0  0  0
M  END
>  <CHROM.1>
-179.05718983,67.68361867,-61.44677979,-6.89440996,-1.83652488,0.13460496
1.30796115,-0.07048931,0.36793416

>  <Name>
lig.pdb

>  <RI>
0

>  <Rbt.Current_Directory>
/home/itssahil/PROJECTS/Mol_Feturizer/New_Systems/rnas/5bws

>  <Rbt.Executable>
rbdock ($Id: //depot/dev/client3/rdock/2013.1/src/exe/rbdock.cxx#4 $)

>  <Rbt.Library>
libRbt.so (2013.1, Build901 2013/11/27)

>  <Rbt.Parameter_File>
/export/apps/rDock/src/rDock_2013.1_src/data/scripts/dock_solv.prm

>  <Rbt.Receptor>
prm/pocket_docking_8.prm

>  <SCORE>
-11.7299

>  <SCORE.INTER>
-8.66663

>  <SCORE.INTER.CONST>
1

>  <SCORE.INTER.POLAR>
0

>  <SCORE.INTER.ROT>
3

>  <SCORE.INTER.SOLV>
18.0434

>  <SCORE.INTER.VDW>
-17.3922

>  <SCORE.INTER.norm>
-0.393938

>  <SCORE.INTRA>
-3.06331

>  <SCORE.INTRA.DIHEDRAL>
-5.8057

>  <SCORE.INTRA.DIHEDRAL.0>
6.10773

>  <SCORE.INTRA.POLAR>
0

>  <SCORE.INTRA.POLAR.0>
0

>  <SCORE.INTRA.REPUL>
0

>  <SCORE.INTRA.REPUL.0>
0

>  <SCORE.INTRA.SOLV>
-0.98206

>  <SCORE.INTRA.SOLV.lig_0>
-71.4024

>  <SCORE.INTRA.VDW>
0.330572

>  <SCORE.INTRA.VDW.0>
-1.86213

>  <SCORE.INTRA.norm>
-0.139241

>  <SCORE.RESTR>
0

>  <SCORE.RESTR.CAVITY>
0

>  <SCORE.RESTR.norm>
0

>  <SCORE.SYSTEM>
0

>  <SCORE.SYSTEM.CONST>
0

>  <SCORE.SYSTEM.DIHEDRAL>
0

>  <SCORE.SYSTEM.SOLV>
0

>  <SCORE.SYSTEM.norm>
0

>  <SCORE.heavy>
22

>  <SCORE.norm>
-0.533179

>  <RMSD>
6.428

$$$$
lig.pdb
 OpenBabel11021811523D
libRbt.so/2013.1/901 2013/11/27
 22 23  0  0  0  0  0  0  0  0999 V2000
   -7.7184   -1.0447    1.0194 C   0  0  1  0  0  0  0  0  0  0  0  0
   -7.1853   -2.9961   -0.4968 C   0  0  1  0  0  0  0  0  0  0  0  0
   -8.3935   -3.9586   -0.1084 C   0  0  1  0  0  0  0  0  0  0  0  0
   -7.9564   -5.4551   -0.4470 C   0  0  2  0  0  0  0  0  0  0  0  0
   -8.0557    0.4884    0.8585 C   0  0  1  0  0  0  0  0  0  0  0  0
   -6.8459    1.1749    0.1942 C   0  0  2  0  0  0  0  0  0  0  0  0
   -5.5897    1.0441    1.0736 C   0  0  2  0  0  0  0  0  0  0  0  0
   -5.2115   -0.4644    1.3052 C   0  0  1  0  0  0  0  0  0  0  0  0
   -3.9749   -0.6028    2.2392 C   0  0  0  0  0  0  0  0  0  0  0  0
   -7.6909   -5.5826   -2.0330 C   0  0  1  0  0  0  0  0  0  0  0  0
   -6.4678   -4.5967   -2.3876 C   0  0  0  0  0  0  0  0  0  0  0  0
   -6.8648   -3.0927   -2.0224 C   0  0  2  0  0  0  0  0  0  0  0  0
   -5.8180    1.6839    2.3743 F   0  0  0  0  0  0  0  0  0  0  0  0
   -9.3048    0.6006    0.0097 N   0  0  0  0  0  0  0  0  0  0  0  0
   -2.7802   -0.0447    1.7294 N   0  0  0  0  0  0  0  0  0  0  0  0
   -7.2588   -6.9746   -2.3995 N   0  0  0  0  0  0  0  0  0  0  0  0
   -5.7384   -2.1943   -2.3483 N   0  0  0  0  0  0  0  0  0  0  0  0
   -7.5281   -1.6462   -0.2228 O   0  0  0  0  0  0  0  0  0  0  0  0
   -8.6318   -3.8263    1.3483 O   0  0  0  0  0  0  0  0  0  0  0  0
   -9.0266   -6.2785   -0.0896 O   0  0  0  0  0  0  0  0  0  0  0  0
   -7.0930    2.2926    0.0800 O   0  0  0  0  0  0  0  0  0  0  0  0
   -6.4632   -1.1510    1.8815 O   0  0  0  0  0  0  0  0  0  0  0  0
  1  5  1  0  0  0  0
  1 18  1  6  0  0  0
  2 18  1  6  0  0  0
  2  3  1  0  0  0  0
  2 12  1  0  0  0  0
  3 19  1  1  0  0  0
  3  4  1  0  0  0  0
  4 20  1  6  0  0  0
  4 10  1  0  0  0  0
  5  6  1  0  0  0  0
  5 14  1  6  0  0  0
  6 21  1  1  0  0  0
  7 13  1  1  0  0  0
  7  6  1  0  0  0  0
  8  9  1  1  0  0  0
  8  7  1  0  0  0  0
 10 16  1  1  0  0  0
 11 10  1  0  0  0  0
 12 17  1  1  0  0  0
 12 11  1  0  0  0  0
 15  9  1  0  0  0  0
 22  8  1  0  0  0  0
 22  1  1  0  0  0  0
M  END
>  <CHROM.1>
178.63255905,68.41417607,-63.13323006,-6.89257035,-1.88413129,0.12861984
1.29724232,-0.09631629,0.36365319

>  <Name>
lig.pdb

>  <RI>
0

>  <Rbt.Current_Directory>
/home/itssahil/PROJECTS/Mol_Feturizer/New_Systems/rnas/5bws

>  <Rbt.Executable>
rbdock ($Id: //depot/dev/client3/rdock/2013.1/src/exe/rbdock.cxx#4 $)

>  <Rbt.Library>
libRbt.so (2013.1, Build901 2013/11/27)

>  <Rbt.Parameter_File>
/export/apps/rDock/src/rDock_2013.1_src/data/scripts/dock_solv.prm

>  <Rbt.Receptor>
prm/pocket_docking_7.prm

>  <SCORE>
-11.7677

>  <SCORE.INTER>
-8.70605

>  <SCORE.INTER.CONST>
1

>  <SCORE.INTER.POLAR>
0

>  <SCORE.INTER.ROT>
3

>  <SCORE.INTER.SOLV>
18.4656

>  <SCORE.INTER.VDW>
-17.5593

>  <SCORE.INTER.norm>
-0.39573

>  <SCORE.INTRA>
-3.06169

>  <SCORE.INTRA.DIHEDRAL>
-5.71654

>  <SCORE.INTRA.DIHEDRAL.0>
6.10773

>  <SCORE.INTRA.POLAR>
0

>  <SCORE.INTRA.POLAR.0>
0

>  <SCORE.INTRA.REPUL>
0

>  <SCORE.INTRA.REPUL.0>
0

>  <SCORE.INTRA.SOLV>
-0.982873

>  <SCORE.INTRA.SOLV.lig_0>
-71.4024

>  <SCORE.INTRA.VDW>
0.288016

>  <SCORE.INTRA.VDW.0>
-1.86213

>  <SCORE.INTRA.norm>
-0.139168

>  <SCORE.RESTR>
0

>  <SCORE.RESTR.CAVITY>
0

>  <SCORE.RESTR.norm>
0

>  <SCORE.SYSTEM>
0

>  <SCORE.SYSTEM.CONST>
0

>  <SCORE.SYSTEM.DIHEDRAL>
0

>  <SCORE.SYSTEM.SOLV>
0

>  <SCORE.SYSTEM.norm>
0

>  <SCORE.heavy>
22

>  <SCORE.norm>
-0.534897

>  <RMSD>
6.431

$$$$
lig.pdb
 OpenBabel11021811523D
libRbt.so/2013.1/901 2013/11/27
 22 23  0  0  0  0  0  0  0  0999 V2000
   -7.7759   -1.0229    0.9260 C   0  0  1  0  0  0  0  0  0  0  0  0
   -7.2016   -2.9922   -0.5516 C   0  0  1  0  0  0  0  0  0  0  0  0
   -8.3989   -3.9593   -0.1413 C   0  0  1  0  0  0  0  0  0  0  0  0
   -7.9469   -5.4576   -0.4511 C   0  0  2  0  0  0  0  0  0  0  0  0
   -8.0946    0.5112    0.7383 C   0  0  1  0  0  0  0  0  0  0  0  0
   -6.8611    1.1789    0.0989 C   0  0  2  0  0  0  0  0  0  0  0  0
   -5.6303    1.0474    1.0133 C   0  0  2  0  0  0  0  0  0  0  0  0
   -5.2723   -0.4616    1.2725 C   0  0  1  0  0  0  0  0  0  0  0  0
   -4.0625   -0.5999    2.2410 C   0  0  0  0  0  0  0  0  0  0  0  0
   -7.6836   -5.6138   -2.0349 C   0  0  1  0  0  0  0  0  0  0  0  0
   -6.4717   -4.6225   -2.4119 C   0  0  0  0  0  0  0  0  0  0  0  0
   -6.8834   -3.1158   -2.0757 C   0  0  2  0  0  0  0  0  0  0  0  0
   -5.8875    1.7045    2.2999 F   0  0  0  0  0  0  0  0  0  0  0  0
   -9.3194    0.6245   -0.1452 N   0  0  0  0  0  0  0  0  0  0  0  0
   -2.8517   -0.0504    1.7610 N   0  0  0  0  0  0  0  0  0  0  0  0
   -7.2379   -7.0083   -2.3747 N   0  0  0  0  0  0  0  0  0  0  0  0
   -5.7672   -2.2124   -2.4221 N   0  0  0  0  0  0  0  0  0  0  0  0
   -7.5579   -1.6407   -0.3036 O   0  0  0  0  0  0  0  0  0  0  0  0
   -8.6354   -3.8005    1.3131 O   0  0  0  0  0  0  0  0  0  0  0  0
   -9.0077   -6.2848   -0.0748 O   0  0  0  0  0  0  0  0  0  0  0  0
   -7.0947    2.2974   -0.0349 O   0  0  0  0  0  0  0  0  0  0  0  0
   -6.5453   -1.1301    1.8228 O   0  0  0  0  0  0  0  0  0  0  0  0
  1  5  1  0  0  0  0
  1 18  1  6  0  0  0
  2 18  1  6  0  0  0
  2  3  1  0  0  0  0
  2 12  1  0  0  0  0
  3 19  1  1  0  0  0
  3  4  1  0  0  0  0
  4 20  1  6  0  0  0
  4 10  1  0  0  0  0
  5  6  1  0  0  0  0
  5 14  1  6  0  0  0
  6 21  1  1  0  0  0
  7 13  1  1  0  0  0
  7  6  1  0  0  0  0
  8  9  1  1  0  0  0
  8  7  1  0  0  0  0
 10 16  1  1  0  0  0
 11 10  1  0  0  0  0
 12 17  1  1  0  0  0
 12 11  1  0  0  0  0
 15  9  1  0  0  0  0
 22  8  1  0  0  0  0
 22  1  1  0  0  0  0
M  END
>  <CHROM.1>
177.64564261,67.10969471,-62.71690454,-6.91994094,-1.88277795,0.07855376
1.30543001,-0.15456367,0.33942981

>  <Name>
lig.pdb

>  <RI>
0

>  <Rbt.Current_Directory>
/home/itssahil/PROJECTS/Mol_Feturizer/New_Systems/rnas/5bws

>  <Rbt.Executable>
rbdock ($Id: //depot/dev/client3/rdock/2013.1/src/exe/rbdock.cxx#4 $)

>  <Rbt.Library>
libRbt.so (2013.1, Build901 2013/11/27)

>  <Rbt.Parameter_File>
/export/apps/rDock/src/rDock_2013.1_src/data/scripts/dock_solv.prm

>  <Rbt.Receptor>
prm/pocket_docking_8.prm

>  <SCORE>
-11.8392

>  <SCORE.INTER>
-8.7641

>  <SCORE.INTER.CONST>
1

>  <SCORE.INTER.POLAR>
0

>  <SCORE.INTER.ROT>
3

>  <SCORE.INTER.SOLV>
18.4666

>  <SCORE.INTER.VDW>
-17.5983

>  <SCORE.INTER.norm>
-0.398368

>  <SCORE.INTRA>
-3.07511

>  <SCORE.INTRA.DIHEDRAL>
-5.80439

>  <SCORE.INTRA.DIHEDRAL.0>
6.10773

>  <SCORE.INTRA.POLAR>
0

>  <SCORE.INTRA.POLAR.0>
0

>  <SCORE.INTRA.REPUL>
0

>  <SCORE.INTRA.REPUL.0>
0

>  <SCORE.INTRA.SOLV>
-0.997047

>  <SCORE.INTRA.SOLV.lig_0>
-71.4024

>  <SCORE.INTRA.VDW>
0.325607

>  <SCORE.INTRA.VDW.0>
-1.86213

>  <SCORE.INTRA.norm>
-0.139778

>  <SCORE.RESTR>
0

>  <SCORE.RESTR.CAVITY>
0

>  <SCORE.RESTR.norm>
0

>  <SCORE.SYSTEM>
0

>  <SCORE.SYSTEM.CONST>
0

>  <SCORE.SYSTEM.DIHEDRAL>
0

>  <SCORE.SYSTEM.SOLV>
0

>  <SCORE.SYSTEM.norm>
0

>  <SCORE.heavy>
22

>  <SCORE.norm>
-0.538146

>  <RMSD>
6.434

$$$$
lig.pdb
 OpenBabel11021811523D
libRbt.so/2013.1/901 2013/11/27
 22 23  0  0  0  0  0  0  0  0999 V2000
   -7.6659   -1.0786    1.0022 C   0  0  1  0  0  0  0  0  0  0  0  0
   -7.1595   -3.0317   -0.5209 C   0  0  1  0  0  0  0  0  0  0  0  0
   -8.3725   -3.9859   -0.1270 C   0  0  1  0  0  0  0  0  0  0  0  0
   -7.9486   -5.4850   -0.4710 C   0  0  2  0  0  0  0  0  0  0  0  0
   -8.0198    0.4512    0.8454 C   0  0  1  0  0  0  0  0  0  0  0  0
   -6.8274    1.1479    0.1605 C   0  0  2  0  0  0  0  0  0  0  0  0
   -5.5558    1.0296    1.0194 C   0  0  2  0  0  0  0  0  0  0  0  0
   -5.1601   -0.4752    1.2462 C   0  0  1  0  0  0  0  0  0  0  0  0
   -3.9070   -0.6012    2.1599 C   0  0  0  0  0  0  0  0  0  0  0  0
   -7.6938   -5.6114   -2.0588 C   0  0  1  0  0  0  0  0  0  0  0  0
   -6.4656   -4.6340   -2.4191 C   0  0  0  0  0  0  0  0  0  0  0  0
   -6.8490   -3.1278   -2.0486 C   0  0  2  0  0  0  0  0  0  0  0  0
   -5.7685    1.6687    2.3230 F   0  0  0  0  0  0  0  0  0  0  0  0
   -9.2837    0.5511    0.0170 N   0  0  0  0  0  0  0  0  0  0  0  0
   -2.7272   -0.0284    1.6321 N   0  0  0  0  0  0  0  0  0  0  0  0
   -7.2744   -7.0059   -2.4306 N   0  0  0  0  0  0  0  0  0  0  0  0
   -5.7180   -2.2371   -2.3798 N   0  0  0  0  0  0  0  0  0  0  0  0
   -7.4906   -1.6798   -0.2423 O   0  0  0  0  0  0  0  0  0  0  0  0
   -8.6009   -3.8546    1.3314 O   0  0  0  0  0  0  0  0  0  0  0  0
   -9.0227   -6.3011   -0.1086 O   0  0  0  0  0  0  0  0  0  0  0  0
   -7.0865    2.2632    0.0493 O   0  0  0  0  0  0  0  0  0  0  0  0
   -6.3958   -1.1724    1.8437 O   0  0  0  0  0  0  0  0  0  0  0  0
  1  5  1  0  0  0  0
  1 18  1  6  0  0  0
  2 18  1  6  0  0  0
  2  3  1  0  0  0  0
  2 12  1  0  0  0  0
  3 19  1  1  0  0  0
  3  4  1  0  0  0  0
  4 20  1  6  0  0  0
  4 10  1  0  0  0  0
  5  6  1  0  0  0  0
  5 14  1  6  0  0  0
  6 21  1  1  0  0  0
  7 13  1  1  0  0  0
  7  6  1  0  0  0  0
  8  9  1  1  0  0  0
  8  7  1  0  0  0  0
 10 16  1  1  0  0  0
 11 10  1  0  0  0  0
 12 17  1  1  0  0  0
 12 11  1  0  0  0  0
 15  9  1  0  0  0  0
 22  8  1  0  0  0  0
 22  1  1  0  0  0  0
M  END
>  <CHROM.1>
179.66308186,68.56796799,-62.90635743,-6.86464146,-1.90999929,0.09509892
1.29122290,-0.06618270,0.36808794

>  <Name>
lig.pdb

>  <RI>
0

>  <Rbt.Current_Directory>
/home/itssahil/PROJECTS/Mol_Feturizer/New_Systems/rnas/5bws

>  <Rbt.Executable>
rbdock ($Id: //depot/dev/client3/rdock/2013.1/src/exe/rbdock.cxx#4 $)

>  <Rbt.Library>
libRbt.so (2013.1, Build901 2013/11/27)

>  <Rbt.Parameter_File>
/export/apps/rDock/src/rDock_2013.1_src/data/scripts/dock_solv.prm

>  <Rbt.Receptor>
prm/pocket_docking_5.prm

>  <SCORE>
-11.7508

>  <SCORE.INTER>
-8.68981

>  <SCORE.INTER.CONST>
1

>  <SCORE.INTER.POLAR>
0

>  <SCORE.INTER.ROT>
3

>  <SCORE.INTER.SOLV>
18.6992

>  <SCORE.INTER.VDW>
-17.6263

>  <SCORE.INTER.norm>
-0.394991

>  <SCORE.INTRA>
-3.06095

>  <SCORE.INTRA.DIHEDRAL>
-5.7177

>  <SCORE.INTRA.DIHEDRAL.0>
6.10773

>  <SCORE.INTRA.POLAR>
0

>  <SCORE.INTRA.POLAR.0>
0

>  <SCORE.INTRA.REPUL>
0

>  <SCORE.INTRA.REPUL.0>
0

>  <SCORE.INTRA.SOLV>
-0.982847

>  <SCORE.INTRA.SOLV.lig_0>
-71.4024

>  <SCORE.INTRA.VDW>
0.289319

>  <SCORE.INTRA.VDW.0>
-1.86213

>  <SCORE.INTRA.norm>
-0.139134

>  <SCORE.RESTR>
0

>  <SCORE.RESTR.CAVITY>
0

>  <SCORE.RESTR.norm>
0

>  <SCORE.SYSTEM>
0

>  <SCORE.SYSTEM.CONST>
0

>  <SCORE.SYSTEM.DIHEDRAL>
0

>  <SCORE.SYSTEM.SOLV>
0

>  <SCORE.SYSTEM.norm>
0

>  <SCORE.heavy>
22

>  <SCORE.norm>
-0.534126

>  <RMSD>
6.435

$$$$
lig.pdb
 OpenBabel11021811523D
libRbt.so/2013.1/901 2013/11/27
 22 23  0  0  0  0  0  0  0  0999 V2000
   -7.7703   -1.1309    1.0509 C   0  0  1  0  0  0  0  0  0  0  0  0
   -7.2035   -3.0347   -0.5129 C   0  0  1  0  0  0  0  0  0  0  0  0
   -8.3821   -4.0307   -0.1182 C   0  0  1  0  0  0  0  0  0  0  0  0
   -7.9200   -5.5106   -0.4946 C   0  0  2  0  0  0  0  0  0  0  0  0
   -8.3590    0.3277    0.9244 C   0  0  1  0  0  0  0  0  0  0  0  0
   -7.3220    1.1973    0.1862 C   0  0  2  0  0  0  0  0  0  0  0  0
   -6.0052    1.2726    0.9791 C   0  0  2  0  0  0  0  0  0  0  0  0
   -5.3754   -0.1549    1.1736 C   0  0  1  0  0  0  0  0  0  0  0  0
   -4.0729   -0.0900    2.0222 C   0  0  0  0  0  0  0  0  0  0  0  0
   -7.6856   -5.6022   -2.0880 C   0  0  1  0  0  0  0  0  0  0  0  0
   -6.4919   -4.5831   -2.4488 C   0  0  0  0  0  0  0  0  0  0  0  0
   -6.9134   -3.0954   -2.0464 C   0  0  2  0  0  0  0  0  0  0  0  0
   -6.2455    1.8717    2.2969 F   0  0  0  0  0  0  0  0  0  0  0  0
   -9.6639    0.2353    0.1614 N   0  0  0  0  0  0  0  0  0  0  0  0
   -3.3676   -1.3111    2.1218 N   0  0  0  0  0  0  0  0  0  0  0  0
   -7.2315   -6.9772   -2.4903 N   0  0  0  0  0  0  0  0  0  0  0  0
   -5.8139   -2.1664   -2.3783 N   0  0  0  0  0  0  0  0  0  0  0  0
   -7.5695   -1.6980   -0.2058 O   0  0  0  0  0  0  0  0  0  0  0  0
   -8.5923   -3.9312    1.3455 O   0  0  0  0  0  0  0  0  0  0  0  0
   -8.9644   -6.3639   -0.1310 O   0  0  0  0  0  0  0  0  0  0  0  0
   -7.7522    2.2605    0.0971 O   0  0  0  0  0  0  0  0  0  0  0  0
   -6.4594   -1.0315    1.8267 O   0  0  0  0  0  0  0  0  0  0  0  0
  1  5  1  0  0  0  0
  1 18  1  6  0  0  0
  2 18  1  6  0  0  0
  2  3  1  0  0  0  0
  2 12  1  0  0  0  0
  3 19  1  1  0  0  0
  3  4  1  0  0  0  0
  4 20  1  6  0  0  0
  4 10  1  0  0  0  0
  5  6  1  0  0  0  0
  5 14  1  6  0  0  0
  6 21  1  1  0  0  0
  7 13  1  1  0  0  0
  7  6  1  0  0  0  0
  8  9  1  1  0  0  0
  8  7  1  0  0  0  0
 10 16  1  1  0  0  0
 11 10  1  0  0  0  0
 12 17  1  1  0  0  0
 12 11  1  0  0  0  0
 15  9  1  0  0  0  0
 22  8  1  0  0  0  0
 22  1  1  0  0  0  0
M  END
>  <CHROM.1>
-172.16694029,67.12220057,-173.50161557,-7.05803290,-1.92370771,0.11504594
1.37447276,-0.19923988,0.35352022

>  <Name>
lig.pdb

>  <RI>
0

>  <Rbt.Current_Directory>
/home/itssahil/PROJECTS/Mol_Feturizer/New_Systems/rnas/5bws

>  <Rbt.Executable>
rbdock ($Id: //depot/dev/client3/rdock/2013.1/src/exe/rbdock.cxx#4 $)

>  <Rbt.Library>
libRbt.so (2013.1, Build901 2013/11/27)

>  <Rbt.Parameter_File>
/export/apps/rDock/src/rDock_2013.1_src/data/scripts/dock_solv.prm

>  <Rbt.Receptor>
prm/pocket_docking_4.prm

>  <SCORE>
-11.3403

>  <SCORE.INTER>
-8.14298

>  <SCORE.INTER.CONST>
1

>  <SCORE.INTER.POLAR>
0

>  <SCORE.INTER.ROT>
3

>  <SCORE.INTER.SOLV>
21.0581

>  <SCORE.INTER.VDW>
-18.048

>  <SCORE.INTER.norm>
-0.370135

>  <SCORE.INTRA>
-3.19736

>  <SCORE.INTRA.DIHEDRAL>
-5.40846

>  <SCORE.INTRA.DIHEDRAL.0>
6.10773

>  <SCORE.INTRA.POLAR>
0

>  <SCORE.INTRA.POLAR.0>
0

>  <SCORE.INTRA.REPUL>
0

>  <SCORE.INTRA.REPUL.0>
0

>  <SCORE.INTRA.SOLV>
-1.541

>  <SCORE.INTRA.SOLV.lig_0>
-71.4024

>  <SCORE.INTRA.VDW>
0.277369

>  <SCORE.INTRA.VDW.0>
-1.86213

>  <SCORE.INTRA.norm>
-0.145335

>  <SCORE.RESTR>
0

>  <SCORE.RESTR.CAVITY>
0

>  <SCORE.RESTR.norm>
0

>  <SCORE.SYSTEM>
0

>  <SCORE.SYSTEM.CONST>
0

>  <SCORE.SYSTEM.DIHEDRAL>
0

>  <SCORE.SYSTEM.SOLV>
0

>  <SCORE.SYSTEM.norm>
0

>  <SCORE.heavy>
22

>  <SCORE.norm>
-0.51547

>  <RMSD>
6.436

$$$$
lig.pdb
 OpenBabel11021811523D
libRbt.so/2013.1/901 2013/11/27
 22 23  0  0  0  0  0  0  0  0999 V2000
   -5.8783   -0.3888    1.5911 C   0  0  1  0  0  0  0  0  0  0  0  0
   -6.2734   -2.1826   -0.1459 C   0  0  1  0  0  0  0  0  0  0  0  0
   -5.3679   -3.2503   -0.9056 C   0  0  1  0  0  0  0  0  0  0  0  0
   -6.2871   -4.0040   -1.9696 C   0  0  2  0  0  0  0  0  0  0  0  0
   -6.1354    0.8745    0.6811 C   0  0  1  0  0  0  0  0  0  0  0  0
   -4.8104    1.2336   -0.0203 C   0  0  2  0  0  0  0  0  0  0  0  0
   -3.7237    1.5903    1.0094 C   0  0  2  0  0  0  0  0  0  0  0  0
   -3.4374    0.3837    1.9761 C   0  0  1  0  0  0  0  0  0  0  0  0
   -2.3793    0.7582    3.0536 C   0  0  0  0  0  0  0  0  0  0  0  0
   -7.4608   -4.7907   -1.1914 C   0  0  1  0  0  0  0  0  0  0  0  0
   -8.3517   -3.6820   -0.4358 C   0  0  0  0  0  0  0  0  0  0  0  0
   -7.4455   -2.8846    0.6109 C   0  0  2  0  0  0  0  0  0  0  0  0
   -4.1459    2.7490    1.8046 F   0  0  0  0  0  0  0  0  0  0  0  0
   -7.2208    0.5159   -0.3122 N   0  0  0  0  0  0  0  0  0  0  0  0
   -1.1005    1.0794    2.5437 N   0  0  0  0  0  0  0  0  0  0  0  0
   -8.3658   -5.5047   -2.1557 N   0  0  0  0  0  0  0  0  0  0  0  0
   -8.2680   -1.8685    1.2989 N   0  0  0  0  0  0  0  0  0  0  0  0
   -5.5021   -1.4883    0.8226 O   0  0  0  0  0  0  0  0  0  0  0  0
   -4.2902   -2.5158   -1.6094 O   0  0  0  0  0  0  0  0  0  0  0  0
   -5.4697   -4.9261   -2.6274 O   0  0  0  0  0  0  0  0  0  0  0  0
   -4.9995    2.1559   -0.6813 O   0  0  0  0  0  0  0  0  0  0  0  0
   -4.7888   -0.0184    2.5941 O   0  0  0  0  0  0  0  0  0  0  0  0
  1  5  1  0  0  0  0
  1 18  1  6  0  0  0
  2 18  1  1  0  0  0
  2  3  1  0  0  0  0
  2 12  1  0  0  0  0
  3 19  1  6  0  0  0
  3  4  1  0  0  0  0
  4 20  1  1  0  0  0
  4 10  1  0  0  0  0
  5  6  1  0  0  0  0
  5 14  1  6  0  0  0
  6 21  1  6  0  0  0
  7 13  1  1  0  0  0
  7  6  1  0  0  0  0
  8  9  1  1  0  0  0
  8  7  1  0  0  0  0
 10 16  1  6  0  0  0
 11 10  1  0  0  0  0
 12 17  1  6  0  0  0
 12 11  1  0  0  0  0
 15  9  1  0  0  0  0
 22  8  1  0  0  0  0
 22  1  1  0  0  0  0
M  END
>  <CHROM.1>
-65.02777250,172.55305729,-62.92035635,-5.48848174,-1.12713994,0.27941757
1.07640574,-0.01586327,0.49582617

>  <Name>
lig.pdb

>  <RI>
0

>  <Rbt.Current_Directory>
/home/itssahil/PROJECTS/Mol_Feturizer/New_Systems/rnas/5bws

>  <Rbt.Executable>
rbdock ($Id: //depot/dev/client3/rdock/2013.1/src/exe/rbdock.cxx#4 $)

>  <Rbt.Library>
libRbt.so (2013.1, Build901 2013/11/27)

>  <Rbt.Parameter_File>
/export/apps/rDock/src/rDock_2013.1_src/data/scripts/dock_solv.prm

>  <Rbt.Receptor>
prm/pocket_docking_3.prm

>  <SCORE>
-7.81358

>  <SCORE.INTER>
-7.30708

>  <SCORE.INTER.CONST>
1

>  <SCORE.INTER.POLAR>
0

>  <SCORE.INTER.ROT>
3

>  <SCORE.INTER.SOLV>
18.9352

>  <SCORE.INTER.VDW>
-16.7831

>  <SCORE.INTER.norm>
-0.33214

>  <SCORE.INTRA>
-0.506498

>  <SCORE.INTRA.DIHEDRAL>
-5.67992

>  <SCORE.INTRA.DIHEDRAL.0>
6.10773

>  <SCORE.INTRA.POLAR>
0

>  <SCORE.INTRA.POLAR.0>
0

>  <SCORE.INTRA.REPUL>
0

>  <SCORE.INTRA.REPUL.0>
0

>  <SCORE.INTRA.SOLV>
3.26849

>  <SCORE.INTRA.SOLV.lig_0>
-71.4024

>  <SCORE.INTRA.VDW>
0.699212

>  <SCORE.INTRA.VDW.0>
-1.86213

>  <SCORE.INTRA.norm>
-0.0230227

>  <SCORE.RESTR>
0

>  <SCORE.RESTR.CAVITY>
0

>  <SCORE.RESTR.norm>
0

>  <SCORE.SYSTEM>
0

>  <SCORE.SYSTEM.CONST>
0

>  <SCORE.SYSTEM.DIHEDRAL>
0

>  <SCORE.SYSTEM.SOLV>
0

>  <SCORE.SYSTEM.norm>
0

>  <SCORE.heavy>
22

>  <SCORE.norm>
-0.355163

>  <RMSD>
6.439

$$$$
lig.pdb
 OpenBabel11021811523D
libRbt.so/2013.1/901 2013/11/27
 22 23  0  0  0  0  0  0  0  0999 V2000
   -7.7805   -1.0397    0.9863 C   0  0  1  0  0  0  0  0  0  0  0  0
   -7.2261   -2.9884   -0.5258 C   0  0  1  0  0  0  0  0  0  0  0  0
   -8.4161   -3.9689   -0.1264 C   0  0  1  0  0  0  0  0  0  0  0  0
   -7.9566   -5.4594   -0.4619 C   0  0  2  0  0  0  0  0  0  0  0  0
   -8.1362    0.4889    0.8220 C   0  0  1  0  0  0  0  0  0  0  0  0
   -6.9376    1.1870    0.1495 C   0  0  2  0  0  0  0  0  0  0  0  0
   -5.6758    1.0737    1.0233 C   0  0  2  0  0  0  0  0  0  0  0  0
   -5.2791   -0.4296    1.2581 C   0  0  1  0  0  0  0  0  0  0  0  0
   -4.0365   -0.5505    2.1866 C   0  0  0  0  0  0  0  0  0  0  0  0
   -7.6986   -5.5887   -2.0491 C   0  0  1  0  0  0  0  0  0  0  0  0
   -6.4940   -4.5844   -2.4148 C   0  0  0  0  0  0  0  0  0  0  0  0
   -6.9132   -3.0857   -2.0529 C   0  0  2  0  0  0  0  0  0  0  0  0
   -5.9052    1.7152    2.3230 F   0  0  0  0  0  0  0  0  0  0  0  0
   -9.3906    0.5838   -0.0212 N   0  0  0  0  0  0  0  0  0  0  0  0
   -2.8735    0.0964    1.7096 N   0  0  0  0  0  0  0  0  0  0  0  0
   -7.2461   -6.9749   -2.4129 N   0  0  0  0  0  0  0  0  0  0  0  0
   -5.8036   -2.1703   -2.3890 N   0  0  0  0  0  0  0  0  0  0  0  0
   -7.5892   -1.6431   -0.2548 O   0  0  0  0  0  0  0  0  0  0  0  0
   -8.6478   -3.8348    1.3312 O   0  0  0  0  0  0  0  0  0  0  0  0
   -9.0111   -6.2987   -0.0950 O   0  0  0  0  0  0  0  0  0  0  0  0
   -7.1981    2.3014    0.0327 O   0  0  0  0  0  0  0  0  0  0  0  0
   -6.5200   -1.1286    1.8427 O   0  0  0  0  0  0  0  0  0  0  0  0
  1  5  1  0  0  0  0
  1 18  1  6  0  0  0
  2 18  1  6  0  0  0
  2  3  1  0  0  0  0
  2 12  1  0  0  0  0
  3 19  1  1  0  0  0
  3  4  1  0  0  0  0
  4 20  1  6  0  0  0
  4 10  1  0  0  0  0
  5  6  1  0  0  0  0
  5 14  1  6  0  0  0
  6 21  1  1  0  0  0
  7 13  1  1  0  0  0
  7  6  1  0  0  0  0
  8  9  1  1  0  0  0
  8  7  1  0  0  0  0
 10 16  1  1  0  0  0
 11 10  1  0  0  0  0
 12 17  1  1  0  0  0
 12 11  1  0  0  0  0
 15  9  1  0  0  0  0
 22  8  1  0  0  0  0
 22  1  1  0  0  0  0
M  END
>  <CHROM.1>
178.31005367,68.48665391,-59.12369145,-6.94467127,-1.86927613,0.09675284
1.30833644,-0.09193914,0.36015401

>  <Name>
lig.pdb

>  <RI>
0

>  <Rbt.Current_Directory>
/home/itssahil/PROJECTS/Mol_Feturizer/New_Systems/rnas/5bws

>  <Rbt.Executable>
rbdock ($Id: //depot/dev/client3/rdock/2013.1/src/exe/rbdock.cxx#4 $)

>  <Rbt.Library>
libRbt.so (2013.1, Build901 2013/11/27)

>  <Rbt.Parameter_File>
/export/apps/rDock/src/rDock_2013.1_src/data/scripts/dock_solv.prm

>  <Rbt.Receptor>
prm/pocket_docking_7.prm

>  <SCORE>
-11.6843

>  <SCORE.INTER>
-8.66706

>  <SCORE.INTER.CONST>
1

>  <SCORE.INTER.POLAR>
0

>  <SCORE.INTER.ROT>
3

>  <SCORE.INTER.SOLV>
18.3939

>  <SCORE.INTER.VDW>
-17.5093

>  <SCORE.INTER.norm>
-0.393957

>  <SCORE.INTRA>
-3.01721

>  <SCORE.INTRA.DIHEDRAL>
-5.73885

>  <SCORE.INTRA.DIHEDRAL.0>
6.10773

>  <SCORE.INTRA.POLAR>
0

>  <SCORE.INTRA.POLAR.0>
0

>  <SCORE.INTRA.REPUL>
0

>  <SCORE.INTRA.REPUL.0>
0

>  <SCORE.INTRA.SOLV>
-0.890138

>  <SCORE.INTRA.SOLV.lig_0>
-71.4024

>  <SCORE.INTRA.VDW>
0.297283

>  <SCORE.INTRA.VDW.0>
-1.86213

>  <SCORE.INTRA.norm>
-0.137146

>  <SCORE.RESTR>
0

>  <SCORE.RESTR.CAVITY>
0

>  <SCORE.RESTR.norm>
0

>  <SCORE.SYSTEM>
0

>  <SCORE.SYSTEM.CONST>
0

>  <SCORE.SYSTEM.DIHEDRAL>
0

>  <SCORE.SYSTEM.SOLV>
0

>  <SCORE.SYSTEM.norm>
0

>  <SCORE.heavy>
22

>  <SCORE.norm>
-0.531103

>  <RMSD>
6.439

$$$$
lig.pdb
 OpenBabel11021811523D
libRbt.so/2013.1/901 2013/11/27
 22 23  0  0  0  0  0  0  0  0999 V2000
   -7.1943   -1.0685    1.1294 C   0  0  1  0  0  0  0  0  0  0  0  0
   -7.0363   -3.0256   -0.4631 C   0  0  1  0  0  0  0  0  0  0  0  0
   -8.2686   -3.9409   -0.0382 C   0  0  1  0  0  0  0  0  0  0  0  0
   -7.9294   -5.4434   -0.4536 C   0  0  2  0  0  0  0  0  0  0  0  0
   -7.6129    0.4513    1.0584 C   0  0  1  0  0  0  0  0  0  0  0  0
   -6.6263    1.1736    0.1197 C   0  0  2  0  0  0  0  0  0  0  0  0
   -5.1897    1.0910    0.6652 C   0  0  2  0  0  0  0  0  0  0  0  0
   -4.7149   -0.4023    0.7947 C   0  0  1  0  0  0  0  0  0  0  0  0
   -3.2835   -0.4927    1.3979 C   0  0  0  0  0  0  0  0  0  0  0  0
   -7.7615   -5.5240   -2.0560 C   0  0  1  0  0  0  0  0  0  0  0  0
   -6.5112   -4.5873   -2.4472 C   0  0  0  0  0  0  0  0  0  0  0  0
   -6.8085   -3.0804   -2.0073 C   0  0  2  0  0  0  0  0  0  0  0  0
   -5.1150    1.7315    1.9833 F   0  0  0  0  0  0  0  0  0  0  0  0
   -9.0347    0.5158    0.5408 N   0  0  0  0  0  0  0  0  0  0  0  0
   -3.1318    0.1219    2.6619 N   0  0  0  0  0  0  0  0  0  0  0  0
   -7.4235   -6.9209   -2.4954 N   0  0  0  0  0  0  0  0  0  0  0  0
   -5.6575   -2.2272   -2.3674 N   0  0  0  0  0  0  0  0  0  0  0  0
   -7.2928   -1.6716   -0.1227 O   0  0  0  0  0  0  0  0  0  0  0  0
   -8.4165   -3.8520    1.4337 O   0  0  0  0  0  0  0  0  0  0  0  0
   -9.0186   -6.2256   -0.0629 O   0  0  0  0  0  0  0  0  0  0  0  0
   -6.9320    2.2816    0.0712 O   0  0  0  0  0  0  0  0  0  0  0  0
   -5.7635   -1.1266    1.6583 O   0  0  0  0  0  0  0  0  0  0  0  0
  1  5  1  0  0  0  0
  1 18  1  6  0  0  0
  2 18  1  6  0  0  0
  2  3  1  0  0  0  0
  2 12  1  0  0  0  0
  3 19  1  1  0  0  0
  3  4  1  0  0  0  0
  4 20  1  6  0  0  0
  4 10  1  0  0  0  0
  5  6  1  0  0  0  0
  5 14  1  6  0  0  0
  6 21  1  1  0  0  0
  7 13  1  1  0  0  0
  7  6  1  0  0  0  0
  8  9  1  1  0  0  0
  8  7  1  0  0  0  0
 10 16  1  1  0  0  0
 11 10  1  0  0  0  0
 12 17  1  1  0  0  0
 12 11  1  0  0  0  0
 15  9  1  0  0  0  0
 22  8  1  0  0  0  0
 22  1  1  0  0  0  0
M  END
>  <CHROM.1>
-178.39305472,78.43519245,57.00118807,-6.66244837,-1.86563220,0.09918475
1.23323321,-0.00781069,0.37845114

>  <Name>
lig.pdb

>  <RI>
0

>  <Rbt.Current_Directory>
/home/itssahil/PROJECTS/Mol_Feturizer/New_Systems/rnas/5bws

>  <Rbt.Executable>
rbdock ($Id: //depot/dev/client3/rdock/2013.1/src/exe/rbdock.cxx#4 $)

>  <Rbt.Library>
libRbt.so (2013.1, Build901 2013/11/27)

>  <Rbt.Parameter_File>
/export/apps/rDock/src/rDock_2013.1_src/data/scripts/dock_solv.prm

>  <Rbt.Receptor>
prm/pocket_docking_4.prm

>  <SCORE>
-10.1226

>  <SCORE.INTER>
-8.33857

>  <SCORE.INTER.CONST>
1

>  <SCORE.INTER.POLAR>
0

>  <SCORE.INTER.ROT>
3

>  <SCORE.INTER.SOLV>
18.6368

>  <SCORE.INTER.VDW>
-17.3713

>  <SCORE.INTER.norm>
-0.379026

>  <SCORE.INTRA>
-1.78399

>  <SCORE.INTRA.DIHEDRAL>
-4.50955

>  <SCORE.INTRA.DIHEDRAL.0>
6.10773

>  <SCORE.INTRA.POLAR>
0

>  <SCORE.INTRA.POLAR.0>
0

>  <SCORE.INTRA.REPUL>
0

>  <SCORE.INTRA.REPUL.0>
0

>  <SCORE.INTRA.SOLV>
0.658357

>  <SCORE.INTRA.SOLV.lig_0>
-71.4024

>  <SCORE.INTRA.VDW>
0.141611

>  <SCORE.INTRA.VDW.0>
-1.86213

>  <SCORE.INTRA.norm>
-0.0810903

>  <SCORE.RESTR>
0

>  <SCORE.RESTR.CAVITY>
0

>  <SCORE.RESTR.norm>
0

>  <SCORE.SYSTEM>
0

>  <SCORE.SYSTEM.CONST>
0

>  <SCORE.SYSTEM.DIHEDRAL>
0

>  <SCORE.SYSTEM.SOLV>
0

>  <SCORE.SYSTEM.norm>
0

>  <SCORE.heavy>
22

>  <SCORE.norm>
-0.460116

>  <RMSD>
6.440

$$$$
lig.pdb
 OpenBabel11021811523D
libRbt.so/2013.1/901 2013/11/27
 22 23  0  0  0  0  0  0  0  0999 V2000
   -7.1869   -1.0794    1.1321 C   0  0  1  0  0  0  0  0  0  0  0  0
   -7.0344   -3.0366   -0.4608 C   0  0  1  0  0  0  0  0  0  0  0  0
   -8.2697   -3.9472   -0.0345 C   0  0  1  0  0  0  0  0  0  0  0  0
   -7.9365   -5.4511   -0.4500 C   0  0  2  0  0  0  0  0  0  0  0  0
   -7.6090    0.4395    1.0630 C   0  0  1  0  0  0  0  0  0  0  0  0
   -6.6250    1.1648    0.1239 C   0  0  2  0  0  0  0  0  0  0  0  0
   -5.1876    1.0849    0.6678 C   0  0  2  0  0  0  0  0  0  0  0  0
   -4.7094   -0.4075    0.7955 C   0  0  1  0  0  0  0  0  0  0  0  0
   -3.2772   -0.4952    1.3971 C   0  0  0  0  0  0  0  0  0  0  0  0
   -7.7704   -5.5326   -2.0524 C   0  0  1  0  0  0  0  0  0  0  0  0
   -6.5170   -4.6007   -2.4451 C   0  0  0  0  0  0  0  0  0  0  0  0
   -6.8081   -3.0926   -2.0051 C   0  0  2  0  0  0  0  0  0  0  0  0
   -5.1130    1.7244    1.9865 F   0  0  0  0  0  0  0  0  0  0  0  0
   -9.0315    0.5013    0.5469 N   0  0  0  0  0  0  0  0  0  0  0  0
   -3.1292    0.1055    2.6682 N   0  0  0  0  0  0  0  0  0  0  0  0
   -7.4381   -6.9309   -2.4919 N   0  0  0  0  0  0  0  0  0  0  0  0
   -5.6543   -2.2439   -2.3665 N   0  0  0  0  0  0  0  0  0  0  0  0
   -7.2854   -1.6816   -0.1204 O   0  0  0  0  0  0  0  0  0  0  0  0
   -8.4160   -3.8574    1.4375 O   0  0  0  0  0  0  0  0  0  0  0  0
   -9.0284   -6.2291   -0.0580 O   0  0  0  0  0  0  0  0  0  0  0  0
   -6.9332    2.2722    0.0768 O   0  0  0  0  0  0  0  0  0  0  0  0
   -5.7555   -1.1349    1.6595 O   0  0  0  0  0  0  0  0  0  0  0  0
  1  5  1  0  0  0  0
  1 18  1  6  0  0  0
  2 18  1  6  0  0  0
  2  3  1  0  0  0  0
  2 12  1  0  0  0  0
  3 19  1  1  0  0  0
  3  4  1  0  0  0  0
  4 20  1  6  0  0  0
  4 10  1  0  0  0  0
  5  6  1  0  0  0  0
  5 14  1  6  0  0  0
  6 21  1  1  0  0  0
  7 13  1  1  0  0  0
  7  6  1  0  0  0  0
  8  9  1  1  0  0  0
  8  7  1  0  0  0  0
 10 16  1  1  0  0  0
 11 10  1  0  0  0  0
 12 17  1  1  0  0  0
 12 11  1  0  0  0  0
 15  9  1  0  0  0  0
 22  8  1  0  0  0  0
 22  1  1  0  0  0  0
M  END
>  <CHROM.1>
-177.96140755,78.24674577,57.67705194,-6.66208444,-1.87491376,0.10234450
1.23160729,-0.00579505,0.37944262

>  <Name>
lig.pdb

>  <RI>
0

>  <Rbt.Current_Directory>
/home/itssahil/PROJECTS/Mol_Feturizer/New_Systems/rnas/5bws

>  <Rbt.Executable>
rbdock ($Id: //depot/dev/client3/rdock/2013.1/src/exe/rbdock.cxx#4 $)

>  <Rbt.Library>
libRbt.so (2013.1, Build901 2013/11/27)

>  <Rbt.Parameter_File>
/export/apps/rDock/src/rDock_2013.1_src/data/scripts/dock_solv.prm

>  <Rbt.Receptor>
prm/pocket_docking_5.prm

>  <SCORE>
-10.127

>  <SCORE.INTER>
-8.30981

>  <SCORE.INTER.CONST>
1

>  <SCORE.INTER.POLAR>
0

>  <SCORE.INTER.ROT>
3

>  <SCORE.INTER.SOLV>
18.7005

>  <SCORE.INTER.VDW>
-17.3734

>  <SCORE.INTER.norm>
-0.377719

>  <SCORE.INTRA>
-1.81716

>  <SCORE.INTRA.DIHEDRAL>
-4.54392

>  <SCORE.INTRA.DIHEDRAL.0>
6.10773

>  <SCORE.INTRA.POLAR>
0

>  <SCORE.INTRA.POLAR.0>
0

>  <SCORE.INTRA.REPUL>
0

>  <SCORE.INTRA.REPUL.0>
0

>  <SCORE.INTRA.SOLV>
0.643397

>  <SCORE.INTRA.SOLV.lig_0>
-71.4024

>  <SCORE.INTRA.VDW>
0.133106

>  <SCORE.INTRA.VDW.0>
-1.86213

>  <SCORE.INTRA.norm>
-0.082598

>  <SCORE.RESTR>
0

>  <SCORE.RESTR.CAVITY>
0

>  <SCORE.RESTR.norm>
0

>  <SCORE.SYSTEM>
0

>  <SCORE.SYSTEM.CONST>
0

>  <SCORE.SYSTEM.DIHEDRAL>
0

>  <SCORE.SYSTEM.SOLV>
0

>  <SCORE.SYSTEM.norm>
0

>  <SCORE.heavy>
22

>  <SCORE.norm>
-0.460317

>  <RMSD>
6.443

$$$$
lig.pdb
 OpenBabel11021811523D
libRbt.so/2013.1/901 2013/11/27
 22 23  0  0  0  0  0  0  0  0999 V2000
   -7.8860   -1.0781    0.9813 C   0  0  1  0  0  0  0  0  0  0  0  0
   -7.2398   -2.9991   -0.5297 C   0  0  1  0  0  0  0  0  0  0  0  0
   -8.4065   -4.0097   -0.1365 C   0  0  1  0  0  0  0  0  0  0  0  0
   -7.9086   -5.4877   -0.4725 C   0  0  2  0  0  0  0  0  0  0  0  0
   -8.5811    0.3284    0.8118 C   0  0  1  0  0  0  0  0  0  0  0  0
   -7.6083    1.2518    0.0519 C   0  0  2  0  0  0  0  0  0  0  0  0
   -6.3045    1.4474    0.8458 C   0  0  2  0  0  0  0  0  0  0  0  0
   -5.5710    0.0769    1.0825 C   0  0  1  0  0  0  0  0  0  0  0  0
   -4.2810    0.2626    1.9323 C   0  0  0  0  0  0  0  0  0  0  0  0
   -7.6413   -5.6080   -2.0587 C   0  0  1  0  0  0  0  0  0  0  0  0
   -6.4607   -4.5733   -2.4182 C   0  0  0  0  0  0  0  0  0  0  0  0
   -6.9187   -3.0861   -2.0557 C   0  0  2  0  0  0  0  0  0  0  0  0
   -6.5950    2.0637    2.1454 F   0  0  0  0  0  0  0  0  0  0  0  0
   -9.8718    0.1175    0.0483 N   0  0  0  0  0  0  0  0  0  0  0  0
   -3.5179   -0.9128    2.1181 N   0  0  0  0  0  0  0  0  0  0  0  0
   -7.1528   -6.9819   -2.4229 N   0  0  0  0  0  0  0  0  0  0  0  0
   -5.8310   -2.1427   -2.3862 N   0  0  0  0  0  0  0  0  0  0  0  0
   -7.6376   -1.6638   -0.2582 O   0  0  0  0  0  0  0  0  0  0  0  0
   -8.6471   -3.8838    1.3204 O   0  0  0  0  0  0  0  0  0  0  0  0
   -8.9431   -6.3538   -0.1109 O   0  0  0  0  0  0  0  0  0  0  0  0
   -8.1160    2.2770   -0.0685 O   0  0  0  0  0  0  0  0  0  0  0  0
   -6.5898   -0.8594    1.7574 O   0  0  0  0  0  0  0  0  0  0  0  0
  1  5  1  0  0  0  0
  1 18  1  6  0  0  0
  2 18  1  6  0  0  0
  2  3  1  0  0  0  0
  2 12  1  0  0  0  0
  3 19  1  1  0  0  0
  3  4  1  0  0  0  0
  4 20  1  6  0  0  0
  4 10  1  0  0  0  0
  5  6  1  0  0  0  0
  5 14  1  6  0  0  0
  6 21  1  1  0  0  0
  7 13  1  1  0  0  0
  7  6  1  0  0  0  0
  8  9  1  1  0  0  0
  8  7  1  0  0  0  0
 10 16  1  1  0  0  0
 11 10  1  0  0  0  0
 12 17  1  1  0  0  0
 12 11  1  0  0  0  0
 15  9  1  0  0  0  0
 22  8  1  0  0  0  0
 22  1  1  0  0  0  0
M  END
>  <CHROM.1>
-168.49462745,66.46119311,-176.17723206,-7.17776977,-1.84328588,0.06354981
1.41467405,-0.15629681,0.34418175

>  <Name>
lig.pdb

>  <RI>
0

>  <Rbt.Current_Directory>
/home/itssahil/PROJECTS/Mol_Feturizer/New_Systems/rnas/5bws

>  <Rbt.Executable>
rbdock ($Id: //depot/dev/client3/rdock/2013.1/src/exe/rbdock.cxx#4 $)

>  <Rbt.Library>
libRbt.so (2013.1, Build901 2013/11/27)

>  <Rbt.Parameter_File>
/export/apps/rDock/src/rDock_2013.1_src/data/scripts/dock_solv.prm

>  <Rbt.Receptor>
prm/pocket_docking_7.prm

>  <SCORE>
-11.2698

>  <SCORE.INTER>
-8.26163

>  <SCORE.INTER.CONST>
1

>  <SCORE.INTER.POLAR>
0

>  <SCORE.INTER.ROT>
3

>  <SCORE.INTER.SOLV>
19.6498

>  <SCORE.INTER.VDW>
-17.6577

>  <SCORE.INTER.norm>
-0.375529

>  <SCORE.INTRA>
-3.00819

>  <SCORE.INTRA.DIHEDRAL>
-5.21512

>  <SCORE.INTRA.DIHEDRAL.0>
6.10773

>  <SCORE.INTRA.POLAR>
0

>  <SCORE.INTRA.POLAR.0>
0

>  <SCORE.INTRA.REPUL>
0

>  <SCORE.INTRA.REPUL.0>
0

>  <SCORE.INTRA.SOLV>
-1.50112

>  <SCORE.INTRA.SOLV.lig_0>
-71.4024

>  <SCORE.INTRA.VDW>
0.349926

>  <SCORE.INTRA.VDW.0>
-1.86213

>  <SCORE.INTRA.norm>
-0.136736

>  <SCORE.RESTR>
0

>  <SCORE.RESTR.CAVITY>
0

>  <SCORE.RESTR.norm>
0

>  <SCORE.SYSTEM>
0

>  <SCORE.SYSTEM.CONST>
0

>  <SCORE.SYSTEM.DIHEDRAL>
0

>  <SCORE.SYSTEM.SOLV>
0

>  <SCORE.SYSTEM.norm>
0

>  <SCORE.heavy>
22

>  <SCORE.norm>
-0.512265

>  <RMSD>
6.443

$$$$
lig.pdb
 OpenBabel11021811523D
libRbt.so/2013.1/901 2013/11/27
 22 23  0  0  0  0  0  0  0  0999 V2000
   -7.1684   -1.1029    1.1443 C   0  0  1  0  0  0  0  0  0  0  0  0
   -7.0196   -3.0514   -0.4595 C   0  0  1  0  0  0  0  0  0  0  0  0
   -8.2554   -3.9670   -0.0453 C   0  0  1  0  0  0  0  0  0  0  0  0
   -7.9181   -5.4673   -0.4702 C   0  0  2  0  0  0  0  0  0  0  0  0
   -7.6425    0.4015    1.0959 C   0  0  1  0  0  0  0  0  0  0  0  0
   -6.7042    1.1659    0.1412 C   0  0  2  0  0  0  0  0  0  0  0  0
   -5.2532    1.1306    0.6531 C   0  0  2  0  0  0  0  0  0  0  0  0
   -4.7227   -0.3457    0.7589 C   0  0  1  0  0  0  0  0  0  0  0  0
   -3.2755   -0.3895    1.3285 C   0  0  0  0  0  0  0  0  0  0  0  0
   -7.7449   -5.5369   -2.0725 C   0  0  1  0  0  0  0  0  0  0  0  0
   -6.4912   -4.6003   -2.4529 C   0  0  0  0  0  0  0  0  0  0  0  0
   -6.7866   -3.0958   -2.0033 C   0  0  2  0  0  0  0  0  0  0  0  0
   -5.1710    1.7631    1.9747 F   0  0  0  0  0  0  0  0  0  0  0  0
   -9.0772    0.4190    0.6114 N   0  0  0  0  0  0  0  0  0  0  0  0
   -3.1265    0.1759    2.6156 N   0  0  0  0  0  0  0  0  0  0  0  0
   -7.4085   -6.9315   -2.5206 N   0  0  0  0  0  0  0  0  0  0  0  0
   -5.6325   -2.2428   -2.3534 N   0  0  0  0  0  0  0  0  0  0  0  0
   -7.2742   -1.6993   -0.1104 O   0  0  0  0  0  0  0  0  0  0  0  0
   -8.4082   -3.8881    1.4267 O   0  0  0  0  0  0  0  0  0  0  0  0
   -9.0105   -6.2498   -0.0887 O   0  0  0  0  0  0  0  0  0  0  0  0
   -7.0501    2.2626    0.1093 O   0  0  0  0  0  0  0  0  0  0  0  0
   -5.7247   -1.1139    1.6399 O   0  0  0  0  0  0  0  0  0  0  0  0
  1  5  1  0  0  0  0
  1 18  1  6  0  0  0
  2 18  1  6  0  0  0
  2  3  1  0  0  0  0
  2 12  1  0  0  0  0
  3 19  1  1  0  0  0
  3  4  1  0  0  0  0
  4 20  1  6  0  0  0
  4 10  1  0  0  0  0
  5  6  1  0  0  0  0
  5 14  1  6  0  0  0
  6 21  1  1  0  0  0
  7 13  1  1  0  0  0
  7  6  1  0  0  0  0
  8  9  1  1  0  0  0
  8  7  1  0  0  0  0
 10 16  1  1  0  0  0
 11 10  1  0  0  0  0
 12 17  1  1  0  0  0
 12 11  1  0  0  0  0
 15  9  1  0  0  0  0
 22  8  1  0  0  0  0
 22  1  1  0  0  0  0
M  END
>  <CHROM.1>
-176.12619816,78.99519602,59.24946550,-6.66978072,-1.87173167,0.09556631
1.23979166,0.04518129,0.39632971

>  <Name>
lig.pdb

>  <RI>
0

>  <Rbt.Current_Directory>
/home/itssahil/PROJECTS/Mol_Feturizer/New_Systems/rnas/5bws

>  <Rbt.Executable>
rbdock ($Id: //depot/dev/client3/rdock/2013.1/src/exe/rbdock.cxx#4 $)

>  <Rbt.Library>
libRbt.so (2013.1, Build901 2013/11/27)

>  <Rbt.Parameter_File>
/export/apps/rDock/src/rDock_2013.1_src/data/scripts/dock_solv.prm

>  <Rbt.Receptor>
prm/pocket_docking_8.prm

>  <SCORE>
-10.13

>  <SCORE.INTER>
-8.36646

>  <SCORE.INTER.CONST>
1

>  <SCORE.INTER.POLAR>
0

>  <SCORE.INTER.ROT>
3

>  <SCORE.INTER.SOLV>
18.3989

>  <SCORE.INTER.VDW>
-17.3106

>  <SCORE.INTER.norm>
-0.380294

>  <SCORE.INTRA>
-1.76355

>  <SCORE.INTRA.DIHEDRAL>
-4.39152

>  <SCORE.INTRA.DIHEDRAL.0>
6.10773

>  <SCORE.INTRA.POLAR>
0

>  <SCORE.INTRA.POLAR.0>
0

>  <SCORE.INTRA.REPUL>
0

>  <SCORE.INTRA.REPUL.0>
0

>  <SCORE.INTRA.SOLV>
0.667893

>  <SCORE.INTRA.SOLV.lig_0>
-71.4024

>  <SCORE.INTRA.VDW>
0.0982636

>  <SCORE.INTRA.VDW.0>
-1.86213

>  <SCORE.INTRA.norm>
-0.0801614

>  <SCORE.RESTR>
0

>  <SCORE.RESTR.CAVITY>
0

>  <SCORE.RESTR.norm>
0

>  <SCORE.SYSTEM>
0

>  <SCORE.SYSTEM.CONST>
0

>  <SCORE.SYSTEM.DIHEDRAL>
0

>  <SCORE.SYSTEM.SOLV>
0

>  <SCORE.SYSTEM.norm>
0

>  <SCORE.heavy>
22

>  <SCORE.norm>
-0.460455

>  <RMSD>
6.444

$$$$
lig.pdb
 OpenBabel11021811523D
libRbt.so/2013.1/901 2013/11/27
 22 23  0  0  0  0  0  0  0  0999 V2000
   -7.7637   -1.0710    1.0308 C   0  0  1  0  0  0  0  0  0  0  0  0
   -7.1903   -3.0011   -0.4980 C   0  0  1  0  0  0  0  0  0  0  0  0
   -8.3911   -3.9741   -0.1128 C   0  0  1  0  0  0  0  0  0  0  0  0
   -7.9448   -5.4655   -0.4622 C   0  0  2  0  0  0  0  0  0  0  0  0
   -8.1940    0.4394    0.8769 C   0  0  1  0  0  0  0  0  0  0  0  0
   -7.0303    1.2005    0.2113 C   0  0  2  0  0  0  0  0  0  0  0  0
   -5.7655    1.1431    1.0862 C   0  0  2  0  0  0  0  0  0  0  0  0
   -5.2956   -0.3405    1.3107 C   0  0  1  0  0  0  0  0  0  0  0  0
   -4.0496   -0.4069    2.2402 C   0  0  0  0  0  0  0  0  0  0  0  0
   -7.6826   -5.5808   -2.0496 C   0  0  1  0  0  0  0  0  0  0  0  0
   -6.4671   -4.5845   -2.4009 C   0  0  0  0  0  0  0  0  0  0  0  0
   -6.8731   -3.0856   -2.0249 C   0  0  2  0  0  0  0  0  0  0  0  0
   -6.0277    1.7631    2.3900 F   0  0  0  0  0  0  0  0  0  0  0  0
   -9.4505    0.4787    0.0325 N   0  0  0  0  0  0  0  0  0  0  0  0
   -2.8962    0.2347    1.7339 N   0  0  0  0  0  0  0  0  0  0  0  0
   -7.2422   -6.9675   -2.4263 N   0  0  0  0  0  0  0  0  0  0  0  0
   -5.7536   -2.1775   -2.3479 N   0  0  0  0  0  0  0  0  0  0  0  0
   -7.5415   -1.6552   -0.2143 O   0  0  0  0  0  0  0  0  0  0  0  0
   -8.6265   -3.8529    1.3454 O   0  0  0  0  0  0  0  0  0  0  0  0
   -9.0085   -6.2983   -0.1074 O   0  0  0  0  0  0  0  0  0  0  0  0
   -7.3452    2.3016    0.1021 O   0  0  0  0  0  0  0  0  0  0  0  0
   -6.5013   -1.1039    1.8884 O   0  0  0  0  0  0  0  0  0  0  0  0
  1  5  1  0  0  0  0
  1 18  1  6  0  0  0
  2 18  1  6  0  0  0
  2  3  1  0  0  0  0
  2 12  1  0  0  0  0
  3 19  1  1  0  0  0
  3  4  1  0  0  0  0
  4 20  1  6  0  0  0
  4 10  1  0  0  0  0
  5  6  1  0  0  0  0
  5 14  1  6  0  0  0
  6 21  1  1  0  0  0
  7 13  1  1  0  0  0
  7  6  1  0  0  0  0
  8  9  1  1  0  0  0
  8  7  1  0  0  0  0
 10 16  1  1  0  0  0
 11 10  1  0  0  0  0
 12 17  1  1  0  0  0
 12 11  1  0  0  0  0
 15  9  1  0  0  0  0
 22  8  1  0  0  0  0
 22  1  1  0  0  0  0
M  END
>  <CHROM.1>
-177.52978714,66.73968461,-62.59980887,-6.96027190,-1.85559355,0.13095396
1.32005205,-0.05298307,0.37932473

>  <Name>
lig.pdb

>  <RI>
0

>  <Rbt.Current_Directory>
/home/itssahil/PROJECTS/Mol_Feturizer/New_Systems/rnas/5bws

>  <Rbt.Executable>
rbdock ($Id: //depot/dev/client3/rdock/2013.1/src/exe/rbdock.cxx#4 $)

>  <Rbt.Library>
libRbt.so (2013.1, Build901 2013/11/27)

>  <Rbt.Parameter_File>
/export/apps/rDock/src/rDock_2013.1_src/data/scripts/dock_solv.prm

>  <Rbt.Receptor>
prm/pocket_docking_8.prm

>  <SCORE>
-11.8084

>  <SCORE.INTER>
-8.71233

>  <SCORE.INTER.CONST>
1

>  <SCORE.INTER.POLAR>
0

>  <SCORE.INTER.ROT>
3

>  <SCORE.INTER.SOLV>
18.1873

>  <SCORE.INTER.VDW>
-17.4706

>  <SCORE.INTER.norm>
-0.396015

>  <SCORE.INTRA>
-3.09608

>  <SCORE.INTRA.DIHEDRAL>
-5.82862

>  <SCORE.INTRA.DIHEDRAL.0>
6.10773

>  <SCORE.INTRA.POLAR>
0

>  <SCORE.INTRA.POLAR.0>
0

>  <SCORE.INTRA.REPUL>
0

>  <SCORE.INTRA.REPUL.0>
0

>  <SCORE.INTRA.SOLV>
-1.02784

>  <SCORE.INTRA.SOLV.lig_0>
-71.4024

>  <SCORE.INTRA.VDW>
0.332153

>  <SCORE.INTRA.VDW.0>
-1.86213

>  <SCORE.INTRA.norm>
-0.140731

>  <SCORE.RESTR>
0

>  <SCORE.RESTR.CAVITY>
0

>  <SCORE.RESTR.norm>
0

>  <SCORE.SYSTEM>
0

>  <SCORE.SYSTEM.CONST>
0

>  <SCORE.SYSTEM.DIHEDRAL>
0

>  <SCORE.SYSTEM.SOLV>
0

>  <SCORE.SYSTEM.norm>
0

>  <SCORE.heavy>
22

>  <SCORE.norm>
-0.536746

>  <RMSD>
6.447

$$$$
lig.pdb
 OpenBabel11021811523D
libRbt.so/2013.1/901 2013/11/27
 22 23  0  0  0  0  0  0  0  0999 V2000
   -7.9283   -0.3244   -0.0181 C   0  0  1  0  0  0  0  0  0  0  0  0
   -7.2868   -2.6475   -0.7815 C   0  0  1  0  0  0  0  0  0  0  0  0
   -8.1384   -3.9379   -1.1645 C   0  0  1  0  0  0  0  0  0  0  0  0
   -7.1438   -5.1842   -1.2157 C   0  0  2  0  0  0  0  0  0  0  0  0
   -8.2291   -0.5356    1.5165 C   0  0  1  0  0  0  0  0  0  0  0  0
   -9.7153   -0.9182    1.6621 C   0  0  2  0  0  0  0  0  0  0  0  0
  -10.6253    0.2075    1.1396 C   0  0  2  0  0  0  0  0  0  0  0  0
  -10.3564    0.4968   -0.3823 C   0  0  1  0  0  0  0  0  0  0  0  0
  -11.2349    1.6717   -0.9008 C   0  0  0  0  0  0  0  0  0  0  0  0
   -6.0444   -4.9364   -2.3698 C   0  0  1  0  0  0  0  0  0  0  0  0
   -5.2066   -3.6266   -1.9502 C   0  0  0  0  0  0  0  0  0  0  0  0
   -6.1864   -2.3682   -1.8541 C   0  0  2  0  0  0  0  0  0  0  0  0
  -10.3950    1.4369    1.9070 F   0  0  0  0  0  0  0  0  0  0  0  0
   -7.3124   -1.6302    2.0213 N   0  0  0  0  0  0  0  0  0  0  0  0
  -10.9489    2.9284   -0.3200 N   0  0  0  0  0  0  0  0  0  0  0  0
   -5.0716   -6.0796   -2.4453 N   0  0  0  0  0  0  0  0  0  0  0  0
   -5.4121   -1.1710   -1.4674 N   0  0  0  0  0  0  0  0  0  0  0  0
   -8.1268   -1.5043   -0.7319 O   0  0  0  0  0  0  0  0  0  0  0  0
   -9.1487   -4.1496   -0.1011 O   0  0  0  0  0  0  0  0  0  0  0  0
   -7.9146   -6.3020   -1.5435 O   0  0  0  0  0  0  0  0  0  0  0  0
   -9.9330   -1.0695    2.7815 O   0  0  0  0  0  0  0  0  0  0  0  0
   -8.8502    0.7845   -0.5186 O   0  0  0  0  0  0  0  0  0  0  0  0
  1  5  1  0  0  0  0
  1 18  1  6  0  0  0
  2 18  1  6  0  0  0
  2  3  1  0  0  0  0
  2 12  1  0  0  0  0
  3 19  1  1  0  0  0
  3  4  1  0  0  0  0
  4 20  1  6  0  0  0
  4 10  1  0  0  0  0
  5  6  1  0  0  0  0
  5 14  1  6  0  0  0
  6 21  1  1  0  0  0
  7 13  1  1  0  0  0
  7  6  1  0  0  0  0
  8  9  1  1  0  0  0
  8  7  1  0  0  0  0
 10 16  1  1  0  0  0
 11 10  1  0  0  0  0
 12 17  1  1  0  0  0
 12 11  1  0  0  0  0
 15  9  1  0  0  0  0
 22  8  1  0  0  0  0
 22  1  1  0  0  0  0
M  END
>  <CHROM.1>
-75.74856386,155.54140750,65.32002023,-8.29115539,-1.72906676,-0.26080281
-2.38755073,-0.78114360,2.90507554

>  <Name>
lig.pdb

>  <RI>
0

>  <Rbt.Current_Directory>
/home/itssahil/PROJECTS/Mol_Feturizer/New_Systems/rnas/5bws

>  <Rbt.Executable>
rbdock ($Id: //depot/dev/client3/rdock/2013.1/src/exe/rbdock.cxx#4 $)

>  <Rbt.Library>
libRbt.so (2013.1, Build901 2013/11/27)

>  <Rbt.Parameter_File>
/export/apps/rDock/src/rDock_2013.1_src/data/scripts/dock_solv.prm

>  <Rbt.Receptor>
prm/pocket_docking_7.prm

>  <SCORE>
-9.4902

>  <SCORE.INTER>
-9.91966

>  <SCORE.INTER.CONST>
1

>  <SCORE.INTER.POLAR>
0

>  <SCORE.INTER.ROT>
3

>  <SCORE.INTER.SOLV>
15.0098

>  <SCORE.INTER.VDW>
-17.2164

>  <SCORE.INTER.norm>
-0.450893

>  <SCORE.INTRA>
0.429455

>  <SCORE.INTRA.DIHEDRAL>
-2.27916

>  <SCORE.INTRA.DIHEDRAL.0>
6.10773

>  <SCORE.INTRA.POLAR>
0

>  <SCORE.INTRA.POLAR.0>
0

>  <SCORE.INTRA.REPUL>
0

>  <SCORE.INTRA.REPUL.0>
0

>  <SCORE.INTRA.SOLV>
2.98144

>  <SCORE.INTRA.SOLV.lig_0>
-71.4024

>  <SCORE.INTRA.VDW>
0.0783173

>  <SCORE.INTRA.VDW.0>
-1.86213

>  <SCORE.INTRA.norm>
0.0195207

>  <SCORE.RESTR>
0

>  <SCORE.RESTR.CAVITY>
0

>  <SCORE.RESTR.norm>
0

>  <SCORE.SYSTEM>
0

>  <SCORE.SYSTEM.CONST>
0

>  <SCORE.SYSTEM.DIHEDRAL>
0

>  <SCORE.SYSTEM.SOLV>
0

>  <SCORE.SYSTEM.norm>
0

>  <SCORE.heavy>
22

>  <SCORE.norm>
-0.431373

>  <RMSD>
6.448

$$$$
lig.pdb
 OpenBabel11021811523D
libRbt.so/2013.1/901 2013/11/27
 22 23  0  0  0  0  0  0  0  0999 V2000
   -5.2973   -6.3359   -2.1612 C   0  0  1  0  0  0  0  0  0  0  0  0
   -6.6744   -4.3706   -1.3659 C   0  0  1  0  0  0  0  0  0  0  0  0
   -6.9739   -2.9372   -1.9926 C   0  0  1  0  0  0  0  0  0  0  0  0
   -7.6001   -2.0220   -0.8457 C   0  0  2  0  0  0  0  0  0  0  0  0
   -3.8417   -5.8893   -1.7465 C   0  0  1  0  0  0  0  0  0  0  0  0
   -3.2479   -5.0654   -2.9062 C   0  0  2  0  0  0  0  0  0  0  0  0
   -3.1490   -5.9130   -4.1870 C   0  0  2  0  0  0  0  0  0  0  0  0
   -4.5649   -6.4228   -4.6429 C   0  0  1  0  0  0  0  0  0  0  0  0
   -4.4635   -7.3260   -5.9058 C   0  0  0  0  0  0  0  0  0  0  0  0
   -8.9952   -2.6675   -0.3566 C   0  0  1  0  0  0  0  0  0  0  0  0
   -8.6536   -4.1124    0.2674 C   0  0  0  0  0  0  0  0  0  0  0  0
   -7.9890   -5.0391   -0.8517 C   0  0  2  0  0  0  0  0  0  0  0  0
   -2.2763   -7.0702   -3.9577 F   0  0  0  0  0  0  0  0  0  0  0  0
   -3.9524   -5.0751   -0.4744 N   0  0  0  0  0  0  0  0  0  0  0  0
   -5.6887   -7.8844   -6.3364 N   0  0  0  0  0  0  0  0  0  0  0  0
   -9.6168   -1.8473    0.7387 N   0  0  0  0  0  0  0  0  0  0  0  0
   -7.6767   -6.3617   -0.2725 N   0  0  0  0  0  0  0  0  0  0  0  0
   -6.1226   -5.2297   -2.3520 O   0  0  0  0  0  0  0  0  0  0  0  0
   -5.6864   -2.3590   -2.4445 O   0  0  0  0  0  0  0  0  0  0  0  0
   -7.8446   -0.7708   -1.4166 O   0  0  0  0  0  0  0  0  0  0  0  0
   -2.1862   -4.7429   -2.6028 O   0  0  0  0  0  0  0  0  0  0  0  0
   -5.1778   -7.1617   -3.4394 O   0  0  0  0  0  0  0  0  0  0  0  0
  1  5  1  0  0  0  0
  1 18  1  6  0  0  0
  2 18  1  6  0  0  0
  2  3  1  0  0  0  0
  2 12  1  0  0  0  0
  3 19  1  1  0  0  0
  3  4  1  0  0  0  0
  4 20  1  6  0  0  0
  4 10  1  0  0  0  0
  5  6  1  0  0  0  0
  5 14  1  1  0  0  0
  6 21  1  1  0  0  0
  7 13  1  1  0  0  0
  7  6  1  0  0  0  0
  8  9  1  6  0  0  0
  8  7  1  0  0  0  0
 10 16  1  1  0  0  0
 11 10  1  0  0  0  0
 12 17  1  1  0  0  0
 12 11  1  0  0  0  0
 15  9  1  0  0  0  0
 22  8  1  0  0  0  0
 22  1  1  0  0  0  0
M  END
>  <CHROM.1>
-72.97716568,154.49523832,176.71957369,-5.73383248,-4.86162547,-2.27716325
0.85829605,-0.22970474,-2.58454917

>  <Name>
lig.pdb

>  <RI>
0

>  <Rbt.Current_Directory>
/home/itssahil/PROJECTS/Mol_Feturizer/New_Systems/rnas/5bws

>  <Rbt.Executable>
rbdock ($Id: //depot/dev/client3/rdock/2013.1/src/exe/rbdock.cxx#4 $)

>  <Rbt.Library>
libRbt.so (2013.1, Build901 2013/11/27)

>  <Rbt.Parameter_File>
/export/apps/rDock/src/rDock_2013.1_src/data/scripts/dock_solv.prm

>  <Rbt.Receptor>
prm/pocket_docking_6.prm

>  <SCORE>
-9.3161

>  <SCORE.INTER>
-8.94132

>  <SCORE.INTER.CONST>
1

>  <SCORE.INTER.POLAR>
0

>  <SCORE.INTER.ROT>
3

>  <SCORE.INTER.SOLV>
19.3594

>  <SCORE.INTER.VDW>
-18.014

>  <SCORE.INTER.norm>
-0.406424

>  <SCORE.INTRA>
-0.374784

>  <SCORE.INTRA.DIHEDRAL>
-2.50752

>  <SCORE.INTRA.DIHEDRAL.0>
6.10773

>  <SCORE.INTRA.POLAR>
0

>  <SCORE.INTRA.POLAR.0>
0

>  <SCORE.INTRA.REPUL>
0

>  <SCORE.INTRA.REPUL.0>
0

>  <SCORE.INTRA.SOLV>
1.47246

>  <SCORE.INTRA.SOLV.lig_0>
-71.4024

>  <SCORE.INTRA.VDW>
0.142744

>  <SCORE.INTRA.VDW.0>
-1.86213

>  <SCORE.INTRA.norm>
-0.0170356

>  <SCORE.RESTR>
0

>  <SCORE.RESTR.CAVITY>
0

>  <SCORE.RESTR.norm>
0

>  <SCORE.SYSTEM>
0

>  <SCORE.SYSTEM.CONST>
0

>  <SCORE.SYSTEM.DIHEDRAL>
0

>  <SCORE.SYSTEM.SOLV>
0

>  <SCORE.SYSTEM.norm>
0

>  <SCORE.heavy>
22

>  <SCORE.norm>
-0.423459

>  <RMSD>
6.449

$$$$
lig.pdb
 OpenBabel11021811523D
libRbt.so/2013.1/901 2013/11/27
 22 23  0  0  0  0  0  0  0  0999 V2000
   -4.5476    2.0994    1.3206 C   0  0  1  0  0  0  0  0  0  0  0  0
   -5.2832   -0.3157    1.4519 C   0  0  1  0  0  0  0  0  0  0  0  0
   -6.5367   -0.1673    0.4804 C   0  0  1  0  0  0  0  0  0  0  0  0
   -6.8714   -1.6104   -0.1117 C   0  0  2  0  0  0  0  0  0  0  0  0
   -3.9762    3.1783    2.3204 C   0  0  1  0  0  0  0  0  0  0  0  0
   -5.1070    3.5749    3.2901 C   0  0  2  0  0  0  0  0  0  0  0  0
   -6.2899    4.1980    2.5279 C   0  0  2  0  0  0  0  0  0  0  0  0
   -6.8915    3.1864    1.4853 C   0  0  1  0  0  0  0  0  0  0  0  0
   -8.0520    3.8308    0.6735 C   0  0  0  0  0  0  0  0  0  0  0  0
   -5.6135   -2.1321   -0.9765 C   0  0  1  0  0  0  0  0  0  0  0  0
   -4.3684   -2.2676    0.0359 C   0  0  0  0  0  0  0  0  0  0  0  0
   -4.0350   -0.8412    0.6739 C   0  0  2  0  0  0  0  0  0  0  0  0
   -5.8516    5.4071    1.8215 F   0  0  0  0  0  0  0  0  0  0  0  0
   -2.8007    2.5589    3.0471 N   0  0  0  0  0  0  0  0  0  0  0  0
   -9.1482    4.2698    1.4508 N   0  0  0  0  0  0  0  0  0  0  0  0
   -5.8754   -3.4994   -1.5427 N   0  0  0  0  0  0  0  0  0  0  0  0
   -2.8936   -0.9729    1.6025 N   0  0  0  0  0  0  0  0  0  0  0  0
   -4.9373    0.9472    2.0000 O   0  0  0  0  0  0  0  0  0  0  0  0
   -7.6821    0.3194    1.2850 O   0  0  0  0  0  0  0  0  0  0  0  0
   -7.9771   -1.4554   -0.9511 O   0  0  0  0  0  0  0  0  0  0  0  0
   -4.6890    4.3629    4.0165 O   0  0  0  0  0  0  0  0  0  0  0  0
   -5.7270    2.7322    0.5866 O   0  0  0  0  0  0  0  0  0  0  0  0
  1  5  1  0  0  0  0
  1 18  1  1  0  0  0
  2 18  1  6  0  0  0
  2  3  1  0  0  0  0
  2 12  1  0  0  0  0
  3 19  1  1  0  0  0
  3  4  1  0  0  0  0
  4 20  1  6  0  0  0
  4 10  1  0  0  0  0
  5  6  1  0  0  0  0
  5 14  1  1  0  0  0
  6 21  1  1  0  0  0
  7 13  1  6  0  0  0
  7  6  1  0  0  0  0
  8  9  1  6  0  0  0
  8  7  1  0  0  0  0
 10 16  1  1  0  0  0
 11 10  1  0  0  0  0
 12 17  1  1  0  0  0
 12 11  1  0  0  0  0
 15  9  1  0  0  0  0
 22  8  1  0  0  0  0
 22  1  1  0  0  0  0
M  END
>  <CHROM.1>
-168.42620417,-60.31831029,-60.12212879,-5.71331714,1.32021849,1.21823336
-1.58394662,0.38580751,-2.72212210

>  <Name>
lig.pdb

>  <RI>
0

>  <Rbt.Current_Directory>
/home/itssahil/PROJECTS/Mol_Feturizer/New_Systems/rnas/5bws

>  <Rbt.Executable>
rbdock ($Id: //depot/dev/client3/rdock/2013.1/src/exe/rbdock.cxx#4 $)

>  <Rbt.Library>
libRbt.so (2013.1, Build901 2013/11/27)

>  <Rbt.Parameter_File>
/export/apps/rDock/src/rDock_2013.1_src/data/scripts/dock_solv.prm

>  <Rbt.Receptor>
prm/pocket_docking_7.prm

>  <SCORE>
-9.55076

>  <SCORE.INTER>
-7.25851

>  <SCORE.INTER.CONST>
1

>  <SCORE.INTER.POLAR>
0

>  <SCORE.INTER.ROT>
3

>  <SCORE.INTER.SOLV>
15.0908

>  <SCORE.INTER.VDW>
-15.4693

>  <SCORE.INTER.norm>
-0.329932

>  <SCORE.INTRA>
-2.29225

>  <SCORE.INTRA.DIHEDRAL>
-5.46354

>  <SCORE.INTRA.DIHEDRAL.0>
6.10773

>  <SCORE.INTRA.POLAR>
0

>  <SCORE.INTRA.POLAR.0>
0

>  <SCORE.INTRA.REPUL>
0

>  <SCORE.INTRA.REPUL.0>
0

>  <SCORE.INTRA.SOLV>
0.637103

>  <SCORE.INTRA.SOLV.lig_0>
-71.4024

>  <SCORE.INTRA.VDW>
0.120962

>  <SCORE.INTRA.VDW.0>
-1.86213

>  <SCORE.INTRA.norm>
-0.104193

>  <SCORE.RESTR>
0

>  <SCORE.RESTR.CAVITY>
0

>  <SCORE.RESTR.norm>
0

>  <SCORE.SYSTEM>
0

>  <SCORE.SYSTEM.CONST>
0

>  <SCORE.SYSTEM.DIHEDRAL>
0

>  <SCORE.SYSTEM.SOLV>
0

>  <SCORE.SYSTEM.norm>
0

>  <SCORE.heavy>
22

>  <SCORE.norm>
-0.434126

>  <RMSD>
6.457

$$$$
lig.pdb
 OpenBabel11021811523D
libRbt.so/2013.1/901 2013/11/27
 22 23  0  0  0  0  0  0  0  0999 V2000
   -7.8243   -1.1044    1.0170 C   0  0  1  0  0  0  0  0  0  0  0  0
   -7.2199   -3.0241   -0.5130 C   0  0  1  0  0  0  0  0  0  0  0  0
   -8.4034   -4.0138   -0.1171 C   0  0  1  0  0  0  0  0  0  0  0  0
   -7.9385   -5.4990   -0.4682 C   0  0  2  0  0  0  0  0  0  0  0  0
   -8.2683    0.4021    0.8643 C   0  0  1  0  0  0  0  0  0  0  0  0
   -7.1078    1.1764    0.2085 C   0  0  2  0  0  0  0  0  0  0  0  0
   -5.8484    1.1289    1.0916 C   0  0  2  0  0  0  0  0  0  0  0  0
   -5.3654   -0.3507    1.3153 C   0  0  1  0  0  0  0  0  0  0  0  0
   -4.1251   -0.4075    2.2529 C   0  0  0  0  0  0  0  0  0  0  0  0
   -7.6873   -5.6127   -2.0576 C   0  0  1  0  0  0  0  0  0  0  0  0
   -6.4891   -4.5994   -2.4198 C   0  0  0  0  0  0  0  0  0  0  0  0
   -6.9137   -3.1061   -2.0424 C   0  0  2  0  0  0  0  0  0  0  0  0
   -6.1253    1.7427    2.3954 F   0  0  0  0  0  0  0  0  0  0  0  0
   -9.5196    0.4314    0.0116 N   0  0  0  0  0  0  0  0  0  0  0  0
   -2.9859    0.2783    1.7728 N   0  0  0  0  0  0  0  0  0  0  0  0
   -7.2300   -6.9934   -2.4360 N   0  0  0  0  0  0  0  0  0  0  0  0
   -5.8100   -2.1824   -2.3754 N   0  0  0  0  0  0  0  0  0  0  0  0
   -7.5881   -1.6830   -0.2282 O   0  0  0  0  0  0  0  0  0  0  0  0
   -8.6289   -3.8940    1.3428 O   0  0  0  0  0  0  0  0  0  0  0  0
   -8.9873   -6.3466   -0.1039 O   0  0  0  0  0  0  0  0  0  0  0  0
   -7.4328    2.2746    0.1002 O   0  0  0  0  0  0  0  0  0  0  0  0
   -6.5674   -1.1274    1.8829 O   0  0  0  0  0  0  0  0  0  0  0  0
  1  5  1  0  0  0  0
  1 18  1  6  0  0  0
  2 18  1  6  0  0  0
  2  3  1  0  0  0  0
  2 12  1  0  0  0  0
  3 19  1  1  0  0  0
  3  4  1  0  0  0  0
  4 20  1  6  0  0  0
  4 10  1  0  0  0  0
  5  6  1  0  0  0  0
  5 14  1  6  0  0  0
  6 21  1  1  0  0  0
  7 13  1  1  0  0  0
  7  6  1  0  0  0  0
  8  9  1  1  0  0  0
  8  7  1  0  0  0  0
 10 16  1  1  0  0  0
 11 10  1  0  0  0  0
 12 17  1  1  0  0  0
 12 11  1  0  0  0  0
 15  9  1  0  0  0  0
 22  8  1  0  0  0  0
 22  1  1  0  0  0  0
M  END
>  <CHROM.1>
-177.63831006,65.90199302,-60.92730402,-7.00743911,-1.87874747,0.12620588
1.33212776,-0.06627247,0.37811240

>  <Name>
lig.pdb

>  <RI>
0

>  <Rbt.Current_Directory>
/home/itssahil/PROJECTS/Mol_Feturizer/New_Systems/rnas/5bws

>  <Rbt.Executable>
rbdock ($Id: //depot/dev/client3/rdock/2013.1/src/exe/rbdock.cxx#4 $)

>  <Rbt.Library>
libRbt.so (2013.1, Build901 2013/11/27)

>  <Rbt.Parameter_File>
/export/apps/rDock/src/rDock_2013.1_src/data/scripts/dock_solv.prm

>  <Rbt.Receptor>
prm/pocket_docking_5.prm

>  <SCORE>
-11.8393

>  <SCORE.INTER>
-8.75054

>  <SCORE.INTER.CONST>
1

>  <SCORE.INTER.POLAR>
0

>  <SCORE.INTER.ROT>
3

>  <SCORE.INTER.SOLV>
18.1882

>  <SCORE.INTER.VDW>
-17.4964

>  <SCORE.INTER.norm>
-0.397752

>  <SCORE.INTRA>
-3.08873

>  <SCORE.INTRA.DIHEDRAL>
-5.90394

>  <SCORE.INTRA.DIHEDRAL.0>
6.10773

>  <SCORE.INTRA.POLAR>
0

>  <SCORE.INTRA.POLAR.0>
0

>  <SCORE.INTRA.REPUL>
0

>  <SCORE.INTRA.REPUL.0>
0

>  <SCORE.INTRA.SOLV>
-1.01277

>  <SCORE.INTRA.SOLV.lig_0>
-71.4024

>  <SCORE.INTRA.VDW>
0.369628

>  <SCORE.INTRA.VDW.0>
-1.86213

>  <SCORE.INTRA.norm>
-0.140397

>  <SCORE.RESTR>
0

>  <SCORE.RESTR.CAVITY>
0

>  <SCORE.RESTR.norm>
0

>  <SCORE.SYSTEM>
0

>  <SCORE.SYSTEM.CONST>
0

>  <SCORE.SYSTEM.DIHEDRAL>
0

>  <SCORE.SYSTEM.SOLV>
0

>  <SCORE.SYSTEM.norm>
0

>  <SCORE.heavy>
22

>  <SCORE.norm>
-0.538148

>  <RMSD>
6.461

$$$$
lig.pdb
 OpenBabel11021811523D
libRbt.so/2013.1/901 2013/11/27
 22 23  0  0  0  0  0  0  0  0999 V2000
   -6.6640    1.6819    0.6531 C   0  0  1  0  0  0  0  0  0  0  0  0
   -6.7894   -0.7845    1.1937 C   0  0  1  0  0  0  0  0  0  0  0  0
   -8.2996   -0.9966    0.7342 C   0  0  1  0  0  0  0  0  0  0  0  0
   -8.4954   -2.5426    0.3922 C   0  0  2  0  0  0  0  0  0  0  0  0
   -6.1498    2.9939    1.3633 C   0  0  1  0  0  0  0  0  0  0  0  0
   -7.0564    3.2628    2.5807 C   0  0  2  0  0  0  0  0  0  0  0  0
   -8.5136    3.4887    2.1403 C   0  0  2  0  0  0  0  0  0  0  0  0
   -9.0842    2.2287    1.3926 C   0  0  1  0  0  0  0  0  0  0  0  0
  -10.5386    2.4731    0.8968 C   0  0  0  0  0  0  0  0  0  0  0  0
   -7.5272   -2.9392   -0.8356 C   0  0  1  0  0  0  0  0  0  0  0  0
   -6.0134   -2.7106   -0.3359 C   0  0  0  0  0  0  0  0  0  0  0  0
   -5.7996   -1.1750    0.0504 C   0  0  2  0  0  0  0  0  0  0  0  0
   -8.5944    4.6505    1.2476 F   0  0  0  0  0  0  0  0  0  0  0  0
   -4.7096    2.7647    1.7716 N   0  0  0  0  0  0  0  0  0  0  0  0
  -10.6589    3.4171   -0.1486 N   0  0  0  0  0  0  0  0  0  0  0  0
   -7.6638   -4.3947   -1.1845 N   0  0  0  0  0  0  0  0  0  0  0  0
   -4.4101   -0.9727    0.5094 N   0  0  0  0  0  0  0  0  0  0  0  0
   -6.5594    0.5820    1.5018 O   0  0  0  0  0  0  0  0  0  0  0  0
   -9.1780   -0.6217    1.8675 O   0  0  0  0  0  0  0  0  0  0  0  0
   -9.8268   -2.7038    0.0019 O   0  0  0  0  0  0  0  0  0  0  0  0
   -6.6812    4.2206    3.0956 O   0  0  0  0  0  0  0  0  0  0  0  0
   -8.1132    1.9221    0.2379 O   0  0  0  0  0  0  0  0  0  0  0  0
  1  5  1  0  0  0  0
  1 18  1  1  0  0  0
  2 18  1  6  0  0  0
  2  3  1  0  0  0  0
  2 12  1  0  0  0  0
  3 19  1  1  0  0  0
  3  4  1  0  0  0  0
  4 20  1  6  0  0  0
  4 10  1  0  0  0  0
  5  6  1  0  0  0  0
  5 14  1  1  0  0  0
  6 21  1  6  0  0  0
  7 13  1  6  0  0  0
  7  6  1  0  0  0  0
  8  9  1  6  0  0  0
  8  7  1  0  0  0  0
 10 16  1  1  0  0  0
 11 10  1  0  0  0  0
 12 17  1  1  0  0  0
 12 11  1  0  0  0  0
 15  9  1  0  0  0  0
 22  8  1  0  0  0  0
 22  1  1  0  0  0  0
M  END
>  <CHROM.1>
-173.10547793,-61.43329105,68.77623107,-7.64171055,0.69827432,0.88725332
-1.64064368,0.14312422,-2.84650247

>  <Name>
lig.pdb

>  <RI>
0

>  <Rbt.Current_Directory>
/home/itssahil/PROJECTS/Mol_Feturizer/New_Systems/rnas/5bws

>  <Rbt.Executable>
rbdock ($Id: //depot/dev/client3/rdock/2013.1/src/exe/rbdock.cxx#4 $)

>  <Rbt.Library>
libRbt.so (2013.1, Build901 2013/11/27)

>  <Rbt.Parameter_File>
/export/apps/rDock/src/rDock_2013.1_src/data/scripts/dock_solv.prm

>  <Rbt.Receptor>
prm/pocket_docking_6.prm

>  <SCORE>
-8.47926

>  <SCORE.INTER>
-6.49356

>  <SCORE.INTER.CONST>
1

>  <SCORE.INTER.POLAR>
0

>  <SCORE.INTER.ROT>
3

>  <SCORE.INTER.SOLV>
13.2938

>  <SCORE.INTER.VDW>
-14.3603

>  <SCORE.INTER.norm>
-0.295162

>  <SCORE.INTRA>
-1.9857

>  <SCORE.INTRA.DIHEDRAL>
-5.58983

>  <SCORE.INTRA.DIHEDRAL.0>
6.10773

>  <SCORE.INTRA.POLAR>
0

>  <SCORE.INTRA.POLAR.0>
0

>  <SCORE.INTRA.REPUL>
0

>  <SCORE.INTRA.REPUL.0>
0

>  <SCORE.INTRA.SOLV>
1.42963

>  <SCORE.INTRA.SOLV.lig_0>
-71.4024

>  <SCORE.INTRA.VDW>
0.0944021

>  <SCORE.INTRA.VDW.0>
-1.86213

>  <SCORE.INTRA.norm>
-0.0902591

>  <SCORE.RESTR>
0

>  <SCORE.RESTR.CAVITY>
0

>  <SCORE.RESTR.norm>
0

>  <SCORE.SYSTEM>
0

>  <SCORE.SYSTEM.CONST>
0

>  <SCORE.SYSTEM.DIHEDRAL>
0

>  <SCORE.SYSTEM.SOLV>
0

>  <SCORE.SYSTEM.norm>
0

>  <SCORE.heavy>
22

>  <SCORE.norm>
-0.385421

>  <RMSD>
6.487

$$$$
lig.pdb
 OpenBabel11021811523D
libRbt.so/2013.1/901 2013/11/27
 22 23  0  0  0  0  0  0  0  0999 V2000
   -4.5505    2.1446    1.3583 C   0  0  1  0  0  0  0  0  0  0  0  0
   -5.3375   -0.2535    1.5027 C   0  0  1  0  0  0  0  0  0  0  0  0
   -6.6419   -0.0724    0.6068 C   0  0  1  0  0  0  0  0  0  0  0  0
   -7.0343   -1.5022    0.0177 C   0  0  2  0  0  0  0  0  0  0  0  0
   -3.9629    3.2232    2.3491 C   0  0  1  0  0  0  0  0  0  0  0  0
   -5.0814    3.6287    3.3292 C   0  0  2  0  0  0  0  0  0  0  0  0
   -6.2687    4.2562    2.5775 C   0  0  2  0  0  0  0  0  0  0  0  0
   -6.8866    3.2450    1.5441 C   0  0  1  0  0  0  0  0  0  0  0  0
   -8.0519    3.8935    0.7426 C   0  0  0  0  0  0  0  0  0  0  0  0
   -5.8371   -2.0328   -0.9241 C   0  0  1  0  0  0  0  0  0  0  0  0
   -4.5384   -2.2015    0.0133 C   0  0  0  0  0  0  0  0  0  0  0  0
   -4.1450   -0.7890    0.6480 C   0  0  2  0  0  0  0  0  0  0  0  0
   -5.8311    5.4609    1.8631 F   0  0  0  0  0  0  0  0  0  0  0  0
   -2.7834    2.5993    3.0653 N   0  0  0  0  0  0  0  0  0  0  0  0
   -9.1377    4.3405    1.5298 N   0  0  0  0  0  0  0  0  0  0  0  0
   -6.1540   -3.3884   -1.4906 N   0  0  0  0  0  0  0  0  0  0  0  0
   -2.9546   -0.9511    1.5077 N   0  0  0  0  0  0  0  0  0  0  0  0
   -4.9395    0.9965    2.0450 O   0  0  0  0  0  0  0  0  0  0  0  0
   -7.7310    0.4224    1.4817 O   0  0  0  0  0  0  0  0  0  0  0  0
   -8.1836   -1.3185   -0.7547 O   0  0  0  0  0  0  0  0  0  0  0  0
   -4.6515    4.4165    4.0490 O   0  0  0  0  0  0  0  0  0  0  0  0
   -5.7339    2.7819    0.6348 O   0  0  0  0  0  0  0  0  0  0  0  0
  1  5  1  0  0  0  0
  1 18  1  1  0  0  0
  2 18  1  6  0  0  0
  2  3  1  0  0  0  0
  2 12  1  0  0  0  0
  3 19  1  1  0  0  0
  3  4  1  0  0  0  0
  4 20  1  6  0  0  0
  4 10  1  0  0  0  0
  5  6  1  0  0  0  0
  5 14  1  1  0  0  0
  6 21  1  1  0  0  0
  7 13  1  6  0  0  0
  7  6  1  0  0  0  0
  8  9  1  6  0  0  0
  8  7  1  0  0  0  0
 10 16  1  1  0  0  0
 11 10  1  0  0  0  0
 12 17  1  1  0  0  0
 12 11  1  0  0  0  0
 15  9  1  0  0  0  0
 22  8  1  0  0  0  0
 22  1  1  0  0  0  0
M  END
>  <CHROM.1>
-170.55145852,-61.38591193,-60.12967146,-5.76989179,1.38836544,1.27449583
-1.54617543,0.36349229,-2.73372045

>  <Name>
lig.pdb

>  <RI>
0

>  <Rbt.Current_Directory>
/home/itssahil/PROJECTS/Mol_Feturizer/New_Systems/rnas/5bws

>  <Rbt.Executable>
rbdock ($Id: //depot/dev/client3/rdock/2013.1/src/exe/rbdock.cxx#4 $)

>  <Rbt.Library>
libRbt.so (2013.1, Build901 2013/11/27)

>  <Rbt.Parameter_File>
/export/apps/rDock/src/rDock_2013.1_src/data/scripts/dock_solv.prm

>  <Rbt.Receptor>
prm/pocket_docking_7.prm

>  <SCORE>
-9.63218

>  <SCORE.INTER>
-7.22404

>  <SCORE.INTER.CONST>
1

>  <SCORE.INTER.POLAR>
0

>  <SCORE.INTER.ROT>
3

>  <SCORE.INTER.SOLV>
15.1552

>  <SCORE.INTER.VDW>
-15.4677

>  <SCORE.INTER.norm>
-0.328365

>  <SCORE.INTRA>
-2.40814

>  <SCORE.INTRA.DIHEDRAL>
-5.66393

>  <SCORE.INTRA.DIHEDRAL.0>
6.10773

>  <SCORE.INTRA.POLAR>
0

>  <SCORE.INTRA.POLAR.0>
0

>  <SCORE.INTRA.REPUL>
0

>  <SCORE.INTRA.REPUL.0>
0

>  <SCORE.INTRA.SOLV>
0.568195

>  <SCORE.INTRA.SOLV.lig_0>
-71.4024

>  <SCORE.INTRA.VDW>
0.139724

>  <SCORE.INTRA.VDW.0>
-1.86213

>  <SCORE.INTRA.norm>
-0.109461

>  <SCORE.RESTR>
0

>  <SCORE.RESTR.CAVITY>
0

>  <SCORE.RESTR.norm>
0

>  <SCORE.SYSTEM>
0

>  <SCORE.SYSTEM.CONST>
0

>  <SCORE.SYSTEM.DIHEDRAL>
0

>  <SCORE.SYSTEM.SOLV>
0

>  <SCORE.SYSTEM.norm>
0

>  <SCORE.heavy>
22

>  <SCORE.norm>
-0.437826

>  <RMSD>
6.500

$$$$
lig.pdb
 OpenBabel11021811523D
libRbt.so/2013.1/901 2013/11/27
 22 23  0  0  0  0  0  0  0  0999 V2000
   -7.6077   -1.1609    1.0182 C   0  0  1  0  0  0  0  0  0  0  0  0
   -7.2067   -3.1115   -0.5393 C   0  0  1  0  0  0  0  0  0  0  0  0
   -8.3423   -4.1445   -0.1148 C   0  0  1  0  0  0  0  0  0  0  0  0
   -7.8406   -5.6095   -0.4986 C   0  0  2  0  0  0  0  0  0  0  0  0
   -8.4239    0.1889    0.9725 C   0  0  1  0  0  0  0  0  0  0  0  0
   -7.7222    1.1362   -0.0208 C   0  0  2  0  0  0  0  0  0  0  0  0
   -6.2885    1.4515    0.4412 C   0  0  2  0  0  0  0  0  0  0  0  0
   -5.4223    0.1432    0.5422 C   0  0  1  0  0  0  0  0  0  0  0  0
   -3.9883    0.4503    1.0621 C   0  0  0  0  0  0  0  0  0  0  0  0
   -7.6406   -5.6981   -2.0969 C   0  0  1  0  0  0  0  0  0  0  0  0
   -6.4899   -4.6414   -2.4879 C   0  0  0  0  0  0  0  0  0  0  0  0
   -6.9506   -3.1672   -2.0790 C   0  0  2  0  0  0  0  0  0  0  0  0
   -6.3162    2.1078    1.7533 F   0  0  0  0  0  0  0  0  0  0  0  0
   -9.8368   -0.1394    0.5375 N   0  0  0  0  0  0  0  0  0  0  0  0
   -3.9346    1.0181    2.3556 N   0  0  0  0  0  0  0  0  0  0  0  0
   -7.1509   -7.0587   -2.5066 N   0  0  0  0  0  0  0  0  0  0  0  0
   -5.8904   -2.2035   -2.4387 N   0  0  0  0  0  0  0  0  0  0  0  0
   -7.6093   -1.7866   -0.2266 O   0  0  0  0  0  0  0  0  0  0  0  0
   -8.5213   -4.0476    1.3532 O   0  0  0  0  0  0  0  0  0  0  0  0
   -8.8475   -6.4956   -0.1088 O   0  0  0  0  0  0  0  0  0  0  0  0
   -8.3175    2.1201   -0.0508 O   0  0  0  0  0  0  0  0  0  0  0  0
   -6.1872   -0.8239    1.4640 O   0  0  0  0  0  0  0  0  0  0  0  0
  1  5  1  0  0  0  0
  1 18  1  6  0  0  0
  2 18  1  6  0  0  0
  2  3  1  0  0  0  0
  2 12  1  0  0  0  0
  3 19  1  1  0  0  0
  3  4  1  0  0  0  0
  4 20  1  6  0  0  0
  4 10  1  0  0  0  0
  5  6  1  0  0  0  0
  5 14  1  6  0  0  0
  6 21  1  1  0  0  0
  7 13  1  1  0  0  0
  7  6  1  0  0  0  0
  8  9  1  1  0  0  0
  8  7  1  0  0  0  0
 10 16  1  1  0  0  0
 11 10  1  0  0  0  0
 12 17  1  1  0  0  0
 12 11  1  0  0  0  0
 15  9  1  0  0  0  0
 22  8  1  0  0  0  0
 22  1  1  0  0  0  0
M  END
>  <CHROM.1>
-167.48592951,77.66694668,61.14324981,-7.11988391,-1.82822252,-0.02382073
1.37863111,0.19474609,0.37681510

>  <Name>
lig.pdb

>  <RI>
0

>  <Rbt.Current_Directory>
/home/itssahil/PROJECTS/Mol_Feturizer/New_Systems/rnas/5bws

>  <Rbt.Executable>
rbdock ($Id: //depot/dev/client3/rdock/2013.1/src/exe/rbdock.cxx#4 $)

>  <Rbt.Library>
libRbt.so (2013.1, Build901 2013/11/27)

>  <Rbt.Parameter_File>
/export/apps/rDock/src/rDock_2013.1_src/data/scripts/dock_solv.prm

>  <Rbt.Receptor>
prm/pocket_docking_8.prm

>  <SCORE>
-8.94999

>  <SCORE.INTER>
-7.45357

>  <SCORE.INTER.CONST>
1

>  <SCORE.INTER.POLAR>
0

>  <SCORE.INTER.ROT>
3

>  <SCORE.INTER.SOLV>
17.9069

>  <SCORE.INTER.VDW>
-16.538

>  <SCORE.INTER.norm>
-0.338799

>  <SCORE.INTRA>
-1.49642

>  <SCORE.INTRA.DIHEDRAL>
-3.92227

>  <SCORE.INTRA.DIHEDRAL.0>
6.10773

>  <SCORE.INTRA.POLAR>
0

>  <SCORE.INTRA.POLAR.0>
0

>  <SCORE.INTRA.REPUL>
0

>  <SCORE.INTRA.REPUL.0>
0

>  <SCORE.INTRA.SOLV>
0.687831

>  <SCORE.INTRA.SOLV.lig_0>
-71.4024

>  <SCORE.INTRA.VDW>
0.120799

>  <SCORE.INTRA.VDW.0>
-1.86213

>  <SCORE.INTRA.norm>
-0.0680192

>  <SCORE.RESTR>
0

>  <SCORE.RESTR.CAVITY>
0

>  <SCORE.RESTR.norm>
0

>  <SCORE.SYSTEM>
0

>  <SCORE.SYSTEM.CONST>
0

>  <SCORE.SYSTEM.DIHEDRAL>
0

>  <SCORE.SYSTEM.SOLV>
0

>  <SCORE.SYSTEM.norm>
0

>  <SCORE.heavy>
22

>  <SCORE.norm>
-0.406818

>  <RMSD>
6.503

$$$$
lig.pdb
 OpenBabel11021811523D
libRbt.so/2013.1/901 2013/11/27
 22 23  0  0  0  0  0  0  0  0999 V2000
   -4.4930   -0.9210    0.0959 C   0  0  1  0  0  0  0  0  0  0  0  0
   -6.3731   -2.5427   -0.3800 C   0  0  1  0  0  0  0  0  0  0  0  0
   -5.4611   -3.7732   -0.8172 C   0  0  1  0  0  0  0  0  0  0  0  0
   -6.3484   -4.7444   -1.7199 C   0  0  2  0  0  0  0  0  0  0  0  0
   -3.9633   -0.0923    1.3300 C   0  0  1  0  0  0  0  0  0  0  0  0
   -5.0564    0.9187    1.7291 C   0  0  2  0  0  0  0  0  0  0  0  0
   -5.3465    1.8965    0.5765 C   0  0  2  0  0  0  0  0  0  0  0  0
   -5.8493    1.1344   -0.7036 C   0  0  1  0  0  0  0  0  0  0  0  0
   -6.0909    2.1131   -1.8887 C   0  0  0  0  0  0  0  0  0  0  0  0
   -7.5783   -5.3068   -0.8407 C   0  0  1  0  0  0  0  0  0  0  0  0
   -8.4743   -4.0376   -0.4163 C   0  0  0  0  0  0  0  0  0  0  0  0
   -7.5982   -3.0278    0.4585 C   0  0  2  0  0  0  0  0  0  0  0  0
   -4.1329    2.6487    0.2381 F   0  0  0  0  0  0  0  0  0  0  0  0
   -3.6621   -1.0686    2.4478 N   0  0  0  0  0  0  0  0  0  0  0  0
   -7.0859    3.0905   -1.6583 N   0  0  0  0  0  0  0  0  0  0  0  0
   -8.4550   -6.2160   -1.6552 N   0  0  0  0  0  0  0  0  0  0  0  0
   -8.4252   -1.8657    0.8428 N   0  0  0  0  0  0  0  0  0  0  0  0
   -5.6306   -1.6497    0.4363 O   0  0  0  0  0  0  0  0  0  0  0  0
   -4.3319   -3.2425   -1.6170 O   0  0  0  0  0  0  0  0  0  0  0  0
   -5.5253   -5.8080   -2.0973 O   0  0  0  0  0  0  0  0  0  0  0  0
   -4.6673    1.5232    2.6272 O   0  0  0  0  0  0  0  0  0  0  0  0
   -4.7878    0.0679   -1.0290 O   0  0  0  0  0  0  0  0  0  0  0  0
  1  5  1  0  0  0  0
  1 18  1  1  0  0  0
  2 18  1  1  0  0  0
  2  3  1  0  0  0  0
  2 12  1  0  0  0  0
  3 19  1  6  0  0  0
  3  4  1  0  0  0  0
  4 20  1  1  0  0  0
  4 10  1  0  0  0  0
  5  6  1  0  0  0  0
  5 14  1  1  0  0  0
  6 21  1  1  0  0  0
  7 13  1  6  0  0  0
  7  6  1  0  0  0  0
  8  9  1  6  0  0  0
  8  7  1  0  0  0  0
 10 16  1  6  0  0  0
 11 10  1  0  0  0  0
 12 17  1  6  0  0  0
 12 11  1  0  0  0  0
 15  9  1  0  0  0  0
 22  8  1  0  0  0  0
 22  1  1  0  0  0  0
M  END
>  <CHROM.1>
-177.92727679,62.42417992,-62.04680062,-5.82526182,-1.34572396,-0.18686739
-1.19605666,0.70404601,3.12784544

>  <Name>
lig.pdb

>  <RI>
0

>  <Rbt.Current_Directory>
/home/itssahil/PROJECTS/Mol_Feturizer/New_Systems/rnas/5bws

>  <Rbt.Executable>
rbdock ($Id: //depot/dev/client3/rdock/2013.1/src/exe/rbdock.cxx#4 $)

>  <Rbt.Library>
libRbt.so (2013.1, Build901 2013/11/27)

>  <Rbt.Parameter_File>
/export/apps/rDock/src/rDock_2013.1_src/data/scripts/dock_solv.prm

>  <Rbt.Receptor>
prm/pocket_docking_4.prm

>  <SCORE>
-9.47867

>  <SCORE.INTER>
-6.34828

>  <SCORE.INTER.CONST>
1

>  <SCORE.INTER.POLAR>
0

>  <SCORE.INTER.ROT>
3

>  <SCORE.INTER.SOLV>
17.6012

>  <SCORE.INTER.VDW>
-15.6993

>  <SCORE.INTER.norm>
-0.288558

>  <SCORE.INTRA>
-3.1304

>  <SCORE.INTRA.DIHEDRAL>
-6.0396

>  <SCORE.INTRA.DIHEDRAL.0>
6.10773

>  <SCORE.INTRA.POLAR>
0

>  <SCORE.INTRA.POLAR.0>
0

>  <SCORE.INTRA.REPUL>
0

>  <SCORE.INTRA.REPUL.0>
0

>  <SCORE.INTRA.SOLV>
-1.12328

>  <SCORE.INTRA.SOLV.lig_0>
-71.4024

>  <SCORE.INTRA.VDW>
0.451047

>  <SCORE.INTRA.VDW.0>
-1.86213

>  <SCORE.INTRA.norm>
-0.142291

>  <SCORE.RESTR>
0

>  <SCORE.RESTR.CAVITY>
0

>  <SCORE.RESTR.norm>
0

>  <SCORE.SYSTEM>
0

>  <SCORE.SYSTEM.CONST>
0

>  <SCORE.SYSTEM.DIHEDRAL>
0

>  <SCORE.SYSTEM.SOLV>
0

>  <SCORE.SYSTEM.norm>
0

>  <SCORE.heavy>
22

>  <SCORE.norm>
-0.430849

>  <RMSD>
6.533

$$$$
lig.pdb
 OpenBabel11021811523D
libRbt.so/2013.1/901 2013/11/27
 22 23  0  0  0  0  0  0  0  0999 V2000
   -6.9027    2.4769    2.0052 C   0  0  1  0  0  0  0  0  0  0  0  0
   -6.6239    1.3308   -0.2309 C   0  0  1  0  0  0  0  0  0  0  0  0
   -5.3021    0.5327    0.1601 C   0  0  1  0  0  0  0  0  0  0  0  0
   -5.1817   -0.7239   -0.8154 C   0  0  2  0  0  0  0  0  0  0  0  0
   -7.3202    3.9103    2.5163 C   0  0  1  0  0  0  0  0  0  0  0  0
   -6.1982    4.8968    2.1363 C   0  0  2  0  0  0  0  0  0  0  0  0
   -4.8725    4.5072    2.8138 C   0  0  2  0  0  0  0  0  0  0  0  0
   -4.4098    3.0700    2.3750 C   0  0  1  0  0  0  0  0  0  0  0  0
   -3.0988    2.6495    3.0999 C   0  0  0  0  0  0  0  0  0  0  0  0
   -6.4505   -1.6937   -0.5875 C   0  0  1  0  0  0  0  0  0  0  0  0
   -7.7646   -0.8542   -0.9899 C   0  0  0  0  0  0  0  0  0  0  0  0
   -7.8896    0.4333   -0.0521 C   0  0  2  0  0  0  0  0  0  0  0  0
   -5.0268    4.5340    4.2728 F   0  0  0  0  0  0  0  0  0  0  0  0
   -8.6357    4.2710    1.8584 N   0  0  0  0  0  0  0  0  0  0  0  0
   -2.5955    1.3816    2.7290 N   0  0  0  0  0  0  0  0  0  0  0  0
   -6.3904   -2.8871   -1.4991 N   0  0  0  0  0  0  0  0  0  0  0  0
   -9.0955    1.1994   -0.4275 N   0  0  0  0  0  0  0  0  0  0  0  0
   -6.7833    2.4579    0.6172 O   0  0  0  0  0  0  0  0  0  0  0  0
   -4.1459    1.4366   -0.0463 O   0  0  0  0  0  0  0  0  0  0  0  0
   -4.0127   -1.4004   -0.4592 O   0  0  0  0  0  0  0  0  0  0  0  0
   -6.5036    5.9404    2.5117 O   0  0  0  0  0  0  0  0  0  0  0  0
   -5.5803    2.1167    2.6773 O   0  0  0  0  0  0  0  0  0  0  0  0
  1  5  1  0  0  0  0
  1 18  1  6  0  0  0
  2 18  1  1  0  0  0
  2  3  1  0  0  0  0
  2 12  1  0  0  0  0
  3 19  1  6  0  0  0
  3  4  1  0  0  0  0
  4 20  1  1  0  0  0
  4 10  1  0  0  0  0
  5  6  1  0  0  0  0
  5 14  1  6  0  0  0
  6 21  1  1  0  0  0
  7 13  1  1  0  0  0
  7  6  1  0  0  0  0
  8  9  1  1  0  0  0
  8  7  1  0  0  0  0
 10 16  1  6  0  0  0
 11 10  1  0  0  0  0
 12 17  1  6  0  0  0
 12 11  1  0  0  0  0
 15  9  1  0  0  0  0
 22  8  1  0  0  0  0
 22  1  1  0  0  0  0
M  END
>  <CHROM.1>
-169.78582251,-59.22054323,-178.25450956,-5.90751181,1.85033857,1.17220858
1.47969057,-0.31930256,0.56953755

>  <Name>
lig.pdb

>  <RI>
0

>  <Rbt.Current_Directory>
/home/itssahil/PROJECTS/Mol_Feturizer/New_Systems/rnas/5bws

>  <Rbt.Executable>
rbdock ($Id: //depot/dev/client3/rdock/2013.1/src/exe/rbdock.cxx#4 $)

>  <Rbt.Library>
libRbt.so (2013.1, Build901 2013/11/27)

>  <Rbt.Parameter_File>
/export/apps/rDock/src/rDock_2013.1_src/data/scripts/dock_solv.prm

>  <Rbt.Receptor>
prm/pocket_docking_7.prm

>  <SCORE>
-10.6691

>  <SCORE.INTER>
-8.48399

>  <SCORE.INTER.CONST>
1

>  <SCORE.INTER.POLAR>
0

>  <SCORE.INTER.ROT>
3

>  <SCORE.INTER.SOLV>
12.9287

>  <SCORE.INTER.VDW>
-15.5656

>  <SCORE.INTER.norm>
-0.385636

>  <SCORE.INTRA>
-2.1851

>  <SCORE.INTRA.DIHEDRAL>
-5.58858

>  <SCORE.INTRA.DIHEDRAL.0>
6.10773

>  <SCORE.INTRA.POLAR>
0

>  <SCORE.INTRA.POLAR.0>
0

>  <SCORE.INTRA.REPUL>
0

>  <SCORE.INTRA.REPUL.0>
0

>  <SCORE.INTRA.SOLV>
1.36008

>  <SCORE.INTRA.SOLV.lig_0>
-71.4024

>  <SCORE.INTRA.VDW>
-0.0708539

>  <SCORE.INTRA.VDW.0>
-1.86213

>  <SCORE.INTRA.norm>
-0.0993229

>  <SCORE.RESTR>
0

>  <SCORE.RESTR.CAVITY>
0

>  <SCORE.RESTR.norm>
0

>  <SCORE.SYSTEM>
0

>  <SCORE.SYSTEM.CONST>
0

>  <SCORE.SYSTEM.DIHEDRAL>
0

>  <SCORE.SYSTEM.SOLV>
0

>  <SCORE.SYSTEM.norm>
0

>  <SCORE.heavy>
22

>  <SCORE.norm>
-0.484959

>  <RMSD>
6.564

$$$$
lig.pdb
 OpenBabel11021811523D
libRbt.so/2013.1/901 2013/11/27
 22 23  0  0  0  0  0  0  0  0999 V2000
   -4.3496   -1.0515   -0.1756 C   0  0  1  0  0  0  0  0  0  0  0  0
   -6.2764   -2.6520   -0.5179 C   0  0  1  0  0  0  0  0  0  0  0  0
   -5.4317   -3.9128   -1.0015 C   0  0  1  0  0  0  0  0  0  0  0  0
   -6.4013   -4.8583   -1.8447 C   0  0  2  0  0  0  0  0  0  0  0  0
   -3.5745   -0.4372    1.0539 C   0  0  1  0  0  0  0  0  0  0  0  0
   -4.5227    0.5424    1.7733 C   0  0  2  0  0  0  0  0  0  0  0  0
   -4.9371    1.6918    0.8376 C   0  0  2  0  0  0  0  0  0  0  0  0
   -5.6892    1.1491   -0.4321 C   0  0  1  0  0  0  0  0  0  0  0  0
   -6.0612    2.3026   -1.4078 C   0  0  0  0  0  0  0  0  0  0  0  0
   -7.5943   -5.3777   -0.8911 C   0  0  1  0  0  0  0  0  0  0  0  0
   -8.4227   -4.0789   -0.4216 C   0  0  0  0  0  0  0  0  0  0  0  0
   -7.4644   -3.0946    0.3944 C   0  0  2  0  0  0  0  0  0  0  0  0
   -3.7514    2.4408    0.4060 F   0  0  0  0  0  0  0  0  0  0  0  0
   -3.1548   -1.5804    1.9541 N   0  0  0  0  0  0  0  0  0  0  0  0
   -6.8395    1.9109   -2.5211 N   0  0  0  0  0  0  0  0  0  0  0  0
   -8.5462   -6.2612   -1.6474 N   0  0  0  0  0  0  0  0  0  0  0  0
   -8.2298   -1.9051    0.8204 N   0  0  0  0  0  0  0  0  0  0  0  0
   -5.4588   -1.7804    0.2482 O   0  0  0  0  0  0  0  0  0  0  0  0
   -4.3356   -3.4215   -1.8695 O   0  0  0  0  0  0  0  0  0  0  0  0
   -5.6364   -5.9491   -2.2642 O   0  0  0  0  0  0  0  0  0  0  0  0
   -3.9549    0.9906    2.6678 O   0  0  0  0  0  0  0  0  0  0  0  0
   -4.7634    0.1049   -1.0821 O   0  0  0  0  0  0  0  0  0  0  0  0
  1  5  1  0  0  0  0
  1 18  1  1  0  0  0
  2 18  1  1  0  0  0
  2  3  1  0  0  0  0
  2 12  1  0  0  0  0
  3 19  1  6  0  0  0
  3  4  1  0  0  0  0
  4 20  1  1  0  0  0
  4 10  1  0  0  0  0
  5  6  1  0  0  0  0
  5 14  1  1  0  0  0
  6 21  1  1  0  0  0
  7 13  1  6  0  0  0
  7  6  1  0  0  0  0
  8  9  1  6  0  0  0
  8  7  1  0  0  0  0
 10 16  1  6  0  0  0
 11 10  1  0  0  0  0
 12 17  1  6  0  0  0
 12 11  1  0  0  0  0
 15  9  1  0  0  0  0
 22  8  1  0  0  0  0
 22  1  1  0  0  0  0
M  END
>  <CHROM.1>
-168.94752265,65.01648917,-174.91316496,-5.64367922,-1.54353288,-0.27048615
-1.10465944,0.67408046,3.10963408

>  <Name>
lig.pdb

>  <RI>
0

>  <Rbt.Current_Directory>
/home/itssahil/PROJECTS/Mol_Feturizer/New_Systems/rnas/5bws

>  <Rbt.Executable>
rbdock ($Id: //depot/dev/client3/rdock/2013.1/src/exe/rbdock.cxx#4 $)

>  <Rbt.Library>
libRbt.so (2013.1, Build901 2013/11/27)

>  <Rbt.Parameter_File>
/export/apps/rDock/src/rDock_2013.1_src/data/scripts/dock_solv.prm

>  <Rbt.Receptor>
prm/pocket_docking_4.prm

>  <SCORE>
-8.80516

>  <SCORE.INTER>
-5.73794

>  <SCORE.INTER.CONST>
1

>  <SCORE.INTER.POLAR>
0

>  <SCORE.INTER.ROT>
3

>  <SCORE.INTER.SOLV>
20.9012

>  <SCORE.INTER.VDW>
-16.3924

>  <SCORE.INTER.norm>
-0.260815

>  <SCORE.INTRA>
-3.06723

>  <SCORE.INTRA.DIHEDRAL>
-5.30291

>  <SCORE.INTRA.DIHEDRAL.0>
6.10773

>  <SCORE.INTRA.POLAR>
0

>  <SCORE.INTRA.POLAR.0>
0

>  <SCORE.INTRA.REPUL>
0

>  <SCORE.INTRA.REPUL.0>
0

>  <SCORE.INTRA.SOLV>
-1.55141

>  <SCORE.INTRA.SOLV.lig_0>
-71.4024

>  <SCORE.INTRA.VDW>
0.359931

>  <SCORE.INTRA.VDW.0>
-1.86213

>  <SCORE.INTRA.norm>
-0.139419

>  <SCORE.RESTR>
0

>  <SCORE.RESTR.CAVITY>
0

>  <SCORE.RESTR.norm>
0

>  <SCORE.SYSTEM>
0

>  <SCORE.SYSTEM.CONST>
0

>  <SCORE.SYSTEM.DIHEDRAL>
0

>  <SCORE.SYSTEM.SOLV>
0

>  <SCORE.SYSTEM.norm>
0

>  <SCORE.heavy>
22

>  <SCORE.norm>
-0.400235

>  <RMSD>
6.573

$$$$
lig.pdb
 OpenBabel11021811523D
libRbt.so/2013.1/901 2013/11/27
 22 23  0  0  0  0  0  0  0  0999 V2000
   -6.9352    0.6199   -0.5275 C   0  0  1  0  0  0  0  0  0  0  0  0
   -7.7250   -1.7759   -0.3623 C   0  0  1  0  0  0  0  0  0  0  0  0
   -6.6637   -2.4748   -1.3226 C   0  0  1  0  0  0  0  0  0  0  0  0
   -7.3102   -3.8290   -1.8645 C   0  0  2  0  0  0  0  0  0  0  0  0
   -6.2616    1.6843    0.4230 C   0  0  1  0  0  0  0  0  0  0  0  0
   -7.2572    2.0107    1.5537 C   0  0  2  0  0  0  0  0  0  0  0  0
   -8.5523    2.6179    0.9858 C   0  0  2  0  0  0  0  0  0  0  0  0
   -9.2638    1.6211   -0.0003 C   0  0  1  0  0  0  0  0  0  0  0  0
  -10.5442    2.2520   -0.6195 C   0  0  0  0  0  0  0  0  0  0  0  0
   -7.5982   -4.8129   -0.6190 C   0  0  1  0  0  0  0  0  0  0  0  0
   -8.6707   -4.0739    0.3282 C   0  0  0  0  0  0  0  0  0  0  0  0
   -8.0628   -2.6936    0.8556 C   0  0  2  0  0  0  0  0  0  0  0  0
   -8.2520    3.8636    0.2708 F   0  0  0  0  0  0  0  0  0  0  0  0
   -4.9789    1.0817    0.9568 N   0  0  0  0  0  0  0  0  0  0  0  0
  -11.2724    1.3966   -1.4777 N   0  0  0  0  0  0  0  0  0  0  0  0
   -8.2249   -6.0992   -1.0789 N   0  0  0  0  0  0  0  0  0  0  0  0
   -9.0519   -2.0203    1.7220 N   0  0  0  0  0  0  0  0  0  0  0  0
   -7.1929   -0.5663    0.1562 O   0  0  0  0  0  0  0  0  0  0  0  0
   -6.4025   -1.5581   -2.4574 O   0  0  0  0  0  0  0  0  0  0  0  0
   -6.3660   -4.4168   -2.7094 O   0  0  0  0  0  0  0  0  0  0  0  0
   -6.7651    2.7883    2.2439 O   0  0  0  0  0  0  0  0  0  0  0  0
   -8.2232    1.2361   -1.0675 O   0  0  0  0  0  0  0  0  0  0  0  0
  1  5  1  0  0  0  0
  1 18  1  1  0  0  0
  2 18  1  1  0  0  0
  2  3  1  0  0  0  0
  2 12  1  0  0  0  0
  3 19  1  6  0  0  0
  3  4  1  0  0  0  0
  4 20  1  6  0  0  0
  4 10  1  0  0  0  0
  5  6  1  0  0  0  0
  5 14  1  1  0  0  0
  6 21  1  1  0  0  0
  7 13  1  6  0  0  0
  7  6  1  0  0  0  0
  8  9  1  6  0  0  0
  8  7  1  0  0  0  0
 10 16  1  6  0  0  0
 11 10  1  0  0  0  0
 12 17  1  1  0  0  0
 12 11  1  0  0  0  0
 15  9  1  0  0  0  0
 22  8  1  0  0  0  0
 22  1  1  0  0  0  0
M  END
>  <CHROM.1>
-176.54449762,69.62537574,-177.54810555,-7.78800481,-0.52029152,-0.22346770
-1.66264111,0.22777372,-2.87788468

>  <Name>
lig.pdb

>  <RI>
0

>  <Rbt.Current_Directory>
/home/itssahil/PROJECTS/Mol_Feturizer/New_Systems/rnas/5bws

>  <Rbt.Executable>
rbdock ($Id: //depot/dev/client3/rdock/2013.1/src/exe/rbdock.cxx#4 $)

>  <Rbt.Library>
libRbt.so (2013.1, Build901 2013/11/27)

>  <Rbt.Parameter_File>
/export/apps/rDock/src/rDock_2013.1_src/data/scripts/dock_solv.prm

>  <Rbt.Receptor>
prm/pocket_docking_7.prm

>  <SCORE>
-10.7942

>  <SCORE.INTER>
-7.49192

>  <SCORE.INTER.CONST>
1

>  <SCORE.INTER.POLAR>
0

>  <SCORE.INTER.ROT>
3

>  <SCORE.INTER.SOLV>
17.8219

>  <SCORE.INTER.VDW>
-16.5352

>  <SCORE.INTER.norm>
-0.340542

>  <SCORE.INTRA>
-3.30225

>  <SCORE.INTRA.DIHEDRAL>
-5.57744

>  <SCORE.INTRA.DIHEDRAL.0>
6.10773

>  <SCORE.INTRA.POLAR>
0

>  <SCORE.INTRA.POLAR.0>
0

>  <SCORE.INTRA.REPUL>
0

>  <SCORE.INTRA.REPUL.0>
0

>  <SCORE.INTRA.SOLV>
-1.45866

>  <SCORE.INTRA.SOLV.lig_0>
-71.4024

>  <SCORE.INTRA.VDW>
0.215803

>  <SCORE.INTRA.VDW.0>
-1.86213

>  <SCORE.INTRA.norm>
-0.150102

>  <SCORE.RESTR>
0

>  <SCORE.RESTR.CAVITY>
0

>  <SCORE.RESTR.norm>
0

>  <SCORE.SYSTEM>
0

>  <SCORE.SYSTEM.CONST>
0

>  <SCORE.SYSTEM.DIHEDRAL>
0

>  <SCORE.SYSTEM.SOLV>
0

>  <SCORE.SYSTEM.norm>
0

>  <SCORE.heavy>
22

>  <SCORE.norm>
-0.490644

>  <RMSD>
6.586

$$$$
lig.pdb
 OpenBabel11021811523D
libRbt.so/2013.1/901 2013/11/27
 22 23  0  0  0  0  0  0  0  0999 V2000
   -6.8273    0.5069   -0.5428 C   0  0  1  0  0  0  0  0  0  0  0  0
   -7.6761   -1.8695   -0.3901 C   0  0  1  0  0  0  0  0  0  0  0  0
   -6.6302   -2.5926   -1.3494 C   0  0  1  0  0  0  0  0  0  0  0  0
   -7.3101   -3.9274   -1.8984 C   0  0  2  0  0  0  0  0  0  0  0  0
   -6.0995    1.5377    0.4048 C   0  0  1  0  0  0  0  0  0  0  0  0
   -7.0625    1.8877    1.5564 C   0  0  2  0  0  0  0  0  0  0  0  0
   -8.3455    2.5455    1.0181 C   0  0  2  0  0  0  0  0  0  0  0  0
   -9.1093    1.5840    0.0361 C   0  0  1  0  0  0  0  0  0  0  0  0
  -10.3776    2.2654   -0.5536 C   0  0  0  0  0  0  0  0  0  0  0  0
   -7.6283   -4.9078   -0.6576 C   0  0  1  0  0  0  0  0  0  0  0  0
   -8.6843   -4.1443    0.2887 C   0  0  0  0  0  0  0  0  0  0  0  0
   -8.0423   -2.7823    0.8232 C   0  0  2  0  0  0  0  0  0  0  0  0
   -8.0143    3.7868    0.3090 F   0  0  0  0  0  0  0  0  0  0  0  0
   -4.8295    0.8853    0.9094 N   0  0  0  0  0  0  0  0  0  0  0  0
  -11.1361    1.4532   -1.4276 N   0  0  0  0  0  0  0  0  0  0  0  0
   -8.2870   -6.1755   -1.1243 N   0  0  0  0  0  0  0  0  0  0  0  0
   -9.0163   -2.0864    1.6887 N   0  0  0  0  0  0  0  0  0  0  0  0
   -7.1143   -0.6762    0.1347 O   0  0  0  0  0  0  0  0  0  0  0  0
   -6.3410   -1.6790   -2.4799 O   0  0  0  0  0  0  0  0  0  0  0  0
   -6.3787   -4.5367   -2.7423 O   0  0  0  0  0  0  0  0  0  0  0  0
   -6.5309    2.6409    2.2446 O   0  0  0  0  0  0  0  0  0  0  0  0
   -8.1023    1.1731   -1.0534 O   0  0  0  0  0  0  0  0  0  0  0  0
  1  5  1  0  0  0  0
  1 18  1  1  0  0  0
  2 18  1  1  0  0  0
  2  3  1  0  0  0  0
  2 12  1  0  0  0  0
  3 19  1  6  0  0  0
  3  4  1  0  0  0  0
  4 20  1  6  0  0  0
  4 10  1  0  0  0  0
  5  6  1  0  0  0  0
  5 14  1  1  0  0  0
  6 21  1  1  0  0  0
  7 13  1  6  0  0  0
  7  6  1  0  0  0  0
  8  9  1  6  0  0  0
  8  7  1  0  0  0  0
 10 16  1  6  0  0  0
 11 10  1  0  0  0  0
 12 17  1  1  0  0  0
 12 11  1  0  0  0  0
 15  9  1  0  0  0  0
 22  8  1  0  0  0  0
 22  1  1  0  0  0  0
M  END
>  <CHROM.1>
-175.32309622,69.86640336,-178.77521053,-7.69316052,-0.60974522,-0.23159927
-1.63391957,0.20387821,-2.87909374

>  <Name>
lig.pdb

>  <RI>
0

>  <Rbt.Current_Directory>
/home/itssahil/PROJECTS/Mol_Feturizer/New_Systems/rnas/5bws

>  <Rbt.Executable>
rbdock ($Id: //depot/dev/client3/rdock/2013.1/src/exe/rbdock.cxx#4 $)

>  <Rbt.Library>
libRbt.so (2013.1, Build901 2013/11/27)

>  <Rbt.Parameter_File>
/export/apps/rDock/src/rDock_2013.1_src/data/scripts/dock_solv.prm

>  <Rbt.Receptor>
prm/pocket_docking_8.prm

>  <SCORE>
-10.8266

>  <SCORE.INTER>
-7.56458

>  <SCORE.INTER.CONST>
1

>  <SCORE.INTER.POLAR>
0

>  <SCORE.INTER.ROT>
3

>  <SCORE.INTER.SOLV>
17.4269

>  <SCORE.INTER.VDW>
-16.452

>  <SCORE.INTER.norm>
-0.343844

>  <SCORE.INTRA>
-3.262

>  <SCORE.INTRA.DIHEDRAL>
-5.52281

>  <SCORE.INTRA.DIHEDRAL.0>
6.10773

>  <SCORE.INTRA.POLAR>
0

>  <SCORE.INTRA.POLAR.0>
0

>  <SCORE.INTRA.REPUL>
0

>  <SCORE.INTRA.REPUL.0>
0

>  <SCORE.INTRA.SOLV>
-1.43014

>  <SCORE.INTRA.SOLV.lig_0>
-71.4024

>  <SCORE.INTRA.VDW>
0.214477

>  <SCORE.INTRA.VDW.0>
-1.86213

>  <SCORE.INTRA.norm>
-0.148273

>  <SCORE.RESTR>
0

>  <SCORE.RESTR.CAVITY>
0

>  <SCORE.RESTR.norm>
0

>  <SCORE.SYSTEM>
0

>  <SCORE.SYSTEM.CONST>
0

>  <SCORE.SYSTEM.DIHEDRAL>
0

>  <SCORE.SYSTEM.SOLV>
0

>  <SCORE.SYSTEM.norm>
0

>  <SCORE.heavy>
22

>  <SCORE.norm>
-0.492117

>  <RMSD>
6.593

$$$$
lig.pdb
 OpenBabel11021811523D
libRbt.so/2013.1/901 2013/11/27
 22 23  0  0  0  0  0  0  0  0999 V2000
   -6.9597    0.4789   -0.6818 C   0  0  1  0  0  0  0  0  0  0  0  0
   -7.6804   -1.9373   -0.4978 C   0  0  1  0  0  0  0  0  0  0  0  0
   -6.5873   -2.6577   -1.4051 C   0  0  1  0  0  0  0  0  0  0  0  0
   -7.2139   -4.0263   -1.9338 C   0  0  2  0  0  0  0  0  0  0  0  0
   -6.2351    1.5409    0.2333 C   0  0  1  0  0  0  0  0  0  0  0  0
   -7.1608    1.8522    1.4260 C   0  0  2  0  0  0  0  0  0  0  0  0
   -8.4924    2.4549    0.9443 C   0  0  2  0  0  0  0  0  0  0  0  0
   -9.2574    1.4606   -0.0035 C   0  0  1  0  0  0  0  0  0  0  0  0
  -10.5777    2.0874   -0.5373 C   0  0  0  0  0  0  0  0  0  0  0  0
   -7.5414   -4.9794   -0.6742 C   0  0  1  0  0  0  0  0  0  0  0  0
   -8.6453   -4.2192    0.2186 C   0  0  0  0  0  0  0  0  0  0  0  0
   -8.0569   -2.8249    0.7309 C   0  0  2  0  0  0  0  0  0  0  0  0
   -8.2447    3.7078    0.2216 F   0  0  0  0  0  0  0  0  0  0  0  0
   -4.9181    0.9429    0.6820 N   0  0  0  0  0  0  0  0  0  0  0  0
  -11.3149    1.2607   -1.4157 N   0  0  0  0  0  0  0  0  0  0  0  0
   -8.1511   -6.2781   -1.1220 N   0  0  0  0  0  0  0  0  0  0  0  0
   -9.0747   -2.1323    1.5473 N   0  0  0  0  0  0  0  0  0  0  0  0
   -7.1672   -0.7140    0.0074 O   0  0  0  0  0  0  0  0  0  0  0  0
   -6.2901   -1.7690   -2.5533 O   0  0  0  0  0  0  0  0  0  0  0  0
   -6.2417   -4.6330   -2.7324 O   0  0  0  0  0  0  0  0  0  0  0  0
   -6.6316    2.6281    2.0904 O   0  0  0  0  0  0  0  0  0  0  0  0
   -8.2826    1.0904   -1.1361 O   0  0  0  0  0  0  0  0  0  0  0  0
  1  5  1  0  0  0  0
  1 18  1  1  0  0  0
  2 18  1  1  0  0  0
  2  3  1  0  0  0  0
  2 12  1  0  0  0  0
  3 19  1  6  0  0  0
  3  4  1  0  0  0  0
  4 20  1  6  0  0  0
  4 10  1  0  0  0  0
  5  6  1  0  0  0  0
  5 14  1  1  0  0  0
  6 21  1  1  0  0  0
  7 13  1  6  0  0  0
  7  6  1  0  0  0  0
  8  9  1  6  0  0  0
  8  7  1  0  0  0  0
 10 16  1  6  0  0  0
 11 10  1  0  0  0  0
 12 17  1  6  0  0  0
 12 11  1  0  0  0  0
 15  9  1  0  0  0  0
 22  8  1  0  0  0  0
 22  1  1  0  0  0  0
M  END
>  <CHROM.1>
-174.18341439,73.61431321,179.05697743,-7.74916757,-0.68062542,-0.31282725
-1.67319217,0.09689386,-2.88999979

>  <Name>
lig.pdb

>  <RI>
0

>  <Rbt.Current_Directory>
/home/itssahil/PROJECTS/Mol_Feturizer/New_Systems/rnas/5bws

>  <Rbt.Executable>
rbdock ($Id: //depot/dev/client3/rdock/2013.1/src/exe/rbdock.cxx#4 $)

>  <Rbt.Library>
libRbt.so (2013.1, Build901 2013/11/27)

>  <Rbt.Parameter_File>
/export/apps/rDock/src/rDock_2013.1_src/data/scripts/dock_solv.prm

>  <Rbt.Receptor>
prm/pocket_docking_7.prm

>  <SCORE>
-10.7987

>  <SCORE.INTER>
-7.80431

>  <SCORE.INTER.CONST>
1

>  <SCORE.INTER.POLAR>
0

>  <SCORE.INTER.ROT>
3

>  <SCORE.INTER.SOLV>
17.6531

>  <SCORE.INTER.VDW>
-16.6872

>  <SCORE.INTER.norm>
-0.354741

>  <SCORE.INTRA>
-2.99443

>  <SCORE.INTRA.DIHEDRAL>
-5.06001

>  <SCORE.INTRA.DIHEDRAL.0>
6.10773

>  <SCORE.INTRA.POLAR>
0

>  <SCORE.INTRA.POLAR.0>
0

>  <SCORE.INTRA.REPUL>
0

>  <SCORE.INTRA.REPUL.0>
0

>  <SCORE.INTRA.SOLV>
-1.26666

>  <SCORE.INTRA.SOLV.lig_0>
-71.4024

>  <SCORE.INTRA.VDW>
0.168901

>  <SCORE.INTRA.VDW.0>
-1.86213

>  <SCORE.INTRA.norm>
-0.136111

>  <SCORE.RESTR>
0

>  <SCORE.RESTR.CAVITY>
0

>  <SCORE.RESTR.norm>
0

>  <SCORE.SYSTEM>
0

>  <SCORE.SYSTEM.CONST>
0

>  <SCORE.SYSTEM.DIHEDRAL>
0

>  <SCORE.SYSTEM.SOLV>
0

>  <SCORE.SYSTEM.norm>
0

>  <SCORE.heavy>
22

>  <SCORE.norm>
-0.490852

>  <RMSD>
6.595

$$$$
lig.pdb
 OpenBabel11021811523D
libRbt.so/2013.1/901 2013/11/27
 22 23  0  0  0  0  0  0  0  0999 V2000
   -6.8640    0.5312   -0.5495 C   0  0  1  0  0  0  0  0  0  0  0  0
   -7.6902   -1.8539   -0.4087 C   0  0  1  0  0  0  0  0  0  0  0  0
   -6.6294   -2.5584   -1.3655 C   0  0  1  0  0  0  0  0  0  0  0  0
   -7.2877   -3.9002   -1.9235 C   0  0  2  0  0  0  0  0  0  0  0  0
   -6.1352    1.5590    0.4005 C   0  0  1  0  0  0  0  0  0  0  0  0
   -7.0957    1.9030    1.5561 C   0  0  2  0  0  0  0  0  0  0  0  0
   -8.3808    2.5614    1.0238 C   0  0  2  0  0  0  0  0  0  0  0  0
   -9.1460    1.6029    0.0398 C   0  0  1  0  0  0  0  0  0  0  0  0
  -10.4167    2.2852   -0.5439 C   0  0  0  0  0  0  0  0  0  0  0  0
   -7.5985   -4.8902   -0.6884 C   0  0  1  0  0  0  0  0  0  0  0  0
   -8.6699   -4.1454    0.2555 C   0  0  0  0  0  0  0  0  0  0  0  0
   -8.0498   -2.7768    0.7989 C   0  0  2  0  0  0  0  0  0  0  0  0
   -8.0531    3.8060    0.3190 F   0  0  0  0  0  0  0  0  0  0  0  0
   -4.8630    0.9061    0.8993 N   0  0  0  0  0  0  0  0  0  0  0  0
  -11.1772    1.4751   -1.4180 N   0  0  0  0  0  0  0  0  0  0  0  0
   -8.2369   -6.1650   -1.1637 N   0  0  0  0  0  0  0  0  0  0  0  0
   -9.0379   -2.0982    1.6622 N   0  0  0  0  0  0  0  0  0  0  0  0
   -7.1479   -0.6551    0.1238 O   0  0  0  0  0  0  0  0  0  0  0  0
   -6.3471   -1.6361   -2.4907 O   0  0  0  0  0  0  0  0  0  0  0  0
   -6.3435   -4.4929   -2.7650 O   0  0  0  0  0  0  0  0  0  0  0  0
   -6.5633    2.6539    2.2461 O   0  0  0  0  0  0  0  0  0  0  0  0
   -8.1412    1.1979   -1.0540 O   0  0  0  0  0  0  0  0  0  0  0  0
  1  5  1  0  0  0  0
  1 18  1  1  0  0  0
  2 18  1  1  0  0  0
  2  3  1  0  0  0  0
  2 12  1  0  0  0  0
  3 19  1  6  0  0  0
  3  4  1  0  0  0  0
  4 20  1  6  0  0  0
  4 10  1  0  0  0  0
  5  6  1  0  0  0  0
  5 14  1  1  0  0  0
  6 21  1  1  0  0  0
  7 13  1  6  0  0  0
  7  6  1  0  0  0  0
  8  9  1  6  0  0  0
  8  7  1  0  0  0  0
 10 16  1  6  0  0  0
 11 10  1  0  0  0  0
 12 17  1  1  0  0  0
 12 11  1  0  0  0  0
 15  9  1  0  0  0  0
 22  8  1  0  0  0  0
 22  1  1  0  0  0  0
M  END
>  <CHROM.1>
-174.24874656,69.30722808,-178.69928176,-7.70862676,-0.59031056,-0.24210754
-1.64425810,0.19637498,-2.87406000

>  <Name>
lig.pdb

>  <RI>
0

>  <Rbt.Current_Directory>
/home/itssahil/PROJECTS/Mol_Feturizer/New_Systems/rnas/5bws

>  <Rbt.Executable>
rbdock ($Id: //depot/dev/client3/rdock/2013.1/src/exe/rbdock.cxx#4 $)

>  <Rbt.Library>
libRbt.so (2013.1, Build901 2013/11/27)

>  <Rbt.Parameter_File>
/export/apps/rDock/src/rDock_2013.1_src/data/scripts/dock_solv.prm

>  <Rbt.Receptor>
prm/pocket_docking_7.prm

>  <SCORE>
-10.8089

>  <SCORE.INTER>
-7.55783

>  <SCORE.INTER.CONST>
1

>  <SCORE.INTER.POLAR>
0

>  <SCORE.INTER.ROT>
3

>  <SCORE.INTER.SOLV>
17.3609

>  <SCORE.INTER.VDW>
-16.4255

>  <SCORE.INTER.norm>
-0.343538

>  <SCORE.INTRA>
-3.25105

>  <SCORE.INTRA.DIHEDRAL>
-5.51822

>  <SCORE.INTRA.DIHEDRAL.0>
6.10773

>  <SCORE.INTRA.POLAR>
0

>  <SCORE.INTRA.POLAR.0>
0

>  <SCORE.INTRA.REPUL>
0

>  <SCORE.INTRA.REPUL.0>
0

>  <SCORE.INTRA.SOLV>
-1.43925

>  <SCORE.INTRA.SOLV.lig_0>
-71.4024

>  <SCORE.INTRA.VDW>
0.227689

>  <SCORE.INTRA.VDW.0>
-1.86213

>  <SCORE.INTRA.norm>
-0.147775

>  <SCORE.RESTR>
0

>  <SCORE.RESTR.CAVITY>
0

>  <SCORE.RESTR.norm>
0

>  <SCORE.SYSTEM>
0

>  <SCORE.SYSTEM.CONST>
0

>  <SCORE.SYSTEM.DIHEDRAL>
0

>  <SCORE.SYSTEM.SOLV>
0

>  <SCORE.SYSTEM.norm>
0

>  <SCORE.heavy>
22

>  <SCORE.norm>
-0.491312

>  <RMSD>
6.597

$$$$
lig.pdb
 OpenBabel11021811523D
libRbt.so/2013.1/901 2013/11/27
 22 23  0  0  0  0  0  0  0  0999 V2000
   -6.9308    0.5569   -0.5671 C   0  0  1  0  0  0  0  0  0  0  0  0
   -7.6827   -1.8514   -0.4060 C   0  0  1  0  0  0  0  0  0  0  0  0
   -6.6129   -2.5519   -1.3557 C   0  0  1  0  0  0  0  0  0  0  0  0
   -7.2526   -3.9095   -1.8970 C   0  0  2  0  0  0  0  0  0  0  0  0
   -6.1529    1.5844    0.3435 C   0  0  1  0  0  0  0  0  0  0  0  0
   -7.0397    1.9066    1.5626 C   0  0  2  0  0  0  0  0  0  0  0  0
   -8.3640    2.5549    1.1215 C   0  0  2  0  0  0  0  0  0  0  0  0
   -9.1811    1.5966    0.1801 C   0  0  1  0  0  0  0  0  0  0  0  0
  -10.4946    2.2693   -0.3129 C   0  0  0  0  0  0  0  0  0  0  0  0
   -7.5479   -4.8891   -0.6498 C   0  0  1  0  0  0  0  0  0  0  0  0
   -8.6288   -4.1486    0.2865 C   0  0  0  0  0  0  0  0  0  0  0  0
   -8.0277   -2.7650    0.8129 C   0  0  2  0  0  0  0  0  0  0  0  0
   -8.0966    3.8096    0.4092 F   0  0  0  0  0  0  0  0  0  0  0  0
   -4.8438    0.9418    0.7519 N   0  0  0  0  0  0  0  0  0  0  0  0
  -11.2934    1.4644   -1.1570 N   0  0  0  0  0  0  0  0  0  0  0  0
   -8.1686   -6.1785   -1.1092 N   0  0  0  0  0  0  0  0  0  0  0  0
   -9.0245   -2.0903    1.6693 N   0  0  0  0  0  0  0  0  0  0  0  0
   -7.1570   -0.6387    0.1116 O   0  0  0  0  0  0  0  0  0  0  0  0
   -6.3452   -1.6392   -2.4922 O   0  0  0  0  0  0  0  0  0  0  0  0
   -6.3010   -4.4987   -2.7326 O   0  0  0  0  0  0  0  0  0  0  0  0
   -6.4717    2.6574    2.2237 O   0  0  0  0  0  0  0  0  0  0  0  0
   -8.2454    1.2132   -0.9808 O   0  0  0  0  0  0  0  0  0  0  0  0
  1  5  1  0  0  0  0
  1 18  1  1  0  0  0
  2 18  1  1  0  0  0
  2  3  1  0  0  0  0
  2 12  1  0  0  0  0
  3 19  1  6  0  0  0
  3  4  1  0  0  0  0
  4 20  1  6  0  0  0
  4 10  1  0  0  0  0
  5  6  1  0  0  0  0
  5 14  1  1  0  0  0
  6 21  1  1  0  0  0
  7 13  1  6  0  0  0
  7  6  1  0  0  0  0
  8  9  1  6  0  0  0
  8  7  1  0  0  0  0
 10 16  1  6  0  0  0
 11 10  1  0  0  0  0
 12 17  1  1  0  0  0
 12 11  1  0  0  0  0
 15  9  1  0  0  0  0
 22  8  1  0  0  0  0
 22  1  1  0  0  0  0
M  END
>  <CHROM.1>
-172.18816539,71.55341604,-179.45349308,-7.70890337,-0.58648495,-0.20262716
-1.65609636,0.08130459,-2.87627482

>  <Name>
lig.pdb

>  <RI>
0

>  <Rbt.Current_Directory>
/home/itssahil/PROJECTS/Mol_Feturizer/New_Systems/rnas/5bws

>  <Rbt.Executable>
rbdock ($Id: //depot/dev/client3/rdock/2013.1/src/exe/rbdock.cxx#4 $)

>  <Rbt.Library>
libRbt.so (2013.1, Build901 2013/11/27)

>  <Rbt.Parameter_File>
/export/apps/rDock/src/rDock_2013.1_src/data/scripts/dock_solv.prm

>  <Rbt.Receptor>
prm/pocket_docking_8.prm

>  <SCORE>
-10.7433

>  <SCORE.INTER>
-7.69121

>  <SCORE.INTER.CONST>
1

>  <SCORE.INTER.POLAR>
0

>  <SCORE.INTER.ROT>
3

>  <SCORE.INTER.SOLV>
16.9575

>  <SCORE.INTER.VDW>
-16.38

>  <SCORE.INTER.norm>
-0.349601

>  <SCORE.INTRA>
-3.05208

>  <SCORE.INTRA.DIHEDRAL>
-5.16859

>  <SCORE.INTRA.DIHEDRAL.0>
6.10773

>  <SCORE.INTRA.POLAR>
0

>  <SCORE.INTRA.POLAR.0>
0

>  <SCORE.INTRA.REPUL>
0

>  <SCORE.INTRA.REPUL.0>
0

>  <SCORE.INTRA.SOLV>
-1.35466

>  <SCORE.INTRA.SOLV.lig_0>
-71.4024

>  <SCORE.INTRA.VDW>
0.209538

>  <SCORE.INTRA.VDW.0>
-1.86213

>  <SCORE.INTRA.norm>
-0.138731

>  <SCORE.RESTR>
0

>  <SCORE.RESTR.CAVITY>
0

>  <SCORE.RESTR.norm>
0

>  <SCORE.SYSTEM>
0

>  <SCORE.SYSTEM.CONST>
0

>  <SCORE.SYSTEM.DIHEDRAL>
0

>  <SCORE.SYSTEM.SOLV>
0

>  <SCORE.SYSTEM.norm>
0

>  <SCORE.heavy>
22

>  <SCORE.norm>
-0.488332

>  <RMSD>
6.606

$$$$
lig.pdb
 OpenBabel11021811523D
libRbt.so/2013.1/901 2013/11/27
 22 23  0  0  0  0  0  0  0  0999 V2000
   -6.7468    0.5147   -0.5370 C   0  0  1  0  0  0  0  0  0  0  0  0
   -7.6266   -1.8498   -0.3757 C   0  0  1  0  0  0  0  0  0  0  0  0
   -6.6018   -2.6097   -1.3294 C   0  0  1  0  0  0  0  0  0  0  0  0
   -7.3197   -3.9285   -1.8686 C   0  0  2  0  0  0  0  0  0  0  0  0
   -5.9377    1.5104    0.3817 C   0  0  1  0  0  0  0  0  0  0  0  0
   -6.8249    1.8715    1.5895 C   0  0  2  0  0  0  0  0  0  0  0  0
   -8.1156    2.5737    1.1317 C   0  0  2  0  0  0  0  0  0  0  0  0
   -8.9606    1.6487    0.1816 C   0  0  1  0  0  0  0  0  0  0  0  0
  -10.2388    2.3748   -0.3281 C   0  0  0  0  0  0  0  0  0  0  0  0
   -7.6658   -4.8902   -0.6206 C   0  0  1  0  0  0  0  0  0  0  0  0
   -8.6995   -4.0897    0.3197 C   0  0  0  0  0  0  0  0  0  0  0  0
   -8.0187   -2.7427    0.8442 C   0  0  2  0  0  0  0  0  0  0  0  0
   -7.7875    3.8149    0.4212 F   0  0  0  0  0  0  0  0  0  0  0  0
   -4.6616    0.8145    0.8067 N   0  0  0  0  0  0  0  0  0  0  0  0
  -11.0770    1.5917   -1.1544 N   0  0  0  0  0  0  0  0  0  0  0  0
   -8.3605   -6.1419   -1.0781 N   0  0  0  0  0  0  0  0  0  0  0  0
   -8.9725   -2.0128    1.7043 N   0  0  0  0  0  0  0  0  0  0  0  0
   -7.0309   -0.6692    0.1403 O   0  0  0  0  0  0  0  0  0  0  0  0
   -6.2865   -1.7132   -2.4666 O   0  0  0  0  0  0  0  0  0  0  0  0
   -6.4060   -4.5705   -2.7078 O   0  0  0  0  0  0  0  0  0  0  0  0
   -6.2341    2.5990    2.2566 O   0  0  0  0  0  0  0  0  0  0  0  0
   -8.0277    1.2247   -0.9674 O   0  0  0  0  0  0  0  0  0  0  0  0
  1  5  1  0  0  0  0
  1 18  1  1  0  0  0
  2 18  1  1  0  0  0
  2  3  1  0  0  0  0
  2 12  1  0  0  0  0
  3 19  1  6  0  0  0
  3  4  1  0  0  0  0
  4 20  1  6  0  0  0
  4 10  1  0  0  0  0
  5  6  1  0  0  0  0
  5 14  1  1  0  0  0
  6 21  1  1  0  0  0
  7 13  1  6  0  0  0
  7  6  1  0  0  0  0
  8  9  1  6  0  0  0
  8  7  1  0  0  0  0
 10 16  1  6  0  0  0
 11 10  1  0  0  0  0
 12 17  1  1  0  0  0
 12 11  1  0  0  0  0
 15  9  1  0  0  0  0
 22  8  1  0  0  0  0
 22  1  1  0  0  0  0
M  END
>  <CHROM.1>
-173.65926547,71.98091644,-177.97358005,-7.60248780,-0.59066629,-0.17870460
-1.60572016,0.10671896,-2.88037190

>  <Name>
lig.pdb

>  <RI>
0

>  <Rbt.Current_Directory>
/home/itssahil/PROJECTS/Mol_Feturizer/New_Systems/rnas/5bws

>  <Rbt.Executable>
rbdock ($Id: //depot/dev/client3/rdock/2013.1/src/exe/rbdock.cxx#4 $)

>  <Rbt.Library>
libRbt.so (2013.1, Build901 2013/11/27)

>  <Rbt.Parameter_File>
/export/apps/rDock/src/rDock_2013.1_src/data/scripts/dock_solv.prm

>  <Rbt.Receptor>
prm/pocket_docking_8.prm

>  <SCORE>
-10.8141

>  <SCORE.INTER>
-7.72361

>  <SCORE.INTER.CONST>
1

>  <SCORE.INTER.POLAR>
0

>  <SCORE.INTER.ROT>
3

>  <SCORE.INTER.SOLV>
16.5638

>  <SCORE.INTER.VDW>
-16.2703

>  <SCORE.INTER.norm>
-0.351073

>  <SCORE.INTRA>
-3.09047

>  <SCORE.INTRA.DIHEDRAL>
-5.20878

>  <SCORE.INTRA.DIHEDRAL.0>
6.10773

>  <SCORE.INTRA.POLAR>
0

>  <SCORE.INTRA.POLAR.0>
0

>  <SCORE.INTRA.REPUL>
0

>  <SCORE.INTRA.REPUL.0>
0

>  <SCORE.INTRA.SOLV>
-1.37102

>  <SCORE.INTRA.SOLV.lig_0>
-71.4024

>  <SCORE.INTRA.VDW>
0.199433

>  <SCORE.INTRA.VDW.0>
-1.86213

>  <SCORE.INTRA.norm>
-0.140476

>  <SCORE.RESTR>
0

>  <SCORE.RESTR.CAVITY>
0

>  <SCORE.RESTR.norm>
0

>  <SCORE.SYSTEM>
0

>  <SCORE.SYSTEM.CONST>
0

>  <SCORE.SYSTEM.DIHEDRAL>
0

>  <SCORE.SYSTEM.SOLV>
0

>  <SCORE.SYSTEM.norm>
0

>  <SCORE.heavy>
22

>  <SCORE.norm>
-0.491549

>  <RMSD>
6.611

$$$$
lig.pdb
 OpenBabel11021811523D
libRbt.so/2013.1/901 2013/11/27
 22 23  0  0  0  0  0  0  0  0999 V2000
   -6.7677    0.4743   -0.4903 C   0  0  1  0  0  0  0  0  0  0  0  0
   -7.6643   -1.8843   -0.3354 C   0  0  1  0  0  0  0  0  0  0  0  0
   -6.6454   -2.6283   -1.3076 C   0  0  1  0  0  0  0  0  0  0  0  0
   -7.3613   -3.9458   -1.8527 C   0  0  2  0  0  0  0  0  0  0  0  0
   -5.9676    1.4683    0.4381 C   0  0  1  0  0  0  0  0  0  0  0  0
   -6.8721    1.8389    1.6301 C   0  0  2  0  0  0  0  0  0  0  0  0
   -8.1508    2.5473    1.1490 C   0  0  2  0  0  0  0  0  0  0  0  0
   -8.9859    1.6242    0.1884 C   0  0  1  0  0  0  0  0  0  0  0  0
  -10.2512    2.3562   -0.3445 C   0  0  0  0  0  0  0  0  0  0  0  0
   -7.6883   -4.9222   -0.6110 C   0  0  1  0  0  0  0  0  0  0  0  0
   -8.7166   -4.1374    0.3485 C   0  0  0  0  0  0  0  0  0  0  0  0
   -8.0381   -2.7919    0.8795 C   0  0  2  0  0  0  0  0  0  0  0  0
   -7.8037    3.7841    0.4397 F   0  0  0  0  0  0  0  0  0  0  0  0
   -4.7028    0.7661    0.8861 N   0  0  0  0  0  0  0  0  0  0  0  0
  -11.0828    1.5741   -1.1783 N   0  0  0  0  0  0  0  0  0  0  0  0
   -8.3806   -6.1733   -1.0737 N   0  0  0  0  0  0  0  0  0  0  0  0
   -8.9868   -2.0764    1.7572 N   0  0  0  0  0  0  0  0  0  0  0  0
   -7.0700   -0.7055    0.1863 O   0  0  0  0  0  0  0  0  0  0  0  0
   -6.3476   -1.7185   -2.4389 O   0  0  0  0  0  0  0  0  0  0  0  0
   -6.4530   -4.5738   -2.7080 O   0  0  0  0  0  0  0  0  0  0  0  0
   -6.2878    2.5652    2.3043 O   0  0  0  0  0  0  0  0  0  0  0  0
   -8.0371    1.1905   -0.9439 O   0  0  0  0  0  0  0  0  0  0  0  0
  1  5  1  0  0  0  0
  1 18  1  1  0  0  0
  2 18  1  1  0  0  0
  2  3  1  0  0  0  0
  2 12  1  0  0  0  0
  3 19  1  6  0  0  0
  3  4  1  0  0  0  0
  4 20  1  6  0  0  0
  4 10  1  0  0  0  0
  5  6  1  0  0  0  0
  5 14  1  1  0  0  0
  6 21  1  1  0  0  0
  7 13  1  6  0  0  0
  7  6  1  0  0  0  0
  8  9  1  6  0  0  0
  8  7  1  0  0  0  0
 10 16  1  6  0  0  0
 11 10  1  0  0  0  0
 12 17  1  1  0  0  0
 12 11  1  0  0  0  0
 15  9  1  0  0  0  0
 22  8  1  0  0  0  0
 22  1  1  0  0  0  0
M  END
>  <CHROM.1>
-173.65224387,70.11400679,-177.78992546,-7.63260588,-0.62167285,-0.15249230
-1.60415661,0.14740025,-2.87873147

>  <Name>
lig.pdb

>  <RI>
0

>  <Rbt.Current_Directory>
/home/itssahil/PROJECTS/Mol_Feturizer/New_Systems/rnas/5bws

>  <Rbt.Executable>
rbdock ($Id: //depot/dev/client3/rdock/2013.1/src/exe/rbdock.cxx#4 $)

>  <Rbt.Library>
libRbt.so (2013.1, Build901 2013/11/27)

>  <Rbt.Parameter_File>
/export/apps/rDock/src/rDock_2013.1_src/data/scripts/dock_solv.prm

>  <Rbt.Receptor>
prm/pocket_docking_8.prm

>  <SCORE>
-10.7953

>  <SCORE.INTER>
-7.61521

>  <SCORE.INTER.CONST>
1

>  <SCORE.INTER.POLAR>
0

>  <SCORE.INTER.ROT>
3

>  <SCORE.INTER.SOLV>
16.9963

>  <SCORE.INTER.VDW>
-16.3423

>  <SCORE.INTER.norm>
-0.346146

>  <SCORE.INTRA>
-3.18012

>  <SCORE.INTRA.DIHEDRAL>
-5.39777

>  <SCORE.INTRA.DIHEDRAL.0>
6.10773

>  <SCORE.INTRA.POLAR>
0

>  <SCORE.INTRA.POLAR.0>
0

>  <SCORE.INTRA.REPUL>
0

>  <SCORE.INTRA.REPUL.0>
0

>  <SCORE.INTRA.SOLV>
-1.42899

>  <SCORE.INTRA.SOLV.lig_0>
-71.4024

>  <SCORE.INTRA.VDW>
0.233262

>  <SCORE.INTRA.VDW.0>
-1.86213

>  <SCORE.INTRA.norm>
-0.144551

>  <SCORE.RESTR>
0

>  <SCORE.RESTR.CAVITY>
0

>  <SCORE.RESTR.norm>
0

>  <SCORE.SYSTEM>
0

>  <SCORE.SYSTEM.CONST>
0

>  <SCORE.SYSTEM.DIHEDRAL>
0

>  <SCORE.SYSTEM.SOLV>
0

>  <SCORE.SYSTEM.norm>
0

>  <SCORE.heavy>
22

>  <SCORE.norm>
-0.490697

>  <RMSD>
6.613

$$$$
lig.pdb
 OpenBabel11021811523D
libRbt.so/2013.1/901 2013/11/27
 22 23  0  0  0  0  0  0  0  0999 V2000
   -6.3718    0.0685   -1.0501 C   0  0  1  0  0  0  0  0  0  0  0  0
   -7.5366   -2.1445   -0.6795 C   0  0  1  0  0  0  0  0  0  0  0  0
   -6.5210   -3.0278   -1.5312 C   0  0  1  0  0  0  0  0  0  0  0  0
   -7.2789   -4.3622   -1.9676 C   0  0  2  0  0  0  0  0  0  0  0  0
   -5.7616    1.2196   -0.1598 C   0  0  1  0  0  0  0  0  0  0  0  0
   -6.9050    1.8369    0.6696 C   0  0  2  0  0  0  0  0  0  0  0  0
   -7.9786    2.4498   -0.2471 C   0  0  2  0  0  0  0  0  0  0  0  0
   -8.6102    1.3620   -1.1905 C   0  0  1  0  0  0  0  0  0  0  0  0
   -9.6565    1.9873   -2.1573 C   0  0  0  0  0  0  0  0  0  0  0  0
   -7.6937   -5.1907   -0.6471 C   0  0  1  0  0  0  0  0  0  0  0  0
   -8.7162   -4.2678    0.1874 C   0  0  0  0  0  0  0  0  0  0  0  0
   -7.9939   -2.9053    0.6055 C   0  0  2  0  0  0  0  0  0  0  0  0
   -7.3895    3.5118   -1.0707 F   0  0  0  0  0  0  0  0  0  0  0  0
   -4.6930    0.6062    0.7208 N   0  0  0  0  0  0  0  0  0  0  0  0
  -10.7558    2.6085   -1.5215 N   0  0  0  0  0  0  0  0  0  0  0  0
   -8.4276   -6.4517   -1.0074 N   0  0  0  0  0  0  0  0  0  0  0  0
   -8.9375   -2.0631    1.3688 N   0  0  0  0  0  0  0  0  0  0  0  0
   -6.9058   -0.9450   -0.2571 O   0  0  0  0  0  0  0  0  0  0  0  0
   -6.1424   -2.2528   -2.7363 O   0  0  0  0  0  0  0  0  0  0  0  0
   -6.3723   -5.1135   -2.7191 O   0  0  0  0  0  0  0  0  0  0  0  0
   -6.4584    2.6771    1.3161 O   0  0  0  0  0  0  0  0  0  0  0  0
   -7.4426    0.6945   -1.9398 O   0  0  0  0  0  0  0  0  0  0  0  0
  1  5  1  0  0  0  0
  1 18  1  1  0  0  0
  2 18  1  1  0  0  0
  2  3  1  0  0  0  0
  2 12  1  0  0  0  0
  3 19  1  6  0  0  0
  3  4  1  0  0  0  0
  4 20  1  6  0  0  0
  4 10  1  0  0  0  0
  5  6  1  0  0  0  0
  5 14  1  1  0  0  0
  6 21  1  1  0  0  0
  7 13  1  6  0  0  0
  7  6  1  0  0  0  0
  8  9  1  6  0  0  0
  8  7  1  0  0  0  0
 10 16  1  6  0  0  0
 11 10  1  0  0  0  0
 12 17  1  6  0  0  0
 12 11  1  0  0  0  0
 15  9  1  0  0  0  0
 22  8  1  0  0  0  0
 22  1  1  0  0  0  0
M  END
>  <CHROM.1>
-179.81967924,61.12162650,-60.59689311,-7.45911801,-0.82283842,-0.75396363
-1.59465422,0.31827671,-3.04047685

>  <Name>
lig.pdb

>  <RI>
0

>  <Rbt.Current_Directory>
/home/itssahil/PROJECTS/Mol_Feturizer/New_Systems/rnas/5bws

>  <Rbt.Executable>
rbdock ($Id: //depot/dev/client3/rdock/2013.1/src/exe/rbdock.cxx#4 $)

>  <Rbt.Library>
libRbt.so (2013.1, Build901 2013/11/27)

>  <Rbt.Parameter_File>
/export/apps/rDock/src/rDock_2013.1_src/data/scripts/dock_solv.prm

>  <Rbt.Receptor>
prm/pocket_docking_7.prm

>  <SCORE>
-11.1537

>  <SCORE.INTER>
-8.02555

>  <SCORE.INTER.CONST>
1

>  <SCORE.INTER.POLAR>
0

>  <SCORE.INTER.ROT>
3

>  <SCORE.INTER.SOLV>
15.3365

>  <SCORE.INTER.VDW>
-16.0625

>  <SCORE.INTER.norm>
-0.364798

>  <SCORE.INTRA>
-3.12814

>  <SCORE.INTRA.DIHEDRAL>
-6.09735

>  <SCORE.INTRA.DIHEDRAL.0>
6.10773

>  <SCORE.INTRA.POLAR>
0

>  <SCORE.INTRA.POLAR.0>
0

>  <SCORE.INTRA.REPUL>
0

>  <SCORE.INTRA.REPUL.0>
0

>  <SCORE.INTRA.SOLV>
-1.10847

>  <SCORE.INTRA.SOLV.lig_0>
-71.4024

>  <SCORE.INTRA.VDW>
0.474773

>  <SCORE.INTRA.VDW.0>
-1.86213

>  <SCORE.INTRA.norm>
-0.142188

>  <SCORE.RESTR>
0

>  <SCORE.RESTR.CAVITY>
0

>  <SCORE.RESTR.norm>
0

>  <SCORE.SYSTEM>
0

>  <SCORE.SYSTEM.CONST>
0

>  <SCORE.SYSTEM.DIHEDRAL>
0

>  <SCORE.SYSTEM.SOLV>
0

>  <SCORE.SYSTEM.norm>
0

>  <SCORE.heavy>
22

>  <SCORE.norm>
-0.506986

>  <RMSD>
6.618

$$$$
lig.pdb
 OpenBabel11021811523D
libRbt.so/2013.1/901 2013/11/27
 22 23  0  0  0  0  0  0  0  0999 V2000
   -6.7570    0.5135   -0.5239 C   0  0  1  0  0  0  0  0  0  0  0  0
   -7.6345   -1.8526   -0.3727 C   0  0  1  0  0  0  0  0  0  0  0  0
   -6.6172   -2.6056   -1.3397 C   0  0  1  0  0  0  0  0  0  0  0  0
   -7.3392   -3.9206   -1.8826 C   0  0  2  0  0  0  0  0  0  0  0  0
   -5.9099    1.4885    0.3827 C   0  0  1  0  0  0  0  0  0  0  0  0
   -6.7571    1.8443    1.6204 C   0  0  2  0  0  0  0  0  0  0  0  0
   -8.0524    2.5665    1.2093 C   0  0  2  0  0  0  0  0  0  0  0  0
   -8.9355    1.6631    0.2732 C   0  0  1  0  0  0  0  0  0  0  0  0
  -10.2196    2.4098   -0.1897 C   0  0  0  0  0  0  0  0  0  0  0  0
   -7.6754   -4.8911   -0.6388 C   0  0  1  0  0  0  0  0  0  0  0  0
   -8.7017   -4.0974    0.3153 C   0  0  0  0  0  0  0  0  0  0  0  0
   -8.0169   -2.7542    0.8440 C   0  0  2  0  0  0  0  0  0  0  0  0
   -7.7310    3.8129    0.5046 F   0  0  0  0  0  0  0  0  0  0  0  0
   -4.6300    0.7730    0.7614 N   0  0  0  0  0  0  0  0  0  0  0  0
  -11.0760    1.6565   -1.0251 N   0  0  0  0  0  0  0  0  0  0  0  0
   -8.3736   -6.1397   -1.0996 N   0  0  0  0  0  0  0  0  0  0  0  0
   -8.9639   -2.0304    1.7168 N   0  0  0  0  0  0  0  0  0  0  0  0
   -7.0348   -0.6756    0.1470 O   0  0  0  0  0  0  0  0  0  0  0  0
   -6.3110   -1.7010   -2.4730 O   0  0  0  0  0  0  0  0  0  0  0  0
   -6.4322   -4.5566   -2.7335 O   0  0  0  0  0  0  0  0  0  0  0  0
   -6.1387    2.5568    2.2786 O   0  0  0  0  0  0  0  0  0  0  0  0
   -8.0417    1.2430   -0.9078 O   0  0  0  0  0  0  0  0  0  0  0  0
  1  5  1  0  0  0  0
  1 18  1  1  0  0  0
  2 18  1  1  0  0  0
  2  3  1  0  0  0  0
  2 12  1  0  0  0  0
  3 19  1  6  0  0  0
  3  4  1  0  0  0  0
  4 20  1  6  0  0  0
  4 10  1  0  0  0  0
  5  6  1  0  0  0  0
  5 14  1  1  0  0  0
  6 21  1  1  0  0  0
  7 13  1  6  0  0  0
  7  6  1  0  0  0  0
  8  9  1  6  0  0  0
  8  7  1  0  0  0  0
 10 16  1  6  0  0  0
 11 10  1  0  0  0  0
 12 17  1  1  0  0  0
 12 11  1  0  0  0  0
 15  9  1  0  0  0  0
 22  8  1  0  0  0  0
 22  1  1  0  0  0  0
M  END
>  <CHROM.1>
-172.26362041,72.02947372,-179.32780069,-7.59055894,-0.59136795,-0.15415856
-1.59933788,0.07363299,-2.87168916

>  <Name>
lig.pdb

>  <RI>
0

>  <Rbt.Current_Directory>
/home/itssahil/PROJECTS/Mol_Feturizer/New_Systems/rnas/5bws

>  <Rbt.Executable>
rbdock ($Id: //depot/dev/client3/rdock/2013.1/src/exe/rbdock.cxx#4 $)

>  <Rbt.Library>
libRbt.so (2013.1, Build901 2013/11/27)

>  <Rbt.Parameter_File>
/export/apps/rDock/src/rDock_2013.1_src/data/scripts/dock_solv.prm

>  <Rbt.Receptor>
prm/pocket_docking_4.prm

>  <SCORE>
-10.6928

>  <SCORE.INTER>
-7.66335

>  <SCORE.INTER.CONST>
1

>  <SCORE.INTER.POLAR>
0

>  <SCORE.INTER.ROT>
3

>  <SCORE.INTER.SOLV>
16.3591

>  <SCORE.INTER.VDW>
-16.1619

>  <SCORE.INTER.norm>
-0.348334

>  <SCORE.INTRA>
-3.02949

>  <SCORE.INTRA.DIHEDRAL>
-5.12175

>  <SCORE.INTRA.DIHEDRAL.0>
6.10773

>  <SCORE.INTRA.POLAR>
0

>  <SCORE.INTRA.POLAR.0>
0

>  <SCORE.INTRA.REPUL>
0

>  <SCORE.INTRA.REPUL.0>
0

>  <SCORE.INTRA.SOLV>
-1.33918

>  <SCORE.INTRA.SOLV.lig_0>
-71.4024

>  <SCORE.INTRA.VDW>
0.20097

>  <SCORE.INTRA.VDW.0>
-1.86213

>  <SCORE.INTRA.norm>
-0.137704

>  <SCORE.RESTR>
0

>  <SCORE.RESTR.CAVITY>
0

>  <SCORE.RESTR.norm>
0

>  <SCORE.SYSTEM>
0

>  <SCORE.SYSTEM.CONST>
0

>  <SCORE.SYSTEM.DIHEDRAL>
0

>  <SCORE.SYSTEM.SOLV>
0

>  <SCORE.SYSTEM.norm>
0

>  <SCORE.heavy>
22

>  <SCORE.norm>
-0.486038

>  <RMSD>
6.624

$$$$
lig.pdb
 OpenBabel11021811523D
libRbt.so/2013.1/901 2013/11/27
 22 23  0  0  0  0  0  0  0  0999 V2000
   -4.5601   -5.8203   -2.2929 C   0  0  1  0  0  0  0  0  0  0  0  0
   -6.4786   -4.6309   -1.1544 C   0  0  1  0  0  0  0  0  0  0  0  0
   -6.4244   -3.2112   -1.8744 C   0  0  1  0  0  0  0  0  0  0  0  0
   -7.0887   -2.1399   -0.8965 C   0  0  2  0  0  0  0  0  0  0  0  0
   -4.3762   -7.0224   -3.2985 C   0  0  1  0  0  0  0  0  0  0  0  0
   -4.8839   -8.3033   -2.6072 C   0  0  2  0  0  0  0  0  0  0  0  0
   -4.0663   -8.6027   -1.3382 C   0  0  2  0  0  0  0  0  0  0  0  0
   -4.1763   -7.4273   -0.2996 C   0  0  1  0  0  0  0  0  0  0  0  0
   -3.3070   -7.7007    0.9615 C   0  0  0  0  0  0  0  0  0  0  0  0
   -8.6348   -2.5318   -0.6548 C   0  0  1  0  0  0  0  0  0  0  0  0
   -8.6495   -3.9694    0.0708 C   0  0  0  0  0  0  0  0  0  0  0  0
   -7.9547   -5.0561   -0.8723 C   0  0  2  0  0  0  0  0  0  0  0  0
   -2.6546   -8.8023   -1.6852 F   0  0  0  0  0  0  0  0  0  0  0  0
   -5.1680   -6.7043   -4.5495 N   0  0  0  0  0  0  0  0  0  0  0  0
   -1.9268   -7.8694    0.7062 N   0  0  0  0  0  0  0  0  0  0  0  0
   -9.3008   -1.5583    0.2765 N   0  0  0  0  0  0  0  0  0  0  0  0
   -7.9700   -6.3715   -0.2003 N   0  0  0  0  0  0  0  0  0  0  0  0
   -5.9060   -5.6251   -1.9903 O   0  0  0  0  0  0  0  0  0  0  0  0
   -5.0002   -2.8669   -2.0973 O   0  0  0  0  0  0  0  0  0  0  0  0
   -7.0206   -0.9048   -1.5453 O   0  0  0  0  0  0  0  0  0  0  0  0
   -4.7468   -9.1786   -3.3410 O   0  0  0  0  0  0  0  0  0  0  0  0
   -3.7541   -6.1439   -1.0376 O   0  0  0  0  0  0  0  0  0  0  0  0
  1  5  1  0  0  0  0
  1 18  1  1  0  0  0
  2 18  1  6  0  0  0
  2  3  1  0  0  0  0
  2 12  1  0  0  0  0
  3 19  1  1  0  0  0
  3  4  1  0  0  0  0
  4 20  1  6  0  0  0
  4 10  1  0  0  0  0
  5  6  1  0  0  0  0
  5 14  1  6  0  0  0
  6 21  1  6  0  0  0
  7 13  1  6  0  0  0
  7  6  1  0  0  0  0
  8  9  1  1  0  0  0
  8  7  1  0  0  0  0
 10 16  1  1  0  0  0
 11 10  1  0  0  0  0
 12 17  1  1  0  0  0
 12 11  1  0  0  0  0
 15  9  1  0  0  0  0
 22  8  1  0  0  0  0
 22  1  1  0  0  0  0
M  END
>  <CHROM.1>
-178.40998466,72.84384323,59.40524297,-5.57272459,-5.60020007,-1.37112463
0.22694646,0.91387646,-1.71818717

>  <Name>
lig.pdb

>  <RI>
0

>  <Rbt.Current_Directory>
/home/itssahil/PROJECTS/Mol_Feturizer/New_Systems/rnas/5bws

>  <Rbt.Executable>
rbdock ($Id: //depot/dev/client3/rdock/2013.1/src/exe/rbdock.cxx#4 $)

>  <Rbt.Library>
libRbt.so (2013.1, Build901 2013/11/27)

>  <Rbt.Parameter_File>
/export/apps/rDock/src/rDock_2013.1_src/data/scripts/dock_solv.prm

>  <Rbt.Receptor>
prm/pocket_docking_8.prm

>  <SCORE>
-9.09615

>  <SCORE.INTER>
-6.81589

>  <SCORE.INTER.CONST>
1

>  <SCORE.INTER.POLAR>
0

>  <SCORE.INTER.ROT>
3

>  <SCORE.INTER.SOLV>
16.7282

>  <SCORE.INTER.VDW>
-15.72

>  <SCORE.INTER.norm>
-0.309813

>  <SCORE.INTRA>
-2.28027

>  <SCORE.INTRA.DIHEDRAL>
-5.30784

>  <SCORE.INTRA.DIHEDRAL.0>
6.10773

>  <SCORE.INTRA.POLAR>
0

>  <SCORE.INTRA.POLAR.0>
0

>  <SCORE.INTRA.REPUL>
0

>  <SCORE.INTRA.REPUL.0>
0

>  <SCORE.INTRA.SOLV>
0.369455

>  <SCORE.INTRA.SOLV.lig_0>
-71.4024

>  <SCORE.INTRA.VDW>
0.188927

>  <SCORE.INTRA.VDW.0>
-1.86213

>  <SCORE.INTRA.norm>
-0.103648

>  <SCORE.RESTR>
0

>  <SCORE.RESTR.CAVITY>
0

>  <SCORE.RESTR.norm>
0

>  <SCORE.SYSTEM>
0

>  <SCORE.SYSTEM.CONST>
0

>  <SCORE.SYSTEM.DIHEDRAL>
0

>  <SCORE.SYSTEM.SOLV>
0

>  <SCORE.SYSTEM.norm>
0

>  <SCORE.heavy>
22

>  <SCORE.norm>
-0.413462

>  <RMSD>
6.635

$$$$
lig.pdb
 OpenBabel11021811523D
libRbt.so/2013.1/901 2013/11/27
 22 23  0  0  0  0  0  0  0  0999 V2000
   -6.8714    0.3441   -1.0225 C   0  0  1  0  0  0  0  0  0  0  0  0
   -7.6642   -2.0332   -0.6893 C   0  0  1  0  0  0  0  0  0  0  0  0
   -6.5482   -2.7953   -1.5323 C   0  0  1  0  0  0  0  0  0  0  0  0
   -7.1519   -4.2001   -1.9876 C   0  0  2  0  0  0  0  0  0  0  0  0
   -6.2832    1.5041   -0.1289 C   0  0  1  0  0  0  0  0  0  0  0  0
   -7.3672    1.9202    0.8852 C   0  0  2  0  0  0  0  0  0  0  0  0
   -8.6188    2.4505    0.1637 C   0  0  2  0  0  0  0  0  0  0  0  0
   -9.2425    1.3538   -0.7747 C   0  0  1  0  0  0  0  0  0  0  0  0
  -10.4756    1.9031   -1.5483 C   0  0  0  0  0  0  0  0  0  0  0  0
   -7.4923   -5.0788   -0.6783 C   0  0  1  0  0  0  0  0  0  0  0  0
   -8.6193   -4.2779    0.1477 C   0  0  0  0  0  0  0  0  0  0  0  0
   -8.0537   -2.8488    0.5844 C   0  0  2  0  0  0  0  0  0  0  0  0
   -8.2738    3.6276   -0.6417 F   0  0  0  0  0  0  0  0  0  0  0  0
   -5.0413    0.9750    0.5575 N   0  0  0  0  0  0  0  0  0  0  0  0
  -11.5383    2.3511   -0.7307 N   0  0  0  0  0  0  0  0  0  0  0  0
   -8.0813   -6.4087   -1.0567 N   0  0  0  0  0  0  0  0  0  0  0  0
   -9.0925   -2.1191    1.3398 N   0  0  0  0  0  0  0  0  0  0  0  0
   -7.1720   -0.7761   -0.2506 O   0  0  0  0  0  0  0  0  0  0  0  0
   -6.2394   -1.9747   -2.7271 O   0  0  0  0  0  0  0  0  0  0  0  0
   -6.1598   -4.8435   -2.7311 O   0  0  0  0  0  0  0  0  0  0  0  0
   -6.9371    2.7673    1.5340 O   0  0  0  0  0  0  0  0  0  0  0  0
   -8.1182    0.8861   -1.7167 O   0  0  0  0  0  0  0  0  0  0  0  0
  1  5  1  0  0  0  0
  1 18  1  1  0  0  0
  2 18  1  1  0  0  0
  2  3  1  0  0  0  0
  2 12  1  0  0  0  0
  3 19  1  6  0  0  0
  3  4  1  0  0  0  0
  4 20  1  6  0  0  0
  4 10  1  0  0  0  0
  5  6  1  0  0  0  0
  5 14  1  1  0  0  0
  6 21  1  1  0  0  0
  7 13  1  6  0  0  0
  7  6  1  0  0  0  0
  8  9  1  6  0  0  0
  8  7  1  0  0  0  0
 10 16  1  6  0  0  0
 11 10  1  0  0  0  0
 12 17  1  6  0  0  0
 12 11  1  0  0  0  0
 15  9  1  0  0  0  0
 22  8  1  0  0  0  0
 22  1  1  0  0  0  0
M  END
>  <CHROM.1>
-177.22839285,68.45363115,-60.08690208,-7.76353593,-0.71016208,-0.61289502
-1.71924491,0.00795162,-2.98609103

>  <Name>
lig.pdb

>  <RI>
0

>  <Rbt.Current_Directory>
/home/itssahil/PROJECTS/Mol_Feturizer/New_Systems/rnas/5bws

>  <Rbt.Executable>
rbdock ($Id: //depot/dev/client3/rdock/2013.1/src/exe/rbdock.cxx#4 $)

>  <Rbt.Library>
libRbt.so (2013.1, Build901 2013/11/27)

>  <Rbt.Parameter_File>
/export/apps/rDock/src/rDock_2013.1_src/data/scripts/dock_solv.prm

>  <Rbt.Receptor>
prm/pocket_docking_5.prm

>  <SCORE>
-11.6271

>  <SCORE.INTER>
-8.59446

>  <SCORE.INTER.CONST>
1

>  <SCORE.INTER.POLAR>
0

>  <SCORE.INTER.ROT>
3

>  <SCORE.INTER.SOLV>
15.1974

>  <SCORE.INTER.VDW>
-16.3954

>  <SCORE.INTER.norm>
-0.390657

>  <SCORE.INTRA>
-3.03262

>  <SCORE.INTRA.DIHEDRAL>
-5.72043

>  <SCORE.INTRA.DIHEDRAL.0>
6.10773

>  <SCORE.INTRA.POLAR>
0

>  <SCORE.INTRA.POLAR.0>
0

>  <SCORE.INTRA.REPUL>
0

>  <SCORE.INTRA.REPUL.0>
0

>  <SCORE.INTRA.SOLV>
-0.927765

>  <SCORE.INTRA.SOLV.lig_0>
-71.4024

>  <SCORE.INTRA.VDW>
0.291478

>  <SCORE.INTRA.VDW.0>
-1.86213

>  <SCORE.INTRA.norm>
-0.137846

>  <SCORE.RESTR>
0

>  <SCORE.RESTR.CAVITY>
0

>  <SCORE.RESTR.norm>
0

>  <SCORE.SYSTEM>
0

>  <SCORE.SYSTEM.CONST>
0

>  <SCORE.SYSTEM.DIHEDRAL>
0

>  <SCORE.SYSTEM.SOLV>
0

>  <SCORE.SYSTEM.norm>
0

>  <SCORE.heavy>
22

>  <SCORE.norm>
-0.528504

>  <RMSD>
6.641

$$$$
lig.pdb
 OpenBabel11021811523D
libRbt.so/2013.1/901 2013/11/27
 22 23  0  0  0  0  0  0  0  0999 V2000
   -6.8599    0.4057   -0.9095 C   0  0  1  0  0  0  0  0  0  0  0  0
   -7.6832   -1.9666   -0.6172 C   0  0  1  0  0  0  0  0  0  0  0  0
   -6.5824   -2.7281   -1.4806 C   0  0  1  0  0  0  0  0  0  0  0  0
   -7.2083   -4.1155   -1.9590 C   0  0  2  0  0  0  0  0  0  0  0  0
   -6.2740    1.5493    0.0065 C   0  0  1  0  0  0  0  0  0  0  0  0
   -7.3641    1.9540    1.0186 C   0  0  2  0  0  0  0  0  0  0  0  0
   -8.6080    2.5007    0.2958 C   0  0  2  0  0  0  0  0  0  0  0  0
   -9.2288    1.4213   -0.6643 C   0  0  1  0  0  0  0  0  0  0  0  0
  -10.4537    1.9876   -1.4388 C   0  0  0  0  0  0  0  0  0  0  0  0
   -7.5542   -5.0139   -0.6647 C   0  0  1  0  0  0  0  0  0  0  0  0
   -8.6654   -4.2132    0.1825 C   0  0  0  0  0  0  0  0  0  0  0  0
   -8.0774   -2.8008    0.6430 C   0  0  2  0  0  0  0  0  0  0  0  0
   -8.2520    3.6886   -0.4885 F   0  0  0  0  0  0  0  0  0  0  0  0
   -5.0397    1.0044    0.6942 N   0  0  0  0  0  0  0  0  0  0  0  0
  -11.5500    2.3582   -0.6269 N   0  0  0  0  0  0  0  0  0  0  0  0
   -8.1638   -6.3280   -1.0650 N   0  0  0  0  0  0  0  0  0  0  0  0
   -9.1019   -2.0711    1.4177 N   0  0  0  0  0  0  0  0  0  0  0  0
   -7.1710   -0.7251   -0.1575 O   0  0  0  0  0  0  0  0  0  0  0  0
   -6.2684   -1.8893   -2.6613 O   0  0  0  0  0  0  0  0  0  0  0  0
   -6.2293   -4.7584   -2.7200 O   0  0  0  0  0  0  0  0  0  0  0  0
   -6.9358    2.7892    1.6837 O   0  0  0  0  0  0  0  0  0  0  0  0
   -8.0991    0.9636   -1.6048 O   0  0  0  0  0  0  0  0  0  0  0  0
  1  5  1  0  0  0  0
  1 18  1  1  0  0  0
  2 18  1  1  0  0  0
  2  3  1  0  0  0  0
  2 12  1  0  0  0  0
  3 19  1  6  0  0  0
  3  4  1  0  0  0  0
  4 20  1  6  0  0  0
  4 10  1  0  0  0  0
  5  6  1  0  0  0  0
  5 14  1  1  0  0  0
  6 21  1  1  0  0  0
  7 13  1  6  0  0  0
  7  6  1  0  0  0  0
  8  9  1  6  0  0  0
  8  7  1  0  0  0  0
 10 16  1  6  0  0  0
 11 10  1  0  0  0  0
 12 17  1  6  0  0  0
 12 11  1  0  0  0  0
 15  9  1  0  0  0  0
 22  8  1  0  0  0  0
 22  1  1  0  0  0  0
M  END
>  <CHROM.1>
-178.23214717,68.52191104,-63.44237644,-7.77789017,-0.65151653,-0.52596426
-1.70743942,0.02278047,-2.96735976

>  <Name>
lig.pdb

>  <RI>
0

>  <Rbt.Current_Directory>
/home/itssahil/PROJECTS/Mol_Feturizer/New_Systems/rnas/5bws

>  <Rbt.Executable>
rbdock ($Id: //depot/dev/client3/rdock/2013.1/src/exe/rbdock.cxx#4 $)

>  <Rbt.Library>
libRbt.so (2013.1, Build901 2013/11/27)

>  <Rbt.Parameter_File>
/export/apps/rDock/src/rDock_2013.1_src/data/scripts/dock_solv.prm

>  <Rbt.Receptor>
prm/pocket_docking_5.prm

>  <SCORE>
-11.6307

>  <SCORE.INTER>
-8.55916

>  <SCORE.INTER.CONST>
1

>  <SCORE.INTER.POLAR>
0

>  <SCORE.INTER.ROT>
3

>  <SCORE.INTER.SOLV>
15.0641

>  <SCORE.INTER.VDW>
-16.3275

>  <SCORE.INTER.norm>
-0.389053

>  <SCORE.INTRA>
-3.07155

>  <SCORE.INTRA.DIHEDRAL>
-5.6943

>  <SCORE.INTRA.DIHEDRAL.0>
6.10773

>  <SCORE.INTRA.POLAR>
0

>  <SCORE.INTRA.POLAR.0>
0

>  <SCORE.INTRA.REPUL>
0

>  <SCORE.INTRA.REPUL.0>
0

>  <SCORE.INTRA.SOLV>
-1.00512

>  <SCORE.INTRA.SOLV.lig_0>
-71.4024

>  <SCORE.INTRA.VDW>
0.27816

>  <SCORE.INTRA.VDW.0>
-1.86213

>  <SCORE.INTRA.norm>
-0.139616

>  <SCORE.RESTR>
0

>  <SCORE.RESTR.CAVITY>
0

>  <SCORE.RESTR.norm>
0

>  <SCORE.SYSTEM>
0

>  <SCORE.SYSTEM.CONST>
0

>  <SCORE.SYSTEM.DIHEDRAL>
0

>  <SCORE.SYSTEM.SOLV>
0

>  <SCORE.SYSTEM.norm>
0

>  <SCORE.heavy>
22

>  <SCORE.norm>
-0.528669

>  <RMSD>
6.644

$$$$
lig.pdb
 OpenBabel11021811523D
libRbt.so/2013.1/901 2013/11/27
 22 23  0  0  0  0  0  0  0  0999 V2000
   -6.9000    0.3045   -1.0052 C   0  0  1  0  0  0  0  0  0  0  0  0
   -7.6850   -2.0784   -0.6942 C   0  0  1  0  0  0  0  0  0  0  0  0
   -6.5636   -2.8433   -1.5275 C   0  0  1  0  0  0  0  0  0  0  0  0
   -7.1698   -4.2428   -1.9956 C   0  0  2  0  0  0  0  0  0  0  0  0
   -6.3366    1.4660   -0.0977 C   0  0  1  0  0  0  0  0  0  0  0  0
   -7.4353    1.8583    0.9100 C   0  0  2  0  0  0  0  0  0  0  0  0
   -8.6882    2.3760    0.1816 C   0  0  2  0  0  0  0  0  0  0  0  0
   -9.2877    1.2777   -0.7706 C   0  0  1  0  0  0  0  0  0  0  0  0
  -10.5220    1.8149   -1.5508 C   0  0  0  0  0  0  0  0  0  0  0  0
   -7.5301   -5.1249   -0.6939 C   0  0  1  0  0  0  0  0  0  0  0  0
   -8.6621   -4.3212    0.1224 C   0  0  0  0  0  0  0  0  0  0  0  0
   -8.0936   -2.8971    0.5716 C   0  0  2  0  0  0  0  0  0  0  0  0
   -8.3535    3.5641   -0.6118 F   0  0  0  0  0  0  0  0  0  0  0  0
   -5.0931    0.9497    0.5955 N   0  0  0  0  0  0  0  0  0  0  0  0
  -11.5891    2.2623   -0.7387 N   0  0  0  0  0  0  0  0  0  0  0  0
   -8.1220   -6.4499   -1.0847 N   0  0  0  0  0  0  0  0  0  0  0  0
   -9.1370   -2.1648    1.3180 N   0  0  0  0  0  0  0  0  0  0  0  0
   -7.1909   -0.8259   -0.2445 O   0  0  0  0  0  0  0  0  0  0  0  0
   -6.2365   -2.0194   -2.7152 O   0  0  0  0  0  0  0  0  0  0  0  0
   -6.1728   -4.8886   -2.7304 O   0  0  0  0  0  0  0  0  0  0  0  0
   -7.0233    2.7066    1.5689 O   0  0  0  0  0  0  0  0  0  0  0  0
   -8.1485    0.8336   -1.7062 O   0  0  0  0  0  0  0  0  0  0  0  0
  1  5  1  0  0  0  0
  1 18  1  1  0  0  0
  2 18  1  1  0  0  0
  2  3  1  0  0  0  0
  2 12  1  0  0  0  0
  3 19  1  6  0  0  0
  3  4  1  0  0  0  0
  4 20  1  6  0  0  0
  4 10  1  0  0  0  0
  5  6  1  0  0  0  0
  5 14  1  1  0  0  0
  6 21  1  1  0  0  0
  7 13  1  6  0  0  0
  7  6  1  0  0  0  0
  8  9  1  6  0  0  0
  8  7  1  0  0  0  0
 10 16  1  6  0  0  0
 11 10  1  0  0  0  0
 12 17  1  6  0  0  0
 12 11  1  0  0  0  0
 15  9  1  0  0  0  0
 22  8  1  0  0  0  0
 22  1  1  0  0  0  0
M  END
>  <CHROM.1>
-178.54178464,69.83386838,-59.05516660,-7.80466347,-0.76343500,-0.60749966
-1.72393870,0.01343074,-2.97888706

>  <Name>
lig.pdb

>  <RI>
0

>  <Rbt.Current_Directory>
/home/itssahil/PROJECTS/Mol_Feturizer/New_Systems/rnas/5bws

>  <Rbt.Executable>
rbdock ($Id: //depot/dev/client3/rdock/2013.1/src/exe/rbdock.cxx#4 $)

>  <Rbt.Library>
libRbt.so (2013.1, Build901 2013/11/27)

>  <Rbt.Parameter_File>
/export/apps/rDock/src/rDock_2013.1_src/data/scripts/dock_solv.prm

>  <Rbt.Receptor>
prm/pocket_docking_8.prm

>  <SCORE>
-11.6478

>  <SCORE.INTER>
-8.66324

>  <SCORE.INTER.CONST>
1

>  <SCORE.INTER.POLAR>
0

>  <SCORE.INTER.ROT>
3

>  <SCORE.INTER.SOLV>
15.634

>  <SCORE.INTER.VDW>
-16.5868

>  <SCORE.INTER.norm>
-0.393784

>  <SCORE.INTRA>
-2.98457

>  <SCORE.INTRA.DIHEDRAL>
-5.62491

>  <SCORE.INTRA.DIHEDRAL.0>
6.10773

>  <SCORE.INTRA.POLAR>
0

>  <SCORE.INTRA.POLAR.0>
0

>  <SCORE.INTRA.REPUL>
0

>  <SCORE.INTRA.REPUL.0>
0

>  <SCORE.INTRA.SOLV>
-0.876607

>  <SCORE.INTRA.SOLV.lig_0>
-71.4024

>  <SCORE.INTRA.VDW>
0.26619

>  <SCORE.INTRA.VDW.0>
-1.86213

>  <SCORE.INTRA.norm>
-0.135662

>  <SCORE.RESTR>
0

>  <SCORE.RESTR.CAVITY>
0

>  <SCORE.RESTR.norm>
0

>  <SCORE.SYSTEM>
0

>  <SCORE.SYSTEM.CONST>
0

>  <SCORE.SYSTEM.DIHEDRAL>
0

>  <SCORE.SYSTEM.SOLV>
0

>  <SCORE.SYSTEM.norm>
0

>  <SCORE.heavy>
22

>  <SCORE.norm>
-0.529446

>  <RMSD>
6.647

$$$$
lig.pdb
 OpenBabel11021811523D
libRbt.so/2013.1/901 2013/11/27
 22 23  0  0  0  0  0  0  0  0999 V2000
   -6.7820    0.3459   -0.8682 C   0  0  1  0  0  0  0  0  0  0  0  0
   -7.6107   -2.0301   -0.6251 C   0  0  1  0  0  0  0  0  0  0  0  0
   -6.5323   -2.8069   -1.5028 C   0  0  1  0  0  0  0  0  0  0  0  0
   -7.1967   -4.1681   -2.0039 C   0  0  2  0  0  0  0  0  0  0  0  0
   -6.1496    1.4527    0.0620 C   0  0  1  0  0  0  0  0  0  0  0  0
   -7.1907    1.8229    1.1370 C   0  0  2  0  0  0  0  0  0  0  0  0
   -8.4634    2.4000    0.4925 C   0  0  2  0  0  0  0  0  0  0  0  0
   -9.1324    1.3590   -0.4777 C   0  0  1  0  0  0  0  0  0  0  0  0
  -10.3885    1.9576   -1.1740 C   0  0  0  0  0  0  0  0  0  0  0  0
   -7.5661   -5.0785   -0.7245 C   0  0  1  0  0  0  0  0  0  0  0  0
   -8.6540   -4.2619    0.1376 C   0  0  0  0  0  0  0  0  0  0  0  0
   -8.0268   -2.8743    0.6213 C   0  0  2  0  0  0  0  0  0  0  0  0
   -8.1377    3.6152   -0.2627 F   0  0  0  0  0  0  0  0  0  0  0  0
   -4.8879    0.8787    0.6720 N   0  0  0  0  0  0  0  0  0  0  0  0
  -11.4227    2.3532   -0.2952 N   0  0  0  0  0  0  0  0  0  0  0  0
   -8.2121   -6.3683   -1.1462 N   0  0  0  0  0  0  0  0  0  0  0  0
   -9.0300   -2.1299    1.4097 N   0  0  0  0  0  0  0  0  0  0  0  0
   -7.0641   -0.8111   -0.1451 O   0  0  0  0  0  0  0  0  0  0  0  0
   -6.1962   -1.9572   -2.6696 O   0  0  0  0  0  0  0  0  0  0  0  0
   -6.2365   -4.8249   -2.7770 O   0  0  0  0  0  0  0  0  0  0  0  0
   -6.7285    2.6313    1.8125 O   0  0  0  0  0  0  0  0  0  0  0  0
   -8.0488    0.9332   -1.4850 O   0  0  0  0  0  0  0  0  0  0  0  0
  1  5  1  0  0  0  0
  1 18  1  1  0  0  0
  2 18  1  1  0  0  0
  2  3  1  0  0  0  0
  2 12  1  0  0  0  0
  3 19  1  6  0  0  0
  3  4  1  0  0  0  0
  4 20  1  6  0  0  0
  4 10  1  0  0  0  0
  5  6  1  0  0  0  0
  5 14  1  1  0  0  0
  6 21  1  1  0  0  0
  7 13  1  6  0  0  0
  7  6  1  0  0  0  0
  8  9  1  6  0  0  0
  8  7  1  0  0  0  0
 10 16  1  6  0  0  0
 11 10  1  0  0  0  0
 12 17  1  6  0  0  0
 12 11  1  0  0  0  0
 15  9  1  0  0  0  0
 22  8  1  0  0  0  0
 22  1  1  0  0  0  0
M  END
>  <CHROM.1>
-178.68685423,71.88787798,-60.90320085,-7.69924781,-0.72318538,-0.46421302
-1.69151404,-0.04026184,-2.93954346

>  <Name>
lig.pdb

>  <RI>
0

>  <Rbt.Current_Directory>
/home/itssahil/PROJECTS/Mol_Feturizer/New_Systems/rnas/5bws

>  <Rbt.Executable>
rbdock ($Id: //depot/dev/client3/rdock/2013.1/src/exe/rbdock.cxx#4 $)

>  <Rbt.Library>
libRbt.so (2013.1, Build901 2013/11/27)

>  <Rbt.Parameter_File>
/export/apps/rDock/src/rDock_2013.1_src/data/scripts/dock_solv.prm

>  <Rbt.Receptor>
prm/pocket_docking_7.prm

>  <SCORE>
-11.6031

>  <SCORE.INTER>
-8.68503

>  <SCORE.INTER.CONST>
1

>  <SCORE.INTER.POLAR>
0

>  <SCORE.INTER.ROT>
3

>  <SCORE.INTER.SOLV>
14.2367

>  <SCORE.INTER.VDW>
-16.1356

>  <SCORE.INTER.norm>
-0.394774

>  <SCORE.INTRA>
-2.91805

>  <SCORE.INTRA.DIHEDRAL>
-5.41872

>  <SCORE.INTRA.DIHEDRAL.0>
6.10773

>  <SCORE.INTRA.POLAR>
0

>  <SCORE.INTRA.POLAR.0>
0

>  <SCORE.INTRA.REPUL>
0

>  <SCORE.INTRA.REPUL.0>
0

>  <SCORE.INTRA.SOLV>
-0.865684

>  <SCORE.INTRA.SOLV.lig_0>
-71.4024

>  <SCORE.INTRA.VDW>
0.224153

>  <SCORE.INTRA.VDW.0>
-1.86213

>  <SCORE.INTRA.norm>
-0.132639

>  <SCORE.RESTR>
0

>  <SCORE.RESTR.CAVITY>
0

>  <SCORE.RESTR.norm>
0

>  <SCORE.SYSTEM>
0

>  <SCORE.SYSTEM.CONST>
0

>  <SCORE.SYSTEM.DIHEDRAL>
0

>  <SCORE.SYSTEM.SOLV>
0

>  <SCORE.SYSTEM.norm>
0

>  <SCORE.heavy>
22

>  <SCORE.norm>
-0.527413

>  <RMSD>
6.648

$$$$
lig.pdb
 OpenBabel11021811523D
libRbt.so/2013.1/901 2013/11/27
 22 23  0  0  0  0  0  0  0  0999 V2000
   -6.8501    0.2741   -0.9524 C   0  0  1  0  0  0  0  0  0  0  0  0
   -7.6313   -2.1118   -0.6547 C   0  0  1  0  0  0  0  0  0  0  0  0
   -6.5472   -2.8794   -1.5337 C   0  0  1  0  0  0  0  0  0  0  0  0
   -7.1869   -4.2639   -2.0019 C   0  0  2  0  0  0  0  0  0  0  0  0
   -6.2183    1.4063   -0.0529 C   0  0  1  0  0  0  0  0  0  0  0  0
   -7.2479    1.7835    1.0307 C   0  0  2  0  0  0  0  0  0  0  0  0
   -8.5375    2.3320    0.3948 C   0  0  2  0  0  0  0  0  0  0  0  0
   -9.2073    1.2644   -0.5453 C   0  0  1  0  0  0  0  0  0  0  0  0
  -10.4814    1.8337   -1.2336 C   0  0  0  0  0  0  0  0  0  0  0  0
   -7.5181   -5.1598   -0.7020 C   0  0  1  0  0  0  0  0  0  0  0  0
   -8.6128   -4.3530    0.1608 C   0  0  0  0  0  0  0  0  0  0  0  0
   -8.0111   -2.9432    0.6117 C   0  0  2  0  0  0  0  0  0  0  0  0
   -8.2389    3.5368   -0.3879 F   0  0  0  0  0  0  0  0  0  0  0  0
   -4.9403    0.8600    0.5485 N   0  0  0  0  0  0  0  0  0  0  0  0
  -11.4949    2.2618   -0.3458 N   0  0  0  0  0  0  0  0  0  0  0  0
   -8.1401   -6.4711   -1.0924 N   0  0  0  0  0  0  0  0  0  0  0  0
   -9.0204   -2.2080    1.4009 N   0  0  0  0  0  0  0  0  0  0  0  0
   -7.1063   -0.8726   -0.2035 O   0  0  0  0  0  0  0  0  0  0  0  0
   -6.2464   -2.0429   -2.7195 O   0  0  0  0  0  0  0  0  0  0  0  0
   -6.2224   -4.9122   -2.7768 O   0  0  0  0  0  0  0  0  0  0  0  0
   -6.7862    2.6104    1.6837 O   0  0  0  0  0  0  0  0  0  0  0  0
   -8.1335    0.8333   -1.5608 O   0  0  0  0  0  0  0  0  0  0  0  0
  1  5  1  0  0  0  0
  1 18  1  1  0  0  0
  2 18  1  1  0  0  0
  2  3  1  0  0  0  0
  2 12  1  0  0  0  0
  3 19  1  6  0  0  0
  3  4  1  0  0  0  0
  4 20  1  6  0  0  0
  4 10  1  0  0  0  0
  5  6  1  0  0  0  0
  5 14  1  1  0  0  0
  6 21  1  1  0  0  0
  7 13  1  6  0  0  0
  7  6  1  0  0  0  0
  8  9  1  6  0  0  0
  8  7  1  0  0  0  0
 10 16  1  6  0  0  0
 11 10  1  0  0  0  0
 12 17  1  6  0  0  0
 12 11  1  0  0  0  0
 15  9  1  0  0  0  0
 22  8  1  0  0  0  0
 22  1  1  0  0  0  0
M  END
>  <CHROM.1>
-177.97221968,71.30173470,-59.48890469,-7.73356905,-0.79866780,-0.51663149
-1.70755861,-0.05807221,-2.95936590

>  <Name>
lig.pdb

>  <RI>
0

>  <Rbt.Current_Directory>
/home/itssahil/PROJECTS/Mol_Feturizer/New_Systems/rnas/5bws

>  <Rbt.Executable>
rbdock ($Id: //depot/dev/client3/rdock/2013.1/src/exe/rbdock.cxx#4 $)

>  <Rbt.Library>
libRbt.so (2013.1, Build901 2013/11/27)

>  <Rbt.Parameter_File>
/export/apps/rDock/src/rDock_2013.1_src/data/scripts/dock_solv.prm

>  <Rbt.Receptor>
prm/pocket_docking_7.prm

>  <SCORE>
-11.5827

>  <SCORE.INTER>
-8.66389

>  <SCORE.INTER.CONST>
1

>  <SCORE.INTER.POLAR>
0

>  <SCORE.INTER.ROT>
3

>  <SCORE.INTER.SOLV>
14.8095

>  <SCORE.INTER.VDW>
-16.3124

>  <SCORE.INTER.norm>
-0.393813

>  <SCORE.INTRA>
-2.91881

>  <SCORE.INTRA.DIHEDRAL>
-5.47208

>  <SCORE.INTRA.DIHEDRAL.0>
6.10773

>  <SCORE.INTRA.POLAR>
0

>  <SCORE.INTRA.POLAR.0>
0

>  <SCORE.INTRA.REPUL>
0

>  <SCORE.INTRA.REPUL.0>
0

>  <SCORE.INTRA.SOLV>
-0.846519

>  <SCORE.INTRA.SOLV.lig_0>
-71.4024

>  <SCORE.INTRA.VDW>
0.240492

>  <SCORE.INTRA.VDW.0>
-1.86213

>  <SCORE.INTRA.norm>
-0.132673

>  <SCORE.RESTR>
0

>  <SCORE.RESTR.CAVITY>
0

>  <SCORE.RESTR.norm>
0

>  <SCORE.SYSTEM>
0

>  <SCORE.SYSTEM.CONST>
0

>  <SCORE.SYSTEM.DIHEDRAL>
0

>  <SCORE.SYSTEM.SOLV>
0

>  <SCORE.SYSTEM.norm>
0

>  <SCORE.heavy>
22

>  <SCORE.norm>
-0.526486

>  <RMSD>
6.648

$$$$
lig.pdb
 OpenBabel11021811523D
libRbt.so/2013.1/901 2013/11/27
 22 23  0  0  0  0  0  0  0  0999 V2000
   -6.9184    0.3552   -1.0441 C   0  0  1  0  0  0  0  0  0  0  0  0
   -7.6766   -2.0371   -0.7387 C   0  0  1  0  0  0  0  0  0  0  0  0
   -6.5691   -2.8154   -1.5781 C   0  0  1  0  0  0  0  0  0  0  0  0
   -7.1949   -4.2072   -2.0434 C   0  0  2  0  0  0  0  0  0  0  0  0
   -6.3535    1.5160   -0.1367 C   0  0  1  0  0  0  0  0  0  0  0  0
   -7.4312    1.8722    0.9064 C   0  0  2  0  0  0  0  0  0  0  0  0
   -8.7143    2.3734    0.2203 C   0  0  2  0  0  0  0  0  0  0  0  0
   -9.3178    1.2756   -0.7298 C   0  0  1  0  0  0  0  0  0  0  0  0
  -10.5842    1.7974   -1.4679 C   0  0  0  0  0  0  0  0  0  0  0  0
   -7.5592   -5.0853   -0.7402 C   0  0  1  0  0  0  0  0  0  0  0  0
   -8.6768   -4.2680    0.0823 C   0  0  0  0  0  0  0  0  0  0  0  0
   -8.0886   -2.8512    0.5289 C   0  0  2  0  0  0  0  0  0  0  0  0
   -8.4262    3.5786   -0.5656 F   0  0  0  0  0  0  0  0  0  0  0  0
   -5.0808    1.0164    0.5145 N   0  0  0  0  0  0  0  0  0  0  0  0
  -11.6354    2.2159   -0.6204 N   0  0  0  0  0  0  0  0  0  0  0  0
   -8.1693   -6.4028   -1.1283 N   0  0  0  0  0  0  0  0  0  0  0  0
   -9.1190   -2.1064    1.2811 N   0  0  0  0  0  0  0  0  0  0  0  0
   -7.1648   -0.7909   -0.2913 O   0  0  0  0  0  0  0  0  0  0  0  0
   -6.2382   -1.9951   -2.7673 O   0  0  0  0  0  0  0  0  0  0  0  0
   -6.2098   -4.8649   -2.7837 O   0  0  0  0  0  0  0  0  0  0  0  0
   -7.0182    2.7200    1.5653 O   0  0  0  0  0  0  0  0  0  0  0  0
   -8.1966    0.8676   -1.7028 O   0  0  0  0  0  0  0  0  0  0  0  0
  1  5  1  0  0  0  0
  1 18  1  1  0  0  0
  2 18  1  1  0  0  0
  2  3  1  0  0  0  0
  2 12  1  0  0  0  0
  3 19  1  6  0  0  0
  3  4  1  0  0  0  0
  4 20  1  6  0  0  0
  4 10  1  0  0  0  0
  5  6  1  0  0  0  0
  5 14  1  1  0  0  0
  6 21  1  1  0  0  0
  7 13  1  6  0  0  0
  7  6  1  0  0  0  0
  8  9  1  6  0  0  0
  8  7  1  0  0  0  0
 10 16  1  6  0  0  0
 11 10  1  0  0  0  0
 12 17  1  6  0  0  0
 12 11  1  0  0  0  0
 15  9  1  0  0  0  0
 22  8  1  0  0  0  0
 22  1  1  0  0  0  0
M  END
>  <CHROM.1>
179.77204067,72.87586414,-58.86525682,-7.82375270,-0.73618463,-0.62221389
-1.72513345,-0.02599426,-2.97044098

>  <Name>
lig.pdb

>  <RI>
0

>  <Rbt.Current_Directory>
/home/itssahil/PROJECTS/Mol_Feturizer/New_Systems/rnas/5bws

>  <Rbt.Executable>
rbdock ($Id: //depot/dev/client3/rdock/2013.1/src/exe/rbdock.cxx#4 $)

>  <Rbt.Library>
libRbt.so (2013.1, Build901 2013/11/27)

>  <Rbt.Parameter_File>
/export/apps/rDock/src/rDock_2013.1_src/data/scripts/dock_solv.prm

>  <Rbt.Receptor>
prm/pocket_docking_7.prm

>  <SCORE>
-11.6307

>  <SCORE.INTER>
-8.79055

>  <SCORE.INTER.CONST>
1

>  <SCORE.INTER.POLAR>
0

>  <SCORE.INTER.ROT>
3

>  <SCORE.INTER.SOLV>
15.6629

>  <SCORE.INTER.VDW>
-16.6813

>  <SCORE.INTER.norm>
-0.39957

>  <SCORE.INTRA>
-2.84017

>  <SCORE.INTRA.DIHEDRAL>
-5.31307

>  <SCORE.INTRA.DIHEDRAL.0>
6.10773

>  <SCORE.INTRA.POLAR>
0

>  <SCORE.INTRA.POLAR.0>
0

>  <SCORE.INTRA.REPUL>
0

>  <SCORE.INTRA.REPUL.0>
0

>  <SCORE.INTRA.SOLV>
-0.787356

>  <SCORE.INTRA.SOLV.lig_0>
-71.4024

>  <SCORE.INTRA.VDW>
0.210041

>  <SCORE.INTRA.VDW.0>
-1.86213

>  <SCORE.INTRA.norm>
-0.129099

>  <SCORE.RESTR>
0

>  <SCORE.RESTR.CAVITY>
0

>  <SCORE.RESTR.norm>
0

>  <SCORE.SYSTEM>
0

>  <SCORE.SYSTEM.CONST>
0

>  <SCORE.SYSTEM.DIHEDRAL>
0

>  <SCORE.SYSTEM.SOLV>
0

>  <SCORE.SYSTEM.norm>
0

>  <SCORE.heavy>
22

>  <SCORE.norm>
-0.528669

>  <RMSD>
6.658

$$$$
lig.pdb
 OpenBabel11021811523D
libRbt.so/2013.1/901 2013/11/27
 22 23  0  0  0  0  0  0  0  0999 V2000
   -6.7226    0.7705   -0.2014 C   0  0  1  0  0  0  0  0  0  0  0  0
   -7.5911   -1.5997   -0.0635 C   0  0  1  0  0  0  0  0  0  0  0  0
   -6.6614   -2.3034   -1.1486 C   0  0  1  0  0  0  0  0  0  0  0  0
   -7.4230   -3.6011   -1.6790 C   0  0  2  0  0  0  0  0  0  0  0  0
   -5.7019    1.6610    0.6081 C   0  0  1  0  0  0  0  0  0  0  0  0
   -6.3339    1.9853    1.9762 C   0  0  2  0  0  0  0  0  0  0  0  0
   -7.6400    2.7805    1.8025 C   0  0  2  0  0  0  0  0  0  0  0  0
   -8.6972    1.9643    0.9727 C   0  0  1  0  0  0  0  0  0  0  0  0
   -9.9990    2.7861    0.7472 C   0  0  0  0  0  0  0  0  0  0  0  0
   -7.6409   -4.6250   -0.4516 C   0  0  1  0  0  0  0  0  0  0  0  0
   -8.5810   -3.8801    0.6231 C   0  0  0  0  0  0  0  0  0  0  0  0
   -7.8580   -2.5539    1.1439 C   0  0  2  0  0  0  0  0  0  0  0  0
   -7.3691    4.0480    1.1147 F   0  0  0  0  0  0  0  0  0  0  0  0
   -4.4155    0.8750    0.7525 N   0  0  0  0  0  0  0  0  0  0  0  0
  -11.0229    2.0988    0.0559 N   0  0  0  0  0  0  0  0  0  0  0  0
   -8.3717   -5.8595   -0.8996 N   0  0  0  0  0  0  0  0  0  0  0  0
   -8.7260   -1.8749    2.1276 N   0  0  0  0  0  0  0  0  0  0  0  0
   -6.9528   -0.4400    0.4489 O   0  0  0  0  0  0  0  0  0  0  0  0
   -6.4630   -1.3503   -2.2661 O   0  0  0  0  0  0  0  0  0  0  0  0
   -6.5932   -4.1937   -2.6337 O   0  0  0  0  0  0  0  0  0  0  0  0
   -5.5892    2.6363    2.5636 O   0  0  0  0  0  0  0  0  0  0  0  0
   -8.0138    1.5710   -0.3496 O   0  0  0  0  0  0  0  0  0  0  0  0
  1  5  1  0  0  0  0
  1 18  1  1  0  0  0
  2 18  1  1  0  0  0
  2  3  1  0  0  0  0
  2 12  1  0  0  0  0
  3 19  1  6  0  0  0
  3  4  1  0  0  0  0
  4 20  1  6  0  0  0
  4 10  1  0  0  0  0
  5  6  1  0  0  0  0
  5 14  1  1  0  0  0
  6 21  1  1  0  0  0
  7 13  1  6  0  0  0
  7  6  1  0  0  0  0
  8  9  1  6  0  0  0
  8  7  1  0  0  0  0
 10 16  1  6  0  0  0
 11 10  1  0  0  0  0
 12 17  1  1  0  0  0
 12 11  1  0  0  0  0
 15  9  1  0  0  0  0
 22  8  1  0  0  0  0
 22  1  1  0  0  0  0
M  END
>  <CHROM.1>
-166.94522565,70.85642631,-177.44833670,-7.45373551,-0.33656664,0.22874327
-1.56023847,-0.09131722,-2.82570442

>  <Name>
lig.pdb

>  <RI>
0

>  <Rbt.Current_Directory>
/home/itssahil/PROJECTS/Mol_Feturizer/New_Systems/rnas/5bws

>  <Rbt.Executable>
rbdock ($Id: //depot/dev/client3/rdock/2013.1/src/exe/rbdock.cxx#4 $)

>  <Rbt.Library>
libRbt.so (2013.1, Build901 2013/11/27)

>  <Rbt.Parameter_File>
/export/apps/rDock/src/rDock_2013.1_src/data/scripts/dock_solv.prm

>  <Rbt.Receptor>
prm/pocket_docking_7.prm

>  <SCORE>
-10.4074

>  <SCORE.INTER>
-7.63435

>  <SCORE.INTER.CONST>
1

>  <SCORE.INTER.POLAR>
0

>  <SCORE.INTER.ROT>
3

>  <SCORE.INTER.SOLV>
15.3984

>  <SCORE.INTER.VDW>
-15.8224

>  <SCORE.INTER.norm>
-0.347016

>  <SCORE.INTRA>
-2.77309

>  <SCORE.INTRA.DIHEDRAL>
-4.70727

>  <SCORE.INTRA.DIHEDRAL.0>
6.10773

>  <SCORE.INTRA.POLAR>
0

>  <SCORE.INTRA.POLAR.0>
0

>  <SCORE.INTRA.REPUL>
0

>  <SCORE.INTRA.REPUL.0>
0

>  <SCORE.INTRA.SOLV>
-1.33612

>  <SCORE.INTRA.SOLV.lig_0>
-71.4024

>  <SCORE.INTRA.VDW>
0.248601

>  <SCORE.INTRA.VDW.0>
-1.86213

>  <SCORE.INTRA.norm>
-0.12605

>  <SCORE.RESTR>
0

>  <SCORE.RESTR.CAVITY>
0

>  <SCORE.RESTR.norm>
0

>  <SCORE.SYSTEM>
0

>  <SCORE.SYSTEM.CONST>
0

>  <SCORE.SYSTEM.DIHEDRAL>
0

>  <SCORE.SYSTEM.SOLV>
0

>  <SCORE.SYSTEM.norm>
0

>  <SCORE.heavy>
22

>  <SCORE.norm>
-0.473066

>  <RMSD>
6.658

$$$$
lig.pdb
 OpenBabel11021811523D
libRbt.so/2013.1/901 2013/11/27
 22 23  0  0  0  0  0  0  0  0999 V2000
   -4.4958    1.3756    1.1126 C   0  0  1  0  0  0  0  0  0  0  0  0
   -5.1970   -1.0490    1.2574 C   0  0  1  0  0  0  0  0  0  0  0  0
   -6.3907   -0.8914    0.2147 C   0  0  1  0  0  0  0  0  0  0  0  0
   -6.7275   -2.3383   -0.3671 C   0  0  2  0  0  0  0  0  0  0  0  0
   -3.0642    1.8747    1.5503 C   0  0  1  0  0  0  0  0  0  0  0  0
   -3.1206    2.2263    3.0502 C   0  0  2  0  0  0  0  0  0  0  0  0
   -4.1299    3.3585    3.3107 C   0  0  2  0  0  0  0  0  0  0  0  0
   -5.5795    2.9424    2.8659 C   0  0  1  0  0  0  0  0  0  0  0  0
   -6.5932    4.1039    3.0760 C   0  0  0  0  0  0  0  0  0  0  0  0
   -5.4368   -2.9072   -1.1498 C   0  0  1  0  0  0  0  0  0  0  0  0
   -4.2535   -3.0508   -0.0669 C   0  0  0  0  0  0  0  0  0  0  0  0
   -3.9209   -1.6197    0.5608 C   0  0  2  0  0  0  0  0  0  0  0  0
   -3.7329    4.5647    2.5755 F   0  0  0  0  0  0  0  0  0  0  0  0
   -2.0793    0.7594    1.2685 N   0  0  0  0  0  0  0  0  0  0  0  0
   -6.2731    5.3017    2.3967 N   0  0  0  0  0  0  0  0  0  0  0  0
   -5.7005   -4.2794   -1.7030 N   0  0  0  0  0  0  0  0  0  0  0  0
   -2.8363   -1.7588    1.5541 N   0  0  0  0  0  0  0  0  0  0  0  0
   -4.8511    0.2166    1.7994 O   0  0  0  0  0  0  0  0  0  0  0  0
   -7.5667   -0.3614    0.9444 O   0  0  0  0  0  0  0  0  0  0  0  0
   -7.7809   -2.1748   -1.2697 O   0  0  0  0  0  0  0  0  0  0  0  0
   -2.0768    2.5919    3.3665 O   0  0  0  0  0  0  0  0  0  0  0  0
   -5.4821    2.5065    1.3925 O   0  0  0  0  0  0  0  0  0  0  0  0
  1  5  1  0  0  0  0
  1 18  1  1  0  0  0
  2 18  1  6  0  0  0
  2  3  1  0  0  0  0
  2 12  1  0  0  0  0
  3 19  1  1  0  0  0
  3  4  1  0  0  0  0
  4 20  1  6  0  0  0
  4 10  1  0  0  0  0
  5  6  1  0  0  0  0
  5 14  1  1  0  0  0
  6 21  1  6  0  0  0
  7 13  1  6  0  0  0
  7  6  1  0  0  0  0
  8  9  1  6  0  0  0
  8  7  1  0  0  0  0
 10 16  1  1  0  0  0
 11 10  1  0  0  0  0
 12 17  1  1  0  0  0
 12 11  1  0  0  0  0
 15  9  1  0  0  0  0
 22  8  1  0  0  0  0
 22  1  1  0  0  0  0
M  END
>  <CHROM.1>
-121.89001626,-54.85354165,57.80222135,-4.88231187,0.59044276,1.28206399
-1.36436826,0.24014119,-2.70932122

>  <Name>
lig.pdb

>  <RI>
0

>  <Rbt.Current_Directory>
/home/itssahil/PROJECTS/Mol_Feturizer/New_Systems/rnas/5bws

>  <Rbt.Executable>
rbdock ($Id: //depot/dev/client3/rdock/2013.1/src/exe/rbdock.cxx#4 $)

>  <Rbt.Library>
libRbt.so (2013.1, Build901 2013/11/27)

>  <Rbt.Parameter_File>
/export/apps/rDock/src/rDock_2013.1_src/data/scripts/dock_solv.prm

>  <Rbt.Receptor>
prm/blind_docking_20.prm

>  <SCORE>
-3.09782

>  <SCORE.INTER>
-6.44658

>  <SCORE.INTER.CONST>
1

>  <SCORE.INTER.POLAR>
0

>  <SCORE.INTER.ROT>
3

>  <SCORE.INTER.SOLV>
20.5096

>  <SCORE.INTER.VDW>
-16.7343

>  <SCORE.INTER.norm>
-0.293026

>  <SCORE.INTRA>
3.29205

>  <SCORE.INTRA.DIHEDRAL>
1.22379

>  <SCORE.INTRA.DIHEDRAL.0>
6.10773

>  <SCORE.INTRA.POLAR>
0

>  <SCORE.INTRA.POLAR.0>
0

>  <SCORE.INTRA.REPUL>
0

>  <SCORE.INTRA.REPUL.0>
0

>  <SCORE.INTRA.SOLV>
4.29673

>  <SCORE.INTRA.SOLV.lig_0>
-71.4024

>  <SCORE.INTRA.VDW>
0.531788

>  <SCORE.INTRA.VDW.0>
-1.86213

>  <SCORE.INTRA.norm>
0.149639

>  <SCORE.RESTR>
0.0567107

>  <SCORE.RESTR.CAVITY>
0.0567107

>  <SCORE.RESTR.norm>
0.00257776

>  <SCORE.SYSTEM>
0

>  <SCORE.SYSTEM.CONST>
0

>  <SCORE.SYSTEM.DIHEDRAL>
0

>  <SCORE.SYSTEM.SOLV>
0

>  <SCORE.SYSTEM.norm>
0

>  <SCORE.heavy>
22

>  <SCORE.norm>
-0.14081

>  <RMSD>
6.684

$$$$
lig.pdb
 OpenBabel11021811523D
libRbt.so/2013.1/901 2013/11/27
 22 23  0  0  0  0  0  0  0  0999 V2000
   -8.3037   -0.8482   -0.9154 C   0  0  1  0  0  0  0  0  0  0  0  0
   -7.0135   -2.9964   -0.5815 C   0  0  1  0  0  0  0  0  0  0  0  0
   -8.2912   -3.8583   -0.1794 C   0  0  1  0  0  0  0  0  0  0  0  0
   -7.9470   -5.3947   -0.4373 C   0  0  2  0  0  0  0  0  0  0  0  0
   -7.9851    0.6923   -0.7910 C   0  0  1  0  0  0  0  0  0  0  0  0
   -7.8845    1.0382    0.7078 C   0  0  2  0  0  0  0  0  0  0  0  0
   -9.2166    0.7586    1.4260 C   0  0  2  0  0  0  0  0  0  0  0  0
   -9.6161   -0.7580    1.3145 C   0  0  1  0  0  0  0  0  0  0  0  0
  -10.9895   -1.0346    1.9913 C   0  0  0  0  0  0  0  0  0  0  0  0
   -7.6558   -5.6149   -2.0085 C   0  0  1  0  0  0  0  0  0  0  0  0
   -6.3625   -4.7290   -2.3776 C   0  0  0  0  0  0  0  0  0  0  0  0
   -6.6666   -3.1866   -2.0924 C   0  0  2  0  0  0  0  0  0  0  0  0
  -10.2845    1.5776    0.8409 F   0  0  0  0  0  0  0  0  0  0  0  0
   -6.6840    0.9559   -1.5198 N   0  0  0  0  0  0  0  0  0  0  0  0
  -11.0132   -0.8340    3.3905 N   0  0  0  0  0  0  0  0  0  0  0  0
   -7.3091   -7.0480   -2.2993 N   0  0  0  0  0  0  0  0  0  0  0  0
   -5.4762   -2.3802   -2.4312 N   0  0  0  0  0  0  0  0  0  0  0  0
   -7.2719   -1.6154   -0.3789 O   0  0  0  0  0  0  0  0  0  0  0  0
   -8.5522   -3.6412    1.2632 O   0  0  0  0  0  0  0  0  0  0  0  0
   -9.0771   -6.1284   -0.0692 O   0  0  0  0  0  0  0  0  0  0  0  0
   -7.6545    2.1619    0.7962 O   0  0  0  0  0  0  0  0  0  0  0  0
   -9.6193   -1.1057   -0.1853 O   0  0  0  0  0  0  0  0  0  0  0  0
  1  5  1  0  0  0  0
  1 18  1  1  0  0  0
  2 18  1  6  0  0  0
  2  3  1  0  0  0  0
  2 12  1  0  0  0  0
  3 19  1  1  0  0  0
  3  4  1  0  0  0  0
  4 20  1  6  0  0  0
  4 10  1  0  0  0  0
  5  6  1  0  0  0  0
  5 14  1  6  0  0  0
  6 21  1  6  0  0  0
  7 13  1  6  0  0  0
  7  6  1  0  0  0  0
  8  9  1  6  0  0  0
  8  7  1  0  0  0  0
 10 16  1  1  0  0  0
 11 10  1  0  0  0  0
 12 17  1  1  0  0  0
 12 11  1  0  0  0  0
 15  9  1  0  0  0  0
 22  8  1  0  0  0  0
 22  1  1  0  0  0  0
M  END
>  <CHROM.1>
-163.07783813,-56.26230371,-65.07063565,-8.26641565,-1.94419169,-0.16916994
-1.94805954,-0.75859651,-3.01800251

>  <Name>
lig.pdb

>  <RI>
0

>  <Rbt.Current_Directory>
/home/itssahil/PROJECTS/Mol_Feturizer/New_Systems/rnas/5bws

>  <Rbt.Executable>
rbdock ($Id: //depot/dev/client3/rdock/2013.1/src/exe/rbdock.cxx#4 $)

>  <Rbt.Library>
libRbt.so (2013.1, Build901 2013/11/27)

>  <Rbt.Parameter_File>
/export/apps/rDock/src/rDock_2013.1_src/data/scripts/dock_solv.prm

>  <Rbt.Receptor>
prm/pocket_docking_5.prm

>  <SCORE>
-10.8847

>  <SCORE.INTER>
-8.9878

>  <SCORE.INTER.CONST>
1

>  <SCORE.INTER.POLAR>
0

>  <SCORE.INTER.ROT>
3

>  <SCORE.INTER.SOLV>
20.5922

>  <SCORE.INTER.VDW>
-18.4559

>  <SCORE.INTER.norm>
-0.408536

>  <SCORE.INTRA>
-1.89691

>  <SCORE.INTRA.DIHEDRAL>
-4.62056

>  <SCORE.INTRA.DIHEDRAL.0>
6.10773

>  <SCORE.INTRA.POLAR>
0

>  <SCORE.INTRA.POLAR.0>
0

>  <SCORE.INTRA.REPUL>
0

>  <SCORE.INTRA.REPUL.0>
0

>  <SCORE.INTRA.SOLV>
0.727193

>  <SCORE.INTRA.SOLV.lig_0>
-71.4024

>  <SCORE.INTRA.VDW>
0.0497722

>  <SCORE.INTRA.VDW.0>
-1.86213

>  <SCORE.INTRA.norm>
-0.0862232

>  <SCORE.RESTR>
0

>  <SCORE.RESTR.CAVITY>
0

>  <SCORE.RESTR.norm>
0

>  <SCORE.SYSTEM>
0

>  <SCORE.SYSTEM.CONST>
0

>  <SCORE.SYSTEM.DIHEDRAL>
0

>  <SCORE.SYSTEM.SOLV>
0

>  <SCORE.SYSTEM.norm>
0

>  <SCORE.heavy>
22

>  <SCORE.norm>
-0.49476

>  <RMSD>
6.706

$$$$
lig.pdb
 OpenBabel11021811523D
libRbt.so/2013.1/901 2013/11/27
 22 23  0  0  0  0  0  0  0  0999 V2000
   -8.2628   -0.8516   -0.9380 C   0  0  1  0  0  0  0  0  0  0  0  0
   -7.0043   -3.0172   -0.5955 C   0  0  1  0  0  0  0  0  0  0  0  0
   -8.2907   -3.8649   -0.1913 C   0  0  1  0  0  0  0  0  0  0  0  0
   -7.9641   -5.4049   -0.4501 C   0  0  2  0  0  0  0  0  0  0  0  0
   -7.9322    0.6846   -0.7933 C   0  0  1  0  0  0  0  0  0  0  0  0
   -7.8532    1.0151    0.7103 C   0  0  2  0  0  0  0  0  0  0  0  0
   -9.1994    0.7410    1.4038 C   0  0  2  0  0  0  0  0  0  0  0  0
   -9.6108   -0.7707    1.2709 C   0  0  1  0  0  0  0  0  0  0  0  0
  -10.9976   -1.0411    1.9225 C   0  0  0  0  0  0  0  0  0  0  0  0
   -7.6781   -5.6280   -2.0219 C   0  0  1  0  0  0  0  0  0  0  0  0
   -6.3757   -4.7565   -2.3930 C   0  0  0  0  0  0  0  0  0  0  0  0
   -6.6622   -3.2109   -2.1070 C   0  0  2  0  0  0  0  0  0  0  0  0
  -10.2500    1.5754    0.8094 F   0  0  0  0  0  0  0  0  0  0  0  0
   -6.6170    0.9432   -1.4981 N   0  0  0  0  0  0  0  0  0  0  0  0
  -11.0513   -0.8208    3.3178 N   0  0  0  0  0  0  0  0  0  0  0  0
   -7.3479   -7.0649   -2.3136 N   0  0  0  0  0  0  0  0  0  0  0  0
   -5.4634   -2.4177   -2.4478 N   0  0  0  0  0  0  0  0  0  0  0  0
   -7.2470   -1.6335   -0.3922 O   0  0  0  0  0  0  0  0  0  0  0  0
   -8.5468   -3.6453    1.2518 O   0  0  0  0  0  0  0  0  0  0  0  0
   -9.1016   -6.1262   -0.0802 O   0  0  0  0  0  0  0  0  0  0  0  0
   -7.6144    2.1357    0.8134 O   0  0  0  0  0  0  0  0  0  0  0  0
   -9.5925   -1.1039   -0.2320 O   0  0  0  0  0  0  0  0  0  0  0  0
  1  5  1  0  0  0  0
  1 18  1  1  0  0  0
  2 18  1  6  0  0  0
  2  3  1  0  0  0  0
  2 12  1  0  0  0  0
  3 19  1  1  0  0  0
  3  4  1  0  0  0  0
  4 20  1  6  0  0  0
  4 10  1  0  0  0  0
  5  6  1  0  0  0  0
  5 14  1  6  0  0  0
  6 21  1  6  0  0  0
  7 13  1  6  0  0  0
  7  6  1  0  0  0  0
  8  9  1  6  0  0  0
  8  7  1  0  0  0  0
 10 16  1  1  0  0  0
 11 10  1  0  0  0  0
 12 17  1  1  0  0  0
 12 11  1  0  0  0  0
 15  9  1  0  0  0  0
 22  8  1  0  0  0  0
 22  1  1  0  0  0  0
M  END
>  <CHROM.1>
-163.63696515,-57.01162105,-63.53199698,-8.25635507,-1.95630894,-0.18827990
-1.93439052,-0.74654432,-3.00708663

>  <Name>
lig.pdb

>  <RI>
0

>  <Rbt.Current_Directory>
/home/itssahil/PROJECTS/Mol_Feturizer/New_Systems/rnas/5bws

>  <Rbt.Executable>
rbdock ($Id: //depot/dev/client3/rdock/2013.1/src/exe/rbdock.cxx#4 $)

>  <Rbt.Library>
libRbt.so (2013.1, Build901 2013/11/27)

>  <Rbt.Parameter_File>
/export/apps/rDock/src/rDock_2013.1_src/data/scripts/dock_solv.prm

>  <Rbt.Receptor>
prm/pocket_docking_6.prm

>  <SCORE>
-10.8822

>  <SCORE.INTER>
-8.91772

>  <SCORE.INTER.CONST>
1

>  <SCORE.INTER.POLAR>
0

>  <SCORE.INTER.ROT>
3

>  <SCORE.INTER.SOLV>
20.7652

>  <SCORE.INTER.VDW>
-18.4669

>  <SCORE.INTER.norm>
-0.405351

>  <SCORE.INTRA>
-1.96443

>  <SCORE.INTRA.DIHEDRAL>
-4.77354

>  <SCORE.INTRA.DIHEDRAL.0>
6.10773

>  <SCORE.INTRA.POLAR>
0

>  <SCORE.INTRA.POLAR.0>
0

>  <SCORE.INTRA.REPUL>
0

>  <SCORE.INTRA.REPUL.0>
0

>  <SCORE.INTRA.SOLV>
0.731627

>  <SCORE.INTRA.SOLV.lig_0>
-71.4024

>  <SCORE.INTRA.VDW>
0.0565209

>  <SCORE.INTRA.VDW.0>
-1.86213

>  <SCORE.INTRA.norm>
-0.0892924

>  <SCORE.RESTR>
0

>  <SCORE.RESTR.CAVITY>
0

>  <SCORE.RESTR.norm>
0

>  <SCORE.SYSTEM>
0

>  <SCORE.SYSTEM.CONST>
0

>  <SCORE.SYSTEM.DIHEDRAL>
0

>  <SCORE.SYSTEM.SOLV>
0

>  <SCORE.SYSTEM.norm>
0

>  <SCORE.heavy>
22

>  <SCORE.norm>
-0.494643

>  <RMSD>
6.708

$$$$
lig.pdb
 OpenBabel11021811523D
libRbt.so/2013.1/901 2013/11/27
 22 23  0  0  0  0  0  0  0  0999 V2000
   -7.3081   -0.4722   -1.4204 C   0  0  1  0  0  0  0  0  0  0  0  0
   -7.3929   -2.9685   -1.0296 C   0  0  1  0  0  0  0  0  0  0  0  0
   -8.5153   -4.0228   -0.6227 C   0  0  1  0  0  0  0  0  0  0  0  0
   -7.8217   -5.4542   -0.4997 C   0  0  2  0  0  0  0  0  0  0  0  0
   -6.6033    0.0779   -0.1202 C   0  0  1  0  0  0  0  0  0  0  0  0
   -7.6959    0.3634    0.9291 C   0  0  2  0  0  0  0  0  0  0  0  0
   -8.6788    1.4329    0.4206 C   0  0  2  0  0  0  0  0  0  0  0  0
   -9.3971    0.9651   -0.8975 C   0  0  1  0  0  0  0  0  0  0  0  0
  -10.3506    2.0656   -1.4458 C   0  0  0  0  0  0  0  0  0  0  0  0
   -7.2210   -5.8760   -1.9362 C   0  0  1  0  0  0  0  0  0  0  0  0
   -6.0942   -4.7891   -2.3142 C   0  0  0  0  0  0  0  0  0  0  0  0
   -6.7554   -3.3375   -2.4068 C   0  0  2  0  0  0  0  0  0  0  0  0
   -7.9642    2.6868    0.1553 F   0  0  0  0  0  0  0  0  0  0  0  0
   -5.6246   -0.9750    0.3561 N   0  0  0  0  0  0  0  0  0  0  0  0
   -9.7066    3.2474   -1.8787 N   0  0  0  0  0  0  0  0  0  0  0  0
   -6.5405   -7.2142   -1.8667 N   0  0  0  0  0  0  0  0  0  0  0  0
   -5.7166   -2.3456   -2.7520 N   0  0  0  0  0  0  0  0  0  0  0  0
   -7.9623   -1.6749   -1.1618 O   0  0  0  0  0  0  0  0  0  0  0  0
   -9.0638   -3.6198    0.6938 O   0  0  0  0  0  0  0  0  0  0  0  0
   -8.8226   -6.3573   -0.1339 O   0  0  0  0  0  0  0  0  0  0  0  0
   -7.1801    0.7664    1.8752 O   0  0  0  0  0  0  0  0  0  0  0  0
   -8.2876    0.5963   -1.8991 O   0  0  0  0  0  0  0  0  0  0  0  0
  1  5  1  0  0  0  0
  1 18  1  1  0  0  0
  2 18  1  6  0  0  0
  2  3  1  0  0  0  0
  2 12  1  0  0  0  0
  3 19  1  1  0  0  0
  3  4  1  0  0  0  0
  4 20  1  6  0  0  0
  4 10  1  0  0  0  0
  5  6  1  0  0  0  0
  5 14  1  1  0  0  0
  6 21  1  1  0  0  0
  7 13  1  6  0  0  0
  7  6  1  0  0  0  0
  8  9  1  6  0  0  0
  8  7  1  0  0  0  0
 10 16  1  1  0  0  0
 11 10  1  0  0  0  0
 12 17  1  1  0  0  0
 12 11  1  0  0  0  0
 15  9  1  0  0  0  0
 22  8  1  0  0  0  0
 22  1  1  0  0  0  0
M  END
>  <CHROM.1>
-77.56679547,175.58266187,65.27841871,-7.77923317,-1.61209742,-0.78064849
-1.86538590,-0.97525020,3.01385038

>  <Name>
lig.pdb

>  <RI>
0

>  <Rbt.Current_Directory>
/home/itssahil/PROJECTS/Mol_Feturizer/New_Systems/rnas/5bws

>  <Rbt.Executable>
rbdock ($Id: //depot/dev/client3/rdock/2013.1/src/exe/rbdock.cxx#4 $)

>  <Rbt.Library>
libRbt.so (2013.1, Build901 2013/11/27)

>  <Rbt.Parameter_File>
/export/apps/rDock/src/rDock_2013.1_src/data/scripts/dock_solv.prm

>  <Rbt.Receptor>
prm/pocket_docking_8.prm

>  <SCORE>
-8.28489

>  <SCORE.INTER>
-8.48424

>  <SCORE.INTER.CONST>
1

>  <SCORE.INTER.POLAR>
0

>  <SCORE.INTER.ROT>
3

>  <SCORE.INTER.SOLV>
15.2813

>  <SCORE.INTER.VDW>
-16.3499

>  <SCORE.INTER.norm>
-0.385647

>  <SCORE.INTRA>
0.19935

>  <SCORE.INTRA.DIHEDRAL>
-4.49127

>  <SCORE.INTRA.DIHEDRAL.0>
6.10773

>  <SCORE.INTRA.POLAR>
0

>  <SCORE.INTRA.POLAR.0>
0

>  <SCORE.INTRA.REPUL>
0

>  <SCORE.INTRA.REPUL.0>
0

>  <SCORE.INTRA.SOLV>
3.61622

>  <SCORE.INTRA.SOLV.lig_0>
-71.4024

>  <SCORE.INTRA.VDW>
0.636874

>  <SCORE.INTRA.VDW.0>
-1.86213

>  <SCORE.INTRA.norm>
0.00906136

>  <SCORE.RESTR>
0

>  <SCORE.RESTR.CAVITY>
0

>  <SCORE.RESTR.norm>
0

>  <SCORE.SYSTEM>
0

>  <SCORE.SYSTEM.CONST>
0

>  <SCORE.SYSTEM.DIHEDRAL>
0

>  <SCORE.SYSTEM.SOLV>
0

>  <SCORE.SYSTEM.norm>
0

>  <SCORE.heavy>
22

>  <SCORE.norm>
-0.376586

>  <RMSD>
6.708

$$$$
lig.pdb
 OpenBabel11021811523D
libRbt.so/2013.1/901 2013/11/27
 22 23  0  0  0  0  0  0  0  0999 V2000
   -3.2432   -5.0555   -1.9266 C   0  0  1  0  0  0  0  0  0  0  0  0
   -5.6163   -4.4913   -1.2621 C   0  0  1  0  0  0  0  0  0  0  0  0
   -5.5405   -2.9074   -1.4127 C   0  0  1  0  0  0  0  0  0  0  0  0
   -6.6769   -2.2724   -0.4905 C   0  0  2  0  0  0  0  0  0  0  0  0
   -2.5201   -5.7586   -3.1402 C   0  0  1  0  0  0  0  0  0  0  0  0
   -2.9284   -7.2450   -3.1414 C   0  0  2  0  0  0  0  0  0  0  0  0
   -2.4806   -7.9380   -1.8422 C   0  0  2  0  0  0  0  0  0  0  0  0
   -3.1390   -7.2658   -0.5825 C   0  0  1  0  0  0  0  0  0  0  0  0
   -2.6462   -7.9273    0.7367 C   0  0  0  0  0  0  0  0  0  0  0  0
   -8.1204   -2.7671   -1.0138 C   0  0  1  0  0  0  0  0  0  0  0  0
   -8.1590   -4.3686   -0.8486 C   0  0  0  0  0  0  0  0  0  0  0  0
   -7.0046   -5.0295   -1.7336 C   0  0  2  0  0  0  0  0  0  0  0  0
   -1.0207   -7.8674   -1.7124 F   0  0  0  0  0  0  0  0  0  0  0  0
   -2.9532   -5.0532   -4.4084 N   0  0  0  0  0  0  0  0  0  0  0  0
   -3.3739   -7.5619    1.8923 N   0  0  0  0  0  0  0  0  0  0  0  0
   -9.2257   -2.2069   -0.1634 N   0  0  0  0  0  0  0  0  0  0  0  0
   -7.0445   -6.4978   -1.5762 N   0  0  0  0  0  0  0  0  0  0  0  0
   -4.6277   -5.1074   -2.0735 O   0  0  0  0  0  0  0  0  0  0  0  0
   -4.2080   -2.4673   -0.9362 O   0  0  0  0  0  0  0  0  0  0  0  0
   -6.5837   -0.8860   -0.6326 O   0  0  0  0  0  0  0  0  0  0  0  0
   -2.3984   -7.7560   -4.0254 O   0  0  0  0  0  0  0  0  0  0  0  0
   -2.7970   -5.7663   -0.6516 O   0  0  0  0  0  0  0  0  0  0  0  0
  1  5  1  0  0  0  0
  1 18  1  6  0  0  0
  2 18  1  6  0  0  0
  2  3  1  0  0  0  0
  2 12  1  0  0  0  0
  3 19  1  1  0  0  0
  3  4  1  0  0  0  0
  4 20  1  6  0  0  0
  4 10  1  0  0  0  0
  5  6  1  0  0  0  0
  5 14  1  6  0  0  0
  6 21  1  6  0  0  0
  7 13  1  1  0  0  0
  7  6  1  0  0  0  0
  8  9  1  1  0  0  0
  8  7  1  0  0  0  0
 10 16  1  1  0  0  0
 11 10  1  0  0  0  0
 12 17  1  1  0  0  0
 12 11  1  0  0  0  0
 15  9  1  0  0  0  0
 22  8  1  0  0  0  0
 22  1  1  0  0  0  0
M  END
>  <CHROM.1>
-173.98718537,67.22648743,-168.41126881,-4.57343246,-5.21197414,-1.41165513
-0.27548344,0.71503685,-0.94392133

>  <Name>
lig.pdb

>  <RI>
0

>  <Rbt.Current_Directory>
/home/itssahil/PROJECTS/Mol_Feturizer/New_Systems/rnas/5bws

>  <Rbt.Executable>
rbdock ($Id: //depot/dev/client3/rdock/2013.1/src/exe/rbdock.cxx#4 $)

>  <Rbt.Library>
libRbt.so (2013.1, Build901 2013/11/27)

>  <Rbt.Parameter_File>
/export/apps/rDock/src/rDock_2013.1_src/data/scripts/dock_solv.prm

>  <Rbt.Receptor>
prm/pocket_docking_7.prm

>  <SCORE>
-8.46585

>  <SCORE.INTER>
-5.33451

>  <SCORE.INTER.CONST>
1

>  <SCORE.INTER.POLAR>
0

>  <SCORE.INTER.ROT>
3

>  <SCORE.INTER.SOLV>
22.1938

>  <SCORE.INTER.VDW>
-16.5543

>  <SCORE.INTER.norm>
-0.242478

>  <SCORE.INTRA>
-3.13134

>  <SCORE.INTRA.DIHEDRAL>
-5.20335

>  <SCORE.INTRA.DIHEDRAL.0>
6.10773

>  <SCORE.INTRA.POLAR>
0

>  <SCORE.INTRA.POLAR.0>
0

>  <SCORE.INTRA.REPUL>
0

>  <SCORE.INTRA.REPUL.0>
0

>  <SCORE.INTRA.SOLV>
-1.60739

>  <SCORE.INTRA.SOLV.lig_0>
-71.4024

>  <SCORE.INTRA.VDW>
0.274029

>  <SCORE.INTRA.VDW.0>
-1.86213

>  <SCORE.INTRA.norm>
-0.142334

>  <SCORE.RESTR>
0

>  <SCORE.RESTR.CAVITY>
0

>  <SCORE.RESTR.norm>
0

>  <SCORE.SYSTEM>
0

>  <SCORE.SYSTEM.CONST>
0

>  <SCORE.SYSTEM.DIHEDRAL>
0

>  <SCORE.SYSTEM.SOLV>
0

>  <SCORE.SYSTEM.norm>
0

>  <SCORE.heavy>
22

>  <SCORE.norm>
-0.384811

>  <RMSD>
6.756

$$$$
lig.pdb
 OpenBabel11021811523D
libRbt.so/2013.1/901 2013/11/27
 22 23  0  0  0  0  0  0  0  0999 V2000
   -5.5132   -4.7813   -2.8181 C   0  0  1  0  0  0  0  0  0  0  0  0
   -3.3616   -5.9626   -2.2128 C   0  0  1  0  0  0  0  0  0  0  0  0
   -2.4107   -5.2707   -3.2871 C   0  0  1  0  0  0  0  0  0  0  0  0
   -1.1665   -6.2380   -3.5355 C   0  0  2  0  0  0  0  0  0  0  0  0
   -6.6664   -4.0256   -2.0506 C   0  0  1  0  0  0  0  0  0  0  0  0
   -7.2571   -4.9935   -1.0063 C   0  0  2  0  0  0  0  0  0  0  0  0
   -7.8599   -6.2347   -1.6877 C   0  0  2  0  0  0  0  0  0  0  0  0
   -6.7700   -7.0227   -2.5023 C   0  0  1  0  0  0  0  0  0  0  0  0
   -7.3863   -8.2473   -3.2382 C   0  0  0  0  0  0  0  0  0  0  0  0
   -0.3440   -6.4060   -2.1579 C   0  0  1  0  0  0  0  0  0  0  0  0
   -1.3354   -7.1048   -1.0985 C   0  0  0  0  0  0  0  0  0  0  0  0
   -2.6114   -6.1735   -0.8592 C   0  0  2  0  0  0  0  0  0  0  0  0
   -8.9389   -5.8341   -2.5979 F   0  0  0  0  0  0  0  0  0  0  0  0
   -6.0633   -2.7964   -1.4036 N   0  0  0  0  0  0  0  0  0  0  0  0
   -6.4642   -9.0190   -3.9817 N   0  0  0  0  0  0  0  0  0  0  0  0
    0.8316   -7.3249   -2.3379 N   0  0  0  0  0  0  0  0  0  0  0  0
   -3.5171   -6.8209    0.1118 N   0  0  0  0  0  0  0  0  0  0  0  0
   -4.4839   -5.1347   -1.9482 O   0  0  0  0  0  0  0  0  0  0  0  0
   -3.1801   -5.1154   -4.5442 O   0  0  0  0  0  0  0  0  0  0  0  0
   -0.3545   -5.6146   -4.4858 O   0  0  0  0  0  0  0  0  0  0  0  0
   -8.0989   -4.4414   -0.4496 O   0  0  0  0  0  0  0  0  0  0  0  0
   -6.1289   -6.0148   -3.4735 O   0  0  0  0  0  0  0  0  0  0  0  0
  1  5  1  0  0  0  0
  1 18  1  1  0  0  0
  2 18  1  1  0  0  0
  2  3  1  0  0  0  0
  2 12  1  0  0  0  0
  3 19  1  6  0  0  0
  3  4  1  0  0  0  0
  4 20  1  6  0  0  0
  4 10  1  0  0  0  0
  5  6  1  0  0  0  0
  5 14  1  1  0  0  0
  6 21  1  6  0  0  0
  7 13  1  6  0  0  0
  7  6  1  0  0  0  0
  8  9  1  6  0  0  0
  8  7  1  0  0  0  0
 10 16  1  6  0  0  0
 11 10  1  0  0  0  0
 12 17  1  1  0  0  0
 12 11  1  0  0  0  0
 15  9  1  0  0  0  0
 22  8  1  0  0  0  0
 22  1  1  0  0  0  0
M  END
>  <CHROM.1>
171.37283360,65.88532284,-179.25203080,-4.57597932,-5.91965304,-2.37229093
-3.00229601,-0.02647676,-2.55034478

>  <Name>
lig.pdb

>  <RI>
0

>  <Rbt.Current_Directory>
/home/itssahil/PROJECTS/Mol_Feturizer/New_Systems/rnas/5bws

>  <Rbt.Executable>
rbdock ($Id: //depot/dev/client3/rdock/2013.1/src/exe/rbdock.cxx#4 $)

>  <Rbt.Library>
libRbt.so (2013.1, Build901 2013/11/27)

>  <Rbt.Parameter_File>
/export/apps/rDock/src/rDock_2013.1_src/data/scripts/dock_solv.prm

>  <Rbt.Receptor>
prm/pocket_docking_8.prm

>  <SCORE>
-9.2462

>  <SCORE.INTER>
-5.98101

>  <SCORE.INTER.CONST>
1

>  <SCORE.INTER.POLAR>
0

>  <SCORE.INTER.ROT>
3

>  <SCORE.INTER.SOLV>
12.3092

>  <SCORE.INTER.VDW>
-13.6904

>  <SCORE.INTER.norm>
-0.271864

>  <SCORE.INTRA>
-3.26519

>  <SCORE.INTRA.DIHEDRAL>
-5.57258

>  <SCORE.INTRA.DIHEDRAL.0>
6.10773

>  <SCORE.INTRA.POLAR>
0

>  <SCORE.INTRA.POLAR.0>
0

>  <SCORE.INTRA.REPUL>
0

>  <SCORE.INTRA.REPUL.0>
0

>  <SCORE.INTRA.SOLV>
-1.46297

>  <SCORE.INTRA.SOLV.lig_0>
-71.4024

>  <SCORE.INTRA.VDW>
0.252583

>  <SCORE.INTRA.VDW.0>
-1.86213

>  <SCORE.INTRA.norm>
-0.148418

>  <SCORE.RESTR>
0

>  <SCORE.RESTR.CAVITY>
0

>  <SCORE.RESTR.norm>
0

>  <SCORE.SYSTEM>
0

>  <SCORE.SYSTEM.CONST>
0

>  <SCORE.SYSTEM.DIHEDRAL>
0

>  <SCORE.SYSTEM.SOLV>
0

>  <SCORE.SYSTEM.norm>
0

>  <SCORE.heavy>
22

>  <SCORE.norm>
-0.420282

>  <RMSD>
6.761

$$$$
lig.pdb
 OpenBabel11021811523D
libRbt.so/2013.1/901 2013/11/27
 22 23  0  0  0  0  0  0  0  0999 V2000
   -9.9568    0.8188    0.3893 C   0  0  1  0  0  0  0  0  0  0  0  0
   -8.1580   -0.7516   -0.4410 C   0  0  1  0  0  0  0  0  0  0  0  0
   -8.9542   -2.1307   -0.4752 C   0  0  1  0  0  0  0  0  0  0  0  0
   -7.8915   -3.3136   -0.3461 C   0  0  2  0  0  0  0  0  0  0  0  0
  -10.9489    1.8670   -0.2489 C   0  0  1  0  0  0  0  0  0  0  0  0
  -10.1184    3.0656   -0.7486 C   0  0  2  0  0  0  0  0  0  0  0  0
   -9.3790    3.7450    0.4176 C   0  0  2  0  0  0  0  0  0  0  0  0
   -8.3924    2.7460    1.1254 C   0  0  1  0  0  0  0  0  0  0  0  0
   -7.6837    3.4124    2.3396 C   0  0  0  0  0  0  0  0  0  0  0  0
   -6.8932   -3.2682   -1.6124 C   0  0  1  0  0  0  0  0  0  0  0  0
   -6.1094   -1.8629   -1.5455 C   0  0  0  0  0  0  0  0  0  0  0  0
   -7.1550   -0.6580   -1.6345 C   0  0  2  0  0  0  0  0  0  0  0  0
  -10.3451    4.2410    1.4044 F   0  0  0  0  0  0  0  0  0  0  0  0
  -11.6841    1.1788   -1.3800 N   0  0  0  0  0  0  0  0  0  0  0  0
   -6.8760    4.5270    2.0174 N   0  0  0  0  0  0  0  0  0  0  0  0
   -5.8602   -4.3564   -1.5268 N   0  0  0  0  0  0  0  0  0  0  0  0
   -6.4300    0.6275   -1.5709 N   0  0  0  0  0  0  0  0  0  0  0  0
   -9.0607    0.3372   -0.5626 O   0  0  0  0  0  0  0  0  0  0  0  0
   -9.8723   -2.1562    0.6879 O   0  0  0  0  0  0  0  0  0  0  0  0
   -8.6137   -4.5089   -0.3692 O   0  0  0  0  0  0  0  0  0  0  0  0
  -10.8437    3.8293   -1.2113 O   0  0  0  0  0  0  0  0  0  0  0  0
   -9.2246    1.5164    1.5326 O   0  0  0  0  0  0  0  0  0  0  0  0
  1  5  1  0  0  0  0
  1 18  1  6  0  0  0
  2 18  1  6  0  0  0
  2  3  1  0  0  0  0
  2 12  1  0  0  0  0
  3 19  1  1  0  0  0
  3  4  1  0  0  0  0
  4 20  1  6  0  0  0
  4 10  1  0  0  0  0
  5  6  1  0  0  0  0
  5 14  1  6  0  0  0
  6 21  1  1  0  0  0
  7 13  1  1  0  0  0
  7  6  1  0  0  0  0
  8  9  1  1  0  0  0
  8  7  1  0  0  0  0
 10 16  1  1  0  0  0
 11 10  1  0  0  0  0
 12 17  1  1  0  0  0
 12 11  1  0  0  0  0
 15  9  1  0  0  0  0
 22  8  1  0  0  0  0
 22  1  1  0  0  0  0
M  END
>  <CHROM.1>
-169.54757047,72.73895344,-61.86880791,-8.70704656,0.45291998,-0.13387249
1.86870898,-0.13972142,0.29001291

>  <Name>
lig.pdb

>  <RI>
0

>  <Rbt.Current_Directory>
/home/itssahil/PROJECTS/Mol_Feturizer/New_Systems/rnas/5bws

>  <Rbt.Executable>
rbdock ($Id: //depot/dev/client3/rdock/2013.1/src/exe/rbdock.cxx#4 $)

>  <Rbt.Library>
libRbt.so (2013.1, Build901 2013/11/27)

>  <Rbt.Parameter_File>
/export/apps/rDock/src/rDock_2013.1_src/data/scripts/dock_solv.prm

>  <Rbt.Receptor>
prm/pocket_docking_6.prm

>  <SCORE>
-10.8604

>  <SCORE.INTER>
-8.30817

>  <SCORE.INTER.CONST>
1

>  <SCORE.INTER.POLAR>
0

>  <SCORE.INTER.ROT>
3

>  <SCORE.INTER.SOLV>
16.0915

>  <SCORE.INTER.VDW>
-16.5026

>  <SCORE.INTER.norm>
-0.377644

>  <SCORE.INTRA>
-2.55225

>  <SCORE.INTRA.DIHEDRAL>
-4.79537

>  <SCORE.INTRA.DIHEDRAL.0>
6.10773

>  <SCORE.INTRA.POLAR>
0

>  <SCORE.INTRA.POLAR.0>
0

>  <SCORE.INTRA.REPUL>
0

>  <SCORE.INTRA.REPUL.0>
0

>  <SCORE.INTRA.SOLV>
-0.794778

>  <SCORE.INTRA.SOLV.lig_0>
-71.4024

>  <SCORE.INTRA.VDW>
0.24282

>  <SCORE.INTRA.VDW.0>
-1.86213

>  <SCORE.INTRA.norm>
-0.116012

>  <SCORE.RESTR>
0

>  <SCORE.RESTR.CAVITY>
0

>  <SCORE.RESTR.norm>
0

>  <SCORE.SYSTEM>
0

>  <SCORE.SYSTEM.CONST>
0

>  <SCORE.SYSTEM.DIHEDRAL>
0

>  <SCORE.SYSTEM.SOLV>
0

>  <SCORE.SYSTEM.norm>
0

>  <SCORE.heavy>
22

>  <SCORE.norm>
-0.493656

>  <RMSD>
6.771

$$$$
lig.pdb
 OpenBabel11021811523D
libRbt.so/2013.1/901 2013/11/27
 22 23  0  0  0  0  0  0  0  0999 V2000
   -9.9962    0.9461    0.3457 C   0  0  1  0  0  0  0  0  0  0  0  0
   -8.2219   -0.6860   -0.4155 C   0  0  1  0  0  0  0  0  0  0  0  0
   -9.0310   -2.0580   -0.4161 C   0  0  1  0  0  0  0  0  0  0  0  0
   -7.9818   -3.2458   -0.2325 C   0  0  2  0  0  0  0  0  0  0  0  0
  -10.9776    1.9756   -0.3378 C   0  0  1  0  0  0  0  0  0  0  0  0
  -10.1338    3.1371   -0.8992 C   0  0  2  0  0  0  0  0  0  0  0  0
   -9.3787    3.8620    0.2290 C   0  0  2  0  0  0  0  0  0  0  0  0
   -8.4018    2.8849    0.9796 C   0  0  1  0  0  0  0  0  0  0  0  0
   -7.6774    3.5996    2.1565 C   0  0  0  0  0  0  0  0  0  0  0  0
   -6.9651   -3.2515   -1.4849 C   0  0  1  0  0  0  0  0  0  0  0  0
   -6.1686   -1.8521   -1.4526 C   0  0  0  0  0  0  0  0  0  0  0  0
   -7.2010   -0.6412   -1.5966 C   0  0  2  0  0  0  0  0  0  0  0  0
  -10.3325    4.4185    1.1953 F   0  0  0  0  0  0  0  0  0  0  0  0
  -11.7284    1.2436   -1.4305 N   0  0  0  0  0  0  0  0  0  0  0  0
   -8.5337    4.2549    3.0708 N   0  0  0  0  0  0  0  0  0  0  0  0
   -5.9441   -4.3459   -1.3483 N   0  0  0  0  0  0  0  0  0  0  0  0
   -6.4644    0.6389   -1.5646 N   0  0  0  0  0  0  0  0  0  0  0  0
   -9.1120    0.4065   -0.5861 O   0  0  0  0  0  0  0  0  0  0  0  0
   -9.9659   -2.0366    0.7336 O   0  0  0  0  0  0  0  0  0  0  0  0
   -8.7153   -4.4345   -0.2270 O   0  0  0  0  0  0  0  0  0  0  0  0
  -10.8513    3.8873   -1.3948 O   0  0  0  0  0  0  0  0  0  0  0  0
   -9.2482    1.6881    1.4502 O   0  0  0  0  0  0  0  0  0  0  0  0
  1  5  1  0  0  0  0
  1 18  1  6  0  0  0
  2 18  1  6  0  0  0
  2  3  1  0  0  0  0
  2 12  1  0  0  0  0
  3 19  1  1  0  0  0
  3  4  1  0  0  0  0
  4 20  1  6  0  0  0
  4 10  1  0  0  0  0
  5  6  1  0  0  0  0
  5 14  1  6  0  0  0
  6 21  1  1  0  0  0
  7 13  1  1  0  0  0
  7  6  1  0  0  0  0
  8  9  1  1  0  0  0
  8  7  1  0  0  0  0
 10 16  1  1  0  0  0
 11 10  1  0  0  0  0
 12 17  1  1  0  0  0
 12 11  1  0  0  0  0
 15  9  1  0  0  0  0
 22  8  1  0  0  0  0
 22  1  1  0  0  0  0
M  END
>  <CHROM.1>
-169.66242167,74.27180239,52.95967789,-8.82258124,0.52279744,-0.11322031
1.89951142,-0.28072189,0.32939048

>  <Name>
lig.pdb

>  <RI>
0

>  <Rbt.Current_Directory>
/home/itssahil/PROJECTS/Mol_Feturizer/New_Systems/rnas/5bws

>  <Rbt.Executable>
rbdock ($Id: //depot/dev/client3/rdock/2013.1/src/exe/rbdock.cxx#4 $)

>  <Rbt.Library>
libRbt.so (2013.1, Build901 2013/11/27)

>  <Rbt.Parameter_File>
/export/apps/rDock/src/rDock_2013.1_src/data/scripts/dock_solv.prm

>  <Rbt.Receptor>
prm/pocket_docking_6.prm

>  <SCORE>
-8.39954

>  <SCORE.INTER>
-6.76078

>  <SCORE.INTER.CONST>
1

>  <SCORE.INTER.POLAR>
0

>  <SCORE.INTER.ROT>
3

>  <SCORE.INTER.SOLV>
20.5943

>  <SCORE.INTER.VDW>
-16.972

>  <SCORE.INTER.norm>
-0.307308

>  <SCORE.INTRA>
-1.63876

>  <SCORE.INTRA.DIHEDRAL>
-4.45387

>  <SCORE.INTRA.DIHEDRAL.0>
6.10773

>  <SCORE.INTRA.POLAR>
0

>  <SCORE.INTRA.POLAR.0>
0

>  <SCORE.INTRA.REPUL>
0

>  <SCORE.INTRA.REPUL.0>
0

>  <SCORE.INTRA.SOLV>
0.52897

>  <SCORE.INTRA.SOLV.lig_0>
-71.4024

>  <SCORE.INTRA.VDW>
0.323691

>  <SCORE.INTRA.VDW.0>
-1.86213

>  <SCORE.INTRA.norm>
-0.0744889

>  <SCORE.RESTR>
0

>  <SCORE.RESTR.CAVITY>
0

>  <SCORE.RESTR.norm>
0

>  <SCORE.SYSTEM>
0

>  <SCORE.SYSTEM.CONST>
0

>  <SCORE.SYSTEM.DIHEDRAL>
0

>  <SCORE.SYSTEM.SOLV>
0

>  <SCORE.SYSTEM.norm>
0

>  <SCORE.heavy>
22

>  <SCORE.norm>
-0.381797

>  <RMSD>
6.862

$$$$
lig.pdb
 OpenBabel11021811523D
libRbt.so/2013.1/901 2013/11/27
 22 23  0  0  0  0  0  0  0  0999 V2000
  -10.0690    1.1076    0.4825 C   0  0  1  0  0  0  0  0  0  0  0  0
   -8.2597   -0.4534   -0.3427 C   0  0  1  0  0  0  0  0  0  0  0  0
   -9.0706   -1.8243   -0.3504 C   0  0  1  0  0  0  0  0  0  0  0  0
   -8.0181   -3.0170   -0.2283 C   0  0  2  0  0  0  0  0  0  0  0  0
  -11.0523    2.1623   -0.1584 C   0  0  1  0  0  0  0  0  0  0  0  0
  -10.2165    3.3713   -0.6234 C   0  0  2  0  0  0  0  0  0  0  0  0
   -9.5021    4.0349    0.5672 C   0  0  2  0  0  0  0  0  0  0  0  0
   -8.5258    3.0282    1.2784 C   0  0  1  0  0  0  0  0  0  0  0  0
   -7.8430    3.6780    2.5162 C   0  0  0  0  0  0  0  0  0  0  0  0
   -7.0414   -2.9938   -1.5118 C   0  0  1  0  0  0  0  0  0  0  0  0
   -6.2420   -1.5963   -1.4715 C   0  0  0  0  0  0  0  0  0  0  0  0
   -7.2764   -0.3814   -1.5540 C   0  0  2  0  0  0  0  0  0  0  0  0
  -10.4888    4.5124    1.5427 F   0  0  0  0  0  0  0  0  0  0  0  0
  -11.7631    1.4895   -1.3140 N   0  0  0  0  0  0  0  0  0  0  0  0
   -7.0338    4.8005    2.2270 N   0  0  0  0  0  0  0  0  0  0  0  0
   -6.0184   -4.0921   -1.4336 N   0  0  0  0  0  0  0  0  0  0  0  0
   -6.5371    0.8969   -1.5149 N   0  0  0  0  0  0  0  0  0  0  0  0
   -9.1530    0.6437   -0.4592 O   0  0  0  0  0  0  0  0  0  0  0  0
   -9.9688   -1.8294    0.8284 O   0  0  0  0  0  0  0  0  0  0  0  0
   -8.7531   -4.2049   -0.2278 O   0  0  0  0  0  0  0  0  0  0  0  0
  -10.9354    4.1397   -1.0882 O   0  0  0  0  0  0  0  0  0  0  0  0
   -9.3613    1.7898    1.6505 O   0  0  0  0  0  0  0  0  0  0  0  0
  1  5  1  0  0  0  0
  1 18  1  6  0  0  0
  2 18  1  6  0  0  0
  2  3  1  0  0  0  0
  2 12  1  0  0  0  0
  3 19  1  1  0  0  0
  3  4  1  0  0  0  0
  4 20  1  6  0  0  0
  4 10  1  0  0  0  0
  5  6  1  0  0  0  0
  5 14  1  6  0  0  0
  6 21  1  1  0  0  0
  7 13  1  1  0  0  0
  7  6  1  0  0  0  0
  8  9  1  1  0  0  0
  8  7  1  0  0  0  0
 10 16  1  1  0  0  0
 11 10  1  0  0  0  0
 12 17  1  1  0  0  0
 12 11  1  0  0  0  0
 15  9  1  0  0  0  0
 22  8  1  0  0  0  0
 22  1  1  0  0  0  0
M  END
>  <CHROM.1>
-168.75927357,69.68322918,-61.83314978,-8.82892861,0.74198307,-0.01617125
1.86919015,-0.15658758,0.30197973

>  <Name>
lig.pdb

>  <RI>
0

>  <Rbt.Current_Directory>
/home/itssahil/PROJECTS/Mol_Feturizer/New_Systems/rnas/5bws

>  <Rbt.Executable>
rbdock ($Id: //depot/dev/client3/rdock/2013.1/src/exe/rbdock.cxx#4 $)

>  <Rbt.Library>
libRbt.so (2013.1, Build901 2013/11/27)

>  <Rbt.Parameter_File>
/export/apps/rDock/src/rDock_2013.1_src/data/scripts/dock_solv.prm

>  <Rbt.Receptor>
prm/pocket_docking_6.prm

>  <SCORE>
-10.836

>  <SCORE.INTER>
-8.17287

>  <SCORE.INTER.CONST>
1

>  <SCORE.INTER.POLAR>
0

>  <SCORE.INTER.ROT>
3

>  <SCORE.INTER.SOLV>
15.496

>  <SCORE.INTER.VDW>
-16.2139

>  <SCORE.INTER.norm>
-0.371494

>  <SCORE.INTRA>
-2.66314

>  <SCORE.INTRA.DIHEDRAL>
-5.03445

>  <SCORE.INTRA.DIHEDRAL.0>
6.10773

>  <SCORE.INTRA.POLAR>
0

>  <SCORE.INTRA.POLAR.0>
0

>  <SCORE.INTRA.REPUL>
0

>  <SCORE.INTRA.REPUL.0>
0

>  <SCORE.INTRA.SOLV>
-0.890449

>  <SCORE.INTRA.SOLV.lig_0>
-71.4024

>  <SCORE.INTRA.VDW>
0.299312

>  <SCORE.INTRA.VDW.0>
-1.86213

>  <SCORE.INTRA.norm>
-0.121052

>  <SCORE.RESTR>
0

>  <SCORE.RESTR.CAVITY>
0

>  <SCORE.RESTR.norm>
0

>  <SCORE.SYSTEM>
0

>  <SCORE.SYSTEM.CONST>
0

>  <SCORE.SYSTEM.DIHEDRAL>
0

>  <SCORE.SYSTEM.SOLV>
0

>  <SCORE.SYSTEM.norm>
0

>  <SCORE.heavy>
22

>  <SCORE.norm>
-0.492546

>  <RMSD>
6.888

$$$$
lig.pdb
 OpenBabel11021811523D
libRbt.so/2013.1/901 2013/11/27
 22 23  0  0  0  0  0  0  0  0999 V2000
   -2.9649    0.7391    0.9886 C   0  0  1  0  0  0  0  0  0  0  0  0
   -5.0720   -0.5840    0.5402 C   0  0  1  0  0  0  0  0  0  0  0  0
   -4.8120   -1.9710   -0.1985 C   0  0  1  0  0  0  0  0  0  0  0  0
   -6.1256   -2.3397   -1.0253 C   0  0  2  0  0  0  0  0  0  0  0  0
   -1.6727    0.5428    1.8727 C   0  0  1  0  0  0  0  0  0  0  0  0
   -2.0685    0.7534    3.3476 C   0  0  2  0  0  0  0  0  0  0  0  0
   -2.5998    2.1797    3.5748 C   0  0  2  0  0  0  0  0  0  0  0  0
   -3.8739    2.4592    2.6968 C   0  0  1  0  0  0  0  0  0  0  0  0
   -4.3819    3.9182    2.8815 C   0  0  0  0  0  0  0  0  0  0  0  0
   -7.3587   -2.5286   -0.0026 C   0  0  1  0  0  0  0  0  0  0  0  0
   -7.5899   -1.1106    0.7250 C   0  0  0  0  0  0  0  0  0  0  0  0
   -6.2737   -0.6977    1.5312 C   0  0  2  0  0  0  0  0  0  0  0  0
   -1.5631    3.1619    3.2374 F   0  0  0  0  0  0  0  0  0  0  0  0
   -1.1493   -0.8562    1.6229 N   0  0  0  0  0  0  0  0  0  0  0  0
   -5.6358    4.1900    2.2880 N   0  0  0  0  0  0  0  0  0  0  0  0
   -8.6263   -2.8613   -0.7383 N   0  0  0  0  0  0  0  0  0  0  0  0
   -6.4919    0.6041    2.1945 N   0  0  0  0  0  0  0  0  0  0  0  0
   -3.9320   -0.2140    1.3008 O   0  0  0  0  0  0  0  0  0  0  0  0
   -3.6731   -1.7859   -1.1285 O   0  0  0  0  0  0  0  0  0  0  0  0
   -5.8694   -3.5522   -1.6698 O   0  0  0  0  0  0  0  0  0  0  0  0
   -1.1247    0.6121    3.9900 O   0  0  0  0  0  0  0  0  0  0  0  0
   -3.4830    2.1529    1.2396 O   0  0  0  0  0  0  0  0  0  0  0  0
  1  5  1  0  0  0  0
  1 18  1  1  0  0  0
  2 18  1  1  0  0  0
  2  3  1  0  0  0  0
  2 12  1  0  0  0  0
  3 19  1  6  0  0  0
  3  4  1  0  0  0  0
  4 20  1  1  0  0  0
  4 10  1  0  0  0  0
  5  6  1  0  0  0  0
  5 14  1  1  0  0  0
  6 21  1  1  0  0  0
  7 13  1  6  0  0  0
  7  6  1  0  0  0  0
  8  9  1  6  0  0  0
  8  7  1  0  0  0  0
 10 16  1  6  0  0  0
 11 10  1  0  0  0  0
 12 17  1  6  0  0  0
 12 11  1  0  0  0  0
 15  9  1  0  0  0  0
 22  8  1  0  0  0  0
 22  1  1  0  0  0  0
M  END
>  <CHROM.1>
-163.40272561,103.00439040,-170.81165039,-4.31331979,0.16312079,1.34220202
-0.94552154,0.17243507,-2.61781445

>  <Name>
lig.pdb

>  <RI>
0

>  <Rbt.Current_Directory>
/home/itssahil/PROJECTS/Mol_Feturizer/New_Systems/rnas/5bws

>  <Rbt.Executable>
rbdock ($Id: //depot/dev/client3/rdock/2013.1/src/exe/rbdock.cxx#4 $)

>  <Rbt.Library>
libRbt.so (2013.1, Build901 2013/11/27)

>  <Rbt.Parameter_File>
/export/apps/rDock/src/rDock_2013.1_src/data/scripts/dock_solv.prm

>  <Rbt.Receptor>
prm/blind_docking_20.prm

>  <SCORE>
-2.14709

>  <SCORE.INTER>
-3.33081

>  <SCORE.INTER.CONST>
1

>  <SCORE.INTER.POLAR>
0

>  <SCORE.INTER.ROT>
3

>  <SCORE.INTER.SOLV>
24.7187

>  <SCORE.INTER.VDW>
-16.0601

>  <SCORE.INTER.norm>
-0.1514

>  <SCORE.INTRA>
1.16331

>  <SCORE.INTRA.DIHEDRAL>
1.33256

>  <SCORE.INTRA.DIHEDRAL.0>
6.10773

>  <SCORE.INTRA.POLAR>
0

>  <SCORE.INTRA.POLAR.0>
0

>  <SCORE.INTRA.REPUL>
0

>  <SCORE.INTRA.REPUL.0>
0

>  <SCORE.INTRA.SOLV>
1.42019

>  <SCORE.INTRA.SOLV.lig_0>
-71.4024

>  <SCORE.INTRA.VDW>
-0.213069

>  <SCORE.INTRA.VDW.0>
-1.86213

>  <SCORE.INTRA.norm>
0.0528775

>  <SCORE.RESTR>
0.0204134

>  <SCORE.RESTR.CAVITY>
0.0204134

>  <SCORE.RESTR.norm>
0.000927883

>  <SCORE.SYSTEM>
0

>  <SCORE.SYSTEM.CONST>
0

>  <SCORE.SYSTEM.DIHEDRAL>
0

>  <SCORE.SYSTEM.SOLV>
0

>  <SCORE.SYSTEM.norm>
0

>  <SCORE.heavy>
22

>  <SCORE.norm>
-0.0975948

>  <RMSD>
6.944

$$$$
lig.pdb
 OpenBabel11021811523D
libRbt.so/2013.1/901 2013/11/27
 22 23  0  0  0  0  0  0  0  0999 V2000
   -7.9713    3.1708    2.2924 C   0  0  1  0  0  0  0  0  0  0  0  0
   -8.2527    1.5488    0.3737 C   0  0  1  0  0  0  0  0  0  0  0  0
   -6.9468    0.7004    0.7083 C   0  0  1  0  0  0  0  0  0  0  0  0
   -7.1157   -0.7410    0.0455 C   0  0  2  0  0  0  0  0  0  0  0  0
   -8.1484    4.7218    2.5230 C   0  0  1  0  0  0  0  0  0  0  0  0
   -7.0574    5.4511    1.7141 C   0  0  2  0  0  0  0  0  0  0  0  0
   -5.6534    5.0459    2.1970 C   0  0  2  0  0  0  0  0  0  0  0  0
   -5.4170    3.5007    2.0274 C   0  0  1  0  0  0  0  0  0  0  0  0
   -4.0198    3.0777    2.5655 C   0  0  0  0  0  0  0  0  0  0  0  0
   -8.3885   -1.4805    0.7050 C   0  0  1  0  0  0  0  0  0  0  0  0
   -9.6858   -0.5953    0.3486 C   0  0  0  0  0  0  0  0  0  0  0  0
   -9.5263    0.8684    0.9690 C   0  0  2  0  0  0  0  0  0  0  0  0
   -5.4859    5.4019    3.6106 F   0  0  0  0  0  0  0  0  0  0  0  0
   -9.5405    5.1018    2.0637 N   0  0  0  0  0  0  0  0  0  0  0  0
   -3.6788    1.7254    2.3341 N   0  0  0  0  0  0  0  0  0  0  0  0
   -8.5990   -2.8396    0.0990 N   0  0  0  0  0  0  0  0  0  0  0  0
  -10.7183    1.6754    0.6370 N   0  0  0  0  0  0  0  0  0  0  0  0
   -8.1568    2.8420    0.9512 O   0  0  0  0  0  0  0  0  0  0  0  0
   -5.7851    1.3941    0.1038 O   0  0  0  0  0  0  0  0  0  0  0  0
   -5.9565   -1.4606    0.3445 O   0  0  0  0  0  0  0  0  0  0  0  0
   -7.1870    6.5812    1.8855 O   0  0  0  0  0  0  0  0  0  0  0  0
   -6.5693    2.7934    2.7637 O   0  0  0  0  0  0  0  0  0  0  0  0
  1  5  1  0  0  0  0
  1 18  1  6  0  0  0
  2 18  1  1  0  0  0
  2  3  1  0  0  0  0
  2 12  1  0  0  0  0
  3 19  1  6  0  0  0
  3  4  1  0  0  0  0
  4 20  1  1  0  0  0
  4 10  1  0  0  0  0
  5  6  1  0  0  0  0
  5 14  1  6  0  0  0
  6 21  1  1  0  0  0
  7 13  1  1  0  0  0
  7  6  1  0  0  0  0
  8  9  1  1  0  0  0
  8  7  1  0  0  0  0
 10 16  1  6  0  0  0
 11 10  1  0  0  0  0
 12 17  1  6  0  0  0
 12 11  1  0  0  0  0
 15  9  1  0  0  0  0
 22  8  1  0  0  0  0
 22  1  1  0  0  0  0
M  END
>  <CHROM.1>
-171.10772972,-57.48976446,-174.26403387,-7.21520174,2.25946753,1.45125989
1.29717653,-0.17743761,0.29443348

>  <Name>
lig.pdb

>  <RI>
0

>  <Rbt.Current_Directory>
/home/itssahil/PROJECTS/Mol_Feturizer/New_Systems/rnas/5bws

>  <Rbt.Executable>
rbdock ($Id: //depot/dev/client3/rdock/2013.1/src/exe/rbdock.cxx#4 $)

>  <Rbt.Library>
libRbt.so (2013.1, Build901 2013/11/27)

>  <Rbt.Parameter_File>
/export/apps/rDock/src/rDock_2013.1_src/data/scripts/dock_solv.prm

>  <Rbt.Receptor>
prm/pocket_docking_7.prm

>  <SCORE>
-8.62532

>  <SCORE.INTER>
-6.49672

>  <SCORE.INTER.CONST>
1

>  <SCORE.INTER.POLAR>
0

>  <SCORE.INTER.ROT>
3

>  <SCORE.INTER.SOLV>
11.5773

>  <SCORE.INTER.VDW>
-13.7902

>  <SCORE.INTER.norm>
-0.295306

>  <SCORE.INTRA>
-2.1286

>  <SCORE.INTRA.DIHEDRAL>
-5.5732

>  <SCORE.INTRA.DIHEDRAL.0>
6.10773

>  <SCORE.INTRA.POLAR>
0

>  <SCORE.INTRA.POLAR.0>
0

>  <SCORE.INTRA.REPUL>
0

>  <SCORE.INTRA.REPUL.0>
0

>  <SCORE.INTRA.SOLV>
1.34914

>  <SCORE.INTRA.SOLV.lig_0>
-71.4024

>  <SCORE.INTRA.VDW>
-0.0165699

>  <SCORE.INTRA.VDW.0>
-1.86213

>  <SCORE.INTRA.norm>
-0.0967547

>  <SCORE.RESTR>
0

>  <SCORE.RESTR.CAVITY>
0

>  <SCORE.RESTR.norm>
0

>  <SCORE.SYSTEM>
0

>  <SCORE.SYSTEM.CONST>
0

>  <SCORE.SYSTEM.DIHEDRAL>
0

>  <SCORE.SYSTEM.SOLV>
0

>  <SCORE.SYSTEM.norm>
0

>  <SCORE.heavy>
22

>  <SCORE.norm>
-0.39206

>  <RMSD>
7.056

$$$$
lig.pdb
 OpenBabel11021811523D
libRbt.so/2013.1/901 2013/11/27
 22 23  0  0  0  0  0  0  0  0999 V2000
   -7.4052    2.2801    0.8675 C   0  0  1  0  0  0  0  0  0  0  0  0
   -7.5730   -0.1791    1.4291 C   0  0  1  0  0  0  0  0  0  0  0  0
   -9.0919   -0.3516    0.9820 C   0  0  1  0  0  0  0  0  0  0  0  0
   -9.3354   -1.8948    0.6585 C   0  0  2  0  0  0  0  0  0  0  0  0
   -6.7773    3.5692    1.5263 C   0  0  1  0  0  0  0  0  0  0  0  0
   -7.5849    3.8954    2.7982 C   0  0  2  0  0  0  0  0  0  0  0  0
   -9.0548    4.1936    2.4533 C   0  0  2  0  0  0  0  0  0  0  0  0
   -9.7387    2.9590    1.7603 C   0  0  1  0  0  0  0  0  0  0  0  0
  -11.2086    3.2750    1.3597 C   0  0  0  0  0  0  0  0  0  0  0  0
   -8.3878   -2.3333   -0.5710 C   0  0  1  0  0  0  0  0  0  0  0  0
   -6.8645   -2.1440   -0.0838 C   0  0  0  0  0  0  0  0  0  0  0  0
   -6.6029   -0.6112    0.2838 C   0  0  2  0  0  0  0  0  0  0  0  0
   -9.1353    5.3506    1.5544 F   0  0  0  0  0  0  0  0  0  0  0  0
   -5.3267    3.2684    1.8403 N   0  0  0  0  0  0  0  0  0  0  0  0
  -12.0510    3.6423    2.4340 N   0  0  0  0  0  0  0  0  0  0  0  0
   -8.5696   -3.7879   -0.9027 N   0  0  0  0  0  0  0  0  0  0  0  0
   -5.2050   -0.4449    0.7314 N   0  0  0  0  0  0  0  0  0  0  0  0
   -7.3008    1.1833    1.7203 O   0  0  0  0  0  0  0  0  0  0  0  0
   -9.9511    0.0615    2.1167 O   0  0  0  0  0  0  0  0  0  0  0  0
  -10.6737   -2.0210    0.2788 O   0  0  0  0  0  0  0  0  0  0  0  0
   -7.1270    4.8366    3.2756 O   0  0  0  0  0  0  0  0  0  0  0  0
   -8.8647    2.5924    0.5471 O   0  0  0  0  0  0  0  0  0  0  0  0
  1  5  1  0  0  0  0
  1 18  1  1  0  0  0
  2 18  1  6  0  0  0
  2  3  1  0  0  0  0
  2 12  1  0  0  0  0
  3 19  1  1  0  0  0
  3  4  1  0  0  0  0
  4 20  1  6  0  0  0
  4 10  1  0  0  0  0
  5  6  1  0  0  0  0
  5 14  1  1  0  0  0
  6 21  1  6  0  0  0
  7 13  1  6  0  0  0
  7  6  1  0  0  0  0
  8  9  1  6  0  0  0
  8  7  1  0  0  0  0
 10 16  1  1  0  0  0
 11 10  1  0  0  0  0
 12 17  1  1  0  0  0
 12 11  1  0  0  0  0
 15  9  1  0  0  0  0
 22  8  1  0  0  0  0
 22  1  1  0  0  0  0
M  END
>  <CHROM.1>
-170.48463373,-59.98688284,-59.16636742,-8.38834104,1.31371079,1.24681329
-1.62215313,-0.01373313,-2.82425907

>  <Name>
lig.pdb

>  <RI>
0

>  <Rbt.Current_Directory>
/home/itssahil/PROJECTS/Mol_Feturizer/New_Systems/rnas/5bws

>  <Rbt.Executable>
rbdock ($Id: //depot/dev/client3/rdock/2013.1/src/exe/rbdock.cxx#4 $)

>  <Rbt.Library>
libRbt.so (2013.1, Build901 2013/11/27)

>  <Rbt.Parameter_File>
/export/apps/rDock/src/rDock_2013.1_src/data/scripts/dock_solv.prm

>  <Rbt.Receptor>
prm/pocket_docking_8.prm

>  <SCORE>
-9.06736

>  <SCORE.INTER>
-6.69267

>  <SCORE.INTER.CONST>
1

>  <SCORE.INTER.POLAR>
0

>  <SCORE.INTER.ROT>
3

>  <SCORE.INTER.SOLV>
15.8132

>  <SCORE.INTER.VDW>
-15.3329

>  <SCORE.INTER.norm>
-0.304212

>  <SCORE.INTRA>
-2.3747

>  <SCORE.INTRA.DIHEDRAL>
-5.66503

>  <SCORE.INTRA.DIHEDRAL.0>
6.10773

>  <SCORE.INTRA.POLAR>
0

>  <SCORE.INTRA.POLAR.0>
0

>  <SCORE.INTRA.REPUL>
0

>  <SCORE.INTRA.REPUL.0>
0

>  <SCORE.INTRA.SOLV>
0.596062

>  <SCORE.INTRA.SOLV.lig_0>
-71.4024

>  <SCORE.INTRA.VDW>
0.159789

>  <SCORE.INTRA.VDW.0>
-1.86213

>  <SCORE.INTRA.norm>
-0.107941

>  <SCORE.RESTR>
0

>  <SCORE.RESTR.CAVITY>
0

>  <SCORE.RESTR.norm>
0

>  <SCORE.SYSTEM>
0

>  <SCORE.SYSTEM.CONST>
0

>  <SCORE.SYSTEM.DIHEDRAL>
0

>  <SCORE.SYSTEM.SOLV>
0

>  <SCORE.SYSTEM.norm>
0

>  <SCORE.heavy>
22

>  <SCORE.norm>
-0.412153

>  <RMSD>
7.065

$$$$
lig.pdb
 OpenBabel11021811523D
libRbt.so/2013.1/901 2013/11/27
 22 23  0  0  0  0  0  0  0  0999 V2000
   -8.4508    3.7865    2.2969 C   0  0  1  0  0  0  0  0  0  0  0  0
   -8.8394    1.9533    0.5999 C   0  0  1  0  0  0  0  0  0  0  0  0
   -7.4963    1.1361    0.8553 C   0  0  1  0  0  0  0  0  0  0  0  0
   -7.7420   -0.3693    0.3875 C   0  0  2  0  0  0  0  0  0  0  0  0
   -8.3117    5.3583    2.2924 C   0  0  1  0  0  0  0  0  0  0  0  0
   -7.0811    5.7250    1.4396 C   0  0  2  0  0  0  0  0  0  0  0  0
   -5.7979    5.1261    2.0421 C   0  0  2  0  0  0  0  0  0  0  0  0
   -5.8788    3.5573    2.1089 C   0  0  1  0  0  0  0  0  0  0  0  0
   -4.6067    2.9507    2.7683 C   0  0  0  0  0  0  0  0  0  0  0  0
   -8.9137   -1.0179    1.2866 C   0  0  1  0  0  0  0  0  0  0  0  0
  -10.2514   -0.1667    1.0043 C   0  0  0  0  0  0  0  0  0  0  0  0
  -10.0206    1.3562    1.4291 C   0  0  2  0  0  0  0  0  0  0  0  0
   -5.5858    5.6510    3.3959 F   0  0  0  0  0  0  0  0  0  0  0  0
   -9.5890    5.9341    1.7174 N   0  0  0  0  0  0  0  0  0  0  0  0
   -3.4090    3.1529    2.0450 N   0  0  0  0  0  0  0  0  0  0  0  0
   -9.1939   -2.4347    0.8708 N   0  0  0  0  0  0  0  0  0  0  0  0
  -11.2503    2.1314    1.1661 N   0  0  0  0  0  0  0  0  0  0  0  0
   -8.6762    3.3024    1.0100 O   0  0  0  0  0  0  0  0  0  0  0  0
   -6.4272    1.7464    0.0301 O   0  0  0  0  0  0  0  0  0  0  0  0
   -6.5497   -1.0612    0.6125 O   0  0  0  0  0  0  0  0  0  0  0  0
   -6.9803    6.8710    1.4396 O   0  0  0  0  0  0  0  0  0  0  0  0
   -7.1637    3.2131    2.8840 O   0  0  0  0  0  0  0  0  0  0  0  0
  1  5  1  0  0  0  0
  1 18  1  6  0  0  0
  2 18  1  1  0  0  0
  2  3  1  0  0  0  0
  2 12  1  0  0  0  0
  3 19  1  6  0  0  0
  3  4  1  0  0  0  0
  4 20  1  1  0  0  0
  4 10  1  0  0  0  0
  5  6  1  0  0  0  0
  5 14  1  6  0  0  0
  6 21  1  1  0  0  0
  7 13  1  1  0  0  0
  7  6  1  0  0  0  0
  8  9  1  1  0  0  0
  8  7  1  0  0  0  0
 10 16  1  6  0  0  0
 11 10  1  0  0  0  0
 12 17  1  6  0  0  0
 12 11  1  0  0  0  0
 15  9  1  0  0  0  0
 22  8  1  0  0  0  0
 22  1  1  0  0  0  0
M  END
>  <CHROM.1>
179.25016152,-64.51621750,-64.68098881,-7.59128733,2.68473217,1.55188973
1.18162781,-0.12469088,0.18599289

>  <Name>
lig.pdb

>  <RI>
0

>  <Rbt.Current_Directory>
/home/itssahil/PROJECTS/Mol_Feturizer/New_Systems/rnas/5bws

>  <Rbt.Executable>
rbdock ($Id: //depot/dev/client3/rdock/2013.1/src/exe/rbdock.cxx#4 $)

>  <Rbt.Library>
libRbt.so (2013.1, Build901 2013/11/27)

>  <Rbt.Parameter_File>
/export/apps/rDock/src/rDock_2013.1_src/data/scripts/dock_solv.prm

>  <Rbt.Receptor>
prm/pocket_docking_6.prm

>  <SCORE>
-8.52855

>  <SCORE.INTER>
-5.98912

>  <SCORE.INTER.CONST>
1

>  <SCORE.INTER.POLAR>
0

>  <SCORE.INTER.ROT>
3

>  <SCORE.INTER.SOLV>
13.7736

>  <SCORE.INTER.VDW>
-14.184

>  <SCORE.INTER.norm>
-0.272233

>  <SCORE.INTRA>
-2.53943

>  <SCORE.INTRA.DIHEDRAL>
-5.92285

>  <SCORE.INTRA.DIHEDRAL.0>
6.10773

>  <SCORE.INTRA.POLAR>
0

>  <SCORE.INTRA.POLAR.0>
0

>  <SCORE.INTRA.REPUL>
0

>  <SCORE.INTRA.REPUL.0>
0

>  <SCORE.INTRA.SOLV>
0.202415

>  <SCORE.INTRA.SOLV.lig_0>
-71.4024

>  <SCORE.INTRA.VDW>
0.320786

>  <SCORE.INTRA.VDW.0>
-1.86213

>  <SCORE.INTRA.norm>
-0.115429

>  <SCORE.RESTR>
0

>  <SCORE.RESTR.CAVITY>
0

>  <SCORE.RESTR.norm>
0

>  <SCORE.SYSTEM>
0

>  <SCORE.SYSTEM.CONST>
0

>  <SCORE.SYSTEM.DIHEDRAL>
0

>  <SCORE.SYSTEM.SOLV>
0

>  <SCORE.SYSTEM.norm>
0

>  <SCORE.heavy>
22

>  <SCORE.norm>
-0.387661

>  <RMSD>
7.357

$$$$
lig.pdb
 OpenBabel11021811523D
libRbt.so/2013.1/901 2013/11/27
 22 23  0  0  0  0  0  0  0  0999 V2000
   -5.4090   -6.2839   -1.2950 C   0  0  1  0  0  0  0  0  0  0  0  0
   -4.0247   -5.9878   -3.3897 C   0  0  1  0  0  0  0  0  0  0  0  0
   -2.6476   -6.0603   -2.5927 C   0  0  1  0  0  0  0  0  0  0  0  0
   -1.5151   -5.4127   -3.5110 C   0  0  2  0  0  0  0  0  0  0  0  0
   -6.6824   -7.1058   -0.8557 C   0  0  1  0  0  0  0  0  0  0  0  0
   -7.8641   -6.6621   -1.7405 C   0  0  2  0  0  0  0  0  0  0  0  0
   -8.1625   -5.1647   -1.5468 C   0  0  2  0  0  0  0  0  0  0  0  0
   -6.9207   -4.2819   -1.9354 C   0  0  1  0  0  0  0  0  0  0  0  0
   -7.1987   -2.7711   -1.6887 C   0  0  0  0  0  0  0  0  0  0  0  0
   -1.3697   -6.2809   -4.8627 C   0  0  1  0  0  0  0  0  0  0  0  0
   -2.7778   -6.1859   -5.6385 C   0  0  0  0  0  0  0  0  0  0  0  0
   -3.9386   -6.7941   -4.7245 C   0  0  2  0  0  0  0  0  0  0  0  0
   -8.5172   -4.8998   -0.1479 F   0  0  0  0  0  0  0  0  0  0  0  0
   -6.3668   -8.5766   -1.0313 N   0  0  0  0  0  0  0  0  0  0  0  0
   -7.4640   -2.4281   -0.3431 N   0  0  0  0  0  0  0  0  0  0  0  0
   -0.3232   -5.6982   -5.7705 N   0  0  0  0  0  0  0  0  0  0  0  0
   -5.2272   -6.7024   -5.4411 N   0  0  0  0  0  0  0  0  0  0  0  0
   -5.0677   -6.5623   -2.6168 O   0  0  0  0  0  0  0  0  0  0  0  0
   -2.7972   -5.2658   -1.3506 O   0  0  0  0  0  0  0  0  0  0  0  0
   -0.3221   -5.4797   -2.7876 O   0  0  0  0  0  0  0  0  0  0  0  0
   -8.7917   -7.2608   -1.4171 O   0  0  0  0  0  0  0  0  0  0  0  0
   -5.7311   -4.8034   -1.1090 O   0  0  0  0  0  0  0  0  0  0  0  0
  1  5  1  0  0  0  0
  1 18  1  6  0  0  0
  2 18  1  1  0  0  0
  2  3  1  0  0  0  0
  2 12  1  0  0  0  0
  3 19  1  1  0  0  0
  3  4  1  0  0  0  0
  4 20  1  1  0  0  0
  4 10  1  0  0  0  0
  5  6  1  0  0  0  0
  5 14  1  6  0  0  0
  6 21  1  1  0  0  0
  7 13  1  1  0  0  0
  7  6  1  0  0  0  0
  8  9  1  1  0  0  0
  8  7  1  0  0  0  0
 10 16  1  6  0  0  0
 11 10  1  0  0  0  0
 12 17  1  6  0  0  0
 12 11  1  0  0  0  0
 15  9  1  0  0  0  0
 22  8  1  0  0  0  0
 22  1  1  0  0  0  0
M  END
>  <CHROM.1>
177.23205174,50.97747175,61.70821961,-5.00670006,-5.73978499,-2.47320813
2.82240807,0.40165315,0.50833311

>  <Name>
lig.pdb

>  <RI>
0

>  <Rbt.Current_Directory>
/home/itssahil/PROJECTS/Mol_Feturizer/New_Systems/rnas/5bws

>  <Rbt.Executable>
rbdock ($Id: //depot/dev/client3/rdock/2013.1/src/exe/rbdock.cxx#4 $)

>  <Rbt.Library>
libRbt.so (2013.1, Build901 2013/11/27)

>  <Rbt.Parameter_File>
/export/apps/rDock/src/rDock_2013.1_src/data/scripts/dock_solv.prm

>  <Rbt.Receptor>
prm/pocket_docking_6.prm

>  <SCORE>
-7.88486

>  <SCORE.INTER>
-5.6199

>  <SCORE.INTER.CONST>
1

>  <SCORE.INTER.POLAR>
0

>  <SCORE.INTER.ROT>
3

>  <SCORE.INTER.SOLV>
11.2091

>  <SCORE.INTER.VDW>
-13.083

>  <SCORE.INTER.norm>
-0.25545

>  <SCORE.INTRA>
-2.26497

>  <SCORE.INTRA.DIHEDRAL>
-5.66283

>  <SCORE.INTRA.DIHEDRAL.0>
6.10773

>  <SCORE.INTRA.POLAR>
0

>  <SCORE.INTRA.POLAR.0>
0

>  <SCORE.INTRA.REPUL>
0

>  <SCORE.INTRA.REPUL.0>
0

>  <SCORE.INTRA.SOLV>
-0.112067

>  <SCORE.INTRA.SOLV.lig_0>
-71.4024

>  <SCORE.INTRA.VDW>
0.622479

>  <SCORE.INTRA.VDW.0>
-1.86213

>  <SCORE.INTRA.norm>
-0.102953

>  <SCORE.RESTR>
0

>  <SCORE.RESTR.CAVITY>
0

>  <SCORE.RESTR.norm>
0

>  <SCORE.SYSTEM>
0

>  <SCORE.SYSTEM.CONST>
0

>  <SCORE.SYSTEM.DIHEDRAL>
0

>  <SCORE.SYSTEM.SOLV>
0

>  <SCORE.SYSTEM.norm>
0

>  <SCORE.heavy>
22

>  <SCORE.norm>
-0.358403

>  <RMSD>
7.406

$$$$
lig.pdb
 OpenBabel11021811523D
libRbt.so/2013.1/901 2013/11/27
 22 23  0  0  0  0  0  0  0  0999 V2000
   -8.8082    3.5100    1.9369 C   0  0  1  0  0  0  0  0  0  0  0  0
   -8.3032    1.2523    0.9176 C   0  0  1  0  0  0  0  0  0  0  0  0
   -9.7264    0.5435    0.8213 C   0  0  1  0  0  0  0  0  0  0  0  0
   -9.4911   -1.0342    0.8483 C   0  0  2  0  0  0  0  0  0  0  0  0
   -9.0715    4.9758    1.4151 C   0  0  1  0  0  0  0  0  0  0  0  0
   -7.7572    5.5097    0.8118 C   0  0  2  0  0  0  0  0  0  0  0  0
   -6.6477    5.5657    1.8769 C   0  0  2  0  0  0  0  0  0  0  0  0
   -6.3535    4.1388    2.4680 C   0  0  1  0  0  0  0  0  0  0  0  0
   -5.2714    4.1988    3.5845 C   0  0  0  0  0  0  0  0  0  0  0  0
   -8.6193   -1.4610   -0.4402 C   0  0  1  0  0  0  0  0  0  0  0  0
   -7.1925   -0.7257   -0.3093 C   0  0  0  0  0  0  0  0  0  0  0  0
   -7.4018    0.8582   -0.2954 C   0  0  2  0  0  0  0  0  0  0  0  0
   -7.0441    6.4622    2.9688 F   0  0  0  0  0  0  0  0  0  0  0  0
  -10.1791    4.9079    0.3845 N   0  0  0  0  0  0  0  0  0  0  0  0
   -3.9788    4.5594    3.1399 N   0  0  0  0  0  0  0  0  0  0  0  0
   -8.3563   -2.9407   -0.4500 N   0  0  0  0  0  0  0  0  0  0  0  0
   -6.0898    1.5262   -0.1735 N   0  0  0  0  0  0  0  0  0  0  0  0
   -8.4567    2.6631    0.8879 O   0  0  0  0  0  0  0  0  0  0  0  0
  -10.5192    0.9496    2.0057 O   0  0  0  0  0  0  0  0  0  0  0  0
  -10.7515   -1.6313    0.7722 O   0  0  0  0  0  0  0  0  0  0  0  0
   -7.9509    6.5789    0.4342 O   0  0  0  0  0  0  0  0  0  0  0  0
   -7.6963    3.5865    2.9799 O   0  0  0  0  0  0  0  0  0  0  0  0
  1  5  1  0  0  0  0
  1 18  1  6  0  0  0
  2 18  1  6  0  0  0
  2  3  1  0  0  0  0
  2 12  1  0  0  0  0
  3 19  1  1  0  0  0
  3  4  1  0  0  0  0
  4 20  1  6  0  0  0
  4 10  1  0  0  0  0
  5  6  1  0  0  0  0
  5 14  1  6  0  0  0
  6 21  1  1  0  0  0
  7 13  1  1  0  0  0
  7  6  1  0  0  0  0
  8  9  1  1  0  0  0
  8  7  1  0  0  0  0
 10 16  1  1  0  0  0
 11 10  1  0  0  0  0
 12 17  1  1  0  0  0
 12 11  1  0  0  0  0
 15  9  1  0  0  0  0
 22  8  1  0  0  0  0
 22  1  1  0  0  0  0
M  END
>  <CHROM.1>
-171.58874202,80.55457897,-66.86882336,-7.99694300,2.51938807,1.24856208
1.25771963,-0.19974117,0.22286748

>  <Name>
lig.pdb

>  <RI>
0

>  <Rbt.Current_Directory>
/home/itssahil/PROJECTS/Mol_Feturizer/New_Systems/rnas/5bws

>  <Rbt.Executable>
rbdock ($Id: //depot/dev/client3/rdock/2013.1/src/exe/rbdock.cxx#4 $)

>  <Rbt.Library>
libRbt.so (2013.1, Build901 2013/11/27)

>  <Rbt.Parameter_File>
/export/apps/rDock/src/rDock_2013.1_src/data/scripts/dock_solv.prm

>  <Rbt.Receptor>
prm/pocket_docking_6.prm

>  <SCORE>
-8.54699

>  <SCORE.INTER>
-6.49728

>  <SCORE.INTER.CONST>
1

>  <SCORE.INTER.POLAR>
0

>  <SCORE.INTER.ROT>
3

>  <SCORE.INTER.SOLV>
16.579

>  <SCORE.INTER.VDW>
-15.4578

>  <SCORE.INTER.norm>
-0.295331

>  <SCORE.INTRA>
-2.04971

>  <SCORE.INTRA.DIHEDRAL>
-3.70185

>  <SCORE.INTRA.DIHEDRAL.0>
6.10773

>  <SCORE.INTRA.POLAR>
0

>  <SCORE.INTRA.POLAR.0>
0

>  <SCORE.INTRA.REPUL>
0

>  <SCORE.INTRA.REPUL.0>
0

>  <SCORE.INTRA.SOLV>
-0.572076

>  <SCORE.INTRA.SOLV.lig_0>
-71.4024

>  <SCORE.INTRA.VDW>
0.0872481

>  <SCORE.INTRA.VDW.0>
-1.86213

>  <SCORE.INTRA.norm>
-0.0931688

>  <SCORE.RESTR>
0

>  <SCORE.RESTR.CAVITY>
0

>  <SCORE.RESTR.norm>
0

>  <SCORE.SYSTEM>
0

>  <SCORE.SYSTEM.CONST>
0

>  <SCORE.SYSTEM.DIHEDRAL>
0

>  <SCORE.SYSTEM.SOLV>
0

>  <SCORE.SYSTEM.norm>
0

>  <SCORE.heavy>
22

>  <SCORE.norm>
-0.3885

>  <RMSD>
7.468

$$$$
lig.pdb
 OpenBabel11021811523D
libRbt.so/2013.1/901 2013/11/27
 22 23  0  0  0  0  0  0  0  0999 V2000
   -5.1492   -6.2788   -1.5230 C   0  0  1  0  0  0  0  0  0  0  0  0
   -3.1713   -6.2168   -3.0963 C   0  0  1  0  0  0  0  0  0  0  0  0
   -2.9320   -5.6945   -4.5819 C   0  0  1  0  0  0  0  0  0  0  0  0
   -1.4773   -6.1643   -5.0383 C   0  0  2  0  0  0  0  0  0  0  0  0
   -6.0842   -7.4912   -1.9051 C   0  0  1  0  0  0  0  0  0  0  0  0
   -7.1264   -6.9864   -2.9226 C   0  0  2  0  0  0  0  0  0  0  0  0
   -7.9980   -5.8758   -2.3101 C   0  0  2  0  0  0  0  0  0  0  0  0
   -7.1253   -4.6430   -1.8732 C   0  0  1  0  0  0  0  0  0  0  0  0
   -7.9949   -3.5407   -1.2029 C   0  0  0  0  0  0  0  0  0  0  0  0
   -0.3759   -5.4861   -4.0744 C   0  0  1  0  0  0  0  0  0  0  0  0
   -0.6500   -6.0346   -2.5852 C   0  0  0  0  0  0  0  0  0  0  0  0
   -2.1173   -5.6103   -2.1163 C   0  0  2  0  0  0  0  0  0  0  0  0
   -8.7175   -6.3899   -1.1391 F   0  0  0  0  0  0  0  0  0  0  0  0
   -5.2110   -8.5835   -2.4861 N   0  0  0  0  0  0  0  0  0  0  0  0
   -7.2723   -2.4250   -0.7216 N   0  0  0  0  0  0  0  0  0  0  0  0
    1.0137   -5.9134   -4.4555 N   0  0  0  0  0  0  0  0  0  0  0  0
   -2.3627   -6.1178   -0.7509 N   0  0  0  0  0  0  0  0  0  0  0  0
   -4.4533   -5.8155   -2.6375 O   0  0  0  0  0  0  0  0  0  0  0  0
   -3.9542   -6.3185   -5.4549 O   0  0  0  0  0  0  0  0  0  0  0  0
   -1.2958   -5.7031   -6.3442 O   0  0  0  0  0  0  0  0  0  0  0  0
   -7.8082   -7.8711   -3.1980 O   0  0  0  0  0  0  0  0  0  0  0  0
   -6.0343   -5.1846   -0.9316 O   0  0  0  0  0  0  0  0  0  0  0  0
  1  5  1  0  0  0  0
  1 18  1  6  0  0  0
  2 18  1  1  0  0  0
  2  3  1  0  0  0  0
  2 12  1  0  0  0  0
  3 19  1  6  0  0  0
  3  4  1  0  0  0  0
  4 20  1  6  0  0  0
  4 10  1  0  0  0  0
  5  6  1  0  0  0  0
  5 14  1  6  0  0  0
  6 21  1  1  0  0  0
  7 13  1  1  0  0  0
  7  6  1  0  0  0  0
  8  9  1  1  0  0  0
  8  7  1  0  0  0  0
 10 16  1  6  0  0  0
 11 10  1  0  0  0  0
 12 17  1  1  0  0  0
 12 11  1  0  0  0  0
 15  9  1  0  0  0  0
 22  8  1  0  0  0  0
 22  1  1  0  0  0  0
M  END
>  <CHROM.1>
-91.51006362,166.10400932,177.02276165,-4.54696096,-5.93631298,-2.78668516
-2.84889758,-0.25605382,-2.39368667

>  <Name>
lig.pdb

>  <RI>
0

>  <Rbt.Current_Directory>
/home/itssahil/PROJECTS/Mol_Feturizer/New_Systems/rnas/5bws

>  <Rbt.Executable>
rbdock ($Id: //depot/dev/client3/rdock/2013.1/src/exe/rbdock.cxx#4 $)

>  <Rbt.Library>
libRbt.so (2013.1, Build901 2013/11/27)

>  <Rbt.Parameter_File>
/export/apps/rDock/src/rDock_2013.1_src/data/scripts/dock_solv.prm

>  <Rbt.Receptor>
prm/pocket_docking_8.prm

>  <SCORE>
-5.93365

>  <SCORE.INTER>
-6.19791

>  <SCORE.INTER.CONST>
1

>  <SCORE.INTER.POLAR>
0

>  <SCORE.INTER.ROT>
3

>  <SCORE.INTER.SOLV>
10.1413

>  <SCORE.INTER.VDW>
-13.1124

>  <SCORE.INTER.norm>
-0.281723

>  <SCORE.INTRA>
0.264254

>  <SCORE.INTRA.DIHEDRAL>
-1.2779

>  <SCORE.INTRA.DIHEDRAL.0>
6.10773

>  <SCORE.INTRA.POLAR>
0

>  <SCORE.INTRA.POLAR.0>
0

>  <SCORE.INTRA.REPUL>
0

>  <SCORE.INTRA.REPUL.0>
0

>  <SCORE.INTRA.SOLV>
0.875594

>  <SCORE.INTRA.SOLV.lig_0>
-71.4024

>  <SCORE.INTRA.VDW>
0.465406

>  <SCORE.INTRA.VDW.0>
-1.86213

>  <SCORE.INTRA.norm>
0.0120115

>  <SCORE.RESTR>
0

>  <SCORE.RESTR.CAVITY>
0

>  <SCORE.RESTR.norm>
0

>  <SCORE.SYSTEM>
0

>  <SCORE.SYSTEM.CONST>
0

>  <SCORE.SYSTEM.DIHEDRAL>
0

>  <SCORE.SYSTEM.SOLV>
0

>  <SCORE.SYSTEM.norm>
0

>  <SCORE.heavy>
22

>  <SCORE.norm>
-0.269712

>  <RMSD>
7.500

$$$$
lig.pdb
 OpenBabel11021811523D
libRbt.so/2013.1/901 2013/11/27
 22 23  0  0  0  0  0  0  0  0999 V2000
  -19.2280  -14.3639   -7.9297 C   0  0  1  0  0  0  0  0  0  0  0  0
  -20.0811  -12.0388   -8.4369 C   0  0  1  0  0  0  0  0  0  0  0  0
  -21.3814  -12.4488   -9.2603 C   0  0  1  0  0  0  0  0  0  0  0  0
  -22.4201  -11.2413   -9.1694 C   0  0  2  0  0  0  0  0  0  0  0  0
  -17.9003  -15.1854   -8.1588 C   0  0  1  0  0  0  0  0  0  0  0  0
  -17.6992  -15.3513   -9.6782 C   0  0  2  0  0  0  0  0  0  0  0  0
  -18.8677  -16.1332  -10.3040 C   0  0  2  0  0  0  0  0  0  0  0  0
  -20.2343  -15.3871  -10.0846 C   0  0  1  0  0  0  0  0  0  0  0  0
  -21.4255  -16.2010  -10.6672 C   0  0  0  0  0  0  0  0  0  0  0  0
  -22.8402  -11.0201   -7.6277 C   0  0  1  0  0  0  0  0  0  0  0  0
  -21.5035  -10.6101   -6.8284 C   0  0  0  0  0  0  0  0  0  0  0  0
  -20.4292  -11.7880   -6.9351 C   0  0  2  0  0  0  0  0  0  0  0  0
  -18.9536  -17.4713   -9.7078 F   0  0  0  0  0  0  0  0  0  0  0  0
  -16.7637  -14.4152   -7.5198 N   0  0  0  0  0  0  0  0  0  0  0  0
  -21.3616  -16.4326  -12.0603 N   0  0  0  0  0  0  0  0  0  0  0  0
  -23.8077   -9.8785   -7.4886 N   0  0  0  0  0  0  0  0  0  0  0  0
  -19.2055  -11.4049   -6.2016 N   0  0  0  0  0  0  0  0  0  0  0  0
  -19.1252  -13.0874   -8.4785 O   0  0  0  0  0  0  0  0  0  0  0  0
  -20.9806  -12.6563  -10.6720 O   0  0  0  0  0  0  0  0  0  0  0  0
  -23.5450  -11.6208   -9.9053 O   0  0  0  0  0  0  0  0  0  0  0  0
  -16.7322  -15.9523   -9.8428 O   0  0  0  0  0  0  0  0  0  0  0  0
  -20.3701  -15.1489   -8.5697 O   0  0  0  0  0  0  0  0  0  0  0  0
  1  5  1  0  0  0  0
  1 18  1  6  0  0  0
  2 18  1  1  0  0  0
  2  3  1  0  0  0  0
  2 12  1  0  0  0  0
  3 19  1  6  0  0  0
  3  4  1  0  0  0  0
  4 20  1  6  0  0  0
  4 10  1  0  0  0  0
  5  6  1  0  0  0  0
  5 14  1  6  0  0  0
  6 21  1  1  0  0  0
  7 13  1  1  0  0  0
  7  6  1  0  0  0  0
  8  9  1  1  0  0  0
  8  7  1  0  0  0  0
 10 16  1  6  0  0  0
 11 10  1  0  0  0  0
 12 17  1  1  0  0  0
 12 11  1  0  0  0  0
 15  9  1  0  0  0  0
 22  8  1  0  0  0  0
 22  1  1  0  0  0  0
M  END
>  <CHROM.1>
-177.43085207,-65.70112535,-61.13956794,-20.20199444,-13.69638050,-8.92397945
-0.88876896,-0.46860732,0.67729150

>  <Name>
lig.pdb

>  <RI>
0

>  <Rbt.Current_Directory>
/home/itssahil/PROJECTS/Mol_Feturizer/New_Systems/rnas/5bws

>  <Rbt.Executable>
rbdock ($Id: //depot/dev/client3/rdock/2013.1/src/exe/rbdock.cxx#4 $)

>  <Rbt.Library>
libRbt.so (2013.1, Build901 2013/11/27)

>  <Rbt.Parameter_File>
/export/apps/rDock/src/rDock_2013.1_src/data/scripts/dock_solv.prm

>  <Rbt.Receptor>
prm/blind_docking_40.prm

>  <SCORE>
-3.35127

>  <SCORE.INTER>
-0.712677

>  <SCORE.INTER.CONST>
1

>  <SCORE.INTER.POLAR>
0

>  <SCORE.INTER.ROT>
3

>  <SCORE.INTER.SOLV>
15.9563

>  <SCORE.INTER.VDW>
-11.3939

>  <SCORE.INTER.norm>
-0.0323944

>  <SCORE.INTRA>
-2.63859

>  <SCORE.INTRA.DIHEDRAL>
-5.90862

>  <SCORE.INTRA.DIHEDRAL.0>
6.10773

>  <SCORE.INTRA.POLAR>
0

>  <SCORE.INTRA.POLAR.0>
0

>  <SCORE.INTRA.REPUL>
0

>  <SCORE.INTRA.REPUL.0>
0

>  <SCORE.INTRA.SOLV>
0.296582

>  <SCORE.INTRA.SOLV.lig_0>
-71.4024

>  <SCORE.INTRA.VDW>
0.167429

>  <SCORE.INTRA.VDW.0>
-1.86213

>  <SCORE.INTRA.norm>
-0.119936

>  <SCORE.RESTR>
0

>  <SCORE.RESTR.CAVITY>
0

>  <SCORE.RESTR.norm>
0

>  <SCORE.SYSTEM>
0

>  <SCORE.SYSTEM.CONST>
0

>  <SCORE.SYSTEM.DIHEDRAL>
0

>  <SCORE.SYSTEM.SOLV>
0

>  <SCORE.SYSTEM.norm>
0

>  <SCORE.heavy>
22

>  <SCORE.norm>
-0.15233

>  <RMSD>
22.006

$$$$
lig.pdb
 OpenBabel11021811523D
libRbt.so/2013.1/901 2013/11/27
 22 23  0  0  0  0  0  0  0  0999 V2000
  -22.9634  -13.4274   -9.4210 C   0  0  1  0  0  0  0  0  0  0  0  0
  -21.9299  -11.5840   -8.0336 C   0  0  1  0  0  0  0  0  0  0  0  0
  -23.2293  -10.7309   -7.6860 C   0  0  1  0  0  0  0  0  0  0  0  0
  -22.7659   -9.2360   -7.3766 C   0  0  2  0  0  0  0  0  0  0  0  0
  -23.3489  -14.9438   -9.2155 C   0  0  1  0  0  0  0  0  0  0  0  0
  -22.0439  -15.7512   -9.0691 C   0  0  2  0  0  0  0  0  0  0  0  0
  -21.1829  -15.6373  -10.3396 C   0  0  2  0  0  0  0  0  0  0  0  0
  -20.7870  -14.1430  -10.6269 C   0  0  1  0  0  0  0  0  0  0  0  0
  -19.9632  -14.0164  -11.9407 C   0  0  0  0  0  0  0  0  0  0  0  0
  -21.7964   -9.2390   -6.0872 C   0  0  1  0  0  0  0  0  0  0  0  0
  -20.4985  -10.1102   -6.4747 C   0  0  0  0  0  0  0  0  0  0  0  0
  -20.9385  -11.6052   -6.8270 C   0  0  2  0  0  0  0  0  0  0  0  0
  -21.9181  -16.1665  -11.4940 F   0  0  0  0  0  0  0  0  0  0  0  0
  -24.2128  -15.0374   -7.9752 N   0  0  0  0  0  0  0  0  0  0  0  0
  -18.7402  -14.7256  -11.9455 N   0  0  0  0  0  0  0  0  0  0  0  0
  -21.3187   -7.8508   -5.7657 N   0  0  0  0  0  0  0  0  0  0  0  0
  -19.7440  -12.3980   -7.1829 N   0  0  0  0  0  0  0  0  0  0  0  0
  -22.2878  -12.9298   -8.3088 O   0  0  0  0  0  0  0  0  0  0  0  0
  -24.1140  -10.7425   -8.8749 O   0  0  0  0  0  0  0  0  0  0  0  0
  -23.9215   -8.5078   -7.0845 O   0  0  0  0  0  0  0  0  0  0  0  0
  -22.3272  -16.8563   -8.9217 O   0  0  0  0  0  0  0  0  0  0  0  0
  -22.0991  -13.3392  -10.6761 O   0  0  0  0  0  0  0  0  0  0  0  0
  1  5  1  0  0  0  0
  1 18  1  1  0  0  0
  2 18  1  1  0  0  0
  2  3  1  0  0  0  0
  2 12  1  0  0  0  0
  3 19  1  6  0  0  0
  3  4  1  0  0  0  0
  4 20  1  1  0  0  0
  4 10  1  0  0  0  0
  5  6  1  0  0  0  0
  5 14  1  1  0  0  0
  6 21  1  6  0  0  0
  7 13  1  6  0  0  0
  7  6  1  0  0  0  0
  8  9  1  6  0  0  0
  8  7  1  0  0  0  0
 10 16  1  6  0  0  0
 11 10  1  0  0  0  0
 12 17  1  6  0  0  0
 12 11  1  0  0  0  0
 15  9  1  0  0  0  0
 22  8  1  0  0  0  0
 22  1  1  0  0  0  0
M  END
>  <CHROM.1>
-171.16621093,70.90308044,-60.84744572,-21.94201854,-12.73134330,-8.75095751
1.45210879,-0.33290174,-2.62344508

>  <Name>
lig.pdb

>  <RI>
0

>  <Rbt.Current_Directory>
/home/itssahil/PROJECTS/Mol_Feturizer/New_Systems/rnas/5bws

>  <Rbt.Executable>
rbdock ($Id: //depot/dev/client3/rdock/2013.1/src/exe/rbdock.cxx#4 $)

>  <Rbt.Library>
libRbt.so (2013.1, Build901 2013/11/27)

>  <Rbt.Parameter_File>
/export/apps/rDock/src/rDock_2013.1_src/data/scripts/dock_solv.prm

>  <Rbt.Receptor>
prm/blind_docking_60.prm

>  <SCORE>
-4.65521

>  <SCORE.INTER>
-1.9284

>  <SCORE.INTER.CONST>
1

>  <SCORE.INTER.POLAR>
0

>  <SCORE.INTER.ROT>
3

>  <SCORE.INTER.SOLV>
11.9482

>  <SCORE.INTER.VDW>
-10.8684

>  <SCORE.INTER.norm>
-0.0876546

>  <SCORE.INTRA>
-2.7268

>  <SCORE.INTRA.DIHEDRAL>
-5.1536

>  <SCORE.INTRA.DIHEDRAL.0>
6.10773

>  <SCORE.INTRA.POLAR>
0

>  <SCORE.INTRA.POLAR.0>
0

>  <SCORE.INTRA.REPUL>
0

>  <SCORE.INTRA.REPUL.0>
0

>  <SCORE.INTRA.SOLV>
-0.851966

>  <SCORE.INTRA.SOLV.lig_0>
-71.4024

>  <SCORE.INTRA.VDW>
0.275978

>  <SCORE.INTRA.VDW.0>
-1.86213

>  <SCORE.INTRA.norm>
-0.123946

>  <SCORE.RESTR>
0

>  <SCORE.RESTR.CAVITY>
0

>  <SCORE.RESTR.norm>
0

>  <SCORE.SYSTEM>
0

>  <SCORE.SYSTEM.CONST>
0

>  <SCORE.SYSTEM.DIHEDRAL>
0

>  <SCORE.SYSTEM.SOLV>
0

>  <SCORE.SYSTEM.norm>
0

>  <SCORE.heavy>
22

>  <SCORE.norm>
-0.2116

>  <RMSD>
22.305

$$$$
lig.pdb
 OpenBabel11021811523D
libRbt.so/2013.1/901 2013/11/27
 22 23  0  0  0  0  0  0  0  0999 V2000
  -14.3628   -5.4864  -18.1325 C   0  0  1  0  0  0  0  0  0  0  0  0
  -16.7993   -5.3809  -18.7985 C   0  0  1  0  0  0  0  0  0  0  0  0
  -17.2622   -6.7779  -18.1894 C   0  0  1  0  0  0  0  0  0  0  0  0
  -18.8313   -6.6962  -17.9127 C   0  0  2  0  0  0  0  0  0  0  0  0
  -12.9636   -5.3150  -18.8417 C   0  0  1  0  0  0  0  0  0  0  0  0
  -12.7922   -6.4745  -19.8430 C   0  0  2  0  0  0  0  0  0  0  0  0
  -12.8057   -7.8319  -19.1181 C   0  0  2  0  0  0  0  0  0  0  0  0
  -14.1635   -8.0579  -18.3581 C   0  0  1  0  0  0  0  0  0  0  0  0
  -14.1604   -9.4043  -17.5782 C   0  0  0  0  0  0  0  0  0  0  0  0
  -19.1166   -5.5431  -16.8213 C   0  0  1  0  0  0  0  0  0  0  0  0
  -18.6353   -4.1498  -17.4700 C   0  0  0  0  0  0  0  0  0  0  0  0
  -17.0720   -4.2173  -17.7930 C   0  0  2  0  0  0  0  0  0  0  0  0
  -11.7021   -7.8974  -18.1532 F   0  0  0  0  0  0  0  0  0  0  0  0
  -12.9570   -3.9672  -19.5321 N   0  0  0  0  0  0  0  0  0  0  0  0
  -13.2034   -9.4876  -16.5411 N   0  0  0  0  0  0  0  0  0  0  0  0
  -20.5874   -5.4163  -16.5394 N   0  0  0  0  0  0  0  0  0  0  0  0
  -16.6377   -2.9374  -18.3890 N   0  0  0  0  0  0  0  0  0  0  0  0
  -15.4033   -5.3979  -19.0549 O   0  0  0  0  0  0  0  0  0  0  0  0
  -16.9879   -7.8285  -19.1980 O   0  0  0  0  0  0  0  0  0  0  0  0
  -19.2134   -7.9334  -17.3890 O   0  0  0  0  0  0  0  0  0  0  0  0
  -11.7708   -6.3488  -20.3571 O   0  0  0  0  0  0  0  0  0  0  0  0
  -14.3602   -6.8432  -17.4329 O   0  0  0  0  0  0  0  0  0  0  0  0
  1  5  1  0  0  0  0
  1 18  1  6  0  0  0
  2 18  1  1  0  0  0
  2  3  1  0  0  0  0
  2 12  1  0  0  0  0
  3 19  1  6  0  0  0
  3  4  1  0  0  0  0
  4 20  1  1  0  0  0
  4 10  1  0  0  0  0
  5  6  1  0  0  0  0
  5 14  1  6  0  0  0
  6 21  1  1  0  0  0
  7 13  1  1  0  0  0
  7  6  1  0  0  0  0
  8  9  1  1  0  0  0
  8  7  1  0  0  0  0
 10 16  1  6  0  0  0
 11 10  1  0  0  0  0
 12 17  1  6  0  0  0
 12 11  1  0  0  0  0
 15  9  1  0  0  0  0
 22  8  1  0  0  0  0
 22  1  1  0  0  0  0
M  END
>  <CHROM.1>
-173.87585396,-65.74633458,63.66724894,-15.47266228,-6.38295896,-18.25558160
-0.17766328,0.26086900,-0.26900941

>  <Name>
lig.pdb

>  <RI>
0

>  <Rbt.Current_Directory>
/home/itssahil/PROJECTS/Mol_Feturizer/New_Systems/rnas/5bws

>  <Rbt.Executable>
rbdock ($Id: //depot/dev/client3/rdock/2013.1/src/exe/rbdock.cxx#4 $)

>  <Rbt.Library>
libRbt.so (2013.1, Build901 2013/11/27)

>  <Rbt.Parameter_File>
/export/apps/rDock/src/rDock_2013.1_src/data/scripts/dock_solv.prm

>  <Rbt.Receptor>
prm/blind_docking_40.prm

>  <SCORE>
-8.69032

>  <SCORE.INTER>
-6.62579

>  <SCORE.INTER.CONST>
1

>  <SCORE.INTER.POLAR>
0

>  <SCORE.INTER.ROT>
3

>  <SCORE.INTER.SOLV>
20.283

>  <SCORE.INTER.VDW>
-16.7782

>  <SCORE.INTER.norm>
-0.301172

>  <SCORE.INTRA>
-2.06805

>  <SCORE.INTRA.DIHEDRAL>
-5.71175

>  <SCORE.INTRA.DIHEDRAL.0>
6.10773

>  <SCORE.INTRA.POLAR>
0

>  <SCORE.INTRA.POLAR.0>
0

>  <SCORE.INTRA.REPUL>
0

>  <SCORE.INTRA.REPUL.0>
0

>  <SCORE.INTRA.SOLV>
1.41746

>  <SCORE.INTRA.SOLV.lig_0>
-71.4024

>  <SCORE.INTRA.VDW>
0.0790966

>  <SCORE.INTRA.VDW.0>
-1.86213

>  <SCORE.INTRA.norm>
-0.0940022

>  <SCORE.RESTR>
0.00352362

>  <SCORE.RESTR.CAVITY>
0.00352362

>  <SCORE.RESTR.norm>
0.000160165

>  <SCORE.SYSTEM>
0

>  <SCORE.SYSTEM.CONST>
0

>  <SCORE.SYSTEM.DIHEDRAL>
0

>  <SCORE.SYSTEM.SOLV>
0

>  <SCORE.SYSTEM.norm>
0

>  <SCORE.heavy>
22

>  <SCORE.norm>
-0.395014

>  <RMSD>
22.527

$$$$
lig.pdb
 OpenBabel11021811523D
libRbt.so/2013.1/901 2013/11/27
 22 23  0  0  0  0  0  0  0  0999 V2000
  -25.1443  -12.5848   -5.7136 C   0  0  1  0  0  0  0  0  0  0  0  0
  -24.4499  -10.2277   -6.3077 C   0  0  1  0  0  0  0  0  0  0  0  0
  -25.7344   -9.4245   -5.8159 C   0  0  1  0  0  0  0  0  0  0  0  0
  -25.8005   -8.0569   -6.6347 C   0  0  2  0  0  0  0  0  0  0  0  0
  -24.7541  -13.6658   -4.6322 C   0  0  1  0  0  0  0  0  0  0  0  0
  -23.3010  -14.1048   -4.9005 C   0  0  2  0  0  0  0  0  0  0  0  0
  -23.1695  -14.7436   -6.2945 C   0  0  2  0  0  0  0  0  0  0  0  0
  -23.5757  -13.7300   -7.4258 C   0  0  1  0  0  0  0  0  0  0  0  0
  -23.4975  -14.3886   -8.8332 C   0  0  0  0  0  0  0  0  0  0  0  0
  -24.4897   -7.1775   -6.3024 C   0  0  1  0  0  0  0  0  0  0  0  0
  -23.2147   -8.0202   -6.8105 C   0  0  0  0  0  0  0  0  0  0  0  0
  -23.1454   -9.4141   -6.0327 C   0  0  2  0  0  0  0  0  0  0  0  0
  -24.0276  -15.9304   -6.3865 F   0  0  0  0  0  0  0  0  0  0  0  0
  -24.9088  -13.0303   -3.2662 N   0  0  0  0  0  0  0  0  0  0  0  0
  -22.2012  -14.7896   -9.2299 N   0  0  0  0  0  0  0  0  0  0  0  0
  -24.4983   -5.8829   -7.0658 N   0  0  0  0  0  0  0  0  0  0  0  0
  -21.9752  -10.1824   -6.5045 N   0  0  0  0  0  0  0  0  0  0  0  0
  -24.3392  -11.4534   -5.6003 O   0  0  0  0  0  0  0  0  0  0  0  0
  -26.9299  -10.2459   -6.1198 O   0  0  0  0  0  0  0  0  0  0  0  0
  -26.9378   -7.3768   -6.1928 O   0  0  0  0  0  0  0  0  0  0  0  0
  -23.0196  -14.8943   -4.1126 O   0  0  0  0  0  0  0  0  0  0  0  0
  -24.9932  -13.2337   -7.0870 O   0  0  0  0  0  0  0  0  0  0  0  0
  1  5  1  0  0  0  0
  1 18  1  6  0  0  0
  2 18  1  1  0  0  0
  2  3  1  0  0  0  0
  2 12  1  0  0  0  0
  3 19  1  6  0  0  0
  3  4  1  0  0  0  0
  4 20  1  1  0  0  0
  4 10  1  0  0  0  0
  5  6  1  0  0  0  0
  5 14  1  1  0  0  0
  6 21  1  1  0  0  0
  7 13  1  1  0  0  0
  7  6  1  0  0  0  0
  8  9  1  6  0  0  0
  8  7  1  0  0  0  0
 10 16  1  6  0  0  0
 11 10  1  0  0  0  0
 12 17  1  6  0  0  0
 12 11  1  0  0  0  0
 15  9  1  0  0  0  0
 22  8  1  0  0  0  0
 22  1  1  0  0  0  0
M  END
>  <CHROM.1>
-174.15307950,70.79667862,-63.94216471,-24.30175463,-11.55480399,-6.23614946
1.20969179,-0.92522087,2.83435127

>  <Name>
lig.pdb

>  <RI>
0

>  <Rbt.Current_Directory>
/home/itssahil/PROJECTS/Mol_Feturizer/New_Systems/rnas/5bws

>  <Rbt.Executable>
rbdock ($Id: //depot/dev/client3/rdock/2013.1/src/exe/rbdock.cxx#4 $)

>  <Rbt.Library>
libRbt.so (2013.1, Build901 2013/11/27)

>  <Rbt.Parameter_File>
/export/apps/rDock/src/rDock_2013.1_src/data/scripts/dock_solv.prm

>  <Rbt.Receptor>
prm/blind_docking_60.prm

>  <SCORE>
-5.95728

>  <SCORE.INTER>
-3.10843

>  <SCORE.INTER.CONST>
1

>  <SCORE.INTER.POLAR>
0

>  <SCORE.INTER.ROT>
3

>  <SCORE.INTER.SOLV>
19.2493

>  <SCORE.INTER.VDW>
-14.0887

>  <SCORE.INTER.norm>
-0.141292

>  <SCORE.INTRA>
-2.86591

>  <SCORE.INTRA.DIHEDRAL>
-5.32153

>  <SCORE.INTRA.DIHEDRAL.0>
6.10773

>  <SCORE.INTRA.POLAR>
0

>  <SCORE.INTRA.POLAR.0>
0

>  <SCORE.INTRA.REPUL>
0

>  <SCORE.INTRA.REPUL.0>
0

>  <SCORE.INTRA.SOLV>
-0.939302

>  <SCORE.INTRA.SOLV.lig_0>
-71.4024

>  <SCORE.INTRA.VDW>
0.264503

>  <SCORE.INTRA.VDW.0>
-1.86213

>  <SCORE.INTRA.norm>
-0.130269

>  <SCORE.RESTR>
0.0170573

>  <SCORE.RESTR.CAVITY>
0.0170573

>  <SCORE.RESTR.norm>
0.000775334

>  <SCORE.SYSTEM>
0

>  <SCORE.SYSTEM.CONST>
0

>  <SCORE.SYSTEM.DIHEDRAL>
0

>  <SCORE.SYSTEM.SOLV>
0

>  <SCORE.SYSTEM.norm>
0

>  <SCORE.heavy>
22

>  <SCORE.norm>
-0.270786

>  <RMSD>
22.800

$$$$
lig.pdb
 OpenBabel11021811523D
libRbt.so/2013.1/901 2013/11/27
 22 23  0  0  0  0  0  0  0  0999 V2000
  -15.7700   -7.5186  -18.4523 C   0  0  1  0  0  0  0  0  0  0  0  0
  -16.8209   -5.2890  -19.0144 C   0  0  1  0  0  0  0  0  0  0  0  0
  -18.2813   -5.7844  -19.4134 C   0  0  1  0  0  0  0  0  0  0  0  0
  -18.9258   -4.6860  -20.3744 C   0  0  2  0  0  0  0  0  0  0  0  0
  -15.3659   -8.3013  -17.1431 C   0  0  1  0  0  0  0  0  0  0  0  0
  -14.1844   -7.5576  -16.4893 C   0  0  2  0  0  0  0  0  0  0  0  0
  -12.9675   -7.5260  -17.4308 C   0  0  2  0  0  0  0  0  0  0  0  0
  -13.3077   -6.7868  -18.7762 C   0  0  1  0  0  0  0  0  0  0  0  0
  -12.0972   -6.8009  -19.7536 C   0  0  0  0  0  0  0  0  0  0  0  0
  -19.0602   -3.2937  -19.5709 C   0  0  1  0  0  0  0  0  0  0  0  0
  -17.5685   -2.8265  -19.1835 C   0  0  0  0  0  0  0  0  0  0  0  0
  -16.8840   -3.9282  -18.2505 C   0  0  2  0  0  0  0  0  0  0  0  0
  -12.5317   -8.8938  -17.7349 F   0  0  0  0  0  0  0  0  0  0  0  0
  -16.5781   -8.3429  -16.2363 N   0  0  0  0  0  0  0  0  0  0  0  0
  -10.9434   -6.1356  -19.2795 N   0  0  0  0  0  0  0  0  0  0  0  0
  -19.6487   -2.2202  -20.4426 N   0  0  0  0  0  0  0  0  0  0  0  0
  -15.5159   -3.4944  -17.9004 N   0  0  0  0  0  0  0  0  0  0  0  0
  -16.2050   -6.2303  -18.1486 O   0  0  0  0  0  0  0  0  0  0  0  0
  -18.1442   -7.0668  -20.1434 O   0  0  0  0  0  0  0  0  0  0  0  0
  -20.1991   -5.1471  -20.7167 O   0  0  0  0  0  0  0  0  0  0  0  0
  -13.8901   -8.1311  -15.5364 O   0  0  0  0  0  0  0  0  0  0  0  0
  -14.5464   -7.4865  -19.3645 O   0  0  0  0  0  0  0  0  0  0  0  0
  1  5  1  0  0  0  0
  1 18  1  1  0  0  0
  2 18  1  1  0  0  0
  2  3  1  0  0  0  0
  2 12  1  0  0  0  0
  3 19  1  6  0  0  0
  3  4  1  0  0  0  0
  4 20  1  1  0  0  0
  4 10  1  0  0  0  0
  5  6  1  0  0  0  0
  5 14  1  1  0  0  0
  6 21  1  1  0  0  0
  7 13  1  6  0  0  0
  7  6  1  0  0  0  0
  8  9  1  6  0  0  0
  8  7  1  0  0  0  0
 10 16  1  6  0  0  0
 11 10  1  0  0  0  0
 12 17  1  6  0  0  0
 12 11  1  0  0  0  0
 15  9  1  0  0  0  0
 22  8  1  0  0  0  0
 22  1  1  0  0  0  0
M  END
>  <CHROM.1>
-170.53313358,68.77233494,-62.08603618,-15.84399662,-6.13440824,-18.60249020
0.64323674,0.01014817,2.62519075

>  <Name>
lig.pdb

>  <RI>
0

>  <Rbt.Current_Directory>
/home/itssahil/PROJECTS/Mol_Feturizer/New_Systems/rnas/5bws

>  <Rbt.Executable>
rbdock ($Id: //depot/dev/client3/rdock/2013.1/src/exe/rbdock.cxx#4 $)

>  <Rbt.Library>
libRbt.so (2013.1, Build901 2013/11/27)

>  <Rbt.Parameter_File>
/export/apps/rDock/src/rDock_2013.1_src/data/scripts/dock_solv.prm

>  <Rbt.Receptor>
prm/blind_docking_40.prm

>  <SCORE>
-7.83881

>  <SCORE.INTER>
-5.0485

>  <SCORE.INTER.CONST>
1

>  <SCORE.INTER.POLAR>
0

>  <SCORE.INTER.ROT>
3

>  <SCORE.INTER.SOLV>
23.6798

>  <SCORE.INTER.VDW>
-16.8589

>  <SCORE.INTER.norm>
-0.229477

>  <SCORE.INTRA>
-2.79155

>  <SCORE.INTRA.DIHEDRAL>
-5.283

>  <SCORE.INTRA.DIHEDRAL.0>
6.10773

>  <SCORE.INTRA.POLAR>
0

>  <SCORE.INTRA.POLAR.0>
0

>  <SCORE.INTRA.REPUL>
0

>  <SCORE.INTRA.REPUL.0>
0

>  <SCORE.INTRA.SOLV>
-0.926777

>  <SCORE.INTRA.SOLV.lig_0>
-71.4024

>  <SCORE.INTRA.VDW>
0.313341

>  <SCORE.INTRA.VDW.0>
-1.86213

>  <SCORE.INTRA.norm>
-0.126889

>  <SCORE.RESTR>
0.00123397

>  <SCORE.RESTR.CAVITY>
0.00123397

>  <SCORE.RESTR.norm>
5.60897e-05

>  <SCORE.SYSTEM>
0

>  <SCORE.SYSTEM.CONST>
0

>  <SCORE.SYSTEM.DIHEDRAL>
0

>  <SCORE.SYSTEM.SOLV>
0

>  <SCORE.SYSTEM.norm>
0

>  <SCORE.heavy>
22

>  <SCORE.norm>
-0.35631

>  <RMSD>
22.823

$$$$
lig.pdb
 OpenBabel11021811523D
libRbt.so/2013.1/901 2013/11/27
 22 23  0  0  0  0  0  0  0  0999 V2000
  -15.3339   -4.9185  -18.0915 C   0  0  1  0  0  0  0  0  0  0  0  0
  -17.6723   -5.8778  -18.0387 C   0  0  1  0  0  0  0  0  0  0  0  0
  -18.5333   -4.6647  -17.4693 C   0  0  1  0  0  0  0  0  0  0  0  0
  -19.8326   -5.2715  -16.7702 C   0  0  2  0  0  0  0  0  0  0  0  0
  -14.3163   -4.4086  -19.1845 C   0  0  1  0  0  0  0  0  0  0  0  0
  -13.9342   -5.6072  -20.0753 C   0  0  2  0  0  0  0  0  0  0  0  0
  -13.2467   -6.7081  -19.2484 C   0  0  2  0  0  0  0  0  0  0  0  0
  -14.1944   -7.2432  -18.1135 C   0  0  1  0  0  0  0  0  0  0  0  0
  -13.4840   -8.3172  -17.2402 C   0  0  0  0  0  0  0  0  0  0  0  0
  -20.7136   -6.0490  -17.8755 C   0  0  1  0  0  0  0  0  0  0  0  0
  -19.8122   -7.2637  -18.4284 C   0  0  0  0  0  0  0  0  0  0  0  0
  -18.4833   -6.6856  -19.1013 C   0  0  2  0  0  0  0  0  0  0  0  0
  -12.0190   -6.1856  -18.6380 F   0  0  0  0  0  0  0  0  0  0  0  0
  -14.9983   -3.3120  -19.9755 N   0  0  0  0  0  0  0  0  0  0  0  0
  -14.2723   -8.8477  -16.1934 N   0  0  0  0  0  0  0  0  0  0  0  0
  -21.9436   -6.6543  -17.2595 N   0  0  0  0  0  0  0  0  0  0  0  0
  -17.6606   -7.8046  -19.6045 N   0  0  0  0  0  0  0  0  0  0  0  0
  -16.5048   -5.3893  -18.6817 O   0  0  0  0  0  0  0  0  0  0  0  0
  -17.7104   -3.9549  -16.4616 O   0  0  0  0  0  0  0  0  0  0  0  0
  -20.5644   -4.1909  -16.2722 O   0  0  0  0  0  0  0  0  0  0  0  0
  -13.1908   -5.2337  -20.8698 O   0  0  0  0  0  0  0  0  0  0  0  0
  -14.6380   -6.0182  -17.2934 O   0  0  0  0  0  0  0  0  0  0  0  0
  1  5  1  0  0  0  0
  1 18  1  6  0  0  0
  2 18  1  6  0  0  0
  2  3  1  0  0  0  0
  2 12  1  0  0  0  0
  3 19  1  1  0  0  0
  3  4  1  0  0  0  0
  4 20  1  6  0  0  0
  4 10  1  0  0  0  0
  5  6  1  0  0  0  0
  5 14  1  6  0  0  0
  6 21  1  6  0  0  0
  7 13  1  1  0  0  0
  7  6  1  0  0  0  0
  8  9  1  1  0  0  0
  8  7  1  0  0  0  0
 10 16  1  1  0  0  0
 11 10  1  0  0  0  0
 12 17  1  1  0  0  0
 12 11  1  0  0  0  0
 15  9  1  0  0  0  0
 22  8  1  0  0  0  0
 22  1  1  0  0  0  0
M  END
>  <CHROM.1>
-177.26812588,76.99524271,179.92545690,-16.42797671,-5.91579045,-18.21343247
0.01465416,0.22991013,-0.38661370

>  <Name>
lig.pdb

>  <RI>
0

>  <Rbt.Current_Directory>
/home/itssahil/PROJECTS/Mol_Feturizer/New_Systems/rnas/5bws

>  <Rbt.Executable>
rbdock ($Id: //depot/dev/client3/rdock/2013.1/src/exe/rbdock.cxx#4 $)

>  <Rbt.Library>
libRbt.so (2013.1, Build901 2013/11/27)

>  <Rbt.Parameter_File>
/export/apps/rDock/src/rDock_2013.1_src/data/scripts/dock_solv.prm

>  <Rbt.Receptor>
prm/blind_docking_60.prm

>  <SCORE>
-5.0224

>  <SCORE.INTER>
-2.2782

>  <SCORE.INTER.CONST>
1

>  <SCORE.INTER.POLAR>
0

>  <SCORE.INTER.ROT>
3

>  <SCORE.INTER.SOLV>
28.4129

>  <SCORE.INTER.VDW>
-16.5898

>  <SCORE.INTER.norm>
-0.103555

>  <SCORE.INTRA>
-2.83222

>  <SCORE.INTRA.DIHEDRAL>
-4.73525

>  <SCORE.INTRA.DIHEDRAL.0>
6.10773

>  <SCORE.INTRA.POLAR>
0

>  <SCORE.INTRA.POLAR.0>
0

>  <SCORE.INTRA.REPUL>
0

>  <SCORE.INTRA.REPUL.0>
0

>  <SCORE.INTRA.SOLV>
-1.14329

>  <SCORE.INTRA.SOLV.lig_0>
-71.4024

>  <SCORE.INTRA.VDW>
0.107048

>  <SCORE.INTRA.VDW.0>
-1.86213

>  <SCORE.INTRA.norm>
-0.128737

>  <SCORE.RESTR>
0.0880277

>  <SCORE.RESTR.CAVITY>
0.0880277

>  <SCORE.RESTR.norm>
0.00400126

>  <SCORE.SYSTEM>
0

>  <SCORE.SYSTEM.CONST>
0

>  <SCORE.SYSTEM.DIHEDRAL>
0

>  <SCORE.SYSTEM.SOLV>
0

>  <SCORE.SYSTEM.norm>
0

>  <SCORE.heavy>
22

>  <SCORE.norm>
-0.228291

>  <RMSD>
22.873

$$$$
lig.pdb
 OpenBabel11021811523D
libRbt.so/2013.1/901 2013/11/27
 22 23  0  0  0  0  0  0  0  0999 V2000
  -21.1696  -12.4546   -9.4358 C   0  0  1  0  0  0  0  0  0  0  0  0
  -20.0428  -14.5856  -10.1977 C   0  0  1  0  0  0  0  0  0  0  0  0
  -19.2651  -13.9634  -11.4407 C   0  0  1  0  0  0  0  0  0  0  0  0
  -18.9348  -15.1492  -12.4556 C   0  0  2  0  0  0  0  0  0  0  0  0
  -21.2635  -11.6046   -8.1096 C   0  0  1  0  0  0  0  0  0  0  0  0
  -21.9159  -12.4848   -7.0251 C   0  0  2  0  0  0  0  0  0  0  0  0
  -23.3395  -12.8990   -7.4379 C   0  0  2  0  0  0  0  0  0  0  0  0
  -23.3266  -13.7252   -8.7756 C   0  0  1  0  0  0  0  0  0  0  0  0
  -24.7682  -14.0987   -9.2261 C   0  0  0  0  0  0  0  0  0  0  0  0
  -17.9660  -16.2139  -11.7276 C   0  0  1  0  0  0  0  0  0  0  0  0
  -18.7833  -16.8186  -10.4786 C   0  0  0  0  0  0  0  0  0  0  0  0
  -19.1610  -15.6446   -9.4627 C   0  0  2  0  0  0  0  0  0  0  0  0
  -24.1764  -11.7077   -7.6209 F   0  0  0  0  0  0  0  0  0  0  0  0
  -19.8590  -11.1864   -7.7277 N   0  0  0  0  0  0  0  0  0  0  0  0
  -25.4991  -14.8732   -8.2963 N   0  0  0  0  0  0  0  0  0  0  0  0
  -17.6395  -17.3617  -12.6412 N   0  0  0  0  0  0  0  0  0  0  0  0
  -19.9116  -16.2056   -8.3207 N   0  0  0  0  0  0  0  0  0  0  0  0
  -20.3530  -13.5691   -9.2566 O   0  0  0  0  0  0  0  0  0  0  0  0
  -20.1624  -12.9823  -12.0954 O   0  0  0  0  0  0  0  0  0  0  0  0
  -18.2628  -14.5776  -13.5386 O   0  0  0  0  0  0  0  0  0  0  0  0
  -21.9854  -11.8626   -6.0601 O   0  0  0  0  0  0  0  0  0  0  0  0
  -22.5886  -12.8667   -9.8188 O   0  0  0  0  0  0  0  0  0  0  0  0
  1  5  1  0  0  0  0
  1 18  1  1  0  0  0
  2 18  1  1  0  0  0
  2  3  1  0  0  0  0
  2 12  1  0  0  0  0
  3 19  1  6  0  0  0
  3  4  1  0  0  0  0
  4 20  1  6  0  0  0
  4 10  1  0  0  0  0
  5  6  1  0  0  0  0
  5 14  1  1  0  0  0
  6 21  1  1  0  0  0
  7 13  1  6  0  0  0
  7  6  1  0  0  0  0
  8  9  1  6  0  0  0
  8  7  1  0  0  0  0
 10 16  1  6  0  0  0
 11 10  1  0  0  0  0
 12 17  1  1  0  0  0
 12 11  1  0  0  0  0
 15  9  1  0  0  0  0
 22  8  1  0  0  0  0
 22  1  1  0  0  0  0
M  END
>  <CHROM.1>
178.56665217,62.75528243,-59.46601282,-20.97891694,-13.88925109,-9.58363876
-2.37371438,-0.35689792,-2.54848807

>  <Name>
lig.pdb

>  <RI>
0

>  <Rbt.Current_Directory>
/home/itssahil/PROJECTS/Mol_Feturizer/New_Systems/rnas/5bws

>  <Rbt.Executable>
rbdock ($Id: //depot/dev/client3/rdock/2013.1/src/exe/rbdock.cxx#4 $)

>  <Rbt.Library>
libRbt.so (2013.1, Build901 2013/11/27)

>  <Rbt.Parameter_File>
/export/apps/rDock/src/rDock_2013.1_src/data/scripts/dock_solv.prm

>  <Rbt.Receptor>
prm/blind_docking_60.prm

>  <SCORE>
-3.97437

>  <SCORE.INTER>
-0.849554

>  <SCORE.INTER.CONST>
1

>  <SCORE.INTER.POLAR>
0

>  <SCORE.INTER.ROT>
3

>  <SCORE.INTER.SOLV>
12.6266

>  <SCORE.INTER.VDW>
-10.3752

>  <SCORE.INTER.norm>
-0.0386161

>  <SCORE.INTRA>
-3.12482

>  <SCORE.INTRA.DIHEDRAL>
-6.05656

>  <SCORE.INTRA.DIHEDRAL.0>
6.10773

>  <SCORE.INTRA.POLAR>
0

>  <SCORE.INTRA.POLAR.0>
0

>  <SCORE.INTRA.REPUL>
0

>  <SCORE.INTRA.REPUL.0>
0

>  <SCORE.INTRA.SOLV>
-1.03537

>  <SCORE.INTRA.SOLV.lig_0>
-71.4024

>  <SCORE.INTRA.VDW>
0.421147

>  <SCORE.INTRA.VDW.0>
-1.86213

>  <SCORE.INTRA.norm>
-0.142037

>  <SCORE.RESTR>
0

>  <SCORE.RESTR.CAVITY>
0

>  <SCORE.RESTR.norm>
0

>  <SCORE.SYSTEM>
0

>  <SCORE.SYSTEM.CONST>
0

>  <SCORE.SYSTEM.DIHEDRAL>
0

>  <SCORE.SYSTEM.SOLV>
0

>  <SCORE.SYSTEM.norm>
0

>  <SCORE.heavy>
22

>  <SCORE.norm>
-0.180653

>  <RMSD>
23.137

$$$$
lig.pdb
 OpenBabel11021811523D
libRbt.so/2013.1/901 2013/11/27
 22 23  0  0  0  0  0  0  0  0999 V2000
  -23.6998  -10.7592   -7.9548 C   0  0  1  0  0  0  0  0  0  0  0  0
  -23.4012  -13.2640   -7.7875 C   0  0  1  0  0  0  0  0  0  0  0  0
  -22.6876  -13.4440   -9.2001 C   0  0  1  0  0  0  0  0  0  0  0  0
  -22.8706  -14.9632   -9.6516 C   0  0  2  0  0  0  0  0  0  0  0  0
  -23.3447   -9.4900   -7.0870 C   0  0  1  0  0  0  0  0  0  0  0  0
  -24.0904   -9.6083   -5.7430 C   0  0  2  0  0  0  0  0  0  0  0  0
  -25.6136   -9.6362   -5.9613 C   0  0  2  0  0  0  0  0  0  0  0  0
  -26.0389  -10.8618   -6.8498 C   0  0  1  0  0  0  0  0  0  0  0  0
  -27.5713  -10.8630   -7.1192 C   0  0  0  0  0  0  0  0  0  0  0  0
  -22.1384  -15.9244   -8.5829 C   0  0  1  0  0  0  0  0  0  0  0  0
  -22.8836  -15.7142   -7.1708 C   0  0  0  0  0  0  0  0  0  0  0  0
  -22.7486  -14.1896   -6.7120 C   0  0  2  0  0  0  0  0  0  0  0  0
  -26.0502   -8.3978   -6.6161 F   0  0  0  0  0  0  0  0  0  0  0  0
  -21.8423   -9.4639   -6.8987 N   0  0  0  0  0  0  0  0  0  0  0  0
  -28.0313  -11.9276   -7.9276 N   0  0  0  0  0  0  0  0  0  0  0  0
  -22.2982  -17.3711   -8.9574 N   0  0  0  0  0  0  0  0  0  0  0  0
  -23.4354  -14.0034   -5.4175 N   0  0  0  0  0  0  0  0  0  0  0  0
  -23.2586  -11.9262   -7.3347 O   0  0  0  0  0  0  0  0  0  0  0  0
  -23.3642  -12.5507  -10.1699 O   0  0  0  0  0  0  0  0  0  0  0  0
  -22.2459  -15.0926  -10.8942 O   0  0  0  0  0  0  0  0  0  0  0  0
  -23.8319   -8.6811   -5.1130 O   0  0  0  0  0  0  0  0  0  0  0  0
  -25.2141  -10.7755   -8.1468 O   0  0  0  0  0  0  0  0  0  0  0  0
  1  5  1  0  0  0  0
  1 18  1  1  0  0  0
  2 18  1  1  0  0  0
  2  3  1  0  0  0  0
  2 12  1  0  0  0  0
  3 19  1  6  0  0  0
  3  4  1  0  0  0  0
  4 20  1  6  0  0  0
  4 10  1  0  0  0  0
  5  6  1  0  0  0  0
  5 14  1  1  0  0  0
  6 21  1  1  0  0  0
  7 13  1  6  0  0  0
  7  6  1  0  0  0  0
  8  9  1  6  0  0  0
  8  7  1  0  0  0  0
 10 16  1  6  0  0  0
 11 10  1  0  0  0  0
 12 17  1  1  0  0  0
 12 11  1  0  0  0  0
 15  9  1  0  0  0  0
 22  8  1  0  0  0  0
 22  1  1  0  0  0  0
M  END
>  <CHROM.1>
179.17488605,59.97335594,179.23607063,-23.97029898,-12.14926923,-7.61331808
-1.97848559,0.19120930,-2.66623467

>  <Name>
lig.pdb

>  <RI>
0

>  <Rbt.Current_Directory>
/home/itssahil/PROJECTS/Mol_Feturizer/New_Systems/rnas/5bws

>  <Rbt.Executable>
rbdock ($Id: //depot/dev/client3/rdock/2013.1/src/exe/rbdock.cxx#4 $)

>  <Rbt.Library>
libRbt.so (2013.1, Build901 2013/11/27)

>  <Rbt.Parameter_File>
/export/apps/rDock/src/rDock_2013.1_src/data/scripts/dock_solv.prm

>  <Rbt.Receptor>
prm/blind_docking_40.prm

>  <SCORE>
-4.90058

>  <SCORE.INTER>
-1.47123

>  <SCORE.INTER.CONST>
1

>  <SCORE.INTER.POLAR>
0

>  <SCORE.INTER.ROT>
3

>  <SCORE.INTER.SOLV>
15.2815

>  <SCORE.INTER.VDW>
-11.6747

>  <SCORE.INTER.norm>
-0.0668739

>  <SCORE.INTRA>
-3.42935

>  <SCORE.INTRA.DIHEDRAL>
-6.09951

>  <SCORE.INTRA.DIHEDRAL.0>
6.10773

>  <SCORE.INTRA.POLAR>
0

>  <SCORE.INTRA.POLAR.0>
0

>  <SCORE.INTRA.REPUL>
0

>  <SCORE.INTRA.REPUL.0>
0

>  <SCORE.INTRA.SOLV>
-1.63464

>  <SCORE.INTRA.SOLV.lig_0>
-71.4024

>  <SCORE.INTRA.VDW>
0.437728

>  <SCORE.INTRA.VDW.0>
-1.86213

>  <SCORE.INTRA.norm>
-0.15588

>  <SCORE.RESTR>
0

>  <SCORE.RESTR.CAVITY>
0

>  <SCORE.RESTR.norm>
0

>  <SCORE.SYSTEM>
0

>  <SCORE.SYSTEM.CONST>
0

>  <SCORE.SYSTEM.DIHEDRAL>
0

>  <SCORE.SYSTEM.SOLV>
0

>  <SCORE.SYSTEM.norm>
0

>  <SCORE.heavy>
22

>  <SCORE.norm>
-0.222753

>  <RMSD>
23.783

$$$$
lig.pdb
 OpenBabel11021811523D
libRbt.so/2013.1/901 2013/11/27
 22 23  0  0  0  0  0  0  0  0999 V2000
  -22.2373  -14.4577   -7.2370 C   0  0  1  0  0  0  0  0  0  0  0  0
  -24.5882  -14.6094   -6.3196 C   0  0  1  0  0  0  0  0  0  0  0  0
  -24.4197  -13.6433   -5.0645 C   0  0  1  0  0  0  0  0  0  0  0  0
  -25.5372  -14.0310   -3.9940 C   0  0  2  0  0  0  0  0  0  0  0  0
  -21.5264  -13.7908   -8.4780 C   0  0  1  0  0  0  0  0  0  0  0  0
  -22.0083  -14.5167   -9.7496 C   0  0  2  0  0  0  0  0  0  0  0  0
  -21.6214  -16.0058   -9.7112 C   0  0  2  0  0  0  0  0  0  0  0  0
  -22.2701  -16.7308   -8.4760 C   0  0  1  0  0  0  0  0  0  0  0  0
  -21.8371  -18.2234   -8.4019 C   0  0  0  0  0  0  0  0  0  0  0  0
  -26.9952  -13.7827   -4.6379 C   0  0  1  0  0  0  0  0  0  0  0  0
  -27.1279  -14.7724   -5.9014 C   0  0  0  0  0  0  0  0  0  0  0  0
  -25.9947  -14.4309   -6.9748 C   0  0  2  0  0  0  0  0  0  0  0  0
  -20.1626  -16.1442   -9.6336 F   0  0  0  0  0  0  0  0  0  0  0  0
  -21.8986  -12.3229   -8.4906 N   0  0  0  0  0  0  0  0  0  0  0  0
  -22.1031  -18.9775   -9.5677 N   0  0  0  0  0  0  0  0  0  0  0  0
  -28.0844  -14.1510   -3.6700 N   0  0  0  0  0  0  0  0  0  0  0  0
  -26.1210  -15.3431   -8.1298 N   0  0  0  0  0  0  0  0  0  0  0  0
  -23.6195  -14.2984   -7.3095 O   0  0  0  0  0  0  0  0  0  0  0  0
  -23.0745  -13.8756   -4.4875 O   0  0  0  0  0  0  0  0  0  0  0  0
  -25.3626  -13.1778   -2.9018 O   0  0  0  0  0  0  0  0  0  0  0  0
  -21.4871  -14.0305  -10.6526 O   0  0  0  0  0  0  0  0  0  0  0  0
  -21.8524  -15.9348   -7.2261 O   0  0  0  0  0  0  0  0  0  0  0  0
  1  5  1  0  0  0  0
  1 18  1  6  0  0  0
  2 18  1  6  0  0  0
  2  3  1  0  0  0  0
  2 12  1  0  0  0  0
  3 19  1  1  0  0  0
  3  4  1  0  0  0  0
  4 20  1  1  0  0  0
  4 10  1  0  0  0  0
  5  6  1  0  0  0  0
  5 14  1  6  0  0  0
  6 21  1  6  0  0  0
  7 13  1  1  0  0  0
  7  6  1  0  0  0  0
  8  9  1  1  0  0  0
  8  7  1  0  0  0  0
 10 16  1  1  0  0  0
 11 10  1  0  0  0  0
 12 17  1  6  0  0  0
 12 11  1  0  0  0  0
 15  9  1  0  0  0  0
 22  8  1  0  0  0  0
 22  1  1  0  0  0  0
M  END
>  <CHROM.1>
-171.72705649,67.03796650,-55.58863481,-23.55762213,-14.88467512,-7.15935848
-0.60311088,0.62114720,0.47596666

>  <Name>
lig.pdb

>  <RI>
0

>  <Rbt.Current_Directory>
/home/itssahil/PROJECTS/Mol_Feturizer/New_Systems/rnas/5bws

>  <Rbt.Executable>
rbdock ($Id: //depot/dev/client3/rdock/2013.1/src/exe/rbdock.cxx#4 $)

>  <Rbt.Library>
libRbt.so (2013.1, Build901 2013/11/27)

>  <Rbt.Parameter_File>
/export/apps/rDock/src/rDock_2013.1_src/data/scripts/dock_solv.prm

>  <Rbt.Receptor>
prm/blind_docking_40.prm

>  <SCORE>
-3.96259

>  <SCORE.INTER>
-1.16562

>  <SCORE.INTER.CONST>
1

>  <SCORE.INTER.POLAR>
0

>  <SCORE.INTER.ROT>
3

>  <SCORE.INTER.SOLV>
14.2108

>  <SCORE.INTER.VDW>
-11.114

>  <SCORE.INTER.norm>
-0.0529826

>  <SCORE.INTRA>
-2.79698

>  <SCORE.INTRA.DIHEDRAL>
-5.46134

>  <SCORE.INTRA.DIHEDRAL.0>
6.10773

>  <SCORE.INTRA.POLAR>
0

>  <SCORE.INTRA.POLAR.0>
0

>  <SCORE.INTRA.REPUL>
0

>  <SCORE.INTRA.REPUL.0>
0

>  <SCORE.INTRA.SOLV>
-0.830525

>  <SCORE.INTRA.SOLV.lig_0>
-71.4024

>  <SCORE.INTRA.VDW>
0.348954

>  <SCORE.INTRA.VDW.0>
-1.86213

>  <SCORE.INTRA.norm>
-0.127135

>  <SCORE.RESTR>
0

>  <SCORE.RESTR.CAVITY>
0

>  <SCORE.RESTR.norm>
0

>  <SCORE.SYSTEM>
0

>  <SCORE.SYSTEM.CONST>
0

>  <SCORE.SYSTEM.DIHEDRAL>
0

>  <SCORE.SYSTEM.SOLV>
0

>  <SCORE.SYSTEM.norm>
0

>  <SCORE.heavy>
22

>  <SCORE.norm>
-0.180118

>  <RMSD>
24.593

$$$$
lig.pdb
 OpenBabel11021811523D
libRbt.so/2013.1/901 2013/11/27
 22 23  0  0  0  0  0  0  0  0999 V2000
  -26.5018  -11.5093   -6.4159 C   0  0  1  0  0  0  0  0  0  0  0  0
  -24.7284  -12.5652   -7.8760 C   0  0  1  0  0  0  0  0  0  0  0  0
  -24.8057  -14.0602   -7.3320 C   0  0  1  0  0  0  0  0  0  0  0  0
  -23.4066  -14.7648   -7.6345 C   0  0  2  0  0  0  0  0  0  0  0  0
  -27.9883  -11.0100   -6.5924 C   0  0  1  0  0  0  0  0  0  0  0  0
  -27.9676   -9.7649   -7.5010 C   0  0  2  0  0  0  0  0  0  0  0  0
  -27.1479   -8.6312   -6.8596 C   0  0  2  0  0  0  0  0  0  0  0  0
  -25.6569   -9.0707   -6.6225 C   0  0  1  0  0  0  0  0  0  0  0  0
  -24.8382   -7.9473   -5.9236 C   0  0  0  0  0  0  0  0  0  0  0  0
  -23.1727  -14.8128   -9.2299 C   0  0  1  0  0  0  0  0  0  0  0  0
  -23.1023  -13.2878   -9.7428 C   0  0  0  0  0  0  0  0  0  0  0  0
  -24.4795  -12.5459   -9.4177 C   0  0  2  0  0  0  0  0  0  0  0  0
  -27.7421   -8.2465   -5.5742 F   0  0  0  0  0  0  0  0  0  0  0  0
  -28.7869  -12.1420   -7.2040 N   0  0  0  0  0  0  0  0  0  0  0  0
  -23.4858   -8.2697   -5.6676 N   0  0  0  0  0  0  0  0  0  0  0  0
  -21.8556  -15.4545   -9.5649 N   0  0  0  0  0  0  0  0  0  0  0  0
  -24.4075  -11.1477   -9.8890 N   0  0  0  0  0  0  0  0  0  0  0  0
  -25.9570  -11.8947   -7.6390 O   0  0  0  0  0  0  0  0  0  0  0  0
  -25.0282  -14.0019   -5.8680 O   0  0  0  0  0  0  0  0  0  0  0  0
  -23.4964  -16.0683   -7.1409 O   0  0  0  0  0  0  0  0  0  0  0  0
  -29.0518   -9.4013   -7.6264 O   0  0  0  0  0  0  0  0  0  0  0  0
  -25.7042  -10.3666   -5.7927 O   0  0  0  0  0  0  0  0  0  0  0  0
  1  5  1  0  0  0  0
  1 18  1  6  0  0  0
  2 18  1  6  0  0  0
  2  3  1  0  0  0  0
  2 12  1  0  0  0  0
  3 19  1  1  0  0  0
  3  4  1  0  0  0  0
  4 20  1  6  0  0  0
  4 10  1  0  0  0  0
  5  6  1  0  0  0  0
  5 14  1  6  0  0  0
  6 21  1  1  0  0  0
  7 13  1  1  0  0  0
  7  6  1  0  0  0  0
  8  9  1  1  0  0  0
  8  7  1  0  0  0  0
 10 16  1  1  0  0  0
 11 10  1  0  0  0  0
 12 17  1  1  0  0  0
 12 11  1  0  0  0  0
 15  9  1  0  0  0  0
 22  8  1  0  0  0  0
 22  1  1  0  0  0  0
M  END
>  <CHROM.1>
-170.51578757,68.50283892,179.63494262,-25.46837879,-11.64041539,-7.36168991
2.14674703,0.14964573,0.25278208

>  <Name>
lig.pdb

>  <RI>
0

>  <Rbt.Current_Directory>
/home/itssahil/PROJECTS/Mol_Feturizer/New_Systems/rnas/5bws

>  <Rbt.Executable>
rbdock ($Id: //depot/dev/client3/rdock/2013.1/src/exe/rbdock.cxx#4 $)

>  <Rbt.Library>
libRbt.so (2013.1, Build901 2013/11/27)

>  <Rbt.Parameter_File>
/export/apps/rDock/src/rDock_2013.1_src/data/scripts/dock_solv.prm

>  <Rbt.Receptor>
prm/blind_docking_40.prm

>  <SCORE>
-4.01988

>  <SCORE.INTER>
-0.924214

>  <SCORE.INTER.CONST>
1

>  <SCORE.INTER.POLAR>
0

>  <SCORE.INTER.ROT>
3

>  <SCORE.INTER.SOLV>
15.2695

>  <SCORE.INTER.VDW>
-11.306

>  <SCORE.INTER.norm>
-0.0420097

>  <SCORE.INTRA>
-3.09567

>  <SCORE.INTRA.DIHEDRAL>
-5.31903

>  <SCORE.INTRA.DIHEDRAL.0>
6.10773

>  <SCORE.INTRA.POLAR>
0

>  <SCORE.INTRA.POLAR.0>
0

>  <SCORE.INTRA.REPUL>
0

>  <SCORE.INTRA.REPUL.0>
0

>  <SCORE.INTRA.SOLV>
-1.4109

>  <SCORE.INTRA.SOLV.lig_0>
-71.4024

>  <SCORE.INTRA.VDW>
0.269302

>  <SCORE.INTRA.VDW.0>
-1.86213

>  <SCORE.INTRA.norm>
-0.140712

>  <SCORE.RESTR>
0

>  <SCORE.RESTR.CAVITY>
0

>  <SCORE.RESTR.norm>
0

>  <SCORE.SYSTEM>
0

>  <SCORE.SYSTEM.CONST>
0

>  <SCORE.SYSTEM.DIHEDRAL>
0

>  <SCORE.SYSTEM.SOLV>
0

>  <SCORE.SYSTEM.norm>
0

>  <SCORE.heavy>
22

>  <SCORE.norm>
-0.182722

>  <RMSD>
24.620

$$$$
lig.pdb
 OpenBabel11021811523D
libRbt.so/2013.1/901 2013/11/27
 22 23  0  0  0  0  0  0  0  0999 V2000
  -26.0487  -11.1449   -7.4157 C   0  0  1  0  0  0  0  0  0  0  0  0
  -26.7301  -12.3850   -5.3206 C   0  0  1  0  0  0  0  0  0  0  0  0
  -28.2940  -12.3487   -5.6205 C   0  0  1  0  0  0  0  0  0  0  0  0
  -29.0631  -12.5552   -4.2381 C   0  0  2  0  0  0  0  0  0  0  0  0
  -25.1075  -11.3985   -8.6566 C   0  0  1  0  0  0  0  0  0  0  0  0
  -23.6581  -11.5007   -8.1418 C   0  0  2  0  0  0  0  0  0  0  0  0
  -23.2233  -10.1898   -7.4628 C   0  0  2  0  0  0  0  0  0  0  0  0
  -24.1419   -9.8546   -6.2315 C   0  0  1  0  0  0  0  0  0  0  0  0
  -23.7409   -8.5019   -5.5756 C   0  0  0  0  0  0  0  0  0  0  0  0
  -28.6913  -14.0056   -3.6377 C   0  0  1  0  0  0  0  0  0  0  0  0
  -27.1068  -14.0053   -3.3497 C   0  0  0  0  0  0  0  0  0  0  0  0
  -26.3114  -13.7619   -4.7139 C   0  0  2  0  0  0  0  0  0  0  0  0
  -23.2880   -9.0814   -8.4222 F   0  0  0  0  0  0  0  0  0  0  0  0
  -25.5602  -12.6789   -9.3266 N   0  0  0  0  0  0  0  0  0  0  0  0
  -22.4303   -8.4637   -5.0469 N   0  0  0  0  0  0  0  0  0  0  0  0
  -29.3808  -14.2402   -2.3230 N   0  0  0  0  0  0  0  0  0  0  0  0
  -24.8592  -13.7611   -4.4425 N   0  0  0  0  0  0  0  0  0  0  0  0
  -25.9974  -12.2146   -6.5244 O   0  0  0  0  0  0  0  0  0  0  0  0
  -28.6205  -11.0151   -6.1783 O   0  0  0  0  0  0  0  0  0  0  0  0
  -30.4291  -12.5102   -4.5260 O   0  0  0  0  0  0  0  0  0  0  0  0
  -22.9735  -11.6832   -9.0481 O   0  0  0  0  0  0  0  0  0  0  0  0
  -25.5917   -9.8498   -6.7494 O   0  0  0  0  0  0  0  0  0  0  0  0
  1  5  1  0  0  0  0
  1 18  1  1  0  0  0
  2 18  1  6  0  0  0
  2  3  1  0  0  0  0
  2 12  1  0  0  0  0
  3 19  1  1  0  0  0
  3  4  1  0  0  0  0
  4 20  1  6  0  0  0
  4 10  1  0  0  0  0
  5  6  1  0  0  0  0
  5 14  1  1  0  0  0
  6 21  1  6  0  0  0
  7 13  1  6  0  0  0
  7  6  1  0  0  0  0
  8  9  1  6  0  0  0
  8  7  1  0  0  0  0
 10 16  1  1  0  0  0
 11 10  1  0  0  0  0
 12 17  1  1  0  0  0
 12 11  1  0  0  0  0
 15  9  1  0  0  0  0
 22  8  1  0  0  0  0
 22  1  1  0  0  0  0
M  END
>  <CHROM.1>
-177.61364496,58.53795430,-62.02513681,-25.94205707,-11.63249370,-6.09567021
0.37157206,-0.68104101,-1.85632650

>  <Name>
lig.pdb

>  <RI>
0

>  <Rbt.Current_Directory>
/home/itssahil/PROJECTS/Mol_Feturizer/New_Systems/rnas/5bws

>  <Rbt.Executable>
rbdock ($Id: //depot/dev/client3/rdock/2013.1/src/exe/rbdock.cxx#4 $)

>  <Rbt.Library>
libRbt.so (2013.1, Build901 2013/11/27)

>  <Rbt.Parameter_File>
/export/apps/rDock/src/rDock_2013.1_src/data/scripts/dock_solv.prm

>  <Rbt.Receptor>
prm/blind_docking_100.prm

>  <SCORE>
-3.52677

>  <SCORE.INTER>
-0.43002

>  <SCORE.INTER.CONST>
1

>  <SCORE.INTER.POLAR>
0

>  <SCORE.INTER.ROT>
3

>  <SCORE.INTER.SOLV>
17.5862

>  <SCORE.INTER.VDW>
-11.7487

>  <SCORE.INTER.norm>
-0.0195464

>  <SCORE.INTRA>
-3.09675

>  <SCORE.INTRA.DIHEDRAL>
-6.05145

>  <SCORE.INTRA.DIHEDRAL.0>
6.10773

>  <SCORE.INTRA.POLAR>
0

>  <SCORE.INTRA.POLAR.0>
0

>  <SCORE.INTRA.REPUL>
0

>  <SCORE.INTRA.REPUL.0>
0

>  <SCORE.INTRA.SOLV>
-1.21053

>  <SCORE.INTRA.SOLV.lig_0>
-71.4024

>  <SCORE.INTRA.VDW>
0.534235

>  <SCORE.INTRA.VDW.0>
-1.86213

>  <SCORE.INTRA.norm>
-0.140762

>  <SCORE.RESTR>
0

>  <SCORE.RESTR.CAVITY>
0

>  <SCORE.RESTR.norm>
0

>  <SCORE.SYSTEM>
0

>  <SCORE.SYSTEM.CONST>
0

>  <SCORE.SYSTEM.DIHEDRAL>
0

>  <SCORE.SYSTEM.SOLV>
0

>  <SCORE.SYSTEM.norm>
0

>  <SCORE.heavy>
22

>  <SCORE.norm>
-0.160308

>  <RMSD>
24.697

$$$$
lig.pdb
 OpenBabel11021811523D
libRbt.so/2013.1/901 2013/11/27
 22 23  0  0  0  0  0  0  0  0999 V2000
  -26.8919  -12.7051   -8.6580 C   0  0  1  0  0  0  0  0  0  0  0  0
  -27.1770  -11.2598   -6.6035 C   0  0  1  0  0  0  0  0  0  0  0  0
  -25.9793  -10.2449   -6.8728 C   0  0  1  0  0  0  0  0  0  0  0  0
  -26.3015   -8.8893   -6.0958 C   0  0  2  0  0  0  0  0  0  0  0  0
  -26.6387  -14.2301   -8.9751 C   0  0  1  0  0  0  0  0  0  0  0  0
  -25.2636  -14.6152   -8.3945 C   0  0  2  0  0  0  0  0  0  0  0  0
  -24.1412  -13.7907   -9.0493 C   0  0  2  0  0  0  0  0  0  0  0  0
  -24.3469  -12.2516   -8.8018 C   0  0  1  0  0  0  0  0  0  0  0  0
  -23.2452  -11.4106   -9.5087 C   0  0  0  0  0  0  0  0  0  0  0  0
  -27.6575   -8.2487   -6.6899 C   0  0  1  0  0  0  0  0  0  0  0  0
  -28.8423   -9.3008   -6.4018 C   0  0  0  0  0  0  0  0  0  0  0  0
  -28.5263  -10.6830   -7.1383 C   0  0  2  0  0  0  0  0  0  0  0  0
  -24.1111  -14.0416  -10.4948 F   0  0  0  0  0  0  0  0  0  0  0  0
  -27.7613  -15.0265   -8.3434 N   0  0  0  0  0  0  0  0  0  0  0  0
  -23.3064  -10.0207   -9.2576 N   0  0  0  0  0  0  0  0  0  0  0  0
  -28.0126   -6.9747   -5.9759 N   0  0  0  0  0  0  0  0  0  0  0  0
  -29.6156  -11.6437   -6.8687 N   0  0  0  0  0  0  0  0  0  0  0  0
  -26.9429  -12.4837   -7.2834 O   0  0  0  0  0  0  0  0  0  0  0  0
  -24.7395  -10.8483   -6.3295 O   0  0  0  0  0  0  0  0  0  0  0  0
  -25.2346   -8.0214   -6.3395 O   0  0  0  0  0  0  0  0  0  0  0  0
  -25.0802  -15.7265   -8.6287 O   0  0  0  0  0  0  0  0  0  0  0  0
  -25.7613  -11.9079   -9.3033 O   0  0  0  0  0  0  0  0  0  0  0  0
  1  5  1  0  0  0  0
  1 18  1  1  0  0  0
  2 18  1  6  0  0  0
  2  3  1  0  0  0  0
  2 12  1  0  0  0  0
  3 19  1  1  0  0  0
  3  4  1  0  0  0  0
  4 20  1  6  0  0  0
  4 10  1  0  0  0  0
  5  6  1  0  0  0  0
  5 14  1  1  0  0  0
  6 21  1  6  0  0  0
  7 13  1  6  0  0  0
  7  6  1  0  0  0  0
  8  9  1  6  0  0  0
  8  7  1  0  0  0  0
 10 16  1  1  0  0  0
 11 10  1  0  0  0  0
 12 17  1  1  0  0  0
 12 11  1  0  0  0  0
 15  9  1  0  0  0  0
 22  8  1  0  0  0  0
 22  1  1  0  0  0  0
M  END
>  <CHROM.1>
-178.66447442,-65.65140498,-175.82242596,-26.10635560,-11.60298929,-7.85665421
1.17616964,-0.36597824,-2.80659073

>  <Name>
lig.pdb

>  <RI>
0

>  <Rbt.Current_Directory>
/home/itssahil/PROJECTS/Mol_Feturizer/New_Systems/rnas/5bws

>  <Rbt.Executable>
rbdock ($Id: //depot/dev/client3/rdock/2013.1/src/exe/rbdock.cxx#4 $)

>  <Rbt.Library>
libRbt.so (2013.1, Build901 2013/11/27)

>  <Rbt.Parameter_File>
/export/apps/rDock/src/rDock_2013.1_src/data/scripts/dock_solv.prm

>  <Rbt.Receptor>
prm/blind_docking_100.prm

>  <SCORE>
-5.47535

>  <SCORE.INTER>
-3.09836

>  <SCORE.INTER.CONST>
1

>  <SCORE.INTER.POLAR>
0

>  <SCORE.INTER.ROT>
3

>  <SCORE.INTER.SOLV>
17.2698

>  <SCORE.INTER.VDW>
-13.4222

>  <SCORE.INTER.norm>
-0.140835

>  <SCORE.INTRA>
-2.37699

>  <SCORE.INTRA.DIHEDRAL>
-5.87735

>  <SCORE.INTRA.DIHEDRAL.0>
6.10773

>  <SCORE.INTRA.POLAR>
0

>  <SCORE.INTRA.POLAR.0>
0

>  <SCORE.INTRA.REPUL>
0

>  <SCORE.INTRA.REPUL.0>
0

>  <SCORE.INTRA.SOLV>
1.21208

>  <SCORE.INTRA.SOLV.lig_0>
-71.4024

>  <SCORE.INTRA.VDW>
-0.0443553

>  <SCORE.INTRA.VDW.0>
-1.86213

>  <SCORE.INTRA.norm>
-0.108045

>  <SCORE.RESTR>
0

>  <SCORE.RESTR.CAVITY>
0

>  <SCORE.RESTR.norm>
0

>  <SCORE.SYSTEM>
0

>  <SCORE.SYSTEM.CONST>
0

>  <SCORE.SYSTEM.DIHEDRAL>
0

>  <SCORE.SYSTEM.SOLV>
0

>  <SCORE.SYSTEM.norm>
0

>  <SCORE.heavy>
22

>  <SCORE.norm>
-0.248879

>  <RMSD>
24.979

$$$$
lig.pdb
 OpenBabel11021811523D
libRbt.so/2013.1/901 2013/11/27
 22 23  0  0  0  0  0  0  0  0999 V2000
  -24.2908  -13.3132   -9.2766 C   0  0  1  0  0  0  0  0  0  0  0  0
  -22.5737  -14.5580   -7.9005 C   0  0  1  0  0  0  0  0  0  0  0  0
  -22.8947  -15.9709   -8.5621 C   0  0  1  0  0  0  0  0  0  0  0  0
  -21.6300  -16.9167   -8.3358 C   0  0  2  0  0  0  0  0  0  0  0  0
  -25.1427  -11.9975   -9.0949 C   0  0  1  0  0  0  0  0  0  0  0  0
  -26.2525  -12.2873   -8.0649 C   0  0  2  0  0  0  0  0  0  0  0  0
  -27.1858  -13.4047   -8.5638 C   0  0  2  0  0  0  0  0  0  0  0  0
  -26.3956  -14.7434   -8.7997 C   0  0  1  0  0  0  0  0  0  0  0  0
  -27.3245  -15.8603   -9.3569 C   0  0  0  0  0  0  0  0  0  0  0  0
  -20.3521  -16.2795   -9.0862 C   0  0  1  0  0  0  0  0  0  0  0  0
  -20.0597  -14.8553   -8.3936 C   0  0  0  0  0  0  0  0  0  0  0  0
  -21.3272  -13.8990   -8.5723 C   0  0  2  0  0  0  0  0  0  0  0  0
  -27.8261  -13.0008   -9.8208 F   0  0  0  0  0  0  0  0  0  0  0  0
  -24.2082  -10.9025   -8.6247 N   0  0  0  0  0  0  0  0  0  0  0  0
  -27.8933  -15.5838  -10.6212 N   0  0  0  0  0  0  0  0  0  0  0  0
  -19.1282  -17.1288   -8.8870 N   0  0  0  0  0  0  0  0  0  0  0  0
  -21.0532  -12.5955   -7.9335 N   0  0  0  0  0  0  0  0  0  0  0  0
  -23.6682  -13.6727   -8.0831 O   0  0  0  0  0  0  0  0  0  0  0  0
  -24.0742  -16.5414   -7.8695 O   0  0  0  0  0  0  0  0  0  0  0  0
  -21.9394  -18.1494   -8.9154 O   0  0  0  0  0  0  0  0  0  0  0  0
  -26.8736  -11.3277   -7.9357 O   0  0  0  0  0  0  0  0  0  0  0  0
  -25.2369  -14.4105   -9.7572 O   0  0  0  0  0  0  0  0  0  0  0  0
  1  5  1  0  0  0  0
  1 18  1  1  0  0  0
  2 18  1  6  0  0  0
  2  3  1  0  0  0  0
  2 12  1  0  0  0  0
  3 19  1  1  0  0  0
  3  4  1  0  0  0  0
  4 20  1  6  0  0  0
  4 10  1  0  0  0  0
  5  6  1  0  0  0  0
  5 14  1  1  0  0  0
  6 21  1  6  0  0  0
  7 13  1  6  0  0  0
  7  6  1  0  0  0  0
  8  9  1  6  0  0  0
  8  7  1  0  0  0  0
 10 16  1  1  0  0  0
 11 10  1  0  0  0  0
 12 17  1  1  0  0  0
 12 11  1  0  0  0  0
 15  9  1  0  0  0  0
 22  8  1  0  0  0  0
 22  1  1  0  0  0  0
M  END
>  <CHROM.1>
-162.35092987,-54.56032083,62.67404605,-24.04854813,-14.41996030,-8.76143240
-2.70562081,0.16046387,-2.97921340

>  <Name>
lig.pdb

>  <RI>
0

>  <Rbt.Current_Directory>
/home/itssahil/PROJECTS/Mol_Feturizer/New_Systems/rnas/5bws

>  <Rbt.Executable>
rbdock ($Id: //depot/dev/client3/rdock/2013.1/src/exe/rbdock.cxx#4 $)

>  <Rbt.Library>
libRbt.so (2013.1, Build901 2013/11/27)

>  <Rbt.Parameter_File>
/export/apps/rDock/src/rDock_2013.1_src/data/scripts/dock_solv.prm

>  <Rbt.Receptor>
prm/blind_docking_60.prm

>  <SCORE>
-3.34233

>  <SCORE.INTER>
-2.10801

>  <SCORE.INTER.CONST>
1

>  <SCORE.INTER.POLAR>
0

>  <SCORE.INTER.ROT>
3

>  <SCORE.INTER.SOLV>
16.1053

>  <SCORE.INTER.VDW>
-12.3738

>  <SCORE.INTER.norm>
-0.0958187

>  <SCORE.INTRA>
-1.23432

>  <SCORE.INTRA.DIHEDRAL>
-4.50389

>  <SCORE.INTRA.DIHEDRAL.0>
6.10773

>  <SCORE.INTRA.POLAR>
0

>  <SCORE.INTRA.POLAR.0>
0

>  <SCORE.INTRA.REPUL>
0

>  <SCORE.INTRA.REPUL.0>
0

>  <SCORE.INTRA.SOLV>
1.99852

>  <SCORE.INTRA.SOLV.lig_0>
-71.4024

>  <SCORE.INTRA.VDW>
0.0183684

>  <SCORE.INTRA.VDW.0>
-1.86213

>  <SCORE.INTRA.norm>
-0.0561053

>  <SCORE.RESTR>
0

>  <SCORE.RESTR.CAVITY>
0

>  <SCORE.RESTR.norm>
0

>  <SCORE.SYSTEM>
0

>  <SCORE.SYSTEM.CONST>
0

>  <SCORE.SYSTEM.DIHEDRAL>
0

>  <SCORE.SYSTEM.SOLV>
0

>  <SCORE.SYSTEM.norm>
0

>  <SCORE.heavy>
22

>  <SCORE.norm>
-0.151924

>  <RMSD>
25.069

$$$$
lig.pdb
 OpenBabel11021811523D
libRbt.so/2013.1/901 2013/11/27
 22 23  0  0  0  0  0  0  0  0999 V2000
  -24.0461  -12.6992   -7.2675 C   0  0  1  0  0  0  0  0  0  0  0  0
  -26.0141  -14.1074   -6.5361 C   0  0  1  0  0  0  0  0  0  0  0  0
  -26.0353  -13.7403   -4.9863 C   0  0  1  0  0  0  0  0  0  0  0  0
  -26.7560  -14.9333   -4.2099 C   0  0  2  0  0  0  0  0  0  0  0  0
  -23.8094  -11.4136   -8.1516 C   0  0  1  0  0  0  0  0  0  0  0  0
  -24.1832  -11.7607   -9.6062 C   0  0  2  0  0  0  0  0  0  0  0  0
  -23.2911  -12.8923  -10.1468 C   0  0  2  0  0  0  0  0  0  0  0  0
  -23.4505  -14.2013   -9.2904 C   0  0  1  0  0  0  0  0  0  0  0  0
  -22.5093  -15.3308   -9.7994 C   0  0  0  0  0  0  0  0  0  0  0  0
  -28.2791  -15.0567   -4.7268 C   0  0  1  0  0  0  0  0  0  0  0  0
  -28.2176  -15.4254   -6.2933 C   0  0  0  0  0  0  0  0  0  0  0  0
  -27.4656  -14.2632   -7.0912 C   0  0  2  0  0  0  0  0  0  0  0  0
  -21.8840  -12.4766  -10.1256 F   0  0  0  0  0  0  0  0  0  0  0  0
  -24.6767  -10.3037   -7.5953 N   0  0  0  0  0  0  0  0  0  0  0  0
  -22.5336  -16.5161   -9.0293 N   0  0  0  0  0  0  0  0  0  0  0  0
  -28.9964  -16.1814   -4.0345 N   0  0  0  0  0  0  0  0  0  0  0  0
  -27.4112  -14.6084   -8.5266 N   0  0  0  0  0  0  0  0  0  0  0  0
  -25.3892  -13.0694   -7.2758 O   0  0  0  0  0  0  0  0  0  0  0  0
  -24.6314  -13.6225   -4.5264 O   0  0  0  0  0  0  0  0  0  0  0  0
  -26.7536  -14.5925   -2.8553 O   0  0  0  0  0  0  0  0  0  0  0  0
  -24.0079  -10.8230  -10.2492 O   0  0  0  0  0  0  0  0  0  0  0  0
  -23.1641  -13.8114   -7.8289 O   0  0  0  0  0  0  0  0  0  0  0  0
  1  5  1  0  0  0  0
  1 18  1  6  0  0  0
  2 18  1  6  0  0  0
  2  3  1  0  0  0  0
  2 12  1  0  0  0  0
  3 19  1  1  0  0  0
  3  4  1  0  0  0  0
  4 20  1  1  0  0  0
  4 10  1  0  0  0  0
  5  6  1  0  0  0  0
  5 14  1  1  0  0  0
  6 21  1  6  0  0  0
  7 13  1  1  0  0  0
  7  6  1  0  0  0  0
  8  9  1  6  0  0  0
  8  7  1  0  0  0  0
 10 16  1  1  0  0  0
 11 10  1  0  0  0  0
 12 17  1  6  0  0  0
 12 11  1  0  0  0  0
 15  9  1  0  0  0  0
 22  8  1  0  0  0  0
 22  1  1  0  0  0  0
M  END
>  <CHROM.1>
-175.27631342,68.91120142,176.30143857,-25.08993450,-13.68958292,-7.30426661
0.28140540,0.85598666,0.05940959

>  <Name>
lig.pdb

>  <RI>
0

>  <Rbt.Current_Directory>
/home/itssahil/PROJECTS/Mol_Feturizer/New_Systems/rnas/5bws

>  <Rbt.Executable>
rbdock ($Id: //depot/dev/client3/rdock/2013.1/src/exe/rbdock.cxx#4 $)

>  <Rbt.Library>
libRbt.so (2013.1, Build901 2013/11/27)

>  <Rbt.Parameter_File>
/export/apps/rDock/src/rDock_2013.1_src/data/scripts/dock_solv.prm

>  <Rbt.Receptor>
prm/blind_docking_80.prm

>  <SCORE>
-4.9051

>  <SCORE.INTER>
-1.66752

>  <SCORE.INTER.CONST>
1

>  <SCORE.INTER.POLAR>
0

>  <SCORE.INTER.ROT>
3

>  <SCORE.INTER.SOLV>
10.3284

>  <SCORE.INTER.VDW>
-10.1545

>  <SCORE.INTER.norm>
-0.0757962

>  <SCORE.INTRA>
-3.23758

>  <SCORE.INTRA.DIHEDRAL>
-5.56125

>  <SCORE.INTRA.DIHEDRAL.0>
6.10773

>  <SCORE.INTRA.POLAR>
0

>  <SCORE.INTRA.POLAR.0>
0

>  <SCORE.INTRA.REPUL>
0

>  <SCORE.INTRA.REPUL.0>
0

>  <SCORE.INTRA.SOLV>
-1.37528

>  <SCORE.INTRA.SOLV.lig_0>
-71.4024

>  <SCORE.INTRA.VDW>
0.230679

>  <SCORE.INTRA.VDW.0>
-1.86213

>  <SCORE.INTRA.norm>
-0.147163

>  <SCORE.RESTR>
0

>  <SCORE.RESTR.CAVITY>
0

>  <SCORE.RESTR.norm>
0

>  <SCORE.SYSTEM>
0

>  <SCORE.SYSTEM.CONST>
0

>  <SCORE.SYSTEM.DIHEDRAL>
0

>  <SCORE.SYSTEM.SOLV>
0

>  <SCORE.SYSTEM.norm>
0

>  <SCORE.heavy>
22

>  <SCORE.norm>
-0.222959

>  <RMSD>
25.264

$$$$
lig.pdb
 OpenBabel11021811523D
libRbt.so/2013.1/901 2013/11/27
 22 23  0  0  0  0  0  0  0  0999 V2000
  -26.1374  -13.5482   -9.0862 C   0  0  1  0  0  0  0  0  0  0  0  0
  -26.5950  -11.4519   -7.7493 C   0  0  1  0  0  0  0  0  0  0  0  0
  -28.0457  -11.0827   -8.2935 C   0  0  1  0  0  0  0  0  0  0  0  0
  -28.2640   -9.5163   -8.0836 C   0  0  2  0  0  0  0  0  0  0  0  0
  -26.1688  -15.1045   -8.8273 C   0  0  1  0  0  0  0  0  0  0  0  0
  -25.0150  -15.4505   -7.8654 C   0  0  2  0  0  0  0  0  0  0  0  0
  -23.6547  -15.0895   -8.4879 C   0  0  2  0  0  0  0  0  0  0  0  0
  -23.5637  -13.5521   -8.8048 C   0  0  1  0  0  0  0  0  0  0  0  0
  -22.2117  -13.1916   -9.4852 C   0  0  0  0  0  0  0  0  0  0  0  0
  -28.2092   -9.1814   -6.5066 C   0  0  1  0  0  0  0  0  0  0  0  0
  -26.7328   -9.5684   -5.9929 C   0  0  0  0  0  0  0  0  0  0  0  0
  -26.4724  -11.1274   -6.2265 C   0  0  2  0  0  0  0  0  0  0  0  0
  -23.4537  -15.8452   -9.7295 F   0  0  0  0  0  0  0  0  0  0  0  0
  -27.5197  -15.4479   -8.2352 N   0  0  0  0  0  0  0  0  0  0  0  0
  -21.9943  -11.8081   -9.6781 N   0  0  0  0  0  0  0  0  0  0  0  0
  -28.3935   -7.7105   -6.2588 N   0  0  0  0  0  0  0  0  0  0  0  0
  -25.1164  -11.4752   -5.7549 N   0  0  0  0  0  0  0  0  0  0  0  0
  -26.3537  -12.8421   -7.9048 O   0  0  0  0  0  0  0  0  0  0  0  0
  -28.0850  -11.4021   -9.7401 O   0  0  0  0  0  0  0  0  0  0  0  0
  -29.5364   -9.2169   -8.5760 O   0  0  0  0  0  0  0  0  0  0  0  0
  -25.0383  -16.5856   -7.6799 O   0  0  0  0  0  0  0  0  0  0  0  0
  -24.7765  -13.2101   -9.6893 O   0  0  0  0  0  0  0  0  0  0  0  0
  1  5  1  0  0  0  0
  1 18  1  1  0  0  0
  2 18  1  1  0  0  0
  2  3  1  0  0  0  0
  2 12  1  0  0  0  0
  3 19  1  6  0  0  0
  3  4  1  0  0  0  0
  4 20  1  1  0  0  0
  4 10  1  0  0  0  0
  5  6  1  0  0  0  0
  5 14  1  1  0  0  0
  6 21  1  6  0  0  0
  7 13  1  6  0  0  0
  7  6  1  0  0  0  0
  8  9  1  6  0  0  0
  8  7  1  0  0  0  0
 10 16  1  6  0  0  0
 11 10  1  0  0  0  0
 12 17  1  6  0  0  0
 12 11  1  0  0  0  0
 15  9  1  0  0  0  0
 22  8  1  0  0  0  0
 22  1  1  0  0  0  0
M  END
>  <CHROM.1>
-169.82669634,70.83718299,-173.81172742,-25.94703952,-12.48646916,-8.16932573
0.94785746,-0.11433384,-2.93095464

>  <Name>
lig.pdb

>  <RI>
0

>  <Rbt.Current_Directory>
/home/itssahil/PROJECTS/Mol_Feturizer/New_Systems/rnas/5bws

>  <Rbt.Executable>
rbdock ($Id: //depot/dev/client3/rdock/2013.1/src/exe/rbdock.cxx#4 $)

>  <Rbt.Library>
libRbt.so (2013.1, Build901 2013/11/27)

>  <Rbt.Parameter_File>
/export/apps/rDock/src/rDock_2013.1_src/data/scripts/dock_solv.prm

>  <Rbt.Receptor>
prm/blind_docking_100.prm

>  <SCORE>
-5.6894

>  <SCORE.INTER>
-2.74962

>  <SCORE.INTER.CONST>
1

>  <SCORE.INTER.POLAR>
0

>  <SCORE.INTER.ROT>
3

>  <SCORE.INTER.SOLV>
19.0498

>  <SCORE.INTER.VDW>
-13.783

>  <SCORE.INTER.norm>
-0.124983

>  <SCORE.INTRA>
-2.93978

>  <SCORE.INTRA.DIHEDRAL>
-4.90566

>  <SCORE.INTRA.DIHEDRAL.0>
6.10773

>  <SCORE.INTRA.POLAR>
0

>  <SCORE.INTRA.POLAR.0>
0

>  <SCORE.INTRA.REPUL>
0

>  <SCORE.INTRA.REPUL.0>
0

>  <SCORE.INTRA.SOLV>
-1.43379

>  <SCORE.INTRA.SOLV.lig_0>
-71.4024

>  <SCORE.INTRA.VDW>
0.229942

>  <SCORE.INTRA.VDW.0>
-1.86213

>  <SCORE.INTRA.norm>
-0.133626

>  <SCORE.RESTR>
0

>  <SCORE.RESTR.CAVITY>
0

>  <SCORE.RESTR.norm>
0

>  <SCORE.SYSTEM>
0

>  <SCORE.SYSTEM.CONST>
0

>  <SCORE.SYSTEM.DIHEDRAL>
0

>  <SCORE.SYSTEM.SOLV>
0

>  <SCORE.SYSTEM.norm>
0

>  <SCORE.heavy>
22

>  <SCORE.norm>
-0.258609

>  <RMSD>
25.310

$$$$
lig.pdb
 OpenBabel11021811523D
libRbt.so/2013.1/901 2013/11/27
 22 23  0  0  0  0  0  0  0  0999 V2000
  -25.1458  -12.5876   -8.9311 C   0  0  1  0  0  0  0  0  0  0  0  0
  -24.1446  -14.8647   -8.4795 C   0  0  1  0  0  0  0  0  0  0  0  0
  -22.8523  -14.7668   -9.4055 C   0  0  1  0  0  0  0  0  0  0  0  0
  -22.4005  -16.2515   -9.7750 C   0  0  2  0  0  0  0  0  0  0  0  0
  -25.4833  -11.2862   -8.1049 C   0  0  1  0  0  0  0  0  0  0  0  0
  -26.5342  -11.6575   -7.0400 C   0  0  2  0  0  0  0  0  0  0  0  0
  -27.8294  -12.1627   -7.7001 C   0  0  2  0  0  0  0  0  0  0  0  0
  -27.5621  -13.4446   -8.5705 C   0  0  1  0  0  0  0  0  0  0  0  0
  -28.8580  -13.9265   -9.2843 C   0  0  0  0  0  0  0  0  0  0  0  0
  -22.0018  -17.0351   -8.4225 C   0  0  1  0  0  0  0  0  0  0  0  0
  -23.3288  -17.1124   -7.5132 C   0  0  0  0  0  0  0  0  0  0  0  0
  -23.8263  -15.6359   -7.1592 C   0  0  2  0  0  0  0  0  0  0  0  0
  -28.3991  -11.1153   -8.5555 F   0  0  0  0  0  0  0  0  0  0  0  0
  -24.1969  -10.7889   -7.4793 N   0  0  0  0  0  0  0  0  0  0  0  0
  -29.8892  -14.3548   -8.4173 N   0  0  0  0  0  0  0  0  0  0  0  0
  -21.5842  -18.4481   -8.7184 N   0  0  0  0  0  0  0  0  0  0  0  0
  -25.0442  -15.7141   -6.3268 N   0  0  0  0  0  0  0  0  0  0  0  0
  -24.5831  -13.5652   -8.1132 O   0  0  0  0  0  0  0  0  0  0  0  0
  -23.2300  -14.0388  -10.6399 O   0  0  0  0  0  0  0  0  0  0  0  0
  -21.2739  -16.1385  -10.5930 O   0  0  0  0  0  0  0  0  0  0  0  0
  -26.7803  -10.7070   -6.4405 O   0  0  0  0  0  0  0  0  0  0  0  0
  -26.4446  -13.0794   -9.5645 O   0  0  0  0  0  0  0  0  0  0  0  0
  1  5  1  0  0  0  0
  1 18  1  1  0  0  0
  2 18  1  1  0  0  0
  2  3  1  0  0  0  0
  2 12  1  0  0  0  0
  3 19  1  6  0  0  0
  3  4  1  0  0  0  0
  4 20  1  6  0  0  0
  4 10  1  0  0  0  0
  5  6  1  0  0  0  0
  5 14  1  1  0  0  0
  6 21  1  6  0  0  0
  7 13  1  6  0  0  0
  7  6  1  0  0  0  0
  8  9  1  6  0  0  0
  8  7  1  0  0  0  0
 10 16  1  6  0  0  0
 11 10  1  0  0  0  0
 12 17  1  1  0  0  0
 12 11  1  0  0  0  0
 15  9  1  0  0  0  0
 22  8  1  0  0  0  0
 22  1  1  0  0  0  0
M  END
>  <CHROM.1>
-179.85920876,68.69696665,-64.04859420,-25.10645738,-13.96996125,-8.44452168
-2.43392870,-0.11637443,-3.06328635

>  <Name>
lig.pdb

>  <RI>
0

>  <Rbt.Current_Directory>
/home/itssahil/PROJECTS/Mol_Feturizer/New_Systems/rnas/5bws

>  <Rbt.Executable>
rbdock ($Id: //depot/dev/client3/rdock/2013.1/src/exe/rbdock.cxx#4 $)

>  <Rbt.Library>
libRbt.so (2013.1, Build901 2013/11/27)

>  <Rbt.Parameter_File>
/export/apps/rDock/src/rDock_2013.1_src/data/scripts/dock_solv.prm

>  <Rbt.Receptor>
prm/blind_docking_100.prm

>  <SCORE>
-5.01098

>  <SCORE.INTER>
-1.95299

>  <SCORE.INTER.CONST>
1

>  <SCORE.INTER.POLAR>
0

>  <SCORE.INTER.ROT>
3

>  <SCORE.INTER.SOLV>
14.7003

>  <SCORE.INTER.VDW>
-11.8021

>  <SCORE.INTER.norm>
-0.0887724

>  <SCORE.INTRA>
-3.05798

>  <SCORE.INTRA.DIHEDRAL>
-5.67886

>  <SCORE.INTRA.DIHEDRAL.0>
6.10773

>  <SCORE.INTRA.POLAR>
0

>  <SCORE.INTRA.POLAR.0>
0

>  <SCORE.INTRA.REPUL>
0

>  <SCORE.INTRA.REPUL.0>
0

>  <SCORE.INTRA.SOLV>
-1.00888

>  <SCORE.INTRA.SOLV.lig_0>
-71.4024

>  <SCORE.INTRA.VDW>
0.285885

>  <SCORE.INTRA.VDW.0>
-1.86213

>  <SCORE.INTRA.norm>
-0.138999

>  <SCORE.RESTR>
0

>  <SCORE.RESTR.CAVITY>
0

>  <SCORE.RESTR.norm>
0

>  <SCORE.SYSTEM>
0

>  <SCORE.SYSTEM.CONST>
0

>  <SCORE.SYSTEM.DIHEDRAL>
0

>  <SCORE.SYSTEM.SOLV>
0

>  <SCORE.SYSTEM.norm>
0

>  <SCORE.heavy>
22

>  <SCORE.norm>
-0.227772

>  <RMSD>
25.678

$$$$
lig.pdb
 OpenBabel11021811523D
libRbt.so/2013.1/901 2013/11/27
 22 23  0  0  0  0  0  0  0  0999 V2000
  -26.4179  -14.7519   -8.0951 C   0  0  1  0  0  0  0  0  0  0  0  0
  -23.9821  -15.1237   -8.6608 C   0  0  1  0  0  0  0  0  0  0  0  0
  -23.7718  -16.5266   -7.9365 C   0  0  1  0  0  0  0  0  0  0  0  0
  -22.2166  -16.6858   -7.6185 C   0  0  2  0  0  0  0  0  0  0  0  0
  -27.7850  -14.6485   -8.8764 C   0  0  1  0  0  0  0  0  0  0  0  0
  -27.7197  -13.4071   -9.7880 C   0  0  2  0  0  0  0  0  0  0  0  0
  -27.5377  -12.1249   -8.9566 C   0  0  2  0  0  0  0  0  0  0  0  0
  -26.2059  -12.1717   -8.1222 C   0  0  1  0  0  0  0  0  0  0  0  0
  -26.0450  -10.9018   -7.2377 C   0  0  0  0  0  0  0  0  0  0  0  0
  -21.3918  -16.6976   -9.0048 C   0  0  1  0  0  0  0  0  0  0  0  0
  -21.6295  -15.2682   -9.7076 C   0  0  0  0  0  0  0  0  0  0  0  0
  -23.1865  -15.0656  -10.0035 C   0  0  2  0  0  0  0  0  0  0  0  0
  -28.6701  -11.9560   -8.0388 F   0  0  0  0  0  0  0  0  0  0  0  0
  -27.9606  -15.9248   -9.6724 N   0  0  0  0  0  0  0  0  0  0  0  0
  -24.8571  -10.8575   -6.4726 N   0  0  0  0  0  0  0  0  0  0  0  0
  -19.9156  -16.8290   -8.7554 N   0  0  0  0  0  0  0  0  0  0  0  0
  -23.3976  -13.7524  -10.6464 N   0  0  0  0  0  0  0  0  0  0  0  0
  -25.3537  -14.9365   -8.9752 O   0  0  0  0  0  0  0  0  0  0  0  0
  -24.5401  -16.5053   -6.6694 O   0  0  0  0  0  0  0  0  0  0  0  0
  -22.0601  -17.9165   -6.9768 O   0  0  0  0  0  0  0  0  0  0  0  0
  -28.7180  -13.3324  -10.3548 O   0  0  0  0  0  0  0  0  0  0  0  0
  -26.2506  -13.4660   -7.2897 O   0  0  0  0  0  0  0  0  0  0  0  0
  1  5  1  0  0  0  0
  1 18  1  6  0  0  0
  2 18  1  6  0  0  0
  2  3  1  0  0  0  0
  2 12  1  0  0  0  0
  3 19  1  1  0  0  0
  3  4  1  0  0  0  0
  4 20  1  6  0  0  0
  4 10  1  0  0  0  0
  5  6  1  0  0  0  0
  5 14  1  6  0  0  0
  6 21  1  1  0  0  0
  7 13  1  1  0  0  0
  7  6  1  0  0  0  0
  8  9  1  1  0  0  0
  8  7  1  0  0  0  0
 10 16  1  1  0  0  0
 11 10  1  0  0  0  0
 12 17  1  1  0  0  0
 12 11  1  0  0  0  0
 15  9  1  0  0  0  0
 22  8  1  0  0  0  0
 22  1  1  0  0  0  0
M  END
>  <CHROM.1>
-177.43462543,67.62169208,-178.93083954,-25.05257208,-14.46888385,-8.51034806
2.58865869,-0.25118930,0.33348654

>  <Name>
lig.pdb

>  <RI>
0

>  <Rbt.Current_Directory>
/home/itssahil/PROJECTS/Mol_Feturizer/New_Systems/rnas/5bws

>  <Rbt.Executable>
rbdock ($Id: //depot/dev/client3/rdock/2013.1/src/exe/rbdock.cxx#4 $)

>  <Rbt.Library>
libRbt.so (2013.1, Build901 2013/11/27)

>  <Rbt.Parameter_File>
/export/apps/rDock/src/rDock_2013.1_src/data/scripts/dock_solv.prm

>  <Rbt.Receptor>
prm/blind_docking_80.prm

>  <SCORE>
-6.90867

>  <SCORE.INTER>
-3.51768

>  <SCORE.INTER.CONST>
1

>  <SCORE.INTER.POLAR>
0

>  <SCORE.INTER.ROT>
3

>  <SCORE.INTER.SOLV>
19.0923

>  <SCORE.INTER.VDW>
-14.3092

>  <SCORE.INTER.norm>
-0.159894

>  <SCORE.INTRA>
-3.391

>  <SCORE.INTRA.DIHEDRAL>
-5.78587

>  <SCORE.INTRA.DIHEDRAL.0>
6.10773

>  <SCORE.INTRA.POLAR>
0

>  <SCORE.INTRA.POLAR.0>
0

>  <SCORE.INTRA.REPUL>
0

>  <SCORE.INTRA.REPUL.0>
0

>  <SCORE.INTRA.SOLV>
-1.49495

>  <SCORE.INTRA.SOLV.lig_0>
-71.4024

>  <SCORE.INTRA.VDW>
0.249412

>  <SCORE.INTRA.VDW.0>
-1.86213

>  <SCORE.INTRA.norm>
-0.154136

>  <SCORE.RESTR>
0

>  <SCORE.RESTR.CAVITY>
0

>  <SCORE.RESTR.norm>
0

>  <SCORE.SYSTEM>
0

>  <SCORE.SYSTEM.CONST>
0

>  <SCORE.SYSTEM.DIHEDRAL>
0

>  <SCORE.SYSTEM.SOLV>
0

>  <SCORE.SYSTEM.norm>
0

>  <SCORE.heavy>
22

>  <SCORE.norm>
-0.314031

>  <RMSD>
25.886

$$$$
lig.pdb
 OpenBabel11021811523D
libRbt.so/2013.1/901 2013/11/27
 22 23  0  0  0  0  0  0  0  0999 V2000
  -26.4381  -14.7927   -8.1425 C   0  0  1  0  0  0  0  0  0  0  0  0
  -23.9898  -15.1240   -8.6783 C   0  0  1  0  0  0  0  0  0  0  0  0
  -23.7894  -16.5204   -7.9388 C   0  0  1  0  0  0  0  0  0  0  0  0
  -22.2381  -16.6785   -7.6019 C   0  0  2  0  0  0  0  0  0  0  0  0
  -27.7929  -14.6765   -8.9432 C   0  0  1  0  0  0  0  0  0  0  0  0
  -27.7247  -13.4051   -9.8123 C   0  0  2  0  0  0  0  0  0  0  0  0
  -27.5696  -12.1494   -8.9362 C   0  0  2  0  0  0  0  0  0  0  0  0
  -26.2516  -12.2111   -8.0810 C   0  0  1  0  0  0  0  0  0  0  0  0
  -26.1184  -10.9697   -7.1527 C   0  0  0  0  0  0  0  0  0  0  0  0
  -21.3978  -16.7040   -8.9786 C   0  0  1  0  0  0  0  0  0  0  0  0
  -21.6258  -15.2809   -9.6972 C   0  0  0  0  0  0  0  0  0  0  0  0
  -23.1791  -15.0791  -10.0125 C   0  0  2  0  0  0  0  0  0  0  0  0
  -28.7189  -12.0217   -8.0328 F   0  0  0  0  0  0  0  0  0  0  0  0
  -27.9423  -15.9274   -9.7836 N   0  0  0  0  0  0  0  0  0  0  0  0
  -24.9447  -10.9402   -6.3651 N   0  0  0  0  0  0  0  0  0  0  0  0
  -19.9247  -16.8349   -8.7115 N   0  0  0  0  0  0  0  0  0  0  0  0
  -23.3813  -13.7717  -10.6697 N   0  0  0  0  0  0  0  0  0  0  0  0
  -25.3575  -14.9381   -9.0098 O   0  0  0  0  0  0  0  0  0  0  0  0
  -24.5719  -16.4865   -6.6807 O   0  0  0  0  0  0  0  0  0  0  0  0
  -22.0904  -17.9034   -6.9472 O   0  0  0  0  0  0  0  0  0  0  0  0
  -28.7140  -13.3211  -10.3933 O   0  0  0  0  0  0  0  0  0  0  0  0
  -26.2973  -13.5326   -7.2925 O   0  0  0  0  0  0  0  0  0  0  0  0
  1  5  1  0  0  0  0
  1 18  1  6  0  0  0
  2 18  1  6  0  0  0
  2  3  1  0  0  0  0
  2 12  1  0  0  0  0
  3 19  1  1  0  0  0
  3  4  1  0  0  0  0
  4 20  1  6  0  0  0
  4 10  1  0  0  0  0
  5  6  1  0  0  0  0
  5 14  1  6  0  0  0
  6 21  1  1  0  0  0
  7 13  1  1  0  0  0
  7  6  1  0  0  0  0
  8  9  1  1  0  0  0
  8  7  1  0  0  0  0
 10 16  1  1  0  0  0
 11 10  1  0  0  0  0
 12 17  1  1  0  0  0
 12 11  1  0  0  0  0
 15  9  1  0  0  0  0
 22  8  1  0  0  0  0
 22  1  1  0  0  0  0
M  END
>  <CHROM.1>
-177.36152150,65.05866816,-179.00263738,-25.07346158,-14.48840604,-8.51051174
2.62152379,-0.30155996,0.42625226

>  <Name>
lig.pdb

>  <RI>
0

>  <Rbt.Current_Directory>
/home/itssahil/PROJECTS/Mol_Feturizer/New_Systems/rnas/5bws

>  <Rbt.Executable>
rbdock ($Id: //depot/dev/client3/rdock/2013.1/src/exe/rbdock.cxx#4 $)

>  <Rbt.Library>
libRbt.so (2013.1, Build901 2013/11/27)

>  <Rbt.Parameter_File>
/export/apps/rDock/src/rDock_2013.1_src/data/scripts/dock_solv.prm

>  <Rbt.Receptor>
prm/blind_docking_100.prm

>  <SCORE>
-6.89029

>  <SCORE.INTER>
-3.47254

>  <SCORE.INTER.CONST>
1

>  <SCORE.INTER.POLAR>
0

>  <SCORE.INTER.ROT>
3

>  <SCORE.INTER.SOLV>
19.552

>  <SCORE.INTER.VDW>
-14.4324

>  <SCORE.INTER.norm>
-0.157843

>  <SCORE.INTRA>
-3.41775

>  <SCORE.INTRA.DIHEDRAL>
-5.94177

>  <SCORE.INTRA.DIHEDRAL.0>
6.10773

>  <SCORE.INTRA.POLAR>
0

>  <SCORE.INTRA.POLAR.0>
0

>  <SCORE.INTRA.REPUL>
0

>  <SCORE.INTRA.REPUL.0>
0

>  <SCORE.INTRA.SOLV>
-1.55795

>  <SCORE.INTRA.SOLV.lig_0>
-71.4024

>  <SCORE.INTRA.VDW>
0.332115

>  <SCORE.INTRA.VDW.0>
-1.86213

>  <SCORE.INTRA.norm>
-0.155352

>  <SCORE.RESTR>
0

>  <SCORE.RESTR.CAVITY>
0

>  <SCORE.RESTR.norm>
0

>  <SCORE.SYSTEM>
0

>  <SCORE.SYSTEM.CONST>
0

>  <SCORE.SYSTEM.DIHEDRAL>
0

>  <SCORE.SYSTEM.SOLV>
0

>  <SCORE.SYSTEM.norm>
0

>  <SCORE.heavy>
22

>  <SCORE.norm>
-0.313195

>  <RMSD>
25.910

$$$$
lig.pdb
 OpenBabel11021811523D
libRbt.so/2013.1/901 2013/11/27
 22 23  0  0  0  0  0  0  0  0999 V2000
  -26.4423  -14.8540   -8.1735 C   0  0  1  0  0  0  0  0  0  0  0  0
  -23.9857  -15.1382   -8.6982 C   0  0  1  0  0  0  0  0  0  0  0  0
  -23.7708  -16.5358   -7.9651 C   0  0  1  0  0  0  0  0  0  0  0  0
  -22.2193  -16.6754   -7.6209 C   0  0  2  0  0  0  0  0  0  0  0  0
  -27.7901  -14.7110   -8.9815 C   0  0  1  0  0  0  0  0  0  0  0  0
  -27.7156  -13.4102   -9.8054 C   0  0  2  0  0  0  0  0  0  0  0  0
  -27.5694  -12.1855   -8.8850 C   0  0  2  0  0  0  0  0  0  0  0  0
  -26.2589  -12.2759   -8.0209 C   0  0  1  0  0  0  0  0  0  0  0  0
  -26.1351  -11.0673   -7.0490 C   0  0  0  0  0  0  0  0  0  0  0  0
  -21.3717  -16.6827   -8.9934 C   0  0  1  0  0  0  0  0  0  0  0  0
  -21.6146  -15.2588   -9.7057 C   0  0  0  0  0  0  0  0  0  0  0  0
  -23.1688  -15.0756  -10.0279 C   0  0  2  0  0  0  0  0  0  0  0  0
  -28.7267  -12.0900   -7.9879 F   0  0  0  0  0  0  0  0  0  0  0  0
  -27.9309  -15.9321   -9.8661 N   0  0  0  0  0  0  0  0  0  0  0  0
  -24.9767  -11.0731   -6.2387 N   0  0  0  0  0  0  0  0  0  0  0  0
  -19.8984  -16.7957   -8.7193 N   0  0  0  0  0  0  0  0  0  0  0  0
  -23.3847  -13.7674  -10.6792 N   0  0  0  0  0  0  0  0  0  0  0  0
  -25.3540  -14.9684   -9.0357 O   0  0  0  0  0  0  0  0  0  0  0  0
  -24.5601  -16.5189   -6.7108 O   0  0  0  0  0  0  0  0  0  0  0  0
  -22.0589  -17.9019   -6.9719 O   0  0  0  0  0  0  0  0  0  0  0  0
  -28.6999  -13.3068  -10.3918 O   0  0  0  0  0  0  0  0  0  0  0  0
  -26.3102  -13.6240   -7.2791 O   0  0  0  0  0  0  0  0  0  0  0  0
  1  5  1  0  0  0  0
  1 18  1  6  0  0  0
  2 18  1  6  0  0  0
  2  3  1  0  0  0  0
  2 12  1  0  0  0  0
  3 19  1  1  0  0  0
  3  4  1  0  0  0  0
  4 20  1  6  0  0  0
  4 10  1  0  0  0  0
  5  6  1  0  0  0  0
  5 14  1  6  0  0  0
  6 21  1  1  0  0  0
  7 13  1  1  0  0  0
  7  6  1  0  0  0  0
  8  9  1  1  0  0  0
  8  7  1  0  0  0  0
 10 16  1  1  0  0  0
 11 10  1  0  0  0  0
 12 17  1  1  0  0  0
 12 11  1  0  0  0  0
 15  9  1  0  0  0  0
 22  8  1  0  0  0  0
 22  1  1  0  0  0  0
M  END
>  <CHROM.1>
-178.73093620,64.42024339,-179.76005859,-25.06836367,-14.51566271,-8.50763482
2.65496680,-0.33283772,0.51075523

>  <Name>
lig.pdb

>  <RI>
0

>  <Rbt.Current_Directory>
/home/itssahil/PROJECTS/Mol_Feturizer/New_Systems/rnas/5bws

>  <Rbt.Executable>
rbdock ($Id: //depot/dev/client3/rdock/2013.1/src/exe/rbdock.cxx#4 $)

>  <Rbt.Library>
libRbt.so (2013.1, Build901 2013/11/27)

>  <Rbt.Parameter_File>
/export/apps/rDock/src/rDock_2013.1_src/data/scripts/dock_solv.prm

>  <Rbt.Receptor>
prm/blind_docking_40.prm

>  <SCORE>
-6.93232

>  <SCORE.INTER>
-3.4894

>  <SCORE.INTER.CONST>
1

>  <SCORE.INTER.POLAR>
0

>  <SCORE.INTER.ROT>
3

>  <SCORE.INTER.SOLV>
19.6719

>  <SCORE.INTER.VDW>
-14.4836

>  <SCORE.INTER.norm>
-0.158609

>  <SCORE.INTRA>
-3.44292

>  <SCORE.INTRA.DIHEDRAL>
-6.00099

>  <SCORE.INTRA.DIHEDRAL.0>
6.10773

>  <SCORE.INTRA.POLAR>
0

>  <SCORE.INTRA.POLAR.0>
0

>  <SCORE.INTRA.REPUL>
0

>  <SCORE.INTRA.REPUL.0>
0

>  <SCORE.INTRA.SOLV>
-1.5621

>  <SCORE.INTRA.SOLV.lig_0>
-71.4024

>  <SCORE.INTRA.VDW>
0.338621

>  <SCORE.INTRA.VDW.0>
-1.86213

>  <SCORE.INTRA.norm>
-0.156496

>  <SCORE.RESTR>
0

>  <SCORE.RESTR.CAVITY>
0

>  <SCORE.RESTR.norm>
0

>  <SCORE.SYSTEM>
0

>  <SCORE.SYSTEM.CONST>
0

>  <SCORE.SYSTEM.DIHEDRAL>
0

>  <SCORE.SYSTEM.SOLV>
0

>  <SCORE.SYSTEM.norm>
0

>  <SCORE.heavy>
22

>  <SCORE.norm>
-0.315106

>  <RMSD>
25.918

$$$$
lig.pdb
 OpenBabel11021811523D
libRbt.so/2013.1/901 2013/11/27
 22 23  0  0  0  0  0  0  0  0999 V2000
  -27.7771  -13.2639   -4.5949 C   0  0  1  0  0  0  0  0  0  0  0  0
  -25.9023  -14.1956   -6.0120 C   0  0  1  0  0  0  0  0  0  0  0  0
  -24.8670  -14.5182   -4.8454 C   0  0  1  0  0  0  0  0  0  0  0  0
  -23.4042  -14.5449   -5.4816 C   0  0  2  0  0  0  0  0  0  0  0  0
  -29.3298  -13.4979   -4.4380 C   0  0  1  0  0  0  0  0  0  0  0  0
  -29.9903  -13.2439   -5.8075 C   0  0  2  0  0  0  0  0  0  0  0  0
  -29.7621  -11.7926   -6.2659 C   0  0  2  0  0  0  0  0  0  0  0  0
  -28.2289  -11.4762   -6.4123 C   0  0  1  0  0  0  0  0  0  0  0  0
  -27.9916   -9.9940   -6.8219 C   0  0  0  0  0  0  0  0  0  0  0  0
  -23.3252  -15.7270   -6.5764 C   0  0  1  0  0  0  0  0  0  0  0  0
  -24.3839  -15.3683   -7.7357 C   0  0  0  0  0  0  0  0  0  0  0  0
  -25.8558  -15.2974   -7.1181 C   0  0  2  0  0  0  0  0  0  0  0  0
  -30.3512  -10.8610   -5.2971 F   0  0  0  0  0  0  0  0  0  0  0  0
  -29.5377  -14.9219   -3.9664 N   0  0  0  0  0  0  0  0  0  0  0  0
  -26.6335   -9.6242   -6.9527 N   0  0  0  0  0  0  0  0  0  0  0  0
  -21.9670  -15.7811   -7.2177 N   0  0  0  0  0  0  0  0  0  0  0  0
  -26.8214  -14.9664   -8.1859 N   0  0  0  0  0  0  0  0  0  0  0  0
  -27.2253  -14.1698   -5.4983 O   0  0  0  0  0  0  0  0  0  0  0  0
  -24.9552  -13.4296   -3.8436 O   0  0  0  0  0  0  0  0  0  0  0  0
  -22.5160  -14.8198   -4.4392 O   0  0  0  0  0  0  0  0  0  0  0  0
  -31.1222  -13.4128   -5.6903 O   0  0  0  0  0  0  0  0  0  0  0  0
  -27.5743  -11.8253   -5.0634 O   0  0  0  0  0  0  0  0  0  0  0  0
  1  5  1  0  0  0  0
  1 18  1  6  0  0  0
  2 18  1  1  0  0  0
  2  3  1  0  0  0  0
  2 12  1  0  0  0  0
  3 19  1  1  0  0  0
  3  4  1  0  0  0  0
  4 20  1  1  0  0  0
  4 10  1  0  0  0  0
  5  6  1  0  0  0  0
  5 14  1  6  0  0  0
  6 21  1  1  0  0  0
  7 13  1  1  0  0  0
  7  6  1  0  0  0  0
  8  9  1  1  0  0  0
  8  7  1  0  0  0  0
 10 16  1  6  0  0  0
 11 10  1  0  0  0  0
 12 17  1  6  0  0  0
 12 11  1  0  0  0  0
 15  9  1  0  0  0  0
 22  8  1  0  0  0  0
 22  1  1  0  0  0  0
M  END
>  <CHROM.1>
172.81396878,66.26142105,179.00492817,-26.84775736,-13.43878156,-5.79489149
2.70175574,0.19485031,-0.23152457

>  <Name>
lig.pdb

>  <RI>
0

>  <Rbt.Current_Directory>
/home/itssahil/PROJECTS/Mol_Feturizer/New_Systems/rnas/5bws

>  <Rbt.Executable>
rbdock ($Id: //depot/dev/client3/rdock/2013.1/src/exe/rbdock.cxx#4 $)

>  <Rbt.Library>
libRbt.so (2013.1, Build901 2013/11/27)

>  <Rbt.Parameter_File>
/export/apps/rDock/src/rDock_2013.1_src/data/scripts/dock_solv.prm

>  <Rbt.Receptor>
prm/blind_docking_60.prm

>  <SCORE>
-5.36566

>  <SCORE.INTER>
-2.08754

>  <SCORE.INTER.CONST>
1

>  <SCORE.INTER.POLAR>
0

>  <SCORE.INTER.ROT>
3

>  <SCORE.INTER.SOLV>
11.8409

>  <SCORE.INTER.VDW>
-10.9387

>  <SCORE.INTER.norm>
-0.0948884

>  <SCORE.INTRA>
-3.27812

>  <SCORE.INTRA.DIHEDRAL>
-5.65794

>  <SCORE.INTRA.DIHEDRAL.0>
6.10773

>  <SCORE.INTRA.POLAR>
0

>  <SCORE.INTRA.POLAR.0>
0

>  <SCORE.INTRA.REPUL>
0

>  <SCORE.INTRA.REPUL.0>
0

>  <SCORE.INTRA.SOLV>
-1.43741

>  <SCORE.INTRA.SOLV.lig_0>
-71.4024

>  <SCORE.INTRA.VDW>
0.269558

>  <SCORE.INTRA.VDW.0>
-1.86213

>  <SCORE.INTRA.norm>
-0.149005

>  <SCORE.RESTR>
0

>  <SCORE.RESTR.CAVITY>
0

>  <SCORE.RESTR.norm>
0

>  <SCORE.SYSTEM>
0

>  <SCORE.SYSTEM.CONST>
0

>  <SCORE.SYSTEM.DIHEDRAL>
0

>  <SCORE.SYSTEM.SOLV>
0

>  <SCORE.SYSTEM.norm>
0

>  <SCORE.heavy>
22

>  <SCORE.norm>
-0.243894

>  <RMSD>
25.948

$$$$
lig.pdb
 OpenBabel11021811523D
libRbt.so/2013.1/901 2013/11/27
 22 23  0  0  0  0  0  0  0  0999 V2000
  -26.4644  -13.4295   -7.2843 C   0  0  1  0  0  0  0  0  0  0  0  0
  -26.3952  -10.9477   -7.7611 C   0  0  1  0  0  0  0  0  0  0  0  0
  -27.9377  -10.8718   -8.1508 C   0  0  1  0  0  0  0  0  0  0  0  0
  -28.4071   -9.3545   -8.0007 C   0  0  2  0  0  0  0  0  0  0  0  0
  -25.4085  -14.6021   -7.2695 C   0  0  1  0  0  0  0  0  0  0  0  0
  -25.0621  -14.9495   -8.7309 C   0  0  2  0  0  0  0  0  0  0  0  0
  -26.3108  -15.4304   -9.4912 C   0  0  2  0  0  0  0  0  0  0  0  0
  -27.4237  -14.3200   -9.5181 C   0  0  1  0  0  0  0  0  0  0  0  0
  -28.7088  -14.8215  -10.2377 C   0  0  0  0  0  0  0  0  0  0  0  0
  -28.2461   -8.9010   -6.4610 C   0  0  1  0  0  0  0  0  0  0  0  0
  -26.6785   -8.9923   -6.1035 C   0  0  0  0  0  0  0  0  0  0  0  0
  -26.1717  -10.4969   -6.2825 C   0  0  2  0  0  0  0  0  0  0  0  0
  -26.8542  -16.6353   -8.8539 F   0  0  0  0  0  0  0  0  0  0  0  0
  -24.1953  -14.1225   -6.5004 N   0  0  0  0  0  0  0  0  0  0  0  0
  -29.8176  -13.9491  -10.1495 N   0  0  0  0  0  0  0  0  0  0  0  0
  -28.6612   -7.4689   -6.2721 N   0  0  0  0  0  0  0  0  0  0  0  0
  -24.7333  -10.5733   -5.9549 N   0  0  0  0  0  0  0  0  0  0  0  0
  -25.9288  -12.2840   -7.8694 O   0  0  0  0  0  0  0  0  0  0  0  0
  -28.0725  -11.2978   -9.5639 O   0  0  0  0  0  0  0  0  0  0  0  0
  -29.7573   -9.3129   -8.3562 O   0  0  0  0  0  0  0  0  0  0  0  0
  -24.2942  -15.8059   -8.7177 O   0  0  0  0  0  0  0  0  0  0  0  0
  -27.6869  -13.9218   -8.0545 O   0  0  0  0  0  0  0  0  0  0  0  0
  1  5  1  0  0  0  0
  1 18  1  6  0  0  0
  2 18  1  1  0  0  0
  2  3  1  0  0  0  0
  2 12  1  0  0  0  0
  3 19  1  6  0  0  0
  3  4  1  0  0  0  0
  4 20  1  1  0  0  0
  4 10  1  0  0  0  0
  5  6  1  0  0  0  0
  5 14  1  1  0  0  0
  6 21  1  1  0  0  0
  7 13  1  1  0  0  0
  7  6  1  0  0  0  0
  8  9  1  1  0  0  0
  8  7  1  0  0  0  0
 10 16  1  6  0  0  0
 11 10  1  0  0  0  0
 12 17  1  6  0  0  0
 12 11  1  0  0  0  0
 15  9  1  0  0  0  0
 22  8  1  0  0  0  0
 22  1  1  0  0  0  0
M  END
>  <CHROM.1>
-161.64892804,-53.28061848,171.98280330,-26.97426484,-12.45965664,-8.01462249
-1.27136704,-0.53349888,0.43291588

>  <Name>
lig.pdb

>  <RI>
0

>  <Rbt.Current_Directory>
/home/itssahil/PROJECTS/Mol_Feturizer/New_Systems/rnas/5bws

>  <Rbt.Executable>
rbdock ($Id: //depot/dev/client3/rdock/2013.1/src/exe/rbdock.cxx#4 $)

>  <Rbt.Library>
libRbt.so (2013.1, Build901 2013/11/27)

>  <Rbt.Parameter_File>
/export/apps/rDock/src/rDock_2013.1_src/data/scripts/dock_solv.prm

>  <Rbt.Receptor>
prm/blind_docking_100.prm

>  <SCORE>
-6.97882

>  <SCORE.INTER>
-5.64347

>  <SCORE.INTER.CONST>
1

>  <SCORE.INTER.POLAR>
0

>  <SCORE.INTER.ROT>
3

>  <SCORE.INTER.SOLV>
21.4995

>  <SCORE.INTER.VDW>
-16.5288

>  <SCORE.INTER.norm>
-0.256521

>  <SCORE.INTRA>
-1.33534

>  <SCORE.INTRA.DIHEDRAL>
-4.11713

>  <SCORE.INTRA.DIHEDRAL.0>
6.10773

>  <SCORE.INTRA.POLAR>
0

>  <SCORE.INTRA.POLAR.0>
0

>  <SCORE.INTRA.REPUL>
0

>  <SCORE.INTRA.REPUL.0>
0

>  <SCORE.INTRA.SOLV>
1.63881

>  <SCORE.INTRA.SOLV.lig_0>
-71.4024

>  <SCORE.INTRA.VDW>
-0.0961852

>  <SCORE.INTRA.VDW.0>
-1.86213

>  <SCORE.INTRA.norm>
-0.0606974

>  <SCORE.RESTR>
0

>  <SCORE.RESTR.CAVITY>
0

>  <SCORE.RESTR.norm>
0

>  <SCORE.SYSTEM>
0

>  <SCORE.SYSTEM.CONST>
0

>  <SCORE.SYSTEM.DIHEDRAL>
0

>  <SCORE.SYSTEM.SOLV>
0

>  <SCORE.SYSTEM.norm>
0

>  <SCORE.heavy>
22

>  <SCORE.norm>
-0.317219

>  <RMSD>
26.032

$$$$
lig.pdb
 OpenBabel11021811523D
libRbt.so/2013.1/901 2013/11/27
 22 23  0  0  0  0  0  0  0  0999 V2000
  -27.7694  -14.1932   -3.5677 C   0  0  1  0  0  0  0  0  0  0  0  0
  -25.9813  -14.4739   -5.3327 C   0  0  1  0  0  0  0  0  0  0  0  0
  -24.7343  -14.4459   -4.3421 C   0  0  1  0  0  0  0  0  0  0  0  0
  -23.4472  -14.0261   -5.1861 C   0  0  2  0  0  0  0  0  0  0  0  0
  -29.0958  -14.9311   -3.1362 C   0  0  1  0  0  0  0  0  0  0  0  0
  -30.0716  -14.8926   -4.3290 C   0  0  2  0  0  0  0  0  0  0  0  0
  -30.4232  -13.4419   -4.7035 C   0  0  2  0  0  0  0  0  0  0  0  0
  -29.1391  -12.6328   -5.1144 C   0  0  1  0  0  0  0  0  0  0  0  0
  -29.4821  -11.1507   -5.4405 C   0  0  0  0  0  0  0  0  0  0  0  0
  -23.1732  -15.1389   -6.3213 C   0  0  1  0  0  0  0  0  0  0  0  0
  -24.4522  -15.1398   -7.2999 C   0  0  0  0  0  0  0  0  0  0  0  0
  -25.7642  -15.5206   -6.4714 C   0  0  2  0  0  0  0  0  0  0  0  0
  -31.0665  -12.7714   -3.5678 F   0  0  0  0  0  0  0  0  0  0  0  0
  -28.7316  -16.3495   -2.7504 N   0  0  0  0  0  0  0  0  0  0  0  0
  -28.4208  -10.4056   -6.0037 N   0  0  0  0  0  0  0  0  0  0  0  0
  -21.9766  -14.7777   -7.1559 N   0  0  0  0  0  0  0  0  0  0  0  0
  -26.9335  -15.5179   -7.3743 N   0  0  0  0  0  0  0  0  0  0  0  0
  -27.1552  -14.8527   -4.6302 O   0  0  0  0  0  0  0  0  0  0  0  0
  -25.0020  -13.4259   -3.3007 O   0  0  0  0  0  0  0  0  0  0  0  0
  -22.3717  -13.9997   -4.2952 O   0  0  0  0  0  0  0  0  0  0  0  0
  -31.0385  -15.4290   -4.0115 O   0  0  0  0  0  0  0  0  0  0  0  0
  -28.1424  -12.7627   -3.9483 O   0  0  0  0  0  0  0  0  0  0  0  0
  1  5  1  0  0  0  0
  1 18  1  6  0  0  0
  2 18  1  1  0  0  0
  2  3  1  0  0  0  0
  2 12  1  0  0  0  0
  3 19  1  1  0  0  0
  3  4  1  0  0  0  0
  4 20  1  1  0  0  0
  4 10  1  0  0  0  0
  5  6  1  0  0  0  0
  5 14  1  6  0  0  0
  6 21  1  1  0  0  0
  7 13  1  1  0  0  0
  7  6  1  0  0  0  0
  8  9  1  1  0  0  0
  8  7  1  0  0  0  0
 10 16  1  6  0  0  0
 11 10  1  0  0  0  0
 12 17  1  6  0  0  0
 12 11  1  0  0  0  0
 15  9  1  0  0  0  0
 22  8  1  0  0  0  0
 22  1  1  0  0  0  0
M  END
>  <CHROM.1>
177.20830772,61.80738083,-171.24349791,-27.07449746,-14.07356951,-4.87468054
3.06877530,0.28479127,-0.31182248

>  <Name>
lig.pdb

>  <RI>
0

>  <Rbt.Current_Directory>
/home/itssahil/PROJECTS/Mol_Feturizer/New_Systems/rnas/5bws

>  <Rbt.Executable>
rbdock ($Id: //depot/dev/client3/rdock/2013.1/src/exe/rbdock.cxx#4 $)

>  <Rbt.Library>
libRbt.so (2013.1, Build901 2013/11/27)

>  <Rbt.Parameter_File>
/export/apps/rDock/src/rDock_2013.1_src/data/scripts/dock_solv.prm

>  <Rbt.Receptor>
prm/blind_docking_100.prm

>  <SCORE>
-5.76165

>  <SCORE.INTER>
-2.40106

>  <SCORE.INTER.CONST>
1

>  <SCORE.INTER.POLAR>
0

>  <SCORE.INTER.ROT>
3

>  <SCORE.INTER.SOLV>
14.8959

>  <SCORE.INTER.VDW>
-12.166

>  <SCORE.INTER.norm>
-0.109139

>  <SCORE.INTRA>
-3.36059

>  <SCORE.INTRA.DIHEDRAL>
-5.77869

>  <SCORE.INTRA.DIHEDRAL.0>
6.10773

>  <SCORE.INTRA.POLAR>
0

>  <SCORE.INTRA.POLAR.0>
0

>  <SCORE.INTRA.REPUL>
0

>  <SCORE.INTRA.REPUL.0>
0

>  <SCORE.INTRA.SOLV>
-1.69958

>  <SCORE.INTRA.SOLV.lig_0>
-71.4024

>  <SCORE.INTRA.VDW>
0.378538

>  <SCORE.INTRA.VDW.0>
-1.86213

>  <SCORE.INTRA.norm>
-0.152754

>  <SCORE.RESTR>
0

>  <SCORE.RESTR.CAVITY>
0

>  <SCORE.RESTR.norm>
0

>  <SCORE.SYSTEM>
0

>  <SCORE.SYSTEM.CONST>
0

>  <SCORE.SYSTEM.DIHEDRAL>
0

>  <SCORE.SYSTEM.SOLV>
0

>  <SCORE.SYSTEM.norm>
0

>  <SCORE.heavy>
22

>  <SCORE.norm>
-0.261893

>  <RMSD>
26.193

$$$$
lig.pdb
 OpenBabel11021811523D
libRbt.so/2013.1/901 2013/11/27
 22 23  0  0  0  0  0  0  0  0999 V2000
  -27.2583  -13.7085   -3.9202 C   0  0  1  0  0  0  0  0  0  0  0  0
  -26.2246  -14.6399   -6.0309 C   0  0  1  0  0  0  0  0  0  0  0  0
  -24.7959  -14.9225   -5.3858 C   0  0  1  0  0  0  0  0  0  0  0  0
  -23.7304  -15.0029   -6.5705 C   0  0  2  0  0  0  0  0  0  0  0  0
  -28.4877  -14.0433   -2.9892 C   0  0  1  0  0  0  0  0  0  0  0  0
  -29.7769  -13.8192   -3.8040 C   0  0  2  0  0  0  0  0  0  0  0  0
  -29.8939  -12.3519   -4.2533 C   0  0  2  0  0  0  0  0  0  0  0  0
  -28.6798  -11.9363   -5.1619 C   0  0  1  0  0  0  0  0  0  0  0  0
  -28.7650  -10.4381   -5.5730 C   0  0  0  0  0  0  0  0  0  0  0  0
  -24.1075  -16.2373   -7.5381 C   0  0  1  0  0  0  0  0  0  0  0  0
  -25.5546  -15.9179   -8.1685 C   0  0  0  0  0  0  0  0  0  0  0  0
  -26.6364  -15.7941   -6.9992 C   0  0  2  0  0  0  0  0  0  0  0  0
  -29.9372  -11.4695   -3.0817 F   0  0  0  0  0  0  0  0  0  0  0  0
  -28.3479  -15.4821   -2.5380 N   0  0  0  0  0  0  0  0  0  0  0  0
  -27.7318   -9.9983   -6.4318 N   0  0  0  0  0  0  0  0  0  0  0  0
  -23.1391  -16.3437   -8.6824 N   0  0  0  0  0  0  0  0  0  0  0  0
  -27.9606  -15.4995   -7.5840 N   0  0  0  0  0  0  0  0  0  0  0  0
  -27.2140  -14.5684   -5.0155 O   0  0  0  0  0  0  0  0  0  0  0  0
  -24.4653  -13.7859   -4.4942 O   0  0  0  0  0  0  0  0  0  0  0  0
  -22.4875  -15.2415   -5.9795 O   0  0  0  0  0  0  0  0  0  0  0  0
  -30.6717  -14.0616   -3.1228 O   0  0  0  0  0  0  0  0  0  0  0  0
  -27.4015  -12.2555   -4.3654 O   0  0  0  0  0  0  0  0  0  0  0  0
  1  5  1  0  0  0  0
  1 18  1  6  0  0  0
  2 18  1  1  0  0  0
  2  3  1  0  0  0  0
  2 12  1  0  0  0  0
  3 19  1  1  0  0  0
  3  4  1  0  0  0  0
  4 20  1  1  0  0  0
  4 10  1  0  0  0  0
  5  6  1  0  0  0  0
  5 14  1  6  0  0  0
  6 21  1  1  0  0  0
  7 13  1  1  0  0  0
  7  6  1  0  0  0  0
  8  9  1  1  0  0  0
  8  7  1  0  0  0  0
 10 16  1  6  0  0  0
 11 10  1  0  0  0  0
 12 17  1  6  0  0  0
 12 11  1  0  0  0  0
 15  9  1  0  0  0  0
 22  8  1  0  0  0  0
 22  1  1  0  0  0  0
M  END
>  <CHROM.1>
-176.01213955,57.97290332,-177.86091909,-26.99779829,-13.92972065,-5.29226228
2.86247589,0.66043488,-0.34106871

>  <Name>
lig.pdb

>  <RI>
0

>  <Rbt.Current_Directory>
/home/itssahil/PROJECTS/Mol_Feturizer/New_Systems/rnas/5bws

>  <Rbt.Executable>
rbdock ($Id: //depot/dev/client3/rdock/2013.1/src/exe/rbdock.cxx#4 $)

>  <Rbt.Library>
libRbt.so (2013.1, Build901 2013/11/27)

>  <Rbt.Parameter_File>
/export/apps/rDock/src/rDock_2013.1_src/data/scripts/dock_solv.prm

>  <Rbt.Receptor>
prm/blind_docking_80.prm

>  <SCORE>
-5.12013

>  <SCORE.INTER>
-1.75712

>  <SCORE.INTER.CONST>
1

>  <SCORE.INTER.POLAR>
0

>  <SCORE.INTER.ROT>
3

>  <SCORE.INTER.SOLV>
14.9889

>  <SCORE.INTER.VDW>
-11.7677

>  <SCORE.INTER.norm>
-0.0798693

>  <SCORE.INTRA>
-3.363

>  <SCORE.INTRA.DIHEDRAL>
-5.99027

>  <SCORE.INTRA.DIHEDRAL.0>
6.10773

>  <SCORE.INTRA.POLAR>
0

>  <SCORE.INTRA.POLAR.0>
0

>  <SCORE.INTRA.REPUL>
0

>  <SCORE.INTRA.REPUL.0>
0

>  <SCORE.INTRA.SOLV>
-1.74062

>  <SCORE.INTRA.SOLV.lig_0>
-71.4024

>  <SCORE.INTRA.VDW>
0.502444

>  <SCORE.INTRA.VDW.0>
-1.86213

>  <SCORE.INTRA.norm>
-0.152864

>  <SCORE.RESTR>
0

>  <SCORE.RESTR.CAVITY>
0

>  <SCORE.RESTR.norm>
0

>  <SCORE.SYSTEM>
0

>  <SCORE.SYSTEM.CONST>
0

>  <SCORE.SYSTEM.DIHEDRAL>
0

>  <SCORE.SYSTEM.SOLV>
0

>  <SCORE.SYSTEM.norm>
0

>  <SCORE.heavy>
22

>  <SCORE.norm>
-0.232733

>  <RMSD>
26.311

$$$$
lig.pdb
 OpenBabel11021811523D
libRbt.so/2013.1/901 2013/11/27
 22 23  0  0  0  0  0  0  0  0999 V2000
  -28.9314  -14.1072   -4.5821 C   0  0  1  0  0  0  0  0  0  0  0  0
  -26.4497  -14.1117   -5.0643 C   0  0  1  0  0  0  0  0  0  0  0  0
  -25.1391  -14.1812   -4.1618 C   0  0  1  0  0  0  0  0  0  0  0  0
  -23.8827  -13.8808   -5.0981 C   0  0  2  0  0  0  0  0  0  0  0  0
  -29.2754  -12.5943   -4.2944 C   0  0  1  0  0  0  0  0  0  0  0  0
  -29.0857  -12.3415   -2.7857 C   0  0  2  0  0  0  0  0  0  0  0  0
  -30.0387  -13.2217   -1.9578 C   0  0  2  0  0  0  0  0  0  0  0  0
  -29.7747  -14.7494   -2.2200 C   0  0  1  0  0  0  0  0  0  0  0  0
  -30.7724  -15.6422   -1.4275 C   0  0  0  0  0  0  0  0  0  0  0  0
  -23.7833  -15.0234   -6.2324 C   0  0  1  0  0  0  0  0  0  0  0  0
  -25.1227  -14.9240   -7.1212 C   0  0  0  0  0  0  0  0  0  0  0  0
  -26.4016  -15.1835   -6.1993 C   0  0  2  0  0  0  0  0  0  0  0  0
  -31.4320  -12.9128   -2.2989 F   0  0  0  0  0  0  0  0  0  0  0  0
  -28.3452  -11.7411   -5.1312 N   0  0  0  0  0  0  0  0  0  0  0  0
  -30.5868  -17.0336   -1.5954 N   0  0  0  0  0  0  0  0  0  0  0  0
  -22.6213  -14.7736   -7.1522 N   0  0  0  0  0  0  0  0  0  0  0  0
  -27.6262  -15.0892   -7.0200 N   0  0  0  0  0  0  0  0  0  0  0  0
  -27.5999  -14.3821   -4.2776 O   0  0  0  0  0  0  0  0  0  0  0  0
  -25.2466  -13.1325   -3.1201 O   0  0  0  0  0  0  0  0  0  0  0  0
  -22.7497  -13.9383   -4.2832 O   0  0  0  0  0  0  0  0  0  0  0  0
  -29.3392  -11.2387   -2.5779 O   0  0  0  0  0  0  0  0  0  0  0  0
  -29.8769  -14.9613   -3.7414 O   0  0  0  0  0  0  0  0  0  0  0  0
  1  5  1  0  0  0  0
  1 18  1  1  0  0  0
  2 18  1  1  0  0  0
  2  3  1  0  0  0  0
  2 12  1  0  0  0  0
  3 19  1  1  0  0  0
  3  4  1  0  0  0  0
  4 20  1  1  0  0  0
  4 10  1  0  0  0  0
  5  6  1  0  0  0  0
  5 14  1  6  0  0  0
  6 21  1  6  0  0  0
  7 13  1  6  0  0  0
  7  6  1  0  0  0  0
  8  9  1  1  0  0  0
  8  7  1  0  0  0  0
 10 16  1  6  0  0  0
 11 10  1  0  0  0  0
 12 17  1  6  0  0  0
 12 11  1  0  0  0  0
 15  9  1  0  0  0  0
 22  8  1  0  0  0  0
 22  1  1  0  0  0  0
M  END
>  <CHROM.1>
-80.20457833,162.81027509,-179.10613249,-27.51158139,-14.02187084,-4.14617954
2.92333339,0.46067945,0.31168399

>  <Name>
lig.pdb

>  <RI>
0

>  <Rbt.Current_Directory>
/home/itssahil/PROJECTS/Mol_Feturizer/New_Systems/rnas/5bws

>  <Rbt.Executable>
rbdock ($Id: //depot/dev/client3/rdock/2013.1/src/exe/rbdock.cxx#4 $)

>  <Rbt.Library>
libRbt.so (2013.1, Build901 2013/11/27)

>  <Rbt.Parameter_File>
/export/apps/rDock/src/rDock_2013.1_src/data/scripts/dock_solv.prm

>  <Rbt.Receptor>
prm/blind_docking_80.prm

>  <SCORE>
-6.7735

>  <SCORE.INTER>
-6.26798

>  <SCORE.INTER.CONST>
1

>  <SCORE.INTER.POLAR>
0

>  <SCORE.INTER.ROT>
3

>  <SCORE.INTER.SOLV>
13.313

>  <SCORE.INTER.VDW>
-14.2163

>  <SCORE.INTER.norm>
-0.284908

>  <SCORE.INTRA>
-0.506196

>  <SCORE.INTRA.DIHEDRAL>
-2.90741

>  <SCORE.INTRA.DIHEDRAL.0>
6.10773

>  <SCORE.INTRA.POLAR>
0

>  <SCORE.INTRA.POLAR.0>
0

>  <SCORE.INTRA.REPUL>
0

>  <SCORE.INTRA.REPUL.0>
0

>  <SCORE.INTRA.SOLV>
1.30139

>  <SCORE.INTRA.SOLV.lig_0>
-71.4024

>  <SCORE.INTRA.VDW>
0.29681

>  <SCORE.INTRA.VDW.0>
-1.86213

>  <SCORE.INTRA.norm>
-0.0230089

>  <SCORE.RESTR>
0.000670542

>  <SCORE.RESTR.CAVITY>
0.000670542

>  <SCORE.RESTR.norm>
3.04792e-05

>  <SCORE.SYSTEM>
0

>  <SCORE.SYSTEM.CONST>
0

>  <SCORE.SYSTEM.DIHEDRAL>
0

>  <SCORE.SYSTEM.SOLV>
0

>  <SCORE.SYSTEM.norm>
0

>  <SCORE.heavy>
22

>  <SCORE.norm>
-0.307887

>  <RMSD>
26.436

$$$$
lig.pdb
 OpenBabel11021811523D
libRbt.so/2013.1/901 2013/11/27
 22 23  0  0  0  0  0  0  0  0999 V2000
  -25.6839  -11.9773   -8.8615 C   0  0  1  0  0  0  0  0  0  0  0  0
  -27.3330  -13.6428   -7.9139 C   0  0  1  0  0  0  0  0  0  0  0  0
  -28.1057  -13.9849   -9.2641 C   0  0  1  0  0  0  0  0  0  0  0  0
  -29.5518  -14.5354   -8.8753 C   0  0  2  0  0  0  0  0  0  0  0  0
  -24.1362  -11.6967   -8.7356 C   0  0  1  0  0  0  0  0  0  0  0  0
  -23.8067  -11.5074   -7.2416 C   0  0  2  0  0  0  0  0  0  0  0  0
  -24.5672  -10.3022   -6.6605 C   0  0  2  0  0  0  0  0  0  0  0  0
  -26.1225  -10.4979   -6.7825 C   0  0  1  0  0  0  0  0  0  0  0  0
  -26.8945   -9.2579   -6.2468 C   0  0  0  0  0  0  0  0  0  0  0  0
  -29.3884  -15.8943   -8.0215 C   0  0  1  0  0  0  0  0  0  0  0  0
  -28.6033  -15.5103   -6.6688 C   0  0  0  0  0  0  0  0  0  0  0  0
  -27.1635  -14.9197   -7.0306 C   0  0  2  0  0  0  0  0  0  0  0  0
  -24.1834   -9.0763   -7.3698 F   0  0  0  0  0  0  0  0  0  0  0  0
  -23.4017  -12.8801   -9.3302 N   0  0  0  0  0  0  0  0  0  0  0  0
  -28.3028   -9.3783   -6.2728 N   0  0  0  0  0  0  0  0  0  0  0  0
  -30.7274  -16.4434   -7.6163 N   0  0  0  0  0  0  0  0  0  0  0  0
  -26.4496  -14.5682   -5.7860 N   0  0  0  0  0  0  0  0  0  0  0  0
  -26.0318  -13.1561   -8.2053 O   0  0  0  0  0  0  0  0  0  0  0  0
  -28.2422  -12.7307  -10.0417 O   0  0  0  0  0  0  0  0  0  0  0  0
  -30.2111  -14.8186  -10.0737 O   0  0  0  0  0  0  0  0  0  0  0  0
  -22.6785  -11.3007   -7.1524 O   0  0  0  0  0  0  0  0  0  0  0  0
  -26.4181  -10.7782   -8.2672 O   0  0  0  0  0  0  0  0  0  0  0  0
  1  5  1  0  0  0  0
  1 18  1  1  0  0  0
  2 18  1  6  0  0  0
  2  3  1  0  0  0  0
  2 12  1  0  0  0  0
  3 19  1  6  0  0  0
  3  4  1  0  0  0  0
  4 20  1  6  0  0  0
  4 10  1  0  0  0  0
  5  6  1  0  0  0  0
  5 14  1  1  0  0  0
  6 21  1  6  0  0  0
  7 13  1  6  0  0  0
  7  6  1  0  0  0  0
  8  9  1  6  0  0  0
  8  7  1  0  0  0  0
 10 16  1  1  0  0  0
 11 10  1  0  0  0  0
 12 17  1  1  0  0  0
 12 11  1  0  0  0  0
 15  9  1  0  0  0  0
 22  8  1  0  0  0  0
 22  1  1  0  0  0  0
M  END
>  <CHROM.1>
169.46041862,65.35892643,-177.59187756,-26.69113263,-12.60723100,-7.85534270
-0.78170737,-0.07664674,-2.86349539

>  <Name>
lig.pdb

>  <RI>
0

>  <Rbt.Current_Directory>
/home/itssahil/PROJECTS/Mol_Feturizer/New_Systems/rnas/5bws

>  <Rbt.Executable>
rbdock ($Id: //depot/dev/client3/rdock/2013.1/src/exe/rbdock.cxx#4 $)

>  <Rbt.Library>
libRbt.so (2013.1, Build901 2013/11/27)

>  <Rbt.Parameter_File>
/export/apps/rDock/src/rDock_2013.1_src/data/scripts/dock_solv.prm

>  <Rbt.Receptor>
prm/blind_docking_100.prm

>  <SCORE>
-4.81587

>  <SCORE.INTER>
-1.62656

>  <SCORE.INTER.CONST>
1

>  <SCORE.INTER.POLAR>
0

>  <SCORE.INTER.ROT>
3

>  <SCORE.INTER.SOLV>
15.799

>  <SCORE.INTER.VDW>
-11.9507

>  <SCORE.INTER.norm>
-0.0739343

>  <SCORE.INTRA>
-3.18932

>  <SCORE.INTRA.DIHEDRAL>
-5.40927

>  <SCORE.INTRA.DIHEDRAL.0>
6.10773

>  <SCORE.INTRA.POLAR>
0

>  <SCORE.INTRA.POLAR.0>
0

>  <SCORE.INTRA.REPUL>
0

>  <SCORE.INTRA.REPUL.0>
0

>  <SCORE.INTRA.SOLV>
-1.48026

>  <SCORE.INTRA.SOLV.lig_0>
-71.4024

>  <SCORE.INTRA.VDW>
0.255453

>  <SCORE.INTRA.VDW.0>
-1.86213

>  <SCORE.INTRA.norm>
-0.144969

>  <SCORE.RESTR>
0

>  <SCORE.RESTR.CAVITY>
0

>  <SCORE.RESTR.norm>
0

>  <SCORE.SYSTEM>
0

>  <SCORE.SYSTEM.CONST>
0

>  <SCORE.SYSTEM.DIHEDRAL>
0

>  <SCORE.SYSTEM.SOLV>
0

>  <SCORE.SYSTEM.norm>
0

>  <SCORE.heavy>
22

>  <SCORE.norm>
-0.218903

>  <RMSD>
26.449

$$$$
lig.pdb
 OpenBabel11021811523D
libRbt.so/2013.1/901 2013/11/27
 22 23  0  0  0  0  0  0  0  0999 V2000
  -27.8731  -14.2194   -3.5767 C   0  0  1  0  0  0  0  0  0  0  0  0
  -26.1435  -14.4880   -5.4009 C   0  0  1  0  0  0  0  0  0  0  0  0
  -24.8606  -14.4827   -4.4569 C   0  0  1  0  0  0  0  0  0  0  0  0
  -23.6033  -14.0551   -5.3409 C   0  0  2  0  0  0  0  0  0  0  0  0
  -29.1568  -14.9882   -3.0756 C   0  0  1  0  0  0  0  0  0  0  0  0
  -30.1892  -14.9876   -4.2204 C   0  0  2  0  0  0  0  0  0  0  0  0
  -30.5976  -13.5506   -4.5901 C   0  0  2  0  0  0  0  0  0  0  0  0
  -29.3571  -12.7116   -5.0691 C   0  0  1  0  0  0  0  0  0  0  0  0
  -29.7554  -11.2424   -5.3911 C   0  0  0  0  0  0  0  0  0  0  0  0
  -23.3775  -15.1501   -6.5038 C   0  0  1  0  0  0  0  0  0  0  0  0
  -24.6918  -15.1283   -7.4342 C   0  0  0  0  0  0  0  0  0  0  0  0
  -25.9745  -15.5165   -6.5641 C   0  0  2  0  0  0  0  0  0  0  0  0
  -31.2038  -12.8863   -3.4305 F   0  0  0  0  0  0  0  0  0  0  0  0
  -28.7361  -16.3924   -2.6956 N   0  0  0  0  0  0  0  0  0  0  0  0
  -30.6709  -11.0956   -6.4583 N   0  0  0  0  0  0  0  0  0  0  0  0
  -22.2107  -14.7808   -7.3760 N   0  0  0  0  0  0  0  0  0  0  0  0
  -27.1762  -15.4929   -7.4228 N   0  0  0  0  0  0  0  0  0  0  0  0
  -27.2927  -14.8728   -4.6618 O   0  0  0  0  0  0  0  0  0  0  0  0
  -25.0840  -13.4791   -3.3895 O   0  0  0  0  0  0  0  0  0  0  0  0
  -22.4955  -14.0490   -4.4901 O   0  0  0  0  0  0  0  0  0  0  0  0
  -31.1249  -15.5464   -3.8522 O   0  0  0  0  0  0  0  0  0  0  0  0
  -28.3026  -12.8033   -3.9512 O   0  0  0  0  0  0  0  0  0  0  0  0
  1  5  1  0  0  0  0
  1 18  1  6  0  0  0
  2 18  1  1  0  0  0
  2  3  1  0  0  0  0
  2 12  1  0  0  0  0
  3 19  1  1  0  0  0
  3  4  1  0  0  0  0
  4 20  1  1  0  0  0
  4 10  1  0  0  0  0
  5  6  1  0  0  0  0
  5 14  1  6  0  0  0
  6 21  1  1  0  0  0
  7 13  1  1  0  0  0
  7  6  1  0  0  0  0
  8  9  1  1  0  0  0
  8  7  1  0  0  0  0
 10 16  1  6  0  0  0
 11 10  1  0  0  0  0
 12 17  1  6  0  0  0
 12 11  1  0  0  0  0
 15  9  1  0  0  0  0
 22  8  1  0  0  0  0
 22  1  1  0  0  0  0
M  END
>  <CHROM.1>
179.03275129,62.66675213,-63.36326205,-27.32178458,-14.14907276,-4.92037267
-3.08230542,0.29370156,-0.79624294

>  <Name>
lig.pdb

>  <RI>
0

>  <Rbt.Current_Directory>
/home/itssahil/PROJECTS/Mol_Feturizer/New_Systems/rnas/5bws

>  <Rbt.Executable>
rbdock ($Id: //depot/dev/client3/rdock/2013.1/src/exe/rbdock.cxx#4 $)

>  <Rbt.Library>
libRbt.so (2013.1, Build901 2013/11/27)

>  <Rbt.Parameter_File>
/export/apps/rDock/src/rDock_2013.1_src/data/scripts/dock_solv.prm

>  <Rbt.Receptor>
prm/blind_docking_60.prm

>  <SCORE>
-4.63143

>  <SCORE.INTER>
-1.46971

>  <SCORE.INTER.CONST>
1

>  <SCORE.INTER.POLAR>
0

>  <SCORE.INTER.ROT>
3

>  <SCORE.INTER.SOLV>
16.1023

>  <SCORE.INTER.VDW>
-11.9472

>  <SCORE.INTER.norm>
-0.0668051

>  <SCORE.INTRA>
-3.16172

>  <SCORE.INTRA.DIHEDRAL>
-6.0243

>  <SCORE.INTRA.DIHEDRAL.0>
6.10773

>  <SCORE.INTRA.POLAR>
0

>  <SCORE.INTRA.POLAR.0>
0

>  <SCORE.INTRA.REPUL>
0

>  <SCORE.INTRA.REPUL.0>
0

>  <SCORE.INTRA.SOLV>
-1.12635

>  <SCORE.INTRA.SOLV.lig_0>
-71.4024

>  <SCORE.INTRA.VDW>
0.413603

>  <SCORE.INTRA.VDW.0>
-1.86213

>  <SCORE.INTRA.norm>
-0.143715

>  <SCORE.RESTR>
0

>  <SCORE.RESTR.CAVITY>
0

>  <SCORE.RESTR.norm>
0

>  <SCORE.SYSTEM>
0

>  <SCORE.SYSTEM.CONST>
0

>  <SCORE.SYSTEM.DIHEDRAL>
0

>  <SCORE.SYSTEM.SOLV>
0

>  <SCORE.SYSTEM.norm>
0

>  <SCORE.heavy>
22

>  <SCORE.norm>
-0.21052

>  <RMSD>
26.458

$$$$
lig.pdb
 OpenBabel11021811523D
libRbt.so/2013.1/901 2013/11/27
 22 23  0  0  0  0  0  0  0  0999 V2000
  -25.8595  -11.7568   -8.7685 C   0  0  1  0  0  0  0  0  0  0  0  0
  -27.4342  -13.5011   -7.8363 C   0  0  1  0  0  0  0  0  0  0  0  0
  -28.1252  -13.9427   -9.2018 C   0  0  1  0  0  0  0  0  0  0  0  0
  -29.5474  -14.5739   -8.8496 C   0  0  2  0  0  0  0  0  0  0  0  0
  -24.3314  -11.3916   -8.6215 C   0  0  1  0  0  0  0  0  0  0  0  0
  -24.0399  -11.1558   -7.1263 C   0  0  2  0  0  0  0  0  0  0  0  0
  -24.8738   -9.9818   -6.5833 C   0  0  2  0  0  0  0  0  0  0  0  0
  -26.4140  -10.2626   -6.7281 C   0  0  1  0  0  0  0  0  0  0  0  0
  -27.2604   -9.0552   -6.2314 C   0  0  0  0  0  0  0  0  0  0  0  0
  -29.3321  -15.8871   -7.9378 C   0  0  1  0  0  0  0  0  0  0  0  0
  -28.6315  -15.4029   -6.5709 C   0  0  0  0  0  0  0  0  0  0  0  0
  -27.2193  -14.7309   -6.8979 C   0  0  2  0  0  0  0  0  0  0  0  0
  -24.5426   -8.7512   -7.3108 F   0  0  0  0  0  0  0  0  0  0  0  0
  -23.5243  -12.5454   -9.1789 N   0  0  0  0  0  0  0  0  0  0  0  0
  -28.6578   -9.2079   -6.3814 N   0  0  0  0  0  0  0  0  0  0  0  0
  -30.6484  -16.5093   -7.5651 N   0  0  0  0  0  0  0  0  0  0  0  0
  -26.5831  -14.2877   -5.6405 N   0  0  0  0  0  0  0  0  0  0  0  0
  -26.1563  -12.9394   -8.0943 O   0  0  0  0  0  0  0  0  0  0  0  0
  -28.3102  -12.7294  -10.0324 O   0  0  0  0  0  0  0  0  0  0  0  0
  -30.1357  -14.9437  -10.0613 O   0  0  0  0  0  0  0  0  0  0  0  0
  -22.9261  -10.8875   -7.0218 O   0  0  0  0  0  0  0  0  0  0  0  0
  -26.6670  -10.5871   -8.2117 O   0  0  0  0  0  0  0  0  0  0  0  0
  1  5  1  0  0  0  0
  1 18  1  1  0  0  0
  2 18  1  6  0  0  0
  2  3  1  0  0  0  0
  2 12  1  0  0  0  0
  3 19  1  6  0  0  0
  3  4  1  0  0  0  0
  4 20  1  6  0  0  0
  4 10  1  0  0  0  0
  5  6  1  0  0  0  0
  5 14  1  1  0  0  0
  6 21  1  6  0  0  0
  7 13  1  6  0  0  0
  7  6  1  0  0  0  0
  8  9  1  6  0  0  0
  8  7  1  0  0  0  0
 10 16  1  1  0  0  0
 11 10  1  0  0  0  0
 12 17  1  1  0  0  0
 12 11  1  0  0  0  0
 15  9  1  0  0  0  0
 22  8  1  0  0  0  0
 22  1  1  0  0  0  0
M  END
>  <CHROM.1>
170.68002197,66.15684772,177.46084735,-26.84046753,-12.43211162,-7.78495675
-0.84899772,-0.07985115,-2.87695842

>  <Name>
lig.pdb

>  <RI>
0

>  <Rbt.Current_Directory>
/home/itssahil/PROJECTS/Mol_Feturizer/New_Systems/rnas/5bws

>  <Rbt.Executable>
rbdock ($Id: //depot/dev/client3/rdock/2013.1/src/exe/rbdock.cxx#4 $)

>  <Rbt.Library>
libRbt.so (2013.1, Build901 2013/11/27)

>  <Rbt.Parameter_File>
/export/apps/rDock/src/rDock_2013.1_src/data/scripts/dock_solv.prm

>  <Rbt.Receptor>
prm/blind_docking_40.prm

>  <SCORE>
-4.9506

>  <SCORE.INTER>
-1.75724

>  <SCORE.INTER.CONST>
1

>  <SCORE.INTER.POLAR>
0

>  <SCORE.INTER.ROT>
3

>  <SCORE.INTER.SOLV>
15.8617

>  <SCORE.INTER.VDW>
-12.0587

>  <SCORE.INTER.norm>
-0.0798743

>  <SCORE.INTRA>
-3.19337

>  <SCORE.INTRA.DIHEDRAL>
-5.47604

>  <SCORE.INTRA.DIHEDRAL.0>
6.10773

>  <SCORE.INTRA.POLAR>
0

>  <SCORE.INTRA.POLAR.0>
0

>  <SCORE.INTRA.REPUL>
0

>  <SCORE.INTRA.REPUL.0>
0

>  <SCORE.INTRA.SOLV>
-1.39876

>  <SCORE.INTRA.SOLV.lig_0>
-71.4024

>  <SCORE.INTRA.VDW>
0.244034

>  <SCORE.INTRA.VDW.0>
-1.86213

>  <SCORE.INTRA.norm>
-0.145153

>  <SCORE.RESTR>
0

>  <SCORE.RESTR.CAVITY>
0

>  <SCORE.RESTR.norm>
0

>  <SCORE.SYSTEM>
0

>  <SCORE.SYSTEM.CONST>
0

>  <SCORE.SYSTEM.DIHEDRAL>
0

>  <SCORE.SYSTEM.SOLV>
0

>  <SCORE.SYSTEM.norm>
0

>  <SCORE.heavy>
22

>  <SCORE.norm>
-0.225027

>  <RMSD>
26.471

$$$$
lig.pdb
 OpenBabel11021811523D
libRbt.so/2013.1/901 2013/11/27
 22 23  0  0  0  0  0  0  0  0999 V2000
  -24.9213  -13.9784   -7.8802 C   0  0  1  0  0  0  0  0  0  0  0  0
  -27.4220  -14.2279   -8.1544 C   0  0  1  0  0  0  0  0  0  0  0  0
  -28.4001  -14.6871   -9.3247 C   0  0  1  0  0  0  0  0  0  0  0  0
  -29.8992  -14.5096   -8.8085 C   0  0  2  0  0  0  0  0  0  0  0  0
  -24.6043  -12.4560   -8.1485 C   0  0  1  0  0  0  0  0  0  0  0  0
  -24.3295  -12.2853   -9.6557 C   0  0  2  0  0  0  0  0  0  0  0  0
  -23.1102  -13.1185  -10.0888 C   0  0  2  0  0  0  0  0  0  0  0  0
  -23.3423  -14.6500   -9.8190 C   0  0  1  0  0  0  0  0  0  0  0  0
  -22.0908  -15.4904  -10.2039 C   0  0  0  0  0  0  0  0  0  0  0  0
  -30.1378  -15.4719   -7.5359 C   0  0  1  0  0  0  0  0  0  0  0  0
  -29.1331  -14.9799   -6.3773 C   0  0  0  0  0  0  0  0  0  0  0  0
  -27.6229  -15.1113   -6.8821 C   0  0  2  0  0  0  0  0  0  0  0  0
  -21.9164  -12.6805   -9.3564 F   0  0  0  0  0  0  0  0  0  0  0  0
  -25.8031  -11.6476   -7.6981 N   0  0  0  0  0  0  0  0  0  0  0  0
  -21.7370  -15.4366  -11.5716 N   0  0  0  0  0  0  0  0  0  0  0  0
  -31.5351  -15.3270   -7.0020 N   0  0  0  0  0  0  0  0  0  0  0  0
  -26.7071  -14.6570   -5.8157 N   0  0  0  0  0  0  0  0  0  0  0  0
  -26.0700  -14.3758   -8.5610 O   0  0  0  0  0  0  0  0  0  0  0  0
  -28.1656  -13.8009  -10.4891 O   0  0  0  0  0  0  0  0  0  0  0  0
  -30.7355  -14.9091   -9.8535 O   0  0  0  0  0  0  0  0  0  0  0  0
  -24.0965  -11.1754   -9.8486 O   0  0  0  0  0  0  0  0  0  0  0  0
  -23.7067  -14.7866   -8.3295 O   0  0  0  0  0  0  0  0  0  0  0  0
  1  5  1  0  0  0  0
  1 18  1  6  0  0  0
  2 18  1  6  0  0  0
  2  3  1  0  0  0  0
  2 12  1  0  0  0  0
  3 19  1  6  0  0  0
  3  4  1  0  0  0  0
  4 20  1  6  0  0  0
  4 10  1  0  0  0  0
  5  6  1  0  0  0  0
  5 14  1  6  0  0  0
  6 21  1  1  0  0  0
  7 13  1  1  0  0  0
  7  6  1  0  0  0  0
  8  9  1  1  0  0  0
  8  7  1  0  0  0  0
 10 16  1  1  0  0  0
 11 10  1  0  0  0  0
 12 17  1  1  0  0  0
 12 11  1  0  0  0  0
 15  9  1  0  0  0  0
 22  8  1  0  0  0  0
 22  1  1  0  0  0  0
M  END
>  <CHROM.1>
-83.70153348,173.84238065,-62.25644040,-26.09648108,-14.05033957,-8.73561515
-0.16817757,0.26580701,1.18607637

>  <Name>
lig.pdb

>  <RI>
0

>  <Rbt.Current_Directory>
/home/itssahil/PROJECTS/Mol_Feturizer/New_Systems/rnas/5bws

>  <Rbt.Executable>
rbdock ($Id: //depot/dev/client3/rdock/2013.1/src/exe/rbdock.cxx#4 $)

>  <Rbt.Library>
libRbt.so (2013.1, Build901 2013/11/27)

>  <Rbt.Parameter_File>
/export/apps/rDock/src/rDock_2013.1_src/data/scripts/dock_solv.prm

>  <Rbt.Receptor>
prm/blind_docking_40.prm

>  <SCORE>
-2.67428

>  <SCORE.INTER>
-2.60641

>  <SCORE.INTER.CONST>
1

>  <SCORE.INTER.POLAR>
0

>  <SCORE.INTER.ROT>
3

>  <SCORE.INTER.SOLV>
11.5475

>  <SCORE.INTER.VDW>
-11.1868

>  <SCORE.INTER.norm>
-0.118473

>  <SCORE.INTRA>
-0.0678772

>  <SCORE.INTRA.DIHEDRAL>
-3.46724

>  <SCORE.INTRA.DIHEDRAL.0>
6.10773

>  <SCORE.INTRA.POLAR>
0

>  <SCORE.INTRA.POLAR.0>
0

>  <SCORE.INTRA.REPUL>
0

>  <SCORE.INTRA.REPUL.0>
0

>  <SCORE.INTRA.SOLV>
1.96703

>  <SCORE.INTRA.SOLV.lig_0>
-71.4024

>  <SCORE.INTRA.VDW>
0.682229

>  <SCORE.INTRA.VDW.0>
-1.86213

>  <SCORE.INTRA.norm>
-0.00308533

>  <SCORE.RESTR>
0

>  <SCORE.RESTR.CAVITY>
0

>  <SCORE.RESTR.norm>
0

>  <SCORE.SYSTEM>
0

>  <SCORE.SYSTEM.CONST>
0

>  <SCORE.SYSTEM.DIHEDRAL>
0

>  <SCORE.SYSTEM.SOLV>
0

>  <SCORE.SYSTEM.norm>
0

>  <SCORE.heavy>
22

>  <SCORE.norm>
-0.121558

>  <RMSD>
26.757

$$$$
lig.pdb
 OpenBabel11021811523D
libRbt.so/2013.1/901 2013/11/27
 22 23  0  0  0  0  0  0  0  0999 V2000
  -29.6388  -13.2352   -6.3547 C   0  0  1  0  0  0  0  0  0  0  0  0
  -27.8324  -11.4913   -6.6493 C   0  0  1  0  0  0  0  0  0  0  0  0
  -28.7841  -10.2576   -6.3189 C   0  0  1  0  0  0  0  0  0  0  0  0
  -28.1149   -8.9447   -6.9303 C   0  0  2  0  0  0  0  0  0  0  0  0
  -29.8169  -14.5988   -5.5809 C   0  0  1  0  0  0  0  0  0  0  0  0
  -28.7713  -15.5936   -6.1225 C   0  0  2  0  0  0  0  0  0  0  0  0
  -28.9889  -15.8554   -7.6233 C   0  0  2  0  0  0  0  0  0  0  0  0
  -28.8587  -14.5288   -8.4573 C   0  0  1  0  0  0  0  0  0  0  0  0
  -29.1327  -14.7789   -9.9683 C   0  0  0  0  0  0  0  0  0  0  0  0
  -26.6898   -8.6962   -6.2167 C   0  0  1  0  0  0  0  0  0  0  0  0
  -25.7578   -9.9611   -6.5704 C   0  0  0  0  0  0  0  0  0  0  0  0
  -26.4244  -11.2972   -6.0019 C   0  0  2  0  0  0  0  0  0  0  0  0
  -30.3209  -16.4298   -7.8453 F   0  0  0  0  0  0  0  0  0  0  0  0
  -29.6213  -14.3220   -4.1049 N   0  0  0  0  0  0  0  0  0  0  0  0
  -29.0703  -13.6247  -10.7822 N   0  0  0  0  0  0  0  0  0  0  0  0
  -26.0111   -7.4761   -6.7730 N   0  0  0  0  0  0  0  0  0  0  0  0
  -25.5657  -12.4533   -6.3311 N   0  0  0  0  0  0  0  0  0  0  0  0
  -28.3800  -12.6877   -6.1166 O   0  0  0  0  0  0  0  0  0  0  0  0
  -30.0912  -10.5019   -6.9734 O   0  0  0  0  0  0  0  0  0  0  0  0
  -28.9712   -7.8812   -6.6360 O   0  0  0  0  0  0  0  0  0  0  0  0
  -28.9043  -16.5875   -5.5587 O   0  0  0  0  0  0  0  0  0  0  0  0
  -29.8442  -13.5198   -7.8403 O   0  0  0  0  0  0  0  0  0  0  0  0
  1  5  1  0  0  0  0
  1 18  1  6  0  0  0
  2 18  1  1  0  0  0
  2  3  1  0  0  0  0
  2 12  1  0  0  0  0
  3 19  1  6  0  0  0
  3  4  1  0  0  0  0
  4 20  1  1  0  0  0
  4 10  1  0  0  0  0
  5  6  1  0  0  0  0
  5 14  1  1  0  0  0
  6 21  1  1  0  0  0
  7 13  1  1  0  0  0
  7  6  1  0  0  0  0
  8  9  1  6  0  0  0
  8  7  1  0  0  0  0
 10 16  1  6  0  0  0
 11 10  1  0  0  0  0
 12 17  1  6  0  0  0
 12 11  1  0  0  0  0
 15  9  1  0  0  0  0
 22  8  1  0  0  0  0
 22  1  1  0  0  0  0
M  END
>  <CHROM.1>
178.59567186,56.15119173,178.36527757,-28.49275021,-12.54337536,-6.91318296
-2.55433874,-1.18215983,-0.83466994

>  <Name>
lig.pdb

>  <RI>
0

>  <Rbt.Current_Directory>
/home/itssahil/PROJECTS/Mol_Feturizer/New_Systems/rnas/5bws

>  <Rbt.Executable>
rbdock ($Id: //depot/dev/client3/rdock/2013.1/src/exe/rbdock.cxx#4 $)

>  <Rbt.Library>
libRbt.so (2013.1, Build901 2013/11/27)

>  <Rbt.Parameter_File>
/export/apps/rDock/src/rDock_2013.1_src/data/scripts/dock_solv.prm

>  <Rbt.Receptor>
prm/blind_docking_40.prm

>  <SCORE>
-4.25681

>  <SCORE.INTER>
-0.920298

>  <SCORE.INTER.CONST>
1

>  <SCORE.INTER.POLAR>
0

>  <SCORE.INTER.ROT>
3

>  <SCORE.INTER.SOLV>
20.1662

>  <SCORE.INTER.VDW>
-12.9356

>  <SCORE.INTER.norm>
-0.0418317

>  <SCORE.INTRA>
-3.33651

>  <SCORE.INTRA.DIHEDRAL>
-6.0127

>  <SCORE.INTRA.DIHEDRAL.0>
6.10773

>  <SCORE.INTRA.POLAR>
0

>  <SCORE.INTRA.POLAR.0>
0

>  <SCORE.INTRA.REPUL>
0

>  <SCORE.INTRA.REPUL.0>
0

>  <SCORE.INTRA.SOLV>
-1.69695

>  <SCORE.INTRA.SOLV.lig_0>
-71.4024

>  <SCORE.INTRA.VDW>
0.51832

>  <SCORE.INTRA.VDW.0>
-1.86213

>  <SCORE.INTRA.norm>
-0.151659

>  <SCORE.RESTR>
0

>  <SCORE.RESTR.CAVITY>
0

>  <SCORE.RESTR.norm>
0

>  <SCORE.SYSTEM>
0

>  <SCORE.SYSTEM.CONST>
0

>  <SCORE.SYSTEM.DIHEDRAL>
0

>  <SCORE.SYSTEM.SOLV>
0

>  <SCORE.SYSTEM.norm>
0

>  <SCORE.heavy>
22

>  <SCORE.norm>
-0.193491

>  <RMSD>
26.821

$$$$
lig.pdb
 OpenBabel11021811523D
libRbt.so/2013.1/901 2013/11/27
 22 23  0  0  0  0  0  0  0  0999 V2000
  -28.1526  -14.2332   -8.7947 C   0  0  1  0  0  0  0  0  0  0  0  0
  -27.2205  -12.2346   -7.5585 C   0  0  1  0  0  0  0  0  0  0  0  0
  -25.7280  -12.3960   -8.0909 C   0  0  1  0  0  0  0  0  0  0  0  0
  -24.7604  -11.6366   -7.0748 C   0  0  2  0  0  0  0  0  0  0  0  0
  -29.3918  -14.5460   -9.7203 C   0  0  1  0  0  0  0  0  0  0  0  0
  -30.6734  -14.2579   -8.9135 C   0  0  2  0  0  0  0  0  0  0  0  0
  -30.7548  -15.1630   -7.6715 C   0  0  2  0  0  0  0  0  0  0  0  0
  -29.5290  -14.9286   -6.7150 C   0  0  1  0  0  0  0  0  0  0  0  0
  -29.5781  -15.8808   -5.4855 C   0  0  0  0  0  0  0  0  0  0  0  0
  -25.1322  -10.0669   -7.0636 C   0  0  1  0  0  0  0  0  0  0  0  0
  -26.6443   -9.9438   -6.5234 C   0  0  0  0  0  0  0  0  0  0  0  0
  -27.6322  -10.7290   -7.5033 C   0  0  2  0  0  0  0  0  0  0  0  0
  -30.7803  -16.5728   -8.0777 F   0  0  0  0  0  0  0  0  0  0  0  0
  -29.2870  -13.6644  -10.9472 N   0  0  0  0  0  0  0  0  0  0  0  0
  -28.5941  -15.6313   -4.5015 N   0  0  0  0  0  0  0  0  0  0  0  0
  -24.2561   -9.3098   -6.1055 N   0  0  0  0  0  0  0  0  0  0  0  0
  -29.0167  -10.6136   -7.0013 N   0  0  0  0  0  0  0  0  0  0  0  0
  -28.1257  -12.8872   -8.4359 O   0  0  0  0  0  0  0  0  0  0  0  0
  -25.4021  -13.8417   -8.1034 O   0  0  0  0  0  0  0  0  0  0  0  0
  -23.4600  -11.8004   -7.5575 O   0  0  0  0  0  0  0  0  0  0  0  0
  -31.5753  -14.4887   -9.5893 O   0  0  0  0  0  0  0  0  0  0  0  0
  -28.2606  -15.1298   -7.5640 O   0  0  0  0  0  0  0  0  0  0  0  0
  1  5  1  0  0  0  0
  1 18  1  1  0  0  0
  2 18  1  6  0  0  0
  2  3  1  0  0  0  0
  2 12  1  0  0  0  0
  3 19  1  1  0  0  0
  3  4  1  0  0  0  0
  4 20  1  6  0  0  0
  4 10  1  0  0  0  0
  5  6  1  0  0  0  0
  5 14  1  6  0  0  0
  6 21  1  6  0  0  0
  7 13  1  6  0  0  0
  7  6  1  0  0  0  0
  8  9  1  1  0  0  0
  8  7  1  0  0  0  0
 10 16  1  1  0  0  0
 11 10  1  0  0  0  0
 12 17  1  1  0  0  0
 12 11  1  0  0  0  0
 15  9  1  0  0  0  0
 22  8  1  0  0  0  0
 22  1  1  0  0  0  0
M  END
>  <CHROM.1>
176.10443381,59.29094474,-173.21454738,-27.93589646,-13.25321071,-7.69870718
2.83184997,0.66995442,2.28621477

>  <Name>
lig.pdb

>  <RI>
0

>  <Rbt.Current_Directory>
/home/itssahil/PROJECTS/Mol_Feturizer/New_Systems/rnas/5bws

>  <Rbt.Executable>
rbdock ($Id: //depot/dev/client3/rdock/2013.1/src/exe/rbdock.cxx#4 $)

>  <Rbt.Library>
libRbt.so (2013.1, Build901 2013/11/27)

>  <Rbt.Parameter_File>
/export/apps/rDock/src/rDock_2013.1_src/data/scripts/dock_solv.prm

>  <Rbt.Receptor>
prm/blind_docking_40.prm

>  <SCORE>
-4.69038

>  <SCORE.INTER>
-1.33834

>  <SCORE.INTER.CONST>
1

>  <SCORE.INTER.POLAR>
0

>  <SCORE.INTER.ROT>
3

>  <SCORE.INTER.SOLV>
18.7159

>  <SCORE.INTER.VDW>
-12.7309

>  <SCORE.INTER.norm>
-0.0608336

>  <SCORE.INTRA>
-3.35204

>  <SCORE.INTRA.DIHEDRAL>
-5.86368

>  <SCORE.INTRA.DIHEDRAL.0>
6.10773

>  <SCORE.INTRA.POLAR>
0

>  <SCORE.INTRA.POLAR.0>
0

>  <SCORE.INTRA.REPUL>
0

>  <SCORE.INTRA.REPUL.0>
0

>  <SCORE.INTRA.SOLV>
-1.72502

>  <SCORE.INTRA.SOLV.lig_0>
-71.4024

>  <SCORE.INTRA.VDW>
0.442316

>  <SCORE.INTRA.VDW.0>
-1.86213

>  <SCORE.INTRA.norm>
-0.152365

>  <SCORE.RESTR>
0

>  <SCORE.RESTR.CAVITY>
0

>  <SCORE.RESTR.norm>
0

>  <SCORE.SYSTEM>
0

>  <SCORE.SYSTEM.CONST>
0

>  <SCORE.SYSTEM.DIHEDRAL>
0

>  <SCORE.SYSTEM.SOLV>
0

>  <SCORE.SYSTEM.norm>
0

>  <SCORE.heavy>
22

>  <SCORE.norm>
-0.213199

>  <RMSD>
27.011

$$$$
lig.pdb
 OpenBabel11021811523D
libRbt.so/2013.1/901 2013/11/27
 22 23  0  0  0  0  0  0  0  0999 V2000
  -27.8510  -14.8173   -9.2094 C   0  0  1  0  0  0  0  0  0  0  0  0
  -26.1750  -13.1979   -8.2297 C   0  0  1  0  0  0  0  0  0  0  0  0
  -25.0101  -13.5130   -9.2693 C   0  0  1  0  0  0  0  0  0  0  0  0
  -23.6275  -13.0776   -8.6029 C   0  0  2  0  0  0  0  0  0  0  0  0
  -29.2734  -14.7376   -9.8881 C   0  0  1  0  0  0  0  0  0  0  0  0
  -30.2810  -14.2537   -8.8265 C   0  0  2  0  0  0  0  0  0  0  0  0
  -30.3587  -15.2448   -7.6517 C   0  0  2  0  0  0  0  0  0  0  0  0
  -28.9627  -15.4007   -6.9451 C   0  0  1  0  0  0  0  0  0  0  0  0
  -29.0233  -16.4434   -5.7919 C   0  0  0  0  0  0  0  0  0  0  0  0
  -23.6505  -11.4884   -8.3273 C   0  0  1  0  0  0  0  0  0  0  0  0
  -24.8386  -11.2087   -7.2766 C   0  0  0  0  0  0  0  0  0  0  0  0
  -26.2331  -11.6715   -7.9044 C   0  0  2  0  0  0  0  0  0  0  0  0
  -30.8000  -16.5594   -8.1316 F   0  0  0  0  0  0  0  0  0  0  0  0
  -29.1764  -13.7762  -11.0541 N   0  0  0  0  0  0  0  0  0  0  0  0
  -29.8839  -16.0989   -4.7245 N   0  0  0  0  0  0  0  0  0  0  0  0
  -22.3719  -11.0321   -7.6825 N   0  0  0  0  0  0  0  0  0  0  0  0
  -27.3178  -11.4139   -6.9352 N   0  0  0  0  0  0  0  0  0  0  0  0
  -27.4325  -13.5597   -8.7802 O   0  0  0  0  0  0  0  0  0  0  0  0
  -25.0048  -14.9737   -9.5195 O   0  0  0  0  0  0  0  0  0  0  0  0
  -22.6234  -13.3719   -9.5283 O   0  0  0  0  0  0  0  0  0  0  0  0
  -31.3174  -14.1985   -9.3227 O   0  0  0  0  0  0  0  0  0  0  0  0
  -27.9540  -15.7930   -8.0400 O   0  0  0  0  0  0  0  0  0  0  0  0
  1  5  1  0  0  0  0
  1 18  1  1  0  0  0
  2 18  1  6  0  0  0
  2  3  1  0  0  0  0
  2 12  1  0  0  0  0
  3 19  1  1  0  0  0
  3  4  1  0  0  0  0
  4 20  1  6  0  0  0
  4 10  1  0  0  0  0
  5  6  1  0  0  0  0
  5 14  1  6  0  0  0
  6 21  1  6  0  0  0
  7 13  1  6  0  0  0
  7  6  1  0  0  0  0
  8  9  1  1  0  0  0
  8  7  1  0  0  0  0
 10 16  1  1  0  0  0
 11 10  1  0  0  0  0
 12 17  1  1  0  0  0
 12 11  1  0  0  0  0
 15  9  1  0  0  0  0
 22  8  1  0  0  0  0
 22  1  1  0  0  0  0
M  END
>  <CHROM.1>
-174.21862664,59.82094745,-63.38232370,-27.28283223,-13.96407117,-8.27186976
2.99657924,0.45952184,1.71663106

>  <Name>
lig.pdb

>  <RI>
0

>  <Rbt.Current_Directory>
/home/itssahil/PROJECTS/Mol_Feturizer/New_Systems/rnas/5bws

>  <Rbt.Executable>
rbdock ($Id: //depot/dev/client3/rdock/2013.1/src/exe/rbdock.cxx#4 $)

>  <Rbt.Library>
libRbt.so (2013.1, Build901 2013/11/27)

>  <Rbt.Parameter_File>
/export/apps/rDock/src/rDock_2013.1_src/data/scripts/dock_solv.prm

>  <Rbt.Receptor>
prm/blind_docking_80.prm

>  <SCORE>
-6.10096

>  <SCORE.INTER>
-3.05265

>  <SCORE.INTER.CONST>
1

>  <SCORE.INTER.POLAR>
0

>  <SCORE.INTER.ROT>
3

>  <SCORE.INTER.SOLV>
16.2427

>  <SCORE.INTER.VDW>
-13.0493

>  <SCORE.INTER.norm>
-0.138757

>  <SCORE.INTRA>
-3.04831

>  <SCORE.INTRA.DIHEDRAL>
-5.89964

>  <SCORE.INTRA.DIHEDRAL.0>
6.10773

>  <SCORE.INTRA.POLAR>
0

>  <SCORE.INTRA.POLAR.0>
0

>  <SCORE.INTRA.REPUL>
0

>  <SCORE.INTRA.REPUL.0>
0

>  <SCORE.INTRA.SOLV>
-1.19252

>  <SCORE.INTRA.SOLV.lig_0>
-71.4024

>  <SCORE.INTRA.VDW>
0.497778

>  <SCORE.INTRA.VDW.0>
-1.86213

>  <SCORE.INTRA.norm>
-0.138559

>  <SCORE.RESTR>
0

>  <SCORE.RESTR.CAVITY>
0

>  <SCORE.RESTR.norm>
0

>  <SCORE.SYSTEM>
0

>  <SCORE.SYSTEM.CONST>
0

>  <SCORE.SYSTEM.DIHEDRAL>
0

>  <SCORE.SYSTEM.SOLV>
0

>  <SCORE.SYSTEM.norm>
0

>  <SCORE.heavy>
22

>  <SCORE.norm>
-0.277316

>  <RMSD>
27.014

$$$$
lig.pdb
 OpenBabel11021811523D
libRbt.so/2013.1/901 2013/11/27
 22 23  0  0  0  0  0  0  0  0999 V2000
  -27.8685  -14.8595   -9.3674 C   0  0  1  0  0  0  0  0  0  0  0  0
  -26.0875  -13.3029   -8.4751 C   0  0  1  0  0  0  0  0  0  0  0  0
  -24.9847  -13.8591   -9.4809 C   0  0  1  0  0  0  0  0  0  0  0  0
  -23.5509  -13.4645   -8.9032 C   0  0  2  0  0  0  0  0  0  0  0  0
  -29.3508  -14.7403   -9.8955 C   0  0  1  0  0  0  0  0  0  0  0  0
  -30.2371  -14.2715   -8.7245 C   0  0  2  0  0  0  0  0  0  0  0  0
  -30.2125  -15.2938   -7.5744 C   0  0  2  0  0  0  0  0  0  0  0  0
  -28.7550  -15.4895   -7.0179 C   0  0  1  0  0  0  0  0  0  0  0  0
  -28.7165  -16.5630   -5.8923 C   0  0  0  0  0  0  0  0  0  0  0  0
  -23.4274  -11.8571   -8.8473 C   0  0  1  0  0  0  0  0  0  0  0  0
  -24.5560  -11.3322   -7.8253 C   0  0  0  0  0  0  0  0  0  0  0  0
  -26.0029  -11.7476   -8.3608 C   0  0  2  0  0  0  0  0  0  0  0  0
  -30.7227  -16.5879   -8.0413 F   0  0  0  0  0  0  0  0  0  0  0  0
  -29.3558  -13.7482  -11.0397 N   0  0  0  0  0  0  0  0  0  0  0  0
  -29.4979  -16.2584   -4.7542 N   0  0  0  0  0  0  0  0  0  0  0  0
  -22.0959  -11.4354   -8.2922 N   0  0  0  0  0  0  0  0  0  0  0  0
  -27.0329  -11.2648   -7.4183 N   0  0  0  0  0  0  0  0  0  0  0  0
  -27.3869  -13.6205   -8.9501 O   0  0  0  0  0  0  0  0  0  0  0  0
  -25.1140  -15.3347   -9.5288 O   0  0  0  0  0  0  0  0  0  0  0  0
  -22.6032  -13.9704   -9.7960 O   0  0  0  0  0  0  0  0  0  0  0  0
  -31.3173  -14.1874   -9.1111 O   0  0  0  0  0  0  0  0  0  0  0  0
  -27.8693  -15.8658   -8.2196 O   0  0  0  0  0  0  0  0  0  0  0  0
  1  5  1  0  0  0  0
  1 18  1  1  0  0  0
  2 18  1  6  0  0  0
  2  3  1  0  0  0  0
  2 12  1  0  0  0  0
  3 19  1  1  0  0  0
  3  4  1  0  0  0  0
  4 20  1  6  0  0  0
  4 10  1  0  0  0  0
  5  6  1  0  0  0  0
  5 14  1  6  0  0  0
  6 21  1  6  0  0  0
  7 13  1  6  0  0  0
  7  6  1  0  0  0  0
  8  9  1  1  0  0  0
  8  7  1  0  0  0  0
 10 16  1  1  0  0  0
 11 10  1  0  0  0  0
 12 17  1  1  0  0  0
 12 11  1  0  0  0  0
 15  9  1  0  0  0  0
 22  8  1  0  0  0  0
 22  1  1  0  0  0  0
M  END
>  <CHROM.1>
-176.73085222,50.32281077,-61.16022405,-27.17601116,-14.11083854,-8.44068040
2.77110804,0.27458508,2.21980163

>  <Name>
lig.pdb

>  <RI>
0

>  <Rbt.Current_Directory>
/home/itssahil/PROJECTS/Mol_Feturizer/New_Systems/rnas/5bws

>  <Rbt.Executable>
rbdock ($Id: //depot/dev/client3/rdock/2013.1/src/exe/rbdock.cxx#4 $)

>  <Rbt.Library>
libRbt.so (2013.1, Build901 2013/11/27)

>  <Rbt.Parameter_File>
/export/apps/rDock/src/rDock_2013.1_src/data/scripts/dock_solv.prm

>  <Rbt.Receptor>
prm/blind_docking_40.prm

>  <SCORE>
-5.85359

>  <SCORE.INTER>
-3.12579

>  <SCORE.INTER.CONST>
1

>  <SCORE.INTER.POLAR>
0

>  <SCORE.INTER.ROT>
3

>  <SCORE.INTER.SOLV>
17.9856

>  <SCORE.INTER.VDW>
-13.6791

>  <SCORE.INTER.norm>
-0.142081

>  <SCORE.INTRA>
-2.7278

>  <SCORE.INTRA.DIHEDRAL>
-5.5954

>  <SCORE.INTRA.DIHEDRAL.0>
6.10773

>  <SCORE.INTRA.POLAR>
0

>  <SCORE.INTRA.POLAR.0>
0

>  <SCORE.INTRA.REPUL>
0

>  <SCORE.INTRA.REPUL.0>
0

>  <SCORE.INTRA.SOLV>
-1.35525

>  <SCORE.INTRA.SOLV.lig_0>
-71.4024

>  <SCORE.INTRA.VDW>
0.747525

>  <SCORE.INTRA.VDW.0>
-1.86213

>  <SCORE.INTRA.norm>
-0.123991

>  <SCORE.RESTR>
0

>  <SCORE.RESTR.CAVITY>
0

>  <SCORE.RESTR.norm>
0

>  <SCORE.SYSTEM>
0

>  <SCORE.SYSTEM.CONST>
0

>  <SCORE.SYSTEM.DIHEDRAL>
0

>  <SCORE.SYSTEM.SOLV>
0

>  <SCORE.SYSTEM.norm>
0

>  <SCORE.heavy>
22

>  <SCORE.norm>
-0.266072

>  <RMSD>
27.065

$$$$
lig.pdb
 OpenBabel11021811523D
libRbt.so/2013.1/901 2013/11/27
 22 23  0  0  0  0  0  0  0  0999 V2000
  -26.9522  -11.2678   -7.9456 C   0  0  1  0  0  0  0  0  0  0  0  0
  -28.9140  -12.7603   -7.3843 C   0  0  1  0  0  0  0  0  0  0  0  0
  -28.8502  -13.7796   -8.6066 C   0  0  1  0  0  0  0  0  0  0  0  0
  -30.3086  -14.3938   -8.8092 C   0  0  2  0  0  0  0  0  0  0  0  0
  -25.6208  -10.7967   -7.2417 C   0  0  1  0  0  0  0  0  0  0  0  0
  -26.0025  -10.0861   -5.9280 C   0  0  2  0  0  0  0  0  0  0  0  0
  -26.8690   -8.8453   -6.2072 C   0  0  2  0  0  0  0  0  0  0  0  0
  -28.2038   -9.2365   -6.9405 C   0  0  1  0  0  0  0  0  0  0  0  0
  -29.0576   -7.9793   -7.2743 C   0  0  0  0  0  0  0  0  0  0  0  0
  -30.7269  -15.2116   -7.4831 C   0  0  1  0  0  0  0  0  0  0  0  0
  -30.7789  -14.1516   -6.2717 C   0  0  0  0  0  0  0  0  0  0  0  0
  -29.3377  -13.4917   -6.0709 C   0  0  2  0  0  0  0  0  0  0  0  0
  -26.1281   -7.8921   -7.0412 F   0  0  0  0  0  0  0  0  0  0  0  0
  -24.7697  -12.0243   -6.9928 N   0  0  0  0  0  0  0  0  0  0  0  0
  -29.4248   -7.1967   -6.1557 N   0  0  0  0  0  0  0  0  0  0  0  0
  -32.1045  -15.7966   -7.6197 N   0  0  0  0  0  0  0  0  0  0  0  0
  -29.3928  -12.5196   -4.9599 N   0  0  0  0  0  0  0  0  0  0  0  0
  -27.6341  -12.1907   -7.1554 O   0  0  0  0  0  0  0  0  0  0  0  0
  -28.4578  -13.0177   -9.8157 O   0  0  0  0  0  0  0  0  0  0  0  0
  -30.2284  -15.2752   -9.8899 O   0  0  0  0  0  0  0  0  0  0  0  0
  -25.0307   -9.7416   -5.4178 O   0  0  0  0  0  0  0  0  0  0  0  0
  -27.8019  -10.0254   -8.1999 O   0  0  0  0  0  0  0  0  0  0  0  0
  1  5  1  0  0  0  0
  1 18  1  1  0  0  0
  2 18  1  1  0  0  0
  2  3  1  0  0  0  0
  2 12  1  0  0  0  0
  3 19  1  6  0  0  0
  3  4  1  0  0  0  0
  4 20  1  6  0  0  0
  4 10  1  0  0  0  0
  5  6  1  0  0  0  0
  5 14  1  1  0  0  0
  6 21  1  6  0  0  0
  7 13  1  6  0  0  0
  7  6  1  0  0  0  0
  8  9  1  6  0  0  0
  8  7  1  0  0  0  0
 10 16  1  6  0  0  0
 11 10  1  0  0  0  0
 12 17  1  1  0  0  0
 12 11  1  0  0  0  0
 15  9  1  0  0  0  0
 22  8  1  0  0  0  0
 22  1  1  0  0  0  0
M  END
>  <CHROM.1>
174.31243490,70.82652325,-58.65483005,-28.25427579,-11.65387083,-7.26916884
-1.00791736,-0.09194838,-2.83271232

>  <Name>
lig.pdb

>  <RI>
0

>  <Rbt.Current_Directory>
/home/itssahil/PROJECTS/Mol_Feturizer/New_Systems/rnas/5bws

>  <Rbt.Executable>
rbdock ($Id: //depot/dev/client3/rdock/2013.1/src/exe/rbdock.cxx#4 $)

>  <Rbt.Library>
libRbt.so (2013.1, Build901 2013/11/27)

>  <Rbt.Parameter_File>
/export/apps/rDock/src/rDock_2013.1_src/data/scripts/dock_solv.prm

>  <Rbt.Receptor>
prm/blind_docking_40.prm

>  <SCORE>
-5.31531

>  <SCORE.INTER>
-2.47787

>  <SCORE.INTER.CONST>
1

>  <SCORE.INTER.POLAR>
0

>  <SCORE.INTER.ROT>
3

>  <SCORE.INTER.SOLV>
17.4612

>  <SCORE.INTER.VDW>
-13.0723

>  <SCORE.INTER.norm>
-0.112631

>  <SCORE.INTRA>
-2.83744

>  <SCORE.INTRA.DIHEDRAL>
-5.3774

>  <SCORE.INTRA.DIHEDRAL.0>
6.10773

>  <SCORE.INTRA.POLAR>
0

>  <SCORE.INTRA.POLAR.0>
0

>  <SCORE.INTRA.REPUL>
0

>  <SCORE.INTRA.REPUL.0>
0

>  <SCORE.INTRA.SOLV>
-0.787279

>  <SCORE.INTRA.SOLV.lig_0>
-71.4024

>  <SCORE.INTRA.VDW>
0.244901

>  <SCORE.INTRA.VDW.0>
-1.86213

>  <SCORE.INTRA.norm>
-0.128975

>  <SCORE.RESTR>
0

>  <SCORE.RESTR.CAVITY>
0

>  <SCORE.RESTR.norm>
0

>  <SCORE.SYSTEM>
0

>  <SCORE.SYSTEM.CONST>
0

>  <SCORE.SYSTEM.DIHEDRAL>
0

>  <SCORE.SYSTEM.SOLV>
0

>  <SCORE.SYSTEM.norm>
0

>  <SCORE.heavy>
22

>  <SCORE.norm>
-0.241605

>  <RMSD>
27.194

$$$$
lig.pdb
 OpenBabel11021811523D
libRbt.so/2013.1/901 2013/11/27
 22 23  0  0  0  0  0  0  0  0999 V2000
  -29.5472  -14.8539   -5.4791 C   0  0  1  0  0  0  0  0  0  0  0  0
  -27.0365  -14.5930   -5.6204 C   0  0  1  0  0  0  0  0  0  0  0  0
  -26.6113  -14.1254   -4.1583 C   0  0  1  0  0  0  0  0  0  0  0  0
  -25.2485  -13.3055   -4.2830 C   0  0  2  0  0  0  0  0  0  0  0  0
  -30.5344  -15.9761   -4.9731 C   0  0  1  0  0  0  0  0  0  0  0  0
  -30.5320  -17.1157   -6.0113 C   0  0  2  0  0  0  0  0  0  0  0  0
  -31.0284  -16.6132   -7.3786 C   0  0  2  0  0  0  0  0  0  0  0  0
  -30.1074  -15.4652   -7.9318 C   0  0  1  0  0  0  0  0  0  0  0  0
  -30.6371  -14.9160   -9.2878 C   0  0  0  0  0  0  0  0  0  0  0  0
  -24.0985  -14.2763   -4.8637 C   0  0  1  0  0  0  0  0  0  0  0  0
  -24.5630  -14.7291   -6.3377 C   0  0  0  0  0  0  0  0  0  0  0  0
  -25.9477  -15.5211   -6.2468 C   0  0  2  0  0  0  0  0  0  0  0  0
  -32.4012  -16.1085   -7.2604 F   0  0  0  0  0  0  0  0  0  0  0  0
  -30.0461  -16.4454   -3.6186 N   0  0  0  0  0  0  0  0  0  0  0  0
  -29.7338  -14.0803   -9.9836 N   0  0  0  0  0  0  0  0  0  0  0  0
  -22.7959  -13.5422   -5.0153 N   0  0  0  0  0  0  0  0  0  0  0  0
  -26.3687  -15.9319   -7.6018 N   0  0  0  0  0  0  0  0  0  0  0  0
  -28.2435  -15.3380   -5.5637 O   0  0  0  0  0  0  0  0  0  0  0  0
  -27.6788  -13.2413   -3.6339 O   0  0  0  0  0  0  0  0  0  0  0  0
  -24.9025  -12.8996   -2.9920 O   0  0  0  0  0  0  0  0  0  0  0  0
  -31.2540  -17.9315   -5.6416 O   0  0  0  0  0  0  0  0  0  0  0  0
  -30.0489  -14.3805   -6.8408 O   0  0  0  0  0  0  0  0  0  0  0  0
  1  5  1  0  0  0  0
  1 18  1  6  0  0  0
  2 18  1  1  0  0  0
  2  3  1  0  0  0  0
  2 12  1  0  0  0  0
  3 19  1  6  0  0  0
  3  4  1  0  0  0  0
  4 20  1  1  0  0  0
  4 10  1  0  0  0  0
  5  6  1  0  0  0  0
  5 14  1  1  0  0  0
  6 21  1  1  0  0  0
  7 13  1  1  0  0  0
  7  6  1  0  0  0  0
  8  9  1  6  0  0  0
  8  7  1  0  0  0  0
 10 16  1  6  0  0  0
 11 10  1  0  0  0  0
 12 17  1  6  0  0  0
 12 11  1  0  0  0  0
 15  9  1  0  0  0  0
 22  8  1  0  0  0  0
 22  1  1  0  0  0  0
M  END
>  <CHROM.1>
-161.48232047,80.66831556,-167.78427461,-28.23189591,-15.06626001,-5.93896548
2.80434758,-0.36548545,-1.50379456

>  <Name>
lig.pdb

>  <RI>
0

>  <Rbt.Current_Directory>
/home/itssahil/PROJECTS/Mol_Feturizer/New_Systems/rnas/5bws

>  <Rbt.Executable>
rbdock ($Id: //depot/dev/client3/rdock/2013.1/src/exe/rbdock.cxx#4 $)

>  <Rbt.Library>
libRbt.so (2013.1, Build901 2013/11/27)

>  <Rbt.Parameter_File>
/export/apps/rDock/src/rDock_2013.1_src/data/scripts/dock_solv.prm

>  <Rbt.Receptor>
prm/blind_docking_80.prm

>  <SCORE>
-4.9942

>  <SCORE.INTER>
-3.58881

>  <SCORE.INTER.CONST>
1

>  <SCORE.INTER.POLAR>
0

>  <SCORE.INTER.ROT>
3

>  <SCORE.INTER.SOLV>
18.6378

>  <SCORE.INTER.VDW>
-14.2051

>  <SCORE.INTER.norm>
-0.163128

>  <SCORE.INTRA>
-1.40855

>  <SCORE.INTRA.DIHEDRAL>
-2.11166

>  <SCORE.INTRA.DIHEDRAL.0>
6.10773

>  <SCORE.INTRA.POLAR>
0

>  <SCORE.INTRA.POLAR.0>
0

>  <SCORE.INTRA.REPUL>
0

>  <SCORE.INTRA.REPUL.0>
0

>  <SCORE.INTRA.SOLV>
-0.869331

>  <SCORE.INTRA.SOLV.lig_0>
-71.4024

>  <SCORE.INTRA.VDW>
0.0819418

>  <SCORE.INTRA.VDW.0>
-1.86213

>  <SCORE.INTRA.norm>
-0.0640251

>  <SCORE.RESTR>
0.00316094

>  <SCORE.RESTR.CAVITY>
0.00316094

>  <SCORE.RESTR.norm>
0.000143679

>  <SCORE.SYSTEM>
0

>  <SCORE.SYSTEM.CONST>
0

>  <SCORE.SYSTEM.DIHEDRAL>
0

>  <SCORE.SYSTEM.SOLV>
0

>  <SCORE.SYSTEM.norm>
0

>  <SCORE.heavy>
22

>  <SCORE.norm>
-0.227009

>  <RMSD>
27.607

$$$$
lig.pdb
 OpenBabel11021811523D
libRbt.so/2013.1/901 2013/11/27
 22 23  0  0  0  0  0  0  0  0999 V2000
  -28.1184  -11.5704   -5.9907 C   0  0  1  0  0  0  0  0  0  0  0  0
  -30.0024  -12.9667   -5.0460 C   0  0  1  0  0  0  0  0  0  0  0  0
  -29.6683  -12.8171   -3.4958 C   0  0  1  0  0  0  0  0  0  0  0  0
  -30.3089  -14.0639   -2.7339 C   0  0  2  0  0  0  0  0  0  0  0  0
  -27.9638  -10.1622   -6.6857 C   0  0  1  0  0  0  0  0  0  0  0  0
  -28.6527  -10.2327   -8.0629 C   0  0  2  0  0  0  0  0  0  0  0  0
  -27.9837  -11.2913   -8.9574 C   0  0  2  0  0  0  0  0  0  0  0  0
  -28.0705  -12.7213   -8.3095 C   0  0  1  0  0  0  0  0  0  0  0  0
  -27.3470  -13.7856   -9.1838 C   0  0  0  0  0  0  0  0  0  0  0  0
  -31.9113  -14.0293   -2.9171 C   0  0  1  0  0  0  0  0  0  0  0  0
  -32.2096  -14.1804   -4.4924 C   0  0  0  0  0  0  0  0  0  0  0  0
  -31.5457  -12.9628   -5.2858 C   0  0  2  0  0  0  0  0  0  0  0  0
  -26.5728  -10.9493   -9.1716 F   0  0  0  0  0  0  0  0  0  0  0  0
  -28.6071   -9.1287   -5.7849 N   0  0  0  0  0  0  0  0  0  0  0  0
  -25.9426  -13.6400   -9.2558 N   0  0  0  0  0  0  0  0  0  0  0  0
  -32.5603  -15.1972   -2.2289 N   0  0  0  0  0  0  0  0  0  0  0  0
  -31.8215  -13.1085   -6.7298 N   0  0  0  0  0  0  0  0  0  0  0  0
  -29.4605  -11.8728   -5.7705 O   0  0  0  0  0  0  0  0  0  0  0  0
  -28.1945  -12.8427   -3.3423 O   0  0  0  0  0  0  0  0  0  0  0  0
  -29.9948  -13.9146   -1.3811 O   0  0  0  0  0  0  0  0  0  0  0  0
  -28.5368   -9.2059   -8.5686 O   0  0  0  0  0  0  0  0  0  0  0  0
  -27.4619  -12.6060   -6.9000 O   0  0  0  0  0  0  0  0  0  0  0  0
  1  5  1  0  0  0  0
  1 18  1  6  0  0  0
  2 18  1  6  0  0  0
  2  3  1  0  0  0  0
  2 12  1  0  0  0  0
  3 19  1  6  0  0  0
  3  4  1  0  0  0  0
  4 20  1  1  0  0  0
  4 10  1  0  0  0  0
  5  6  1  0  0  0  0
  5 14  1  1  0  0  0
  6 21  1  6  0  0  0
  7 13  1  1  0  0  0
  7  6  1  0  0  0  0
  8  9  1  6  0  0  0
  8  7  1  0  0  0  0
 10 16  1  1  0  0  0
 11 10  1  0  0  0  0
 12 17  1  6  0  0  0
 12 11  1  0  0  0  0
 15  9  1  0  0  0  0
 22  8  1  0  0  0  0
 22  1  1  0  0  0  0
M  END
>  <CHROM.1>
-172.53319790,67.71461641,67.53465387,-29.16016476,-12.39100017,-5.95662566
0.15537521,1.02333400,0.26547355

>  <Name>
lig.pdb

>  <RI>
0

>  <Rbt.Current_Directory>
/home/itssahil/PROJECTS/Mol_Feturizer/New_Systems/rnas/5bws

>  <Rbt.Executable>
rbdock ($Id: //depot/dev/client3/rdock/2013.1/src/exe/rbdock.cxx#4 $)

>  <Rbt.Library>
libRbt.so (2013.1, Build901 2013/11/27)

>  <Rbt.Parameter_File>
/export/apps/rDock/src/rDock_2013.1_src/data/scripts/dock_solv.prm

>  <Rbt.Receptor>
prm/blind_docking_40.prm

>  <SCORE>
-5.21318

>  <SCORE.INTER>
-2.83341

>  <SCORE.INTER.CONST>
1

>  <SCORE.INTER.POLAR>
0

>  <SCORE.INTER.ROT>
3

>  <SCORE.INTER.SOLV>
17.8262

>  <SCORE.INTER.VDW>
-13.431

>  <SCORE.INTER.norm>
-0.128791

>  <SCORE.INTRA>
-2.37977

>  <SCORE.INTRA.DIHEDRAL>
-5.34176

>  <SCORE.INTRA.DIHEDRAL.0>
6.10773

>  <SCORE.INTRA.POLAR>
0

>  <SCORE.INTRA.POLAR.0>
0

>  <SCORE.INTRA.REPUL>
0

>  <SCORE.INTRA.REPUL.0>
0

>  <SCORE.INTRA.SOLV>
0.196798

>  <SCORE.INTRA.SOLV.lig_0>
-71.4024

>  <SCORE.INTRA.VDW>
0.192704

>  <SCORE.INTRA.VDW.0>
-1.86213

>  <SCORE.INTRA.norm>
-0.108172

>  <SCORE.RESTR>
0

>  <SCORE.RESTR.CAVITY>
0

>  <SCORE.RESTR.norm>
0

>  <SCORE.SYSTEM>
0

>  <SCORE.SYSTEM.CONST>
0

>  <SCORE.SYSTEM.DIHEDRAL>
0

>  <SCORE.SYSTEM.SOLV>
0

>  <SCORE.SYSTEM.norm>
0

>  <SCORE.heavy>
22

>  <SCORE.norm>
-0.236963

>  <RMSD>
27.635

$$$$
lig.pdb
 OpenBabel11021811523D
libRbt.so/2013.1/901 2013/11/27
 22 23  0  0  0  0  0  0  0  0999 V2000
  -28.4056  -15.7931   -7.7628 C   0  0  1  0  0  0  0  0  0  0  0  0
  -26.6102  -15.0266   -6.1566 C   0  0  1  0  0  0  0  0  0  0  0  0
  -25.3355  -15.1409   -7.1048 C   0  0  1  0  0  0  0  0  0  0  0  0
  -24.0490  -15.3155   -6.1776 C   0  0  2  0  0  0  0  0  0  0  0  0
  -29.6117  -15.1412   -8.5443 C   0  0  1  0  0  0  0  0  0  0  0  0
  -30.6551  -14.6776   -7.5086 C   0  0  2  0  0  0  0  0  0  0  0  0
  -31.1907  -15.8709   -6.6975 C   0  0  2  0  0  0  0  0  0  0  0  0
  -30.0335  -16.5927   -5.9152 C   0  0  1  0  0  0  0  0  0  0  0  0
  -30.5612  -17.8329   -5.1379 C   0  0  0  0  0  0  0  0  0  0  0  0
  -23.8819  -14.0045   -5.2526 C   0  0  1  0  0  0  0  0  0  0  0  0
  -25.1865  -13.9212   -4.3119 C   0  0  0  0  0  0  0  0  0  0  0  0
  -26.4958  -13.7840   -5.2173 C   0  0  2  0  0  0  0  0  0  0  0  0
  -31.8368  -16.8375   -7.5927 F   0  0  0  0  0  0  0  0  0  0  0  0
  -29.0665  -13.9831   -9.3537 N   0  0  0  0  0  0  0  0  0  0  0  0
  -31.5220  -17.5448   -4.1417 N   0  0  0  0  0  0  0  0  0  0  0  0
  -22.6893  -14.1295   -4.3466 N   0  0  0  0  0  0  0  0  0  0  0  0
  -27.6883  -13.7099   -4.3487 N   0  0  0  0  0  0  0  0  0  0  0  0
  -27.7853  -14.8596   -6.9352 O   0  0  0  0  0  0  0  0  0  0  0  0
  -25.5051  -16.3438   -7.9537 O   0  0  0  0  0  0  0  0  0  0  0  0
  -22.9484  -15.4226   -7.0310 O   0  0  0  0  0  0  0  0  0  0  0  0
  -31.5343  -14.2049   -8.0805 O   0  0  0  0  0  0  0  0  0  0  0  0
  -28.9605  -16.9634   -6.9551 O   0  0  0  0  0  0  0  0  0  0  0  0
  1  5  1  0  0  0  0
  1 18  1  1  0  0  0
  2 18  1  6  0  0  0
  2  3  1  0  0  0  0
  2 12  1  0  0  0  0
  3 19  1  6  0  0  0
  3  4  1  0  0  0  0
  4 20  1  6  0  0  0
  4 10  1  0  0  0  0
  5  6  1  0  0  0  0
  5 14  1  1  0  0  0
  6 21  1  6  0  0  0
  7 13  1  6  0  0  0
  7  6  1  0  0  0  0
  8  9  1  6  0  0  0
  8  7  1  0  0  0  0
 10 16  1  1  0  0  0
 11 10  1  0  0  0  0
 12 17  1  1  0  0  0
 12 11  1  0  0  0  0
 15  9  1  0  0  0  0
 22  8  1  0  0  0  0
 22  1  1  0  0  0  0
M  END
>  <CHROM.1>
-174.65321740,69.63848808,-62.01801436,-27.85326300,-15.36038345,-6.52011273
-3.02607496,0.24536606,1.81162907

>  <Name>
lig.pdb

>  <RI>
0

>  <Rbt.Current_Directory>
/home/itssahil/PROJECTS/Mol_Feturizer/New_Systems/rnas/5bws

>  <Rbt.Executable>
rbdock ($Id: //depot/dev/client3/rdock/2013.1/src/exe/rbdock.cxx#4 $)

>  <Rbt.Library>
libRbt.so (2013.1, Build901 2013/11/27)

>  <Rbt.Parameter_File>
/export/apps/rDock/src/rDock_2013.1_src/data/scripts/dock_solv.prm

>  <Rbt.Receptor>
prm/blind_docking_80.prm

>  <SCORE>
-6.6253

>  <SCORE.INTER>
-3.68158

>  <SCORE.INTER.CONST>
1

>  <SCORE.INTER.POLAR>
0

>  <SCORE.INTER.ROT>
3

>  <SCORE.INTER.SOLV>
15.9352

>  <SCORE.INTER.VDW>
-13.3661

>  <SCORE.INTER.norm>
-0.167345

>  <SCORE.INTRA>
-2.94372

>  <SCORE.INTRA.DIHEDRAL>
-5.50146

>  <SCORE.INTRA.DIHEDRAL.0>
6.10773

>  <SCORE.INTRA.POLAR>
0

>  <SCORE.INTRA.POLAR.0>
0

>  <SCORE.INTRA.REPUL>
0

>  <SCORE.INTRA.REPUL.0>
0

>  <SCORE.INTRA.SOLV>
-0.927548

>  <SCORE.INTRA.SOLV.lig_0>
-71.4024

>  <SCORE.INTRA.VDW>
0.270783

>  <SCORE.INTRA.VDW.0>
-1.86213

>  <SCORE.INTRA.norm>
-0.133806

>  <SCORE.RESTR>
0

>  <SCORE.RESTR.CAVITY>
0

>  <SCORE.RESTR.norm>
0

>  <SCORE.SYSTEM>
0

>  <SCORE.SYSTEM.CONST>
0

>  <SCORE.SYSTEM.DIHEDRAL>
0

>  <SCORE.SYSTEM.SOLV>
0

>  <SCORE.SYSTEM.norm>
0

>  <SCORE.heavy>
22

>  <SCORE.norm>
-0.30115

>  <RMSD>
27.681

$$$$
lig.pdb
 OpenBabel11021811523D
libRbt.so/2013.1/901 2013/11/27
 22 23  0  0  0  0  0  0  0  0999 V2000
  -29.1249  -15.0781   -7.8976 C   0  0  1  0  0  0  0  0  0  0  0  0
  -27.0752  -13.6446   -8.2651 C   0  0  1  0  0  0  0  0  0  0  0  0
  -26.1773  -14.6812   -9.0751 C   0  0  1  0  0  0  0  0  0  0  0  0
  -24.6504  -14.2585   -8.8872 C   0  0  2  0  0  0  0  0  0  0  0  0
  -30.6230  -15.1023   -8.3928 C   0  0  1  0  0  0  0  0  0  0  0  0
  -31.3246  -13.8420   -7.8491 C   0  0  2  0  0  0  0  0  0  0  0  0
  -31.3223  -13.8336   -6.3101 C   0  0  2  0  0  0  0  0  0  0  0  0
  -29.8558  -13.8426   -5.7430 C   0  0  1  0  0  0  0  0  0  0  0  0
  -29.8488  -13.8902   -4.1878 C   0  0  0  0  0  0  0  0  0  0  0  0
  -24.4273  -12.7894   -9.5149 C   0  0  1  0  0  0  0  0  0  0  0  0
  -25.3499  -11.7718   -8.6742 C   0  0  0  0  0  0  0  0  0  0  0  0
  -26.8843  -12.1949   -8.8139 C   0  0  2  0  0  0  0  0  0  0  0  0
  -32.0384  -15.0085   -5.8001 F   0  0  0  0  0  0  0  0  0  0  0  0
  -30.6093  -15.1320   -9.9068 N   0  0  0  0  0  0  0  0  0  0  0  0
  -28.5657  -13.8286   -3.5976 N   0  0  0  0  0  0  0  0  0  0  0  0
  -23.0033  -12.3391   -9.3463 N   0  0  0  0  0  0  0  0  0  0  0  0
  -27.7246  -11.2588   -8.0393 N   0  0  0  0  0  0  0  0  0  0  0  0
  -28.4491  -13.9718   -8.4081 O   0  0  0  0  0  0  0  0  0  0  0  0
  -26.3973  -16.0266   -8.4940 O   0  0  0  0  0  0  0  0  0  0  0  0
  -23.8848  -15.1861   -9.5975 O   0  0  0  0  0  0  0  0  0  0  0  0
  -32.4169  -13.8628   -8.2093 O   0  0  0  0  0  0  0  0  0  0  0  0
  -29.1458  -15.0555   -6.3714 O   0  0  0  0  0  0  0  0  0  0  0  0
  1  5  1  0  0  0  0
  1 18  1  6  0  0  0
  2 18  1  6  0  0  0
  2  3  1  0  0  0  0
  2 12  1  0  0  0  0
  3 19  1  1  0  0  0
  3  4  1  0  0  0  0
  4 20  1  6  0  0  0
  4 10  1  0  0  0  0
  5  6  1  0  0  0  0
  5 14  1  6  0  0  0
  6 21  1  1  0  0  0
  7 13  1  1  0  0  0
  7  6  1  0  0  0  0
  8  9  1  1  0  0  0
  8  7  1  0  0  0  0
 10 16  1  1  0  0  0
 11 10  1  0  0  0  0
 12 17  1  1  0  0  0
 12 11  1  0  0  0  0
 15  9  1  0  0  0  0
 22  8  1  0  0  0  0
 22  1  1  0  0  0  0
M  END
>  <CHROM.1>
-175.62430926,68.68103604,-176.76904548,-28.19116624,-13.98168314,-7.76274945
2.80776121,0.24307439,1.29772052

>  <Name>
lig.pdb

>  <RI>
0

>  <Rbt.Current_Directory>
/home/itssahil/PROJECTS/Mol_Feturizer/New_Systems/rnas/5bws

>  <Rbt.Executable>
rbdock ($Id: //depot/dev/client3/rdock/2013.1/src/exe/rbdock.cxx#4 $)

>  <Rbt.Library>
libRbt.so (2013.1, Build901 2013/11/27)

>  <Rbt.Parameter_File>
/export/apps/rDock/src/rDock_2013.1_src/data/scripts/dock_solv.prm

>  <Rbt.Receptor>
prm/blind_docking_60.prm

>  <SCORE>
-3.48006

>  <SCORE.INTER>
-0.169004

>  <SCORE.INTER.CONST>
1

>  <SCORE.INTER.POLAR>
0

>  <SCORE.INTER.ROT>
3

>  <SCORE.INTER.SOLV>
16.5012

>  <SCORE.INTER.VDW>
-11.2131

>  <SCORE.INTER.norm>
-0.007682

>  <SCORE.INTRA>
-3.31105

>  <SCORE.INTRA.DIHEDRAL>
-5.60827

>  <SCORE.INTRA.DIHEDRAL.0>
6.10773

>  <SCORE.INTRA.POLAR>
0

>  <SCORE.INTRA.POLAR.0>
0

>  <SCORE.INTRA.REPUL>
0

>  <SCORE.INTRA.REPUL.0>
0

>  <SCORE.INTRA.SOLV>
-1.48619

>  <SCORE.INTRA.SOLV.lig_0>
-71.4024

>  <SCORE.INTRA.VDW>
0.236176

>  <SCORE.INTRA.VDW.0>
-1.86213

>  <SCORE.INTRA.norm>
-0.150502

>  <SCORE.RESTR>
0

>  <SCORE.RESTR.CAVITY>
0

>  <SCORE.RESTR.norm>
0

>  <SCORE.SYSTEM>
0

>  <SCORE.SYSTEM.CONST>
0

>  <SCORE.SYSTEM.DIHEDRAL>
0

>  <SCORE.SYSTEM.SOLV>
0

>  <SCORE.SYSTEM.norm>
0

>  <SCORE.heavy>
22

>  <SCORE.norm>
-0.158184

>  <RMSD>
27.738

$$$$
lig.pdb
 OpenBabel11021811523D
libRbt.so/2013.1/901 2013/11/27
 22 23  0  0  0  0  0  0  0  0999 V2000
  -31.3317  -11.8582   -6.8366 C   0  0  1  0  0  0  0  0  0  0  0  0
  -29.4328  -11.0900   -5.3550 C   0  0  1  0  0  0  0  0  0  0  0  0
  -28.5804  -12.4269   -5.2032 C   0  0  1  0  0  0  0  0  0  0  0  0
  -27.0699  -12.0132   -4.8991 C   0  0  2  0  0  0  0  0  0  0  0  0
  -32.8730  -12.1586   -6.6801 C   0  0  1  0  0  0  0  0  0  0  0  0
  -33.0350  -13.2879   -5.6434 C   0  0  2  0  0  0  0  0  0  0  0  0
  -32.3359  -14.5737   -6.1190 C   0  0  2  0  0  0  0  0  0  0  0  0
  -30.7953  -14.3397   -6.3291 C   0  0  1  0  0  0  0  0  0  0  0  0
  -30.0938  -15.6218   -6.8629 C   0  0  0  0  0  0  0  0  0  0  0  0
  -26.4889  -11.1758   -6.1495 C   0  0  1  0  0  0  0  0  0  0  0  0
  -27.3743   -9.8362   -6.2726 C   0  0  0  0  0  0  0  0  0  0  0  0
  -28.9015  -10.2224   -6.5400 C   0  0  2  0  0  0  0  0  0  0  0  0
  -32.9261  -15.0287   -7.3831 F   0  0  0  0  0  0  0  0  0  0  0  0
  -33.5504  -10.8801   -6.2329 N   0  0  0  0  0  0  0  0  0  0  0  0
  -28.7067  -15.4852   -7.0991 N   0  0  0  0  0  0  0  0  0  0  0  0
  -25.0696  -10.7479   -5.9020 N   0  0  0  0  0  0  0  0  0  0  0  0
  -29.7081   -8.9897   -6.6502 N   0  0  0  0  0  0  0  0  0  0  0  0
  -30.7882  -11.4038   -5.6369 O   0  0  0  0  0  0  0  0  0  0  0  0
  -29.1287  -13.1898   -4.0570 O   0  0  0  0  0  0  0  0  0  0  0  0
  -26.3465  -13.2002   -4.7614 O   0  0  0  0  0  0  0  0  0  0  0  0
  -34.1590  -13.5068   -5.5326 O   0  0  0  0  0  0  0  0  0  0  0  0
  -30.6563  -13.1484   -7.2943 O   0  0  0  0  0  0  0  0  0  0  0  0
  1  5  1  0  0  0  0
  1 18  1  1  0  0  0
  2 18  1  6  0  0  0
  2  3  1  0  0  0  0
  2 12  1  0  0  0  0
  3 19  1  1  0  0  0
  3  4  1  0  0  0  0
  4 20  1  6  0  0  0
  4 10  1  0  0  0  0
  5  6  1  0  0  0  0
  5 14  1  1  0  0  0
  6 21  1  6  0  0  0
  7 13  1  6  0  0  0
  7  6  1  0  0  0  0
  8  9  1  6  0  0  0
  8  7  1  0  0  0  0
 10 16  1  1  0  0  0
 11 10  1  0  0  0  0
 12 17  1  1  0  0  0
 12 11  1  0  0  0  0
 15  9  1  0  0  0  0
 22  8  1  0  0  0  0
 22  1  1  0  0  0  0
M  END
>  <CHROM.1>
176.77172500,-74.72684439,179.00871411,-30.02169330,-12.52211681,-6.06997396
2.75168911,0.11660776,-3.11038957

>  <Name>
lig.pdb

>  <RI>
0

>  <Rbt.Current_Directory>
/home/itssahil/PROJECTS/Mol_Feturizer/New_Systems/rnas/5bws

>  <Rbt.Executable>
rbdock ($Id: //depot/dev/client3/rdock/2013.1/src/exe/rbdock.cxx#4 $)

>  <Rbt.Library>
libRbt.so (2013.1, Build901 2013/11/27)

>  <Rbt.Parameter_File>
/export/apps/rDock/src/rDock_2013.1_src/data/scripts/dock_solv.prm

>  <Rbt.Receptor>
prm/blind_docking_80.prm

>  <SCORE>
-3.12525

>  <SCORE.INTER>
-0.900041

>  <SCORE.INTER.CONST>
1

>  <SCORE.INTER.POLAR>
0

>  <SCORE.INTER.ROT>
3

>  <SCORE.INTER.SOLV>
18.1679

>  <SCORE.INTER.VDW>
-12.256

>  <SCORE.INTER.norm>
-0.0409109

>  <SCORE.INTRA>
-2.22521

>  <SCORE.INTRA.DIHEDRAL>
-5.0324

>  <SCORE.INTRA.DIHEDRAL.0>
6.10773

>  <SCORE.INTRA.POLAR>
0

>  <SCORE.INTRA.POLAR.0>
0

>  <SCORE.INTRA.REPUL>
0

>  <SCORE.INTRA.REPUL.0>
0

>  <SCORE.INTRA.SOLV>
0.752793

>  <SCORE.INTRA.SOLV.lig_0>
-71.4024

>  <SCORE.INTRA.VDW>
-0.0854054

>  <SCORE.INTRA.VDW.0>
-1.86213

>  <SCORE.INTRA.norm>
-0.101146

>  <SCORE.RESTR>
0

>  <SCORE.RESTR.CAVITY>
0

>  <SCORE.RESTR.norm>
0

>  <SCORE.SYSTEM>
0

>  <SCORE.SYSTEM.CONST>
0

>  <SCORE.SYSTEM.DIHEDRAL>
0

>  <SCORE.SYSTEM.SOLV>
0

>  <SCORE.SYSTEM.norm>
0

>  <SCORE.heavy>
22

>  <SCORE.norm>
-0.142057

>  <RMSD>
27.971

$$$$
lig.pdb
 OpenBabel11021811523D
libRbt.so/2013.1/901 2013/11/27
 22 23  0  0  0  0  0  0  0  0999 V2000
  -30.0283  -14.3533   -7.2408 C   0  0  1  0  0  0  0  0  0  0  0  0
  -27.8037  -13.3261   -7.8632 C   0  0  1  0  0  0  0  0  0  0  0  0
  -27.0971  -14.6752   -8.3299 C   0  0  1  0  0  0  0  0  0  0  0  0
  -25.5191  -14.4598   -8.2361 C   0  0  2  0  0  0  0  0  0  0  0  0
  -31.5537  -14.0629   -7.5219 C   0  0  1  0  0  0  0  0  0  0  0  0
  -31.8719  -12.6462   -7.0042 C   0  0  2  0  0  0  0  0  0  0  0  0
  -31.6311  -12.5495   -5.4873 C   0  0  2  0  0  0  0  0  0  0  0  0
  -30.1324  -12.8608   -5.1278 C   0  0  1  0  0  0  0  0  0  0  0  0
  -29.8967  -12.8186   -3.5905 C   0  0  0  0  0  0  0  0  0  0  0  0
  -25.0854  -13.2796   -9.2466 C   0  0  1  0  0  0  0  0  0  0  0  0
  -25.8186  -11.9361   -8.7457 C   0  0  0  0  0  0  0  0  0  0  0  0
  -27.4030  -12.1371   -8.7933 C   0  0  2  0  0  0  0  0  0  0  0  0
  -32.4985  -13.4980   -4.7792 F   0  0  0  0  0  0  0  0  0  0  0  0
  -31.7799  -14.1825   -9.0146 N   0  0  0  0  0  0  0  0  0  0  0  0
  -30.5657  -13.8267   -2.8592 N   0  0  0  0  0  0  0  0  0  0  0  0
  -23.6052  -13.0276   -9.1813 N   0  0  0  0  0  0  0  0  0  0  0  0
  -28.0690  -10.9022   -8.3311 N   0  0  0  0  0  0  0  0  0  0  0  0
  -29.2147  -13.4623   -7.9375 O   0  0  0  0  0  0  0  0  0  0  0  0
  -27.5096  -15.7518   -7.3988 O   0  0  0  0  0  0  0  0  0  0  0  0
  -24.9240  -15.6570   -8.6406 O   0  0  0  0  0  0  0  0  0  0  0  0
  -32.9847  -12.4375   -7.2081 O   0  0  0  0  0  0  0  0  0  0  0  0
  -29.8087  -14.2382   -5.7346 O   0  0  0  0  0  0  0  0  0  0  0  0
  1  5  1  0  0  0  0
  1 18  1  6  0  0  0
  2 18  1  6  0  0  0
  2  3  1  0  0  0  0
  2 12  1  0  0  0  0
  3 19  1  1  0  0  0
  3  4  1  0  0  0  0
  4 20  1  6  0  0  0
  4 10  1  0  0  0  0
  5  6  1  0  0  0  0
  5 14  1  6  0  0  0
  6 21  1  1  0  0  0
  7 13  1  1  0  0  0
  7  6  1  0  0  0  0
  8  9  1  1  0  0  0
  8  7  1  0  0  0  0
 10 16  1  1  0  0  0
 11 10  1  0  0  0  0
 12 17  1  1  0  0  0
 12 11  1  0  0  0  0
 15  9  1  0  0  0  0
 22  8  1  0  0  0  0
 22  1  1  0  0  0  0
M  END
>  <CHROM.1>
174.34322759,61.93401389,65.89882033,-28.91492180,-13.48689319,-7.15246007
2.71020294,-0.20958056,1.85034108

>  <Name>
lig.pdb

>  <RI>
0

>  <Rbt.Current_Directory>
/home/itssahil/PROJECTS/Mol_Feturizer/New_Systems/rnas/5bws

>  <Rbt.Executable>
rbdock ($Id: //depot/dev/client3/rdock/2013.1/src/exe/rbdock.cxx#4 $)

>  <Rbt.Library>
libRbt.so (2013.1, Build901 2013/11/27)

>  <Rbt.Parameter_File>
/export/apps/rDock/src/rDock_2013.1_src/data/scripts/dock_solv.prm

>  <Rbt.Receptor>
prm/blind_docking_100.prm

>  <SCORE>
-4.14609

>  <SCORE.INTER>
-1.58039

>  <SCORE.INTER.CONST>
1

>  <SCORE.INTER.POLAR>
0

>  <SCORE.INTER.ROT>
3

>  <SCORE.INTER.SOLV>
17.3547

>  <SCORE.INTER.VDW>
-12.4385

>  <SCORE.INTER.norm>
-0.0718359

>  <SCORE.INTRA>
-2.5657

>  <SCORE.INTRA.DIHEDRAL>
-5.80549

>  <SCORE.INTRA.DIHEDRAL.0>
6.10773

>  <SCORE.INTRA.POLAR>
0

>  <SCORE.INTRA.POLAR.0>
0

>  <SCORE.INTRA.REPUL>
0

>  <SCORE.INTRA.REPUL.0>
0

>  <SCORE.INTRA.SOLV>
0.0891553

>  <SCORE.INTRA.SOLV.lig_0>
-71.4024

>  <SCORE.INTRA.VDW>
0.292469

>  <SCORE.INTRA.VDW.0>
-1.86213

>  <SCORE.INTRA.norm>
-0.116623

>  <SCORE.RESTR>
0

>  <SCORE.RESTR.CAVITY>
0

>  <SCORE.RESTR.norm>
0

>  <SCORE.SYSTEM>
0

>  <SCORE.SYSTEM.CONST>
0

>  <SCORE.SYSTEM.DIHEDRAL>
0

>  <SCORE.SYSTEM.SOLV>
0

>  <SCORE.SYSTEM.norm>
0

>  <SCORE.heavy>
22

>  <SCORE.norm>
-0.188458

>  <RMSD>
27.999

$$$$
lig.pdb
 OpenBabel11021811523D
libRbt.so/2013.1/901 2013/11/27
 22 23  0  0  0  0  0  0  0  0999 V2000
  -28.3268  -11.5436   -6.9996 C   0  0  1  0  0  0  0  0  0  0  0  0
  -30.0632  -13.3800   -6.9341 C   0  0  1  0  0  0  0  0  0  0  0  0
  -31.3361  -12.4902   -6.5808 C   0  0  1  0  0  0  0  0  0  0  0  0
  -32.4212  -13.4374   -5.8949 C   0  0  2  0  0  0  0  0  0  0  0  0
  -27.4085  -10.8587   -8.0848 C   0  0  1  0  0  0  0  0  0  0  0  0
  -26.4087  -11.9142   -8.5972 C   0  0  2  0  0  0  0  0  0  0  0  0
  -25.5125  -12.4217   -7.4536 C   0  0  2  0  0  0  0  0  0  0  0  0
  -26.3664  -13.0900   -6.3150 C   0  0  1  0  0  0  0  0  0  0  0  0
  -25.4698  -13.5549   -5.1315 C   0  0  0  0  0  0  0  0  0  0  0  0
  -32.8693  -14.5760   -6.9461 C   0  0  1  0  0  0  0  0  0  0  0  0
  -31.5597  -15.4517   -7.2802 C   0  0  0  0  0  0  0  0  0  0  0  0
  -30.4400  -14.5185   -7.9346 C   0  0  2  0  0  0  0  0  0  0  0  0
  -24.7458  -11.3078   -6.8838 F   0  0  0  0  0  0  0  0  0  0  0  0
  -28.3050  -10.3457   -9.1923 N   0  0  0  0  0  0  0  0  0  0  0  0
  -26.1645  -14.1763   -4.0686 N   0  0  0  0  0  0  0  0  0  0  0  0
  -33.8813  -15.5061   -6.3381 N   0  0  0  0  0  0  0  0  0  0  0  0
  -29.2414  -15.3273   -8.2369 N   0  0  0  0  0  0  0  0  0  0  0  0
  -29.0676  -12.5832   -7.5579 O   0  0  0  0  0  0  0  0  0  0  0  0
  -30.9095  -11.4444   -5.6212 O   0  0  0  0  0  0  0  0  0  0  0  0
  -33.5212  -12.6336   -5.5869 O   0  0  0  0  0  0  0  0  0  0  0  0
  -25.7389  -11.4121   -9.3864 O   0  0  0  0  0  0  0  0  0  0  0  0
  -27.4181  -12.0518   -5.8833 O   0  0  0  0  0  0  0  0  0  0  0  0
  1  5  1  0  0  0  0
  1 18  1  6  0  0  0
  2 18  1  6  0  0  0
  2  3  1  0  0  0  0
  2 12  1  0  0  0  0
  3 19  1  1  0  0  0
  3  4  1  0  0  0  0
  4 20  1  6  0  0  0
  4 10  1  0  0  0  0
  5  6  1  0  0  0  0
  5 14  1  6  0  0  0
  6 21  1  6  0  0  0
  7 13  1  1  0  0  0
  7  6  1  0  0  0  0
  8  9  1  1  0  0  0
  8  7  1  0  0  0  0
 10 16  1  1  0  0  0
 11 10  1  0  0  0  0
 12 17  1  1  0  0  0
 12 11  1  0  0  0  0
 15  9  1  0  0  0  0
 22  8  1  0  0  0  0
 22  1  1  0  0  0  0
M  END
>  <CHROM.1>
-175.61052962,66.68927730,-179.57415376,-28.90220002,-12.85950748,-6.93757836
0.29275106,-0.14113697,-0.78433425

>  <Name>
lig.pdb

>  <RI>
0

>  <Rbt.Current_Directory>
/home/itssahil/PROJECTS/Mol_Feturizer/New_Systems/rnas/5bws

>  <Rbt.Executable>
rbdock ($Id: //depot/dev/client3/rdock/2013.1/src/exe/rbdock.cxx#4 $)

>  <Rbt.Library>
libRbt.so (2013.1, Build901 2013/11/27)

>  <Rbt.Parameter_File>
/export/apps/rDock/src/rDock_2013.1_src/data/scripts/dock_solv.prm

>  <Rbt.Receptor>
prm/blind_docking_100.prm

>  <SCORE>
-2.81675

>  <SCORE.INTER>
0.53843

>  <SCORE.INTER.CONST>
1

>  <SCORE.INTER.POLAR>
0

>  <SCORE.INTER.ROT>
3

>  <SCORE.INTER.SOLV>
21.5169

>  <SCORE.INTER.VDW>
-12.4133

>  <SCORE.INTER.norm>
0.0244741

>  <SCORE.INTRA>
-3.35518

>  <SCORE.INTRA.DIHEDRAL>
-5.79134

>  <SCORE.INTRA.DIHEDRAL.0>
6.10773

>  <SCORE.INTRA.POLAR>
0

>  <SCORE.INTRA.POLAR.0>
0

>  <SCORE.INTRA.REPUL>
0

>  <SCORE.INTRA.REPUL.0>
0

>  <SCORE.INTRA.SOLV>
-1.49746

>  <SCORE.INTRA.SOLV.lig_0>
-71.4024

>  <SCORE.INTRA.VDW>
0.289226

>  <SCORE.INTRA.VDW.0>
-1.86213

>  <SCORE.INTRA.norm>
-0.152508

>  <SCORE.RESTR>
0

>  <SCORE.RESTR.CAVITY>
0

>  <SCORE.RESTR.norm>
0

>  <SCORE.SYSTEM>
0

>  <SCORE.SYSTEM.CONST>
0

>  <SCORE.SYSTEM.DIHEDRAL>
0

>  <SCORE.SYSTEM.SOLV>
0

>  <SCORE.SYSTEM.norm>
0

>  <SCORE.heavy>
22

>  <SCORE.norm>
-0.128034

>  <RMSD>
28.011

$$$$
lig.pdb
 OpenBabel11021811523D
libRbt.so/2013.1/901 2013/11/27
 22 23  0  0  0  0  0  0  0  0999 V2000
  -29.4482  -15.1013   -8.7635 C   0  0  1  0  0  0  0  0  0  0  0  0
  -27.5999  -13.4458   -8.2795 C   0  0  1  0  0  0  0  0  0  0  0  0
  -26.6529  -13.9462   -9.4584 C   0  0  1  0  0  0  0  0  0  0  0  0
  -25.1632  -13.4870   -9.1189 C   0  0  2  0  0  0  0  0  0  0  0  0
  -31.0260  -15.0897   -8.7881 C   0  0  1  0  0  0  0  0  0  0  0  0
  -31.5204  -14.6363   -7.4002 C   0  0  2  0  0  0  0  0  0  0  0  0
  -31.0593  -15.6159   -6.3065 C   0  0  2  0  0  0  0  0  0  0  0  0
  -29.4906  -15.7043   -6.2460 C   0  0  1  0  0  0  0  0  0  0  0  0
  -29.0207  -16.7350   -5.1794 C   0  0  0  0  0  0  0  0  0  0  0  0
  -25.1056  -11.8758   -9.0660 C   0  0  1  0  0  0  0  0  0  0  0  0
  -26.0739  -11.4079   -7.8672 C   0  0  0  0  0  0  0  0  0  0  0  0
  -27.5686  -11.8886   -8.1631 C   0  0  2  0  0  0  0  0  0  0  0  0
  -31.6029  -16.9535   -6.5682 F   0  0  0  0  0  0  0  0  0  0  0  0
  -31.4646  -14.1388   -9.8820 N   0  0  0  0  0  0  0  0  0  0  0  0
  -29.3795  -16.4184   -3.8492 N   0  0  0  0  0  0  0  0  0  0  0  0
  -23.7217  -11.3942   -8.7317 N   0  0  0  0  0  0  0  0  0  0  0  0
  -28.4509  -11.4579   -7.0594 N   0  0  0  0  0  0  0  0  0  0  0  0
  -28.9438  -13.8222   -8.5388 O   0  0  0  0  0  0  0  0  0  0  0  0
  -26.7209  -15.4260   -9.5010 O   0  0  0  0  0  0  0  0  0  0  0  0
  -24.3529  -13.9448  -10.1604 O   0  0  0  0  0  0  0  0  0  0  0  0
  -32.6706  -14.6307   -7.4196 O   0  0  0  0  0  0  0  0  0  0  0  0
  -29.0129  -16.0666   -7.6640 O   0  0  0  0  0  0  0  0  0  0  0  0
  1  5  1  0  0  0  0
  1 18  1  1  0  0  0
  2 18  1  6  0  0  0
  2  3  1  0  0  0  0
  2 12  1  0  0  0  0
  3 19  1  1  0  0  0
  3  4  1  0  0  0  0
  4 20  1  6  0  0  0
  4 10  1  0  0  0  0
  5  6  1  0  0  0  0
  5 14  1  6  0  0  0
  6 21  1  6  0  0  0
  7 13  1  6  0  0  0
  7  6  1  0  0  0  0
  8  9  1  1  0  0  0
  8  7  1  0  0  0  0
 10 16  1  1  0  0  0
 11 10  1  0  0  0  0
 12 17  1  1  0  0  0
 12 11  1  0  0  0  0
 15  9  1  0  0  0  0
 22  8  1  0  0  0  0
 22  1  1  0  0  0  0
M  END
>  <CHROM.1>
171.22531546,56.84551768,-63.04955350,-28.50289870,-14.30124441,-7.90395748
2.55777255,0.14991436,2.30297516

>  <Name>
lig.pdb

>  <RI>
0

>  <Rbt.Current_Directory>
/home/itssahil/PROJECTS/Mol_Feturizer/New_Systems/rnas/5bws

>  <Rbt.Executable>
rbdock ($Id: //depot/dev/client3/rdock/2013.1/src/exe/rbdock.cxx#4 $)

>  <Rbt.Library>
libRbt.so (2013.1, Build901 2013/11/27)

>  <Rbt.Parameter_File>
/export/apps/rDock/src/rDock_2013.1_src/data/scripts/dock_solv.prm

>  <Rbt.Receptor>
prm/blind_docking_60.prm

>  <SCORE>
-5.76407

>  <SCORE.INTER>
-2.86311

>  <SCORE.INTER.CONST>
1

>  <SCORE.INTER.POLAR>
0

>  <SCORE.INTER.ROT>
3

>  <SCORE.INTER.SOLV>
17.6327

>  <SCORE.INTER.VDW>
-13.3863

>  <SCORE.INTER.norm>
-0.130141

>  <SCORE.INTRA>
-2.90096

>  <SCORE.INTRA.DIHEDRAL>
-5.64897

>  <SCORE.INTRA.DIHEDRAL.0>
6.10773

>  <SCORE.INTRA.POLAR>
0

>  <SCORE.INTRA.POLAR.0>
0

>  <SCORE.INTRA.REPUL>
0

>  <SCORE.INTRA.REPUL.0>
0

>  <SCORE.INTRA.SOLV>
-1.17677

>  <SCORE.INTRA.SOLV.lig_0>
-71.4024

>  <SCORE.INTRA.VDW>
0.511906

>  <SCORE.INTRA.VDW.0>
-1.86213

>  <SCORE.INTRA.norm>
-0.131862

>  <SCORE.RESTR>
0

>  <SCORE.RESTR.CAVITY>
0

>  <SCORE.RESTR.norm>
0

>  <SCORE.SYSTEM>
0

>  <SCORE.SYSTEM.CONST>
0

>  <SCORE.SYSTEM.DIHEDRAL>
0

>  <SCORE.SYSTEM.SOLV>
0

>  <SCORE.SYSTEM.norm>
0

>  <SCORE.heavy>
22

>  <SCORE.norm>
-0.262003

>  <RMSD>
28.080

$$$$
lig.pdb
 OpenBabel11021811523D
libRbt.so/2013.1/901 2013/11/27
 22 23  0  0  0  0  0  0  0  0999 V2000
  -28.8850  -15.9474   -7.7211 C   0  0  1  0  0  0  0  0  0  0  0  0
  -27.0090  -15.1794   -6.2105 C   0  0  1  0  0  0  0  0  0  0  0  0
  -25.7772  -15.3320   -7.2086 C   0  0  1  0  0  0  0  0  0  0  0  0
  -24.4558  -15.5106   -6.3326 C   0  0  2  0  0  0  0  0  0  0  0  0
  -30.1209  -15.2940   -8.4531 C   0  0  1  0  0  0  0  0  0  0  0  0
  -31.1056  -14.7991   -7.3752 C   0  0  2  0  0  0  0  0  0  0  0  0
  -31.6139  -15.9711   -6.5169 C   0  0  2  0  0  0  0  0  0  0  0  0
  -30.4276  -16.6937   -5.7803 C   0  0  1  0  0  0  0  0  0  0  0  0
  -30.9302  -17.9133   -4.9553 C   0  0  0  0  0  0  0  0  0  0  0  0
  -24.2296  -14.1857   -5.4405 C   0  0  1  0  0  0  0  0  0  0  0  0
  -25.4921  -14.0638   -4.4481 C   0  0  0  0  0  0  0  0  0  0  0  0
  -26.8359  -13.9218   -5.3007 C   0  0  2  0  0  0  0  0  0  0  0  0
  -32.3154  -16.9450   -7.3610 F   0  0  0  0  0  0  0  0  0  0  0  0
  -29.6034  -14.1574   -9.3096 N   0  0  0  0  0  0  0  0  0  0  0  0
  -31.7728  -17.5880   -3.8677 N   0  0  0  0  0  0  0  0  0  0  0  0
  -23.0022  -14.3136   -4.5828 N   0  0  0  0  0  0  0  0  0  0  0  0
  -27.9897  -13.8121   -4.3847 N   0  0  0  0  0  0  0  0  0  0  0  0
  -28.2130  -15.0075   -6.9425 O   0  0  0  0  0  0  0  0  0  0  0  0
  -26.0010  -16.5473   -8.0267 O   0  0  0  0  0  0  0  0  0  0  0  0
  -23.3937  -15.6514   -7.2289 O   0  0  0  0  0  0  0  0  0  0  0  0
  -32.0066  -14.3254   -7.9110 O   0  0  0  0  0  0  0  0  0  0  0  0
  -29.4125  -17.0963   -6.8656 O   0  0  0  0  0  0  0  0  0  0  0  0
  1  5  1  0  0  0  0
  1 18  1  1  0  0  0
  2 18  1  6  0  0  0
  2  3  1  0  0  0  0
  2 12  1  0  0  0  0
  3 19  1  6  0  0  0
  3  4  1  0  0  0  0
  4 20  1  6  0  0  0
  4 10  1  0  0  0  0
  5  6  1  0  0  0  0
  5 14  1  1  0  0  0
  6 21  1  6  0  0  0
  7 13  1  6  0  0  0
  7  6  1  0  0  0  0
  8  9  1  6  0  0  0
  8  7  1  0  0  0  0
 10 16  1  1  0  0  0
 11 10  1  0  0  0  0
 12 17  1  1  0  0  0
 12 11  1  0  0  0  0
 15  9  1  0  0  0  0
 22  8  1  0  0  0  0
 22  1  1  0  0  0  0
M  END
>  <CHROM.1>
-175.30090641,69.93730140,-65.65160278,-28.26650826,-15.50381362,-6.50300715
-3.06766183,0.22055573,1.80712745

>  <Name>
lig.pdb

>  <RI>
0

>  <Rbt.Current_Directory>
/home/itssahil/PROJECTS/Mol_Feturizer/New_Systems/rnas/5bws

>  <Rbt.Executable>
rbdock ($Id: //depot/dev/client3/rdock/2013.1/src/exe/rbdock.cxx#4 $)

>  <Rbt.Library>
libRbt.so (2013.1, Build901 2013/11/27)

>  <Rbt.Parameter_File>
/export/apps/rDock/src/rDock_2013.1_src/data/scripts/dock_solv.prm

>  <Rbt.Receptor>
prm/blind_docking_60.prm

>  <SCORE>
-6.55073

>  <SCORE.INTER>
-3.60191

>  <SCORE.INTER.CONST>
1

>  <SCORE.INTER.POLAR>
0

>  <SCORE.INTER.ROT>
3

>  <SCORE.INTER.SOLV>
14.6617

>  <SCORE.INTER.VDW>
-12.8885

>  <SCORE.INTER.norm>
-0.163723

>  <SCORE.INTRA>
-2.94881

>  <SCORE.INTRA.DIHEDRAL>
-5.40526

>  <SCORE.INTRA.DIHEDRAL.0>
6.10773

>  <SCORE.INTRA.POLAR>
0

>  <SCORE.INTRA.POLAR.0>
0

>  <SCORE.INTRA.REPUL>
0

>  <SCORE.INTRA.REPUL.0>
0

>  <SCORE.INTRA.SOLV>
-1.00311

>  <SCORE.INTRA.SOLV.lig_0>
-71.4024

>  <SCORE.INTRA.VDW>
0.255369

>  <SCORE.INTRA.VDW.0>
-1.86213

>  <SCORE.INTRA.norm>
-0.134037

>  <SCORE.RESTR>
0

>  <SCORE.RESTR.CAVITY>
0

>  <SCORE.RESTR.norm>
0

>  <SCORE.SYSTEM>
0

>  <SCORE.SYSTEM.CONST>
0

>  <SCORE.SYSTEM.DIHEDRAL>
0

>  <SCORE.SYSTEM.SOLV>
0

>  <SCORE.SYSTEM.norm>
0

>  <SCORE.heavy>
22

>  <SCORE.norm>
-0.29776

>  <RMSD>
28.089

$$$$
lig.pdb
 OpenBabel11021811523D
libRbt.so/2013.1/901 2013/11/27
 22 23  0  0  0  0  0  0  0  0999 V2000
  -29.4930  -13.5366   -7.5513 C   0  0  1  0  0  0  0  0  0  0  0  0
  -29.3004  -14.2712   -5.1400 C   0  0  1  0  0  0  0  0  0  0  0  0
  -30.7182  -14.9891   -5.0324 C   0  0  1  0  0  0  0  0  0  0  0  0
  -31.1281  -15.0361   -3.4913 C   0  0  2  0  0  0  0  0  0  0  0  0
  -28.8418  -13.9408   -8.9307 C   0  0  1  0  0  0  0  0  0  0  0  0
  -27.3612  -13.5125   -8.9019 C   0  0  2  0  0  0  0  0  0  0  0  0
  -27.2344  -11.9880   -8.7336 C   0  0  2  0  0  0  0  0  0  0  0  0
  -27.8940  -11.5067   -7.3899 C   0  0  1  0  0  0  0  0  0  0  0  0
  -27.8172   -9.9598   -7.2419 C   0  0  0  0  0  0  0  0  0  0  0  0
  -30.0460  -15.9179   -2.6829 C   0  0  1  0  0  0  0  0  0  0  0  0
  -28.6290  -15.1642   -2.8155 C   0  0  0  0  0  0  0  0  0  0  0  0
  -28.2113  -15.0691   -4.3548 C   0  0  2  0  0  0  0  0  0  0  0  0
  -27.8843  -11.3026   -9.8566 F   0  0  0  0  0  0  0  0  0  0  0  0
  -28.9930  -15.4390   -9.0923 N   0  0  0  0  0  0  0  0  0  0  0  0
  -28.3875   -9.4479   -6.0539 N   0  0  0  0  0  0  0  0  0  0  0  0
  -30.3811  -15.9776   -1.2190 N   0  0  0  0  0  0  0  0  0  0  0  0
  -26.9121  -14.3754   -4.4695 N   0  0  0  0  0  0  0  0  0  0  0  0
  -28.8841  -14.2120   -6.4958 O   0  0  0  0  0  0  0  0  0  0  0  0
  -31.7006  -14.1736   -5.7849 O   0  0  0  0  0  0  0  0  0  0  0  0
  -32.3759  -15.6602   -3.4247 O   0  0  0  0  0  0  0  0  0  0  0  0
  -26.8891  -13.8060   -9.9091 O   0  0  0  0  0  0  0  0  0  0  0  0
  -29.3436  -12.0252   -7.3981 O   0  0  0  0  0  0  0  0  0  0  0  0
  1  5  1  0  0  0  0
  1 18  1  1  0  0  0
  2 18  1  6  0  0  0
  2  3  1  0  0  0  0
  2 12  1  0  0  0  0
  3 19  1  6  0  0  0
  3  4  1  0  0  0  0
  4 20  1  6  0  0  0
  4 10  1  0  0  0  0
  5  6  1  0  0  0  0
  5 14  1  1  0  0  0
  6 21  1  6  0  0  0
  7 13  1  6  0  0  0
  7  6  1  0  0  0  0
  8  9  1  6  0  0  0
  8  7  1  0  0  0  0
 10 16  1  1  0  0  0
 11 10  1  0  0  0  0
 12 17  1  1  0  0  0
 12 11  1  0  0  0  0
 15  9  1  0  0  0  0
 22  8  1  0  0  0  0
 22  1  1  0  0  0  0
M  END
>  <CHROM.1>
-170.14069814,63.39300811,-179.83319185,-29.02712549,-13.65772655,-6.25102808
0.39737107,-1.15890599,-2.17485623

>  <Name>
lig.pdb

>  <RI>
0

>  <Rbt.Current_Directory>
/home/itssahil/PROJECTS/Mol_Feturizer/New_Systems/rnas/5bws

>  <Rbt.Executable>
rbdock ($Id: //depot/dev/client3/rdock/2013.1/src/exe/rbdock.cxx#4 $)

>  <Rbt.Library>
libRbt.so (2013.1, Build901 2013/11/27)

>  <Rbt.Parameter_File>
/export/apps/rDock/src/rDock_2013.1_src/data/scripts/dock_solv.prm

>  <Rbt.Receptor>
prm/blind_docking_100.prm

>  <SCORE>
-3.2909

>  <SCORE.INTER>
-0.121556

>  <SCORE.INTER.CONST>
1

>  <SCORE.INTER.POLAR>
0

>  <SCORE.INTER.ROT>
3

>  <SCORE.INTER.SOLV>
12.5488

>  <SCORE.INTER.VDW>
-9.86398

>  <SCORE.INTER.norm>
-0.00552527

>  <SCORE.INTRA>
-3.16934

>  <SCORE.INTRA.DIHEDRAL>
-5.57927

>  <SCORE.INTRA.DIHEDRAL.0>
6.10773

>  <SCORE.INTRA.POLAR>
0

>  <SCORE.INTRA.POLAR.0>
0

>  <SCORE.INTRA.REPUL>
0

>  <SCORE.INTRA.REPUL.0>
0

>  <SCORE.INTRA.SOLV>
-1.53421

>  <SCORE.INTRA.SOLV.lig_0>
-71.4024

>  <SCORE.INTRA.VDW>
0.3874

>  <SCORE.INTRA.VDW.0>
-1.86213

>  <SCORE.INTRA.norm>
-0.144061

>  <SCORE.RESTR>
0

>  <SCORE.RESTR.CAVITY>
0

>  <SCORE.RESTR.norm>
0

>  <SCORE.SYSTEM>
0

>  <SCORE.SYSTEM.CONST>
0

>  <SCORE.SYSTEM.DIHEDRAL>
0

>  <SCORE.SYSTEM.SOLV>
0

>  <SCORE.SYSTEM.norm>
0

>  <SCORE.heavy>
22

>  <SCORE.norm>
-0.149586

>  <RMSD>
28.101

$$$$
lig.pdb
 OpenBabel11021811523D
libRbt.so/2013.1/901 2013/11/27
 22 23  0  0  0  0  0  0  0  0999 V2000
  -27.0308  -14.3264   -6.3188 C   0  0  1  0  0  0  0  0  0  0  0  0
  -28.5872  -16.3186   -6.3223 C   0  0  1  0  0  0  0  0  0  0  0  0
  -29.4221  -16.1571   -4.9755 C   0  0  1  0  0  0  0  0  0  0  0  0
  -30.8298  -16.8791   -5.1818 C   0  0  2  0  0  0  0  0  0  0  0  0
  -25.5600  -14.0207   -5.8357 C   0  0  1  0  0  0  0  0  0  0  0  0
  -25.4669  -14.3770   -4.3388 C   0  0  2  0  0  0  0  0  0  0  0  0
  -26.4384  -13.5189   -3.5091 C   0  0  2  0  0  0  0  0  0  0  0  0
  -27.9273  -13.7478   -3.9599 C   0  0  1  0  0  0  0  0  0  0  0  0
  -28.9079  -12.8412   -3.1616 C   0  0  0  0  0  0  0  0  0  0  0  0
  -31.6322  -16.1430   -6.3720 C   0  0  1  0  0  0  0  0  0  0  0  0
  -30.7592  -16.3251   -7.7130 C   0  0  0  0  0  0  0  0  0  0  0  0
  -29.3272  -15.6431   -7.5204 C   0  0  2  0  0  0  0  0  0  0  0  0
  -26.1075  -12.0973   -3.6597 F   0  0  0  0  0  0  0  0  0  0  0  0
  -24.6148  -14.8552   -6.6744 N   0  0  0  0  0  0  0  0  0  0  0  0
  -29.2934  -13.3497   -1.9001 N   0  0  0  0  0  0  0  0  0  0  0  0
  -32.9617  -16.8001   -6.6159 N   0  0  0  0  0  0  0  0  0  0  0  0
  -28.5312  -15.8152   -8.7529 N   0  0  0  0  0  0  0  0  0  0  0  0
  -27.3247  -15.6826   -6.1940 O   0  0  0  0  0  0  0  0  0  0  0  0
  -28.6710  -16.8304   -3.8898 O   0  0  0  0  0  0  0  0  0  0  0  0
  -31.5376  -16.7318   -3.9867 O   0  0  0  0  0  0  0  0  0  0  0  0
  -24.3947  -14.1513   -3.9882 O   0  0  0  0  0  0  0  0  0  0  0  0
  -27.9776  -13.4772   -5.4746 O   0  0  0  0  0  0  0  0  0  0  0  0
  1  5  1  0  0  0  0
  1 18  1  1  0  0  0
  2 18  1  1  0  0  0
  2  3  1  0  0  0  0
  2 12  1  0  0  0  0
  3 19  1  1  0  0  0
  3  4  1  0  0  0  0
  4 20  1  1  0  0  0
  4 10  1  0  0  0  0
  5  6  1  0  0  0  0
  5 14  1  6  0  0  0
  6 21  1  1  0  0  0
  7 13  1  6  0  0  0
  7  6  1  0  0  0  0
  8  9  1  1  0  0  0
  8  7  1  0  0  0  0
 10 16  1  6  0  0  0
 11 10  1  0  0  0  0
 12 17  1  6  0  0  0
 12 11  1  0  0  0  0
 15  9  1  0  0  0  0
 22  8  1  0  0  0  0
 22  1  1  0  0  0  0
M  END
>  <CHROM.1>
169.35788223,-80.31774563,-83.30271128,-28.28901521,-14.96601766,-5.23940188
-0.48891076,-0.33784738,-2.01783894

>  <Name>
lig.pdb

>  <RI>
0

>  <Rbt.Current_Directory>
/home/itssahil/PROJECTS/Mol_Feturizer/New_Systems/rnas/5bws

>  <Rbt.Executable>
rbdock ($Id: //depot/dev/client3/rdock/2013.1/src/exe/rbdock.cxx#4 $)

>  <Rbt.Library>
libRbt.so (2013.1, Build901 2013/11/27)

>  <Rbt.Parameter_File>
/export/apps/rDock/src/rDock_2013.1_src/data/scripts/dock_solv.prm

>  <Rbt.Receptor>
prm/blind_docking_100.prm

>  <SCORE>
-3.20675

>  <SCORE.INTER>
-2.40195

>  <SCORE.INTER.CONST>
1

>  <SCORE.INTER.POLAR>
0

>  <SCORE.INTER.ROT>
3

>  <SCORE.INTER.SOLV>
16.209

>  <SCORE.INTER.VDW>
-12.6043

>  <SCORE.INTER.norm>
-0.10918

>  <SCORE.INTRA>
-0.804798

>  <SCORE.INTRA.DIHEDRAL>
-1.97489

>  <SCORE.INTRA.DIHEDRAL.0>
6.10773

>  <SCORE.INTRA.POLAR>
0

>  <SCORE.INTRA.POLAR.0>
0

>  <SCORE.INTRA.REPUL>
0

>  <SCORE.INTRA.REPUL.0>
0

>  <SCORE.INTRA.SOLV>
-0.0665766

>  <SCORE.INTRA.SOLV.lig_0>
-71.4024

>  <SCORE.INTRA.VDW>
0.215936

>  <SCORE.INTRA.VDW.0>
-1.86213

>  <SCORE.INTRA.norm>
-0.0365817

>  <SCORE.RESTR>
0

>  <SCORE.RESTR.CAVITY>
0

>  <SCORE.RESTR.norm>
0

>  <SCORE.SYSTEM>
0

>  <SCORE.SYSTEM.CONST>
0

>  <SCORE.SYSTEM.DIHEDRAL>
0

>  <SCORE.SYSTEM.SOLV>
0

>  <SCORE.SYSTEM.norm>
0

>  <SCORE.heavy>
22

>  <SCORE.norm>
-0.145761

>  <RMSD>
28.184

$$$$
lig.pdb
 OpenBabel11021811523D
libRbt.so/2013.1/901 2013/11/27
 22 23  0  0  0  0  0  0  0  0999 V2000
  -28.9901  -15.9653   -7.7945 C   0  0  1  0  0  0  0  0  0  0  0  0
  -27.1671  -15.1362   -6.2515 C   0  0  1  0  0  0  0  0  0  0  0  0
  -25.9096  -15.3138   -7.2128 C   0  0  1  0  0  0  0  0  0  0  0  0
  -24.6095  -15.4521   -6.2986 C   0  0  2  0  0  0  0  0  0  0  0  0
  -30.2157  -15.3471   -8.5728 C   0  0  1  0  0  0  0  0  0  0  0  0
  -31.2363  -14.8450   -7.5323 C   0  0  2  0  0  0  0  0  0  0  0  0
  -31.7496  -16.0064   -6.6627 C   0  0  2  0  0  0  0  0  0  0  0  0
  -30.5726  -16.6945   -5.8795 C   0  0  1  0  0  0  0  0  0  0  0  0
  -31.0786  -17.9042   -5.0420 C   0  0  0  0  0  0  0  0  0  0  0  0
  -24.4147  -14.0956   -5.4476 C   0  0  1  0  0  0  0  0  0  0  0  0
  -25.7025  -13.9491   -4.4917 C   0  0  0  0  0  0  0  0  0  0  0  0
  -27.0254  -13.8467   -5.3818 C   0  0  2  0  0  0  0  0  0  0  0  0
  -32.4134  -17.0089   -7.5039 F   0  0  0  0  0  0  0  0  0  0  0  0
  -29.6927  -14.2207   -9.4396 N   0  0  0  0  0  0  0  0  0  0  0  0
  -31.9581  -17.5696   -3.9869 N   0  0  0  0  0  0  0  0  0  0  0  0
  -23.2084  -14.1846   -4.5556 N   0  0  0  0  0  0  0  0  0  0  0  0
  -28.2025  -13.7142   -4.4992 N   0  0  0  0  0  0  0  0  0  0  0  0
  -28.3535  -14.9987   -7.0188 O   0  0  0  0  0  0  0  0  0  0  0  0
  -26.1046  -16.5582   -7.9936 O   0  0  0  0  0  0  0  0  0  0  0  0
  -23.5244  -15.6157   -7.1627 O   0  0  0  0  0  0  0  0  0  0  0  0
  -32.1297  -14.3969   -8.1018 O   0  0  0  0  0  0  0  0  0  0  0  0
  -29.5228  -17.1040   -6.9286 O   0  0  0  0  0  0  0  0  0  0  0  0
  1  5  1  0  0  0  0
  1 18  1  1  0  0  0
  2 18  1  6  0  0  0
  2  3  1  0  0  0  0
  2 12  1  0  0  0  0
  3 19  1  1  0  0  0
  3  4  1  0  0  0  0
  4 20  1  6  0  0  0
  4 10  1  0  0  0  0
  5  6  1  0  0  0  0
  5 14  1  1  0  0  0
  6 21  1  6  0  0  0
  7 13  1  6  0  0  0
  7  6  1  0  0  0  0
  8  9  1  6  0  0  0
  8  7  1  0  0  0  0
 10 16  1  1  0  0  0
 11 10  1  0  0  0  0
 12 17  1  1  0  0  0
 12 11  1  0  0  0  0
 15  9  1  0  0  0  0
 22  8  1  0  0  0  0
 22  1  1  0  0  0  0
M  END
>  <CHROM.1>
-175.30928873,69.04316051,-65.46710915,-28.41001411,-15.49084860,-6.57321606
-3.04569223,0.23988747,1.78504482

>  <Name>
lig.pdb

>  <RI>
0

>  <Rbt.Current_Directory>
/home/itssahil/PROJECTS/Mol_Feturizer/New_Systems/rnas/5bws

>  <Rbt.Executable>
rbdock ($Id: //depot/dev/client3/rdock/2013.1/src/exe/rbdock.cxx#4 $)

>  <Rbt.Library>
libRbt.so (2013.1, Build901 2013/11/27)

>  <Rbt.Parameter_File>
/export/apps/rDock/src/rDock_2013.1_src/data/scripts/dock_solv.prm

>  <Rbt.Receptor>
prm/blind_docking_100.prm

>  <SCORE>
-6.65785

>  <SCORE.INTER>
-3.67268

>  <SCORE.INTER.CONST>
1

>  <SCORE.INTER.POLAR>
0

>  <SCORE.INTER.ROT>
3

>  <SCORE.INTER.SOLV>
14.7014

>  <SCORE.INTER.VDW>
-12.9489

>  <SCORE.INTER.norm>
-0.16694

>  <SCORE.INTRA>
-2.98517

>  <SCORE.INTRA.DIHEDRAL>
-5.49327

>  <SCORE.INTRA.DIHEDRAL.0>
6.10773

>  <SCORE.INTRA.POLAR>
0

>  <SCORE.INTRA.POLAR.0>
0

>  <SCORE.INTRA.REPUL>
0

>  <SCORE.INTRA.REPUL.0>
0

>  <SCORE.INTRA.SOLV>
-1.021

>  <SCORE.INTRA.SOLV.lig_0>
-71.4024

>  <SCORE.INTRA.VDW>
0.271965

>  <SCORE.INTRA.VDW.0>
-1.86213

>  <SCORE.INTRA.norm>
-0.13569

>  <SCORE.RESTR>
0

>  <SCORE.RESTR.CAVITY>
0

>  <SCORE.RESTR.norm>
0

>  <SCORE.SYSTEM>
0

>  <SCORE.SYSTEM.CONST>
0

>  <SCORE.SYSTEM.DIHEDRAL>
0

>  <SCORE.SYSTEM.SOLV>
0

>  <SCORE.SYSTEM.norm>
0

>  <SCORE.heavy>
22

>  <SCORE.norm>
-0.30263

>  <RMSD>
28.214

$$$$
lig.pdb
 OpenBabel11021811523D
libRbt.so/2013.1/901 2013/11/27
 22 23  0  0  0  0  0  0  0  0999 V2000
  -29.0354  -15.9942   -7.7159 C   0  0  1  0  0  0  0  0  0  0  0  0
  -27.1855  -15.1799   -6.1973 C   0  0  1  0  0  0  0  0  0  0  0  0
  -25.9433  -15.3242   -7.1838 C   0  0  1  0  0  0  0  0  0  0  0  0
  -24.6264  -15.4717   -6.2954 C   0  0  2  0  0  0  0  0  0  0  0  0
  -30.2768  -15.3693   -8.4633 C   0  0  1  0  0  0  0  0  0  0  0  0
  -31.2784  -14.8820   -7.3976 C   0  0  2  0  0  0  0  0  0  0  0  0
  -31.7728  -16.0549   -6.5325 C   0  0  2  0  0  0  0  0  0  0  0  0
  -30.5798  -16.7498   -5.7802 C   0  0  1  0  0  0  0  0  0  0  0  0
  -31.0675  -17.9706   -4.9478 C   0  0  0  0  0  0  0  0  0  0  0  0
  -24.4286  -14.1333   -5.4168 C   0  0  1  0  0  0  0  0  0  0  0  0
  -25.7008  -14.0202   -4.4359 C   0  0  0  0  0  0  0  0  0  0  0  0
  -27.0398  -13.9094   -5.3007 C   0  0  2  0  0  0  0  0  0  0  0  0
  -32.4506  -17.0486   -7.3730 F   0  0  0  0  0  0  0  0  0  0  0  0
  -29.7725  -14.2315   -9.3262 N   0  0  0  0  0  0  0  0  0  0  0  0
  -31.9489  -17.6534   -3.8890 N   0  0  0  0  0  0  0  0  0  0  0  0
  -23.2062  -14.2318   -4.5479 N   0  0  0  0  0  0  0  0  0  0  0  0
  -28.2025  -13.8078   -4.3952 N   0  0  0  0  0  0  0  0  0  0  0  0
  -28.3861  -15.0356   -6.9408 O   0  0  0  0  0  0  0  0  0  0  0  0
  -26.1411  -16.5522   -7.9896 O   0  0  0  0  0  0  0  0  0  0  0  0
  -23.5550  -15.6057   -7.1815 O   0  0  0  0  0  0  0  0  0  0  0  0
  -32.1834  -14.4290   -7.9447 O   0  0  0  0  0  0  0  0  0  0  0  0
  -29.5494  -17.1443   -6.8538 O   0  0  0  0  0  0  0  0  0  0  0  0
  1  5  1  0  0  0  0
  1 18  1  1  0  0  0
  2 18  1  6  0  0  0
  2  3  1  0  0  0  0
  2 12  1  0  0  0  0
  3 19  1  1  0  0  0
  3  4  1  0  0  0  0
  4 20  1  6  0  0  0
  4 10  1  0  0  0  0
  5  6  1  0  0  0  0
  5 14  1  1  0  0  0
  6 21  1  6  0  0  0
  7 13  1  6  0  0  0
  7  6  1  0  0  0  0
  8  9  1  6  0  0  0
  8  7  1  0  0  0  0
 10 16  1  1  0  0  0
 11 10  1  0  0  0  0
 12 17  1  1  0  0  0
 12 11  1  0  0  0  0
 15  9  1  0  0  0  0
 22  8  1  0  0  0  0
 22  1  1  0  0  0  0
M  END
>  <CHROM.1>
-175.34503183,69.80573283,-64.24375872,-28.43544187,-15.52991623,-6.49785113
-3.06403011,0.23915813,1.79770313

>  <Name>
lig.pdb

>  <RI>
0

>  <Rbt.Current_Directory>
/home/itssahil/PROJECTS/Mol_Feturizer/New_Systems/rnas/5bws

>  <Rbt.Executable>
rbdock ($Id: //depot/dev/client3/rdock/2013.1/src/exe/rbdock.cxx#4 $)

>  <Rbt.Library>
libRbt.so (2013.1, Build901 2013/11/27)

>  <Rbt.Parameter_File>
/export/apps/rDock/src/rDock_2013.1_src/data/scripts/dock_solv.prm

>  <Rbt.Receptor>
prm/blind_docking_80.prm

>  <SCORE>
-6.70436

>  <SCORE.INTER>
-3.74227

>  <SCORE.INTER.CONST>
1

>  <SCORE.INTER.POLAR>
0

>  <SCORE.INTER.ROT>
3

>  <SCORE.INTER.SOLV>
14.6346

>  <SCORE.INTER.VDW>
-12.9731

>  <SCORE.INTER.norm>
-0.170103

>  <SCORE.INTRA>
-2.96209

>  <SCORE.INTRA.DIHEDRAL>
-5.46949

>  <SCORE.INTRA.DIHEDRAL.0>
6.10773

>  <SCORE.INTRA.POLAR>
0

>  <SCORE.INTRA.POLAR.0>
0

>  <SCORE.INTRA.REPUL>
0

>  <SCORE.INTRA.REPUL.0>
0

>  <SCORE.INTRA.SOLV>
-0.975836

>  <SCORE.INTRA.SOLV.lig_0>
-71.4024

>  <SCORE.INTRA.VDW>
0.260569

>  <SCORE.INTRA.VDW.0>
-1.86213

>  <SCORE.INTRA.norm>
-0.134641

>  <SCORE.RESTR>
0

>  <SCORE.RESTR.CAVITY>
0

>  <SCORE.RESTR.norm>
0

>  <SCORE.SYSTEM>
0

>  <SCORE.SYSTEM.CONST>
0

>  <SCORE.SYSTEM.DIHEDRAL>
0

>  <SCORE.SYSTEM.SOLV>
0

>  <SCORE.SYSTEM.norm>
0

>  <SCORE.heavy>
22

>  <SCORE.norm>
-0.304744

>  <RMSD>
28.235

$$$$
lig.pdb
 OpenBabel11021811523D
libRbt.so/2013.1/901 2013/11/27
 22 23  0  0  0  0  0  0  0  0999 V2000
  -29.0673  -16.0196   -7.6419 C   0  0  1  0  0  0  0  0  0  0  0  0
  -27.2017  -15.1841   -6.1543 C   0  0  1  0  0  0  0  0  0  0  0  0
  -25.9717  -15.3119   -7.1582 C   0  0  1  0  0  0  0  0  0  0  0  0
  -24.6410  -15.4456   -6.2883 C   0  0  2  0  0  0  0  0  0  0  0  0
  -30.2771  -15.3906   -8.4361 C   0  0  1  0  0  0  0  0  0  0  0  0
  -31.2912  -14.8495   -7.4089 C   0  0  2  0  0  0  0  0  0  0  0  0
  -31.8313  -15.9845   -6.5209 C   0  0  2  0  0  0  0  0  0  0  0  0
  -30.6715  -16.6823   -5.7208 C   0  0  1  0  0  0  0  0  0  0  0  0
  -31.2053  -17.8663   -4.8640 C   0  0  0  0  0  0  0  0  0  0  0  0
  -24.4467  -14.1067   -5.4098 C   0  0  1  0  0  0  0  0  0  0  0  0
  -25.7065  -14.0104   -4.4112 C   0  0  0  0  0  0  0  0  0  0  0  0
  -27.0585  -13.9136   -5.2572 C   0  0  2  0  0  0  0  0  0  0  0  0
  -32.5122  -16.9881   -7.3469 F   0  0  0  0  0  0  0  0  0  0  0  0
  -29.7281  -14.2908   -9.3206 N   0  0  0  0  0  0  0  0  0  0  0  0
  -32.1132  -17.4995   -3.8444 N   0  0  0  0  0  0  0  0  0  0  0  0
  -23.2114  -14.1925   -4.5581 N   0  0  0  0  0  0  0  0  0  0  0  0
  -28.2097  -13.8273   -4.3355 N   0  0  0  0  0  0  0  0  0  0  0  0
  -28.4141  -15.0524   -6.8809 O   0  0  0  0  0  0  0  0  0  0  0  0
  -26.1663  -16.5406   -7.9637 O   0  0  0  0  0  0  0  0  0  0  0  0
  -23.5805  -15.5654   -7.1895 O   0  0  0  0  0  0  0  0  0  0  0  0
  -32.1732  -14.3936   -7.9900 O   0  0  0  0  0  0  0  0  0  0  0  0
  -29.6264  -17.1316   -6.7581 O   0  0  0  0  0  0  0  0  0  0  0  0
  1  5  1  0  0  0  0
  1 18  1  1  0  0  0
  2 18  1  6  0  0  0
  2  3  1  0  0  0  0
  2 12  1  0  0  0  0
  3 19  1  1  0  0  0
  3  4  1  0  0  0  0
  4 20  1  6  0  0  0
  4 10  1  0  0  0  0
  5  6  1  0  0  0  0
  5 14  1  6  0  0  0
  6 21  1  6  0  0  0
  7 13  1  6  0  0  0
  7  6  1  0  0  0  0
  8  9  1  6  0  0  0
  8  7  1  0  0  0  0
 10 16  1  1  0  0  0
 11 10  1  0  0  0  0
 12 17  1  1  0  0  0
 12 11  1  0  0  0  0
 15  9  1  0  0  0  0
 22  8  1  0  0  0  0
 22  1  1  0  0  0  0
M  END
>  <CHROM.1>
-172.24248812,70.25824317,-63.64122153,-28.47105849,-15.50427562,-6.46847624
-3.05869912,0.23016381,1.74653216

>  <Name>
lig.pdb

>  <RI>
0

>  <Rbt.Current_Directory>
/home/itssahil/PROJECTS/Mol_Feturizer/New_Systems/rnas/5bws

>  <Rbt.Executable>
rbdock ($Id: //depot/dev/client3/rdock/2013.1/src/exe/rbdock.cxx#4 $)

>  <Rbt.Library>
libRbt.so (2013.1, Build901 2013/11/27)

>  <Rbt.Parameter_File>
/export/apps/rDock/src/rDock_2013.1_src/data/scripts/dock_solv.prm

>  <Rbt.Receptor>
prm/blind_docking_100.prm

>  <SCORE>
-6.59884

>  <SCORE.INTER>
-3.78076

>  <SCORE.INTER.CONST>
1

>  <SCORE.INTER.POLAR>
0

>  <SCORE.INTER.ROT>
3

>  <SCORE.INTER.SOLV>
14.0773

>  <SCORE.INTER.VDW>
-12.8129

>  <SCORE.INTER.norm>
-0.171853

>  <SCORE.INTRA>
-2.81808

>  <SCORE.INTRA.DIHEDRAL>
-5.25738

>  <SCORE.INTRA.DIHEDRAL.0>
6.10773

>  <SCORE.INTRA.POLAR>
0

>  <SCORE.INTRA.POLAR.0>
0

>  <SCORE.INTRA.REPUL>
0

>  <SCORE.INTRA.REPUL.0>
0

>  <SCORE.INTRA.SOLV>
-0.935914

>  <SCORE.INTRA.SOLV.lig_0>
-71.4024

>  <SCORE.INTRA.VDW>
0.278566

>  <SCORE.INTRA.VDW.0>
-1.86213

>  <SCORE.INTRA.norm>
-0.128095

>  <SCORE.RESTR>
0

>  <SCORE.RESTR.CAVITY>
0

>  <SCORE.RESTR.norm>
0

>  <SCORE.SYSTEM>
0

>  <SCORE.SYSTEM.CONST>
0

>  <SCORE.SYSTEM.DIHEDRAL>
0

>  <SCORE.SYSTEM.SOLV>
0

>  <SCORE.SYSTEM.norm>
0

>  <SCORE.heavy>
22

>  <SCORE.norm>
-0.299947

>  <RMSD>
28.248

$$$$
lig.pdb
 OpenBabel11021811523D
libRbt.so/2013.1/901 2013/11/27
 22 23  0  0  0  0  0  0  0  0999 V2000
  -29.2225  -11.5624   -5.5255 C   0  0  1  0  0  0  0  0  0  0  0  0
  -30.3589  -13.6114   -6.4750 C   0  0  1  0  0  0  0  0  0  0  0  0
  -31.7545  -13.4059   -5.7353 C   0  0  1  0  0  0  0  0  0  0  0  0
  -32.4889  -14.8208   -5.6722 C   0  0  2  0  0  0  0  0  0  0  0  0
  -28.3724  -10.3531   -6.0776 C   0  0  1  0  0  0  0  0  0  0  0  0
  -27.1258  -10.9282   -6.7788 C   0  0  2  0  0  0  0  0  0  0  0  0
  -26.2553  -11.7206   -5.7874 C   0  0  2  0  0  0  0  0  0  0  0  0
  -27.0515  -12.9274   -5.1692 C   0  0  1  0  0  0  0  0  0  0  0  0
  -26.1935  -13.6982   -4.1250 C   0  0  0  0  0  0  0  0  0  0  0  0
  -32.7771  -15.3345   -7.1739 C   0  0  1  0  0  0  0  0  0  0  0  0
  -31.3472  -15.5285   -7.8891 C   0  0  0  0  0  0  0  0  0  0  0  0
  -30.5724  -14.1318   -7.9320 C   0  0  2  0  0  0  0  0  0  0  0  0
  -25.8024  -10.8421   -4.7028 F   0  0  0  0  0  0  0  0  0  0  0  0
  -29.2478   -9.5709   -7.0344 N   0  0  0  0  0  0  0  0  0  0  0  0
  -26.8317  -14.8165   -3.5413 N   0  0  0  0  0  0  0  0  0  0  0  0
  -33.4547  -16.6760   -7.1666 N   0  0  0  0  0  0  0  0  0  0  0  0
  -29.2615  -14.3171   -8.5874 N   0  0  0  0  0  0  0  0  0  0  0  0
  -29.6672  -12.3752   -6.5661 O   0  0  0  0  0  0  0  0  0  0  0  0
  -31.4760  -12.9270   -4.3608 O   0  0  0  0  0  0  0  0  0  0  0  0
  -33.7029  -14.6160   -5.0125 O   0  0  0  0  0  0  0  0  0  0  0  0
  -26.5065  -10.0449   -7.1784 O   0  0  0  0  0  0  0  0  0  0  0  0
  -28.3370  -12.3421   -4.5568 O   0  0  0  0  0  0  0  0  0  0  0  0
  1  5  1  0  0  0  0
  1 18  1  6  0  0  0
  2 18  1  6  0  0  0
  2  3  1  0  0  0  0
  2 12  1  0  0  0  0
  3 19  1  1  0  0  0
  3  4  1  0  0  0  0
  4 20  1  1  0  0  0
  4 10  1  0  0  0  0
  5  6  1  0  0  0  0
  5 14  1  6  0  0  0
  6 21  1  1  0  0  0
  7 13  1  1  0  0  0
  7  6  1  0  0  0  0
  8  9  1  1  0  0  0
  8  7  1  0  0  0  0
 10 16  1  1  0  0  0
 11 10  1  0  0  0  0
 12 17  1  1  0  0  0
 12 11  1  0  0  0  0
 15  9  1  0  0  0  0
 22  8  1  0  0  0  0
 22  1  1  0  0  0  0
M  END
>  <CHROM.1>
174.24835699,61.37662160,-178.82039235,-29.39852342,-12.97709811,-6.00406162
0.33799112,-0.49854913,-0.68404984

>  <Name>
lig.pdb

>  <RI>
0

>  <Rbt.Current_Directory>
/home/itssahil/PROJECTS/Mol_Feturizer/New_Systems/rnas/5bws

>  <Rbt.Executable>
rbdock ($Id: //depot/dev/client3/rdock/2013.1/src/exe/rbdock.cxx#4 $)

>  <Rbt.Library>
libRbt.so (2013.1, Build901 2013/11/27)

>  <Rbt.Parameter_File>
/export/apps/rDock/src/rDock_2013.1_src/data/scripts/dock_solv.prm

>  <Rbt.Receptor>
prm/blind_docking_100.prm

>  <SCORE>
-3.73103

>  <SCORE.INTER>
-0.319652

>  <SCORE.INTER.CONST>
1

>  <SCORE.INTER.POLAR>
0

>  <SCORE.INTER.ROT>
3

>  <SCORE.INTER.SOLV>
19.4201

>  <SCORE.INTER.VDW>
-12.2865

>  <SCORE.INTER.norm>
-0.0145297

>  <SCORE.INTRA>
-3.41138

>  <SCORE.INTRA.DIHEDRAL>
-5.92879

>  <SCORE.INTRA.DIHEDRAL.0>
6.10773

>  <SCORE.INTRA.POLAR>
0

>  <SCORE.INTRA.POLAR.0>
0

>  <SCORE.INTRA.REPUL>
0

>  <SCORE.INTRA.REPUL.0>
0

>  <SCORE.INTRA.SOLV>
-1.59831

>  <SCORE.INTRA.SOLV.lig_0>
-71.4024

>  <SCORE.INTRA.VDW>
0.352166

>  <SCORE.INTRA.VDW.0>
-1.86213

>  <SCORE.INTRA.norm>
-0.155063

>  <SCORE.RESTR>
0

>  <SCORE.RESTR.CAVITY>
0

>  <SCORE.RESTR.norm>
0

>  <SCORE.SYSTEM>
0

>  <SCORE.SYSTEM.CONST>
0

>  <SCORE.SYSTEM.DIHEDRAL>
0

>  <SCORE.SYSTEM.SOLV>
0

>  <SCORE.SYSTEM.norm>
0

>  <SCORE.heavy>
22

>  <SCORE.norm>
-0.169592

>  <RMSD>
28.298

$$$$
lig.pdb
 OpenBabel11021811523D
libRbt.so/2013.1/901 2013/11/27
 22 23  0  0  0  0  0  0  0  0999 V2000
  -29.2606  -16.0853   -7.4771 C   0  0  1  0  0  0  0  0  0  0  0  0
  -27.3657  -15.2709   -6.0152 C   0  0  1  0  0  0  0  0  0  0  0  0
  -26.1783  -15.3475   -7.0740 C   0  0  1  0  0  0  0  0  0  0  0  0
  -24.8090  -15.4810   -6.2661 C   0  0  2  0  0  0  0  0  0  0  0  0
  -30.5022  -15.4465   -8.2123 C   0  0  1  0  0  0  0  0  0  0  0  0
  -31.5030  -14.9785   -7.1372 C   0  0  2  0  0  0  0  0  0  0  0  0
  -31.9973  -16.1668   -6.2934 C   0  0  2  0  0  0  0  0  0  0  0  0
  -30.8040  -16.8758   -5.5546 C   0  0  1  0  0  0  0  0  0  0  0  0
  -31.2916  -18.1114   -4.7445 C   0  0  0  0  0  0  0  0  0  0  0  0
  -24.6001  -14.1641   -5.3581 C   0  0  1  0  0  0  0  0  0  0  0  0
  -25.8171  -14.1195   -4.3042 C   0  0  0  0  0  0  0  0  0  0  0  0
  -27.2058  -14.0240   -5.0884 C   0  0  2  0  0  0  0  0  0  0  0  0
  -32.6759  -17.1448   -7.1515 F   0  0  0  0  0  0  0  0  0  0  0  0
  -29.9982  -14.2933   -9.0545 N   0  0  0  0  0  0  0  0  0  0  0  0
  -32.1759  -17.8139   -3.6824 N   0  0  0  0  0  0  0  0  0  0  0  0
  -23.3279  -14.2510   -4.5629 N   0  0  0  0  0  0  0  0  0  0  0  0
  -28.3174  -13.9852   -4.1163 N   0  0  0  0  0  0  0  0  0  0  0  0
  -28.6105  -15.1413   -6.6851 O   0  0  0  0  0  0  0  0  0  0  0  0
  -26.3862  -16.5562   -7.9058 O   0  0  0  0  0  0  0  0  0  0  0  0
  -23.7866  -15.5555   -7.2148 O   0  0  0  0  0  0  0  0  0  0  0  0
  -32.4082  -14.5153   -7.6753 O   0  0  0  0  0  0  0  0  0  0  0  0
  -29.7744  -17.2509   -6.6360 O   0  0  0  0  0  0  0  0  0  0  0  0
  1  5  1  0  0  0  0
  1 18  1  1  0  0  0
  2 18  1  6  0  0  0
  2  3  1  0  0  0  0
  2 12  1  0  0  0  0
  3 19  1  6  0  0  0
  3  4  1  0  0  0  0
  4 20  1  6  0  0  0
  4 10  1  0  0  0  0
  5  6  1  0  0  0  0
  5 14  1  1  0  0  0
  6 21  1  6  0  0  0
  7 13  1  6  0  0  0
  7  6  1  0  0  0  0
  8  9  1  6  0  0  0
  8  7  1  0  0  0  0
 10 16  1  1  0  0  0
 11 10  1  0  0  0  0
 12 17  1  1  0  0  0
 12 11  1  0  0  0  0
 15  9  1  0  0  0  0
 22  8  1  0  0  0  0
 22  1  1  0  0  0  0
M  END
>  <CHROM.1>
-170.86622156,68.21439144,-64.03343360,-28.63952334,-15.61020324,-6.32059738
-3.09864354,0.24650474,1.80171786

>  <Name>
lig.pdb

>  <RI>
0

>  <Rbt.Current_Directory>
/home/itssahil/PROJECTS/Mol_Feturizer/New_Systems/rnas/5bws

>  <Rbt.Executable>
rbdock ($Id: //depot/dev/client3/rdock/2013.1/src/exe/rbdock.cxx#4 $)

>  <Rbt.Library>
libRbt.so (2013.1, Build901 2013/11/27)

>  <Rbt.Parameter_File>
/export/apps/rDock/src/rDock_2013.1_src/data/scripts/dock_solv.prm

>  <Rbt.Receptor>
prm/blind_docking_100.prm

>  <SCORE>
-6.65885

>  <SCORE.INTER>
-3.82823

>  <SCORE.INTER.CONST>
1

>  <SCORE.INTER.POLAR>
0

>  <SCORE.INTER.ROT>
3

>  <SCORE.INTER.SOLV>
14.0496

>  <SCORE.INTER.VDW>
-12.8354

>  <SCORE.INTER.norm>
-0.17401

>  <SCORE.INTRA>
-2.83063

>  <SCORE.INTRA.DIHEDRAL>
-5.3145

>  <SCORE.INTRA.DIHEDRAL.0>
6.10773

>  <SCORE.INTRA.POLAR>
0

>  <SCORE.INTRA.POLAR.0>
0

>  <SCORE.INTRA.REPUL>
0

>  <SCORE.INTRA.REPUL.0>
0

>  <SCORE.INTRA.SOLV>
-0.984278

>  <SCORE.INTRA.SOLV.lig_0>
-71.4024

>  <SCORE.INTRA.VDW>
0.318764

>  <SCORE.INTRA.VDW.0>
-1.86213

>  <SCORE.INTRA.norm>
-0.128665

>  <SCORE.RESTR>
0

>  <SCORE.RESTR.CAVITY>
0

>  <SCORE.RESTR.norm>
0

>  <SCORE.SYSTEM>
0

>  <SCORE.SYSTEM.CONST>
0

>  <SCORE.SYSTEM.DIHEDRAL>
0

>  <SCORE.SYSTEM.SOLV>
0

>  <SCORE.SYSTEM.norm>
0

>  <SCORE.heavy>
22

>  <SCORE.norm>
-0.302675

>  <RMSD>
28.398

$$$$
lig.pdb
 OpenBabel11021811523D
libRbt.so/2013.1/901 2013/11/27
 22 23  0  0  0  0  0  0  0  0999 V2000
  -29.3151  -13.7327   -7.7013 C   0  0  1  0  0  0  0  0  0  0  0  0
  -29.3237  -14.9778   -5.5011 C   0  0  1  0  0  0  0  0  0  0  0  0
  -30.2795  -16.1885   -5.8980 C   0  0  1  0  0  0  0  0  0  0  0  0
  -30.9287  -16.7603   -4.5576 C   0  0  2  0  0  0  0  0  0  0  0  0
  -28.3118  -13.5274   -8.9019 C   0  0  1  0  0  0  0  0  0  0  0  0
  -27.1295  -12.6782   -8.3945 C   0  0  2  0  0  0  0  0  0  0  0  0
  -27.6106  -11.2948   -7.9222 C   0  0  2  0  0  0  0  0  0  0  0  0
  -28.6433  -11.4230   -6.7435 C   0  0  1  0  0  0  0  0  0  0  0  0
  -29.1743  -10.0295   -6.2997 C   0  0  0  0  0  0  0  0  0  0  0  0
  -29.7581  -17.3253   -3.6022 C   0  0  1  0  0  0  0  0  0  0  0  0
  -28.8134  -16.0769   -3.2245 C   0  0  0  0  0  0  0  0  0  0  0  0
  -28.1787  -15.4597   -4.5545 C   0  0  2  0  0  0  0  0  0  0  0  0
  -28.2427  -10.5758   -9.0342 F   0  0  0  0  0  0  0  0  0  0  0  0
  -27.8640  -14.8963   -9.3697 N   0  0  0  0  0  0  0  0  0  0  0  0
  -29.9032   -9.3294   -7.2882 N   0  0  0  0  0  0  0  0  0  0  0  0
  -30.3206  -17.8609   -2.3156 N   0  0  0  0  0  0  0  0  0  0  0  0
  -27.3150  -14.3145   -4.2012 N   0  0  0  0  0  0  0  0  0  0  0  0
  -28.7113  -14.4375   -6.6622 O   0  0  0  0  0  0  0  0  0  0  0  0
  -31.3449  -15.6579   -6.7810 O   0  0  0  0  0  0  0  0  0  0  0  0
  -31.7676  -17.8123   -4.9326 O   0  0  0  0  0  0  0  0  0  0  0  0
  -26.4007  -12.5280   -9.2718 O   0  0  0  0  0  0  0  0  0  0  0  0
  -29.7680  -12.3500   -7.2395 O   0  0  0  0  0  0  0  0  0  0  0  0
  1  5  1  0  0  0  0
  1 18  1  1  0  0  0
  2 18  1  6  0  0  0
  2  3  1  0  0  0  0
  2 12  1  0  0  0  0
  3 19  1  6  0  0  0
  3  4  1  0  0  0  0
  4 20  1  6  0  0  0
  4 10  1  0  0  0  0
  5  6  1  0  0  0  0
  5 14  1  1  0  0  0
  6 21  1  6  0  0  0
  7 13  1  6  0  0  0
  7  6  1  0  0  0  0
  8  9  1  6  0  0  0
  8  7  1  0  0  0  0
 10 16  1  1  0  0  0
 11 10  1  0  0  0  0
 12 17  1  1  0  0  0
 12 11  1  0  0  0  0
 15  9  1  0  0  0  0
 22  8  1  0  0  0  0
 22  1  1  0  0  0  0
M  END
>  <CHROM.1>
-170.53634177,68.31279897,63.33332661,-29.05800865,-14.00772148,-6.44280282
-0.66052006,-1.21279228,-2.89850757

>  <Name>
lig.pdb

>  <RI>
0

>  <Rbt.Current_Directory>
/home/itssahil/PROJECTS/Mol_Feturizer/New_Systems/rnas/5bws

>  <Rbt.Executable>
rbdock ($Id: //depot/dev/client3/rdock/2013.1/src/exe/rbdock.cxx#4 $)

>  <Rbt.Library>
libRbt.so (2013.1, Build901 2013/11/27)

>  <Rbt.Parameter_File>
/export/apps/rDock/src/rDock_2013.1_src/data/scripts/dock_solv.prm

>  <Rbt.Receptor>
prm/blind_docking_100.prm

>  <SCORE>
-4.40464

>  <SCORE.INTER>
-2.13459

>  <SCORE.INTER.CONST>
1

>  <SCORE.INTER.POLAR>
0

>  <SCORE.INTER.ROT>
3

>  <SCORE.INTER.SOLV>
14.7573

>  <SCORE.INTER.VDW>
-11.9421

>  <SCORE.INTER.norm>
-0.0970267

>  <SCORE.INTRA>
-2.27006

>  <SCORE.INTRA.DIHEDRAL>
-5.29684

>  <SCORE.INTRA.DIHEDRAL.0>
6.10773

>  <SCORE.INTRA.POLAR>
0

>  <SCORE.INTRA.POLAR.0>
0

>  <SCORE.INTRA.REPUL>
0

>  <SCORE.INTRA.REPUL.0>
0

>  <SCORE.INTRA.SOLV>
0.259493

>  <SCORE.INTRA.SOLV.lig_0>
-71.4024

>  <SCORE.INTRA.VDW>
0.248615

>  <SCORE.INTRA.VDW.0>
-1.86213

>  <SCORE.INTRA.norm>
-0.103184

>  <SCORE.RESTR>
0

>  <SCORE.RESTR.CAVITY>
0

>  <SCORE.RESTR.norm>
0

>  <SCORE.SYSTEM>
0

>  <SCORE.SYSTEM.CONST>
0

>  <SCORE.SYSTEM.DIHEDRAL>
0

>  <SCORE.SYSTEM.SOLV>
0

>  <SCORE.SYSTEM.norm>
0

>  <SCORE.heavy>
22

>  <SCORE.norm>
-0.200211

>  <RMSD>
28.445

$$$$
lig.pdb
 OpenBabel11021811523D
libRbt.so/2013.1/901 2013/11/27
 22 23  0  0  0  0  0  0  0  0999 V2000
  -29.3257  -16.1023   -7.5520 C   0  0  1  0  0  0  0  0  0  0  0  0
  -27.4386  -15.2426   -6.1060 C   0  0  1  0  0  0  0  0  0  0  0  0
  -26.2351  -15.3598   -7.1426 C   0  0  1  0  0  0  0  0  0  0  0  0
  -24.8795  -15.4735   -6.3091 C   0  0  2  0  0  0  0  0  0  0  0  0
  -30.5334  -15.4791   -8.3541 C   0  0  1  0  0  0  0  0  0  0  0  0
  -31.5480  -14.9264   -7.3336 C   0  0  2  0  0  0  0  0  0  0  0  0
  -32.0912  -16.0517   -6.4354 C   0  0  2  0  0  0  0  0  0  0  0  0
  -30.9337  -16.7436   -5.6269 C   0  0  1  0  0  0  0  0  0  0  0  0
  -31.4706  -17.9183   -4.7593 C   0  0  0  0  0  0  0  0  0  0  0  0
  -24.6777  -14.1285   -5.4416 C   0  0  1  0  0  0  0  0  0  0  0  0
  -25.9108  -14.0432   -4.4093 C   0  0  0  0  0  0  0  0  0  0  0  0
  -27.2865  -13.9666   -5.2182 C   0  0  2  0  0  0  0  0  0  0  0  0
  -32.7727  -17.0623   -7.2525 F   0  0  0  0  0  0  0  0  0  0  0  0
  -29.9812  -14.3889   -9.2485 N   0  0  0  0  0  0  0  0  0  0  0  0
  -32.3468  -17.5355   -3.7180 N   0  0  0  0  0  0  0  0  0  0  0  0
  -23.4186  -14.1955   -4.6238 N   0  0  0  0  0  0  0  0  0  0  0  0
  -28.4131  -13.8903   -4.2657 N   0  0  0  0  0  0  0  0  0  0  0  0
  -28.6719  -15.1289   -6.7995 O   0  0  0  0  0  0  0  0  0  0  0  0
  -26.4365  -16.5942   -7.9376 O   0  0  0  0  0  0  0  0  0  0  0  0
  -23.8427  -15.5842   -7.2385 O   0  0  0  0  0  0  0  0  0  0  0  0
  -32.4284  -14.4747   -7.9204 O   0  0  0  0  0  0  0  0  0  0  0  0
  -29.8879  -17.2047   -6.6582 O   0  0  0  0  0  0  0  0  0  0  0  0
  1  5  1  0  0  0  0
  1 18  1  1  0  0  0
  2 18  1  6  0  0  0
  2  3  1  0  0  0  0
  2 12  1  0  0  0  0
  3 19  1  1  0  0  0
  3  4  1  0  0  0  0
  4 20  1  6  0  0  0
  4 10  1  0  0  0  0
  5  6  1  0  0  0  0
  5 14  1  6  0  0  0
  6 21  1  6  0  0  0
  7 13  1  6  0  0  0
  7  6  1  0  0  0  0
  8  9  1  6  0  0  0
  8  7  1  0  0  0  0
 10 16  1  1  0  0  0
 11 10  1  0  0  0  0
 12 17  1  1  0  0  0
 12 11  1  0  0  0  0
 15  9  1  0  0  0  0
 22  8  1  0  0  0  0
 22  1  1  0  0  0  0
M  END
>  <CHROM.1>
-169.97994764,69.39559614,-65.52972903,-28.71828165,-15.56134998,-6.41744532
-3.07439818,0.23302734,1.73158099

>  <Name>
lig.pdb

>  <RI>
0

>  <Rbt.Current_Directory>
/home/itssahil/PROJECTS/Mol_Feturizer/New_Systems/rnas/5bws

>  <Rbt.Executable>
rbdock ($Id: //depot/dev/client3/rdock/2013.1/src/exe/rbdock.cxx#4 $)

>  <Rbt.Library>
libRbt.so (2013.1, Build901 2013/11/27)

>  <Rbt.Parameter_File>
/export/apps/rDock/src/rDock_2013.1_src/data/scripts/dock_solv.prm

>  <Rbt.Receptor>
prm/blind_docking_100.prm

>  <SCORE>
-6.59326

>  <SCORE.INTER>
-3.85325

>  <SCORE.INTER.CONST>
1

>  <SCORE.INTER.POLAR>
0

>  <SCORE.INTER.ROT>
3

>  <SCORE.INTER.SOLV>
13.8649

>  <SCORE.INTER.VDW>
-12.7905

>  <SCORE.INTER.norm>
-0.175148

>  <SCORE.INTRA>
-2.74001

>  <SCORE.INTRA.DIHEDRAL>
-5.08388

>  <SCORE.INTRA.DIHEDRAL.0>
6.10773

>  <SCORE.INTRA.POLAR>
0

>  <SCORE.INTRA.POLAR.0>
0

>  <SCORE.INTRA.REPUL>
0

>  <SCORE.INTRA.REPUL.0>
0

>  <SCORE.INTRA.SOLV>
-0.984765

>  <SCORE.INTRA.SOLV.lig_0>
-71.4024

>  <SCORE.INTRA.VDW>
0.294315

>  <SCORE.INTRA.VDW.0>
-1.86213

>  <SCORE.INTRA.norm>
-0.124546

>  <SCORE.RESTR>
0

>  <SCORE.RESTR.CAVITY>
0

>  <SCORE.RESTR.norm>
0

>  <SCORE.SYSTEM>
0

>  <SCORE.SYSTEM.CONST>
0

>  <SCORE.SYSTEM.DIHEDRAL>
0

>  <SCORE.SYSTEM.SOLV>
0

>  <SCORE.SYSTEM.norm>
0

>  <SCORE.heavy>
22

>  <SCORE.norm>
-0.299694

>  <RMSD>
28.466

$$$$
lig.pdb
 OpenBabel11021811523D
libRbt.so/2013.1/901 2013/11/27
 22 23  0  0  0  0  0  0  0  0999 V2000
  -29.3100  -16.1213   -7.6175 C   0  0  1  0  0  0  0  0  0  0  0  0
  -27.4019  -15.2567   -6.2023 C   0  0  1  0  0  0  0  0  0  0  0  0
  -26.2110  -15.3759   -7.2533 C   0  0  1  0  0  0  0  0  0  0  0  0
  -24.8454  -15.4881   -6.4360 C   0  0  2  0  0  0  0  0  0  0  0  0
  -30.5299  -15.5017   -8.4035 C   0  0  1  0  0  0  0  0  0  0  0  0
  -31.5276  -14.9424   -7.3700 C   0  0  2  0  0  0  0  0  0  0  0  0
  -32.0572  -16.0623   -6.4569 C   0  0  2  0  0  0  0  0  0  0  0  0
  -30.8873  -16.7506   -5.6632 C   0  0  1  0  0  0  0  0  0  0  0  0
  -31.4111  -17.9201   -4.7807 C   0  0  0  0  0  0  0  0  0  0  0  0
  -24.6331  -14.1415   -5.5736 C   0  0  1  0  0  0  0  0  0  0  0  0
  -25.8536  -14.0543   -4.5265 C   0  0  0  0  0  0  0  0  0  0  0  0
  -27.2390  -13.9791   -5.3188 C   0  0  2  0  0  0  0  0  0  0  0  0
  -32.7524  -17.0768   -7.2573 F   0  0  0  0  0  0  0  0  0  0  0  0
  -29.9914  -14.4169   -9.3127 N   0  0  0  0  0  0  0  0  0  0  0  0
  -32.3024  -17.5354   -3.7530 N   0  0  0  0  0  0  0  0  0  0  0  0
  -23.3641  -14.2071   -4.7710 N   0  0  0  0  0  0  0  0  0  0  0  0
  -28.3539  -13.9010   -4.3529 N   0  0  0  0  0  0  0  0  0  0  0  0
  -28.6435  -15.1443   -6.8811 O   0  0  0  0  0  0  0  0  0  0  0  0
  -26.4221  -16.6119   -8.0434 O   0  0  0  0  0  0  0  0  0  0  0  0
  -23.8199  -15.6007   -7.3777 O   0  0  0  0  0  0  0  0  0  0  0  0
  -32.4170  -14.4932   -7.9450 O   0  0  0  0  0  0  0  0  0  0  0  0
  -29.8585  -17.2183   -6.7087 O   0  0  0  0  0  0  0  0  0  0  0  0
  1  5  1  0  0  0  0
  1 18  1  1  0  0  0
  2 18  1  6  0  0  0
  2  3  1  0  0  0  0
  2 12  1  0  0  0  0
  3 19  1  1  0  0  0
  3  4  1  0  0  0  0
  4 20  1  6  0  0  0
  4 10  1  0  0  0  0
  5  6  1  0  0  0  0
  5 14  1  6  0  0  0
  6 21  1  6  0  0  0
  7 13  1  6  0  0  0
  7  6  1  0  0  0  0
  8  9  1  6  0  0  0
  8  7  1  0  0  0  0
 10 16  1  1  0  0  0
 11 10  1  0  0  0  0
 12 17  1  1  0  0  0
 12 11  1  0  0  0  0
 15  9  1  0  0  0  0
 22  8  1  0  0  0  0
 22  1  1  0  0  0  0
M  END
>  <CHROM.1>
-170.25577448,69.78877729,-63.68445874,-28.68701466,-15.57526444,-6.49161914
-3.08828034,0.22987256,1.72940943

>  <Name>
lig.pdb

>  <RI>
0

>  <Rbt.Current_Directory>
/home/itssahil/PROJECTS/Mol_Feturizer/New_Systems/rnas/5bws

>  <Rbt.Executable>
rbdock ($Id: //depot/dev/client3/rdock/2013.1/src/exe/rbdock.cxx#4 $)

>  <Rbt.Library>
libRbt.so (2013.1, Build901 2013/11/27)

>  <Rbt.Parameter_File>
/export/apps/rDock/src/rDock_2013.1_src/data/scripts/dock_solv.prm

>  <Rbt.Receptor>
prm/blind_docking_100.prm

>  <SCORE>
-6.60881

>  <SCORE.INTER>
-3.86323

>  <SCORE.INTER.CONST>
1

>  <SCORE.INTER.POLAR>
0

>  <SCORE.INTER.ROT>
3

>  <SCORE.INTER.SOLV>
13.7431

>  <SCORE.INTER.VDW>
-12.7565

>  <SCORE.INTER.norm>
-0.175601

>  <SCORE.INTRA>
-2.74558

>  <SCORE.INTRA.DIHEDRAL>
-5.135

>  <SCORE.INTRA.DIHEDRAL.0>
6.10773

>  <SCORE.INTRA.POLAR>
0

>  <SCORE.INTRA.POLAR.0>
0

>  <SCORE.INTRA.REPUL>
0

>  <SCORE.INTRA.REPUL.0>
0

>  <SCORE.INTRA.SOLV>
-0.937084

>  <SCORE.INTRA.SOLV.lig_0>
-71.4024

>  <SCORE.INTRA.VDW>
0.290467

>  <SCORE.INTRA.VDW.0>
-1.86213

>  <SCORE.INTRA.norm>
-0.124799

>  <SCORE.RESTR>
0

>  <SCORE.RESTR.CAVITY>
0

>  <SCORE.RESTR.norm>
0

>  <SCORE.SYSTEM>
0

>  <SCORE.SYSTEM.CONST>
0

>  <SCORE.SYSTEM.DIHEDRAL>
0

>  <SCORE.SYSTEM.SOLV>
0

>  <SCORE.SYSTEM.norm>
0

>  <SCORE.heavy>
22

>  <SCORE.norm>
-0.3004

>  <RMSD>
28.467

$$$$
lig.pdb
 OpenBabel11021811523D
libRbt.so/2013.1/901 2013/11/27
 22 23  0  0  0  0  0  0  0  0999 V2000
  -29.3485  -16.1437   -7.5659 C   0  0  1  0  0  0  0  0  0  0  0  0
  -27.4078  -15.2914   -6.1881 C   0  0  1  0  0  0  0  0  0  0  0  0
  -26.2523  -15.4142   -7.2774 C   0  0  1  0  0  0  0  0  0  0  0  0
  -24.8608  -15.5282   -6.5053 C   0  0  2  0  0  0  0  0  0  0  0  0
  -30.5637  -15.5078   -8.3463 C   0  0  1  0  0  0  0  0  0  0  0  0
  -31.5537  -14.9440   -7.3079 C   0  0  2  0  0  0  0  0  0  0  0  0
  -32.0926  -16.0633   -6.3995 C   0  0  2  0  0  0  0  0  0  0  0  0
  -30.9281  -16.7673   -5.6118 C   0  0  1  0  0  0  0  0  0  0  0  0
  -31.4618  -17.9360   -4.7342 C   0  0  0  0  0  0  0  0  0  0  0  0
  -24.6176  -14.1811   -5.6520 C   0  0  1  0  0  0  0  0  0  0  0  0
  -25.8029  -14.0901   -4.5654 C   0  0  0  0  0  0  0  0  0  0  0  0
  -27.2134  -14.0130   -5.3120 C   0  0  2  0  0  0  0  0  0  0  0  0
  -32.7995  -17.0666   -7.2038 F   0  0  0  0  0  0  0  0  0  0  0  0
  -30.0162  -14.4237   -9.2510 N   0  0  0  0  0  0  0  0  0  0  0  0
  -32.3759  -17.5524   -3.7263 N   0  0  0  0  0  0  0  0  0  0  0  0
  -23.3232  -14.2483   -4.8913 N   0  0  0  0  0  0  0  0  0  0  0  0
  -28.2959  -13.9316   -4.3100 N   0  0  0  0  0  0  0  0  0  0  0  0
  -28.6708  -15.1772   -6.8258 O   0  0  0  0  0  0  0  0  0  0  0  0
  -26.4917  -16.6506   -8.0587 O   0  0  0  0  0  0  0  0  0  0  0  0
  -23.8671  -15.6439   -7.4800 O   0  0  0  0  0  0  0  0  0  0  0  0
  -32.4397  -14.4830   -7.8788 O   0  0  0  0  0  0  0  0  0  0  0  0
  -29.9061  -17.2398   -6.6617 O   0  0  0  0  0  0  0  0  0  0  0  0
  1  5  1  0  0  0  0
  1 18  1  1  0  0  0
  2 18  1  6  0  0  0
  2  3  1  0  0  0  0
  2 12  1  0  0  0  0
  3 19  1  1  0  0  0
  3  4  1  0  0  0  0
  4 20  1  6  0  0  0
  4 10  1  0  0  0  0
  5  6  1  0  0  0  0
  5 14  1  6  0  0  0
  6 21  1  6  0  0  0
  7 13  1  6  0  0  0
  7  6  1  0  0  0  0
  8  9  1  6  0  0  0
  8  7  1  0  0  0  0
 10 16  1  1  0  0  0
 11 10  1  0  0  0  0
 12 17  1  1  0  0  0
 12 11  1  0  0  0  0
 15  9  1  0  0  0  0
 22  8  1  0  0  0  0
 22  1  1  0  0  0  0
M  END
>  <CHROM.1>
-167.91696282,68.09797355,-62.01470698,-28.70893336,-15.59742261,-6.47958340
-3.10721712,0.22326630,1.72995956

>  <Name>
lig.pdb

>  <RI>
0

>  <Rbt.Current_Directory>
/home/itssahil/PROJECTS/Mol_Feturizer/New_Systems/rnas/5bws

>  <Rbt.Executable>
rbdock ($Id: //depot/dev/client3/rdock/2013.1/src/exe/rbdock.cxx#4 $)

>  <Rbt.Library>
libRbt.so (2013.1, Build901 2013/11/27)

>  <Rbt.Parameter_File>
/export/apps/rDock/src/rDock_2013.1_src/data/scripts/dock_solv.prm

>  <Rbt.Receptor>
prm/blind_docking_40.prm

>  <SCORE>
-6.51076

>  <SCORE.INTER>
-3.85938

>  <SCORE.INTER.CONST>
1

>  <SCORE.INTER.POLAR>
0

>  <SCORE.INTER.ROT>
3

>  <SCORE.INTER.SOLV>
13.4065

>  <SCORE.INTER.VDW>
-12.6418

>  <SCORE.INTER.norm>
-0.175427

>  <SCORE.INTRA>
-2.65138

>  <SCORE.INTRA.DIHEDRAL>
-5.07492

>  <SCORE.INTRA.DIHEDRAL.0>
6.10773

>  <SCORE.INTRA.POLAR>
0

>  <SCORE.INTRA.POLAR.0>
0

>  <SCORE.INTRA.REPUL>
0

>  <SCORE.INTRA.REPUL.0>
0

>  <SCORE.INTRA.SOLV>
-0.924461

>  <SCORE.INTRA.SOLV.lig_0>
-71.4024

>  <SCORE.INTRA.VDW>
0.348311

>  <SCORE.INTRA.VDW.0>
-1.86213

>  <SCORE.INTRA.norm>
-0.120517

>  <SCORE.RESTR>
0

>  <SCORE.RESTR.CAVITY>
0

>  <SCORE.RESTR.norm>
0

>  <SCORE.SYSTEM>
0

>  <SCORE.SYSTEM.CONST>
0

>  <SCORE.SYSTEM.DIHEDRAL>
0

>  <SCORE.SYSTEM.SOLV>
0

>  <SCORE.SYSTEM.norm>
0

>  <SCORE.heavy>
22

>  <SCORE.norm>
-0.295944

>  <RMSD>
28.495

$$$$
lig.pdb
 OpenBabel11021811523D
libRbt.so/2013.1/901 2013/11/27
 22 23  0  0  0  0  0  0  0  0999 V2000
  -29.4410  -16.1175   -7.6519 C   0  0  1  0  0  0  0  0  0  0  0  0
  -27.4632  -15.3352   -6.2853 C   0  0  1  0  0  0  0  0  0  0  0  0
  -26.3144  -15.5021   -7.3759 C   0  0  1  0  0  0  0  0  0  0  0  0
  -24.9274  -15.6682   -6.6053 C   0  0  2  0  0  0  0  0  0  0  0  0
  -30.6638  -15.4473   -8.3906 C   0  0  1  0  0  0  0  0  0  0  0  0
  -31.6114  -14.8737   -7.3185 C   0  0  2  0  0  0  0  0  0  0  0  0
  -32.1485  -15.9910   -6.4066 C   0  0  2  0  0  0  0  0  0  0  0  0
  -30.9776  -16.7284   -5.6598 C   0  0  1  0  0  0  0  0  0  0  0  0
  -31.5113  -17.8948   -4.7793 C   0  0  0  0  0  0  0  0  0  0  0  0
  -24.6325  -14.3308   -5.7529 C   0  0  1  0  0  0  0  0  0  0  0  0
  -25.8122  -14.1946   -4.6651 C   0  0  0  0  0  0  0  0  0  0  0  0
  -27.2197  -14.0648   -5.4101 C   0  0  2  0  0  0  0  0  0  0  0  0
  -32.8995  -16.9703   -7.2005 F   0  0  0  0  0  0  0  0  0  0  0  0
  -30.1188  -14.3654   -9.2994 N   0  0  0  0  0  0  0  0  0  0  0  0
  -32.3321  -17.4963   -3.6994 N   0  0  0  0  0  0  0  0  0  0  0  0
  -23.3406  -14.4464   -4.9937 N   0  0  0  0  0  0  0  0  0  0  0  0
  -28.2972  -13.9420   -4.4069 N   0  0  0  0  0  0  0  0  0  0  0  0
  -28.7217  -15.1738   -6.9217 O   0  0  0  0  0  0  0  0  0  0  0  0
  -26.6011  -16.7289   -8.1563 O   0  0  0  0  0  0  0  0  0  0  0  0
  -23.9398  -15.8218   -7.5811 O   0  0  0  0  0  0  0  0  0  0  0  0
  -32.5031  -14.3877   -7.8590 O   0  0  0  0  0  0  0  0  0  0  0  0
  -29.9963  -17.2112   -6.7434 O   0  0  0  0  0  0  0  0  0  0  0  0
  1  5  1  0  0  0  0
  1 18  1  1  0  0  0
  2 18  1  6  0  0  0
  2  3  1  0  0  0  0
  2 12  1  0  0  0  0
  3 19  1  1  0  0  0
  3  4  1  0  0  0  0
  4 20  1  6  0  0  0
  4 10  1  0  0  0  0
  5  6  1  0  0  0  0
  5 14  1  6  0  0  0
  6 21  1  6  0  0  0
  7 13  1  6  0  0  0
  7  6  1  0  0  0  0
  8  9  1  6  0  0  0
  8  7  1  0  0  0  0
 10 16  1  1  0  0  0
 11 10  1  0  0  0  0
 12 17  1  1  0  0  0
 12 11  1  0  0  0  0
 15  9  1  0  0  0  0
 22  8  1  0  0  0  0
 22  1  1  0  0  0  0
M  END
>  <CHROM.1>
-170.13158361,68.63575885,-65.15232764,-28.76416430,-15.61373086,-6.54264766
-3.11529932,0.19130967,1.75218381

>  <Name>
lig.pdb

>  <RI>
0

>  <Rbt.Current_Directory>
/home/itssahil/PROJECTS/Mol_Feturizer/New_Systems/rnas/5bws

>  <Rbt.Executable>
rbdock ($Id: //depot/dev/client3/rdock/2013.1/src/exe/rbdock.cxx#4 $)

>  <Rbt.Library>
libRbt.so (2013.1, Build901 2013/11/27)

>  <Rbt.Parameter_File>
/export/apps/rDock/src/rDock_2013.1_src/data/scripts/dock_solv.prm

>  <Rbt.Receptor>
prm/blind_docking_40.prm

>  <SCORE>
-6.58426

>  <SCORE.INTER>
-3.80747

>  <SCORE.INTER.CONST>
1

>  <SCORE.INTER.POLAR>
0

>  <SCORE.INTER.ROT>
3

>  <SCORE.INTER.SOLV>
13.7939

>  <SCORE.INTER.VDW>
-12.7363

>  <SCORE.INTER.norm>
-0.173067

>  <SCORE.INTRA>
-2.77678

>  <SCORE.INTRA.DIHEDRAL>
-5.17762

>  <SCORE.INTRA.DIHEDRAL.0>
6.10773

>  <SCORE.INTRA.POLAR>
0

>  <SCORE.INTRA.POLAR.0>
0

>  <SCORE.INTRA.REPUL>
0

>  <SCORE.INTRA.REPUL.0>
0

>  <SCORE.INTRA.SOLV>
-0.994685

>  <SCORE.INTRA.SOLV.lig_0>
-71.4024

>  <SCORE.INTRA.VDW>
0.309365

>  <SCORE.INTRA.VDW.0>
-1.86213

>  <SCORE.INTRA.norm>
-0.126217

>  <SCORE.RESTR>
0

>  <SCORE.RESTR.CAVITY>
0

>  <SCORE.RESTR.norm>
0

>  <SCORE.SYSTEM>
0

>  <SCORE.SYSTEM.CONST>
0

>  <SCORE.SYSTEM.DIHEDRAL>
0

>  <SCORE.SYSTEM.SOLV>
0

>  <SCORE.SYSTEM.norm>
0

>  <SCORE.heavy>
22

>  <SCORE.norm>
-0.299285

>  <RMSD>
28.569

$$$$
lig.pdb
 OpenBabel11021811523D
libRbt.so/2013.1/901 2013/11/27
 22 23  0  0  0  0  0  0  0  0999 V2000
  -29.6099  -15.9921   -7.8723 C   0  0  1  0  0  0  0  0  0  0  0  0
  -27.5409  -15.3539   -6.5672 C   0  0  1  0  0  0  0  0  0  0  0  0
  -26.4571  -15.7260   -7.6736 C   0  0  1  0  0  0  0  0  0  0  0  0
  -25.0699  -15.9905   -6.9315 C   0  0  2  0  0  0  0  0  0  0  0  0
  -30.6796  -15.2237   -8.7413 C   0  0  1  0  0  0  0  0  0  0  0  0
  -31.5846  -14.4232   -7.7839 C   0  0  2  0  0  0  0  0  0  0  0  0
  -32.3283  -15.3626   -6.8181 C   0  0  2  0  0  0  0  0  0  0  0  0
  -31.3203  -16.1890   -5.9387 C   0  0  1  0  0  0  0  0  0  0  0  0
  -32.0665  -17.1802   -4.9998 C   0  0  0  0  0  0  0  0  0  0  0  0
  -24.5999  -14.6368   -6.1906 C   0  0  1  0  0  0  0  0  0  0  0  0
  -25.7179  -14.2920   -5.0838 C   0  0  0  0  0  0  0  0  0  0  0  0
  -27.1285  -14.0592   -5.7971 C   0  0  2  0  0  0  0  0  0  0  0  0
  -33.1755  -16.2923   -7.5738 F   0  0  0  0  0  0  0  0  0  0  0  0
  -29.9335  -14.3200   -9.7006 N   0  0  0  0  0  0  0  0  0  0  0  0
  -31.2541  -17.7962   -4.0204 N   0  0  0  0  0  0  0  0  0  0  0  0
  -23.3021  -14.8416   -5.4609 N   0  0  0  0  0  0  0  0  0  0  0  0
  -28.1493  -13.7452   -4.7766 N   0  0  0  0  0  0  0  0  0  0  0  0
  -28.7962  -15.0987   -7.1789 O   0  0  0  0  0  0  0  0  0  0  0  0
  -26.9043  -16.9658   -8.3513 O   0  0  0  0  0  0  0  0  0  0  0  0
  -24.1407  -16.3231   -7.9199 O   0  0  0  0  0  0  0  0  0  0  0  0
  -32.3649  -13.8657   -8.4193 O   0  0  0  0  0  0  0  0  0  0  0  0
  -30.3680  -16.9060   -6.9129 O   0  0  0  0  0  0  0  0  0  0  0  0
  1  5  1  0  0  0  0
  1 18  1  1  0  0  0
  2 18  1  6  0  0  0
  2  3  1  0  0  0  0
  2 12  1  0  0  0  0
  3 19  1  1  0  0  0
  3  4  1  0  0  0  0
  4 20  1  6  0  0  0
  4 10  1  0  0  0  0
  5  6  1  0  0  0  0
  5 14  1  6  0  0  0
  6 21  1  6  0  0  0
  7 13  1  6  0  0  0
  7  6  1  0  0  0  0
  8  9  1  6  0  0  0
  8  7  1  0  0  0  0
 10 16  1  1  0  0  0
 11 10  1  0  0  0  0
 12 17  1  1  0  0  0
 12 11  1  0  0  0  0
 15  9  1  0  0  0  0
 22  8  1  0  0  0  0
 22  1  1  0  0  0  0
M  END
>  <CHROM.1>
-163.09939754,65.21801215,-169.80052482,-28.81641099,-15.51103948,-6.88497296
-3.08446059,0.09578035,1.86998271

>  <Name>
lig.pdb

>  <RI>
0

>  <Rbt.Current_Directory>
/home/itssahil/PROJECTS/Mol_Feturizer/New_Systems/rnas/5bws

>  <Rbt.Executable>
rbdock ($Id: //depot/dev/client3/rdock/2013.1/src/exe/rbdock.cxx#4 $)

>  <Rbt.Library>
libRbt.so (2013.1, Build901 2013/11/27)

>  <Rbt.Parameter_File>
/export/apps/rDock/src/rDock_2013.1_src/data/scripts/dock_solv.prm

>  <Rbt.Receptor>
prm/blind_docking_40.prm

>  <SCORE>
-6.04439

>  <SCORE.INTER>
-3.55484

>  <SCORE.INTER.CONST>
1

>  <SCORE.INTER.POLAR>
0

>  <SCORE.INTER.ROT>
3

>  <SCORE.INTER.SOLV>
16.6515

>  <SCORE.INTER.VDW>
-13.5204

>  <SCORE.INTER.norm>
-0.161584

>  <SCORE.INTRA>
-2.48954

>  <SCORE.INTRA.DIHEDRAL>
-4.28516

>  <SCORE.INTRA.DIHEDRAL.0>
6.10773

>  <SCORE.INTRA.POLAR>
0

>  <SCORE.INTRA.POLAR.0>
0

>  <SCORE.INTRA.REPUL>
0

>  <SCORE.INTRA.REPUL.0>
0

>  <SCORE.INTRA.SOLV>
-1.49591

>  <SCORE.INTRA.SOLV.lig_0>
-71.4024

>  <SCORE.INTRA.VDW>
0.400987

>  <SCORE.INTRA.VDW.0>
-1.86213

>  <SCORE.INTRA.norm>
-0.113161

>  <SCORE.RESTR>
0

>  <SCORE.RESTR.CAVITY>
0

>  <SCORE.RESTR.norm>
0

>  <SCORE.SYSTEM>
0

>  <SCORE.SYSTEM.CONST>
0

>  <SCORE.SYSTEM.DIHEDRAL>
0

>  <SCORE.SYSTEM.SOLV>
0

>  <SCORE.SYSTEM.norm>
0

>  <SCORE.heavy>
22

>  <SCORE.norm>
-0.274745

>  <RMSD>
28.663

$$$$
lig.pdb
 OpenBabel11021811523D
libRbt.so/2013.1/901 2013/11/27
 22 23  0  0  0  0  0  0  0  0999 V2000
  -28.8289  -11.9701   -6.6230 C   0  0  1  0  0  0  0  0  0  0  0  0
  -30.7681  -13.5916   -6.6646 C   0  0  1  0  0  0  0  0  0  0  0  0
  -31.5180  -13.0882   -5.3527 C   0  0  1  0  0  0  0  0  0  0  0  0
  -32.4174  -14.2894   -4.8108 C   0  0  2  0  0  0  0  0  0  0  0  0
  -28.2284  -10.8582   -7.5681 C   0  0  1  0  0  0  0  0  0  0  0  0
  -27.7847  -11.5366   -8.8793 C   0  0  2  0  0  0  0  0  0  0  0  0
  -26.6925  -12.5872   -8.6111 C   0  0  2  0  0  0  0  0  0  0  0  0
  -27.2116  -13.7143   -7.6455 C   0  0  1  0  0  0  0  0  0  0  0  0
  -26.0937  -14.7486   -7.3273 C   0  0  0  0  0  0  0  0  0  0  0  0
  -33.5258  -14.6630   -5.9216 C   0  0  1  0  0  0  0  0  0  0  0  0
  -32.7323  -15.1642   -7.2304 C   0  0  0  0  0  0  0  0  0  0  0  0
  -31.7931  -13.9912   -7.7732 C   0  0  2  0  0  0  0  0  0  0  0  0
  -25.5169  -11.9476   -8.0095 F   0  0  0  0  0  0  0  0  0  0  0  0
  -29.3064   -9.8214   -7.8057 N   0  0  0  0  0  0  0  0  0  0  0  0
  -25.5595  -15.4116   -8.4559 N   0  0  0  0  0  0  0  0  0  0  0  0
  -34.3892  -15.8043   -5.4625 N   0  0  0  0  0  0  0  0  0  0  0  0
  -31.0672  -14.4579   -8.9722 N   0  0  0  0  0  0  0  0  0  0  0  0
  -29.9584  -12.5527   -7.1939 O   0  0  0  0  0  0  0  0  0  0  0  0
  -30.4892  -12.7414   -4.3440 O   0  0  0  0  0  0  0  0  0  0  0  0
  -33.0558  -13.8269   -3.6578 O   0  0  0  0  0  0  0  0  0  0  0  0
  -27.3453  -10.7248   -9.5657 O   0  0  0  0  0  0  0  0  0  0  0  0
  -27.7356  -13.0077   -6.3820 O   0  0  0  0  0  0  0  0  0  0  0  0
  1  5  1  0  0  0  0
  1 18  1  6  0  0  0
  2 18  1  6  0  0  0
  2  3  1  0  0  0  0
  2 12  1  0  0  0  0
  3 19  1  1  0  0  0
  3  4  1  0  0  0  0
  4 20  1  1  0  0  0
  4 10  1  0  0  0  0
  5  6  1  0  0  0  0
  5 14  1  6  0  0  0
  6 21  1  6  0  0  0
  7 13  1  1  0  0  0
  7  6  1  0  0  0  0
  8  9  1  1  0  0  0
  8  7  1  0  0  0  0
 10 16  1  1  0  0  0
 11 10  1  0  0  0  0
 12 17  1  6  0  0  0
 12 11  1  0  0  0  0
 15  9  1  0  0  0  0
 22  8  1  0  0  0  0
 22  1  1  0  0  0  0
M  END
>  <CHROM.1>
179.35415028,66.08110161,-59.24010783,-29.56649285,-13.17006863,-7.00353747
0.28442091,0.42323885,0.01854880

>  <Name>
lig.pdb

>  <RI>
0

>  <Rbt.Current_Directory>
/home/itssahil/PROJECTS/Mol_Feturizer/New_Systems/rnas/5bws

>  <Rbt.Executable>
rbdock ($Id: //depot/dev/client3/rdock/2013.1/src/exe/rbdock.cxx#4 $)

>  <Rbt.Library>
libRbt.so (2013.1, Build901 2013/11/27)

>  <Rbt.Parameter_File>
/export/apps/rDock/src/rDock_2013.1_src/data/scripts/dock_solv.prm

>  <Rbt.Receptor>
prm/blind_docking_80.prm

>  <SCORE>
-3.9134

>  <SCORE.INTER>
-0.835048

>  <SCORE.INTER.CONST>
1

>  <SCORE.INTER.POLAR>
0

>  <SCORE.INTER.ROT>
3

>  <SCORE.INTER.SOLV>
20.5421

>  <SCORE.INTER.VDW>
-13.0041

>  <SCORE.INTER.norm>
-0.0379567

>  <SCORE.INTRA>
-3.07835

>  <SCORE.INTRA.DIHEDRAL>
-5.92012

>  <SCORE.INTRA.DIHEDRAL.0>
6.10773

>  <SCORE.INTRA.POLAR>
0

>  <SCORE.INTRA.POLAR.0>
0

>  <SCORE.INTRA.REPUL>
0

>  <SCORE.INTRA.REPUL.0>
0

>  <SCORE.INTRA.SOLV>
-0.958095

>  <SCORE.INTRA.SOLV.lig_0>
-71.4024

>  <SCORE.INTRA.VDW>
0.360757

>  <SCORE.INTRA.VDW.0>
-1.86213

>  <SCORE.INTRA.norm>
-0.139925

>  <SCORE.RESTR>
0

>  <SCORE.RESTR.CAVITY>
0

>  <SCORE.RESTR.norm>
0

>  <SCORE.SYSTEM>
0

>  <SCORE.SYSTEM.CONST>
0

>  <SCORE.SYSTEM.DIHEDRAL>
0

>  <SCORE.SYSTEM.SOLV>
0

>  <SCORE.SYSTEM.norm>
0

>  <SCORE.heavy>
22

>  <SCORE.norm>
-0.177882

>  <RMSD>
28.665

$$$$
lig.pdb
 OpenBabel11021811523D
libRbt.so/2013.1/901 2013/11/27
 22 23  0  0  0  0  0  0  0  0999 V2000
  -29.6644  -16.1734   -7.3401 C   0  0  1  0  0  0  0  0  0  0  0  0
  -27.9746  -15.1261   -5.7784 C   0  0  1  0  0  0  0  0  0  0  0  0
  -26.6917  -15.1646   -6.7216 C   0  0  1  0  0  0  0  0  0  0  0  0
  -25.3971  -15.1427   -5.7895 C   0  0  2  0  0  0  0  0  0  0  0  0
  -30.8220  -15.6609   -8.2821 C   0  0  1  0  0  0  0  0  0  0  0  0
  -31.9709  -15.1505   -7.3901 C   0  0  2  0  0  0  0  0  0  0  0  0
  -32.5273  -16.2839   -6.5101 C   0  0  2  0  0  0  0  0  0  0  0  0
  -31.4155  -16.8683   -5.5642 C   0  0  1  0  0  0  0  0  0  0  0  0
  -31.9591  -18.0513   -4.7124 C   0  0  0  0  0  0  0  0  0  0  0  0
  -25.3732  -13.7653   -4.9501 C   0  0  1  0  0  0  0  0  0  0  0  0
  -26.6824  -13.7613   -4.0123 C   0  0  0  0  0  0  0  0  0  0  0  0
  -27.9957  -13.8213   -4.9203 C   0  0  2  0  0  0  0  0  0  0  0  0
  -33.0519  -17.3638   -7.3538 F   0  0  0  0  0  0  0  0  0  0  0  0
  -30.2548  -14.5618   -9.1560 N   0  0  0  0  0  0  0  0  0  0  0  0
  -32.9578  -17.6991   -3.7758 N   0  0  0  0  0  0  0  0  0  0  0  0
  -24.1772  -13.7055   -4.0420 N   0  0  0  0  0  0  0  0  0  0  0  0
  -29.1924  -13.8190   -4.0542 N   0  0  0  0  0  0  0  0  0  0  0  0
  -29.1581  -15.1344   -6.5622 O   0  0  0  0  0  0  0  0  0  0  0  0
  -26.7299  -16.4301   -7.4920 O   0  0  0  0  0  0  0  0  0  0  0  0
  -24.2884  -15.1864   -6.6380 O   0  0  0  0  0  0  0  0  0  0  0  0
  -32.8145  -14.7795   -8.0787 O   0  0  0  0  0  0  0  0  0  0  0  0
  -30.2406  -17.2854   -6.4674 O   0  0  0  0  0  0  0  0  0  0  0  0
  1  5  1  0  0  0  0
  1 18  1  1  0  0  0
  2 18  1  6  0  0  0
  2  3  1  0  0  0  0
  2 12  1  0  0  0  0
  3 19  1  1  0  0  0
  3  4  1  0  0  0  0
  4 20  1  6  0  0  0
  4 10  1  0  0  0  0
  5  6  1  0  0  0  0
  5 14  1  6  0  0  0
  6 21  1  6  0  0  0
  7 13  1  6  0  0  0
  7  6  1  0  0  0  0
  8  9  1  6  0  0  0
  8  7  1  0  0  0  0
 10 16  1  1  0  0  0
 11 10  1  0  0  0  0
 12 17  1  1  0  0  0
 12 11  1  0  0  0  0
 15  9  1  0  0  0  0
 22  8  1  0  0  0  0
 22  1  1  0  0  0  0
M  END
>  <CHROM.1>
-167.74200330,68.75993518,-65.76017173,-29.20318954,-15.54101565,-6.20502841
-2.99517297,0.31951386,1.66657537

>  <Name>
lig.pdb

>  <RI>
0

>  <Rbt.Current_Directory>
/home/itssahil/PROJECTS/Mol_Feturizer/New_Systems/rnas/5bws

>  <Rbt.Executable>
rbdock ($Id: //depot/dev/client3/rdock/2013.1/src/exe/rbdock.cxx#4 $)

>  <Rbt.Library>
libRbt.so (2013.1, Build901 2013/11/27)

>  <Rbt.Parameter_File>
/export/apps/rDock/src/rDock_2013.1_src/data/scripts/dock_solv.prm

>  <Rbt.Receptor>
prm/blind_docking_80.prm

>  <SCORE>
-6.86573

>  <SCORE.INTER>
-4.23081

>  <SCORE.INTER.CONST>
1

>  <SCORE.INTER.POLAR>
0

>  <SCORE.INTER.ROT>
3

>  <SCORE.INTER.SOLV>
14.4857

>  <SCORE.INTER.VDW>
-13.2491

>  <SCORE.INTER.norm>
-0.19231

>  <SCORE.INTRA>
-2.63492

>  <SCORE.INTRA.DIHEDRAL>
-4.89723

>  <SCORE.INTRA.DIHEDRAL.0>
6.10773

>  <SCORE.INTRA.POLAR>
0

>  <SCORE.INTRA.POLAR.0>
0

>  <SCORE.INTRA.REPUL>
0

>  <SCORE.INTRA.REPUL.0>
0

>  <SCORE.INTRA.SOLV>
-0.990786

>  <SCORE.INTRA.SOLV.lig_0>
-71.4024

>  <SCORE.INTRA.VDW>
0.30909

>  <SCORE.INTRA.VDW.0>
-1.86213

>  <SCORE.INTRA.norm>
-0.119769

>  <SCORE.RESTR>
0

>  <SCORE.RESTR.CAVITY>
0

>  <SCORE.RESTR.norm>
0

>  <SCORE.SYSTEM>
0

>  <SCORE.SYSTEM.CONST>
0

>  <SCORE.SYSTEM.DIHEDRAL>
0

>  <SCORE.SYSTEM.SOLV>
0

>  <SCORE.SYSTEM.norm>
0

>  <SCORE.heavy>
22

>  <SCORE.norm>
-0.312079

>  <RMSD>
28.790

$$$$
lig.pdb
 OpenBabel11021811523D
libRbt.so/2013.1/901 2013/11/27
 22 23  0  0  0  0  0  0  0  0999 V2000
  -29.6677  -16.1949   -7.3307 C   0  0  1  0  0  0  0  0  0  0  0  0
  -27.9801  -15.1353   -5.7749 C   0  0  1  0  0  0  0  0  0  0  0  0
  -26.6946  -15.2214   -6.7113 C   0  0  1  0  0  0  0  0  0  0  0  0
  -25.4032  -15.1916   -5.7750 C   0  0  2  0  0  0  0  0  0  0  0  0
  -30.8198  -15.6894   -8.2831 C   0  0  1  0  0  0  0  0  0  0  0  0
  -31.9704  -15.1646   -7.4016 C   0  0  2  0  0  0  0  0  0  0  0  0
  -32.5342  -16.2857   -6.5107 C   0  0  2  0  0  0  0  0  0  0  0  0
  -31.4282  -16.8629   -5.5537 C   0  0  1  0  0  0  0  0  0  0  0  0
  -31.9794  -18.0340   -4.6902 C   0  0  0  0  0  0  0  0  0  0  0  0
  -25.3610  -13.7905   -4.9766 C   0  0  1  0  0  0  0  0  0  0  0  0
  -26.6735  -13.7386   -4.0447 C   0  0  0  0  0  0  0  0  0  0  0  0
  -27.9843  -13.8054   -4.9558 C   0  0  2  0  0  0  0  0  0  0  0  0
  -33.0594  -17.3735   -7.3438 F   0  0  0  0  0  0  0  0  0  0  0  0
  -30.2453  -14.6026   -9.1675 N   0  0  0  0  0  0  0  0  0  0  0  0
  -32.9852  -17.6685   -3.7665 N   0  0  0  0  0  0  0  0  0  0  0  0
  -24.1675  -13.7221   -4.0658 N   0  0  0  0  0  0  0  0  0  0  0  0
  -29.1839  -13.7591   -4.0950 N   0  0  0  0  0  0  0  0  0  0  0  0
  -29.1608  -15.1487   -6.5629 O   0  0  0  0  0  0  0  0  0  0  0  0
  -26.7495  -16.5084   -7.4441 O   0  0  0  0  0  0  0  0  0  0  0  0
  -24.2923  -15.2775   -6.6173 O   0  0  0  0  0  0  0  0  0  0  0  0
  -32.8099  -14.7987   -8.0979 O   0  0  0  0  0  0  0  0  0  0  0  0
  -30.2513  -17.2946   -6.4473 O   0  0  0  0  0  0  0  0  0  0  0  0
  1  5  1  0  0  0  0
  1 18  1  1  0  0  0
  2 18  1  6  0  0  0
  2  3  1  0  0  0  0
  2 12  1  0  0  0  0
  3 19  1  1  0  0  0
  3  4  1  0  0  0  0
  4 20  1  6  0  0  0
  4 10  1  0  0  0  0
  5  6  1  0  0  0  0
  5 14  1  6  0  0  0
  6 21  1  6  0  0  0
  7 13  1  6  0  0  0
  7  6  1  0  0  0  0
  8  9  1  6  0  0  0
  8  7  1  0  0  0  0
 10 16  1  1  0  0  0
 11 10  1  0  0  0  0
 12 17  1  1  0  0  0
 12 11  1  0  0  0  0
 15  9  1  0  0  0  0
 22  8  1  0  0  0  0
 22  1  1  0  0  0  0
M  END
>  <CHROM.1>
-167.72257944,67.51578392,-65.45967069,-29.20624854,-15.55683524,-6.20547054
-2.99184145,0.31379566,1.65479135

>  <Name>
lig.pdb

>  <RI>
0

>  <Rbt.Current_Directory>
/home/itssahil/PROJECTS/Mol_Feturizer/New_Systems/rnas/5bws

>  <Rbt.Executable>
rbdock ($Id: //depot/dev/client3/rdock/2013.1/src/exe/rbdock.cxx#4 $)

>  <Rbt.Library>
libRbt.so (2013.1, Build901 2013/11/27)

>  <Rbt.Parameter_File>
/export/apps/rDock/src/rDock_2013.1_src/data/scripts/dock_solv.prm

>  <Rbt.Receptor>
prm/blind_docking_100.prm

>  <SCORE>
-6.90076

>  <SCORE.INTER>
-4.24495

>  <SCORE.INTER.CONST>
1

>  <SCORE.INTER.POLAR>
0

>  <SCORE.INTER.ROT>
3

>  <SCORE.INTER.SOLV>
14.5449

>  <SCORE.INTER.VDW>
-13.2783

>  <SCORE.INTER.norm>
-0.192952

>  <SCORE.INTRA>
-2.65581

>  <SCORE.INTRA.DIHEDRAL>
-5.00394

>  <SCORE.INTRA.DIHEDRAL.0>
6.10773

>  <SCORE.INTRA.POLAR>
0

>  <SCORE.INTRA.POLAR.0>
0

>  <SCORE.INTRA.REPUL>
0

>  <SCORE.INTRA.REPUL.0>
0

>  <SCORE.INTRA.SOLV>
-1.01144

>  <SCORE.INTRA.SOLV.lig_0>
-71.4024

>  <SCORE.INTRA.VDW>
0.351884

>  <SCORE.INTRA.VDW.0>
-1.86213

>  <SCORE.INTRA.norm>
-0.120718

>  <SCORE.RESTR>
0

>  <SCORE.RESTR.CAVITY>
0

>  <SCORE.RESTR.norm>
0

>  <SCORE.SYSTEM>
0

>  <SCORE.SYSTEM.CONST>
0

>  <SCORE.SYSTEM.DIHEDRAL>
0

>  <SCORE.SYSTEM.SOLV>
0

>  <SCORE.SYSTEM.norm>
0

>  <SCORE.heavy>
22

>  <SCORE.norm>
-0.313671

>  <RMSD>
28.802

$$$$
lig.pdb
 OpenBabel11021811523D
libRbt.so/2013.1/901 2013/11/27
 22 23  0  0  0  0  0  0  0  0999 V2000
  -29.6877  -16.2027   -7.3383 C   0  0  1  0  0  0  0  0  0  0  0  0
  -28.0003  -15.1427   -5.7825 C   0  0  1  0  0  0  0  0  0  0  0  0
  -26.7155  -15.1856   -6.7230 C   0  0  1  0  0  0  0  0  0  0  0  0
  -25.4228  -15.1564   -5.7885 C   0  0  2  0  0  0  0  0  0  0  0  0
  -30.8416  -15.6974   -8.2887 C   0  0  1  0  0  0  0  0  0  0  0  0
  -31.9925  -15.1769   -7.4051 C   0  0  2  0  0  0  0  0  0  0  0  0
  -32.5533  -16.3010   -6.5162 C   0  0  2  0  0  0  0  0  0  0  0  0
  -31.4454  -16.8781   -5.5613 C   0  0  1  0  0  0  0  0  0  0  0  0
  -31.9935  -18.0522   -4.7000 C   0  0  0  0  0  0  0  0  0  0  0  0
  -25.4020  -13.7738   -4.9576 C   0  0  1  0  0  0  0  0  0  0  0  0
  -26.7131  -13.7654   -4.0224 C   0  0  0  0  0  0  0  0  0  0  0  0
  -28.0246  -13.8326   -4.9326 C   0  0  2  0  0  0  0  0  0  0  0  0
  -33.0770  -17.3881   -7.3512 F   0  0  0  0  0  0  0  0  0  0  0  0
  -30.2700  -14.6075   -9.1712 N   0  0  0  0  0  0  0  0  0  0  0  0
  -32.9639  -17.6824   -3.7407 N   0  0  0  0  0  0  0  0  0  0  0  0
  -24.2079  -13.7070   -4.0475 N   0  0  0  0  0  0  0  0  0  0  0  0
  -29.2230  -13.8263   -4.0689 N   0  0  0  0  0  0  0  0  0  0  0  0
  -29.1822  -15.1572   -6.5686 O   0  0  0  0  0  0  0  0  0  0  0  0
  -26.7507  -16.4559   -7.4856 O   0  0  0  0  0  0  0  0  0  0  0  0
  -24.3124  -15.2042   -6.6345 O   0  0  0  0  0  0  0  0  0  0  0  0
  -32.8333  -14.8112   -8.0998 O   0  0  0  0  0  0  0  0  0  0  0  0
  -30.2683  -17.3055   -6.4568 O   0  0  0  0  0  0  0  0  0  0  0  0
  1  5  1  0  0  0  0
  1 18  1  1  0  0  0
  2 18  1  6  0  0  0
  2  3  1  0  0  0  0
  2 12  1  0  0  0  0
  3 19  1  1  0  0  0
  3  4  1  0  0  0  0
  4 20  1  6  0  0  0
  4 10  1  0  0  0  0
  5  6  1  0  0  0  0
  5 14  1  6  0  0  0
  6 21  1  6  0  0  0
  7 13  1  6  0  0  0
  7  6  1  0  0  0  0
  8  9  1  6  0  0  0
  8  7  1  0  0  0  0
 10 16  1  1  0  0  0
 11 10  1  0  0  0  0
 12 17  1  1  0  0  0
 12 11  1  0  0  0  0
 15  9  1  0  0  0  0
 22  8  1  0  0  0  0
 22  1  1  0  0  0  0
M  END
>  <CHROM.1>
-167.65679481,68.94899084,-67.67964949,-29.22773720,-15.55832956,-6.20709478
-2.99232041,0.31893804,1.65649197

>  <Name>
lig.pdb

>  <RI>
0

>  <Rbt.Current_Directory>
/home/itssahil/PROJECTS/Mol_Feturizer/New_Systems/rnas/5bws

>  <Rbt.Executable>
rbdock ($Id: //depot/dev/client3/rdock/2013.1/src/exe/rbdock.cxx#4 $)

>  <Rbt.Library>
libRbt.so (2013.1, Build901 2013/11/27)

>  <Rbt.Parameter_File>
/export/apps/rDock/src/rDock_2013.1_src/data/scripts/dock_solv.prm

>  <Rbt.Receptor>
prm/blind_docking_60.prm

>  <SCORE>
-6.91678

>  <SCORE.INTER>
-4.31584

>  <SCORE.INTER.CONST>
1

>  <SCORE.INTER.POLAR>
0

>  <SCORE.INTER.ROT>
3

>  <SCORE.INTER.SOLV>
14.5112

>  <SCORE.INTER.VDW>
-13.3143

>  <SCORE.INTER.norm>
-0.196175

>  <SCORE.INTRA>
-2.60093

>  <SCORE.INTRA.DIHEDRAL>
-4.7801

>  <SCORE.INTRA.DIHEDRAL.0>
6.10773

>  <SCORE.INTRA.POLAR>
0

>  <SCORE.INTRA.POLAR.0>
0

>  <SCORE.INTRA.REPUL>
0

>  <SCORE.INTRA.REPUL.0>
0

>  <SCORE.INTRA.SOLV>
-1.02615

>  <SCORE.INTRA.SOLV.lig_0>
-71.4024

>  <SCORE.INTRA.VDW>
0.302187

>  <SCORE.INTRA.VDW.0>
-1.86213

>  <SCORE.INTRA.norm>
-0.118224

>  <SCORE.RESTR>
0

>  <SCORE.RESTR.CAVITY>
0

>  <SCORE.RESTR.norm>
0

>  <SCORE.SYSTEM>
0

>  <SCORE.SYSTEM.CONST>
0

>  <SCORE.SYSTEM.DIHEDRAL>
0

>  <SCORE.SYSTEM.SOLV>
0

>  <SCORE.SYSTEM.norm>
0

>  <SCORE.heavy>
22

>  <SCORE.norm>
-0.314399

>  <RMSD>
28.820

$$$$
lig.pdb
 OpenBabel11021811523D
libRbt.so/2013.1/901 2013/11/27
 22 23  0  0  0  0  0  0  0  0999 V2000
  -29.8145  -13.8574   -7.4562 C   0  0  1  0  0  0  0  0  0  0  0  0
  -29.6252  -15.1463   -5.2895 C   0  0  1  0  0  0  0  0  0  0  0  0
  -30.8209  -16.1743   -5.5140 C   0  0  1  0  0  0  0  0  0  0  0  0
  -31.3050  -16.6835   -4.0816 C   0  0  2  0  0  0  0  0  0  0  0  0
  -29.9949  -14.5979   -8.8379 C   0  0  1  0  0  0  0  0  0  0  0  0
  -28.5928  -14.8876   -9.4095 C   0  0  2  0  0  0  0  0  0  0  0  0
  -27.8203  -13.5798   -9.6570 C   0  0  2  0  0  0  0  0  0  0  0  0
  -27.6310  -12.7692   -8.3230 C   0  0  1  0  0  0  0  0  0  0  0  0
  -26.8991  -11.4200   -8.5775 C   0  0  0  0  0  0  0  0  0  0  0  0
  -30.0908  -17.4616   -3.3588 C   0  0  1  0  0  0  0  0  0  0  0  0
  -28.9032  -16.3939   -3.1509 C   0  0  0  0  0  0  0  0  0  0  0  0
  -28.4238  -15.8381   -4.5701 C   0  0  2  0  0  0  0  0  0  0  0  0
  -28.5421  -12.7450  -10.6242 F   0  0  0  0  0  0  0  0  0  0  0  0
  -30.7744  -15.8708   -8.5823 N   0  0  0  0  0  0  0  0  0  0  0  0
  -26.6529  -10.6500   -7.4177 N   0  0  0  0  0  0  0  0  0  0  0  0
  -30.4944  -17.9469   -1.9949 N   0  0  0  0  0  0  0  0  0  0  0  0
  -27.3360  -14.8584   -4.3721 N   0  0  0  0  0  0  0  0  0  0  0  0
  -29.1499  -14.6688   -6.5390 O   0  0  0  0  0  0  0  0  0  0  0  0
  -31.9257  -15.4494   -6.1850 O   0  0  0  0  0  0  0  0  0  0  0  0
  -32.3574  -17.5743   -4.3048 O   0  0  0  0  0  0  0  0  0  0  0  0
  -28.7268  -15.4253  -10.4176 O   0  0  0  0  0  0  0  0  0  0  0  0
  -29.0346  -12.5724   -7.7219 O   0  0  0  0  0  0  0  0  0  0  0  0
  1  5  1  0  0  0  0
  1 18  1  1  0  0  0
  2 18  1  6  0  0  0
  2  3  1  0  0  0  0
  2 12  1  0  0  0  0
  3 19  1  1  0  0  0
  3  4  1  0  0  0  0
  4 20  1  6  0  0  0
  4 10  1  0  0  0  0
  5  6  1  0  0  0  0
  5 14  1  1  0  0  0
  6 21  1  6  0  0  0
  7 13  1  6  0  0  0
  7  6  1  0  0  0  0
  8  9  1  6  0  0  0
  8  7  1  0  0  0  0
 10 16  1  1  0  0  0
 11 10  1  0  0  0  0
 12 17  1  1  0  0  0
 12 11  1  0  0  0  0
 15  9  1  0  0  0  0
 22  8  1  0  0  0  0
 22  1  1  0  0  0  0
M  END
>  <CHROM.1>
-118.79138515,67.17529582,-178.10029482,-29.32820458,-14.81186441,-6.72926056
1.08158892,-0.74801180,-1.27808494

>  <Name>
lig.pdb

>  <RI>
0

>  <Rbt.Current_Directory>
/home/itssahil/PROJECTS/Mol_Feturizer/New_Systems/rnas/5bws

>  <Rbt.Executable>
rbdock ($Id: //depot/dev/client3/rdock/2013.1/src/exe/rbdock.cxx#4 $)

>  <Rbt.Library>
libRbt.so (2013.1, Build901 2013/11/27)

>  <Rbt.Parameter_File>
/export/apps/rDock/src/rDock_2013.1_src/data/scripts/dock_solv.prm

>  <Rbt.Receptor>
prm/blind_docking_60.prm

>  <SCORE>
-2.10646

>  <SCORE.INTER>
-3.42877

>  <SCORE.INTER.CONST>
1

>  <SCORE.INTER.POLAR>
0

>  <SCORE.INTER.ROT>
3

>  <SCORE.INTER.SOLV>
15.6422

>  <SCORE.INTER.VDW>
-13.0999

>  <SCORE.INTER.norm>
-0.155853

>  <SCORE.INTRA>
1.32231

>  <SCORE.INTRA.DIHEDRAL>
1.35054

>  <SCORE.INTRA.DIHEDRAL.0>
6.10773

>  <SCORE.INTRA.POLAR>
0

>  <SCORE.INTRA.POLAR.0>
0

>  <SCORE.INTRA.REPUL>
0

>  <SCORE.INTRA.REPUL.0>
0

>  <SCORE.INTRA.SOLV>
0.485407

>  <SCORE.INTRA.SOLV.lig_0>
-71.4024

>  <SCORE.INTRA.VDW>
0.404339

>  <SCORE.INTRA.VDW.0>
-1.86213

>  <SCORE.INTRA.norm>
0.0601051

>  <SCORE.RESTR>
0

>  <SCORE.RESTR.CAVITY>
0

>  <SCORE.RESTR.norm>
0

>  <SCORE.SYSTEM>
0

>  <SCORE.SYSTEM.CONST>
0

>  <SCORE.SYSTEM.DIHEDRAL>
0

>  <SCORE.SYSTEM.SOLV>
0

>  <SCORE.SYSTEM.norm>
0

>  <SCORE.heavy>
22

>  <SCORE.norm>
-0.095748

>  <RMSD>
28.971

$$$$
lig.pdb
 OpenBabel11021811523D
libRbt.so/2013.1/901 2013/11/27
 22 23  0  0  0  0  0  0  0  0999 V2000
  -28.2916  -16.4500   -7.6077 C   0  0  1  0  0  0  0  0  0  0  0  0
  -28.9420  -15.6871   -5.2869 C   0  0  1  0  0  0  0  0  0  0  0  0
  -29.4468  -17.1344   -4.8539 C   0  0  1  0  0  0  0  0  0  0  0  0
  -30.4104  -16.9609   -3.5943 C   0  0  2  0  0  0  0  0  0  0  0  0
  -27.2291  -16.0200   -8.6923 C   0  0  1  0  0  0  0  0  0  0  0  0
  -27.4028  -14.5113   -8.9570 C   0  0  2  0  0  0  0  0  0  0  0  0
  -28.8078  -14.2092   -9.5077 C   0  0  2  0  0  0  0  0  0  0  0  0
  -29.9240  -14.6441   -8.4893 C   0  0  1  0  0  0  0  0  0  0  0  0
  -31.3473  -14.3916   -9.0648 C   0  0  0  0  0  0  0  0  0  0  0  0
  -29.5728  -16.3247   -2.3713 C   0  0  1  0  0  0  0  0  0  0  0  0
  -29.0785  -14.8671   -2.8455 C   0  0  0  0  0  0  0  0  0  0  0  0
  -28.1404  -15.0082   -4.1311 C   0  0  2  0  0  0  0  0  0  0  0  0
  -29.0146  -14.9200  -10.7746 F   0  0  0  0  0  0  0  0  0  0  0  0
  -25.8540  -16.3426   -8.1460 N   0  0  0  0  0  0  0  0  0  0  0  0
  -32.4085  -14.7226   -8.1914 N   0  0  0  0  0  0  0  0  0  0  0  0
  -30.4447  -16.1258   -1.1634 N   0  0  0  0  0  0  0  0  0  0  0  0
  -27.6921  -13.6681   -4.5617 N   0  0  0  0  0  0  0  0  0  0  0  0
  -28.0700  -15.7871   -6.4026 O   0  0  0  0  0  0  0  0  0  0  0  0
  -30.2075  -17.7103   -5.9879 O   0  0  0  0  0  0  0  0  0  0  0  0
  -30.8460  -18.2400   -3.2405 O   0  0  0  0  0  0  0  0  0  0  0  0
  -26.6289  -14.2005   -9.7494 O   0  0  0  0  0  0  0  0  0  0  0  0
  -29.6751  -16.1289   -8.1673 O   0  0  0  0  0  0  0  0  0  0  0  0
  1  5  1  0  0  0  0
  1 18  1  1  0  0  0
  2 18  1  6  0  0  0
  2  3  1  0  0  0  0
  2 12  1  0  0  0  0
  3 19  1  6  0  0  0
  3  4  1  0  0  0  0
  4 20  1  1  0  0  0
  4 10  1  0  0  0  0
  5  6  1  0  0  0  0
  5 14  1  1  0  0  0
  6 21  1  6  0  0  0
  7 13  1  6  0  0  0
  7  6  1  0  0  0  0
  8  9  1  6  0  0  0
  8  7  1  0  0  0  0
 10 16  1  1  0  0  0
 11 10  1  0  0  0  0
 12 17  1  6  0  0  0
 12 11  1  0  0  0  0
 15  9  1  0  0  0  0
 22  8  1  0  0  0  0
 22  1  1  0  0  0  0
M  END
>  <CHROM.1>
166.11004657,51.59149362,-178.29078251,-29.07303974,-15.65013937,-6.52520356
-1.35551977,0.17964912,1.76757098

>  <Name>
lig.pdb

>  <RI>
0

>  <Rbt.Current_Directory>
/home/itssahil/PROJECTS/Mol_Feturizer/New_Systems/rnas/5bws

>  <Rbt.Executable>
rbdock ($Id: //depot/dev/client3/rdock/2013.1/src/exe/rbdock.cxx#4 $)

>  <Rbt.Library>
libRbt.so (2013.1, Build901 2013/11/27)

>  <Rbt.Parameter_File>
/export/apps/rDock/src/rDock_2013.1_src/data/scripts/dock_solv.prm

>  <Rbt.Receptor>
prm/blind_docking_60.prm

>  <SCORE>
-8.36208

>  <SCORE.INTER>
-5.68159

>  <SCORE.INTER.CONST>
1

>  <SCORE.INTER.POLAR>
0

>  <SCORE.INTER.ROT>
3

>  <SCORE.INTER.SOLV>
18.2643

>  <SCORE.INTER.VDW>
-15.4758

>  <SCORE.INTER.norm>
-0.258254

>  <SCORE.INTRA>
-2.68048

>  <SCORE.INTRA.DIHEDRAL>
-4.84081

>  <SCORE.INTRA.DIHEDRAL.0>
6.10773

>  <SCORE.INTRA.POLAR>
0

>  <SCORE.INTRA.POLAR.0>
0

>  <SCORE.INTRA.REPUL>
0

>  <SCORE.INTRA.REPUL.0>
0

>  <SCORE.INTRA.SOLV>
-1.71017

>  <SCORE.INTRA.SOLV.lig_0>
-71.4024

>  <SCORE.INTRA.VDW>
0.595005

>  <SCORE.INTRA.VDW.0>
-1.86213

>  <SCORE.INTRA.norm>
-0.12184

>  <SCORE.RESTR>
0

>  <SCORE.RESTR.CAVITY>
0

>  <SCORE.RESTR.norm>
0

>  <SCORE.SYSTEM>
0

>  <SCORE.SYSTEM.CONST>
0

>  <SCORE.SYSTEM.DIHEDRAL>
0

>  <SCORE.SYSTEM.SOLV>
0

>  <SCORE.SYSTEM.norm>
0

>  <SCORE.heavy>
22

>  <SCORE.norm>
-0.380094

>  <RMSD>
29.079

$$$$
lig.pdb
 OpenBabel11021811523D
libRbt.so/2013.1/901 2013/11/27
 22 23  0  0  0  0  0  0  0  0999 V2000
  -30.3969  -15.2534   -5.8929 C   0  0  1  0  0  0  0  0  0  0  0  0
  -28.3964  -14.7620   -7.3585 C   0  0  1  0  0  0  0  0  0  0  0  0
  -27.2482  -15.2856   -6.3865 C   0  0  1  0  0  0  0  0  0  0  0  0
  -25.8912  -14.5504   -6.7903 C   0  0  2  0  0  0  0  0  0  0  0  0
  -31.5644  -16.3144   -5.8591 C   0  0  1  0  0  0  0  0  0  0  0  0
  -32.4869  -16.0458   -7.0647 C   0  0  2  0  0  0  0  0  0  0  0  0
  -33.1064  -14.6396   -6.9788 C   0  0  2  0  0  0  0  0  0  0  0  0
  -31.9951  -13.5273   -6.9743 C   0  0  1  0  0  0  0  0  0  0  0  0
  -32.6141  -12.1069   -6.8318 C   0  0  0  0  0  0  0  0  0  0  0  0
  -25.5022  -14.9518   -8.3035 C   0  0  1  0  0  0  0  0  0  0  0  0
  -26.6836  -14.4095   -9.2542 C   0  0  0  0  0  0  0  0  0  0  0  0
  -28.0644  -15.1022   -8.8463 C   0  0  2  0  0  0  0  0  0  0  0  0
  -33.9086  -14.5176   -5.7562 F   0  0  0  0  0  0  0  0  0  0  0  0
  -30.9394  -17.6923   -5.9226 N   0  0  0  0  0  0  0  0  0  0  0  0
  -31.6735  -11.0548   -6.7489 N   0  0  0  0  0  0  0  0  0  0  0  0
  -24.2357  -14.2683   -8.7365 N   0  0  0  0  0  0  0  0  0  0  0  0
  -29.1437  -14.5993   -9.7207 N   0  0  0  0  0  0  0  0  0  0  0  0
  -29.6278  -15.3952   -7.0460 O   0  0  0  0  0  0  0  0  0  0  0  0
  -27.6213  -14.9175   -5.0003 O   0  0  0  0  0  0  0  0  0  0  0  0
  -24.9044  -15.0185   -5.9196 O   0  0  0  0  0  0  0  0  0  0  0  0
  -33.3384  -16.8188   -7.0368 O   0  0  0  0  0  0  0  0  0  0  0  0
  -31.0331  -13.8677   -5.8215 O   0  0  0  0  0  0  0  0  0  0  0  0
  1  5  1  0  0  0  0
  1 18  1  6  0  0  0
  2 18  1  1  0  0  0
  2  3  1  0  0  0  0
  2 12  1  0  0  0  0
  3 19  1  1  0  0  0
  3  4  1  0  0  0  0
  4 20  1  1  0  0  0
  4 10  1  0  0  0  0
  5  6  1  0  0  0  0
  5 14  1  6  0  0  0
  6 21  1  1  0  0  0
  7 13  1  1  0  0  0
  7  6  1  0  0  0  0
  8  9  1  1  0  0  0
  8  7  1  0  0  0  0
 10 16  1  6  0  0  0
 11 10  1  0  0  0  0
 12 17  1  6  0  0  0
 12 11  1  0  0  0  0
 15  9  1  0  0  0  0
 22  8  1  0  0  0  0
 22  1  1  0  0  0  0
M  END
>  <CHROM.1>
-170.73329112,67.28173122,176.83546676,-29.62665905,-14.77805754,-6.96349751
-3.09800482,0.15979788,-0.31655388

>  <Name>
lig.pdb

>  <RI>
0

>  <Rbt.Current_Directory>
/home/itssahil/PROJECTS/Mol_Feturizer/New_Systems/rnas/5bws

>  <Rbt.Executable>
rbdock ($Id: //depot/dev/client3/rdock/2013.1/src/exe/rbdock.cxx#4 $)

>  <Rbt.Library>
libRbt.so (2013.1, Build901 2013/11/27)

>  <Rbt.Parameter_File>
/export/apps/rDock/src/rDock_2013.1_src/data/scripts/dock_solv.prm

>  <Rbt.Receptor>
prm/blind_docking_60.prm

>  <SCORE>
-4.16314

>  <SCORE.INTER>
-1.06

>  <SCORE.INTER.CONST>
1

>  <SCORE.INTER.POLAR>
0

>  <SCORE.INTER.ROT>
3

>  <SCORE.INTER.SOLV>
18.1653

>  <SCORE.INTER.VDW>
-12.3618

>  <SCORE.INTER.norm>
-0.0481819

>  <SCORE.INTRA>
-3.10314

>  <SCORE.INTRA.DIHEDRAL>
-5.3948

>  <SCORE.INTRA.DIHEDRAL.0>
6.10773

>  <SCORE.INTRA.POLAR>
0

>  <SCORE.INTRA.POLAR.0>
0

>  <SCORE.INTRA.REPUL>
0

>  <SCORE.INTRA.REPUL.0>
0

>  <SCORE.INTRA.SOLV>
-1.39578

>  <SCORE.INTRA.SOLV.lig_0>
-71.4024

>  <SCORE.INTRA.VDW>
0.292151

>  <SCORE.INTRA.VDW.0>
-1.86213

>  <SCORE.INTRA.norm>
-0.141052

>  <SCORE.RESTR>
0

>  <SCORE.RESTR.CAVITY>
0

>  <SCORE.RESTR.norm>
0

>  <SCORE.SYSTEM>
0

>  <SCORE.SYSTEM.CONST>
0

>  <SCORE.SYSTEM.DIHEDRAL>
0

>  <SCORE.SYSTEM.SOLV>
0

>  <SCORE.SYSTEM.norm>
0

>  <SCORE.heavy>
22

>  <SCORE.norm>
-0.189234

>  <RMSD>
29.091

$$$$
lig.pdb
 OpenBabel11021811523D
libRbt.so/2013.1/901 2013/11/27
 22 23  0  0  0  0  0  0  0  0999 V2000
  -28.3926  -16.5818   -7.4730 C   0  0  1  0  0  0  0  0  0  0  0  0
  -29.0307  -15.7761   -5.1632 C   0  0  1  0  0  0  0  0  0  0  0  0
  -29.5155  -17.2200   -4.6971 C   0  0  1  0  0  0  0  0  0  0  0  0
  -30.4685  -17.0322   -3.4316 C   0  0  2  0  0  0  0  0  0  0  0  0
  -27.2879  -16.2358   -8.5454 C   0  0  1  0  0  0  0  0  0  0  0  0
  -27.3883  -14.7309   -8.8639 C   0  0  2  0  0  0  0  0  0  0  0  0
  -28.7657  -14.3865   -9.4577 C   0  0  2  0  0  0  0  0  0  0  0  0
  -29.9227  -14.7372   -8.4524 C   0  0  1  0  0  0  0  0  0  0  0  0
  -31.3201  -14.4423   -9.0698 C   0  0  0  0  0  0  0  0  0  0  0  0
  -29.6259  -16.3632   -2.2296 C   0  0  1  0  0  0  0  0  0  0  0  0
  -29.1522  -14.9100   -2.7370 C   0  0  0  0  0  0  0  0  0  0  0  0
  -28.2252  -15.0662   -4.0289 C   0  0  2  0  0  0  0  0  0  0  0  0
  -28.9756  -15.1304  -10.7050 F   0  0  0  0  0  0  0  0  0  0  0  0
  -25.9411  -16.5996   -7.9561 N   0  0  0  0  0  0  0  0  0  0  0  0
  -32.4128  -14.6703   -8.2023 N   0  0  0  0  0  0  0  0  0  0  0  0
  -30.4881  -16.1502   -1.0172 N   0  0  0  0  0  0  0  0  0  0  0  0
  -27.7958  -13.7300   -4.4900 N   0  0  0  0  0  0  0  0  0  0  0  0
  -28.1687  -15.8885   -6.2854 O   0  0  0  0  0  0  0  0  0  0  0  0
  -30.2809  -17.8260   -5.8121 O   0  0  0  0  0  0  0  0  0  0  0  0
  -30.8867  -18.3087   -3.0486 O   0  0  0  0  0  0  0  0  0  0  0  0
  -26.5837  -14.4815   -9.6475 O   0  0  0  0  0  0  0  0  0  0  0  0
  -29.7474  -16.2196   -8.0757 O   0  0  0  0  0  0  0  0  0  0  0  0
  1  5  1  0  0  0  0
  1 18  1  1  0  0  0
  2 18  1  6  0  0  0
  2  3  1  0  0  0  0
  2 12  1  0  0  0  0
  3 19  1  6  0  0  0
  3  4  1  0  0  0  0
  4 20  1  1  0  0  0
  4 10  1  0  0  0  0
  5  6  1  0  0  0  0
  5 14  1  1  0  0  0
  6 21  1  6  0  0  0
  7 13  1  6  0  0  0
  7  6  1  0  0  0  0
  8  9  1  6  0  0  0
  8  7  1  0  0  0  0
 10 16  1  1  0  0  0
 11 10  1  0  0  0  0
 12 17  1  6  0  0  0
 12 11  1  0  0  0  0
 15  9  1  0  0  0  0
 22  8  1  0  0  0  0
 22  1  1  0  0  0  0
M  END
>  <CHROM.1>
170.04623975,51.29961010,-177.04234858,-29.11460044,-15.76270527,-6.41620965
-1.35616260,0.13433742,1.75831513

>  <Name>
lig.pdb

>  <RI>
0

>  <Rbt.Current_Directory>
/home/itssahil/PROJECTS/Mol_Feturizer/New_Systems/rnas/5bws

>  <Rbt.Executable>
rbdock ($Id: //depot/dev/client3/rdock/2013.1/src/exe/rbdock.cxx#4 $)

>  <Rbt.Library>
libRbt.so (2013.1, Build901 2013/11/27)

>  <Rbt.Parameter_File>
/export/apps/rDock/src/rDock_2013.1_src/data/scripts/dock_solv.prm

>  <Rbt.Receptor>
prm/blind_docking_100.prm

>  <SCORE>
-8.32087

>  <SCORE.INTER>
-5.39651

>  <SCORE.INTER.CONST>
1

>  <SCORE.INTER.POLAR>
0

>  <SCORE.INTER.ROT>
3

>  <SCORE.INTER.SOLV>
19.3957

>  <SCORE.INTER.VDW>
-15.6629

>  <SCORE.INTER.norm>
-0.245296

>  <SCORE.INTRA>
-2.92436

>  <SCORE.INTRA.DIHEDRAL>
-5.2289

>  <SCORE.INTRA.DIHEDRAL.0>
6.10773

>  <SCORE.INTRA.POLAR>
0

>  <SCORE.INTRA.POLAR.0>
0

>  <SCORE.INTRA.REPUL>
0

>  <SCORE.INTRA.REPUL.0>
0

>  <SCORE.INTRA.SOLV>
-1.77589

>  <SCORE.INTRA.SOLV.lig_0>
-71.4024

>  <SCORE.INTRA.VDW>
0.578038

>  <SCORE.INTRA.VDW.0>
-1.86213

>  <SCORE.INTRA.norm>
-0.132925

>  <SCORE.RESTR>
0

>  <SCORE.RESTR.CAVITY>
0

>  <SCORE.RESTR.norm>
0

>  <SCORE.SYSTEM>
0

>  <SCORE.SYSTEM.CONST>
0

>  <SCORE.SYSTEM.DIHEDRAL>
0

>  <SCORE.SYSTEM.SOLV>
0

>  <SCORE.SYSTEM.norm>
0

>  <SCORE.heavy>
22

>  <SCORE.norm>
-0.378221

>  <RMSD>
29.144

$$$$
lig.pdb
 OpenBabel11021811523D
libRbt.so/2013.1/901 2013/11/27
 22 23  0  0  0  0  0  0  0  0999 V2000
  -30.6504  -15.2997   -8.2652 C   0  0  1  0  0  0  0  0  0  0  0  0
  -28.5021  -14.0011   -7.9654 C   0  0  1  0  0  0  0  0  0  0  0  0
  -27.7862  -14.8780   -6.8450 C   0  0  1  0  0  0  0  0  0  0  0  0
  -26.2127  -14.6480   -6.9736 C   0  0  2  0  0  0  0  0  0  0  0  0
  -32.1953  -15.0427   -8.0721 C   0  0  1  0  0  0  0  0  0  0  0  0
  -32.4519  -14.7882   -6.5736 C   0  0  2  0  0  0  0  0  0  0  0  0
  -32.0553  -16.0148   -5.7330 C   0  0  2  0  0  0  0  0  0  0  0  0
  -30.5289  -16.3517   -5.9027 C   0  0  1  0  0  0  0  0  0  0  0  0
  -30.1355  -17.6241   -5.0983 C   0  0  0  0  0  0  0  0  0  0  0  0
  -25.7192  -15.1647   -8.4199 C   0  0  1  0  0  0  0  0  0  0  0  0
  -26.4635  -14.2588   -9.5240 C   0  0  0  0  0  0  0  0  0  0  0  0
  -28.0454  -14.4408   -9.3928 C   0  0  2  0  0  0  0  0  0  0  0  0
  -32.8492  -17.1802   -6.1389 F   0  0  0  0  0  0  0  0  0  0  0  0
  -32.5750  -13.8473   -8.9209 N   0  0  0  0  0  0  0  0  0  0  0  0
  -30.3805  -17.5472   -3.7081 N   0  0  0  0  0  0  0  0  0  0  0  0
  -24.2417  -14.9528   -8.5953 N   0  0  0  0  0  0  0  0  0  0  0  0
  -28.7218  -13.6062  -10.4069 N   0  0  0  0  0  0  0  0  0  0  0  0
  -29.9091  -14.1780   -7.8999 O   0  0  0  0  0  0  0  0  0  0  0  0
  -28.2537  -14.3986   -5.5228 O   0  0  0  0  0  0  0  0  0  0  0  0
  -25.6097  -15.4185   -5.9767 O   0  0  0  0  0  0  0  0  0  0  0  0
  -33.5789  -14.6033   -6.4348 O   0  0  0  0  0  0  0  0  0  0  0  0
  -30.2759  -16.5096   -7.4131 O   0  0  0  0  0  0  0  0  0  0  0  0
  1  5  1  0  0  0  0
  1 18  1  1  0  0  0
  2 18  1  6  0  0  0
  2  3  1  0  0  0  0
  2 12  1  0  0  0  0
  3 19  1  1  0  0  0
  3  4  1  0  0  0  0
  4 20  1  1  0  0  0
  4 10  1  0  0  0  0
  5  6  1  0  0  0  0
  5 14  1  6  0  0  0
  6 21  1  6  0  0  0
  7 13  1  6  0  0  0
  7  6  1  0  0  0  0
  8  9  1  1  0  0  0
  8  7  1  0  0  0  0
 10 16  1  1  0  0  0
 11 10  1  0  0  0  0
 12 17  1  6  0  0  0
 12 11  1  0  0  0  0
 15  9  1  0  0  0  0
 22  8  1  0  0  0  0
 22  1  1  0  0  0  0
M  END
>  <CHROM.1>
-178.03952872,-71.75385989,-58.66932226,-29.47362977,-15.24613914,-7.22067099
2.80239606,0.00874403,2.13971638

>  <Name>
lig.pdb

>  <RI>
0

>  <Rbt.Current_Directory>
/home/itssahil/PROJECTS/Mol_Feturizer/New_Systems/rnas/5bws

>  <Rbt.Executable>
rbdock ($Id: //depot/dev/client3/rdock/2013.1/src/exe/rbdock.cxx#4 $)

>  <Rbt.Library>
libRbt.so (2013.1, Build901 2013/11/27)

>  <Rbt.Parameter_File>
/export/apps/rDock/src/rDock_2013.1_src/data/scripts/dock_solv.prm

>  <Rbt.Receptor>
prm/blind_docking_40.prm

>  <SCORE>
-4.24956

>  <SCORE.INTER>
-1.72965

>  <SCORE.INTER.CONST>
1

>  <SCORE.INTER.POLAR>
0

>  <SCORE.INTER.ROT>
3

>  <SCORE.INTER.SOLV>
21.4932

>  <SCORE.INTER.VDW>
-13.9175

>  <SCORE.INTER.norm>
-0.0786204

>  <SCORE.INTRA>
-2.51991

>  <SCORE.INTRA.DIHEDRAL>
-5.41967

>  <SCORE.INTRA.DIHEDRAL.0>
6.10773

>  <SCORE.INTRA.POLAR>
0

>  <SCORE.INTRA.POLAR.0>
0

>  <SCORE.INTRA.REPUL>
0

>  <SCORE.INTRA.REPUL.0>
0

>  <SCORE.INTRA.SOLV>
0.140332

>  <SCORE.INTRA.SOLV.lig_0>
-71.4024

>  <SCORE.INTRA.VDW>
0.119758

>  <SCORE.INTRA.VDW.0>
-1.86213

>  <SCORE.INTRA.norm>
-0.114542

>  <SCORE.RESTR>
0

>  <SCORE.RESTR.CAVITY>
0

>  <SCORE.RESTR.norm>
0

>  <SCORE.SYSTEM>
0

>  <SCORE.SYSTEM.CONST>
0

>  <SCORE.SYSTEM.DIHEDRAL>
0

>  <SCORE.SYSTEM.SOLV>
0

>  <SCORE.SYSTEM.norm>
0

>  <SCORE.heavy>
22

>  <SCORE.norm>
-0.193162

>  <RMSD>
29.161

$$$$
lig.pdb
 OpenBabel11021811523D
libRbt.so/2013.1/901 2013/11/27
 22 23  0  0  0  0  0  0  0  0999 V2000
  -28.3583  -16.4778   -7.6080 C   0  0  1  0  0  0  0  0  0  0  0  0
  -29.0081  -15.7514   -5.2753 C   0  0  1  0  0  0  0  0  0  0  0  0
  -29.5803  -17.1933   -4.9138 C   0  0  1  0  0  0  0  0  0  0  0  0
  -30.5430  -17.0361   -3.6513 C   0  0  2  0  0  0  0  0  0  0  0  0
  -27.2883  -16.0389   -8.6816 C   0  0  1  0  0  0  0  0  0  0  0  0
  -27.4474  -14.5244   -8.9208 C   0  0  2  0  0  0  0  0  0  0  0  0
  -28.8478  -14.1999   -9.4705 C   0  0  2  0  0  0  0  0  0  0  0  0
  -29.9713  -14.6421   -8.4632 C   0  0  1  0  0  0  0  0  0  0  0  0
  -31.3903  -14.3666   -9.0388 C   0  0  0  0  0  0  0  0  0  0  0  0
  -29.6853  -16.4971   -2.3960 C   0  0  1  0  0  0  0  0  0  0  0  0
  -29.1228  -15.0426   -2.7982 C   0  0  0  0  0  0  0  0  0  0  0  0
  -28.1840  -15.1650   -4.0852 C   0  0  2  0  0  0  0  0  0  0  0  0
  -29.0570  -14.8869  -10.7502 F   0  0  0  0  0  0  0  0  0  0  0  0
  -25.9180  -16.3835   -8.1368 N   0  0  0  0  0  0  0  0  0  0  0  0
  -32.4565  -14.6763   -8.1636 N   0  0  0  0  0  0  0  0  0  0  0  0
  -30.5549  -16.3165   -1.1836 N   0  0  0  0  0  0  0  0  0  0  0  0
  -27.6731  -13.8277   -4.4497 N   0  0  0  0  0  0  0  0  0  0  0  0
  -28.1345  -15.8378   -6.3909 O   0  0  0  0  0  0  0  0  0  0  0  0
  -30.3590  -17.6797   -6.0771 O   0  0  0  0  0  0  0  0  0  0  0  0
  -31.0379  -18.3096   -3.3606 O   0  0  0  0  0  0  0  0  0  0  0  0
  -26.6682  -14.2071   -9.7053 O   0  0  0  0  0  0  0  0  0  0  0  0
  -29.7369  -16.1344   -8.1662 O   0  0  0  0  0  0  0  0  0  0  0  0
  1  5  1  0  0  0  0
  1 18  1  1  0  0  0
  2 18  1  6  0  0  0
  2  3  1  0  0  0  0
  2 12  1  0  0  0  0
  3 19  1  6  0  0  0
  3  4  1  0  0  0  0
  4 20  1  1  0  0  0
  4 10  1  0  0  0  0
  5  6  1  0  0  0  0
  5 14  1  1  0  0  0
  6 21  1  6  0  0  0
  7 13  1  6  0  0  0
  7  6  1  0  0  0  0
  8  9  1  6  0  0  0
  8  7  1  0  0  0  0
 10 16  1  1  0  0  0
 11 10  1  0  0  0  0
 12 17  1  6  0  0  0
 12 11  1  0  0  0  0
 15  9  1  0  0  0  0
 22  8  1  0  0  0  0
 22  1  1  0  0  0  0
M  END
>  <CHROM.1>
166.25182902,48.80757032,-177.01126844,-29.14560594,-15.69941926,-6.52140287
-1.34559946,0.17344378,1.78658913

>  <Name>
lig.pdb

>  <RI>
0

>  <Rbt.Current_Directory>
/home/itssahil/PROJECTS/Mol_Feturizer/New_Systems/rnas/5bws

>  <Rbt.Executable>
rbdock ($Id: //depot/dev/client3/rdock/2013.1/src/exe/rbdock.cxx#4 $)

>  <Rbt.Library>
libRbt.so (2013.1, Build901 2013/11/27)

>  <Rbt.Parameter_File>
/export/apps/rDock/src/rDock_2013.1_src/data/scripts/dock_solv.prm

>  <Rbt.Receptor>
prm/blind_docking_60.prm

>  <SCORE>
-8.37158

>  <SCORE.INTER>
-5.97182

>  <SCORE.INTER.CONST>
1

>  <SCORE.INTER.POLAR>
0

>  <SCORE.INTER.ROT>
3

>  <SCORE.INTER.SOLV>
18.0293

>  <SCORE.INTER.VDW>
-15.591

>  <SCORE.INTER.norm>
-0.271446

>  <SCORE.INTRA>
-2.39975

>  <SCORE.INTRA.DIHEDRAL>
-4.57968

>  <SCORE.INTRA.DIHEDRAL.0>
6.10773

>  <SCORE.INTRA.POLAR>
0

>  <SCORE.INTRA.POLAR.0>
0

>  <SCORE.INTRA.REPUL>
0

>  <SCORE.INTRA.REPUL.0>
0

>  <SCORE.INTRA.SOLV>
-1.64601

>  <SCORE.INTRA.SOLV.lig_0>
-71.4024

>  <SCORE.INTRA.VDW>
0.713091

>  <SCORE.INTRA.VDW.0>
-1.86213

>  <SCORE.INTRA.norm>
-0.10908

>  <SCORE.RESTR>
0

>  <SCORE.RESTR.CAVITY>
0

>  <SCORE.RESTR.norm>
0

>  <SCORE.SYSTEM>
0

>  <SCORE.SYSTEM.CONST>
0

>  <SCORE.SYSTEM.DIHEDRAL>
0

>  <SCORE.SYSTEM.SOLV>
0

>  <SCORE.SYSTEM.norm>
0

>  <SCORE.heavy>
22

>  <SCORE.norm>
-0.380526

>  <RMSD>
29.168

$$$$
lig.pdb
 OpenBabel11021811523D
libRbt.so/2013.1/901 2013/11/27
 22 23  0  0  0  0  0  0  0  0999 V2000
  -28.3583  -16.4920   -7.5938 C   0  0  1  0  0  0  0  0  0  0  0  0
  -29.0327  -15.7705   -5.2666 C   0  0  1  0  0  0  0  0  0  0  0  0
  -29.5931  -17.2148   -4.8965 C   0  0  1  0  0  0  0  0  0  0  0  0
  -30.5719  -17.0553   -3.6468 C   0  0  2  0  0  0  0  0  0  0  0  0
  -27.2838  -16.0408   -8.6578 C   0  0  1  0  0  0  0  0  0  0  0  0
  -27.4490  -14.5256   -8.8882 C   0  0  2  0  0  0  0  0  0  0  0  0
  -28.8474  -14.2046   -9.4448 C   0  0  2  0  0  0  0  0  0  0  0  0
  -29.9750  -14.6588   -8.4475 C   0  0  1  0  0  0  0  0  0  0  0  0
  -31.3918  -14.3867   -9.0303 C   0  0  0  0  0  0  0  0  0  0  0  0
  -29.7345  -16.4939   -2.3875 C   0  0  1  0  0  0  0  0  0  0  0  0
  -29.1835  -15.0375   -2.7985 C   0  0  0  0  0  0  0  0  0  0  0  0
  -28.2287  -15.1627   -4.0734 C   0  0  2  0  0  0  0  0  0  0  0  0
  -29.0450  -14.8843  -10.7301 F   0  0  0  0  0  0  0  0  0  0  0  0
  -25.9152  -16.3821   -8.1064 N   0  0  0  0  0  0  0  0  0  0  0  0
  -32.4623  -14.7221   -8.1701 N   0  0  0  0  0  0  0  0  0  0  0  0
  -30.6199  -16.3104   -1.1870 N   0  0  0  0  0  0  0  0  0  0  0  0
  -27.7284  -13.8237   -4.4460 N   0  0  0  0  0  0  0  0  0  0  0  0
  -28.1455  -15.8587   -6.3712 O   0  0  0  0  0  0  0  0  0  0  0  0
  -30.3531  -17.7219   -6.0634 O   0  0  0  0  0  0  0  0  0  0  0  0
  -31.0561  -18.3311   -3.3484 O   0  0  0  0  0  0  0  0  0  0  0  0
  -26.6663  -14.1994   -9.6657 O   0  0  0  0  0  0  0  0  0  0  0  0
  -29.7351  -16.1518   -8.1586 O   0  0  0  0  0  0  0  0  0  0  0  0
  1  5  1  0  0  0  0
  1 18  1  1  0  0  0
  2 18  1  6  0  0  0
  2  3  1  0  0  0  0
  2 12  1  0  0  0  0
  3 19  1  6  0  0  0
  3  4  1  0  0  0  0
  4 20  1  1  0  0  0
  4 10  1  0  0  0  0
  5  6  1  0  0  0  0
  5 14  1  1  0  0  0
  6 21  1  6  0  0  0
  7 13  1  6  0  0  0
  7  6  1  0  0  0  0
  8  9  1  6  0  0  0
  8  7  1  0  0  0  0
 10 16  1  1  0  0  0
 11 10  1  0  0  0  0
 12 17  1  6  0  0  0
 12 11  1  0  0  0  0
 15  9  1  0  0  0  0
 22  8  1  0  0  0  0
 22  1  1  0  0  0  0
M  END
>  <CHROM.1>
165.44094429,50.15660582,-177.72191192,-29.16086254,-15.71016607,-6.50722200
-1.33658076,0.17897086,1.78535722

>  <Name>
lig.pdb

>  <RI>
0

>  <Rbt.Current_Directory>
/home/itssahil/PROJECTS/Mol_Feturizer/New_Systems/rnas/5bws

>  <Rbt.Executable>
rbdock ($Id: //depot/dev/client3/rdock/2013.1/src/exe/rbdock.cxx#4 $)

>  <Rbt.Library>
libRbt.so (2013.1, Build901 2013/11/27)

>  <Rbt.Parameter_File>
/export/apps/rDock/src/rDock_2013.1_src/data/scripts/dock_solv.prm

>  <Rbt.Receptor>
prm/blind_docking_100.prm

>  <SCORE>
-8.40784

>  <SCORE.INTER>
-5.91568

>  <SCORE.INTER.CONST>
1

>  <SCORE.INTER.POLAR>
0

>  <SCORE.INTER.ROT>
3

>  <SCORE.INTER.SOLV>
17.7791

>  <SCORE.INTER.VDW>
-15.4702

>  <SCORE.INTER.norm>
-0.268895

>  <SCORE.INTRA>
-2.49216

>  <SCORE.INTRA.DIHEDRAL>
-4.62292

>  <SCORE.INTRA.DIHEDRAL.0>
6.10773

>  <SCORE.INTRA.POLAR>
0

>  <SCORE.INTRA.POLAR.0>
0

>  <SCORE.INTRA.REPUL>
0

>  <SCORE.INTRA.REPUL.0>
0

>  <SCORE.INTRA.SOLV>
-1.63885

>  <SCORE.INTRA.SOLV.lig_0>
-71.4024

>  <SCORE.INTRA.VDW>
0.638722

>  <SCORE.INTRA.VDW.0>
-1.86213

>  <SCORE.INTRA.norm>
-0.11328

>  <SCORE.RESTR>
0

>  <SCORE.RESTR.CAVITY>
0

>  <SCORE.RESTR.norm>
0

>  <SCORE.SYSTEM>
0

>  <SCORE.SYSTEM.CONST>
0

>  <SCORE.SYSTEM.DIHEDRAL>
0

>  <SCORE.SYSTEM.SOLV>
0

>  <SCORE.SYSTEM.norm>
0

>  <SCORE.heavy>
22

>  <SCORE.norm>
-0.382175

>  <RMSD>
29.184

$$$$
lig.pdb
 OpenBabel11021811523D
libRbt.so/2013.1/901 2013/11/27
 22 23  0  0  0  0  0  0  0  0999 V2000
  -28.7309  -14.6182   -7.6727 C   0  0  1  0  0  0  0  0  0  0  0  0
  -30.0684  -15.9910   -6.0241 C   0  0  1  0  0  0  0  0  0  0  0  0
  -30.9757  -17.2979   -6.1023 C   0  0  1  0  0  0  0  0  0  0  0  0
  -31.6030  -17.5462   -4.6567 C   0  0  2  0  0  0  0  0  0  0  0  0
  -28.7850  -14.4161   -9.2368 C   0  0  1  0  0  0  0  0  0  0  0  0
  -28.1450  -15.6522   -9.8991 C   0  0  2  0  0  0  0  0  0  0  0  0
  -26.6716  -15.7984   -9.4793 C   0  0  2  0  0  0  0  0  0  0  0  0
  -26.5378  -15.9713   -7.9223 C   0  0  1  0  0  0  0  0  0  0  0  0
  -25.0467  -16.0639   -7.4874 C   0  0  0  0  0  0  0  0  0  0  0  0
  -30.4120  -17.8133   -3.6021 C   0  0  1  0  0  0  0  0  0  0  0  0
  -29.5173  -16.4751   -3.5516 C   0  0  0  0  0  0  0  0  0  0  0  0
  -28.9062  -16.1807   -4.9982 C   0  0  2  0  0  0  0  0  0  0  0  0
  -25.9108  -14.6147   -9.8952 F   0  0  0  0  0  0  0  0  0  0  0  0
  -30.2377  -14.2524   -9.6321 N   0  0  0  0  0  0  0  0  0  0  0  0
  -24.2858  -14.8959   -7.7228 N   0  0  0  0  0  0  0  0  0  0  0  0
  -30.9541  -18.0366   -2.2182 N   0  0  0  0  0  0  0  0  0  0  0  0
  -28.0884  -14.9516   -4.9453 N   0  0  0  0  0  0  0  0  0  0  0  0
  -29.4767  -15.7303   -7.2879 O   0  0  0  0  0  0  0  0  0  0  0  0
  -32.0604  -17.0422   -7.0793 O   0  0  0  0  0  0  0  0  0  0  0  0
  -32.3997  -18.6894   -4.7537 O   0  0  0  0  0  0  0  0  0  0  0  0
  -28.1835  -15.5017  -11.0389 O   0  0  0  0  0  0  0  0  0  0  0  0
  -27.2641  -14.7754   -7.2802 O   0  0  0  0  0  0  0  0  0  0  0  0
  1  5  1  0  0  0  0
  1 18  1  6  0  0  0
  2 18  1  6  0  0  0
  2  3  1  0  0  0  0
  2 12  1  0  0  0  0
  3 19  1  6  0  0  0
  3  4  1  0  0  0  0
  4 20  1  6  0  0  0
  4 10  1  0  0  0  0
  5  6  1  0  0  0  0
  5 14  1  6  0  0  0
  6 21  1  6  0  0  0
  7 13  1  1  0  0  0
  7  6  1  0  0  0  0
  8  9  1  6  0  0  0
  8  7  1  0  0  0  0
 10 16  1  1  0  0  0
 11 10  1  0  0  0  0
 12 17  1  1  0  0  0
 12 11  1  0  0  0  0
 15  9  1  0  0  0  0
 22  8  1  0  0  0  0
 22  1  1  0  0  0  0
M  END
>  <CHROM.1>
-155.83479390,172.94668426,64.54092980,-28.80863545,-15.99904043,-6.99505942
0.87732645,-0.23394978,-1.29768779

>  <Name>
lig.pdb

>  <RI>
0

>  <Rbt.Current_Directory>
/home/itssahil/PROJECTS/Mol_Feturizer/New_Systems/rnas/5bws

>  <Rbt.Executable>
rbdock ($Id: //depot/dev/client3/rdock/2013.1/src/exe/rbdock.cxx#4 $)

>  <Rbt.Library>
libRbt.so (2013.1, Build901 2013/11/27)

>  <Rbt.Parameter_File>
/export/apps/rDock/src/rDock_2013.1_src/data/scripts/dock_solv.prm

>  <Rbt.Receptor>
prm/blind_docking_80.prm

>  <SCORE>
-5.24586

>  <SCORE.INTER>
-5.98815

>  <SCORE.INTER.CONST>
1

>  <SCORE.INTER.POLAR>
0

>  <SCORE.INTER.ROT>
3

>  <SCORE.INTER.SOLV>
15.9296

>  <SCORE.INTER.VDW>
-14.902

>  <SCORE.INTER.norm>
-0.272189

>  <SCORE.INTRA>
0.742288

>  <SCORE.INTRA.DIHEDRAL>
-3.27176

>  <SCORE.INTRA.DIHEDRAL.0>
6.10773

>  <SCORE.INTRA.POLAR>
0

>  <SCORE.INTRA.POLAR.0>
0

>  <SCORE.INTRA.REPUL>
0

>  <SCORE.INTRA.REPUL.0>
0

>  <SCORE.INTRA.SOLV>
2.76222

>  <SCORE.INTRA.SOLV.lig_0>
-71.4024

>  <SCORE.INTRA.VDW>
0.997058

>  <SCORE.INTRA.VDW.0>
-1.86213

>  <SCORE.INTRA.norm>
0.0337404

>  <SCORE.RESTR>
0

>  <SCORE.RESTR.CAVITY>
0

>  <SCORE.RESTR.norm>
0

>  <SCORE.SYSTEM>
0

>  <SCORE.SYSTEM.CONST>
0

>  <SCORE.SYSTEM.DIHEDRAL>
0

>  <SCORE.SYSTEM.SOLV>
0

>  <SCORE.SYSTEM.norm>
0

>  <SCORE.heavy>
22

>  <SCORE.norm>
-0.238448

>  <RMSD>
29.222

$$$$
lig.pdb
 OpenBabel11021811523D
libRbt.so/2013.1/901 2013/11/27
 22 23  0  0  0  0  0  0  0  0999 V2000
  -31.0379  -15.6541   -4.8649 C   0  0  1  0  0  0  0  0  0  0  0  0
  -28.5874  -16.2671   -4.7609 C   0  0  1  0  0  0  0  0  0  0  0  0
  -28.1147  -15.6597   -6.1554 C   0  0  1  0  0  0  0  0  0  0  0  0
  -26.5537  -15.3474   -6.0500 C   0  0  2  0  0  0  0  0  0  0  0  0
  -32.4228  -16.4060   -4.7829 C   0  0  1  0  0  0  0  0  0  0  0  0
  -32.5318  -17.3377   -6.0062 C   0  0  2  0  0  0  0  0  0  0  0  0
  -32.4950  -16.5301   -7.3158 C   0  0  2  0  0  0  0  0  0  0  0  0
  -31.1511  -15.7251   -7.4505 C   0  0  1  0  0  0  0  0  0  0  0  0
  -31.1327  -14.8638   -8.7462 C   0  0  0  0  0  0  0  0  0  0  0  0
  -26.3123  -14.2401   -4.9021 C   0  0  1  0  0  0  0  0  0  0  0  0
  -26.8024  -14.8874   -3.5113 C   0  0  0  0  0  0  0  0  0  0  0  0
  -28.3568  -15.2458   -3.6020 C   0  0  2  0  0  0  0  0  0  0  0  0
  -33.6208  -15.5899   -7.3584 F   0  0  0  0  0  0  0  0  0  0  0  0
  -32.4533  -17.1784   -3.4806 N   0  0  0  0  0  0  0  0  0  0  0  0
  -29.9197  -14.1788   -8.9867 N   0  0  0  0  0  0  0  0  0  0  0  0
  -24.8505  -13.9243   -4.7533 N   0  0  0  0  0  0  0  0  0  0  0  0
  -28.7993  -15.8405   -2.3242 N   0  0  0  0  0  0  0  0  0  0  0  0
  -29.9770  -16.5548   -4.7989 O   0  0  0  0  0  0  0  0  0  0  0  0
  -28.3488  -16.6832   -7.2014 O   0  0  0  0  0  0  0  0  0  0  0  0
  -26.1625  -14.8258   -7.2853 O   0  0  0  0  0  0  0  0  0  0  0  0
  -33.5429  -17.8831   -5.9456 O   0  0  0  0  0  0  0  0  0  0  0  0
  -31.0165  -14.8723   -6.1759 O   0  0  0  0  0  0  0  0  0  0  0  0
  1  5  1  0  0  0  0
  1 18  1  6  0  0  0
  2 18  1  6  0  0  0
  2  3  1  0  0  0  0
  2 12  1  0  0  0  0
  3 19  1  6  0  0  0
  3  4  1  0  0  0  0
  4 20  1  6  0  0  0
  4 10  1  0  0  0  0
  5  6  1  0  0  0  0
  5 14  1  1  0  0  0
  6 21  1  1  0  0  0
  7 13  1  1  0  0  0
  7  6  1  0  0  0  0
  8  9  1  6  0  0  0
  8  7  1  0  0  0  0
 10 16  1  1  0  0  0
 11 10  1  0  0  0  0
 12 17  1  1  0  0  0
 12 11  1  0  0  0  0
 15  9  1  0  0  0  0
 22  8  1  0  0  0  0
 22  1  1  0  0  0  0
M  END
>  <CHROM.1>
-175.93783985,-68.25941532,-175.91579119,-29.79940611,-15.72163869,-5.79579282
3.00186846,-0.29405838,-1.32814770

>  <Name>
lig.pdb

>  <RI>
0

>  <Rbt.Current_Directory>
/home/itssahil/PROJECTS/Mol_Feturizer/New_Systems/rnas/5bws

>  <Rbt.Executable>
rbdock ($Id: //depot/dev/client3/rdock/2013.1/src/exe/rbdock.cxx#4 $)

>  <Rbt.Library>
libRbt.so (2013.1, Build901 2013/11/27)

>  <Rbt.Parameter_File>
/export/apps/rDock/src/rDock_2013.1_src/data/scripts/dock_solv.prm

>  <Rbt.Receptor>
prm/blind_docking_80.prm

>  <SCORE>
-5.12314

>  <SCORE.INTER>
-2.70449

>  <SCORE.INTER.CONST>
1

>  <SCORE.INTER.POLAR>
0

>  <SCORE.INTER.ROT>
3

>  <SCORE.INTER.SOLV>
14.5938

>  <SCORE.INTER.VDW>
-12.2676

>  <SCORE.INTER.norm>
-0.122931

>  <SCORE.INTRA>
-2.41865

>  <SCORE.INTRA.DIHEDRAL>
-5.63293

>  <SCORE.INTRA.DIHEDRAL.0>
6.10773

>  <SCORE.INTRA.POLAR>
0

>  <SCORE.INTRA.POLAR.0>
0

>  <SCORE.INTRA.REPUL>
0

>  <SCORE.INTRA.REPUL.0>
0

>  <SCORE.INTRA.SOLV>
1.01599

>  <SCORE.INTRA.SOLV.lig_0>
-71.4024

>  <SCORE.INTRA.VDW>
-0.11018

>  <SCORE.INTRA.VDW.0>
-1.86213

>  <SCORE.INTRA.norm>
-0.109938

>  <SCORE.RESTR>
0

>  <SCORE.RESTR.CAVITY>
0

>  <SCORE.RESTR.norm>
0

>  <SCORE.SYSTEM>
0

>  <SCORE.SYSTEM.CONST>
0

>  <SCORE.SYSTEM.DIHEDRAL>
0

>  <SCORE.SYSTEM.SOLV>
0

>  <SCORE.SYSTEM.norm>
0

>  <SCORE.heavy>
22

>  <SCORE.norm>
-0.23287

>  <RMSD>
29.236

$$$$
lig.pdb
 OpenBabel11021811523D
libRbt.so/2013.1/901 2013/11/27
 22 23  0  0  0  0  0  0  0  0999 V2000
  -29.1502  -14.3378   -8.9337 C   0  0  1  0  0  0  0  0  0  0  0  0
  -30.1054  -15.5986   -6.9616 C   0  0  1  0  0  0  0  0  0  0  0  0
  -31.4921  -16.0377   -7.6106 C   0  0  1  0  0  0  0  0  0  0  0  0
  -32.5237  -16.3107   -6.4245 C   0  0  2  0  0  0  0  0  0  0  0  0
  -27.9222  -14.4811   -9.9144 C   0  0  1  0  0  0  0  0  0  0  0  0
  -26.6311  -14.3292   -9.0859 C   0  0  2  0  0  0  0  0  0  0  0  0
  -26.5641  -12.9415   -8.4239 C   0  0  2  0  0  0  0  0  0  0  0  0
  -27.7803  -12.7144   -7.4536 C   0  0  1  0  0  0  0  0  0  0  0  0
  -27.7467  -11.2918   -6.8244 C   0  0  0  0  0  0  0  0  0  0  0  0
  -31.9763  -17.5268   -5.5170 C   0  0  1  0  0  0  0  0  0  0  0  0
  -30.5762  -17.0483   -4.8811 C   0  0  0  0  0  0  0  0  0  0  0  0
  -29.5341  -16.7308   -6.0499 C   0  0  2  0  0  0  0  0  0  0  0  0
  -26.5712  -11.8937   -9.4512 F   0  0  0  0  0  0  0  0  0  0  0  0
  -28.0131  -15.8413  -10.5738 N   0  0  0  0  0  0  0  0  0  0  0  0
  -26.6031  -11.0160   -6.0404 N   0  0  0  0  0  0  0  0  0  0  0  0
  -32.9087  -17.8110   -4.3731 N   0  0  0  0  0  0  0  0  0  0  0  0
  -28.2532  -16.2910   -5.4601 N   0  0  0  0  0  0  0  0  0  0  0  0
  -29.1461  -15.3521   -7.9785 O   0  0  0  0  0  0  0  0  0  0  0  0
  -31.9798  -14.9156   -8.4469 O   0  0  0  0  0  0  0  0  0  0  0  0
  -33.7315  -16.6841   -7.0185 O   0  0  0  0  0  0  0  0  0  0  0  0
  -25.7374  -14.4317   -9.8030 O   0  0  0  0  0  0  0  0  0  0  0  0
  -29.0565  -12.9625   -8.2781 O   0  0  0  0  0  0  0  0  0  0  0  0
  1  5  1  0  0  0  0
  1 18  1  1  0  0  0
  2 18  1  6  0  0  0
  2  3  1  0  0  0  0
  2 12  1  0  0  0  0
  3 19  1  6  0  0  0
  3  4  1  0  0  0  0
  4 20  1  6  0  0  0
  4 10  1  0  0  0  0
  5  6  1  0  0  0  0
  5 14  1  1  0  0  0
  6 21  1  6  0  0  0
  7 13  1  6  0  0  0
  7  6  1  0  0  0  0
  8  9  1  6  0  0  0
  8  7  1  0  0  0  0
 10 16  1  1  0  0  0
 11 10  1  0  0  0  0
 12 17  1  1  0  0  0
 12 11  1  0  0  0  0
 15  9  1  0  0  0  0
 22  8  1  0  0  0  0
 22  1  1  0  0  0  0
M  END
>  <CHROM.1>
-177.26260045,66.64760937,-61.08255018,-29.24771855,-14.78870556,-7.57469260
0.16543368,-0.73172103,-1.90742733

>  <Name>
lig.pdb

>  <RI>
0

>  <Rbt.Current_Directory>
/home/itssahil/PROJECTS/Mol_Feturizer/New_Systems/rnas/5bws

>  <Rbt.Executable>
rbdock ($Id: //depot/dev/client3/rdock/2013.1/src/exe/rbdock.cxx#4 $)

>  <Rbt.Library>
libRbt.so (2013.1, Build901 2013/11/27)

>  <Rbt.Parameter_File>
/export/apps/rDock/src/rDock_2013.1_src/data/scripts/dock_solv.prm

>  <Rbt.Receptor>
prm/blind_docking_60.prm

>  <SCORE>
-6.89378

>  <SCORE.INTER>
-3.81098

>  <SCORE.INTER.CONST>
1

>  <SCORE.INTER.POLAR>
0

>  <SCORE.INTER.ROT>
3

>  <SCORE.INTER.SOLV>
19.0246

>  <SCORE.INTER.VDW>
-14.4822

>  <SCORE.INTER.norm>
-0.173226

>  <SCORE.INTRA>
-3.08281

>  <SCORE.INTRA.DIHEDRAL>
-5.84805

>  <SCORE.INTRA.DIHEDRAL.0>
6.10773

>  <SCORE.INTRA.POLAR>
0

>  <SCORE.INTRA.POLAR.0>
0

>  <SCORE.INTRA.REPUL>
0

>  <SCORE.INTRA.REPUL.0>
0

>  <SCORE.INTRA.SOLV>
-0.995211

>  <SCORE.INTRA.SOLV.lig_0>
-71.4024

>  <SCORE.INTRA.VDW>
0.338822

>  <SCORE.INTRA.VDW.0>
-1.86213

>  <SCORE.INTRA.norm>
-0.140128

>  <SCORE.RESTR>
0

>  <SCORE.RESTR.CAVITY>
0

>  <SCORE.RESTR.norm>
0

>  <SCORE.SYSTEM>
0

>  <SCORE.SYSTEM.CONST>
0

>  <SCORE.SYSTEM.DIHEDRAL>
0

>  <SCORE.SYSTEM.SOLV>
0

>  <SCORE.SYSTEM.norm>
0

>  <SCORE.heavy>
22

>  <SCORE.norm>
-0.313354

>  <RMSD>
29.315

$$$$
lig.pdb
 OpenBabel11021811523D
libRbt.so/2013.1/901 2013/11/27
 22 23  0  0  0  0  0  0  0  0999 V2000
  -28.6063  -16.5712   -7.4628 C   0  0  1  0  0  0  0  0  0  0  0  0
  -29.1603  -15.9507   -5.0755 C   0  0  1  0  0  0  0  0  0  0  0  0
  -29.6893  -17.3996   -4.6779 C   0  0  1  0  0  0  0  0  0  0  0  0
  -30.6240  -17.2450   -3.3943 C   0  0  2  0  0  0  0  0  0  0  0  0
  -27.6675  -15.9594   -8.5738 C   0  0  1  0  0  0  0  0  0  0  0  0
  -27.9407  -14.4440   -8.6464 C   0  0  2  0  0  0  0  0  0  0  0  0
  -29.4025  -14.1684   -9.0408 C   0  0  2  0  0  0  0  0  0  0  0  0
  -30.4004  -14.7810   -7.9914 C   0  0  1  0  0  0  0  0  0  0  0  0
  -31.8801  -14.5529   -8.4147 C   0  0  0  0  0  0  0  0  0  0  0  0
  -29.7484  -16.6667   -2.1691 C   0  0  1  0  0  0  0  0  0  0  0  0
  -29.2305  -15.2060   -2.6072 C   0  0  0  0  0  0  0  0  0  0  0  0
  -28.3211  -15.3268   -3.9154 C   0  0  2  0  0  0  0  0  0  0  0  0
  -29.6843  -14.7451  -10.3603 F   0  0  0  0  0  0  0  0  0  0  0  0
  -26.2347  -16.2566   -8.1836 N   0  0  0  0  0  0  0  0  0  0  0  0
  -32.3802  -13.2571   -8.1513 N   0  0  0  0  0  0  0  0  0  0  0  0
  -30.5918  -16.4872   -0.9382 N   0  0  0  0  0  0  0  0  0  0  0  0
  -27.8510  -13.9839   -4.3127 N   0  0  0  0  0  0  0  0  0  0  0  0
  -28.3128  -16.0342   -6.2111 O   0  0  0  0  0  0  0  0  0  0  0  0
  -30.4849  -17.9221   -5.8139 O   0  0  0  0  0  0  0  0  0  0  0  0
  -31.0814  -18.5248   -3.0721 O   0  0  0  0  0  0  0  0  0  0  0  0
  -27.2569  -14.0005   -9.4583 O   0  0  0  0  0  0  0  0  0  0  0  0
  -30.0485  -16.2744   -7.8656 O   0  0  0  0  0  0  0  0  0  0  0  0
  1  5  1  0  0  0  0
  1 18  1  1  0  0  0
  2 18  1  6  0  0  0
  2  3  1  0  0  0  0
  2 12  1  0  0  0  0
  3 19  1  6  0  0  0
  3  4  1  0  0  0  0
  4 20  1  1  0  0  0
  4 10  1  0  0  0  0
  5  6  1  0  0  0  0
  5 14  1  1  0  0  0
  6 21  1  6  0  0  0
  7 13  1  6  0  0  0
  7  6  1  0  0  0  0
  8  9  1  6  0  0  0
  8  7  1  0  0  0  0
 10 16  1  1  0  0  0
 11 10  1  0  0  0  0
 12 17  1  6  0  0  0
 12 11  1  0  0  0  0
 15  9  1  0  0  0  0
 22  8  1  0  0  0  0
 22  1  1  0  0  0  0
M  END
>  <CHROM.1>
156.61720245,56.49810753,-78.97782791,-29.40449484,-15.72297400,-6.27570637
-1.42146161,0.02223249,1.88543700

>  <Name>
lig.pdb

>  <RI>
0

>  <Rbt.Current_Directory>
/home/itssahil/PROJECTS/Mol_Feturizer/New_Systems/rnas/5bws

>  <Rbt.Executable>
rbdock ($Id: //depot/dev/client3/rdock/2013.1/src/exe/rbdock.cxx#4 $)

>  <Rbt.Library>
libRbt.so (2013.1, Build901 2013/11/27)

>  <Rbt.Parameter_File>
/export/apps/rDock/src/rDock_2013.1_src/data/scripts/dock_solv.prm

>  <Rbt.Receptor>
prm/blind_docking_40.prm

>  <SCORE>
-5.60579

>  <SCORE.INTER>
-4.25618

>  <SCORE.INTER.CONST>
1

>  <SCORE.INTER.POLAR>
0

>  <SCORE.INTER.ROT>
3

>  <SCORE.INTER.SOLV>
19.1343

>  <SCORE.INTER.VDW>
-14.8156

>  <SCORE.INTER.norm>
-0.193463

>  <SCORE.INTRA>
-1.34962

>  <SCORE.INTRA.DIHEDRAL>
-2.46666

>  <SCORE.INTRA.DIHEDRAL.0>
6.10773

>  <SCORE.INTRA.POLAR>
0

>  <SCORE.INTRA.POLAR.0>
0

>  <SCORE.INTRA.REPUL>
0

>  <SCORE.INTRA.REPUL.0>
0

>  <SCORE.INTRA.SOLV>
-1.35157

>  <SCORE.INTRA.SOLV.lig_0>
-71.4024

>  <SCORE.INTRA.VDW>
0.5595

>  <SCORE.INTRA.VDW.0>
-1.86213

>  <SCORE.INTRA.norm>
-0.0613462

>  <SCORE.RESTR>
0

>  <SCORE.RESTR.CAVITY>
0

>  <SCORE.RESTR.norm>
0

>  <SCORE.SYSTEM>
0

>  <SCORE.SYSTEM.CONST>
0

>  <SCORE.SYSTEM.DIHEDRAL>
0

>  <SCORE.SYSTEM.SOLV>
0

>  <SCORE.SYSTEM.norm>
0

>  <SCORE.heavy>
22

>  <SCORE.norm>
-0.254809

>  <RMSD>
29.335

$$$$
lig.pdb
 OpenBabel11021811523D
libRbt.so/2013.1/901 2013/11/27
 22 23  0  0  0  0  0  0  0  0999 V2000
  -30.3709  -16.8170   -6.3194 C   0  0  1  0  0  0  0  0  0  0  0  0
  -28.6322  -15.3943   -5.1602 C   0  0  1  0  0  0  0  0  0  0  0  0
  -27.5037  -15.3160   -6.2815 C   0  0  1  0  0  0  0  0  0  0  0  0
  -26.1106  -15.0359   -5.5561 C   0  0  2  0  0  0  0  0  0  0  0  0
  -31.7279  -16.5739   -7.0874 C   0  0  1  0  0  0  0  0  0  0  0  0
  -32.7768  -16.0995   -6.0622 C   0  0  2  0  0  0  0  0  0  0  0  0
  -33.0146  -17.1720   -4.9843 C   0  0  2  0  0  0  0  0  0  0  0  0
  -31.6915  -17.4909   -4.1969 C   0  0  1  0  0  0  0  0  0  0  0  0
  -31.9144  -18.6142   -3.1437 C   0  0  0  0  0  0  0  0  0  0  0  0
  -26.1832  -13.6108   -4.8038 C   0  0  1  0  0  0  0  0  0  0  0  0
  -27.3330  -13.7272   -3.6821 C   0  0  0  0  0  0  0  0  0  0  0  0
  -28.7351  -14.0459   -4.3788 C   0  0  2  0  0  0  0  0  0  0  0  0
  -33.5103  -18.4062   -5.6042 F   0  0  0  0  0  0  0  0  0  0  0  0
  -31.4736  -15.5332   -8.1577 N   0  0  0  0  0  0  0  0  0  0  0  0
  -32.8579  -18.3058   -2.1371 N   0  0  0  0  0  0  0  0  0  0  0  0
  -24.8958  -13.3094   -4.0894 N   0  0  0  0  0  0  0  0  0  0  0  0
  -29.7845  -14.1530   -3.3447 N   0  0  0  0  0  0  0  0  0  0  0  0
  -29.8980  -15.6336   -5.7564 O   0  0  0  0  0  0  0  0  0  0  0  0
  -27.4526  -16.6277   -6.9694 O   0  0  0  0  0  0  0  0  0  0  0  0
  -25.1383  -14.9811   -6.5575 O   0  0  0  0  0  0  0  0  0  0  0  0
  -33.7656  -15.9251   -6.6237 O   0  0  0  0  0  0  0  0  0  0  0  0
  -30.6324  -17.8717   -5.2473 O   0  0  0  0  0  0  0  0  0  0  0  0
  1  5  1  0  0  0  0
  1 18  1  1  0  0  0
  2 18  1  6  0  0  0
  2  3  1  0  0  0  0
  2 12  1  0  0  0  0
  3 19  1  1  0  0  0
  3  4  1  0  0  0  0
  4 20  1  6  0  0  0
  4 10  1  0  0  0  0
  5  6  1  0  0  0  0
  5 14  1  6  0  0  0
  6 21  1  6  0  0  0
  7 13  1  6  0  0  0
  7  6  1  0  0  0  0
  8  9  1  1  0  0  0
  8  7  1  0  0  0  0
 10 16  1  1  0  0  0
 11 10  1  0  0  0  0
 12 17  1  1  0  0  0
 12 11  1  0  0  0  0
 15  9  1  0  0  0  0
 22  8  1  0  0  0  0
 22  1  1  0  0  0  0
M  END
>  <CHROM.1>
-170.13292576,73.16365814,-61.54189185,-29.84078199,-15.99206315,-5.30804241
3.11135180,0.44334842,1.62650725

>  <Name>
lig.pdb

>  <RI>
0

>  <Rbt.Current_Directory>
/home/itssahil/PROJECTS/Mol_Feturizer/New_Systems/rnas/5bws

>  <Rbt.Executable>
rbdock ($Id: //depot/dev/client3/rdock/2013.1/src/exe/rbdock.cxx#4 $)

>  <Rbt.Library>
libRbt.so (2013.1, Build901 2013/11/27)

>  <Rbt.Parameter_File>
/export/apps/rDock/src/rDock_2013.1_src/data/scripts/dock_solv.prm

>  <Rbt.Receptor>
prm/blind_docking_80.prm

>  <SCORE>
-5.15961

>  <SCORE.INTER>
-2.60465

>  <SCORE.INTER.CONST>
1

>  <SCORE.INTER.POLAR>
0

>  <SCORE.INTER.ROT>
3

>  <SCORE.INTER.SOLV>
12.1841

>  <SCORE.INTER.VDW>
-11.3978

>  <SCORE.INTER.norm>
-0.118393

>  <SCORE.INTRA>
-2.55496

>  <SCORE.INTRA.DIHEDRAL>
-4.80519

>  <SCORE.INTRA.DIHEDRAL.0>
6.10773

>  <SCORE.INTRA.POLAR>
0

>  <SCORE.INTRA.POLAR.0>
0

>  <SCORE.INTRA.REPUL>
0

>  <SCORE.INTRA.REPUL.0>
0

>  <SCORE.INTRA.SOLV>
-0.775829

>  <SCORE.INTRA.SOLV.lig_0>
-71.4024

>  <SCORE.INTRA.VDW>
0.23555

>  <SCORE.INTRA.VDW.0>
-1.86213

>  <SCORE.INTRA.norm>
-0.116135

>  <SCORE.RESTR>
0

>  <SCORE.RESTR.CAVITY>
0

>  <SCORE.RESTR.norm>
0

>  <SCORE.SYSTEM>
0

>  <SCORE.SYSTEM.CONST>
0

>  <SCORE.SYSTEM.DIHEDRAL>
0

>  <SCORE.SYSTEM.SOLV>
0

>  <SCORE.SYSTEM.norm>
0

>  <SCORE.heavy>
22

>  <SCORE.norm>
-0.234528

>  <RMSD>
29.348

$$$$
lig.pdb
 OpenBabel11021811523D
libRbt.so/2013.1/901 2013/11/27
 22 23  0  0  0  0  0  0  0  0999 V2000
  -29.1303  -14.2516   -8.9796 C   0  0  1  0  0  0  0  0  0  0  0  0
  -30.2178  -15.5103   -7.0757 C   0  0  1  0  0  0  0  0  0  0  0  0
  -31.6337  -15.7687   -7.7578 C   0  0  1  0  0  0  0  0  0  0  0  0
  -32.7015  -16.0047   -6.5961 C   0  0  2  0  0  0  0  0  0  0  0  0
  -27.8975  -14.4506   -9.9444 C   0  0  1  0  0  0  0  0  0  0  0  0
  -26.6159  -14.4387   -9.0879 C   0  0  2  0  0  0  0  0  0  0  0  0
  -26.4526  -13.0906   -8.3637 C   0  0  2  0  0  0  0  0  0  0  0  0
  -27.6667  -12.8086   -7.4052 C   0  0  1  0  0  0  0  0  0  0  0  0
  -27.5332  -11.4217   -6.7128 C   0  0  0  0  0  0  0  0  0  0  0  0
  -32.2898  -17.3205   -5.7587 C   0  0  1  0  0  0  0  0  0  0  0  0
  -30.8565  -17.0234   -5.0873 C   0  0  0  0  0  0  0  0  0  0  0  0
  -29.7739  -16.7453   -6.2290 C   0  0  2  0  0  0  0  0  0  0  0  0
  -26.3551  -12.0024   -9.3432 F   0  0  0  0  0  0  0  0  0  0  0  0
  -28.0825  -15.7696  -10.6652 N   0  0  0  0  0  0  0  0  0  0  0  0
  -26.4078  -11.2855   -5.8681 N   0  0  0  0  0  0  0  0  0  0  0  0
  -33.2596  -17.5752   -4.6391 N   0  0  0  0  0  0  0  0  0  0  0  0
  -28.4624  -16.4719   -5.6065 N   0  0  0  0  0  0  0  0  0  0  0  0
  -29.2265  -15.3031   -8.0705 O   0  0  0  0  0  0  0  0  0  0  0  0
  -31.9963  -14.5566   -8.5295 O   0  0  0  0  0  0  0  0  0  0  0  0
  -33.9336  -16.2193   -7.2184 O   0  0  0  0  0  0  0  0  0  0  0  0
  -25.7185  -14.5816   -9.7934 O   0  0  0  0  0  0  0  0  0  0  0  0
  -28.9412  -12.9178   -8.2617 O   0  0  0  0  0  0  0  0  0  0  0  0
  1  5  1  0  0  0  0
  1 18  1  1  0  0  0
  2 18  1  6  0  0  0
  2  3  1  0  0  0  0
  2 12  1  0  0  0  0
  3 19  1  1  0  0  0
  3  4  1  0  0  0  0
  4 20  1  6  0  0  0
  4 10  1  0  0  0  0
  5  6  1  0  0  0  0
  5 14  1  1  0  0  0
  6 21  1  6  0  0  0
  7 13  1  6  0  0  0
  7  6  1  0  0  0  0
  8  9  1  6  0  0  0
  8  7  1  0  0  0  0
 10 16  1  1  0  0  0
 11 10  1  0  0  0  0
 12 17  1  1  0  0  0
 12 11  1  0  0  0  0
 15  9  1  0  0  0  0
 22  8  1  0  0  0  0
 22  1  1  0  0  0  0
M  END
>  <CHROM.1>
-177.76968004,65.43923216,-62.78319771,-29.29453821,-14.74145462,-7.63919606
0.16327701,-0.64937251,-1.88363202

>  <Name>
lig.pdb

>  <RI>
0

>  <Rbt.Current_Directory>
/home/itssahil/PROJECTS/Mol_Feturizer/New_Systems/rnas/5bws

>  <Rbt.Executable>
rbdock ($Id: //depot/dev/client3/rdock/2013.1/src/exe/rbdock.cxx#4 $)

>  <Rbt.Library>
libRbt.so (2013.1, Build901 2013/11/27)

>  <Rbt.Parameter_File>
/export/apps/rDock/src/rDock_2013.1_src/data/scripts/dock_solv.prm

>  <Rbt.Receptor>
prm/blind_docking_40.prm

>  <SCORE>
-7.01746

>  <SCORE.INTER>
-3.90352

>  <SCORE.INTER.CONST>
1

>  <SCORE.INTER.POLAR>
0

>  <SCORE.INTER.ROT>
3

>  <SCORE.INTER.SOLV>
20.0689

>  <SCORE.INTER.VDW>
-14.892

>  <SCORE.INTER.norm>
-0.177433

>  <SCORE.INTRA>
-3.11394

>  <SCORE.INTRA.DIHEDRAL>
-5.90738

>  <SCORE.INTRA.DIHEDRAL.0>
6.10773

>  <SCORE.INTRA.POLAR>
0

>  <SCORE.INTRA.POLAR.0>
0

>  <SCORE.INTRA.REPUL>
0

>  <SCORE.INTRA.REPUL.0>
0

>  <SCORE.INTRA.SOLV>
-1.06607

>  <SCORE.INTRA.SOLV.lig_0>
-71.4024

>  <SCORE.INTRA.VDW>
0.372784

>  <SCORE.INTRA.VDW.0>
-1.86213

>  <SCORE.INTRA.norm>
-0.141543

>  <SCORE.RESTR>
0

>  <SCORE.RESTR.CAVITY>
0

>  <SCORE.RESTR.norm>
0

>  <SCORE.SYSTEM>
0

>  <SCORE.SYSTEM.CONST>
0

>  <SCORE.SYSTEM.DIHEDRAL>
0

>  <SCORE.SYSTEM.SOLV>
0

>  <SCORE.SYSTEM.norm>
0

>  <SCORE.heavy>
22

>  <SCORE.norm>
-0.318975

>  <RMSD>
29.353

$$$$
lig.pdb
 OpenBabel11021811523D
libRbt.so/2013.1/901 2013/11/27
 22 23  0  0  0  0  0  0  0  0999 V2000
  -29.1082  -14.6350   -9.0207 C   0  0  1  0  0  0  0  0  0  0  0  0
  -29.9997  -15.7210   -6.9190 C   0  0  1  0  0  0  0  0  0  0  0  0
  -31.3888  -16.1902   -7.5411 C   0  0  1  0  0  0  0  0  0  0  0  0
  -32.4163  -16.4053   -6.3397 C   0  0  2  0  0  0  0  0  0  0  0  0
  -27.7876  -14.6931   -9.8825 C   0  0  1  0  0  0  0  0  0  0  0  0
  -26.6141  -14.2512   -8.9859 C   0  0  2  0  0  0  0  0  0  0  0  0
  -26.8114  -12.8053   -8.4971 C   0  0  2  0  0  0  0  0  0  0  0  0
  -28.1316  -12.6642   -7.6549 C   0  0  1  0  0  0  0  0  0  0  0  0
  -28.3639  -11.1929   -7.2054 C   0  0  0  0  0  0  0  0  0  0  0  0
  -31.8660  -17.5765   -5.3766 C   0  0  1  0  0  0  0  0  0  0  0  0
  -30.4636  -17.0685   -4.7694 C   0  0  0  0  0  0  0  0  0  0  0  0
  -29.4255  -16.8081   -5.9558 C   0  0  2  0  0  0  0  0  0  0  0  0
  -26.8769  -11.8917   -9.6436 F   0  0  0  0  0  0  0  0  0  0  0  0
  -27.6181  -16.1154  -10.3740 N   0  0  0  0  0  0  0  0  0  0  0  0
  -27.3756  -10.6739   -6.3380 N   0  0  0  0  0  0  0  0  0  0  0  0
  -32.7945  -17.8049   -4.2170 N   0  0  0  0  0  0  0  0  0  0  0  0
  -28.1424  -16.3409   -5.3922 N   0  0  0  0  0  0  0  0  0  0  0  0
  -29.0439  -15.5241   -7.9499 O   0  0  0  0  0  0  0  0  0  0  0  0
  -31.8791  -15.1096   -8.4289 O   0  0  0  0  0  0  0  0  0  0  0  0
  -33.6262  -16.8064   -6.9108 O   0  0  0  0  0  0  0  0  0  0  0  0
  -25.6529  -14.2920   -9.6167 O   0  0  0  0  0  0  0  0  0  0  0  0
  -29.2768  -13.1979   -8.5347 O   0  0  0  0  0  0  0  0  0  0  0  0
  1  5  1  0  0  0  0
  1 18  1  1  0  0  0
  2 18  1  6  0  0  0
  2  3  1  0  0  0  0
  2 12  1  0  0  0  0
  3 19  1  6  0  0  0
  3  4  1  0  0  0  0
  4 20  1  6  0  0  0
  4 10  1  0  0  0  0
  5  6  1  0  0  0  0
  5 14  1  1  0  0  0
  6 21  1  6  0  0  0
  7 13  1  6  0  0  0
  7  6  1  0  0  0  0
  8  9  1  6  0  0  0
  8  7  1  0  0  0  0
 10 16  1  1  0  0  0
 11 10  1  0  0  0  0
 12 17  1  1  0  0  0
 12 11  1  0  0  0  0
 15  9  1  0  0  0  0
 22  8  1  0  0  0  0
 22  1  1  0  0  0  0
M  END
>  <CHROM.1>
176.86791215,60.48688203,-63.37130661,-29.28144902,-14.84460563,-7.58010005
-0.23145834,-0.77997351,-2.51623604

>  <Name>
lig.pdb

>  <RI>
0

>  <Rbt.Current_Directory>
/home/itssahil/PROJECTS/Mol_Feturizer/New_Systems/rnas/5bws

>  <Rbt.Executable>
rbdock ($Id: //depot/dev/client3/rdock/2013.1/src/exe/rbdock.cxx#4 $)

>  <Rbt.Library>
libRbt.so (2013.1, Build901 2013/11/27)

>  <Rbt.Parameter_File>
/export/apps/rDock/src/rDock_2013.1_src/data/scripts/dock_solv.prm

>  <Rbt.Receptor>
prm/blind_docking_100.prm

>  <SCORE>
-6.52143

>  <SCORE.INTER>
-3.40061

>  <SCORE.INTER.CONST>
1

>  <SCORE.INTER.POLAR>
0

>  <SCORE.INTER.ROT>
3

>  <SCORE.INTER.SOLV>
18.9544

>  <SCORE.INTER.VDW>
-14.1852

>  <SCORE.INTER.norm>
-0.154573

>  <SCORE.INTRA>
-3.12082

>  <SCORE.INTRA.DIHEDRAL>
-6.01427

>  <SCORE.INTRA.DIHEDRAL.0>
6.10773

>  <SCORE.INTRA.POLAR>
0

>  <SCORE.INTRA.POLAR.0>
0

>  <SCORE.INTRA.REPUL>
0

>  <SCORE.INTRA.REPUL.0>
0

>  <SCORE.INTRA.SOLV>
-1.16388

>  <SCORE.INTRA.SOLV.lig_0>
-71.4024

>  <SCORE.INTRA.VDW>
0.468259

>  <SCORE.INTRA.VDW.0>
-1.86213

>  <SCORE.INTRA.norm>
-0.141855

>  <SCORE.RESTR>
0

>  <SCORE.RESTR.CAVITY>
0

>  <SCORE.RESTR.norm>
0

>  <SCORE.SYSTEM>
0

>  <SCORE.SYSTEM.CONST>
0

>  <SCORE.SYSTEM.DIHEDRAL>
0

>  <SCORE.SYSTEM.SOLV>
0

>  <SCORE.SYSTEM.norm>
0

>  <SCORE.heavy>
22

>  <SCORE.norm>
-0.296429

>  <RMSD>
29.363

$$$$
lig.pdb
 OpenBabel11021811523D
libRbt.so/2013.1/901 2013/11/27
 22 23  0  0  0  0  0  0  0  0999 V2000
  -28.7093  -16.6438   -7.3379 C   0  0  1  0  0  0  0  0  0  0  0  0
  -29.2511  -15.9747   -4.9609 C   0  0  1  0  0  0  0  0  0  0  0  0
  -29.7318  -17.4254   -4.5122 C   0  0  1  0  0  0  0  0  0  0  0  0
  -30.6562  -17.2584   -3.2227 C   0  0  2  0  0  0  0  0  0  0  0  0
  -27.7505  -16.0901   -8.4623 C   0  0  1  0  0  0  0  0  0  0  0  0
  -27.9931  -14.5732   -8.5904 C   0  0  2  0  0  0  0  0  0  0  0  0
  -29.4463  -14.2832   -9.0058 C   0  0  2  0  0  0  0  0  0  0  0  0
  -30.4637  -14.8386   -7.9434 C   0  0  1  0  0  0  0  0  0  0  0  0
  -31.9356  -14.5968   -8.3861 C   0  0  0  0  0  0  0  0  0  0  0  0
  -29.7847  -16.6161   -2.0268 C   0  0  1  0  0  0  0  0  0  0  0  0
  -29.3158  -15.1553   -2.5163 C   0  0  0  0  0  0  0  0  0  0  0  0
  -28.4180  -15.2900   -3.8311 C   0  0  2  0  0  0  0  0  0  0  0  0
  -29.7300  -14.9006  -10.3064 F   0  0  0  0  0  0  0  0  0  0  0  0
  -26.3268  -16.4013   -8.0506 N   0  0  0  0  0  0  0  0  0  0  0  0
  -32.3947  -13.2699   -8.2218 N   0  0  0  0  0  0  0  0  0  0  0  0
  -30.6193  -16.4232   -0.7919 N   0  0  0  0  0  0  0  0  0  0  0  0
  -27.9929  -13.9469   -4.2756 N   0  0  0  0  0  0  0  0  0  0  0  0
  -28.4143  -16.0687   -6.1036 O   0  0  0  0  0  0  0  0  0  0  0  0
  -30.5241  -18.0067   -5.6216 O   0  0  0  0  0  0  0  0  0  0  0  0
  -31.0715  -18.5404   -2.8553 O   0  0  0  0  0  0  0  0  0  0  0  0
  -27.2949  -14.1722   -9.4120 O   0  0  0  0  0  0  0  0  0  0  0  0
  -30.1424  -16.3333   -7.7622 O   0  0  0  0  0  0  0  0  0  0  0  0
  1  5  1  0  0  0  0
  1 18  1  1  0  0  0
  2 18  1  6  0  0  0
  2  3  1  0  0  0  0
  2 12  1  0  0  0  0
  3 19  1  6  0  0  0
  3  4  1  0  0  0  0
  4 20  1  1  0  0  0
  4 10  1  0  0  0  0
  5  6  1  0  0  0  0
  5 14  1  1  0  0  0
  6 21  1  6  0  0  0
  7 13  1  6  0  0  0
  7  6  1  0  0  0  0
  8  9  1  6  0  0  0
  8  7  1  0  0  0  0
 10 16  1  1  0  0  0
 11 10  1  0  0  0  0
 12 17  1  6  0  0  0
 12 11  1  0  0  0  0
 15  9  1  0  0  0  0
 22  8  1  0  0  0  0
 22  1  1  0  0  0  0
M  END
>  <CHROM.1>
159.29336483,57.05904603,-76.57919862,-29.46610873,-15.77325877,-6.17825043
-1.43047494,-0.01243489,1.86986380

>  <Name>
lig.pdb

>  <RI>
0

>  <Rbt.Current_Directory>
/home/itssahil/PROJECTS/Mol_Feturizer/New_Systems/rnas/5bws

>  <Rbt.Executable>
rbdock ($Id: //depot/dev/client3/rdock/2013.1/src/exe/rbdock.cxx#4 $)

>  <Rbt.Library>
libRbt.so (2013.1, Build901 2013/11/27)

>  <Rbt.Parameter_File>
/export/apps/rDock/src/rDock_2013.1_src/data/scripts/dock_solv.prm

>  <Rbt.Receptor>
prm/blind_docking_60.prm

>  <SCORE>
-5.58332

>  <SCORE.INTER>
-3.78475

>  <SCORE.INTER.CONST>
1

>  <SCORE.INTER.POLAR>
0

>  <SCORE.INTER.ROT>
3

>  <SCORE.INTER.SOLV>
20.001

>  <SCORE.INTER.VDW>
-14.7902

>  <SCORE.INTER.norm>
-0.172034

>  <SCORE.INTRA>
-1.79858

>  <SCORE.INTRA.DIHEDRAL>
-3.21117

>  <SCORE.INTRA.DIHEDRAL.0>
6.10773

>  <SCORE.INTRA.POLAR>
0

>  <SCORE.INTRA.POLAR.0>
0

>  <SCORE.INTRA.REPUL>
0

>  <SCORE.INTRA.REPUL.0>
0

>  <SCORE.INTRA.SOLV>
-1.34367

>  <SCORE.INTRA.SOLV.lig_0>
-71.4024

>  <SCORE.INTRA.VDW>
0.478843

>  <SCORE.INTRA.VDW.0>
-1.86213

>  <SCORE.INTRA.norm>
-0.0817534

>  <SCORE.RESTR>
0

>  <SCORE.RESTR.CAVITY>
0

>  <SCORE.RESTR.norm>
0

>  <SCORE.SYSTEM>
0

>  <SCORE.SYSTEM.CONST>
0

>  <SCORE.SYSTEM.DIHEDRAL>
0

>  <SCORE.SYSTEM.SOLV>
0

>  <SCORE.SYSTEM.norm>
0

>  <SCORE.heavy>
22

>  <SCORE.norm>
-0.253787

>  <RMSD>
29.385

$$$$
lig.pdb
 OpenBabel11021811523D
libRbt.so/2013.1/901 2013/11/27
 22 23  0  0  0  0  0  0  0  0999 V2000
  -28.7475  -16.6751   -7.3336 C   0  0  1  0  0  0  0  0  0  0  0  0
  -29.2269  -16.0108   -4.9420 C   0  0  1  0  0  0  0  0  0  0  0  0
  -29.7275  -17.4584   -4.5051 C   0  0  1  0  0  0  0  0  0  0  0  0
  -30.6170  -17.2936   -3.1910 C   0  0  2  0  0  0  0  0  0  0  0  0
  -27.8108  -16.1275   -8.4794 C   0  0  1  0  0  0  0  0  0  0  0  0
  -28.0452  -14.6087   -8.6009 C   0  0  2  0  0  0  0  0  0  0  0  0
  -29.5055  -14.3078   -8.9825 C   0  0  2  0  0  0  0  0  0  0  0  0
  -30.5022  -14.8568   -7.8974 C   0  0  1  0  0  0  0  0  0  0  0  0
  -31.9820  -14.6039   -8.3060 C   0  0  0  0  0  0  0  0  0  0  0  0
  -29.7035  -16.6897   -2.0065 C   0  0  1  0  0  0  0  0  0  0  0  0
  -29.2155  -15.2310   -2.4836 C   0  0  0  0  0  0  0  0  0  0  0  0
  -28.3526  -15.3626   -3.8219 C   0  0  2  0  0  0  0  0  0  0  0  0
  -29.8234  -14.9220  -10.2767 F   0  0  0  0  0  0  0  0  0  0  0  0
  -26.3802  -16.4493   -8.1008 N   0  0  0  0  0  0  0  0  0  0  0  0
  -32.4094  -13.2615   -8.1886 N   0  0  0  0  0  0  0  0  0  0  0  0
  -30.5039  -16.5000   -0.7487 N   0  0  0  0  0  0  0  0  0  0  0  0
  -27.9098  -14.0214   -4.2548 N   0  0  0  0  0  0  0  0  0  0  0  0
  -28.4199  -16.1032   -6.1061 O   0  0  0  0  0  0  0  0  0  0  0  0
  -30.5583  -18.0045   -5.6042 O   0  0  0  0  0  0  0  0  0  0  0  0
  -31.0505  -18.5727   -2.8344 O   0  0  0  0  0  0  0  0  0  0  0  0
  -27.3632  -14.2120   -9.4380 O   0  0  0  0  0  0  0  0  0  0  0  0
  -30.1876  -16.3539   -7.7247 O   0  0  0  0  0  0  0  0  0  0  0  0
  1  5  1  0  0  0  0
  1 18  1  1  0  0  0
  2 18  1  6  0  0  0
  2  3  1  0  0  0  0
  2 12  1  0  0  0  0
  3 19  1  6  0  0  0
  3  4  1  0  0  0  0
  4 20  1  1  0  0  0
  4 10  1  0  0  0  0
  5  6  1  0  0  0  0
  5 14  1  1  0  0  0
  6 21  1  6  0  0  0
  7 13  1  6  0  0  0
  7  6  1  0  0  0  0
  8  9  1  6  0  0  0
  8  7  1  0  0  0  0
 10 16  1  1  0  0  0
 11 10  1  0  0  0  0
 12 17  1  6  0  0  0
 12 11  1  0  0  0  0
 15  9  1  0  0  0  0
 22  8  1  0  0  0  0
 22  1  1  0  0  0  0
M  END
>  <CHROM.1>
159.68058549,55.66187278,-73.79481865,-29.47169586,-15.80971825,-6.16136558
-1.45179149,-0.01003013,1.87269268

>  <Name>
lig.pdb

>  <RI>
0

>  <Rbt.Current_Directory>
/home/itssahil/PROJECTS/Mol_Feturizer/New_Systems/rnas/5bws

>  <Rbt.Executable>
rbdock ($Id: //depot/dev/client3/rdock/2013.1/src/exe/rbdock.cxx#4 $)

>  <Rbt.Library>
libRbt.so (2013.1, Build901 2013/11/27)

>  <Rbt.Parameter_File>
/export/apps/rDock/src/rDock_2013.1_src/data/scripts/dock_solv.prm

>  <Rbt.Receptor>
prm/blind_docking_60.prm

>  <SCORE>
-5.57805

>  <SCORE.INTER>
-3.70754

>  <SCORE.INTER.CONST>
1

>  <SCORE.INTER.POLAR>
0

>  <SCORE.INTER.ROT>
3

>  <SCORE.INTER.SOLV>
20.6573

>  <SCORE.INTER.VDW>
-14.9574

>  <SCORE.INTER.norm>
-0.168524

>  <SCORE.INTRA>
-1.87051

>  <SCORE.INTRA.DIHEDRAL>
-3.5002

>  <SCORE.INTRA.DIHEDRAL.0>
6.10773

>  <SCORE.INTRA.POLAR>
0

>  <SCORE.INTRA.POLAR.0>
0

>  <SCORE.INTRA.REPUL>
0

>  <SCORE.INTRA.REPUL.0>
0

>  <SCORE.INTRA.SOLV>
-1.31861

>  <SCORE.INTRA.SOLV.lig_0>
-71.4024

>  <SCORE.INTRA.VDW>
0.538896

>  <SCORE.INTRA.VDW.0>
-1.86213

>  <SCORE.INTRA.norm>
-0.0850232

>  <SCORE.RESTR>
0

>  <SCORE.RESTR.CAVITY>
0

>  <SCORE.RESTR.norm>
0

>  <SCORE.SYSTEM>
0

>  <SCORE.SYSTEM.CONST>
0

>  <SCORE.SYSTEM.DIHEDRAL>
0

>  <SCORE.SYSTEM.SOLV>
0

>  <SCORE.SYSTEM.norm>
0

>  <SCORE.heavy>
22

>  <SCORE.norm>
-0.253548

>  <RMSD>
29.400

$$$$
lig.pdb
 OpenBabel11021811523D
libRbt.so/2013.1/901 2013/11/27
 22 23  0  0  0  0  0  0  0  0999 V2000
  -31.2678  -15.8619   -5.0016 C   0  0  1  0  0  0  0  0  0  0  0  0
  -28.9408  -15.3401   -5.8410 C   0  0  1  0  0  0  0  0  0  0  0  0
  -28.2474  -15.1392   -4.4212 C   0  0  1  0  0  0  0  0  0  0  0  0
  -26.9483  -14.2377   -4.6335 C   0  0  2  0  0  0  0  0  0  0  0  0
  -32.3877  -16.9311   -5.3061 C   0  0  1  0  0  0  0  0  0  0  0  0
  -32.7270  -16.8507   -6.8077 C   0  0  2  0  0  0  0  0  0  0  0  0
  -33.2727  -15.4589   -7.1731 C   0  0  2  0  0  0  0  0  0  0  0  0
  -32.2178  -14.3347   -6.8639 C   0  0  1  0  0  0  0  0  0  0  0  0
  -32.7857  -12.9210   -7.1798 C   0  0  0  0  0  0  0  0  0  0  0  0
  -25.9173  -15.0151   -5.6004 C   0  0  1  0  0  0  0  0  0  0  0  0
  -26.6520  -15.2013   -7.0214 C   0  0  0  0  0  0  0  0  0  0  0  0
  -27.9794  -16.0702   -6.8319 C   0  0  2  0  0  0  0  0  0  0  0  0
  -34.4985  -15.1847   -6.4145 F   0  0  0  0  0  0  0  0  0  0  0  0
  -31.8448  -18.2917   -4.9221 N   0  0  0  0  0  0  0  0  0  0  0  0
  -31.9169  -11.8494   -6.8707 N   0  0  0  0  0  0  0  0  0  0  0  0
  -24.6813  -14.1957   -5.8444 N   0  0  0  0  0  0  0  0  0  0  0  0
  -28.6489  -16.2358   -8.1382 N   0  0  0  0  0  0  0  0  0  0  0  0
  -30.1014  -16.1467   -5.7084 O   0  0  0  0  0  0  0  0  0  0  0  0
  -29.2070  -14.4315   -3.5411 O   0  0  0  0  0  0  0  0  0  0  0  0
  -26.3648  -14.0687   -3.3757 O   0  0  0  0  0  0  0  0  0  0  0  0
  -33.5450  -17.6293   -7.0269 O   0  0  0  0  0  0  0  0  0  0  0  0
  -31.8237  -14.4927   -5.3841 O   0  0  0  0  0  0  0  0  0  0  0  0
  1  5  1  0  0  0  0
  1 18  1  6  0  0  0
  2 18  1  1  0  0  0
  2  3  1  0  0  0  0
  2 12  1  0  0  0  0
  3 19  1  1  0  0  0
  3  4  1  0  0  0  0
  4 20  1  1  0  0  0
  4 10  1  0  0  0  0
  5  6  1  0  0  0  0
  5 14  1  6  0  0  0
  6 21  1  1  0  0  0
  7 13  1  1  0  0  0
  7  6  1  0  0  0  0
  8  9  1  1  0  0  0
  8  7  1  0  0  0  0
 10 16  1  6  0  0  0
 11 10  1  0  0  0  0
 12 17  1  6  0  0  0
 12 11  1  0  0  0  0
 15  9  1  0  0  0  0
 22  8  1  0  0  0  0
 22  1  1  0  0  0  0
M  END
>  <CHROM.1>
171.07728931,63.89870590,177.27008365,-30.16691473,-15.26082464,-5.88641000
-3.00217590,-0.18847243,-0.03001929

>  <Name>
lig.pdb

>  <RI>
0

>  <Rbt.Current_Directory>
/home/itssahil/PROJECTS/Mol_Feturizer/New_Systems/rnas/5bws

>  <Rbt.Executable>
rbdock ($Id: //depot/dev/client3/rdock/2013.1/src/exe/rbdock.cxx#4 $)

>  <Rbt.Library>
libRbt.so (2013.1, Build901 2013/11/27)

>  <Rbt.Parameter_File>
/export/apps/rDock/src/rDock_2013.1_src/data/scripts/dock_solv.prm

>  <Rbt.Receptor>
prm/blind_docking_100.prm

>  <SCORE>
-5.36895

>  <SCORE.INTER>
-2.12225

>  <SCORE.INTER.CONST>
1

>  <SCORE.INTER.POLAR>
0

>  <SCORE.INTER.ROT>
3

>  <SCORE.INTER.SOLV>
17.6665

>  <SCORE.INTER.VDW>
-12.9037

>  <SCORE.INTER.norm>
-0.0964661

>  <SCORE.INTRA>
-3.24669

>  <SCORE.INTRA.DIHEDRAL>
-5.61745

>  <SCORE.INTRA.DIHEDRAL.0>
6.10773

>  <SCORE.INTRA.POLAR>
0

>  <SCORE.INTRA.POLAR.0>
0

>  <SCORE.INTRA.REPUL>
0

>  <SCORE.INTRA.REPUL.0>
0

>  <SCORE.INTRA.SOLV>
-1.45133

>  <SCORE.INTRA.SOLV.lig_0>
-71.4024

>  <SCORE.INTRA.VDW>
0.287697

>  <SCORE.INTRA.VDW.0>
-1.86213

>  <SCORE.INTRA.norm>
-0.147577

>  <SCORE.RESTR>
0

>  <SCORE.RESTR.CAVITY>
0

>  <SCORE.RESTR.norm>
0

>  <SCORE.SYSTEM>
0

>  <SCORE.SYSTEM.CONST>
0

>  <SCORE.SYSTEM.DIHEDRAL>
0

>  <SCORE.SYSTEM.SOLV>
0

>  <SCORE.SYSTEM.norm>
0

>  <SCORE.heavy>
22

>  <SCORE.norm>
-0.244043

>  <RMSD>
29.410

$$$$
lig.pdb
 OpenBabel11021811523D
libRbt.so/2013.1/901 2013/11/27
 22 23  0  0  0  0  0  0  0  0999 V2000
  -29.1427  -14.2271   -8.9702 C   0  0  1  0  0  0  0  0  0  0  0  0
  -30.2352  -15.4866   -7.0699 C   0  0  1  0  0  0  0  0  0  0  0  0
  -31.6436  -15.7493   -7.7658 C   0  0  1  0  0  0  0  0  0  0  0  0
  -32.7214  -15.9920   -6.6148 C   0  0  2  0  0  0  0  0  0  0  0  0
  -27.9076  -14.4264   -9.9319 C   0  0  1  0  0  0  0  0  0  0  0  0
  -26.6273  -14.4032   -9.0737 C   0  0  2  0  0  0  0  0  0  0  0  0
  -26.4713  -13.0499   -8.3576 C   0  0  2  0  0  0  0  0  0  0  0  0
  -27.6881  -12.7676   -7.4027 C   0  0  1  0  0  0  0  0  0  0  0  0
  -27.5621  -11.3758   -6.7188 C   0  0  0  0  0  0  0  0  0  0  0  0
  -32.3123  -17.3080   -5.7763 C   0  0  1  0  0  0  0  0  0  0  0  0
  -30.8865  -17.0065   -5.0907 C   0  0  0  0  0  0  0  0  0  0  0  0
  -29.7944  -16.7217   -6.2216 C   0  0  2  0  0  0  0  0  0  0  0  0
  -26.3774  -11.9674   -9.3438 F   0  0  0  0  0  0  0  0  0  0  0  0
  -28.0854  -15.7506  -10.6449 N   0  0  0  0  0  0  0  0  0  0  0  0
  -28.5696  -11.0869   -5.7700 N   0  0  0  0  0  0  0  0  0  0  0  0
  -33.2916  -17.5689   -4.6665 N   0  0  0  0  0  0  0  0  0  0  0  0
  -28.4899  -16.4444   -5.5862 N   0  0  0  0  0  0  0  0  0  0  0  0
  -29.2355  -15.2733   -8.0548 O   0  0  0  0  0  0  0  0  0  0  0  0
  -32.0038  -14.5369   -8.5383 O   0  0  0  0  0  0  0  0  0  0  0  0
  -33.9466  -16.2102   -7.2491 O   0  0  0  0  0  0  0  0  0  0  0  0
  -25.7282  -14.5464   -9.7769 O   0  0  0  0  0  0  0  0  0  0  0  0
  -28.9609  -12.8880   -8.2605 O   0  0  0  0  0  0  0  0  0  0  0  0
  1  5  1  0  0  0  0
  1 18  1  1  0  0  0
  2 18  1  6  0  0  0
  2  3  1  0  0  0  0
  2 12  1  0  0  0  0
  3 19  1  1  0  0  0
  3  4  1  0  0  0  0
  4 20  1  6  0  0  0
  4 10  1  0  0  0  0
  5  6  1  0  0  0  0
  5 14  1  1  0  0  0
  6 21  1  6  0  0  0
  7 13  1  6  0  0  0
  7  6  1  0  0  0  0
  8  9  1  6  0  0  0
  8  7  1  0  0  0  0
 10 16  1  1  0  0  0
 11 10  1  0  0  0  0
 12 17  1  1  0  0  0
 12 11  1  0  0  0  0
 15  9  1  0  0  0  0
 22  8  1  0  0  0  0
 22  1  1  0  0  0  0
M  END
>  <CHROM.1>
-177.01801319,64.68371418,-175.66186608,-29.40779880,-14.70825877,-7.63442581
-0.10632949,-0.67988944,-2.36322656

>  <Name>
lig.pdb

>  <RI>
0

>  <Rbt.Current_Directory>
/home/itssahil/PROJECTS/Mol_Feturizer/New_Systems/rnas/5bws

>  <Rbt.Executable>
rbdock ($Id: //depot/dev/client3/rdock/2013.1/src/exe/rbdock.cxx#4 $)

>  <Rbt.Library>
libRbt.so (2013.1, Build901 2013/11/27)

>  <Rbt.Parameter_File>
/export/apps/rDock/src/rDock_2013.1_src/data/scripts/dock_solv.prm

>  <Rbt.Receptor>
prm/blind_docking_80.prm

>  <SCORE>
-7.52693

>  <SCORE.INTER>
-4.12275

>  <SCORE.INTER.CONST>
1

>  <SCORE.INTER.POLAR>
0

>  <SCORE.INTER.ROT>
3

>  <SCORE.INTER.SOLV>
19.9037

>  <SCORE.INTER.VDW>
-14.9831

>  <SCORE.INTER.norm>
-0.187398

>  <SCORE.INTRA>
-3.40419

>  <SCORE.INTRA.DIHEDRAL>
-5.88619

>  <SCORE.INTRA.DIHEDRAL.0>
6.10773

>  <SCORE.INTRA.POLAR>
0

>  <SCORE.INTRA.POLAR.0>
0

>  <SCORE.INTRA.REPUL>
0

>  <SCORE.INTRA.REPUL.0>
0

>  <SCORE.INTRA.SOLV>
-1.60678

>  <SCORE.INTRA.SOLV.lig_0>
-71.4024

>  <SCORE.INTRA.VDW>
0.342297

>  <SCORE.INTRA.VDW.0>
-1.86213

>  <SCORE.INTRA.norm>
-0.154736

>  <SCORE.RESTR>
0

>  <SCORE.RESTR.CAVITY>
0

>  <SCORE.RESTR.norm>
0

>  <SCORE.SYSTEM>
0

>  <SCORE.SYSTEM.CONST>
0

>  <SCORE.SYSTEM.DIHEDRAL>
0

>  <SCORE.SYSTEM.SOLV>
0

>  <SCORE.SYSTEM.norm>
0

>  <SCORE.heavy>
22

>  <SCORE.norm>
-0.342133

>  <RMSD>
29.432

$$$$
lig.pdb
 OpenBabel11021811523D
libRbt.so/2013.1/901 2013/11/27
 22 23  0  0  0  0  0  0  0  0999 V2000
  -29.2406  -14.0181   -8.8781 C   0  0  1  0  0  0  0  0  0  0  0  0
  -30.4016  -15.4321   -7.1333 C   0  0  1  0  0  0  0  0  0  0  0  0
  -31.8474  -15.5723   -7.7869 C   0  0  1  0  0  0  0  0  0  0  0  0
  -32.8898  -15.8596   -6.6138 C   0  0  2  0  0  0  0  0  0  0  0  0
  -28.0558  -14.1889   -9.9063 C   0  0  1  0  0  0  0  0  0  0  0  0
  -26.7638  -14.4453   -9.1055 C   0  0  2  0  0  0  0  0  0  0  0  0
  -26.4415  -13.2528   -8.1876 C   0  0  2  0  0  0  0  0  0  0  0  0
  -27.5989  -13.0015   -7.1534 C   0  0  1  0  0  0  0  0  0  0  0  0
  -27.3027  -11.7627   -6.2598 C   0  0  0  0  0  0  0  0  0  0  0  0
  -32.5129  -17.2572   -5.9019 C   0  0  1  0  0  0  0  0  0  0  0  0
  -31.0484  -17.0783   -5.2563 C   0  0  0  0  0  0  0  0  0  0  0  0
  -29.9888  -16.7515   -6.4066 C   0  0  2  0  0  0  0  0  0  0  0  0
  -26.2464  -12.0396   -8.9896 F   0  0  0  0  0  0  0  0  0  0  0  0
  -28.3964  -15.3510  -10.8156 N   0  0  0  0  0  0  0  0  0  0  0  0
  -27.2698  -10.5283   -6.9480 N   0  0  0  0  0  0  0  0  0  0  0  0
  -33.4596  -17.5637   -4.7755 N   0  0  0  0  0  0  0  0  0  0  0  0
  -28.6484  -16.5870   -5.8077 N   0  0  0  0  0  0  0  0  0  0  0  0
  -29.4320  -15.1843   -8.1400 O   0  0  0  0  0  0  0  0  0  0  0  0
  -32.1778  -14.2854   -8.4434 O   0  0  0  0  0  0  0  0  0  0  0  0
  -34.1481  -15.9689   -7.2102 O   0  0  0  0  0  0  0  0  0  0  0  0
  -25.9011  -14.5672   -9.8569 O   0  0  0  0  0  0  0  0  0  0  0  0
  -28.8944  -12.8413   -7.9696 O   0  0  0  0  0  0  0  0  0  0  0  0
  1  5  1  0  0  0  0
  1 18  1  1  0  0  0
  2 18  1  6  0  0  0
  2  3  1  0  0  0  0
  2 12  1  0  0  0  0
  3 19  1  1  0  0  0
  3  4  1  0  0  0  0
  4 20  1  6  0  0  0
  4 10  1  0  0  0  0
  5  6  1  0  0  0  0
  5 14  1  6  0  0  0
  6 21  1  6  0  0  0
  7 13  1  6  0  0  0
  7  6  1  0  0  0  0
  8  9  1  6  0  0  0
  8  7  1  0  0  0  0
 10 16  1  1  0  0  0
 11 10  1  0  0  0  0
 12 17  1  1  0  0  0
 12 11  1  0  0  0  0
 15  9  1  0  0  0  0
 22  8  1  0  0  0  0
 22  1  1  0  0  0  0
M  END
>  <CHROM.1>
-179.27752060,71.80821159,65.45252082,-29.45028951,-14.65078732,-7.65701956
-0.00271538,-0.65206383,-2.13508366

>  <Name>
lig.pdb

>  <RI>
0

>  <Rbt.Current_Directory>
/home/itssahil/PROJECTS/Mol_Feturizer/New_Systems/rnas/5bws

>  <Rbt.Executable>
rbdock ($Id: //depot/dev/client3/rdock/2013.1/src/exe/rbdock.cxx#4 $)

>  <Rbt.Library>
libRbt.so (2013.1, Build901 2013/11/27)

>  <Rbt.Parameter_File>
/export/apps/rDock/src/rDock_2013.1_src/data/scripts/dock_solv.prm

>  <Rbt.Receptor>
prm/blind_docking_80.prm

>  <SCORE>
-6.08092

>  <SCORE.INTER>
-3.67937

>  <SCORE.INTER.CONST>
1

>  <SCORE.INTER.POLAR>
0

>  <SCORE.INTER.ROT>
3

>  <SCORE.INTER.SOLV>
20.5648

>  <SCORE.INTER.VDW>
-14.9079

>  <SCORE.INTER.norm>
-0.167244

>  <SCORE.INTRA>
-2.40155

>  <SCORE.INTRA.DIHEDRAL>
-5.33003

>  <SCORE.INTRA.DIHEDRAL.0>
6.10773

>  <SCORE.INTRA.POLAR>
0

>  <SCORE.INTRA.POLAR.0>
0

>  <SCORE.INTRA.REPUL>
0

>  <SCORE.INTRA.REPUL.0>
0

>  <SCORE.INTRA.SOLV>
0.282511

>  <SCORE.INTRA.SOLV.lig_0>
-71.4024

>  <SCORE.INTRA.VDW>
0.122214

>  <SCORE.INTRA.VDW.0>
-1.86213

>  <SCORE.INTRA.norm>
-0.109161

>  <SCORE.RESTR>
0

>  <SCORE.RESTR.CAVITY>
0

>  <SCORE.RESTR.norm>
0

>  <SCORE.SYSTEM>
0

>  <SCORE.SYSTEM.CONST>
0

>  <SCORE.SYSTEM.DIHEDRAL>
0

>  <SCORE.SYSTEM.SOLV>
0

>  <SCORE.SYSTEM.norm>
0

>  <SCORE.heavy>
22

>  <SCORE.norm>
-0.276405

>  <RMSD>
29.447

$$$$
lig.pdb
 OpenBabel11021811523D
libRbt.so/2013.1/901 2013/11/27
 22 23  0  0  0  0  0  0  0  0999 V2000
  -29.1105  -14.4696   -9.1776 C   0  0  1  0  0  0  0  0  0  0  0  0
  -30.2336  -15.6129   -7.2224 C   0  0  1  0  0  0  0  0  0  0  0  0
  -31.6815  -15.6993   -7.8804 C   0  0  1  0  0  0  0  0  0  0  0  0
  -32.7467  -15.8530   -6.7026 C   0  0  2  0  0  0  0  0  0  0  0  0
  -27.8016  -14.6673  -10.0365 C   0  0  1  0  0  0  0  0  0  0  0  0
  -26.5907  -14.5760   -9.0869 C   0  0  2  0  0  0  0  0  0  0  0  0
  -26.5248  -13.1940   -8.4131 C   0  0  2  0  0  0  0  0  0  0  0  0
  -27.8172  -12.9130   -7.5628 C   0  0  1  0  0  0  0  0  0  0  0  0
  -27.7797  -11.4944   -6.9248 C   0  0  0  0  0  0  0  0  0  0  0  0
  -32.4630  -17.2285   -5.9091 C   0  0  1  0  0  0  0  0  0  0  0  0
  -30.9938  -17.1052   -5.2611 C   0  0  0  0  0  0  0  0  0  0  0  0
  -29.9090  -16.9119   -6.4182 C   0  0  2  0  0  0  0  0  0  0  0  0
  -26.3853  -12.1453   -9.4300 F   0  0  0  0  0  0  0  0  0  0  0  0
  -27.8902  -16.0209  -10.7098 N   0  0  0  0  0  0  0  0  0  0  0  0
  -26.7077  -11.2738   -6.0300 N   0  0  0  0  0  0  0  0  0  0  0  0
  -33.4334  -17.4099   -4.7760 N   0  0  0  0  0  0  0  0  0  0  0  0
  -28.5644  -16.7977   -5.8171 N   0  0  0  0  0  0  0  0  0  0  0  0
  -29.2445  -15.4844   -8.2325 O   0  0  0  0  0  0  0  0  0  0  0  0
  -31.9263  -14.4339   -8.6119 O   0  0  0  0  0  0  0  0  0  0  0  0
  -34.0060  -15.9171   -7.3035 O   0  0  0  0  0  0  0  0  0  0  0  0
  -25.6377  -14.7182   -9.7153 O   0  0  0  0  0  0  0  0  0  0  0  0
  -29.0180  -13.1010   -8.5077 O   0  0  0  0  0  0  0  0  0  0  0  0
  1  5  1  0  0  0  0
  1 18  1  1  0  0  0
  2 18  1  6  0  0  0
  2  3  1  0  0  0  0
  2 12  1  0  0  0  0
  3 19  1  1  0  0  0
  3  4  1  0  0  0  0
  4 20  1  6  0  0  0
  4 10  1  0  0  0  0
  5  6  1  0  0  0  0
  5 14  1  1  0  0  0
  6 21  1  6  0  0  0
  7 13  1  6  0  0  0
  7  6  1  0  0  0  0
  8  9  1  6  0  0  0
  8  7  1  0  0  0  0
 10 16  1  1  0  0  0
 11 10  1  0  0  0  0
 12 17  1  1  0  0  0
 12 11  1  0  0  0  0
 15  9  1  0  0  0  0
 22  8  1  0  0  0  0
 22  1  1  0  0  0  0
M  END
>  <CHROM.1>
175.56770717,60.41617723,-61.24975676,-29.35226231,-14.80940887,-7.76226309
-0.07923114,-0.63711400,-2.32430427

>  <Name>
lig.pdb

>  <RI>
0

>  <Rbt.Current_Directory>
/home/itssahil/PROJECTS/Mol_Feturizer/New_Systems/rnas/5bws

>  <Rbt.Executable>
rbdock ($Id: //depot/dev/client3/rdock/2013.1/src/exe/rbdock.cxx#4 $)

>  <Rbt.Library>
libRbt.so (2013.1, Build901 2013/11/27)

>  <Rbt.Parameter_File>
/export/apps/rDock/src/rDock_2013.1_src/data/scripts/dock_solv.prm

>  <Rbt.Receptor>
prm/blind_docking_100.prm

>  <SCORE>
-6.74848

>  <SCORE.INTER>
-3.64525

>  <SCORE.INTER.CONST>
1

>  <SCORE.INTER.POLAR>
0

>  <SCORE.INTER.ROT>
3

>  <SCORE.INTER.SOLV>
21.6753

>  <SCORE.INTER.VDW>
-15.2553

>  <SCORE.INTER.norm>
-0.165693

>  <SCORE.INTRA>
-3.10323

>  <SCORE.INTRA.DIHEDRAL>
-6.00194

>  <SCORE.INTRA.DIHEDRAL.0>
6.10773

>  <SCORE.INTRA.POLAR>
0

>  <SCORE.INTRA.POLAR.0>
0

>  <SCORE.INTRA.REPUL>
0

>  <SCORE.INTRA.REPUL.0>
0

>  <SCORE.INTRA.SOLV>
-1.10842

>  <SCORE.INTRA.SOLV.lig_0>
-71.4024

>  <SCORE.INTRA.VDW>
0.451951

>  <SCORE.INTRA.VDW.0>
-1.86213

>  <SCORE.INTRA.norm>
-0.141056

>  <SCORE.RESTR>
0

>  <SCORE.RESTR.CAVITY>
0

>  <SCORE.RESTR.norm>
0

>  <SCORE.SYSTEM>
0

>  <SCORE.SYSTEM.CONST>
0

>  <SCORE.SYSTEM.DIHEDRAL>
0

>  <SCORE.SYSTEM.SOLV>
0

>  <SCORE.SYSTEM.norm>
0

>  <SCORE.heavy>
22

>  <SCORE.norm>
-0.306749

>  <RMSD>
29.462

$$$$
lig.pdb
 OpenBabel11021811523D
libRbt.so/2013.1/901 2013/11/27
 22 23  0  0  0  0  0  0  0  0999 V2000
  -29.2029  -14.2884   -9.0777 C   0  0  1  0  0  0  0  0  0  0  0  0
  -30.3077  -15.5617   -7.1937 C   0  0  1  0  0  0  0  0  0  0  0  0
  -31.7639  -15.6481   -7.8333 C   0  0  1  0  0  0  0  0  0  0  0  0
  -32.8075  -15.8718   -6.6475 C   0  0  2  0  0  0  0  0  0  0  0  0
  -27.9525  -14.4724  -10.0225 C   0  0  1  0  0  0  0  0  0  0  0  0
  -26.6902  -14.5155   -9.1387 C   0  0  2  0  0  0  0  0  0  0  0  0
  -26.5205  -13.1989   -8.3601 C   0  0  2  0  0  0  0  0  0  0  0  0
  -27.7508  -12.9321   -7.4180 C   0  0  1  0  0  0  0  0  0  0  0  0
  -27.6095  -11.5750   -6.6702 C   0  0  0  0  0  0  0  0  0  0  0  0
  -32.4860  -17.2738   -5.9174 C   0  0  1  0  0  0  0  0  0  0  0  0
  -31.0094  -17.1498   -5.2865 C   0  0  0  0  0  0  0  0  0  0  0  0
  -29.9466  -16.8870   -6.4502 C   0  0  2  0  0  0  0  0  0  0  0  0
  -26.3831  -12.0762   -9.2949 F   0  0  0  0  0  0  0  0  0  0  0  0
  -28.1434  -15.7596  -10.7972 N   0  0  0  0  0  0  0  0  0  0  0  0
  -26.4904  -11.4840   -5.8112 N   0  0  0  0  0  0  0  0  0  0  0  0
  -33.4352  -17.5216   -4.7788 N   0  0  0  0  0  0  0  0  0  0  0  0
  -28.5952  -16.7725   -5.8648 N   0  0  0  0  0  0  0  0  0  0  0  0
  -29.3370  -15.3717   -8.2119 O   0  0  0  0  0  0  0  0  0  0  0  0
  -32.0435  -14.3579   -8.5067 O   0  0  0  0  0  0  0  0  0  0  0  0
  -34.0746  -15.9347   -7.2320 O   0  0  0  0  0  0  0  0  0  0  0  0
  -25.7799  -14.6473   -9.8296 O   0  0  0  0  0  0  0  0  0  0  0  0
  -29.0076  -12.9863   -8.3054 O   0  0  0  0  0  0  0  0  0  0  0  0
  1  5  1  0  0  0  0
  1 18  1  1  0  0  0
  2 18  1  6  0  0  0
  2  3  1  0  0  0  0
  2 12  1  0  0  0  0
  3 19  1  1  0  0  0
  3  4  1  0  0  0  0
  4 20  1  6  0  0  0
  4 10  1  0  0  0  0
  5  6  1  0  0  0  0
  5 14  1  1  0  0  0
  6 21  1  6  0  0  0
  7 13  1  6  0  0  0
  7  6  1  0  0  0  0
  8  9  1  6  0  0  0
  8  7  1  0  0  0  0
 10 16  1  1  0  0  0
 11 10  1  0  0  0  0
 12 17  1  1  0  0  0
 12 11  1  0  0  0  0
 15  9  1  0  0  0  0
 22  8  1  0  0  0  0
 22  1  1  0  0  0  0
M  END
>  <CHROM.1>
178.13678717,63.39104763,-61.92258297,-29.39207147,-14.77441438,-7.71106426
0.10310493,-0.63074226,-1.98906430

>  <Name>
lig.pdb

>  <RI>
0

>  <Rbt.Current_Directory>
/home/itssahil/PROJECTS/Mol_Feturizer/New_Systems/rnas/5bws

>  <Rbt.Executable>
rbdock ($Id: //depot/dev/client3/rdock/2013.1/src/exe/rbdock.cxx#4 $)

>  <Rbt.Library>
libRbt.so (2013.1, Build901 2013/11/27)

>  <Rbt.Parameter_File>
/export/apps/rDock/src/rDock_2013.1_src/data/scripts/dock_solv.prm

>  <Rbt.Receptor>
prm/blind_docking_60.prm

>  <SCORE>
-7.1397

>  <SCORE.INTER>
-3.99439

>  <SCORE.INTER.CONST>
1

>  <SCORE.INTER.POLAR>
0

>  <SCORE.INTER.ROT>
3

>  <SCORE.INTER.SOLV>
21.7123

>  <SCORE.INTER.VDW>
-15.5004

>  <SCORE.INTER.norm>
-0.181563

>  <SCORE.INTRA>
-3.14531

>  <SCORE.INTRA.DIHEDRAL>
-6.01784

>  <SCORE.INTRA.DIHEDRAL.0>
6.10773

>  <SCORE.INTRA.POLAR>
0

>  <SCORE.INTRA.POLAR.0>
0

>  <SCORE.INTRA.REPUL>
0

>  <SCORE.INTRA.REPUL.0>
0

>  <SCORE.INTRA.SOLV>
-1.07173

>  <SCORE.INTRA.SOLV.lig_0>
-71.4024

>  <SCORE.INTRA.VDW>
0.399471

>  <SCORE.INTRA.VDW.0>
-1.86213

>  <SCORE.INTRA.norm>
-0.142969

>  <SCORE.RESTR>
0

>  <SCORE.RESTR.CAVITY>
0

>  <SCORE.RESTR.norm>
0

>  <SCORE.SYSTEM>
0

>  <SCORE.SYSTEM.CONST>
0

>  <SCORE.SYSTEM.DIHEDRAL>
0

>  <SCORE.SYSTEM.SOLV>
0

>  <SCORE.SYSTEM.norm>
0

>  <SCORE.heavy>
22

>  <SCORE.norm>
-0.324532

>  <RMSD>
29.466

$$$$
lig.pdb
 OpenBabel11021811523D
libRbt.so/2013.1/901 2013/11/27
 22 23  0  0  0  0  0  0  0  0999 V2000
  -29.2238  -14.2362   -9.0531 C   0  0  1  0  0  0  0  0  0  0  0  0
  -30.3569  -15.5122   -7.1878 C   0  0  1  0  0  0  0  0  0  0  0  0
  -31.7914  -15.6225   -7.8711 C   0  0  1  0  0  0  0  0  0  0  0  0
  -32.8673  -15.8581   -6.7169 C   0  0  2  0  0  0  0  0  0  0  0  0
  -27.9857  -14.4400  -10.0100 C   0  0  1  0  0  0  0  0  0  0  0  0
  -26.7142  -14.4876   -9.1397 C   0  0  2  0  0  0  0  0  0  0  0  0
  -26.5235  -13.1662   -8.3742 C   0  0  2  0  0  0  0  0  0  0  0  0
  -27.7407  -12.8798   -7.4210 C   0  0  1  0  0  0  0  0  0  0  0  0
  -27.5785  -11.5179   -6.6865 C   0  0  0  0  0  0  0  0  0  0  0  0
  -32.5473  -17.2529   -5.9723 C   0  0  1  0  0  0  0  0  0  0  0  0
  -31.0927  -17.1047   -5.2972 C   0  0  0  0  0  0  0  0  0  0  0  0
  -29.9989  -16.8296   -6.4289 C   0  0  2  0  0  0  0  0  0  0  0  0
  -26.3859  -12.0528   -9.3201 F   0  0  0  0  0  0  0  0  0  0  0  0
  -28.1973  -15.7318  -10.7715 N   0  0  0  0  0  0  0  0  0  0  0  0
  -26.4484  -11.4297   -5.8417 N   0  0  0  0  0  0  0  0  0  0  0  0
  -33.5270  -17.5113   -4.8623 N   0  0  0  0  0  0  0  0  0  0  0  0
  -28.6678  -16.6930   -5.8030 N   0  0  0  0  0  0  0  0  0  0  0  0
  -29.3585  -15.3109   -8.1766 O   0  0  0  0  0  0  0  0  0  0  0  0
  -32.0695  -14.3387   -8.5573 O   0  0  0  0  0  0  0  0  0  0  0  0
  -34.1149  -15.9418   -7.3394 O   0  0  0  0  0  0  0  0  0  0  0  0
  -25.8128  -14.6340   -9.8394 O   0  0  0  0  0  0  0  0  0  0  0  0
  -29.0078  -12.9295   -8.2941 O   0  0  0  0  0  0  0  0  0  0  0  0
  1  5  1  0  0  0  0
  1 18  1  1  0  0  0
  2 18  1  6  0  0  0
  2  3  1  0  0  0  0
  2 12  1  0  0  0  0
  3 19  1  1  0  0  0
  3  4  1  0  0  0  0
  4 20  1  6  0  0  0
  4 10  1  0  0  0  0
  5  6  1  0  0  0  0
  5 14  1  1  0  0  0
  6 21  1  6  0  0  0
  7 13  1  6  0  0  0
  7  6  1  0  0  0  0
  8  9  1  6  0  0  0
  8  7  1  0  0  0  0
 10 16  1  1  0  0  0
 11 10  1  0  0  0  0
 12 17  1  1  0  0  0
 12 11  1  0  0  0  0
 15  9  1  0  0  0  0
 22  8  1  0  0  0  0
 22  1  1  0  0  0  0
M  END
>  <CHROM.1>
-178.63786261,62.51706239,-61.86155876,-29.42199321,-14.73828399,-7.72598045
0.12036799,-0.62228597,-1.93836596

>  <Name>
lig.pdb

>  <RI>
0

>  <Rbt.Current_Directory>
/home/itssahil/PROJECTS/Mol_Feturizer/New_Systems/rnas/5bws

>  <Rbt.Executable>
rbdock ($Id: //depot/dev/client3/rdock/2013.1/src/exe/rbdock.cxx#4 $)

>  <Rbt.Library>
libRbt.so (2013.1, Build901 2013/11/27)

>  <Rbt.Parameter_File>
/export/apps/rDock/src/rDock_2013.1_src/data/scripts/dock_solv.prm

>  <Rbt.Receptor>
prm/blind_docking_40.prm

>  <SCORE>
-7.00801

>  <SCORE.INTER>
-3.87289

>  <SCORE.INTER.CONST>
1

>  <SCORE.INTER.POLAR>
0

>  <SCORE.INTER.ROT>
3

>  <SCORE.INTER.SOLV>
21.7559

>  <SCORE.INTER.VDW>
-15.4339

>  <SCORE.INTER.norm>
-0.17604

>  <SCORE.INTRA>
-3.13513

>  <SCORE.INTRA.DIHEDRAL>
-6.05201

>  <SCORE.INTRA.DIHEDRAL.0>
6.10773

>  <SCORE.INTRA.POLAR>
0

>  <SCORE.INTRA.POLAR.0>
0

>  <SCORE.INTRA.REPUL>
0

>  <SCORE.INTRA.REPUL.0>
0

>  <SCORE.INTRA.SOLV>
-1.11239

>  <SCORE.INTRA.SOLV.lig_0>
-71.4024

>  <SCORE.INTRA.VDW>
0.447074

>  <SCORE.INTRA.VDW.0>
-1.86213

>  <SCORE.INTRA.norm>
-0.142506

>  <SCORE.RESTR>
0

>  <SCORE.RESTR.CAVITY>
0

>  <SCORE.RESTR.norm>
0

>  <SCORE.SYSTEM>
0

>  <SCORE.SYSTEM.CONST>
0

>  <SCORE.SYSTEM.DIHEDRAL>
0

>  <SCORE.SYSTEM.SOLV>
0

>  <SCORE.SYSTEM.norm>
0

>  <SCORE.heavy>
22

>  <SCORE.norm>
-0.318546

>  <RMSD>
29.481

$$$$
lig.pdb
 OpenBabel11021811523D
libRbt.so/2013.1/901 2013/11/27
 22 23  0  0  0  0  0  0  0  0999 V2000
  -29.2064  -14.2786   -9.0773 C   0  0  1  0  0  0  0  0  0  0  0  0
  -30.3326  -15.5558   -7.2087 C   0  0  1  0  0  0  0  0  0  0  0  0
  -31.7807  -15.6165   -7.8693 C   0  0  1  0  0  0  0  0  0  0  0  0
  -32.8429  -15.8474   -6.7015 C   0  0  2  0  0  0  0  0  0  0  0  0
  -27.9554  -14.4686  -10.0201 C   0  0  1  0  0  0  0  0  0  0  0  0
  -26.6945  -14.5158   -9.1345 C   0  0  2  0  0  0  0  0  0  0  0  0
  -26.5206  -13.1990   -8.3570 C   0  0  2  0  0  0  0  0  0  0  0  0
  -27.7512  -12.9263   -7.4170 C   0  0  1  0  0  0  0  0  0  0  0  0
  -27.6055  -11.5689   -6.6705 C   0  0  0  0  0  0  0  0  0  0  0  0
  -32.5462  -17.2641   -5.9894 C   0  0  1  0  0  0  0  0  0  0  0  0
  -31.0773  -17.1658   -5.3366 C   0  0  0  0  0  0  0  0  0  0  0  0
  -29.9958  -16.8963   -6.4814 C   0  0  2  0  0  0  0  0  0  0  0  0
  -26.3774  -12.0779   -9.2929 F   0  0  0  0  0  0  0  0  0  0  0  0
  -28.1504  -15.7558  -10.7937 N   0  0  0  0  0  0  0  0  0  0  0  0
  -26.4936  -11.4853   -5.8015 N   0  0  0  0  0  0  0  0  0  0  0  0
  -33.5136  -17.5194   -4.8679 N   0  0  0  0  0  0  0  0  0  0  0  0
  -28.6514  -16.8055   -5.8758 N   0  0  0  0  0  0  0  0  0  0  0  0
  -29.3461  -15.3604   -8.2105 O   0  0  0  0  0  0  0  0  0  0  0  0
  -32.0373  -14.3130   -8.5260 O   0  0  0  0  0  0  0  0  0  0  0  0
  -34.1024  -15.8875   -7.3041 O   0  0  0  0  0  0  0  0  0  0  0  0
  -25.7837  -14.6520   -9.8239 O   0  0  0  0  0  0  0  0  0  0  0  0
  -29.0069  -12.9764   -8.3061 O   0  0  0  0  0  0  0  0  0  0  0  0
  1  5  1  0  0  0  0
  1 18  1  1  0  0  0
  2 18  1  6  0  0  0
  2  3  1  0  0  0  0
  2 12  1  0  0  0  0
  3 19  1  1  0  0  0
  3  4  1  0  0  0  0
  4 20  1  6  0  0  0
  4 10  1  0  0  0  0
  5  6  1  0  0  0  0
  5 14  1  1  0  0  0
  6 21  1  6  0  0  0
  7 13  1  6  0  0  0
  7  6  1  0  0  0  0
  8  9  1  6  0  0  0
  8  7  1  0  0  0  0
 10 16  1  1  0  0  0
 11 10  1  0  0  0  0
 12 17  1  1  0  0  0
 12 11  1  0  0  0  0
 15  9  1  0  0  0  0
 22  8  1  0  0  0  0
 22  1  1  0  0  0  0
M  END
>  <CHROM.1>
179.31598542,61.82485016,-62.42765136,-29.41100325,-14.76730044,-7.72959936
0.08069957,-0.62526589,-2.01243279

>  <Name>
lig.pdb

>  <RI>
0

>  <Rbt.Current_Directory>
/home/itssahil/PROJECTS/Mol_Feturizer/New_Systems/rnas/5bws

>  <Rbt.Executable>
rbdock ($Id: //depot/dev/client3/rdock/2013.1/src/exe/rbdock.cxx#4 $)

>  <Rbt.Library>
libRbt.so (2013.1, Build901 2013/11/27)

>  <Rbt.Parameter_File>
/export/apps/rDock/src/rDock_2013.1_src/data/scripts/dock_solv.prm

>  <Rbt.Receptor>
prm/blind_docking_100.prm

>  <SCORE>
-7.11352

>  <SCORE.INTER>
-3.96947

>  <SCORE.INTER.CONST>
1

>  <SCORE.INTER.POLAR>
0

>  <SCORE.INTER.ROT>
3

>  <SCORE.INTER.SOLV>
22.1124

>  <SCORE.INTER.VDW>
-15.6171

>  <SCORE.INTER.norm>
-0.180431

>  <SCORE.INTRA>
-3.14405

>  <SCORE.INTRA.DIHEDRAL>
-6.06482

>  <SCORE.INTRA.DIHEDRAL.0>
6.10773

>  <SCORE.INTRA.POLAR>
0

>  <SCORE.INTRA.POLAR.0>
0

>  <SCORE.INTRA.REPUL>
0

>  <SCORE.INTRA.REPUL.0>
0

>  <SCORE.INTRA.SOLV>
-1.12717

>  <SCORE.INTRA.SOLV.lig_0>
-71.4024

>  <SCORE.INTRA.VDW>
0.451948

>  <SCORE.INTRA.VDW.0>
-1.86213

>  <SCORE.INTRA.norm>
-0.142911

>  <SCORE.RESTR>
0

>  <SCORE.RESTR.CAVITY>
0

>  <SCORE.RESTR.norm>
0

>  <SCORE.SYSTEM>
0

>  <SCORE.SYSTEM.CONST>
0

>  <SCORE.SYSTEM.DIHEDRAL>
0

>  <SCORE.SYSTEM.SOLV>
0

>  <SCORE.SYSTEM.norm>
0

>  <SCORE.heavy>
22

>  <SCORE.norm>
-0.323342

>  <RMSD>
29.486

$$$$
lig.pdb
 OpenBabel11021811523D
libRbt.so/2013.1/901 2013/11/27
 22 23  0  0  0  0  0  0  0  0999 V2000
  -29.2370  -14.2949   -9.0706 C   0  0  1  0  0  0  0  0  0  0  0  0
  -30.3292  -15.5795   -7.1869 C   0  0  1  0  0  0  0  0  0  0  0  0
  -31.7857  -15.7033   -7.8197 C   0  0  1  0  0  0  0  0  0  0  0  0
  -32.8204  -15.9316   -6.6270 C   0  0  2  0  0  0  0  0  0  0  0  0
  -27.9952  -14.4751  -10.0275 C   0  0  1  0  0  0  0  0  0  0  0  0
  -26.7254  -14.5274   -9.1550 C   0  0  2  0  0  0  0  0  0  0  0  0
  -26.5458  -13.2168   -8.3685 C   0  0  2  0  0  0  0  0  0  0  0  0
  -27.7672  -12.9538   -7.4139 C   0  0  1  0  0  0  0  0  0  0  0  0
  -27.6163  -11.6024   -6.6578 C   0  0  0  0  0  0  0  0  0  0  0  0
  -32.4685  -17.3171   -5.8796 C   0  0  1  0  0  0  0  0  0  0  0  0
  -30.9924  -17.1554   -5.2561 C   0  0  0  0  0  0  0  0  0  0  0  0
  -29.9392  -16.8873   -6.4273 C   0  0  2  0  0  0  0  0  0  0  0  0
  -26.4138  -12.0878   -9.2965 F   0  0  0  0  0  0  0  0  0  0  0  0
  -28.1959  -15.7563  -10.8096 N   0  0  0  0  0  0  0  0  0  0  0  0
  -26.4933  -11.5225   -5.8028 N   0  0  0  0  0  0  0  0  0  0  0  0
  -33.4085  -17.5683   -4.7341 N   0  0  0  0  0  0  0  0  0  0  0  0
  -28.5882  -16.7382   -5.8486 N   0  0  0  0  0  0  0  0  0  0  0  0
  -29.3662  -15.3840   -8.2113 O   0  0  0  0  0  0  0  0  0  0  0  0
  -32.0932  -14.4280   -8.5092 O   0  0  0  0  0  0  0  0  0  0  0  0
  -34.0881  -16.0274   -7.2057 O   0  0  0  0  0  0  0  0  0  0  0  0
  -25.8214  -14.6565   -9.8546 O   0  0  0  0  0  0  0  0  0  0  0  0
  -29.0318  -12.9987   -8.2908 O   0  0  0  0  0  0  0  0  0  0  0  0
  1  5  1  0  0  0  0
  1 18  1  1  0  0  0
  2 18  1  6  0  0  0
  2  3  1  0  0  0  0
  2 12  1  0  0  0  0
  3 19  1  1  0  0  0
  3  4  1  0  0  0  0
  4 20  1  6  0  0  0
  4 10  1  0  0  0  0
  5  6  1  0  0  0  0
  5 14  1  1  0  0  0
  6 21  1  6  0  0  0
  7 13  1  6  0  0  0
  7  6  1  0  0  0  0
  8  9  1  6  0  0  0
  8  7  1  0  0  0  0
 10 16  1  1  0  0  0
 11 10  1  0  0  0  0
 12 17  1  1  0  0  0
 12 11  1  0  0  0  0
 15  9  1  0  0  0  0
 22  8  1  0  0  0  0
 22  1  1  0  0  0  0
M  END
>  <CHROM.1>
178.20089083,65.10253543,-62.22825543,-29.41022392,-14.79862744,-7.70251971
0.14386299,-0.63022157,-1.92269694

>  <Name>
lig.pdb

>  <RI>
0

>  <Rbt.Current_Directory>
/home/itssahil/PROJECTS/Mol_Feturizer/New_Systems/rnas/5bws

>  <Rbt.Executable>
rbdock ($Id: //depot/dev/client3/rdock/2013.1/src/exe/rbdock.cxx#4 $)

>  <Rbt.Library>
libRbt.so (2013.1, Build901 2013/11/27)

>  <Rbt.Parameter_File>
/export/apps/rDock/src/rDock_2013.1_src/data/scripts/dock_solv.prm

>  <Rbt.Receptor>
prm/blind_docking_100.prm

>  <SCORE>
-7.13792

>  <SCORE.INTER>
-4.01287

>  <SCORE.INTER.CONST>
1

>  <SCORE.INTER.POLAR>
0

>  <SCORE.INTER.ROT>
3

>  <SCORE.INTER.SOLV>
21.6706

>  <SCORE.INTER.VDW>
-15.4988

>  <SCORE.INTER.norm>
-0.182403

>  <SCORE.INTRA>
-3.12505

>  <SCORE.INTRA.DIHEDRAL>
-5.9433

>  <SCORE.INTRA.DIHEDRAL.0>
6.10773

>  <SCORE.INTRA.POLAR>
0

>  <SCORE.INTRA.POLAR.0>
0

>  <SCORE.INTRA.REPUL>
0

>  <SCORE.INTRA.REPUL.0>
0

>  <SCORE.INTRA.SOLV>
-1.03845

>  <SCORE.INTRA.SOLV.lig_0>
-71.4024

>  <SCORE.INTRA.VDW>
0.365827

>  <SCORE.INTRA.VDW.0>
-1.86213

>  <SCORE.INTRA.norm>
-0.142048

>  <SCORE.RESTR>
0

>  <SCORE.RESTR.CAVITY>
0

>  <SCORE.RESTR.norm>
0

>  <SCORE.SYSTEM>
0

>  <SCORE.SYSTEM.CONST>
0

>  <SCORE.SYSTEM.DIHEDRAL>
0

>  <SCORE.SYSTEM.SOLV>
0

>  <SCORE.SYSTEM.norm>
0

>  <SCORE.heavy>
22

>  <SCORE.norm>
-0.324451

>  <RMSD>
29.489

$$$$
lig.pdb
 OpenBabel11021811523D
libRbt.so/2013.1/901 2013/11/27
 22 23  0  0  0  0  0  0  0  0999 V2000
  -29.2196  -14.3428   -9.1154 C   0  0  1  0  0  0  0  0  0  0  0  0
  -30.3107  -15.5708   -7.1937 C   0  0  1  0  0  0  0  0  0  0  0  0
  -31.7648  -15.6534   -7.8386 C   0  0  1  0  0  0  0  0  0  0  0  0
  -32.8146  -15.8611   -6.6554 C   0  0  2  0  0  0  0  0  0  0  0  0
  -27.9593  -14.5341  -10.0455 C   0  0  1  0  0  0  0  0  0  0  0  0
  -26.7021  -14.5144   -9.1536 C   0  0  2  0  0  0  0  0  0  0  0  0
  -26.5673  -13.1655   -8.4251 C   0  0  2  0  0  0  0  0  0  0  0  0
  -27.8094  -12.8911   -7.5008 C   0  0  1  0  0  0  0  0  0  0  0  0
  -27.7038  -11.5035   -6.8050 C   0  0  0  0  0  0  0  0  0  0  0  0
  -32.5047  -17.2592   -5.9128 C   0  0  1  0  0  0  0  0  0  0  0  0
  -31.0300  -17.1392   -5.2769 C   0  0  0  0  0  0  0  0  0  0  0  0
  -29.9608  -16.8923   -6.4383 C   0  0  2  0  0  0  0  0  0  0  0  0
  -26.4493  -12.0765   -9.4015 F   0  0  0  0  0  0  0  0  0  0  0  0
  -28.1160  -15.8540  -10.7713 N   0  0  0  0  0  0  0  0  0  0  0  0
  -26.5848  -11.3490   -5.9550 N   0  0  0  0  0  0  0  0  0  0  0  0
  -33.4600  -17.4920   -4.7762 N   0  0  0  0  0  0  0  0  0  0  0  0
  -28.6111  -16.7814   -5.8482 N   0  0  0  0  0  0  0  0  0  0  0  0
  -29.3347  -15.3950   -8.2094 O   0  0  0  0  0  0  0  0  0  0  0  0
  -32.0336  -14.3669   -8.5235 O   0  0  0  0  0  0  0  0  0  0  0  0
  -34.0796  -15.9209   -7.2446 O   0  0  0  0  0  0  0  0  0  0  0  0
  -25.7845  -14.6517   -9.8338 O   0  0  0  0  0  0  0  0  0  0  0  0
  -29.0589  -13.0080   -8.3926 O   0  0  0  0  0  0  0  0  0  0  0  0
  1  5  1  0  0  0  0
  1 18  1  1  0  0  0
  2 18  1  6  0  0  0
  2  3  1  0  0  0  0
  2 12  1  0  0  0  0
  3 19  1  1  0  0  0
  3  4  1  0  0  0  0
  4 20  1  6  0  0  0
  4 10  1  0  0  0  0
  5  6  1  0  0  0  0
  5 14  1  1  0  0  0
  6 21  1  6  0  0  0
  7 13  1  6  0  0  0
  7  6  1  0  0  0  0
  8  9  1  6  0  0  0
  8  7  1  0  0  0  0
 10 16  1  1  0  0  0
 11 10  1  0  0  0  0
 12 17  1  1  0  0  0
 12 11  1  0  0  0  0
 15  9  1  0  0  0  0
 22  8  1  0  0  0  0
 22  1  1  0  0  0  0
M  END
>  <CHROM.1>
178.42339298,60.81947186,-61.27145837,-29.41622316,-14.77174743,-7.74272748
0.02824247,-0.64755122,-2.12960884

>  <Name>
lig.pdb

>  <RI>
0

>  <Rbt.Current_Directory>
/home/itssahil/PROJECTS/Mol_Feturizer/New_Systems/rnas/5bws

>  <Rbt.Executable>
rbdock ($Id: //depot/dev/client3/rdock/2013.1/src/exe/rbdock.cxx#4 $)

>  <Rbt.Library>
libRbt.so (2013.1, Build901 2013/11/27)

>  <Rbt.Parameter_File>
/export/apps/rDock/src/rDock_2013.1_src/data/scripts/dock_solv.prm

>  <Rbt.Receptor>
prm/blind_docking_40.prm

>  <SCORE>
-6.94165

>  <SCORE.INTER>
-3.81271

>  <SCORE.INTER.CONST>
1

>  <SCORE.INTER.POLAR>
0

>  <SCORE.INTER.ROT>
3

>  <SCORE.INTER.SOLV>
21.8437

>  <SCORE.INTER.VDW>
-15.4231

>  <SCORE.INTER.norm>
-0.173305

>  <SCORE.INTRA>
-3.12895

>  <SCORE.INTRA.DIHEDRAL>
-6.08352

>  <SCORE.INTRA.DIHEDRAL.0>
6.10773

>  <SCORE.INTRA.POLAR>
0

>  <SCORE.INTRA.POLAR.0>
0

>  <SCORE.INTRA.REPUL>
0

>  <SCORE.INTRA.REPUL.0>
0

>  <SCORE.INTRA.SOLV>
-1.11938

>  <SCORE.INTRA.SOLV.lig_0>
-71.4024

>  <SCORE.INTRA.VDW>
0.472504

>  <SCORE.INTRA.VDW.0>
-1.86213

>  <SCORE.INTRA.norm>
-0.142225

>  <SCORE.RESTR>
0

>  <SCORE.RESTR.CAVITY>
0

>  <SCORE.RESTR.norm>
0

>  <SCORE.SYSTEM>
0

>  <SCORE.SYSTEM.CONST>
0

>  <SCORE.SYSTEM.DIHEDRAL>
0

>  <SCORE.SYSTEM.SOLV>
0

>  <SCORE.SYSTEM.norm>
0

>  <SCORE.heavy>
22

>  <SCORE.norm>
-0.31553

>  <RMSD>
29.491

$$$$
lig.pdb
 OpenBabel11021811523D
libRbt.so/2013.1/901 2013/11/27
 22 23  0  0  0  0  0  0  0  0999 V2000
  -29.0683  -14.5135   -9.1354 C   0  0  1  0  0  0  0  0  0  0  0  0
  -30.1940  -15.6222   -7.1619 C   0  0  1  0  0  0  0  0  0  0  0  0
  -31.6321  -15.7052   -7.8416 C   0  0  1  0  0  0  0  0  0  0  0  0
  -32.7154  -15.8541   -6.6799 C   0  0  2  0  0  0  0  0  0  0  0  0
  -27.7417  -14.7053   -9.9681 C   0  0  1  0  0  0  0  0  0  0  0  0
  -26.5482  -14.5479   -9.0051 C   0  0  2  0  0  0  0  0  0  0  0  0
  -26.5297  -13.1418   -8.3798 C   0  0  2  0  0  0  0  0  0  0  0  0
  -27.8419  -12.8667   -7.5584 C   0  0  1  0  0  0  0  0  0  0  0  0
  -27.8522  -11.4262   -6.9704 C   0  0  0  0  0  0  0  0  0  0  0  0
  -32.4479  -17.2294   -5.8804 C   0  0  1  0  0  0  0  0  0  0  0  0
  -30.9883  -17.1097   -5.2104 C   0  0  0  0  0  0  0  0  0  0  0  0
  -29.8856  -16.9211   -6.3512 C   0  0  2  0  0  0  0  0  0  0  0  0
  -26.4029  -12.1259   -9.4310 F   0  0  0  0  0  0  0  0  0  0  0  0
  -27.7837  -16.0835  -10.5943 N   0  0  0  0  0  0  0  0  0  0  0  0
  -29.0103  -11.0951   -6.2304 N   0  0  0  0  0  0  0  0  0  0  0  0
  -33.4360  -17.4065   -4.7619 N   0  0  0  0  0  0  0  0  0  0  0  0
  -28.5499  -16.8103   -5.7300 N   0  0  0  0  0  0  0  0  0  0  0  0
  -29.1894  -15.4981   -8.1571 O   0  0  0  0  0  0  0  0  0  0  0  0
  -31.8620  -14.4400   -8.5783 O   0  0  0  0  0  0  0  0  0  0  0  0
  -33.9657  -15.9152   -7.2997 O   0  0  0  0  0  0  0  0  0  0  0  0
  -25.5823  -14.6858   -9.6146 O   0  0  0  0  0  0  0  0  0  0  0  0
  -29.0228  -13.1204   -8.5130 O   0  0  0  0  0  0  0  0  0  0  0  0
  1  5  1  0  0  0  0
  1 18  1  1  0  0  0
  2 18  1  6  0  0  0
  2  3  1  0  0  0  0
  2 12  1  0  0  0  0
  3 19  1  1  0  0  0
  3  4  1  0  0  0  0
  4 20  1  6  0  0  0
  4 10  1  0  0  0  0
  5  6  1  0  0  0  0
  5 14  1  1  0  0  0
  6 21  1  6  0  0  0
  7 13  1  6  0  0  0
  7  6  1  0  0  0  0
  8  9  1  6  0  0  0
  8  7  1  0  0  0  0
 10 16  1  1  0  0  0
 11 10  1  0  0  0  0
 12 17  1  1  0  0  0
 12 11  1  0  0  0  0
 15  9  1  0  0  0  0
 22  8  1  0  0  0  0
 22  1  1  0  0  0  0
M  END
>  <CHROM.1>
175.94931707,57.60135028,179.23994841,-29.43188506,-14.80008130,-7.73212462
-0.39006984,-0.55038652,-2.91878578

>  <Name>
lig.pdb

>  <RI>
0

>  <Rbt.Current_Directory>
/home/itssahil/PROJECTS/Mol_Feturizer/New_Systems/rnas/5bws

>  <Rbt.Executable>
rbdock ($Id: //depot/dev/client3/rdock/2013.1/src/exe/rbdock.cxx#4 $)

>  <Rbt.Library>
libRbt.so (2013.1, Build901 2013/11/27)

>  <Rbt.Parameter_File>
/export/apps/rDock/src/rDock_2013.1_src/data/scripts/dock_solv.prm

>  <Rbt.Receptor>
prm/blind_docking_40.prm

>  <SCORE>
-7.03331

>  <SCORE.INTER>
-3.68163

>  <SCORE.INTER.CONST>
1

>  <SCORE.INTER.POLAR>
0

>  <SCORE.INTER.ROT>
3

>  <SCORE.INTER.SOLV>
21.3284

>  <SCORE.INTER.VDW>
-15.1639

>  <SCORE.INTER.norm>
-0.167347

>  <SCORE.INTRA>
-3.35169

>  <SCORE.INTRA.DIHEDRAL>
-5.9939

>  <SCORE.INTRA.DIHEDRAL.0>
6.10773

>  <SCORE.INTRA.POLAR>
0

>  <SCORE.INTRA.POLAR.0>
0

>  <SCORE.INTRA.REPUL>
0

>  <SCORE.INTRA.REPUL.0>
0

>  <SCORE.INTRA.SOLV>
-1.65916

>  <SCORE.INTRA.SOLV.lig_0>
-71.4024

>  <SCORE.INTRA.VDW>
0.474844

>  <SCORE.INTRA.VDW.0>
-1.86213

>  <SCORE.INTRA.norm>
-0.152349

>  <SCORE.RESTR>
0

>  <SCORE.RESTR.CAVITY>
0

>  <SCORE.RESTR.norm>
0

>  <SCORE.SYSTEM>
0

>  <SCORE.SYSTEM.CONST>
0

>  <SCORE.SYSTEM.DIHEDRAL>
0

>  <SCORE.SYSTEM.SOLV>
0

>  <SCORE.SYSTEM.norm>
0

>  <SCORE.heavy>
22

>  <SCORE.norm>
-0.319696

>  <RMSD>
29.516

$$$$
lig.pdb
 OpenBabel11021811523D
libRbt.so/2013.1/901 2013/11/27
 22 23  0  0  0  0  0  0  0  0999 V2000
  -29.2015  -14.2294   -9.0366 C   0  0  1  0  0  0  0  0  0  0  0  0
  -30.3266  -15.4987   -7.1619 C   0  0  1  0  0  0  0  0  0  0  0  0
  -31.7662  -15.6073   -7.8347 C   0  0  1  0  0  0  0  0  0  0  0  0
  -32.8345  -15.8368   -6.6722 C   0  0  2  0  0  0  0  0  0  0  0  0
  -27.9564  -14.4277   -9.9855 C   0  0  1  0  0  0  0  0  0  0  0  0
  -26.6899  -14.4654   -9.1076 C   0  0  2  0  0  0  0  0  0  0  0  0
  -26.5120  -13.1410   -8.3440 C   0  0  2  0  0  0  0  0  0  0  0  0
  -27.7367  -12.8600   -7.3988 C   0  0  1  0  0  0  0  0  0  0  0  0
  -27.5873  -11.4954   -6.6666 C   0  0  0  0  0  0  0  0  0  0  0  0
  -32.5127  -17.2301   -5.9258 C   0  0  1  0  0  0  0  0  0  0  0  0
  -31.0530  -17.0836   -5.2614 C   0  0  0  0  0  0  0  0  0  0  0  0
  -29.9666  -16.8147   -6.4017 C   0  0  2  0  0  0  0  0  0  0  0  0
  -26.3756  -12.0290   -9.2916 F   0  0  0  0  0  0  0  0  0  0  0  0
  -28.1553  -15.7225  -10.7453 N   0  0  0  0  0  0  0  0  0  0  0  0
  -28.6233  -11.1953   -5.7527 N   0  0  0  0  0  0  0  0  0  0  0  0
  -33.4851  -17.4827   -4.8080 N   0  0  0  0  0  0  0  0  0  0  0  0
  -28.6307  -16.6796   -5.7857 N   0  0  0  0  0  0  0  0  0  0  0  0
  -29.3348  -15.3028   -8.1585 O   0  0  0  0  0  0  0  0  0  0  0  0
  -32.0460  -14.3249   -8.5228 O   0  0  0  0  0  0  0  0  0  0  0  0
  -34.0866  -15.9192   -7.2857 O   0  0  0  0  0  0  0  0  0  0  0  0
  -25.7834  -14.6077   -9.8015 O   0  0  0  0  0  0  0  0  0  0  0  0
  -28.9981  -12.9196   -8.2794 O   0  0  0  0  0  0  0  0  0  0  0  0
  1  5  1  0  0  0  0
  1 18  1  1  0  0  0
  2 18  1  6  0  0  0
  2  3  1  0  0  0  0
  2 12  1  0  0  0  0
  3 19  1  1  0  0  0
  3  4  1  0  0  0  0
  4 20  1  6  0  0  0
  4 10  1  0  0  0  0
  5  6  1  0  0  0  0
  5 14  1  1  0  0  0
  6 21  1  6  0  0  0
  7 13  1  6  0  0  0
  7  6  1  0  0  0  0
  8  9  1  6  0  0  0
  8  7  1  0  0  0  0
 10 16  1  1  0  0  0
 11 10  1  0  0  0  0
 12 17  1  1  0  0  0
 12 11  1  0  0  0  0
 15  9  1  0  0  0  0
 22  8  1  0  0  0  0
 22  1  1  0  0  0  0
M  END
>  <CHROM.1>
-179.64783566,62.70906355,-177.42673925,-29.49570969,-14.71074915,-7.69256683
-0.16400175,-0.63650336,-2.47859694

>  <Name>
lig.pdb

>  <RI>
0

>  <Rbt.Current_Directory>
/home/itssahil/PROJECTS/Mol_Feturizer/New_Systems/rnas/5bws

>  <Rbt.Executable>
rbdock ($Id: //depot/dev/client3/rdock/2013.1/src/exe/rbdock.cxx#4 $)

>  <Rbt.Library>
libRbt.so (2013.1, Build901 2013/11/27)

>  <Rbt.Parameter_File>
/export/apps/rDock/src/rDock_2013.1_src/data/scripts/dock_solv.prm

>  <Rbt.Receptor>
prm/blind_docking_60.prm

>  <SCORE>
-7.63023

>  <SCORE.INTER>
-4.18147

>  <SCORE.INTER.CONST>
1

>  <SCORE.INTER.POLAR>
0

>  <SCORE.INTER.ROT>
3

>  <SCORE.INTER.SOLV>
21.2121

>  <SCORE.INTER.VDW>
-15.4583

>  <SCORE.INTER.norm>
-0.190067

>  <SCORE.INTRA>
-3.44876

>  <SCORE.INTRA.DIHEDRAL>
-6.04461

>  <SCORE.INTRA.DIHEDRAL.0>
6.10773

>  <SCORE.INTRA.POLAR>
0

>  <SCORE.INTRA.POLAR.0>
0

>  <SCORE.INTRA.REPUL>
0

>  <SCORE.INTRA.REPUL.0>
0

>  <SCORE.INTRA.SOLV>
-1.62793

>  <SCORE.INTRA.SOLV.lig_0>
-71.4024

>  <SCORE.INTRA.VDW>
0.387511

>  <SCORE.INTRA.VDW.0>
-1.86213

>  <SCORE.INTRA.norm>
-0.156762

>  <SCORE.RESTR>
0

>  <SCORE.RESTR.CAVITY>
0

>  <SCORE.RESTR.norm>
0

>  <SCORE.SYSTEM>
0

>  <SCORE.SYSTEM.CONST>
0

>  <SCORE.SYSTEM.DIHEDRAL>
0

>  <SCORE.SYSTEM.SOLV>
0

>  <SCORE.SYSTEM.norm>
0

>  <SCORE.heavy>
22

>  <SCORE.norm>
-0.346829

>  <RMSD>
29.520

$$$$
lig.pdb
 OpenBabel11021811523D
libRbt.so/2013.1/901 2013/11/27
 22 23  0  0  0  0  0  0  0  0999 V2000
  -29.1879  -14.2832   -9.0651 C   0  0  1  0  0  0  0  0  0  0  0  0
  -30.3097  -15.5262   -7.1709 C   0  0  1  0  0  0  0  0  0  0  0  0
  -31.7539  -15.6641   -7.8284 C   0  0  1  0  0  0  0  0  0  0  0  0
  -32.8109  -15.8692   -6.6512 C   0  0  2  0  0  0  0  0  0  0  0  0
  -27.9372  -14.4888  -10.0050 C   0  0  1  0  0  0  0  0  0  0  0  0
  -26.6761  -14.5217   -9.1191 C   0  0  2  0  0  0  0  0  0  0  0  0
  -26.5018  -13.1925   -8.3633 C   0  0  2  0  0  0  0  0  0  0  0  0
  -27.7320  -12.9042   -7.4275 C   0  0  1  0  0  0  0  0  0  0  0  0
  -27.5859  -11.5348   -6.7034 C   0  0  0  0  0  0  0  0  0  0  0  0
  -32.4724  -17.2389   -5.8691 C   0  0  1  0  0  0  0  0  0  0  0  0
  -31.0085  -17.0631   -5.2213 C   0  0  0  0  0  0  0  0  0  0  0  0
  -29.9335  -16.8178   -6.3776 C   0  0  2  0  0  0  0  0  0  0  0  0
  -26.3586  -12.0869   -9.3174 F   0  0  0  0  0  0  0  0  0  0  0  0
  -28.1327  -15.7885  -10.7574 N   0  0  0  0  0  0  0  0  0  0  0  0
  -28.6164  -11.2370   -5.7826 N   0  0  0  0  0  0  0  0  0  0  0  0
  -33.4338  -17.4676   -4.7368 N   0  0  0  0  0  0  0  0  0  0  0  0
  -28.5938  -16.6558   -5.7766 N   0  0  0  0  0  0  0  0  0  0  0  0
  -29.3276  -15.3506   -8.1807 O   0  0  0  0  0  0  0  0  0  0  0  0
  -32.0490  -14.4034   -8.5494 O   0  0  0  0  0  0  0  0  0  0  0  0
  -34.0673  -15.9779   -7.2517 O   0  0  0  0  0  0  0  0  0  0  0  0
  -25.7656  -14.6694   -9.8064 O   0  0  0  0  0  0  0  0  0  0  0  0
  -28.9880  -12.9686   -8.3154 O   0  0  0  0  0  0  0  0  0  0  0  0
  1  5  1  0  0  0  0
  1 18  1  1  0  0  0
  2 18  1  6  0  0  0
  2  3  1  0  0  0  0
  2 12  1  0  0  0  0
  3 19  1  1  0  0  0
  3  4  1  0  0  0  0
  4 20  1  6  0  0  0
  4 10  1  0  0  0  0
  5  6  1  0  0  0  0
  5 14  1  1  0  0  0
  6 21  1  6  0  0  0
  7 13  1  6  0  0  0
  7  6  1  0  0  0  0
  8  9  1  6  0  0  0
  8  7  1  0  0  0  0
 10 16  1  1  0  0  0
 11 10  1  0  0  0  0
 12 17  1  1  0  0  0
 12 11  1  0  0  0  0
 15  9  1  0  0  0  0
 22  8  1  0  0  0  0
 22  1  1  0  0  0  0
M  END
>  <CHROM.1>
178.95359732,64.64415784,-176.49561914,-29.47694308,-14.74973195,-7.69546660
-0.13459350,-0.64306704,-2.44868829

>  <Name>
lig.pdb

>  <RI>
0

>  <Rbt.Current_Directory>
/home/itssahil/PROJECTS/Mol_Feturizer/New_Systems/rnas/5bws

>  <Rbt.Executable>
rbdock ($Id: //depot/dev/client3/rdock/2013.1/src/exe/rbdock.cxx#4 $)

>  <Rbt.Library>
libRbt.so (2013.1, Build901 2013/11/27)

>  <Rbt.Parameter_File>
/export/apps/rDock/src/rDock_2013.1_src/data/scripts/dock_solv.prm

>  <Rbt.Receptor>
prm/blind_docking_80.prm

>  <SCORE>
-7.59224

>  <SCORE.INTER>
-4.15152

>  <SCORE.INTER.CONST>
1

>  <SCORE.INTER.POLAR>
0

>  <SCORE.INTER.ROT>
3

>  <SCORE.INTER.SOLV>
21.0201

>  <SCORE.INTER.VDW>
-15.3744

>  <SCORE.INTER.norm>
-0.188706

>  <SCORE.INTRA>
-3.44072

>  <SCORE.INTRA.DIHEDRAL>
-5.94979

>  <SCORE.INTRA.DIHEDRAL.0>
6.10773

>  <SCORE.INTRA.POLAR>
0

>  <SCORE.INTRA.POLAR.0>
0

>  <SCORE.INTRA.REPUL>
0

>  <SCORE.INTRA.REPUL.0>
0

>  <SCORE.INTRA.SOLV>
-1.58413

>  <SCORE.INTRA.SOLV.lig_0>
-71.4024

>  <SCORE.INTRA.VDW>
0.32624

>  <SCORE.INTRA.VDW.0>
-1.86213

>  <SCORE.INTRA.norm>
-0.156396

>  <SCORE.RESTR>
0

>  <SCORE.RESTR.CAVITY>
0

>  <SCORE.RESTR.norm>
0

>  <SCORE.SYSTEM>
0

>  <SCORE.SYSTEM.CONST>
0

>  <SCORE.SYSTEM.DIHEDRAL>
0

>  <SCORE.SYSTEM.SOLV>
0

>  <SCORE.SYSTEM.norm>
0

>  <SCORE.heavy>
22

>  <SCORE.norm>
-0.345102

>  <RMSD>
29.521

$$$$
lig.pdb
 OpenBabel11021811523D
libRbt.so/2013.1/901 2013/11/27
 22 23  0  0  0  0  0  0  0  0999 V2000
  -29.3344  -14.2870   -6.9463 C   0  0  1  0  0  0  0  0  0  0  0  0
  -30.7194  -16.3892   -6.7151 C   0  0  1  0  0  0  0  0  0  0  0  0
  -30.2943  -16.8236   -5.2428 C   0  0  1  0  0  0  0  0  0  0  0  0
  -31.4698  -17.7155   -4.6362 C   0  0  2  0  0  0  0  0  0  0  0  0
  -28.1776  -13.7592   -7.8809 C   0  0  1  0  0  0  0  0  0  0  0  0
  -26.9478  -14.6655   -7.6745 C   0  0  2  0  0  0  0  0  0  0  0  0
  -26.4596  -14.6040   -6.2163 C   0  0  2  0  0  0  0  0  0  0  0  0
  -27.5773  -15.0863   -5.2210 C   0  0  1  0  0  0  0  0  0  0  0  0
  -27.1076  -14.9735   -3.7420 C   0  0  0  0  0  0  0  0  0  0  0  0
  -32.8122  -16.8262   -4.5391 C   0  0  1  0  0  0  0  0  0  0  0  0
  -33.2091  -16.4050   -6.0421 C   0  0  0  0  0  0  0  0  0  0  0  0
  -32.0307  -15.5412   -6.6885 C   0  0  2  0  0  0  0  0  0  0  0  0
  -26.0751  -13.2303   -5.8725 F   0  0  0  0  0  0  0  0  0  0  0  0
  -28.6794  -13.8053   -9.3090 N   0  0  0  0  0  0  0  0  0  0  0  0
  -28.0947  -15.2873   -2.7799 N   0  0  0  0  0  0  0  0  0  0  0  0
  -33.9557  -17.6304   -3.9875 N   0  0  0  0  0  0  0  0  0  0  0  0
  -32.4003  -15.1598   -8.0670 N   0  0  0  0  0  0  0  0  0  0  0  0
  -29.7074  -15.5824   -7.2981 O   0  0  0  0  0  0  0  0  0  0  0  0
  -29.0569  -17.6326   -5.3454 O   0  0  0  0  0  0  0  0  0  0  0  0
  -31.0697  -18.0905   -3.3516 O   0  0  0  0  0  0  0  0  0  0  0  0
  -26.1052  -14.2776   -8.3549 O   0  0  0  0  0  0  0  0  0  0  0  0
  -28.8248  -14.2313   -5.5085 O   0  0  0  0  0  0  0  0  0  0  0  0
  1  5  1  0  0  0  0
  1 18  1  6  0  0  0
  2 18  1  1  0  0  0
  2  3  1  0  0  0  0
  2 12  1  0  0  0  0
  3 19  1  6  0  0  0
  3  4  1  0  0  0  0
  4 20  1  1  0  0  0
  4 10  1  0  0  0  0
  5  6  1  0  0  0  0
  5 14  1  6  0  0  0
  6 21  1  6  0  0  0
  7 13  1  1  0  0  0
  7  6  1  0  0  0  0
  8  9  1  1  0  0  0
  8  7  1  0  0  0  0
 10 16  1  6  0  0  0
 11 10  1  0  0  0  0
 12 17  1  6  0  0  0
 12 11  1  0  0  0  0
 15  9  1  0  0  0  0
 22  8  1  0  0  0  0
 22  1  1  0  0  0  0
M  END
>  <CHROM.1>
-178.88773093,-69.14931380,175.16443646,-29.47510093,-15.52126391,-5.96539914
0.48715593,-0.34560814,-1.15409585

>  <Name>
lig.pdb

>  <RI>
0

>  <Rbt.Current_Directory>
/home/itssahil/PROJECTS/Mol_Feturizer/New_Systems/rnas/5bws

>  <Rbt.Executable>
rbdock ($Id: //depot/dev/client3/rdock/2013.1/src/exe/rbdock.cxx#4 $)

>  <Rbt.Library>
libRbt.so (2013.1, Build901 2013/11/27)

>  <Rbt.Parameter_File>
/export/apps/rDock/src/rDock_2013.1_src/data/scripts/dock_solv.prm

>  <Rbt.Receptor>
prm/blind_docking_80.prm

>  <SCORE>
-2.44594

>  <SCORE.INTER>
-0.0384432

>  <SCORE.INTER.CONST>
1

>  <SCORE.INTER.POLAR>
0

>  <SCORE.INTER.ROT>
3

>  <SCORE.INTER.SOLV>
14.8429

>  <SCORE.INTER.VDW>
-10.5733

>  <SCORE.INTER.norm>
-0.00174742

>  <SCORE.INTRA>
-2.4075

>  <SCORE.INTRA.DIHEDRAL>
-5.60934

>  <SCORE.INTRA.DIHEDRAL.0>
6.10773

>  <SCORE.INTRA.POLAR>
0

>  <SCORE.INTRA.POLAR.0>
0

>  <SCORE.INTRA.REPUL>
0

>  <SCORE.INTRA.REPUL.0>
0

>  <SCORE.INTRA.SOLV>
0.969448

>  <SCORE.INTRA.SOLV.lig_0>
-71.4024

>  <SCORE.INTRA.VDW>
-0.0875574

>  <SCORE.INTRA.VDW.0>
-1.86213

>  <SCORE.INTRA.norm>
-0.109432

>  <SCORE.RESTR>
0

>  <SCORE.RESTR.CAVITY>
0

>  <SCORE.RESTR.norm>
0

>  <SCORE.SYSTEM>
0

>  <SCORE.SYSTEM.CONST>
0

>  <SCORE.SYSTEM.DIHEDRAL>
0

>  <SCORE.SYSTEM.SOLV>
0

>  <SCORE.SYSTEM.norm>
0

>  <SCORE.heavy>
22

>  <SCORE.norm>
-0.111179

>  <RMSD>
29.526

$$$$
lig.pdb
 OpenBabel11021811523D
libRbt.so/2013.1/901 2013/11/27
 22 23  0  0  0  0  0  0  0  0999 V2000
  -29.2159  -14.1722   -9.0310 C   0  0  1  0  0  0  0  0  0  0  0  0
  -30.3548  -15.4797   -7.1912 C   0  0  1  0  0  0  0  0  0  0  0  0
  -31.7880  -15.5664   -7.8805 C   0  0  1  0  0  0  0  0  0  0  0  0
  -32.8683  -15.8227   -6.7348 C   0  0  2  0  0  0  0  0  0  0  0  0
  -27.9889  -14.3705  -10.0031 C   0  0  1  0  0  0  0  0  0  0  0  0
  -26.7098  -14.4457   -9.1461 C   0  0  2  0  0  0  0  0  0  0  0  0
  -26.4992  -13.1401   -8.3590 C   0  0  2  0  0  0  0  0  0  0  0  0
  -27.7046  -12.8593   -7.3892 C   0  0  1  0  0  0  0  0  0  0  0  0
  -27.5224  -11.5123   -6.6322 C   0  0  0  0  0  0  0  0  0  0  0  0
  -32.5577  -17.2360   -6.0217 C   0  0  1  0  0  0  0  0  0  0  0  0
  -31.1042  -17.1112   -5.3397 C   0  0  0  0  0  0  0  0  0  0  0  0
  -30.0059  -16.8161   -6.4620 C   0  0  2  0  0  0  0  0  0  0  0  0
  -26.3598  -12.0113   -9.2861 F   0  0  0  0  0  0  0  0  0  0  0  0
  -28.2200  -15.6464  -10.7855 N   0  0  0  0  0  0  0  0  0  0  0  0
  -28.5746  -11.1809   -5.7481 N   0  0  0  0  0  0  0  0  0  0  0  0
  -33.5418  -17.5145   -4.9204 N   0  0  0  0  0  0  0  0  0  0  0  0
  -28.6758  -16.7012   -5.8296 N   0  0  0  0  0  0  0  0  0  0  0  0
  -29.3527  -15.2611   -8.1726 O   0  0  0  0  0  0  0  0  0  0  0  0
  -32.0574  -14.2657   -8.5377 O   0  0  0  0  0  0  0  0  0  0  0  0
  -34.1146  -15.8853   -7.3623 O   0  0  0  0  0  0  0  0  0  0  0  0
  -25.8164  -14.5880   -9.8569 O   0  0  0  0  0  0  0  0  0  0  0  0
  -28.9802  -12.8814   -8.2510 O   0  0  0  0  0  0  0  0  0  0  0  0
  1  5  1  0  0  0  0
  1 18  1  1  0  0  0
  2 18  1  6  0  0  0
  2  3  1  0  0  0  0
  2 12  1  0  0  0  0
  3 19  1  1  0  0  0
  3  4  1  0  0  0  0
  4 20  1  6  0  0  0
  4 10  1  0  0  0  0
  5  6  1  0  0  0  0
  5 14  1  1  0  0  0
  6 21  1  6  0  0  0
  7 13  1  6  0  0  0
  7  6  1  0  0  0  0
  8  9  1  6  0  0  0
  8  7  1  0  0  0  0
 10 16  1  1  0  0  0
 11 10  1  0  0  0  0
 12 17  1  1  0  0  0
 12 11  1  0  0  0  0
 15  9  1  0  0  0  0
 22  8  1  0  0  0  0
 22  1  1  0  0  0  0
M  END
>  <CHROM.1>
-177.63792851,61.96019765,179.38535728,-29.51100214,-14.69176070,-7.72408610
-0.15287878,-0.63302226,-2.44011374

>  <Name>
lig.pdb

>  <RI>
0

>  <Rbt.Current_Directory>
/home/itssahil/PROJECTS/Mol_Feturizer/New_Systems/rnas/5bws

>  <Rbt.Executable>
rbdock ($Id: //depot/dev/client3/rdock/2013.1/src/exe/rbdock.cxx#4 $)

>  <Rbt.Library>
libRbt.so (2013.1, Build901 2013/11/27)

>  <Rbt.Parameter_File>
/export/apps/rDock/src/rDock_2013.1_src/data/scripts/dock_solv.prm

>  <Rbt.Receptor>
prm/blind_docking_80.prm

>  <SCORE>
-7.54601

>  <SCORE.INTER>
-4.12119

>  <SCORE.INTER.CONST>
1

>  <SCORE.INTER.POLAR>
0

>  <SCORE.INTER.ROT>
3

>  <SCORE.INTER.SOLV>
21.7676

>  <SCORE.INTER.VDW>
-15.6033

>  <SCORE.INTER.norm>
-0.187327

>  <SCORE.INTRA>
-3.42483

>  <SCORE.INTRA.DIHEDRAL>
-6.0572

>  <SCORE.INTRA.DIHEDRAL.0>
6.10773

>  <SCORE.INTRA.POLAR>
0

>  <SCORE.INTRA.POLAR.0>
0

>  <SCORE.INTRA.REPUL>
0

>  <SCORE.INTRA.REPUL.0>
0

>  <SCORE.INTRA.SOLV>
-1.61152

>  <SCORE.INTRA.SOLV.lig_0>
-71.4024

>  <SCORE.INTRA.VDW>
0.409535

>  <SCORE.INTRA.VDW.0>
-1.86213

>  <SCORE.INTRA.norm>
-0.155674

>  <SCORE.RESTR>
0

>  <SCORE.RESTR.CAVITY>
0

>  <SCORE.RESTR.norm>
0

>  <SCORE.SYSTEM>
0

>  <SCORE.SYSTEM.CONST>
0

>  <SCORE.SYSTEM.DIHEDRAL>
0

>  <SCORE.SYSTEM.SOLV>
0

>  <SCORE.SYSTEM.norm>
0

>  <SCORE.heavy>
22

>  <SCORE.norm>
-0.343001

>  <RMSD>
29.536

$$$$
lig.pdb
 OpenBabel11021811523D
libRbt.so/2013.1/901 2013/11/27
 22 23  0  0  0  0  0  0  0  0999 V2000
  -29.2740  -14.2427   -9.0557 C   0  0  1  0  0  0  0  0  0  0  0  0
  -30.3720  -15.5543   -7.1942 C   0  0  1  0  0  0  0  0  0  0  0  0
  -31.8225  -15.6859   -7.8389 C   0  0  1  0  0  0  0  0  0  0  0  0
  -32.8641  -15.9330   -6.6560 C   0  0  2  0  0  0  0  0  0  0  0  0
  -28.0343  -14.4128  -10.0171 C   0  0  1  0  0  0  0  0  0  0  0  0
  -26.7629  -14.4776   -9.1478 C   0  0  2  0  0  0  0  0  0  0  0  0
  -26.5800  -13.1770   -8.3456 C   0  0  2  0  0  0  0  0  0  0  0  0
  -27.7992  -12.9241   -7.3855 C   0  0  1  0  0  0  0  0  0  0  0  0
  -27.6449  -11.5823   -6.6131 C   0  0  0  0  0  0  0  0  0  0  0  0
  -32.5054  -17.3213   -5.9169 C   0  0  1  0  0  0  0  0  0  0  0  0
  -31.0356  -17.1515   -5.2810 C   0  0  0  0  0  0  0  0  0  0  0  0
  -29.9761  -16.8646   -6.4421 C   0  0  2  0  0  0  0  0  0  0  0  0
  -26.4481  -12.0369   -9.2599 F   0  0  0  0  0  0  0  0  0  0  0  0
  -28.2383  -15.6839  -10.8145 N   0  0  0  0  0  0  0  0  0  0  0  0
  -27.7322  -10.4218   -7.4156 N   0  0  0  0  0  0  0  0  0  0  0  0
  -33.4517  -17.5900   -4.7807 N   0  0  0  0  0  0  0  0  0  0  0  0
  -28.6308  -16.7083   -5.8520 N   0  0  0  0  0  0  0  0  0  0  0  0
  -29.4031  -15.3421   -8.2097 O   0  0  0  0  0  0  0  0  0  0  0  0
  -32.1362  -14.4079   -8.5205 O   0  0  0  0  0  0  0  0  0  0  0  0
  -34.1265  -16.0353   -7.2450 O   0  0  0  0  0  0  0  0  0  0  0  0
  -25.8604  -14.5993   -9.8507 O   0  0  0  0  0  0  0  0  0  0  0  0
  -29.0655  -12.9565   -8.2604 O   0  0  0  0  0  0  0  0  0  0  0  0
  1  5  1  0  0  0  0
  1 18  1  1  0  0  0
  2 18  1  6  0  0  0
  2  3  1  0  0  0  0
  2 12  1  0  0  0  0
  3 19  1  1  0  0  0
  3  4  1  0  0  0  0
  4 20  1  6  0  0  0
  4 10  1  0  0  0  0
  5  6  1  0  0  0  0
  5 14  1  1  0  0  0
  6 21  1  6  0  0  0
  7 13  1  6  0  0  0
  7  6  1  0  0  0  0
  8  9  1  6  0  0  0
  8  7  1  0  0  0  0
 10 16  1  1  0  0  0
 11 10  1  0  0  0  0
 12 17  1  1  0  0  0
 12 11  1  0  0  0  0
 15  9  1  0  0  0  0
 22  8  1  0  0  0  0
 22  1  1  0  0  0  0
M  END
>  <CHROM.1>
178.84042685,65.37769391,67.74798844,-29.50205613,-14.72160610,-7.77571249
-0.37230776,-0.59386608,-2.77509931

>  <Name>
lig.pdb

>  <RI>
0

>  <Rbt.Current_Directory>
/home/itssahil/PROJECTS/Mol_Feturizer/New_Systems/rnas/5bws

>  <Rbt.Executable>
rbdock ($Id: //depot/dev/client3/rdock/2013.1/src/exe/rbdock.cxx#4 $)

>  <Rbt.Library>
libRbt.so (2013.1, Build901 2013/11/27)

>  <Rbt.Parameter_File>
/export/apps/rDock/src/rDock_2013.1_src/data/scripts/dock_solv.prm

>  <Rbt.Receptor>
prm/blind_docking_40.prm

>  <SCORE>
-6.4596

>  <SCORE.INTER>
-3.8925

>  <SCORE.INTER.CONST>
1

>  <SCORE.INTER.POLAR>
0

>  <SCORE.INTER.ROT>
3

>  <SCORE.INTER.SOLV>
22.5741

>  <SCORE.INTER.VDW>
-15.7197

>  <SCORE.INTER.norm>
-0.176932

>  <SCORE.INTRA>
-2.5671

>  <SCORE.INTRA.DIHEDRAL>
-5.74313

>  <SCORE.INTRA.DIHEDRAL.0>
6.10773

>  <SCORE.INTRA.POLAR>
0

>  <SCORE.INTRA.POLAR.0>
0

>  <SCORE.INTRA.REPUL>
0

>  <SCORE.INTRA.REPUL.0>
0

>  <SCORE.INTRA.SOLV>
0.123475

>  <SCORE.INTRA.SOLV.lig_0>
-71.4024

>  <SCORE.INTRA.VDW>
0.242724

>  <SCORE.INTRA.VDW.0>
-1.86213

>  <SCORE.INTRA.norm>
-0.116687

>  <SCORE.RESTR>
0

>  <SCORE.RESTR.CAVITY>
0

>  <SCORE.RESTR.norm>
0

>  <SCORE.SYSTEM>
0

>  <SCORE.SYSTEM.CONST>
0

>  <SCORE.SYSTEM.DIHEDRAL>
0

>  <SCORE.SYSTEM.SOLV>
0

>  <SCORE.SYSTEM.norm>
0

>  <SCORE.heavy>
22

>  <SCORE.norm>
-0.293618

>  <RMSD>
29.551

$$$$
lig.pdb
 OpenBabel11021811523D
libRbt.so/2013.1/901 2013/11/27
 22 23  0  0  0  0  0  0  0  0999 V2000
  -29.2225  -14.2800   -9.0721 C   0  0  1  0  0  0  0  0  0  0  0  0
  -30.3229  -15.5578   -7.1885 C   0  0  1  0  0  0  0  0  0  0  0  0
  -31.7780  -15.6613   -7.8280 C   0  0  1  0  0  0  0  0  0  0  0  0
  -32.8199  -15.8878   -6.6414 C   0  0  2  0  0  0  0  0  0  0  0  0
  -27.9756  -14.4627  -10.0218 C   0  0  1  0  0  0  0  0  0  0  0  0
  -26.7101  -14.5074   -9.1427 C   0  0  2  0  0  0  0  0  0  0  0  0
  -26.5373  -13.1921   -8.3626 C   0  0  2  0  0  0  0  0  0  0  0  0
  -27.7640  -12.9266   -7.4155 C   0  0  1  0  0  0  0  0  0  0  0  0
  -27.6197  -11.5707   -6.6662 C   0  0  0  0  0  0  0  0  0  0  0  0
  -32.4857  -17.2827   -5.9032 C   0  0  1  0  0  0  0  0  0  0  0  0
  -31.0106  -17.1414   -5.2726 C   0  0  0  0  0  0  0  0  0  0  0  0
  -29.9499  -16.8754   -6.4374 C   0  0  2  0  0  0  0  0  0  0  0  0
  -26.4031  -12.0680   -9.2962 F   0  0  0  0  0  0  0  0  0  0  0  0
  -28.1697  -15.7486  -10.7978 N   0  0  0  0  0  0  0  0  0  0  0  0
  -28.6511  -11.2909   -5.7407 N   0  0  0  0  0  0  0  0  0  0  0  0
  -33.4330  -17.5327   -4.7636 N   0  0  0  0  0  0  0  0  0  0  0  0
  -28.5998  -16.7451   -5.8522 N   0  0  0  0  0  0  0  0  0  0  0  0
  -29.3536  -15.3646   -8.2075 O   0  0  0  0  0  0  0  0  0  0  0  0
  -32.0692  -14.3775   -8.5089 O   0  0  0  0  0  0  0  0  0  0  0  0
  -34.0862  -15.9657   -7.2259 O   0  0  0  0  0  0  0  0  0  0  0  0
  -25.8023  -14.6383   -9.8372 O   0  0  0  0  0  0  0  0  0  0  0  0
  -29.0241  -12.9791   -8.2984 O   0  0  0  0  0  0  0  0  0  0  0  0
  1  5  1  0  0  0  0
  1 18  1  1  0  0  0
  2 18  1  6  0  0  0
  2  3  1  0  0  0  0
  2 12  1  0  0  0  0
  3 19  1  1  0  0  0
  3  4  1  0  0  0  0
  4 20  1  6  0  0  0
  4 10  1  0  0  0  0
  5  6  1  0  0  0  0
  5 14  1  1  0  0  0
  6 21  1  6  0  0  0
  7 13  1  6  0  0  0
  7  6  1  0  0  0  0
  8  9  1  6  0  0  0
  8  7  1  0  0  0  0
 10 16  1  1  0  0  0
 11 10  1  0  0  0  0
 12 17  1  1  0  0  0
 12 11  1  0  0  0  0
 15  9  1  0  0  0  0
 22  8  1  0  0  0  0
 22  1  1  0  0  0  0
M  END
>  <CHROM.1>
178.33444043,63.97182499,-176.85741481,-29.50213371,-14.76423199,-7.70365636
-0.15435890,-0.64472847,-2.47345679

>  <Name>
lig.pdb

>  <RI>
0

>  <Rbt.Current_Directory>
/home/itssahil/PROJECTS/Mol_Feturizer/New_Systems/rnas/5bws

>  <Rbt.Executable>
rbdock ($Id: //depot/dev/client3/rdock/2013.1/src/exe/rbdock.cxx#4 $)

>  <Rbt.Library>
libRbt.so (2013.1, Build901 2013/11/27)

>  <Rbt.Parameter_File>
/export/apps/rDock/src/rDock_2013.1_src/data/scripts/dock_solv.prm

>  <Rbt.Receptor>
prm/blind_docking_60.prm

>  <SCORE>
-7.6498

>  <SCORE.INTER>
-4.20131

>  <SCORE.INTER.CONST>
1

>  <SCORE.INTER.POLAR>
0

>  <SCORE.INTER.ROT>
3

>  <SCORE.INTER.SOLV>
21.5585

>  <SCORE.INTER.VDW>
-15.5871

>  <SCORE.INTER.norm>
-0.190969

>  <SCORE.INTRA>
-3.44849

>  <SCORE.INTRA.DIHEDRAL>
-5.97847

>  <SCORE.INTRA.DIHEDRAL.0>
6.10773

>  <SCORE.INTRA.POLAR>
0

>  <SCORE.INTRA.POLAR.0>
0

>  <SCORE.INTRA.REPUL>
0

>  <SCORE.INTRA.REPUL.0>
0

>  <SCORE.INTRA.SOLV>
-1.59145

>  <SCORE.INTRA.SOLV.lig_0>
-71.4024

>  <SCORE.INTRA.VDW>
0.336471

>  <SCORE.INTRA.VDW.0>
-1.86213

>  <SCORE.INTRA.norm>
-0.15675

>  <SCORE.RESTR>
0

>  <SCORE.RESTR.CAVITY>
0

>  <SCORE.RESTR.norm>
0

>  <SCORE.SYSTEM>
0

>  <SCORE.SYSTEM.CONST>
0

>  <SCORE.SYSTEM.DIHEDRAL>
0

>  <SCORE.SYSTEM.SOLV>
0

>  <SCORE.SYSTEM.norm>
0

>  <SCORE.heavy>
22

>  <SCORE.norm>
-0.347718

>  <RMSD>
29.551

$$$$
lig.pdb
 OpenBabel11021811523D
libRbt.so/2013.1/901 2013/11/27
 22 23  0  0  0  0  0  0  0  0999 V2000
  -29.2505  -14.2186   -9.0744 C   0  0  1  0  0  0  0  0  0  0  0  0
  -30.3609  -15.5186   -7.2121 C   0  0  1  0  0  0  0  0  0  0  0  0
  -31.8080  -15.6246   -7.8690 C   0  0  1  0  0  0  0  0  0  0  0  0
  -32.8619  -15.8689   -6.6964 C   0  0  2  0  0  0  0  0  0  0  0  0
  -28.0170  -14.4043  -10.0409 C   0  0  1  0  0  0  0  0  0  0  0  0
  -26.7414  -14.4688   -9.1777 C   0  0  2  0  0  0  0  0  0  0  0  0
  -26.5468  -13.1624   -8.3879 C   0  0  2  0  0  0  0  0  0  0  0  0
  -27.7594  -12.8940   -7.4237 C   0  0  1  0  0  0  0  0  0  0  0  0
  -27.5933  -11.5464   -6.6640 C   0  0  0  0  0  0  0  0  0  0  0  0
  -32.5275  -17.2688   -5.9680 C   0  0  1  0  0  0  0  0  0  0  0  0
  -31.0605  -17.1248   -5.3194 C   0  0  0  0  0  0  0  0  0  0  0  0
  -29.9883  -16.8412   -6.4695 C   0  0  2  0  0  0  0  0  0  0  0  0
  -26.4132  -12.0311   -9.3129 F   0  0  0  0  0  0  0  0  0  0  0  0
  -28.2325  -15.6812  -10.8260 N   0  0  0  0  0  0  0  0  0  0  0  0
  -28.6014  -11.2737   -5.7111 N   0  0  0  0  0  0  0  0  0  0  0  0
  -33.4860  -17.5355   -4.8415 N   0  0  0  0  0  0  0  0  0  0  0  0
  -28.6457  -16.7085   -5.8678 N   0  0  0  0  0  0  0  0  0  0  0  0
  -29.3814  -15.3098   -8.2181 O   0  0  0  0  0  0  0  0  0  0  0  0
  -32.0994  -14.3361   -8.5407 O   0  0  0  0  0  0  0  0  0  0  0  0
  -34.1210  -15.9487   -7.2959 O   0  0  0  0  0  0  0  0  0  0  0  0
  -25.8434  -14.6019   -9.8842 O   0  0  0  0  0  0  0  0  0  0  0  0
  -29.0305  -12.9267   -8.2916 O   0  0  0  0  0  0  0  0  0  0  0  0
  1  5  1  0  0  0  0
  1 18  1  1  0  0  0
  2 18  1  6  0  0  0
  2  3  1  0  0  0  0
  2 12  1  0  0  0  0
  3 19  1  1  0  0  0
  3  4  1  0  0  0  0
  4 20  1  6  0  0  0
  4 10  1  0  0  0  0
  5  6  1  0  0  0  0
  5 14  1  1  0  0  0
  6 21  1  6  0  0  0
  7 13  1  6  0  0  0
  7  6  1  0  0  0  0
  8  9  1  6  0  0  0
  8  7  1  0  0  0  0
 10 16  1  1  0  0  0
 11 10  1  0  0  0  0
 12 17  1  1  0  0  0
 12 11  1  0  0  0  0
 15  9  1  0  0  0  0
 22  8  1  0  0  0  0
 22  1  1  0  0  0  0
M  END
>  <CHROM.1>
-179.89733838,63.68074956,-176.07035401,-29.52827844,-14.72942823,-7.73131427
-0.12485585,-0.64738906,-2.40920115

>  <Name>
lig.pdb

>  <RI>
0

>  <Rbt.Current_Directory>
/home/itssahil/PROJECTS/Mol_Feturizer/New_Systems/rnas/5bws

>  <Rbt.Executable>
rbdock ($Id: //depot/dev/client3/rdock/2013.1/src/exe/rbdock.cxx#4 $)

>  <Rbt.Library>
libRbt.so (2013.1, Build901 2013/11/27)

>  <Rbt.Parameter_File>
/export/apps/rDock/src/rDock_2013.1_src/data/scripts/dock_solv.prm

>  <Rbt.Receptor>
prm/blind_docking_40.prm

>  <SCORE>
-7.58676

>  <SCORE.INTER>
-4.13537

>  <SCORE.INTER.CONST>
1

>  <SCORE.INTER.POLAR>
0

>  <SCORE.INTER.ROT>
3

>  <SCORE.INTER.SOLV>
21.8772

>  <SCORE.INTER.VDW>
-15.6493

>  <SCORE.INTER.norm>
-0.187971

>  <SCORE.INTRA>
-3.45139

>  <SCORE.INTRA.DIHEDRAL>
-5.98305

>  <SCORE.INTRA.DIHEDRAL.0>
6.10773

>  <SCORE.INTRA.POLAR>
0

>  <SCORE.INTRA.POLAR.0>
0

>  <SCORE.INTRA.REPUL>
0

>  <SCORE.INTRA.REPUL.0>
0

>  <SCORE.INTRA.SOLV>
-1.61956

>  <SCORE.INTRA.SOLV.lig_0>
-71.4024

>  <SCORE.INTRA.VDW>
0.349918

>  <SCORE.INTRA.VDW.0>
-1.86213

>  <SCORE.INTRA.norm>
-0.156881

>  <SCORE.RESTR>
0

>  <SCORE.RESTR.CAVITY>
0

>  <SCORE.RESTR.norm>
0

>  <SCORE.SYSTEM>
0

>  <SCORE.SYSTEM.CONST>
0

>  <SCORE.SYSTEM.DIHEDRAL>
0

>  <SCORE.SYSTEM.SOLV>
0

>  <SCORE.SYSTEM.norm>
0

>  <SCORE.heavy>
22

>  <SCORE.norm>
-0.344853

>  <RMSD>
29.566

$$$$
lig.pdb
 OpenBabel11021811523D
libRbt.so/2013.1/901 2013/11/27
 22 23  0  0  0  0  0  0  0  0999 V2000
  -29.0024  -13.8308   -8.3349 C   0  0  1  0  0  0  0  0  0  0  0  0
  -30.9481  -14.9324   -7.1550 C   0  0  1  0  0  0  0  0  0  0  0  0
  -31.9588  -13.7067   -7.2694 C   0  0  1  0  0  0  0  0  0  0  0  0
  -33.0607  -13.8717   -6.1276 C   0  0  2  0  0  0  0  0  0  0  0  0
  -28.0397  -14.1653   -9.5397 C   0  0  1  0  0  0  0  0  0  0  0  0
  -27.2775  -15.4601   -9.1948 C   0  0  2  0  0  0  0  0  0  0  0  0
  -26.4232  -15.2730   -7.9285 C   0  0  2  0  0  0  0  0  0  0  0  0
  -27.3165  -14.9033   -6.6885 C   0  0  1  0  0  0  0  0  0  0  0  0
  -26.4518  -14.6589   -5.4184 C   0  0  0  0  0  0  0  0  0  0  0  0
  -33.8824  -15.2369   -6.3789 C   0  0  1  0  0  0  0  0  0  0  0  0
  -32.8303  -16.4502   -6.2578 C   0  0  0  0  0  0  0  0  0  0  0  0
  -31.6920  -16.2891   -7.3674 C   0  0  2  0  0  0  0  0  0  0  0  0
  -25.4369  -14.2074   -8.1406 F   0  0  0  0  0  0  0  0  0  0  0  0
  -28.8914  -14.3254  -10.7816 N   0  0  0  0  0  0  0  0  0  0  0  0
  -27.1868  -14.3660   -4.2468 N   0  0  0  0  0  0  0  0  0  0  0  0
  -34.9240  -15.4455   -5.3157 N   0  0  0  0  0  0  0  0  0  0  0  0
  -30.7298  -17.4038   -7.2496 N   0  0  0  0  0  0  0  0  0  0  0  0
  -29.9492  -14.8377   -8.1591 O   0  0  0  0  0  0  0  0  0  0  0  0
  -31.1905  -12.4595   -7.0443 O   0  0  0  0  0  0  0  0  0  0  0  0
  -33.9274  -12.7824   -6.2430 O   0  0  0  0  0  0  0  0  0  0  0  0
  -26.5748  -15.7007  -10.0732 O   0  0  0  0  0  0  0  0  0  0  0  0
  -28.1374  -13.6638   -7.0883 O   0  0  0  0  0  0  0  0  0  0  0  0
  1  5  1  0  0  0  0
  1 18  1  1  0  0  0
  2 18  1  6  0  0  0
  2  3  1  0  0  0  0
  2 12  1  0  0  0  0
  3 19  1  1  0  0  0
  3  4  1  0  0  0  0
  4 20  1  6  0  0  0
  4 10  1  0  0  0  0
  5  6  1  0  0  0  0
  5 14  1  6  0  0  0
  6 21  1  6  0  0  0
  7 13  1  6  0  0  0
  7  6  1  0  0  0  0
  8  9  1  1  0  0  0
  8  7  1  0  0  0  0
 10 16  1  1  0  0  0
 11 10  1  0  0  0  0
 12 17  1  1  0  0  0
 12 11  1  0  0  0  0
 15  9  1  0  0  0  0
 22  8  1  0  0  0  0
 22  1  1  0  0  0  0
M  END
>  <CHROM.1>
177.18390835,62.11852901,-177.91390475,-29.74073213,-14.68986485,-7.37994308
0.27653324,-0.04158882,-1.73957200

>  <Name>
lig.pdb

>  <RI>
0

>  <Rbt.Current_Directory>
/home/itssahil/PROJECTS/Mol_Feturizer/New_Systems/rnas/5bws

>  <Rbt.Executable>
rbdock ($Id: //depot/dev/client3/rdock/2013.1/src/exe/rbdock.cxx#4 $)

>  <Rbt.Library>
libRbt.so (2013.1, Build901 2013/11/27)

>  <Rbt.Parameter_File>
/export/apps/rDock/src/rDock_2013.1_src/data/scripts/dock_solv.prm

>  <Rbt.Receptor>
prm/blind_docking_100.prm

>  <SCORE>
-5.34188

>  <SCORE.INTER>
-1.88806

>  <SCORE.INTER.CONST>
1

>  <SCORE.INTER.POLAR>
0

>  <SCORE.INTER.ROT>
3

>  <SCORE.INTER.SOLV>
26.0367

>  <SCORE.INTER.VDW>
-15.5376

>  <SCORE.INTER.norm>
-0.0858208

>  <SCORE.INTRA>
-3.45382

>  <SCORE.INTRA.DIHEDRAL>
-6.02834

>  <SCORE.INTRA.DIHEDRAL.0>
6.10773

>  <SCORE.INTRA.POLAR>
0

>  <SCORE.INTRA.POLAR.0>
0

>  <SCORE.INTRA.REPUL>
0

>  <SCORE.INTRA.REPUL.0>
0

>  <SCORE.INTRA.SOLV>
-1.61552

>  <SCORE.INTRA.SOLV.lig_0>
-71.4024

>  <SCORE.INTRA.VDW>
0.368104

>  <SCORE.INTRA.VDW.0>
-1.86213

>  <SCORE.INTRA.norm>
-0.156992

>  <SCORE.RESTR>
0

>  <SCORE.RESTR.CAVITY>
0

>  <SCORE.RESTR.norm>
0

>  <SCORE.SYSTEM>
0

>  <SCORE.SYSTEM.CONST>
0

>  <SCORE.SYSTEM.DIHEDRAL>
0

>  <SCORE.SYSTEM.SOLV>
0

>  <SCORE.SYSTEM.norm>
0

>  <SCORE.heavy>
22

>  <SCORE.norm>
-0.242813

>  <RMSD>
29.573

$$$$
lig.pdb
 OpenBabel11021811523D
libRbt.so/2013.1/901 2013/11/27
 22 23  0  0  0  0  0  0  0  0999 V2000
  -29.0639  -13.8329   -8.1808 C   0  0  1  0  0  0  0  0  0  0  0  0
  -31.0589  -14.8842   -7.0380 C   0  0  1  0  0  0  0  0  0  0  0  0
  -32.1054  -13.7026   -7.2519 C   0  0  1  0  0  0  0  0  0  0  0  0
  -33.2310  -13.8356   -6.1290 C   0  0  2  0  0  0  0  0  0  0  0  0
  -28.1670  -14.1260   -9.4456 C   0  0  1  0  0  0  0  0  0  0  0  0
  -27.4373  -15.4636   -9.2122 C   0  0  2  0  0  0  0  0  0  0  0  0
  -26.5226  -15.3814   -7.9772 C   0  0  2  0  0  0  0  0  0  0  0  0
  -27.3476  -15.0577   -6.6784 C   0  0  1  0  0  0  0  0  0  0  0  0
  -26.4203  -14.9188   -5.4367 C   0  0  0  0  0  0  0  0  0  0  0  0
  -34.0012  -15.2406   -6.3161 C   0  0  1  0  0  0  0  0  0  0  0  0
  -32.9139  -16.4079   -6.0953 C   0  0  0  0  0  0  0  0  0  0  0  0
  -31.7527  -16.2758   -7.1847 C   0  0  2  0  0  0  0  0  0  0  0  0
  -25.5090  -14.3382   -8.1711 F   0  0  0  0  0  0  0  0  0  0  0  0
  -29.0769  -14.1828  -10.6548 N   0  0  0  0  0  0  0  0  0  0  0  0
  -25.5029  -13.8450   -5.4978 N   0  0  0  0  0  0  0  0  0  0  0  0
  -35.0630  -15.4196   -5.2677 N   0  0  0  0  0  0  0  0  0  0  0  0
  -30.7583  -17.3480   -6.9755 N   0  0  0  0  0  0  0  0  0  0  0  0
  -30.0376  -14.8166   -8.0215 O   0  0  0  0  0  0  0  0  0  0  0  0
  -31.3841  -12.4188   -7.0851 O   0  0  0  0  0  0  0  0  0  0  0  0
  -34.1292  -12.7853   -6.3320 O   0  0  0  0  0  0  0  0  0  0  0  0
  -26.7824  -15.6741  -10.1343 O   0  0  0  0  0  0  0  0  0  0  0  0
  -28.1402  -13.7699   -6.9672 O   0  0  0  0  0  0  0  0  0  0  0  0
  1  5  1  0  0  0  0
  1 18  1  1  0  0  0
  2 18  1  6  0  0  0
  2  3  1  0  0  0  0
  2 12  1  0  0  0  0
  3 19  1  1  0  0  0
  3  4  1  0  0  0  0
  4 20  1  6  0  0  0
  4 10  1  0  0  0  0
  5  6  1  0  0  0  0
  5 14  1  6  0  0  0
  6 21  1  6  0  0  0
  7 13  1  6  0  0  0
  7  6  1  0  0  0  0
  8  9  1  1  0  0  0
  8  7  1  0  0  0  0
 10 16  1  1  0  0  0
 11 10  1  0  0  0  0
 12 17  1  1  0  0  0
 12 11  1  0  0  0  0
 15  9  1  0  0  0  0
 22  8  1  0  0  0  0
 22  1  1  0  0  0  0
M  END
>  <CHROM.1>
-177.59319691,66.75598104,63.79733773,-29.76854326,-14.68070981,-7.38400832
0.24630122,-0.01655648,-1.66299910

>  <Name>
lig.pdb

>  <RI>
0

>  <Rbt.Current_Directory>
/home/itssahil/PROJECTS/Mol_Feturizer/New_Systems/rnas/5bws

>  <Rbt.Executable>
rbdock ($Id: //depot/dev/client3/rdock/2013.1/src/exe/rbdock.cxx#4 $)

>  <Rbt.Library>
libRbt.so (2013.1, Build901 2013/11/27)

>  <Rbt.Parameter_File>
/export/apps/rDock/src/rDock_2013.1_src/data/scripts/dock_solv.prm

>  <Rbt.Receptor>
prm/blind_docking_100.prm

>  <SCORE>
-4.2141

>  <SCORE.INTER>
-1.65458

>  <SCORE.INTER.CONST>
1

>  <SCORE.INTER.POLAR>
0

>  <SCORE.INTER.ROT>
3

>  <SCORE.INTER.SOLV>
24.6637

>  <SCORE.INTER.VDW>
-14.9243

>  <SCORE.INTER.norm>
-0.0752081

>  <SCORE.INTRA>
-2.55952

>  <SCORE.INTRA.DIHEDRAL>
-5.80206

>  <SCORE.INTRA.DIHEDRAL.0>
6.10773

>  <SCORE.INTRA.POLAR>
0

>  <SCORE.INTRA.POLAR.0>
0

>  <SCORE.INTRA.REPUL>
0

>  <SCORE.INTRA.REPUL.0>
0

>  <SCORE.INTRA.SOLV>
0.175765

>  <SCORE.INTRA.SOLV.lig_0>
-71.4024

>  <SCORE.INTRA.VDW>
0.253628

>  <SCORE.INTRA.VDW.0>
-1.86213

>  <SCORE.INTRA.norm>
-0.116342

>  <SCORE.RESTR>
0

>  <SCORE.RESTR.CAVITY>
0

>  <SCORE.RESTR.norm>
0

>  <SCORE.SYSTEM>
0

>  <SCORE.SYSTEM.CONST>
0

>  <SCORE.SYSTEM.DIHEDRAL>
0

>  <SCORE.SYSTEM.SOLV>
0

>  <SCORE.SYSTEM.norm>
0

>  <SCORE.heavy>
22

>  <SCORE.norm>
-0.19155

>  <RMSD>
29.583

$$$$
lig.pdb
 OpenBabel11021811523D
libRbt.so/2013.1/901 2013/11/27
 22 23  0  0  0  0  0  0  0  0999 V2000
  -28.9829  -13.8333   -8.3121 C   0  0  1  0  0  0  0  0  0  0  0  0
  -30.9554  -14.9151   -7.1588 C   0  0  1  0  0  0  0  0  0  0  0  0
  -31.9809  -13.7017   -7.2735 C   0  0  1  0  0  0  0  0  0  0  0  0
  -33.0751  -13.8745   -6.1254 C   0  0  2  0  0  0  0  0  0  0  0  0
  -28.0261  -14.1649   -9.5224 C   0  0  1  0  0  0  0  0  0  0  0  0
  -27.3079  -15.4930   -9.2115 C   0  0  2  0  0  0  0  0  0  0  0  0
  -26.4537  -15.3695   -7.9373 C   0  0  2  0  0  0  0  0  0  0  0  0
  -27.3403  -15.0061   -6.6906 C   0  0  1  0  0  0  0  0  0  0  0  0
  -26.4738  -14.8257   -5.4110 C   0  0  0  0  0  0  0  0  0  0  0  0
  -33.8821  -15.2502   -6.3666 C   0  0  1  0  0  0  0  0  0  0  0  0
  -32.8154  -16.4507   -6.2455 C   0  0  0  0  0  0  0  0  0  0  0  0
  -31.6846  -16.2814   -7.3615 C   0  0  2  0  0  0  0  0  0  0  0  0
  -25.4324  -14.3311   -8.1156 F   0  0  0  0  0  0  0  0  0  0  0  0
  -28.8769  -14.2622  -10.7715 N   0  0  0  0  0  0  0  0  0  0  0  0
  -27.1997  -14.4937   -4.2442 N   0  0  0  0  0  0  0  0  0  0  0  0
  -34.9159  -15.4662   -5.2973 N   0  0  0  0  0  0  0  0  0  0  0  0
  -30.7089  -17.3843   -7.2437 N   0  0  0  0  0  0  0  0  0  0  0  0
  -29.9627  -14.8133   -8.1684 O   0  0  0  0  0  0  0  0  0  0  0  0
  -31.2260  -12.4448   -7.0577 O   0  0  0  0  0  0  0  0  0  0  0  0
  -33.9549  -12.7958   -6.2412 O   0  0  0  0  0  0  0  0  0  0  0  0
  -26.6094  -15.7316  -10.0938 O   0  0  0  0  0  0  0  0  0  0  0  0
  -28.1186  -13.7297   -7.0582 O   0  0  0  0  0  0  0  0  0  0  0  0
  1  5  1  0  0  0  0
  1 18  1  1  0  0  0
  2 18  1  6  0  0  0
  2  3  1  0  0  0  0
  2 12  1  0  0  0  0
  3 19  1  1  0  0  0
  3  4  1  0  0  0  0
  4 20  1  6  0  0  0
  4 10  1  0  0  0  0
  5  6  1  0  0  0  0
  5 14  1  6  0  0  0
  6 21  1  6  0  0  0
  7 13  1  6  0  0  0
  7  6  1  0  0  0  0
  8  9  1  1  0  0  0
  8  7  1  0  0  0  0
 10 16  1  1  0  0  0
 11 10  1  0  0  0  0
 12 17  1  1  0  0  0
 12 11  1  0  0  0  0
 15  9  1  0  0  0  0
 22  8  1  0  0  0  0
 22  1  1  0  0  0  0
M  END
>  <CHROM.1>
176.09102750,65.86071355,179.86573423,-29.74776629,-14.72057952,-7.37543333
0.28149967,-0.00030646,-1.64228167

>  <Name>
lig.pdb

>  <RI>
0

>  <Rbt.Current_Directory>
/home/itssahil/PROJECTS/Mol_Feturizer/New_Systems/rnas/5bws

>  <Rbt.Executable>
rbdock ($Id: //depot/dev/client3/rdock/2013.1/src/exe/rbdock.cxx#4 $)

>  <Rbt.Library>
libRbt.so (2013.1, Build901 2013/11/27)

>  <Rbt.Parameter_File>
/export/apps/rDock/src/rDock_2013.1_src/data/scripts/dock_solv.prm

>  <Rbt.Receptor>
prm/blind_docking_80.prm

>  <SCORE>
-5.28336

>  <SCORE.INTER>
-1.90026

>  <SCORE.INTER.CONST>
1

>  <SCORE.INTER.POLAR>
0

>  <SCORE.INTER.ROT>
3

>  <SCORE.INTER.SOLV>
26.2128

>  <SCORE.INTER.VDW>
-15.6045

>  <SCORE.INTER.norm>
-0.0863754

>  <SCORE.INTRA>
-3.38311

>  <SCORE.INTRA.DIHEDRAL>
-5.86176

>  <SCORE.INTRA.DIHEDRAL.0>
6.10773

>  <SCORE.INTRA.POLAR>
0

>  <SCORE.INTRA.POLAR.0>
0

>  <SCORE.INTRA.REPUL>
0

>  <SCORE.INTRA.REPUL.0>
0

>  <SCORE.INTRA.SOLV>
-1.48469

>  <SCORE.INTRA.SOLV.lig_0>
-71.4024

>  <SCORE.INTRA.VDW>
0.290119

>  <SCORE.INTRA.VDW.0>
-1.86213

>  <SCORE.INTRA.norm>
-0.153778

>  <SCORE.RESTR>
0

>  <SCORE.RESTR.CAVITY>
0

>  <SCORE.RESTR.norm>
0

>  <SCORE.SYSTEM>
0

>  <SCORE.SYSTEM.CONST>
0

>  <SCORE.SYSTEM.DIHEDRAL>
0

>  <SCORE.SYSTEM.SOLV>
0

>  <SCORE.SYSTEM.norm>
0

>  <SCORE.heavy>
22

>  <SCORE.norm>
-0.240153

>  <RMSD>
29.588

$$$$
lig.pdb
 OpenBabel11021811523D
libRbt.so/2013.1/901 2013/11/27
 22 23  0  0  0  0  0  0  0  0999 V2000
  -30.4440  -13.9286   -6.6291 C   0  0  1  0  0  0  0  0  0  0  0  0
  -30.2975  -15.5919   -4.7309 C   0  0  1  0  0  0  0  0  0  0  0  0
  -30.5733  -14.6202   -3.4993 C   0  0  1  0  0  0  0  0  0  0  0  0
  -29.9296  -15.2827   -2.1985 C   0  0  2  0  0  0  0  0  0  0  0  0
  -31.5271  -13.5024   -7.6945 C   0  0  1  0  0  0  0  0  0  0  0  0
  -31.6833  -14.6577   -8.7031 C   0  0  2  0  0  0  0  0  0  0  0  0
  -30.3585  -14.9266   -9.4387 C   0  0  2  0  0  0  0  0  0  0  0  0
  -29.2191  -15.3264   -8.4317 C   0  0  1  0  0  0  0  0  0  0  0  0
  -27.8644  -15.5452   -9.1649 C   0  0  0  0  0  0  0  0  0  0  0  0
  -30.6560  -16.6936   -1.9090 C   0  0  1  0  0  0  0  0  0  0  0  0
  -30.3576  -17.6463   -3.1727 C   0  0  0  0  0  0  0  0  0  0  0  0
  -30.9593  -16.9874   -4.4981 C   0  0  2  0  0  0  0  0  0  0  0  0
  -29.9428  -13.7298  -10.1790 F   0  0  0  0  0  0  0  0  0  0  0  0
  -32.8180  -13.2206   -6.9546 N   0  0  0  0  0  0  0  0  0  0  0  0
  -26.7745  -15.8542   -8.3191 N   0  0  0  0  0  0  0  0  0  0  0  0
  -30.0704  -17.3658   -0.6990 N   0  0  0  0  0  0  0  0  0  0  0  0
  -30.6808  -17.8650   -5.6533 N   0  0  0  0  0  0  0  0  0  0  0  0
  -30.8607  -15.0508   -5.9162 O   0  0  0  0  0  0  0  0  0  0  0  0
  -29.9077  -13.3265   -3.7813 O   0  0  0  0  0  0  0  0  0  0  0  0
  -30.1763  -14.4091   -1.1369 O   0  0  0  0  0  0  0  0  0  0  0  0
  -32.4716  -14.3440   -9.4800 O   0  0  0  0  0  0  0  0  0  0  0  0
  -29.1440  -14.2042   -7.3804 O   0  0  0  0  0  0  0  0  0  0  0  0
  1  5  1  0  0  0  0
  1 18  1  6  0  0  0
  2 18  1  6  0  0  0
  2  3  1  0  0  0  0
  2 12  1  0  0  0  0
  3 19  1  6  0  0  0
  3  4  1  0  0  0  0
  4 20  1  1  0  0  0
  4 10  1  0  0  0  0
  5  6  1  0  0  0  0
  5 14  1  1  0  0  0
  6 21  1  6  0  0  0
  7 13  1  1  0  0  0
  7  6  1  0  0  0  0
  8  9  1  6  0  0  0
  8  7  1  0  0  0  0
 10 16  1  1  0  0  0
 11 10  1  0  0  0  0
 12 17  1  6  0  0  0
 12 11  1  0  0  0  0
 15  9  1  0  0  0  0
 22  8  1  0  0  0  0
 22  1  1  0  0  0  0
M  END
>  <CHROM.1>
-167.65630914,69.75840353,177.50933429,-30.29776609,-15.13424401,-5.95044669
1.55019006,0.67979395,-1.33312431

>  <Name>
lig.pdb

>  <RI>
0

>  <Rbt.Current_Directory>
/home/itssahil/PROJECTS/Mol_Feturizer/New_Systems/rnas/5bws

>  <Rbt.Executable>
rbdock ($Id: //depot/dev/client3/rdock/2013.1/src/exe/rbdock.cxx#4 $)

>  <Rbt.Library>
libRbt.so (2013.1, Build901 2013/11/27)

>  <Rbt.Parameter_File>
/export/apps/rDock/src/rDock_2013.1_src/data/scripts/dock_solv.prm

>  <Rbt.Receptor>
prm/blind_docking_60.prm

>  <SCORE>
-4.72185

>  <SCORE.INTER>
-1.87835

>  <SCORE.INTER.CONST>
1

>  <SCORE.INTER.POLAR>
0

>  <SCORE.INTER.ROT>
3

>  <SCORE.INTER.SOLV>
21.0544

>  <SCORE.INTER.VDW>
-13.8704

>  <SCORE.INTER.norm>
-0.0853796

>  <SCORE.INTRA>
-2.8435

>  <SCORE.INTRA.DIHEDRAL>
-4.8969

>  <SCORE.INTRA.DIHEDRAL.0>
6.10773

>  <SCORE.INTRA.POLAR>
0

>  <SCORE.INTRA.POLAR.0>
0

>  <SCORE.INTRA.REPUL>
0

>  <SCORE.INTRA.REPUL.0>
0

>  <SCORE.INTRA.SOLV>
-1.32293

>  <SCORE.INTRA.SOLV.lig_0>
-71.4024

>  <SCORE.INTRA.VDW>
0.266413

>  <SCORE.INTRA.VDW.0>
-1.86213

>  <SCORE.INTRA.norm>
-0.12925

>  <SCORE.RESTR>
0

>  <SCORE.RESTR.CAVITY>
0

>  <SCORE.RESTR.norm>
0

>  <SCORE.SYSTEM>
0

>  <SCORE.SYSTEM.CONST>
0

>  <SCORE.SYSTEM.DIHEDRAL>
0

>  <SCORE.SYSTEM.SOLV>
0

>  <SCORE.SYSTEM.norm>
0

>  <SCORE.heavy>
22

>  <SCORE.norm>
-0.21463

>  <RMSD>
29.592

$$$$
lig.pdb
 OpenBabel11021811523D
libRbt.so/2013.1/901 2013/11/27
 22 23  0  0  0  0  0  0  0  0999 V2000
  -19.7457    4.4199  -23.1620 C   0  0  1  0  0  0  0  0  0  0  0  0
  -18.8052    5.0249  -25.4293 C   0  0  1  0  0  0  0  0  0  0  0  0
  -17.2511    4.9069  -25.1010 C   0  0  1  0  0  0  0  0  0  0  0  0
  -16.4588    5.8136  -26.1476 C   0  0  2  0  0  0  0  0  0  0  0  0
  -20.5188    3.2031  -22.5204 C   0  0  1  0  0  0  0  0  0  0  0  0
  -21.9137    3.1282  -23.1723 C   0  0  2  0  0  0  0  0  0  0  0  0
  -22.7168    4.4121  -22.8985 C   0  0  2  0  0  0  0  0  0  0  0  0
  -21.9867    5.6759  -23.4833 C   0  0  1  0  0  0  0  0  0  0  0  0
  -22.7673    6.9826  -23.1607 C   0  0  0  0  0  0  0  0  0  0  0  0
  -16.7112    5.2462  -27.6364 C   0  0  1  0  0  0  0  0  0  0  0  0
  -18.2888    5.3794  -27.9312 C   0  0  0  0  0  0  0  0  0  0  0  0
  -19.1102    4.5099  -26.8719 C   0  0  2  0  0  0  0  0  0  0  0  0
  -22.8992    4.5924  -21.4537 F   0  0  0  0  0  0  0  0  0  0  0  0
  -19.7069    1.9511  -22.7789 N   0  0  0  0  0  0  0  0  0  0  0  0
  -24.0529    7.0655  -23.7429 N   0  0  0  0  0  0  0  0  0  0  0  0
  -15.9965    6.0804  -28.6621 N   0  0  0  0  0  0  0  0  0  0  0  0
  -20.5560    4.6378  -27.1468 N   0  0  0  0  0  0  0  0  0  0  0  0
  -19.5572    4.2259  -24.5287 O   0  0  0  0  0  0  0  0  0  0  0  0
  -17.0343    5.4238  -23.7291 O   0  0  0  0  0  0  0  0  0  0  0  0
  -15.1025    5.7007  -25.8334 O   0  0  0  0  0  0  0  0  0  0  0  0
  -22.4763    2.2420  -22.7016 O   0  0  0  0  0  0  0  0  0  0  0  0
  -20.5654    5.6790  -22.8918 O   0  0  0  0  0  0  0  0  0  0  0  0
  1  5  1  0  0  0  0
  1 18  1  6  0  0  0
  2 18  1  1  0  0  0
  2  3  1  0  0  0  0
  2 12  1  0  0  0  0
  3 19  1  1  0  0  0
  3  4  1  0  0  0  0
  4 20  1  1  0  0  0
  4 10  1  0  0  0  0
  5  6  1  0  0  0  0
  5 14  1  6  0  0  0
  6 21  1  1  0  0  0
  7 13  1  1  0  0  0
  7  6  1  0  0  0  0
  8  9  1  1  0  0  0
  8  7  1  0  0  0  0
 10 16  1  6  0  0  0
 11 10  1  0  0  0  0
 12 17  1  6  0  0  0
 12 11  1  0  0  0  0
 15  9  1  0  0  0  0
 22  8  1  0  0  0  0
 22  1  1  0  0  0  0
M  END
>  <CHROM.1>
-173.62910280,68.43879472,-63.63181514,-19.76946680,4.82883145,-24.51788807
-2.58641677,0.34596064,-0.85151124

>  <Name>
lig.pdb

>  <RI>
0

>  <Rbt.Current_Directory>
/home/itssahil/PROJECTS/Mol_Feturizer/New_Systems/rnas/5bws

>  <Rbt.Executable>
rbdock ($Id: //depot/dev/client3/rdock/2013.1/src/exe/rbdock.cxx#4 $)

>  <Rbt.Library>
libRbt.so (2013.1, Build901 2013/11/27)

>  <Rbt.Parameter_File>
/export/apps/rDock/src/rDock_2013.1_src/data/scripts/dock_solv.prm

>  <Rbt.Receptor>
prm/blind_docking_100.prm

>  <SCORE>
-2.90858

>  <SCORE.INTER>
0.0498596

>  <SCORE.INTER.CONST>
1

>  <SCORE.INTER.POLAR>
0

>  <SCORE.INTER.ROT>
3

>  <SCORE.INTER.SOLV>
9.97566

>  <SCORE.INTER.VDW>
-8.89198

>  <SCORE.INTER.norm>
0.00226635

>  <SCORE.INTRA>
-2.95844

>  <SCORE.INTRA.DIHEDRAL>
-5.51318

>  <SCORE.INTRA.DIHEDRAL.0>
6.10773

>  <SCORE.INTRA.POLAR>
0

>  <SCORE.INTRA.POLAR.0>
0

>  <SCORE.INTRA.REPUL>
0

>  <SCORE.INTRA.REPUL.0>
0

>  <SCORE.INTRA.SOLV>
-0.986315

>  <SCORE.INTRA.SOLV.lig_0>
-71.4024

>  <SCORE.INTRA.VDW>
0.291305

>  <SCORE.INTRA.VDW.0>
-1.86213

>  <SCORE.INTRA.norm>
-0.134475

>  <SCORE.RESTR>
0

>  <SCORE.RESTR.CAVITY>
0

>  <SCORE.RESTR.norm>
0

>  <SCORE.SYSTEM>
0

>  <SCORE.SYSTEM.CONST>
0

>  <SCORE.SYSTEM.DIHEDRAL>
0

>  <SCORE.SYSTEM.SOLV>
0

>  <SCORE.SYSTEM.norm>
0

>  <SCORE.heavy>
22

>  <SCORE.norm>
-0.132208

>  <RMSD>
29.687

$$$$
lig.pdb
 OpenBabel11021811523D
libRbt.so/2013.1/901 2013/11/27
 22 23  0  0  0  0  0  0  0  0999 V2000
  -29.1108  -14.5909   -7.7729 C   0  0  1  0  0  0  0  0  0  0  0  0
  -30.7057  -15.9453   -6.3541 C   0  0  1  0  0  0  0  0  0  0  0  0
  -32.1840  -15.8123   -6.9320 C   0  0  1  0  0  0  0  0  0  0  0  0
  -33.2038  -16.0328   -5.7251 C   0  0  2  0  0  0  0  0  0  0  0  0
  -28.5289  -14.7126   -9.2347 C   0  0  1  0  0  0  0  0  0  0  0  0
  -27.4758  -15.8383   -9.2357 C   0  0  2  0  0  0  0  0  0  0  0  0
  -26.3173  -15.5066   -8.2784 C   0  0  2  0  0  0  0  0  0  0  0  0
  -26.8299  -15.3374   -6.8016 C   0  0  1  0  0  0  0  0  0  0  0  0
  -25.6710  -14.9475   -5.8395 C   0  0  0  0  0  0  0  0  0  0  0  0
  -33.0161  -17.5243   -5.1400 C   0  0  1  0  0  0  0  0  0  0  0  0
  -31.5136  -17.6214   -4.5682 C   0  0  0  0  0  0  0  0  0  0  0  0
  -30.4696  -17.3663   -5.7505 C   0  0  2  0  0  0  0  0  0  0  0  0
  -25.6570  -14.2657   -8.6994 F   0  0  0  0  0  0  0  0  0  0  0  0
  -29.6822  -15.0176  -10.1677 N   0  0  0  0  0  0  0  0  0  0  0  0
  -25.1010  -13.6765   -6.0808 N   0  0  0  0  0  0  0  0  0  0  0  0
  -33.9464  -17.7745   -3.9865 N   0  0  0  0  0  0  0  0  0  0  0  0
  -29.0941  -17.4550   -5.2191 N   0  0  0  0  0  0  0  0  0  0  0  0
  -29.7563  -15.7660   -7.3940 O   0  0  0  0  0  0  0  0  0  0  0  0
  -32.3406  -14.4414   -7.4728 O   0  0  0  0  0  0  0  0  0  0  0  0
  -34.4897  -15.9023   -6.2547 O   0  0  0  0  0  0  0  0  0  0  0  0
  -27.0514  -15.9237  -10.3016 O   0  0  0  0  0  0  0  0  0  0  0  0
  -27.9449  -14.2765   -6.8391 O   0  0  0  0  0  0  0  0  0  0  0  0
  1  5  1  0  0  0  0
  1 18  1  1  0  0  0
  2 18  1  6  0  0  0
  2  3  1  0  0  0  0
  2 12  1  0  0  0  0
  3 19  1  1  0  0  0
  3  4  1  0  0  0  0
  4 20  1  6  0  0  0
  4 10  1  0  0  0  0
  5  6  1  0  0  0  0
  5 14  1  6  0  0  0
  6 21  1  6  0  0  0
  7 13  1  6  0  0  0
  7  6  1  0  0  0  0
  8  9  1  1  0  0  0
  8  7  1  0  0  0  0
 10 16  1  1  0  0  0
 11 10  1  0  0  0  0
 12 17  1  1  0  0  0
 12 11  1  0  0  0  0
 15  9  1  0  0  0  0
 22  8  1  0  0  0  0
 22  1  1  0  0  0  0
M  END
>  <CHROM.1>
-160.87789907,93.78627502,65.65708736,-29.50440556,-15.67301681,-7.04591274
0.43678299,-0.14034506,-1.23635598

>  <Name>
lig.pdb

>  <RI>
0

>  <Rbt.Current_Directory>
/home/itssahil/PROJECTS/Mol_Feturizer/New_Systems/rnas/5bws

>  <Rbt.Executable>
rbdock ($Id: //depot/dev/client3/rdock/2013.1/src/exe/rbdock.cxx#4 $)

>  <Rbt.Library>
libRbt.so (2013.1, Build901 2013/11/27)

>  <Rbt.Parameter_File>
/export/apps/rDock/src/rDock_2013.1_src/data/scripts/dock_solv.prm

>  <Rbt.Receptor>
prm/blind_docking_60.prm

>  <SCORE>
-2.72922

>  <SCORE.INTER>
-3.4712

>  <SCORE.INTER.CONST>
1

>  <SCORE.INTER.POLAR>
0

>  <SCORE.INTER.ROT>
3

>  <SCORE.INTER.SOLV>
17.2863

>  <SCORE.INTER.VDW>
-13.6762

>  <SCORE.INTER.norm>
-0.157782

>  <SCORE.INTRA>
0.741983

>  <SCORE.INTRA.DIHEDRAL>
-0.0255263

>  <SCORE.INTRA.DIHEDRAL.0>
6.10773

>  <SCORE.INTRA.POLAR>
0

>  <SCORE.INTRA.POLAR.0>
0

>  <SCORE.INTRA.REPUL>
0

>  <SCORE.INTRA.REPUL.0>
0

>  <SCORE.INTRA.SOLV>
1.77499

>  <SCORE.INTRA.SOLV.lig_0>
-71.4024

>  <SCORE.INTRA.VDW>
-0.13275

>  <SCORE.INTRA.VDW.0>
-1.86213

>  <SCORE.INTRA.norm>
0.0337265

>  <SCORE.RESTR>
0

>  <SCORE.RESTR.CAVITY>
0

>  <SCORE.RESTR.norm>
0

>  <SCORE.SYSTEM>
0

>  <SCORE.SYSTEM.CONST>
0

>  <SCORE.SYSTEM.DIHEDRAL>
0

>  <SCORE.SYSTEM.SOLV>
0

>  <SCORE.SYSTEM.norm>
0

>  <SCORE.heavy>
22

>  <SCORE.norm>
-0.124055

>  <RMSD>
29.757

$$$$
lig.pdb
 OpenBabel11021811523D
libRbt.so/2013.1/901 2013/11/27
 22 23  0  0  0  0  0  0  0  0999 V2000
  -29.0803  -14.6284   -7.8899 C   0  0  1  0  0  0  0  0  0  0  0  0
  -30.4711  -16.1398   -6.4159 C   0  0  1  0  0  0  0  0  0  0  0  0
  -31.7508  -17.0405   -6.7128 C   0  0  1  0  0  0  0  0  0  0  0  0
  -32.4052  -17.4388   -5.3134 C   0  0  2  0  0  0  0  0  0  0  0  0
  -29.0370  -14.3150   -9.4359 C   0  0  1  0  0  0  0  0  0  0  0  0
  -28.3515  -15.5008  -10.1431 C   0  0  2  0  0  0  0  0  0  0  0  0
  -26.9067  -15.6769   -9.6430 C   0  0  2  0  0  0  0  0  0  0  0  0
  -26.8700  -15.9606   -8.0969 C   0  0  1  0  0  0  0  0  0  0  0  0
  -25.4089  -16.0843   -7.5768 C   0  0  0  0  0  0  0  0  0  0  0  0
  -31.3488  -18.3152   -4.4659 C   0  0  1  0  0  0  0  0  0  0  0  0
  -30.0713  -17.3749   -4.1874 C   0  0  0  0  0  0  0  0  0  0  0  0
  -29.4175  -16.9292   -5.5755 C   0  0  2  0  0  0  0  0  0  0  0  0
  -26.1263  -14.4666   -9.9247 F   0  0  0  0  0  0  0  0  0  0  0  0
  -30.4628  -14.1232   -9.9091 N   0  0  0  0  0  0  0  0  0  0  0  0
  -24.6336  -14.9084   -7.6985 N   0  0  0  0  0  0  0  0  0  0  0  0
  -31.9153  -18.7011   -3.1284 N   0  0  0  0  0  0  0  0  0  0  0  0
  -28.2479  -16.0660   -5.3129 N   0  0  0  0  0  0  0  0  0  0  0  0
  -29.8440  -15.7650   -7.6331 O   0  0  0  0  0  0  0  0  0  0  0  0
  -32.7090  -16.2268   -7.4976 O   0  0  0  0  0  0  0  0  0  0  0  0
  -33.5279  -18.2185   -5.6005 O   0  0  0  0  0  0  0  0  0  0  0  0
  -28.3189  -15.2692  -11.2695 O   0  0  0  0  0  0  0  0  0  0  0  0
  -27.6404  -14.8135   -7.4182 O   0  0  0  0  0  0  0  0  0  0  0  0
  1  5  1  0  0  0  0
  1 18  1  6  0  0  0
  2 18  1  6  0  0  0
  2  3  1  0  0  0  0
  2 12  1  0  0  0  0
  3 19  1  6  0  0  0
  3  4  1  0  0  0  0
  4 20  1  6  0  0  0
  4 10  1  0  0  0  0
  5  6  1  0  0  0  0
  5 14  1  6  0  0  0
  6 21  1  6  0  0  0
  7 13  1  1  0  0  0
  7  6  1  0  0  0  0
  8  9  1  1  0  0  0
  8  7  1  0  0  0  0
 10 16  1  1  0  0  0
 11 10  1  0  0  0  0
 12 17  1  1  0  0  0
 12 11  1  0  0  0  0
 15  9  1  0  0  0  0
 22  8  1  0  0  0  0
 22  1  1  0  0  0  0
M  END
>  <CHROM.1>
-158.43047336,152.34778345,63.63357041,-29.27371638,-16.05915394,-7.36915529
0.77500530,-0.13592100,-1.14184085

>  <Name>
lig.pdb

>  <RI>
0

>  <Rbt.Current_Directory>
/home/itssahil/PROJECTS/Mol_Feturizer/New_Systems/rnas/5bws

>  <Rbt.Executable>
rbdock ($Id: //depot/dev/client3/rdock/2013.1/src/exe/rbdock.cxx#4 $)

>  <Rbt.Library>
libRbt.so (2013.1, Build901 2013/11/27)

>  <Rbt.Parameter_File>
/export/apps/rDock/src/rDock_2013.1_src/data/scripts/dock_solv.prm

>  <Rbt.Receptor>
prm/blind_docking_60.prm

>  <SCORE>
-5.74498

>  <SCORE.INTER>
-7.28673

>  <SCORE.INTER.CONST>
1

>  <SCORE.INTER.POLAR>
0

>  <SCORE.INTER.ROT>
3

>  <SCORE.INTER.SOLV>
18.9079

>  <SCORE.INTER.VDW>
-16.7605

>  <SCORE.INTER.norm>
-0.331215

>  <SCORE.INTRA>
1.54175

>  <SCORE.INTRA.DIHEDRAL>
-0.839212

>  <SCORE.INTRA.DIHEDRAL.0>
6.10773

>  <SCORE.INTRA.POLAR>
0

>  <SCORE.INTRA.POLAR.0>
0

>  <SCORE.INTRA.REPUL>
0

>  <SCORE.INTRA.REPUL.0>
0

>  <SCORE.INTRA.SOLV>
3.29692

>  <SCORE.INTRA.SOLV.lig_0>
-71.4024

>  <SCORE.INTRA.VDW>
0.312897

>  <SCORE.INTRA.VDW.0>
-1.86213

>  <SCORE.INTRA.norm>
0.0700795

>  <SCORE.RESTR>
0

>  <SCORE.RESTR.CAVITY>
0

>  <SCORE.RESTR.norm>
0

>  <SCORE.SYSTEM>
0

>  <SCORE.SYSTEM.CONST>
0

>  <SCORE.SYSTEM.DIHEDRAL>
0

>  <SCORE.SYSTEM.SOLV>
0

>  <SCORE.SYSTEM.norm>
0

>  <SCORE.heavy>
22

>  <SCORE.norm>
-0.261136

>  <RMSD>
29.759

$$$$
lig.pdb
 OpenBabel11021811523D
libRbt.so/2013.1/901 2013/11/27
 22 23  0  0  0  0  0  0  0  0999 V2000
  -29.0907  -14.6422   -7.8872 C   0  0  1  0  0  0  0  0  0  0  0  0
  -30.4819  -16.1546   -6.4148 C   0  0  1  0  0  0  0  0  0  0  0  0
  -31.7627  -17.0527   -6.7150 C   0  0  1  0  0  0  0  0  0  0  0  0
  -32.4215  -17.4497   -5.3173 C   0  0  2  0  0  0  0  0  0  0  0  0
  -29.0468  -14.3297   -9.4333 C   0  0  1  0  0  0  0  0  0  0  0  0
  -28.3568  -15.5138  -10.1390 C   0  0  2  0  0  0  0  0  0  0  0  0
  -26.9120  -15.6850   -9.6374 C   0  0  2  0  0  0  0  0  0  0  0  0
  -26.8760  -15.9675   -8.0910 C   0  0  1  0  0  0  0  0  0  0  0  0
  -25.4149  -16.0863   -7.5694 C   0  0  0  0  0  0  0  0  0  0  0  0
  -31.3691  -18.3284   -4.4672 C   0  0  1  0  0  0  0  0  0  0  0  0
  -30.0904  -17.3907   -4.1853 C   0  0  0  0  0  0  0  0  0  0  0  0
  -29.4322  -16.9462   -5.5717 C   0  0  2  0  0  0  0  0  0  0  0  0
  -26.1351  -14.4725   -9.9191 F   0  0  0  0  0  0  0  0  0  0  0  0
  -30.4727  -14.1427   -9.9081 N   0  0  0  0  0  0  0  0  0  0  0  0
  -24.6588  -14.8941   -7.6445 N   0  0  0  0  0  0  0  0  0  0  0  0
  -31.9398  -18.7133   -3.1312 N   0  0  0  0  0  0  0  0  0  0  0  0
  -28.2614  -16.0854   -5.3060 N   0  0  0  0  0  0  0  0  0  0  0  0
  -29.8510  -15.7810   -7.6302 O   0  0  0  0  0  0  0  0  0  0  0  0
  -32.7173  -16.2369   -7.5022 O   0  0  0  0  0  0  0  0  0  0  0  0
  -33.5451  -18.2272   -5.6074 O   0  0  0  0  0  0  0  0  0  0  0  0
  -28.3239  -15.2829  -11.2655 O   0  0  0  0  0  0  0  0  0  0  0  0
  -27.6506  -14.8223   -7.4139 O   0  0  0  0  0  0  0  0  0  0  0  0
  1  5  1  0  0  0  0
  1 18  1  6  0  0  0
  2 18  1  6  0  0  0
  2  3  1  0  0  0  0
  2 12  1  0  0  0  0
  3 19  1  6  0  0  0
  3  4  1  0  0  0  0
  4 20  1  6  0  0  0
  4 10  1  0  0  0  0
  5  6  1  0  0  0  0
  5 14  1  6  0  0  0
  6 21  1  6  0  0  0
  7 13  1  1  0  0  0
  7  6  1  0  0  0  0
  8  9  1  1  0  0  0
  8  7  1  0  0  0  0
 10 16  1  1  0  0  0
 11 10  1  0  0  0  0
 12 17  1  1  0  0  0
 12 11  1  0  0  0  0
 15  9  1  0  0  0  0
 22  8  1  0  0  0  0
 22  1  1  0  0  0  0
M  END
>  <CHROM.1>
-158.19096458,151.94965927,65.91753983,-29.28568325,-16.07006083,-7.36499765
0.77301241,-0.13959225,-1.14363959

>  <Name>
lig.pdb

>  <RI>
0

>  <Rbt.Current_Directory>
/home/itssahil/PROJECTS/Mol_Feturizer/New_Systems/rnas/5bws

>  <Rbt.Executable>
rbdock ($Id: //depot/dev/client3/rdock/2013.1/src/exe/rbdock.cxx#4 $)

>  <Rbt.Library>
libRbt.so (2013.1, Build901 2013/11/27)

>  <Rbt.Parameter_File>
/export/apps/rDock/src/rDock_2013.1_src/data/scripts/dock_solv.prm

>  <Rbt.Receptor>
prm/blind_docking_80.prm

>  <SCORE>
-5.75998

>  <SCORE.INTER>
-7.32542

>  <SCORE.INTER.CONST>
1

>  <SCORE.INTER.POLAR>
0

>  <SCORE.INTER.ROT>
3

>  <SCORE.INTER.SOLV>
18.9432

>  <SCORE.INTER.VDW>
-16.798

>  <SCORE.INTER.norm>
-0.332973

>  <SCORE.INTRA>
1.56544

>  <SCORE.INTRA.DIHEDRAL>
-0.645876

>  <SCORE.INTRA.DIHEDRAL.0>
6.10773

>  <SCORE.INTRA.POLAR>
0

>  <SCORE.INTRA.POLAR.0>
0

>  <SCORE.INTRA.REPUL>
0

>  <SCORE.INTRA.REPUL.0>
0

>  <SCORE.INTRA.SOLV>
3.27067

>  <SCORE.INTRA.SOLV.lig_0>
-71.4024

>  <SCORE.INTRA.VDW>
0.25304

>  <SCORE.INTRA.VDW.0>
-1.86213

>  <SCORE.INTRA.norm>
0.0711563

>  <SCORE.RESTR>
0

>  <SCORE.RESTR.CAVITY>
0

>  <SCORE.RESTR.norm>
0

>  <SCORE.SYSTEM>
0

>  <SCORE.SYSTEM.CONST>
0

>  <SCORE.SYSTEM.DIHEDRAL>
0

>  <SCORE.SYSTEM.SOLV>
0

>  <SCORE.SYSTEM.norm>
0

>  <SCORE.heavy>
22

>  <SCORE.norm>
-0.261817

>  <RMSD>
29.774

$$$$
lig.pdb
 OpenBabel11021811523D
libRbt.so/2013.1/901 2013/11/27
 22 23  0  0  0  0  0  0  0  0999 V2000
  -28.6151  -14.1124   -7.8509 C   0  0  1  0  0  0  0  0  0  0  0  0
  -30.9117  -15.0422   -7.3484 C   0  0  1  0  0  0  0  0  0  0  0  0
  -31.4742  -16.4395   -6.8306 C   0  0  1  0  0  0  0  0  0  0  0  0
  -33.0663  -16.3906   -6.9207 C   0  0  2  0  0  0  0  0  0  0  0  0
  -28.5851  -14.2620   -9.4215 C   0  0  1  0  0  0  0  0  0  0  0  0
  -28.0604  -15.6725   -9.7555 C   0  0  2  0  0  0  0  0  0  0  0  0
  -26.6298  -15.8661   -9.2222 C   0  0  2  0  0  0  0  0  0  0  0  0
  -26.5770  -15.6975   -7.6598 C   0  0  1  0  0  0  0  0  0  0  0  0
  -25.1236  -15.8375   -7.1224 C   0  0  0  0  0  0  0  0  0  0  0  0
  -33.6155  -15.2266   -5.9482 C   0  0  1  0  0  0  0  0  0  0  0  0
  -33.0260  -13.8332   -6.5002 C   0  0  0  0  0  0  0  0  0  0  0  0
  -31.4292  -13.8688   -6.4569 C   0  0  2  0  0  0  0  0  0  0  0  0
  -25.7269  -14.8873   -9.8385 F   0  0  0  0  0  0  0  0  0  0  0  0
  -29.9942  -14.0481   -9.9336 N   0  0  0  0  0  0  0  0  0  0  0  0
  -24.2304  -14.8315   -7.5568 N   0  0  0  0  0  0  0  0  0  0  0  0
  -35.1140  -15.1302   -6.0117 N   0  0  0  0  0  0  0  0  0  0  0  0
  -30.8952  -12.5890   -6.9660 N   0  0  0  0  0  0  0  0  0  0  0  0
  -29.4939  -15.0302   -7.2795 O   0  0  0  0  0  0  0  0  0  0  0  0
  -30.9566  -17.4999   -7.7272 O   0  0  0  0  0  0  0  0  0  0  0  0
  -33.5339  -17.6276   -6.4711 O   0  0  0  0  0  0  0  0  0  0  0  0
  -28.0372  -15.7786  -10.9007 O   0  0  0  0  0  0  0  0  0  0  0  0
  -27.1912  -14.3221   -7.3422 O   0  0  0  0  0  0  0  0  0  0  0  0
  1  5  1  0  0  0  0
  1 18  1  1  0  0  0
  2 18  1  1  0  0  0
  2  3  1  0  0  0  0
  2 12  1  0  0  0  0
  3 19  1  6  0  0  0
  3  4  1  0  0  0  0
  4 20  1  1  0  0  0
  4 10  1  0  0  0  0
  5  6  1  0  0  0  0
  5 14  1  1  0  0  0
  6 21  1  6  0  0  0
  7 13  1  6  0  0  0
  7  6  1  0  0  0  0
  8  9  1  6  0  0  0
  8  7  1  0  0  0  0
 10 16  1  6  0  0  0
 11 10  1  0  0  0  0
 12 17  1  6  0  0  0
 12 11  1  0  0  0  0
 15  9  1  0  0  0  0
 22  8  1  0  0  0  0
 22  1  1  0  0  0  0
M  END
>  <CHROM.1>
-70.10880536,167.38698282,64.70281453,-29.58520888,-15.20206225,-7.81484665
-0.06746044,0.30105197,0.39098222

>  <Name>
lig.pdb

>  <RI>
0

>  <Rbt.Current_Directory>
/home/itssahil/PROJECTS/Mol_Feturizer/New_Systems/rnas/5bws

>  <Rbt.Executable>
rbdock ($Id: //depot/dev/client3/rdock/2013.1/src/exe/rbdock.cxx#4 $)

>  <Rbt.Library>
libRbt.so (2013.1, Build901 2013/11/27)

>  <Rbt.Parameter_File>
/export/apps/rDock/src/rDock_2013.1_src/data/scripts/dock_solv.prm

>  <Rbt.Receptor>
prm/blind_docking_100.prm

>  <SCORE>
-5.52381

>  <SCORE.INTER>
-5.44176

>  <SCORE.INTER.CONST>
1

>  <SCORE.INTER.POLAR>
0

>  <SCORE.INTER.ROT>
3

>  <SCORE.INTER.SOLV>
21.6605

>  <SCORE.INTER.VDW>
-16.448

>  <SCORE.INTER.norm>
-0.247353

>  <SCORE.INTRA>
-0.082047

>  <SCORE.INTRA.DIHEDRAL>
-4.77677

>  <SCORE.INTRA.DIHEDRAL.0>
6.10773

>  <SCORE.INTRA.POLAR>
0

>  <SCORE.INTRA.POLAR.0>
0

>  <SCORE.INTRA.REPUL>
0

>  <SCORE.INTRA.REPUL.0>
0

>  <SCORE.INTRA.SOLV>
3.76419

>  <SCORE.INTRA.SOLV.lig_0>
-71.4024

>  <SCORE.INTRA.VDW>
0.424243

>  <SCORE.INTRA.VDW.0>
-1.86213

>  <SCORE.INTRA.norm>
-0.00372941

>  <SCORE.RESTR>
0

>  <SCORE.RESTR.CAVITY>
0

>  <SCORE.RESTR.norm>
0

>  <SCORE.SYSTEM>
0

>  <SCORE.SYSTEM.CONST>
0

>  <SCORE.SYSTEM.DIHEDRAL>
0

>  <SCORE.SYSTEM.SOLV>
0

>  <SCORE.SYSTEM.norm>
0

>  <SCORE.heavy>
22

>  <SCORE.norm>
-0.251082

>  <RMSD>
29.782

$$$$
lig.pdb
 OpenBabel11021811523D
libRbt.so/2013.1/901 2013/11/27
 22 23  0  0  0  0  0  0  0  0999 V2000
  -29.9388  -14.8083   -7.7380 C   0  0  1  0  0  0  0  0  0  0  0  0
  -30.6215  -16.9758   -6.6302 C   0  0  1  0  0  0  0  0  0  0  0  0
  -29.6192  -16.7598   -5.4113 C   0  0  1  0  0  0  0  0  0  0  0  0
  -30.1116  -17.6782   -4.2032 C   0  0  2  0  0  0  0  0  0  0  0  0
  -29.9534  -14.2341   -9.2078 C   0  0  1  0  0  0  0  0  0  0  0  0
  -28.8462  -14.9473  -10.0087 C   0  0  2  0  0  0  0  0  0  0  0  0
  -27.4619  -14.6736   -9.3946 C   0  0  2  0  0  0  0  0  0  0  0  0
  -27.3842  -15.1918   -7.9121 C   0  0  1  0  0  0  0  0  0  0  0  0
  -26.0051  -14.8676   -7.2689 C   0  0  0  0  0  0  0  0  0  0  0  0
  -31.5837  -17.2042   -3.7445 C   0  0  1  0  0  0  0  0  0  0  0  0
  -32.5662  -17.4347   -4.9996 C   0  0  0  0  0  0  0  0  0  0  0  0
  -32.0735  -16.5543   -6.2385 C   0  0  2  0  0  0  0  0  0  0  0  0
  -27.1801  -13.2336   -9.4122 F   0  0  0  0  0  0  0  0  0  0  0  0
  -31.3271  -14.4912   -9.7912 N   0  0  0  0  0  0  0  0  0  0  0  0
  -25.8869  -15.2244   -5.9061 N   0  0  0  0  0  0  0  0  0  0  0  0
  -32.0989  -18.0532   -2.6164 N   0  0  0  0  0  0  0  0  0  0  0  0
  -32.9776  -16.7717   -7.3863 N   0  0  0  0  0  0  0  0  0  0  0  0
  -30.2317  -16.1704   -7.7322 O   0  0  0  0  0  0  0  0  0  0  0  0
  -28.2704  -17.1915   -5.8480 O   0  0  0  0  0  0  0  0  0  0  0  0
  -29.2132  -17.4783   -3.1525 O   0  0  0  0  0  0  0  0  0  0  0  0
  -28.8572  -14.5256  -11.0790 O   0  0  0  0  0  0  0  0  0  0  0  0
  -28.5544  -14.5396   -7.1536 O   0  0  0  0  0  0  0  0  0  0  0  0
  1  5  1  0  0  0  0
  1 18  1  6  0  0  0
  2 18  1  6  0  0  0
  2  3  1  0  0  0  0
  2 12  1  0  0  0  0
  3 19  1  6  0  0  0
  3  4  1  0  0  0  0
  4 20  1  1  0  0  0
  4 10  1  0  0  0  0
  5  6  1  0  0  0  0
  5 14  1  6  0  0  0
  6 21  1  6  0  0  0
  7 13  1  1  0  0  0
  7  6  1  0  0  0  0
  8  9  1  1  0  0  0
  8  7  1  0  0  0  0
 10 16  1  1  0  0  0
 11 10  1  0  0  0  0
 12 17  1  6  0  0  0
 12 11  1  0  0  0  0
 15  9  1  0  0  0  0
 22  8  1  0  0  0  0
 22  1  1  0  0  0  0
M  END
>  <CHROM.1>
-163.82592722,-50.19056258,176.06862240,-29.51854969,-15.82468761,-6.98446419
1.07102614,-0.21447729,-1.13222064

>  <Name>
lig.pdb

>  <RI>
0

>  <Rbt.Current_Directory>
/home/itssahil/PROJECTS/Mol_Feturizer/New_Systems/rnas/5bws

>  <Rbt.Executable>
rbdock ($Id: //depot/dev/client3/rdock/2013.1/src/exe/rbdock.cxx#4 $)

>  <Rbt.Library>
libRbt.so (2013.1, Build901 2013/11/27)

>  <Rbt.Parameter_File>
/export/apps/rDock/src/rDock_2013.1_src/data/scripts/dock_solv.prm

>  <Rbt.Receptor>
prm/blind_docking_80.prm

>  <SCORE>
-6.07918

>  <SCORE.INTER>
-4.64595

>  <SCORE.INTER.CONST>
1

>  <SCORE.INTER.POLAR>
0

>  <SCORE.INTER.ROT>
3

>  <SCORE.INTER.SOLV>
21.874

>  <SCORE.INTER.VDW>
-15.9886

>  <SCORE.INTER.norm>
-0.211179

>  <SCORE.INTRA>
-1.43323

>  <SCORE.INTRA.DIHEDRAL>
-4.36929

>  <SCORE.INTRA.DIHEDRAL.0>
6.10773

>  <SCORE.INTRA.POLAR>
0

>  <SCORE.INTRA.POLAR.0>
0

>  <SCORE.INTRA.REPUL>
0

>  <SCORE.INTRA.REPUL.0>
0

>  <SCORE.INTRA.SOLV>
1.58768

>  <SCORE.INTRA.SOLV.lig_0>
-71.4024

>  <SCORE.INTRA.VDW>
-0.0424269

>  <SCORE.INTRA.VDW.0>
-1.86213

>  <SCORE.INTRA.norm>
-0.0651469

>  <SCORE.RESTR>
0

>  <SCORE.RESTR.CAVITY>
0

>  <SCORE.RESTR.norm>
0

>  <SCORE.SYSTEM>
0

>  <SCORE.SYSTEM.CONST>
0

>  <SCORE.SYSTEM.DIHEDRAL>
0

>  <SCORE.SYSTEM.SOLV>
0

>  <SCORE.SYSTEM.norm>
0

>  <SCORE.heavy>
22

>  <SCORE.norm>
-0.276326

>  <RMSD>
29.793

$$$$
lig.pdb
 OpenBabel11021811523D
libRbt.so/2013.1/901 2013/11/27
 22 23  0  0  0  0  0  0  0  0999 V2000
  -29.8398  -14.8743   -7.6429 C   0  0  1  0  0  0  0  0  0  0  0  0
  -30.6786  -17.0197   -6.6014 C   0  0  1  0  0  0  0  0  0  0  0  0
  -29.6898  -16.8562   -5.3635 C   0  0  1  0  0  0  0  0  0  0  0  0
  -30.2276  -17.7821   -4.1809 C   0  0  2  0  0  0  0  0  0  0  0  0
  -29.8156  -14.2487   -9.0914 C   0  0  1  0  0  0  0  0  0  0  0  0
  -28.7792  -15.0248   -9.9280 C   0  0  2  0  0  0  0  0  0  0  0  0
  -27.3722  -14.8924   -9.3187 C   0  0  2  0  0  0  0  0  0  0  0  0
  -27.3287  -15.4679   -7.8561 C   0  0  1  0  0  0  0  0  0  0  0  0
  -25.9224  -15.2859   -7.2159 C   0  0  0  0  0  0  0  0  0  0  0  0
  -31.6924  -17.2736   -3.7356 C   0  0  1  0  0  0  0  0  0  0  0  0
  -32.6613  -17.4517   -5.0096 C   0  0  0  0  0  0  0  0  0  0  0  0
  -32.1237  -16.5631   -6.2238 C   0  0  2  0  0  0  0  0  0  0  0  0
  -26.9682  -13.4820   -9.2887 F   0  0  0  0  0  0  0  0  0  0  0  0
  -31.2103  -14.3667   -9.6695 N   0  0  0  0  0  0  0  0  0  0  0  0
  -24.8623  -15.8909   -7.9293 N   0  0  0  0  0  0  0  0  0  0  0  0
  -32.2497  -18.1280   -2.6319 N   0  0  0  0  0  0  0  0  0  0  0  0
  -33.0156  -16.7323   -7.3892 N   0  0  0  0  0  0  0  0  0  0  0  0
  -30.2482  -16.2058   -7.6818 O   0  0  0  0  0  0  0  0  0  0  0  0
  -28.3474  -17.3191   -5.7879 O   0  0  0  0  0  0  0  0  0  0  0  0
  -29.3404  -17.6284   -3.1130 O   0  0  0  0  0  0  0  0  0  0  0  0
  -28.7617  -14.5657  -10.9827 O   0  0  0  0  0  0  0  0  0  0  0  0
  -28.4334  -14.7458   -7.0634 O   0  0  0  0  0  0  0  0  0  0  0  0
  1  5  1  0  0  0  0
  1 18  1  6  0  0  0
  2 18  1  6  0  0  0
  2  3  1  0  0  0  0
  2 12  1  0  0  0  0
  3 19  1  6  0  0  0
  3  4  1  0  0  0  0
  4 20  1  1  0  0  0
  4 10  1  0  0  0  0
  5  6  1  0  0  0  0
  5 14  1  6  0  0  0
  6 21  1  6  0  0  0
  7 13  1  1  0  0  0
  7  6  1  0  0  0  0
  8  9  1  1  0  0  0
  8  7  1  0  0  0  0
 10 16  1  1  0  0  0
 11 10  1  0  0  0  0
 12 17  1  6  0  0  0
 12 11  1  0  0  0  0
 15  9  1  0  0  0  0
 22  8  1  0  0  0  0
 22  1  1  0  0  0  0
M  END
>  <CHROM.1>
-164.86861739,-46.00615124,-58.19711966,-29.46195257,-15.95417494,-7.02099641
0.98216582,-0.08665047,-1.09424923

>  <Name>
lig.pdb

>  <RI>
0

>  <Rbt.Current_Directory>
/home/itssahil/PROJECTS/Mol_Feturizer/New_Systems/rnas/5bws

>  <Rbt.Executable>
rbdock ($Id: //depot/dev/client3/rdock/2013.1/src/exe/rbdock.cxx#4 $)

>  <Rbt.Library>
libRbt.so (2013.1, Build901 2013/11/27)

>  <Rbt.Parameter_File>
/export/apps/rDock/src/rDock_2013.1_src/data/scripts/dock_solv.prm

>  <Rbt.Receptor>
prm/blind_docking_100.prm

>  <SCORE>
-6.90072

>  <SCORE.INTER>
-5.43258

>  <SCORE.INTER.CONST>
1

>  <SCORE.INTER.POLAR>
0

>  <SCORE.INTER.ROT>
3

>  <SCORE.INTER.SOLV>
21.7431

>  <SCORE.INTER.VDW>
-16.4694

>  <SCORE.INTER.norm>
-0.246935

>  <SCORE.INTRA>
-1.46815

>  <SCORE.INTRA.DIHEDRAL>
-4.09823

>  <SCORE.INTRA.DIHEDRAL.0>
6.10773

>  <SCORE.INTRA.POLAR>
0

>  <SCORE.INTRA.POLAR.0>
0

>  <SCORE.INTRA.REPUL>
0

>  <SCORE.INTRA.REPUL.0>
0

>  <SCORE.INTRA.SOLV>
0.690313

>  <SCORE.INTRA.SOLV.lig_0>
-71.4024

>  <SCORE.INTRA.VDW>
0.235814

>  <SCORE.INTRA.VDW.0>
-1.86213

>  <SCORE.INTRA.norm>
-0.0667339

>  <SCORE.RESTR>
0

>  <SCORE.RESTR.CAVITY>
0

>  <SCORE.RESTR.norm>
0

>  <SCORE.SYSTEM>
0

>  <SCORE.SYSTEM.CONST>
0

>  <SCORE.SYSTEM.DIHEDRAL>
0

>  <SCORE.SYSTEM.SOLV>
0

>  <SCORE.SYSTEM.norm>
0

>  <SCORE.heavy>
22

>  <SCORE.norm>
-0.313669

>  <RMSD>
29.818

$$$$
lig.pdb
 OpenBabel11021811523D
libRbt.so/2013.1/901 2013/11/27
 22 23  0  0  0  0  0  0  0  0999 V2000
  -29.8410  -14.8818   -7.6523 C   0  0  1  0  0  0  0  0  0  0  0  0
  -30.6825  -17.0242   -6.6068 C   0  0  1  0  0  0  0  0  0  0  0  0
  -29.6956  -16.8611   -5.3673 C   0  0  1  0  0  0  0  0  0  0  0  0
  -30.2388  -17.7827   -4.1837 C   0  0  2  0  0  0  0  0  0  0  0  0
  -29.8211  -14.2586   -9.1019 C   0  0  1  0  0  0  0  0  0  0  0  0
  -28.7852  -15.0344   -9.9395 C   0  0  2  0  0  0  0  0  0  0  0  0
  -27.3771  -14.8986   -9.3335 C   0  0  2  0  0  0  0  0  0  0  0  0
  -27.3295  -15.4715   -7.8700 C   0  0  1  0  0  0  0  0  0  0  0  0
  -25.9221  -15.2861   -7.2332 C   0  0  0  0  0  0  0  0  0  0  0  0
  -31.7028  -17.2686   -3.7425 C   0  0  1  0  0  0  0  0  0  0  0  0
  -32.6697  -17.4465   -5.0181 C   0  0  0  0  0  0  0  0  0  0  0  0
  -32.1269  -16.5622   -6.2331 C   0  0  2  0  0  0  0  0  0  0  0  0
  -26.9755  -13.4875   -9.3067 F   0  0  0  0  0  0  0  0  0  0  0  0
  -31.2169  -14.3799   -9.6768 N   0  0  0  0  0  0  0  0  0  0  0  0
  -24.8621  -15.8872   -7.9499 N   0  0  0  0  0  0  0  0  0  0  0  0
  -32.2651  -18.1188   -2.6381 N   0  0  0  0  0  0  0  0  0  0  0  0
  -33.0170  -16.7312   -7.3999 N   0  0  0  0  0  0  0  0  0  0  0  0
  -30.2473  -16.2140   -7.6881 O   0  0  0  0  0  0  0  0  0  0  0  0
  -28.3539  -17.3291   -5.7879 O   0  0  0  0  0  0  0  0  0  0  0  0
  -29.3533  -17.6294   -3.1144 O   0  0  0  0  0  0  0  0  0  0  0  0
  -28.7707  -14.5771  -10.9949 O   0  0  0  0  0  0  0  0  0  0  0  0
  -28.4336  -14.7499   -7.0762 O   0  0  0  0  0  0  0  0  0  0  0  0
  1  5  1  0  0  0  0
  1 18  1  6  0  0  0
  2 18  1  6  0  0  0
  2  3  1  0  0  0  0
  2 12  1  0  0  0  0
  3 19  1  6  0  0  0
  3  4  1  0  0  0  0
  4 20  1  1  0  0  0
  4 10  1  0  0  0  0
  5  6  1  0  0  0  0
  5 14  1  6  0  0  0
  6 21  1  6  0  0  0
  7 13  1  1  0  0  0
  7  6  1  0  0  0  0
  8  9  1  1  0  0  0
  8  7  1  0  0  0  0
 10 16  1  1  0  0  0
 11 10  1  0  0  0  0
 12 17  1  6  0  0  0
 12 11  1  0  0  0  0
 15  9  1  0  0  0  0
 22  8  1  0  0  0  0
 22  1  1  0  0  0  0
M  END
>  <CHROM.1>
-164.40799233,-46.35450865,-58.02319527,-29.46740988,-15.95771527,-7.03057457
0.98141245,-0.08624869,-1.09620853

>  <Name>
lig.pdb

>  <RI>
0

>  <Rbt.Current_Directory>
/home/itssahil/PROJECTS/Mol_Feturizer/New_Systems/rnas/5bws

>  <Rbt.Executable>
rbdock ($Id: //depot/dev/client3/rdock/2013.1/src/exe/rbdock.cxx#4 $)

>  <Rbt.Library>
libRbt.so (2013.1, Build901 2013/11/27)

>  <Rbt.Parameter_File>
/export/apps/rDock/src/rDock_2013.1_src/data/scripts/dock_solv.prm

>  <Rbt.Receptor>
prm/blind_docking_80.prm

>  <SCORE>
-6.88634

>  <SCORE.INTER>
-5.42164

>  <SCORE.INTER.CONST>
1

>  <SCORE.INTER.POLAR>
0

>  <SCORE.INTER.ROT>
3

>  <SCORE.INTER.SOLV>
21.8

>  <SCORE.INTER.VDW>
-16.4811

>  <SCORE.INTER.norm>
-0.246438

>  <SCORE.INTRA>
-1.4647

>  <SCORE.INTRA.DIHEDRAL>
-4.07679

>  <SCORE.INTRA.DIHEDRAL.0>
6.10773

>  <SCORE.INTRA.POLAR>
0

>  <SCORE.INTRA.POLAR.0>
0

>  <SCORE.INTRA.REPUL>
0

>  <SCORE.INTRA.REPUL.0>
0

>  <SCORE.INTRA.SOLV>
0.718211

>  <SCORE.INTRA.SOLV.lig_0>
-71.4024

>  <SCORE.INTRA.VDW>
0.214586

>  <SCORE.INTRA.VDW.0>
-1.86213

>  <SCORE.INTRA.norm>
-0.0665774

>  <SCORE.RESTR>
0

>  <SCORE.RESTR.CAVITY>
0

>  <SCORE.RESTR.norm>
0

>  <SCORE.SYSTEM>
0

>  <SCORE.SYSTEM.CONST>
0

>  <SCORE.SYSTEM.DIHEDRAL>
0

>  <SCORE.SYSTEM.SOLV>
0

>  <SCORE.SYSTEM.norm>
0

>  <SCORE.heavy>
22

>  <SCORE.norm>
-0.313016

>  <RMSD>
29.827

$$$$
lig.pdb
 OpenBabel11021811523D
libRbt.so/2013.1/901 2013/11/27
 22 23  0  0  0  0  0  0  0  0999 V2000
  -29.4890  -14.3553   -7.8136 C   0  0  1  0  0  0  0  0  0  0  0  0
  -30.7295  -15.8880   -6.2314 C   0  0  1  0  0  0  0  0  0  0  0  0
  -32.2375  -15.7714   -6.7308 C   0  0  1  0  0  0  0  0  0  0  0  0
  -33.1900  -16.1129   -5.4974 C   0  0  2  0  0  0  0  0  0  0  0  0
  -29.4383  -14.3906   -9.3904 C   0  0  1  0  0  0  0  0  0  0  0  0
  -28.3390  -15.3868   -9.8092 C   0  0  2  0  0  0  0  0  0  0  0  0
  -26.9626  -14.9355   -9.2895 C   0  0  2  0  0  0  0  0  0  0  0  0
  -26.9485  -14.8452   -7.7198 C   0  0  1  0  0  0  0  0  0  0  0  0
  -25.5760  -14.3361   -7.1927 C   0  0  0  0  0  0  0  0  0  0  0  0
  -32.9231  -17.6330   -5.0281 C   0  0  1  0  0  0  0  0  0  0  0  0
  -31.3926  -17.7125   -4.5335 C   0  0  0  0  0  0  0  0  0  0  0  0
  -30.4159  -17.3373   -5.7410 C   0  0  2  0  0  0  0  0  0  0  0  0
  -26.6214  -13.6213   -9.8460 F   0  0  0  0  0  0  0  0  0  0  0  0
  -30.8042  -14.8151   -9.8878 N   0  0  0  0  0  0  0  0  0  0  0  0
  -25.4961  -14.1900   -5.7888 N   0  0  0  0  0  0  0  0  0  0  0  0
  -33.7879  -17.9970   -3.8540 N   0  0  0  0  0  0  0  0  0  0  0  0
  -29.0142  -17.4105   -5.2802 N   0  0  0  0  0  0  0  0  0  0  0  0
  -29.8378  -15.6018   -7.2982 O   0  0  0  0  0  0  0  0  0  0  0  0
  -32.4670  -14.3734   -7.1658 O   0  0  0  0  0  0  0  0  0  0  0  0
  -34.5036  -15.9948   -5.9575 O   0  0  0  0  0  0  0  0  0  0  0  0
  -28.3023  -15.4092  -10.9588 O   0  0  0  0  0  0  0  0  0  0  0  0
  -28.1119  -13.9200   -7.3193 O   0  0  0  0  0  0  0  0  0  0  0  0
  1  5  1  0  0  0  0
  1 18  1  1  0  0  0
  2 18  1  6  0  0  0
  2  3  1  0  0  0  0
  2 12  1  0  0  0  0
  3 19  1  1  0  0  0
  3  4  1  0  0  0  0
  4 20  1  6  0  0  0
  4 10  1  0  0  0  0
  5  6  1  0  0  0  0
  5 14  1  6  0  0  0
  6 21  1  6  0  0  0
  7 13  1  6  0  0  0
  7  6  1  0  0  0  0
  8  9  1  6  0  0  0
  8  7  1  0  0  0  0
 10 16  1  1  0  0  0
 11 10  1  0  0  0  0
 12 17  1  1  0  0  0
 12 11  1  0  0  0  0
 15  9  1  0  0  0  0
 22  8  1  0  0  0  0
 22  1  1  0  0  0  0
M  END
>  <CHROM.1>
-137.94256268,77.78844311,178.23883560,-29.81181585,-15.49730747,-7.25225695
0.61625251,-0.14491542,-1.16795270

>  <Name>
lig.pdb

>  <RI>
0

>  <Rbt.Current_Directory>
/home/itssahil/PROJECTS/Mol_Feturizer/New_Systems/rnas/5bws

>  <Rbt.Executable>
rbdock ($Id: //depot/dev/client3/rdock/2013.1/src/exe/rbdock.cxx#4 $)

>  <Rbt.Library>
libRbt.so (2013.1, Build901 2013/11/27)

>  <Rbt.Parameter_File>
/export/apps/rDock/src/rDock_2013.1_src/data/scripts/dock_solv.prm

>  <Rbt.Receptor>
prm/blind_docking_60.prm

>  <SCORE>
-2.74128

>  <SCORE.INTER>
-3.45964

>  <SCORE.INTER.CONST>
1

>  <SCORE.INTER.POLAR>
0

>  <SCORE.INTER.ROT>
3

>  <SCORE.INTER.SOLV>
18.8823

>  <SCORE.INTER.VDW>
-14.2005

>  <SCORE.INTER.norm>
-0.157256

>  <SCORE.INTRA>
0.718359

>  <SCORE.INTRA.DIHEDRAL>
1.08131

>  <SCORE.INTRA.DIHEDRAL.0>
6.10773

>  <SCORE.INTRA.POLAR>
0

>  <SCORE.INTRA.POLAR.0>
0

>  <SCORE.INTRA.REPUL>
0

>  <SCORE.INTRA.REPUL.0>
0

>  <SCORE.INTRA.SOLV>
0.0880001

>  <SCORE.INTRA.SOLV.lig_0>
-71.4024

>  <SCORE.INTRA.VDW>
0.133703

>  <SCORE.INTRA.VDW.0>
-1.86213

>  <SCORE.INTRA.norm>
0.0326527

>  <SCORE.RESTR>
0

>  <SCORE.RESTR.CAVITY>
0

>  <SCORE.RESTR.norm>
0

>  <SCORE.SYSTEM>
0

>  <SCORE.SYSTEM.CONST>
0

>  <SCORE.SYSTEM.DIHEDRAL>
0

>  <SCORE.SYSTEM.SOLV>
0

>  <SCORE.SYSTEM.norm>
0

>  <SCORE.heavy>
22

>  <SCORE.norm>
-0.124604

>  <RMSD>
29.934

$$$$
lig.pdb
 OpenBabel11021811523D
libRbt.so/2013.1/901 2013/11/27
 22 23  0  0  0  0  0  0  0  0999 V2000
  -29.3631  -14.3854   -7.7987 C   0  0  1  0  0  0  0  0  0  0  0  0
  -30.7036  -15.9180   -6.3003 C   0  0  1  0  0  0  0  0  0  0  0  0
  -32.1827  -15.8565   -6.8882 C   0  0  1  0  0  0  0  0  0  0  0  0
  -33.1957  -16.1947   -5.7030 C   0  0  2  0  0  0  0  0  0  0  0  0
  -29.3408  -14.3659   -9.3764 C   0  0  1  0  0  0  0  0  0  0  0  0
  -28.2954  -15.3948   -9.8506 C   0  0  2  0  0  0  0  0  0  0  0  0
  -26.8912  -15.0248   -9.3409 C   0  0  2  0  0  0  0  0  0  0  0  0
  -26.8463  -14.9921   -7.7695 C   0  0  1  0  0  0  0  0  0  0  0  0
  -25.4433  -14.5646   -7.2504 C   0  0  0  0  0  0  0  0  0  0  0  0
  -32.9156  -17.6947   -5.1798 C   0  0  1  0  0  0  0  0  0  0  0  0
  -31.4147  -17.7186   -4.5962 C   0  0  0  0  0  0  0  0  0  0  0  0
  -30.3801  -17.3454   -5.7551 C   0  0  2  0  0  0  0  0  0  0  0  0
  -26.4999  -13.7081   -9.8569 F   0  0  0  0  0  0  0  0  0  0  0  0
  -30.7329  -14.7103   -9.8630 N   0  0  0  0  0  0  0  0  0  0  0  0
  -24.3774  -15.3939   -7.6682 N   0  0  0  0  0  0  0  0  0  0  0  0
  -33.8370  -18.0543   -4.0482 N   0  0  0  0  0  0  0  0  0  0  0  0
  -29.0061  -17.3675   -5.2130 N   0  0  0  0  0  0  0  0  0  0  0  0
  -29.7595  -15.6328   -7.3212 O   0  0  0  0  0  0  0  0  0  0  0  0
  -32.4241  -14.4766   -7.3718 O   0  0  0  0  0  0  0  0  0  0  0  0
  -34.4830  -16.1253   -6.2406 O   0  0  0  0  0  0  0  0  0  0  0  0
  -28.2793  -15.3772  -11.0007 O   0  0  0  0  0  0  0  0  0  0  0  0
  -27.9594  -14.0306   -7.3150 O   0  0  0  0  0  0  0  0  0  0  0  0
  1  5  1  0  0  0  0
  1 18  1  6  0  0  0
  2 18  1  6  0  0  0
  2  3  1  0  0  0  0
  2 12  1  0  0  0  0
  3 19  1  1  0  0  0
  3  4  1  0  0  0  0
  4 20  1  6  0  0  0
  4 10  1  0  0  0  0
  5  6  1  0  0  0  0
  5 14  1  6  0  0  0
  6 21  1  6  0  0  0
  7 13  1  6  0  0  0
  7  6  1  0  0  0  0
  8  9  1  6  0  0  0
  8  7  1  0  0  0  0
 10 16  1  1  0  0  0
 11 10  1  0  0  0  0
 12 17  1  1  0  0  0
 12 11  1  0  0  0  0
 15  9  1  0  0  0  0
 22  8  1  0  0  0  0
 22  1  1  0  0  0  0
M  END
>  <CHROM.1>
-133.95024082,81.54013637,-58.66715244,-29.70868355,-15.60184934,-7.40453955
0.58580011,-0.03868979,-1.05985826

>  <Name>
lig.pdb

>  <RI>
0

>  <Rbt.Current_Directory>
/home/itssahil/PROJECTS/Mol_Feturizer/New_Systems/rnas/5bws

>  <Rbt.Executable>
rbdock ($Id: //depot/dev/client3/rdock/2013.1/src/exe/rbdock.cxx#4 $)

>  <Rbt.Library>
libRbt.so (2013.1, Build901 2013/11/27)

>  <Rbt.Parameter_File>
/export/apps/rDock/src/rDock_2013.1_src/data/scripts/dock_solv.prm

>  <Rbt.Receptor>
prm/blind_docking_80.prm

>  <SCORE>
-2.58044

>  <SCORE.INTER>
-4.26599

>  <SCORE.INTER.CONST>
1

>  <SCORE.INTER.POLAR>
0

>  <SCORE.INTER.ROT>
3

>  <SCORE.INTER.SOLV>
19.8679

>  <SCORE.INTER.VDW>
-15.0666

>  <SCORE.INTER.norm>
-0.193909

>  <SCORE.INTRA>
1.68555

>  <SCORE.INTRA.DIHEDRAL>
2.2378

>  <SCORE.INTRA.DIHEDRAL.0>
6.10773

>  <SCORE.INTRA.POLAR>
0

>  <SCORE.INTRA.POLAR.0>
0

>  <SCORE.INTRA.REPUL>
0

>  <SCORE.INTRA.REPUL.0>
0

>  <SCORE.INTRA.SOLV>
0.902096

>  <SCORE.INTRA.SOLV.lig_0>
-71.4024

>  <SCORE.INTRA.VDW>
0.115599

>  <SCORE.INTRA.VDW.0>
-1.86213

>  <SCORE.INTRA.norm>
0.0766157

>  <SCORE.RESTR>
0

>  <SCORE.RESTR.CAVITY>
0

>  <SCORE.RESTR.norm>
0

>  <SCORE.SYSTEM>
0

>  <SCORE.SYSTEM.CONST>
0

>  <SCORE.SYSTEM.DIHEDRAL>
0

>  <SCORE.SYSTEM.SOLV>
0

>  <SCORE.SYSTEM.norm>
0

>  <SCORE.heavy>
22

>  <SCORE.norm>
-0.117293

>  <RMSD>
29.934

$$$$
lig.pdb
 OpenBabel11021811523D
libRbt.so/2013.1/901 2013/11/27
 22 23  0  0  0  0  0  0  0  0999 V2000
  -31.5741  -15.1824   -5.7474 C   0  0  1  0  0  0  0  0  0  0  0  0
  -30.4194  -15.7833   -7.9146 C   0  0  1  0  0  0  0  0  0  0  0  0
  -30.3843  -14.4870   -8.8395 C   0  0  1  0  0  0  0  0  0  0  0  0
  -29.1162  -14.6047   -9.8004 C   0  0  2  0  0  0  0  0  0  0  0  0
  -33.0413  -15.2264   -5.1682 C   0  0  1  0  0  0  0  0  0  0  0  0
  -33.9354  -14.3519   -6.0693 C   0  0  2  0  0  0  0  0  0  0  0  0
  -33.4556  -12.8896   -6.0647 C   0  0  2  0  0  0  0  0  0  0  0  0
  -31.9821  -12.7723   -6.6008 C   0  0  1  0  0  0  0  0  0  0  0  0
  -31.4732  -11.3030   -6.5460 C   0  0  0  0  0  0  0  0  0  0  0  0
  -27.7747  -14.6301   -8.9049 C   0  0  1  0  0  0  0  0  0  0  0  0
  -27.8467  -15.9496   -7.9843 C   0  0  0  0  0  0  0  0  0  0  0  0
  -29.1310  -15.8760   -7.0367 C   0  0  2  0  0  0  0  0  0  0  0  0
  -33.5126  -12.3462   -4.7029 F   0  0  0  0  0  0  0  0  0  0  0  0
  -33.4917  -16.6723   -5.1587 N   0  0  0  0  0  0  0  0  0  0  0  0
  -30.1166  -11.1306   -6.9040 N   0  0  0  0  0  0  0  0  0  0  0  0
  -26.5504  -14.7576   -9.7673 N   0  0  0  0  0  0  0  0  0  0  0  0
  -29.1920  -17.0895   -6.1965 N   0  0  0  0  0  0  0  0  0  0  0  0
  -31.5284  -15.7232   -7.0306 O   0  0  0  0  0  0  0  0  0  0  0  0
  -31.6246  -14.4717   -9.6505 O   0  0  0  0  0  0  0  0  0  0  0  0
  -29.1131  -13.4633  -10.6056 O   0  0  0  0  0  0  0  0  0  0  0  0
  -35.0038  -14.3836   -5.6440 O   0  0  0  0  0  0  0  0  0  0  0  0
  -31.1238  -13.7239   -5.7475 O   0  0  0  0  0  0  0  0  0  0  0  0
  1  5  1  0  0  0  0
  1 18  1  6  0  0  0
  2 18  1  1  0  0  0
  2  3  1  0  0  0  0
  2 12  1  0  0  0  0
  3 19  1  6  0  0  0
  3  4  1  0  0  0  0
  4 20  1  6  0  0  0
  4 10  1  0  0  0  0
  5  6  1  0  0  0  0
  5 14  1  6  0  0  0
  6 21  1  1  0  0  0
  7 13  1  1  0  0  0
  7  6  1  0  0  0  0
  8  9  1  1  0  0  0
  8  7  1  0  0  0  0
 10 16  1  6  0  0  0
 11 10  1  0  0  0  0
 12 17  1  6  0  0  0
 12 11  1  0  0  0  0
 15  9  1  0  0  0  0
 22  8  1  0  0  0  0
 22  1  1  0  0  0  0
M  END
>  <CHROM.1>
175.46444197,-90.58692787,174.84825477,-31.03164415,-14.36082532,-7.16269309
3.14014728,0.63264075,-0.25796509

>  <Name>
lig.pdb

>  <RI>
0

>  <Rbt.Current_Directory>
/home/itssahil/PROJECTS/Mol_Feturizer/New_Systems/rnas/5bws

>  <Rbt.Executable>
rbdock ($Id: //depot/dev/client3/rdock/2013.1/src/exe/rbdock.cxx#4 $)

>  <Rbt.Library>
libRbt.so (2013.1, Build901 2013/11/27)

>  <Rbt.Parameter_File>
/export/apps/rDock/src/rDock_2013.1_src/data/scripts/dock_solv.prm

>  <Rbt.Receptor>
prm/blind_docking_80.prm

>  <SCORE>
-4.65656

>  <SCORE.INTER>
-3.76327

>  <SCORE.INTER.CONST>
1

>  <SCORE.INTER.POLAR>
0

>  <SCORE.INTER.ROT>
3

>  <SCORE.INTER.SOLV>
25.8818

>  <SCORE.INTER.VDW>
-16.7361

>  <SCORE.INTER.norm>
-0.171058

>  <SCORE.INTRA>
-0.893291

>  <SCORE.INTRA.DIHEDRAL>
-2.19954

>  <SCORE.INTRA.DIHEDRAL.0>
6.10773

>  <SCORE.INTRA.POLAR>
0

>  <SCORE.INTRA.POLAR.0>
0

>  <SCORE.INTRA.REPUL>
0

>  <SCORE.INTRA.REPUL.0>
0

>  <SCORE.INTRA.SOLV>
-0.0225425

>  <SCORE.INTRA.SOLV.lig_0>
-71.4024

>  <SCORE.INTRA.VDW>
0.217752

>  <SCORE.INTRA.VDW.0>
-1.86213

>  <SCORE.INTRA.norm>
-0.0406041

>  <SCORE.RESTR>
0

>  <SCORE.RESTR.CAVITY>
0

>  <SCORE.RESTR.norm>
0

>  <SCORE.SYSTEM>
0

>  <SCORE.SYSTEM.CONST>
0

>  <SCORE.SYSTEM.DIHEDRAL>
0

>  <SCORE.SYSTEM.SOLV>
0

>  <SCORE.SYSTEM.norm>
0

>  <SCORE.heavy>
22

>  <SCORE.norm>
-0.211662

>  <RMSD>
30.165

$$$$
lig.pdb
 OpenBabel11021811523D
libRbt.so/2013.1/901 2013/11/27
 22 23  0  0  0  0  0  0  0  0999 V2000
  -30.4133  -16.9961   -4.5224 C   0  0  1  0  0  0  0  0  0  0  0  0
  -30.4198  -15.6728   -6.6765 C   0  0  1  0  0  0  0  0  0  0  0  0
  -29.1196  -16.3376   -7.3125 C   0  0  1  0  0  0  0  0  0  0  0  0
  -28.5331  -15.3262   -8.3981 C   0  0  2  0  0  0  0  0  0  0  0  0
  -31.4946  -17.6761   -3.5958 C   0  0  1  0  0  0  0  0  0  0  0  0
  -32.5397  -16.6071   -3.2200 C   0  0  2  0  0  0  0  0  0  0  0  0
  -31.8873  -15.4531   -2.4382 C   0  0  2  0  0  0  0  0  0  0  0  0
  -30.7713  -14.7468   -3.2914 C   0  0  1  0  0  0  0  0  0  0  0  0
  -30.0709  -13.6154   -2.4850 C   0  0  0  0  0  0  0  0  0  0  0  0
  -29.6236  -15.1153   -9.5679 C   0  0  1  0  0  0  0  0  0  0  0  0
  -30.9210  -14.4452   -8.8886 C   0  0  0  0  0  0  0  0  0  0  0  0
  -31.5078  -15.4219   -7.7686 C   0  0  2  0  0  0  0  0  0  0  0  0
  -31.2898  -15.9609   -1.1978 F   0  0  0  0  0  0  0  0  0  0  0  0
  -32.1123  -18.8219   -4.3698 N   0  0  0  0  0  0  0  0  0  0  0  0
  -29.0946  -12.8897   -3.2053 N   0  0  0  0  0  0  0  0  0  0  0  0
  -29.1220  -14.1542  -10.6088 N   0  0  0  0  0  0  0  0  0  0  0  0
  -32.6961  -14.8008   -7.1485 N   0  0  0  0  0  0  0  0  0  0  0  0
  -30.9879  -16.5402   -5.7070 O   0  0  0  0  0  0  0  0  0  0  0  0
  -28.1297  -16.5328   -6.2270 O   0  0  0  0  0  0  0  0  0  0  0  0
  -27.3911  -15.9267   -8.9332 O   0  0  0  0  0  0  0  0  0  0  0  0
  -33.3255  -17.1044   -2.5428 O   0  0  0  0  0  0  0  0  0  0  0  0
  -29.7899  -15.8472   -3.7341 O   0  0  0  0  0  0  0  0  0  0  0  0
  1  5  1  0  0  0  0
  1 18  1  6  0  0  0
  2 18  1  1  0  0  0
  2  3  1  0  0  0  0
  2 12  1  0  0  0  0
  3 19  1  1  0  0  0
  3  4  1  0  0  0  0
  4 20  1  6  0  0  0
  4 10  1  0  0  0  0
  5  6  1  0  0  0  0
  5 14  1  6  0  0  0
  6 21  1  1  0  0  0
  7 13  1  1  0  0  0
  7  6  1  0  0  0  0
  8  9  1  1  0  0  0
  8  7  1  0  0  0  0
 10 16  1  6  0  0  0
 11 10  1  0  0  0  0
 12 17  1  1  0  0  0
 12 11  1  0  0  0  0
 15  9  1  0  0  0  0
 22  8  1  0  0  0  0
 22  1  1  0  0  0  0
M  END
>  <CHROM.1>
167.46662518,62.14339993,-177.23227850,-30.50092020,-15.74496867,-5.46109141
2.05028975,0.73151947,1.38302822

>  <Name>
lig.pdb

>  <RI>
0

>  <Rbt.Current_Directory>
/home/itssahil/PROJECTS/Mol_Feturizer/New_Systems/rnas/5bws

>  <Rbt.Executable>
rbdock ($Id: //depot/dev/client3/rdock/2013.1/src/exe/rbdock.cxx#4 $)

>  <Rbt.Library>
libRbt.so (2013.1, Build901 2013/11/27)

>  <Rbt.Parameter_File>
/export/apps/rDock/src/rDock_2013.1_src/data/scripts/dock_solv.prm

>  <Rbt.Receptor>
prm/blind_docking_40.prm

>  <SCORE>
-5.10615

>  <SCORE.INTER>
-1.98011

>  <SCORE.INTER.CONST>
1

>  <SCORE.INTER.POLAR>
0

>  <SCORE.INTER.ROT>
3

>  <SCORE.INTER.SOLV>
19.0708

>  <SCORE.INTER.VDW>
-13.277

>  <SCORE.INTER.norm>
-0.0900051

>  <SCORE.INTRA>
-3.12604

>  <SCORE.INTRA.DIHEDRAL>
-5.30734

>  <SCORE.INTRA.DIHEDRAL.0>
6.10773

>  <SCORE.INTRA.POLAR>
0

>  <SCORE.INTRA.POLAR.0>
0

>  <SCORE.INTRA.REPUL>
0

>  <SCORE.INTRA.REPUL.0>
0

>  <SCORE.INTRA.SOLV>
-1.5336

>  <SCORE.INTRA.SOLV.lig_0>
-71.4024

>  <SCORE.INTRA.VDW>
0.294429

>  <SCORE.INTRA.VDW.0>
-1.86213

>  <SCORE.INTRA.norm>
-0.142093

>  <SCORE.RESTR>
0

>  <SCORE.RESTR.CAVITY>
0

>  <SCORE.RESTR.norm>
0

>  <SCORE.SYSTEM>
0

>  <SCORE.SYSTEM.CONST>
0

>  <SCORE.SYSTEM.DIHEDRAL>
0

>  <SCORE.SYSTEM.SOLV>
0

>  <SCORE.SYSTEM.norm>
0

>  <SCORE.heavy>
22

>  <SCORE.norm>
-0.232098

>  <RMSD>
30.173

$$$$
lig.pdb
 OpenBabel11021811523D
libRbt.so/2013.1/901 2013/11/27
 22 23  0  0  0  0  0  0  0  0999 V2000
  -30.7556  -17.2976   -4.4617 C   0  0  1  0  0  0  0  0  0  0  0  0
  -30.8014  -15.8208   -6.5130 C   0  0  1  0  0  0  0  0  0  0  0  0
  -29.5996  -16.5093   -7.2995 C   0  0  1  0  0  0  0  0  0  0  0  0
  -29.0177  -15.4444   -8.3352 C   0  0  2  0  0  0  0  0  0  0  0  0
  -31.8285  -17.9544   -3.5090 C   0  0  1  0  0  0  0  0  0  0  0  0
  -32.7692  -16.8393   -3.0110 C   0  0  2  0  0  0  0  0  0  0  0  0
  -31.9902  -15.7820   -2.2086 C   0  0  2  0  0  0  0  0  0  0  0  0
  -30.8766  -15.1058   -3.0889 C   0  0  1  0  0  0  0  0  0  0  0  0
  -30.0501  -14.0758   -2.2662 C   0  0  0  0  0  0  0  0  0  0  0  0
  -30.1681  -15.0567   -9.3975 C   0  0  1  0  0  0  0  0  0  0  0  0
  -31.3638  -14.3671   -8.5678 C   0  0  0  0  0  0  0  0  0  0  0  0
  -31.9411  -15.4007   -7.4948 C   0  0  2  0  0  0  0  0  0  0  0  0
  -31.3611  -16.4029   -1.0374 F   0  0  0  0  0  0  0  0  0  0  0  0
  -32.5720  -19.0064   -4.3052 N   0  0  0  0  0  0  0  0  0  0  0  0
  -29.0359  -13.4117   -2.9935 N   0  0  0  0  0  0  0  0  0  0  0  0
  -29.6713  -14.0403  -10.3868 N   0  0  0  0  0  0  0  0  0  0  0  0
  -33.0358  -14.7615   -6.7364 N   0  0  0  0  0  0  0  0  0  0  0  0
  -31.3625  -16.7333   -5.5816 O   0  0  0  0  0  0  0  0  0  0  0  0
  -28.5540  -16.8670   -6.3120 O   0  0  0  0  0  0  0  0  0  0  0  0
  -27.9617  -16.0678   -9.0041 O   0  0  0  0  0  0  0  0  0  0  0  0
  -33.5490  -17.3198   -2.3151 O   0  0  0  0  0  0  0  0  0  0  0  0
  -30.0054  -16.2438   -3.6513 O   0  0  0  0  0  0  0  0  0  0  0  0
  1  5  1  0  0  0  0
  1 18  1  6  0  0  0
  2 18  1  1  0  0  0
  2  3  1  0  0  0  0
  2 12  1  0  0  0  0
  3 19  1  1  0  0  0
  3  4  1  0  0  0  0
  4 20  1  6  0  0  0
  4 10  1  0  0  0  0
  5  6  1  0  0  0  0
  5 14  1  6  0  0  0
  6 21  1  1  0  0  0
  7 13  1  1  0  0  0
  7  6  1  0  0  0  0
  8  9  1  1  0  0  0
  8  7  1  0  0  0  0
 10 16  1  6  0  0  0
 11 10  1  0  0  0  0
 12 17  1  1  0  0  0
 12 11  1  0  0  0  0
 15  9  1  0  0  0  0
 22  8  1  0  0  0  0
 22  1  1  0  0  0  0
M  END
>  <CHROM.1>
165.42828411,64.46778206,-179.30347319,-30.81707392,-15.95624383,-5.31100812
1.96043025,0.67565358,1.51504606

>  <Name>
lig.pdb

>  <RI>
0

>  <Rbt.Current_Directory>
/home/itssahil/PROJECTS/Mol_Feturizer/New_Systems/rnas/5bws

>  <Rbt.Executable>
rbdock ($Id: //depot/dev/client3/rdock/2013.1/src/exe/rbdock.cxx#4 $)

>  <Rbt.Library>
libRbt.so (2013.1, Build901 2013/11/27)

>  <Rbt.Parameter_File>
/export/apps/rDock/src/rDock_2013.1_src/data/scripts/dock_solv.prm

>  <Rbt.Receptor>
prm/blind_docking_60.prm

>  <SCORE>
-5.16857

>  <SCORE.INTER>
-2.1899

>  <SCORE.INTER.CONST>
1

>  <SCORE.INTER.POLAR>
0

>  <SCORE.INTER.ROT>
3

>  <SCORE.INTER.SOLV>
18.2029

>  <SCORE.INTER.VDW>
-13.1276

>  <SCORE.INTER.norm>
-0.0995409

>  <SCORE.INTRA>
-2.97867

>  <SCORE.INTRA.DIHEDRAL>
-5.00753

>  <SCORE.INTRA.DIHEDRAL.0>
6.10773

>  <SCORE.INTRA.POLAR>
0

>  <SCORE.INTRA.POLAR.0>
0

>  <SCORE.INTRA.REPUL>
0

>  <SCORE.INTRA.REPUL.0>
0

>  <SCORE.INTRA.SOLV>
-1.4324

>  <SCORE.INTRA.SOLV.lig_0>
-71.4024

>  <SCORE.INTRA.VDW>
0.241295

>  <SCORE.INTRA.VDW.0>
-1.86213

>  <SCORE.INTRA.norm>
-0.135394

>  <SCORE.RESTR>
0

>  <SCORE.RESTR.CAVITY>
0

>  <SCORE.RESTR.norm>
0

>  <SCORE.SYSTEM>
0

>  <SCORE.SYSTEM.CONST>
0

>  <SCORE.SYSTEM.DIHEDRAL>
0

>  <SCORE.SYSTEM.SOLV>
0

>  <SCORE.SYSTEM.norm>
0

>  <SCORE.heavy>
22

>  <SCORE.norm>
-0.234935

>  <RMSD>
30.505

$$$$
lig.pdb
 OpenBabel11021811523D
libRbt.so/2013.1/901 2013/11/27
 22 23  0  0  0  0  0  0  0  0999 V2000
  -32.5510  -15.4235   -6.7321 C   0  0  1  0  0  0  0  0  0  0  0  0
  -30.2200  -15.7801   -7.6436 C   0  0  1  0  0  0  0  0  0  0  0  0
  -30.1015  -14.6885   -8.7975 C   0  0  1  0  0  0  0  0  0  0  0  0
  -29.0269  -15.2087   -9.8557 C   0  0  2  0  0  0  0  0  0  0  0  0
  -33.2106  -14.3719   -5.7579 C   0  0  1  0  0  0  0  0  0  0  0  0
  -32.7988  -14.7338   -4.3171 C   0  0  2  0  0  0  0  0  0  0  0  0
  -33.3091  -16.1348   -3.9362 C   0  0  2  0  0  0  0  0  0  0  0  0
  -32.7164  -17.2353   -4.8901 C   0  0  1  0  0  0  0  0  0  0  0  0
  -33.2728  -18.6464   -4.5437 C   0  0  0  0  0  0  0  0  0  0  0  0
  -27.5924  -15.3431   -9.1301 C   0  0  1  0  0  0  0  0  0  0  0  0
  -27.7513  -16.4505   -7.9717 C   0  0  0  0  0  0  0  0  0  0  0  0
  -28.8513  -15.9721   -6.9162 C   0  0  2  0  0  0  0  0  0  0  0  0
  -34.7739  -16.1745   -4.0141 F   0  0  0  0  0  0  0  0  0  0  0  0
  -32.7165  -12.9973   -6.1579 N   0  0  0  0  0  0  0  0  0  0  0  0
  -32.9799  -19.0956   -3.2356 N   0  0  0  0  0  0  0  0  0  0  0  0
  -26.5476  -15.8476  -10.0854 N   0  0  0  0  0  0  0  0  0  0  0  0
  -28.9933  -16.9928   -5.8577 N   0  0  0  0  0  0  0  0  0  0  0  0
  -31.1607  -15.3593   -6.6673 O   0  0  0  0  0  0  0  0  0  0  0  0
  -31.4267  -14.5694   -9.4502 O   0  0  0  0  0  0  0  0  0  0  0  0
  -28.9484  -14.2407  -10.8597 O   0  0  0  0  0  0  0  0  0  0  0  0
  -33.2825  -13.9673   -3.6086 O   0  0  0  0  0  0  0  0  0  0  0  0
  -33.0585  -16.8053   -6.3282 O   0  0  0  0  0  0  0  0  0  0  0  0
  1  5  1  0  0  0  0
  1 18  1  1  0  0  0
  2 18  1  1  0  0  0
  2  3  1  0  0  0  0
  2 12  1  0  0  0  0
  3 19  1  6  0  0  0
  3  4  1  0  0  0  0
  4 20  1  6  0  0  0
  4 10  1  0  0  0  0
  5  6  1  0  0  0  0
  5 14  1  6  0  0  0
  6 21  1  1  0  0  0
  7 13  1  6  0  0  0
  7  6  1  0  0  0  0
  8  9  1  1  0  0  0
  8  7  1  0  0  0  0
 10 16  1  6  0  0  0
 11 10  1  0  0  0  0
 12 17  1  1  0  0  0
 12 11  1  0  0  0  0
 15  9  1  0  0  0  0
 22  8  1  0  0  0  0
 22  1  1  0  0  0  0
M  END
>  <CHROM.1>
-157.30694746,79.10016069,-60.64959302,-31.22428107,-15.72036424,-6.64702803
2.57663591,-0.60275695,2.50360005

>  <Name>
lig.pdb

>  <RI>
0

>  <Rbt.Current_Directory>
/home/itssahil/PROJECTS/Mol_Feturizer/New_Systems/rnas/5bws

>  <Rbt.Executable>
rbdock ($Id: //depot/dev/client3/rdock/2013.1/src/exe/rbdock.cxx#4 $)

>  <Rbt.Library>
libRbt.so (2013.1, Build901 2013/11/27)

>  <Rbt.Parameter_File>
/export/apps/rDock/src/rDock_2013.1_src/data/scripts/dock_solv.prm

>  <Rbt.Receptor>
prm/blind_docking_40.prm

>  <SCORE>
-4.76708

>  <SCORE.INTER>
-3.76088

>  <SCORE.INTER.CONST>
1

>  <SCORE.INTER.POLAR>
0

>  <SCORE.INTER.ROT>
3

>  <SCORE.INTER.SOLV>
22.8279

>  <SCORE.INTER.VDW>
-15.7166

>  <SCORE.INTER.norm>
-0.170949

>  <SCORE.INTRA>
-1.0062

>  <SCORE.INTRA.DIHEDRAL>
-2.19352

>  <SCORE.INTRA.DIHEDRAL.0>
6.10773

>  <SCORE.INTRA.POLAR>
0

>  <SCORE.INTRA.POLAR.0>
0

>  <SCORE.INTRA.REPUL>
0

>  <SCORE.INTRA.REPUL.0>
0

>  <SCORE.INTRA.SOLV>
-0.119089

>  <SCORE.INTRA.SOLV.lig_0>
-71.4024

>  <SCORE.INTRA.VDW>
0.150099

>  <SCORE.INTRA.VDW.0>
-1.86213

>  <SCORE.INTRA.norm>
-0.0457365

>  <SCORE.RESTR>
0

>  <SCORE.RESTR.CAVITY>
0

>  <SCORE.RESTR.norm>
0

>  <SCORE.SYSTEM>
0

>  <SCORE.SYSTEM.CONST>
0

>  <SCORE.SYSTEM.DIHEDRAL>
0

>  <SCORE.SYSTEM.SOLV>
0

>  <SCORE.SYSTEM.norm>
0

>  <SCORE.heavy>
22

>  <SCORE.norm>
-0.216686

>  <RMSD>
30.778

$$$$
lig.pdb
 OpenBabel11021811523D
libRbt.so/2013.1/901 2013/11/27
 22 23  0  0  0  0  0  0  0  0999 V2000
  -18.3028    6.0216  -24.8109 C   0  0  1  0  0  0  0  0  0  0  0  0
  -19.4199    5.2158  -26.9308 C   0  0  1  0  0  0  0  0  0  0  0  0
  -18.3740    5.7876  -27.9873 C   0  0  1  0  0  0  0  0  0  0  0  0
  -19.1285    5.9537  -29.3832 C   0  0  2  0  0  0  0  0  0  0  0  0
  -17.7187    5.3789  -23.4934 C   0  0  1  0  0  0  0  0  0  0  0  0
  -18.8708    4.6615  -22.7624 C   0  0  2  0  0  0  0  0  0  0  0  0
  -19.9751    5.6581  -22.3678 C   0  0  2  0  0  0  0  0  0  0  0  0
  -20.5832    6.3646  -23.6340 C   0  0  1  0  0  0  0  0  0  0  0  0
  -21.6614    7.4133  -23.2360 C   0  0  0  0  0  0  0  0  0  0  0  0
  -19.6274    4.5060  -29.8902 C   0  0  1  0  0  0  0  0  0  0  0  0
  -20.6787    3.9602  -28.7991 C   0  0  0  0  0  0  0  0  0  0  0  0
  -19.9583    3.8201  -27.3798 C   0  0  2  0  0  0  0  0  0  0  0  0
  -19.4310    6.6802  -21.4664 F   0  0  0  0  0  0  0  0  0  0  0  0
  -16.6198    4.4176  -23.8955 N   0  0  0  0  0  0  0  0  0  0  0  0
  -22.8503    6.8684  -22.6992 N   0  0  0  0  0  0  0  0  0  0  0  0
  -20.3609    4.6134  -31.1976 N   0  0  0  0  0  0  0  0  0  0  0  0
  -20.9282    3.3210  -26.3836 N   0  0  0  0  0  0  0  0  0  0  0  0
  -18.7938    5.0399  -25.6690 O   0  0  0  0  0  0  0  0  0  0  0  0
  -17.9182    7.1132  -27.5061 O   0  0  0  0  0  0  0  0  0  0  0  0
  -18.1947    6.4641  -30.2880 O   0  0  0  0  0  0  0  0  0  0  0  0
  -18.4432    4.1957  -21.8013 O   0  0  0  0  0  0  0  0  0  0  0  0
  -19.4045    6.9943  -24.3982 O   0  0  0  0  0  0  0  0  0  0  0  0
  1  5  1  0  0  0  0
  1 18  1  6  0  0  0
  2 18  1  1  0  0  0
  2  3  1  0  0  0  0
  2 12  1  0  0  0  0
  3 19  1  1  0  0  0
  3  4  1  0  0  0  0
  4 20  1  6  0  0  0
  4 10  1  0  0  0  0
  5  6  1  0  0  0  0
  5 14  1  6  0  0  0
  6 21  1  1  0  0  0
  7 13  1  1  0  0  0
  7  6  1  0  0  0  0
  8  9  1  1  0  0  0
  8  7  1  0  0  0  0
 10 16  1  6  0  0  0
 11 10  1  0  0  0  0
 12 17  1  1  0  0  0
 12 11  1  0  0  0  0
 15  9  1  0  0  0  0
 22  8  1  0  0  0  0
 22  1  1  0  0  0  0
M  END
>  <CHROM.1>
178.52330119,67.10409903,-68.69441445,-19.39998495,5.51402282,-25.66074347
-1.60884973,0.19454051,-1.66877262

>  <Name>
lig.pdb

>  <RI>
0

>  <Rbt.Current_Directory>
/home/itssahil/PROJECTS/Mol_Feturizer/New_Systems/rnas/5bws

>  <Rbt.Executable>
rbdock ($Id: //depot/dev/client3/rdock/2013.1/src/exe/rbdock.cxx#4 $)

>  <Rbt.Library>
libRbt.so (2013.1, Build901 2013/11/27)

>  <Rbt.Parameter_File>
/export/apps/rDock/src/rDock_2013.1_src/data/scripts/dock_solv.prm

>  <Rbt.Receptor>
prm/blind_docking_40.prm

>  <SCORE>
-2.27645

>  <SCORE.INTER>
0.762704

>  <SCORE.INTER.CONST>
1

>  <SCORE.INTER.POLAR>
0

>  <SCORE.INTER.ROT>
3

>  <SCORE.INTER.SOLV>
13.3691

>  <SCORE.INTER.VDW>
-9.54791

>  <SCORE.INTER.norm>
0.0346684

>  <SCORE.INTRA>
-3.03916

>  <SCORE.INTRA.DIHEDRAL>
-5.57865

>  <SCORE.INTRA.DIHEDRAL.0>
6.10773

>  <SCORE.INTRA.POLAR>
0

>  <SCORE.INTRA.POLAR.0>
0

>  <SCORE.INTRA.REPUL>
0

>  <SCORE.INTRA.REPUL.0>
0

>  <SCORE.INTRA.SOLV>
-1.13407

>  <SCORE.INTRA.SOLV.lig_0>
-71.4024

>  <SCORE.INTRA.VDW>
0.317203

>  <SCORE.INTRA.VDW.0>
-1.86213

>  <SCORE.INTRA.norm>
-0.138144

>  <SCORE.RESTR>
0

>  <SCORE.RESTR.CAVITY>
0

>  <SCORE.RESTR.norm>
0

>  <SCORE.SYSTEM>
0

>  <SCORE.SYSTEM.CONST>
0

>  <SCORE.SYSTEM.DIHEDRAL>
0

>  <SCORE.SYSTEM.SOLV>
0

>  <SCORE.SYSTEM.norm>
0

>  <SCORE.heavy>
22

>  <SCORE.norm>
-0.103475

>  <RMSD>
30.830

$$$$
lig.pdb
 OpenBabel11021811523D
libRbt.so/2013.1/901 2013/11/27
 22 23  0  0  0  0  0  0  0  0999 V2000
  -15.0287    6.3827  -27.4392 C   0  0  1  0  0  0  0  0  0  0  0  0
  -17.0517    6.0827  -25.9531 C   0  0  1  0  0  0  0  0  0  0  0  0
  -16.3492    5.2279  -24.8073 C   0  0  1  0  0  0  0  0  0  0  0  0
  -17.4829    4.4018  -24.0472 C   0  0  2  0  0  0  0  0  0  0  0  0
  -14.2383    7.5835  -28.0901 C   0  0  1  0  0  0  0  0  0  0  0  0
  -15.2055    8.3410  -29.0212 C   0  0  2  0  0  0  0  0  0  0  0  0
  -15.7113    7.4247  -30.1495 C   0  0  2  0  0  0  0  0  0  0  0  0
  -16.4837    6.1832  -29.5714 C   0  0  1  0  0  0  0  0  0  0  0  0
  -16.9488    5.2253  -30.7059 C   0  0  0  0  0  0  0  0  0  0  0  0
  -18.5147    5.4317  -23.3567 C   0  0  1  0  0  0  0  0  0  0  0  0
  -19.2020    6.2774  -24.5425 C   0  0  0  0  0  0  0  0  0  0  0  0
  -18.0828    7.0864  -25.3460 C   0  0  2  0  0  0  0  0  0  0  0  0
  -14.5812    6.9503  -30.9564 F   0  0  0  0  0  0  0  0  0  0  0  0
  -13.7289    8.4641  -26.9683 N   0  0  0  0  0  0  0  0  0  0  0  0
  -17.8987    5.7764  -31.5962 N   0  0  0  0  0  0  0  0  0  0  0  0
  -19.6138    4.6984  -22.6405 N   0  0  0  0  0  0  0  0  0  0  0  0
  -18.7196    7.8583  -26.4328 N   0  0  0  0  0  0  0  0  0  0  0  0
  -16.0837    6.8465  -26.6563 O   0  0  0  0  0  0  0  0  0  0  0  0
  -15.3993    4.2920  -25.4539 O   0  0  0  0  0  0  0  0  0  0  0  0
  -16.8418    3.6552  -23.0559 O   0  0  0  0  0  0  0  0  0  0  0  0
  -14.6268    9.2145  -29.4963 O   0  0  0  0  0  0  0  0  0  0  0  0
  -15.5331    5.4957  -28.5745 O   0  0  0  0  0  0  0  0  0  0  0  0
  1  5  1  0  0  0  0
  1 18  1  6  0  0  0
  2 18  1  1  0  0  0
  2  3  1  0  0  0  0
  2 12  1  0  0  0  0
  3 19  1  6  0  0  0
  3  4  1  0  0  0  0
  4 20  1  1  0  0  0
  4 10  1  0  0  0  0
  5  6  1  0  0  0  0
  5 14  1  1  0  0  0
  6 21  1  6  0  0  0
  7 13  1  1  0  0  0
  7  6  1  0  0  0  0
  8  9  1  6  0  0  0
  8  7  1  0  0  0  0
 10 16  1  6  0  0  0
 11 10  1  0  0  0  0
 12 17  1  6  0  0  0
 12 11  1  0  0  0  0
 15  9  1  0  0  0  0
 22  8  1  0  0  0  0
 22  1  1  0  0  0  0
M  END
>  <CHROM.1>
177.36506531,64.34177709,-64.58596486,-16.46136003,6.30737975,-27.09739273
-1.12760020,0.52934633,1.67301215

>  <Name>
lig.pdb

>  <RI>
0

>  <Rbt.Current_Directory>
/home/itssahil/PROJECTS/Mol_Feturizer/New_Systems/rnas/5bws

>  <Rbt.Executable>
rbdock ($Id: //depot/dev/client3/rdock/2013.1/src/exe/rbdock.cxx#4 $)

>  <Rbt.Library>
libRbt.so (2013.1, Build901 2013/11/27)

>  <Rbt.Parameter_File>
/export/apps/rDock/src/rDock_2013.1_src/data/scripts/dock_solv.prm

>  <Rbt.Receptor>
prm/blind_docking_100.prm

>  <SCORE>
-8.98223

>  <SCORE.INTER>
-5.8516

>  <SCORE.INTER.CONST>
1

>  <SCORE.INTER.POLAR>
0

>  <SCORE.INTER.ROT>
3

>  <SCORE.INTER.SOLV>
17.7573

>  <SCORE.INTER.VDW>
-15.4202

>  <SCORE.INTER.norm>
-0.265982

>  <SCORE.INTRA>
-3.13062

>  <SCORE.INTRA.DIHEDRAL>
-5.90213

>  <SCORE.INTRA.DIHEDRAL.0>
6.10773

>  <SCORE.INTRA.POLAR>
0

>  <SCORE.INTRA.POLAR.0>
0

>  <SCORE.INTRA.REPUL>
0

>  <SCORE.INTRA.REPUL.0>
0

>  <SCORE.INTRA.SOLV>
-1.10222

>  <SCORE.INTRA.SOLV.lig_0>
-71.4024

>  <SCORE.INTRA.VDW>
0.371557

>  <SCORE.INTRA.VDW.0>
-1.86213

>  <SCORE.INTRA.norm>
-0.142301

>  <SCORE.RESTR>
0

>  <SCORE.RESTR.CAVITY>
0

>  <SCORE.RESTR.norm>
0

>  <SCORE.SYSTEM>
0

>  <SCORE.SYSTEM.CONST>
0

>  <SCORE.SYSTEM.DIHEDRAL>
0

>  <SCORE.SYSTEM.SOLV>
0

>  <SCORE.SYSTEM.norm>
0

>  <SCORE.heavy>
22

>  <SCORE.norm>
-0.408283

>  <RMSD>
30.850

$$$$
lig.pdb
 OpenBabel11021811523D
libRbt.so/2013.1/901 2013/11/27
 22 23  0  0  0  0  0  0  0  0999 V2000
  -14.9152    6.5115  -27.4636 C   0  0  1  0  0  0  0  0  0  0  0  0
  -16.9934    6.1667  -26.0659 C   0  0  1  0  0  0  0  0  0  0  0  0
  -16.2904    5.2479  -24.9710 C   0  0  1  0  0  0  0  0  0  0  0  0
  -17.4269    4.4003  -24.2395 C   0  0  2  0  0  0  0  0  0  0  0  0
  -14.2194    7.7109  -28.2168 C   0  0  1  0  0  0  0  0  0  0  0  0
  -15.2294    8.2881  -29.2282 C   0  0  2  0  0  0  0  0  0  0  0  0
  -15.6298    7.2281  -30.2695 C   0  0  2  0  0  0  0  0  0  0  0  0
  -16.3026    5.9829  -29.5846 C   0  0  1  0  0  0  0  0  0  0  0  0
  -16.6587    4.8847  -30.6276 C   0  0  0  0  0  0  0  0  0  0  0  0
  -18.4375    5.4085  -23.4881 C   0  0  1  0  0  0  0  0  0  0  0  0
  -19.1259    6.3199  -24.6235 C   0  0  0  0  0  0  0  0  0  0  0  0
  -18.0045    7.1528  -25.3991 C   0  0  2  0  0  0  0  0  0  0  0  0
  -14.4460    6.7819  -31.0131 F   0  0  0  0  0  0  0  0  0  0  0  0
  -13.8122    8.7353  -27.1784 N   0  0  0  0  0  0  0  0  0  0  0  0
  -17.6049    5.2759  -31.6024 N   0  0  0  0  0  0  0  0  0  0  0  0
  -19.5387    4.6552  -22.7962 N   0  0  0  0  0  0  0  0  0  0  0  0
  -18.6423    7.9849  -26.4398 N   0  0  0  0  0  0  0  0  0  0  0  0
  -16.0227    6.9515  -26.7418 O   0  0  0  0  0  0  0  0  0  0  0  0
  -15.3599    4.3327  -25.6731 O   0  0  0  0  0  0  0  0  0  0  0  0
  -16.7854    3.5980  -23.2930 O   0  0  0  0  0  0  0  0  0  0  0  0
  -14.7194    9.1608  -29.7776 O   0  0  0  0  0  0  0  0  0  0  0  0
  -15.3165    5.4799  -28.5147 O   0  0  0  0  0  0  0  0  0  0  0  0
  1  5  1  0  0  0  0
  1 18  1  6  0  0  0
  2 18  1  1  0  0  0
  2  3  1  0  0  0  0
  2 12  1  0  0  0  0
  3 19  1  6  0  0  0
  3  4  1  0  0  0  0
  4 20  1  1  0  0  0
  4 10  1  0  0  0  0
  5  6  1  0  0  0  0
  5 14  1  1  0  0  0
  6 21  1  6  0  0  0
  7 13  1  1  0  0  0
  7  6  1  0  0  0  0
  8  9  1  6  0  0  0
  8  7  1  0  0  0  0
 10 16  1  6  0  0  0
 11 10  1  0  0  0  0
 12 17  1  6  0  0  0
 12 11  1  0  0  0  0
 15  9  1  0  0  0  0
 22  8  1  0  0  0  0
 22  1  1  0  0  0  0
M  END
>  <CHROM.1>
172.04666396,58.28485500,-62.78508986,-16.37712423,6.27627792,-27.20445234
-0.88539031,0.90633237,1.32257431

>  <Name>
lig.pdb

>  <RI>
0

>  <Rbt.Current_Directory>
/home/itssahil/PROJECTS/Mol_Feturizer/New_Systems/rnas/5bws

>  <Rbt.Executable>
rbdock ($Id: //depot/dev/client3/rdock/2013.1/src/exe/rbdock.cxx#4 $)

>  <Rbt.Library>
libRbt.so (2013.1, Build901 2013/11/27)

>  <Rbt.Parameter_File>
/export/apps/rDock/src/rDock_2013.1_src/data/scripts/dock_solv.prm

>  <Rbt.Receptor>
prm/blind_docking_60.prm

>  <SCORE>
-9.38129

>  <SCORE.INTER>
-6.42888

>  <SCORE.INTER.CONST>
1

>  <SCORE.INTER.POLAR>
0

>  <SCORE.INTER.ROT>
3

>  <SCORE.INTER.SOLV>
18.3

>  <SCORE.INTER.VDW>
-15.9859

>  <SCORE.INTER.norm>
-0.292222

>  <SCORE.INTRA>
-2.95242

>  <SCORE.INTRA.DIHEDRAL>
-5.75467

>  <SCORE.INTRA.DIHEDRAL.0>
6.10773

>  <SCORE.INTRA.POLAR>
0

>  <SCORE.INTRA.POLAR.0>
0

>  <SCORE.INTRA.REPUL>
0

>  <SCORE.INTRA.REPUL.0>
0

>  <SCORE.INTRA.SOLV>
-1.14994

>  <SCORE.INTRA.SOLV.lig_0>
-71.4024

>  <SCORE.INTRA.VDW>
0.499882

>  <SCORE.INTRA.VDW.0>
-1.86213

>  <SCORE.INTRA.norm>
-0.134201

>  <SCORE.RESTR>
0

>  <SCORE.RESTR.CAVITY>
0

>  <SCORE.RESTR.norm>
0

>  <SCORE.SYSTEM>
0

>  <SCORE.SYSTEM.CONST>
0

>  <SCORE.SYSTEM.DIHEDRAL>
0

>  <SCORE.SYSTEM.SOLV>
0

>  <SCORE.SYSTEM.norm>
0

>  <SCORE.heavy>
22

>  <SCORE.norm>
-0.426422

>  <RMSD>
30.900

$$$$
lig.pdb
 OpenBabel11021811523D
libRbt.so/2013.1/901 2013/11/27
 22 23  0  0  0  0  0  0  0  0999 V2000
  -14.9861    6.5139  -27.6054 C   0  0  1  0  0  0  0  0  0  0  0  0
  -16.9713    6.1962  -26.0726 C   0  0  1  0  0  0  0  0  0  0  0  0
  -16.2965    5.2586  -24.9759 C   0  0  1  0  0  0  0  0  0  0  0  0
  -17.4563    4.4320  -24.2571 C   0  0  2  0  0  0  0  0  0  0  0  0
  -14.1060    7.7154  -28.1268 C   0  0  1  0  0  0  0  0  0  0  0  0
  -15.0213    8.6648  -28.9250 C   0  0  2  0  0  0  0  0  0  0  0  0
  -15.6302    7.9456  -30.1417 C   0  0  2  0  0  0  0  0  0  0  0  0
  -16.4977    6.7115  -29.6981 C   0  0  1  0  0  0  0  0  0  0  0  0
  -17.0700    5.9486  -30.9274 C   0  0  0  0  0  0  0  0  0  0  0  0
  -18.4517    5.4581  -23.5097 C   0  0  1  0  0  0  0  0  0  0  0  0
  -19.1118    6.3881  -24.6468 C   0  0  0  0  0  0  0  0  0  0  0  0
  -17.9670    7.2005  -25.4099 C   0  0  2  0  0  0  0  0  0  0  0  0
  -14.5641    7.4823  -31.0371 F   0  0  0  0  0  0  0  0  0  0  0  0
  -13.4967    8.3998  -26.9211 N   0  0  0  0  0  0  0  0  0  0  0  0
  -17.9004    4.8493  -30.6102 N   0  0  0  0  0  0  0  0  0  0  0  0
  -19.5740    4.7252  -22.8298 N   0  0  0  0  0  0  0  0  0  0  0  0
  -18.5788    8.0499  -26.4522 N   0  0  0  0  0  0  0  0  0  0  0  0
  -15.9790    6.9633  -26.7374 O   0  0  0  0  0  0  0  0  0  0  0  0
  -15.3796    4.3270  -25.6743 O   0  0  0  0  0  0  0  0  0  0  0  0
  -16.8394    3.6128  -23.3088 O   0  0  0  0  0  0  0  0  0  0  0  0
  -14.3773    9.5386  -29.3059 O   0  0  0  0  0  0  0  0  0  0  0  0
  -15.5913    5.8243  -28.8255 O   0  0  0  0  0  0  0  0  0  0  0  0
  1  5  1  0  0  0  0
  1 18  1  1  0  0  0
  2 18  1  1  0  0  0
  2  3  1  0  0  0  0
  2 12  1  0  0  0  0
  3 19  1  6  0  0  0
  3  4  1  0  0  0  0
  4 20  1  1  0  0  0
  4 10  1  0  0  0  0
  5  6  1  0  0  0  0
  5 14  1  1  0  0  0
  6 21  1  6  0  0  0
  7 13  1  6  0  0  0
  7  6  1  0  0  0  0
  8  9  1  6  0  0  0
  8  7  1  0  0  0  0
 10 16  1  6  0  0  0
 11 10  1  0  0  0  0
 12 17  1  6  0  0  0
 12 11  1  0  0  0  0
 15  9  1  0  0  0  0
 22  8  1  0  0  0  0
 22  1  1  0  0  0  0
M  END
>  <CHROM.1>
179.44161273,68.19518845,-177.96746041,-16.39529754,6.46242830,-27.15051004
-1.03673186,0.66285938,1.63389649

>  <Name>
lig.pdb

>  <RI>
0

>  <Rbt.Current_Directory>
/home/itssahil/PROJECTS/Mol_Feturizer/New_Systems/rnas/5bws

>  <Rbt.Executable>
rbdock ($Id: //depot/dev/client3/rdock/2013.1/src/exe/rbdock.cxx#4 $)

>  <Rbt.Library>
libRbt.so (2013.1, Build901 2013/11/27)

>  <Rbt.Parameter_File>
/export/apps/rDock/src/rDock_2013.1_src/data/scripts/dock_solv.prm

>  <Rbt.Receptor>
prm/blind_docking_60.prm

>  <SCORE>
-8.71964

>  <SCORE.INTER>
-5.34031

>  <SCORE.INTER.CONST>
1

>  <SCORE.INTER.POLAR>
0

>  <SCORE.INTER.ROT>
3

>  <SCORE.INTER.SOLV>
20.1523

>  <SCORE.INTER.VDW>
-15.8777

>  <SCORE.INTER.norm>
-0.242741

>  <SCORE.INTRA>
-3.37933

>  <SCORE.INTRA.DIHEDRAL>
-5.76257

>  <SCORE.INTRA.DIHEDRAL.0>
6.10773

>  <SCORE.INTRA.POLAR>
0

>  <SCORE.INTRA.POLAR.0>
0

>  <SCORE.INTRA.REPUL>
0

>  <SCORE.INTRA.REPUL.0>
0

>  <SCORE.INTRA.SOLV>
-1.48699

>  <SCORE.INTRA.SOLV.lig_0>
-71.4024

>  <SCORE.INTRA.VDW>
0.245447

>  <SCORE.INTRA.VDW.0>
-1.86213

>  <SCORE.INTRA.norm>
-0.153606

>  <SCORE.RESTR>
0

>  <SCORE.RESTR.CAVITY>
0

>  <SCORE.RESTR.norm>
0

>  <SCORE.SYSTEM>
0

>  <SCORE.SYSTEM.CONST>
0

>  <SCORE.SYSTEM.DIHEDRAL>
0

>  <SCORE.SYSTEM.SOLV>
0

>  <SCORE.SYSTEM.norm>
0

>  <SCORE.heavy>
22

>  <SCORE.norm>
-0.396347

>  <RMSD>
30.918

$$$$
lig.pdb
 OpenBabel11021811523D
libRbt.so/2013.1/901 2013/11/27
 22 23  0  0  0  0  0  0  0  0999 V2000
  -15.3578    6.4775  -27.5419 C   0  0  1  0  0  0  0  0  0  0  0  0
  -17.2879    6.3514  -25.9141 C   0  0  1  0  0  0  0  0  0  0  0  0
  -16.6462    5.3897  -24.8185 C   0  0  1  0  0  0  0  0  0  0  0  0
  -17.8382    4.6750  -24.0352 C   0  0  2  0  0  0  0  0  0  0  0  0
  -14.2721    7.5428  -27.9619 C   0  0  1  0  0  0  0  0  0  0  0  0
  -14.9947    8.7039  -28.6733 C   0  0  2  0  0  0  0  0  0  0  0  0
  -15.7070    8.2099  -29.9449 C   0  0  2  0  0  0  0  0  0  0  0  0
  -16.7850    7.1168  -29.6052 C   0  0  1  0  0  0  0  0  0  0  0  0
  -17.4689    6.5744  -30.8932 C   0  0  0  0  0  0  0  0  0  0  0  0
  -18.7203    5.7941  -23.2791 C   0  0  1  0  0  0  0  0  0  0  0  0
  -19.3495    6.7462  -24.4155 C   0  0  0  0  0  0  0  0  0  0  0  0
  -18.1753    7.4470  -25.2420 C   0  0  2  0  0  0  0  0  0  0  0  0
  -14.7294    7.6415  -30.8800 F   0  0  0  0  0  0  0  0  0  0  0  0
  -13.5655    8.0037  -26.7042 N   0  0  0  0  0  0  0  0  0  0  0  0
  -18.5237    5.6610  -30.6659 N   0  0  0  0  0  0  0  0  0  0  0  0
  -19.8690    5.1689  -22.5386 N   0  0  0  0  0  0  0  0  0  0  0  0
  -18.7591    8.3171  -26.2833 N   0  0  0  0  0  0  0  0  0  0  0  0
  -16.2654    7.0214  -26.6356 O   0  0  0  0  0  0  0  0  0  0  0  0
  -15.8331    4.3720  -25.5251 O   0  0  0  0  0  0  0  0  0  0  0  0
  -17.2507    3.8322  -23.0888 O   0  0  0  0  0  0  0  0  0  0  0  0
  -14.2012    9.4782  -28.9805 O   0  0  0  0  0  0  0  0  0  0  0  0
  -16.0610    6.0121  -28.8143 O   0  0  0  0  0  0  0  0  0  0  0  0
  1  5  1  0  0  0  0
  1 18  1  1  0  0  0
  2 18  1  1  0  0  0
  2  3  1  0  0  0  0
  2 12  1  0  0  0  0
  3 19  1  6  0  0  0
  3  4  1  0  0  0  0
  4 20  1  1  0  0  0
  4 10  1  0  0  0  0
  5  6  1  0  0  0  0
  5 14  1  1  0  0  0
  6 21  1  6  0  0  0
  7 13  1  6  0  0  0
  7  6  1  0  0  0  0
  8  9  1  6  0  0  0
  8  7  1  0  0  0  0
 10 16  1  6  0  0  0
 11 10  1  0  0  0  0
 12 17  1  6  0  0  0
 12 11  1  0  0  0  0
 15  9  1  0  0  0  0
 22  8  1  0  0  0  0
 22  1  1  0  0  0  0
M  END
>  <CHROM.1>
-172.32556792,69.19942083,-175.37229421,-16.65958509,6.65645558,-26.98916414
-1.12202552,0.34820591,1.78922735

>  <Name>
lig.pdb

>  <RI>
0

>  <Rbt.Current_Directory>
/home/itssahil/PROJECTS/Mol_Feturizer/New_Systems/rnas/5bws

>  <Rbt.Executable>
rbdock ($Id: //depot/dev/client3/rdock/2013.1/src/exe/rbdock.cxx#4 $)

>  <Rbt.Library>
libRbt.so (2013.1, Build901 2013/11/27)

>  <Rbt.Parameter_File>
/export/apps/rDock/src/rDock_2013.1_src/data/scripts/dock_solv.prm

>  <Rbt.Receptor>
prm/blind_docking_80.prm

>  <SCORE>
-8.09873

>  <SCORE.INTER>
-4.9514

>  <SCORE.INTER.CONST>
1

>  <SCORE.INTER.POLAR>
0

>  <SCORE.INTER.ROT>
3

>  <SCORE.INTER.SOLV>
20.6403

>  <SCORE.INTER.VDW>
-15.781

>  <SCORE.INTER.norm>
-0.225064

>  <SCORE.INTRA>
-3.14733

>  <SCORE.INTRA.DIHEDRAL>
-5.33224

>  <SCORE.INTRA.DIHEDRAL.0>
6.10773

>  <SCORE.INTRA.POLAR>
0

>  <SCORE.INTRA.POLAR.0>
0

>  <SCORE.INTRA.REPUL>
0

>  <SCORE.INTRA.REPUL.0>
0

>  <SCORE.INTRA.SOLV>
-1.47152

>  <SCORE.INTRA.SOLV.lig_0>
-71.4024

>  <SCORE.INTRA.VDW>
0.254551

>  <SCORE.INTRA.VDW.0>
-1.86213

>  <SCORE.INTRA.norm>
-0.14306

>  <SCORE.RESTR>
0

>  <SCORE.RESTR.CAVITY>
0

>  <SCORE.RESTR.norm>
0

>  <SCORE.SYSTEM>
0

>  <SCORE.SYSTEM.CONST>
0

>  <SCORE.SYSTEM.DIHEDRAL>
0

>  <SCORE.SYSTEM.SOLV>
0

>  <SCORE.SYSTEM.norm>
0

>  <SCORE.heavy>
22

>  <SCORE.norm>
-0.368124

>  <RMSD>
30.926

$$$$
lig.pdb
 OpenBabel11021811523D
libRbt.so/2013.1/901 2013/11/27
 22 23  0  0  0  0  0  0  0  0999 V2000
  -15.0046    6.4895  -27.4893 C   0  0  1  0  0  0  0  0  0  0  0  0
  -17.0749    6.1848  -26.0707 C   0  0  1  0  0  0  0  0  0  0  0  0
  -16.3556    5.3092  -24.9514 C   0  0  1  0  0  0  0  0  0  0  0  0
  -17.4799    4.4833  -24.1774 C   0  0  2  0  0  0  0  0  0  0  0  0
  -14.2715    7.6775  -28.2250 C   0  0  1  0  0  0  0  0  0  0  0  0
  -15.2518    8.2792  -29.2514 C   0  0  2  0  0  0  0  0  0  0  0  0
  -15.6552    7.2316  -30.3042 C   0  0  2  0  0  0  0  0  0  0  0  0
  -16.3650    5.9977  -29.6365 C   0  0  1  0  0  0  0  0  0  0  0  0
  -16.7250    4.9110  -30.6902 C   0  0  0  0  0  0  0  0  0  0  0  0
  -18.4872    5.5133  -23.4517 C   0  0  1  0  0  0  0  0  0  0  0  0
  -19.1923    6.3802  -24.6114 C   0  0  0  0  0  0  0  0  0  0  0  0
  -18.0835    7.1897  -25.4287 C   0  0  2  0  0  0  0  0  0  0  0  0
  -14.4679    6.7644  -31.0289 F   0  0  0  0  0  0  0  0  0  0  0  0
  -13.8619    8.6893  -27.1753 N   0  0  0  0  0  0  0  0  0  0  0  0
  -17.6474    5.3246  -31.6785 N   0  0  0  0  0  0  0  0  0  0  0  0
  -19.5772    4.7805  -22.7211 N   0  0  0  0  0  0  0  0  0  0  0  0
  -18.7366    7.9810  -26.4915 N   0  0  0  0  0  0  0  0  0  0  0  0
  -16.1154    6.9491  -26.7850 O   0  0  0  0  0  0  0  0  0  0  0  0
  -15.4283    4.3735  -25.6304 O   0  0  0  0  0  0  0  0  0  0  0  0
  -16.8243    3.7185  -23.2099 O   0  0  0  0  0  0  0  0  0  0  0  0
  -14.7146    9.1434  -29.7881 O   0  0  0  0  0  0  0  0  0  0  0  0
  -15.4083    5.4704  -28.5517 O   0  0  0  0  0  0  0  0  0  0  0  0
  1  5  1  0  0  0  0
  1 18  1  6  0  0  0
  2 18  1  1  0  0  0
  2  3  1  0  0  0  0
  2 12  1  0  0  0  0
  3 19  1  6  0  0  0
  3  4  1  0  0  0  0
  4 20  1  1  0  0  0
  4 10  1  0  0  0  0
  5  6  1  0  0  0  0
  5 14  1  1  0  0  0
  6 21  1  6  0  0  0
  7 13  1  1  0  0  0
  7  6  1  0  0  0  0
  8  9  1  6  0  0  0
  8  7  1  0  0  0  0
 10 16  1  6  0  0  0
 11 10  1  0  0  0  0
 12 17  1  6  0  0  0
 12 11  1  0  0  0  0
 15  9  1  0  0  0  0
 22  8  1  0  0  0  0
 22  1  1  0  0  0  0
M  END
>  <CHROM.1>
175.65541614,57.43660248,-62.87900986,-16.43321058,6.30210549,-27.21060054
-0.94839332,0.84517051,1.37916096

>  <Name>
lig.pdb

>  <RI>
0

>  <Rbt.Current_Directory>
/home/itssahil/PROJECTS/Mol_Feturizer/New_Systems/rnas/5bws

>  <Rbt.Executable>
rbdock ($Id: //depot/dev/client3/rdock/2013.1/src/exe/rbdock.cxx#4 $)

>  <Rbt.Library>
libRbt.so (2013.1, Build901 2013/11/27)

>  <Rbt.Parameter_File>
/export/apps/rDock/src/rDock_2013.1_src/data/scripts/dock_solv.prm

>  <Rbt.Receptor>
prm/blind_docking_80.prm

>  <SCORE>
-9.39571

>  <SCORE.INTER>
-6.34915

>  <SCORE.INTER.CONST>
1

>  <SCORE.INTER.POLAR>
0

>  <SCORE.INTER.ROT>
3

>  <SCORE.INTER.SOLV>
17.9342

>  <SCORE.INTER.VDW>
-15.8108

>  <SCORE.INTER.norm>
-0.288598

>  <SCORE.INTRA>
-3.04656

>  <SCORE.INTRA.DIHEDRAL>
-5.94977

>  <SCORE.INTRA.DIHEDRAL.0>
6.10773

>  <SCORE.INTRA.POLAR>
0

>  <SCORE.INTRA.POLAR.0>
0

>  <SCORE.INTRA.REPUL>
0

>  <SCORE.INTRA.REPUL.0>
0

>  <SCORE.INTRA.SOLV>
-1.20312

>  <SCORE.INTRA.SOLV.lig_0>
-71.4024

>  <SCORE.INTRA.VDW>
0.529884

>  <SCORE.INTRA.VDW.0>
-1.86213

>  <SCORE.INTRA.norm>
-0.13848

>  <SCORE.RESTR>
0

>  <SCORE.RESTR.CAVITY>
0

>  <SCORE.RESTR.norm>
0

>  <SCORE.SYSTEM>
0

>  <SCORE.SYSTEM.CONST>
0

>  <SCORE.SYSTEM.DIHEDRAL>
0

>  <SCORE.SYSTEM.SOLV>
0

>  <SCORE.SYSTEM.norm>
0

>  <SCORE.heavy>
22

>  <SCORE.norm>
-0.427078

>  <RMSD>
30.930

$$$$
lig.pdb
 OpenBabel11021811523D
libRbt.so/2013.1/901 2013/11/27
 22 23  0  0  0  0  0  0  0  0999 V2000
  -20.5280    5.6560  -24.5300 C   0  0  1  0  0  0  0  0  0  0  0  0
  -19.8059    5.8856  -26.9419 C   0  0  1  0  0  0  0  0  0  0  0  0
  -21.0063    5.0471  -27.5687 C   0  0  1  0  0  0  0  0  0  0  0  0
  -20.5428    4.5245  -29.0030 C   0  0  2  0  0  0  0  0  0  0  0  0
  -20.8727    6.6180  -23.3276 C   0  0  1  0  0  0  0  0  0  0  0  0
  -19.6031    7.4206  -22.9810 C   0  0  2  0  0  0  0  0  0  0  0  0
  -18.4644    6.4832  -22.5414 C   0  0  2  0  0  0  0  0  0  0  0  0
  -18.0885    5.4698  -23.6833 C   0  0  1  0  0  0  0  0  0  0  0  0
  -16.9758    4.4840  -23.2239 C   0  0  0  0  0  0  0  0  0  0  0  0
  -20.2506    5.7911  -29.9583 C   0  0  1  0  0  0  0  0  0  0  0  0
  -19.0361    6.6136  -29.2933 C   0  0  0  0  0  0  0  0  0  0  0  0
  -19.4600    7.1175  -27.8375 C   0  0  2  0  0  0  0  0  0  0  0  0
  -18.8661    5.7298  -21.3480 F   0  0  0  0  0  0  0  0  0  0  0  0
  -22.0078    7.5191  -23.7669 N   0  0  0  0  0  0  0  0  0  0  0  0
  -16.6429    3.4837  -24.1657 N   0  0  0  0  0  0  0  0  0  0  0  0
  -19.7932    5.3483  -31.3197 N   0  0  0  0  0  0  0  0  0  0  0  0
  -18.3414    7.8694  -27.2328 N   0  0  0  0  0  0  0  0  0  0  0  0
  -20.1720    6.3832  -25.6639 O   0  0  0  0  0  0  0  0  0  0  0  0
  -21.2695    3.8920  -26.6783 O   0  0  0  0  0  0  0  0  0  0  0  0
  -21.6068    3.7862  -29.5264 O   0  0  0  0  0  0  0  0  0  0  0  0
  -19.8560    8.1195  -22.1029 O   0  0  0  0  0  0  0  0  0  0  0  0
  -19.3886    4.7461  -24.0784 O   0  0  0  0  0  0  0  0  0  0  0  0
  1  5  1  0  0  0  0
  1 18  1  6  0  0  0
  2 18  1  1  0  0  0
  2  3  1  0  0  0  0
  2 12  1  0  0  0  0
  3 19  1  1  0  0  0
  3  4  1  0  0  0  0
  4 20  1  6  0  0  0
  4 10  1  0  0  0  0
  5  6  1  0  0  0  0
  5 14  1  6  0  0  0
  6 21  1  1  0  0  0
  7 13  1  1  0  0  0
  7  6  1  0  0  0  0
  8  9  1  1  0  0  0
  8  7  1  0  0  0  0
 10 16  1  6  0  0  0
 11 10  1  0  0  0  0
 12 17  1  1  0  0  0
 12 11  1  0  0  0  0
 15  9  1  0  0  0  0
 22  8  1  0  0  0  0
 22  1  1  0  0  0  0
M  END
>  <CHROM.1>
-179.50373911,60.96096918,176.05369758,-19.66878086,5.79666222,-25.68492239
1.31573914,-0.77479719,1.25771327

>  <Name>
lig.pdb

>  <RI>
0

>  <Rbt.Current_Directory>
/home/itssahil/PROJECTS/Mol_Feturizer/New_Systems/rnas/5bws

>  <Rbt.Executable>
rbdock ($Id: //depot/dev/client3/rdock/2013.1/src/exe/rbdock.cxx#4 $)

>  <Rbt.Library>
libRbt.so (2013.1, Build901 2013/11/27)

>  <Rbt.Parameter_File>
/export/apps/rDock/src/rDock_2013.1_src/data/scripts/dock_solv.prm

>  <Rbt.Receptor>
prm/blind_docking_80.prm

>  <SCORE>
-4.9648

>  <SCORE.INTER>
-1.58064

>  <SCORE.INTER.CONST>
1

>  <SCORE.INTER.POLAR>
0

>  <SCORE.INTER.ROT>
3

>  <SCORE.INTER.SOLV>
11.0309

>  <SCORE.INTER.VDW>
-10.3307

>  <SCORE.INTER.norm>
-0.0718475

>  <SCORE.INTRA>
-3.38416

>  <SCORE.INTRA.DIHEDRAL>
-6.04278

>  <SCORE.INTRA.DIHEDRAL.0>
6.10773

>  <SCORE.INTRA.POLAR>
0

>  <SCORE.INTRA.POLAR.0>
0

>  <SCORE.INTRA.REPUL>
0

>  <SCORE.INTRA.REPUL.0>
0

>  <SCORE.INTRA.SOLV>
-1.56908

>  <SCORE.INTRA.SOLV.lig_0>
-71.4024

>  <SCORE.INTRA.VDW>
0.421778

>  <SCORE.INTRA.VDW.0>
-1.86213

>  <SCORE.INTRA.norm>
-0.153825

>  <SCORE.RESTR>
0

>  <SCORE.RESTR.CAVITY>
0

>  <SCORE.RESTR.norm>
0

>  <SCORE.SYSTEM>
0

>  <SCORE.SYSTEM.CONST>
0

>  <SCORE.SYSTEM.DIHEDRAL>
0

>  <SCORE.SYSTEM.SOLV>
0

>  <SCORE.SYSTEM.norm>
0

>  <SCORE.heavy>
22

>  <SCORE.norm>
-0.225673

>  <RMSD>
30.983

$$$$
lig.pdb
 OpenBabel11021811523D
libRbt.so/2013.1/901 2013/11/27
 22 23  0  0  0  0  0  0  0  0999 V2000
  -20.4264    5.4581  -24.7069 C   0  0  1  0  0  0  0  0  0  0  0  0
  -19.7385    5.6701  -27.1303 C   0  0  1  0  0  0  0  0  0  0  0  0
  -20.9775    4.9417  -27.8167 C   0  0  1  0  0  0  0  0  0  0  0  0
  -20.5022    4.4042  -29.2417 C   0  0  2  0  0  0  0  0  0  0  0  0
  -20.8213    6.4276  -23.5261 C   0  0  1  0  0  0  0  0  0  0  0  0
  -19.5970    7.3064  -23.2020 C   0  0  2  0  0  0  0  0  0  0  0  0
  -18.4079    6.4434  -22.7441 C   0  0  2  0  0  0  0  0  0  0  0  0
  -17.9788    5.4257  -23.8634 C   0  0  1  0  0  0  0  0  0  0  0  0
  -16.8130    4.5134  -23.3845 C   0  0  0  0  0  0  0  0  0  0  0  0
  -20.0715    5.6566  -30.1625 C   0  0  1  0  0  0  0  0  0  0  0  0
  -18.8213    6.3675  -29.4377 C   0  0  0  0  0  0  0  0  0  0  0  0
  -19.2594    6.8828  -27.9902 C   0  0  2  0  0  0  0  0  0  0  0  0
  -18.7656    5.6971  -21.5324 F   0  0  0  0  0  0  0  0  0  0  0  0
  -22.0048    7.2546  -23.9827 N   0  0  0  0  0  0  0  0  0  0  0  0
  -17.1281    3.6701  -22.2945 N   0  0  0  0  0  0  0  0  0  0  0  0
  -19.5986    5.1981  -31.5134 N   0  0  0  0  0  0  0  0  0  0  0  0
  -18.1081    7.5320  -27.3304 N   0  0  0  0  0  0  0  0  0  0  0  0
  -20.1128    6.1771  -25.8583 O   0  0  0  0  0  0  0  0  0  0  0  0
  -21.3678    3.7988  -26.9576 O   0  0  0  0  0  0  0  0  0  0  0  0
  -21.6012    3.7629  -29.8179 O   0  0  0  0  0  0  0  0  0  0  0  0
  -19.8863    8.0107  -22.3396 O   0  0  0  0  0  0  0  0  0  0  0  0
  -19.2380    4.6229  -24.2376 O   0  0  0  0  0  0  0  0  0  0  0  0
  1  5  1  0  0  0  0
  1 18  1  6  0  0  0
  2 18  1  1  0  0  0
  2  3  1  0  0  0  0
  2 12  1  0  0  0  0
  3 19  1  1  0  0  0
  3  4  1  0  0  0  0
  4 20  1  6  0  0  0
  4 10  1  0  0  0  0
  5  6  1  0  0  0  0
  5 14  1  6  0  0  0
  6 21  1  1  0  0  0
  7 13  1  1  0  0  0
  7  6  1  0  0  0  0
  8  9  1  1  0  0  0
  8  7  1  0  0  0  0
 10 16  1  6  0  0  0
 11 10  1  0  0  0  0
 12 17  1  1  0  0  0
 12 11  1  0  0  0  0
 15  9  1  0  0  0  0
 22  8  1  0  0  0  0
 22  1  1  0  0  0  0
M  END
>  <CHROM.1>
-178.62451367,68.84659165,63.51022983,-19.60878713,5.67330647,-25.79166429
1.33142204,-0.63513413,1.31237237

>  <Name>
lig.pdb

>  <RI>
0

>  <Rbt.Current_Directory>
/home/itssahil/PROJECTS/Mol_Feturizer/New_Systems/rnas/5bws

>  <Rbt.Executable>
rbdock ($Id: //depot/dev/client3/rdock/2013.1/src/exe/rbdock.cxx#4 $)

>  <Rbt.Library>
libRbt.so (2013.1, Build901 2013/11/27)

>  <Rbt.Parameter_File>
/export/apps/rDock/src/rDock_2013.1_src/data/scripts/dock_solv.prm

>  <Rbt.Receptor>
prm/blind_docking_60.prm

>  <SCORE>
-4.32707

>  <SCORE.INTER>
-1.80327

>  <SCORE.INTER.CONST>
1

>  <SCORE.INTER.POLAR>
0

>  <SCORE.INTER.ROT>
3

>  <SCORE.INTER.SOLV>
9.36845

>  <SCORE.INTER.VDW>
-9.925

>  <SCORE.INTER.norm>
-0.0819668

>  <SCORE.INTRA>
-2.52464

>  <SCORE.INTRA.DIHEDRAL>
-5.67243

>  <SCORE.INTRA.DIHEDRAL.0>
6.10773

>  <SCORE.INTRA.POLAR>
0

>  <SCORE.INTRA.POLAR.0>
0

>  <SCORE.INTRA.REPUL>
0

>  <SCORE.INTRA.REPUL.0>
0

>  <SCORE.INTRA.SOLV>
0.225685

>  <SCORE.INTRA.SOLV.lig_0>
-71.4024

>  <SCORE.INTRA.VDW>
0.198727

>  <SCORE.INTRA.VDW.0>
-1.86213

>  <SCORE.INTRA.norm>
-0.114757

>  <SCORE.RESTR>
0.00084699

>  <SCORE.RESTR.CAVITY>
0.00084699

>  <SCORE.RESTR.norm>
3.84996e-05

>  <SCORE.SYSTEM>
0

>  <SCORE.SYSTEM.CONST>
0

>  <SCORE.SYSTEM.DIHEDRAL>
0

>  <SCORE.SYSTEM.SOLV>
0

>  <SCORE.SYSTEM.norm>
0

>  <SCORE.heavy>
22

>  <SCORE.norm>
-0.196685

>  <RMSD>
31.031

$$$$
lig.pdb
 OpenBabel11021811523D
libRbt.so/2013.1/901 2013/11/27
 22 23  0  0  0  0  0  0  0  0999 V2000
  -17.6096    6.5898  -28.6771 C   0  0  1  0  0  0  0  0  0  0  0  0
  -17.9793    4.7135  -27.0236 C   0  0  1  0  0  0  0  0  0  0  0  0
  -16.9385    5.1818  -25.9125 C   0  0  1  0  0  0  0  0  0  0  0  0
  -17.3964    4.5572  -24.5177 C   0  0  2  0  0  0  0  0  0  0  0  0
  -17.2224    6.7303  -30.2004 C   0  0  1  0  0  0  0  0  0  0  0  0
  -15.7917    6.1852  -30.3802 C   0  0  2  0  0  0  0  0  0  0  0  0
  -14.7858    6.9989  -29.5467 C   0  0  2  0  0  0  0  0  0  0  0  0
  -15.1304    6.9316  -28.0141 C   0  0  1  0  0  0  0  0  0  0  0  0
  -14.1490    7.7978  -27.1730 C   0  0  0  0  0  0  0  0  0  0  0  0
  -18.8516    5.1361  -24.1313 C   0  0  1  0  0  0  0  0  0  0  0  0
  -19.8738    4.6454  -25.2750 C   0  0  0  0  0  0  0  0  0  0  0  0
  -19.4167    5.2262  -26.6915 C   0  0  2  0  0  0  0  0  0  0  0  0
  -14.7954    8.4018  -29.9769 F   0  0  0  0  0  0  0  0  0  0  0  0
  -18.2322    5.9429  -31.0089 N   0  0  0  0  0  0  0  0  0  0  0  0
  -14.0013    9.1310  -27.6197 N   0  0  0  0  0  0  0  0  0  0  0  0
  -19.3344    4.5618  -22.8291 N   0  0  0  0  0  0  0  0  0  0  0  0
  -20.3571    4.7711  -27.7358 N   0  0  0  0  0  0  0  0  0  0  0  0
  -17.6210    5.2523  -28.2871 O   0  0  0  0  0  0  0  0  0  0  0  0
  -15.6057    4.6503  -26.2832 O   0  0  0  0  0  0  0  0  0  0  0  0
  -16.4648    4.9739  -23.5640 O   0  0  0  0  0  0  0  0  0  0  0  0
  -15.5107    6.2906  -31.4907 O   0  0  0  0  0  0  0  0  0  0  0  0
  -16.5925    7.3911  -27.8687 O   0  0  0  0  0  0  0  0  0  0  0  0
  1  5  1  0  0  0  0
  1 18  1  1  0  0  0
  2 18  1  6  0  0  0
  2  3  1  0  0  0  0
  2 12  1  0  0  0  0
  3 19  1  6  0  0  0
  3  4  1  0  0  0  0
  4 20  1  1  0  0  0
  4 10  1  0  0  0  0
  5  6  1  0  0  0  0
  5 14  1  6  0  0  0
  6 21  1  6  0  0  0
  7 13  1  6  0  0  0
  7  6  1  0  0  0  0
  8  9  1  1  0  0  0
  8  7  1  0  0  0  0
 10 16  1  1  0  0  0
 11 10  1  0  0  0  0
 12 17  1  6  0  0  0
 12 11  1  0  0  0  0
 15  9  1  0  0  0  0
 22  8  1  0  0  0  0
 22  1  1  0  0  0  0
M  END
>  <CHROM.1>
-176.75935468,-65.70758035,51.62637545,-16.92574784,6.03734681,-27.50351104
1.00050113,-0.49191418,-1.40831294

>  <Name>
lig.pdb

>  <RI>
0

>  <Rbt.Current_Directory>
/home/itssahil/PROJECTS/Mol_Feturizer/New_Systems/rnas/5bws

>  <Rbt.Executable>
rbdock ($Id: //depot/dev/client3/rdock/2013.1/src/exe/rbdock.cxx#4 $)

>  <Rbt.Library>
libRbt.so (2013.1, Build901 2013/11/27)

>  <Rbt.Parameter_File>
/export/apps/rDock/src/rDock_2013.1_src/data/scripts/dock_solv.prm

>  <Rbt.Receptor>
prm/blind_docking_80.prm

>  <SCORE>
-4.51865

>  <SCORE.INTER>
-2.73294

>  <SCORE.INTER.CONST>
1

>  <SCORE.INTER.POLAR>
0

>  <SCORE.INTER.ROT>
3

>  <SCORE.INTER.SOLV>
14.3938

>  <SCORE.INTER.VDW>
-12.2199

>  <SCORE.INTER.norm>
-0.124225

>  <SCORE.INTRA>
-1.78571

>  <SCORE.INTRA.DIHEDRAL>
-5.64347

>  <SCORE.INTRA.DIHEDRAL.0>
6.10773

>  <SCORE.INTRA.POLAR>
0

>  <SCORE.INTRA.POLAR.0>
0

>  <SCORE.INTRA.REPUL>
0

>  <SCORE.INTRA.REPUL.0>
0

>  <SCORE.INTRA.SOLV>
1.36095

>  <SCORE.INTRA.SOLV.lig_0>
-71.4024

>  <SCORE.INTRA.VDW>
0.355554

>  <SCORE.INTRA.VDW.0>
-1.86213

>  <SCORE.INTRA.norm>
-0.0811685

>  <SCORE.RESTR>
0

>  <SCORE.RESTR.CAVITY>
0

>  <SCORE.RESTR.norm>
0

>  <SCORE.SYSTEM>
0

>  <SCORE.SYSTEM.CONST>
0

>  <SCORE.SYSTEM.DIHEDRAL>
0

>  <SCORE.SYSTEM.SOLV>
0

>  <SCORE.SYSTEM.norm>
0

>  <SCORE.heavy>
22

>  <SCORE.norm>
-0.205393

>  <RMSD>
31.339

$$$$
lig.pdb
 OpenBabel11021811523D
libRbt.so/2013.1/901 2013/11/27
 22 23  0  0  0  0  0  0  0  0999 V2000
   -9.8979  -11.4289  -29.3105 C   0  0  1  0  0  0  0  0  0  0  0  0
  -10.4686   -8.9765  -29.0844 C   0  0  1  0  0  0  0  0  0  0  0  0
  -11.9631   -9.0289  -29.6328 C   0  0  1  0  0  0  0  0  0  0  0  0
  -12.3424   -7.5726  -30.1623 C   0  0  2  0  0  0  0  0  0  0  0  0
   -9.7525  -12.6655  -28.3411 C   0  0  1  0  0  0  0  0  0  0  0  0
   -8.4939  -12.4485  -27.4780 C   0  0  2  0  0  0  0  0  0  0  0  0
   -7.2329  -12.3700  -28.3567 C   0  0  2  0  0  0  0  0  0  0  0  0
   -7.3221  -11.1752  -29.3749 C   0  0  1  0  0  0  0  0  0  0  0  0
   -6.0741  -11.1256  -30.3028 C   0  0  0  0  0  0  0  0  0  0  0  0
  -12.2858   -6.5311  -28.9317 C   0  0  1  0  0  0  0  0  0  0  0  0
  -10.7645   -6.5065  -28.4037 C   0  0  0  0  0  0  0  0  0  0  0  0
  -10.3448   -7.9641  -27.9016 C   0  0  2  0  0  0  0  0  0  0  0  0
   -7.0620  -13.6215  -29.1035 F   0  0  0  0  0  0  0  0  0  0  0  0
  -11.0085  -12.7428  -27.4984 N   0  0  0  0  0  0  0  0  0  0  0  0
   -5.9153  -12.2498  -31.1450 N   0  0  0  0  0  0  0  0  0  0  0  0
  -12.6200   -5.1379  -29.3857 N   0  0  0  0  0  0  0  0  0  0  0  0
   -8.9485   -7.9349  -27.4204 N   0  0  0  0  0  0  0  0  0  0  0  0
  -10.0840  -10.2506  -28.5907 O   0  0  0  0  0  0  0  0  0  0  0  0
  -12.0028   -9.9940  -30.7568 O   0  0  0  0  0  0  0  0  0  0  0  0
  -13.6509   -7.6471  -30.6453 O   0  0  0  0  0  0  0  0  0  0  0  0
   -8.3886  -13.3521  -26.7738 O   0  0  0  0  0  0  0  0  0  0  0  0
   -8.6324  -11.3610  -30.1615 O   0  0  0  0  0  0  0  0  0  0  0  0
  1  5  1  0  0  0  0
  1 18  1  1  0  0  0
  2 18  1  1  0  0  0
  2  3  1  0  0  0  0
  2 12  1  0  0  0  0
  3 19  1  6  0  0  0
  3  4  1  0  0  0  0
  4 20  1  1  0  0  0
  4 10  1  0  0  0  0
  5  6  1  0  0  0  0
  5 14  1  1  0  0  0
  6 21  1  1  0  0  0
  7 13  1  6  0  0  0
  7  6  1  0  0  0  0
  8  9  1  6  0  0  0
  8  7  1  0  0  0  0
 10 16  1  6  0  0  0
 11 10  1  0  0  0  0
 12 17  1  6  0  0  0
 12 11  1  0  0  0  0
 15  9  1  0  0  0  0
 22  8  1  0  0  0  0
 22  1  1  0  0  0  0
M  END
>  <CHROM.1>
-168.76380611,66.72347573,63.41038778,-9.75808742,-10.16684677,-29.05252097
0.83515063,-0.29251845,2.78991550

>  <Name>
lig.pdb

>  <RI>
0

>  <Rbt.Current_Directory>
/home/itssahil/PROJECTS/Mol_Feturizer/New_Systems/rnas/5bws

>  <Rbt.Executable>
rbdock ($Id: //depot/dev/client3/rdock/2013.1/src/exe/rbdock.cxx#4 $)

>  <Rbt.Library>
libRbt.so (2013.1, Build901 2013/11/27)

>  <Rbt.Parameter_File>
/export/apps/rDock/src/rDock_2013.1_src/data/scripts/dock_solv.prm

>  <Rbt.Receptor>
prm/blind_docking_40.prm

>  <SCORE>
-5.57243

>  <SCORE.INTER>
-3.3729

>  <SCORE.INTER.CONST>
1

>  <SCORE.INTER.POLAR>
0

>  <SCORE.INTER.ROT>
3

>  <SCORE.INTER.SOLV>
21.5641

>  <SCORE.INTER.VDW>
-15.0366

>  <SCORE.INTER.norm>
-0.153314

>  <SCORE.INTRA>
-2.20205

>  <SCORE.INTRA.DIHEDRAL>
-5.23754

>  <SCORE.INTRA.DIHEDRAL.0>
6.10773

>  <SCORE.INTRA.POLAR>
0

>  <SCORE.INTRA.POLAR.0>
0

>  <SCORE.INTRA.REPUL>
0

>  <SCORE.INTRA.REPUL.0>
0

>  <SCORE.INTRA.SOLV>
0.234181

>  <SCORE.INTRA.SOLV.lig_0>
-71.4024

>  <SCORE.INTRA.VDW>
0.299634

>  <SCORE.INTRA.VDW.0>
-1.86213

>  <SCORE.INTRA.norm>
-0.100093

>  <SCORE.RESTR>
0.00251581

>  <SCORE.RESTR.CAVITY>
0.00251581

>  <SCORE.RESTR.norm>
0.000114355

>  <SCORE.SYSTEM>
0

>  <SCORE.SYSTEM.CONST>
0

>  <SCORE.SYSTEM.DIHEDRAL>
0

>  <SCORE.SYSTEM.SOLV>
0

>  <SCORE.SYSTEM.norm>
0

>  <SCORE.heavy>
22

>  <SCORE.norm>
-0.253292

>  <RMSD>
31.420

$$$$
lig.pdb
 OpenBabel11021811523D
libRbt.so/2013.1/901 2013/11/27
 22 23  0  0  0  0  0  0  0  0999 V2000
  -12.0192   -7.3649  -29.8516 C   0  0  1  0  0  0  0  0  0  0  0  0
  -10.5609   -8.7100  -28.2847 C   0  0  1  0  0  0  0  0  0  0  0  0
  -11.0404  -10.1034  -28.8894 C   0  0  1  0  0  0  0  0  0  0  0  0
   -9.9482  -11.2033  -28.5121 C   0  0  2  0  0  0  0  0  0  0  0  0
  -12.7521   -5.9680  -29.8099 C   0  0  1  0  0  0  0  0  0  0  0  0
  -13.9371   -6.0812  -28.8305 C   0  0  2  0  0  0  0  0  0  0  0  0
  -14.9436   -7.1433  -29.3076 C   0  0  2  0  0  0  0  0  0  0  0  0
  -14.2714   -8.5613  -29.4053 C   0  0  1  0  0  0  0  0  0  0  0  0
  -15.2703   -9.6276  -29.9402 C   0  0  0  0  0  0  0  0  0  0  0  0
   -8.5412  -10.8072  -29.1945 C   0  0  1  0  0  0  0  0  0  0  0  0
   -8.0904   -9.3965  -28.5618 C   0  0  0  0  0  0  0  0  0  0  0  0
   -9.1871   -8.2826  -28.8925 C   0  0  2  0  0  0  0  0  0  0  0  0
  -15.4757   -6.7757  -30.6247 F   0  0  0  0  0  0  0  0  0  0  0  0
  -11.7450   -4.9304  -29.3599 N   0  0  0  0  0  0  0  0  0  0  0  0
  -16.3852   -9.8685  -29.1051 N   0  0  0  0  0  0  0  0  0  0  0  0
   -7.4731  -11.8078  -28.8529 N   0  0  0  0  0  0  0  0  0  0  0  0
   -8.7685   -6.9921  -28.3082 N   0  0  0  0  0  0  0  0  0  0  0  0
  -11.4973   -7.6914  -28.6018 O   0  0  0  0  0  0  0  0  0  0  0  0
  -12.3364  -10.4516  -28.2605 O   0  0  0  0  0  0  0  0  0  0  0  0
  -10.3954  -12.4149  -29.0443 O   0  0  0  0  0  0  0  0  0  0  0  0
  -14.4713   -5.0627  -28.8034 O   0  0  0  0  0  0  0  0  0  0  0  0
  -13.0375   -8.4044  -30.3126 O   0  0  0  0  0  0  0  0  0  0  0  0
  1  5  1  0  0  0  0
  1 18  1  1  0  0  0
  2 18  1  6  0  0  0
  2  3  1  0  0  0  0
  2 12  1  0  0  0  0
  3 19  1  1  0  0  0
  3  4  1  0  0  0  0
  4 20  1  6  0  0  0
  4 10  1  0  0  0  0
  5  6  1  0  0  0  0
  5 14  1  1  0  0  0
  6 21  1  6  0  0  0
  7 13  1  6  0  0  0
  7  6  1  0  0  0  0
  8  9  1  6  0  0  0
  8  7  1  0  0  0  0
 10 16  1  1  0  0  0
 11 10  1  0  0  0  0
 12 17  1  1  0  0  0
 12 11  1  0  0  0  0
 15  9  1  0  0  0  0
 22  8  1  0  0  0  0
 22  1  1  0  0  0  0
M  END
>  <CHROM.1>
-166.48237165,-51.51982363,-63.76631199,-11.99236636,-8.51381788,-29.14609233
-2.58491486,0.14050900,3.13097651

>  <Name>
lig.pdb

>  <RI>
0

>  <Rbt.Current_Directory>
/home/itssahil/PROJECTS/Mol_Feturizer/New_Systems/rnas/5bws

>  <Rbt.Executable>
rbdock ($Id: //depot/dev/client3/rdock/2013.1/src/exe/rbdock.cxx#4 $)

>  <Rbt.Library>
libRbt.so (2013.1, Build901 2013/11/27)

>  <Rbt.Parameter_File>
/export/apps/rDock/src/rDock_2013.1_src/data/scripts/dock_solv.prm

>  <Rbt.Receptor>
prm/blind_docking_60.prm

>  <SCORE>
-7.15928

>  <SCORE.INTER>
-5.23628

>  <SCORE.INTER.CONST>
1

>  <SCORE.INTER.POLAR>
0

>  <SCORE.INTER.ROT>
3

>  <SCORE.INTER.SOLV>
18.2185

>  <SCORE.INTER.VDW>
-15.1637

>  <SCORE.INTER.norm>
-0.238013

>  <SCORE.INTRA>
-1.923

>  <SCORE.INTRA.DIHEDRAL>
-4.84009

>  <SCORE.INTRA.DIHEDRAL.0>
6.10773

>  <SCORE.INTRA.POLAR>
0

>  <SCORE.INTRA.POLAR.0>
0

>  <SCORE.INTRA.REPUL>
0

>  <SCORE.INTRA.REPUL.0>
0

>  <SCORE.INTRA.SOLV>
0.656368

>  <SCORE.INTRA.SOLV.lig_0>
-71.4024

>  <SCORE.INTRA.VDW>
0.168862

>  <SCORE.INTRA.VDW.0>
-1.86213

>  <SCORE.INTRA.norm>
-0.087409

>  <SCORE.RESTR>
0

>  <SCORE.RESTR.CAVITY>
0

>  <SCORE.RESTR.norm>
0

>  <SCORE.SYSTEM>
0

>  <SCORE.SYSTEM.CONST>
0

>  <SCORE.SYSTEM.DIHEDRAL>
0

>  <SCORE.SYSTEM.SOLV>
0

>  <SCORE.SYSTEM.norm>
0

>  <SCORE.heavy>
22

>  <SCORE.norm>
-0.325422

>  <RMSD>
31.494

$$$$
lig.pdb
 OpenBabel11021811523D
libRbt.so/2013.1/901 2013/11/27
 22 23  0  0  0  0  0  0  0  0999 V2000
  -12.0168   -7.4629  -29.8832 C   0  0  1  0  0  0  0  0  0  0  0  0
  -10.5681   -8.8081  -28.3075 C   0  0  1  0  0  0  0  0  0  0  0  0
  -11.0643  -10.1974  -28.9080 C   0  0  1  0  0  0  0  0  0  0  0  0
   -9.9888  -11.3106  -28.5214 C   0  0  2  0  0  0  0  0  0  0  0  0
  -12.7048   -6.0429  -29.8637 C   0  0  1  0  0  0  0  0  0  0  0  0
  -13.8798   -6.0967  -28.8674 C   0  0  2  0  0  0  0  0  0  0  0  0
  -14.9254   -7.1365  -29.3078 C   0  0  2  0  0  0  0  0  0  0  0  0
  -14.2995   -8.5770  -29.3820 C   0  0  1  0  0  0  0  0  0  0  0  0
  -15.3385   -9.6225  -29.8803 C   0  0  0  0  0  0  0  0  0  0  0  0
   -8.5737  -10.9369  -29.1998 C   0  0  1  0  0  0  0  0  0  0  0  0
   -8.1061   -9.5297  -28.5716 C   0  0  0  0  0  0  0  0  0  0  0  0
   -9.1861   -8.4024  -28.9116 C   0  0  2  0  0  0  0  0  0  0  0  0
  -15.4630   -6.7814  -30.6262 F   0  0  0  0  0  0  0  0  0  0  0  0
  -11.6597   -5.0281  -29.4498 N   0  0  0  0  0  0  0  0  0  0  0  0
  -16.4669   -9.7835  -29.0440 N   0  0  0  0  0  0  0  0  0  0  0  0
   -7.5209  -11.9505  -28.8494 N   0  0  0  0  0  0  0  0  0  0  0  0
   -8.7521   -7.1151  -28.3313 N   0  0  0  0  0  0  0  0  0  0  0  0
  -11.4891   -7.7781  -28.6329 O   0  0  0  0  0  0  0  0  0  0  0  0
  -12.3675  -10.5250  -28.2828 O   0  0  0  0  0  0  0  0  0  0  0  0
  -10.4505  -12.5182  -29.0501 O   0  0  0  0  0  0  0  0  0  0  0  0
  -14.3812   -5.0614  -28.8565 O   0  0  0  0  0  0  0  0  0  0  0  0
  -13.0734   -8.4795  -30.3079 O   0  0  0  0  0  0  0  0  0  0  0  0
  1  5  1  0  0  0  0
  1 18  1  1  0  0  0
  2 18  1  6  0  0  0
  2  3  1  0  0  0  0
  2 12  1  0  0  0  0
  3 19  1  1  0  0  0
  3  4  1  0  0  0  0
  4 20  1  6  0  0  0
  4 10  1  0  0  0  0
  5  6  1  0  0  0  0
  5 14  1  1  0  0  0
  6 21  1  6  0  0  0
  7 13  1  6  0  0  0
  7  6  1  0  0  0  0
  8  9  1  6  0  0  0
  8  7  1  0  0  0  0
 10 16  1  1  0  0  0
 11 10  1  0  0  0  0
 12 17  1  1  0  0  0
 12 11  1  0  0  0  0
 15  9  1  0  0  0  0
 22  8  1  0  0  0  0
 22  1  1  0  0  0  0
M  END
>  <CHROM.1>
-165.60648879,-50.46097907,-62.15397009,-11.99807963,-8.58056836,-29.15884458
-2.56786671,0.13138155,3.11565682

>  <Name>
lig.pdb

>  <RI>
0

>  <Rbt.Current_Directory>
/home/itssahil/PROJECTS/Mol_Feturizer/New_Systems/rnas/5bws

>  <Rbt.Executable>
rbdock ($Id: //depot/dev/client3/rdock/2013.1/src/exe/rbdock.cxx#4 $)

>  <Rbt.Library>
libRbt.so (2013.1, Build901 2013/11/27)

>  <Rbt.Parameter_File>
/export/apps/rDock/src/rDock_2013.1_src/data/scripts/dock_solv.prm

>  <Rbt.Receptor>
prm/blind_docking_100.prm

>  <SCORE>
-7.07929

>  <SCORE.INTER>
-5.24597

>  <SCORE.INTER.CONST>
1

>  <SCORE.INTER.POLAR>
0

>  <SCORE.INTER.ROT>
3

>  <SCORE.INTER.SOLV>
17.8096

>  <SCORE.INTER.VDW>
-15.0338

>  <SCORE.INTER.norm>
-0.238453

>  <SCORE.INTRA>
-1.83332

>  <SCORE.INTRA.DIHEDRAL>
-4.67382

>  <SCORE.INTRA.DIHEDRAL.0>
6.10773

>  <SCORE.INTRA.POLAR>
0

>  <SCORE.INTRA.POLAR.0>
0

>  <SCORE.INTRA.REPUL>
0

>  <SCORE.INTRA.REPUL.0>
0

>  <SCORE.INTRA.SOLV>
0.680062

>  <SCORE.INTRA.SOLV.lig_0>
-71.4024

>  <SCORE.INTRA.VDW>
0.163559

>  <SCORE.INTRA.VDW.0>
-1.86213

>  <SCORE.INTRA.norm>
-0.0833328

>  <SCORE.RESTR>
0

>  <SCORE.RESTR.CAVITY>
0

>  <SCORE.RESTR.norm>
0

>  <SCORE.SYSTEM>
0

>  <SCORE.SYSTEM.CONST>
0

>  <SCORE.SYSTEM.DIHEDRAL>
0

>  <SCORE.SYSTEM.SOLV>
0

>  <SCORE.SYSTEM.norm>
0

>  <SCORE.heavy>
22

>  <SCORE.norm>
-0.321786

>  <RMSD>
31.531

$$$$
lig.pdb
 OpenBabel11021811523D
libRbt.so/2013.1/901 2013/11/27
 22 23  0  0  0  0  0  0  0  0999 V2000
  -18.2475    5.0438  -27.1449 C   0  0  1  0  0  0  0  0  0  0  0  0
  -19.3019    7.3128  -27.5074 C   0  0  1  0  0  0  0  0  0  0  0  0
  -20.5152    7.0268  -28.4989 C   0  0  1  0  0  0  0  0  0  0  0  0
  -20.8134    8.3688  -29.3084 C   0  0  2  0  0  0  0  0  0  0  0  0
  -18.1645    3.9772  -25.9850 C   0  0  1  0  0  0  0  0  0  0  0  0
  -17.4417    4.6291  -24.7896 C   0  0  2  0  0  0  0  0  0  0  0  0
  -16.0094    5.0414  -25.1730 C   0  0  2  0  0  0  0  0  0  0  0  0
  -16.0130    6.0829  -26.3510 C   0  0  1  0  0  0  0  0  0  0  0  0
  -14.5657    6.4608  -26.7791 C   0  0  0  0  0  0  0  0  0  0  0  0
  -21.2603    9.5225  -28.2733 C   0  0  1  0  0  0  0  0  0  0  0  0
  -20.0128    9.7822  -27.2885 C   0  0  0  0  0  0  0  0  0  0  0  0
  -19.6673    8.4413  -26.4914 C   0  0  2  0  0  0  0  0  0  0  0  0
  -15.2390    3.8614  -25.5818 F   0  0  0  0  0  0  0  0  0  0  0  0
  -19.5787    3.5652  -25.6332 N   0  0  0  0  0  0  0  0  0  0  0  0
  -14.4830    7.4585  -27.7772 N   0  0  0  0  0  0  0  0  0  0  0  0
  -21.5366   10.8148  -28.9891 N   0  0  0  0  0  0  0  0  0  0  0  0
  -18.5215    8.6859  -25.5916 N   0  0  0  0  0  0  0  0  0  0  0  0
  -19.0016    6.1480  -26.7536 O   0  0  0  0  0  0  0  0  0  0  0  0
  -20.0946    5.9608  -29.4387 O   0  0  0  0  0  0  0  0  0  0  0  0
  -21.8724    8.0899  -30.1754 O   0  0  0  0  0  0  0  0  0  0  0  0
  -17.3803    3.8492  -23.9462 O   0  0  0  0  0  0  0  0  0  0  0  0
  -16.8191    5.4492  -27.4994 O   0  0  0  0  0  0  0  0  0  0  0  0
  1  5  1  0  0  0  0
  1 18  1  1  0  0  0
  2 18  1  1  0  0  0
  2  3  1  0  0  0  0
  2 12  1  0  0  0  0
  3 19  1  6  0  0  0
  3  4  1  0  0  0  0
  4 20  1  6  0  0  0
  4 10  1  0  0  0  0
  5  6  1  0  0  0  0
  5 14  1  1  0  0  0
  6 21  1  1  0  0  0
  7 13  1  6  0  0  0
  7  6  1  0  0  0  0
  8  9  1  6  0  0  0
  8  7  1  0  0  0  0
 10 16  1  6  0  0  0
 11 10  1  0  0  0  0
 12 17  1  1  0  0  0
 12 11  1  0  0  0  0
 15  9  1  0  0  0  0
 22  8  1  0  0  0  0
 22  1  1  0  0  0  0
M  END
>  <CHROM.1>
179.76190064,80.91065029,-176.13684505,-18.43658908,6.55267202,-27.04048607
0.81216173,0.24433099,2.72828623

>  <Name>
lig.pdb

>  <RI>
0

>  <Rbt.Current_Directory>
/home/itssahil/PROJECTS/Mol_Feturizer/New_Systems/rnas/5bws

>  <Rbt.Executable>
rbdock ($Id: //depot/dev/client3/rdock/2013.1/src/exe/rbdock.cxx#4 $)

>  <Rbt.Library>
libRbt.so (2013.1, Build901 2013/11/27)

>  <Rbt.Parameter_File>
/export/apps/rDock/src/rDock_2013.1_src/data/scripts/dock_solv.prm

>  <Rbt.Receptor>
prm/blind_docking_60.prm

>  <SCORE>
-4.25441

>  <SCORE.INTER>
-1.71995

>  <SCORE.INTER.CONST>
1

>  <SCORE.INTER.POLAR>
0

>  <SCORE.INTER.ROT>
3

>  <SCORE.INTER.SOLV>
16.6821

>  <SCORE.INTER.VDW>
-12.3073

>  <SCORE.INTER.norm>
-0.0781798

>  <SCORE.INTRA>
-2.53445

>  <SCORE.INTRA.DIHEDRAL>
-4.10172

>  <SCORE.INTRA.DIHEDRAL.0>
6.10773

>  <SCORE.INTRA.POLAR>
0

>  <SCORE.INTRA.POLAR.0>
0

>  <SCORE.INTRA.REPUL>
0

>  <SCORE.INTRA.REPUL.0>
0

>  <SCORE.INTRA.SOLV>
-0.977426

>  <SCORE.INTRA.SOLV.lig_0>
-71.4024

>  <SCORE.INTRA.VDW>
0.00511977

>  <SCORE.INTRA.VDW.0>
-1.86213

>  <SCORE.INTRA.norm>
-0.115202

>  <SCORE.RESTR>
0

>  <SCORE.RESTR.CAVITY>
0

>  <SCORE.RESTR.norm>
0

>  <SCORE.SYSTEM>
0

>  <SCORE.SYSTEM.CONST>
0

>  <SCORE.SYSTEM.DIHEDRAL>
0

>  <SCORE.SYSTEM.SOLV>
0

>  <SCORE.SYSTEM.norm>
0

>  <SCORE.heavy>
22

>  <SCORE.norm>
-0.193382

>  <RMSD>
31.633

$$$$
lig.pdb
 OpenBabel11021811523D
libRbt.so/2013.1/901 2013/11/27
 22 23  0  0  0  0  0  0  0  0999 V2000
  -19.2978    5.1649  -26.6673 C   0  0  1  0  0  0  0  0  0  0  0  0
  -16.8737    5.0980  -27.3819 C   0  0  1  0  0  0  0  0  0  0  0  0
  -17.0539    5.9781  -28.6972 C   0  0  1  0  0  0  0  0  0  0  0  0
  -15.6361    6.6134  -29.0598 C   0  0  2  0  0  0  0  0  0  0  0  0
  -20.3657    4.1401  -26.1200 C   0  0  1  0  0  0  0  0  0  0  0  0
  -20.6952    3.1462  -27.2514 C   0  0  2  0  0  0  0  0  0  0  0  0
  -21.2999    3.8761  -28.4639 C   0  0  2  0  0  0  0  0  0  0  0  0
  -20.2996    4.9413  -29.0442 C   0  0  1  0  0  0  0  0  0  0  0  0
  -20.9278    5.7204  -30.2355 C   0  0  0  0  0  0  0  0  0  0  0  0
  -15.1671    7.5812  -27.8574 C   0  0  1  0  0  0  0  0  0  0  0  0
  -14.9979    6.6592  -26.5479 C   0  0  0  0  0  0  0  0  0  0  0  0
  -16.3969    5.9788  -26.1835 C   0  0  2  0  0  0  0  0  0  0  0  0
  -22.5434    4.5513  -28.0751 F   0  0  0  0  0  0  0  0  0  0  0  0
  -19.7654    3.4455  -24.9156 N   0  0  0  0  0  0  0  0  0  0  0  0
  -21.1592    4.9460  -31.3954 N   0  0  0  0  0  0  0  0  0  0  0  0
  -13.8246    8.1919  -28.1462 N   0  0  0  0  0  0  0  0  0  0  0  0
  -16.2343    5.1335  -24.9830 N   0  0  0  0  0  0  0  0  0  0  0  0
  -18.1137    4.5156  -27.0098 O   0  0  0  0  0  0  0  0  0  0  0  0
  -17.4918    5.0792  -29.7910 O   0  0  0  0  0  0  0  0  0  0  0  0
  -15.8183    7.3711  -30.2190 O   0  0  0  0  0  0  0  0  0  0  0  0
  -21.4753    2.4016  -26.8511 O   0  0  0  0  0  0  0  0  0  0  0  0
  -19.9116    5.8663  -27.8762 O   0  0  0  0  0  0  0  0  0  0  0  0
  1  5  1  0  0  0  0
  1 18  1  6  0  0  0
  2 18  1  1  0  0  0
  2  3  1  0  0  0  0
  2 12  1  0  0  0  0
  3 19  1  6  0  0  0
  3  4  1  0  0  0  0
  4 20  1  6  0  0  0
  4 10  1  0  0  0  0
  5  6  1  0  0  0  0
  5 14  1  1  0  0  0
  6 21  1  1  0  0  0
  7 13  1  1  0  0  0
  7  6  1  0  0  0  0
  8  9  1  6  0  0  0
  8  7  1  0  0  0  0
 10 16  1  6  0  0  0
 11 10  1  0  0  0  0
 12 17  1  1  0  0  0
 12 11  1  0  0  0  0
 15  9  1  0  0  0  0
 22  8  1  0  0  0  0
 22  1  1  0  0  0  0
M  END
>  <CHROM.1>
-171.72430499,-60.64571682,-67.32414117,-18.49854577,5.27269171,-27.87837496
-2.97847772,-0.42429470,-1.19301999

>  <Name>
lig.pdb

>  <RI>
0

>  <Rbt.Current_Directory>
/home/itssahil/PROJECTS/Mol_Feturizer/New_Systems/rnas/5bws

>  <Rbt.Executable>
rbdock ($Id: //depot/dev/client3/rdock/2013.1/src/exe/rbdock.cxx#4 $)

>  <Rbt.Library>
libRbt.so (2013.1, Build901 2013/11/27)

>  <Rbt.Parameter_File>
/export/apps/rDock/src/rDock_2013.1_src/data/scripts/dock_solv.prm

>  <Rbt.Receptor>
prm/blind_docking_80.prm

>  <SCORE>
-5.96032

>  <SCORE.INTER>
-3.55287

>  <SCORE.INTER.CONST>
1

>  <SCORE.INTER.POLAR>
0

>  <SCORE.INTER.ROT>
3

>  <SCORE.INTER.SOLV>
17.6026

>  <SCORE.INTER.VDW>
-13.8361

>  <SCORE.INTER.norm>
-0.161494

>  <SCORE.INTRA>
-2.40745

>  <SCORE.INTRA.DIHEDRAL>
-5.57795

>  <SCORE.INTRA.DIHEDRAL.0>
6.10773

>  <SCORE.INTRA.POLAR>
0

>  <SCORE.INTRA.POLAR.0>
0

>  <SCORE.INTRA.REPUL>
0

>  <SCORE.INTRA.REPUL.0>
0

>  <SCORE.INTRA.SOLV>
0.476059

>  <SCORE.INTRA.SOLV.lig_0>
-71.4024

>  <SCORE.INTRA.VDW>
0.1435

>  <SCORE.INTRA.VDW.0>
-1.86213

>  <SCORE.INTRA.norm>
-0.109429

>  <SCORE.RESTR>
0

>  <SCORE.RESTR.CAVITY>
0

>  <SCORE.RESTR.norm>
0

>  <SCORE.SYSTEM>
0

>  <SCORE.SYSTEM.CONST>
0

>  <SCORE.SYSTEM.DIHEDRAL>
0

>  <SCORE.SYSTEM.SOLV>
0

>  <SCORE.SYSTEM.norm>
0

>  <SCORE.heavy>
22

>  <SCORE.norm>
-0.270924

>  <RMSD>
31.789

$$$$
lig.pdb
 OpenBabel11021811523D
libRbt.so/2013.1/901 2013/11/27
 22 23  0  0  0  0  0  0  0  0999 V2000
  -19.2808    5.1648  -26.6768 C   0  0  1  0  0  0  0  0  0  0  0  0
  -16.8558    5.1053  -27.3890 C   0  0  1  0  0  0  0  0  0  0  0  0
  -17.0365    5.9793  -28.7083 C   0  0  1  0  0  0  0  0  0  0  0  0
  -15.6205    6.6192  -29.0700 C   0  0  2  0  0  0  0  0  0  0  0  0
  -20.3460    4.1368  -26.1304 C   0  0  1  0  0  0  0  0  0  0  0  0
  -20.6710    3.1414  -27.2617 C   0  0  2  0  0  0  0  0  0  0  0  0
  -21.2766    3.8687  -28.4753 C   0  0  2  0  0  0  0  0  0  0  0  0
  -20.2789    4.9369  -29.0548 C   0  0  1  0  0  0  0  0  0  0  0  0
  -20.9082    5.7134  -30.2473 C   0  0  0  0  0  0  0  0  0  0  0  0
  -15.1587    7.5939  -27.8705 C   0  0  1  0  0  0  0  0  0  0  0  0
  -14.9887    6.6779  -26.5569 C   0  0  0  0  0  0  0  0  0  0  0  0
  -16.3857    5.9930  -26.1931 C   0  0  2  0  0  0  0  0  0  0  0  0
  -22.5227    4.5401  -28.0884 F   0  0  0  0  0  0  0  0  0  0  0  0
  -19.7450    3.4447  -24.9249 N   0  0  0  0  0  0  0  0  0  0  0  0
  -21.1203    4.9417  -31.4126 N   0  0  0  0  0  0  0  0  0  0  0  0
  -13.8181    8.2092  -28.1584 N   0  0  0  0  0  0  0  0  0  0  0  0
  -16.2224    5.1533  -24.9888 N   0  0  0  0  0  0  0  0  0  0  0  0
  -18.0941    4.5191  -27.0176 O   0  0  0  0  0  0  0  0  0  0  0  0
  -17.4678    5.0741  -29.7995 O   0  0  0  0  0  0  0  0  0  0  0  0
  -15.8031    7.3714  -30.2328 O   0  0  0  0  0  0  0  0  0  0  0  0
  -21.4492    2.3944  -26.8620 O   0  0  0  0  0  0  0  0  0  0  0  0
  -19.8953    5.8636  -27.8868 O   0  0  0  0  0  0  0  0  0  0  0  0
  1  5  1  0  0  0  0
  1 18  1  6  0  0  0
  2 18  1  1  0  0  0
  2  3  1  0  0  0  0
  2 12  1  0  0  0  0
  3 19  1  6  0  0  0
  3  4  1  0  0  0  0
  4 20  1  6  0  0  0
  4 10  1  0  0  0  0
  5  6  1  0  0  0  0
  5 14  1  1  0  0  0
  6 21  1  1  0  0  0
  7 13  1  1  0  0  0
  7  6  1  0  0  0  0
  8  9  1  6  0  0  0
  8  7  1  0  0  0  0
 10 16  1  6  0  0  0
 11 10  1  0  0  0  0
 12 17  1  1  0  0  0
 12 11  1  0  0  0  0
 15  9  1  0  0  0  0
 22  8  1  0  0  0  0
 22  1  1  0  0  0  0
M  END
>  <CHROM.1>
-171.75543172,-60.85254284,-68.07405556,-18.48008286,5.27427456,-27.88903535
-2.97772760,-0.42780696,-1.19545903

>  <Name>
lig.pdb

>  <RI>
0

>  <Rbt.Current_Directory>
/home/itssahil/PROJECTS/Mol_Feturizer/New_Systems/rnas/5bws

>  <Rbt.Executable>
rbdock ($Id: //depot/dev/client3/rdock/2013.1/src/exe/rbdock.cxx#4 $)

>  <Rbt.Library>
libRbt.so (2013.1, Build901 2013/11/27)

>  <Rbt.Parameter_File>
/export/apps/rDock/src/rDock_2013.1_src/data/scripts/dock_solv.prm

>  <Rbt.Receptor>
prm/blind_docking_40.prm

>  <SCORE>
-5.93865

>  <SCORE.INTER>
-3.54128

>  <SCORE.INTER.CONST>
1

>  <SCORE.INTER.POLAR>
0

>  <SCORE.INTER.ROT>
3

>  <SCORE.INTER.SOLV>
17.6507

>  <SCORE.INTER.VDW>
-13.8444

>  <SCORE.INTER.norm>
-0.160967

>  <SCORE.INTRA>
-2.39737

>  <SCORE.INTRA.DIHEDRAL>
-5.53816

>  <SCORE.INTRA.DIHEDRAL.0>
6.10773

>  <SCORE.INTRA.POLAR>
0

>  <SCORE.INTRA.POLAR.0>
0

>  <SCORE.INTRA.REPUL>
0

>  <SCORE.INTRA.REPUL.0>
0

>  <SCORE.INTRA.SOLV>
0.465666

>  <SCORE.INTRA.SOLV.lig_0>
-71.4024

>  <SCORE.INTRA.VDW>
0.138874

>  <SCORE.INTRA.VDW.0>
-1.86213

>  <SCORE.INTRA.norm>
-0.108971

>  <SCORE.RESTR>
0

>  <SCORE.RESTR.CAVITY>
0

>  <SCORE.RESTR.norm>
0

>  <SCORE.SYSTEM>
0

>  <SCORE.SYSTEM.CONST>
0

>  <SCORE.SYSTEM.DIHEDRAL>
0

>  <SCORE.SYSTEM.SOLV>
0

>  <SCORE.SYSTEM.norm>
0

>  <SCORE.heavy>
22

>  <SCORE.norm>
-0.269939

>  <RMSD>
31.791

$$$$
lig.pdb
 OpenBabel11021811523D
libRbt.so/2013.1/901 2013/11/27
 22 23  0  0  0  0  0  0  0  0999 V2000
  -21.2846    8.2625  -26.3696 C   0  0  1  0  0  0  0  0  0  0  0  0
  -19.5816    6.7748  -25.2392 C   0  0  1  0  0  0  0  0  0  0  0  0
  -18.0072    6.5635  -25.3561 C   0  0  1  0  0  0  0  0  0  0  0  0
  -17.6089    5.3253  -24.4323 C   0  0  2  0  0  0  0  0  0  0  0  0
  -21.9037    7.2946  -27.4512 C   0  0  1  0  0  0  0  0  0  0  0  0
  -21.0496    7.4011  -28.7301 C   0  0  2  0  0  0  0  0  0  0  0  0
  -21.0762    8.8345  -29.2897 C   0  0  2  0  0  0  0  0  0  0  0  0
  -20.5019    9.8629  -28.2482 C   0  0  1  0  0  0  0  0  0  0  0  0
  -20.5781   11.3202  -28.7881 C   0  0  0  0  0  0  0  0  0  0  0  0
  -17.9653    5.6739  -22.8981 C   0  0  1  0  0  0  0  0  0  0  0  0
  -19.5603    5.8821  -22.8196 C   0  0  0  0  0  0  0  0  0  0  0  0
  -19.9926    7.0942  -23.7666 C   0  0  2  0  0  0  0  0  0  0  0  0
  -22.4520    9.2163  -29.6284 F   0  0  0  0  0  0  0  0  0  0  0  0
  -21.8907    5.8925  -26.8788 N   0  0  0  0  0  0  0  0  0  0  0  0
  -21.8872   11.8373  -28.9191 N   0  0  0  0  0  0  0  0  0  0  0  0
  -17.6226    4.5274  -21.9887 N   0  0  0  0  0  0  0  0  0  0  0  0
  -21.4564    7.2787  -23.6913 N   0  0  0  0  0  0  0  0  0  0  0  0
  -19.9878    7.8754  -26.0383 O   0  0  0  0  0  0  0  0  0  0  0  0
  -17.6927    6.2518  -26.7704 O   0  0  0  0  0  0  0  0  0  0  0  0
  -16.2283    5.1551  -24.5592 O   0  0  0  0  0  0  0  0  0  0  0  0
  -21.5040    6.6965  -29.5178 O   0  0  0  0  0  0  0  0  0  0  0  0
  -21.3073    9.6743  -26.9498 O   0  0  0  0  0  0  0  0  0  0  0  0
  1  5  1  0  0  0  0
  1 18  1  6  0  0  0
  2 18  1  6  0  0  0
  2  3  1  0  0  0  0
  2 12  1  0  0  0  0
  3 19  1  6  0  0  0
  3  4  1  0  0  0  0
  4 20  1  1  0  0  0
  4 10  1  0  0  0  0
  5  6  1  0  0  0  0
  5 14  1  1  0  0  0
  6 21  1  6  0  0  0
  7 13  1  1  0  0  0
  7  6  1  0  0  0  0
  8  9  1  6  0  0  0
  8  7  1  0  0  0  0
 10 16  1  1  0  0  0
 11 10  1  0  0  0  0
 12 17  1  6  0  0  0
 12 11  1  0  0  0  0
 15  9  1  0  0  0  0
 22  8  1  0  0  0  0
 22  1  1  0  0  0  0
M  END
>  <CHROM.1>
-74.41828267,169.46901798,68.20685382,-20.07237861,7.50812097,-26.35961559
2.30324605,0.78700964,-1.48568260

>  <Name>
lig.pdb

>  <RI>
0

>  <Rbt.Current_Directory>
/home/itssahil/PROJECTS/Mol_Feturizer/New_Systems/rnas/5bws

>  <Rbt.Executable>
rbdock ($Id: //depot/dev/client3/rdock/2013.1/src/exe/rbdock.cxx#4 $)

>  <Rbt.Library>
libRbt.so (2013.1, Build901 2013/11/27)

>  <Rbt.Parameter_File>
/export/apps/rDock/src/rDock_2013.1_src/data/scripts/dock_solv.prm

>  <Rbt.Receptor>
prm/blind_docking_40.prm

>  <SCORE>
-1.30681

>  <SCORE.INTER>
-1.30282

>  <SCORE.INTER.CONST>
1

>  <SCORE.INTER.POLAR>
0

>  <SCORE.INTER.ROT>
3

>  <SCORE.INTER.SOLV>
12.1476

>  <SCORE.INTER.VDW>
-10.5178

>  <SCORE.INTER.norm>
-0.059219

>  <SCORE.INTRA>
-0.00399285

>  <SCORE.INTRA.DIHEDRAL>
-4.35458

>  <SCORE.INTRA.DIHEDRAL.0>
6.10773

>  <SCORE.INTRA.POLAR>
0

>  <SCORE.INTRA.POLAR.0>
0

>  <SCORE.INTRA.REPUL>
0

>  <SCORE.INTRA.REPUL.0>
0

>  <SCORE.INTRA.SOLV>
3.51537

>  <SCORE.INTRA.SOLV.lig_0>
-71.4024

>  <SCORE.INTRA.VDW>
0.415609

>  <SCORE.INTRA.VDW.0>
-1.86213

>  <SCORE.INTRA.norm>
-0.000181493

>  <SCORE.RESTR>
0

>  <SCORE.RESTR.CAVITY>
0

>  <SCORE.RESTR.norm>
0

>  <SCORE.SYSTEM>
0

>  <SCORE.SYSTEM.CONST>
0

>  <SCORE.SYSTEM.DIHEDRAL>
0

>  <SCORE.SYSTEM.SOLV>
0

>  <SCORE.SYSTEM.norm>
0

>  <SCORE.heavy>
22

>  <SCORE.norm>
-0.0594005

>  <RMSD>
31.846

$$$$
lig.pdb
 OpenBabel11021811523D
libRbt.so/2013.1/901 2013/11/27
 22 23  0  0  0  0  0  0  0  0999 V2000
  -12.2361   -7.6066  -30.0140 C   0  0  1  0  0  0  0  0  0  0  0  0
  -10.9581   -9.1800  -28.5033 C   0  0  1  0  0  0  0  0  0  0  0  0
  -11.6231  -10.4748  -29.1499 C   0  0  1  0  0  0  0  0  0  0  0  0
  -10.6891  -11.7243  -28.8158 C   0  0  2  0  0  0  0  0  0  0  0  0
  -12.7562   -6.1191  -29.9305 C   0  0  1  0  0  0  0  0  0  0  0  0
  -13.9300   -6.0804  -28.9319 C   0  0  2  0  0  0  0  0  0  0  0  0
  -15.0881   -6.9732  -29.4118 C   0  0  2  0  0  0  0  0  0  0  0  0
  -14.6320   -8.4715  -29.5506 C   0  0  1  0  0  0  0  0  0  0  0  0
  -15.7842   -9.3682  -30.0885 C   0  0  0  0  0  0  0  0  0  0  0  0
   -9.2428  -11.4997  -29.4940 C   0  0  1  0  0  0  0  0  0  0  0  0
   -8.6038  -10.1847  -28.8187 C   0  0  0  0  0  0  0  0  0  0  0  0
   -9.5403   -8.9224  -29.1057 C   0  0  2  0  0  0  0  0  0  0  0  0
  -15.5807   -6.5020  -30.7112 F   0  0  0  0  0  0  0  0  0  0  0  0
  -11.6014   -5.2500  -29.4782 N   0  0  0  0  0  0  0  0  0  0  0  0
  -16.9150   -9.4521  -29.2442 N   0  0  0  0  0  0  0  0  0  0  0  0
   -8.3193  -12.6464  -29.1922 N   0  0  0  0  0  0  0  0  0  0  0  0
   -8.9496   -7.7205  -28.4823 N   0  0  0  0  0  0  0  0  0  0  0  0
  -11.7486   -8.0340  -28.7808 O   0  0  0  0  0  0  0  0  0  0  0  0
  -12.9531  -10.6652  -28.5243 O   0  0  0  0  0  0  0  0  0  0  0  0
  -11.2973  -12.8459  -29.3843 O   0  0  0  0  0  0  0  0  0  0  0  0
  -14.3089   -4.9958  -28.8743 O   0  0  0  0  0  0  0  0  0  0  0  0
  -13.4024   -8.4757  -30.4771 O   0  0  0  0  0  0  0  0  0  0  0  0
  1  5  1  0  0  0  0
  1 18  1  1  0  0  0
  2 18  1  6  0  0  0
  2  3  1  0  0  0  0
  2 12  1  0  0  0  0
  3 19  1  1  0  0  0
  3  4  1  0  0  0  0
  4 20  1  6  0  0  0
  4 10  1  0  0  0  0
  5  6  1  0  0  0  0
  5 14  1  1  0  0  0
  6 21  1  6  0  0  0
  7 13  1  6  0  0  0
  7  6  1  0  0  0  0
  8  9  1  6  0  0  0
  8  7  1  0  0  0  0
 10 16  1  1  0  0  0
 11 10  1  0  0  0  0
 12 17  1  1  0  0  0
 12 11  1  0  0  0  0
 15  9  1  0  0  0  0
 22  8  1  0  0  0  0
 22  1  1  0  0  0  0
M  END
>  <CHROM.1>
-165.96602782,-50.75644724,-63.15840095,-12.35391965,-8.75474742,-29.33612044
-2.44616100,0.12594700,3.14011406

>  <Name>
lig.pdb

>  <RI>
0

>  <Rbt.Current_Directory>
/home/itssahil/PROJECTS/Mol_Feturizer/New_Systems/rnas/5bws

>  <Rbt.Executable>
rbdock ($Id: //depot/dev/client3/rdock/2013.1/src/exe/rbdock.cxx#4 $)

>  <Rbt.Library>
libRbt.so (2013.1, Build901 2013/11/27)

>  <Rbt.Parameter_File>
/export/apps/rDock/src/rDock_2013.1_src/data/scripts/dock_solv.prm

>  <Rbt.Receptor>
prm/blind_docking_100.prm

>  <SCORE>
-6.82409

>  <SCORE.INTER>
-4.96054

>  <SCORE.INTER.CONST>
1

>  <SCORE.INTER.POLAR>
0

>  <SCORE.INTER.ROT>
3

>  <SCORE.INTER.SOLV>
16.894

>  <SCORE.INTER.VDW>
-14.5384

>  <SCORE.INTER.norm>
-0.225479

>  <SCORE.INTRA>
-1.86355

>  <SCORE.INTRA.DIHEDRAL>
-4.72667

>  <SCORE.INTRA.DIHEDRAL.0>
6.10773

>  <SCORE.INTRA.POLAR>
0

>  <SCORE.INTRA.POLAR.0>
0

>  <SCORE.INTRA.REPUL>
0

>  <SCORE.INTRA.REPUL.0>
0

>  <SCORE.INTRA.SOLV>
0.666141

>  <SCORE.INTRA.SOLV.lig_0>
-71.4024

>  <SCORE.INTRA.VDW>
0.166719

>  <SCORE.INTRA.VDW.0>
-1.86213

>  <SCORE.INTRA.norm>
-0.0847067

>  <SCORE.RESTR>
0

>  <SCORE.RESTR.CAVITY>
0

>  <SCORE.RESTR.norm>
0

>  <SCORE.SYSTEM>
0

>  <SCORE.SYSTEM.CONST>
0

>  <SCORE.SYSTEM.DIHEDRAL>
0

>  <SCORE.SYSTEM.SOLV>
0

>  <SCORE.SYSTEM.norm>
0

>  <SCORE.heavy>
22

>  <SCORE.norm>
-0.310186

>  <RMSD>
31.850

$$$$
lig.pdb
 OpenBabel11021811523D
libRbt.so/2013.1/901 2013/11/27
 22 23  0  0  0  0  0  0  0  0999 V2000
  -12.9251   -8.1127  -29.8828 C   0  0  1  0  0  0  0  0  0  0  0  0
  -11.2919   -9.4621  -28.5032 C   0  0  1  0  0  0  0  0  0  0  0  0
  -11.9275  -10.8035  -29.0808 C   0  0  1  0  0  0  0  0  0  0  0  0
  -10.9068  -11.9946  -28.7896 C   0  0  2  0  0  0  0  0  0  0  0  0
  -13.3856   -6.6041  -29.9290 C   0  0  1  0  0  0  0  0  0  0  0  0
  -14.2817   -6.3420  -28.7024 C   0  0  2  0  0  0  0  0  0  0  0  0
  -15.5357   -7.2335  -28.7385 C   0  0  2  0  0  0  0  0  0  0  0  0
  -15.1509   -8.7580  -28.7283 C   0  0  1  0  0  0  0  0  0  0  0  0
  -16.4132   -9.6628  -28.8206 C   0  0  0  0  0  0  0  0  0  0  0  0
   -9.5234  -11.7078  -29.5682 C   0  0  1  0  0  0  0  0  0  0  0  0
   -8.9130  -10.3470  -28.9606 C   0  0  0  0  0  0  0  0  0  0  0  0
   -9.9338   -9.1424  -29.2049 C   0  0  2  0  0  0  0  0  0  0  0  0
  -16.3209   -6.9477  -29.9447 F   0  0  0  0  0  0  0  0  0  0  0  0
  -12.1419   -5.7402  -29.9146 N   0  0  0  0  0  0  0  0  0  0  0  0
  -17.1358   -9.5523  -30.0307 N   0  0  0  0  0  0  0  0  0  0  0  0
   -8.5209  -12.7974  -29.3102 N   0  0  0  0  0  0  0  0  0  0  0  0
   -9.3687   -7.8981  -28.6439 N   0  0  0  0  0  0  0  0  0  0  0  0
  -12.1602   -8.3657  -28.7461 O   0  0  0  0  0  0  0  0  0  0  0  0
  -13.2003  -11.0510  -28.3631 O   0  0  0  0  0  0  0  0  0  0  0  0
  -11.4899  -13.1584  -29.2961 O   0  0  0  0  0  0  0  0  0  0  0  0
  -14.6181   -5.2425  -28.7394 O   0  0  0  0  0  0  0  0  0  0  0  0
  -14.1826   -8.9778  -29.9048 O   0  0  0  0  0  0  0  0  0  0  0  0
  1  5  1  0  0  0  0
  1 18  1  1  0  0  0
  2 18  1  6  0  0  0
  2  3  1  0  0  0  0
  2 12  1  0  0  0  0
  3 19  1  1  0  0  0
  3  4  1  0  0  0  0
  4 20  1  6  0  0  0
  4 10  1  0  0  0  0
  5  6  1  0  0  0  0
  5 14  1  1  0  0  0
  6 21  1  6  0  0  0
  7 13  1  6  0  0  0
  7  6  1  0  0  0  0
  8  9  1  6  0  0  0
  8  7  1  0  0  0  0
 10 16  1  1  0  0  0
 11 10  1  0  0  0  0
 12 17  1  1  0  0  0
 12 11  1  0  0  0  0
 15  9  1  0  0  0  0
 22  8  1  0  0  0  0
 22  1  1  0  0  0  0
M  END
>  <CHROM.1>
-162.47202856,-39.11161086,64.79914705,-12.77489439,-9.06337386,-29.18181379
-2.48652391,0.03852192,3.12997196

>  <Name>
lig.pdb

>  <RI>
0

>  <Rbt.Current_Directory>
/home/itssahil/PROJECTS/Mol_Feturizer/New_Systems/rnas/5bws

>  <Rbt.Executable>
rbdock ($Id: //depot/dev/client3/rdock/2013.1/src/exe/rbdock.cxx#4 $)

>  <Rbt.Library>
libRbt.so (2013.1, Build901 2013/11/27)

>  <Rbt.Parameter_File>
/export/apps/rDock/src/rDock_2013.1_src/data/scripts/dock_solv.prm

>  <Rbt.Receptor>
prm/blind_docking_60.prm

>  <SCORE>
-6.03109

>  <SCORE.INTER>
-5.8037

>  <SCORE.INTER.CONST>
1

>  <SCORE.INTER.POLAR>
0

>  <SCORE.INTER.ROT>
3

>  <SCORE.INTER.SOLV>
15.3617

>  <SCORE.INTER.VDW>
-14.5897

>  <SCORE.INTER.norm>
-0.263805

>  <SCORE.INTRA>
-0.227394

>  <SCORE.INTRA.DIHEDRAL>
-2.66428

>  <SCORE.INTRA.DIHEDRAL.0>
6.10773

>  <SCORE.INTRA.POLAR>
0

>  <SCORE.INTRA.POLAR.0>
0

>  <SCORE.INTRA.REPUL>
0

>  <SCORE.INTRA.REPUL.0>
0

>  <SCORE.INTRA.SOLV>
1.7719

>  <SCORE.INTRA.SOLV.lig_0>
-71.4024

>  <SCORE.INTRA.VDW>
0.2188

>  <SCORE.INTRA.VDW.0>
-1.86213

>  <SCORE.INTRA.norm>
-0.0103361

>  <SCORE.RESTR>
0

>  <SCORE.RESTR.CAVITY>
0

>  <SCORE.RESTR.norm>
0

>  <SCORE.SYSTEM>
0

>  <SCORE.SYSTEM.CONST>
0

>  <SCORE.SYSTEM.DIHEDRAL>
0

>  <SCORE.SYSTEM.SOLV>
0

>  <SCORE.SYSTEM.norm>
0

>  <SCORE.heavy>
22

>  <SCORE.norm>
-0.274141

>  <RMSD>
31.890

$$$$
lig.pdb
 OpenBabel11021811523D
libRbt.so/2013.1/901 2013/11/27
 22 23  0  0  0  0  0  0  0  0999 V2000
  -19.5645    5.2087  -26.8166 C   0  0  1  0  0  0  0  0  0  0  0  0
  -17.1140    5.0849  -27.4259 C   0  0  1  0  0  0  0  0  0  0  0  0
  -17.2447    5.9558  -28.7531 C   0  0  1  0  0  0  0  0  0  0  0  0
  -15.8055    6.5572  -29.0884 C   0  0  2  0  0  0  0  0  0  0  0  0
  -20.6379    4.2391  -26.1860 C   0  0  1  0  0  0  0  0  0  0  0  0
  -20.9498    3.1379  -27.2187 C   0  0  2  0  0  0  0  0  0  0  0  0
  -21.5390    3.7432  -28.5051 C   0  0  2  0  0  0  0  0  0  0  0  0
  -20.5326    4.7496  -29.1735 C   0  0  1  0  0  0  0  0  0  0  0  0
  -21.1456    5.4058  -30.4441 C   0  0  0  0  0  0  0  0  0  0  0  0
  -15.3439    7.5265  -27.8844 C   0  0  1  0  0  0  0  0  0  0  0  0
  -15.2249    6.6139  -26.5629 C   0  0  0  0  0  0  0  0  0  0  0  0
  -16.6462    5.9671  -26.2249 C   0  0  2  0  0  0  0  0  0  0  0  0
  -22.7890    4.4493  -28.2016 F   0  0  0  0  0  0  0  0  0  0  0  0
  -20.0532    3.6681  -24.9110 N   0  0  0  0  0  0  0  0  0  0  0  0
  -20.2854    6.2964  -31.1263 N   0  0  0  0  0  0  0  0  0  0  0  0
  -13.9822    8.1056  -28.1474 N   0  0  0  0  0  0  0  0  0  0  0  0
  -16.5297    5.1303  -25.0132 N   0  0  0  0  0  0  0  0  0  0  0  0
  -18.3744    4.5327  -27.0774 O   0  0  0  0  0  0  0  0  0  0  0  0
  -17.6764    5.0557  -29.8485 O   0  0  0  0  0  0  0  0  0  0  0  0
  -15.9445    7.3072  -30.2585 O   0  0  0  0  0  0  0  0  0  0  0  0
  -21.7340    2.4336  -26.7578 O   0  0  0  0  0  0  0  0  0  0  0  0
  -20.1626    5.7860  -28.0969 O   0  0  0  0  0  0  0  0  0  0  0  0
  1  5  1  0  0  0  0
  1 18  1  6  0  0  0
  2 18  1  1  0  0  0
  2  3  1  0  0  0  0
  2 12  1  0  0  0  0
  3 19  1  6  0  0  0
  3  4  1  0  0  0  0
  4 20  1  6  0  0  0
  4 10  1  0  0  0  0
  5  6  1  0  0  0  0
  5 14  1  1  0  0  0
  6 21  1  1  0  0  0
  7 13  1  1  0  0  0
  7  6  1  0  0  0  0
  8  9  1  6  0  0  0
  8  7  1  0  0  0  0
 10 16  1  6  0  0  0
 11 10  1  0  0  0  0
 12 17  1  1  0  0  0
 12 11  1  0  0  0  0
 15  9  1  0  0  0  0
 22  8  1  0  0  0  0
 22  1  1  0  0  0  0
M  END
>  <CHROM.1>
-168.42267331,-58.06212980,-178.22757685,-18.67789574,5.29619529,-27.92298610
-2.93144150,-0.41051615,-1.18709607

>  <Name>
lig.pdb

>  <RI>
0

>  <Rbt.Current_Directory>
/home/itssahil/PROJECTS/Mol_Feturizer/New_Systems/rnas/5bws

>  <Rbt.Executable>
rbdock ($Id: //depot/dev/client3/rdock/2013.1/src/exe/rbdock.cxx#4 $)

>  <Rbt.Library>
libRbt.so (2013.1, Build901 2013/11/27)

>  <Rbt.Parameter_File>
/export/apps/rDock/src/rDock_2013.1_src/data/scripts/dock_solv.prm

>  <Rbt.Receptor>
prm/blind_docking_60.prm

>  <SCORE>
-6.79764

>  <SCORE.INTER>
-4.69793

>  <SCORE.INTER.CONST>
1

>  <SCORE.INTER.POLAR>
0

>  <SCORE.INTER.ROT>
3

>  <SCORE.INTER.SOLV>
13.6343

>  <SCORE.INTER.VDW>
-13.2767

>  <SCORE.INTER.norm>
-0.213542

>  <SCORE.INTRA>
-2.09971

>  <SCORE.INTRA.DIHEDRAL>
-5.43401

>  <SCORE.INTRA.DIHEDRAL.0>
6.10773

>  <SCORE.INTRA.POLAR>
0

>  <SCORE.INTRA.POLAR.0>
0

>  <SCORE.INTRA.REPUL>
0

>  <SCORE.INTRA.REPUL.0>
0

>  <SCORE.INTRA.SOLV>
1.41074

>  <SCORE.INTRA.SOLV.lig_0>
-71.4024

>  <SCORE.INTRA.VDW>
-0.0880747

>  <SCORE.INTRA.VDW.0>
-1.86213

>  <SCORE.INTRA.norm>
-0.0954414

>  <SCORE.RESTR>
0

>  <SCORE.RESTR.CAVITY>
0

>  <SCORE.RESTR.norm>
0

>  <SCORE.SYSTEM>
0

>  <SCORE.SYSTEM.CONST>
0

>  <SCORE.SYSTEM.DIHEDRAL>
0

>  <SCORE.SYSTEM.SOLV>
0

>  <SCORE.SYSTEM.norm>
0

>  <SCORE.heavy>
22

>  <SCORE.norm>
-0.308984

>  <RMSD>
31.902

$$$$
lig.pdb
 OpenBabel11021811523D
libRbt.so/2013.1/901 2013/11/27
 22 23  0  0  0  0  0  0  0  0999 V2000
  -20.7378    5.4448  -25.7930 C   0  0  1  0  0  0  0  0  0  0  0  0
  -22.4365    7.3096  -25.9620 C   0  0  1  0  0  0  0  0  0  0  0  0
  -21.6453    8.3208  -26.9045 C   0  0  1  0  0  0  0  0  0  0  0  0
  -22.2202    9.7860  -26.6434 C   0  0  2  0  0  0  0  0  0  0  0  0
  -20.4441    4.1131  -26.5870 C   0  0  1  0  0  0  0  0  0  0  0  0
  -21.5307    3.0859  -26.2122 C   0  0  2  0  0  0  0  0  0  0  0  0
  -21.4924    2.7715  -24.7062 C   0  0  2  0  0  0  0  0  0  0  0  0
  -21.7453    4.0645  -23.8481 C   0  0  1  0  0  0  0  0  0  0  0  0
  -21.6524    3.7621  -22.3247 C   0  0  0  0  0  0  0  0  0  0  0  0
  -23.7806    9.8222  -27.0509 C   0  0  1  0  0  0  0  0  0  0  0  0
  -24.5457    8.7890  -26.0810 C   0  0  0  0  0  0  0  0  0  0  0  0
  -23.9625    7.3168  -26.2944 C   0  0  2  0  0  0  0  0  0  0  0  0
  -20.1877    2.2060  -24.3439 F   0  0  0  0  0  0  0  0  0  0  0  0
  -20.4639    4.4419  -28.0651 N   0  0  0  0  0  0  0  0  0  0  0  0
  -21.9700    4.8522  -21.4824 N   0  0  0  0  0  0  0  0  0  0  0  0
  -24.3727   11.1816  -26.8059 N   0  0  0  0  0  0  0  0  0  0  0  0
  -24.6672    6.3748  -25.4010 N   0  0  0  0  0  0  0  0  0  0  0  0
  -21.9676    5.9850  -26.1634 O   0  0  0  0  0  0  0  0  0  0  0  0
  -20.2134    8.2722  -26.5253 O   0  0  0  0  0  0  0  0  0  0  0  0
  -21.5054   10.6533  -27.4728 O   0  0  0  0  0  0  0  0  0  0  0  0
  -21.3134    2.1153  -26.7903 O   0  0  0  0  0  0  0  0  0  0  0  0
  -20.7094    5.1080  -24.3044 O   0  0  0  0  0  0  0  0  0  0  0  0
  1  5  1  0  0  0  0
  1 18  1  6  0  0  0
  2 18  1  6  0  0  0
  2  3  1  0  0  0  0
  2 12  1  0  0  0  0
  3 19  1  1  0  0  0
  3  4  1  0  0  0  0
  4 20  1  6  0  0  0
  4 10  1  0  0  0  0
  5  6  1  0  0  0  0
  5 14  1  6  0  0  0
  6 21  1  6  0  0  0
  7 13  1  1  0  0  0
  7  6  1  0  0  0  0
  8  9  1  1  0  0  0
  8  7  1  0  0  0  0
 10 16  1  1  0  0  0
 11 10  1  0  0  0  0
 12 17  1  1  0  0  0
 12 11  1  0  0  0  0
 15  9  1  0  0  0  0
 22  8  1  0  0  0  0
 22  1  1  0  0  0  0
M  END
>  <CHROM.1>
-162.06820624,70.49316053,-175.33225683,-21.92450065,6.11560496,-25.70245208
-1.06901167,0.95488009,-0.73700868

>  <Name>
lig.pdb

>  <RI>
0

>  <Rbt.Current_Directory>
/home/itssahil/PROJECTS/Mol_Feturizer/New_Systems/rnas/5bws

>  <Rbt.Executable>
rbdock ($Id: //depot/dev/client3/rdock/2013.1/src/exe/rbdock.cxx#4 $)

>  <Rbt.Library>
libRbt.so (2013.1, Build901 2013/11/27)

>  <Rbt.Parameter_File>
/export/apps/rDock/src/rDock_2013.1_src/data/scripts/dock_solv.prm

>  <Rbt.Receptor>
prm/blind_docking_40.prm

>  <SCORE>
-3.50462

>  <SCORE.INTER>
-1.15468

>  <SCORE.INTER.CONST>
1

>  <SCORE.INTER.POLAR>
0

>  <SCORE.INTER.ROT>
3

>  <SCORE.INTER.SOLV>
15.5359

>  <SCORE.INTER.VDW>
-11.5484

>  <SCORE.INTER.norm>
-0.0524854

>  <SCORE.INTRA>
-2.34994

>  <SCORE.INTRA.DIHEDRAL>
-4.02411

>  <SCORE.INTRA.DIHEDRAL.0>
6.10773

>  <SCORE.INTRA.POLAR>
0

>  <SCORE.INTRA.POLAR.0>
0

>  <SCORE.INTRA.REPUL>
0

>  <SCORE.INTRA.REPUL.0>
0

>  <SCORE.INTRA.SOLV>
-1.23021

>  <SCORE.INTRA.SOLV.lig_0>
-71.4024

>  <SCORE.INTRA.VDW>
0.277218

>  <SCORE.INTRA.VDW.0>
-1.86213

>  <SCORE.INTRA.norm>
-0.106815

>  <SCORE.RESTR>
0

>  <SCORE.RESTR.CAVITY>
0

>  <SCORE.RESTR.norm>
0

>  <SCORE.SYSTEM>
0

>  <SCORE.SYSTEM.CONST>
0

>  <SCORE.SYSTEM.DIHEDRAL>
0

>  <SCORE.SYSTEM.SOLV>
0

>  <SCORE.SYSTEM.norm>
0

>  <SCORE.heavy>
22

>  <SCORE.norm>
-0.159301

>  <RMSD>
31.985

$$$$
lig.pdb
 OpenBabel11021811523D
libRbt.so/2013.1/901 2013/11/27
 22 23  0  0  0  0  0  0  0  0999 V2000
  -19.5271    5.3411  -27.0003 C   0  0  1  0  0  0  0  0  0  0  0  0
  -17.0587    5.1999  -27.5281 C   0  0  1  0  0  0  0  0  0  0  0  0
  -17.1488    6.0676  -28.8607 C   0  0  1  0  0  0  0  0  0  0  0  0
  -15.6974    6.6582  -29.1602 C   0  0  2  0  0  0  0  0  0  0  0  0
  -20.6154    4.3922  -26.3637 C   0  0  1  0  0  0  0  0  0  0  0  0
  -20.9035    3.2578  -27.3669 C   0  0  2  0  0  0  0  0  0  0  0  0
  -21.4620    3.8206  -28.6859 C   0  0  2  0  0  0  0  0  0  0  0  0
  -20.4399    4.8049  -29.3630 C   0  0  1  0  0  0  0  0  0  0  0  0
  -21.0227    5.4191  -30.6684 C   0  0  0  0  0  0  0  0  0  0  0  0
  -15.2605    7.6280  -27.9474 C   0  0  1  0  0  0  0  0  0  0  0  0
  -15.1821    6.7186  -26.6206 C   0  0  0  0  0  0  0  0  0  0  0  0
  -16.6162    6.0825  -26.3179 C   0  0  2  0  0  0  0  0  0  0  0  0
  -22.7185    4.5357  -28.4350 F   0  0  0  0  0  0  0  0  0  0  0  0
  -20.0610    3.8634  -25.0574 N   0  0  0  0  0  0  0  0  0  0  0  0
  -20.1482    6.2912  -31.3563 N   0  0  0  0  0  0  0  0  0  0  0  0
  -13.8885    8.1970  -28.1765 N   0  0  0  0  0  0  0  0  0  0  0  0
  -16.5369    5.2486  -25.1011 N   0  0  0  0  0  0  0  0  0  0  0  0
  -18.3315    4.6574  -27.2109 O   0  0  0  0  0  0  0  0  0  0  0  0
  -17.5581    5.1672  -29.9644 O   0  0  0  0  0  0  0  0  0  0  0  0
  -15.8007    7.4056  -30.3357 O   0  0  0  0  0  0  0  0  0  0  0  0
  -21.6986    2.5687  -26.9018 O   0  0  0  0  0  0  0  0  0  0  0  0
  -20.0948    5.8760  -28.3124 O   0  0  0  0  0  0  0  0  0  0  0  0
  1  5  1  0  0  0  0
  1 18  1  6  0  0  0
  2 18  1  1  0  0  0
  2  3  1  0  0  0  0
  2 12  1  0  0  0  0
  3 19  1  6  0  0  0
  3  4  1  0  0  0  0
  4 20  1  6  0  0  0
  4 10  1  0  0  0  0
  5  6  1  0  0  0  0
  5 14  1  1  0  0  0
  6 21  1  1  0  0  0
  7 13  1  1  0  0  0
  7  6  1  0  0  0  0
  8  9  1  6  0  0  0
  8  7  1  0  0  0  0
 10 16  1  6  0  0  0
 11 10  1  0  0  0  0
 12 17  1  1  0  0  0
 12 11  1  0  0  0  0
 15  9  1  0  0  0  0
 22  8  1  0  0  0  0
 22  1  1  0  0  0  0
M  END
>  <CHROM.1>
-167.39472456,-57.13943953,-178.45952655,-18.60874888,5.39818682,-28.06162381
-2.96552338,-0.42060609,-1.21831166

>  <Name>
lig.pdb

>  <RI>
0

>  <Rbt.Current_Directory>
/home/itssahil/PROJECTS/Mol_Feturizer/New_Systems/rnas/5bws

>  <Rbt.Executable>
rbdock ($Id: //depot/dev/client3/rdock/2013.1/src/exe/rbdock.cxx#4 $)

>  <Rbt.Library>
libRbt.so (2013.1, Build901 2013/11/27)

>  <Rbt.Parameter_File>
/export/apps/rDock/src/rDock_2013.1_src/data/scripts/dock_solv.prm

>  <Rbt.Receptor>
prm/blind_docking_100.prm

>  <SCORE>
-6.73428

>  <SCORE.INTER>
-4.7248

>  <SCORE.INTER.CONST>
1

>  <SCORE.INTER.POLAR>
0

>  <SCORE.INTER.ROT>
3

>  <SCORE.INTER.SOLV>
13.7723

>  <SCORE.INTER.VDW>
-13.3406

>  <SCORE.INTER.norm>
-0.214763

>  <SCORE.INTRA>
-2.00949

>  <SCORE.INTRA.DIHEDRAL>
-5.30038

>  <SCORE.INTRA.DIHEDRAL.0>
6.10773

>  <SCORE.INTRA.POLAR>
0

>  <SCORE.INTRA.POLAR.0>
0

>  <SCORE.INTRA.REPUL>
0

>  <SCORE.INTRA.REPUL.0>
0

>  <SCORE.INTRA.SOLV>
1.44654

>  <SCORE.INTRA.SOLV.lig_0>
-71.4024

>  <SCORE.INTRA.VDW>
-0.0825673

>  <SCORE.INTRA.VDW.0>
-1.86213

>  <SCORE.INTRA.norm>
-0.0913404

>  <SCORE.RESTR>
0

>  <SCORE.RESTR.CAVITY>
0

>  <SCORE.RESTR.norm>
0

>  <SCORE.SYSTEM>
0

>  <SCORE.SYSTEM.CONST>
0

>  <SCORE.SYSTEM.DIHEDRAL>
0

>  <SCORE.SYSTEM.SOLV>
0

>  <SCORE.SYSTEM.norm>
0

>  <SCORE.heavy>
22

>  <SCORE.norm>
-0.306104

>  <RMSD>
32.011

$$$$
lig.pdb
 OpenBabel11021811523D
libRbt.so/2013.1/901 2013/11/27
 22 23  0  0  0  0  0  0  0  0999 V2000
  -12.4221   -7.5992  -30.1484 C   0  0  1  0  0  0  0  0  0  0  0  0
  -11.2740   -9.2962  -28.6674 C   0  0  1  0  0  0  0  0  0  0  0  0
  -12.0259  -10.5029  -29.3855 C   0  0  1  0  0  0  0  0  0  0  0  0
  -11.2184  -11.8418  -29.0685 C   0  0  2  0  0  0  0  0  0  0  0  0
  -12.7832   -6.0659  -30.0551 C   0  0  1  0  0  0  0  0  0  0  0  0
  -13.9207   -5.9064  -29.0270 C   0  0  2  0  0  0  0  0  0  0  0  0
  -15.1768   -6.6744  -29.4750 C   0  0  2  0  0  0  0  0  0  0  0  0
  -14.8819   -8.2118  -29.6220 C   0  0  1  0  0  0  0  0  0  0  0  0
  -16.1340   -8.9843  -30.1282 C   0  0  0  0  0  0  0  0  0  0  0  0
   -9.7338  -11.7233  -29.6884 C   0  0  1  0  0  0  0  0  0  0  0  0
   -9.0072  -10.4952  -28.9418 C   0  0  0  0  0  0  0  0  0  0  0  0
   -9.8178   -9.1450  -29.2114 C   0  0  2  0  0  0  0  0  0  0  0  0
  -15.6513   -6.1543  -30.7625 F   0  0  0  0  0  0  0  0  0  0  0  0
  -11.5335   -5.3211  -29.6345 N   0  0  0  0  0  0  0  0  0  0  0  0
  -17.2544   -8.9281  -29.2679 N   0  0  0  0  0  0  0  0  0  0  0  0
   -8.9266  -12.9577  -29.4000 N   0  0  0  0  0  0  0  0  0  0  0  0
   -9.1472   -8.0234  -28.5226 N   0  0  0  0  0  0  0  0  0  0  0  0
  -11.9499   -8.0752  -28.9271 O   0  0  0  0  0  0  0  0  0  0  0  0
  -13.3897  -10.5958  -28.8129 O   0  0  0  0  0  0  0  0  0  0  0  0
  -11.9014  -12.8838  -29.7000 O   0  0  0  0  0  0  0  0  0  0  0  0
  -14.1838   -4.7884  -28.9622 O   0  0  0  0  0  0  0  0  0  0  0  0
  -13.6835   -8.3429  -30.5795 O   0  0  0  0  0  0  0  0  0  0  0  0
  1  5  1  0  0  0  0
  1 18  1  1  0  0  0
  2 18  1  6  0  0  0
  2  3  1  0  0  0  0
  2 12  1  0  0  0  0
  3 19  1  1  0  0  0
  3  4  1  0  0  0  0
  4 20  1  6  0  0  0
  4 10  1  0  0  0  0
  5  6  1  0  0  0  0
  5 14  1  1  0  0  0
  6 21  1  6  0  0  0
  7 13  1  6  0  0  0
  7  6  1  0  0  0  0
  8  9  1  6  0  0  0
  8  7  1  0  0  0  0
 10 16  1  1  0  0  0
 11 10  1  0  0  0  0
 12 17  1  1  0  0  0
 12 11  1  0  0  0  0
 15  9  1  0  0  0  0
 22  8  1  0  0  0  0
 22  1  1  0  0  0  0
M  END
>  <CHROM.1>
-165.89108707,-46.59766679,-61.91663126,-12.61777753,-8.71718714,-29.47361988
-2.35994208,0.11930195,-3.13290933

>  <Name>
lig.pdb

>  <RI>
0

>  <Rbt.Current_Directory>
/home/itssahil/PROJECTS/Mol_Feturizer/New_Systems/rnas/5bws

>  <Rbt.Executable>
rbdock ($Id: //depot/dev/client3/rdock/2013.1/src/exe/rbdock.cxx#4 $)

>  <Rbt.Library>
libRbt.so (2013.1, Build901 2013/11/27)

>  <Rbt.Parameter_File>
/export/apps/rDock/src/rDock_2013.1_src/data/scripts/dock_solv.prm

>  <Rbt.Receptor>
prm/blind_docking_80.prm

>  <SCORE>
-6.75436

>  <SCORE.INTER>
-5.16906

>  <SCORE.INTER.CONST>
1

>  <SCORE.INTER.POLAR>
0

>  <SCORE.INTER.ROT>
3

>  <SCORE.INTER.SOLV>
16.5094

>  <SCORE.INTER.VDW>
-14.5492

>  <SCORE.INTER.norm>
-0.234957

>  <SCORE.INTRA>
-1.5853

>  <SCORE.INTRA.DIHEDRAL>
-4.30313

>  <SCORE.INTRA.DIHEDRAL.0>
6.10773

>  <SCORE.INTRA.POLAR>
0

>  <SCORE.INTRA.POLAR.0>
0

>  <SCORE.INTRA.REPUL>
0

>  <SCORE.INTRA.REPUL.0>
0

>  <SCORE.INTRA.SOLV>
0.635976

>  <SCORE.INTRA.SOLV.lig_0>
-71.4024

>  <SCORE.INTRA.VDW>
0.248278

>  <SCORE.INTRA.VDW.0>
-1.86213

>  <SCORE.INTRA.norm>
-0.072059

>  <SCORE.RESTR>
0

>  <SCORE.RESTR.CAVITY>
0

>  <SCORE.RESTR.norm>
0

>  <SCORE.SYSTEM>
0

>  <SCORE.SYSTEM.CONST>
0

>  <SCORE.SYSTEM.DIHEDRAL>
0

>  <SCORE.SYSTEM.SOLV>
0

>  <SCORE.SYSTEM.norm>
0

>  <SCORE.heavy>
22

>  <SCORE.norm>
-0.307016

>  <RMSD>
32.055

$$$$
lig.pdb
 OpenBabel11021811523D
libRbt.so/2013.1/901 2013/11/27
 22 23  0  0  0  0  0  0  0  0999 V2000
  -19.4712    4.5597  -28.8474 C   0  0  1  0  0  0  0  0  0  0  0  0
  -18.3640    6.8206  -28.6162 C   0  0  1  0  0  0  0  0  0  0  0  0
  -17.5083    6.4056  -27.3386 C   0  0  1  0  0  0  0  0  0  0  0  0
  -16.2716    7.4077  -27.2303 C   0  0  2  0  0  0  0  0  0  0  0  0
  -20.8777    4.0176  -29.3144 C   0  0  1  0  0  0  0  0  0  0  0  0
  -21.9180    4.4121  -28.2474 C   0  0  2  0  0  0  0  0  0  0  0  0
  -21.5790    3.7743  -26.8884 C   0  0  2  0  0  0  0  0  0  0  0  0
  -20.1697    4.2453  -26.3743 C   0  0  1  0  0  0  0  0  0  0  0  0
  -19.7986    3.5602  -25.0276 C   0  0  0  0  0  0  0  0  0  0  0  0
  -15.3445    7.2471  -28.5406 C   0  0  1  0  0  0  0  0  0  0  0  0
  -16.2417    7.6724  -29.8086 C   0  0  0  0  0  0  0  0  0  0  0  0
  -17.5102    6.7072  -29.9190 C   0  0  2  0  0  0  0  0  0  0  0  0
  -21.5797    2.3116  -27.0055 F   0  0  0  0  0  0  0  0  0  0  0  0
  -21.1880    4.6364  -30.6613 N   0  0  0  0  0  0  0  0  0  0  0  0
  -18.5404    3.9304  -24.4999 N   0  0  0  0  0  0  0  0  0  0  0  0
  -14.1718    8.1859  -28.4924 N   0  0  0  0  0  0  0  0  0  0  0  0
  -18.3294    7.1037  -31.0826 N   0  0  0  0  0  0  0  0  0  0  0  0
  -19.4758    5.9504  -28.7637 O   0  0  0  0  0  0  0  0  0  0  0  0
  -18.3731    6.5501  -26.1438 O   0  0  0  0  0  0  0  0  0  0  0  0
  -15.5438    7.0294  -26.0996 O   0  0  0  0  0  0  0  0  0  0  0  0
  -22.9420    4.0140  -28.5886 O   0  0  0  0  0  0  0  0  0  0  0  0
  -19.1614    3.9268  -27.4933 O   0  0  0  0  0  0  0  0  0  0  0  0
  1  5  1  0  0  0  0
  1 18  1  1  0  0  0
  2 18  1  6  0  0  0
  2  3  1  0  0  0  0
  2 12  1  0  0  0  0
  3 19  1  1  0  0  0
  3  4  1  0  0  0  0
  4 20  1  1  0  0  0
  4 10  1  0  0  0  0
  5  6  1  0  0  0  0
  5 14  1  6  0  0  0
  6 21  1  6  0  0  0
  7 13  1  6  0  0  0
  7  6  1  0  0  0  0
  8  9  1  1  0  0  0
  8  7  1  0  0  0  0
 10 16  1  1  0  0  0
 11 10  1  0  0  0  0
 12 17  1  6  0  0  0
 12 11  1  0  0  0  0
 15  9  1  0  0  0  0
 22  8  1  0  0  0  0
 22  1  1  0  0  0  0
M  END
>  <CHROM.1>
-167.76339104,-54.87058519,179.85041366,-18.88448362,5.42338194,-27.91595902
2.83681455,0.54590279,1.93508346

>  <Name>
lig.pdb

>  <RI>
0

>  <Rbt.Current_Directory>
/home/itssahil/PROJECTS/Mol_Feturizer/New_Systems/rnas/5bws

>  <Rbt.Executable>
rbdock ($Id: //depot/dev/client3/rdock/2013.1/src/exe/rbdock.cxx#4 $)

>  <Rbt.Library>
libRbt.so (2013.1, Build901 2013/11/27)

>  <Rbt.Parameter_File>
/export/apps/rDock/src/rDock_2013.1_src/data/scripts/dock_solv.prm

>  <Rbt.Receptor>
prm/blind_docking_100.prm

>  <SCORE>
-4.14017

>  <SCORE.INTER>
-2.20766

>  <SCORE.INTER.CONST>
1

>  <SCORE.INTER.POLAR>
0

>  <SCORE.INTER.ROT>
3

>  <SCORE.INTER.SOLV>
14.7113

>  <SCORE.INTER.VDW>
-11.9756

>  <SCORE.INTER.norm>
-0.100348

>  <SCORE.INTRA>
-1.93251

>  <SCORE.INTRA.DIHEDRAL>
-5.2621

>  <SCORE.INTRA.DIHEDRAL.0>
6.10773

>  <SCORE.INTRA.POLAR>
0

>  <SCORE.INTRA.POLAR.0>
0

>  <SCORE.INTRA.REPUL>
0

>  <SCORE.INTRA.REPUL.0>
0

>  <SCORE.INTRA.SOLV>
1.48553

>  <SCORE.INTRA.SOLV.lig_0>
-71.4024

>  <SCORE.INTRA.VDW>
-0.044223

>  <SCORE.INTRA.VDW.0>
-1.86213

>  <SCORE.INTRA.norm>
-0.0878413

>  <SCORE.RESTR>
0

>  <SCORE.RESTR.CAVITY>
0

>  <SCORE.RESTR.norm>
0

>  <SCORE.SYSTEM>
0

>  <SCORE.SYSTEM.CONST>
0

>  <SCORE.SYSTEM.DIHEDRAL>
0

>  <SCORE.SYSTEM.SOLV>
0

>  <SCORE.SYSTEM.norm>
0

>  <SCORE.heavy>
22

>  <SCORE.norm>
-0.188189

>  <RMSD>
32.116

$$$$
lig.pdb
 OpenBabel11021811523D
libRbt.so/2013.1/901 2013/11/27
 22 23  0  0  0  0  0  0  0  0999 V2000
  -21.0624    5.0431  -26.5524 C   0  0  1  0  0  0  0  0  0  0  0  0
  -22.9408    6.5614  -27.2989 C   0  0  1  0  0  0  0  0  0  0  0  0
  -23.3084    7.1510  -25.8656 C   0  0  1  0  0  0  0  0  0  0  0  0
  -24.0271    8.5585  -26.0842 C   0  0  2  0  0  0  0  0  0  0  0  0
  -20.6321    3.5423  -26.7820 C   0  0  1  0  0  0  0  0  0  0  0  0
  -21.6846    2.6374  -26.1115 C   0  0  2  0  0  0  0  0  0  0  0  0
  -21.7467    2.8979  -24.5960 C   0  0  2  0  0  0  0  0  0  0  0  0
  -22.1392    4.3895  -24.2904 C   0  0  1  0  0  0  0  0  0  0  0  0
  -22.1490    4.6719  -22.7604 C   0  0  0  0  0  0  0  0  0  0  0  0
  -22.9988    9.5710  -26.8050 C   0  0  1  0  0  0  0  0  0  0  0  0
  -22.6495    8.9425  -28.2460 C   0  0  0  0  0  0  0  0  0  0  0  0
  -21.9618    7.5126  -28.0578 C   0  0  2  0  0  0  0  0  0  0  0  0
  -20.4444    2.6120  -23.9832 F   0  0  0  0  0  0  0  0  0  0  0  0
  -20.5545    3.3068  -28.2760 N   0  0  0  0  0  0  0  0  0  0  0  0
  -20.8899    4.5590  -22.1275 N   0  0  0  0  0  0  0  0  0  0  0  0
  -23.6378   10.9094  -27.0482 N   0  0  0  0  0  0  0  0  0  0  0  0
  -21.6457    6.9412  -29.3829 N   0  0  0  0  0  0  0  0  0  0  0  0
  -22.2880    5.3087  -27.1594 O   0  0  0  0  0  0  0  0  0  0  0  0
  -24.2467    6.2084  -25.2117 O   0  0  0  0  0  0  0  0  0  0  0  0
  -24.3469    9.0492  -24.8162 O   0  0  0  0  0  0  0  0  0  0  0  0
  -21.3679    1.5441  -26.2782 O   0  0  0  0  0  0  0  0  0  0  0  0
  -21.1317    5.2756  -25.0453 O   0  0  0  0  0  0  0  0  0  0  0  0
  1  5  1  0  0  0  0
  1 18  1  6  0  0  0
  2 18  1  1  0  0  0
  2  3  1  0  0  0  0
  2 12  1  0  0  0  0
  3 19  1  6  0  0  0
  3  4  1  0  0  0  0
  4 20  1  1  0  0  0
  4 10  1  0  0  0  0
  5  6  1  0  0  0  0
  5 14  1  6  0  0  0
  6 21  1  1  0  0  0
  7 13  1  6  0  0  0
  7  6  1  0  0  0  0
  8  9  1  1  0  0  0
  8  7  1  0  0  0  0
 10 16  1  6  0  0  0
 11 10  1  0  0  0  0
 12 17  1  6  0  0  0
 12 11  1  0  0  0  0
 15  9  1  0  0  0  0
 22  8  1  0  0  0  0
 22  1  1  0  0  0  0
M  END
>  <CHROM.1>
-172.85158319,-63.46467512,64.45587734,-22.16119532,5.72131725,-25.98543831
-0.66843814,1.13277517,-1.17024863

>  <Name>
lig.pdb

>  <RI>
0

>  <Rbt.Current_Directory>
/home/itssahil/PROJECTS/Mol_Feturizer/New_Systems/rnas/5bws

>  <Rbt.Executable>
rbdock ($Id: //depot/dev/client3/rdock/2013.1/src/exe/rbdock.cxx#4 $)

>  <Rbt.Library>
libRbt.so (2013.1, Build901 2013/11/27)

>  <Rbt.Parameter_File>
/export/apps/rDock/src/rDock_2013.1_src/data/scripts/dock_solv.prm

>  <Rbt.Receptor>
prm/blind_docking_40.prm

>  <SCORE>
-5.29068

>  <SCORE.INTER>
-3.2555

>  <SCORE.INTER.CONST>
1

>  <SCORE.INTER.POLAR>
0

>  <SCORE.INTER.ROT>
3

>  <SCORE.INTER.SOLV>
15.3014

>  <SCORE.INTER.VDW>
-12.8708

>  <SCORE.INTER.norm>
-0.147977

>  <SCORE.INTRA>
-2.03519

>  <SCORE.INTRA.DIHEDRAL>
-5.72568

>  <SCORE.INTRA.DIHEDRAL.0>
6.10773

>  <SCORE.INTRA.POLAR>
0

>  <SCORE.INTRA.POLAR.0>
0

>  <SCORE.INTRA.REPUL>
0

>  <SCORE.INTRA.REPUL.0>
0

>  <SCORE.INTRA.SOLV>
1.47175

>  <SCORE.INTRA.SOLV.lig_0>
-71.4024

>  <SCORE.INTRA.VDW>
0.0917802

>  <SCORE.INTRA.VDW.0>
-1.86213

>  <SCORE.INTRA.norm>
-0.0925084

>  <SCORE.RESTR>
0

>  <SCORE.RESTR.CAVITY>
0

>  <SCORE.RESTR.norm>
0

>  <SCORE.SYSTEM>
0

>  <SCORE.SYSTEM.CONST>
0

>  <SCORE.SYSTEM.DIHEDRAL>
0

>  <SCORE.SYSTEM.SOLV>
0

>  <SCORE.SYSTEM.norm>
0

>  <SCORE.heavy>
22

>  <SCORE.norm>
-0.240486

>  <RMSD>
32.254

$$$$
lig.pdb
 OpenBabel11021811523D
libRbt.so/2013.1/901 2013/11/27
 22 23  0  0  0  0  0  0  0  0999 V2000
  -15.5622   -9.0261  -28.8696 C   0  0  1  0  0  0  0  0  0  0  0  0
  -13.5261  -10.2153  -29.7815 C   0  0  1  0  0  0  0  0  0  0  0  0
  -12.5088   -9.1527  -29.1708 C   0  0  1  0  0  0  0  0  0  0  0  0
  -11.0735   -9.8434  -29.0816 C   0  0  2  0  0  0  0  0  0  0  0  0
  -17.0824   -8.9072  -29.2758 C   0  0  1  0  0  0  0  0  0  0  0  0
  -17.1711   -8.0201  -30.5335 C   0  0  2  0  0  0  0  0  0  0  0  0
  -16.6333   -6.6069  -30.2470 C   0  0  2  0  0  0  0  0  0  0  0  0
  -15.1258   -6.6507  -29.8024 C   0  0  1  0  0  0  0  0  0  0  0  0
  -14.5938   -5.2297  -29.4584 C   0  0  0  0  0  0  0  0  0  0  0  0
  -11.1555  -11.1060  -28.0810 C   0  0  1  0  0  0  0  0  0  0  0  0
  -12.1918  -12.1550  -28.7286 C   0  0  0  0  0  0  0  0  0  0  0  0
  -13.6315  -11.4756  -28.8651 C   0  0  2  0  0  0  0  0  0  0  0  0
  -17.4253   -5.9731  -29.1867 F   0  0  0  0  0  0  0  0  0  0  0  0
  -17.6031  -10.3057  -29.5336 N   0  0  0  0  0  0  0  0  0  0  0  0
  -13.2068   -5.1629  -29.1931 N   0  0  0  0  0  0  0  0  0  0  0  0
   -9.8273  -11.8017  -27.9771 N   0  0  0  0  0  0  0  0  0  0  0  0
  -14.5764  -12.4422  -29.4611 N   0  0  0  0  0  0  0  0  0  0  0  0
  -14.8255   -9.6512  -29.8735 O   0  0  0  0  0  0  0  0  0  0  0  0
  -12.4487   -7.9956  -30.0949 O   0  0  0  0  0  0  0  0  0  0  0  0
  -10.1995   -8.8905  -28.5531 O   0  0  0  0  0  0  0  0  0  0  0  0
  -18.2801   -7.9329  -30.8265 O   0  0  0  0  0  0  0  0  0  0  0  0
  -15.0457   -7.6144  -28.6045 O   0  0  0  0  0  0  0  0  0  0  0  0
  1  5  1  0  0  0  0
  1 18  1  6  0  0  0
  2 18  1  1  0  0  0
  2  3  1  0  0  0  0
  2 12  1  0  0  0  0
  3 19  1  6  0  0  0
  3  4  1  0  0  0  0
  4 20  1  1  0  0  0
  4 10  1  0  0  0  0
  5  6  1  0  0  0  0
  5 14  1  6  0  0  0
  6 21  1  1  0  0  0
  7 13  1  1  0  0  0
  7  6  1  0  0  0  0
  8  9  1  1  0  0  0
  8  7  1  0  0  0  0
 10 16  1  6  0  0  0
 11 10  1  0  0  0  0
 12 17  1  6  0  0  0
 12 11  1  0  0  0  0
 15  9  1  0  0  0  0
 22  8  1  0  0  0  0
 22  1  1  0  0  0  0
M  END
>  <CHROM.1>
-164.24147217,-52.55127961,-173.28659203,-14.30323742,-8.84770431,-29.33198336
2.54599776,-0.17818210,-0.04416794

>  <Name>
lig.pdb

>  <RI>
0

>  <Rbt.Current_Directory>
/home/itssahil/PROJECTS/Mol_Feturizer/New_Systems/rnas/5bws

>  <Rbt.Executable>
rbdock ($Id: //depot/dev/client3/rdock/2013.1/src/exe/rbdock.cxx#4 $)

>  <Rbt.Library>
libRbt.so (2013.1, Build901 2013/11/27)

>  <Rbt.Parameter_File>
/export/apps/rDock/src/rDock_2013.1_src/data/scripts/dock_solv.prm

>  <Rbt.Receptor>
prm/blind_docking_60.prm

>  <SCORE>
-7.62327

>  <SCORE.INTER>
-6.04654

>  <SCORE.INTER.CONST>
1

>  <SCORE.INTER.POLAR>
0

>  <SCORE.INTER.ROT>
3

>  <SCORE.INTER.SOLV>
17.1713

>  <SCORE.INTER.VDW>
-15.3548

>  <SCORE.INTER.norm>
-0.274843

>  <SCORE.INTRA>
-1.57673

>  <SCORE.INTRA.DIHEDRAL>
-4.51669

>  <SCORE.INTRA.DIHEDRAL.0>
6.10773

>  <SCORE.INTRA.POLAR>
0

>  <SCORE.INTRA.POLAR.0>
0

>  <SCORE.INTRA.REPUL>
0

>  <SCORE.INTRA.REPUL.0>
0

>  <SCORE.INTRA.SOLV>
1.48109

>  <SCORE.INTRA.SOLV.lig_0>
-71.4024

>  <SCORE.INTRA.VDW>
-0.0589312

>  <SCORE.INTRA.VDW.0>
-1.86213

>  <SCORE.INTRA.norm>
-0.0716696

>  <SCORE.RESTR>
0

>  <SCORE.RESTR.CAVITY>
0

>  <SCORE.RESTR.norm>
0

>  <SCORE.SYSTEM>
0

>  <SCORE.SYSTEM.CONST>
0

>  <SCORE.SYSTEM.DIHEDRAL>
0

>  <SCORE.SYSTEM.SOLV>
0

>  <SCORE.SYSTEM.norm>
0

>  <SCORE.heavy>
22

>  <SCORE.norm>
-0.346512

>  <RMSD>
32.314

$$$$
lig.pdb
 OpenBabel11021811523D
libRbt.so/2013.1/901 2013/11/27
 22 23  0  0  0  0  0  0  0  0999 V2000
  -13.0879   -7.7107  -30.2295 C   0  0  1  0  0  0  0  0  0  0  0  0
  -11.9119   -9.4717  -28.8485 C   0  0  1  0  0  0  0  0  0  0  0  0
  -12.7511  -10.6166  -29.5711 C   0  0  1  0  0  0  0  0  0  0  0  0
  -12.0085  -12.0050  -29.3141 C   0  0  2  0  0  0  0  0  0  0  0  0
  -13.2936   -6.1489  -30.1376 C   0  0  1  0  0  0  0  0  0  0  0  0
  -14.2892   -5.8662  -28.9951 C   0  0  2  0  0  0  0  0  0  0  0  0
  -15.6529   -6.5193  -29.2817 C   0  0  2  0  0  0  0  0  0  0  0  0
  -15.5191   -8.0798  -29.4195 C   0  0  1  0  0  0  0  0  0  0  0  0
  -16.8858   -8.7386  -29.7642 C   0  0  0  0  0  0  0  0  0  0  0  0
  -10.5400  -11.9504  -29.9796 C   0  0  1  0  0  0  0  0  0  0  0  0
   -9.7239  -10.7836  -29.2272 C   0  0  0  0  0  0  0  0  0  0  0  0
  -10.4675   -9.3849  -29.4363 C   0  0  2  0  0  0  0  0  0  0  0  0
  -16.2188   -5.9775  -30.5225 F   0  0  0  0  0  0  0  0  0  0  0  0
  -11.9414   -5.5187  -29.8770 N   0  0  0  0  0  0  0  0  0  0  0  0
  -16.8640  -10.1505  -29.8327 N   0  0  0  0  0  0  0  0  0  0  0  0
   -9.7929  -13.2338  -29.7486 N   0  0  0  0  0  0  0  0  0  0  0  0
   -9.7149   -8.3198  -28.7425 N   0  0  0  0  0  0  0  0  0  0  0  0
  -12.5277   -8.2096  -29.0555 O   0  0  0  0  0  0  0  0  0  0  0  0
  -14.0991  -10.6509  -28.9562 O   0  0  0  0  0  0  0  0  0  0  0  0
  -12.7672  -12.9915  -29.9483 O   0  0  0  0  0  0  0  0  0  0  0  0
  -14.4394   -4.7274  -28.9314 O   0  0  0  0  0  0  0  0  0  0  0  0
  -14.4528   -8.3388  -30.4994 O   0  0  0  0  0  0  0  0  0  0  0  0
  1  5  1  0  0  0  0
  1 18  1  1  0  0  0
  2 18  1  6  0  0  0
  2  3  1  0  0  0  0
  2 12  1  0  0  0  0
  3 19  1  1  0  0  0
  3  4  1  0  0  0  0
  4 20  1  6  0  0  0
  4 10  1  0  0  0  0
  5  6  1  0  0  0  0
  5 14  1  1  0  0  0
  6 21  1  6  0  0  0
  7 13  1  6  0  0  0
  7  6  1  0  0  0  0
  8  9  1  6  0  0  0
  8  7  1  0  0  0  0
 10 16  1  1  0  0  0
 11 10  1  0  0  0  0
 12 17  1  1  0  0  0
 12 11  1  0  0  0  0
 15  9  1  0  0  0  0
 22  8  1  0  0  0  0
 22  1  1  0  0  0  0
M  END
>  <CHROM.1>
-164.13797327,-42.11597496,-176.68267533,-13.20561675,-8.84199719,-29.57387879
-2.25022324,0.08977772,-3.10677979

>  <Name>
lig.pdb

>  <RI>
0

>  <Rbt.Current_Directory>
/home/itssahil/PROJECTS/Mol_Feturizer/New_Systems/rnas/5bws

>  <Rbt.Executable>
rbdock ($Id: //depot/dev/client3/rdock/2013.1/src/exe/rbdock.cxx#4 $)

>  <Rbt.Library>
libRbt.so (2013.1, Build901 2013/11/27)

>  <Rbt.Parameter_File>
/export/apps/rDock/src/rDock_2013.1_src/data/scripts/dock_solv.prm

>  <Rbt.Receptor>
prm/blind_docking_40.prm

>  <SCORE>
-7.39025

>  <SCORE.INTER>
-6.52097

>  <SCORE.INTER.CONST>
1

>  <SCORE.INTER.POLAR>
0

>  <SCORE.INTER.ROT>
3

>  <SCORE.INTER.SOLV>
14.8267

>  <SCORE.INTER.VDW>
-14.8896

>  <SCORE.INTER.norm>
-0.296408

>  <SCORE.INTRA>
-0.869278

>  <SCORE.INTRA.DIHEDRAL>
-3.42841

>  <SCORE.INTRA.DIHEDRAL.0>
6.10773

>  <SCORE.INTRA.POLAR>
0

>  <SCORE.INTRA.POLAR.0>
0

>  <SCORE.INTRA.REPUL>
0

>  <SCORE.INTRA.REPUL.0>
0

>  <SCORE.INTRA.SOLV>
1.42268

>  <SCORE.INTRA.SOLV.lig_0>
-71.4024

>  <SCORE.INTRA.VDW>
0.133589

>  <SCORE.INTRA.VDW.0>
-1.86213

>  <SCORE.INTRA.norm>
-0.0395126

>  <SCORE.RESTR>
0

>  <SCORE.RESTR.CAVITY>
0

>  <SCORE.RESTR.norm>
0

>  <SCORE.SYSTEM>
0

>  <SCORE.SYSTEM.CONST>
0

>  <SCORE.SYSTEM.DIHEDRAL>
0

>  <SCORE.SYSTEM.SOLV>
0

>  <SCORE.SYSTEM.norm>
0

>  <SCORE.heavy>
22

>  <SCORE.norm>
-0.33592

>  <RMSD>
32.329

$$$$
lig.pdb
 OpenBabel11021811523D
libRbt.so/2013.1/901 2013/11/27
 22 23  0  0  0  0  0  0  0  0999 V2000
  -15.9794   -9.1947  -28.8908 C   0  0  1  0  0  0  0  0  0  0  0  0
  -13.8962  -10.4191  -29.6341 C   0  0  1  0  0  0  0  0  0  0  0  0
  -12.8771   -9.3287  -29.0775 C   0  0  1  0  0  0  0  0  0  0  0  0
  -11.4648  -10.0403  -28.8668 C   0  0  2  0  0  0  0  0  0  0  0  0
  -17.4313   -8.9539  -29.4600 C   0  0  1  0  0  0  0  0  0  0  0  0
  -17.3151   -8.0213  -30.6819 C   0  0  2  0  0  0  0  0  0  0  0  0
  -16.7201   -6.6604  -30.2787 C   0  0  2  0  0  0  0  0  0  0  0  0
  -15.2801   -6.8267  -29.6697 C   0  0  1  0  0  0  0  0  0  0  0  0
  -14.6969   -5.4596  -29.2096 C   0  0  0  0  0  0  0  0  0  0  0  0
  -11.6194  -11.2060  -27.7626 C   0  0  1  0  0  0  0  0  0  0  0  0
  -12.6556  -12.2856  -28.3579 C   0  0  0  0  0  0  0  0  0  0  0  0
  -14.0707  -11.5896  -28.6149 C   0  0  2  0  0  0  0  0  0  0  0  0
  -17.5844   -6.0075  -29.2887 F   0  0  0  0  0  0  0  0  0  0  0  0
  -18.0118  -10.3023  -29.8322 N   0  0  0  0  0  0  0  0  0  0  0  0
  -13.3501   -5.5022  -28.7820 N   0  0  0  0  0  0  0  0  0  0  0  0
  -10.3149  -11.9187  -27.5414 N   0  0  0  0  0  0  0  0  0  0  0  0
  -15.0155  -12.5845  -29.1622 N   0  0  0  0  0  0  0  0  0  0  0  0
  -15.1758   -9.8369  -29.8305 O   0  0  0  0  0  0  0  0  0  0  0  0
  -12.7501   -8.2608  -30.0972 O   0  0  0  0  0  0  0  0  0  0  0  0
  -10.5885   -9.0634  -28.3884 O   0  0  0  0  0  0  0  0  0  0  0  0
  -18.3747   -7.8453  -31.0938 O   0  0  0  0  0  0  0  0  0  0  0  0
  -15.4031   -7.8331  -28.5112 O   0  0  0  0  0  0  0  0  0  0  0  0
  1  5  1  0  0  0  0
  1 18  1  6  0  0  0
  2 18  1  1  0  0  0
  2  3  1  0  0  0  0
  2 12  1  0  0  0  0
  3 19  1  6  0  0  0
  3  4  1  0  0  0  0
  4 20  1  1  0  0  0
  4 10  1  0  0  0  0
  5  6  1  0  0  0  0
  5 14  1  6  0  0  0
  6 21  1  1  0  0  0
  7 13  1  1  0  0  0
  7  6  1  0  0  0  0
  8  9  1  1  0  0  0
  8  7  1  0  0  0  0
 10 16  1  6  0  0  0
 11 10  1  0  0  0  0
 12 17  1  6  0  0  0
 12 11  1  0  0  0  0
 15  9  1  0  0  0  0
 22  8  1  0  0  0  0
 22  1  1  0  0  0  0
M  END
>  <CHROM.1>
-168.74318057,-57.80079121,-173.55360947,-14.61294460,-8.98249968,-29.23888771
2.53136799,-0.24721408,-0.05425195

>  <Name>
lig.pdb

>  <RI>
0

>  <Rbt.Current_Directory>
/home/itssahil/PROJECTS/Mol_Feturizer/New_Systems/rnas/5bws

>  <Rbt.Executable>
rbdock ($Id: //depot/dev/client3/rdock/2013.1/src/exe/rbdock.cxx#4 $)

>  <Rbt.Library>
libRbt.so (2013.1, Build901 2013/11/27)

>  <Rbt.Parameter_File>
/export/apps/rDock/src/rDock_2013.1_src/data/scripts/dock_solv.prm

>  <Rbt.Receptor>
prm/blind_docking_80.prm

>  <SCORE>
-8.11014

>  <SCORE.INTER>
-6.0622

>  <SCORE.INTER.CONST>
1

>  <SCORE.INTER.POLAR>
0

>  <SCORE.INTER.ROT>
3

>  <SCORE.INTER.SOLV>
17.5777

>  <SCORE.INTER.VDW>
-15.5007

>  <SCORE.INTER.norm>
-0.275555

>  <SCORE.INTRA>
-2.04795

>  <SCORE.INTRA.DIHEDRAL>
-5.3255

>  <SCORE.INTRA.DIHEDRAL.0>
6.10773

>  <SCORE.INTRA.POLAR>
0

>  <SCORE.INTRA.POLAR.0>
0

>  <SCORE.INTRA.REPUL>
0

>  <SCORE.INTRA.REPUL.0>
0

>  <SCORE.INTRA.SOLV>
1.38193

>  <SCORE.INTRA.SOLV.lig_0>
-71.4024

>  <SCORE.INTRA.VDW>
-0.0761612

>  <SCORE.INTRA.VDW.0>
-1.86213

>  <SCORE.INTRA.norm>
-0.0930884

>  <SCORE.RESTR>
0

>  <SCORE.RESTR.CAVITY>
0

>  <SCORE.RESTR.norm>
0

>  <SCORE.SYSTEM>
0

>  <SCORE.SYSTEM.CONST>
0

>  <SCORE.SYSTEM.DIHEDRAL>
0

>  <SCORE.SYSTEM.SOLV>
0

>  <SCORE.SYSTEM.norm>
0

>  <SCORE.heavy>
22

>  <SCORE.norm>
-0.368643

>  <RMSD>
32.345

$$$$
lig.pdb
 OpenBabel11021811523D
libRbt.so/2013.1/901 2013/11/27
 22 23  0  0  0  0  0  0  0  0999 V2000
  -13.1221   -7.7463  -30.2158 C   0  0  1  0  0  0  0  0  0  0  0  0
  -11.9799   -9.4997  -28.7972 C   0  0  1  0  0  0  0  0  0  0  0  0
  -12.8754  -10.6442  -29.4493 C   0  0  1  0  0  0  0  0  0  0  0  0
  -12.1667  -12.0444  -29.1622 C   0  0  2  0  0  0  0  0  0  0  0  0
  -13.3153   -6.1815  -30.1527 C   0  0  1  0  0  0  0  0  0  0  0  0
  -14.3067   -5.8696  -29.0142 C   0  0  2  0  0  0  0  0  0  0  0  0
  -15.6761   -6.5170  -29.2867 C   0  0  2  0  0  0  0  0  0  0  0  0
  -15.5549   -8.0808  -29.3955 C   0  0  1  0  0  0  0  0  0  0  0  0
  -16.9274   -8.7350  -29.7259 C   0  0  0  0  0  0  0  0  0  0  0  0
  -10.7192  -12.0603  -29.8740 C   0  0  1  0  0  0  0  0  0  0  0  0
   -9.8452  -10.8920  -29.1922 C   0  0  0  0  0  0  0  0  0  0  0  0
  -10.5530   -9.4798  -29.4319 C   0  0  2  0  0  0  0  0  0  0  0  0
  -16.2396   -5.9939  -30.5365 F   0  0  0  0  0  0  0  0  0  0  0  0
  -11.9577   -5.5574  -29.9058 N   0  0  0  0  0  0  0  0  0  0  0  0
  -17.4924   -8.3390  -30.9598 N   0  0  0  0  0  0  0  0  0  0  0  0
  -10.0037  -13.3567  -29.6170 N   0  0  0  0  0  0  0  0  0  0  0  0
   -9.7473   -8.4132  -28.8029 N   0  0  0  0  0  0  0  0  0  0  0  0
  -12.5640   -8.2277  -29.0334 O   0  0  0  0  0  0  0  0  0  0  0  0
  -14.2036  -10.6138  -28.7925 O   0  0  0  0  0  0  0  0  0  0  0  0
  -12.9743  -13.0300  -29.7345 O   0  0  0  0  0  0  0  0  0  0  0  0
  -14.4478   -4.7287  -28.9716 O   0  0  0  0  0  0  0  0  0  0  0  0
  -14.4924   -8.3684  -30.4719 O   0  0  0  0  0  0  0  0  0  0  0  0
  1  5  1  0  0  0  0
  1 18  1  1  0  0  0
  2 18  1  6  0  0  0
  2  3  1  0  0  0  0
  2 12  1  0  0  0  0
  3 19  1  1  0  0  0
  3  4  1  0  0  0  0
  4 20  1  6  0  0  0
  4 10  1  0  0  0  0
  5  6  1  0  0  0  0
  5 14  1  1  0  0  0
  6 21  1  6  0  0  0
  7 13  1  6  0  0  0
  7  6  1  0  0  0  0
  8  9  1  6  0  0  0
  8  7  1  0  0  0  0
 10 16  1  1  0  0  0
 11 10  1  0  0  0  0
 12 17  1  1  0  0  0
 12 11  1  0  0  0  0
 15  9  1  0  0  0  0
 22  8  1  0  0  0  0
 22  1  1  0  0  0  0
M  END
>  <CHROM.1>
-165.39776471,-43.52876931,61.56669258,-13.30517454,-8.79603166,-29.58215828
-2.26897939,0.13950196,-3.11426872

>  <Name>
lig.pdb

>  <RI>
0

>  <Rbt.Current_Directory>
/home/itssahil/PROJECTS/Mol_Feturizer/New_Systems/rnas/5bws

>  <Rbt.Executable>
rbdock ($Id: //depot/dev/client3/rdock/2013.1/src/exe/rbdock.cxx#4 $)

>  <Rbt.Library>
libRbt.so (2013.1, Build901 2013/11/27)

>  <Rbt.Parameter_File>
/export/apps/rDock/src/rDock_2013.1_src/data/scripts/dock_solv.prm

>  <Rbt.Receptor>
prm/blind_docking_40.prm

>  <SCORE>
-6.64809

>  <SCORE.INTER>
-5.86379

>  <SCORE.INTER.CONST>
1

>  <SCORE.INTER.POLAR>
0

>  <SCORE.INTER.ROT>
3

>  <SCORE.INTER.SOLV>
16.1837

>  <SCORE.INTER.VDW>
-14.9038

>  <SCORE.INTER.norm>
-0.266536

>  <SCORE.INTRA>
-0.7843

>  <SCORE.INTRA.DIHEDRAL>
-3.83733

>  <SCORE.INTRA.DIHEDRAL.0>
6.10773

>  <SCORE.INTRA.POLAR>
0

>  <SCORE.INTRA.POLAR.0>
0

>  <SCORE.INTRA.REPUL>
0

>  <SCORE.INTRA.REPUL.0>
0

>  <SCORE.INTRA.SOLV>
1.75589

>  <SCORE.INTRA.SOLV.lig_0>
-71.4024

>  <SCORE.INTRA.VDW>
0.256423

>  <SCORE.INTRA.VDW.0>
-1.86213

>  <SCORE.INTRA.norm>
-0.03565

>  <SCORE.RESTR>
0

>  <SCORE.RESTR.CAVITY>
0

>  <SCORE.RESTR.norm>
0

>  <SCORE.SYSTEM>
0

>  <SCORE.SYSTEM.CONST>
0

>  <SCORE.SYSTEM.DIHEDRAL>
0

>  <SCORE.SYSTEM.SOLV>
0

>  <SCORE.SYSTEM.norm>
0

>  <SCORE.heavy>
22

>  <SCORE.norm>
-0.302186

>  <RMSD>
32.361

$$$$
lig.pdb
 OpenBabel11021811523D
libRbt.so/2013.1/901 2013/11/27
 22 23  0  0  0  0  0  0  0  0999 V2000
  -15.9810   -9.1547  -28.9212 C   0  0  1  0  0  0  0  0  0  0  0  0
  -13.8882  -10.3578  -29.6724 C   0  0  1  0  0  0  0  0  0  0  0  0
  -12.8854   -9.2643  -29.0930 C   0  0  1  0  0  0  0  0  0  0  0  0
  -11.4649   -9.9613  -28.8888 C   0  0  2  0  0  0  0  0  0  0  0  0
  -17.4461   -8.9575  -29.4730 C   0  0  1  0  0  0  0  0  0  0  0  0
  -17.3701   -8.0381  -30.7080 C   0  0  2  0  0  0  0  0  0  0  0  0
  -16.8040   -6.6578  -30.3303 C   0  0  2  0  0  0  0  0  0  0  0  0
  -15.3520   -6.7802  -29.7395 C   0  0  1  0  0  0  0  0  0  0  0  0
  -14.7971   -5.3932  -29.3048 C   0  0  0  0  0  0  0  0  0  0  0  0
  -11.6088  -11.1479  -27.8055 C   0  0  1  0  0  0  0  0  0  0  0  0
  -12.6287  -12.2301  -28.4236 C   0  0  0  0  0  0  0  0  0  0  0  0
  -14.0516  -11.5479  -28.6742 C   0  0  2  0  0  0  0  0  0  0  0  0
  -17.6707   -6.0139  -29.3366 F   0  0  0  0  0  0  0  0  0  0  0  0
  -17.9976  -10.3246  -29.8201 N   0  0  0  0  0  0  0  0  0  0  0  0
  -13.4504   -5.4006  -28.8747 N   0  0  0  0  0  0  0  0  0  0  0  0
  -10.2961  -11.8476  -27.5913 N   0  0  0  0  0  0  0  0  0  0  0  0
  -14.9815  -12.5452  -29.2426 N   0  0  0  0  0  0  0  0  0  0  0  0
  -15.1745   -9.7888  -29.8640 O   0  0  0  0  0  0  0  0  0  0  0  0
  -12.7682   -8.1774  -30.0935 O   0  0  0  0  0  0  0  0  0  0  0  0
  -10.6031   -8.9818  -28.3901 O   0  0  0  0  0  0  0  0  0  0  0  0
  -18.4393   -7.8939  -31.1072 O   0  0  0  0  0  0  0  0  0  0  0  0
  -15.4339   -7.7744  -28.5668 O   0  0  0  0  0  0  0  0  0  0  0  0
  1  5  1  0  0  0  0
  1 18  1  6  0  0  0
  2 18  1  1  0  0  0
  2  3  1  0  0  0  0
  2 12  1  0  0  0  0
  3 19  1  6  0  0  0
  3  4  1  0  0  0  0
  4 20  1  1  0  0  0
  4 10  1  0  0  0  0
  5  6  1  0  0  0  0
  5 14  1  6  0  0  0
  6 21  1  1  0  0  0
  7 13  1  1  0  0  0
  7  6  1  0  0  0  0
  8  9  1  1  0  0  0
  8  7  1  0  0  0  0
 10 16  1  6  0  0  0
 11 10  1  0  0  0  0
 12 17  1  6  0  0  0
 12 11  1  0  0  0  0
 15  9  1  0  0  0  0
 22  8  1  0  0  0  0
 22  1  1  0  0  0  0
M  END
>  <CHROM.1>
-167.48659731,-56.70232114,-174.54981050,-14.63765385,-8.94202528,-29.27888448
2.54210226,-0.24533213,-0.05237712

>  <Name>
lig.pdb

>  <RI>
0

>  <Rbt.Current_Directory>
/home/itssahil/PROJECTS/Mol_Feturizer/New_Systems/rnas/5bws

>  <Rbt.Executable>
rbdock ($Id: //depot/dev/client3/rdock/2013.1/src/exe/rbdock.cxx#4 $)

>  <Rbt.Library>
libRbt.so (2013.1, Build901 2013/11/27)

>  <Rbt.Parameter_File>
/export/apps/rDock/src/rDock_2013.1_src/data/scripts/dock_solv.prm

>  <Rbt.Receptor>
prm/blind_docking_80.prm

>  <SCORE>
-8.08102

>  <SCORE.INTER>
-6.11966

>  <SCORE.INTER.CONST>
1

>  <SCORE.INTER.POLAR>
0

>  <SCORE.INTER.ROT>
3

>  <SCORE.INTER.SOLV>
17.5289

>  <SCORE.INTER.VDW>
-15.5227

>  <SCORE.INTER.norm>
-0.278166

>  <SCORE.INTRA>
-1.96136

>  <SCORE.INTRA.DIHEDRAL>
-5.19991

>  <SCORE.INTRA.DIHEDRAL.0>
6.10773

>  <SCORE.INTRA.POLAR>
0

>  <SCORE.INTRA.POLAR.0>
0

>  <SCORE.INTRA.REPUL>
0

>  <SCORE.INTRA.REPUL.0>
0

>  <SCORE.INTRA.SOLV>
1.42629

>  <SCORE.INTRA.SOLV.lig_0>
-71.4024

>  <SCORE.INTRA.VDW>
-0.0745528

>  <SCORE.INTRA.VDW.0>
-1.86213

>  <SCORE.INTRA.norm>
-0.0891529

>  <SCORE.RESTR>
0

>  <SCORE.RESTR.CAVITY>
0

>  <SCORE.RESTR.norm>
0

>  <SCORE.SYSTEM>
0

>  <SCORE.SYSTEM.CONST>
0

>  <SCORE.SYSTEM.DIHEDRAL>
0

>  <SCORE.SYSTEM.SOLV>
0

>  <SCORE.SYSTEM.norm>
0

>  <SCORE.heavy>
22

>  <SCORE.norm>
-0.367319

>  <RMSD>
32.376

$$$$
lig.pdb
 OpenBabel11021811523D
libRbt.so/2013.1/901 2013/11/27
 22 23  0  0  0  0  0  0  0  0999 V2000
  -13.5122   -8.0558  -30.6097 C   0  0  1  0  0  0  0  0  0  0  0  0
  -12.3684  -10.0897  -29.6368 C   0  0  1  0  0  0  0  0  0  0  0  0
  -11.0792  -10.2133  -28.7097 C   0  0  1  0  0  0  0  0  0  0  0  0
  -10.5599  -11.7196  -28.7906 C   0  0  2  0  0  0  0  0  0  0  0  0
  -13.5302   -6.5099  -30.2936 C   0  0  1  0  0  0  0  0  0  0  0  0
  -14.3470   -6.2972  -29.0037 C   0  0  2  0  0  0  0  0  0  0  0  0
  -15.7993   -6.7714  -29.1895 C   0  0  2  0  0  0  0  0  0  0  0  0
  -15.8575   -8.3028  -29.5413 C   0  0  1  0  0  0  0  0  0  0  0  0
  -17.3202   -8.7743  -29.7846 C   0  0  0  0  0  0  0  0  0  0  0  0
  -11.7005  -12.7039  -28.2138 C   0  0  1  0  0  0  0  0  0  0  0  0
  -12.9853  -12.5505  -29.1727 C   0  0  0  0  0  0  0  0  0  0  0  0
  -13.5043  -11.0397  -29.1404 C   0  0  2  0  0  0  0  0  0  0  0  0
  -16.4428   -6.0098  -30.2661 F   0  0  0  0  0  0  0  0  0  0  0  0
  -12.0949   -6.0536  -30.1345 N   0  0  0  0  0  0  0  0  0  0  0  0
  -17.4570  -10.1444  -30.1048 N   0  0  0  0  0  0  0  0  0  0  0  0
  -11.2630  -14.1399  -28.2851 N   0  0  0  0  0  0  0  0  0  0  0  0
  -14.6814  -10.9057  -30.0230 N   0  0  0  0  0  0  0  0  0  0  0  0
  -12.8773   -8.7652  -29.5925 O   0  0  0  0  0  0  0  0  0  0  0  0
  -10.0429   -9.2993  -29.2454 O   0  0  0  0  0  0  0  0  0  0  0  0
   -9.4263  -11.7996  -27.9785 O   0  0  0  0  0  0  0  0  0  0  0  0
  -14.3607   -5.1696  -28.7763 O   0  0  0  0  0  0  0  0  0  0  0  0
  -14.9608   -8.5077  -30.7758 O   0  0  0  0  0  0  0  0  0  0  0  0
  1  5  1  0  0  0  0
  1 18  1  1  0  0  0
  2 18  1  1  0  0  0
  2  3  1  0  0  0  0
  2 12  1  0  0  0  0
  3 19  1  6  0  0  0
  3  4  1  0  0  0  0
  4 20  1  1  0  0  0
  4 10  1  0  0  0  0
  5  6  1  0  0  0  0
  5 14  1  1  0  0  0
  6 21  1  6  0  0  0
  7 13  1  6  0  0  0
  7  6  1  0  0  0  0
  8  9  1  6  0  0  0
  8  7  1  0  0  0  0
 10 16  1  6  0  0  0
 11 10  1  0  0  0  0
 12 17  1  6  0  0  0
 12 11  1  0  0  0  0
 15  9  1  0  0  0  0
 22  8  1  0  0  0  0
 22  1  1  0  0  0  0
M  END
>  <CHROM.1>
-163.11072824,147.12479866,-179.89638334,-13.48156621,-9.19827602,-29.43348052
-2.28026271,0.16321154,3.04961837

>  <Name>
lig.pdb

>  <RI>
0

>  <Rbt.Current_Directory>
/home/itssahil/PROJECTS/Mol_Feturizer/New_Systems/rnas/5bws

>  <Rbt.Executable>
rbdock ($Id: //depot/dev/client3/rdock/2013.1/src/exe/rbdock.cxx#4 $)

>  <Rbt.Library>
libRbt.so (2013.1, Build901 2013/11/27)

>  <Rbt.Parameter_File>
/export/apps/rDock/src/rDock_2013.1_src/data/scripts/dock_solv.prm

>  <Rbt.Receptor>
prm/blind_docking_100.prm

>  <SCORE>
-4.03835

>  <SCORE.INTER>
-6.00072

>  <SCORE.INTER.CONST>
1

>  <SCORE.INTER.POLAR>
0

>  <SCORE.INTER.ROT>
3

>  <SCORE.INTER.SOLV>
14.624

>  <SCORE.INTER.VDW>
-14.4751

>  <SCORE.INTER.norm>
-0.27276

>  <SCORE.INTRA>
1.95575

>  <SCORE.INTRA.DIHEDRAL>
-0.64931

>  <SCORE.INTRA.DIHEDRAL.0>
6.10773

>  <SCORE.INTRA.POLAR>
0

>  <SCORE.INTRA.POLAR.0>
0

>  <SCORE.INTRA.REPUL>
0

>  <SCORE.INTRA.REPUL.0>
0

>  <SCORE.INTRA.SOLV>
3.93914

>  <SCORE.INTRA.SOLV.lig_0>
-71.4024

>  <SCORE.INTRA.VDW>
0.310834

>  <SCORE.INTRA.VDW.0>
-1.86213

>  <SCORE.INTRA.norm>
0.0888978

>  <SCORE.RESTR>
0.00661265

>  <SCORE.RESTR.CAVITY>
0.00661265

>  <SCORE.RESTR.norm>
0.000300575

>  <SCORE.SYSTEM>
0

>  <SCORE.SYSTEM.CONST>
0

>  <SCORE.SYSTEM.DIHEDRAL>
0

>  <SCORE.SYSTEM.SOLV>
0

>  <SCORE.SYSTEM.norm>
0

>  <SCORE.heavy>
22

>  <SCORE.norm>
-0.183562

>  <RMSD>
32.393

$$$$
lig.pdb
 OpenBabel11021811523D
libRbt.so/2013.1/901 2013/11/27
 22 23  0  0  0  0  0  0  0  0999 V2000
  -19.4632    4.7503  -29.3730 C   0  0  1  0  0  0  0  0  0  0  0  0
  -17.7601    6.1562  -28.1425 C   0  0  1  0  0  0  0  0  0  0  0  0
  -16.5346    6.1363  -29.1598 C   0  0  1  0  0  0  0  0  0  0  0  0
  -15.1998    6.3914  -28.3241 C   0  0  2  0  0  0  0  0  0  0  0  0
  -20.7399    5.0086  -30.2638 C   0  0  1  0  0  0  0  0  0  0  0  0
  -21.8426    5.5915  -29.3579 C   0  0  2  0  0  0  0  0  0  0  0  0
  -22.2204    4.5979  -28.2451 C   0  0  2  0  0  0  0  0  0  0  0  0
  -20.9829    4.2666  -27.3334 C   0  0  1  0  0  0  0  0  0  0  0  0
  -21.3464    3.2202  -26.2409 C   0  0  0  0  0  0  0  0  0  0  0  0
  -15.2739    7.8511  -27.6416 C   0  0  1  0  0  0  0  0  0  0  0  0
  -16.5223    7.8337  -26.6243 C   0  0  0  0  0  0  0  0  0  0  0  0
  -17.8704    7.5420  -27.4306 C   0  0  2  0  0  0  0  0  0  0  0  0
  -22.7264    3.3526  -28.8337 F   0  0  0  0  0  0  0  0  0  0  0  0
  -20.3479    5.9703  -31.3661 N   0  0  0  0  0  0  0  0  0  0  0  0
  -20.3207    2.9593  -25.3037 N   0  0  0  0  0  0  0  0  0  0  0  0
  -14.0422    8.1312  -26.8272 N   0  0  0  0  0  0  0  0  0  0  0  0
  -19.0108    7.5257  -26.4918 N   0  0  0  0  0  0  0  0  0  0  0  0
  -18.9779    5.9425  -28.8400 O   0  0  0  0  0  0  0  0  0  0  0  0
  -16.4826    4.7936  -29.7849 O   0  0  0  0  0  0  0  0  0  0  0  0
  -14.1414    6.3601  -29.2351 O   0  0  0  0  0  0  0  0  0  0  0  0
  -22.7728    5.7769  -30.0088 O   0  0  0  0  0  0  0  0  0  0  0  0
  -19.8632    3.7751  -28.2688 O   0  0  0  0  0  0  0  0  0  0  0  0
  1  5  1  0  0  0  0
  1 18  1  1  0  0  0
  2 18  1  6  0  0  0
  2  3  1  0  0  0  0
  2 12  1  0  0  0  0
  3 19  1  1  0  0  0
  3  4  1  0  0  0  0
  4 20  1  6  0  0  0
  4 10  1  0  0  0  0
  5  6  1  0  0  0  0
  5 14  1  6  0  0  0
  6 21  1  6  0  0  0
  7 13  1  6  0  0  0
  7  6  1  0  0  0  0
  8  9  1  1  0  0  0
  8  7  1  0  0  0  0
 10 16  1  1  0  0  0
 11 10  1  0  0  0  0
 12 17  1  1  0  0  0
 12 11  1  0  0  0  0
 15  9  1  0  0  0  0
 22  8  1  0  0  0  0
 22  1  1  0  0  0  0
M  END
>  <CHROM.1>
-170.85292739,74.39743723,-174.49842886,-18.88939415,5.58113683,-28.35282173
-3.13339209,0.41911498,1.76302755

>  <Name>
lig.pdb

>  <RI>
0

>  <Rbt.Current_Directory>
/home/itssahil/PROJECTS/Mol_Feturizer/New_Systems/rnas/5bws

>  <Rbt.Executable>
rbdock ($Id: //depot/dev/client3/rdock/2013.1/src/exe/rbdock.cxx#4 $)

>  <Rbt.Library>
libRbt.so (2013.1, Build901 2013/11/27)

>  <Rbt.Parameter_File>
/export/apps/rDock/src/rDock_2013.1_src/data/scripts/dock_solv.prm

>  <Rbt.Receptor>
prm/blind_docking_60.prm

>  <SCORE>
-7.55712

>  <SCORE.INTER>
-4.76377

>  <SCORE.INTER.CONST>
1

>  <SCORE.INTER.POLAR>
0

>  <SCORE.INTER.ROT>
3

>  <SCORE.INTER.SOLV>
17.8694

>  <SCORE.INTER.VDW>
-14.7323

>  <SCORE.INTER.norm>
-0.216535

>  <SCORE.INTRA>
-2.79335

>  <SCORE.INTRA.DIHEDRAL>
-4.61692

>  <SCORE.INTRA.DIHEDRAL.0>
6.10773

>  <SCORE.INTRA.POLAR>
0

>  <SCORE.INTRA.POLAR.0>
0

>  <SCORE.INTRA.REPUL>
0

>  <SCORE.INTRA.REPUL.0>
0

>  <SCORE.INTRA.SOLV>
-1.30084

>  <SCORE.INTRA.SOLV.lig_0>
-71.4024

>  <SCORE.INTRA.VDW>
0.16553

>  <SCORE.INTRA.VDW.0>
-1.86213

>  <SCORE.INTRA.norm>
-0.12697

>  <SCORE.RESTR>
0

>  <SCORE.RESTR.CAVITY>
0

>  <SCORE.RESTR.norm>
0

>  <SCORE.SYSTEM>
0

>  <SCORE.SYSTEM.CONST>
0

>  <SCORE.SYSTEM.DIHEDRAL>
0

>  <SCORE.SYSTEM.SOLV>
0

>  <SCORE.SYSTEM.norm>
0

>  <SCORE.heavy>
22

>  <SCORE.norm>
-0.343505

>  <RMSD>
32.480

$$$$
lig.pdb
 OpenBabel11021811523D
libRbt.so/2013.1/901 2013/11/27
 22 23  0  0  0  0  0  0  0  0999 V2000
  -19.4504    4.7391  -29.3832 C   0  0  1  0  0  0  0  0  0  0  0  0
  -17.7485    6.1511  -28.1580 C   0  0  1  0  0  0  0  0  0  0  0  0
  -16.5077    6.1185  -29.1562 C   0  0  1  0  0  0  0  0  0  0  0  0
  -15.1846    6.3739  -28.3020 C   0  0  2  0  0  0  0  0  0  0  0  0
  -20.7157    4.9917  -30.2917 C   0  0  1  0  0  0  0  0  0  0  0  0
  -21.8200    5.6072  -29.4096 C   0  0  2  0  0  0  0  0  0  0  0  0
  -22.2195    4.6434  -28.2784 C   0  0  2  0  0  0  0  0  0  0  0  0
  -20.9944    4.3189  -27.3478 C   0  0  1  0  0  0  0  0  0  0  0  0
  -21.3800    3.3015  -26.2355 C   0  0  0  0  0  0  0  0  0  0  0  0
  -15.2627    7.8390  -27.6314 C   0  0  1  0  0  0  0  0  0  0  0  0
  -16.5266    7.8344  -26.6333 C   0  0  0  0  0  0  0  0  0  0  0  0
  -17.8635    7.5426  -27.4580 C   0  0  2  0  0  0  0  0  0  0  0  0
  -22.7343    3.3909  -28.8436 F   0  0  0  0  0  0  0  0  0  0  0  0
  -20.3025    5.9237  -31.4115 N   0  0  0  0  0  0  0  0  0  0  0  0
  -20.3668    3.0519  -25.2818 N   0  0  0  0  0  0  0  0  0  0  0  0
  -14.0424    8.1197  -26.8003 N   0  0  0  0  0  0  0  0  0  0  0  0
  -19.0182    7.5381  -26.5367 N   0  0  0  0  0  0  0  0  0  0  0  0
  -18.9564    5.9376  -28.8725 O   0  0  0  0  0  0  0  0  0  0  0  0
  -16.4520    4.7710  -29.7706 O   0  0  0  0  0  0  0  0  0  0  0  0
  -14.1127    6.3313  -29.1965 O   0  0  0  0  0  0  0  0  0  0  0  0
  -22.7420    5.7884  -30.0734 O   0  0  0  0  0  0  0  0  0  0  0  0
  -19.8718    3.7938  -28.2612 O   0  0  0  0  0  0  0  0  0  0  0  0
  1  5  1  0  0  0  0
  1 18  1  1  0  0  0
  2 18  1  6  0  0  0
  2  3  1  0  0  0  0
  2 12  1  0  0  0  0
  3 19  1  1  0  0  0
  3  4  1  0  0  0  0
  4 20  1  6  0  0  0
  4 10  1  0  0  0  0
  5  6  1  0  0  0  0
  5 14  1  6  0  0  0
  6 21  1  6  0  0  0
  7 13  1  6  0  0  0
  7  6  1  0  0  0  0
  8  9  1  1  0  0  0
  8  7  1  0  0  0  0
 10 16  1  1  0  0  0
 11 10  1  0  0  0  0
 12 17  1  1  0  0  0
 12 11  1  0  0  0  0
 15  9  1  0  0  0  0
 22  8  1  0  0  0  0
 22  1  1  0  0  0  0
M  END
>  <CHROM.1>
-171.47113372,75.67255317,-174.40674635,-18.88164950,5.58929137,-28.36331693
-3.11358257,0.41157408,1.73055764

>  <Name>
lig.pdb

>  <RI>
0

>  <Rbt.Current_Directory>
/home/itssahil/PROJECTS/Mol_Feturizer/New_Systems/rnas/5bws

>  <Rbt.Executable>
rbdock ($Id: //depot/dev/client3/rdock/2013.1/src/exe/rbdock.cxx#4 $)

>  <Rbt.Library>
libRbt.so (2013.1, Build901 2013/11/27)

>  <Rbt.Parameter_File>
/export/apps/rDock/src/rDock_2013.1_src/data/scripts/dock_solv.prm

>  <Rbt.Receptor>
prm/blind_docking_60.prm

>  <SCORE>
-7.52061

>  <SCORE.INTER>
-4.78756

>  <SCORE.INTER.CONST>
1

>  <SCORE.INTER.POLAR>
0

>  <SCORE.INTER.ROT>
3

>  <SCORE.INTER.SOLV>
17.687

>  <SCORE.INTER.VDW>
-14.6874

>  <SCORE.INTER.norm>
-0.217616

>  <SCORE.INTRA>
-2.73305

>  <SCORE.INTRA.DIHEDRAL>
-4.49517

>  <SCORE.INTRA.DIHEDRAL.0>
6.10773

>  <SCORE.INTRA.POLAR>
0

>  <SCORE.INTRA.POLAR.0>
0

>  <SCORE.INTRA.REPUL>
0

>  <SCORE.INTRA.REPUL.0>
0

>  <SCORE.INTRA.SOLV>
-1.25793

>  <SCORE.INTRA.SOLV.lig_0>
-71.4024

>  <SCORE.INTRA.VDW>
0.1435

>  <SCORE.INTRA.VDW.0>
-1.86213

>  <SCORE.INTRA.norm>
-0.124229

>  <SCORE.RESTR>
0

>  <SCORE.RESTR.CAVITY>
0

>  <SCORE.RESTR.norm>
0

>  <SCORE.SYSTEM>
0

>  <SCORE.SYSTEM.CONST>
0

>  <SCORE.SYSTEM.DIHEDRAL>
0

>  <SCORE.SYSTEM.SOLV>
0

>  <SCORE.SYSTEM.norm>
0

>  <SCORE.heavy>
22

>  <SCORE.norm>
-0.341846

>  <RMSD>
32.490

$$$$
lig.pdb
 OpenBabel11021811523D
libRbt.so/2013.1/901 2013/11/27
 22 23  0  0  0  0  0  0  0  0999 V2000
  -15.1517   -9.5047  -29.0357 C   0  0  1  0  0  0  0  0  0  0  0  0
  -12.9778   -8.6828  -30.0307 C   0  0  1  0  0  0  0  0  0  0  0  0
  -13.3598   -7.1472  -29.8493 C   0  0  1  0  0  0  0  0  0  0  0  0
  -12.0087   -6.2993  -29.8779 C   0  0  2  0  0  0  0  0  0  0  0  0
  -16.0077  -10.8265  -29.1376 C   0  0  1  0  0  0  0  0  0  0  0  0
  -16.6964  -10.8425  -30.5166 C   0  0  2  0  0  0  0  0  0  0  0  0
  -17.6425   -9.6386  -30.6714 C   0  0  2  0  0  0  0  0  0  0  0  0
  -16.8603   -8.2803  -30.5472 C   0  0  1  0  0  0  0  0  0  0  0  0
  -17.8210   -7.0606  -30.6476 C   0  0  0  0  0  0  0  0  0  0  0  0
  -11.0787   -6.7445  -28.6373 C   0  0  1  0  0  0  0  0  0  0  0  0
  -10.7154   -8.2985  -28.8536 C   0  0  0  0  0  0  0  0  0  0  0  0
  -12.0557   -9.1683  -28.8673 C   0  0  2  0  0  0  0  0  0  0  0  0
  -18.6864   -9.6840  -29.6411 F   0  0  0  0  0  0  0  0  0  0  0  0
  -15.0678  -12.0009  -28.9623 N   0  0  0  0  0  0  0  0  0  0  0  0
  -18.8065   -6.9959  -29.6360 N   0  0  0  0  0  0  0  0  0  0  0  0
   -9.7830   -5.9830  -28.6314 N   0  0  0  0  0  0  0  0  0  0  0  0
  -11.7156  -10.5918  -29.0677 N   0  0  0  0  0  0  0  0  0  0  0  0
  -14.1489   -9.4845  -30.0027 O   0  0  0  0  0  0  0  0  0  0  0  0
  -14.2197   -6.7534  -30.9903 O   0  0  0  0  0  0  0  0  0  0  0  0
  -12.3706   -4.9587  -29.7268 O   0  0  0  0  0  0  0  0  0  0  0  0
  -17.3215  -11.8056  -30.5879 O   0  0  0  0  0  0  0  0  0  0  0  0
  -16.1057   -8.3253  -29.2060 O   0  0  0  0  0  0  0  0  0  0  0  0
  1  5  1  0  0  0  0
  1 18  1  6  0  0  0
  2 18  1  1  0  0  0
  2  3  1  0  0  0  0
  2 12  1  0  0  0  0
  3 19  1  6  0  0  0
  3  4  1  0  0  0  0
  4 20  1  1  0  0  0
  4 10  1  0  0  0  0
  5  6  1  0  0  0  0
  5 14  1  6  0  0  0
  6 21  1  1  0  0  0
  7 13  1  1  0  0  0
  7  6  1  0  0  0  0
  8  9  1  1  0  0  0
  8  7  1  0  0  0  0
 10 16  1  6  0  0  0
 11 10  1  0  0  0  0
 12 17  1  6  0  0  0
 12 11  1  0  0  0  0
 15  9  1  0  0  0  0
 22  8  1  0  0  0  0
 22  1  1  0  0  0  0
M  END
>  <CHROM.1>
-161.80325366,-52.56610470,61.43287296,-14.65253497,-8.59743072,-29.69901829
-2.74722895,-0.17589069,-0.10393368

>  <Name>
lig.pdb

>  <RI>
0

>  <Rbt.Current_Directory>
/home/itssahil/PROJECTS/Mol_Feturizer/New_Systems/rnas/5bws

>  <Rbt.Executable>
rbdock ($Id: //depot/dev/client3/rdock/2013.1/src/exe/rbdock.cxx#4 $)

>  <Rbt.Library>
libRbt.so (2013.1, Build901 2013/11/27)

>  <Rbt.Parameter_File>
/export/apps/rDock/src/rDock_2013.1_src/data/scripts/dock_solv.prm

>  <Rbt.Receptor>
prm/blind_docking_60.prm

>  <SCORE>
-7.1963

>  <SCORE.INTER>
-6.09215

>  <SCORE.INTER.CONST>
1

>  <SCORE.INTER.POLAR>
0

>  <SCORE.INTER.ROT>
3

>  <SCORE.INTER.SOLV>
16.6609

>  <SCORE.INTER.VDW>
-15.2151

>  <SCORE.INTER.norm>
-0.276916

>  <SCORE.INTRA>
-1.10534

>  <SCORE.INTRA.DIHEDRAL>
-4.31475

>  <SCORE.INTRA.DIHEDRAL.0>
6.10773

>  <SCORE.INTRA.POLAR>
0

>  <SCORE.INTRA.POLAR.0>
0

>  <SCORE.INTRA.REPUL>
0

>  <SCORE.INTRA.REPUL.0>
0

>  <SCORE.INTRA.SOLV>
2.01876

>  <SCORE.INTRA.SOLV.lig_0>
-71.4024

>  <SCORE.INTRA.VDW>
0.0426523

>  <SCORE.INTRA.VDW.0>
-1.86213

>  <SCORE.INTRA.norm>
-0.0502428

>  <SCORE.RESTR>
0.00119828

>  <SCORE.RESTR.CAVITY>
0.00119828

>  <SCORE.RESTR.norm>
5.44671e-05

>  <SCORE.SYSTEM>
0

>  <SCORE.SYSTEM.CONST>
0

>  <SCORE.SYSTEM.DIHEDRAL>
0

>  <SCORE.SYSTEM.SOLV>
0

>  <SCORE.SYSTEM.norm>
0

>  <SCORE.heavy>
22

>  <SCORE.norm>
-0.327104

>  <RMSD>
32.494

$$$$
lig.pdb
 OpenBabel11021811523D
libRbt.so/2013.1/901 2013/11/27
 22 23  0  0  0  0  0  0  0  0999 V2000
  -20.1974    3.3668  -27.1126 C   0  0  1  0  0  0  0  0  0  0  0  0
  -20.8232    5.1349  -28.8078 C   0  0  1  0  0  0  0  0  0  0  0  0
  -20.7877    4.2868  -30.1556 C   0  0  1  0  0  0  0  0  0  0  0  0
  -20.5206    5.2954  -31.3625 C   0  0  2  0  0  0  0  0  0  0  0  0
  -20.8814    2.6414  -25.8895 C   0  0  1  0  0  0  0  0  0  0  0  0
  -21.2134    3.7087  -24.8279 C   0  0  2  0  0  0  0  0  0  0  0  0
  -19.9335    4.4014  -24.3274 C   0  0  2  0  0  0  0  0  0  0  0  0
  -19.1783    5.1209  -25.5040 C   0  0  1  0  0  0  0  0  0  0  0  0
  -17.8550    5.7756  -25.0130 C   0  0  0  0  0  0  0  0  0  0  0  0
  -21.7404    6.3472  -31.4525 C   0  0  1  0  0  0  0  0  0  0  0  0
  -21.7458    7.1826  -30.0756 C   0  0  0  0  0  0  0  0  0  0  0  0
  -21.9739    6.1903  -28.8443 C   0  0  2  0  0  0  0  0  0  0  0  0
  -19.0349    3.4157  -23.7158 F   0  0  0  0  0  0  0  0  0  0  0  0
  -22.1265    1.9472  -26.4006 N   0  0  0  0  0  0  0  0  0  0  0  0
  -17.1463    6.4959  -26.0017 N   0  0  0  0  0  0  0  0  0  0  0  0
  -21.5252    7.3317  -32.5675 N   0  0  0  0  0  0  0  0  0  0  0  0
  -21.9762    6.9624  -27.5849 N   0  0  0  0  0  0  0  0  0  0  0  0
  -21.0685    4.2821  -27.6999 O   0  0  0  0  0  0  0  0  0  0  0  0
  -19.6687    3.3201  -30.0568 O   0  0  0  0  0  0  0  0  0  0  0  0
  -20.4848    4.5279  -32.5290 O   0  0  0  0  0  0  0  0  0  0  0  0
  -21.7097    3.1775  -23.9364 O   0  0  0  0  0  0  0  0  0  0  0  0
  -18.9400    4.0582  -26.5921 O   0  0  0  0  0  0  0  0  0  0  0  0
  1  5  1  0  0  0  0
  1 18  1  1  0  0  0
  2 18  1  1  0  0  0
  2  3  1  0  0  0  0
  2 12  1  0  0  0  0
  3 19  1  1  0  0  0
  3  4  1  0  0  0  0
  4 20  1  6  0  0  0
  4 10  1  0  0  0  0
  5  6  1  0  0  0  0
  5 14  1  6  0  0  0
  6 21  1  1  0  0  0
  7 13  1  6  0  0  0
  7  6  1  0  0  0  0
  8  9  1  1  0  0  0
  8  7  1  0  0  0  0
 10 16  1  6  0  0  0
 11 10  1  0  0  0  0
 12 17  1  1  0  0  0
 12 11  1  0  0  0  0
 15  9  1  0  0  0  0
 22  8  1  0  0  0  0
 22  1  1  0  0  0  0
M  END
>  <CHROM.1>
179.31227671,72.77512327,-177.25939590,-20.44452262,4.72529469,-27.69445421
1.28284858,0.84400958,2.07589757

>  <Name>
lig.pdb

>  <RI>
0

>  <Rbt.Current_Directory>
/home/itssahil/PROJECTS/Mol_Feturizer/New_Systems/rnas/5bws

>  <Rbt.Executable>
rbdock ($Id: //depot/dev/client3/rdock/2013.1/src/exe/rbdock.cxx#4 $)

>  <Rbt.Library>
libRbt.so (2013.1, Build901 2013/11/27)

>  <Rbt.Parameter_File>
/export/apps/rDock/src/rDock_2013.1_src/data/scripts/dock_solv.prm

>  <Rbt.Receptor>
prm/blind_docking_40.prm

>  <SCORE>
-3.69193

>  <SCORE.INTER>
-0.516834

>  <SCORE.INTER.CONST>
1

>  <SCORE.INTER.POLAR>
0

>  <SCORE.INTER.ROT>
3

>  <SCORE.INTER.SOLV>
18.7403

>  <SCORE.INTER.VDW>
-12.1913

>  <SCORE.INTER.norm>
-0.0234924

>  <SCORE.INTRA>
-3.1751

>  <SCORE.INTRA.DIHEDRAL>
-5.30046

>  <SCORE.INTRA.DIHEDRAL.0>
6.10773

>  <SCORE.INTRA.POLAR>
0

>  <SCORE.INTRA.POLAR.0>
0

>  <SCORE.INTRA.REPUL>
0

>  <SCORE.INTRA.REPUL.0>
0

>  <SCORE.INTRA.SOLV>
-1.38239

>  <SCORE.INTRA.SOLV.lig_0>
-71.4024

>  <SCORE.INTRA.VDW>
0.166327

>  <SCORE.INTRA.VDW.0>
-1.86213

>  <SCORE.INTRA.norm>
-0.144323

>  <SCORE.RESTR>
0

>  <SCORE.RESTR.CAVITY>
0

>  <SCORE.RESTR.norm>
0

>  <SCORE.SYSTEM>
0

>  <SCORE.SYSTEM.CONST>
0

>  <SCORE.SYSTEM.DIHEDRAL>
0

>  <SCORE.SYSTEM.SOLV>
0

>  <SCORE.SYSTEM.norm>
0

>  <SCORE.heavy>
22

>  <SCORE.norm>
-0.167815

>  <RMSD>
32.818

$$$$
lig.pdb
 OpenBabel11021811523D
libRbt.so/2013.1/901 2013/11/27
 22 23  0  0  0  0  0  0  0  0999 V2000
  -13.6513   -8.3410  -30.3629 C   0  0  1  0  0  0  0  0  0  0  0  0
  -13.2549  -10.7447  -29.6874 C   0  0  1  0  0  0  0  0  0  0  0  0
  -11.7041  -10.9794  -29.9649 C   0  0  1  0  0  0  0  0  0  0  0  0
  -11.4839  -12.5372  -30.2297 C   0  0  2  0  0  0  0  0  0  0  0  0
  -13.4043   -6.9351  -29.6901 C   0  0  1  0  0  0  0  0  0  0  0  0
  -14.4775   -6.7327  -28.6022 C   0  0  2  0  0  0  0  0  0  0  0  0
  -15.8886   -6.7356  -29.2164 C   0  0  2  0  0  0  0  0  0  0  0  0
  -16.1935   -8.0999  -29.9361 C   0  0  1  0  0  0  0  0  0  0  0  0
  -17.5976   -8.0871  -30.6061 C   0  0  0  0  0  0  0  0  0  0  0  0
  -11.8968  -13.3621  -28.9064 C   0  0  1  0  0  0  0  0  0  0  0  0
  -13.4661  -13.0996  -28.6570 C   0  0  0  0  0  0  0  0  0  0  0  0
  -13.7213  -11.5393  -28.4262 C   0  0  2  0  0  0  0  0  0  0  0  0
  -16.0156   -5.6442  -30.1891 F   0  0  0  0  0  0  0  0  0  0  0  0
  -12.0056   -6.9395  -29.1094 N   0  0  0  0  0  0  0  0  0  0  0  0
  -17.9993   -9.3209  -31.1672 N   0  0  0  0  0  0  0  0  0  0  0  0
  -11.7221  -14.8404  -29.1134 N   0  0  0  0  0  0  0  0  0  0  0  0
  -15.1622  -11.3053  -28.1999 N   0  0  0  0  0  0  0  0  0  0  0  0
  -13.5039   -9.3701  -29.4353 O   0  0  0  0  0  0  0  0  0  0  0  0
  -11.3364  -10.2108  -31.1774 O   0  0  0  0  0  0  0  0  0  0  0  0
  -10.1211  -12.7151  -30.4790 O   0  0  0  0  0  0  0  0  0  0  0  0
  -14.2970   -5.7065  -28.1148 O   0  0  0  0  0  0  0  0  0  0  0  0
  -15.0594   -8.3273  -30.9521 O   0  0  0  0  0  0  0  0  0  0  0  0
  1  5  1  0  0  0  0
  1 18  1  1  0  0  0
  2 18  1  1  0  0  0
  2  3  1  0  0  0  0
  2 12  1  0  0  0  0
  3 19  1  6  0  0  0
  3  4  1  0  0  0  0
  4 20  1  1  0  0  0
  4 10  1  0  0  0  0
  5  6  1  0  0  0  0
  5 14  1  1  0  0  0
  6 21  1  6  0  0  0
  7 13  1  6  0  0  0
  7  6  1  0  0  0  0
  8  9  1  6  0  0  0
  8  7  1  0  0  0  0
 10 16  1  6  0  0  0
 11 10  1  0  0  0  0
 12 17  1  6  0  0  0
 12 11  1  0  0  0  0
 15  9  1  0  0  0  0
 22  8  1  0  0  0  0
 22  1  1  0  0  0  0
M  END
>  <CHROM.1>
-159.83022743,80.96690797,-174.33113130,-13.82926207,-9.54317309,-29.67194457
-2.14587367,0.05421788,-3.13802013

>  <Name>
lig.pdb

>  <RI>
0

>  <Rbt.Current_Directory>
/home/itssahil/PROJECTS/Mol_Feturizer/New_Systems/rnas/5bws

>  <Rbt.Executable>
rbdock ($Id: //depot/dev/client3/rdock/2013.1/src/exe/rbdock.cxx#4 $)

>  <Rbt.Library>
libRbt.so (2013.1, Build901 2013/11/27)

>  <Rbt.Parameter_File>
/export/apps/rDock/src/rDock_2013.1_src/data/scripts/dock_solv.prm

>  <Rbt.Receptor>
prm/blind_docking_40.prm

>  <SCORE>
-4.81555

>  <SCORE.INTER>
-3.427

>  <SCORE.INTER.CONST>
1

>  <SCORE.INTER.POLAR>
0

>  <SCORE.INTER.ROT>
3

>  <SCORE.INTER.SOLV>
15.0243

>  <SCORE.INTER.VDW>
-12.8928

>  <SCORE.INTER.norm>
-0.155773

>  <SCORE.INTRA>
-1.38855

>  <SCORE.INTRA.DIHEDRAL>
-2.20359

>  <SCORE.INTRA.DIHEDRAL.0>
6.10773

>  <SCORE.INTRA.POLAR>
0

>  <SCORE.INTRA.POLAR.0>
0

>  <SCORE.INTRA.REPUL>
0

>  <SCORE.INTRA.REPUL.0>
0

>  <SCORE.INTRA.SOLV>
-0.722254

>  <SCORE.INTRA.SOLV.lig_0>
-71.4024

>  <SCORE.INTRA.VDW>
0.0743769

>  <SCORE.INTRA.VDW.0>
-1.86213

>  <SCORE.INTRA.norm>
-0.0631157

>  <SCORE.RESTR>
0

>  <SCORE.RESTR.CAVITY>
0

>  <SCORE.RESTR.norm>
0

>  <SCORE.SYSTEM>
0

>  <SCORE.SYSTEM.CONST>
0

>  <SCORE.SYSTEM.DIHEDRAL>
0

>  <SCORE.SYSTEM.SOLV>
0

>  <SCORE.SYSTEM.norm>
0

>  <SCORE.heavy>
22

>  <SCORE.norm>
-0.218889

>  <RMSD>
32.832

$$$$
lig.pdb
 OpenBabel11021811523D
libRbt.so/2013.1/901 2013/11/27
 22 23  0  0  0  0  0  0  0  0999 V2000
  -14.5446  -10.2942  -29.9195 C   0  0  1  0  0  0  0  0  0  0  0  0
  -16.5906   -9.1906  -28.9260 C   0  0  1  0  0  0  0  0  0  0  0  0
  -16.2847   -7.6546  -29.2160 C   0  0  1  0  0  0  0  0  0  0  0  0
  -17.6785   -6.8814  -29.2834 C   0  0  2  0  0  0  0  0  0  0  0  0
  -13.2617  -11.0446  -29.3892 C   0  0  1  0  0  0  0  0  0  0  0  0
  -12.4734  -10.0666  -28.4956 C   0  0  2  0  0  0  0  0  0  0  0  0
  -12.0180   -8.8353  -29.2986 C   0  0  2  0  0  0  0  0  0  0  0  0
  -13.2481   -8.0533  -29.8882 C   0  0  1  0  0  0  0  0  0  0  0  0
  -12.7905   -6.8393  -30.7470 C   0  0  0  0  0  0  0  0  0  0  0  0
  -18.5504   -7.4686  -30.5070 C   0  0  1  0  0  0  0  0  0  0  0  0
  -18.8376   -9.0193  -30.1804 C   0  0  0  0  0  0  0  0  0  0  0  0
  -17.4546   -9.8116  -30.0694 C   0  0  2  0  0  0  0  0  0  0  0  0
  -11.1431   -9.2499  -30.4013 F   0  0  0  0  0  0  0  0  0  0  0  0
  -13.7243  -12.2644  -28.6200 N   0  0  0  0  0  0  0  0  0  0  0  0
  -12.0704   -5.8494  -30.0399 N   0  0  0  0  0  0  0  0  0  0  0  0
  -19.8835   -6.7811  -30.6008 N   0  0  0  0  0  0  0  0  0  0  0  0
  -17.7250  -11.2323  -29.7681 N   0  0  0  0  0  0  0  0  0  0  0  0
  -15.3788   -9.9275  -28.8657 O   0  0  0  0  0  0  0  0  0  0  0  0
  -15.4774   -7.1298  -28.0893 O   0  0  0  0  0  0  0  0  0  0  0  0
  -17.3833   -5.5384  -29.5287 O   0  0  0  0  0  0  0  0  0  0  0  0
  -11.5377  -10.6149  -28.1119 O   0  0  0  0  0  0  0  0  0  0  0  0
  -14.0713   -9.0703  -30.6996 O   0  0  0  0  0  0  0  0  0  0  0  0
  1  5  1  0  0  0  0
  1 18  1  1  0  0  0
  2 18  1  6  0  0  0
  2  3  1  0  0  0  0
  2 12  1  0  0  0  0
  3 19  1  1  0  0  0
  3  4  1  0  0  0  0
  4 20  1  6  0  0  0
  4 10  1  0  0  0  0
  5  6  1  0  0  0  0
  5 14  1  1  0  0  0
  6 21  1  6  0  0  0
  7 13  1  6  0  0  0
  7  6  1  0  0  0  0
  8  9  1  6  0  0  0
  8  7  1  0  0  0  0
 10 16  1  1  0  0  0
 11 10  1  0  0  0  0
 12 17  1  1  0  0  0
 12 11  1  0  0  0  0
 15  9  1  0  0  0  0
 22  8  1  0  0  0  0
 22  1  1  0  0  0  0
M  END
>  <CHROM.1>
177.03133698,-73.43475668,-62.42481650,-15.01981653,-8.75702695,-29.57405637
0.31056778,0.03654974,2.98953531

>  <Name>
lig.pdb

>  <RI>
0

>  <Rbt.Current_Directory>
/home/itssahil/PROJECTS/Mol_Feturizer/New_Systems/rnas/5bws

>  <Rbt.Executable>
rbdock ($Id: //depot/dev/client3/rdock/2013.1/src/exe/rbdock.cxx#4 $)

>  <Rbt.Library>
libRbt.so (2013.1, Build901 2013/11/27)

>  <Rbt.Parameter_File>
/export/apps/rDock/src/rDock_2013.1_src/data/scripts/dock_solv.prm

>  <Rbt.Receptor>
prm/blind_docking_40.prm

>  <SCORE>
-7.58881

>  <SCORE.INTER>
-5.12212

>  <SCORE.INTER.CONST>
1

>  <SCORE.INTER.POLAR>
0

>  <SCORE.INTER.ROT>
3

>  <SCORE.INTER.SOLV>
19.2987

>  <SCORE.INTER.VDW>
-15.4476

>  <SCORE.INTER.norm>
-0.232824

>  <SCORE.INTRA>
-2.46669

>  <SCORE.INTRA.DIHEDRAL>
-5.1861

>  <SCORE.INTRA.DIHEDRAL.0>
6.10773

>  <SCORE.INTRA.POLAR>
0

>  <SCORE.INTRA.POLAR.0>
0

>  <SCORE.INTRA.REPUL>
0

>  <SCORE.INTRA.REPUL.0>
0

>  <SCORE.INTRA.SOLV>
-0.0565172

>  <SCORE.INTRA.SOLV.lig_0>
-71.4024

>  <SCORE.INTRA.VDW>
0.154618

>  <SCORE.INTRA.VDW.0>
-1.86213

>  <SCORE.INTRA.norm>
-0.112122

>  <SCORE.RESTR>
0

>  <SCORE.RESTR.CAVITY>
0

>  <SCORE.RESTR.norm>
0

>  <SCORE.SYSTEM>
0

>  <SCORE.SYSTEM.CONST>
0

>  <SCORE.SYSTEM.DIHEDRAL>
0

>  <SCORE.SYSTEM.SOLV>
0

>  <SCORE.SYSTEM.norm>
0

>  <SCORE.heavy>
22

>  <SCORE.norm>
-0.344946

>  <RMSD>
32.872

$$$$
lig.pdb
 OpenBabel11021811523D
libRbt.so/2013.1/901 2013/11/27
 22 23  0  0  0  0  0  0  0  0999 V2000
  -18.7197    7.7102  -26.8846 C   0  0  1  0  0  0  0  0  0  0  0  0
  -20.1343    6.8272  -28.7848 C   0  0  1  0  0  0  0  0  0  0  0  0
  -19.6749    7.8397  -29.9253 C   0  0  1  0  0  0  0  0  0  0  0  0
  -20.8318    7.9001  -31.0222 C   0  0  2  0  0  0  0  0  0  0  0  0
  -17.3761    7.2922  -26.1704 C   0  0  1  0  0  0  0  0  0  0  0  0
  -17.6463    6.0080  -25.3617 C   0  0  2  0  0  0  0  0  0  0  0  0
  -18.7139    6.2546  -24.2810 C   0  0  2  0  0  0  0  0  0  0  0  0
  -20.0768    6.7086  -24.9203 C   0  0  1  0  0  0  0  0  0  0  0  0
  -21.1427    7.0126  -23.8285 C   0  0  0  0  0  0  0  0  0  0  0  0
  -21.0140    6.4383  -31.6796 C   0  0  1  0  0  0  0  0  0  0  0  0
  -21.4754    5.4443  -30.4995 C   0  0  0  0  0  0  0  0  0  0  0  0
  -20.3500    5.3939  -29.3665 C   0  0  2  0  0  0  0  0  0  0  0  0
  -18.2554    7.2910  -23.3489 F   0  0  0  0  0  0  0  0  0  0  0  0
  -16.3302    7.0739  -27.2437 N   0  0  0  0  0  0  0  0  0  0  0  0
  -22.4135    7.3819  -24.3257 N   0  0  0  0  0  0  0  0  0  0  0  0
  -22.1078    6.4407  -32.7103 N   0  0  0  0  0  0  0  0  0  0  0  0
  -20.7801    4.4821  -28.2868 N   0  0  0  0  0  0  0  0  0  0  0  0
  -19.1316    6.7297  -27.7847 O   0  0  0  0  0  0  0  0  0  0  0  0
  -19.5038    9.1758  -29.3071 O   0  0  0  0  0  0  0  0  0  0  0  0
  -20.4098    8.7994  -32.0042 O   0  0  0  0  0  0  0  0  0  0  0  0
  -16.6663    5.7064  -24.8402 O   0  0  0  0  0  0  0  0  0  0  0  0
  -19.7671    7.9355  -25.7973 O   0  0  0  0  0  0  0  0  0  0  0  0
  1  5  1  0  0  0  0
  1 18  1  6  0  0  0
  2 18  1  1  0  0  0
  2  3  1  0  0  0  0
  2 12  1  0  0  0  0
  3 19  1  1  0  0  0
  3  4  1  0  0  0  0
  4 20  1  6  0  0  0
  4 10  1  0  0  0  0
  5  6  1  0  0  0  0
  5 14  1  6  0  0  0
  6 21  1  1  0  0  0
  7 13  1  1  0  0  0
  7  6  1  0  0  0  0
  8  9  1  1  0  0  0
  8  7  1  0  0  0  0
 10 16  1  6  0  0  0
 11 10  1  0  0  0  0
 12 17  1  1  0  0  0
 12 11  1  0  0  0  0
 15  9  1  0  0  0  0
 22  8  1  0  0  0  0
 22  1  1  0  0  0  0
M  END
>  <CHROM.1>
-167.43606876,67.58824976,-177.83448256,-19.62646045,6.93466763,-27.58816119
-1.24631113,-0.14362105,-1.48149674

>  <Name>
lig.pdb

>  <RI>
0

>  <Rbt.Current_Directory>
/home/itssahil/PROJECTS/Mol_Feturizer/New_Systems/rnas/5bws

>  <Rbt.Executable>
rbdock ($Id: //depot/dev/client3/rdock/2013.1/src/exe/rbdock.cxx#4 $)

>  <Rbt.Library>
libRbt.so (2013.1, Build901 2013/11/27)

>  <Rbt.Parameter_File>
/export/apps/rDock/src/rDock_2013.1_src/data/scripts/dock_solv.prm

>  <Rbt.Receptor>
prm/blind_docking_100.prm

>  <SCORE>
-2.65097

>  <SCORE.INTER>
0.27428

>  <SCORE.INTER.CONST>
1

>  <SCORE.INTER.POLAR>
0

>  <SCORE.INTER.ROT>
3

>  <SCORE.INTER.SOLV>
12.6296

>  <SCORE.INTER.VDW>
-9.627

>  <SCORE.INTER.norm>
0.0124673

>  <SCORE.INTRA>
-2.92525

>  <SCORE.INTRA.DIHEDRAL>
-5.05684

>  <SCORE.INTRA.DIHEDRAL.0>
6.10773

>  <SCORE.INTRA.POLAR>
0

>  <SCORE.INTRA.POLAR.0>
0

>  <SCORE.INTRA.REPUL>
0

>  <SCORE.INTRA.REPUL.0>
0

>  <SCORE.INTRA.SOLV>
-1.44977

>  <SCORE.INTRA.SOLV.lig_0>
-71.4024

>  <SCORE.INTRA.VDW>
0.328061

>  <SCORE.INTRA.VDW.0>
-1.86213

>  <SCORE.INTRA.norm>
-0.132966

>  <SCORE.RESTR>
0

>  <SCORE.RESTR.CAVITY>
0

>  <SCORE.RESTR.norm>
0

>  <SCORE.SYSTEM>
0

>  <SCORE.SYSTEM.CONST>
0

>  <SCORE.SYSTEM.DIHEDRAL>
0

>  <SCORE.SYSTEM.SOLV>
0

>  <SCORE.SYSTEM.norm>
0

>  <SCORE.heavy>
22

>  <SCORE.norm>
-0.120498

>  <RMSD>
32.900

$$$$
lig.pdb
 OpenBabel11021811523D
libRbt.so/2013.1/901 2013/11/27
 22 23  0  0  0  0  0  0  0  0999 V2000
  -16.8153    7.5492  -27.8330 C   0  0  1  0  0  0  0  0  0  0  0  0
  -17.5482    7.0764  -30.2059 C   0  0  1  0  0  0  0  0  0  0  0  0
  -18.3794    8.4262  -30.3607 C   0  0  1  0  0  0  0  0  0  0  0  0
  -19.4266    8.2237  -31.5471 C   0  0  2  0  0  0  0  0  0  0  0  0
  -15.4584    7.6060  -27.0295 C   0  0  1  0  0  0  0  0  0  0  0  0
  -14.8359    6.1958  -27.0460 C   0  0  2  0  0  0  0  0  0  0  0  0
  -15.7642    5.1783  -26.3594 C   0  0  2  0  0  0  0  0  0  0  0  0
  -17.1540    5.0924  -27.0897 C   0  0  1  0  0  0  0  0  0  0  0  0
  -18.1154    4.1059  -26.3664 C   0  0  0  0  0  0  0  0  0  0  0  0
  -18.6243    7.9570  -32.9209 C   0  0  1  0  0  0  0  0  0  0  0  0
  -17.7965    6.5894  -32.7263 C   0  0  0  0  0  0  0  0  0  0  0  0
  -16.7646    6.7515  -31.5173 C   0  0  2  0  0  0  0  0  0  0  0  0
  -15.9834    5.5623  -24.9602 F   0  0  0  0  0  0  0  0  0  0  0  0
  -14.5642    8.6257  -27.7032 N   0  0  0  0  0  0  0  0  0  0  0  0
  -19.4199    4.0436  -26.9078 N   0  0  0  0  0  0  0  0  0  0  0  0
  -19.5713    7.7427  -34.0681 N   0  0  0  0  0  0  0  0  0  0  0  0
  -16.0102    5.4934  -31.3432 N   0  0  0  0  0  0  0  0  0  0  0  0
  -16.5918    7.2078  -29.1651 O   0  0  0  0  0  0  0  0  0  0  0  0
  -19.1049    8.6633  -29.0904 O   0  0  0  0  0  0  0  0  0  0  0  0
  -20.1476    9.4150  -31.6563 O   0  0  0  0  0  0  0  0  0  0  0  0
  -13.8482    6.2390  -26.4579 O   0  0  0  0  0  0  0  0  0  0  0  0
  -17.7143    6.5253  -27.1447 O   0  0  0  0  0  0  0  0  0  0  0  0
  1  5  1  0  0  0  0
  1 18  1  6  0  0  0
  2 18  1  1  0  0  0
  2  3  1  0  0  0  0
  2 12  1  0  0  0  0
  3 19  1  1  0  0  0
  3  4  1  0  0  0  0
  4 20  1  6  0  0  0
  4 10  1  0  0  0  0
  5  6  1  0  0  0  0
  5 14  1  6  0  0  0
  6 21  1  1  0  0  0
  7 13  1  1  0  0  0
  7  6  1  0  0  0  0
  8  9  1  1  0  0  0
  8  7  1  0  0  0  0
 10 16  1  6  0  0  0
 11 10  1  0  0  0  0
 12 17  1  1  0  0  0
 12 11  1  0  0  0  0
 15  9  1  0  0  0  0
 22  8  1  0  0  0  0
 22  1  1  0  0  0  0
M  END
>  <CHROM.1>
-178.89602630,56.30177242,175.73848486,-17.24891953,6.82933467,-28.98725205
-1.10860197,-0.33646317,-1.05985749

>  <Name>
lig.pdb

>  <RI>
0

>  <Rbt.Current_Directory>
/home/itssahil/PROJECTS/Mol_Feturizer/New_Systems/rnas/5bws

>  <Rbt.Executable>
rbdock ($Id: //depot/dev/client3/rdock/2013.1/src/exe/rbdock.cxx#4 $)

>  <Rbt.Library>
libRbt.so (2013.1, Build901 2013/11/27)

>  <Rbt.Parameter_File>
/export/apps/rDock/src/rDock_2013.1_src/data/scripts/dock_solv.prm

>  <Rbt.Receptor>
prm/blind_docking_80.prm

>  <SCORE>
-6.07628

>  <SCORE.INTER>
-2.80088

>  <SCORE.INTER.CONST>
1

>  <SCORE.INTER.POLAR>
0

>  <SCORE.INTER.ROT>
3

>  <SCORE.INTER.SOLV>
19.2615

>  <SCORE.INTER.VDW>
-13.8877

>  <SCORE.INTER.norm>
-0.127313

>  <SCORE.INTRA>
-3.27541

>  <SCORE.INTRA.DIHEDRAL>
-5.96598

>  <SCORE.INTRA.DIHEDRAL.0>
6.10773

>  <SCORE.INTRA.POLAR>
0

>  <SCORE.INTRA.POLAR.0>
0

>  <SCORE.INTRA.REPUL>
0

>  <SCORE.INTRA.REPUL.0>
0

>  <SCORE.INTRA.SOLV>
-1.67157

>  <SCORE.INTRA.SOLV.lig_0>
-71.4024

>  <SCORE.INTRA.VDW>
0.543367

>  <SCORE.INTRA.VDW.0>
-1.86213

>  <SCORE.INTRA.norm>
-0.148882

>  <SCORE.RESTR>
0

>  <SCORE.RESTR.CAVITY>
0

>  <SCORE.RESTR.norm>
0

>  <SCORE.SYSTEM>
0

>  <SCORE.SYSTEM.CONST>
0

>  <SCORE.SYSTEM.DIHEDRAL>
0

>  <SCORE.SYSTEM.SOLV>
0

>  <SCORE.SYSTEM.norm>
0

>  <SCORE.heavy>
22

>  <SCORE.norm>
-0.276195

>  <RMSD>
33.078

$$$$
lig.pdb
 OpenBabel11021811523D
libRbt.so/2013.1/901 2013/11/27
 22 23  0  0  0  0  0  0  0  0999 V2000
  -18.7755    4.7702  -27.6641 C   0  0  1  0  0  0  0  0  0  0  0  0
  -19.8591    6.0747  -29.5390 C   0  0  1  0  0  0  0  0  0  0  0  0
  -20.0421    4.8478  -30.5380 C   0  0  1  0  0  0  0  0  0  0  0  0
  -20.1684    5.4340  -32.0164 C   0  0  2  0  0  0  0  0  0  0  0  0
  -19.0881    4.4393  -26.1532 C   0  0  1  0  0  0  0  0  0  0  0  0
  -19.0539    5.7604  -25.3596 C   0  0  2  0  0  0  0  0  0  0  0  0
  -17.6610    6.4103  -25.4358 C   0  0  2  0  0  0  0  0  0  0  0  0
  -17.2667    6.7389  -26.9220 C   0  0  1  0  0  0  0  0  0  0  0  0
  -15.8365    7.3452  -27.0092 C   0  0  0  0  0  0  0  0  0  0  0  0
  -21.4822    6.3659  -32.1053 C   0  0  1  0  0  0  0  0  0  0  0  0
  -21.2621    7.5908  -31.0832 C   0  0  0  0  0  0  0  0  0  0  0  0
  -21.0943    7.0289  -29.5970 C   0  0  2  0  0  0  0  0  0  0  0  0
  -16.6541    5.5095  -24.8631 F   0  0  0  0  0  0  0  0  0  0  0  0
  -20.4510    3.7816  -26.0961 N   0  0  0  0  0  0  0  0  0  0  0  0
  -15.3775    7.5977  -28.3223 N   0  0  0  0  0  0  0  0  0  0  0  0
  -21.6350    6.9565  -33.4788 N   0  0  0  0  0  0  0  0  0  0  0  0
  -20.8911    8.1571  -28.6652 N   0  0  0  0  0  0  0  0  0  0  0  0
  -19.7511    5.6058  -28.2035 O   0  0  0  0  0  0  0  0  0  0  0  0
  -18.8330    3.9964  -30.4409 O   0  0  0  0  0  0  0  0  0  0  0  0
  -20.3183    4.3405  -32.8724 O   0  0  0  0  0  0  0  0  0  0  0  0
  -19.2798    5.5166  -24.2582 O   0  0  0  0  0  0  0  0  0  0  0  0
  -17.3981    5.4261  -27.7153 O   0  0  0  0  0  0  0  0  0  0  0  0
  1  5  1  0  0  0  0
  1 18  1  1  0  0  0
  2 18  1  1  0  0  0
  2  3  1  0  0  0  0
  2 12  1  0  0  0  0
  3 19  1  6  0  0  0
  3  4  1  0  0  0  0
  4 20  1  6  0  0  0
  4 10  1  0  0  0  0
  5  6  1  0  0  0  0
  5 14  1  6  0  0  0
  6 21  1  1  0  0  0
  7 13  1  6  0  0  0
  7  6  1  0  0  0  0
  8  9  1  1  0  0  0
  8  7  1  0  0  0  0
 10 16  1  6  0  0  0
 11 10  1  0  0  0  0
 12 17  1  1  0  0  0
 12 11  1  0  0  0  0
 15  9  1  0  0  0  0
 22  8  1  0  0  0  0
 22  1  1  0  0  0  0
M  END
>  <CHROM.1>
-176.83302362,61.69607336,176.55225985,-19.13894745,5.86345293,-28.50724566
1.04264318,0.44810575,1.84688453

>  <Name>
lig.pdb

>  <RI>
0

>  <Rbt.Current_Directory>
/home/itssahil/PROJECTS/Mol_Feturizer/New_Systems/rnas/5bws

>  <Rbt.Executable>
rbdock ($Id: //depot/dev/client3/rdock/2013.1/src/exe/rbdock.cxx#4 $)

>  <Rbt.Library>
libRbt.so (2013.1, Build901 2013/11/27)

>  <Rbt.Parameter_File>
/export/apps/rDock/src/rDock_2013.1_src/data/scripts/dock_solv.prm

>  <Rbt.Receptor>
prm/blind_docking_60.prm

>  <SCORE>
-3.6546

>  <SCORE.INTER>
-0.288903

>  <SCORE.INTER.CONST>
1

>  <SCORE.INTER.POLAR>
0

>  <SCORE.INTER.ROT>
3

>  <SCORE.INTER.SOLV>
8.73357

>  <SCORE.INTER.VDW>
-8.70379

>  <SCORE.INTER.norm>
-0.013132

>  <SCORE.INTRA>
-3.36569

>  <SCORE.INTRA.DIHEDRAL>
-5.9983

>  <SCORE.INTRA.DIHEDRAL.0>
6.10773

>  <SCORE.INTRA.POLAR>
0

>  <SCORE.INTRA.POLAR.0>
0

>  <SCORE.INTRA.REPUL>
0

>  <SCORE.INTRA.REPUL.0>
0

>  <SCORE.INTRA.SOLV>
-1.5682

>  <SCORE.INTRA.SOLV.lig_0>
-71.4024

>  <SCORE.INTRA.VDW>
0.417557

>  <SCORE.INTRA.VDW.0>
-1.86213

>  <SCORE.INTRA.norm>
-0.152986

>  <SCORE.RESTR>
0

>  <SCORE.RESTR.CAVITY>
0

>  <SCORE.RESTR.norm>
0

>  <SCORE.SYSTEM>
0

>  <SCORE.SYSTEM.CONST>
0

>  <SCORE.SYSTEM.DIHEDRAL>
0

>  <SCORE.SYSTEM.SOLV>
0

>  <SCORE.SYSTEM.norm>
0

>  <SCORE.heavy>
22

>  <SCORE.norm>
-0.166118

>  <RMSD>
33.241

$$$$
lig.pdb
 OpenBabel11021811523D
libRbt.so/2013.1/901 2013/11/27
 22 23  0  0  0  0  0  0  0  0999 V2000
  -15.9566    7.1274  -29.7649 C   0  0  1  0  0  0  0  0  0  0  0  0
  -15.0842    5.5130  -31.5038 C   0  0  1  0  0  0  0  0  0  0  0  0
  -16.3596    4.5919  -31.2551 C   0  0  1  0  0  0  0  0  0  0  0  0
  -16.4682    3.5660  -32.4721 C   0  0  2  0  0  0  0  0  0  0  0  0
  -15.3688    8.3386  -28.9418 C   0  0  1  0  0  0  0  0  0  0  0  0
  -14.3964    7.7713  -27.8887 C   0  0  2  0  0  0  0  0  0  0  0  0
  -15.1297    6.8327  -26.9142 C   0  0  2  0  0  0  0  0  0  0  0  0
  -15.7723    5.6142  -27.6723 C   0  0  1  0  0  0  0  0  0  0  0  0
  -16.5616    4.6922  -26.6988 C   0  0  0  0  0  0  0  0  0  0  0  0
  -16.6922    4.3905  -33.8404 C   0  0  1  0  0  0  0  0  0  0  0  0
  -15.3874    5.3093  -34.0569 C   0  0  0  0  0  0  0  0  0  0  0  0
  -15.2324    6.3225  -32.8312 C   0  0  2  0  0  0  0  0  0  0  0  0
  -16.1865    7.5667  -26.2087 F   0  0  0  0  0  0  0  0  0  0  0  0
  -14.6693    9.2637  -29.9156 N   0  0  0  0  0  0  0  0  0  0  0  0
  -17.6796    5.2987  -26.0817 N   0  0  0  0  0  0  0  0  0  0  0  0
  -16.7839    3.4653  -35.0212 N   0  0  0  0  0  0  0  0  0  0  0  0
  -14.0332    7.1607  -33.0352 N   0  0  0  0  0  0  0  0  0  0  0  0
  -14.9474    6.4536  -30.4495 O   0  0  0  0  0  0  0  0  0  0  0  0
  -16.1445    3.8464  -29.9924 O   0  0  0  0  0  0  0  0  0  0  0  0
  -17.5861    2.7655  -32.2263 O   0  0  0  0  0  0  0  0  0  0  0  0
  -13.9709    8.6556  -27.2884 O   0  0  0  0  0  0  0  0  0  0  0  0
  -16.6660    6.2030  -28.7789 O   0  0  0  0  0  0  0  0  0  0  0  0
  1  5  1  0  0  0  0
  1 18  1  1  0  0  0
  2 18  1  1  0  0  0
  2  3  1  0  0  0  0
  2 12  1  0  0  0  0
  3 19  1  1  0  0  0
  3  4  1  0  0  0  0
  4 20  1  1  0  0  0
  4 10  1  0  0  0  0
  5  6  1  0  0  0  0
  5 14  1  6  0  0  0
  6 21  1  1  0  0  0
  7 13  1  6  0  0  0
  7  6  1  0  0  0  0
  8  9  1  1  0  0  0
  8  7  1  0  0  0  0
 10 16  1  6  0  0  0
 11 10  1  0  0  0  0
 12 17  1  6  0  0  0
 12 11  1  0  0  0  0
 15  9  1  0  0  0  0
 22  8  1  0  0  0  0
 22  1  1  0  0  0  0
M  END
>  <CHROM.1>
-165.27218950,-37.23165081,63.79636500,-15.78964064,5.95547572,-30.04877927
-1.39829875,-1.00786288,-1.85562227

>  <Name>
lig.pdb

>  <RI>
0

>  <Rbt.Current_Directory>
/home/itssahil/PROJECTS/Mol_Feturizer/New_Systems/rnas/5bws

>  <Rbt.Executable>
rbdock ($Id: //depot/dev/client3/rdock/2013.1/src/exe/rbdock.cxx#4 $)

>  <Rbt.Library>
libRbt.so (2013.1, Build901 2013/11/27)

>  <Rbt.Parameter_File>
/export/apps/rDock/src/rDock_2013.1_src/data/scripts/dock_solv.prm

>  <Rbt.Receptor>
prm/blind_docking_80.prm

>  <SCORE>
-7.20092

>  <SCORE.INTER>
-7.03404

>  <SCORE.INTER.CONST>
1

>  <SCORE.INTER.POLAR>
0

>  <SCORE.INTER.ROT>
3

>  <SCORE.INTER.SOLV>
26.4043

>  <SCORE.INTER.VDW>
-19.0908

>  <SCORE.INTER.norm>
-0.319729

>  <SCORE.INTRA>
-0.166888

>  <SCORE.INTRA.DIHEDRAL>
-2.7672

>  <SCORE.INTRA.DIHEDRAL.0>
6.10773

>  <SCORE.INTRA.POLAR>
0

>  <SCORE.INTRA.POLAR.0>
0

>  <SCORE.INTRA.REPUL>
0

>  <SCORE.INTRA.REPUL.0>
0

>  <SCORE.INTRA.SOLV>
1.63921

>  <SCORE.INTRA.SOLV.lig_0>
-71.4024

>  <SCORE.INTRA.VDW>
0.397107

>  <SCORE.INTRA.VDW.0>
-1.86213

>  <SCORE.INTRA.norm>
-0.00758583

>  <SCORE.RESTR>
0

>  <SCORE.RESTR.CAVITY>
0

>  <SCORE.RESTR.norm>
0

>  <SCORE.SYSTEM>
0

>  <SCORE.SYSTEM.CONST>
0

>  <SCORE.SYSTEM.DIHEDRAL>
0

>  <SCORE.SYSTEM.SOLV>
0

>  <SCORE.SYSTEM.norm>
0

>  <SCORE.heavy>
22

>  <SCORE.norm>
-0.327315

>  <RMSD>
33.470

$$$$
lig.pdb
 OpenBabel11021811523D
libRbt.so/2013.1/901 2013/11/27
 22 23  0  0  0  0  0  0  0  0999 V2000
  -15.1928   -7.1065  -29.0544 C   0  0  1  0  0  0  0  0  0  0  0  0
  -17.3006   -8.2401  -29.8687 C   0  0  1  0  0  0  0  0  0  0  0  0
  -18.2154   -8.0867  -31.1635 C   0  0  1  0  0  0  0  0  0  0  0  0
  -19.5522   -8.9230  -30.9212 C   0  0  2  0  0  0  0  0  0  0  0  0
  -14.3061   -5.9061  -29.5672 C   0  0  1  0  0  0  0  0  0  0  0  0
  -13.4771   -6.4052  -30.7672 C   0  0  2  0  0  0  0  0  0  0  0  0
  -12.5429   -7.5543  -30.3485 C   0  0  2  0  0  0  0  0  0  0  0  0
  -13.3592   -8.7782  -29.7936 C   0  0  1  0  0  0  0  0  0  0  0  0
  -12.4163   -9.9206  -29.3176 C   0  0  0  0  0  0  0  0  0  0  0  0
  -19.1759  -10.4815  -30.7430 C   0  0  1  0  0  0  0  0  0  0  0  0
  -18.2518  -10.5967  -29.4291 C   0  0  0  0  0  0  0  0  0  0  0  0
  -16.9206   -9.7360  -29.6295 C   0  0  2  0  0  0  0  0  0  0  0  0
  -11.6115   -7.0929  -29.3128 F   0  0  0  0  0  0  0  0  0  0  0  0
  -15.2369   -4.7762  -29.9550 N   0  0  0  0  0  0  0  0  0  0  0  0
  -11.6479  -10.5216  -30.3408 N   0  0  0  0  0  0  0  0  0  0  0  0
  -20.4049  -11.3102  -30.4946 N   0  0  0  0  0  0  0  0  0  0  0  0
  -16.0786   -9.8447  -28.4206 N   0  0  0  0  0  0  0  0  0  0  0  0
  -16.0894   -7.5194  -30.0376 O   0  0  0  0  0  0  0  0  0  0  0  0
  -18.5471   -6.6508  -31.3200 O   0  0  0  0  0  0  0  0  0  0  0  0
  -20.3394   -8.7651  -32.0642 O   0  0  0  0  0  0  0  0  0  0  0  0
  -12.8299   -5.5293  -31.1379 O   0  0  0  0  0  0  0  0  0  0  0  0
  -14.2486   -8.2388  -28.6586 O   0  0  0  0  0  0  0  0  0  0  0  0
  1  5  1  0  0  0  0
  1 18  1  6  0  0  0
  2 18  1  6  0  0  0
  2  3  1  0  0  0  0
  2 12  1  0  0  0  0
  3 19  1  1  0  0  0
  3  4  1  0  0  0  0
  4 20  1  6  0  0  0
  4 10  1  0  0  0  0
  5  6  1  0  0  0  0
  5 14  1  6  0  0  0
  6 21  1  1  0  0  0
  7 13  1  1  0  0  0
  7  6  1  0  0  0  0
  8  9  1  1  0  0  0
  8  7  1  0  0  0  0
 10 16  1  1  0  0  0
 11 10  1  0  0  0  0
 12 17  1  1  0  0  0
 12 11  1  0  0  0  0
 15  9  1  0  0  0  0
 22  8  1  0  0  0  0
 22  1  1  0  0  0  0
M  END
>  <CHROM.1>
-158.37721226,161.77677848,-64.77559426,-15.75267885,-8.22856944,-30.10846123
0.25971820,-0.19582532,-0.21909410

>  <Name>
lig.pdb

>  <RI>
0

>  <Rbt.Current_Directory>
/home/itssahil/PROJECTS/Mol_Feturizer/New_Systems/rnas/5bws

>  <Rbt.Executable>
rbdock ($Id: //depot/dev/client3/rdock/2013.1/src/exe/rbdock.cxx#4 $)

>  <Rbt.Library>
libRbt.so (2013.1, Build901 2013/11/27)

>  <Rbt.Parameter_File>
/export/apps/rDock/src/rDock_2013.1_src/data/scripts/dock_solv.prm

>  <Rbt.Receptor>
prm/blind_docking_100.prm

>  <SCORE>
-6.60165

>  <SCORE.INTER>
-7.22738

>  <SCORE.INTER.CONST>
1

>  <SCORE.INTER.POLAR>
0

>  <SCORE.INTER.ROT>
3

>  <SCORE.INTER.SOLV>
21.299

>  <SCORE.INTER.VDW>
-17.5179

>  <SCORE.INTER.norm>
-0.328517

>  <SCORE.INTRA>
0.625732

>  <SCORE.INTRA.DIHEDRAL>
-2.43443

>  <SCORE.INTRA.DIHEDRAL.0>
6.10773

>  <SCORE.INTRA.POLAR>
0

>  <SCORE.INTRA.POLAR.0>
0

>  <SCORE.INTRA.REPUL>
0

>  <SCORE.INTRA.REPUL.0>
0

>  <SCORE.INTRA.SOLV>
1.87955

>  <SCORE.INTRA.SOLV.lig_0>
-71.4024

>  <SCORE.INTRA.VDW>
0.903171

>  <SCORE.INTRA.VDW.0>
-1.86213

>  <SCORE.INTRA.norm>
0.0284424

>  <SCORE.RESTR>
0

>  <SCORE.RESTR.CAVITY>
0

>  <SCORE.RESTR.norm>
0

>  <SCORE.SYSTEM>
0

>  <SCORE.SYSTEM.CONST>
0

>  <SCORE.SYSTEM.DIHEDRAL>
0

>  <SCORE.SYSTEM.SOLV>
0

>  <SCORE.SYSTEM.norm>
0

>  <SCORE.heavy>
22

>  <SCORE.norm>
-0.300075

>  <RMSD>
33.540

$$$$
lig.pdb
 OpenBabel11021811523D
libRbt.so/2013.1/901 2013/11/27
 22 23  0  0  0  0  0  0  0  0999 V2000
  -16.1926    7.2204  -29.0955 C   0  0  1  0  0  0  0  0  0  0  0  0
  -16.4695    5.6148  -31.0285 C   0  0  1  0  0  0  0  0  0  0  0  0
  -15.0498    5.7620  -31.7355 C   0  0  1  0  0  0  0  0  0  0  0  0
  -15.2214    5.3561  -33.2688 C   0  0  2  0  0  0  0  0  0  0  0  0
  -15.8020    7.1137  -27.5703 C   0  0  1  0  0  0  0  0  0  0  0  0
  -16.9711    6.4393  -26.8255 C   0  0  2  0  0  0  0  0  0  0  0  0
  -18.2537    7.2821  -26.9402 C   0  0  2  0  0  0  0  0  0  0  0  0
  -18.6863    7.4591  -28.4414 C   0  0  1  0  0  0  0  0  0  0  0  0
  -19.9511    8.3566  -28.5658 C   0  0  0  0  0  0  0  0  0  0  0  0
  -15.6797    3.8121  -33.3591 C   0  0  1  0  0  0  0  0  0  0  0  0
  -17.1137    3.7022  -32.6343 C   0  0  0  0  0  0  0  0  0  0  0  0
  -16.9787    4.1402  -31.1037 C   0  0  2  0  0  0  0  0  0  0  0  0
  -18.0396    8.6066  -26.3460 F   0  0  0  0  0  0  0  0  0  0  0  0
  -14.5279    6.3008  -27.4749 N   0  0  0  0  0  0  0  0  0  0  0  0
  -20.3965    8.5749  -29.8896 N   0  0  0  0  0  0  0  0  0  0  0  0
  -15.8713    3.3869  -34.7878 N   0  0  0  0  0  0  0  0  0  0  0  0
  -18.2974    4.0388  -30.4455 N   0  0  0  0  0  0  0  0  0  0  0  0
  -16.3691    5.9565  -29.6544 O   0  0  0  0  0  0  0  0  0  0  0  0
  -14.6373    7.1821  -31.6388 O   0  0  0  0  0  0  0  0  0  0  0  0
  -13.9678    5.5021  -33.8673 O   0  0  0  0  0  0  0  0  0  0  0  0
  -16.6853    6.3646  -25.7137 O   0  0  0  0  0  0  0  0  0  0  0  0
  -17.4731    8.0466  -29.1851 O   0  0  0  0  0  0  0  0  0  0  0  0
  1  5  1  0  0  0  0
  1 18  1  1  0  0  0
  2 18  1  1  0  0  0
  2  3  1  0  0  0  0
  2 12  1  0  0  0  0
  3 19  1  6  0  0  0
  3  4  1  0  0  0  0
  4 20  1  6  0  0  0
  4 10  1  0  0  0  0
  5  6  1  0  0  0  0
  5 14  1  6  0  0  0
  6 21  1  1  0  0  0
  7 13  1  6  0  0  0
  7  6  1  0  0  0  0
  8  9  1  1  0  0  0
  8  7  1  0  0  0  0
 10 16  1  6  0  0  0
 11 10  1  0  0  0  0
 12 17  1  6  0  0  0
 12 11  1  0  0  0  0
 15  9  1  0  0  0  0
 22  8  1  0  0  0  0
 22  1  1  0  0  0  0
M  END
>  <CHROM.1>
-166.85887547,71.82866118,179.41575451,-16.75435348,6.24893808,-29.92507865
-1.91644514,0.21803712,-1.96658548

>  <Name>
lig.pdb

>  <RI>
0

>  <Rbt.Current_Directory>
/home/itssahil/PROJECTS/Mol_Feturizer/New_Systems/rnas/5bws

>  <Rbt.Executable>
rbdock ($Id: //depot/dev/client3/rdock/2013.1/src/exe/rbdock.cxx#4 $)

>  <Rbt.Library>
libRbt.so (2013.1, Build901 2013/11/27)

>  <Rbt.Parameter_File>
/export/apps/rDock/src/rDock_2013.1_src/data/scripts/dock_solv.prm

>  <Rbt.Receptor>
prm/blind_docking_80.prm

>  <SCORE>
-4.93837

>  <SCORE.INTER>
-2.23877

>  <SCORE.INTER.CONST>
1

>  <SCORE.INTER.POLAR>
0

>  <SCORE.INTER.ROT>
3

>  <SCORE.INTER.SOLV>
15.1721

>  <SCORE.INTER.VDW>
-12.1499

>  <SCORE.INTER.norm>
-0.101762

>  <SCORE.INTRA>
-2.70053

>  <SCORE.INTRA.DIHEDRAL>
-4.61649

>  <SCORE.INTRA.DIHEDRAL.0>
6.10773

>  <SCORE.INTRA.POLAR>
0

>  <SCORE.INTRA.POLAR.0>
0

>  <SCORE.INTRA.REPUL>
0

>  <SCORE.INTRA.REPUL.0>
0

>  <SCORE.INTRA.SOLV>
-1.24427

>  <SCORE.INTRA.SOLV.lig_0>
-71.4024

>  <SCORE.INTRA.VDW>
0.22985

>  <SCORE.INTRA.VDW.0>
-1.86213

>  <SCORE.INTRA.norm>
-0.122751

>  <SCORE.RESTR>
0.000929069

>  <SCORE.RESTR.CAVITY>
0.000929069

>  <SCORE.RESTR.norm>
4.22304e-05

>  <SCORE.SYSTEM>
0

>  <SCORE.SYSTEM.CONST>
0

>  <SCORE.SYSTEM.DIHEDRAL>
0

>  <SCORE.SYSTEM.SOLV>
0

>  <SCORE.SYSTEM.norm>
0

>  <SCORE.heavy>
22

>  <SCORE.norm>
-0.224472

>  <RMSD>
33.649

$$$$
lig.pdb
 OpenBabel11021811523D
libRbt.so/2013.1/901 2013/11/27
 22 23  0  0  0  0  0  0  0  0999 V2000
  -16.3900   -7.2969  -28.9315 C   0  0  1  0  0  0  0  0  0  0  0  0
  -18.7130   -7.5088  -29.9061 C   0  0  1  0  0  0  0  0  0  0  0  0
  -19.4126   -6.1597  -29.4292 C   0  0  1  0  0  0  0  0  0  0  0  0
  -20.9863   -6.4161  -29.3753 C   0  0  2  0  0  0  0  0  0  0  0  0
  -14.9519   -6.9072  -29.4511 C   0  0  1  0  0  0  0  0  0  0  0  0
  -14.4883   -8.0004  -30.4341 C   0  0  2  0  0  0  0  0  0  0  0  0
  -14.3966   -9.3667  -29.7316 C   0  0  2  0  0  0  0  0  0  0  0  0
  -15.7926   -9.8060  -29.1568 C   0  0  1  0  0  0  0  0  0  0  0  0
  -15.6932  -11.1605  -28.3977 C   0  0  0  0  0  0  0  0  0  0  0  0
  -21.5155   -6.7699  -30.8575 C   0  0  1  0  0  0  0  0  0  0  0  0
  -20.7870   -8.1345  -31.3056 C   0  0  0  0  0  0  0  0  0  0  0  0
  -19.2043   -7.9170  -31.3314 C   0  0  2  0  0  0  0  0  0  0  0  0
  -13.4267   -9.3025  -28.6324 F   0  0  0  0  0  0  0  0  0  0  0  0
  -15.0533   -5.5524  -30.1203 N   0  0  0  0  0  0  0  0  0  0  0  0
  -15.3029  -12.2608  -29.1948 N   0  0  0  0  0  0  0  0  0  0  0  0
  -22.9945   -7.0372  -30.8550 N   0  0  0  0  0  0  0  0  0  0  0  0
  -18.5424   -9.1725  -31.7413 N   0  0  0  0  0  0  0  0  0  0  0  0
  -17.3066   -7.3305  -29.9801 O   0  0  0  0  0  0  0  0  0  0  0  0
  -18.9124   -5.8422  -28.0707 O   0  0  0  0  0  0  0  0  0  0  0  0
  -21.5747   -5.2241  -28.9465 O   0  0  0  0  0  0  0  0  0  0  0  0
  -13.4390   -7.7154  -30.8098 O   0  0  0  0  0  0  0  0  0  0  0  0
  -16.2793   -8.6594  -28.2521 O   0  0  0  0  0  0  0  0  0  0  0  0
  1  5  1  0  0  0  0
  1 18  1  6  0  0  0
  2 18  1  6  0  0  0
  2  3  1  0  0  0  0
  2 12  1  0  0  0  0
  3 19  1  1  0  0  0
  3  4  1  0  0  0  0
  4 20  1  6  0  0  0
  4 10  1  0  0  0  0
  5  6  1  0  0  0  0
  5 14  1  6  0  0  0
  6 21  1  1  0  0  0
  7 13  1  1  0  0  0
  7  6  1  0  0  0  0
  8  9  1  1  0  0  0
  8  7  1  0  0  0  0
 10 16  1  1  0  0  0
 11 10  1  0  0  0  0
 12 17  1  1  0  0  0
 12 11  1  0  0  0  0
 15  9  1  0  0  0  0
 22  8  1  0  0  0  0
 22  1  1  0  0  0  0
M  END
>  <CHROM.1>
-173.28633020,76.80914409,-62.73231165,-17.43989045,-7.88988666,-29.72997759
-0.35797996,-0.14605294,0.09421232

>  <Name>
lig.pdb

>  <RI>
0

>  <Rbt.Current_Directory>
/home/itssahil/PROJECTS/Mol_Feturizer/New_Systems/rnas/5bws

>  <Rbt.Executable>
rbdock ($Id: //depot/dev/client3/rdock/2013.1/src/exe/rbdock.cxx#4 $)

>  <Rbt.Library>
libRbt.so (2013.1, Build901 2013/11/27)

>  <Rbt.Parameter_File>
/export/apps/rDock/src/rDock_2013.1_src/data/scripts/dock_solv.prm

>  <Rbt.Receptor>
prm/blind_docking_40.prm

>  <SCORE>
-8.57098

>  <SCORE.INTER>
-6.12048

>  <SCORE.INTER.CONST>
1

>  <SCORE.INTER.POLAR>
0

>  <SCORE.INTER.ROT>
3

>  <SCORE.INTER.SOLV>
21.529

>  <SCORE.INTER.VDW>
-16.8566

>  <SCORE.INTER.norm>
-0.278204

>  <SCORE.INTRA>
-2.4505

>  <SCORE.INTRA.DIHEDRAL>
-4.55184

>  <SCORE.INTRA.DIHEDRAL.0>
6.10773

>  <SCORE.INTRA.POLAR>
0

>  <SCORE.INTRA.POLAR.0>
0

>  <SCORE.INTRA.REPUL>
0

>  <SCORE.INTRA.REPUL.0>
0

>  <SCORE.INTRA.SOLV>
-0.683912

>  <SCORE.INTRA.SOLV.lig_0>
-71.4024

>  <SCORE.INTRA.VDW>
0.167381

>  <SCORE.INTRA.VDW.0>
-1.86213

>  <SCORE.INTRA.norm>
-0.111386

>  <SCORE.RESTR>
0

>  <SCORE.RESTR.CAVITY>
0

>  <SCORE.RESTR.norm>
0

>  <SCORE.SYSTEM>
0

>  <SCORE.SYSTEM.CONST>
0

>  <SCORE.SYSTEM.DIHEDRAL>
0

>  <SCORE.SYSTEM.SOLV>
0

>  <SCORE.SYSTEM.norm>
0

>  <SCORE.heavy>
22

>  <SCORE.norm>
-0.38959

>  <RMSD>
33.650

$$$$
lig.pdb
 OpenBabel11021811523D
libRbt.so/2013.1/901 2013/11/27
 22 23  0  0  0  0  0  0  0  0999 V2000
  -20.4261    5.5818  -30.2065 C   0  0  1  0  0  0  0  0  0  0  0  0
  -20.0097    4.9295  -27.7998 C   0  0  1  0  0  0  0  0  0  0  0  0
  -20.8062    3.5503  -27.8147 C   0  0  1  0  0  0  0  0  0  0  0  0
  -21.2161    3.2047  -26.3120 C   0  0  2  0  0  0  0  0  0  0  0  0
  -19.5602    5.9003  -31.4867 C   0  0  1  0  0  0  0  0  0  0  0  0
  -18.7077    7.1490  -31.1863 C   0  0  2  0  0  0  0  0  0  0  0  0
  -19.6024    8.3659  -30.8907 C   0  0  2  0  0  0  0  0  0  0  0  0
  -20.5214    8.1067  -29.6415 C   0  0  1  0  0  0  0  0  0  0  0  0
  -21.4670    9.3126  -29.3723 C   0  0  0  0  0  0  0  0  0  0  0  0
  -19.8792    3.0134  -25.4299 C   0  0  1  0  0  0  0  0  0  0  0  0
  -19.1013    4.4235  -25.4396 C   0  0  0  0  0  0  0  0  0  0  0  0
  -18.7115    4.8135  -26.9392 C   0  0  2  0  0  0  0  0  0  0  0  0
  -20.4486    8.6615  -32.0524 F   0  0  0  0  0  0  0  0  0  0  0  0
  -18.7015    4.6873  -31.7777 N   0  0  0  0  0  0  0  0  0  0  0  0
  -22.2813    9.1839  -28.2239 N   0  0  0  0  0  0  0  0  0  0  0  0
  -20.2150    2.7021  -23.9984 N   0  0  0  0  0  0  0  0  0  0  0  0
  -18.0001    6.1082  -26.9411 N   0  0  0  0  0  0  0  0  0  0  0  0
  -19.6123    5.2788  -29.1170 O   0  0  0  0  0  0  0  0  0  0  0  0
  -22.0269    3.7375  -28.6339 O   0  0  0  0  0  0  0  0  0  0  0  0
  -21.9196    1.9988  -26.3531 O   0  0  0  0  0  0  0  0  0  0  0  0
  -18.0791    7.3806  -32.1215 O   0  0  0  0  0  0  0  0  0  0  0  0
  -21.2940    6.8052  -29.9230 O   0  0  0  0  0  0  0  0  0  0  0  0
  1  5  1  0  0  0  0
  1 18  1  1  0  0  0
  2 18  1  6  0  0  0
  2  3  1  0  0  0  0
  2 12  1  0  0  0  0
  3 19  1  6  0  0  0
  3  4  1  0  0  0  0
  4 20  1  6  0  0  0
  4 10  1  0  0  0  0
  5  6  1  0  0  0  0
  5 14  1  1  0  0  0
  6 21  1  6  0  0  0
  7 13  1  6  0  0  0
  7  6  1  0  0  0  0
  8  9  1  6  0  0  0
  8  7  1  0  0  0  0
 10 16  1  1  0  0  0
 11 10  1  0  0  0  0
 12 17  1  1  0  0  0
 12 11  1  0  0  0  0
 15  9  1  0  0  0  0
 22  8  1  0  0  0  0
 22  1  1  0  0  0  0
M  END
>  <CHROM.1>
-179.43209951,64.10348248,-177.05056690,-20.14328197,5.71129064,-28.77953850
-1.44016327,-0.95710637,2.40477001

>  <Name>
lig.pdb

>  <RI>
0

>  <Rbt.Current_Directory>
/home/itssahil/PROJECTS/Mol_Feturizer/New_Systems/rnas/5bws

>  <Rbt.Executable>
rbdock ($Id: //depot/dev/client3/rdock/2013.1/src/exe/rbdock.cxx#4 $)

>  <Rbt.Library>
libRbt.so (2013.1, Build901 2013/11/27)

>  <Rbt.Parameter_File>
/export/apps/rDock/src/rDock_2013.1_src/data/scripts/dock_solv.prm

>  <Rbt.Receptor>
prm/blind_docking_60.prm

>  <SCORE>
-5.4309

>  <SCORE.INTER>
-1.97831

>  <SCORE.INTER.CONST>
1

>  <SCORE.INTER.POLAR>
0

>  <SCORE.INTER.ROT>
3

>  <SCORE.INTER.SOLV>
8.76618

>  <SCORE.INTER.VDW>
-9.84093

>  <SCORE.INTER.norm>
-0.089923

>  <SCORE.INTRA>
-3.4526

>  <SCORE.INTRA.DIHEDRAL>
-5.98958

>  <SCORE.INTRA.DIHEDRAL.0>
6.10773

>  <SCORE.INTRA.POLAR>
0

>  <SCORE.INTRA.POLAR.0>
0

>  <SCORE.INTRA.REPUL>
0

>  <SCORE.INTRA.REPUL.0>
0

>  <SCORE.INTRA.SOLV>
-1.60174

>  <SCORE.INTRA.SOLV.lig_0>
-71.4024

>  <SCORE.INTRA.VDW>
0.343058

>  <SCORE.INTRA.VDW.0>
-1.86213

>  <SCORE.INTRA.norm>
-0.156936

>  <SCORE.RESTR>
0

>  <SCORE.RESTR.CAVITY>
0

>  <SCORE.RESTR.norm>
0

>  <SCORE.SYSTEM>
0

>  <SCORE.SYSTEM.CONST>
0

>  <SCORE.SYSTEM.DIHEDRAL>
0

>  <SCORE.SYSTEM.SOLV>
0

>  <SCORE.SYSTEM.norm>
0

>  <SCORE.heavy>
22

>  <SCORE.norm>
-0.246859

>  <RMSD>
33.658

$$$$
lig.pdb
 OpenBabel11021811523D
libRbt.so/2013.1/901 2013/11/27
 22 23  0  0  0  0  0  0  0  0999 V2000
  -16.4168   -7.2208  -29.0128 C   0  0  1  0  0  0  0  0  0  0  0  0
  -18.7561   -7.4743  -29.9370 C   0  0  1  0  0  0  0  0  0  0  0  0
  -19.4505   -6.1485  -29.3920 C   0  0  1  0  0  0  0  0  0  0  0  0
  -21.0206   -6.4176  -29.3053 C   0  0  2  0  0  0  0  0  0  0  0  0
  -14.9939   -6.8236  -29.5677 C   0  0  1  0  0  0  0  0  0  0  0  0
  -14.5367   -7.9288  -30.5402 C   0  0  2  0  0  0  0  0  0  0  0  0
  -14.4149   -9.2811  -29.8158 C   0  0  2  0  0  0  0  0  0  0  0  0
  -15.7939   -9.7264  -29.2057 C   0  0  1  0  0  0  0  0  0  0  0  0
  -15.6634  -11.0658  -28.4249 C   0  0  0  0  0  0  0  0  0  0  0  0
  -21.5878   -6.7205  -30.7847 C   0  0  1  0  0  0  0  0  0  0  0  0
  -20.8636   -8.0627  -31.3022 C   0  0  0  0  0  0  0  0  0  0  0  0
  -19.2836   -7.8334  -31.3626 C   0  0  2  0  0  0  0  0  0  0  0  0
  -13.4244   -9.1861  -28.7373 F   0  0  0  0  0  0  0  0  0  0  0  0
  -15.1247   -5.4823  -30.2585 N   0  0  0  0  0  0  0  0  0  0  0  0
  -15.3211  -12.1847  -29.2182 N   0  0  0  0  0  0  0  0  0  0  0  0
  -23.0645   -6.9979  -30.7522 N   0  0  0  0  0  0  0  0  0  0  0  0
  -18.6256   -9.0684  -31.8361 N   0  0  0  0  0  0  0  0  0  0  0  0
  -17.3534   -7.2837  -30.0422 O   0  0  0  0  0  0  0  0  0  0  0  0
  -18.9155   -5.8776  -28.0368 O   0  0  0  0  0  0  0  0  0  0  0  0
  -21.6042   -5.2462  -28.8172 O   0  0  0  0  0  0  0  0  0  0  0  0
  -13.4985   -7.6384  -30.9417 O   0  0  0  0  0  0  0  0  0  0  0  0
  -16.2764   -8.5695  -28.3118 O   0  0  0  0  0  0  0  0  0  0  0  0
  1  5  1  0  0  0  0
  1 18  1  6  0  0  0
  2 18  1  6  0  0  0
  2  3  1  0  0  0  0
  2 12  1  0  0  0  0
  3 19  1  1  0  0  0
  3  4  1  0  0  0  0
  4 20  1  6  0  0  0
  4 10  1  0  0  0  0
  5  6  1  0  0  0  0
  5 14  1  6  0  0  0
  6 21  1  1  0  0  0
  7 13  1  1  0  0  0
  7  6  1  0  0  0  0
  8  9  1  1  0  0  0
  8  7  1  0  0  0  0
 10 16  1  1  0  0  0
 11 10  1  0  0  0  0
 12 17  1  1  0  0  0
 12 11  1  0  0  0  0
 15  9  1  0  0  0  0
 22  8  1  0  0  0  0
 22  1  1  0  0  0  0
M  END
>  <CHROM.1>
-173.14779002,73.55939136,-64.83277134,-17.47642937,-7.83060686,-29.76216025
-0.34971549,-0.11901194,0.08158368

>  <Name>
lig.pdb

>  <RI>
0

>  <Rbt.Current_Directory>
/home/itssahil/PROJECTS/Mol_Feturizer/New_Systems/rnas/5bws

>  <Rbt.Executable>
rbdock ($Id: //depot/dev/client3/rdock/2013.1/src/exe/rbdock.cxx#4 $)

>  <Rbt.Library>
libRbt.so (2013.1, Build901 2013/11/27)

>  <Rbt.Parameter_File>
/export/apps/rDock/src/rDock_2013.1_src/data/scripts/dock_solv.prm

>  <Rbt.Receptor>
prm/blind_docking_40.prm

>  <SCORE>
-8.46646

>  <SCORE.INTER>
-5.79476

>  <SCORE.INTER.CONST>
1

>  <SCORE.INTER.POLAR>
0

>  <SCORE.INTER.ROT>
3

>  <SCORE.INTER.SOLV>
22.2508

>  <SCORE.INTER.VDW>
-16.8801

>  <SCORE.INTER.norm>
-0.263398

>  <SCORE.INTRA>
-2.6717

>  <SCORE.INTRA.DIHEDRAL>
-4.92203

>  <SCORE.INTRA.DIHEDRAL.0>
6.10773

>  <SCORE.INTRA.POLAR>
0

>  <SCORE.INTRA.POLAR.0>
0

>  <SCORE.INTRA.REPUL>
0

>  <SCORE.INTRA.REPUL.0>
0

>  <SCORE.INTRA.SOLV>
-0.853052

>  <SCORE.INTRA.SOLV.lig_0>
-71.4024

>  <SCORE.INTRA.VDW>
0.215837

>  <SCORE.INTRA.VDW.0>
-1.86213

>  <SCORE.INTRA.norm>
-0.121441

>  <SCORE.RESTR>
0

>  <SCORE.RESTR.CAVITY>
0

>  <SCORE.RESTR.norm>
0

>  <SCORE.SYSTEM>
0

>  <SCORE.SYSTEM.CONST>
0

>  <SCORE.SYSTEM.DIHEDRAL>
0

>  <SCORE.SYSTEM.SOLV>
0

>  <SCORE.SYSTEM.norm>
0

>  <SCORE.heavy>
22

>  <SCORE.norm>
-0.384839

>  <RMSD>
33.680

$$$$
lig.pdb
 OpenBabel11021811523D
libRbt.so/2013.1/901 2013/11/27
 22 23  0  0  0  0  0  0  0  0999 V2000
  -16.3337   -7.4335  -29.0905 C   0  0  1  0  0  0  0  0  0  0  0  0
  -18.6539   -7.7599  -30.0399 C   0  0  1  0  0  0  0  0  0  0  0  0
  -19.4034   -6.3921  -29.7168 C   0  0  1  0  0  0  0  0  0  0  0  0
  -20.9673   -6.6970  -29.6376 C   0  0  2  0  0  0  0  0  0  0  0  0
  -14.9118   -7.0197  -29.6356 C   0  0  1  0  0  0  0  0  0  0  0  0
  -14.4181   -8.1380  -30.5748 C   0  0  2  0  0  0  0  0  0  0  0  0
  -14.2783   -9.4696  -29.8162 C   0  0  2  0  0  0  0  0  0  0  0  0
  -15.6562   -9.9292  -29.2141 C   0  0  1  0  0  0  0  0  0  0  0  0
  -15.5087  -11.2465  -28.3994 C   0  0  0  0  0  0  0  0  0  0  0  0
  -21.4753   -7.2315  -31.0723 C   0  0  1  0  0  0  0  0  0  0  0  0
  -20.6965   -8.6104  -31.3650 C   0  0  0  0  0  0  0  0  0  0  0  0
  -19.1224   -8.3408  -31.4120 C   0  0  2  0  0  0  0  0  0  0  0  0
  -13.3052   -9.3278  -28.7271 F   0  0  0  0  0  0  0  0  0  0  0  0
  -15.0608   -5.6985  -30.3605 N   0  0  0  0  0  0  0  0  0  0  0  0
  -15.1298  -12.3761  -29.1603 N   0  0  0  0  0  0  0  0  0  0  0  0
  -22.9439   -7.5493  -31.0428 N   0  0  0  0  0  0  0  0  0  0  0  0
  -18.4143   -9.6095  -31.6790 N   0  0  0  0  0  0  0  0  0  0  0  0
  -17.2543   -7.5409  -30.1307 O   0  0  0  0  0  0  0  0  0  0  0  0
  -18.9225   -5.9085  -28.4010 O   0  0  0  0  0  0  0  0  0  0  0  0
  -21.5999   -5.4866  -29.3446 O   0  0  0  0  0  0  0  0  0  0  0  0
  -13.3807   -7.8354  -30.9692 O   0  0  0  0  0  0  0  0  0  0  0  0
  -16.1752   -8.7617  -28.3552 O   0  0  0  0  0  0  0  0  0  0  0  0
  1  5  1  0  0  0  0
  1 18  1  6  0  0  0
  2 18  1  6  0  0  0
  2  3  1  0  0  0  0
  2 12  1  0  0  0  0
  3 19  1  1  0  0  0
  3  4  1  0  0  0  0
  4 20  1  6  0  0  0
  4 10  1  0  0  0  0
  5  6  1  0  0  0  0
  5 14  1  6  0  0  0
  6 21  1  1  0  0  0
  7 13  1  1  0  0  0
  7  6  1  0  0  0  0
  8  9  1  1  0  0  0
  8  7  1  0  0  0  0
 10 16  1  1  0  0  0
 11 10  1  0  0  0  0
 12 17  1  1  0  0  0
 12 11  1  0  0  0  0
 15  9  1  0  0  0  0
 22  8  1  0  0  0  0
 22  1  1  0  0  0  0
M  END
>  <CHROM.1>
-173.21908248,80.75783400,-64.72785456,-17.36943961,-8.10362508,-29.87828064
-0.32523489,-0.14372336,0.04604149

>  <Name>
lig.pdb

>  <RI>
0

>  <Rbt.Current_Directory>
/home/itssahil/PROJECTS/Mol_Feturizer/New_Systems/rnas/5bws

>  <Rbt.Executable>
rbdock ($Id: //depot/dev/client3/rdock/2013.1/src/exe/rbdock.cxx#4 $)

>  <Rbt.Library>
libRbt.so (2013.1, Build901 2013/11/27)

>  <Rbt.Parameter_File>
/export/apps/rDock/src/rDock_2013.1_src/data/scripts/dock_solv.prm

>  <Rbt.Receptor>
prm/blind_docking_100.prm

>  <SCORE>
-8.26543

>  <SCORE.INTER>
-6.15049

>  <SCORE.INTER.CONST>
1

>  <SCORE.INTER.POLAR>
0

>  <SCORE.INTER.ROT>
3

>  <SCORE.INTER.SOLV>
20.4491

>  <SCORE.INTER.VDW>
-16.5167

>  <SCORE.INTER.norm>
-0.279568

>  <SCORE.INTRA>
-2.11493

>  <SCORE.INTRA.DIHEDRAL>
-3.87563

>  <SCORE.INTRA.DIHEDRAL.0>
6.10773

>  <SCORE.INTRA.POLAR>
0

>  <SCORE.INTRA.POLAR.0>
0

>  <SCORE.INTRA.REPUL>
0

>  <SCORE.INTRA.REPUL.0>
0

>  <SCORE.INTRA.SOLV>
-0.524801

>  <SCORE.INTRA.SOLV.lig_0>
-71.4024

>  <SCORE.INTRA.VDW>
0.0852801

>  <SCORE.INTRA.VDW.0>
-1.86213

>  <SCORE.INTRA.norm>
-0.0961334

>  <SCORE.RESTR>
0

>  <SCORE.RESTR.CAVITY>
0

>  <SCORE.RESTR.norm>
0

>  <SCORE.SYSTEM>
0

>  <SCORE.SYSTEM.CONST>
0

>  <SCORE.SYSTEM.DIHEDRAL>
0

>  <SCORE.SYSTEM.SOLV>
0

>  <SCORE.SYSTEM.norm>
0

>  <SCORE.heavy>
22

>  <SCORE.norm>
-0.375701

>  <RMSD>
33.810

$$$$
lig.pdb
 OpenBabel11021811523D
libRbt.so/2013.1/901 2013/11/27
 22 23  0  0  0  0  0  0  0  0999 V2000
  -16.1949    6.5369  -29.1301 C   0  0  1  0  0  0  0  0  0  0  0  0
  -16.6366    5.1519  -31.1984 C   0  0  1  0  0  0  0  0  0  0  0  0
  -15.1795    5.1902  -31.8407 C   0  0  1  0  0  0  0  0  0  0  0  0
  -15.3276    4.9297  -33.4076 C   0  0  2  0  0  0  0  0  0  0  0  0
  -16.2374    6.3295  -27.5664 C   0  0  1  0  0  0  0  0  0  0  0  0
  -17.6910    6.0051  -27.1684 C   0  0  2  0  0  0  0  0  0  0  0  0
  -18.6312    7.1688  -27.5293 C   0  0  2  0  0  0  0  0  0  0  0  0
  -18.6149    7.4555  -29.0752 C   0  0  1  0  0  0  0  0  0  0  0  0
  -19.5215    8.6669  -29.4375 C   0  0  0  0  0  0  0  0  0  0  0  0
  -15.9513    3.4608  -33.6429 C   0  0  1  0  0  0  0  0  0  0  0  0
  -17.4192    3.4596  -32.9803 C   0  0  0  0  0  0  0  0  0  0  0  0
  -17.3038    3.7563  -31.4146 C   0  0  2  0  0  0  0  0  0  0  0  0
  -18.2243    8.3839  -26.8143 F   0  0  0  0  0  0  0  0  0  0  0  0
  -15.2923    5.1967  -27.2242 N   0  0  0  0  0  0  0  0  0  0  0  0
  -20.9005    8.4699  -29.1960 N   0  0  0  0  0  0  0  0  0  0  0  0
  -16.1261    3.1751  -35.1080 N   0  0  0  0  0  0  0  0  0  0  0  0
  -18.6532    3.7555  -30.8135 N   0  0  0  0  0  0  0  0  0  0  0  0
  -16.5594    5.3697  -29.7978 O   0  0  0  0  0  0  0  0  0  0  0  0
  -14.6154    6.5413  -31.6110 O   0  0  0  0  0  0  0  0  0  0  0  0
  -14.0404    4.9775  -33.9478 O   0  0  0  0  0  0  0  0  0  0  0  0
  -17.7200    5.8565  -26.0280 O   0  0  0  0  0  0  0  0  0  0  0  0
  -17.1438    7.6841  -29.4673 O   0  0  0  0  0  0  0  0  0  0  0  0
  1  5  1  0  0  0  0
  1 18  1  6  0  0  0
  2 18  1  1  0  0  0
  2  3  1  0  0  0  0
  2 12  1  0  0  0  0
  3 19  1  6  0  0  0
  3  4  1  0  0  0  0
  4 20  1  6  0  0  0
  4 10  1  0  0  0  0
  5  6  1  0  0  0  0
  5 14  1  6  0  0  0
  6 21  1  1  0  0  0
  7 13  1  1  0  0  0
  7  6  1  0  0  0  0
  8  9  1  1  0  0  0
  8  7  1  0  0  0  0
 10 16  1  6  0  0  0
 11 10  1  0  0  0  0
 12 17  1  6  0  0  0
 12 11  1  0  0  0  0
 15  9  1  0  0  0  0
 22  8  1  0  0  0  0
 22  1  1  0  0  0  0
M  END
>  <CHROM.1>
-179.62513478,67.91113525,-65.02378224,-16.99473136,5.85312628,-30.14529688
-1.97327536,0.39805248,-1.90592572

>  <Name>
lig.pdb

>  <RI>
0

>  <Rbt.Current_Directory>
/home/itssahil/PROJECTS/Mol_Feturizer/New_Systems/rnas/5bws

>  <Rbt.Executable>
rbdock ($Id: //depot/dev/client3/rdock/2013.1/src/exe/rbdock.cxx#4 $)

>  <Rbt.Library>
libRbt.so (2013.1, Build901 2013/11/27)

>  <Rbt.Parameter_File>
/export/apps/rDock/src/rDock_2013.1_src/data/scripts/dock_solv.prm

>  <Rbt.Receptor>
prm/blind_docking_60.prm

>  <SCORE>
-4.59548

>  <SCORE.INTER>
-1.51466

>  <SCORE.INTER.CONST>
1

>  <SCORE.INTER.POLAR>
0

>  <SCORE.INTER.ROT>
3

>  <SCORE.INTER.SOLV>
13.4809

>  <SCORE.INTER.VDW>
-11.1034

>  <SCORE.INTER.norm>
-0.0688482

>  <SCORE.INTRA>
-3.08082

>  <SCORE.INTRA.DIHEDRAL>
-5.70883

>  <SCORE.INTRA.DIHEDRAL.0>
6.10773

>  <SCORE.INTRA.POLAR>
0

>  <SCORE.INTRA.POLAR.0>
0

>  <SCORE.INTRA.REPUL>
0

>  <SCORE.INTRA.REPUL.0>
0

>  <SCORE.INTRA.SOLV>
-1.05051

>  <SCORE.INTRA.SOLV.lig_0>
-71.4024

>  <SCORE.INTRA.VDW>
0.298848

>  <SCORE.INTRA.VDW.0>
-1.86213

>  <SCORE.INTRA.norm>
-0.140037

>  <SCORE.RESTR>
0

>  <SCORE.RESTR.CAVITY>
0

>  <SCORE.RESTR.norm>
0

>  <SCORE.SYSTEM>
0

>  <SCORE.SYSTEM.CONST>
0

>  <SCORE.SYSTEM.DIHEDRAL>
0

>  <SCORE.SYSTEM.SOLV>
0

>  <SCORE.SYSTEM.norm>
0

>  <SCORE.heavy>
22

>  <SCORE.norm>
-0.208885

>  <RMSD>
33.851

$$$$
lig.pdb
 OpenBabel11021811523D
libRbt.so/2013.1/901 2013/11/27
 22 23  0  0  0  0  0  0  0  0999 V2000
  -17.8225   -8.5176  -31.0975 C   0  0  1  0  0  0  0  0  0  0  0  0
  -15.9561   -8.3420  -29.4013 C   0  0  1  0  0  0  0  0  0  0  0  0
  -15.4737   -9.8505  -29.5706 C   0  0  1  0  0  0  0  0  0  0  0  0
  -13.9624   -9.9412  -29.0677 C   0  0  2  0  0  0  0  0  0  0  0  0
  -19.2741   -7.9220  -31.2656 C   0  0  1  0  0  0  0  0  0  0  0  0
  -20.1832   -8.5776  -30.2074 C   0  0  2  0  0  0  0  0  0  0  0  0
  -20.2566  -10.1007  -30.4150 C   0  0  2  0  0  0  0  0  0  0  0  0
  -18.8347  -10.7610  -30.2941 C   0  0  1  0  0  0  0  0  0  0  0  0
  -18.8958  -12.2931  -30.5581 C   0  0  0  0  0  0  0  0  0  0  0  0
  -13.0382   -9.0016  -29.9978 C   0  0  1  0  0  0  0  0  0  0  0  0
  -13.5555   -7.4890  -29.8025 C   0  0  0  0  0  0  0  0  0  0  0  0
  -15.0812   -7.3775  -30.2637 C   0  0  2  0  0  0  0  0  0  0  0  0
  -20.8111  -10.4012  -31.7400 F   0  0  0  0  0  0  0  0  0  0  0  0
  -19.1828   -6.4217  -31.0801 N   0  0  0  0  0  0  0  0  0  0  0  0
  -19.6460  -13.0292  -29.6127 N   0  0  0  0  0  0  0  0  0  0  0  0
  -11.6037   -9.0407  -29.5511 N   0  0  0  0  0  0  0  0  0  0  0  0
  -15.5497   -5.9886  -30.0804 N   0  0  0  0  0  0  0  0  0  0  0  0
  -17.2974   -8.2049  -29.8455 O   0  0  0  0  0  0  0  0  0  0  0  0
  -16.3350  -10.7032  -28.7177 O   0  0  0  0  0  0  0  0  0  0  0  0
  -13.5667  -11.2724  -29.2173 O   0  0  0  0  0  0  0  0  0  0  0  0
  -21.2412   -8.1437  -30.3332 O   0  0  0  0  0  0  0  0  0  0  0  0
  -17.9204  -10.0284  -31.2927 O   0  0  0  0  0  0  0  0  0  0  0  0
  1  5  1  0  0  0  0
  1 18  1  1  0  0  0
  2 18  1  6  0  0  0
  2  3  1  0  0  0  0
  2 12  1  0  0  0  0
  3 19  1  1  0  0  0
  3  4  1  0  0  0  0
  4 20  1  6  0  0  0
  4 10  1  0  0  0  0
  5  6  1  0  0  0  0
  5 14  1  1  0  0  0
  6 21  1  6  0  0  0
  7 13  1  6  0  0  0
  7  6  1  0  0  0  0
  8  9  1  6  0  0  0
  8  7  1  0  0  0  0
 10 16  1  1  0  0  0
 11 10  1  0  0  0  0
 12 17  1  1  0  0  0
 12 11  1  0  0  0  0
 15  9  1  0  0  0  0
 22  8  1  0  0  0  0
 22  1  1  0  0  0  0
M  END
>  <CHROM.1>
-167.59994994,-56.72499514,-64.54905727,-17.13617528,-9.28431836,-30.17153992
3.03877719,0.19314762,2.99910057

>  <Name>
lig.pdb

>  <RI>
0

>  <Rbt.Current_Directory>
/home/itssahil/PROJECTS/Mol_Feturizer/New_Systems/rnas/5bws

>  <Rbt.Executable>
rbdock ($Id: //depot/dev/client3/rdock/2013.1/src/exe/rbdock.cxx#4 $)

>  <Rbt.Library>
libRbt.so (2013.1, Build901 2013/11/27)

>  <Rbt.Parameter_File>
/export/apps/rDock/src/rDock_2013.1_src/data/scripts/dock_solv.prm

>  <Rbt.Receptor>
prm/blind_docking_40.prm

>  <SCORE>
-5.33342

>  <SCORE.INTER>
-3.1513

>  <SCORE.INTER.CONST>
1

>  <SCORE.INTER.POLAR>
0

>  <SCORE.INTER.ROT>
3

>  <SCORE.INTER.SOLV>
19.1399

>  <SCORE.INTER.VDW>
-14.0808

>  <SCORE.INTER.norm>
-0.143241

>  <SCORE.INTRA>
-2.18212

>  <SCORE.INTRA.DIHEDRAL>
-5.24496

>  <SCORE.INTRA.DIHEDRAL.0>
6.10773

>  <SCORE.INTRA.POLAR>
0

>  <SCORE.INTRA.POLAR.0>
0

>  <SCORE.INTRA.REPUL>
0

>  <SCORE.INTRA.REPUL.0>
0

>  <SCORE.INTRA.SOLV>
0.634199

>  <SCORE.INTRA.SOLV.lig_0>
-71.4024

>  <SCORE.INTRA.VDW>
0.123264

>  <SCORE.INTRA.VDW.0>
-1.86213

>  <SCORE.INTRA.norm>
-0.0991871

>  <SCORE.RESTR>
0

>  <SCORE.RESTR.CAVITY>
0

>  <SCORE.RESTR.norm>
0

>  <SCORE.SYSTEM>
0

>  <SCORE.SYSTEM.CONST>
0

>  <SCORE.SYSTEM.DIHEDRAL>
0

>  <SCORE.SYSTEM.SOLV>
0

>  <SCORE.SYSTEM.norm>
0

>  <SCORE.heavy>
22

>  <SCORE.norm>
-0.242428

>  <RMSD>
33.882

$$$$
lig.pdb
 OpenBabel11021811523D
libRbt.so/2013.1/901 2013/11/27
 22 23  0  0  0  0  0  0  0  0999 V2000
  -16.3906    7.3867  -29.2847 C   0  0  1  0  0  0  0  0  0  0  0  0
  -16.5352    5.6803  -31.1444 C   0  0  1  0  0  0  0  0  0  0  0  0
  -15.0929    5.7989  -31.8099 C   0  0  1  0  0  0  0  0  0  0  0  0
  -15.2116    5.3167  -33.3260 C   0  0  2  0  0  0  0  0  0  0  0  0
  -16.1444    7.3728  -27.7260 C   0  0  1  0  0  0  0  0  0  0  0  0
  -17.3622    6.7046  -27.0576 C   0  0  2  0  0  0  0  0  0  0  0  0
  -18.6483    7.5017  -27.3387 C   0  0  2  0  0  0  0  0  0  0  0  0
  -18.9402    7.5858  -28.8814 C   0  0  1  0  0  0  0  0  0  0  0  0
  -20.2090    8.4376  -29.1735 C   0  0  0  0  0  0  0  0  0  0  0  0
  -15.6618    3.7680  -33.3547 C   0  0  1  0  0  0  0  0  0  0  0  0
  -17.1190    3.6874  -32.6737 C   0  0  0  0  0  0  0  0  0  0  0  0
  -17.0370    4.2014  -31.1631 C   0  0  2  0  0  0  0  0  0  0  0  0
  -18.5241    8.8617  -26.8017 F   0  0  0  0  0  0  0  0  0  0  0  0
  -14.8656    6.6042  -27.4665 N   0  0  0  0  0  0  0  0  0  0  0  0
  -20.5644    8.5247  -30.5390 N   0  0  0  0  0  0  0  0  0  0  0  0
  -15.8039    3.2715  -34.7661 N   0  0  0  0  0  0  0  0  0  0  0  0
  -18.3767    4.1264  -30.5452 N   0  0  0  0  0  0  0  0  0  0  0  0
  -16.4821    6.0901  -29.7863 O   0  0  0  0  0  0  0  0  0  0  0  0
  -14.6882    7.2241  -31.7702 O   0  0  0  0  0  0  0  0  0  0  0  0
  -13.9390    5.4389  -33.8888 O   0  0  0  0  0  0  0  0  0  0  0  0
  -17.1816    6.6976  -25.9215 O   0  0  0  0  0  0  0  0  0  0  0  0
  -17.6765    8.1686  -29.5397 O   0  0  0  0  0  0  0  0  0  0  0  0
  1  5  1  0  0  0  0
  1 18  1  1  0  0  0
  2 18  1  1  0  0  0
  2  3  1  0  0  0  0
  2 12  1  0  0  0  0
  3 19  1  6  0  0  0
  3  4  1  0  0  0  0
  4 20  1  1  0  0  0
  4 10  1  0  0  0  0
  5  6  1  0  0  0  0
  5 14  1  6  0  0  0
  6 21  1  1  0  0  0
  7 13  1  6  0  0  0
  7  6  1  0  0  0  0
  8  9  1  1  0  0  0
  8  7  1  0  0  0  0
 10 16  1  6  0  0  0
 11 10  1  0  0  0  0
 12 17  1  6  0  0  0
 12 11  1  0  0  0  0
 15  9  1  0  0  0  0
 22  8  1  0  0  0  0
 22  1  1  0  0  0  0
M  END
>  <CHROM.1>
-171.59928832,75.08584541,-178.01193782,-16.93275707,6.35284779,-30.12851760
-1.97426871,0.22731582,-2.00026336

>  <Name>
lig.pdb

>  <RI>
0

>  <Rbt.Current_Directory>
/home/itssahil/PROJECTS/Mol_Feturizer/New_Systems/rnas/5bws

>  <Rbt.Executable>
rbdock ($Id: //depot/dev/client3/rdock/2013.1/src/exe/rbdock.cxx#4 $)

>  <Rbt.Library>
libRbt.so (2013.1, Build901 2013/11/27)

>  <Rbt.Parameter_File>
/export/apps/rDock/src/rDock_2013.1_src/data/scripts/dock_solv.prm

>  <Rbt.Receptor>
prm/blind_docking_80.prm

>  <SCORE>
-5.14372

>  <SCORE.INTER>
-2.335

>  <SCORE.INTER.CONST>
1

>  <SCORE.INTER.POLAR>
0

>  <SCORE.INTER.ROT>
3

>  <SCORE.INTER.SOLV>
14.4631

>  <SCORE.INTER.VDW>
-11.9777

>  <SCORE.INTER.norm>
-0.106136

>  <SCORE.INTRA>
-2.81018

>  <SCORE.INTRA.DIHEDRAL>
-4.68301

>  <SCORE.INTRA.DIHEDRAL.0>
6.10773

>  <SCORE.INTRA.POLAR>
0

>  <SCORE.INTRA.POLAR.0>
0

>  <SCORE.INTRA.REPUL>
0

>  <SCORE.INTRA.REPUL.0>
0

>  <SCORE.INTRA.SOLV>
-1.23905

>  <SCORE.INTRA.SOLV.lig_0>
-71.4024

>  <SCORE.INTRA.VDW>
0.15085

>  <SCORE.INTRA.VDW.0>
-1.86213

>  <SCORE.INTRA.norm>
-0.127735

>  <SCORE.RESTR>
0.00145523

>  <SCORE.RESTR.CAVITY>
0.00145523

>  <SCORE.RESTR.norm>
6.61468e-05

>  <SCORE.SYSTEM>
0

>  <SCORE.SYSTEM.CONST>
0

>  <SCORE.SYSTEM.DIHEDRAL>
0

>  <SCORE.SYSTEM.SOLV>
0

>  <SCORE.SYSTEM.norm>
0

>  <SCORE.heavy>
22

>  <SCORE.norm>
-0.233806

>  <RMSD>
33.895

$$$$
lig.pdb
 OpenBabel11021811523D
libRbt.so/2013.1/901 2013/11/27
 22 23  0  0  0  0  0  0  0  0999 V2000
  -19.2619    6.8664  -28.0525 C   0  0  1  0  0  0  0  0  0  0  0  0
  -19.8510    7.9790  -30.2448 C   0  0  1  0  0  0  0  0  0  0  0  0
  -18.5056    7.6356  -31.0253 C   0  0  1  0  0  0  0  0  0  0  0  0
  -18.8241    7.6671  -32.5883 C   0  0  2  0  0  0  0  0  0  0  0  0
  -19.2997    7.2449  -26.5210 C   0  0  1  0  0  0  0  0  0  0  0  0
  -18.2593    8.3565  -26.2795 C   0  0  2  0  0  0  0  0  0  0  0  0
  -16.8419    7.8652  -26.6231 C   0  0  2  0  0  0  0  0  0  0  0  0
  -16.7380    7.4376  -28.1326 C   0  0  1  0  0  0  0  0  0  0  0  0
  -15.3221    6.8882  -28.4709 C   0  0  0  0  0  0  0  0  0  0  0  0
  -19.9167    6.5302  -32.9285 C   0  0  1  0  0  0  0  0  0  0  0  0
  -21.2585    6.9089  -32.1224 C   0  0  0  0  0  0  0  0  0  0  0  0
  -20.9588    6.9221  -30.5531 C   0  0  2  0  0  0  0  0  0  0  0  0
  -16.4881    6.7197  -25.7772 F   0  0  0  0  0  0  0  0  0  0  0  0
  -20.7045    7.7056  -26.1929 N   0  0  0  0  0  0  0  0  0  0  0  0
  -14.2620    7.7932  -28.2349 N   0  0  0  0  0  0  0  0  0  0  0  0
  -20.2627    6.5321  -34.3910 N   0  0  0  0  0  0  0  0  0  0  0  0
  -22.1927    7.2717  -29.8200 N   0  0  0  0  0  0  0  0  0  0  0  0
  -19.6232    7.9546  -28.8439 O   0  0  0  0  0  0  0  0  0  0  0  0
  -17.5088    8.6824  -30.6984 O   0  0  0  0  0  0  0  0  0  0  0  0
  -17.6293    7.3728  -33.2493 O   0  0  0  0  0  0  0  0  0  0  0  0
  -18.2870    8.6292  -25.1623 O   0  0  0  0  0  0  0  0  0  0  0  0
  -17.8458    6.3963  -28.3748 O   0  0  0  0  0  0  0  0  0  0  0  0
  1  5  1  0  0  0  0
  1 18  1  6  0  0  0
  2 18  1  1  0  0  0
  2  3  1  0  0  0  0
  2 12  1  0  0  0  0
  3 19  1  6  0  0  0
  3  4  1  0  0  0  0
  4 20  1  6  0  0  0
  4 10  1  0  0  0  0
  5  6  1  0  0  0  0
  5 14  1  6  0  0  0
  6 21  1  1  0  0  0
  7 13  1  1  0  0  0
  7  6  1  0  0  0  0
  8  9  1  1  0  0  0
  8  7  1  0  0  0  0
 10 16  1  6  0  0  0
 11 10  1  0  0  0  0
 12 17  1  1  0  0  0
 12 11  1  0  0  0  0
 15  9  1  0  0  0  0
 22  8  1  0  0  0  0
 22  1  1  0  0  0  0
M  END
>  <CHROM.1>
-172.50701923,-64.27474457,-58.76627647,-18.57386444,7.42545490,-29.22907098
1.17016475,0.01824310,1.49861224

>  <Name>
lig.pdb

>  <RI>
0

>  <Rbt.Current_Directory>
/home/itssahil/PROJECTS/Mol_Feturizer/New_Systems/rnas/5bws

>  <Rbt.Executable>
rbdock ($Id: //depot/dev/client3/rdock/2013.1/src/exe/rbdock.cxx#4 $)

>  <Rbt.Library>
libRbt.so (2013.1, Build901 2013/11/27)

>  <Rbt.Parameter_File>
/export/apps/rDock/src/rDock_2013.1_src/data/scripts/dock_solv.prm

>  <Rbt.Receptor>
prm/blind_docking_80.prm

>  <SCORE>
-3.62924

>  <SCORE.INTER>
-1.14371

>  <SCORE.INTER.CONST>
1

>  <SCORE.INTER.POLAR>
0

>  <SCORE.INTER.ROT>
3

>  <SCORE.INTER.SOLV>
14.9199

>  <SCORE.INTER.VDW>
-11.3358

>  <SCORE.INTER.norm>
-0.0519868

>  <SCORE.INTRA>
-2.48553

>  <SCORE.INTRA.DIHEDRAL>
-5.73642

>  <SCORE.INTRA.DIHEDRAL.0>
6.10773

>  <SCORE.INTRA.POLAR>
0

>  <SCORE.INTRA.POLAR.0>
0

>  <SCORE.INTRA.REPUL>
0

>  <SCORE.INTRA.REPUL.0>
0

>  <SCORE.INTRA.SOLV>
0.485315

>  <SCORE.INTRA.SOLV.lig_0>
-71.4024

>  <SCORE.INTRA.VDW>
0.140019

>  <SCORE.INTRA.VDW.0>
-1.86213

>  <SCORE.INTRA.norm>
-0.112979

>  <SCORE.RESTR>
0

>  <SCORE.RESTR.CAVITY>
0

>  <SCORE.RESTR.norm>
0

>  <SCORE.SYSTEM>
0

>  <SCORE.SYSTEM.CONST>
0

>  <SCORE.SYSTEM.DIHEDRAL>
0

>  <SCORE.SYSTEM.SOLV>
0

>  <SCORE.SYSTEM.norm>
0

>  <SCORE.heavy>
22

>  <SCORE.norm>
-0.164966

>  <RMSD>
33.943

$$$$
lig.pdb
 OpenBabel11021811523D
libRbt.so/2013.1/901 2013/11/27
 22 23  0  0  0  0  0  0  0  0999 V2000
  -20.7665    5.7348  -30.4256 C   0  0  1  0  0  0  0  0  0  0  0  0
  -20.1643    4.9980  -28.0834 C   0  0  1  0  0  0  0  0  0  0  0  0
  -20.9888    3.6374  -28.0062 C   0  0  1  0  0  0  0  0  0  0  0  0
  -21.2712    3.3221  -26.4680 C   0  0  2  0  0  0  0  0  0  0  0  0
  -20.0477    5.8260  -31.8274 C   0  0  1  0  0  0  0  0  0  0  0  0
  -18.9396    6.8929  -31.7258 C   0  0  2  0  0  0  0  0  0  0  0  0
  -19.5353    8.2728  -31.3952 C   0  0  2  0  0  0  0  0  0  0  0  0
  -20.2988    8.2489  -30.0208 C   0  0  1  0  0  0  0  0  0  0  0  0
  -20.9499    9.6271  -29.7089 C   0  0  0  0  0  0  0  0  0  0  0  0
  -19.8658    3.1121  -25.7045 C   0  0  1  0  0  0  0  0  0  0  0  0
  -19.0614    4.5037  -25.8051 C   0  0  0  0  0  0  0  0  0  0  0  0
  -18.7977    4.8639  -27.3392 C   0  0  2  0  0  0  0  0  0  0  0  0
  -20.4671    8.6841  -32.4515 F   0  0  0  0  0  0  0  0  0  0  0  0
  -19.4855    4.4571  -32.1490 N   0  0  0  0  0  0  0  0  0  0  0  0
  -21.5837    9.7128  -28.4482 N   0  0  0  0  0  0  0  0  0  0  0  0
  -20.0800    2.8284  -24.2442 N   0  0  0  0  0  0  0  0  0  0  0  0
  -18.0614    6.1417  -27.4244 N   0  0  0  0  0  0  0  0  0  0  0  0
  -19.8779    5.3199  -29.4360 O   0  0  0  0  0  0  0  0  0  0  0  0
  -22.2730    3.8414  -28.7172 O   0  0  0  0  0  0  0  0  0  0  0  0
  -22.0016    2.1322  -26.4277 O   0  0  0  0  0  0  0  0  0  0  0  0
  -18.4185    6.9593  -32.7492 O   0  0  0  0  0  0  0  0  0  0  0  0
  -21.3367    7.1154  -30.1110 O   0  0  0  0  0  0  0  0  0  0  0  0
  1  5  1  0  0  0  0
  1 18  1  1  0  0  0
  2 18  1  6  0  0  0
  2  3  1  0  0  0  0
  2 12  1  0  0  0  0
  3 19  1  6  0  0  0
  3  4  1  0  0  0  0
  4 20  1  6  0  0  0
  4 10  1  0  0  0  0
  5  6  1  0  0  0  0
  5 14  1  1  0  0  0
  6 21  1  6  0  0  0
  7 13  1  6  0  0  0
  7  6  1  0  0  0  0
  8  9  1  6  0  0  0
  8  7  1  0  0  0  0
 10 16  1  1  0  0  0
 11 10  1  0  0  0  0
 12 17  1  1  0  0  0
 12 11  1  0  0  0  0
 15  9  1  0  0  0  0
 22  8  1  0  0  0  0
 22  1  1  0  0  0  0
M  END
>  <CHROM.1>
-173.55861014,69.97764019,-176.13091170,-20.22120066,5.77157908,-29.09710920
-1.09714744,-1.41765264,2.74908855

>  <Name>
lig.pdb

>  <RI>
0

>  <Rbt.Current_Directory>
/home/itssahil/PROJECTS/Mol_Feturizer/New_Systems/rnas/5bws

>  <Rbt.Executable>
rbdock ($Id: //depot/dev/client3/rdock/2013.1/src/exe/rbdock.cxx#4 $)

>  <Rbt.Library>
libRbt.so (2013.1, Build901 2013/11/27)

>  <Rbt.Parameter_File>
/export/apps/rDock/src/rDock_2013.1_src/data/scripts/dock_solv.prm

>  <Rbt.Receptor>
prm/blind_docking_80.prm

>  <SCORE>
-5.60983

>  <SCORE.INTER>
-2.43683

>  <SCORE.INTER.CONST>
1

>  <SCORE.INTER.POLAR>
0

>  <SCORE.INTER.ROT>
3

>  <SCORE.INTER.SOLV>
8.88379

>  <SCORE.INTER.VDW>
-10.1858

>  <SCORE.INTER.norm>
-0.110765

>  <SCORE.INTRA>
-3.173

>  <SCORE.INTRA.DIHEDRAL>
-5.36868

>  <SCORE.INTRA.DIHEDRAL.0>
6.10773

>  <SCORE.INTRA.POLAR>
0

>  <SCORE.INTRA.POLAR.0>
0

>  <SCORE.INTRA.REPUL>
0

>  <SCORE.INTRA.REPUL.0>
0

>  <SCORE.INTRA.SOLV>
-1.45099

>  <SCORE.INTRA.SOLV.lig_0>
-71.4024

>  <SCORE.INTRA.VDW>
0.236832

>  <SCORE.INTRA.VDW.0>
-1.86213

>  <SCORE.INTRA.norm>
-0.144227

>  <SCORE.RESTR>
0

>  <SCORE.RESTR.CAVITY>
0

>  <SCORE.RESTR.norm>
0

>  <SCORE.SYSTEM>
0

>  <SCORE.SYSTEM.CONST>
0

>  <SCORE.SYSTEM.DIHEDRAL>
0

>  <SCORE.SYSTEM.SOLV>
0

>  <SCORE.SYSTEM.norm>
0

>  <SCORE.heavy>
22

>  <SCORE.norm>
-0.254992

>  <RMSD>
33.970

$$$$
lig.pdb
 OpenBabel11021811523D
libRbt.so/2013.1/901 2013/11/27
 22 23  0  0  0  0  0  0  0  0999 V2000
  -17.6535    6.6986  -28.2102 C   0  0  1  0  0  0  0  0  0  0  0  0
  -19.3278    8.0158  -29.5714 C   0  0  1  0  0  0  0  0  0  0  0  0
  -18.5609    8.1881  -30.9567 C   0  0  1  0  0  0  0  0  0  0  0  0
  -19.6551    8.3733  -32.1029 C   0  0  2  0  0  0  0  0  0  0  0  0
  -16.6596    6.9762  -27.0163 C   0  0  1  0  0  0  0  0  0  0  0  0
  -15.6673    8.0666  -27.4666 C   0  0  2  0  0  0  0  0  0  0  0  0
  -14.8477    7.5950  -28.6807 C   0  0  2  0  0  0  0  0  0  0  0  0
  -15.7795    7.2668  -29.9039 C   0  0  1  0  0  0  0  0  0  0  0  0
  -14.9602    6.7368  -31.1157 C   0  0  0  0  0  0  0  0  0  0  0  0
  -20.5655    7.0442  -32.1846 C   0  0  1  0  0  0  0  0  0  0  0  0
  -21.3216    6.9023  -30.7698 C   0  0  0  0  0  0  0  0  0  0  0  0
  -20.2468    6.7532  -29.5970 C   0  0  2  0  0  0  0  0  0  0  0  0
  -14.0777    6.3955  -28.3320 F   0  0  0  0  0  0  0  0  0  0  0  0
  -17.4813    7.4183  -25.8236 N   0  0  0  0  0  0  0  0  0  0  0  0
  -15.7358    6.3403  -32.2292 N   0  0  0  0  0  0  0  0  0  0  0  0
  -21.6251    7.1780  -33.2421 N   0  0  0  0  0  0  0  0  0  0  0  0
  -20.9467    6.6252  -28.3024 N   0  0  0  0  0  0  0  0  0  0  0  0
  -18.3959    7.8374  -28.5156 O   0  0  0  0  0  0  0  0  0  0  0  0
  -17.7231    9.4072  -30.8656 O   0  0  0  0  0  0  0  0  0  0  0  0
  -18.9587    8.5314  -33.3034 O   0  0  0  0  0  0  0  0  0  0  0  0
  -14.9425    8.2657  -26.5957 O   0  0  0  0  0  0  0  0  0  0  0  0
  -16.8198    6.2467  -29.4064 O   0  0  0  0  0  0  0  0  0  0  0  0
  1  5  1  0  0  0  0
  1 18  1  6  0  0  0
  2 18  1  1  0  0  0
  2  3  1  0  0  0  0
  2 12  1  0  0  0  0
  3 19  1  1  0  0  0
  3  4  1  0  0  0  0
  4 20  1  6  0  0  0
  4 10  1  0  0  0  0
  5  6  1  0  0  0  0
  5 14  1  1  0  0  0
  6 21  1  1  0  0  0
  7 13  1  1  0  0  0
  7  6  1  0  0  0  0
  8  9  1  6  0  0  0
  8  7  1  0  0  0  0
 10 16  1  6  0  0  0
 11 10  1  0  0  0  0
 12 17  1  1  0  0  0
 12 11  1  0  0  0  0
 15  9  1  0  0  0  0
 22  8  1  0  0  0  0
 22  1  1  0  0  0  0
M  END
>  <CHROM.1>
175.74230186,-75.16035301,176.27223153,-17.73970170,7.40456979,-29.71909090
0.68875029,-0.01576418,1.61877032

>  <Name>
lig.pdb

>  <RI>
0

>  <Rbt.Current_Directory>
/home/itssahil/PROJECTS/Mol_Feturizer/New_Systems/rnas/5bws

>  <Rbt.Executable>
rbdock ($Id: //depot/dev/client3/rdock/2013.1/src/exe/rbdock.cxx#4 $)

>  <Rbt.Library>
libRbt.so (2013.1, Build901 2013/11/27)

>  <Rbt.Parameter_File>
/export/apps/rDock/src/rDock_2013.1_src/data/scripts/dock_solv.prm

>  <Rbt.Receptor>
prm/blind_docking_60.prm

>  <SCORE>
-6.40402

>  <SCORE.INTER>
-4.25637

>  <SCORE.INTER.CONST>
1

>  <SCORE.INTER.POLAR>
0

>  <SCORE.INTER.ROT>
3

>  <SCORE.INTER.SOLV>
16.1534

>  <SCORE.INTER.VDW>
-13.822

>  <SCORE.INTER.norm>
-0.193471

>  <SCORE.INTRA>
-2.14765

>  <SCORE.INTRA.DIHEDRAL>
-4.89024

>  <SCORE.INTRA.DIHEDRAL.0>
6.10773

>  <SCORE.INTRA.POLAR>
0

>  <SCORE.INTRA.POLAR.0>
0

>  <SCORE.INTRA.REPUL>
0

>  <SCORE.INTRA.REPUL.0>
0

>  <SCORE.INTRA.SOLV>
0.715181

>  <SCORE.INTRA.SOLV.lig_0>
-71.4024

>  <SCORE.INTRA.VDW>
-0.0601242

>  <SCORE.INTRA.VDW.0>
-1.86213

>  <SCORE.INTRA.norm>
-0.0976206

>  <SCORE.RESTR>
0

>  <SCORE.RESTR.CAVITY>
0

>  <SCORE.RESTR.norm>
0

>  <SCORE.SYSTEM>
0

>  <SCORE.SYSTEM.CONST>
0

>  <SCORE.SYSTEM.DIHEDRAL>
0

>  <SCORE.SYSTEM.SOLV>
0

>  <SCORE.SYSTEM.norm>
0

>  <SCORE.heavy>
22

>  <SCORE.norm>
-0.291092

>  <RMSD>
34.004

$$$$
lig.pdb
 OpenBabel11021811523D
libRbt.so/2013.1/901 2013/11/27
 22 23  0  0  0  0  0  0  0  0999 V2000
  -20.7404    5.6298  -30.4625 C   0  0  1  0  0  0  0  0  0  0  0  0
  -20.1563    4.9816  -28.0897 C   0  0  1  0  0  0  0  0  0  0  0  0
  -20.9720    3.6167  -27.9964 C   0  0  1  0  0  0  0  0  0  0  0  0
  -21.2709    3.3287  -26.4559 C   0  0  2  0  0  0  0  0  0  0  0  0
  -19.9871    5.7684  -31.8422 C   0  0  1  0  0  0  0  0  0  0  0  0
  -18.9598    6.9102  -31.7111 C   0  0  2  0  0  0  0  0  0  0  0  0
  -19.6601    8.2458  -31.4043 C   0  0  2  0  0  0  0  0  0  0  0  0
  -20.4618    8.1712  -30.0537 C   0  0  1  0  0  0  0  0  0  0  0  0
  -21.2166    9.5012  -29.7672 C   0  0  0  0  0  0  0  0  0  0  0  0
  -19.8734    3.1435  -25.6718 C   0  0  1  0  0  0  0  0  0  0  0  0
  -19.0777    4.5388  -25.7893 C   0  0  0  0  0  0  0  0  0  0  0  0
  -18.7980    4.8717  -27.3267 C   0  0  2  0  0  0  0  0  0  0  0  0
  -20.5855    8.5891  -32.4901 F   0  0  0  0  0  0  0  0  0  0  0  0
  -19.3213    4.4415  -32.1410 N   0  0  0  0  0  0  0  0  0  0  0  0
  -20.3850   10.6327  -29.6042 N   0  0  0  0  0  0  0  0  0  0  0  0
  -20.1033    2.8861  -24.2090 N   0  0  0  0  0  0  0  0  0  0  0  0
  -18.0697    6.1530  -27.4274 N   0  0  0  0  0  0  0  0  0  0  0  0
  -19.8557    5.2798  -29.4446 O   0  0  0  0  0  0  0  0  0  0  0  0
  -22.2489    3.7978  -28.7265 O   0  0  0  0  0  0  0  0  0  0  0  0
  -21.9933    2.1344  -26.4017 O   0  0  0  0  0  0  0  0  0  0  0  0
  -18.4135    7.0110  -32.7185 O   0  0  0  0  0  0  0  0  0  0  0  0
  -21.4148    6.9678  -30.1708 O   0  0  0  0  0  0  0  0  0  0  0  0
  1  5  1  0  0  0  0
  1 18  1  1  0  0  0
  2 18  1  6  0  0  0
  2  3  1  0  0  0  0
  2 12  1  0  0  0  0
  3 19  1  6  0  0  0
  3  4  1  0  0  0  0
  4 20  1  6  0  0  0
  4 10  1  0  0  0  0
  5  6  1  0  0  0  0
  5 14  1  1  0  0  0
  6 21  1  6  0  0  0
  7 13  1  6  0  0  0
  7  6  1  0  0  0  0
  8  9  1  6  0  0  0
  8  7  1  0  0  0  0
 10 16  1  1  0  0  0
 11 10  1  0  0  0  0
 12 17  1  1  0  0  0
 12 11  1  0  0  0  0
 15  9  1  0  0  0  0
 22  8  1  0  0  0  0
 22  1  1  0  0  0  0
M  END
>  <CHROM.1>
-175.70624845,67.83657142,-62.34672341,-20.19095961,5.78620011,-29.15307460
0.52142926,-1.49086332,-1.89040133

>  <Name>
lig.pdb

>  <RI>
0

>  <Rbt.Current_Directory>
/home/itssahil/PROJECTS/Mol_Feturizer/New_Systems/rnas/5bws

>  <Rbt.Executable>
rbdock ($Id: //depot/dev/client3/rdock/2013.1/src/exe/rbdock.cxx#4 $)

>  <Rbt.Library>
libRbt.so (2013.1, Build901 2013/11/27)

>  <Rbt.Parameter_File>
/export/apps/rDock/src/rDock_2013.1_src/data/scripts/dock_solv.prm

>  <Rbt.Receptor>
prm/blind_docking_40.prm

>  <SCORE>
-4.79776

>  <SCORE.INTER>
-1.75824

>  <SCORE.INTER.CONST>
1

>  <SCORE.INTER.POLAR>
0

>  <SCORE.INTER.ROT>
3

>  <SCORE.INTER.SOLV>
11.3837

>  <SCORE.INTER.VDW>
-10.5667

>  <SCORE.INTER.norm>
-0.0799202

>  <SCORE.INTRA>
-3.03952

>  <SCORE.INTRA.DIHEDRAL>
-5.6957

>  <SCORE.INTRA.DIHEDRAL.0>
6.10773

>  <SCORE.INTRA.POLAR>
0

>  <SCORE.INTRA.POLAR.0>
0

>  <SCORE.INTRA.REPUL>
0

>  <SCORE.INTRA.REPUL.0>
0

>  <SCORE.INTRA.SOLV>
-0.984507

>  <SCORE.INTRA.SOLV.lig_0>
-71.4024

>  <SCORE.INTRA.VDW>
0.300584

>  <SCORE.INTRA.VDW.0>
-1.86213

>  <SCORE.INTRA.norm>
-0.13816

>  <SCORE.RESTR>
0

>  <SCORE.RESTR.CAVITY>
0

>  <SCORE.RESTR.norm>
0

>  <SCORE.SYSTEM>
0

>  <SCORE.SYSTEM.CONST>
0

>  <SCORE.SYSTEM.DIHEDRAL>
0

>  <SCORE.SYSTEM.SOLV>
0

>  <SCORE.SYSTEM.norm>
0

>  <SCORE.heavy>
22

>  <SCORE.norm>
-0.21808

>  <RMSD>
34.006

$$$$
lig.pdb
 OpenBabel11021811523D
libRbt.so/2013.1/901 2013/11/27
 22 23  0  0  0  0  0  0  0  0999 V2000
  -17.3301    7.8313  -30.7865 C   0  0  1  0  0  0  0  0  0  0  0  0
  -19.2596    8.5487  -29.3191 C   0  0  1  0  0  0  0  0  0  0  0  0
  -19.8236    9.6881  -30.2786 C   0  0  1  0  0  0  0  0  0  0  0  0
  -20.6713   10.7042  -29.3875 C   0  0  2  0  0  0  0  0  0  0  0  0
  -16.7904    6.4879  -31.4143 C   0  0  1  0  0  0  0  0  0  0  0  0
  -16.4482    5.5263  -30.2591 C   0  0  2  0  0  0  0  0  0  0  0  0
  -15.3482    6.1181  -29.3601 C   0  0  2  0  0  0  0  0  0  0  0  0
  -15.8054    7.4812  -28.7236 C   0  0  1  0  0  0  0  0  0  0  0  0
  -14.6760    8.1108  -27.8582 C   0  0  0  0  0  0  0  0  0  0  0  0
  -21.9212    9.9201  -28.7356 C   0  0  1  0  0  0  0  0  0  0  0  0
  -21.3136    8.7780  -27.7763 C   0  0  0  0  0  0  0  0  0  0  0  0
  -20.4271    7.7660  -28.6381 C   0  0  2  0  0  0  0  0  0  0  0  0
  -14.1269    6.3424  -30.1419 F   0  0  0  0  0  0  0  0  0  0  0  0
  -17.8741    5.9287  -32.3121 N   0  0  0  0  0  0  0  0  0  0  0  0
  -14.1868    7.2799  -26.8243 N   0  0  0  0  0  0  0  0  0  0  0  0
  -22.7426   10.8345  -27.8709 N   0  0  0  0  0  0  0  0  0  0  0  0
  -19.8716    6.7225  -27.7522 N   0  0  0  0  0  0  0  0  0  0  0  0
  -18.5027    7.6096  -30.0675 O   0  0  0  0  0  0  0  0  0  0  0  0
  -18.6663   10.3950  -30.8764 O   0  0  0  0  0  0  0  0  0  0  0  0
  -21.1460   11.6964  -30.2485 O   0  0  0  0  0  0  0  0  0  0  0  0
  -16.0530    4.5486  -30.7188 O   0  0  0  0  0  0  0  0  0  0  0  0
  -16.2307    8.3931  -29.8888 O   0  0  0  0  0  0  0  0  0  0  0  0
  1  5  1  0  0  0  0
  1 18  1  1  0  0  0
  2 18  1  6  0  0  0
  2  3  1  0  0  0  0
  2 12  1  0  0  0  0
  3 19  1  1  0  0  0
  3  4  1  0  0  0  0
  4 20  1  6  0  0  0
  4 10  1  0  0  0  0
  5  6  1  0  0  0  0
  5 14  1  6  0  0  0
  6 21  1  6  0  0  0
  7 13  1  6  0  0  0
  7  6  1  0  0  0  0
  8  9  1  6  0  0  0
  8  7  1  0  0  0  0
 10 16  1  1  0  0  0
 11 10  1  0  0  0  0
 12 17  1  1  0  0  0
 12 11  1  0  0  0  0
 15  9  1  0  0  0  0
 22  8  1  0  0  0  0
 22  1  1  0  0  0  0
M  END
>  <CHROM.1>
177.37287353,62.75347987,-56.41575380,-18.07380511,8.02204055,-29.54202583
0.35395071,0.46557127,-2.08602248

>  <Name>
lig.pdb

>  <RI>
0

>  <Rbt.Current_Directory>
/home/itssahil/PROJECTS/Mol_Feturizer/New_Systems/rnas/5bws

>  <Rbt.Executable>
rbdock ($Id: //depot/dev/client3/rdock/2013.1/src/exe/rbdock.cxx#4 $)

>  <Rbt.Library>
libRbt.so (2013.1, Build901 2013/11/27)

>  <Rbt.Parameter_File>
/export/apps/rDock/src/rDock_2013.1_src/data/scripts/dock_solv.prm

>  <Rbt.Receptor>
prm/blind_docking_40.prm

>  <SCORE>
-6.99291

>  <SCORE.INTER>
-3.94701

>  <SCORE.INTER.CONST>
1

>  <SCORE.INTER.POLAR>
0

>  <SCORE.INTER.ROT>
3

>  <SCORE.INTER.SOLV>
16.9202

>  <SCORE.INTER.VDW>
-13.8714

>  <SCORE.INTER.norm>
-0.179409

>  <SCORE.INTRA>
-3.0459

>  <SCORE.INTRA.DIHEDRAL>
-5.98769

>  <SCORE.INTRA.DIHEDRAL.0>
6.10773

>  <SCORE.INTRA.POLAR>
0

>  <SCORE.INTRA.POLAR.0>
0

>  <SCORE.INTRA.REPUL>
0

>  <SCORE.INTRA.REPUL.0>
0

>  <SCORE.INTRA.SOLV>
-0.959972

>  <SCORE.INTRA.SOLV.lig_0>
-71.4024

>  <SCORE.INTRA.VDW>
0.427929

>  <SCORE.INTRA.VDW.0>
-1.86213

>  <SCORE.INTRA.norm>
-0.13845

>  <SCORE.RESTR>
0

>  <SCORE.RESTR.CAVITY>
0

>  <SCORE.RESTR.norm>
0

>  <SCORE.SYSTEM>
0

>  <SCORE.SYSTEM.CONST>
0

>  <SCORE.SYSTEM.DIHEDRAL>
0

>  <SCORE.SYSTEM.SOLV>
0

>  <SCORE.SYSTEM.norm>
0

>  <SCORE.heavy>
22

>  <SCORE.norm>
-0.317859

>  <RMSD>
34.008

$$$$
lig.pdb
 OpenBabel11021811523D
libRbt.so/2013.1/901 2013/11/27
 22 23  0  0  0  0  0  0  0  0999 V2000
  -16.1268   -8.0035  -29.4967 C   0  0  1  0  0  0  0  0  0  0  0  0
  -18.0618   -8.8500  -30.8861 C   0  0  1  0  0  0  0  0  0  0  0  0
  -18.0465  -10.3056  -30.2395 C   0  0  1  0  0  0  0  0  0  0  0  0
  -19.4814  -10.9618  -30.4755 C   0  0  2  0  0  0  0  0  0  0  0  0
  -14.9029   -7.0298  -29.7074 C   0  0  1  0  0  0  0  0  0  0  0  0
  -13.9185   -7.7065  -30.6817 C   0  0  2  0  0  0  0  0  0  0  0  0
  -13.3912   -9.0293  -30.0982 C   0  0  2  0  0  0  0  0  0  0  0  0
  -14.5646  -10.0410  -29.8302 C   0  0  1  0  0  0  0  0  0  0  0  0
  -14.0427  -11.3589  -29.1888 C   0  0  0  0  0  0  0  0  0  0  0  0
  -20.5982  -10.0778  -29.7182 C   0  0  1  0  0  0  0  0  0  0  0  0
  -20.5830   -8.6168  -30.3956 C   0  0  0  0  0  0  0  0  0  0  0  0
  -19.1431   -7.9505  -30.2072 C   0  0  2  0  0  0  0  0  0  0  0  0
  -12.6825   -8.7760  -28.8386 F   0  0  0  0  0  0  0  0  0  0  0  0
  -15.4389   -5.7262  -30.2612 N   0  0  0  0  0  0  0  0  0  0  0  0
  -15.0296  -12.3493  -28.9798 N   0  0  0  0  0  0  0  0  0  0  0  0
  -21.9729  -10.6486  -29.9260 N   0  0  0  0  0  0  0  0  0  0  0  0
  -19.1355   -6.6119  -30.8321 N   0  0  0  0  0  0  0  0  0  0  0  0
  -16.8059   -8.2167  -30.6944 O   0  0  0  0  0  0  0  0  0  0  0  0
  -17.0121  -11.1042  -30.9383 O   0  0  0  0  0  0  0  0  0  0  0  0
  -19.4394  -12.2379  -29.9090 O   0  0  0  0  0  0  0  0  0  0  0  0
  -13.0262   -6.9961  -30.8321 O   0  0  0  0  0  0  0  0  0  0  0  0
  -15.5807   -9.3123  -28.9320 O   0  0  0  0  0  0  0  0  0  0  0  0
  1  5  1  0  0  0  0
  1 18  1  6  0  0  0
  2 18  1  1  0  0  0
  2  3  1  0  0  0  0
  2 12  1  0  0  0  0
  3 19  1  6  0  0  0
  3  4  1  0  0  0  0
  4 20  1  1  0  0  0
  4 10  1  0  0  0  0
  5  6  1  0  0  0  0
  5 14  1  6  0  0  0
  6 21  1  1  0  0  0
  7 13  1  1  0  0  0
  7  6  1  0  0  0  0
  8  9  1  1  0  0  0
  8  7  1  0  0  0  0
 10 16  1  6  0  0  0
 11 10  1  0  0  0  0
 12 17  1  6  0  0  0
 12 11  1  0  0  0  0
 15  9  1  0  0  0  0
 22  8  1  0  0  0  0
 22  1  1  0  0  0  0
M  END
>  <CHROM.1>
-169.32651849,-54.86425709,-176.88674766,-16.69261601,-9.18978514,-30.03332322
0.24450174,-0.10660478,-0.17593719

>  <Name>
lig.pdb

>  <RI>
0

>  <Rbt.Current_Directory>
/home/itssahil/PROJECTS/Mol_Feturizer/New_Systems/rnas/5bws

>  <Rbt.Executable>
rbdock ($Id: //depot/dev/client3/rdock/2013.1/src/exe/rbdock.cxx#4 $)

>  <Rbt.Library>
libRbt.so (2013.1, Build901 2013/11/27)

>  <Rbt.Parameter_File>
/export/apps/rDock/src/rDock_2013.1_src/data/scripts/dock_solv.prm

>  <Rbt.Receptor>
prm/blind_docking_100.prm

>  <SCORE>
-6.01513

>  <SCORE.INTER>
-4.02927

>  <SCORE.INTER.CONST>
1

>  <SCORE.INTER.POLAR>
0

>  <SCORE.INTER.ROT>
3

>  <SCORE.INTER.SOLV>
17.6479

>  <SCORE.INTER.VDW>
-14.1688

>  <SCORE.INTER.norm>
-0.183148

>  <SCORE.INTRA>
-1.98587

>  <SCORE.INTRA.DIHEDRAL>
-5.3934

>  <SCORE.INTRA.DIHEDRAL.0>
6.10773

>  <SCORE.INTRA.POLAR>
0

>  <SCORE.INTRA.POLAR.0>
0

>  <SCORE.INTRA.REPUL>
0

>  <SCORE.INTRA.REPUL.0>
0

>  <SCORE.INTRA.SOLV>
1.43738

>  <SCORE.INTRA.SOLV.lig_0>
-71.4024

>  <SCORE.INTRA.VDW>
-0.00785746

>  <SCORE.INTRA.VDW.0>
-1.86213

>  <SCORE.INTRA.norm>
-0.0902666

>  <SCORE.RESTR>
0

>  <SCORE.RESTR.CAVITY>
0

>  <SCORE.RESTR.norm>
0

>  <SCORE.SYSTEM>
0

>  <SCORE.SYSTEM.CONST>
0

>  <SCORE.SYSTEM.DIHEDRAL>
0

>  <SCORE.SYSTEM.SOLV>
0

>  <SCORE.SYSTEM.norm>
0

>  <SCORE.heavy>
22

>  <SCORE.norm>
-0.273415

>  <RMSD>
34.036

$$$$
lig.pdb
 OpenBabel11021811523D
libRbt.so/2013.1/901 2013/11/27
 22 23  0  0  0  0  0  0  0  0999 V2000
  -19.0728    6.2953  -28.4059 C   0  0  1  0  0  0  0  0  0  0  0  0
  -20.4482    7.6393  -30.0470 C   0  0  1  0  0  0  0  0  0  0  0  0
  -19.3025    7.8988  -31.1227 C   0  0  1  0  0  0  0  0  0  0  0  0
  -20.0040    8.1806  -32.5276 C   0  0  2  0  0  0  0  0  0  0  0  0
  -18.8181    6.2903  -26.8486 C   0  0  1  0  0  0  0  0  0  0  0  0
  -18.0538    7.5793  -26.4870 C   0  0  2  0  0  0  0  0  0  0  0  0
  -16.6916    7.6281  -27.2014 C   0  0  2  0  0  0  0  0  0  0  0  0
  -16.8669    7.6025  -28.7637 C   0  0  1  0  0  0  0  0  0  0  0  0
  -15.4906    7.5957  -29.4894 C   0  0  0  0  0  0  0  0  0  0  0  0
  -20.8376    6.8737  -32.9740 C   0  0  1  0  0  0  0  0  0  0  0  0
  -21.9821    6.6422  -31.8649 C   0  0  0  0  0  0  0  0  0  0  0  0
  -21.3073    6.3949  -30.4379 C   0  0  2  0  0  0  0  0  0  0  0  0
  -15.8695    6.4826  -26.7947 F   0  0  0  0  0  0  0  0  0  0  0  0
  -20.1649    6.2205  -26.1597 N   0  0  0  0  0  0  0  0  0  0  0  0
  -14.7113    8.7592  -29.2956 N   0  0  0  0  0  0  0  0  0  0  0  0
  -21.5323    7.0973  -34.2879 N   0  0  0  0  0  0  0  0  0  0  0  0
  -22.3622    6.1851  -29.4252 N   0  0  0  0  0  0  0  0  0  0  0  0
  -19.8744    7.3730  -28.7762 O   0  0  0  0  0  0  0  0  0  0  0  0
  -18.5402    9.0964  -30.6971 O   0  0  0  0  0  0  0  0  0  0  0  0
  -18.9809    8.4138  -33.4496 O   0  0  0  0  0  0  0  0  0  0  0  0
  -17.8672    7.5724  -25.3518 O   0  0  0  0  0  0  0  0  0  0  0  0
  -17.7117    6.3586  -29.0939 O   0  0  0  0  0  0  0  0  0  0  0  0
  1  5  1  0  0  0  0
  1 18  1  1  0  0  0
  2 18  1  1  0  0  0
  2  3  1  0  0  0  0
  2 12  1  0  0  0  0
  3 19  1  1  0  0  0
  3  4  1  0  0  0  0
  4 20  1  6  0  0  0
  4 10  1  0  0  0  0
  5  6  1  0  0  0  0
  5 14  1  1  0  0  0
  6 21  1  1  0  0  0
  7 13  1  1  0  0  0
  7  6  1  0  0  0  0
  8  9  1  6  0  0  0
  8  7  1  0  0  0  0
 10 16  1  6  0  0  0
 11 10  1  0  0  0  0
 12 17  1  1  0  0  0
 12 11  1  0  0  0  0
 15  9  1  0  0  0  0
 22  8  1  0  0  0  0
 22  1  1  0  0  0  0
M  END
>  <CHROM.1>
-172.21990380,-64.34734738,-64.45714607,-18.86526457,7.28482668,-29.47922985
0.92677588,0.28462136,1.80316804

>  <Name>
lig.pdb

>  <RI>
0

>  <Rbt.Current_Directory>
/home/itssahil/PROJECTS/Mol_Feturizer/New_Systems/rnas/5bws

>  <Rbt.Executable>
rbdock ($Id: //depot/dev/client3/rdock/2013.1/src/exe/rbdock.cxx#4 $)

>  <Rbt.Library>
libRbt.so (2013.1, Build901 2013/11/27)

>  <Rbt.Parameter_File>
/export/apps/rDock/src/rDock_2013.1_src/data/scripts/dock_solv.prm

>  <Rbt.Receptor>
prm/blind_docking_100.prm

>  <SCORE>
-3.52102

>  <SCORE.INTER>
-1.01196

>  <SCORE.INTER.CONST>
1

>  <SCORE.INTER.POLAR>
0

>  <SCORE.INTER.ROT>
3

>  <SCORE.INTER.SOLV>
17.6464

>  <SCORE.INTER.VDW>
-12.1568

>  <SCORE.INTER.norm>
-0.0459982

>  <SCORE.INTRA>
-2.50906

>  <SCORE.INTRA.DIHEDRAL>
-5.64573

>  <SCORE.INTRA.DIHEDRAL.0>
6.10773

>  <SCORE.INTRA.POLAR>
0

>  <SCORE.INTRA.POLAR.0>
0

>  <SCORE.INTRA.REPUL>
0

>  <SCORE.INTRA.REPUL.0>
0

>  <SCORE.INTRA.SOLV>
0.434662

>  <SCORE.INTRA.SOLV.lig_0>
-71.4024

>  <SCORE.INTRA.VDW>
0.0964726

>  <SCORE.INTRA.VDW.0>
-1.86213

>  <SCORE.INTRA.norm>
-0.114048

>  <SCORE.RESTR>
0

>  <SCORE.RESTR.CAVITY>
0

>  <SCORE.RESTR.norm>
0

>  <SCORE.SYSTEM>
0

>  <SCORE.SYSTEM.CONST>
0

>  <SCORE.SYSTEM.DIHEDRAL>
0

>  <SCORE.SYSTEM.SOLV>
0

>  <SCORE.SYSTEM.norm>
0

>  <SCORE.heavy>
22

>  <SCORE.norm>
-0.160047

>  <RMSD>
34.232

$$$$
lig.pdb
 OpenBabel11021811523D
libRbt.so/2013.1/901 2013/11/27
 22 23  0  0  0  0  0  0  0  0999 V2000
  -17.3632    7.5667  -29.5412 C   0  0  1  0  0  0  0  0  0  0  0  0
  -18.6774    5.9955  -31.0229 C   0  0  1  0  0  0  0  0  0  0  0  0
  -20.1348    6.3212  -30.4689 C   0  0  1  0  0  0  0  0  0  0  0  0
  -21.1864    5.9578  -31.6123 C   0  0  2  0  0  0  0  0  0  0  0  0
  -16.1515    7.4659  -28.5354 C   0  0  1  0  0  0  0  0  0  0  0  0
  -16.5940    6.5957  -27.3424 C   0  0  2  0  0  0  0  0  0  0  0  0
  -17.7834    7.2378  -26.6065 C   0  0  2  0  0  0  0  0  0  0  0  0
  -19.0224    7.4008  -27.5606 C   0  0  1  0  0  0  0  0  0  0  0  0
  -20.2087    8.1000  -26.8363 C   0  0  0  0  0  0  0  0  0  0  0  0
  -20.9096    6.8884  -32.9005 C   0  0  1  0  0  0  0  0  0  0  0  0
  -19.4306    6.5335  -33.4301 C   0  0  0  0  0  0  0  0  0  0  0  0
  -18.3587    6.8526  -32.2891 C   0  0  2  0  0  0  0  0  0  0  0  0
  -17.4019    8.5573  -26.0901 F   0  0  0  0  0  0  0  0  0  0  0  0
  -14.9832    6.8528  -29.2787 N   0  0  0  0  0  0  0  0  0  0  0  0
  -20.7183    7.3995  -25.7191 N   0  0  0  0  0  0  0  0  0  0  0  0
  -21.8674    6.5703  -34.0141 N   0  0  0  0  0  0  0  0  0  0  0  0
  -17.0051    6.5234  -32.7805 N   0  0  0  0  0  0  0  0  0  0  0  0
  -17.7001    6.3114  -30.0431 O   0  0  0  0  0  0  0  0  0  0  0  0
  -20.3732    5.4660  -29.2822 O   0  0  0  0  0  0  0  0  0  0  0  0
  -22.4541    6.2428  -31.0997 O   0  0  0  0  0  0  0  0  0  0  0  0
  -15.7101    6.5255  -26.6096 O   0  0  0  0  0  0  0  0  0  0  0  0
  -18.5347    8.1918  -28.7881 O   0  0  0  0  0  0  0  0  0  0  0  0
  1  5  1  0  0  0  0
  1 18  1  1  0  0  0
  2 18  1  1  0  0  0
  2  3  1  0  0  0  0
  2 12  1  0  0  0  0
  3 19  1  1  0  0  0
  3  4  1  0  0  0  0
  4 20  1  1  0  0  0
  4 10  1  0  0  0  0
  5  6  1  0  0  0  0
  5 14  1  6  0  0  0
  6 21  1  1  0  0  0
  7 13  1  6  0  0  0
  7  6  1  0  0  0  0
  8  9  1  1  0  0  0
  8  7  1  0  0  0  0
 10 16  1  6  0  0  0
 11 10  1  0  0  0  0
 12 17  1  6  0  0  0
 12 11  1  0  0  0  0
 15  9  1  0  0  0  0
 22  8  1  0  0  0  0
 22  1  1  0  0  0  0
M  END
>  <CHROM.1>
-176.12731833,-66.04653033,-61.72866420,-18.74239683,6.90661935,-29.55350354
-1.04982051,-0.01849680,-1.74446890

>  <Name>
lig.pdb

>  <RI>
0

>  <Rbt.Current_Directory>
/home/itssahil/PROJECTS/Mol_Feturizer/New_Systems/rnas/5bws

>  <Rbt.Executable>
rbdock ($Id: //depot/dev/client3/rdock/2013.1/src/exe/rbdock.cxx#4 $)

>  <Rbt.Library>
libRbt.so (2013.1, Build901 2013/11/27)

>  <Rbt.Parameter_File>
/export/apps/rDock/src/rDock_2013.1_src/data/scripts/dock_solv.prm

>  <Rbt.Receptor>
prm/blind_docking_60.prm

>  <SCORE>
-1.87464

>  <SCORE.INTER>
0.748417

>  <SCORE.INTER.CONST>
1

>  <SCORE.INTER.POLAR>
0

>  <SCORE.INTER.ROT>
3

>  <SCORE.INTER.SOLV>
12.4414

>  <SCORE.INTER.VDW>
-9.24819

>  <SCORE.INTER.norm>
0.034019

>  <SCORE.INTRA>
-2.62306

>  <SCORE.INTRA.DIHEDRAL>
-5.84153

>  <SCORE.INTRA.DIHEDRAL.0>
6.10773

>  <SCORE.INTRA.POLAR>
0

>  <SCORE.INTRA.POLAR.0>
0

>  <SCORE.INTRA.REPUL>
0

>  <SCORE.INTRA.REPUL.0>
0

>  <SCORE.INTRA.SOLV>
0.319106

>  <SCORE.INTRA.SOLV.lig_0>
-71.4024

>  <SCORE.INTRA.VDW>
0.13815

>  <SCORE.INTRA.VDW.0>
-1.86213

>  <SCORE.INTRA.norm>
-0.11923

>  <SCORE.RESTR>
0

>  <SCORE.RESTR.CAVITY>
0

>  <SCORE.RESTR.norm>
0

>  <SCORE.SYSTEM>
0

>  <SCORE.SYSTEM.CONST>
0

>  <SCORE.SYSTEM.DIHEDRAL>
0

>  <SCORE.SYSTEM.SOLV>
0

>  <SCORE.SYSTEM.norm>
0

>  <SCORE.heavy>
22

>  <SCORE.norm>
-0.0852111

>  <RMSD>
34.267

$$$$
lig.pdb
 OpenBabel11021811523D
libRbt.so/2013.1/901 2013/11/27
 22 23  0  0  0  0  0  0  0  0999 V2000
  -17.2612   -7.0165  -29.2703 C   0  0  1  0  0  0  0  0  0  0  0  0
  -19.2600   -7.0417  -30.8181 C   0  0  1  0  0  0  0  0  0  0  0  0
  -19.2370   -8.5338  -31.3749 C   0  0  1  0  0  0  0  0  0  0  0  0
  -20.7261   -8.9236  -31.7941 C   0  0  2  0  0  0  0  0  0  0  0  0
  -15.7869   -6.4547  -29.2962 C   0  0  1  0  0  0  0  0  0  0  0  0
  -15.0573   -7.0876  -30.4977 C   0  0  2  0  0  0  0  0  0  0  0  0
  -14.9908   -8.6185  -30.3547 C   0  0  2  0  0  0  0  0  0  0  0  0
  -16.4305   -9.2471  -30.2887 C   0  0  1  0  0  0  0  0  0  0  0  0
  -16.3682  -10.7888  -30.0885 C   0  0  0  0  0  0  0  0  0  0  0  0
  -21.6717   -8.8801  -30.4879 C   0  0  1  0  0  0  0  0  0  0  0  0
  -21.6687   -7.3609  -29.9534 C   0  0  0  0  0  0  0  0  0  0  0  0
  -20.1808   -6.9306  -29.5614 C   0  0  2  0  0  0  0  0  0  0  0  0
  -14.2568   -8.9781  -29.1360 F   0  0  0  0  0  0  0  0  0  0  0  0
  -15.8683   -4.9472  -29.4155 N   0  0  0  0  0  0  0  0  0  0  0  0
  -15.8353  -11.2054  -28.8471 N   0  0  0  0  0  0  0  0  0  0  0  0
  -23.0925   -9.2246  -30.8363 N   0  0  0  0  0  0  0  0  0  0  0  0
  -20.1849   -5.5361  -29.0738 N   0  0  0  0  0  0  0  0  0  0  0  0
  -17.9553   -6.6480  -30.4208 O   0  0  0  0  0  0  0  0  0  0  0  0
  -18.3595   -8.5615  -32.5689 O   0  0  0  0  0  0  0  0  0  0  0  0
  -20.6777  -10.2298  -32.2866 O   0  0  0  0  0  0  0  0  0  0  0  0
  -13.9822   -6.6785  -30.5133 O   0  0  0  0  0  0  0  0  0  0  0  0
  -17.1721   -8.5350  -29.1428 O   0  0  0  0  0  0  0  0  0  0  0  0
  1  5  1  0  0  0  0
  1 18  1  6  0  0  0
  2 18  1  1  0  0  0
  2  3  1  0  0  0  0
  2 12  1  0  0  0  0
  3 19  1  6  0  0  0
  3  4  1  0  0  0  0
  4 20  1  1  0  0  0
  4 10  1  0  0  0  0
  5  6  1  0  0  0  0
  5 14  1  6  0  0  0
  6 21  1  1  0  0  0
  7 13  1  1  0  0  0
  7  6  1  0  0  0  0
  8  9  1  1  0  0  0
  8  7  1  0  0  0  0
 10 16  1  6  0  0  0
 11 10  1  0  0  0  0
 12 17  1  6  0  0  0
 12 11  1  0  0  0  0
 15  9  1  0  0  0  0
 22  8  1  0  0  0  0
 22  1  1  0  0  0  0
M  END
>  <CHROM.1>
174.62922210,-76.05268009,65.99075444,-17.92785689,-8.08772182,-30.27529206
0.12109928,-0.16141797,0.22023440

>  <Name>
lig.pdb

>  <RI>
0

>  <Rbt.Current_Directory>
/home/itssahil/PROJECTS/Mol_Feturizer/New_Systems/rnas/5bws

>  <Rbt.Executable>
rbdock ($Id: //depot/dev/client3/rdock/2013.1/src/exe/rbdock.cxx#4 $)

>  <Rbt.Library>
libRbt.so (2013.1, Build901 2013/11/27)

>  <Rbt.Parameter_File>
/export/apps/rDock/src/rDock_2013.1_src/data/scripts/dock_solv.prm

>  <Rbt.Receptor>
prm/blind_docking_80.prm

>  <SCORE>
-6.69921

>  <SCORE.INTER>
-4.96149

>  <SCORE.INTER.CONST>
1

>  <SCORE.INTER.POLAR>
0

>  <SCORE.INTER.ROT>
3

>  <SCORE.INTER.SOLV>
20.9113

>  <SCORE.INTER.VDW>
-15.8781

>  <SCORE.INTER.norm>
-0.225522

>  <SCORE.INTRA>
-1.73772

>  <SCORE.INTRA.DIHEDRAL>
-4.63752

>  <SCORE.INTRA.DIHEDRAL.0>
6.10773

>  <SCORE.INTRA.POLAR>
0

>  <SCORE.INTRA.POLAR.0>
0

>  <SCORE.INTRA.REPUL>
0

>  <SCORE.INTRA.REPUL.0>
0

>  <SCORE.INTRA.SOLV>
0.918158

>  <SCORE.INTRA.SOLV.lig_0>
-71.4024

>  <SCORE.INTRA.VDW>
0.121967

>  <SCORE.INTRA.VDW.0>
-1.86213

>  <SCORE.INTRA.norm>
-0.0789871

>  <SCORE.RESTR>
0

>  <SCORE.RESTR.CAVITY>
0

>  <SCORE.RESTR.norm>
0

>  <SCORE.SYSTEM>
0

>  <SCORE.SYSTEM.CONST>
0

>  <SCORE.SYSTEM.DIHEDRAL>
0

>  <SCORE.SYSTEM.SOLV>
0

>  <SCORE.SYSTEM.norm>
0

>  <SCORE.heavy>
22

>  <SCORE.norm>
-0.304509

>  <RMSD>
34.373

$$$$
lig.pdb
 OpenBabel11021811523D
libRbt.so/2013.1/901 2013/11/27
 22 23  0  0  0  0  0  0  0  0999 V2000
  -21.9991    5.6066  -28.3572 C   0  0  1  0  0  0  0  0  0  0  0  0
  -22.6290    7.9876  -27.7868 C   0  0  1  0  0  0  0  0  0  0  0  0
  -23.5521    7.7310  -26.5144 C   0  0  1  0  0  0  0  0  0  0  0  0
  -24.5425    8.9732  -26.3688 C   0  0  2  0  0  0  0  0  0  0  0  0
  -20.7052    4.7057  -28.2908 C   0  0  1  0  0  0  0  0  0  0  0  0
  -19.6729    5.2814  -29.2804 C   0  0  2  0  0  0  0  0  0  0  0  0
  -20.2148    5.2468  -30.7204 C   0  0  2  0  0  0  0  0  0  0  0  0
  -21.5285    6.1002  -30.8549 C   0  0  1  0  0  0  0  0  0  0  0  0
  -22.1106    6.0232  -32.2957 C   0  0  0  0  0  0  0  0  0  0  0  0
  -23.6785   10.3111  -26.1120 C   0  0  1  0  0  0  0  0  0  0  0  0
  -22.7588   10.5363  -27.4147 C   0  0  0  0  0  0  0  0  0  0  0  0
  -21.7815    9.2871  -27.6068 C   0  0  2  0  0  0  0  0  0  0  0  0
  -20.5019    3.8633  -31.1162 F   0  0  0  0  0  0  0  0  0  0  0  0
  -20.1959    4.7321  -26.8648 N   0  0  0  0  0  0  0  0  0  0  0  0
  -23.2072    6.8814  -32.5399 N   0  0  0  0  0  0  0  0  0  0  0  0
  -24.5694   11.5148  -25.9847 N   0  0  0  0  0  0  0  0  0  0  0  0
  -20.9422    9.4993  -28.8039 N   0  0  0  0  0  0  0  0  0  0  0  0
  -21.7192    6.9111  -27.9559 O   0  0  0  0  0  0  0  0  0  0  0  0
  -24.3339    6.4961  -26.7598 O   0  0  0  0  0  0  0  0  0  0  0  0
  -25.3455    8.7203  -25.2543 O   0  0  0  0  0  0  0  0  0  0  0  0
  -18.7315    4.6219  -29.2320 O   0  0  0  0  0  0  0  0  0  0  0  0
  -22.5111    5.5699  -29.7948 O   0  0  0  0  0  0  0  0  0  0  0  0
  1  5  1  0  0  0  0
  1 18  1  6  0  0  0
  2 18  1  1  0  0  0
  2  3  1  0  0  0  0
  2 12  1  0  0  0  0
  3 19  1  6  0  0  0
  3  4  1  0  0  0  0
  4 20  1  1  0  0  0
  4 10  1  0  0  0  0
  5  6  1  0  0  0  0
  5 14  1  1  0  0  0
  6 21  1  6  0  0  0
  7 13  1  1  0  0  0
  7  6  1  0  0  0  0
  8  9  1  6  0  0  0
  8  7  1  0  0  0  0
 10 16  1  6  0  0  0
 11 10  1  0  0  0  0
 12 17  1  6  0  0  0
 12 11  1  0  0  0  0
 15  9  1  0  0  0  0
 22  8  1  0  0  0  0
 22  1  1  0  0  0  0
M  END
>  <CHROM.1>
-175.08540512,70.32292322,-173.24714689,-22.13651289,7.04552022,-28.48059208
-0.60742574,-0.94214117,1.57423931

>  <Name>
lig.pdb

>  <RI>
0

>  <Rbt.Current_Directory>
/home/itssahil/PROJECTS/Mol_Feturizer/New_Systems/rnas/5bws

>  <Rbt.Executable>
rbdock ($Id: //depot/dev/client3/rdock/2013.1/src/exe/rbdock.cxx#4 $)

>  <Rbt.Library>
libRbt.so (2013.1, Build901 2013/11/27)

>  <Rbt.Parameter_File>
/export/apps/rDock/src/rDock_2013.1_src/data/scripts/dock_solv.prm

>  <Rbt.Receptor>
prm/blind_docking_100.prm

>  <SCORE>
-4.28971

>  <SCORE.INTER>
-1.1024

>  <SCORE.INTER.CONST>
1

>  <SCORE.INTER.POLAR>
0

>  <SCORE.INTER.ROT>
3

>  <SCORE.INTER.SOLV>
15.9685

>  <SCORE.INTER.VDW>
-11.6578

>  <SCORE.INTER.norm>
-0.050109

>  <SCORE.INTRA>
-3.18731

>  <SCORE.INTRA.DIHEDRAL>
-5.31092

>  <SCORE.INTRA.DIHEDRAL.0>
6.10773

>  <SCORE.INTRA.POLAR>
0

>  <SCORE.INTRA.POLAR.0>
0

>  <SCORE.INTRA.REPUL>
0

>  <SCORE.INTRA.REPUL.0>
0

>  <SCORE.INTRA.SOLV>
-1.48363

>  <SCORE.INTRA.SOLV.lig_0>
-71.4024

>  <SCORE.INTRA.VDW>
0.209961

>  <SCORE.INTRA.VDW.0>
-1.86213

>  <SCORE.INTRA.norm>
-0.144878

>  <SCORE.RESTR>
0

>  <SCORE.RESTR.CAVITY>
0

>  <SCORE.RESTR.norm>
0

>  <SCORE.SYSTEM>
0

>  <SCORE.SYSTEM.CONST>
0

>  <SCORE.SYSTEM.DIHEDRAL>
0

>  <SCORE.SYSTEM.SOLV>
0

>  <SCORE.SYSTEM.norm>
0

>  <SCORE.heavy>
22

>  <SCORE.norm>
-0.194987

>  <RMSD>
34.483

$$$$
lig.pdb
 OpenBabel11021811523D
libRbt.so/2013.1/901 2013/11/27
 22 23  0  0  0  0  0  0  0  0999 V2000
  -19.2705  -10.3898  -30.8095 C   0  0  1  0  0  0  0  0  0  0  0  0
  -17.8071   -8.4460  -30.1231 C   0  0  1  0  0  0  0  0  0  0  0  0
  -16.3923   -9.1773  -30.0979 C   0  0  1  0  0  0  0  0  0  0  0  0
  -15.4343   -8.3579  -29.1201 C   0  0  2  0  0  0  0  0  0  0  0  0
  -20.1288  -10.8043  -32.0672 C   0  0  1  0  0  0  0  0  0  0  0  0
  -21.2796   -9.7890  -32.2138 C   0  0  2  0  0  0  0  0  0  0  0  0
  -22.1921   -9.8115  -30.9747 C   0  0  2  0  0  0  0  0  0  0  0  0
  -21.3933   -9.4389  -29.6726 C   0  0  1  0  0  0  0  0  0  0  0  0
  -22.2991   -9.5143  -28.4098 C   0  0  0  0  0  0  0  0  0  0  0  0
  -15.2296   -6.8689  -29.7056 C   0  0  1  0  0  0  0  0  0  0  0  0
  -16.6772   -6.1633  -29.7179 C   0  0  0  0  0  0  0  0  0  0  0  0
  -17.6698   -6.9863  -30.6615 C   0  0  2  0  0  0  0  0  0  0  0  0
  -22.7808  -11.1452  -30.8082 F   0  0  0  0  0  0  0  0  0  0  0  0
  -19.2139  -10.7986  -33.2739 N   0  0  0  0  0  0  0  0  0  0  0  0
  -23.4051   -8.6338  -28.4189 N   0  0  0  0  0  0  0  0  0  0  0  0
  -14.3452   -6.0507  -28.8072 N   0  0  0  0  0  0  0  0  0  0  0  0
  -18.9957   -6.3350  -30.6669 N   0  0  0  0  0  0  0  0  0  0  0  0
  -18.6971   -9.1329  -30.9897 O   0  0  0  0  0  0  0  0  0  0  0  0
  -16.5956  -10.5455  -29.5657 O   0  0  0  0  0  0  0  0  0  0  0  0
  -14.2061   -9.0231  -29.1080 O   0  0  0  0  0  0  0  0  0  0  0  0
  -21.9052  -10.0943  -33.1296 O   0  0  0  0  0  0  0  0  0  0  0  0
  -20.1967  -10.4045  -29.5962 O   0  0  0  0  0  0  0  0  0  0  0  0
  1  5  1  0  0  0  0
  1 18  1  6  0  0  0
  2 18  1  6  0  0  0
  2  3  1  0  0  0  0
  2 12  1  0  0  0  0
  3 19  1  1  0  0  0
  3  4  1  0  0  0  0
  4 20  1  6  0  0  0
  4 10  1  0  0  0  0
  5  6  1  0  0  0  0
  5 14  1  6  0  0  0
  6 21  1  6  0  0  0
  7 13  1  1  0  0  0
  7  6  1  0  0  0  0
  8  9  1  1  0  0  0
  8  7  1  0  0  0  0
 10 16  1  1  0  0  0
 11 10  1  0  0  0  0
 12 17  1  1  0  0  0
 12 11  1  0  0  0  0
 15  9  1  0  0  0  0
 22  8  1  0  0  0  0
 22  1  1  0  0  0  0
M  END
>  <CHROM.1>
-176.43592775,69.20078087,-61.09079699,-18.96448544,-9.05655551,-30.36571414
-2.74348529,0.11512521,0.76830222

>  <Name>
lig.pdb

>  <RI>
0

>  <Rbt.Current_Directory>
/home/itssahil/PROJECTS/Mol_Feturizer/New_Systems/rnas/5bws

>  <Rbt.Executable>
rbdock ($Id: //depot/dev/client3/rdock/2013.1/src/exe/rbdock.cxx#4 $)

>  <Rbt.Library>
libRbt.so (2013.1, Build901 2013/11/27)

>  <Rbt.Parameter_File>
/export/apps/rDock/src/rDock_2013.1_src/data/scripts/dock_solv.prm

>  <Rbt.Receptor>
prm/blind_docking_80.prm

>  <SCORE>
-7.14611

>  <SCORE.INTER>
-4.14507

>  <SCORE.INTER.CONST>
1

>  <SCORE.INTER.POLAR>
0

>  <SCORE.INTER.ROT>
3

>  <SCORE.INTER.SOLV>
20.9107

>  <SCORE.INTER.VDW>
-15.3336

>  <SCORE.INTER.norm>
-0.188412

>  <SCORE.INTRA>
-3.00104

>  <SCORE.INTRA.DIHEDRAL>
-5.62865

>  <SCORE.INTRA.DIHEDRAL.0>
6.10773

>  <SCORE.INTRA.POLAR>
0

>  <SCORE.INTRA.POLAR.0>
0

>  <SCORE.INTRA.REPUL>
0

>  <SCORE.INTRA.REPUL.0>
0

>  <SCORE.INTRA.SOLV>
-0.927108

>  <SCORE.INTRA.SOLV.lig_0>
-71.4024

>  <SCORE.INTRA.VDW>
0.276836

>  <SCORE.INTRA.VDW.0>
-1.86213

>  <SCORE.INTRA.norm>
-0.136411

>  <SCORE.RESTR>
0

>  <SCORE.RESTR.CAVITY>
0

>  <SCORE.RESTR.norm>
0

>  <SCORE.SYSTEM>
0

>  <SCORE.SYSTEM.CONST>
0

>  <SCORE.SYSTEM.DIHEDRAL>
0

>  <SCORE.SYSTEM.SOLV>
0

>  <SCORE.SYSTEM.norm>
0

>  <SCORE.heavy>
22

>  <SCORE.norm>
-0.324823

>  <RMSD>
34.726

$$$$
lig.pdb
 OpenBabel11021811523D
libRbt.so/2013.1/901 2013/11/27
 22 23  0  0  0  0  0  0  0  0999 V2000
  -21.7343    5.5201  -28.9022 C   0  0  1  0  0  0  0  0  0  0  0  0
  -22.4550    7.8250  -28.1545 C   0  0  1  0  0  0  0  0  0  0  0  0
  -23.3106    7.4235  -26.8724 C   0  0  1  0  0  0  0  0  0  0  0  0
  -24.3546    8.5970  -26.5926 C   0  0  2  0  0  0  0  0  0  0  0  0
  -20.3965    4.6839  -28.9387 C   0  0  1  0  0  0  0  0  0  0  0  0
  -19.4379    5.3627  -29.9370 C   0  0  2  0  0  0  0  0  0  0  0  0
  -20.0402    5.3767  -31.3531 C   0  0  2  0  0  0  0  0  0  0  0  0
  -21.3985    6.1681  -31.3862 C   0  0  1  0  0  0  0  0  0  0  0  0
  -22.0389    6.1377  -32.8039 C   0  0  0  0  0  0  0  0  0  0  0  0
  -23.5482    9.9549  -26.2641 C   0  0  1  0  0  0  0  0  0  0  0  0
  -22.6956   10.3274  -27.5786 C   0  0  0  0  0  0  0  0  0  0  0  0
  -21.6663    9.1498  -27.9049 C   0  0  2  0  0  0  0  0  0  0  0  0
  -20.2770    4.0032  -31.8121 F   0  0  0  0  0  0  0  0  0  0  0  0
  -19.8270    4.6608  -27.5357 N   0  0  0  0  0  0  0  0  0  0  0  0
  -21.2782    6.7717  -33.8128 N   0  0  0  0  0  0  0  0  0  0  0  0
  -24.4916   11.0967  -26.0093 N   0  0  0  0  0  0  0  0  0  0  0  0
  -20.8890    9.4969  -29.1122 N   0  0  0  0  0  0  0  0  0  0  0  0
  -21.5007    6.8141  -28.4416 O   0  0  0  0  0  0  0  0  0  0  0  0
  -24.0398    6.1716  -27.1846 O   0  0  0  0  0  0  0  0  0  0  0  0
  -25.0971    8.2175  -25.4721 O   0  0  0  0  0  0  0  0  0  0  0  0
  -18.4644    4.7503  -29.9637 O   0  0  0  0  0  0  0  0  0  0  0  0
  -22.3066    5.5334  -30.3172 O   0  0  0  0  0  0  0  0  0  0  0  0
  1  5  1  0  0  0  0
  1 18  1  6  0  0  0
  2 18  1  1  0  0  0
  2  3  1  0  0  0  0
  2 12  1  0  0  0  0
  3 19  1  6  0  0  0
  3  4  1  0  0  0  0
  4 20  1  1  0  0  0
  4 10  1  0  0  0  0
  5  6  1  0  0  0  0
  5 14  1  1  0  0  0
  6 21  1  6  0  0  0
  7 13  1  1  0  0  0
  7  6  1  0  0  0  0
  8  9  1  6  0  0  0
  8  7  1  0  0  0  0
 10 16  1  6  0  0  0
 11 10  1  0  0  0  0
 12 17  1  6  0  0  0
 12 11  1  0  0  0  0
 15  9  1  0  0  0  0
 22  8  1  0  0  0  0
 22  1  1  0  0  0  0
M  END
>  <CHROM.1>
-173.89963711,68.58100112,-63.47147317,-21.86373807,6.93178925,-28.95977181
-0.38446820,-1.01500112,1.98467209

>  <Name>
lig.pdb

>  <RI>
0

>  <Rbt.Current_Directory>
/home/itssahil/PROJECTS/Mol_Feturizer/New_Systems/rnas/5bws

>  <Rbt.Executable>
rbdock ($Id: //depot/dev/client3/rdock/2013.1/src/exe/rbdock.cxx#4 $)

>  <Rbt.Library>
libRbt.so (2013.1, Build901 2013/11/27)

>  <Rbt.Parameter_File>
/export/apps/rDock/src/rDock_2013.1_src/data/scripts/dock_solv.prm

>  <Rbt.Receptor>
prm/blind_docking_80.prm

>  <SCORE>
-4.98326

>  <SCORE.INTER>
-2.02013

>  <SCORE.INTER.CONST>
1

>  <SCORE.INTER.POLAR>
0

>  <SCORE.INTER.ROT>
3

>  <SCORE.INTER.SOLV>
11.0781

>  <SCORE.INTER.VDW>
-10.6395

>  <SCORE.INTER.norm>
-0.0918242

>  <SCORE.INTRA>
-2.96313

>  <SCORE.INTRA.DIHEDRAL>
-5.5221

>  <SCORE.INTRA.DIHEDRAL.0>
6.10773

>  <SCORE.INTRA.POLAR>
0

>  <SCORE.INTRA.POLAR.0>
0

>  <SCORE.INTRA.REPUL>
0

>  <SCORE.INTRA.REPUL.0>
0

>  <SCORE.INTRA.SOLV>
-0.980914

>  <SCORE.INTRA.SOLV.lig_0>
-71.4024

>  <SCORE.INTRA.VDW>
0.288375

>  <SCORE.INTRA.VDW.0>
-1.86213

>  <SCORE.INTRA.norm>
-0.134688

>  <SCORE.RESTR>
0

>  <SCORE.RESTR.CAVITY>
0

>  <SCORE.RESTR.norm>
0

>  <SCORE.SYSTEM>
0

>  <SCORE.SYSTEM.CONST>
0

>  <SCORE.SYSTEM.DIHEDRAL>
0

>  <SCORE.SYSTEM.SOLV>
0

>  <SCORE.SYSTEM.norm>
0

>  <SCORE.heavy>
22

>  <SCORE.norm>
-0.226512

>  <RMSD>
34.734

$$$$
lig.pdb
 OpenBabel11021811523D
libRbt.so/2013.1/901 2013/11/27
 22 23  0  0  0  0  0  0  0  0999 V2000
  -15.8549    5.0105  -31.1481 C   0  0  1  0  0  0  0  0  0  0  0  0
  -18.3016    4.8756  -30.5266 C   0  0  1  0  0  0  0  0  0  0  0  0
  -18.2802    5.2738  -28.9845 C   0  0  1  0  0  0  0  0  0  0  0  0
  -19.5642    4.6265  -28.2932 C   0  0  2  0  0  0  0  0  0  0  0  0
  -14.8828    6.1327  -31.6829 C   0  0  1  0  0  0  0  0  0  0  0  0
  -15.2323    6.4009  -33.1601 C   0  0  2  0  0  0  0  0  0  0  0  0
  -15.0269    5.1351  -34.0111 C   0  0  2  0  0  0  0  0  0  0  0  0
  -15.9436    3.9590  -33.5123 C   0  0  1  0  0  0  0  0  0  0  0  0
  -15.6991    2.6608  -34.3344 C   0  0  0  0  0  0  0  0  0  0  0  0
  -20.8943    5.2467  -28.9628 C   0  0  1  0  0  0  0  0  0  0  0  0
  -20.8802    4.8264  -30.5174 C   0  0  0  0  0  0  0  0  0  0  0  0
  -19.5825    5.4306  -31.2271 C   0  0  2  0  0  0  0  0  0  0  0  0
  -13.6247    4.7078  -33.9458 F   0  0  0  0  0  0  0  0  0  0  0  0
  -15.0804    7.3639  -30.8235 N   0  0  0  0  0  0  0  0  0  0  0  0
  -15.9898    2.7678  -35.7137 N   0  0  0  0  0  0  0  0  0  0  0  0
  -22.1338    4.6532  -28.3543 N   0  0  0  0  0  0  0  0  0  0  0  0
  -19.5749    5.0401  -32.6518 N   0  0  0  0  0  0  0  0  0  0  0  0
  -17.1805    5.4370  -31.1921 O   0  0  0  0  0  0  0  0  0  0  0  0
  -17.0506    4.7050  -28.3837 O   0  0  0  0  0  0  0  0  0  0  0  0
  -19.5174    4.9816  -26.9431 O   0  0  0  0  0  0  0  0  0  0  0  0
  -14.5212    7.2175  -33.5485 O   0  0  0  0  0  0  0  0  0  0  0  0
  -15.6456    3.7707  -32.0137 O   0  0  0  0  0  0  0  0  0  0  0  0
  1  5  1  0  0  0  0
  1 18  1  6  0  0  0
  2 18  1  6  0  0  0
  2  3  1  0  0  0  0
  2 12  1  0  0  0  0
  3 19  1  1  0  0  0
  3  4  1  0  0  0  0
  4 20  1  1  0  0  0
  4 10  1  0  0  0  0
  5  6  1  0  0  0  0
  5 14  1  1  0  0  0
  6 21  1  6  0  0  0
  7 13  1  1  0  0  0
  7  6  1  0  0  0  0
  8  9  1  6  0  0  0
  8  7  1  0  0  0  0
 10 16  1  1  0  0  0
 11 10  1  0  0  0  0
 12 17  1  6  0  0  0
 12 11  1  0  0  0  0
 15  9  1  0  0  0  0
 22  8  1  0  0  0  0
 22  1  1  0  0  0  0
M  END
>  <CHROM.1>
-163.73046281,76.01278996,-61.78220491,-17.21716233,5.00563646,-31.37839146
-0.67948870,0.38777025,1.11228102

>  <Name>
lig.pdb

>  <RI>
0

>  <Rbt.Current_Directory>
/home/itssahil/PROJECTS/Mol_Feturizer/New_Systems/rnas/5bws

>  <Rbt.Executable>
rbdock ($Id: //depot/dev/client3/rdock/2013.1/src/exe/rbdock.cxx#4 $)

>  <Rbt.Library>
libRbt.so (2013.1, Build901 2013/11/27)

>  <Rbt.Parameter_File>
/export/apps/rDock/src/rDock_2013.1_src/data/scripts/dock_solv.prm

>  <Rbt.Receptor>
prm/blind_docking_60.prm

>  <SCORE>
-5.11506

>  <SCORE.INTER>
-3.22563

>  <SCORE.INTER.CONST>
1

>  <SCORE.INTER.POLAR>
0

>  <SCORE.INTER.ROT>
3

>  <SCORE.INTER.SOLV>
15.584

>  <SCORE.INTER.VDW>
-12.9451

>  <SCORE.INTER.norm>
-0.146619

>  <SCORE.INTRA>
-1.88944

>  <SCORE.INTRA.DIHEDRAL>
-3.6722

>  <SCORE.INTRA.DIHEDRAL.0>
6.10773

>  <SCORE.INTRA.POLAR>
0

>  <SCORE.INTRA.POLAR.0>
0

>  <SCORE.INTRA.REPUL>
0

>  <SCORE.INTRA.REPUL.0>
0

>  <SCORE.INTRA.SOLV>
-0.494931

>  <SCORE.INTRA.SOLV.lig_0>
-71.4024

>  <SCORE.INTRA.VDW>
0.194126

>  <SCORE.INTRA.VDW.0>
-1.86213

>  <SCORE.INTRA.norm>
-0.0858836

>  <SCORE.RESTR>
0

>  <SCORE.RESTR.CAVITY>
0

>  <SCORE.RESTR.norm>
0

>  <SCORE.SYSTEM>
0

>  <SCORE.SYSTEM.CONST>
0

>  <SCORE.SYSTEM.DIHEDRAL>
0

>  <SCORE.SYSTEM.SOLV>
0

>  <SCORE.SYSTEM.norm>
0

>  <SCORE.heavy>
22

>  <SCORE.norm>
-0.232503

>  <RMSD>
34.756

$$$$
lig.pdb
 OpenBabel11021811523D
libRbt.so/2013.1/901 2013/11/27
 22 23  0  0  0  0  0  0  0  0999 V2000
  -20.4079    6.7816  -29.0407 C   0  0  1  0  0  0  0  0  0  0  0  0
  -21.0117    8.7522  -30.5049 C   0  0  1  0  0  0  0  0  0  0  0  0
  -21.7428    9.6712  -29.4288 C   0  0  1  0  0  0  0  0  0  0  0  0
  -21.6377   11.1841  -29.9240 C   0  0  2  0  0  0  0  0  0  0  0  0
  -20.7797    5.2509  -28.9478 C   0  0  1  0  0  0  0  0  0  0  0  0
  -22.2928    5.1443  -28.6732 C   0  0  2  0  0  0  0  0  0  0  0  0
  -22.6562    5.8139  -27.3361 C   0  0  2  0  0  0  0  0  0  0  0  0
  -22.2816    7.3409  -27.3438 C   0  0  1  0  0  0  0  0  0  0  0  0
  -22.5962    8.0096  -25.9746 C   0  0  0  0  0  0  0  0  0  0  0  0
  -20.0838   11.6122  -29.9903 C   0  0  1  0  0  0  0  0  0  0  0  0
  -19.3789   10.6629  -31.0837 C   0  0  0  0  0  0  0  0  0  0  0  0
  -19.5029    9.1355  -30.6312 C   0  0  2  0  0  0  0  0  0  0  0  0
  -21.9465    5.1540  -26.2343 F   0  0  0  0  0  0  0  0  0  0  0  0
  -20.3972    4.6014  -30.2613 N   0  0  0  0  0  0  0  0  0  0  0  0
  -23.9601    7.9899  -25.6035 N   0  0  0  0  0  0  0  0  0  0  0  0
  -19.9324   13.0286  -30.4694 N   0  0  0  0  0  0  0  0  0  0  0  0
  -18.8561    8.2705  -31.6389 N   0  0  0  0  0  0  0  0  0  0  0  0
  -21.0687    7.3913  -30.1050 O   0  0  0  0  0  0  0  0  0  0  0  0
  -23.1664    9.2629  -29.3724 O   0  0  0  0  0  0  0  0  0  0  0  0
  -22.2928   11.9670  -28.9706 O   0  0  0  0  0  0  0  0  0  0  0  0
  -22.5612    4.0278  -28.6037 O   0  0  0  0  0  0  0  0  0  0  0  0
  -20.7892    7.4285  -27.7117 O   0  0  0  0  0  0  0  0  0  0  0  0
  1  5  1  0  0  0  0
  1 18  1  6  0  0  0
  2 18  1  1  0  0  0
  2  3  1  0  0  0  0
  2 12  1  0  0  0  0
  3 19  1  6  0  0  0
  3  4  1  0  0  0  0
  4 20  1  1  0  0  0
  4 10  1  0  0  0  0
  5  6  1  0  0  0  0
  5 14  1  6  0  0  0
  6 21  1  1  0  0  0
  7 13  1  1  0  0  0
  7  6  1  0  0  0  0
  8  9  1  1  0  0  0
  8  7  1  0  0  0  0
 10 16  1  6  0  0  0
 11 10  1  0  0  0  0
 12 17  1  6  0  0  0
 12 11  1  0  0  0  0
 15  9  1  0  0  0  0
 22  8  1  0  0  0  0
 22  1  1  0  0  0  0
M  END
>  <CHROM.1>
179.07149667,-69.60076529,-61.89695203,-21.36686210,8.06407608,-28.94190782
-1.98245095,0.90342429,-0.10677590

>  <Name>
lig.pdb

>  <RI>
0

>  <Rbt.Current_Directory>
/home/itssahil/PROJECTS/Mol_Feturizer/New_Systems/rnas/5bws

>  <Rbt.Executable>
rbdock ($Id: //depot/dev/client3/rdock/2013.1/src/exe/rbdock.cxx#4 $)

>  <Rbt.Library>
libRbt.so (2013.1, Build901 2013/11/27)

>  <Rbt.Parameter_File>
/export/apps/rDock/src/rDock_2013.1_src/data/scripts/dock_solv.prm

>  <Rbt.Receptor>
prm/blind_docking_40.prm

>  <SCORE>
-5.91717

>  <SCORE.INTER>
-3.31603

>  <SCORE.INTER.CONST>
1

>  <SCORE.INTER.POLAR>
0

>  <SCORE.INTER.ROT>
3

>  <SCORE.INTER.SOLV>
18.7128

>  <SCORE.INTER.VDW>
-14.0483

>  <SCORE.INTER.norm>
-0.150729

>  <SCORE.INTRA>
-2.60114

>  <SCORE.INTRA.DIHEDRAL>
-5.6425

>  <SCORE.INTRA.DIHEDRAL.0>
6.10773

>  <SCORE.INTRA.POLAR>
0

>  <SCORE.INTRA.POLAR.0>
0

>  <SCORE.INTRA.REPUL>
0

>  <SCORE.INTRA.REPUL.0>
0

>  <SCORE.INTRA.SOLV>
0.10493

>  <SCORE.INTRA.SOLV.lig_0>
-71.4024

>  <SCORE.INTRA.VDW>
0.167644

>  <SCORE.INTRA.VDW.0>
-1.86213

>  <SCORE.INTRA.norm>
-0.118234

>  <SCORE.RESTR>
0

>  <SCORE.RESTR.CAVITY>
0

>  <SCORE.RESTR.norm>
0

>  <SCORE.SYSTEM>
0

>  <SCORE.SYSTEM.CONST>
0

>  <SCORE.SYSTEM.DIHEDRAL>
0

>  <SCORE.SYSTEM.SOLV>
0

>  <SCORE.SYSTEM.norm>
0

>  <SCORE.heavy>
22

>  <SCORE.norm>
-0.268962

>  <RMSD>
34.785

$$$$
lig.pdb
 OpenBabel11021811523D
libRbt.so/2013.1/901 2013/11/27
 22 23  0  0  0  0  0  0  0  0999 V2000
  -17.0219   -8.8689  -29.4409 C   0  0  1  0  0  0  0  0  0  0  0  0
  -18.6628   -8.6993  -31.3566 C   0  0  1  0  0  0  0  0  0  0  0  0
  -19.0646  -10.2406  -31.3640 C   0  0  1  0  0  0  0  0  0  0  0  0
  -20.4952  -10.3709  -32.0580 C   0  0  2  0  0  0  0  0  0  0  0  0
  -15.6193   -8.2451  -29.0756 C   0  0  1  0  0  0  0  0  0  0  0  0
  -14.5685   -8.8434  -30.0317 C   0  0  2  0  0  0  0  0  0  0  0  0
  -14.4793  -10.3705  -29.8626 C   0  0  2  0  0  0  0  0  0  0  0  0
  -15.8565  -11.0597  -30.1794 C   0  0  1  0  0  0  0  0  0  0  0  0
  -15.7863  -12.5979  -29.9562 C   0  0  0  0  0  0  0  0  0  0  0  0
  -21.5832   -9.5633  -31.1826 C   0  0  1  0  0  0  0  0  0  0  0  0
  -21.1440   -8.0139  -31.1963 C   0  0  0  0  0  0  0  0  0  0  0  0
  -19.6954   -7.8587  -30.5402 C   0  0  2  0  0  0  0  0  0  0  0  0
  -14.0849  -10.7018  -28.4886 F   0  0  0  0  0  0  0  0  0  0  0  0
  -15.7282   -6.7421  -29.2257 N   0  0  0  0  0  0  0  0  0  0  0  0
  -14.8572  -13.2755  -30.7784 N   0  0  0  0  0  0  0  0  0  0  0  0
  -22.9477   -9.6428  -31.8074 N   0  0  0  0  0  0  0  0  0  0  0  0
  -19.2981   -6.4360  -30.5575 N   0  0  0  0  0  0  0  0  0  0  0  0
  -17.3966   -8.5272  -30.7386 O   0  0  0  0  0  0  0  0  0  0  0  0
  -18.0539  -10.9715  -32.1644 O   0  0  0  0  0  0  0  0  0  0  0  0
  -20.8200  -11.7294  -32.0606 O   0  0  0  0  0  0  0  0  0  0  0  0
  -13.5466   -8.3891  -29.7621 O   0  0  0  0  0  0  0  0  0  0  0  0
  -16.9073  -10.3827  -29.2808 O   0  0  0  0  0  0  0  0  0  0  0  0
  1  5  1  0  0  0  0
  1 18  1  6  0  0  0
  2 18  1  1  0  0  0
  2  3  1  0  0  0  0
  2 12  1  0  0  0  0
  3 19  1  6  0  0  0
  3  4  1  0  0  0  0
  4 20  1  1  0  0  0
  4 10  1  0  0  0  0
  5  6  1  0  0  0  0
  5 14  1  6  0  0  0
  6 21  1  1  0  0  0
  7 13  1  1  0  0  0
  7  6  1  0  0  0  0
  8  9  1  1  0  0  0
  8  7  1  0  0  0  0
 10 16  1  6  0  0  0
 11 10  1  0  0  0  0
 12 17  1  6  0  0  0
 12 11  1  0  0  0  0
 15  9  1  0  0  0  0
 22  8  1  0  0  0  0
 22  1  1  0  0  0  0
M  END
>  <CHROM.1>
-168.63058045,-59.34541315,-61.61769726,-17.55134831,-9.65106699,-30.48209537
-0.03041398,-0.31698501,0.20714566

>  <Name>
lig.pdb

>  <RI>
0

>  <Rbt.Current_Directory>
/home/itssahil/PROJECTS/Mol_Feturizer/New_Systems/rnas/5bws

>  <Rbt.Executable>
rbdock ($Id: //depot/dev/client3/rdock/2013.1/src/exe/rbdock.cxx#4 $)

>  <Rbt.Library>
libRbt.so (2013.1, Build901 2013/11/27)

>  <Rbt.Parameter_File>
/export/apps/rDock/src/rDock_2013.1_src/data/scripts/dock_solv.prm

>  <Rbt.Receptor>
prm/blind_docking_80.prm

>  <SCORE>
-5.86016

>  <SCORE.INTER>
-3.56383

>  <SCORE.INTER.CONST>
1

>  <SCORE.INTER.POLAR>
0

>  <SCORE.INTER.ROT>
3

>  <SCORE.INTER.SOLV>
17.1764

>  <SCORE.INTER.VDW>
-13.7013

>  <SCORE.INTER.norm>
-0.161992

>  <SCORE.INTRA>
-2.29634

>  <SCORE.INTRA.DIHEDRAL>
-5.47415

>  <SCORE.INTRA.DIHEDRAL.0>
6.10773

>  <SCORE.INTRA.POLAR>
0

>  <SCORE.INTRA.POLAR.0>
0

>  <SCORE.INTRA.REPUL>
0

>  <SCORE.INTRA.REPUL.0>
0

>  <SCORE.INTRA.SOLV>
0.62463

>  <SCORE.INTRA.SOLV.lig_0>
-71.4024

>  <SCORE.INTRA.VDW>
0.128424

>  <SCORE.INTRA.VDW.0>
-1.86213

>  <SCORE.INTRA.norm>
-0.104379

>  <SCORE.RESTR>
0

>  <SCORE.RESTR.CAVITY>
0

>  <SCORE.RESTR.norm>
0

>  <SCORE.SYSTEM>
0

>  <SCORE.SYSTEM.CONST>
0

>  <SCORE.SYSTEM.DIHEDRAL>
0

>  <SCORE.SYSTEM.SOLV>
0

>  <SCORE.SYSTEM.norm>
0

>  <SCORE.heavy>
22

>  <SCORE.norm>
-0.266371

>  <RMSD>
34.805

$$$$
lig.pdb
 OpenBabel11021811523D
libRbt.so/2013.1/901 2013/11/27
 22 23  0  0  0  0  0  0  0  0999 V2000
  -21.6394    6.3549  -29.3265 C   0  0  1  0  0  0  0  0  0  0  0  0
  -20.6441    8.5718  -28.6295 C   0  0  1  0  0  0  0  0  0  0  0  0
  -19.9705    8.9299  -30.0277 C   0  0  1  0  0  0  0  0  0  0  0  0
  -19.7842   10.5132  -30.0908 C   0  0  2  0  0  0  0  0  0  0  0  0
  -21.7310    4.8960  -28.7319 C   0  0  1  0  0  0  0  0  0  0  0  0
  -20.3124    4.2928  -28.7296 C   0  0  2  0  0  0  0  0  0  0  0  0
  -19.7537    4.1994  -30.1605 C   0  0  2  0  0  0  0  0  0  0  0  0
  -19.6649    5.6189  -30.8308 C   0  0  1  0  0  0  0  0  0  0  0  0
  -19.1527    5.5235  -32.2969 C   0  0  0  0  0  0  0  0  0  0  0  0
  -21.2332   11.2192  -30.0258 C   0  0  1  0  0  0  0  0  0  0  0  0
  -21.8826   10.8339  -28.6033 C   0  0  0  0  0  0  0  0  0  0  0  0
  -22.0457    9.2480  -28.4973 C   0  0  2  0  0  0  0  0  0  0  0  0
  -20.6130    3.3376  -30.9803 F   0  0  0  0  0  0  0  0  0  0  0  0
  -22.3019    5.0016  -27.3332 N   0  0  0  0  0  0  0  0  0  0  0  0
  -20.0118    4.8331  -33.1823 N   0  0  0  0  0  0  0  0  0  0  0  0
  -21.1083   12.7163  -30.0652 N   0  0  0  0  0  0  0  0  0  0  0  0
  -22.6401    8.9015  -27.1900 N   0  0  0  0  0  0  0  0  0  0  0  0
  -20.8411    7.1698  -28.5266 O   0  0  0  0  0  0  0  0  0  0  0  0
  -18.6447    8.2696  -30.0777 O   0  0  0  0  0  0  0  0  0  0  0  0
  -19.1848   10.8000  -31.3194 O   0  0  0  0  0  0  0  0  0  0  0  0
  -20.3820    3.2287  -28.2979 O   0  0  0  0  0  0  0  0  0  0  0  0
  -21.0702    6.2406  -30.7383 O   0  0  0  0  0  0  0  0  0  0  0  0
  1  5  1  0  0  0  0
  1 18  1  1  0  0  0
  2 18  1  6  0  0  0
  2  3  1  0  0  0  0
  2 12  1  0  0  0  0
  3 19  1  1  0  0  0
  3  4  1  0  0  0  0
  4 20  1  6  0  0  0
  4 10  1  0  0  0  0
  5  6  1  0  0  0  0
  5 14  1  1  0  0  0
  6 21  1  6  0  0  0
  7 13  1  6  0  0  0
  7  6  1  0  0  0  0
  8  9  1  6  0  0  0
  8  7  1  0  0  0  0
 10 16  1  1  0  0  0
 11 10  1  0  0  0  0
 12 17  1  1  0  0  0
 12 11  1  0  0  0  0
 15  9  1  0  0  0  0
 22  8  1  0  0  0  0
 22  1  1  0  0  0  0
M  END
>  <CHROM.1>
-171.72102365,-62.44668680,64.66495838,-20.64259243,7.23378207,-29.74126460
1.47403875,-1.01528260,3.12206749

>  <Name>
lig.pdb

>  <RI>
0

>  <Rbt.Current_Directory>
/home/itssahil/PROJECTS/Mol_Feturizer/New_Systems/rnas/5bws

>  <Rbt.Executable>
rbdock ($Id: //depot/dev/client3/rdock/2013.1/src/exe/rbdock.cxx#4 $)

>  <Rbt.Library>
libRbt.so (2013.1, Build901 2013/11/27)

>  <Rbt.Parameter_File>
/export/apps/rDock/src/rDock_2013.1_src/data/scripts/dock_solv.prm

>  <Rbt.Receptor>
prm/blind_docking_40.prm

>  <SCORE>
-5.33498

>  <SCORE.INTER>
-3.33978

>  <SCORE.INTER.CONST>
1

>  <SCORE.INTER.POLAR>
0

>  <SCORE.INTER.ROT>
3

>  <SCORE.INTER.SOLV>
13.3192

>  <SCORE.INTER.VDW>
-12.2663

>  <SCORE.INTER.norm>
-0.151808

>  <SCORE.INTRA>
-1.9952

>  <SCORE.INTRA.DIHEDRAL>
-5.6647

>  <SCORE.INTRA.DIHEDRAL.0>
6.10773

>  <SCORE.INTRA.POLAR>
0

>  <SCORE.INTRA.POLAR.0>
0

>  <SCORE.INTRA.REPUL>
0

>  <SCORE.INTRA.REPUL.0>
0

>  <SCORE.INTRA.SOLV>
1.52703

>  <SCORE.INTRA.SOLV.lig_0>
-71.4024

>  <SCORE.INTRA.VDW>
0.0736317

>  <SCORE.INTRA.VDW.0>
-1.86213

>  <SCORE.INTRA.norm>
-0.0906909

>  <SCORE.RESTR>
0

>  <SCORE.RESTR.CAVITY>
0

>  <SCORE.RESTR.norm>
0

>  <SCORE.SYSTEM>
0

>  <SCORE.SYSTEM.CONST>
0

>  <SCORE.SYSTEM.DIHEDRAL>
0

>  <SCORE.SYSTEM.SOLV>
0

>  <SCORE.SYSTEM.norm>
0

>  <SCORE.heavy>
22

>  <SCORE.norm>
-0.242499

>  <RMSD>
34.820

$$$$
lig.pdb
 OpenBabel11021811523D
libRbt.so/2013.1/901 2013/11/27
 22 23  0  0  0  0  0  0  0  0999 V2000
  -17.7915    7.7137  -31.7508 C   0  0  1  0  0  0  0  0  0  0  0  0
  -19.5524    8.8876  -30.3679 C   0  0  1  0  0  0  0  0  0  0  0  0
  -19.4532   10.2896  -31.1173 C   0  0  1  0  0  0  0  0  0  0  0  0
  -20.0209   11.4115  -30.1353 C   0  0  2  0  0  0  0  0  0  0  0  0
  -17.7040    6.4333  -32.6690 C   0  0  1  0  0  0  0  0  0  0  0  0
  -17.9631    5.1961  -31.7867 C   0  0  2  0  0  0  0  0  0  0  0  0
  -16.8968    5.0759  -30.6836 C   0  0  2  0  0  0  0  0  0  0  0  0
  -16.9034    6.3377  -29.7455 C   0  0  1  0  0  0  0  0  0  0  0  0
  -15.7901    6.2459  -28.6625 C   0  0  0  0  0  0  0  0  0  0  0  0
  -21.5744   11.1063  -29.8255 C   0  0  1  0  0  0  0  0  0  0  0  0
  -21.6348    9.6844  -29.0717 C   0  0  0  0  0  0  0  0  0  0  0  0
  -21.0361    8.5461  -30.0197 C   0  0  2  0  0  0  0  0  0  0  0  0
  -15.5655    4.9351  -31.2846 F   0  0  0  0  0  0  0  0  0  0  0  0
  -18.7433    6.5754  -33.7613 N   0  0  0  0  0  0  0  0  0  0  0  0
  -15.7425    7.3378  -27.7658 N   0  0  0  0  0  0  0  0  0  0  0  0
  -22.1508   12.1299  -28.8881 N   0  0  0  0  0  0  0  0  0  0  0  0
  -21.0930    7.2453  -29.3219 N   0  0  0  0  0  0  0  0  0  0  0  0
  -19.0665    7.8499  -31.2058 O   0  0  0  0  0  0  0  0  0  0  0  0
  -18.0232   10.5541  -31.4025 O   0  0  0  0  0  0  0  0  0  0  0  0
  -19.9147   12.6297  -30.8104 O   0  0  0  0  0  0  0  0  0  0  0  0
  -17.8966    4.2639  -32.4575 O   0  0  0  0  0  0  0  0  0  0  0  0
  -16.7370    7.5674  -30.6568 O   0  0  0  0  0  0  0  0  0  0  0  0
  1  5  1  0  0  0  0
  1 18  1  1  0  0  0
  2 18  1  6  0  0  0
  2  3  1  0  0  0  0
  2 12  1  0  0  0  0
  3 19  1  1  0  0  0
  3  4  1  0  0  0  0
  4 20  1  6  0  0  0
  4 10  1  0  0  0  0
  5  6  1  0  0  0  0
  5 14  1  6  0  0  0
  6 21  1  6  0  0  0
  7 13  1  6  0  0  0
  7  6  1  0  0  0  0
  8  9  1  1  0  0  0
  8  7  1  0  0  0  0
 10 16  1  1  0  0  0
 11 10  1  0  0  0  0
 12 17  1  1  0  0  0
 12 11  1  0  0  0  0
 15  9  1  0  0  0  0
 22  8  1  0  0  0  0
 22  1  1  0  0  0  0
M  END
>  <CHROM.1>
-177.86444410,60.26686626,-179.17879826,-18.62570001,8.05640196,-30.63504145
0.73095279,0.67323522,-2.32640472

>  <Name>
lig.pdb

>  <RI>
0

>  <Rbt.Current_Directory>
/home/itssahil/PROJECTS/Mol_Feturizer/New_Systems/rnas/5bws

>  <Rbt.Executable>
rbdock ($Id: //depot/dev/client3/rdock/2013.1/src/exe/rbdock.cxx#4 $)

>  <Rbt.Library>
libRbt.so (2013.1, Build901 2013/11/27)

>  <Rbt.Parameter_File>
/export/apps/rDock/src/rDock_2013.1_src/data/scripts/dock_solv.prm

>  <Rbt.Receptor>
prm/blind_docking_40.prm

>  <SCORE>
-6.60361

>  <SCORE.INTER>
-3.17285

>  <SCORE.INTER.CONST>
1

>  <SCORE.INTER.POLAR>
0

>  <SCORE.INTER.ROT>
3

>  <SCORE.INTER.SOLV>
13.1968

>  <SCORE.INTER.VDW>
-12.1142

>  <SCORE.INTER.norm>
-0.14422

>  <SCORE.INTRA>
-3.43077

>  <SCORE.INTRA.DIHEDRAL>
-6.07986

>  <SCORE.INTRA.DIHEDRAL.0>
6.10773

>  <SCORE.INTRA.POLAR>
0

>  <SCORE.INTRA.POLAR.0>
0

>  <SCORE.INTRA.REPUL>
0

>  <SCORE.INTRA.REPUL.0>
0

>  <SCORE.INTRA.SOLV>
-1.67029

>  <SCORE.INTRA.SOLV.lig_0>
-71.4024

>  <SCORE.INTRA.VDW>
0.444309

>  <SCORE.INTRA.VDW.0>
-1.86213

>  <SCORE.INTRA.norm>
-0.155944

>  <SCORE.RESTR>
0

>  <SCORE.RESTR.CAVITY>
0

>  <SCORE.RESTR.norm>
0

>  <SCORE.SYSTEM>
0

>  <SCORE.SYSTEM.CONST>
0

>  <SCORE.SYSTEM.DIHEDRAL>
0

>  <SCORE.SYSTEM.SOLV>
0

>  <SCORE.SYSTEM.norm>
0

>  <SCORE.heavy>
22

>  <SCORE.norm>
-0.300164

>  <RMSD>
35.119

$$$$
lig.pdb
 OpenBabel11021811523D
libRbt.so/2013.1/901 2013/11/27
 22 23  0  0  0  0  0  0  0  0999 V2000
  -20.4436    4.5321  -31.6033 C   0  0  1  0  0  0  0  0  0  0  0  0
  -17.9242    4.5353  -31.8132 C   0  0  1  0  0  0  0  0  0  0  0  0
  -17.8581    3.8653  -33.2567 C   0  0  1  0  0  0  0  0  0  0  0  0
  -16.4133    3.2105  -33.4274 C   0  0  2  0  0  0  0  0  0  0  0  0
  -21.5972    5.6087  -31.6203 C   0  0  1  0  0  0  0  0  0  0  0  0
  -21.4831    6.4491  -30.3330 C   0  0  2  0  0  0  0  0  0  0  0  0
  -21.6609    5.5671  -29.0845 C   0  0  2  0  0  0  0  0  0  0  0  0
  -20.5608    4.4457  -29.0184 C   0  0  1  0  0  0  0  0  0  0  0  0
  -20.7696    3.5173  -27.7874 C   0  0  0  0  0  0  0  0  0  0  0  0
  -15.2946    4.3701  -33.3505 C   0  0  1  0  0  0  0  0  0  0  0  0
  -15.3928    5.0240  -31.8820 C   0  0  0  0  0  0  0  0  0  0  0  0
  -16.8451    5.6552  -31.6692 C   0  0  2  0  0  0  0  0  0  0  0  0
  -22.9855    4.9358  -29.0996 F   0  0  0  0  0  0  0  0  0  0  0  0
  -21.4221    6.4547  -32.8641 N   0  0  0  0  0  0  0  0  0  0  0  0
  -20.6607    4.1606  -26.5332 N   0  0  0  0  0  0  0  0  0  0  0  0
  -13.9117    3.7983  -33.4896 N   0  0  0  0  0  0  0  0  0  0  0  0
  -16.9289    6.2515  -30.3203 N   0  0  0  0  0  0  0  0  0  0  0  0
  -19.1915    5.1431  -31.6139 O   0  0  0  0  0  0  0  0  0  0  0  0
  -18.8949    2.8081  -33.3167 O   0  0  0  0  0  0  0  0  0  0  0  0
  -16.3840    2.6229  -34.6943 O   0  0  0  0  0  0  0  0  0  0  0  0
  -22.3262    7.2316  -30.3465 O   0  0  0  0  0  0  0  0  0  0  0  0
  -20.6300    3.6787  -30.3515 O   0  0  0  0  0  0  0  0  0  0  0  0
  1  5  1  0  0  0  0
  1 18  1  1  0  0  0
  2 18  1  6  0  0  0
  2  3  1  0  0  0  0
  2 12  1  0  0  0  0
  3 19  1  1  0  0  0
  3  4  1  0  0  0  0
  4 20  1  6  0  0  0
  4 10  1  0  0  0  0
  5  6  1  0  0  0  0
  5 14  1  6  0  0  0
  6 21  1  6  0  0  0
  7 13  1  6  0  0  0
  7  6  1  0  0  0  0
  8  9  1  1  0  0  0
  8  7  1  0  0  0  0
 10 16  1  1  0  0  0
 11 10  1  0  0  0  0
 12 17  1  1  0  0  0
 12 11  1  0  0  0  0
 15  9  1  0  0  0  0
 22  8  1  0  0  0  0
 22  1  1  0  0  0  0
M  END
>  <CHROM.1>
-169.25577729,61.56579196,-62.77065373,-19.14915545,4.70778891,-31.23193373
2.57205259,-0.28117097,1.65723588

>  <Name>
lig.pdb

>  <RI>
0

>  <Rbt.Current_Directory>
/home/itssahil/PROJECTS/Mol_Feturizer/New_Systems/rnas/5bws

>  <Rbt.Executable>
rbdock ($Id: //depot/dev/client3/rdock/2013.1/src/exe/rbdock.cxx#4 $)

>  <Rbt.Library>
libRbt.so (2013.1, Build901 2013/11/27)

>  <Rbt.Parameter_File>
/export/apps/rDock/src/rDock_2013.1_src/data/scripts/dock_solv.prm

>  <Rbt.Receptor>
prm/blind_docking_80.prm

>  <SCORE>
-7.01232

>  <SCORE.INTER>
-4.18349

>  <SCORE.INTER.CONST>
1

>  <SCORE.INTER.POLAR>
0

>  <SCORE.INTER.ROT>
3

>  <SCORE.INTER.SOLV>
15.7426

>  <SCORE.INTER.VDW>
-13.6365

>  <SCORE.INTER.norm>
-0.190159

>  <SCORE.INTRA>
-2.82883

>  <SCORE.INTRA.DIHEDRAL>
-5.51027

>  <SCORE.INTRA.DIHEDRAL.0>
6.10773

>  <SCORE.INTRA.POLAR>
0

>  <SCORE.INTRA.POLAR.0>
0

>  <SCORE.INTRA.REPUL>
0

>  <SCORE.INTRA.REPUL.0>
0

>  <SCORE.INTRA.SOLV>
-1.09722

>  <SCORE.INTRA.SOLV.lig_0>
-71.4024

>  <SCORE.INTRA.VDW>
0.474922

>  <SCORE.INTRA.VDW.0>
-1.86213

>  <SCORE.INTRA.norm>
-0.128583

>  <SCORE.RESTR>
0

>  <SCORE.RESTR.CAVITY>
0

>  <SCORE.RESTR.norm>
0

>  <SCORE.SYSTEM>
0

>  <SCORE.SYSTEM.CONST>
0

>  <SCORE.SYSTEM.DIHEDRAL>
0

>  <SCORE.SYSTEM.SOLV>
0

>  <SCORE.SYSTEM.norm>
0

>  <SCORE.heavy>
22

>  <SCORE.norm>
-0.318742

>  <RMSD>
35.190

$$$$
lig.pdb
 OpenBabel11021811523D
libRbt.so/2013.1/901 2013/11/27
 22 23  0  0  0  0  0  0  0  0999 V2000
  -20.3663    7.6056  -31.1883 C   0  0  1  0  0  0  0  0  0  0  0  0
  -18.2006    6.8794  -30.1051 C   0  0  1  0  0  0  0  0  0  0  0  0
  -18.4205    7.2804  -28.5793 C   0  0  1  0  0  0  0  0  0  0  0  0
  -16.9854    7.5072  -27.9204 C   0  0  2  0  0  0  0  0  0  0  0  0
  -21.7501    6.9338  -31.5403 C   0  0  1  0  0  0  0  0  0  0  0  0
  -21.5157    5.9357  -32.6914 C   0  0  2  0  0  0  0  0  0  0  0  0
  -20.9939    6.6581  -33.9461 C   0  0  2  0  0  0  0  0  0  0  0  0
  -19.6277    7.3817  -33.6596 C   0  0  1  0  0  0  0  0  0  0  0  0
  -19.1241    8.1594  -34.9095 C   0  0  0  0  0  0  0  0  0  0  0  0
  -16.1557    6.1248  -27.9710 C   0  0  1  0  0  0  0  0  0  0  0  0
  -15.9551    5.7512  -29.5247 C   0  0  0  0  0  0  0  0  0  0  0  0
  -17.3803    5.5553  -30.2200 C   0  0  2  0  0  0  0  0  0  0  0  0
  -21.9745    7.6516  -34.3983 F   0  0  0  0  0  0  0  0  0  0  0  0
  -22.2611    6.2456  -30.2917 N   0  0  0  0  0  0  0  0  0  0  0  0
  -18.7350    7.3458  -35.9982 N   0  0  0  0  0  0  0  0  0  0  0  0
  -14.7863    6.2930  -27.3751 N   0  0  0  0  0  0  0  0  0  0  0  0
  -17.1892    5.2146  -31.6447 N   0  0  0  0  0  0  0  0  0  0  0  0
  -19.4519    6.6562  -30.7371 O   0  0  0  0  0  0  0  0  0  0  0  0
  -19.1897    8.5467  -28.5470 O   0  0  0  0  0  0  0  0  0  0  0  0
  -17.2053    7.8661  -26.5885 O   0  0  0  0  0  0  0  0  0  0  0  0
  -22.5260    5.4488  -32.9478 O   0  0  0  0  0  0  0  0  0  0  0  0
  -19.8605    8.3030  -32.4484 O   0  0  0  0  0  0  0  0  0  0  0  0
  1  5  1  0  0  0  0
  1 18  1  6  0  0  0
  2 18  1  1  0  0  0
  2  3  1  0  0  0  0
  2 12  1  0  0  0  0
  3 19  1  6  0  0  0
  3  4  1  0  0  0  0
  4 20  1  1  0  0  0
  4 10  1  0  0  0  0
  5  6  1  0  0  0  0
  5 14  1  1  0  0  0
  6 21  1  6  0  0  0
  7 13  1  1  0  0  0
  7  6  1  0  0  0  0
  8  9  1  6  0  0  0
  8  7  1  0  0  0  0
 10 16  1  6  0  0  0
 11 10  1  0  0  0  0
 12 17  1  6  0  0  0
 12 11  1  0  0  0  0
 15  9  1  0  0  0  0
 22  8  1  0  0  0  0
 22  1  1  0  0  0  0
M  END
>  <CHROM.1>
-167.71158268,77.19109141,-67.78971781,-19.13736152,6.90994805,-31.09255122
2.21582314,0.07942192,-1.59214098

>  <Name>
lig.pdb

>  <RI>
0

>  <Rbt.Current_Directory>
/home/itssahil/PROJECTS/Mol_Feturizer/New_Systems/rnas/5bws

>  <Rbt.Executable>
rbdock ($Id: //depot/dev/client3/rdock/2013.1/src/exe/rbdock.cxx#4 $)

>  <Rbt.Library>
libRbt.so (2013.1, Build901 2013/11/27)

>  <Rbt.Parameter_File>
/export/apps/rDock/src/rDock_2013.1_src/data/scripts/dock_solv.prm

>  <Rbt.Receptor>
prm/blind_docking_60.prm

>  <SCORE>
-3.94811

>  <SCORE.INTER>
-1.86563

>  <SCORE.INTER.CONST>
1

>  <SCORE.INTER.POLAR>
0

>  <SCORE.INTER.ROT>
3

>  <SCORE.INTER.SOLV>
14.4812

>  <SCORE.INTER.VDW>
-11.6708

>  <SCORE.INTER.norm>
-0.0848011

>  <SCORE.INTRA>
-2.08249

>  <SCORE.INTRA.DIHEDRAL>
-3.80631

>  <SCORE.INTRA.DIHEDRAL.0>
6.10773

>  <SCORE.INTRA.POLAR>
0

>  <SCORE.INTRA.POLAR.0>
0

>  <SCORE.INTRA.REPUL>
0

>  <SCORE.INTRA.REPUL.0>
0

>  <SCORE.INTRA.SOLV>
-0.67755

>  <SCORE.INTRA.SOLV.lig_0>
-71.4024

>  <SCORE.INTRA.VDW>
0.159443

>  <SCORE.INTRA.VDW.0>
-1.86213

>  <SCORE.INTRA.norm>
-0.0946584

>  <SCORE.RESTR>
0

>  <SCORE.RESTR.CAVITY>
0

>  <SCORE.RESTR.norm>
0

>  <SCORE.SYSTEM>
0

>  <SCORE.SYSTEM.CONST>
0

>  <SCORE.SYSTEM.DIHEDRAL>
0

>  <SCORE.SYSTEM.SOLV>
0

>  <SCORE.SYSTEM.norm>
0

>  <SCORE.heavy>
22

>  <SCORE.norm>
-0.17946

>  <RMSD>
35.227

$$$$
lig.pdb
 OpenBabel11021811523D
libRbt.so/2013.1/901 2013/11/27
 22 23  0  0  0  0  0  0  0  0999 V2000
  -20.4445    4.5310  -31.6009 C   0  0  1  0  0  0  0  0  0  0  0  0
  -17.9260    4.5331  -31.8200 C   0  0  1  0  0  0  0  0  0  0  0  0
  -17.8596    3.8363  -33.2508 C   0  0  1  0  0  0  0  0  0  0  0  0
  -16.4145    3.1792  -33.4095 C   0  0  2  0  0  0  0  0  0  0  0  0
  -21.5944    5.5828  -31.8493 C   0  0  1  0  0  0  0  0  0  0  0  0
  -21.5556    6.6107  -30.7011 C   0  0  2  0  0  0  0  0  0  0  0  0
  -21.8070    5.9281  -29.3449 C   0  0  2  0  0  0  0  0  0  0  0  0
  -20.7134    4.8391  -29.0443 C   0  0  1  0  0  0  0  0  0  0  0  0
  -20.9948    4.1077  -27.7002 C   0  0  0  0  0  0  0  0  0  0  0  0
  -15.2965    4.3408  -33.3544 C   0  0  1  0  0  0  0  0  0  0  0  0
  -15.3949    5.0219  -31.8984 C   0  0  0  0  0  0  0  0  0  0  0  0
  -16.8475    5.6561  -31.6972 C   0  0  2  0  0  0  0  0  0  0  0  0
  -23.1288    5.2908  -29.3404 F   0  0  0  0  0  0  0  0  0  0  0  0
  -21.3460    6.2305  -33.1954 N   0  0  0  0  0  0  0  0  0  0  0  0
  -19.9234    3.3232  -27.2153 N   0  0  0  0  0  0  0  0  0  0  0  0
  -13.9133    3.7674  -33.4831 N   0  0  0  0  0  0  0  0  0  0  0  0
  -16.9315    6.2775  -30.3596 N   0  0  0  0  0  0  0  0  0  0  0  0
  -19.1936    5.1436  -31.6319 O   0  0  0  0  0  0  0  0  0  0  0  0
  -18.8958    2.7774  -33.2908 O   0  0  0  0  0  0  0  0  0  0  0  0
  -16.3850    2.5681  -34.6651 O   0  0  0  0  0  0  0  0  0  0  0  0
  -22.3960    7.3750  -30.8830 O   0  0  0  0  0  0  0  0  0  0  0  0
  -20.7048    3.8771  -30.2463 O   0  0  0  0  0  0  0  0  0  0  0  0
  1  5  1  0  0  0  0
  1 18  1  1  0  0  0
  2 18  1  6  0  0  0
  2  3  1  0  0  0  0
  2 12  1  0  0  0  0
  3 19  1  1  0  0  0
  3  4  1  0  0  0  0
  4 20  1  6  0  0  0
  4 10  1  0  0  0  0
  5  6  1  0  0  0  0
  5 14  1  6  0  0  0
  6 21  1  6  0  0  0
  7 13  1  6  0  0  0
  7  6  1  0  0  0  0
  8  9  1  1  0  0  0
  8  7  1  0  0  0  0
 10 16  1  1  0  0  0
 11 10  1  0  0  0  0
 12 17  1  1  0  0  0
 12 11  1  0  0  0  0
 15  9  1  0  0  0  0
 22  8  1  0  0  0  0
 22  1  1  0  0  0  0
M  END
>  <CHROM.1>
-161.12400977,62.03021912,-167.15932270,-19.15514082,4.75426966,-31.34751442
2.65065952,-0.33726702,1.71756631

>  <Name>
lig.pdb

>  <RI>
0

>  <Rbt.Current_Directory>
/home/itssahil/PROJECTS/Mol_Feturizer/New_Systems/rnas/5bws

>  <Rbt.Executable>
rbdock ($Id: //depot/dev/client3/rdock/2013.1/src/exe/rbdock.cxx#4 $)

>  <Rbt.Library>
libRbt.so (2013.1, Build901 2013/11/27)

>  <Rbt.Parameter_File>
/export/apps/rDock/src/rDock_2013.1_src/data/scripts/dock_solv.prm

>  <Rbt.Receptor>
prm/blind_docking_100.prm

>  <SCORE>
-4.56323

>  <SCORE.INTER>
-2.31617

>  <SCORE.INTER.CONST>
1

>  <SCORE.INTER.POLAR>
0

>  <SCORE.INTER.ROT>
3

>  <SCORE.INTER.SOLV>
19.1552

>  <SCORE.INTER.VDW>
-13.5292

>  <SCORE.INTER.norm>
-0.105281

>  <SCORE.INTRA>
-2.24706

>  <SCORE.INTRA.DIHEDRAL>
-3.89179

>  <SCORE.INTRA.DIHEDRAL.0>
6.10773

>  <SCORE.INTRA.POLAR>
0

>  <SCORE.INTRA.POLAR.0>
0

>  <SCORE.INTRA.REPUL>
0

>  <SCORE.INTRA.REPUL.0>
0

>  <SCORE.INTRA.SOLV>
-1.54638

>  <SCORE.INTRA.SOLV.lig_0>
-71.4024

>  <SCORE.INTRA.VDW>
0.472027

>  <SCORE.INTRA.VDW.0>
-1.86213

>  <SCORE.INTRA.norm>
-0.102139

>  <SCORE.RESTR>
0

>  <SCORE.RESTR.CAVITY>
0

>  <SCORE.RESTR.norm>
0

>  <SCORE.SYSTEM>
0

>  <SCORE.SYSTEM.CONST>
0

>  <SCORE.SYSTEM.DIHEDRAL>
0

>  <SCORE.SYSTEM.SOLV>
0

>  <SCORE.SYSTEM.norm>
0

>  <SCORE.heavy>
22

>  <SCORE.norm>
-0.20742

>  <RMSD>
35.299

$$$$
lig.pdb
 OpenBabel11021811523D
libRbt.so/2013.1/901 2013/11/27
 22 23  0  0  0  0  0  0  0  0999 V2000
  -17.7486    6.3308  -30.9714 C   0  0  1  0  0  0  0  0  0  0  0  0
  -19.3005    8.3131  -30.7398 C   0  0  1  0  0  0  0  0  0  0  0  0
  -20.2187    7.7662  -29.5588 C   0  0  1  0  0  0  0  0  0  0  0  0
  -21.6175    8.5300  -29.6316 C   0  0  2  0  0  0  0  0  0  0  0  0
  -16.3422    5.9305  -30.3782 C   0  0  1  0  0  0  0  0  0  0  0  0
  -15.2675    6.7775  -31.0880 C   0  0  2  0  0  0  0  0  0  0  0  0
  -15.2551    6.4927  -32.6004 C   0  0  2  0  0  0  0  0  0  0  0  0
  -16.6417    6.8385  -33.2561 C   0  0  1  0  0  0  0  0  0  0  0  0
  -16.6517    6.5001  -34.7748 C   0  0  0  0  0  0  0  0  0  0  0  0
  -21.3715   10.1072  -29.3993 C   0  0  1  0  0  0  0  0  0  0  0  0
  -20.4404   10.6228  -30.6080 C   0  0  0  0  0  0  0  0  0  0  0  0
  -19.0446    9.8457  -30.5820 C   0  0  2  0  0  0  0  0  0  0  0  0
  -14.9523    5.0775  -32.8429 F   0  0  0  0  0  0  0  0  0  0  0  0
  -16.3764    6.1957  -28.8876 N   0  0  0  0  0  0  0  0  0  0  0  0
  -17.8554    6.8158  -35.4456 N   0  0  0  0  0  0  0  0  0  0  0  0
  -22.6621   10.8735  -29.4760 N   0  0  0  0  0  0  0  0  0  0  0  0
  -18.1963   10.3219  -31.6938 N   0  0  0  0  0  0  0  0  0  0  0  0
  -18.0355    7.6696  -30.7135 O   0  0  0  0  0  0  0  0  0  0  0  0
  -20.4304    6.3161  -29.7798 O   0  0  0  0  0  0  0  0  0  0  0  0
  -22.4060    8.0272  -28.5941 O   0  0  0  0  0  0  0  0  0  0  0  0
  -14.2431    6.4824  -30.6557 O   0  0  0  0  0  0  0  0  0  0  0  0
  -17.7098    6.0544  -32.4721 O   0  0  0  0  0  0  0  0  0  0  0  0
  1  5  1  0  0  0  0
  1 18  1  6  0  0  0
  2 18  1  1  0  0  0
  2  3  1  0  0  0  0
  2 12  1  0  0  0  0
  3 19  1  6  0  0  0
  3  4  1  0  0  0  0
  4 20  1  1  0  0  0
  4 10  1  0  0  0  0
  5  6  1  0  0  0  0
  5 14  1  1  0  0  0
  6 21  1  1  0  0  0
  7 13  1  1  0  0  0
  7  6  1  0  0  0  0
  8  9  1  6  0  0  0
  8  7  1  0  0  0  0
 10 16  1  6  0  0  0
 11 10  1  0  0  0  0
 12 17  1  6  0  0  0
 12 11  1  0  0  0  0
 15  9  1  0  0  0  0
 22  8  1  0  0  0  0
 22  1  1  0  0  0  0
M  END
>  <CHROM.1>
-161.04610422,67.25620761,-178.41887907,-18.26320757,7.56586245,-31.11363614
-0.28691099,-0.59731522,1.82249545

>  <Name>
lig.pdb

>  <RI>
0

>  <Rbt.Current_Directory>
/home/itssahil/PROJECTS/Mol_Feturizer/New_Systems/rnas/5bws

>  <Rbt.Executable>
rbdock ($Id: //depot/dev/client3/rdock/2013.1/src/exe/rbdock.cxx#4 $)

>  <Rbt.Library>
libRbt.so (2013.1, Build901 2013/11/27)

>  <Rbt.Parameter_File>
/export/apps/rDock/src/rDock_2013.1_src/data/scripts/dock_solv.prm

>  <Rbt.Receptor>
prm/blind_docking_60.prm

>  <SCORE>
-3.59823

>  <SCORE.INTER>
-1.20086

>  <SCORE.INTER.CONST>
1

>  <SCORE.INTER.POLAR>
0

>  <SCORE.INTER.ROT>
3

>  <SCORE.INTER.SOLV>
20.9084

>  <SCORE.INTER.VDW>
-13.37

>  <SCORE.INTER.norm>
-0.0545847

>  <SCORE.INTRA>
-2.39737

>  <SCORE.INTRA.DIHEDRAL>
-4.20779

>  <SCORE.INTRA.DIHEDRAL.0>
6.10773

>  <SCORE.INTRA.POLAR>
0

>  <SCORE.INTRA.POLAR.0>
0

>  <SCORE.INTRA.REPUL>
0

>  <SCORE.INTRA.REPUL.0>
0

>  <SCORE.INTRA.SOLV>
-1.26297

>  <SCORE.INTRA.SOLV.lig_0>
-71.4024

>  <SCORE.INTRA.VDW>
0.338014

>  <SCORE.INTRA.VDW.0>
-1.86213

>  <SCORE.INTRA.norm>
-0.108971

>  <SCORE.RESTR>
0

>  <SCORE.RESTR.CAVITY>
0

>  <SCORE.RESTR.norm>
0

>  <SCORE.SYSTEM>
0

>  <SCORE.SYSTEM.CONST>
0

>  <SCORE.SYSTEM.DIHEDRAL>
0

>  <SCORE.SYSTEM.SOLV>
0

>  <SCORE.SYSTEM.norm>
0

>  <SCORE.heavy>
22

>  <SCORE.norm>
-0.163556

>  <RMSD>
35.364

$$$$
lig.pdb
 OpenBabel11021811523D
libRbt.so/2013.1/901 2013/11/27
 22 23  0  0  0  0  0  0  0  0999 V2000
  -21.5956    9.1771  -29.7976 C   0  0  1  0  0  0  0  0  0  0  0  0
  -19.8591    7.8015  -31.0155 C   0  0  1  0  0  0  0  0  0  0  0  0
  -20.8433    7.1516  -32.0861 C   0  0  1  0  0  0  0  0  0  0  0  0
  -20.1674    5.8095  -32.6221 C   0  0  2  0  0  0  0  0  0  0  0  0
  -21.6657   10.6160  -29.1535 C   0  0  1  0  0  0  0  0  0  0  0  0
  -20.5000   10.7473  -28.1534 C   0  0  2  0  0  0  0  0  0  0  0  0
  -20.6230    9.7052  -27.0276 C   0  0  2  0  0  0  0  0  0  0  0  0
  -20.5939    8.2415  -27.6012 C   0  0  1  0  0  0  0  0  0  0  0  0
  -20.7736    7.1858  -26.4725 C   0  0  0  0  0  0  0  0  0  0  0  0
  -18.7795    6.1741  -33.3590 C   0  0  1  0  0  0  0  0  0  0  0  0
  -17.8136    6.8289  -32.2490 C   0  0  0  0  0  0  0  0  0  0  0  0
  -18.4846    8.1568  -31.6666 C   0  0  2  0  0  0  0  0  0  0  0  0
  -21.8774    9.9049  -26.2928 F   0  0  0  0  0  0  0  0  0  0  0  0
  -21.5651   11.6298  -30.2740 N   0  0  0  0  0  0  0  0  0  0  0  0
  -20.6806    5.8406  -26.8972 N   0  0  0  0  0  0  0  0  0  0  0  0
  -18.0952    4.9366  -33.8677 N   0  0  0  0  0  0  0  0  0  0  0  0
  -17.5945    8.7510  -30.6483 N   0  0  0  0  0  0  0  0  0  0  0  0
  -20.4118    9.0084  -30.5127 O   0  0  0  0  0  0  0  0  0  0  0  0
  -22.1159    6.8288  -31.3986 O   0  0  0  0  0  0  0  0  0  0  0  0
  -21.0520    5.2553  -33.5501 O   0  0  0  0  0  0  0  0  0  0  0  0
  -20.5545   11.7960  -27.6835 O   0  0  0  0  0  0  0  0  0  0  0  0
  -21.7046    8.1606  -28.6641 O   0  0  0  0  0  0  0  0  0  0  0  0
  1  5  1  0  0  0  0
  1 18  1  1  0  0  0
  2 18  1  6  0  0  0
  2  3  1  0  0  0  0
  2 12  1  0  0  0  0
  3 19  1  1  0  0  0
  3  4  1  0  0  0  0
  4 20  1  6  0  0  0
  4 10  1  0  0  0  0
  5  6  1  0  0  0  0
  5 14  1  6  0  0  0
  6 21  1  1  0  0  0
  7 13  1  6  0  0  0
  7  6  1  0  0  0  0
  8  9  1  1  0  0  0
  8  7  1  0  0  0  0
 10 16  1  1  0  0  0
 11 10  1  0  0  0  0
 12 17  1  1  0  0  0
 12 11  1  0  0  0  0
 15  9  1  0  0  0  0
 22  8  1  0  0  0  0
 22  1  1  0  0  0  0
M  END
>  <CHROM.1>
166.97366685,62.40848997,-176.47670991,-20.38583399,8.19136094,-29.98893591
-2.45627112,-1.22630142,-3.04204186

>  <Name>
lig.pdb

>  <RI>
0

>  <Rbt.Current_Directory>
/home/itssahil/PROJECTS/Mol_Feturizer/New_Systems/rnas/5bws

>  <Rbt.Executable>
rbdock ($Id: //depot/dev/client3/rdock/2013.1/src/exe/rbdock.cxx#4 $)

>  <Rbt.Library>
libRbt.so (2013.1, Build901 2013/11/27)

>  <Rbt.Parameter_File>
/export/apps/rDock/src/rDock_2013.1_src/data/scripts/dock_solv.prm

>  <Rbt.Receptor>
prm/blind_docking_40.prm

>  <SCORE>
-2.3544

>  <SCORE.INTER>
0.736969

>  <SCORE.INTER.CONST>
1

>  <SCORE.INTER.POLAR>
0

>  <SCORE.INTER.ROT>
3

>  <SCORE.INTER.SOLV>
16.492

>  <SCORE.INTER.VDW>
-10.606

>  <SCORE.INTER.norm>
0.0334986

>  <SCORE.INTRA>
-3.09137

>  <SCORE.INTRA.DIHEDRAL>
-5.22672

>  <SCORE.INTRA.DIHEDRAL.0>
6.10773

>  <SCORE.INTRA.POLAR>
0

>  <SCORE.INTRA.POLAR.0>
0

>  <SCORE.INTRA.REPUL>
0

>  <SCORE.INTRA.REPUL.0>
0

>  <SCORE.INTRA.SOLV>
-1.53152

>  <SCORE.INTRA.SOLV.lig_0>
-71.4024

>  <SCORE.INTRA.VDW>
0.287744

>  <SCORE.INTRA.VDW.0>
-1.86213

>  <SCORE.INTRA.norm>
-0.140517

>  <SCORE.RESTR>
0

>  <SCORE.RESTR.CAVITY>
0

>  <SCORE.RESTR.norm>
0

>  <SCORE.SYSTEM>
0

>  <SCORE.SYSTEM.CONST>
0

>  <SCORE.SYSTEM.DIHEDRAL>
0

>  <SCORE.SYSTEM.SOLV>
0

>  <SCORE.SYSTEM.norm>
0

>  <SCORE.heavy>
22

>  <SCORE.norm>
-0.107018

>  <RMSD>
35.470

$$$$
lig.pdb
 OpenBabel11021811523D
libRbt.so/2013.1/901 2013/11/27
 22 23  0  0  0  0  0  0  0  0999 V2000
  -20.4824    5.8031  -30.4038 C   0  0  1  0  0  0  0  0  0  0  0  0
  -20.3440    8.3271  -30.4447 C   0  0  1  0  0  0  0  0  0  0  0  0
  -21.2196    8.6781  -29.1613 C   0  0  1  0  0  0  0  0  0  0  0  0
  -21.7869   10.1579  -29.3447 C   0  0  2  0  0  0  0  0  0  0  0  0
  -19.5068    4.5955  -30.1209 C   0  0  1  0  0  0  0  0  0  0  0  0
  -18.4238    4.5913  -31.2179 C   0  0  2  0  0  0  0  0  0  0  0  0
  -19.0522    4.3920  -32.6085 C   0  0  2  0  0  0  0  0  0  0  0  0
  -20.0654    5.5460  -32.9461 C   0  0  1  0  0  0  0  0  0  0  0  0
  -20.7446    5.3193  -34.3274 C   0  0  0  0  0  0  0  0  0  0  0  0
  -20.5514   11.1924  -29.4190 C   0  0  1  0  0  0  0  0  0  0  0  0
  -19.6901   10.8062  -30.7239 C   0  0  0  0  0  0  0  0  0  0  0  0
  -19.1404    9.3126  -30.5839 C   0  0  2  0  0  0  0  0  0  0  0  0
  -19.7581    3.1067  -32.6615 F   0  0  0  0  0  0  0  0  0  0  0  0
  -18.9129    4.7938  -28.7420 N   0  0  0  0  0  0  0  0  0  0  0  0
  -21.5654    6.3829  -34.7673 N   0  0  0  0  0  0  0  0  0  0  0  0
  -21.0363   12.6022  -29.6092 N   0  0  0  0  0  0  0  0  0  0  0  0
  -18.3531    8.9642  -31.7844 N   0  0  0  0  0  0  0  0  0  0  0  0
  -19.8061    7.0188  -30.3265 O   0  0  0  0  0  0  0  0  0  0  0  0
  -22.3457    7.7166  -29.1006 O   0  0  0  0  0  0  0  0  0  0  0  0
  -22.5569   10.4378  -28.2135 O   0  0  0  0  0  0  0  0  0  0  0  0
  -17.7152    3.7090  -31.0111 O   0  0  0  0  0  0  0  0  0  0  0  0
  -21.0827    5.5934  -31.7915 O   0  0  0  0  0  0  0  0  0  0  0  0
  1  5  1  0  0  0  0
  1 18  1  6  0  0  0
  2 18  1  1  0  0  0
  2  3  1  0  0  0  0
  2 12  1  0  0  0  0
  3 19  1  6  0  0  0
  3  4  1  0  0  0  0
  4 20  1  1  0  0  0
  4 10  1  0  0  0  0
  5  6  1  0  0  0  0
  5 14  1  1  0  0  0
  6 21  1  1  0  0  0
  7 13  1  1  0  0  0
  7  6  1  0  0  0  0
  8  9  1  6  0  0  0
  8  7  1  0  0  0  0
 10 16  1  6  0  0  0
 11 10  1  0  0  0  0
 12 17  1  6  0  0  0
 12 11  1  0  0  0  0
 15  9  1  0  0  0  0
 22  8  1  0  0  0  0
 22  1  1  0  0  0  0
M  END
>  <CHROM.1>
-176.24945983,70.91685511,-173.72530872,-20.20177611,7.15224578,-30.88921522
-0.82234701,-1.22866572,1.12750004

>  <Name>
lig.pdb

>  <RI>
0

>  <Rbt.Current_Directory>
/home/itssahil/PROJECTS/Mol_Feturizer/New_Systems/rnas/5bws

>  <Rbt.Executable>
rbdock ($Id: //depot/dev/client3/rdock/2013.1/src/exe/rbdock.cxx#4 $)

>  <Rbt.Library>
libRbt.so (2013.1, Build901 2013/11/27)

>  <Rbt.Parameter_File>
/export/apps/rDock/src/rDock_2013.1_src/data/scripts/dock_solv.prm

>  <Rbt.Receptor>
prm/blind_docking_60.prm

>  <SCORE>
-4.65782

>  <SCORE.INTER>
-1.45741

>  <SCORE.INTER.CONST>
1

>  <SCORE.INTER.POLAR>
0

>  <SCORE.INTER.ROT>
3

>  <SCORE.INTER.SOLV>
17.8733

>  <SCORE.INTER.VDW>
-12.5294

>  <SCORE.INTER.norm>
-0.066246

>  <SCORE.INTRA>
-3.2004

>  <SCORE.INTRA.DIHEDRAL>
-5.32326

>  <SCORE.INTRA.DIHEDRAL.0>
6.10773

>  <SCORE.INTRA.POLAR>
0

>  <SCORE.INTRA.POLAR.0>
0

>  <SCORE.INTRA.REPUL>
0

>  <SCORE.INTRA.REPUL.0>
0

>  <SCORE.INTRA.SOLV>
-1.46922

>  <SCORE.INTRA.SOLV.lig_0>
-71.4024

>  <SCORE.INTRA.VDW>
0.195836

>  <SCORE.INTRA.VDW.0>
-1.86213

>  <SCORE.INTRA.norm>
-0.145473

>  <SCORE.RESTR>
0

>  <SCORE.RESTR.CAVITY>
0

>  <SCORE.RESTR.norm>
0

>  <SCORE.SYSTEM>
0

>  <SCORE.SYSTEM.CONST>
0

>  <SCORE.SYSTEM.DIHEDRAL>
0

>  <SCORE.SYSTEM.SOLV>
0

>  <SCORE.SYSTEM.norm>
0

>  <SCORE.heavy>
22

>  <SCORE.norm>
-0.211719

>  <RMSD>
35.642

$$$$
lig.pdb
 OpenBabel11021811523D
libRbt.so/2013.1/901 2013/11/27
 22 23  0  0  0  0  0  0  0  0999 V2000
  -17.4846    6.2420  -31.7325 C   0  0  1  0  0  0  0  0  0  0  0  0
  -17.9362    8.1982  -30.1961 C   0  0  1  0  0  0  0  0  0  0  0  0
  -19.0577    8.9296  -31.0588 C   0  0  1  0  0  0  0  0  0  0  0  0
  -19.9445    9.8086  -30.0658 C   0  0  2  0  0  0  0  0  0  0  0  0
  -16.2244    5.5666  -32.4003 C   0  0  1  0  0  0  0  0  0  0  0  0
  -15.6371    6.5602  -33.4221 C   0  0  2  0  0  0  0  0  0  0  0  0
  -16.6595    6.8791  -34.5273 C   0  0  2  0  0  0  0  0  0  0  0  0
  -17.9611    7.5272  -33.9289 C   0  0  1  0  0  0  0  0  0  0  0  0
  -19.0198    7.8003  -35.0359 C   0  0  0  0  0  0  0  0  0  0  0  0
  -20.6704    8.8358  -29.0032 C   0  0  1  0  0  0  0  0  0  0  0  0
  -19.5082    8.1143  -28.1533 C   0  0  0  0  0  0  0  0  0  0  0  0
  -18.5801    7.2557  -29.1301 C   0  0  2  0  0  0  0  0  0  0  0  0
  -17.0238    5.6517  -35.2442 F   0  0  0  0  0  0  0  0  0  0  0  0
  -15.2373    5.2393  -31.2995 N   0  0  0  0  0  0  0  0  0  0  0  0
  -20.2617    8.2834  -34.5637 N   0  0  0  0  0  0  0  0  0  0  0  0
  -21.5065    9.6218  -28.0328 N   0  0  0  0  0  0  0  0  0  0  0  0
  -17.5157    6.5982  -28.3447 N   0  0  0  0  0  0  0  0  0  0  0  0
  -17.1224    7.3922  -31.0347 O   0  0  0  0  0  0  0  0  0  0  0  0
  -18.3780    9.8134  -32.0351 O   0  0  0  0  0  0  0  0  0  0  0  0
  -20.9123   10.4455  -30.8459 O   0  0  0  0  0  0  0  0  0  0  0  0
  -14.7201    6.0650  -33.9092 O   0  0  0  0  0  0  0  0  0  0  0  0
  -18.4782    6.5626  -32.8462 O   0  0  0  0  0  0  0  0  0  0  0  0
  1  5  1  0  0  0  0
  1 18  1  6  0  0  0
  2 18  1  6  0  0  0
  2  3  1  0  0  0  0
  2 12  1  0  0  0  0
  3 19  1  6  0  0  0
  3  4  1  0  0  0  0
  4 20  1  6  0  0  0
  4 10  1  0  0  0  0
  5  6  1  0  0  0  0
  5 14  1  1  0  0  0
  6 21  1  6  0  0  0
  7 13  1  1  0  0  0
  7  6  1  0  0  0  0
  8  9  1  6  0  0  0
  8  7  1  0  0  0  0
 10 16  1  1  0  0  0
 11 10  1  0  0  0  0
 12 17  1  1  0  0  0
 12 11  1  0  0  0  0
 15  9  1  0  0  0  0
 22  8  1  0  0  0  0
 22  1  1  0  0  0  0
M  END
>  <CHROM.1>
-173.11122923,-67.15482698,175.13264623,-18.15332615,7.59264813,-31.74873502
-0.78515436,-0.67422469,1.58208520

>  <Name>
lig.pdb

>  <RI>
0

>  <Rbt.Current_Directory>
/home/itssahil/PROJECTS/Mol_Feturizer/New_Systems/rnas/5bws

>  <Rbt.Executable>
rbdock ($Id: //depot/dev/client3/rdock/2013.1/src/exe/rbdock.cxx#4 $)

>  <Rbt.Library>
libRbt.so (2013.1, Build901 2013/11/27)

>  <Rbt.Parameter_File>
/export/apps/rDock/src/rDock_2013.1_src/data/scripts/dock_solv.prm

>  <Rbt.Receptor>
prm/blind_docking_60.prm

>  <SCORE>
-3.96767

>  <SCORE.INTER>
-1.59992

>  <SCORE.INTER.CONST>
1

>  <SCORE.INTER.POLAR>
0

>  <SCORE.INTER.ROT>
3

>  <SCORE.INTER.SOLV>
18.3417

>  <SCORE.INTER.VDW>
-12.7805

>  <SCORE.INTER.norm>
-0.0727234

>  <SCORE.INTRA>
-2.36776

>  <SCORE.INTRA.DIHEDRAL>
-5.5382

>  <SCORE.INTRA.DIHEDRAL.0>
6.10773

>  <SCORE.INTRA.POLAR>
0

>  <SCORE.INTRA.POLAR.0>
0

>  <SCORE.INTRA.REPUL>
0

>  <SCORE.INTRA.REPUL.0>
0

>  <SCORE.INTRA.SOLV>
1.06738

>  <SCORE.INTRA.SOLV.lig_0>
-71.4024

>  <SCORE.INTRA.VDW>
-0.132351

>  <SCORE.INTRA.VDW.0>
-1.86213

>  <SCORE.INTRA.norm>
-0.107625

>  <SCORE.RESTR>
0

>  <SCORE.RESTR.CAVITY>
0

>  <SCORE.RESTR.norm>
0

>  <SCORE.SYSTEM>
0

>  <SCORE.SYSTEM.CONST>
0

>  <SCORE.SYSTEM.DIHEDRAL>
0

>  <SCORE.SYSTEM.SOLV>
0

>  <SCORE.SYSTEM.norm>
0

>  <SCORE.heavy>
22

>  <SCORE.norm>
-0.180349

>  <RMSD>
35.751

$$$$
lig.pdb
 OpenBabel11021811523D
libRbt.so/2013.1/901 2013/11/27
 22 23  0  0  0  0  0  0  0  0999 V2000
  -20.6613    6.5309  -31.0010 C   0  0  1  0  0  0  0  0  0  0  0  0
  -21.7868    7.5312  -28.9703 C   0  0  1  0  0  0  0  0  0  0  0  0
  -22.7176    8.8007  -28.7277 C   0  0  1  0  0  0  0  0  0  0  0  0
  -22.8597    9.0105  -27.1525 C   0  0  2  0  0  0  0  0  0  0  0  0
  -19.2784    7.2902  -31.0312 C   0  0  1  0  0  0  0  0  0  0  0  0
  -19.4627    8.5826  -31.8510 C   0  0  2  0  0  0  0  0  0  0  0  0
  -19.8708    8.2600  -33.2994 C   0  0  2  0  0  0  0  0  0  0  0  0
  -21.2299    7.4707  -33.3455 C   0  0  1  0  0  0  0  0  0  0  0  0
  -21.6185    7.0940  -34.8042 C   0  0  0  0  0  0  0  0  0  0  0  0
  -23.5802    7.7182  -26.5098 C   0  0  1  0  0  0  0  0  0  0  0  0
  -22.6135    6.4578  -26.7758 C   0  0  0  0  0  0  0  0  0  0  0  0
  -22.4227    6.2475  -28.3481 C   0  0  2  0  0  0  0  0  0  0  0  0
  -18.8292    7.4549  -33.9476 F   0  0  0  0  0  0  0  0  0  0  0  0
  -18.8795    7.5819  -29.5997 N   0  0  0  0  0  0  0  0  0  0  0  0
  -20.7451    6.1777  -35.4337 N   0  0  0  0  0  0  0  0  0  0  0  0
  -23.7216    7.8619  -25.0205 N   0  0  0  0  0  0  0  0  0  0  0  0
  -21.5340    5.0915  -28.5850 N   0  0  0  0  0  0  0  0  0  0  0  0
  -21.6355    7.2947  -30.3618 O   0  0  0  0  0  0  0  0  0  0  0  0
  -22.0485    9.9784  -29.3290 O   0  0  0  0  0  0  0  0  0  0  0  0
  -23.6708   10.1323  -26.9666 O   0  0  0  0  0  0  0  0  0  0  0  0
  -18.4529    9.1334  -31.8736 O   0  0  0  0  0  0  0  0  0  0  0  0
  -21.0539    6.2338  -32.4459 O   0  0  0  0  0  0  0  0  0  0  0  0
  1  5  1  0  0  0  0
  1 18  1  6  0  0  0
  2 18  1  6  0  0  0
  2  3  1  0  0  0  0
  2 12  1  0  0  0  0
  3 19  1  6  0  0  0
  3  4  1  0  0  0  0
  4 20  1  6  0  0  0
  4 10  1  0  0  0  0
  5  6  1  0  0  0  0
  5 14  1  1  0  0  0
  6 21  1  6  0  0  0
  7 13  1  1  0  0  0
  7  6  1  0  0  0  0
  8  9  1  6  0  0  0
  8  7  1  0  0  0  0
 10 16  1  1  0  0  0
 11 10  1  0  0  0  0
 12 17  1  1  0  0  0
 12 11  1  0  0  0  0
 15  9  1  0  0  0  0
 22  8  1  0  0  0  0
 22  1  1  0  0  0  0
M  END
>  <CHROM.1>
-75.17592109,161.96328570,65.60930774,-21.26356687,7.65624496,-30.30901277
0.64336008,-1.02707294,-2.53504093

>  <Name>
lig.pdb

>  <RI>
0

>  <Rbt.Current_Directory>
/home/itssahil/PROJECTS/Mol_Feturizer/New_Systems/rnas/5bws

>  <Rbt.Executable>
rbdock ($Id: //depot/dev/client3/rdock/2013.1/src/exe/rbdock.cxx#4 $)

>  <Rbt.Library>
libRbt.so (2013.1, Build901 2013/11/27)

>  <Rbt.Parameter_File>
/export/apps/rDock/src/rDock_2013.1_src/data/scripts/dock_solv.prm

>  <Rbt.Receptor>
prm/blind_docking_80.prm

>  <SCORE>
-3.55297

>  <SCORE.INTER>
-3.6767

>  <SCORE.INTER.CONST>
1

>  <SCORE.INTER.POLAR>
0

>  <SCORE.INTER.ROT>
3

>  <SCORE.INTER.SOLV>
13.2936

>  <SCORE.INTER.VDW>
-12.4823

>  <SCORE.INTER.norm>
-0.167123

>  <SCORE.INTRA>
0.123736

>  <SCORE.INTRA.DIHEDRAL>
-3.42593

>  <SCORE.INTRA.DIHEDRAL.0>
6.10773

>  <SCORE.INTRA.POLAR>
0

>  <SCORE.INTRA.POLAR.0>
0

>  <SCORE.INTRA.REPUL>
0

>  <SCORE.INTRA.REPUL.0>
0

>  <SCORE.INTRA.SOLV>
3.21255

>  <SCORE.INTRA.SOLV.lig_0>
-71.4024

>  <SCORE.INTRA.VDW>
0.230429

>  <SCORE.INTRA.VDW.0>
-1.86213

>  <SCORE.INTRA.norm>
0.00562438

>  <SCORE.RESTR>
0

>  <SCORE.RESTR.CAVITY>
0

>  <SCORE.RESTR.norm>
0

>  <SCORE.SYSTEM>
0

>  <SCORE.SYSTEM.CONST>
0

>  <SCORE.SYSTEM.DIHEDRAL>
0

>  <SCORE.SYSTEM.SOLV>
0

>  <SCORE.SYSTEM.norm>
0

>  <SCORE.heavy>
22

>  <SCORE.norm>
-0.161498

>  <RMSD>
35.763

$$$$
lig.pdb
 OpenBabel11021811523D
libRbt.so/2013.1/901 2013/11/27
 22 23  0  0  0  0  0  0  0  0999 V2000
  -19.3060    5.7413  -33.2657 C   0  0  1  0  0  0  0  0  0  0  0  0
  -17.3777    7.1373  -32.4148 C   0  0  1  0  0  0  0  0  0  0  0  0
  -17.8479    7.2747  -30.8992 C   0  0  1  0  0  0  0  0  0  0  0  0
  -16.5549    7.5589  -30.0087 C   0  0  2  0  0  0  0  0  0  0  0  0
  -20.3858    5.8361  -34.4124 C   0  0  1  0  0  0  0  0  0  0  0  0
  -21.2903    7.0486  -34.1158 C   0  0  2  0  0  0  0  0  0  0  0  0
  -22.0222    6.8717  -32.7735 C   0  0  2  0  0  0  0  0  0  0  0  0
  -21.0037    6.7367  -31.5833 C   0  0  1  0  0  0  0  0  0  0  0  0
  -21.7378    6.5022  -30.2317 C   0  0  0  0  0  0  0  0  0  0  0  0
  -15.5496    6.3022  -30.1200 C   0  0  1  0  0  0  0  0  0  0  0  0
  -15.0984    6.1938  -31.6621 C   0  0  0  0  0  0  0  0  0  0  0  0
  -16.3808    5.9467  -32.5826 C   0  0  2  0  0  0  0  0  0  0  0  0
  -22.8678    5.6733  -32.8163 F   0  0  0  0  0  0  0  0  0  0  0  0
  -19.6513    5.9882  -35.7280 N   0  0  0  0  0  0  0  0  0  0  0  0
  -20.8873    6.3435  -29.1136 N   0  0  0  0  0  0  0  0  0  0  0  0
  -14.3051    6.5310  -29.3090 N   0  0  0  0  0  0  0  0  0  0  0  0
  -15.9603    5.8500  -33.9954 N   0  0  0  0  0  0  0  0  0  0  0  0
  -18.4940    6.8734  -33.2509 O   0  0  0  0  0  0  0  0  0  0  0  0
  -18.7760    8.4269  -30.8124 O   0  0  0  0  0  0  0  0  0  0  0  0
  -16.9940    7.6843  -28.6887 O   0  0  0  0  0  0  0  0  0  0  0  0
  -22.0780    7.1144  -34.9516 O   0  0  0  0  0  0  0  0  0  0  0  0
  -20.0525    5.5810  -31.9438 O   0  0  0  0  0  0  0  0  0  0  0  0
  1  5  1  0  0  0  0
  1 18  1  1  0  0  0
  2 18  1  6  0  0  0
  2  3  1  0  0  0  0
  2 12  1  0  0  0  0
  3 19  1  6  0  0  0
  3  4  1  0  0  0  0
  4 20  1  1  0  0  0
  4 10  1  0  0  0  0
  5  6  1  0  0  0  0
  5 14  1  6  0  0  0
  6 21  1  6  0  0  0
  7 13  1  6  0  0  0
  7  6  1  0  0  0  0
  8  9  1  1  0  0  0
  8  7  1  0  0  0  0
 10 16  1  1  0  0  0
 11 10  1  0  0  0  0
 12 17  1  6  0  0  0
 12 11  1  0  0  0  0
 15  9  1  0  0  0  0
 22  8  1  0  0  0  0
 22  1  1  0  0  0  0
M  END
>  <CHROM.1>
-176.93486554,-65.74874007,178.79779251,-18.92654590,6.60153762,-32.03415047
-2.65183085,-0.01656112,1.40235254

>  <Name>
lig.pdb

>  <RI>
0

>  <Rbt.Current_Directory>
/home/itssahil/PROJECTS/Mol_Feturizer/New_Systems/rnas/5bws

>  <Rbt.Executable>
rbdock ($Id: //depot/dev/client3/rdock/2013.1/src/exe/rbdock.cxx#4 $)

>  <Rbt.Library>
libRbt.so (2013.1, Build901 2013/11/27)

>  <Rbt.Parameter_File>
/export/apps/rDock/src/rDock_2013.1_src/data/scripts/dock_solv.prm

>  <Rbt.Receptor>
prm/blind_docking_80.prm

>  <SCORE>
-5.63845

>  <SCORE.INTER>
-3.18521

>  <SCORE.INTER.CONST>
1

>  <SCORE.INTER.POLAR>
0

>  <SCORE.INTER.ROT>
3

>  <SCORE.INTER.SOLV>
15.4874

>  <SCORE.INTER.VDW>
-12.8859

>  <SCORE.INTER.norm>
-0.144782

>  <SCORE.INTRA>
-2.45324

>  <SCORE.INTRA.DIHEDRAL>
-5.89169

>  <SCORE.INTRA.DIHEDRAL.0>
6.10773

>  <SCORE.INTRA.POLAR>
0

>  <SCORE.INTRA.POLAR.0>
0

>  <SCORE.INTRA.REPUL>
0

>  <SCORE.INTRA.REPUL.0>
0

>  <SCORE.INTRA.SOLV>
1.13374

>  <SCORE.INTRA.SOLV.lig_0>
-71.4024

>  <SCORE.INTRA.VDW>
-0.0742577

>  <SCORE.INTRA.VDW.0>
-1.86213

>  <SCORE.INTRA.norm>
-0.111511

>  <SCORE.RESTR>
0

>  <SCORE.RESTR.CAVITY>
0

>  <SCORE.RESTR.norm>
0

>  <SCORE.SYSTEM>
0

>  <SCORE.SYSTEM.CONST>
0

>  <SCORE.SYSTEM.DIHEDRAL>
0

>  <SCORE.SYSTEM.SOLV>
0

>  <SCORE.SYSTEM.norm>
0

>  <SCORE.heavy>
22

>  <SCORE.norm>
-0.256293

>  <RMSD>
36.002

$$$$
lig.pdb
 OpenBabel11021811523D
libRbt.so/2013.1/901 2013/11/27
 22 23  0  0  0  0  0  0  0  0999 V2000
  -19.0724    5.7864  -30.9632 C   0  0  1  0  0  0  0  0  0  0  0  0
  -17.7219    3.8308  -31.8251 C   0  0  1  0  0  0  0  0  0  0  0  0
  -18.1919    3.7731  -33.3459 C   0  0  1  0  0  0  0  0  0  0  0  0
  -17.0244    3.0930  -34.1943 C   0  0  2  0  0  0  0  0  0  0  0  0
  -20.2358    6.0219  -29.9233 C   0  0  1  0  0  0  0  0  0  0  0  0
  -21.4761    5.2488  -30.4133 C   0  0  2  0  0  0  0  0  0  0  0  0
  -21.9395    5.7683  -31.7858 C   0  0  2  0  0  0  0  0  0  0  0  0
  -20.8137    5.5955  -32.8697 C   0  0  1  0  0  0  0  0  0  0  0  0
  -21.2574    6.1699  -34.2459 C   0  0  0  0  0  0  0  0  0  0  0  0
  -15.7008    4.0106  -34.1029 C   0  0  1  0  0  0  0  0  0  0  0  0
  -15.2578    4.0471  -32.5550 C   0  0  0  0  0  0  0  0  0  0  0  0
  -16.4262    4.6899  -31.6751 C   0  0  2  0  0  0  0  0  0  0  0  0
  -22.2969    7.1883  -31.6912 F   0  0  0  0  0  0  0  0  0  0  0  0
  -19.7579    5.5261  -28.5745 N   0  0  0  0  0  0  0  0  0  0  0  0
  -20.2959    6.0540  -35.2757 N   0  0  0  0  0  0  0  0  0  0  0  0
  -14.5648    3.4007  -34.8749 N   0  0  0  0  0  0  0  0  0  0  0  0
  -16.0142    4.7188  -30.2567 N   0  0  0  0  0  0  0  0  0  0  0  0
  -18.7255    4.4385  -31.0260 O   0  0  0  0  0  0  0  0  0  0  0  0
  -19.4117    2.9342  -33.4147 O   0  0  0  0  0  0  0  0  0  0  0  0
  -17.4637    3.0457  -35.5193 O   0  0  0  0  0  0  0  0  0  0  0  0
  -22.3234    5.4237  -29.6551 O   0  0  0  0  0  0  0  0  0  0  0  0
  -19.5577    6.2946  -32.3183 O   0  0  0  0  0  0  0  0  0  0  0  0
  1  5  1  0  0  0  0
  1 18  1  6  0  0  0
  2 18  1  1  0  0  0
  2  3  1  0  0  0  0
  2 12  1  0  0  0  0
  3 19  1  1  0  0  0
  3  4  1  0  0  0  0
  4 20  1  6  0  0  0
  4 10  1  0  0  0  0
  5  6  1  0  0  0  0
  5 14  1  1  0  0  0
  6 21  1  1  0  0  0
  7 13  1  1  0  0  0
  7  6  1  0  0  0  0
  8  9  1  6  0  0  0
  8  7  1  0  0  0  0
 10 16  1  6  0  0  0
 11 10  1  0  0  0  0
 12 17  1  1  0  0  0
 12 11  1  0  0  0  0
 15  9  1  0  0  0  0
 22  8  1  0  0  0  0
 22  1  1  0  0  0  0
M  END
>  <CHROM.1>
-179.27094116,-73.72357190,179.90547200,-18.96217964,4.89207875,-32.29498626
-2.63036273,0.35965756,-1.70437990

>  <Name>
lig.pdb

>  <RI>
0

>  <Rbt.Current_Directory>
/home/itssahil/PROJECTS/Mol_Feturizer/New_Systems/rnas/5bws

>  <Rbt.Executable>
rbdock ($Id: //depot/dev/client3/rdock/2013.1/src/exe/rbdock.cxx#4 $)

>  <Rbt.Library>
libRbt.so (2013.1, Build901 2013/11/27)

>  <Rbt.Parameter_File>
/export/apps/rDock/src/rDock_2013.1_src/data/scripts/dock_solv.prm

>  <Rbt.Receptor>
prm/blind_docking_80.prm

>  <SCORE>
-4.67483

>  <SCORE.INTER>
-2.34669

>  <SCORE.INTER.CONST>
1

>  <SCORE.INTER.POLAR>
0

>  <SCORE.INTER.ROT>
3

>  <SCORE.INTER.SOLV>
13.2379

>  <SCORE.INTER.VDW>
-11.5771

>  <SCORE.INTER.norm>
-0.106668

>  <SCORE.INTRA>
-2.32815

>  <SCORE.INTRA.DIHEDRAL>
-5.21279

>  <SCORE.INTRA.DIHEDRAL.0>
6.10773

>  <SCORE.INTRA.POLAR>
0

>  <SCORE.INTRA.POLAR.0>
0

>  <SCORE.INTRA.REPUL>
0

>  <SCORE.INTRA.REPUL.0>
0

>  <SCORE.INTRA.SOLV>
0.743235

>  <SCORE.INTRA.SOLV.lig_0>
-71.4024

>  <SCORE.INTRA.VDW>
-0.0933739

>  <SCORE.INTRA.VDW.0>
-1.86213

>  <SCORE.INTRA.norm>
-0.105825

>  <SCORE.RESTR>
0

>  <SCORE.RESTR.CAVITY>
0

>  <SCORE.RESTR.norm>
0

>  <SCORE.SYSTEM>
0

>  <SCORE.SYSTEM.CONST>
0

>  <SCORE.SYSTEM.DIHEDRAL>
0

>  <SCORE.SYSTEM.SOLV>
0

>  <SCORE.SYSTEM.norm>
0

>  <SCORE.heavy>
22

>  <SCORE.norm>
-0.212492

>  <RMSD>
36.046

$$$$
lig.pdb
 OpenBabel11021811523D
libRbt.so/2013.1/901 2013/11/27
 22 23  0  0  0  0  0  0  0  0999 V2000
  -22.2005    7.6611  -30.1792 C   0  0  1  0  0  0  0  0  0  0  0  0
  -20.4834    7.1584  -31.9653 C   0  0  1  0  0  0  0  0  0  0  0  0
  -21.5357    7.3589  -33.1441 C   0  0  1  0  0  0  0  0  0  0  0  0
  -20.9547    6.6440  -34.4466 C   0  0  2  0  0  0  0  0  0  0  0  0
  -22.2550    8.4596  -28.8192 C   0  0  1  0  0  0  0  0  0  0  0  0
  -21.2177    7.8404  -27.8616 C   0  0  2  0  0  0  0  0  0  0  0  0
  -21.5499    6.3658  -27.5722 C   0  0  2  0  0  0  0  0  0  0  0  0
  -21.5465    5.5118  -28.8923 C   0  0  1  0  0  0  0  0  0  0  0  0
  -21.9361    4.0317  -28.6121 C   0  0  0  0  0  0  0  0  0  0  0  0
  -19.5714    7.3582  -34.8694 C   0  0  1  0  0  0  0  0  0  0  0  0
  -18.5359    7.1369  -33.6560 C   0  0  0  0  0  0  0  0  0  0  0  0
  -19.1114    7.8113  -32.3267 C   0  0  2  0  0  0  0  0  0  0  0  0
  -22.8704    6.2627  -26.9406 F   0  0  0  0  0  0  0  0  0  0  0  0
  -21.9475    9.9111  -29.1224 N   0  0  0  0  0  0  0  0  0  0  0  0
  -21.0778    3.3506  -27.7189 N   0  0  0  0  0  0  0  0  0  0  0  0
  -18.9753    6.7067  -36.0854 N   0  0  0  0  0  0  0  0  0  0  0  0
  -18.1579    7.6032  -31.2178 N   0  0  0  0  0  0  0  0  0  0  0  0
  -20.9502    7.7867  -30.7811 O   0  0  0  0  0  0  0  0  0  0  0  0
  -22.8030    6.7054  -32.7401 O   0  0  0  0  0  0  0  0  0  0  0  0
  -21.8977    6.8257  -35.4609 O   0  0  0  0  0  0  0  0  0  0  0  0
  -21.2607    8.4224  -26.8703 O   0  0  0  0  0  0  0  0  0  0  0  0
  -22.5182    6.2009  -29.8676 O   0  0  0  0  0  0  0  0  0  0  0  0
  1  5  1  0  0  0  0
  1 18  1  1  0  0  0
  2 18  1  1  0  0  0
  2  3  1  0  0  0  0
  2 12  1  0  0  0  0
  3 19  1  1  0  0  0
  3  4  1  0  0  0  0
  4 20  1  6  0  0  0
  4 10  1  0  0  0  0
  5  6  1  0  0  0  0
  5 14  1  6  0  0  0
  6 21  1  1  0  0  0
  7 13  1  6  0  0  0
  7  6  1  0  0  0  0
  8  9  1  1  0  0  0
  8  7  1  0  0  0  0
 10 16  1  6  0  0  0
 11 10  1  0  0  0  0
 12 17  1  1  0  0  0
 12 11  1  0  0  0  0
 15  9  1  0  0  0  0
 22  8  1  0  0  0  0
 22  1  1  0  0  0  0
M  END
>  <CHROM.1>
175.96897172,50.18198052,-60.13310743,-21.11720998,6.94757789,-30.81224679
-2.47482282,-1.23742948,-2.37099402

>  <Name>
lig.pdb

>  <RI>
0

>  <Rbt.Current_Directory>
/home/itssahil/PROJECTS/Mol_Feturizer/New_Systems/rnas/5bws

>  <Rbt.Executable>
rbdock ($Id: //depot/dev/client3/rdock/2013.1/src/exe/rbdock.cxx#4 $)

>  <Rbt.Library>
libRbt.so (2013.1, Build901 2013/11/27)

>  <Rbt.Parameter_File>
/export/apps/rDock/src/rDock_2013.1_src/data/scripts/dock_solv.prm

>  <Rbt.Receptor>
prm/blind_docking_60.prm

>  <SCORE>
-5.70788

>  <SCORE.INTER>
-2.9913

>  <SCORE.INTER.CONST>
1

>  <SCORE.INTER.POLAR>
0

>  <SCORE.INTER.ROT>
3

>  <SCORE.INTER.SOLV>
17.339

>  <SCORE.INTER.VDW>
-13.3739

>  <SCORE.INTER.norm>
-0.135968

>  <SCORE.INTRA>
-2.71658

>  <SCORE.INTRA.DIHEDRAL>
-5.56006

>  <SCORE.INTRA.DIHEDRAL.0>
6.10773

>  <SCORE.INTRA.POLAR>
0

>  <SCORE.INTRA.POLAR.0>
0

>  <SCORE.INTRA.REPUL>
0

>  <SCORE.INTRA.REPUL.0>
0

>  <SCORE.INTRA.SOLV>
-1.27267

>  <SCORE.INTRA.SOLV.lig_0>
-71.4024

>  <SCORE.INTRA.VDW>
0.699779

>  <SCORE.INTRA.VDW.0>
-1.86213

>  <SCORE.INTRA.norm>
-0.123481

>  <SCORE.RESTR>
0

>  <SCORE.RESTR.CAVITY>
0

>  <SCORE.RESTR.norm>
0

>  <SCORE.SYSTEM>
0

>  <SCORE.SYSTEM.CONST>
0

>  <SCORE.SYSTEM.DIHEDRAL>
0

>  <SCORE.SYSTEM.SOLV>
0

>  <SCORE.SYSTEM.norm>
0

>  <SCORE.heavy>
22

>  <SCORE.norm>
-0.259449

>  <RMSD>
36.116

$$$$
lig.pdb
 OpenBabel11021811523D
libRbt.so/2013.1/901 2013/11/27
 22 23  0  0  0  0  0  0  0  0999 V2000
  -22.2522    7.6692  -30.2178 C   0  0  1  0  0  0  0  0  0  0  0  0
  -20.5321    7.1846  -32.0061 C   0  0  1  0  0  0  0  0  0  0  0  0
  -21.5437    7.3840  -33.2201 C   0  0  1  0  0  0  0  0  0  0  0  0
  -20.9378    6.6340  -34.4912 C   0  0  2  0  0  0  0  0  0  0  0  0
  -22.3475    8.5504  -28.9123 C   0  0  1  0  0  0  0  0  0  0  0  0
  -21.2561    8.0722  -27.9343 C   0  0  2  0  0  0  0  0  0  0  0  0
  -21.4767    6.6002  -27.5433 C   0  0  2  0  0  0  0  0  0  0  0  0
  -21.4278    5.6627  -28.8046 C   0  0  1  0  0  0  0  0  0  0  0  0
  -21.7053    4.1804  -28.4214 C   0  0  0  0  0  0  0  0  0  0  0  0
  -19.5282    7.3130  -34.8837 C   0  0  1  0  0  0  0  0  0  0  0  0
  -18.5348    7.0938  -33.6352 C   0  0  0  0  0  0  0  0  0  0  0  0
  -19.1368    7.8038  -32.3366 C   0  0  2  0  0  0  0  0  0  0  0  0
  -22.7782    6.4450  -26.8836 F   0  0  0  0  0  0  0  0  0  0  0  0
  -22.1501    9.9969  -29.3152 N   0  0  0  0  0  0  0  0  0  0  0  0
  -20.7582    3.6069  -27.5425 N   0  0  0  0  0  0  0  0  0  0  0  0
  -18.9085    6.6275  -36.0690 N   0  0  0  0  0  0  0  0  0  0  0  0
  -18.2219    7.5975  -31.1952 N   0  0  0  0  0  0  0  0  0  0  0  0
  -21.0220    7.8437  -30.8482 O   0  0  0  0  0  0  0  0  0  0  0  0
  -22.8357    6.7631  -32.8438 O   0  0  0  0  0  0  0  0  0  0  0  0
  -21.8457    6.8153  -35.5371 O   0  0  0  0  0  0  0  0  0  0  0  0
  -21.3289    8.7144  -26.9826 O   0  0  0  0  0  0  0  0  0  0  0  0
  -22.4590    6.2140  -29.8059 O   0  0  0  0  0  0  0  0  0  0  0  0
  1  5  1  0  0  0  0
  1 18  1  1  0  0  0
  2 18  1  1  0  0  0
  2  3  1  0  0  0  0
  2 12  1  0  0  0  0
  3 19  1  1  0  0  0
  3  4  1  0  0  0  0
  4 20  1  6  0  0  0
  4 10  1  0  0  0  0
  5  6  1  0  0  0  0
  5 14  1  6  0  0  0
  6 21  1  1  0  0  0
  7 13  1  6  0  0  0
  7  6  1  0  0  0  0
  8  9  1  1  0  0  0
  8  7  1  0  0  0  0
 10 16  1  6  0  0  0
 11 10  1  0  0  0  0
 12 17  1  1  0  0  0
 12 11  1  0  0  0  0
 15  9  1  0  0  0  0
 22  8  1  0  0  0  0
 22  1  1  0  0  0  0
M  END
>  <CHROM.1>
176.80073602,56.13631530,-62.56679922,-21.09955842,7.02505676,-30.82487199
2.83628844,-1.31088362,2.87061055

>  <Name>
lig.pdb

>  <RI>
0

>  <Rbt.Current_Directory>
/home/itssahil/PROJECTS/Mol_Feturizer/New_Systems/rnas/5bws

>  <Rbt.Executable>
rbdock ($Id: //depot/dev/client3/rdock/2013.1/src/exe/rbdock.cxx#4 $)

>  <Rbt.Library>
libRbt.so (2013.1, Build901 2013/11/27)

>  <Rbt.Parameter_File>
/export/apps/rDock/src/rDock_2013.1_src/data/scripts/dock_solv.prm

>  <Rbt.Receptor>
prm/blind_docking_100.prm

>  <SCORE>
-5.21523

>  <SCORE.INTER>
-2.18523

>  <SCORE.INTER.CONST>
1

>  <SCORE.INTER.POLAR>
0

>  <SCORE.INTER.ROT>
3

>  <SCORE.INTER.SOLV>
17.2823

>  <SCORE.INTER.VDW>
-12.8176

>  <SCORE.INTER.norm>
-0.0993289

>  <SCORE.INTRA>
-3.02999

>  <SCORE.INTRA.DIHEDRAL>
-5.95726

>  <SCORE.INTRA.DIHEDRAL.0>
6.10773

>  <SCORE.INTRA.POLAR>
0

>  <SCORE.INTRA.POLAR.0>
0

>  <SCORE.INTRA.REPUL>
0

>  <SCORE.INTRA.REPUL.0>
0

>  <SCORE.INTRA.SOLV>
-1.2316

>  <SCORE.INTRA.SOLV.lig_0>
-71.4024

>  <SCORE.INTRA.VDW>
0.56444

>  <SCORE.INTRA.VDW.0>
-1.86213

>  <SCORE.INTRA.norm>
-0.137727

>  <SCORE.RESTR>
0

>  <SCORE.RESTR.CAVITY>
0

>  <SCORE.RESTR.norm>
0

>  <SCORE.SYSTEM>
0

>  <SCORE.SYSTEM.CONST>
0

>  <SCORE.SYSTEM.DIHEDRAL>
0

>  <SCORE.SYSTEM.SOLV>
0

>  <SCORE.SYSTEM.norm>
0

>  <SCORE.heavy>
22

>  <SCORE.norm>
-0.237056

>  <RMSD>
36.143

$$$$
lig.pdb
 OpenBabel11021811523D
libRbt.so/2013.1/901 2013/11/27
 22 23  0  0  0  0  0  0  0  0999 V2000
  -16.7131    5.1844  -31.9202 C   0  0  1  0  0  0  0  0  0  0  0  0
  -19.0743    5.8648  -32.5144 C   0  0  1  0  0  0  0  0  0  0  0  0
  -19.7321    5.6529  -31.0793 C   0  0  1  0  0  0  0  0  0  0  0  0
  -21.2984    5.4310  -31.2859 C   0  0  2  0  0  0  0  0  0  0  0  0
  -15.3049    5.8863  -31.8001 C   0  0  1  0  0  0  0  0  0  0  0  0
  -14.8751    6.3356  -33.2107 C   0  0  2  0  0  0  0  0  0  0  0  0
  -14.7360    5.1267  -34.1529 C   0  0  2  0  0  0  0  0  0  0  0  0
  -16.0991    4.3559  -34.2950 C   0  0  1  0  0  0  0  0  0  0  0  0
  -15.9498    3.1011  -35.2027 C   0  0  0  0  0  0  0  0  0  0  0  0
  -21.9370    6.7549  -31.9504 C   0  0  1  0  0  0  0  0  0  0  0  0
  -21.2484    6.9373  -33.3947 C   0  0  0  0  0  0  0  0  0  0  0  0
  -19.6712    7.1238  -33.2200 C   0  0  2  0  0  0  0  0  0  0  0  0
  -13.7172    4.2039  -33.6394 F   0  0  0  0  0  0  0  0  0  0  0  0
  -15.4520    7.0597  -30.8542 N   0  0  0  0  0  0  0  0  0  0  0  0
  -17.1567    2.4159  -35.4719 N   0  0  0  0  0  0  0  0  0  0  0  0
  -23.4126    6.5871  -32.1808 N   0  0  0  0  0  0  0  0  0  0  0  0
  -19.0458    7.2888  -34.5481 N   0  0  0  0  0  0  0  0  0  0  0  0
  -17.6767    6.0769  -32.3851 O   0  0  0  0  0  0  0  0  0  0  0  0
  -19.1317    4.4391  -30.4772 O   0  0  0  0  0  0  0  0  0  0  0  0
  -21.8493    5.2387  -30.0168 O   0  0  0  0  0  0  0  0  0  0  0  0
  -13.8474    6.8448  -33.1212 O   0  0  0  0  0  0  0  0  0  0  0  0
  -16.5562    3.9989  -32.8689 O   0  0  0  0  0  0  0  0  0  0  0  0
  1  5  1  0  0  0  0
  1 18  1  6  0  0  0
  2 18  1  1  0  0  0
  2  3  1  0  0  0  0
  2 12  1  0  0  0  0
  3 19  1  6  0  0  0
  3  4  1  0  0  0  0
  4 20  1  1  0  0  0
  4 10  1  0  0  0  0
  5  6  1  0  0  0  0
  5 14  1  1  0  0  0
  6 21  1  1  0  0  0
  7 13  1  1  0  0  0
  7  6  1  0  0  0  0
  8  9  1  6  0  0  0
  8  7  1  0  0  0  0
 10 16  1  6  0  0  0
 11 10  1  0  0  0  0
 12 17  1  6  0  0  0
 12 11  1  0  0  0  0
 15  9  1  0  0  0  0
 22  8  1  0  0  0  0
 22  1  1  0  0  0  0
M  END
>  <CHROM.1>
-173.96058896,65.03272172,-174.92670513,-17.85989009,5.50561506,-32.69915260
-0.32043453,0.03490110,0.88500025

>  <Name>
lig.pdb

>  <RI>
0

>  <Rbt.Current_Directory>
/home/itssahil/PROJECTS/Mol_Feturizer/New_Systems/rnas/5bws

>  <Rbt.Executable>
rbdock ($Id: //depot/dev/client3/rdock/2013.1/src/exe/rbdock.cxx#4 $)

>  <Rbt.Library>
libRbt.so (2013.1, Build901 2013/11/27)

>  <Rbt.Parameter_File>
/export/apps/rDock/src/rDock_2013.1_src/data/scripts/dock_solv.prm

>  <Rbt.Receptor>
prm/blind_docking_80.prm

>  <SCORE>
-6.94583

>  <SCORE.INTER>
-3.64388

>  <SCORE.INTER.CONST>
1

>  <SCORE.INTER.POLAR>
0

>  <SCORE.INTER.ROT>
3

>  <SCORE.INTER.SOLV>
20.5526

>  <SCORE.INTER.VDW>
-14.8801

>  <SCORE.INTER.norm>
-0.165631

>  <SCORE.INTRA>
-3.30195

>  <SCORE.INTRA.DIHEDRAL>
-5.71024

>  <SCORE.INTRA.DIHEDRAL.0>
6.10773

>  <SCORE.INTRA.POLAR>
0

>  <SCORE.INTRA.POLAR.0>
0

>  <SCORE.INTRA.REPUL>
0

>  <SCORE.INTRA.REPUL.0>
0

>  <SCORE.INTRA.SOLV>
-1.58628

>  <SCORE.INTRA.SOLV.lig_0>
-71.4024

>  <SCORE.INTRA.VDW>
0.346305

>  <SCORE.INTRA.VDW.0>
-1.86213

>  <SCORE.INTRA.norm>
-0.150089

>  <SCORE.RESTR>
0

>  <SCORE.RESTR.CAVITY>
0

>  <SCORE.RESTR.norm>
0

>  <SCORE.SYSTEM>
0

>  <SCORE.SYSTEM.CONST>
0

>  <SCORE.SYSTEM.DIHEDRAL>
0

>  <SCORE.SYSTEM.SOLV>
0

>  <SCORE.SYSTEM.norm>
0

>  <SCORE.heavy>
22

>  <SCORE.norm>
-0.31572

>  <RMSD>
36.327

$$$$
lig.pdb
 OpenBabel11021811523D
libRbt.so/2013.1/901 2013/11/27
 22 23  0  0  0  0  0  0  0  0999 V2000
  -20.6442    7.9350  -32.7470 C   0  0  1  0  0  0  0  0  0  0  0  0
  -21.1919    6.8889  -30.5116 C   0  0  1  0  0  0  0  0  0  0  0  0
  -21.9976    8.0970  -29.8570 C   0  0  1  0  0  0  0  0  0  0  0  0
  -21.9175    7.9376  -28.2717 C   0  0  2  0  0  0  0  0  0  0  0  0
  -21.0075    7.6853  -34.2622 C   0  0  1  0  0  0  0  0  0  0  0  0
  -20.4393    6.3109  -34.6678 C   0  0  2  0  0  0  0  0  0  0  0  0
  -18.9070    6.2873  -34.5259 C   0  0  2  0  0  0  0  0  0  0  0  0
  -18.4685    6.5629  -33.0413 C   0  0  1  0  0  0  0  0  0  0  0  0
  -16.9190    6.5949  -32.9036 C   0  0  0  0  0  0  0  0  0  0  0  0
  -22.6306    6.5557  -27.8424 C   0  0  1  0  0  0  0  0  0  0  0  0
  -21.7920    5.3608  -28.5226 C   0  0  0  0  0  0  0  0  0  0  0  0
  -21.8235    5.5174  -30.1123 C   0  0  2  0  0  0  0  0  0  0  0  0
  -18.3058    7.3032  -35.3975 F   0  0  0  0  0  0  0  0  0  0  0  0
  -22.5158    7.7327  -34.3901 N   0  0  0  0  0  0  0  0  0  0  0  0
  -16.2720    5.3710  -33.1900 N   0  0  0  0  0  0  0  0  0  0  0  0
  -22.5655    6.3522  -26.3548 N   0  0  0  0  0  0  0  0  0  0  0  0
  -21.0514    4.4196  -30.7296 N   0  0  0  0  0  0  0  0  0  0  0  0
  -21.2405    6.9791  -31.9274 O   0  0  0  0  0  0  0  0  0  0  0  0
  -21.3374    9.3595  -30.2651 O   0  0  0  0  0  0  0  0  0  0  0  0
  -22.6219    9.0115  -27.7223 O   0  0  0  0  0  0  0  0  0  0  0  0
  -20.7033    6.1320  -35.7731 O   0  0  0  0  0  0  0  0  0  0  0  0
  -19.1231    7.8931  -32.6263 O   0  0  0  0  0  0  0  0  0  0  0  0
  1  5  1  0  0  0  0
  1 18  1  1  0  0  0
  2 18  1  6  0  0  0
  2  3  1  0  0  0  0
  2 12  1  0  0  0  0
  3 19  1  1  0  0  0
  3  4  1  0  0  0  0
  4 20  1  1  0  0  0
  4 10  1  0  0  0  0
  5  6  1  0  0  0  0
  5 14  1  1  0  0  0
  6 21  1  6  0  0  0
  7 13  1  6  0  0  0
  7  6  1  0  0  0  0
  8  9  1  6  0  0  0
  8  7  1  0  0  0  0
 10 16  1  1  0  0  0
 11 10  1  0  0  0  0
 12 17  1  6  0  0  0
 12 11  1  0  0  0  0
 15  9  1  0  0  0  0
 22  8  1  0  0  0  0
 22  1  1  0  0  0  0
M  END
>  <CHROM.1>
-177.69886642,68.24426995,-64.12975457,-20.57894009,6.95666873,-31.68263721
1.00423949,0.52799308,-1.34005128

>  <Name>
lig.pdb

>  <RI>
0

>  <Rbt.Current_Directory>
/home/itssahil/PROJECTS/Mol_Feturizer/New_Systems/rnas/5bws

>  <Rbt.Executable>
rbdock ($Id: //depot/dev/client3/rdock/2013.1/src/exe/rbdock.cxx#4 $)

>  <Rbt.Library>
libRbt.so (2013.1, Build901 2013/11/27)

>  <Rbt.Parameter_File>
/export/apps/rDock/src/rDock_2013.1_src/data/scripts/dock_solv.prm

>  <Rbt.Receptor>
prm/blind_docking_60.prm

>  <SCORE>
-5.08687

>  <SCORE.INTER>
-2.01431

>  <SCORE.INTER.CONST>
1

>  <SCORE.INTER.POLAR>
0

>  <SCORE.INTER.ROT>
3

>  <SCORE.INTER.SOLV>
18.245

>  <SCORE.INTER.VDW>
-13.0245

>  <SCORE.INTER.norm>
-0.0915597

>  <SCORE.INTRA>
-3.07256

>  <SCORE.INTRA.DIHEDRAL>
-5.68707

>  <SCORE.INTRA.DIHEDRAL.0>
6.10773

>  <SCORE.INTRA.POLAR>
0

>  <SCORE.INTRA.POLAR.0>
0

>  <SCORE.INTRA.REPUL>
0

>  <SCORE.INTRA.REPUL.0>
0

>  <SCORE.INTRA.SOLV>
-1.02442

>  <SCORE.INTRA.SOLV.lig_0>
-71.4024

>  <SCORE.INTRA.VDW>
0.283184

>  <SCORE.INTRA.VDW.0>
-1.86213

>  <SCORE.INTRA.norm>
-0.139662

>  <SCORE.RESTR>
0

>  <SCORE.RESTR.CAVITY>
0

>  <SCORE.RESTR.norm>
0

>  <SCORE.SYSTEM>
0

>  <SCORE.SYSTEM.CONST>
0

>  <SCORE.SYSTEM.DIHEDRAL>
0

>  <SCORE.SYSTEM.SOLV>
0

>  <SCORE.SYSTEM.norm>
0

>  <SCORE.heavy>
22

>  <SCORE.norm>
-0.231222

>  <RMSD>
36.472

$$$$
lig.pdb
 OpenBabel11021811523D
libRbt.so/2013.1/901 2013/11/27
 22 23  0  0  0  0  0  0  0  0999 V2000
  -19.4023    7.5848  -33.1781 C   0  0  1  0  0  0  0  0  0  0  0  0
  -20.2180    6.1910  -31.2330 C   0  0  1  0  0  0  0  0  0  0  0  0
  -21.2944    7.1856  -30.6091 C   0  0  1  0  0  0  0  0  0  0  0  0
  -21.4731    6.8108  -29.0687 C   0  0  2  0  0  0  0  0  0  0  0  0
  -19.5732    7.5875  -34.7468 C   0  0  1  0  0  0  0  0  0  0  0  0
  -18.8785    6.3291  -35.3036 C   0  0  2  0  0  0  0  0  0  0  0  0
  -17.3742    6.3441  -34.9795 C   0  0  2  0  0  0  0  0  0  0  0  0
  -17.1267    6.3753  -33.4270 C   0  0  1  0  0  0  0  0  0  0  0  0
  -15.6082    6.4465  -33.0955 C   0  0  0  0  0  0  0  0  0  0  0  0
  -22.0408    5.3053  -28.9531 C   0  0  1  0  0  0  0  0  0  0  0  0
  -20.9297    4.3314  -29.5940 C   0  0  0  0  0  0  0  0  0  0  0  0
  -20.7026    4.7099  -31.1295 C   0  0  2  0  0  0  0  0  0  0  0  0
  -16.7407    7.5198  -35.5874 F   0  0  0  0  0  0  0  0  0  0  0  0
  -21.0569    7.5944  -35.0505 N   0  0  0  0  0  0  0  0  0  0  0  0
  -14.8597    5.3152  -33.4935 N   0  0  0  0  0  0  0  0  0  0  0  0
  -22.2102    4.8994  -27.5160 N   0  0  0  0  0  0  0  0  0  0  0  0
  -19.6816    3.8143  -31.7106 N   0  0  0  0  0  0  0  0  0  0  0  0
  -20.0286    6.4773  -32.6104 O   0  0  0  0  0  0  0  0  0  0  0  0
  -20.7644    8.5644  -30.7285 O   0  0  0  0  0  0  0  0  0  0  0  0
  -22.4127    7.7009  -28.5434 O   0  0  0  0  0  0  0  0  0  0  0  0
  -19.0024    6.3342  -36.4473 O   0  0  0  0  0  0  0  0  0  0  0  0
  -17.9054    7.5851  -32.8791 O   0  0  0  0  0  0  0  0  0  0  0  0
  1  5  1  0  0  0  0
  1 18  1  6  0  0  0
  2 18  1  6  0  0  0
  2  3  1  0  0  0  0
  2 12  1  0  0  0  0
  3 19  1  1  0  0  0
  3  4  1  0  0  0  0
  4 20  1  6  0  0  0
  4 10  1  0  0  0  0
  5  6  1  0  0  0  0
  5 14  1  1  0  0  0
  6 21  1  6  0  0  0
  7 13  1  6  0  0  0
  7  6  1  0  0  0  0
  8  9  1  6  0  0  0
  8  7  1  0  0  0  0
 10 16  1  1  0  0  0
 11 10  1  0  0  0  0
 12 17  1  1  0  0  0
 12 11  1  0  0  0  0
 15  9  1  0  0  0  0
 22  8  1  0  0  0  0
 22  1  1  0  0  0  0
M  END
>  <CHROM.1>
-172.92220183,70.66432971,-64.49468096,-19.47549636,6.45524993,-32.31959495
0.83868595,0.45624809,-1.07642885

>  <Name>
lig.pdb

>  <RI>
0

>  <Rbt.Current_Directory>
/home/itssahil/PROJECTS/Mol_Feturizer/New_Systems/rnas/5bws

>  <Rbt.Executable>
rbdock ($Id: //depot/dev/client3/rdock/2013.1/src/exe/rbdock.cxx#4 $)

>  <Rbt.Library>
libRbt.so (2013.1, Build901 2013/11/27)

>  <Rbt.Parameter_File>
/export/apps/rDock/src/rDock_2013.1_src/data/scripts/dock_solv.prm

>  <Rbt.Receptor>
prm/blind_docking_100.prm

>  <SCORE>
-4.07547

>  <SCORE.INTER>
-1.24868

>  <SCORE.INTER.CONST>
1

>  <SCORE.INTER.POLAR>
0

>  <SCORE.INTER.ROT>
3

>  <SCORE.INTER.SOLV>
17.8211

>  <SCORE.INTER.VDW>
-12.3728

>  <SCORE.INTER.norm>
-0.0567582

>  <SCORE.INTRA>
-2.8268

>  <SCORE.INTRA.DIHEDRAL>
-5.24104

>  <SCORE.INTRA.DIHEDRAL.0>
6.10773

>  <SCORE.INTRA.POLAR>
0

>  <SCORE.INTRA.POLAR.0>
0

>  <SCORE.INTRA.REPUL>
0

>  <SCORE.INTRA.REPUL.0>
0

>  <SCORE.INTRA.SOLV>
-0.948487

>  <SCORE.INTRA.SOLV.lig_0>
-71.4024

>  <SCORE.INTRA.VDW>
0.267968

>  <SCORE.INTRA.VDW.0>
-1.86213

>  <SCORE.INTRA.norm>
-0.128491

>  <SCORE.RESTR>
0

>  <SCORE.RESTR.CAVITY>
0

>  <SCORE.RESTR.norm>
0

>  <SCORE.SYSTEM>
0

>  <SCORE.SYSTEM.CONST>
0

>  <SCORE.SYSTEM.DIHEDRAL>
0

>  <SCORE.SYSTEM.SOLV>
0

>  <SCORE.SYSTEM.norm>
0

>  <SCORE.heavy>
22

>  <SCORE.norm>
-0.185249

>  <RMSD>
36.560

$$$$
lig.pdb
 OpenBabel11021811523D
libRbt.so/2013.1/901 2013/11/27
 22 23  0  0  0  0  0  0  0  0999 V2000
  -17.2926    4.7339  -34.7147 C   0  0  1  0  0  0  0  0  0  0  0  0
  -19.3478    4.0048  -33.4357 C   0  0  1  0  0  0  0  0  0  0  0  0
  -18.9648    4.4348  -31.9507 C   0  0  1  0  0  0  0  0  0  0  0  0
  -20.3206    4.6790  -31.1461 C   0  0  2  0  0  0  0  0  0  0  0  0
  -16.1215    4.0435  -35.5160 C   0  0  1  0  0  0  0  0  0  0  0  0
  -15.3251    3.1640  -34.5318 C   0  0  2  0  0  0  0  0  0  0  0  0
  -14.7080    4.0172  -33.4095 C   0  0  2  0  0  0  0  0  0  0  0  0
  -15.8195    4.7644  -32.5858 C   0  0  1  0  0  0  0  0  0  0  0  0
  -15.1974    5.6715  -31.4854 C   0  0  0  0  0  0  0  0  0  0  0  0
  -21.1338    5.8898  -31.8352 C   0  0  1  0  0  0  0  0  0  0  0  0
  -21.5010    5.4205  -33.3314 C   0  0  0  0  0  0  0  0  0  0  0  0
  -20.1595    5.1318  -34.1500 C   0  0  2  0  0  0  0  0  0  0  0  0
  -13.7888    5.0088  -33.9795 F   0  0  0  0  0  0  0  0  0  0  0  0
  -16.7421    3.2254  -36.6291 N   0  0  0  0  0  0  0  0  0  0  0  0
  -16.1338    6.4017  -30.7182 N   0  0  0  0  0  0  0  0  0  0  0  0
  -22.4306    6.1469  -31.1204 N   0  0  0  0  0  0  0  0  0  0  0  0
  -20.5034    4.7003  -35.5203 N   0  0  0  0  0  0  0  0  0  0  0  0
  -18.1717    3.7838  -34.1994 O   0  0  0  0  0  0  0  0  0  0  0  0
  -18.2122    3.3179  -31.3322 O   0  0  0  0  0  0  0  0  0  0  0  0
  -19.9586    5.0450  -29.8476 O   0  0  0  0  0  0  0  0  0  0  0  0
  -14.4707    2.6635  -35.1175 O   0  0  0  0  0  0  0  0  0  0  0  0
  -16.6601    5.5622  -33.5993 O   0  0  0  0  0  0  0  0  0  0  0  0
  1  5  1  0  0  0  0
  1 18  1  1  0  0  0
  2 18  1  6  0  0  0
  2  3  1  0  0  0  0
  2 12  1  0  0  0  0
  3 19  1  1  0  0  0
  3  4  1  0  0  0  0
  4 20  1  1  0  0  0
  4 10  1  0  0  0  0
  5  6  1  0  0  0  0
  5 14  1  6  0  0  0
  6 21  1  6  0  0  0
  7 13  1  6  0  0  0
  7  6  1  0  0  0  0
  8  9  1  1  0  0  0
  8  7  1  0  0  0  0
 10 16  1  1  0  0  0
 11 10  1  0  0  0  0
 12 17  1  6  0  0  0
 12 11  1  0  0  0  0
 15  9  1  0  0  0  0
 22  8  1  0  0  0  0
 22  1  1  0  0  0  0
M  END
>  <CHROM.1>
-179.42955958,-74.07242085,178.69358893,-17.78365361,4.62082591,-33.18525119
0.44304826,0.06515319,-1.89454908

>  <Name>
lig.pdb

>  <RI>
0

>  <Rbt.Current_Directory>
/home/itssahil/PROJECTS/Mol_Feturizer/New_Systems/rnas/5bws

>  <Rbt.Executable>
rbdock ($Id: //depot/dev/client3/rdock/2013.1/src/exe/rbdock.cxx#4 $)

>  <Rbt.Library>
libRbt.so (2013.1, Build901 2013/11/27)

>  <Rbt.Parameter_File>
/export/apps/rDock/src/rDock_2013.1_src/data/scripts/dock_solv.prm

>  <Rbt.Receptor>
prm/blind_docking_80.prm

>  <SCORE>
-6.34097

>  <SCORE.INTER>
-4.02866

>  <SCORE.INTER.CONST>
1

>  <SCORE.INTER.POLAR>
0

>  <SCORE.INTER.ROT>
3

>  <SCORE.INTER.SOLV>
12.2908

>  <SCORE.INTER.VDW>
-12.3827

>  <SCORE.INTER.norm>
-0.183121

>  <SCORE.INTRA>
-2.31231

>  <SCORE.INTRA.DIHEDRAL>
-5.16384

>  <SCORE.INTRA.DIHEDRAL.0>
6.10773

>  <SCORE.INTRA.POLAR>
0

>  <SCORE.INTRA.POLAR.0>
0

>  <SCORE.INTRA.REPUL>
0

>  <SCORE.INTRA.REPUL.0>
0

>  <SCORE.INTRA.SOLV>
0.713659

>  <SCORE.INTRA.SOLV.lig_0>
-71.4024

>  <SCORE.INTRA.VDW>
-0.0872143

>  <SCORE.INTRA.VDW.0>
-1.86213

>  <SCORE.INTRA.norm>
-0.105105

>  <SCORE.RESTR>
0

>  <SCORE.RESTR.CAVITY>
0

>  <SCORE.RESTR.norm>
0

>  <SCORE.SYSTEM>
0

>  <SCORE.SYSTEM.CONST>
0

>  <SCORE.SYSTEM.DIHEDRAL>
0

>  <SCORE.SYSTEM.SOLV>
0

>  <SCORE.SYSTEM.norm>
0

>  <SCORE.heavy>
22

>  <SCORE.norm>
-0.288226

>  <RMSD>
36.610

$$$$
lig.pdb
 OpenBabel11021811523D
libRbt.so/2013.1/901 2013/11/27
 22 23  0  0  0  0  0  0  0  0999 V2000
  -19.8647    7.8489  -33.1194 C   0  0  1  0  0  0  0  0  0  0  0  0
  -20.7123    8.1693  -30.7593 C   0  0  1  0  0  0  0  0  0  0  0  0
  -20.5751    9.7516  -30.6390 C   0  0  1  0  0  0  0  0  0  0  0  0
  -20.4511   10.1165  -29.0909 C   0  0  2  0  0  0  0  0  0  0  0  0
  -20.4940    7.5602  -34.5374 C   0  0  1  0  0  0  0  0  0  0  0  0
  -21.0580    6.1256  -34.5248 C   0  0  2  0  0  0  0  0  0  0  0  0
  -19.9399    5.0988  -34.2720 C   0  0  2  0  0  0  0  0  0  0  0  0
  -19.2422    5.3468  -32.8849 C   0  0  1  0  0  0  0  0  0  0  0  0
  -18.0746    4.3457  -32.6496 C   0  0  0  0  0  0  0  0  0  0  0  0
  -21.7990    9.6612  -28.3306 C   0  0  1  0  0  0  0  0  0  0  0  0
  -21.9046    8.0607  -28.4750 C   0  0  0  0  0  0  0  0  0  0  0  0
  -21.9919    7.6637  -30.0202 C   0  0  2  0  0  0  0  0  0  0  0  0
  -18.9316    5.1818  -35.3349 F   0  0  0  0  0  0  0  0  0  0  0  0
  -21.5769    8.5904  -34.7813 N   0  0  0  0  0  0  0  0  0  0  0  0
  -16.9837    4.4863  -33.5376 N   0  0  0  0  0  0  0  0  0  0  0  0
  -21.7226    9.9697  -26.8617 N   0  0  0  0  0  0  0  0  0  0  0  0
  -22.0869    6.1948  -30.1455 N   0  0  0  0  0  0  0  0  0  0  0  0
  -20.8358    7.7915  -32.1221 O   0  0  0  0  0  0  0  0  0  0  0  0
  -19.3381   10.1572  -31.3474 O   0  0  0  0  0  0  0  0  0  0  0  0
  -20.3228   11.5052  -29.0129 O   0  0  0  0  0  0  0  0  0  0  0  0
  -21.5142    5.9165  -35.5600 O   0  0  0  0  0  0  0  0  0  0  0  0
  -18.7696    6.8120  -32.8830 O   0  0  0  0  0  0  0  0  0  0  0  0
  1  5  1  0  0  0  0
  1 18  1  1  0  0  0
  2 18  1  6  0  0  0
  2  3  1  0  0  0  0
  2 12  1  0  0  0  0
  3 19  1  6  0  0  0
  3  4  1  0  0  0  0
  4 20  1  6  0  0  0
  4 10  1  0  0  0  0
  5  6  1  0  0  0  0
  5 14  1  1  0  0  0
  6 21  1  6  0  0  0
  7 13  1  6  0  0  0
  7  6  1  0  0  0  0
  8  9  1  6  0  0  0
  8  7  1  0  0  0  0
 10 16  1  1  0  0  0
 11 10  1  0  0  0  0
 12 17  1  1  0  0  0
 12 11  1  0  0  0  0
 15  9  1  0  0  0  0
 22  8  1  0  0  0  0
 22  1  1  0  0  0  0
M  END
>  <CHROM.1>
-170.50502590,69.51190745,65.57457166,-20.33479225,7.54585870,-31.92550822
1.07365315,1.04547249,-1.77544640

>  <Name>
lig.pdb

>  <RI>
0

>  <Rbt.Current_Directory>
/home/itssahil/PROJECTS/Mol_Feturizer/New_Systems/rnas/5bws

>  <Rbt.Executable>
rbdock ($Id: //depot/dev/client3/rdock/2013.1/src/exe/rbdock.cxx#4 $)

>  <Rbt.Library>
libRbt.so (2013.1, Build901 2013/11/27)

>  <Rbt.Parameter_File>
/export/apps/rDock/src/rDock_2013.1_src/data/scripts/dock_solv.prm

>  <Rbt.Receptor>
prm/blind_docking_80.prm

>  <SCORE>
-4.46418

>  <SCORE.INTER>
-2.23743

>  <SCORE.INTER.CONST>
1

>  <SCORE.INTER.POLAR>
0

>  <SCORE.INTER.ROT>
3

>  <SCORE.INTER.SOLV>
21.3173

>  <SCORE.INTER.VDW>
-14.1974

>  <SCORE.INTER.norm>
-0.101701

>  <SCORE.INTRA>
-2.22675

>  <SCORE.INTRA.DIHEDRAL>
-5.12105

>  <SCORE.INTRA.DIHEDRAL.0>
6.10773

>  <SCORE.INTRA.POLAR>
0

>  <SCORE.INTRA.POLAR.0>
0

>  <SCORE.INTRA.REPUL>
0

>  <SCORE.INTRA.REPUL.0>
0

>  <SCORE.INTRA.SOLV>
0.268347

>  <SCORE.INTRA.SOLV.lig_0>
-71.4024

>  <SCORE.INTRA.VDW>
0.199607

>  <SCORE.INTRA.VDW.0>
-1.86213

>  <SCORE.INTRA.norm>
-0.101216

>  <SCORE.RESTR>
0

>  <SCORE.RESTR.CAVITY>
0

>  <SCORE.RESTR.norm>
0

>  <SCORE.SYSTEM>
0

>  <SCORE.SYSTEM.CONST>
0

>  <SCORE.SYSTEM.DIHEDRAL>
0

>  <SCORE.SYSTEM.SOLV>
0

>  <SCORE.SYSTEM.norm>
0

>  <SCORE.heavy>
22

>  <SCORE.norm>
-0.202917

>  <RMSD>
36.630

$$$$
lig.pdb
 OpenBabel11021811523D
libRbt.so/2013.1/901 2013/11/27
 22 23  0  0  0  0  0  0  0  0999 V2000
  -20.2040    8.1351  -33.4037 C   0  0  1  0  0  0  0  0  0  0  0  0
  -20.6175    8.0708  -30.9104 C   0  0  1  0  0  0  0  0  0  0  0  0
  -20.6255    9.6508  -30.7088 C   0  0  1  0  0  0  0  0  0  0  0  0
  -20.3088    9.9507  -29.1742 C   0  0  2  0  0  0  0  0  0  0  0  0
  -20.9000    7.5824  -34.7075 C   0  0  1  0  0  0  0  0  0  0  0  0
  -20.8701    6.0423  -34.6469 C   0  0  2  0  0  0  0  0  0  0  0  0
  -19.4219    5.5227  -34.6124 C   0  0  2  0  0  0  0  0  0  0  0  0
  -18.6533    6.0625  -33.3514 C   0  0  1  0  0  0  0  0  0  0  0  0
  -17.1726    5.5847  -33.3415 C   0  0  0  0  0  0  0  0  0  0  0  0
  -21.4742    9.3128  -28.2593 C   0  0  1  0  0  0  0  0  0  0  0  0
  -21.4369    7.7194  -28.4904 C   0  0  0  0  0  0  0  0  0  0  0  0
  -21.7138    7.3916  -30.0294 C   0  0  2  0  0  0  0  0  0  0  0  0
  -18.7078    5.9441  -35.8231 F   0  0  0  0  0  0  0  0  0  0  0  0
  -22.3159    8.1187  -34.7389 N   0  0  0  0  0  0  0  0  0  0  0  0
  -16.4272    5.9846  -32.2088 N   0  0  0  0  0  0  0  0  0  0  0  0
  -21.2105    9.5553  -26.7997 N   0  0  0  0  0  0  0  0  0  0  0  0
  -21.6765    5.9292  -30.2348 N   0  0  0  0  0  0  0  0  0  0  0  0
  -20.9046    7.7492  -32.2629 O   0  0  0  0  0  0  0  0  0  0  0  0
  -19.5564   10.2245  -31.5598 O   0  0  0  0  0  0  0  0  0  0  0  0
  -20.3123   11.3395  -29.0256 O   0  0  0  0  0  0  0  0  0  0  0  0
  -21.3759    5.6416  -35.5992 O   0  0  0  0  0  0  0  0  0  0  0  0
  -18.7757    7.5968  -33.3819 O   0  0  0  0  0  0  0  0  0  0  0  0
  1  5  1  0  0  0  0
  1 18  1  1  0  0  0
  2 18  1  6  0  0  0
  2  3  1  0  0  0  0
  2 12  1  0  0  0  0
  3 19  1  6  0  0  0
  3  4  1  0  0  0  0
  4 20  1  6  0  0  0
  4 10  1  0  0  0  0
  5  6  1  0  0  0  0
  5 14  1  1  0  0  0
  6 21  1  6  0  0  0
  7 13  1  6  0  0  0
  7  6  1  0  0  0  0
  8  9  1  6  0  0  0
  8  7  1  0  0  0  0
 10 16  1  1  0  0  0
 11 10  1  0  0  0  0
 12 17  1  1  0  0  0
 12 11  1  0  0  0  0
 15  9  1  0  0  0  0
 22  8  1  0  0  0  0
 22  1  1  0  0  0  0
M  END
>  <CHROM.1>
-178.41969509,59.03901656,-177.55272312,-20.17853399,7.68239102,-32.04041224
1.34939279,0.29222647,-2.01239324

>  <Name>
lig.pdb

>  <RI>
0

>  <Rbt.Current_Directory>
/home/itssahil/PROJECTS/Mol_Feturizer/New_Systems/rnas/5bws

>  <Rbt.Executable>
rbdock ($Id: //depot/dev/client3/rdock/2013.1/src/exe/rbdock.cxx#4 $)

>  <Rbt.Library>
libRbt.so (2013.1, Build901 2013/11/27)

>  <Rbt.Parameter_File>
/export/apps/rDock/src/rDock_2013.1_src/data/scripts/dock_solv.prm

>  <Rbt.Receptor>
prm/blind_docking_100.prm

>  <SCORE>
-5.63754

>  <SCORE.INTER>
-2.2148

>  <SCORE.INTER.CONST>
1

>  <SCORE.INTER.POLAR>
0

>  <SCORE.INTER.ROT>
3

>  <SCORE.INTER.SOLV>
21.9351

>  <SCORE.INTER.VDW>
-14.3882

>  <SCORE.INTER.norm>
-0.100673

>  <SCORE.INTRA>
-3.42274

>  <SCORE.INTRA.DIHEDRAL>
-6.06676

>  <SCORE.INTRA.DIHEDRAL.0>
6.10773

>  <SCORE.INTRA.POLAR>
0

>  <SCORE.INTRA.POLAR.0>
0

>  <SCORE.INTRA.REPUL>
0

>  <SCORE.INTRA.REPUL.0>
0

>  <SCORE.INTRA.SOLV>
-1.71687

>  <SCORE.INTRA.SOLV.lig_0>
-71.4024

>  <SCORE.INTRA.VDW>
0.469074

>  <SCORE.INTRA.VDW.0>
-1.86213

>  <SCORE.INTRA.norm>
-0.155579

>  <SCORE.RESTR>
0

>  <SCORE.RESTR.CAVITY>
0

>  <SCORE.RESTR.norm>
0

>  <SCORE.SYSTEM>
0

>  <SCORE.SYSTEM.CONST>
0

>  <SCORE.SYSTEM.DIHEDRAL>
0

>  <SCORE.SYSTEM.SOLV>
0

>  <SCORE.SYSTEM.norm>
0

>  <SCORE.heavy>
22

>  <SCORE.norm>
-0.256252

>  <RMSD>
36.695

$$$$
lig.pdb
 OpenBabel11021811523D
libRbt.so/2013.1/901 2013/11/27
 22 23  0  0  0  0  0  0  0  0999 V2000
  -20.4003    8.1785  -33.5303 C   0  0  1  0  0  0  0  0  0  0  0  0
  -20.5560    7.9832  -31.0146 C   0  0  1  0  0  0  0  0  0  0  0  0
  -20.6231    9.5513  -30.7430 C   0  0  1  0  0  0  0  0  0  0  0  0
  -20.1732    9.8069  -29.2338 C   0  0  2  0  0  0  0  0  0  0  0  0
  -21.1469    7.5831  -34.7866 C   0  0  1  0  0  0  0  0  0  0  0  0
  -20.9570    6.0534  -34.7725 C   0  0  2  0  0  0  0  0  0  0  0  0
  -19.4663    5.6847  -34.8741 C   0  0  2  0  0  0  0  0  0  0  0  0
  -18.6502    6.2756  -33.6670 C   0  0  1  0  0  0  0  0  0  0  0  0
  -17.1336    5.9523  -33.7947 C   0  0  0  0  0  0  0  0  0  0  0  0
  -21.2102    9.0715  -28.2410 C   0  0  1  0  0  0  0  0  0  0  0  0
  -21.1162    7.4928  -28.5453 C   0  0  0  0  0  0  0  0  0  0  0  0
  -21.5256    7.2115  -30.0639 C   0  0  2  0  0  0  0  0  0  0  0  0
  -18.9052    6.2011  -36.1278 F   0  0  0  0  0  0  0  0  0  0  0  0
  -22.6071    7.9717  -34.6840 N   0  0  0  0  0  0  0  0  0  0  0  0
  -16.8088    4.5797  -33.6995 N   0  0  0  0  0  0  0  0  0  0  0  0
  -20.8174    9.2700  -26.8039 N   0  0  0  0  0  0  0  0  0  0  0  0
  -21.4356    5.7625  -30.3368 N   0  0  0  0  0  0  0  0  0  0  0  0
  -20.9576    7.7002  -32.3464 O   0  0  0  0  0  0  0  0  0  0  0  0
  -19.6723   10.2150  -31.6659 O   0  0  0  0  0  0  0  0  0  0  0  0
  -20.2314   11.1867  -29.0239 O   0  0  0  0  0  0  0  0  0  0  0  0
  -21.5001    5.6217  -35.6902 O   0  0  0  0  0  0  0  0  0  0  0  0
  -18.9286    7.7895  -33.6435 O   0  0  0  0  0  0  0  0  0  0  0  0
  1  5  1  0  0  0  0
  1 18  1  1  0  0  0
  2 18  1  6  0  0  0
  2  3  1  0  0  0  0
  2 12  1  0  0  0  0
  3 19  1  6  0  0  0
  3  4  1  0  0  0  0
  4 20  1  1  0  0  0
  4 10  1  0  0  0  0
  5  6  1  0  0  0  0
  5 14  1  1  0  0  0
  6 21  1  6  0  0  0
  7 13  1  6  0  0  0
  7  6  1  0  0  0  0
  8  9  1  6  0  0  0
  8  7  1  0  0  0  0
 10 16  1  1  0  0  0
 11 10  1  0  0  0  0
 12 17  1  6  0  0  0
 12 11  1  0  0  0  0
 15  9  1  0  0  0  0
 22  8  1  0  0  0  0
 22  1  1  0  0  0  0
M  END
>  <CHROM.1>
178.94316077,58.34621454,-65.73574399,-20.19144396,7.59934568,-32.22485925
1.36336615,0.49087528,-1.94911320

>  <Name>
lig.pdb

>  <RI>
0

>  <Rbt.Current_Directory>
/home/itssahil/PROJECTS/Mol_Feturizer/New_Systems/rnas/5bws

>  <Rbt.Executable>
rbdock ($Id: //depot/dev/client3/rdock/2013.1/src/exe/rbdock.cxx#4 $)

>  <Rbt.Library>
libRbt.so (2013.1, Build901 2013/11/27)

>  <Rbt.Parameter_File>
/export/apps/rDock/src/rDock_2013.1_src/data/scripts/dock_solv.prm

>  <Rbt.Receptor>
prm/blind_docking_60.prm

>  <SCORE>
-5.55399

>  <SCORE.INTER>
-2.46609

>  <SCORE.INTER.CONST>
1

>  <SCORE.INTER.POLAR>
0

>  <SCORE.INTER.ROT>
3

>  <SCORE.INTER.SOLV>
21.8787

>  <SCORE.INTER.VDW>
-14.537

>  <SCORE.INTER.norm>
-0.112095

>  <SCORE.INTRA>
-3.0879

>  <SCORE.INTRA.DIHEDRAL>
-5.96741

>  <SCORE.INTRA.DIHEDRAL.0>
6.10773

>  <SCORE.INTRA.POLAR>
0

>  <SCORE.INTRA.POLAR.0>
0

>  <SCORE.INTRA.REPUL>
0

>  <SCORE.INTRA.REPUL.0>
0

>  <SCORE.INTRA.SOLV>
-1.27704

>  <SCORE.INTRA.SOLV.lig_0>
-71.4024

>  <SCORE.INTRA.VDW>
0.534324

>  <SCORE.INTRA.VDW.0>
-1.86213

>  <SCORE.INTRA.norm>
-0.140359

>  <SCORE.RESTR>
0

>  <SCORE.RESTR.CAVITY>
0

>  <SCORE.RESTR.norm>
0

>  <SCORE.SYSTEM>
0

>  <SCORE.SYSTEM.CONST>
0

>  <SCORE.SYSTEM.DIHEDRAL>
0

>  <SCORE.SYSTEM.SOLV>
0

>  <SCORE.SYSTEM.norm>
0

>  <SCORE.heavy>
22

>  <SCORE.norm>
-0.252454

>  <RMSD>
36.827

$$$$
lig.pdb
 OpenBabel11021811523D
libRbt.so/2013.1/901 2013/11/27
 22 23  0  0  0  0  0  0  0  0999 V2000
  -20.4401    8.1776  -33.5025 C   0  0  1  0  0  0  0  0  0  0  0  0
  -20.5827    7.8481  -31.0001 C   0  0  1  0  0  0  0  0  0  0  0  0
  -20.6847    9.4026  -30.6683 C   0  0  1  0  0  0  0  0  0  0  0  0
  -20.2520    9.6085  -29.1465 C   0  0  2  0  0  0  0  0  0  0  0  0
  -21.1806    7.6355  -34.7862 C   0  0  1  0  0  0  0  0  0  0  0  0
  -20.9400    6.1151  -34.8682 C   0  0  2  0  0  0  0  0  0  0  0  0
  -19.4391    5.8038  -35.0061 C   0  0  2  0  0  0  0  0  0  0  0  0
  -18.6295    6.3468  -33.7724 C   0  0  1  0  0  0  0  0  0  0  0  0
  -17.1045    6.0834  -33.9336 C   0  0  0  0  0  0  0  0  0  0  0  0
  -21.2812    8.8136  -28.1920 C   0  0  1  0  0  0  0  0  0  0  0  0
  -21.1518    7.2503  -28.5566 C   0  0  0  0  0  0  0  0  0  0  0  0
  -21.5434    7.0201  -30.0885 C   0  0  2  0  0  0  0  0  0  0  0  0
  -18.9096    6.4148  -36.2306 F   0  0  0  0  0  0  0  0  0  0  0  0
  -22.6515    7.9675  -34.6465 N   0  0  0  0  0  0  0  0  0  0  0  0
  -16.7400    4.7185  -33.9867 N   0  0  0  0  0  0  0  0  0  0  0  0
  -20.9040    8.9640  -26.7450 N   0  0  0  0  0  0  0  0  0  0  0  0
  -21.4210    5.5850  -30.4167 N   0  0  0  0  0  0  0  0  0  0  0  0
  -20.9679    7.6091  -32.3452 O   0  0  0  0  0  0  0  0  0  0  0  0
  -19.7408   10.1214  -31.5565 O   0  0  0  0  0  0  0  0  0  0  0  0
  -20.3407   10.9774  -28.8837 O   0  0  0  0  0  0  0  0  0  0  0  0
  -21.4787    5.7224  -35.8057 O   0  0  0  0  0  0  0  0  0  0  0  0
  -18.9576    7.8462  -33.6530 O   0  0  0  0  0  0  0  0  0  0  0  0
  1  5  1  0  0  0  0
  1 18  1  1  0  0  0
  2 18  1  6  0  0  0
  2  3  1  0  0  0  0
  2 12  1  0  0  0  0
  3 19  1  6  0  0  0
  3  4  1  0  0  0  0
  4 20  1  1  0  0  0
  4 10  1  0  0  0  0
  5  6  1  0  0  0  0
  5 14  1  1  0  0  0
  6 21  1  6  0  0  0
  7 13  1  6  0  0  0
  7  6  1  0  0  0  0
  8  9  1  6  0  0  0
  8  7  1  0  0  0  0
 10 16  1  1  0  0  0
 11 10  1  0  0  0  0
 12 17  1  6  0  0  0
 12 11  1  0  0  0  0
 15  9  1  0  0  0  0
 22  8  1  0  0  0  0
 22  1  1  0  0  0  0
M  END
>  <CHROM.1>
-179.36070735,56.06183597,-63.01915129,-20.21509895,7.55353860,-32.24781608
1.35511571,0.40758992,-1.90487887

>  <Name>
lig.pdb

>  <RI>
0

>  <Rbt.Current_Directory>
/home/itssahil/PROJECTS/Mol_Feturizer/New_Systems/rnas/5bws

>  <Rbt.Executable>
rbdock ($Id: //depot/dev/client3/rdock/2013.1/src/exe/rbdock.cxx#4 $)

>  <Rbt.Library>
libRbt.so (2013.1, Build901 2013/11/27)

>  <Rbt.Parameter_File>
/export/apps/rDock/src/rDock_2013.1_src/data/scripts/dock_solv.prm

>  <Rbt.Receptor>
prm/blind_docking_100.prm

>  <SCORE>
-5.57946

>  <SCORE.INTER>
-2.54183

>  <SCORE.INTER.CONST>
1

>  <SCORE.INTER.POLAR>
0

>  <SCORE.INTER.ROT>
3

>  <SCORE.INTER.SOLV>
21.2787

>  <SCORE.INTER.VDW>
-14.3874

>  <SCORE.INTER.norm>
-0.115538

>  <SCORE.INTRA>
-3.03763

>  <SCORE.INTRA.DIHEDRAL>
-5.99363

>  <SCORE.INTRA.DIHEDRAL.0>
6.10773

>  <SCORE.INTRA.POLAR>
0

>  <SCORE.INTRA.POLAR.0>
0

>  <SCORE.INTRA.REPUL>
0

>  <SCORE.INTRA.REPUL.0>
0

>  <SCORE.INTRA.SOLV>
-1.27712

>  <SCORE.INTRA.SOLV.lig_0>
-71.4024

>  <SCORE.INTRA.VDW>
0.597744

>  <SCORE.INTRA.VDW.0>
-1.86213

>  <SCORE.INTRA.norm>
-0.138074

>  <SCORE.RESTR>
0

>  <SCORE.RESTR.CAVITY>
0

>  <SCORE.RESTR.norm>
0

>  <SCORE.SYSTEM>
0

>  <SCORE.SYSTEM.CONST>
0

>  <SCORE.SYSTEM.DIHEDRAL>
0

>  <SCORE.SYSTEM.SOLV>
0

>  <SCORE.SYSTEM.norm>
0

>  <SCORE.heavy>
22

>  <SCORE.norm>
-0.253612

>  <RMSD>
36.851

$$$$
lig.pdb
 OpenBabel11021811523D
libRbt.so/2013.1/901 2013/11/27
 22 23  0  0  0  0  0  0  0  0999 V2000
  -16.3656    5.2880  -35.5785 C   0  0  1  0  0  0  0  0  0  0  0  0
  -18.7211    5.5237  -34.6910 C   0  0  1  0  0  0  0  0  0  0  0  0
  -19.0843    6.9294  -35.3461 C   0  0  1  0  0  0  0  0  0  0  0  0
  -20.2481    7.5891  -34.4769 C   0  0  2  0  0  0  0  0  0  0  0  0
  -15.4666    4.0911  -36.0777 C   0  0  1  0  0  0  0  0  0  0  0  0
  -15.5027    2.9875  -35.0020 C   0  0  2  0  0  0  0  0  0  0  0  0
  -14.9300    3.5016  -33.6693 C   0  0  2  0  0  0  0  0  0  0  0  0
  -15.7597    4.7216  -33.1259 C   0  0  1  0  0  0  0  0  0  0  0  0
  -15.1513    5.2797  -31.8071 C   0  0  0  0  0  0  0  0  0  0  0  0
  -21.5541    6.6442  -34.5377 C   0  0  1  0  0  0  0  0  0  0  0  0
  -21.1491    5.2356  -33.8704 C   0  0  0  0  0  0  0  0  0  0  0  0
  -19.9573    4.5692  -34.7001 C   0  0  2  0  0  0  0  0  0  0  0  0
  -13.5339    3.9161  -33.8488 F   0  0  0  0  0  0  0  0  0  0  0  0
  -16.0288    3.6100  -37.3991 N   0  0  0  0  0  0  0  0  0  0  0  0
  -15.8729    6.3471  -31.2253 N   0  0  0  0  0  0  0  0  0  0  0  0
  -22.6756    7.2171  -33.7175 N   0  0  0  0  0  0  0  0  0  0  0  0
  -19.5897    3.2788  -34.0820 N   0  0  0  0  0  0  0  0  0  0  0  0
  -17.6927    4.8886  -35.4354 O   0  0  0  0  0  0  0  0  0  0  0  0
  -17.8750    7.7843  -35.2908 O   0  0  0  0  0  0  0  0  0  0  0  0
  -20.5413    8.8217  -35.0648 O   0  0  0  0  0  0  0  0  0  0  0  0
  -14.8450    2.1171  -35.3669 O   0  0  0  0  0  0  0  0  0  0  0  0
  -15.7895    5.7725  -34.2505 O   0  0  0  0  0  0  0  0  0  0  0  0
  1  5  1  0  0  0  0
  1 18  1  1  0  0  0
  2 18  1  6  0  0  0
  2  3  1  0  0  0  0
  2 12  1  0  0  0  0
  3 19  1  1  0  0  0
  3  4  1  0  0  0  0
  4 20  1  6  0  0  0
  4 10  1  0  0  0  0
  5  6  1  0  0  0  0
  5 14  1  6  0  0  0
  6 21  1  6  0  0  0
  7 13  1  6  0  0  0
  7  6  1  0  0  0  0
  8  9  1  1  0  0  0
  8  7  1  0  0  0  0
 10 16  1  1  0  0  0
 11 10  1  0  0  0  0
 12 17  1  1  0  0  0
 12 11  1  0  0  0  0
 15  9  1  0  0  0  0
 22  8  1  0  0  0  0
 22  1  1  0  0  0  0
M  END
>  <CHROM.1>
161.48154330,66.91769348,-177.59650013,-17.57298791,5.27820923,-34.48146665
0.32256403,0.37065944,-2.34050360

>  <Name>
lig.pdb

>  <RI>
0

>  <Rbt.Current_Directory>
/home/itssahil/PROJECTS/Mol_Feturizer/New_Systems/rnas/5bws

>  <Rbt.Executable>
rbdock ($Id: //depot/dev/client3/rdock/2013.1/src/exe/rbdock.cxx#4 $)

>  <Rbt.Library>
libRbt.so (2013.1, Build901 2013/11/27)

>  <Rbt.Parameter_File>
/export/apps/rDock/src/rDock_2013.1_src/data/scripts/dock_solv.prm

>  <Rbt.Receptor>
prm/blind_docking_100.prm

>  <SCORE>
-7.05583

>  <SCORE.INTER>
-4.39588

>  <SCORE.INTER.CONST>
1

>  <SCORE.INTER.POLAR>
0

>  <SCORE.INTER.ROT>
3

>  <SCORE.INTER.SOLV>
17.7949

>  <SCORE.INTER.VDW>
-14.4622

>  <SCORE.INTER.norm>
-0.199813

>  <SCORE.INTRA>
-2.65996

>  <SCORE.INTRA.DIHEDRAL>
-4.28736

>  <SCORE.INTRA.DIHEDRAL.0>
6.10773

>  <SCORE.INTRA.POLAR>
0

>  <SCORE.INTRA.POLAR.0>
0

>  <SCORE.INTRA.REPUL>
0

>  <SCORE.INTRA.REPUL.0>
0

>  <SCORE.INTRA.SOLV>
-1.32775

>  <SCORE.INTRA.SOLV.lig_0>
-71.4024

>  <SCORE.INTRA.VDW>
0.147596

>  <SCORE.INTRA.VDW.0>
-1.86213

>  <SCORE.INTRA.norm>
-0.120907

>  <SCORE.RESTR>
0

>  <SCORE.RESTR.CAVITY>
0

>  <SCORE.RESTR.norm>
0

>  <SCORE.SYSTEM>
0

>  <SCORE.SYSTEM.CONST>
0

>  <SCORE.SYSTEM.DIHEDRAL>
0

>  <SCORE.SYSTEM.SOLV>
0

>  <SCORE.SYSTEM.norm>
0

>  <SCORE.heavy>
22

>  <SCORE.norm>
-0.32072

>  <RMSD>
37.797

$$$$
