@<TRIPOS>MOLECULE
5bws_rdock.pdb
 1948 2172 0 0 0
SMALL
GASTEIGER

@<TRIPOS>ATOM
      1  O5'       -4.9100   -1.9160    5.4180 O.3     1  U1         -0.2176
      2  C5'       -3.6620   -1.2590    5.5970 C.3     1  U1          0.2141
      3  C4'       -3.8300    0.1250    6.1740 C.3     1  U1          0.1802
      4  O4'       -4.4900    1.0030    5.2240 O.3     1  U1         -0.3306
      5  C3'       -4.6740    0.2540    7.4290 C.3     1  U1          0.1861
      6  O3'       -3.8970   -0.0960    8.5670 O.3     1  U1         -0.3112
      7  C2'       -4.9790    1.7480    7.4240 C.3     1  U1          0.2309
      8  O2'       -3.9150    2.5300    7.9290 O.3     1  U1         -0.2156
      9  C1'       -5.1830    2.0210    5.9280 C.3     1  U1          0.2420
     10   N.1      -6.6000    1.9700    5.5300 N.ar    1  U1         -0.2534
     11   C.2      -7.4260    3.0270    5.8990 C.ar    1  U1          0.3546
     12   O.2      -7.0200    4.0230    6.4720 O.2     1  U1         -0.2443
     13   N.3      -8.7490    2.8730    5.5590 N.ar    1  U1         -0.1530
     14   C4       -9.3140    1.8080    4.8850 C.ar    1  U1          0.2846
     15   O4      -10.5260    1.7900    4.7000 O.2     1  U1         -0.2650
     16   C5       -8.3920    0.7810    4.5020 C.ar    1  U1          0.0814
     17   C6       -7.1020    0.8920    4.8290 C.ar    1  U1          0.0870
     18    P.3     -4.4730   -1.1420    9.6480 P.3     2  U2          0.2141
     19  OP1       -3.3130   -1.8080   10.3030 O.3     2  U2         -0.4373
     20  OP2       -5.5290   -1.9590    9.0020 O.2     2  U2         -0.5172
     21  O5'       -5.1780   -0.2350   10.7410 O.3     2  U2         -0.3114
     22  C5'       -6.3530   -0.6670   11.4080 C.3     2  U2          0.1812
     23  C4'       -6.9900    0.5070   12.0990 C.3     2  U2          0.1773
     24  O4'       -6.0240    1.0470   13.0440 O.3     2  U2         -0.3307
     25  C3'       -7.3520    1.6860   11.1930 C.3     2  U2          0.1860
     26  O3'       -8.6920    1.5530   10.7170 O.3     2  U2         -0.3112
     27  C2'       -7.2600    2.8560   12.1610 C.3     2  U2          0.2309
     28  O2'       -8.3820    2.9010   13.0150 O.3     2  U2         -0.2156
     29  C1'       -6.0340    2.4630   12.9820 C.3     2  U2          0.2420
     30   N.1      -4.7550    2.8990   12.4020 N.ar    2  U2         -0.2534
     31   C.2      -4.4610    4.2480   12.4190 C.ar    2  U2          0.3546
     32   O.2      -5.2330    5.0830   12.8390 O.2     2  U2         -0.2443
     33   N.3      -3.2300    4.5820   11.9140 N.ar    2  U2         -0.1530
     34   C4       -2.2910    3.7250   11.3870 C.ar    2  U2          0.2846
     35   O4       -1.1960    4.1680   11.0460 O.2     2  U2         -0.2650
     36   C5       -2.6790    2.3490   11.3690 C.ar    2  U2          0.0814
     37   C6       -3.8670    1.9910   11.8690 C.ar    2  U2          0.0870
     38    P.3     -9.0670    2.0050    9.2200 P.3     3  G3          0.2141
     39  OP1      -10.5060    1.6950    9.0110 O.3     3  G3         -0.4373
     40  OP2       -8.0560    1.4190    8.3090 O.2     3  G3         -0.5172
     41  O5'       -8.9140    3.5920    9.2500 O.3     3  G3         -0.3114
     42  C5'       -9.8080    4.3860   10.0200 C.3     3  G3          0.1812
     43  C4'       -9.4100    5.8400    9.9630 C.3     3  G3          0.1773
     44  O4'       -8.2180    6.0800   10.7540 O.3     3  G3         -0.3307
     45  C3'       -9.0830    6.3880    8.5840 C.3     3  G3          0.1860
     46  O3'      -10.2600    6.8150    7.9260 O.3     3  G3         -0.3112
     47  C2'       -8.2030    7.5800    8.9210 C.3     3  G3          0.2309
     48  O2'       -8.9490    8.7170    9.3090 O.3     3  G3         -0.2156
     49  C1'       -7.3940    7.0240   10.0920 C.3     3  G3          0.2408
     50   N9       -6.1700    6.3570    9.6570 N.ar    3  G3         -0.2693
     51   C8       -5.9820    5.0280    9.3570 C.ar    3  G3          0.1817
     52   N7       -4.7480    4.7520    9.0150 N.ar    3  G3         -0.2173
     53   C5       -4.0890    5.9710    9.0940 C.ar    3  G3          0.1748
     54   C6       -2.7260    6.3080    8.8580 C.ar    3  G3          0.3023
     55   O6       -1.7930    5.5690    8.5300 O.2     3  G3         -0.2633
     56   N.1      -2.4970    7.6690    9.0520 N.ar    3  G3         -0.1709
     57   C.2      -3.4540    8.5870    9.4340 C.ar    3  G3          0.2606
     58   N.2      -3.0630    9.8560    9.5750 N.pl3   3  G3         -0.0859
     59   N.3      -4.7130    8.2810    9.6630 N.ar    3  G3         -0.1918
     60   C4       -4.9590    6.9700    9.4770 C.ar    3  G3          0.1723
     61    P.3    -10.3000    6.8390    6.3320 P.3     4  C4          0.2141
     62  OP1      -11.6820    7.1800    5.9100 O.3     4  C4         -0.4373
     63  OP2       -9.6610    5.5900    5.8320 O.2     4  C4         -0.5172
     64  O5'       -9.3750    8.0790    5.9700 O.3     4  C4         -0.3114
     65  C5'       -9.8150    9.4010    6.2320 C.3     4  C4          0.1812
     66  C4'       -8.6940   10.3720    6.0070 C.3     4  C4          0.1773
     67  O4'       -7.5990   10.0230    6.8910 O.3     4  C4         -0.3307
     68  C3'       -8.0430   10.3270    4.6400 C.3     4  C4          0.1860
     69  O3'       -8.8030   11.0110    3.6550 O.3     4  C4         -0.3112
     70  C2'       -6.7170   11.0110    4.9340 C.3     4  C4          0.2309
     71  O2'       -6.8270   12.4050    5.1070 O.3     4  C4         -0.2156
     72  C1'       -6.3650   10.3730    6.2760 C.3     4  C4          0.2420
     73   N.1      -5.5310    9.1660    6.1120 N.ar    4  C4         -0.2535
     74   C.2      -4.1520    9.3350    6.0120 C.ar    4  C4          0.3532
     75   O.2      -3.6860   10.4800    6.1160 O.2     4  C4         -0.2443
     76   N.3      -3.3650    8.2550    5.8170 N.ar    4  C4         -0.1739
     77   C4       -3.9070    7.0380    5.7480 C.ar    4  C4          0.1759
     78   N.4      -3.0870    6.0040    5.5670 N.pl3   4  C4         -0.1070
     79   C5       -5.3100    6.8310    5.8670 C.ar    4  C4          0.0566
     80   C6       -6.0800    7.9140    6.0450 C.ar    4  C4          0.0850
     81    P.3     -8.7660   10.5050    2.1220 P.3     5  G5          0.2141
     82  OP1       -9.7880   11.2830    1.3730 O.2     5  G5         -0.5172
     83  OP2       -8.8110    9.0180    2.1010 O.3     5  G5         -0.4373
     84  O5'       -7.3240   10.9260    1.5950 O.3     5  G5         -0.3114
     85  C5'       -6.9140   12.2780    1.6070 C.3     5  G5          0.1812
     86  C4'       -5.4240   12.3680    1.4100 C.3     5  G5          0.1773
     87  O4'       -4.7150   11.7740    2.5280 O.3     5  G5         -0.3307
     88  C3'       -4.8350   11.6230    0.2310 C.3     5  G5          0.1860
     89  O3'       -5.0720   12.3210   -0.9720 O.3     5  G5         -0.3112
     90  C2'       -3.3640   11.6790    0.5980 C.3     5  G5          0.2309
     91  O2'       -2.8380   12.9770    0.4320 O.3     5  G5         -0.2156
     92  C1'       -3.4330   11.3480    2.0890 C.3     5  G5          0.2408
     93   N9       -3.3200    9.9140    2.3070 N.ar    5  G5         -0.2693
     94   C8       -4.3150    9.0020    2.5790 C.ar    5  G5          0.1817
     95   N7       -3.8670    7.7800    2.6900 N.ar    5  G5         -0.2173
     96   C5       -2.5000    7.9020    2.4820 C.ar    5  G5          0.1748
     97   C6       -1.4700    6.9210    2.4620 C.ar    5  G5          0.3023
     98   O6       -1.5590    5.6940    2.6270 O.2     5  G5         -0.2633
     99   N.1      -0.2280    7.4990    2.2110 N.ar    5  G5         -0.1709
    100   C.2      -0.0050    8.8390    2.0020 C.ar    5  G5          0.2606
    101   N.2       1.2510    9.2200    1.7790 N.pl3   5  G5         -0.0859
    102   N.3      -0.9470    9.7460    2.0140 N.ar    5  G5         -0.1918
    103   C4       -2.1570    9.2150    2.2550 C.ar    5  G5          0.1723
    104    P.3     -5.1840   11.5160   -2.3520 P.3     6  U6          0.2141
    105  OP1       -5.4790   12.5440   -3.3860 O.2     6  U6         -0.5172
    106  OP2       -6.0980   10.3690   -2.1610 O.3     6  U6         -0.4373
    107  O5'       -3.7300   10.9230   -2.6070 O.3     6  U6         -0.3114
    108  C5'       -2.6300   11.7650   -2.9060 C.3     6  U6          0.1812
    109  C4'       -1.3790   10.9390   -3.0430 C.3     6  U6          0.1773
    110  O4'       -1.0400   10.3300   -1.7650 O.3     6  U6         -0.3307
    111  C3'       -1.5140    9.7460   -3.9630 C.3     6  U6          0.1860
    112  O3'       -1.3490   10.1050   -5.3140 O.3     6  U6         -0.3112
    113  C2'       -0.3710    8.8660   -3.5000 C.3     6  U6          0.2309
    114  O2'        0.8650    9.2930   -4.0140 O.3     6  U6         -0.2156
    115  C1'       -0.4560    9.0510   -1.9860 C.3     6  U6          0.2420
    116   N.1      -1.3350    8.0310   -1.3930 N.ar    6  U6         -0.2534
    117   C.2      -0.7880    6.7920   -1.1170 C.ar    6  U6          0.3546
    118   O.2       0.3790    6.5250   -1.3200 O.2     6  U6         -0.2443
    119   N.3      -1.6620    5.8740   -0.5970 N.ar    6  U6         -0.1530
    120   C4       -2.9980    6.0610   -0.3320 C.ar    6  U6          0.2846
    121   O4       -3.6450    5.1470    0.1760 O.2     6  U6         -0.2650
    122   C5       -3.4910    7.3700   -0.6410 C.ar    6  U6          0.0814
    123   C6       -2.6620    8.2880   -1.1410 C.ar    6  U6          0.0870
    124    P.3     -2.0730    9.2360   -6.4370 P.3     7  C7          0.2141
    125  OP1       -2.1600   10.0580   -7.6620 O.2     7  C7         -0.5172
    126  OP2       -3.3100    8.6860   -5.8200 O.3     7  C7         -0.4373
    127  O5'       -1.0820    8.0220   -6.7010 O.3     7  C7         -0.3114
    128  C5'        0.2020    8.2280   -7.2630 C.3     7  C7          0.1812
    129  C4'        1.0410    6.9860   -7.1030 C.3     7  C7          0.1773
    130  O4'        1.1800    6.6820   -5.6880 O.3     7  C7         -0.3307
    131  C3'        0.4470    5.6950   -7.6470 C.3     7  C7          0.1860
    132  O3'        0.5940    5.5490   -9.0480 O.3     7  C7         -0.3112
    133  C2'        1.2820    4.6600   -6.9210 C.3     7  C7          0.2309
    134  O2'        2.5710    4.5480   -7.4840 O.3     7  C7         -0.2156
    135  C1'        1.3420    5.2760   -5.5240 C.3     7  C7          0.2420
    136   N.1       0.2640    4.7600   -4.6730 N.ar    7  C7         -0.2535
    137   C.2       0.3940    3.4710   -4.1910 C.ar    7  C7          0.3532
    138   O.2       1.4300    2.8500   -4.4610 O.2     7  C7         -0.2443
    139   N.3      -0.6010    2.9320   -3.4500 N.ar    7  C7         -0.1739
    140   C4       -1.6940    3.6520   -3.1830 C.ar    7  C7          0.1759
    141   N.4      -2.6680    3.0750   -2.4620 N.pl3   7  C7         -0.1070
    142   C5       -1.8390    4.9900   -3.6430 C.ar    7  C7          0.0566
    143   C6       -0.8430    5.5010   -4.3750 C.ar    7  C7          0.0850
    144    P.3     -0.5310    4.7570   -9.8730 P.3     8  A8          0.2141
    145  OP1       -0.2510    4.9970  -11.3100 O.2     8  A8         -0.5172
    146  OP2       -1.8670    5.0910   -9.3190 O.3     8  A8         -0.4373
    147  O5'       -0.2810    3.2270   -9.5090 O.3     8  A8         -0.3114
    148  C5'        0.9750    2.6170   -9.7530 C.3     8  A8          0.1812
    149  C4'        1.0480    1.2680   -9.0810 C.3     8  A8          0.1773
    150  O4'        0.8610    1.4230   -7.6510 O.3     8  A8         -0.3307
    151  C3'       -0.0010    0.2300   -9.4460 C.3     8  A8          0.1860
    152  O3'        0.2530   -0.3820  -10.7090 O.3     8  A8         -0.3112
    153  C2'        0.1700   -0.7560   -8.2950 C.3     8  A8          0.2309
    154  O2'        1.2980   -1.6010   -8.4060 O.3     8  A8         -0.2156
    155  C1'        0.3660    0.2020   -7.1160 C.3     8  A8          0.2408
    156   N9       -0.9010    0.4520   -6.4330 N.ar    8  A8         -0.2693
    157   C8       -1.7300    1.5420   -6.5060 C.ar    8  A8          0.1816
    158   N7       -2.8100    1.4310   -5.7710 N.ar    8  A8         -0.2193
    159   C5       -2.6800    0.1850   -5.1740 C.ar    8  A8          0.1518
    160   C6       -3.4930   -0.5250   -4.2720 C.ar    8  A8          0.1919
    161   N6       -4.6410   -0.0570   -3.7850 N.pl3   8  A8         -0.1054
    162   N.1      -3.0750   -1.7450   -3.8770 N.ar    8  A8         -0.2040
    163   C.2      -1.9140   -2.2080   -4.3490 C.ar    8  A8          0.2016
    164   N.3      -1.0570   -1.6330   -5.1900 N.ar    8  A8         -0.2048
    165   C4       -1.5070   -0.4250   -5.5710 C.ar    8  A8          0.1692
    166    P.3     -0.9420   -0.5480  -11.7790 P.3     9  C9          0.2141
    167  OP1       -0.3430   -0.8150  -13.1040 O.2     9  C9         -0.5172
    168  OP2       -1.8740    0.5940  -11.6190 O.3     9  C9         -0.4373
    169  O5'       -1.7000   -1.8650  -11.3090 O.3     9  C9         -0.3114
    170  C5'       -0.9920   -3.0830  -11.1230 C.3     9  C9          0.1812
    171  C4'       -1.7740   -4.0110  -10.2210 C.3     9  C9          0.1773
    172  O4'       -1.8790   -3.4660   -8.8800 O.3     9  C9         -0.3307
    173  C3'       -3.2250   -4.2300  -10.5940 C.3     9  C9          0.1860
    174  O3'       -3.3520   -5.0930  -11.7090 O.3     9  C9         -0.3112
    175  C2'       -3.7730   -4.8260   -9.3080 C.3     9  C9          0.2309
    176  O2'       -3.4180   -6.1750   -9.1290 O.3     9  C9         -0.2156
    177  C1'       -3.0560   -3.9670   -8.2640 C.3     9  C9          0.2420
    178   N.1      -3.8700   -2.8200   -7.8460 N.ar    9  C9         -0.2535
    179   C.2      -4.8700   -3.0150   -6.8760 C.ar    9  C9          0.3532
    180   O.2      -5.0540   -4.1680   -6.4150 O.2     9  C9         -0.2443
    181   N.3      -5.6010   -1.9520   -6.4670 N.ar    9  C9         -0.1739
    182   C4       -5.3610   -0.7400   -6.9760 C.ar    9  C9          0.1759
    183   N.4      -6.0620    0.2930   -6.4950 N.pl3   9  C9         -0.1070
    184   C5       -4.3770   -0.5240   -7.9830 C.ar    9  C9          0.0566
    185   C6       -3.6590   -1.5810   -8.3840 C.ar    9  C9          0.0850
    186    P.3     -4.5500   -4.8690  -12.7530 P.3    10  G10         0.2141
    187  OP1       -4.2460   -5.7260  -13.9170 O.2    10  G10        -0.5172
    188  OP2       -4.7750   -3.4170  -12.9560 O.3    10  G10        -0.4373
    189  O5'       -5.8320   -5.4470  -12.0010 O.3    10  G10        -0.3114
    190  C5'       -5.9400   -6.8250  -11.6580 C.3    10  G10         0.1812
    191  C4'       -7.2140   -7.0740  -10.8780 C.3    10  G10         0.1773
    192  O4'       -7.1380   -6.4650   -9.5620 O.3    10  G10        -0.3307
    193  C3'       -8.4940   -6.4850  -11.4480 C.3    10  G10         0.1860
    194  O3'       -9.0280   -7.2280  -12.5320 O.3    10  G10        -0.3112
    195  C2'       -9.4070   -6.5150  -10.2320 C.3    10  G10         0.2309
    196  O2'       -9.9110   -7.7970   -9.9240 O.3    10  G10        -0.2156
    197  C1'       -8.4380   -6.0690   -9.1450 C.3    10  G10         0.2408
    198   N9       -8.4380   -4.6200   -8.9880 N.ar   10  G10        -0.2693
    199   C8       -7.5330   -3.7280   -9.5060 C.ar   10  G10         0.1817
    200   N7       -7.7610   -2.4940   -9.1380 N.ar   10  G10        -0.2173
    201   C5       -8.8860   -2.5780   -8.3360 C.ar   10  G10         0.1748
    202   C6       -9.5740   -1.5720   -7.6240 C.ar   10  G10         0.3023
    203   O6       -9.3030   -0.3680   -7.5430 O.2    10  G10        -0.2633
    204   N.1     -10.6760   -2.0890   -6.9490 N.ar   10  G10        -0.1709
    205   C.2     -11.0590   -3.4110   -6.9580 C.ar   10  G10         0.2606
    206   N.2     -12.1640   -3.7020   -6.2810 N.pl3  10  G10        -0.0859
    207   N.3     -10.4050   -4.3670   -7.5920 N.ar   10  G10        -0.1918
    208   C4       -9.3360   -3.8830   -8.2560 C.ar   10  G10         0.1723
    209    P.3     -9.8890   -6.4660  -13.6590 P.3    11  C11         0.2141
    210  OP1      -10.1800   -7.5000  -14.6800 O.2    11  C11        -0.5172
    211  OP2       -9.1970   -5.2130  -14.0480 O.3    11  C11        -0.4373
    212  O5'      -11.2400   -6.0490  -12.9260 O.3    11  C11        -0.3114
    213  C5'      -12.1500   -7.0350  -12.4610 C.3    11  C11         0.1812
    214  C4'      -13.2320   -6.3960  -11.6330 C.3    11  C11         0.1773
    215  O4'      -12.6390   -5.7500  -10.4760 O.3    11  C11        -0.3307
    216  C3'      -14.0410   -5.2830  -12.2780 C.3    11  C11         0.1860
    217  O3'      -15.0270   -5.7980  -13.1680 O.3    11  C11        -0.3112
    218  C2'      -14.6320   -4.6110  -11.0410 C.3    11  C11         0.2309
    219  O2'      -15.7040   -5.3010  -10.4290 O.3    11  C11        -0.2156
    220  C1'      -13.4250   -4.6300  -10.1030 C.3    11  C11         0.2420
    221   N.1     -12.6050   -3.4250  -10.2570 N.ar   11  C11        -0.2535
    222   C.2     -12.9650   -2.3120   -9.5390 C.ar   11  C11         0.3532
    223   O.2     -13.9440   -2.3970   -8.7930 O.2    11  C11        -0.2443
    224   N.3     -12.2550   -1.1780   -9.6640 N.ar   11  C11        -0.1739
    225   C4      -11.2080   -1.1390  -10.4840 C.ar   11  C11         0.1759
    226   N.4     -10.5310    0.0180  -10.5840 N.pl3  11  C11        -0.1070
    227   C5      -10.8050   -2.2780  -11.2390 C.ar   11  C11         0.0566
    228   C6      -11.5250   -3.3920  -11.0930 C.ar   11  C11         0.0850
    229    P.3    -15.5660   -4.8970  -14.3920 P.3    12  C12         0.2141
    230  OP1      -16.3940   -5.7970  -15.2200 O.2    12  C12        -0.5172
    231  OP2      -14.4820   -4.1190  -15.0270 O.3    12  C12        -0.4373
    232  O5'      -16.5530   -3.8700  -13.6980 O.3    12  C12        -0.3114
    233  C5'      -17.7100   -4.3260  -13.0330 C.3    12  C12         0.1812
    234  C4'      -18.3630   -3.1820  -12.3050 C.3    12  C12         0.1773
    235  O4'      -17.4810   -2.7010  -11.2540 O.3    12  C12        -0.3307
    236  C3'      -18.6340   -1.9380  -13.1340 C.3    12  C12         0.1860
    237  O3'      -19.8310   -2.0690  -13.8900 O.3    12  C12        -0.3112
    238  C2'      -18.7910   -0.8990  -12.0420 C.3    12  C12         0.2309
    239  O2'      -20.0370   -1.0210  -11.3950 O.3    12  C12        -0.2156
    240  C1'      -17.6520   -1.2980  -11.1040 C.3    12  C12         0.2420
    241   N.1     -16.3940   -0.6230  -11.4570 N.ar   12  C12        -0.2535
    242   C.2     -16.1700    0.6430  -10.9450 C.ar   12  C12         0.3532
    243   O.2     -17.0120    1.1230  -10.1750 O.2    12  C12        -0.2443
    244   N.3     -15.0500    1.3130  -11.2870 N.ar   12  C12        -0.1739
    245   C4      -14.1600    0.7500  -12.0990 C.ar   12  C12         0.1759
    246   N.4     -13.0770    1.4570  -12.4170 N.pl3  12  C12        -0.1070
    247   C5      -14.3440   -0.5610  -12.6230 C.ar   12  C12         0.0566
    248   C6      -15.4700   -1.2090  -12.2790 C.ar   12  C12         0.0850
    249    P.3    -19.9980   -1.2540  -15.2640 P.3    13  G13         0.2141
    250  OP1      -21.2560   -1.7350  -15.8680 O.3    13  G13        -0.4373
    251  OP2      -18.7450   -1.3000  -16.0460 O.2    13  G13        -0.5172
    252  O5'      -20.2040    0.2460  -14.7880 O.3    13  G13        -0.3114
    253  C5'      -21.3000    0.6030  -13.9670 C.3    13  G13         0.1812
    254  C4'      -21.1440    2.0240  -13.4910 C.3    13  G13         0.1773
    255  O4'      -19.9980    2.1460  -12.6030 O.3    13  G13        -0.3307
    256  C3'      -20.8490    3.0680  -14.5550 C.3    13  G13         0.1860
    257  O3'      -22.0050    3.3800  -15.3220 O.3    13  G13        -0.3112
    258  C2'      -20.3660    4.2160  -13.6820 C.3    13  G13         0.2309
    259  O2'      -21.4220    4.8260  -12.9770 O.3    13  G13        -0.2156
    260  C1'      -19.4660    3.4570  -12.7010 C.3    13  G13         0.2408
    261   N9      -18.0990    3.3550  -13.1960 N.ar   13  G13        -0.2693
    262   C8      -17.4600    2.2510  -13.7060 C.ar   13  G13         0.1817
    263   N7      -16.2400    2.5040  -14.1010 N.ar   13  G13        -0.2173
    264   C5      -16.0650    3.8540  -13.8200 C.ar   13  G13         0.1748
    265   C6      -14.9460    4.7040  -14.0150 C.ar   13  G13         0.3023
    266   O6      -13.8320    4.4250  -14.4740 O.2    13  G13        -0.2633
    267   N.1     -15.2150    6.0010  -13.6000 N.ar   13  G13        -0.1709
    268   C.2     -16.3990    6.4290  -13.0610 C.ar   13  G13         0.2606
    269   N.2     -16.4860    7.7270  -12.7430 N.pl3  13  G13        -0.0859
    270   N.3     -17.4340    5.6470  -12.8550 N.ar   13  G13        -0.1918
    271   C4      -17.2020    4.3860  -13.2580 C.ar   13  G13         0.1723
    272    P.3    -21.8450    4.0250  -16.7850 P.3    14  G14         0.2141
    273  OP1      -23.2110    4.1710  -17.3080 O.3    14  G14        -0.4373
    274  OP2      -20.8420    3.2650  -17.5640 O.2    14  G14        -0.5172
    275  O5'      -21.2960    5.4840  -16.4810 O.3    14  G14        -0.3114
    276  C5'      -22.0820    6.4090  -15.7270 C.3    14  G14         0.1812
    277  C4'      -21.4870    7.7930  -15.8100 C.3    14  G14         0.1773
    278  O4'      -20.2860    7.8800  -14.9950 O.3    14  G14        -0.3307
    279  C3'      -21.0230    8.1940  -17.1920 C.3    14  G14         0.1860
    280  O3'      -22.1090    8.6430  -17.9850 O.3    14  G14        -0.3112
    281  C2'      -20.0090    9.2760  -16.8680 C.3    14  G14         0.2309
    282  O2'      -20.6290   10.4790  -16.4650 O.3    14  G14        -0.2156
    283  C1'      -19.3100    8.6580  -15.6600 C.3    14  G14         0.2408
    284   N9      -18.1870    7.7880  -16.0020 N.ar   14  G14        -0.2693
    285   C8      -18.1910    6.4190  -16.1400 C.ar   14  G14         0.1817
    286   N7      -17.0210    5.9330  -16.4590 N.ar   14  G14        -0.2173
    287   C5      -16.1980    7.0470  -16.5380 C.ar   14  G14         0.1748
    288   C6      -14.8210    7.1500  -16.8440 C.ar   14  G14         0.3023
    289   O6      -14.0250    6.2440  -17.1250 O.2    14  G14        -0.2633
    290   N.1     -14.3870    8.4740  -16.8020 N.ar   14  G14        -0.1709
    291   C.2     -15.1800    9.5560  -16.5050 C.ar   14  G14         0.2606
    292   N.2     -14.5980   10.7580  -16.5140 N.pl3  14  G14        -0.0859
    293   N.3     -16.4590    9.4700  -16.2180 N.ar   14  G14        -0.1918
    294   C4      -16.9010    8.1960  -16.2530 C.ar   14  G14         0.1723
    295    P.3    -22.0270    8.5050  -19.5760 P.3    15  C15         0.2141
    296  OP1      -23.3050    9.0060  -20.1250 O.2    15  C15        -0.5172
    297  OP2      -21.5600    7.1410  -19.9140 O.3    15  C15        -0.4373
    298  O5'      -20.8750    9.5240  -19.9980 O.3    15  C15        -0.3114
    299  C5'      -21.0510   10.9220  -19.8220 C.3    15  C15         0.1812
    300  C4'      -19.8030   11.6550  -20.2170 C.3    15  C15         0.1773
    301  O4'      -18.7310   11.3100  -19.3050 O.3    15  C15        -0.3307
    302  C3'      -19.2250   11.3330  -21.5820 C.3    15  C15         0.1860
    303  O3'      -19.8830   12.0480  -22.6260 O.3    15  C15        -0.3112
    304  C2'      -17.8070   11.8350  -21.4120 C.3    15  C15         0.2309
    305  O2'      -17.7790   13.2410  -21.4520 O.3    15  C15        -0.2156
    306  C1'      -17.4940   11.3360  -20.0010 C.3    15  C15         0.2420
    307   N.1     -16.9360    9.9730  -20.0110 N.ar   15  C15        -0.2535
    308   C.2     -15.5730    9.8360  -20.1540 C.ar   15  C15         0.3532
    309   O.2     -14.8870   10.8590  -20.2190 O.2    15  C15        -0.2443
    310   N.3     -15.0320    8.6070  -20.2160 N.ar   15  C15        -0.1739
    311   C4      -15.8110    7.5310  -20.1320 C.ar   15  C15         0.1759
    312   N.4     -15.2320    6.3310  -20.2210 N.pl3  15  C15        -0.1070
    313   C5      -17.2190    7.6370  -19.9560 C.ar   15  C15         0.0566
    314   C6      -17.7360    8.8690  -19.9000 C.ar   15  C15         0.0850
    315    P.3    -19.9140   11.4390  -24.1170 P.3    16  G16         0.2141
    316  OP1      -20.6110   12.4640  -24.9300 O.2    16  G16        -0.5172
    317  OP2      -20.4050   10.0420  -24.1240 O.3    16  G16        -0.4373
    318  O5'      -18.3880   11.4310  -24.5600 O.3    16  G16        -0.3114
    319  C5'      -17.7320   12.6560  -24.8420 C.3    16  G16         0.1812
    320  C4'      -16.2510   12.4440  -25.0080 C.3    16  G16         0.1773
    321  O4'      -15.6960   11.7830  -23.8430 O.3    16  G16        -0.3307
    322  C3'      -15.7690   11.5540  -26.1360 C.3    16  G16         0.1860
    323  O3'      -15.8130   12.2380  -27.3740 O.3    16  G16        -0.3112
    324  C2'      -14.3210   11.3680  -25.7170 C.3    16  G16         0.2309
    325  O2'      -13.5440   12.5360  -25.9310 O.3    16  G16        -0.2156
    326  C1'      -14.4960   11.1270  -24.2170 C.3    16  G16         0.2408
    327   N9      -14.6410    9.7100  -23.9340 N.ar   16  G16        -0.2693
    328   C8      -15.7960    8.9980  -23.6970 C.ar   16  G16         0.1817
    329   N7      -15.5810    7.7250  -23.5010 N.ar   16  G16        -0.2173
    330   C5      -14.2030    7.5970  -23.6160 C.ar   16  G16         0.1748
    331   C6      -13.3780    6.4590  -23.5110 C.ar   16  G16         0.3023
    332   O6      -13.7100    5.2920  -23.2860 O.2    16  G16        -0.2633
    333   N.1     -12.0320    6.7850  -23.6970 N.ar   16  G16        -0.1709
    334   C.2     -11.5480    8.0520  -23.9500 C.ar   16  G16         0.2606
    335   N.2     -10.2120    8.1820  -24.1060 N.pl3  16  G16        -0.0859
    336   N.3     -12.3130    9.1180  -24.0470 N.ar   16  G16        -0.1918
    337   C4      -13.6160    8.8200  -23.8740 C.ar   16  G16         0.1723
    338    P.3    -16.8900   11.8110  -28.4810 P.3    17  A17         0.2141
    339  OP1      -17.9640   12.8360  -28.3980 O.2    17  A17        -0.5172
    340  OP2      -17.2250   10.3680  -28.3410 O.3    17  A17        -0.4373
    341  O5'      -16.1180   12.0030  -29.8600 O.3    17  A17        -0.3114
    342  C5'      -16.3330   13.1520  -30.6770 C.3    17  A17         0.1812
    343  C4'      -15.1220   13.4000  -31.5350 C.3    17  A17         0.1773
    344  O4'      -14.0450   13.9380  -30.7210 O.3    17  A17        -0.3307
    345  C3'      -14.5220   12.1510  -32.1520 C.3    17  A17         0.1860
    346  O3'      -15.1990   11.7740  -33.3430 O.3    17  A17        -0.3112
    347  C2'      -13.0970   12.6030  -32.4250 C.3    17  A17         0.2309
    348  O2'      -13.0190   13.4320  -33.5630 O.3    17  A17        -0.2156
    349  C1'      -12.8030   13.4140  -31.1640 C.3    17  A17         0.2408
    350   N9      -12.2270   12.5930  -30.0980 N.ar   17  A17        -0.2693
    351   C8      -12.7890   12.2220  -28.9020 C.ar   17  A17         0.1816
    352   N7      -12.0190   11.4460  -28.1750 N.ar   17  A17        -0.2193
    353   C5      -10.8720   11.3010  -28.9410 C.ar   17  A17         0.1518
    354   C6       -9.6760   10.5840  -28.7330 C.ar   17  A17         0.1919
    355   N6       -9.4340    9.8420  -27.6490 N.pl3  17  A17        -0.1054
    356   N.1      -8.7250   10.6540  -29.6930 N.ar   17  A17        -0.2040
    357   C.2      -8.9720   11.3950  -30.7840 C.ar   17  A17         0.2016
    358   N.3     -10.0560   12.1060  -31.0950 N.ar   17  A17        -0.2048
    359   C4      -10.9800   12.0140  -30.1220 C.ar   17  A17         0.1692
    360    P.3    -15.2920   10.2180  -33.7440 P.3    18  A18         0.2141
    361  OP1      -16.0700   10.1100  -35.0040 O.2    18  A18        -0.5172
    362  OP2      -15.7480    9.4710  -32.5420 O.3    18  A18        -0.4373
    363  O5'      -13.7810    9.8140  -34.0580 O.3    18  A18        -0.3114
    364  C5'      -13.0140   10.5330  -35.0240 C.3    18  A18         0.1812
    365  C4'      -11.5790   10.0580  -35.0150 C.3    18  A18         0.1773
    366  O4'      -10.9350   10.4320  -33.7640 O.3    18  A18        -0.3307
    367  C3'      -11.3920    8.5530  -35.1190 C.3    18  A18         0.1860
    368  O3'      -11.4010    8.1230  -36.4770 O.3    18  A18        -0.3112
    369  C2'      -10.0420    8.3410  -34.4390 C.3    18  A18         0.2309
    370  O2'       -8.9310    8.5840  -35.2730 O.3    18  A18        -0.2156
    371  C1'      -10.1090    9.3700  -33.3100 C.3    18  A18         0.2408
    372   N9      -10.7040    8.8200  -32.0940 N.ar   18  A18        -0.2693
    373   C8      -12.0040    8.9380  -31.6640 C.ar   18  A18         0.1816
    374   N7      -12.2430    8.3300  -30.5290 N.ar   18  A18        -0.2193
    375   C5      -11.0180    7.7730  -30.1870 C.ar   18  A18         0.1518
    376   C6      -10.6040    6.9920  -29.0900 C.ar   18  A18         0.1919
    377   N6      -11.4140    6.6250  -28.0910 N.pl3  18  A18        -0.1054
    378   N.1      -9.3120    6.5960  -29.0560 N.ar   18  A18        -0.2040
    379   C.2      -8.5030    6.9630  -30.0570 C.ar   18  A18         0.2016
    380   N.3      -8.7740    7.6890  -31.1370 N.ar   18  A18        -0.2048
    381   C4      -10.0630    8.0670  -31.1420 C.ar   18  A18         0.1692
    382    P.3    -12.1420    6.7500  -36.8700 P.3    19  G19         0.2141
    383  OP1      -12.0890    6.6000  -38.3460 O.2    19  G19        -0.5172
    384  OP2      -13.4550    6.7230  -36.1710 O.3    19  G19        -0.4373
    385  O5'      -11.2290    5.6170  -36.2310 O.3    19  G19        -0.3114
    386  C5'       -9.8990    5.4320  -36.6840 C.3    19  G19         0.1812
    387  C4'       -9.1790    4.4800  -35.7730 C.3    19  G19         0.1773
    388  O4'       -9.1050    5.0600  -34.4470 O.3    19  G19        -0.3307
    389  C3'       -9.9110    3.1780  -35.5290 C.3    19  G19         0.1860
    390  O3'       -9.7650    2.2580  -36.5910 O.3    19  G19        -0.3112
    391  C2'       -9.2810    2.7060  -34.2340 C.3    19  G19         0.2309
    392  O2'       -8.0120    2.1090  -34.4060 O.3    19  G19        -0.2156
    393  C1'       -9.1810    4.0290  -33.4760 C.3    19  G19         0.2408
    394   N9      -10.3570    4.2640  -32.6510 N.ar   19  G19        -0.2693
    395   C8      -11.2290    5.3260  -32.6800 C.ar   19  G19         0.1817
    396   N7      -12.1820    5.2240  -31.7920 N.ar   19  G19        -0.2173
    397   C5      -11.9160    4.0230  -31.1480 C.ar   19  G19         0.1748
    398   C6      -12.5930    3.3720  -30.0910 C.ar   19  G19         0.3023
    399   O6      -13.6120    3.7340  -29.4840 O.2    19  G19        -0.2633
    400   N.1     -11.9670    2.1750  -29.7530 N.ar   19  G19        -0.1709
    401   C.2     -10.8410    1.6720  -30.3610 C.ar   19  G19         0.2606
    402   N.2     -10.3780    0.5040  -29.9250 N.pl3  19  G19        -0.0859
    403   N.3     -10.2110    2.2700  -31.3350 N.ar   19  G19        -0.1918
    404   C4      -10.7940    3.4270  -31.6750 C.ar   19  G19         0.1723
    405    P.3    -11.0040    1.3240  -36.9720 P.3    20  U20         0.2141
    406  OP1      -10.7140    0.6240  -38.2490 O.2    20  U20        -0.5172
    407  OP2      -12.2280    2.1680  -36.8540 O.3    20  U20        -0.4373
    408  O5'      -11.0030    0.2360  -35.8070 O.3    20  U20        -0.3114
    409  C5'       -9.8690   -0.5980  -35.6080 C.3    20  U20         0.1812
    410  C4'      -10.2230   -1.7610  -34.7230 C.3    20  U20         0.1773
    411  O4'      -10.3890   -1.3100  -33.3600 O.3    20  U20        -0.3307
    412  C3'      -11.5300   -2.4640  -35.0380 C.3    20  U20         0.1860
    413  O3'      -11.3780   -3.3900  -36.0980 O.3    20  U20        -0.3112
    414  C2'      -11.8290   -3.1570  -33.7190 C.3    20  U20         0.2309
    415  O2'      -11.0460   -4.3210  -33.5330 O.3    20  U20        -0.2156
    416  C1'      -11.4030   -2.0760  -32.7240 C.3    20  U20         0.2420
    417   N.1     -12.4810   -1.1620  -32.3120 N.ar   20  U20        -0.2534
    418   C.2     -13.4450   -1.6360  -31.4300 C.ar   20  U20         0.3546
    419   O.2     -13.4760   -2.7910  -31.0240 O.2    20  U20        -0.2443
    420   N.3     -14.3800   -0.7060  -31.0450 N.ar   20  U20        -0.1530
    421   C4      -14.4570    0.6140  -31.4420 C.ar   20  U20         0.2846
    422   O4      -15.2840    1.3600  -30.9060 O.2    20  U20        -0.2650
    423   C5      -13.4520    1.0150  -32.3810 C.ar   20  U20         0.0814
    424   C6      -12.5240    0.1370  -32.7740 C.ar   20  U20         0.0870
    425    P.3    -12.4950   -3.4590  -37.2390 P.3    21  C21         0.2141
    426  OP1      -11.8980   -4.1290  -38.4170 O.2    21  C21        -0.5172
    427  OP2      -13.0570   -2.0960  -37.3760 O.3    21  C21        -0.4373
    428  O5'      -13.6000   -4.4130  -36.6170 O.3    21  C21        -0.3114
    429  C5'      -13.2140   -5.6360  -36.0220 C.3    21  C21         0.1812
    430  C4'      -14.1520   -5.9850  -34.9070 C.3    21  C21         0.1773
    431  O4'      -14.0930   -4.9790  -33.8650 O.3    21  C21        -0.3307
    432  C3'      -15.6200   -5.9970  -35.2730 C.3    21  C21         0.1860
    433  O3'      -15.9440   -7.1970  -35.9570 O.3    21  C21        -0.3112
    434  C2'      -16.2550   -5.9370  -33.8950 C.3    21  C21         0.2309
    435  O2'      -16.1560   -7.1670  -33.2270 O.3    21  C21        -0.2156
    436  C1'      -15.3480   -4.9210  -33.2020 C.3    21  C21         0.2420
    437   N.1     -15.8480   -3.5500  -33.3100 N.ar   21  C21        -0.2535
    438   C.2     -16.9170   -3.1910  -32.5170 C.ar   21  C21         0.3532
    439   O.2     -17.4070   -4.0560  -31.7730 O.2    21  C21        -0.2443
    440   N.3     -17.3940   -1.9230  -32.5750 N.ar   21  C21        -0.1739
    441   C4      -16.8330   -1.0380  -33.3980 C.ar   21  C21         0.1759
    442   N.4     -17.3240    0.2040  -33.4060 N.pl3  21  C21        -0.1070
    443   C5      -15.7400   -1.3860  -34.2420 C.ar   21  C21         0.0566
    444   C6      -15.2810   -2.6450  -34.1640 C.ar   21  C21         0.0850
    445    P.3    -16.9490   -7.1510  -37.2080 P.3    22  G22         0.2141
    446  OP1      -16.8230   -8.4700  -37.8900 O.3    22  G22        -0.4373
    447  OP2      -16.6770   -5.8940  -37.9650 O.2    22  G22        -0.5172
    448  O5'      -18.3910   -7.0700  -36.5320 O.3    22  G22        -0.3114
    449  C5'      -18.8660   -8.1610  -35.7560 C.3    22  G22         0.1812
    450  C4'      -20.1520   -7.8070  -35.0530 C.3    22  G22         0.1773
    451  O4'      -19.9230   -6.7570  -34.0860 O.3    22  G22        -0.3307
    452  C3'      -21.2830   -7.2570  -35.8990 C.3    22  G22         0.1860
    453  O3'      -21.9710   -8.2950  -36.5680 O.3    22  G22        -0.3112
    454  C2'      -22.1670   -6.6410  -34.8310 C.3    22  G22         0.2309
    455  O2'      -22.8930   -7.6200  -34.1170 O.3    22  G22        -0.2156
    456  C1'      -21.1180   -6.0190  -33.9120 C.3    22  G22         0.2408
    457   N9      -20.8470   -4.6100  -34.1840 N.ar   22  G22        -0.2693
    458   C8      -19.8060   -4.0590  -34.8980 C.ar   22  G22         0.1817
    459   N7      -19.8200   -2.7510  -34.8910 N.ar   22  G22        -0.2173
    460   C5      -20.9450   -2.4260  -34.1370 C.ar   22  G22         0.1748
    461   C6      -21.4740   -1.1570  -33.7460 C.ar   22  G22         0.3023
    462   O6      -21.0270   -0.0240  -33.9840 O.2    22  G22        -0.2633
    463   N.1     -22.6310   -1.3010  -32.9840 N.ar   22  G22        -0.1709
    464   C.2     -23.1950   -2.5050  -32.6260 C.ar   22  G22         0.2606
    465   N.2     -24.3040   -2.4620  -31.8760 N.pl3  22  G22        -0.0859
    466   N.3     -22.7100   -3.6760  -32.9740 N.ar   22  G22        -0.1918
    467   C4      -21.5960   -3.5640  -33.7190 C.ar   22  G22         0.1723
    468    P.3    -22.5570   -8.0300  -38.0310 P.3    23  C23         0.2141
    469  OP1      -23.1080   -9.3290  -38.4940 O.3    23  C23        -0.4373
    470  OP2      -21.5140   -7.3430  -38.8420 O.2    23  C23        -0.5172
    471  O5'      -23.7740   -7.0350  -37.7800 O.3    23  C23        -0.3114
    472  C5'      -24.9750   -7.5200  -37.2060 C.3    23  C23         0.1813
    473  C4'      -25.8930   -6.3840  -36.8400 C.3    23  C23         0.1801
    474  O4'      -25.2760   -5.5160  -35.8560 O.3    23  C23        -0.3306
    475  C3'      -26.2770   -5.4050  -37.9300 C.3    23  C23         0.2161
    476  O3'      -27.0930   -5.9010  -38.9890 O.3    23  C23        -0.2175
    477  C2'      -26.8880   -4.2910  -37.0940 C.3    23  C23         0.2338
    478  O2'      -28.1900   -4.6200  -36.6450 O.3    23  C23        -0.2155
    479  C1'      -25.8960   -4.2360  -35.9210 C.3    23  C23         0.2421
    480   N.1     -24.8600   -3.2100  -36.1470 N.ar   23  C23        -0.2535
    481   C.2     -25.1410   -1.9090  -35.7620 C.ar   23  C23         0.3532
    482   O.2     -26.2140   -1.6880  -35.1910 O.2    23  C23        -0.2443
    483   N.3     -24.2470   -0.9260  -36.0190 N.ar   23  C23        -0.1739
    484   C4      -23.1020   -1.2140  -36.6360 C.ar   23  C23         0.1759
    485   N.4     -22.2660   -0.2070  -36.9040 N.pl3  23  C23        -0.1070
    486   C5      -22.7680   -2.5480  -37.0130 C.ar   23  C23         0.0566
    487   C6      -23.6670   -3.5100  -36.7470 C.ar   23  C23         0.0850
    488  O5'      -16.8320   12.2280  -36.8180 O.3    24  U24        -0.2176
    489  C5'      -16.5500   13.2920  -35.9020 C.3    24  U24         0.2141
    490  C4'      -17.6130   13.4110  -34.8320 C.3    24  U24         0.1802
    491  O4'      -17.3410   14.5700  -34.0020 O.3    24  U24        -0.3306
    492  C3'      -19.0190   13.6830  -35.3370 C.3    24  U24         0.1861
    493  O3'      -19.9360   13.4490  -34.2790 O.3    24  U24        -0.3112
    494  C2'      -18.9550   15.1760  -35.6400 C.3    24  U24         0.2309
    495  O2'      -20.2210   15.8000  -35.6180 O.3    24  U24        -0.2156
    496  C1'      -18.0610   15.6850  -34.5020 C.3    24  U24         0.2420
    497   N.1     -17.0810   16.6910  -34.9300 N.ar   24  U24        -0.2534
    498   C.2     -17.5520   17.9220  -35.3440 C.ar   24  U24         0.3546
    499   O.2     -18.7380   18.2100  -35.3520 O.2    24  U24        -0.2443
    500   N.3     -16.5810   18.8050  -35.7470 N.ar   24  U24        -0.1530
    501   C4      -15.2160   18.5860  -35.7730 C.ar   24  U24         0.2846
    502   O4      -14.4670   19.4720  -36.1850 O.2    24  U24        -0.2650
    503   C5      -14.8120   17.2910  -35.3180 C.ar   24  U24         0.0814
    504   C6      -15.7340   16.4110  -34.9230 C.ar   24  U24         0.0870
    505    P.3    -20.6350   12.0110  -34.1390 P.3    25  U25         0.2141
    506  OP1      -21.5100   12.0870  -32.9350 O.3    25  U25        -0.4373
    507  OP2      -19.5860   10.9620  -34.2230 O.2    25  U25        -0.5172
    508  O5'      -21.5350   11.8980  -35.4450 O.3    25  U25        -0.3114
    509  C5'      -22.6550   12.7480  -35.6200 C.3    25  U25         0.1812
    510  C4'      -23.8850   11.9260  -35.8570 C.3    25  U25         0.1773
    511  O4'      -23.8720   11.3790  -37.2010 O.3    25  U25        -0.3307
    512  C3'      -24.0420   10.7150  -34.9560 C.3    25  U25         0.1860
    513  O3'      -24.5920   11.0950  -33.6970 O.3    25  U25        -0.3112
    514  C2'      -25.0070    9.8750  -35.7760 C.3    25  U25         0.2309
    515  O2'      -26.3140   10.3880  -35.7130 O.3    25  U25        -0.2156
    516  C1'      -24.4540   10.0900  -37.1880 C.3    25  U25         0.2420
    517   N.1     -23.4110    9.1200  -37.5500 N.ar   25  U25        -0.2534
    518   C.2     -23.8020    7.8210  -37.8470 C.ar   25  U25         0.3546
    519   O.2     -24.9660    7.4480  -37.8070 O.2    25  U25        -0.2443
    520   N.3     -22.7790    6.9760  -38.1940 N.ar   25  U25        -0.1530
    521   C4      -21.4420    7.2860  -38.2730 C.ar   25  U25         0.2846
    522   O4      -20.6500    6.4400  -38.6780 O.2    25  U25        -0.2650
    523   C5      -21.1200    8.6390  -37.9360 C.ar   25  U25         0.0814
    524   C6      -22.0930    9.4890  -37.5960 C.ar   25  U25         0.0870
    525    P.3    -24.3710   10.1610  -32.4050 P.3    26  G26         0.2141
    526  OP1      -24.8250   10.9320  -31.2210 O.3    26  G26        -0.4373
    527  OP2      -22.9970    9.6040  -32.4250 O.2    26  G26        -0.5172
    528  O5'      -25.4020    8.9740  -32.6440 O.3    26  G26        -0.3114
    529  C5'      -26.7960    9.2380  -32.7140 C.3    26  G26         0.1812
    530  C4'      -27.5710    7.9530  -32.6240 C.3    26  G26         0.1773
    531  O4'      -27.5180    7.2380  -33.8850 O.3    26  G26        -0.3307
    532  C3'      -27.0310    6.9580  -31.6200 C.3    26  G26         0.1860
    533  O3'      -27.4150    7.2850  -30.2950 O.3    26  G26        -0.3112
    534  C2'      -27.6270    5.6550  -32.1250 C.3    26  G26         0.2309
    535  O2'      -28.9870    5.5050  -31.7930 O.3    26  G26        -0.2156
    536  C1'      -27.4900    5.8440  -33.6340 C.3    26  G26         0.2408
    537   N9      -26.2340    5.3220  -34.1480 N.ar   26  G26        -0.2693
    538   C8      -25.1460    6.0350  -34.5800 C.ar   26  G26         0.1817
    539   N7      -24.1830    5.2750  -35.0210 N.ar   26  G26        -0.2173
    540   C5      -24.6680    3.9850  -34.8590 C.ar   26  G26         0.1748
    541   C6      -24.0800    2.7330  -35.1680 C.ar   26  G26         0.3023
    542   O6      -22.9620    2.4970  -35.6490 O.2    26  G26        -0.2633
    543   N.1     -24.9320    1.6840  -34.8550 N.ar   26  G26        -0.1709
    544   C.2     -26.1790    1.8190  -34.3050 C.ar   26  G26         0.2606
    545   N.2     -26.8590    0.6860  -34.0800 N.pl3  26  G26        -0.0859
    546   N.3     -26.7270    2.9770  -34.0000 N.ar   26  G26        -0.1918
    547   C4      -25.9260    4.0050  -34.3090 C.ar   26  G26         0.1723
    548    P.3    -26.3940    6.9970  -29.0890 P.3    27  C27         0.2141
    549  OP1      -26.9220    7.7000  -27.8950 O.3    27  C27        -0.4373
    550  OP2      -25.0110    7.2830  -29.5590 O.2    27  C27        -0.5172
    551  O5'      -26.5440    5.4290  -28.8420 O.3    27  C27        -0.3114
    552  C5'      -27.7490    4.8990  -28.3040 C.3    27  C27         0.1812
    553  C4'      -27.7460    3.3950  -28.3850 C.3    27  C27         0.1773
    554  O4'      -27.6840    2.9740  -29.7780 O.3    27  C27        -0.3307
    555  C3'      -26.5580    2.6820  -27.7670 C.3    27  C27         0.1860
    556  O3'      -26.6130    2.6110  -26.3490 O.3    27  C27        -0.3112
    557  C2'      -26.6600    1.3260  -28.4370 C.3    27  C27         0.2309
    558  O2'      -27.7630    0.6040  -27.9560 O.3    27  C27        -0.2156
    559  C1'      -26.9520    1.7560  -29.8710 C.3    27  C27         0.2420
    560   N.1     -25.7190    1.9990  -30.6370 N.ar   27  C27        -0.2535
    561   C.2     -25.1160    0.9120  -31.2630 C.ar   27  C27         0.3532
    562   O.2     -25.6420   -0.2010  -31.1440 O.2    27  C27        -0.2443
    563   N.3     -23.9810    1.0960  -31.9730 N.ar   27  C27        -0.1739
    564   C4      -23.4420    2.3110  -32.0610 C.ar   27  C27         0.1759
    565   N.4     -22.3050    2.4400  -32.7610 N.pl3  27  C27        -0.1070
    566   C5      -24.0380    3.4470  -31.4320 C.ar   27  C27         0.0566
    567   C6      -25.1680    3.2470  -30.7360 C.ar   27  C27         0.0850
    568    P.3    -25.2460    2.7280  -25.5050 P.3    28  G28         0.2141
    569  OP1      -25.5910    2.9590  -24.0830 O.3    28  G28        -0.4373
    570  OP2      -24.3540    3.6970  -26.2140 O.2    28  G28        -0.5172
    571  O5'      -24.5900    1.2820  -25.6530 O.3    28  G28        -0.3114
    572  C5'      -25.3740    0.1060  -25.4870 C.3    28  G28         0.1812
    573  C4'      -24.7120   -1.0790  -26.1590 C.3    28  G28         0.1773
    574  O4'      -24.7220   -0.9430  -27.6050 O.3    28  G28        -0.3307
    575  C3'      -23.2440   -1.3440  -25.8730 C.3    28  G28         0.1860
    576  O3'      -23.0200   -1.8570  -24.5680 O.3    28  G28        -0.3112
    577  C2'      -22.9330   -2.3580  -26.9660 C.3    28  G28         0.2309
    578  O2'      -23.4550   -3.6420  -26.7120 O.3    28  G28        -0.2156
    579  C1'      -23.6670   -1.7290  -28.1510 C.3    28  G28         0.2408
    580   N9      -22.7590   -0.8330  -28.8460 N.ar   28  G28        -0.2693
    581   C8      -22.7530    0.5410  -28.8370 C.ar   28  G28         0.1817
    582   N7      -21.7630    1.0490  -29.5190 N.ar   28  G28        -0.2173
    583   C5      -21.0860   -0.0580  -30.0140 C.ar   28  G28         0.1748
    584   C6      -19.9340   -0.1420  -30.8220 C.ar   28  G28         0.3023
    585   O6      -19.2490    0.7860  -31.2980 O.2    28  G28        -0.2633
    586   N.1     -19.5960   -1.4700  -31.0830 N.ar   28  G28        -0.1709
    587   C.2     -20.2950   -2.5670  -30.6380 C.ar   28  G28         0.2606
    588   N.2     -19.8430   -3.7660  -31.0030 N.pl3  28  G28        -0.0859
    589   N.3     -21.3690   -2.4950  -29.8910 N.ar   28  G28        -0.1918
    590   C4      -21.7030   -1.2230  -29.6170 C.ar   28  G28         0.1723
    591    P.3    -21.6420   -1.5240  -23.7990 P.3    29  U29         0.2141
    592  OP1      -21.7540   -2.2550  -22.5110 O.3    29  U29        -0.4373
    593  OP2      -21.3490   -0.0690  -23.7930 O.2    29  U29        -0.5172
    594  O5'      -20.5110   -2.2200  -24.6780 O.3    29  U29        -0.3114
    595  C5'      -20.4700   -3.6300  -24.8280 C.3    29  U29         0.1812
    596  C4'      -19.3170   -4.0180  -25.7130 C.3    29  U29         0.1773
    597  O4'      -19.4770   -3.4300  -27.0290 O.3    29  U29        -0.3307
    598  C3'      -17.9590   -3.5170  -25.2730 C.3    29  U29         0.1860
    599  O3'      -17.4500   -4.3680  -24.2700 O.3    29  U29        -0.3112
    600  C2'      -17.1660   -3.6270  -26.5660 C.3    29  U29         0.2309
    601  O2'      -16.7910   -4.9490  -26.8690 O.3    29  U29        -0.2156
    602  C1'      -18.2040   -3.1530  -27.5830 C.3    29  U29         0.2420
    603   N.1     -18.1100   -1.7110  -27.8310 N.ar   29  U29        -0.2534
    604   C.2     -17.1330   -1.2820  -28.7050 C.ar   29  U29         0.3546
    605   O.2     -16.3510   -2.0480  -29.2400 O.2    29  U29        -0.2443
    606   N.3     -17.1000    0.0730  -28.9210 N.ar   29  U29        -0.1530
    607   C4      -17.9240    1.0160  -28.3570 C.ar   29  U29         0.2846
    608   O4      -17.8000    2.1950  -28.6800 O.2    29  U29        -0.2650
    609   C5      -18.8990    0.4940  -27.4490 C.ar   29  U29         0.0814
    610   C6      -18.9580   -0.8190  -27.2230 C.ar   29  U29         0.0870
    611    P.3    -16.5130   -3.7660  -23.1280 P.3    30  C30         0.2141
    612  OP1      -16.4570   -4.7620  -22.0240 O.3    30  C30        -0.4373
    613  OP2      -16.9750   -2.3850  -22.8580 O.2    30  C30        -0.5172
    614  O5'      -15.0880   -3.7110  -23.8260 O.3    30  C30        -0.3114
    615  C5'      -14.4870   -4.9060  -24.3010 C.3    30  C30         0.1812
    616  C4'      -13.2950   -4.5870  -25.1620 C.3    30  C30         0.1773
    617  O4'      -13.7230   -3.9400  -26.3830 O.3    30  C30        -0.3307
    618  C3'      -12.3000   -3.6050  -24.5790 C.3    30  C30         0.1860
    619  O3'      -11.4680   -4.2480  -23.6270 O.3    30  C30        -0.3112
    620  C2'      -11.5480   -3.1630  -25.8280 C.3    30  C30         0.2309
    621  O2'      -10.5780   -4.1050  -26.2560 O.3    30  C30        -0.2156
    622  C1'      -12.6920   -3.0860  -26.8460 C.3    30  C30         0.2420
    623   N.1     -13.2650   -1.7400  -26.9600 N.ar   30  C30        -0.2535
    624   C.2     -12.6680   -0.8460  -27.8230 C.ar   30  C30         0.3532
    625   O.2     -11.6940   -1.2270  -28.4740 O.2    30  C30        -0.2443
    626   N.3     -13.1650    0.4090  -27.9340 N.ar   30  C30        -0.1739
    627   C4      -14.2290    0.7700  -27.2210 C.ar   30  C30         0.1759
    628   N.4     -14.6850    2.0150  -27.3740 N.pl3  30  C30        -0.1070
    629   C5      -14.8730   -0.1330  -26.3240 C.ar   30  C30         0.0566
    630   C6      -14.3610   -1.3700  -26.2270 C.ar   30  C30         0.0850
    631    P.3    -10.7780   -3.3860  -22.4640 P.3    31  A31         0.2141
    632  OP1      -10.0320   -4.3400  -21.6070 O.3    31  A31        -0.4373
    633  OP2      -11.7840   -2.4890  -21.8530 O.2    31  A31        -0.5172
    634  O5'       -9.6990   -2.5150  -23.2390 O.3    31  A31        -0.3114
    635  C5'       -8.6170   -3.1490  -23.9050 C.3    31  A31         0.1812
    636  C4'       -7.8940   -2.1580  -24.7720 C.3    31  A31         0.1773
    637  O4'       -8.8080   -1.6660  -25.7800 O.3    31  A31        -0.3307
    638  C3'       -7.4650   -0.8940  -24.0620 C.3    31  A31         0.1860
    639  O3'       -6.2630   -1.0890  -23.3370 O.3    31  A31        -0.3112
    640  C2'       -7.2900    0.0610  -25.2270 C.3    31  A31         0.2309
    641  O2'       -6.0820   -0.1580  -25.9150 O.3    31  A31        -0.2156
    642  C1'       -8.4840   -0.3260  -26.1000 C.3    31  A31         0.2408
    643   N9       -9.6540    0.5070  -25.8270 N.ar   31  A31        -0.2693
    644   C8      -10.7280    0.2380  -25.0100 C.ar   31  A31         0.1816
    645   N7      -11.6050    1.2090  -24.9590 N.ar   31  A31        -0.2193
    646   C5      -11.0760    2.1820  -25.7990 C.ar   31  A31         0.1518
    647   C6      -11.5210    3.4620  -26.1600 C.ar   31  A31         0.1919
    648   N6      -12.6400    4.0180  -25.6900 N.pl3  31  A31        -0.1054
    649   N.1     -10.7630    4.1690  -27.0280 N.ar   31  A31        -0.2040
    650   C.2      -9.6320    3.6220  -27.4840 C.ar   31  A31         0.2016
    651   N.3      -9.1010    2.4360  -27.2070 N.ar   31  A31        -0.2048
    652   C4       -9.8830    1.7580  -26.3480 C.ar   31  A31         0.1692
    653    P.3     -6.0710   -0.3570  -21.9210 P.3    32  C32         0.2141
    654  OP1       -4.8640   -0.9320  -21.2780 O.2    32  C32        -0.5172
    655  OP2       -7.3730   -0.4000  -21.1970 O.3    32  C32        -0.4373
    656  O5'       -5.7920    1.1600  -22.3200 O.3    32  C32        -0.3114
    657  C5'       -4.6920    1.5110  -23.1400 C.3    32  C32         0.1812
    658  C4'       -4.8210    2.9440  -23.5920 C.3    32  C32         0.1773
    659  O4'       -5.9050    3.0710  -24.5570 O.3    32  C32        -0.3307
    660  C3'       -5.1650    3.9570  -22.5140 C.3    32  C32         0.1860
    661  O3'       -4.0370    4.3260  -21.7200 O.3    32  C32        -0.3112
    662  C2'       -5.7420    5.0950  -23.3510 C.3    32  C32         0.2309
    663  O2'       -4.7860    5.8880  -24.0290 O.3    32  C32        -0.2156
    664  C1'       -6.5740    4.3090  -24.3640 C.3    32  C32         0.2420
    665   N.1      -7.9170    4.0110  -23.8510 N.ar   32  C32        -0.2535
    666   C.2      -8.9220    4.9500  -24.0330 C.ar   32  C32         0.3532
    667   O.2      -8.6400    6.0200  -24.6030 O.2    32  C32        -0.2443
    668   N.3     -10.1720    4.6780  -23.5830 N.ar   32  C32        -0.1739
    669   C4      -10.4210    3.5240  -22.9590 C.ar   32  C32         0.1759
    670   N.4     -11.6660    3.2950  -22.5370 N.pl3  32  C32        -0.1070
    671   C5       -9.4060    2.5530  -22.7440 C.ar   32  C32         0.0566
    672   C6       -8.1810    2.8330  -23.2050 C.ar   32  C32         0.0850
    673    P.3     -4.2590    4.8560  -20.2120 P.3    33  G33         0.2141
    674  OP1       -2.9340    5.0690  -19.5880 O.2    33  G33        -0.5172
    675  OP2       -5.2450    3.9670  -19.5450 O.3    33  G33        -0.4373
    676  O5'       -4.9150    6.2960  -20.4120 O.3    33  G33        -0.3114
    677  C5'       -4.2110    7.3400  -21.0860 C.3    33  G33         0.1812
    678  C4'       -5.0610    8.5920  -21.1470 C.3    33  G33         0.1773
    679  O4'       -6.2190    8.3680  -21.9950 O.3    33  G33        -0.3307
    680  C3'       -5.6840    9.0220  -19.8310 C.3    33  G33         0.1860
    681  O3'       -4.7730    9.7070  -18.9980 O.3    33  G33        -0.3112
    682  C2'       -6.8180    9.9170  -20.2980 C.3    33  G33         0.2309
    683  O2'       -6.3820   11.2210  -20.6400 O.3    33  G33        -0.2156
    684  C1'       -7.3190    9.1340  -21.5140 C.3    33  G33         0.2408
    685   N9       -8.3810    8.1900  -21.1780 N.ar   33  G33        -0.2693
    686   C8       -8.2520    6.8300  -21.0190 C.ar   33  G33         0.1817
    687   N7       -9.3800    6.2380  -20.7220 N.ar   33  G33        -0.2173
    688   C5      -10.3070    7.2680  -20.6840 C.ar   33  G33         0.1748
    689   C6      -11.6960    7.2370  -20.4190 C.ar   33  G33         0.3023
    690   O6      -12.4070    6.2590  -20.1290 O.2    33  G33        -0.2633
    691   N.1     -12.2580    8.5090  -20.5050 N.ar   33  G33        -0.1709
    692   C.2     -11.5640    9.6630  -20.7930 C.ar   33  G33         0.2606
    693   N.2     -12.2740   10.8020  -20.8240 N.pl3  33  G33        -0.0859
    694   N.3     -10.2650    9.7010  -21.0300 N.ar   33  G33        -0.1918
    695   C4       -9.7060    8.4790  -20.9640 C.ar   33  G33         0.1723
    696    P.3     -4.8440    9.4840  -17.4140 P.3    34  C34         0.2141
    697  OP1       -3.5650    9.9840  -16.8620 O.3    34  C34        -0.4373
    698  OP2       -5.2380    8.0750  -17.1650 O.2    34  C34        -0.5172
    699  O5'       -6.0290   10.4440  -16.9350 O.3    34  C34        -0.3114
    700  C5'       -5.9260   11.8600  -17.0640 C.3    34  C34         0.1812
    701  C4'       -7.2770   12.5250  -16.8540 C.3    34  C34         0.1773
    702  O4'       -8.2080   12.1810  -17.9230 O.3    34  C34        -0.3307
    703  C3'       -8.0440   12.1910  -15.5850 C.3    34  C34         0.1860
    704  O3'       -7.5730   12.9310  -14.4750 O.3    34  C34        -0.3112
    705  C2'       -9.4530   12.6070  -15.9750 C.3    34  C34         0.2309
    706  O2'       -9.6110   14.0090  -16.0190 O.3    34  C34        -0.2156
    707  C1'       -9.5230   12.0440  -17.3890 C.3    34  C34         0.2420
    708   N.1      -9.8880   10.6180  -17.3940 N.ar   34  C34        -0.2535
    709   C.2     -11.2340   10.2870  -17.3280 C.ar   34  C34         0.3532
    710   O.2     -12.0670   11.2030  -17.3070 O.2    34  C34        -0.2443
    711   N.3     -11.5960    8.9840  -17.2960 N.ar   34  C34        -0.1739
    712   C4      -10.6640    8.0310  -17.3410 C.ar   34  C34         0.1759
    713   N.4     -11.0710    6.7670  -17.3020 N.pl3  34  C34        -0.1070
    714   C5       -9.2790    8.3390  -17.4280 C.ar   34  C34         0.0566
    715   C6       -8.9360    9.6340  -17.4510 C.ar   34  C34         0.0850
    716    P.3     -7.5800   12.2580  -13.0210 P.3    35  C35         0.2141
    717  OP1       -6.9080   13.1620  -12.0570 O.3    35  C35        -0.4373
    718  OP2       -7.1030   10.8640  -13.1660 O.2    35  C35        -0.5172
    719  O5'       -9.1220   12.2110  -12.6420 O.3    35  C35        -0.3114
    720  C5'       -9.8750   13.3950  -12.4690 C.3    35  C35         0.1812
    721  C4'      -11.3170   13.0460  -12.2030 C.3    35  C35         0.1773
    722  O4'      -11.9370   12.4490  -13.3780 O.3    35  C35        -0.3307
    723  C3'      -11.5670   12.0090  -11.1280 C.3    35  C35         0.1860
    724  O3'      -11.4300   12.5960   -9.8480 O.3    35  C35        -0.3112
    725  C2'      -13.0030   11.6360  -11.4480 C.3    35  C35         0.2309
    726  O2'      -13.8990   12.6870  -11.1550 O.3    35  C35        -0.2156
    727  C1'      -12.9200   11.5120  -12.9650 C.3    35  C35         0.2420
    728   N.1     -12.5000   10.1730  -13.3910 N.ar   35  C35        -0.2535
    729   C.2     -13.4710    9.1990  -13.5110 C.ar   35  C35         0.3532
    730   O.2     -14.6530    9.5230  -13.3460 O.2    35  C35        -0.2443
    731   N.3     -13.1100    7.9340  -13.8070 N.ar   35  C35        -0.1739
    732   C4      -11.8280    7.6360  -13.9980 C.ar   35  C35         0.1759
    733   N.4     -11.5170    6.3570  -14.2410 N.pl3  35  C35        -0.1070
    734   C5      -10.8120    8.6280  -13.9360 C.ar   35  C35         0.0566
    735   C6      -11.1890    9.8750  -13.6350 C.ar   35  C35         0.0850
    736    P.3    -11.2470   11.6620   -8.5550 P.3    36  G36         0.2141
    737  OP1      -11.0770   12.5670   -7.3990 O.3    36  G36        -0.4373
    738  OP2      -10.2340   10.6090   -8.8390 O.2    36  G36        -0.5172
    739  O5'      -12.6540   10.9640   -8.3640 O.3    36  G36        -0.3114
    740  C5'      -13.7810   11.7090   -7.9660 C.3    36  G36         0.1812
    741  C4'      -14.9770   10.8060   -7.9170 C.3    36  G36         0.1773
    742  O4'      -15.1990   10.2260   -9.2360 O.3    36  G36        -0.3307
    743  C3'      -14.8140    9.5810   -7.0350 C.3    36  G36         0.1860
    744  O3'      -15.1070    9.9170   -5.6890 O.3    36  G36        -0.3112
    745  C2'      -15.9070    8.6960   -7.5970 C.3    36  G36         0.2309
    746  O2'      -17.1550    9.2210   -7.1940 O.3    36  G36        -0.2156
    747  C1'      -15.7090    8.9140   -9.0970 C.3    36  G36         0.2408
    748   N9      -14.7500    7.9970   -9.6940 N.ar   36  G36        -0.2693
    749   C8      -13.4700    8.2750  -10.1210 C.ar   36  G36         0.1817
    750   N7      -12.8540    7.2280  -10.6050 N.ar   36  G36        -0.2173
    751   C5      -13.7900    6.2030  -10.4950 C.ar   36  G36         0.1748
    752   C6      -13.7040    4.8210  -10.8490 C.ar   36  G36         0.3023
    753   O6      -12.7480    4.2020  -11.3460 O.2    36  G36        -0.2633
    754   N.1     -14.8860    4.1490  -10.5600 N.ar   36  G36        -0.1709
    755   C.2     -16.0010    4.7150   -9.9940 C.ar   36  G36         0.2606
    756   N.2     -17.0430    3.8940   -9.7810 N.pl3  36  G36        -0.0859
    757   N.3     -16.0910    5.9910   -9.6570 N.ar   36  G36        -0.1918
    758   C4      -14.9610    6.6670   -9.9350 C.ar   36  G36         0.1723
    759    P.3    -14.2950    9.2120   -4.5010 P.3    37  G37         0.2141
    760  OP1      -14.6510    9.9280   -3.2580 O.3    37  G37        -0.4373
    761  OP2      -12.8790    9.0570   -4.8940 O.2    37  G37        -0.5172
    762  O5'      -14.9120    7.7530   -4.4110 O.3    37  G37        -0.3114
    763  C5'      -16.2850    7.5810   -4.1280 C.3    37  G37         0.1812
    764  C4'      -16.6990    6.1770   -4.4500 C.3    37  G37         0.1773
    765  O4'      -16.4380    5.8900   -5.8450 O.3    37  G37        -0.3307
    766  C3'      -15.9090    5.0840   -3.7660 C.3    37  G37         0.1860
    767  O3'      -16.2840    4.9530   -2.4030 O.3    37  G37        -0.3112
    768  C2'      -16.3370    3.8910   -4.5970 C.3    37  G37         0.2309
    769  O2'      -17.6820    3.5620   -4.3220 O.3    37  G37        -0.2156
    770  C1'      -16.2650    4.4920   -6.0020 C.3    37  G37         0.2408
    771   N9      -14.9850    4.2570   -6.6590 N.ar   37  G37        -0.2693
    772   C8      -13.9420    5.1370   -6.8310 C.ar   37  G37         0.1817
    773   N7      -12.9130    4.6000   -7.4370 N.ar   37  G37        -0.2173
    774   C5      -13.3090    3.2940   -7.6860 C.ar   37  G37         0.1748
    775   C6      -12.6180    2.2180   -8.3050 C.ar   37  G37         0.3023
    776   O6      -11.4640    2.2010   -8.7780 O.2    37  G37        -0.2633
    777   N.1     -13.4010    1.0680   -8.3390 N.ar   37  G37        -0.1709
    778   C.2     -14.6770    0.9630   -7.8360 C.ar   37  G37         0.2606
    779   N.2     -15.2780   -0.2230   -7.9340 N.pl3  37  G37        -0.0859
    780   N.3     -15.3240    1.9510   -7.2680 N.ar   37  G37        -0.1918
    781   C4      -14.5890    3.0750   -7.2210 C.ar   37  G37         0.1723
    782    P.3    -15.2670    4.2750   -1.3640 P.3    38  C38         0.2141
    783  OP1      -15.7690    4.5680    0.0000 O.3    38  C38        -0.4373
    784  OP2      -13.8760    4.6480   -1.7260 O.2    38  C38        -0.5172
    785  O5'      -15.4030    2.7190   -1.6560 O.3    38  C38        -0.3114
    786  C5'      -16.6430    2.0630   -1.4950 C.3    38  C38         0.1812
    787  C4'      -16.5690    0.6780   -2.0670 C.3    38  C38         0.1773
    788  O4'      -16.3520    0.7360   -3.5030 O.3    38  C38        -0.3307
    789  C3'      -15.4140   -0.1730   -1.5820 C.3    38  C38         0.1860
    790  O3'      -15.6570   -0.7120   -0.2900 O.3    38  C38        -0.3112
    791  C2'      -15.3860   -1.2310   -2.6650 C.3    38  C38         0.2309
    792  O2'      -16.4870   -2.1050   -2.5600 O.3    38  C38        -0.2156
    793  C1'      -15.5340   -0.3520   -3.9040 C.3    38  C38         0.2420
    794   N.1     -14.2520    0.1950   -4.3750 N.ar   38  C38        -0.2535
    795   C.2     -13.4470   -0.6050   -5.1700 C.ar   38  C38         0.3532
    796   O.2     -13.8460   -1.7450   -5.4570 O.2    38  C38        -0.2443
    797   N.3     -12.2610   -0.1240   -5.6130 N.ar   38  C38        -0.1739
    798   C4      -11.8790    1.1100   -5.2850 C.ar   38  C38         0.1759
    799   N.4     -10.6980    1.5430   -5.7420 N.pl3  38  C38        -0.1070
    800   C5      -12.6870    1.9560   -4.4750 C.ar   38  C38         0.0566
    801   C6      -13.8560    1.4610   -4.0450 C.ar   38  C38         0.0850
    802    P.3    -14.4260   -0.9660    0.7070 P.3    39  G39         0.2141
    803  OP1      -14.9840   -1.3070    2.0270 O.3    39  G39        -0.4373
    804  OP2      -13.4510    0.1410    0.5960 O.2    39  G39        -0.5172
    805  O5'      -13.7210   -2.2450    0.0820 O.3    39  G39        -0.3114
    806  C5'      -14.4440   -3.4400   -0.1850 C.3    39  G39         0.1812
    807  C4'      -13.5460   -4.4130   -0.9050 C.3    39  G39         0.1773
    808  O4'      -13.2750   -3.8830   -2.2180 O.3    39  G39        -0.3307
    809  C3'      -12.1610   -4.5920   -0.3050 C.3    39  G39         0.1860
    810  O3'      -12.1670   -5.5710    0.7220 O.3    39  G39        -0.3112
    811  C2'      -11.3450   -5.0630   -1.5000 C.3    39  G39         0.2309
    812  O2'      -11.4610   -6.4420   -1.7440 O.3    39  G39        -0.2156
    813  C1'      -11.9980   -4.2960   -2.6470 C.3    39  G39         0.2408
    814   N9      -11.2330   -3.1080   -2.9790 N.ar   39  G39        -0.2693
    815   C8      -11.4630   -1.8260   -2.5490 C.ar   39  G39         0.1817
    816   N7      -10.5560   -0.9840   -2.9490 N.ar   39  G39        -0.2173
    817   C5       -9.6870   -1.7560   -3.7060 C.ar   39  G39         0.1748
    818   C6       -8.4900   -1.4040   -4.3580 C.ar   39  G39         0.3023
    819   O6       -7.9360   -0.3010   -4.3940 O.2    39  G39        -0.2633
    820   N.1      -7.9160   -2.5020   -4.9960 N.ar   39  G39        -0.1709
    821   C.2      -8.4220   -3.7810   -4.9800 C.ar   39  G39         0.2606
    822   N.2      -7.7220   -4.7130   -5.6260 N.pl3  39  G39        -0.0859
    823   N.3      -9.5330   -4.1200   -4.3650 N.ar   39  G39        -0.1918
    824   C4      -10.1090   -3.0650   -3.7520 C.ar   39  G39         0.1723
    825    P.3    -11.9810   -5.1140    2.2440 P.3    40  A40         0.2141
    826  OP1      -13.3340   -5.0630    2.8570 O.3    40  A40        -0.4373
    827  OP2      -11.1130   -3.9120    2.2800 O.2    40  A40        -0.5172
    828  O5'      -11.1630   -6.3020    2.9200 O.3    40  A40        -0.3114
    829  C5'       -9.7490   -6.4060    2.7720 C.3    40  A40         0.1812
    830  C4'       -9.0530   -6.0240    4.0640 C.3    40  A40         0.1773
    831  O4'       -9.5430   -6.8300    5.1640 O.3    40  A40        -0.3307
    832  C3'       -7.5450   -6.1980    4.0660 C.3    40  A40         0.1860
    833  O3'       -6.9500   -4.9720    3.6730 O.3    40  A40        -0.3112
    834  C2'       -7.2450   -6.4810    5.5320 C.3    40  A40         0.2309
    835  O2'       -7.1680   -5.3110    6.3260 O.3    40  A40        -0.2156
    836  C1'       -8.4640   -7.3000    5.9360 C.3    40  A40         0.2408
    837   N9       -8.3360   -8.7400    5.7190 N.ar   40  A40        -0.2693
    838   C8       -9.0020   -9.5270    4.8120 C.ar   40  A40         0.1816
    839   N7       -8.7220  -10.8030    4.9130 N.ar   40  A40        -0.2193
    840   C5       -7.7990  -10.8610    5.9480 C.ar   40  A40         0.1518
    841   C6       -7.1270  -11.9360    6.5660 C.ar   40  A40         0.1919
    842   N6       -7.3140  -13.2180    6.2480 N.pl3  40  A40        -0.1054
    843   N.1      -6.2540  -11.6400    7.5530 N.ar   40  A40        -0.2040
    844   C.2      -6.0940  -10.3570    7.9080 C.ar   40  A40         0.2016
    845   N.3      -6.6840   -9.2730    7.4280 N.ar   40  A40        -0.2048
    846   C4       -7.5330   -9.5940    6.4360 C.ar   40  A40         0.1692
    847    P.3     -5.6080   -4.9830    2.8050 P.3    41  A41         0.2141
    848  OP1       -5.2930   -3.5550    2.5990 O.3    41  A41        -0.4373
    849  OP2       -5.8010   -5.8660    1.6330 O.2    41  A41        -0.5172
    850  O5'       -4.5350   -5.6440    3.7730 O.3    41  A41        -0.3114
    851  C5'       -4.0150   -4.9320    4.8950 C.3    41  A41         0.1812
    852  C4'       -2.8730   -5.7070    5.5200 C.3    41  A41         0.1773
    853  O4'       -3.3770   -6.8780    6.2130 O.3    41  A41        -0.3307
    854  C3'       -1.8490   -6.2780    4.5520 C.3    41  A41         0.1860
    855  O3'       -0.8770   -5.2960    4.1820 O.3    41  A41        -0.3112
    856  C2'       -1.1950   -7.3560    5.4080 C.3    41  A41         0.2309
    857  O2'       -0.2450   -6.8080    6.2930 O.3    41  A41        -0.2156
    858  C1'       -2.3770   -7.8780    6.2240 C.3    41  A41         0.2408
    859   N9       -2.9550   -9.1180    5.7100 N.ar   41  A41        -0.2693
    860   C8       -3.9080   -9.2550    4.7350 C.ar   41  A41         0.1816
    861   N7       -4.2840  -10.4940    4.5350 N.ar   41  A41        -0.2193
    862   C5       -3.5160  -11.2240    5.4260 C.ar   41  A41         0.1518
    863   C6       -3.4600  -12.5960    5.7170 C.ar   41  A41         0.1919
    864   N6       -4.2440  -13.5080    5.1340 N.pl3  41  A41        -0.1054
    865   N.1      -2.5690  -13.0050    6.6510 N.ar   41  A41        -0.2040
    866   C.2      -1.8060  -12.0840    7.2550 C.ar   41  A41         0.2016
    867   N.3      -1.7800  -10.7650    7.0760 N.ar   41  A41        -0.2048
    868   C4       -2.6720  -10.3940    6.1380 C.ar   41  A41         0.1692
    869    P.3     -0.9640   -4.5950    2.7400 P.3    42  G42         0.2141
    870  OP1       -0.6860   -3.1680    2.9490 O.3    42  G42        -0.4373
    871  OP2       -2.2350   -5.0130    2.1010 O.2    42  G42        -0.5172
    872  O5'        0.1690   -5.2370    1.8260 O.3    42  G42        -0.3114
    873  C5'        1.5250   -5.2890    2.2230 C.3    42  G42         0.1812
    874  C4'        2.4160   -5.0640    1.0240 C.3    42  G42         0.1773
    875  O4'        1.6490   -5.2850   -0.2010 O.3    42  G42        -0.3307
    876  C3'        2.9410   -3.6420    0.9040 C.3    42  G42         0.1860
    877  O3'        4.1670   -3.5220    1.6070 O.3    42  G42        -0.3112
    878  C2'        3.1010   -3.4860   -0.6010 C.3    42  G42         0.2309
    879  O2'        4.2640   -4.0880   -1.1140 O.3    42  G42        -0.2156
    880  C1'        1.8460   -4.2040   -1.0970 C.3    42  G42         0.2408
    881   N9        0.6860   -3.3150   -1.0320 N.ar   42  G42        -0.2693
    882   C8       -0.4780   -3.4930   -0.3300 C.ar   42  G42         0.1817
    883   N7       -1.2990   -2.4840   -0.4320 N.ar   42  G42        -0.2173
    884   C5       -0.6450   -1.5940   -1.2690 C.ar   42  G42         0.1748
    885   C6       -1.0380   -0.3040   -1.7490 C.ar   42  G42         0.3023
    886   O6       -2.0900    0.3280   -1.5230 O.2    42  G42        -0.2633
    887   N.1      -0.0590    0.2480   -2.5690 N.ar   42  G42        -0.1709
    888   C.2       1.1360   -0.3520   -2.8830 C.ar   42  G42         0.2606
    889   N.2       1.9660    0.3290   -3.6770 N.pl3  42  G42        -0.0859
    890   N.3       1.5020   -1.5390   -2.4470 N.ar   42  G42        -0.1918
    891   C4        0.5750   -2.0970   -1.6530 C.ar   42  G42         0.1723
    892    P.3      4.4840   -2.1810    2.4240 P.3    43  U43         0.2141
    893  OP1        5.7830   -2.3710    3.0880 O.2    43  U43        -0.5172
    894  OP2        3.3120   -1.7930    3.2360 O.3    43  U43        -0.4373
    895  O5'        4.6640   -1.1160    1.2580 O.3    43  U43        -0.3114
    896  C5'        5.6070   -1.3320    0.2190 C.3    43  U43         0.1812
    897  C4'        5.8570   -0.0450   -0.5100 C.3    43  U43         0.1773
    898  O4'        4.7070    0.2850   -1.3240 O.3    43  U43        -0.3307
    899  C3'        6.0050    1.1550    0.4080 C.3    43  U43         0.1860
    900  O3'        7.3200    1.2440    0.9260 O.3    43  U43        -0.3112
    901  C2'        5.6640    2.3100   -0.5190 C.3    43  U43         0.2309
    902  O2'        6.7540    2.6840   -1.3280 O.3    43  U43        -0.2156
    903  C1'        4.5490    1.6920   -1.3680 C.3    43  U43         0.2420
    904   N.1       3.2110    2.0120   -0.8550 N.ar   43  U43        -0.2534
    905   C.2       2.6650    3.2140   -1.2330 C.ar   43  U43         0.3546
    906   O.2       3.2460    3.9940   -1.9610 O.2    43  U43        -0.2443
    907   N.3       1.4150    3.4690   -0.7340 N.ar   43  U43        -0.1530
    908   C4        0.6690    2.6550    0.0800 C.ar   43  U43         0.2846
    909   O4       -0.4670    3.0020    0.3960 O.2    43  U43        -0.2650
    910   C5        1.3060    1.4200    0.4380 C.ar   43  U43         0.0814
    911   C6        2.5270    1.1490   -0.0290 C.ar   43  U43         0.0870
    912    P.3      7.5500    1.8520    2.3880 P.3    44  C44         0.2141
    913  OP1        8.9870    1.6930    2.7000 O.2    44  C44        -0.5172
    914  OP2        6.5350    1.3000    3.3170 O.3    44  C44        -0.4373
    915  O5'        7.2930    3.4070    2.1660 O.3    44  C44        -0.3114
    916  C5'        8.1190    4.1460    1.2710 C.3    44  C44         0.1812
    917  C4'        7.5630    5.5300    1.0630 C.3    44  C44         0.1773
    918  O4'        6.3580    5.4700    0.2560 O.3    44  C44        -0.3307
    919  C3'        7.1440    6.2700    2.3200 C.3    44  C44         0.1860
    920  O3'        8.2450    6.8930    2.9500 O.3    44  C44        -0.3112
    921  C2'        6.1810    7.2970    1.7570 C.3    44  C44         0.2309
    922  O2'        6.8470    8.4240    1.2250 O.3    44  C44        -0.2156
    923  C1'        5.4520    6.4660    0.6890 C.3    44  C44         0.2420
    924   N.1       4.2990    5.7830    1.2830 N.ar   44  C44        -0.2535
    925   C.2       3.0760    6.4050    1.2310 C.ar   44  C44         0.3532
    926   O.2       2.9880    7.4660    0.6030 O.2    44  C44        -0.2443
    927   N.3       2.0140    5.8350    1.8550 N.ar   44  C44        -0.1739
    928   C4        2.1550    4.6730    2.4910 C.ar   44  C44         0.1759
    929   N.4       1.0850    4.1600    3.0970 N.pl3  44  C44        -0.1070
    930   C5        3.3960    3.9910    2.5300 C.ar   44  C44         0.0566
    931   C6        4.4340    4.5720    1.9120 C.ar   44  C44         0.0850
    932    P.3      8.1660    7.2390    4.5080 P.3    45  G45         0.2141
    933  OP1        9.4740    7.7980    4.9270 O.2    45  G45        -0.5172
    934  OP2        7.5880    6.0810    5.2390 O.3    45  G45        -0.4373
    935  O5'        7.1260    8.4360    4.5470 O.3    45  G45        -0.3114
    936  C5'        7.4720    9.7180    4.0360 C.3    45  G45         0.1812
    937  C4'        6.4140   10.7080    4.4110 C.3    45  G45         0.1773
    938  O4'        5.2050   10.3880    3.6730 O.3    45  G45        -0.3307
    939  C3'        5.9830   10.6180    5.8650 C.3    45  G45         0.1860
    940  O3'        6.8530   11.3070    6.7470 O.3    45  G45        -0.3112
    941  C2'        4.5860   11.2220    5.8150 C.3    45  G45         0.2309
    942  O2'        4.5790   12.6420    5.8300 O.3    45  G45        -0.2156
    943  C1'        4.0680   10.6620    4.4840 C.3    45  G45         0.2408
    944   N9        3.2800    9.4370    4.6300 N.ar   45  G45        -0.2693
    945   C8        3.7250    8.1340    4.5880 C.ar   45  G45         0.1817
    946   N7        2.7720    7.2600    4.7880 N.ar   45  G45        -0.2173
    947   C5        1.6290    8.0300    4.9650 C.ar   45  G45         0.1748
    948   C6        0.2810    7.6450    5.2210 C.ar   45  G45         0.3023
    949   O6       -0.1900    6.5100    5.3480 O.2    45  G45        -0.2633
    950   N.1      -0.5550    8.7530    5.3230 N.ar   45  G45        -0.1709
    951   C.2      -0.1550   10.0620    5.1920 C.ar   45  G45         0.2606
    952   N.2      -1.1060   10.9920    5.3020 N.pl3  45  G45        -0.0859
    953   N.3       1.0910   10.4330    4.9620 N.ar   45  G45        -0.1918
    954   C4        1.9250    9.3750    4.8600 C.ar   45  G45         0.1723
    955    P.3      6.7470   11.0410    8.3280 P.3    46  C46         0.2141
    956  OP1        7.7640   11.8900    8.9950 O.3    46  C46        -0.4373
    957  OP2        6.7370    9.5810    8.5780 O.2    46  C46        -0.5172
    958  O5'        5.3160   11.6070    8.7370 O.3    46  C46        -0.3114
    959  C5'        5.0330   12.9960    8.6250 C.3    46  C46         0.1813
    960  C4'        3.5770   13.2650    8.9170 C.3    46  C46         0.1801
    961  O4'        2.7250   12.6740    7.9000 O.3    46  C46        -0.3306
    962  C3'        3.0310   12.6930   10.2090 C.3    46  C46         0.2161
    963  O3'        3.5620   13.3280   11.3640 O.3    46  C46        -0.2175
    964  C2'        1.5370   12.7550    9.9350 C.3    46  C46         0.2338
    965  O2'        1.0420   14.0770    9.9390 O.3    46  C46        -0.2155
    966  C1'        1.5100   12.2400    8.4970 C.3    46  C46         0.2421
    967   N.1       1.4520   10.7710    8.4320 N.ar   46  C46        -0.2535
    968   C.2       0.2240   10.1520    8.6200 C.ar   46  C46         0.3532
    969   O.2      -0.7650   10.8620    8.8290 O.2    46  C46        -0.2443
    970   N.3       0.1440    8.8040    8.5700 N.ar   46  C46        -0.1739
    971   C4        1.2410    8.0810    8.3440 C.ar   46  C46         0.1759
    972   N.4       1.1190    6.7510    8.3080 N.pl3  46  C46        -0.1070
    973   C5        2.5110    8.6880    8.1450 C.ar   46  C46         0.0566
    974   C6        2.5720   10.0240    8.1960 C.ar   46  C46         0.0850
    975  O5'        4.0950  -21.4310  -39.9720 O.3    47  U47        -0.2176
    976  C5'        3.3650  -20.5010  -39.1930 C.3    47  U47         0.2141
    977  C4'        4.3010  -19.3750  -38.8550 C.3    47  U47         0.1802
    978  O4'        4.9370  -18.8850  -40.0700 O.3    47  U47        -0.3306
    979  C3'        3.6340  -18.1710  -38.2190 C.3    47  U47         0.1861
    980  O3'        3.7210  -18.2900  -36.8200 O.3    47  U47        -0.3112
    981  C2'        4.4910  -17.0190  -38.7200 C.3    47  U47         0.2309
    982  O2'        5.6820  -16.8390  -37.9810 O.3    47  U47        -0.2156
    983  C1'        4.7970  -17.4790  -40.1430 C.3    47  U47         0.2420
    984   N.1       3.6960  -17.1720  -41.0640 N.ar   47  U47        -0.2534
    985   C.2       3.5810  -15.8760  -41.5240 C.ar   47  U47         0.3546
    986   O.2       4.3550  -14.9850  -41.2040 O.2    47  U47        -0.2443
    987   N.3       2.5210  -15.6530  -42.3680 N.ar   47  U47        -0.1530
    988   C4        1.5760  -16.5680  -42.7770 C.ar   47  U47         0.2846
    989   O4        0.6130  -16.1870  -43.4460 O.2    47  U47        -0.2650
    990   C5        1.7700  -17.8840  -42.2680 C.ar   47  U47         0.0814
    991   C6        2.8000  -18.1360  -41.4510 C.ar   47  U47         0.0870
    992    P.3      2.5730  -17.6610  -35.9090 P.3    48  U48         0.2141
    993  OP1        3.0120  -17.7820  -34.4920 O.3    48  U48        -0.4373
    994  OP2        1.2860  -18.2640  -36.3430 O.2    48  U48        -0.5172
    995  O5'        2.6070  -16.1060  -36.2600 O.3    48  U48        -0.3114
    996  C5'        3.7090  -15.2930  -35.8510 C.3    48  U48         0.1812
    997  C4'        3.5020  -13.8620  -36.2910 C.3    48  U48         0.1773
    998  O4'        3.5710  -13.7620  -37.7390 O.3    48  U48        -0.3307
    999  C3'        2.1470  -13.2730  -35.9670 C.3    48  U48         0.1860
   1000  O3'        2.0840  -12.8630  -34.6170 O.3    48  U48        -0.3112
   1001  C2'        2.0780  -12.1150  -36.9490 C.3    48  U48         0.2309
   1002  O2'        2.8770  -11.0120  -36.5790 O.3    48  U48        -0.2156
   1003  C1'        2.6790  -12.7580  -38.1940 C.3    48  U48         0.2420
   1004   N.1       1.6570  -13.3900  -39.0370 N.ar   48  U48        -0.2534
   1005   C.2       0.9770  -12.5830  -39.9250 C.ar   48  U48         0.3546
   1006   O.2       1.2010  -11.3990  -40.0300 O.2    48  U48        -0.2443
   1007   N.3       0.0280  -13.2190  -40.6860 N.ar   48  U48        -0.1530
   1008   C4       -0.3020  -14.5570  -40.6510 C.ar   48  U48         0.2846
   1009   O4       -1.1680  -14.9870  -41.4120 O.2    48  U48        -0.2650
   1010   C5        0.4460  -15.3300  -39.7050 C.ar   48  U48         0.0814
   1011   C6        1.3780  -14.7360  -38.9480 C.ar   48  U48         0.0870
   1012    P.3      0.6730  -12.8660  -33.8550 P.3    49  G49         0.2141
   1013  OP1        0.9990  -12.5910  -32.4310 O.3    49  G49        -0.4373
   1014  OP2       -0.1150  -14.0810  -34.2000 O.2    49  G49        -0.5172
   1015  O5'       -0.0750  -11.6100  -34.4770 O.3    49  G49        -0.3114
   1016  C5'        0.4580  -10.3080  -34.3080 C.3    49  G49         0.1812
   1017  C4'       -0.3970   -9.3030  -35.0250 C.3    49  G49         0.1773
   1018  O4'       -0.2730   -9.4930  -36.4510 O.3    49  G49        -0.3307
   1019  C3'       -1.8820   -9.4240  -34.7730 C.3    49  G49         0.1860
   1020  O3'       -2.2410   -8.8260  -33.5370 O.3    49  G49        -0.3112
   1021  C2'       -2.4540   -8.7020  -35.9850 C.3    49  G49         0.2309
   1022  O2'       -2.4460   -7.2870  -35.8760 O.3    49  G49        -0.2156
   1023  C1'       -1.4970   -9.1840  -37.0800 C.3    49  G49         0.2408
   1024   N9       -1.9570  -10.3920  -37.7530 N.ar   49  G49        -0.2693
   1025   C8       -1.5460  -11.6780  -37.5140 C.ar   49  G49         0.1817
   1026   N7       -2.1400  -12.5520  -38.2790 N.ar   49  G49        -0.2173
   1027   C5       -2.9960  -11.7960  -39.0680 C.ar   49  G49         0.1748
   1028   C6       -3.9020  -12.1890  -40.0750 C.ar   49  G49         0.3023
   1029   O6       -4.1510  -13.3180  -40.4840 O.2    49  G49        -0.2633
   1030   N.1      -4.5690  -11.1000  -40.6180 N.ar   49  G49        -0.1709
   1031   C.2      -4.3960   -9.8040  -40.2400 C.ar   49  G49         0.2606
   1032   N.2      -5.1410   -8.9080  -40.8800 N.pl3  49  G49        -0.0859
   1033   N.3      -3.5570   -9.4180  -39.2990 N.ar   49  G49        -0.1918
   1034   C4       -2.8940  -10.4620  -38.7580 C.ar   49  G49         0.1723
   1035    P.3     -3.4850   -9.4090  -32.7130 P.3    50  C50         0.2141
   1036  OP1       -3.4760   -8.7170  -31.4040 O.3    50  C50        -0.4373
   1037  OP2       -3.4140  -10.8910  -32.7510 O.2    50  C50        -0.5172
   1038  O5'       -4.7420   -8.9260  -33.5680 O.3    50  C50        -0.3114
   1039  C5'       -5.0320   -7.5340  -33.6900 C.3    50  C50         0.1812
   1040  C4'       -6.1000   -7.2910  -34.7300 C.3    50  C50         0.1773
   1041  O4'       -5.6280   -7.6930  -36.0470 O.3    50  C50        -0.3307
   1042  C3'       -7.4070   -8.0390  -34.5720 C.3    50  C50         0.1860
   1043  O3'       -8.2530   -7.4390  -33.5930 O.3    50  C50        -0.3112
   1044  C2'       -7.9770   -7.9380  -35.9810 C.3    50  C50         0.2309
   1045  O2'       -8.5370   -6.6760  -36.2730 O.3    50  C50        -0.2156
   1046  C1'       -6.7210   -8.1630  -36.8210 C.3    50  C50         0.2420
   1047   N.1      -6.4950   -9.5830  -37.1140 N.ar   50  C50        -0.2535
   1048   C.2      -7.1940  -10.1650  -38.1710 C.ar   50  C50         0.3532
   1049   O.2      -7.9810   -9.4620  -38.8220 O.2    50  C50        -0.2443
   1050   N.3      -6.9980  -11.4720  -38.4570 N.ar   50  C50        -0.1739
   1051   C4       -6.1450  -12.1940  -37.7250 C.ar   50  C50         0.1759
   1052   N.4      -5.9900  -13.4840  -38.0370 N.pl3  50  C50        -0.1070
   1053   C5       -5.4150  -11.6240  -36.6360 C.ar   50  C50         0.0566
   1054   C6       -5.6200  -10.3270  -36.3690 C.ar   50  C50         0.0850
   1055    P.3     -9.1440   -8.3780  -32.6250 P.3    51  G51         0.2141
   1056  OP1       -9.6800   -7.5020  -31.5480 O.3    51  G51        -0.4373
   1057  OP2       -8.3340   -9.5800  -32.2670 O.2    51  G51        -0.5172
   1058  O5'      -10.3540   -8.8710  -33.5380 O.3    51  G51        -0.3114
   1059  C5'      -11.2080   -7.9320  -34.1750 C.3    51  G51         0.1812
   1060  C4'      -11.8430   -8.5450  -35.3990 C.3    51  G51         0.1773
   1061  O4'      -10.8120   -9.0840  -36.2570 O.3    51  G51        -0.3307
   1062  C3'      -12.7140   -9.7640  -35.1920 C.3    51  G51         0.1860
   1063  O3'      -13.9760   -9.4110  -34.6540 O.3    51  G51        -0.3112
   1064  C2'      -12.8040  -10.2940  -36.6160 C.3    51  G51         0.2309
   1065  O2'      -13.6560   -9.5610  -37.4700 O.3    51  G51        -0.2156
   1066  C1'      -11.3650  -10.1000  -37.0750 C.3    51  G51         0.2408
   1067   N9      -10.5730  -11.3110  -36.9070 N.ar   51  G51        -0.2693
   1068   C8       -9.5180  -11.5290  -36.0550 C.ar   51  G51         0.1817
   1069   N7       -9.0420  -12.7410  -36.1360 N.ar   51  G51        -0.2173
   1070   C5       -9.8270  -13.3510  -37.1080 C.ar   51  G51         0.1748
   1071   C6       -9.8000  -14.6690  -37.6190 C.ar   51  G51         0.3023
   1072   O6       -9.0360  -15.5920  -37.3230 O.2    51  G51        -0.2633
   1073   N.1     -10.7990  -14.8680  -38.5710 N.ar   51  G51        -0.1709
   1074   C.2     -11.7050  -13.9170  -38.9750 C.ar   51  G51         0.2606
   1075   N.2     -12.6270  -14.2930  -39.8800 N.pl3  51  G51        -0.0859
   1076   N.3     -11.7210  -12.6840  -38.5180 N.ar   51  G51        -0.1918
   1077   C4      -10.7700  -12.4760  -37.5920 C.ar   51  G51         0.1723
   1078    P.3    -14.6660  -10.3710  -33.5790 P.3    52  U52         0.2141
   1079  OP1      -15.9380   -9.7370  -33.1420 O.2    52  U52        -0.5172
   1080  OP2      -13.6470  -10.7640  -32.5710 O.3    52  U52        -0.4373
   1081  O5'      -15.0710  -11.6490  -34.4320 O.3    52  U52        -0.3114
   1082  C5'      -15.9730  -11.5390  -35.5230 C.3    52  U52         0.1812
   1083  C4'      -16.0840  -12.8640  -36.2300 C.3    52  U52         0.1773
   1084  O4'      -14.8130  -13.2000  -36.8450 O.3    52  U52        -0.3307
   1085  C3'      -16.3920  -14.0760  -35.3560 C.3    52  U52         0.1860
   1086  O3'      -17.7890  -14.1740  -35.0460 O.3    52  U52        -0.3112
   1087  C2'      -15.9320  -15.2140  -36.2630 C.3    52  U52         0.2309
   1088  O2'      -16.8460  -15.5310  -37.3000 O.3    52  U52        -0.2156
   1089  C1'      -14.6640  -14.6100  -36.8670 C.3    52  U52         0.2420
   1090   N.1     -13.4560  -14.9780  -36.1160 N.ar   52  U52        -0.2534
   1091   C.2     -12.9250  -16.2340  -36.3550 C.ar   52  U52         0.3546
   1092   O.2     -13.4360  -17.0310  -37.1320 O.2    52  U52        -0.2443
   1093   N.3     -11.7850  -16.5240  -35.6460 N.ar   52  U52        -0.1530
   1094   C4      -11.1430  -15.7070  -34.7370 C.ar   52  U52         0.2846
   1095   O4      -10.0860  -16.0880  -34.2200 O.2    52  U52        -0.2650
   1096   C5      -11.7650  -14.4320  -34.5310 C.ar   52  U52         0.0814
   1097   C6      -12.8700  -14.1190  -35.2140 C.ar   52  U52         0.0870
   1098    P.3    -18.2620  -14.5070  -33.5390 P.3    53  C53         0.2141
   1099  OP1      -19.6100  -13.9050  -33.3960 O.2    53  C53        -0.5172
   1100  OP2      -17.1930  -14.1340  -32.5770 O.3    53  C53        -0.4373
   1101  O5'      -18.4010  -16.0950  -33.5310 O.3    53  C53        -0.3114
   1102  C5'      -19.2270  -16.7610  -34.4860 C.3    53  C53         0.1812
   1103  C4'      -18.7340  -18.1730  -34.7130 C.3    53  C53         0.1773
   1104  O4'      -17.4450  -18.1540  -35.3740 O.3    53  C53        -0.3307
   1105  C3'      -18.4760  -18.9750  -33.4510 C.3    53  C53         0.1860
   1106  O3'      -19.6960  -19.4940  -32.9460 O.3    53  C53        -0.3112
   1107  C2'      -17.5150  -20.0540  -33.9420 C.3    53  C53         0.2309
   1108  O2'      -18.1130  -21.1930  -34.5290 O.3    53  C53        -0.2156
   1109  C1'      -16.6870  -19.2850  -34.9700 C.3    53  C53         0.2420
   1110   N.1     -15.4310  -18.8170  -34.3720 N.ar   53  C53        -0.2535
   1111   C.2     -14.3390  -19.6920  -34.3430 C.ar   53  C53         0.3532
   1112   O.2     -14.4620  -20.8170  -34.8500 O.2    53  C53        -0.2443
   1113   N.3     -13.1830  -19.2880  -33.7610 N.ar   53  C53        -0.1739
   1114   C4      -13.1010  -18.0660  -33.2210 C.ar   53  C53         0.1759
   1115   N.4     -11.9540  -17.7140  -32.6340 N.pl3  53  C53        -0.1070
   1116   C5      -14.1940  -17.1530  -33.2520 C.ar   53  C53         0.0566
   1117   C6      -15.3280  -17.5630  -33.8360 C.ar   53  C53         0.0850
   1118    P.3    -19.8680  -19.7510  -31.3660 P.3    54  A54         0.2141
   1119  OP1      -21.3360  -19.8820  -31.2100 O.2    54  A54        -0.5172
   1120  OP2      -19.1330  -18.7690  -30.5270 O.3    54  A54        -0.4373
   1121  O5'      -19.1860  -21.1780  -31.1610 O.3    54  A54        -0.3114
   1122  C5'      -19.7020  -22.3270  -31.8310 C.3    54  A54         0.1812
   1123  C4'      -18.7540  -23.4880  -31.6950 C.3    54  A54         0.1773
   1124  O4'      -17.5480  -23.2210  -32.4500 O.3    54  A54        -0.3307
   1125  C3'      -18.2560  -23.7820  -30.2910 C.3    54  A54         0.1860
   1126  O3'      -19.1950  -24.5560  -29.5490 O.3    54  A54        -0.3112
   1127  C2'      -16.9790  -24.5540  -30.5760 C.3    54  A54         0.2309
   1128  O2'      -17.2290  -25.8840  -30.9520 O.3    54  A54        -0.2156
   1129  C1'      -16.4370  -23.7950  -31.7850 C.3    54  A54         0.2408
   1130   N9      -15.5100  -22.7210  -31.4250 N.ar   54  A54        -0.2693
   1131   C8      -15.8080  -21.4260  -31.0810 C.ar   54  A54         0.1816
   1132   N7      -14.7550  -20.6990  -30.7970 N.ar   54  A54        -0.2193
   1133   C5      -13.6920  -21.5740  -30.9660 C.ar   54  A54         0.1518
   1134   C6      -12.3080  -21.4180  -30.8050 C.ar   54  A54         0.1919
   1135   N6      -11.7320  -20.2850  -30.3990 N.pl3  54  A54        -0.1054
   1136   N.1     -11.5230  -22.4810  -31.0660 N.ar   54  A54        -0.2040
   1137   C.2     -12.1020  -23.6240  -31.4440 C.ar   54  A54         0.2016
   1138   N.3     -13.3900  -23.9000  -31.6140 N.ar   54  A54        -0.2048
   1139   C4      -14.1420  -22.8190  -31.3580 C.ar   54  A54         0.1692
   1140    P.3    -19.4190  -24.2390  -27.9880 P.3    55  C55         0.2141
   1141  OP1      -20.5990  -24.9970  -27.5130 O.3    55  C55        -0.4373
   1142  OP2      -19.3900  -22.7660  -27.8240 O.2    55  C55        -0.5172
   1143  O5'      -18.1240  -24.8490  -27.2900 O.3    55  C55        -0.3114
   1144  C5'      -17.8800  -26.2490  -27.2940 C.3    55  C55         0.1812
   1145  C4'      -16.4900  -26.5390  -26.7890 C.3    55  C55         0.1773
   1146  O4'      -15.5070  -26.0200  -27.7270 O.3    55  C55        -0.3307
   1147  C3'      -16.1140  -25.8960  -25.4620 C.3    55  C55         0.1860
   1148  O3'      -16.5800  -26.6630  -24.3580 O.3    55  C55        -0.3112
   1149  C2'      -14.5960  -25.8800  -25.5510 C.3    55  C55         0.2309
   1150  O2'      -14.0140  -27.1460  -25.3400 O.3    55  C55        -0.2156
   1151  C1'      -14.4010  -25.4870  -27.0120 C.3    55  C55         0.2420
   1152   N.1     -14.3620  -24.0230  -27.1950 N.ar   55  C55        -0.2535
   1153   C.2     -13.1670  -23.3550  -26.9280 C.ar   55  C55         0.3532
   1154   O.2     -12.1840  -24.0180  -26.5670 O.2    55  C55        -0.2443
   1155   N.3     -13.1090  -22.0100  -27.0670 N.ar   55  C55        -0.1739
   1156   C4      -14.1900  -21.3340  -27.4570 C.ar   55  C55         0.1759
   1157   N.4     -14.0860  -20.0070  -27.5780 N.pl3  55  C55        -0.1070
   1158   C5      -15.4250  -21.9890  -27.7400 C.ar   55  C55         0.0566
   1159   C6      -15.4650  -23.3230  -27.6010 C.ar   55  C55         0.0850
   1160    P.3    -16.9970  -25.9220  -22.9920 P.3    56  G56         0.2141
   1161  OP1      -17.6860  -26.8990  -22.1130 O.3    56  G56        -0.4373
   1162  OP2      -17.6770  -24.6420  -23.3520 O.2    56  G56        -0.5172
   1163  O5'      -15.6060  -25.5750  -22.3020 O.3    56  G56        -0.3114
   1164  C5'      -14.6980  -26.5990  -21.9420 C.3    56  G56         0.1812
   1165  C4'      -13.3840  -25.9910  -21.5120 C.3    56  G56         0.1773
   1166  O4'      -12.7530  -25.3060  -22.6250 O.3    56  G56        -0.3307
   1167  C3'      -13.4760  -24.9080  -20.4570 C.3    56  G56         0.1860
   1168  O3'      -13.6110  -25.4810  -19.1690 O.3    56  G56        -0.3112
   1169  C2'      -12.1350  -24.2100  -20.6240 C.3    56  G56         0.2309
   1170  O2'      -11.0680  -24.9420  -20.0690 O.3    56  G56        -0.2156
   1171  C1'      -11.9920  -24.2100  -22.1420 C.3    56  G56         0.2408
   1172   N9      -12.5050  -22.9910  -22.7530 N.ar   56  G56        -0.2693
   1173   C8      -13.7060  -22.8330  -23.4020 C.ar   56  G56         0.1817
   1174   N7      -13.9010  -21.6160  -23.8310 N.ar   56  G56        -0.2173
   1175   C5      -12.7550  -20.9310  -23.4500 C.ar   56  G56         0.1748
   1176   C6      -12.3860  -19.5700  -23.6490 C.ar   56  G56         0.3023
   1177   O6      -13.0130  -18.6780  -24.2400 O.2    56  G56        -0.2633
   1178   N.1     -11.1460  -19.2940  -23.0860 N.ar   56  G56        -0.1709
   1179   C.2     -10.3540  -20.2040  -22.4300 C.ar   56  G56         0.2606
   1180   N.2      -9.1990  -19.7420  -21.9600 N.pl3  56  G56        -0.0859
   1181   N.3     -10.6760  -21.4760  -22.2510 N.ar   56  G56        -0.1918
   1182   C4      -11.8840  -21.7670  -22.7820 C.ar   56  G56         0.1723
   1183    P.3    -14.3150  -24.6350  -18.0050 P.3    57  C57         0.2141
   1184  OP1      -14.4590  -25.5490  -16.8450 O.3    57  C57        -0.4373
   1185  OP2      -15.5010  -23.9410  -18.5600 O.2    57  C57        -0.5172
   1186  O5'      -13.2300  -23.5370  -17.6340 O.3    57  C57        -0.3114
   1187  C5'      -11.9780  -23.9230  -17.0930 C.3    57  C57         0.1812
   1188  C4'      -11.0930  -22.7190  -16.9420 C.3    57  C57         0.1773
   1189  O4'      -10.7680  -22.1820  -18.2490 O.3    57  C57        -0.3307
   1190  C3'      -11.7250  -21.5510  -16.2150 C.3    57  C57         0.1860
   1191  O3'      -11.6110  -21.7570  -14.8240 O.3    57  C57        -0.3112
   1192  C2'      -10.8680  -20.3950  -16.7040 C.3    57  C57         0.2309
   1193  O2'       -9.6080  -20.3060  -16.0710 O.3    57  C57        -0.2156
   1194  C1'      -10.6840  -20.7750  -18.1720 C.3    57  C57         0.2420
   1195   N.1     -11.7380  -20.2140  -19.0140 N.ar   57  C57        -0.2535
   1196   C.2     -11.6510  -18.8790  -19.3500 C.ar   57  C57         0.3532
   1197   O.2     -10.6930  -18.2230  -18.9030 O.2    57  C57        -0.2443
   1198   N.3     -12.6010  -18.3330  -20.1430 N.ar   57  C57        -0.1739
   1199   C4      -13.6100  -19.0840  -20.5860 C.ar   57  C57         0.1759
   1200   N.4     -14.5150  -18.5130  -21.3820 N.pl3  57  C57        -0.1070
   1201   C5      -13.7330  -20.4570  -20.2380 C.ar   57  C57         0.0566
   1202   C6      -12.7800  -20.9790  -19.4590 C.ar   57  C57         0.0850
   1203    P.3    -12.7530  -21.2060  -13.8450 P.3    58  C58         0.2141
   1204  OP1      -12.3860  -21.7100  -12.4980 O.3    58  C58        -0.4373
   1205  OP2      -14.1040  -21.4760  -14.3960 O.2    58  C58        -0.5172
   1206  O5'      -12.5180  -19.6330  -13.8460 O.3    58  C58        -0.3114
   1207  C5'      -11.3160  -19.0870  -13.3210 C.3    58  C58         0.1812
   1208  C4'      -11.2170  -17.6280  -13.6720 C.3    58  C58         0.1773
   1209  O4'      -11.0810  -17.4730  -15.1080 O.3    58  C58        -0.3307
   1210  C3'      -12.4360  -16.7960  -13.3300 C.3    58  C58         0.1860
   1211  O3'      -12.4010  -16.4290  -11.9580 O.3    58  C58        -0.3112
   1212  C2'      -12.2310  -15.6010  -14.2430 C.3    58  C58         0.2309
   1213  O2'      -11.2490  -14.7110  -13.7830 O.3    58  C58        -0.2156
   1214  C1'      -11.7170  -16.2800  -15.5100 C.3    58  C58         0.2420
   1215   N.1     -12.8250  -16.6100  -16.4130 N.ar   58  C58        -0.2535
   1216   C.2     -13.2680  -15.6260  -17.2770 C.ar   58  C58         0.3532
   1217   O.2     -12.6730  -14.5400  -17.2780 O.2    58  C58        -0.2443
   1218   N.3     -14.3230  -15.8740  -18.0830 N.ar   58  C58        -0.1739
   1219   C4      -14.9250  -17.0640  -18.0430 C.ar   58  C58         0.1759
   1220   N.4     -15.9760  -17.2620  -18.8390 N.pl3  58  C58        -0.1070
   1221   C5      -14.4780  -18.1010  -17.1840 C.ar   58  C58         0.0566
   1222   C6      -13.4280  -17.8360  -16.3940 C.ar   58  C58         0.0850
   1223    P.3    -13.7390  -15.9160  -11.2290 P.3    59  G59         0.2141
   1224  OP1      -13.4080  -15.7790   -9.7850 O.3    59  G59        -0.4373
   1225  OP2      -14.9070  -16.7420  -11.6410 O.2    59  G59        -0.5172
   1226  O5'      -13.9620  -14.4520  -11.8230 O.3    59  G59        -0.3114
   1227  C5'      -12.9970  -13.4200  -11.6200 C.3    59  G59         0.1812
   1228  C4'      -13.4510  -12.1470  -12.2970 C.3    59  G59         0.1773
   1229  O4'      -13.3420  -12.2670  -13.7410 O.3    59  G59        -0.3307
   1230  C3'      -14.9030  -11.7820  -12.0620 C.3    59  G59         0.1860
   1231  O3'      -15.0680  -11.0910  -10.8420 O.3    59  G59        -0.3112
   1232  C2'      -15.2110  -10.8960  -13.2570 C.3    59  G59         0.2309
   1233  O2'      -14.7330   -9.5770  -13.1210 O.3    59  G59        -0.2156
   1234  C1'      -14.4320  -11.6040  -14.3600 C.3    59  G59         0.2408
   1235   N9      -15.2500  -12.5910  -15.0580 N.ar   59  G59        -0.2693
   1236   C8      -15.2820  -13.9490  -14.8450 C.ar   59  G59         0.1817
   1237   N7      -16.1120  -14.5710  -15.6360 N.ar   59  G59        -0.2173
   1238   C5      -16.6660  -13.5620  -16.4170 C.ar   59  G59         0.1748
   1239   C6      -17.6510  -13.6240  -17.4570 C.ar   59  G59         0.3023
   1240   O6      -18.2430  -14.6210  -17.9090 O.2    59  G59        -0.2633
   1241   N.1     -17.9280  -12.3590  -17.9720 N.ar   59  G59        -0.1709
   1242   C.2     -17.3430  -11.1910  -17.5500 C.ar   59  G59         0.2606
   1243   N.2     -17.7390  -10.0810  -18.1690 N.pl3  59  G59        -0.0859
   1244   N.3     -16.4300  -11.1190  -16.5860 N.ar   59  G59        -0.1918
   1245   C4      -16.1440  -12.3340  -16.0680 C.ar   59  G59         0.1723
   1246    P.3    -16.5250  -10.9900  -10.2010 P.3    60  G60         0.2141
   1247  OP1      -16.3880  -10.2790   -8.9180 O.3    60  G60        -0.4373
   1248  OP2      -17.1620  -12.3210  -10.2190 O.2    60  G60        -0.5172
   1249  O5'      -17.3080  -10.0530  -11.2230 O.3    60  G60        -0.3114
   1250  C5'      -16.8780   -8.7100  -11.4640 C.3    60  G60         0.1812
   1251  C4'      -17.8250   -8.0130  -12.4200 C.3    60  G60         0.1773
   1252  O4'      -17.6790   -8.5680  -13.7530 O.3    60  G60        -0.3307
   1253  C3'      -19.3040   -8.1610  -12.1040 C.3    60  G60         0.1860
   1254  O3'      -19.7290   -7.1890  -11.1710 O.3    60  G60        -0.3112
   1255  C2'      -19.9430   -7.9340  -13.4620 C.3    60  G60         0.2309
   1256  O2'      -20.0260   -6.5740  -13.8150 O.3    60  G60        -0.2156
   1257  C1'      -18.9460   -8.6290  -14.3840 C.3    60  G60         0.2408
   1258   N9      -19.2900  -10.0250  -14.6290 N.ar   60  G60        -0.2693
   1259   C8      -18.7490  -11.1370  -14.0330 C.ar   60  G60         0.1817
   1260   N7      -19.2470  -12.2550  -14.4880 N.ar   60  G60        -0.2173
   1261   C5      -20.1760  -11.8560  -15.4340 C.ar   60  G60         0.1748
   1262   C6      -21.0240  -12.6280  -16.2630 C.ar   60  G60         0.3023
   1263   O6      -21.1110  -13.8660  -16.3350 O.2    60  G60        -0.2633
   1264   N.1     -21.8240  -11.8190  -17.0710 N.ar   60  G60        -0.1709
   1265   C.2     -21.7990  -10.4410  -17.0840 C.ar   60  G60         0.2606
   1266   N.2     -22.6400   -9.8350  -17.9300 N.pl3  60  G60        -0.0859
   1267   N.3     -21.0030   -9.7120  -16.3190 N.ar   60  G60        -0.1918
   1268   C4      -20.2240  -10.4810  -15.5240 C.ar   60  G60         0.1723
   1269    P.3    -21.0580   -7.4500  -10.3070 P.3    61  C61         0.2141
   1270  OP1      -21.3370   -6.2390   -9.4960 O.3    61  C61        -0.4373
   1271  OP2      -20.9080   -8.7610   -9.6340 O.2    61  C61        -0.5172
   1272  O5'      -22.2140   -7.5430  -11.3950 O.3    61  C61        -0.3114
   1273  C5'      -22.6980   -6.3620  -12.0350 C.3    61  C61         0.1812
   1274  C4'      -23.8870   -6.6810  -12.9070 C.3    61  C61         0.1773
   1275  O4'      -23.4550   -7.4260  -14.0800 O.3    61  C61        -0.3307
   1276  C3'      -24.9450   -7.5800  -12.2890 C.3    61  C61         0.1860
   1277  O3'      -25.8140   -6.8910  -11.3950 O.3    61  C61        -0.3112
   1278  C2'      -25.6510   -8.0860  -13.5340 C.3    61  C61         0.2309
   1279  O2'      -26.4640   -7.1030  -14.1190 O.3    61  C61        -0.2156
   1280  C1'      -24.4560   -8.3680  -14.4420 C.3    61  C61         0.2420
   1281   N.1     -23.9320   -9.7180  -14.1900 N.ar   61  C61        -0.2535
   1282   C.2     -24.4430  -10.7950  -14.9310 C.ar   61  C61         0.3532
   1283   O.2     -25.2860  -10.5690  -15.8150 O.2    61  C61        -0.2443
   1284   N.3     -24.0070  -12.0510  -14.6620 N.ar   61  C61        -0.1739
   1285   C4      -23.0980  -12.2480  -13.7040 C.ar   61  C61         0.1759
   1286   N.4     -22.7130  -13.4990  -13.4530 N.pl3  61  C61        -0.1070
   1287   C5      -22.5430  -11.1680  -12.9560 C.ar   61  C61         0.0566
   1288   C6      -22.9820   -9.9330  -13.2310 C.ar   61  C61         0.0850
   1289    P.3    -26.5740   -7.7140  -10.2360 P.3    62  G62         0.2141
   1290  OP1      -27.3380   -6.7270   -9.4350 O.3    62  G62        -0.4373
   1291  OP2      -25.6420   -8.6510   -9.5490 O.2    62  G62        -0.5172
   1292  O5'      -27.6290   -8.5990  -11.0290 O.3    62  G62        -0.3114
   1293  C5'      -28.6130   -7.9960  -11.8500 C.3    62  G62         0.1812
   1294  C4'      -29.3020   -9.0460  -12.6830 C.3    62  G62         0.1773
   1295  O4'      -28.3290   -9.7050  -13.5430 O.3    62  G62        -0.3307
   1296  C3'      -29.9190  -10.2100  -11.9260 C.3    62  G62         0.1860
   1297  O3'      -31.1770   -9.8650  -11.3770 O.3    62  G62        -0.3112
   1298  C2'      -30.0560  -11.2390  -13.0320 C.3    62  G62         0.2309
   1299  O2'      -31.1180  -10.9490  -13.9180 O.3    62  G62        -0.2156
   1300  C1'      -28.7190  -11.0570  -13.7480 C.3    62  G62         0.2408
   1301   N9      -27.6780  -11.9260  -13.2120 N.ar   62  G62        -0.2693
   1302   C8      -26.6590  -11.5860  -12.3510 C.ar   62  G62         0.1817
   1303   N7      -25.8790  -12.5910  -12.0530 N.ar   62  G62        -0.2173
   1304   C5      -26.4200  -13.6600  -12.7590 C.ar   62  G62         0.1748
   1305   C6      -26.0140  -15.0120  -12.8270 C.ar   62  G62         0.3023
   1306   O6      -25.0660  -15.5570  -12.2620 O.2    62  G62        -0.2633
   1307   N.1     -26.8430  -15.7550  -13.6550 N.ar   62  G62        -0.1709
   1308   C.2     -27.9240  -15.2630  -14.3360 C.ar   62  G62         0.2606
   1309   N.2     -28.5880  -16.1420  -15.0940 N.pl3  62  G62        -0.0859
   1310   N.3     -28.3220  -14.0000  -14.2810 N.ar   62  G62        -0.1918
   1311   C4      -27.5290  -13.2620  -13.4790 C.ar   62  G62         0.1723
   1312    P.3    -31.7980  -10.7530  -10.1970 P.3    63  A63         0.2141
   1313  OP1      -32.6530   -9.8500   -9.3840 O.3    63  A63        -0.4373
   1314  OP2      -30.7250  -11.5300   -9.5350 O.2    63  A63        -0.5172
   1315  O5'      -32.7190  -11.7890  -10.9720 O.3    63  A63        -0.3114
   1316  C5'      -33.8320  -11.3350  -11.7260 C.3    63  A63         0.1812
   1317  C4'      -34.4990  -12.4960  -12.4100 C.3    63  A63         0.1773
   1318  O4'      -33.5750  -13.0920  -13.3500 O.3    63  A63        -0.3307
   1319  C3'      -34.8820  -13.6520  -11.5070 C.3    63  A63         0.1860
   1320  O3'      -36.1330  -13.3890  -10.8800 O.3    63  A63        -0.3112
   1321  C2'      -34.9840  -14.8070  -12.4990 C.3    63  A63         0.2309
   1322  O2'      -36.2170  -14.8640  -13.1820 O.3    63  A63        -0.2156
   1323  C1'      -33.8760  -14.4670  -13.4950 C.3    63  A63         0.2408
   1324   N9      -32.6510  -15.2280  -13.2750 N.ar   63  A63        -0.2693
   1325   C8      -31.4830  -14.7950  -12.7000 C.ar   63  A63         0.1816
   1326   N7      -30.5520  -15.7160  -12.6390 N.ar   63  A63        -0.2193
   1327   C5      -31.1480  -16.8280  -13.2160 C.ar   63  A63         0.1518
   1328   C6      -30.6830  -18.1270  -13.4540 C.ar   63  A63         0.1919
   1329   N6      -29.4570  -18.5400  -13.1300 N.pl3  63  A63        -0.1054
   1330   N.1     -31.5290  -18.9990  -14.0430 N.ar   63  A63        -0.2040
   1331   C.2     -32.7590  -18.5780  -14.3670 C.ar   63  A63         0.2016
   1332   N.3     -33.3100  -17.3820  -14.1960 N.ar   63  A63        -0.2048
   1333   C4      -32.4410  -16.5420  -13.6100 C.ar   63  A63         0.1692
   1334    P.3    -36.4170  -13.9450   -9.3990 P.3    64  A64         0.2141
   1335  OP1      -37.7930  -13.5060   -9.0350 O.2    64  A64        -0.5172
   1336  OP2      -35.2680  -13.5660   -8.5280 O.3    64  A64        -0.4373
   1337  O5'      -36.4150  -15.5380   -9.5580 O.3    64  A64        -0.3114
   1338  C5'      -37.6450  -16.2690   -9.6070 C.3    64  A64         0.1812
   1339  C4'      -37.3920  -17.7570   -9.7710 C.3    64  A64         0.1773
   1340  O4'      -36.5910  -17.9920  -10.9600 O.3    64  A64        -0.3307
   1341  C3'      -36.6550  -18.4980   -8.6640 C.3    64  A64         0.1860
   1342  O3'      -37.5500  -18.9290   -7.6560 O.3    64  A64        -0.3112
   1343  C2'      -36.1180  -19.7080   -9.4120 C.3    64  A64         0.2309
   1344  O2'      -37.0570  -20.7460   -9.6220 O.3    64  A64        -0.2156
   1345  C1'      -35.6890  -19.0580  -10.7230 C.3    64  A64         0.2408
   1346   N9      -34.3600  -18.4880  -10.5410 N.ar   64  A64        -0.2693
   1347   C8      -34.0180  -17.1840  -10.2800 C.ar   64  A64         0.1816
   1348   N7      -32.7300  -16.9970  -10.1280 N.ar   64  A64        -0.2193
   1349   C5      -32.1880  -18.2640  -10.3120 C.ar   64  A64         0.1518
   1350   C6      -30.8680  -18.7440  -10.2820 C.ar   64  A64         0.1919
   1351   N6      -29.8020  -17.9690  -10.0540 N.pl3  64  A64        -0.1054
   1352   N.1     -30.6760  -20.0650  -10.5020 N.ar   64  A64        -0.2040
   1353   C.2     -31.7430  -20.8400  -10.7410 C.ar   64  A64         0.2016
   1354   N.3     -33.0250  -20.5070  -10.7980 N.ar   64  A64        -0.2048
   1355   C4      -33.1820  -19.1890  -10.5720 C.ar   64  A64         0.1692
   1356    P.3    -36.9980  -19.2400   -6.1820 P.3    65  G65         0.2141
   1357  OP1      -38.2050  -19.5900   -5.3990 O.3    65  G65        -0.4373
   1358  OP2      -36.1310  -18.1190   -5.7380 O.2    65  G65        -0.5172
   1359  O5'      -36.1220  -20.5560   -6.3430 O.3    65  G65        -0.3114
   1360  C5'      -36.7550  -21.8250   -6.4430 C.3    65  G65         0.1812
   1361  C4'      -35.7300  -22.9340   -6.5420 C.3    65  G65         0.1773
   1362  O4'      -34.8570  -22.6910   -7.6810 O.3    65  G65        -0.3307
   1363  C3'      -34.7620  -23.1250   -5.3800 C.3    65  G65         0.1860
   1364  O3'      -35.3510  -23.8770   -4.3150 O.3    65  G65        -0.3112
   1365  C2'      -33.6580  -23.9180   -6.0620 C.3    65  G65         0.2309
   1366  O2'      -34.0160  -25.2640   -6.3040 O.3    65  G65        -0.2156
   1367  C1'      -33.5560  -23.1730   -7.3910 C.3    65  G65         0.2408
   1368   N9      -32.6400  -22.0380   -7.3160 N.ar   65  G65        -0.2693
   1369   C8      -32.9430  -20.6980   -7.2130 C.ar   65  G65         0.1817
   1370   N7      -31.8820  -19.9350   -7.1520 N.ar   65  G65        -0.2173
   1371   C5      -30.8210  -20.8270   -7.2220 C.ar   65  G65         0.1748
   1372   C6      -29.4240  -20.5990   -7.1980 C.ar   65  G65         0.3023
   1373   O6      -28.8170  -19.5170   -7.1170 O.2    65  G65        -0.2633
   1374   N.1     -28.7120  -21.7950   -7.2820 N.ar   65  G65        -0.1709
   1375   C.2     -29.2740  -23.0460   -7.3850 C.ar   65  G65         0.2606
   1376   N.2     -28.4370  -24.0850   -7.4480 N.pl3  65  G65        -0.0859
   1377   N.3     -30.5700  -23.2650   -7.4210 N.ar   65  G65        -0.1918
   1378   C4      -31.2770  -22.1240   -7.3290 C.ar   65  G65         0.1723
   1379    P.3    -34.8680  -23.6330   -2.7900 P.3    66  U66         0.2141
   1380  OP1      -35.6890  -24.5340   -1.9420 O.3    66  U66        -0.4373
   1381  OP2      -34.8360  -22.1720   -2.5000 O.2    66  U66        -0.5172
   1382  O5'      -33.3720  -24.1790   -2.7670 O.3    66  U66        -0.3114
   1383  C5'      -33.0850  -25.5150   -3.1690 C.3    66  U66         0.1812
   1384  C4'      -31.6000  -25.7530   -3.1710 C.3    66  U66         0.1773
   1385  O4'      -30.9540  -24.8400   -4.0890 O.3    66  U66        -0.3307
   1386  C3'      -30.8770  -25.4370   -1.8770 C.3    66  U66         0.1860
   1387  O3'      -31.0850  -26.4450   -0.8980 O.3    66  U66        -0.3112
   1388  C2'      -29.4310  -25.3840   -2.3500 C.3    66  U66         0.2309
   1389  O2'      -28.8710  -26.6710   -2.4710 O.3    66  U66        -0.2156
   1390  C1'      -29.5830  -24.7460   -3.7360 C.3    66  U66         0.2420
   1391   N.1     -29.1520  -23.3400   -3.7920 N.ar   66  U66        -0.2534
   1392   C.2     -27.8070  -23.1160   -3.9670 C.ar   66  U66         0.3546
   1393   O.2     -26.9990  -24.0230   -4.0750 O.2    66  U66        -0.2443
   1394   N.3     -27.4350  -21.7970   -4.0140 N.ar   66  U66        -0.1530
   1395   C4      -28.2550  -20.6980   -3.9090 C.ar   66  U66         0.2846
   1396   O4      -27.7630  -19.5670   -3.9870 O.2    66  U66        -0.2650
   1397   C5      -29.6450  -21.0100   -3.7260 C.ar   66  U66         0.0814
   1398   C6      -30.0340  -22.2930   -3.6750 C.ar   66  U66         0.0870
   1399    P.3    -31.1900  -26.0340    0.6550 P.3    67  C67         0.2141
   1400  OP1      -31.7710  -27.1730    1.4020 O.3    67  C67        -0.4373
   1401  OP2      -31.8270  -24.6940    0.7350 O.2    67  C67        -0.5172
   1402  O5'      -29.6730  -25.9040    1.1100 O.3    67  C67        -0.3114
   1403  C5'      -28.7950  -27.0180    1.0320 C.3    67  C67         0.1812
   1404  C4'      -27.3640  -26.5440    1.0070 C.3    67  C67         0.1773
   1405  O4'      -27.0970  -25.8380   -0.2340 O.3    67  C67        -0.3307
   1406  C3'      -26.9960  -25.5400    2.0880 C.3    67  C67         0.1860
   1407  O3'      -26.7160  -26.1830    3.3190 O.3    67  C67        -0.3112
   1408  C2'      -25.7760  -24.8620    1.4800 C.3    67  C67         0.2309
   1409  O2'      -24.5690  -25.5730    1.6030 O.3    67  C67        -0.2156
   1410  C1'      -26.1890  -24.7760    0.0120 C.3    67  C67         0.2420
   1411   N.1     -26.8640  -23.4980   -0.2540 N.ar   67  C67        -0.2535
   1412   C.2     -26.0790  -22.3950   -0.5510 C.ar   67  C67         0.3532
   1413   O.2     -24.8420  -22.5360   -0.5960 O.2    67  C67        -0.2443
   1414   N.3     -26.6750  -21.2030   -0.7740 N.ar   67  C67        -0.1739
   1415   C4      -27.9990  -21.0940   -0.6950 C.ar   67  C67         0.1759
   1416   N.4     -28.5300  -19.8920   -0.8910 N.pl3  67  C67        -0.1070
   1417   C5      -28.8270  -22.2080   -0.4070 C.ar   67  C67         0.0566
   1418   C6      -28.2250  -23.3820   -0.1950 C.ar   67  C67         0.0850
   1419    P.3    -27.1350  -25.4760    4.6940 P.3    68  G68         0.2141
   1420  OP1      -26.9790  -26.4850    5.7720 O.3    68  G68        -0.4373
   1421  OP2      -28.4390  -24.7760    4.5240 O.2    68  G68        -0.5172
   1422  O5'      -26.0000  -24.3790    4.8770 O.3    68  G68        -0.3114
   1423  C5'      -24.6350  -24.7620    4.8950 C.3    68  G68         0.1812
   1424  C4'      -23.7530  -23.5520    4.7430 C.3    68  G68         0.1773
   1425  O4'      -23.9620  -22.9410    3.4480 O.3    68  G68        -0.3307
   1426  C3'      -24.0270  -22.4160    5.7040 C.3    68  G68         0.1860
   1427  O3'      -23.4270  -22.6930    6.9550 O.3    68  G68        -0.3112
   1428  C2'      -23.3550  -21.2470    4.9930 C.3    68  G68         0.2309
   1429  O2'      -21.9550  -21.2080    5.1460 O.3    68  G68        -0.2156
   1430  C1'      -23.6790  -21.5550    3.5340 C.3    68  G68         0.2408
   1431   N9      -24.8470  -20.8260    3.0670 N.ar   68  G68        -0.2693
   1432   C8      -26.0960  -21.3340    2.8010 C.ar   68  G68         0.1817
   1433   N7      -26.9310  -20.4310    2.3710 N.ar   68  G68        -0.2173
   1434   C5      -26.1860  -19.2600    2.3540 C.ar   68  G68         0.1748
   1435   C6      -26.5490  -17.9510    1.9670 C.ar   68  G68         0.3023
   1436   O6      -27.6310  -17.5570    1.5090 O.2    68  G68        -0.2633
   1437   N.1     -25.4950  -17.0550    2.1430 N.ar   68  G68        -0.1709
   1438   C.2     -24.2470  -17.3840    2.6110 C.ar   68  G68         0.2606
   1439   N.2     -23.3630  -16.3720    2.7260 N.pl3  68  G68        -0.0859
   1440   N.3     -23.8900  -18.6150    2.9480 N.ar   68  G68        -0.1918
   1441   C4      -24.9030  -19.4910    2.7980 C.ar   68  G68         0.1723
   1442    P.3    -24.0090  -22.0000    8.2760 P.3    69  C69         0.2141
   1443  OP1      -23.1990  -22.4710    9.4280 O.3    69  C69        -0.4373
   1444  OP2      -25.4670  -22.2320    8.2670 O.2    69  C69        -0.5172
   1445  O5'      -23.7550  -20.4410    8.0470 O.3    69  C69        -0.3114
   1446  C5'      -22.4470  -19.8900    8.1390 C.3    69  C69         0.1813
   1447  C4'      -22.4990  -18.3960    7.9350 C.3    69  C69         0.1801
   1448  O4'      -23.0390  -18.1330    6.6150 O.3    69  C69        -0.3306
   1449  C3'      -23.4210  -17.6350    8.8780 C.3    69  C69         0.2161
   1450  O3'      -22.9120  -17.3560   10.1990 O.3    69  C69        -0.2175
   1451  C2'      -23.7800  -16.3900    8.0720 C.3    69  C69         0.2338
   1452  O2'      -22.8050  -15.3900    8.2220 O.3    69  C69        -0.2155
   1453  C1'      -23.7600  -16.9180    6.6340 C.3    69  C69         0.2421
   1454   N.1     -25.0950  -17.1540    6.0600 N.ar   69  C69        -0.2535
   1455   C.2     -25.8140  -16.0510    5.5890 C.ar   69  C69         0.3532
   1456   O.2     -25.3060  -14.9260    5.6960 O.2    69  C69        -0.2443
   1457   N.3     -27.0350  -16.2350    5.0350 N.ar   69  C69        -0.1739
   1458   C4      -27.5490  -17.4610    4.9520 C.ar   69  C69         0.1759
   1459   N.4     -28.7560  -17.5900    4.3890 N.pl3  69  C69        -0.1070
   1460   C5      -26.8460  -18.6100    5.4400 C.ar   69  C69         0.0566
   1461   C6      -25.6300  -18.4120    5.9790 C.ar   69  C69         0.0850
   1462  O5'      -39.0120  -15.6290   -1.7310 O.3    70  U70        -0.2176
   1463  C5'      -39.8060  -14.6810   -2.4220 C.3    70  U70         0.2141
   1464  C4'      -39.6110  -13.3240   -1.8030 C.3    70  U70         0.1802
   1465  O4'      -39.8450  -13.4250   -0.3770 O.3    70  U70        -0.3306
   1466  C3'      -38.2020  -12.7700   -1.8420 C.3    70  U70         0.1861
   1467  O3'      -37.8510  -12.2360   -3.1090 O.3    70  U70        -0.3112
   1468  C2'      -38.2800  -11.6970   -0.7690 C.3    70  U70         0.2309
   1469  O2'      -38.9360  -10.5160   -1.1860 O.3    70  U70        -0.2156
   1470  C1'      -39.1140  -12.4110    0.2910 C.3    70  U70         0.2420
   1471   N.1     -38.2830  -13.0260    1.3360 N.ar   70  U70        -0.2534
   1472   C.2     -37.7480  -12.1770    2.2780 C.ar   70  U70         0.3546
   1473   O.2     -37.9610  -10.9840    2.2630 O.2    70  U70        -0.2443
   1474   N.3     -36.9630  -12.7780    3.2360 N.ar   70  U70        -0.1530
   1475   C4      -36.6740  -14.1280    3.3440 C.ar   70  U70         0.2846
   1476   O4      -35.8990  -14.5220    4.2270 O.2    70  U70        -0.2650
   1477   C5      -37.2840  -14.9450    2.3300 C.ar   70  U70         0.0814
   1478   C6      -38.0430  -14.3780    1.3830 C.ar   70  U70         0.0870
   1479    P.3    -36.3050  -12.2110   -3.5520 P.3    71  U71         0.2141
   1480  OP1      -36.2190  -11.8340   -4.9960 O.2    71  U71        -0.5172
   1481  OP2      -35.6790  -13.4820   -3.0890 O.3    71  U71        -0.4373
   1482  O5'      -35.6920  -11.0150   -2.6910 O.3    71  U71        -0.3114
   1483  C5'      -36.1600   -9.6750   -2.8370 C.3    71  U71         0.1812
   1484  C4'      -35.4860   -8.7890   -1.8120 C.3    71  U71         0.1773
   1485  O4'      -35.9500   -9.1360   -0.4760 O.3    71  U71        -0.3307
   1486  C3'      -33.9870   -8.9680   -1.6660 C.3    71  U71         0.1860
   1487  O3'      -33.2370   -8.3960   -2.7220 O.3    71  U71        -0.3112
   1488  C2'      -33.7540   -8.2990   -0.3260 C.3    71  U71         0.2309
   1489  O2'      -33.8460   -6.8920   -0.3780 O.3    71  U71        -0.2156
   1490  C1'      -34.9250   -8.8690    0.4710 C.3    71  U71         0.2420
   1491   N.1     -34.5280  -10.1290    1.1110 N.ar   71  U71        -0.2534
   1492   C.2     -33.9940  -10.0590    2.3890 C.ar   71  U71         0.3546
   1493   O.2     -33.9360   -9.0260    3.0340 O.2    71  U71        -0.2443
   1494   N.3     -33.5450  -11.2480    2.8940 N.ar   71  U71        -0.1530
   1495   C4      -33.5970  -12.4790    2.2860 C.ar   71  U71         0.2846
   1496   O4      -33.0750  -13.4490    2.8450 O.2    71  U71        -0.2650
   1497   C5      -34.2140  -12.4790    0.9910 C.ar   71  U71         0.0814
   1498   C6      -34.6470  -11.3300    0.4610 C.ar   71  U71         0.0870
   1499    P.3    -31.9220   -9.1480   -3.2480 P.3    72  G72         0.2141
   1500  OP1      -31.3950   -8.3730   -4.3880 O.2    72  G72        -0.5172
   1501  OP2      -32.2280  -10.5880   -3.4250 O.3    72  G72        -0.4373
   1502  O5'      -30.8980   -9.0420   -2.0290 O.3    72  G72        -0.3114
   1503  C5'      -30.6920   -7.8060   -1.3490 C.3    72  G72         0.1812
   1504  C4'      -29.6970   -7.9810   -0.2280 C.3    72  G72         0.1773
   1505  O4'      -30.2660   -8.7550    0.8540 O.3    72  G72        -0.3307
   1506  C3'      -28.4290   -8.7350   -0.5700 C.3    72  G72         0.1860
   1507  O3'      -27.5260   -7.9110   -1.2990 O.3    72  G72        -0.3112
   1508  C2'      -27.9160   -9.1080    0.8170 C.3    72  G72         0.2309
   1509  O2'      -27.2370   -8.0600    1.4720 O.3    72  G72        -0.2156
   1510  C1'      -29.2230   -9.4200    1.5520 C.3    72  G72         0.2408
   1511   N9      -29.5250  -10.8500    1.5710 N.ar   72  G72        -0.2693
   1512   C8      -30.4140  -11.5180    0.7650 C.ar   72  G72         0.1817
   1513   N7      -30.4870  -12.7920    1.0320 N.ar   72  G72        -0.2173
   1514   C5      -29.5890  -12.9770    2.0710 C.ar   72  G72         0.1748
   1515   C6      -29.2410  -14.1570    2.7860 C.ar   72  G72         0.3023
   1516   O6      -29.7140  -15.2970    2.6760 O.2    72  G72        -0.2633
   1517   N.1     -28.2530  -13.9080    3.7290 N.ar   72  G72        -0.1709
   1518   C.2     -27.6990  -12.6780    3.9800 C.ar   72  G72         0.2606
   1519   N.2     -26.7470  -12.6430    4.9180 N.pl3  72  G72        -0.0859
   1520   N.3     -28.0480  -11.5640    3.3530 N.ar   72  G72        -0.1918
   1521   C4      -28.9820  -11.7900    2.4100 C.ar   72  G72         0.1723
   1522    P.3    -26.5790   -8.5630   -2.4310 P.3    73  C73         0.2141
   1523  OP1      -26.0460   -7.4470   -3.2540 O.2    73  C73        -0.5172
   1524  OP2      -27.2940   -9.6800   -3.1030 O.3    73  C73        -0.4373
   1525  O5'      -25.3890   -9.2280   -1.6030 O.3    73  C73        -0.3114
   1526  C5'      -24.4300   -8.4450   -0.9220 C.3    73  C73         0.1812
   1527  C4'      -23.5890   -9.3250   -0.0290 C.3    73  C73         0.1773
   1528  O4'      -24.4380   -9.9270    0.9870 O.3    73  C73        -0.3307
   1529  C3'      -22.9430  -10.5410   -0.6680 C.3    73  C73         0.1860
   1530  O3'      -21.7830  -10.2470   -1.4280 O.3    73  C73        -0.3112
   1531  C2'      -22.6350  -11.3730    0.5620 C.3    73  C73         0.2309
   1532  O2'      -21.6060  -10.8070    1.3400 O.3    73  C73        -0.2156
   1533  C1'      -23.9460  -11.2200    1.3190 C.3    73  C73         0.2420
   1534   N.1     -24.9520  -12.2150    0.9190 N.ar   73  C73        -0.2535
   1535   C.2     -24.9630  -13.4450    1.5700 C.ar   73  C73         0.3532
   1536   O.2     -24.0940  -13.6720    2.4220 O.2    73  C73        -0.2443
   1537   N.3     -25.9140  -14.3540    1.2530 N.ar   73  C73        -0.1739
   1538   C4      -26.8190  -14.0740    0.3150 C.ar   73  C73         0.1759
   1539   N.4     -27.7440  -14.9930    0.0500 N.pl3  73  C73        -0.1070
   1540   C5      -26.8170  -12.8360   -0.3890 C.ar   73  C73         0.0566
   1541   C6      -25.8740  -11.9420   -0.0590 C.ar   73  C73         0.0850
   1542    P.3    -21.5430  -11.0110   -2.8240 P.3    74  G74         0.2141
   1543  OP1      -20.4140  -10.3130   -3.4770 O.3    74  G74        -0.4373
   1544  OP2      -22.8290  -11.1850   -3.5640 O.2    74  G74        -0.5172
   1545  O5'      -21.0280  -12.4550   -2.3840 O.3    74  G74        -0.3114
   1546  C5'      -19.8750  -12.5960   -1.5570 C.3    74  G74         0.1812
   1547  C4'      -19.7670  -14.0120   -1.0380 C.3    74  G74         0.1773
   1548  O4'      -20.8330  -14.2980   -0.0860 O.3    74  G74        -0.3307
   1549  C3'      -19.9380  -15.1270   -2.0530 C.3    74  G74         0.1860
   1550  O3'      -18.8070  -15.3000   -2.8840 O.3    74  G74        -0.3112
   1551  C2'      -20.1690  -16.3120   -1.1320 C.3    74  G74         0.2309
   1552  O2'      -19.0010  -16.7550   -0.4720 O.3    74  G74        -0.2156
   1553  C1'      -21.1490  -15.6890   -0.1380 C.3    74  G74         0.2408
   1554   N9      -22.5220  -15.8440   -0.6040 N.ar   74  G74        -0.2693
   1555   C8      -23.3480  -14.8840   -1.1390 C.ar   74  G74         0.1817
   1556   N7      -24.5250  -15.3480   -1.4720 N.ar   74  G74        -0.2173
   1557   C5      -24.4720  -16.6910   -1.1320 C.ar   74  G74         0.1748
   1558   C6      -25.4520  -17.7040   -1.2460 C.ar   74  G74         0.3023
   1559   O6      -26.6080  -17.6140   -1.6900 O.2    74  G74        -0.2633
   1560   N.1     -24.9760  -18.9290   -0.7760 N.ar   74  G74        -0.1709
   1561   C.2     -23.7170  -19.1470   -0.2660 C.ar   74  G74         0.2606
   1562   N.2     -23.4380  -20.3920    0.1350 N.pl3  74  G74        -0.0859
   1563   N.3     -22.7940  -18.2080   -0.1550 N.ar   74  G74        -0.1918
   1564   C4      -23.2390  -17.0130   -0.5990 C.ar   74  G74         0.1723
   1565    P.3    -18.9780  -15.9740   -4.3340 P.3    75  U75         0.2141
   1566  OP1      -17.5810  -16.0630   -4.8270 O.3    75  U75        -0.4373
   1567  OP2      -20.0120  -15.2820   -5.1580 O.2    75  U75        -0.5172
   1568  O5'      -19.5100  -17.4450   -4.0290 O.3    75  U75        -0.3114
   1569  C5'      -18.6570  -18.4250   -3.4460 C.3    75  U75         0.1812
   1570  C4'      -19.3420  -19.7700   -3.4220 C.3    75  U75         0.1773
   1571  O4'      -20.5590  -19.6770   -2.6360 O.3    75  U75        -0.3307
   1572  C3'      -19.8270  -20.3210   -4.7510 C.3    75  U75         0.1860
   1573  O3'      -18.7610  -20.9370   -5.4640 O.3    75  U75        -0.3112
   1574  C2'      -20.8440  -21.3500   -4.2780 C.3    75  U75         0.2309
   1575  O2'      -20.2340  -22.5170   -3.7580 O.3    75  U75        -0.2156
   1576  C1'      -21.5280  -20.5830   -3.1450 C.3    75  U75         0.2420
   1577   N.1     -22.7040  -19.8040   -3.5680 N.ar   75  U75        -0.2534
   1578   C.2     -23.9150  -20.4640   -3.6800 C.ar   75  U75         0.3546
   1579   O.2     -24.0400  -21.6560   -3.4610 O.2    75  U75        -0.2443
   1580   N.3     -24.9720  -19.6760   -4.0630 N.ar   75  U75        -0.1530
   1581   C4      -24.9410  -18.3230   -4.3450 C.ar   75  U75         0.2846
   1582   O4      -25.9830  -17.7440   -4.6700 O.2    75  U75        -0.2650
   1583   C5      -23.6540  -17.7170   -4.2120 C.ar   75  U75         0.0814
   1584   C6      -22.6060  -18.4590   -3.8380 C.ar   75  U75         0.0870
   1585    P.3    -18.7920  -20.9980   -7.0750 P.3    76  C76         0.2141
   1586  OP1      -17.4390  -21.4510   -7.4720 O.3    76  C76        -0.4373
   1587  OP2      -19.3370  -19.7470   -7.6590 O.2    76  C76        -0.5172
   1588  O5'      -19.8390  -22.1460   -7.4050 O.3    76  C76        -0.3114
   1589  C5'      -19.5850  -23.4940   -7.0280 C.3    76  C76         0.1812
   1590  C4'      -20.8320  -24.3260   -7.1930 C.3    76  C76         0.1773
   1591  O4'      -21.8510  -23.8650   -6.2640 O.3    76  C76        -0.3307
   1592  C3'      -21.5290  -24.2620   -8.5440 C.3    76  C76         0.1860
   1593  O3'      -20.8780  -25.0870   -9.5030 O.3    76  C76        -0.3112
   1594  C2'      -22.9090  -24.7880   -8.1750 C.3    76  C76         0.2309
   1595  O2'      -22.9460  -26.1810   -7.9590 O.3    76  C76        -0.2156
   1596  C1'      -23.1290  -24.0930   -6.8320 C.3    76  C76         0.2420
   1597   N.1     -23.7970  -22.8030   -7.0020 N.ar   76  C76        -0.2535
   1598   C.2     -25.1520  -22.8100   -7.2380 C.ar   76  C76         0.3532
   1599   O.2     -25.7200  -23.9020   -7.3200 O.2    76  C76        -0.2443
   1600   N.3     -25.8110  -21.6390   -7.3740 N.ar   76  C76        -0.1739
   1601   C4      -25.1450  -20.4890   -7.2860 C.ar   76  C76         0.1759
   1602   N.4     -25.8390  -19.3530   -7.4020 N.pl3  76  C76        -0.1070
   1603   C5      -23.7420  -20.4500   -7.0660 C.ar   76  C76         0.0566
   1604   C6      -23.1110  -21.6230   -6.9280 C.ar   76  C76         0.0850
   1605    P.3    -20.7680  -24.6090  -11.0400 P.3    77  A77         0.2141
   1606  OP1      -20.0240  -25.6680  -11.7570 O.2    77  A77        -0.5172
   1607  OP2      -20.2850  -23.2110  -11.0960 O.3    77  A77        -0.4373
   1608  O5'      -22.2640  -24.6560  -11.5800 O.3    77  A77        -0.3114
   1609  C5'      -22.9560  -25.8940  -11.6820 C.3    77  A77         0.1812
   1610  C4'      -24.4330  -25.6480  -11.8150 C.3    77  A77         0.1773
   1611  O4'      -24.8930  -24.9100  -10.6520 O.3    77  A77        -0.3307
   1612  C3'      -24.8310  -24.7570  -12.9730 C.3    77  A77         0.1860
   1613  O3'      -24.8670  -25.4820  -14.1870 O.3    77  A77        -0.3112
   1614  C2'      -26.1920  -24.2610  -12.5120 C.3    77  A77         0.2309
   1615  O2'      -27.2360  -25.2100  -12.6030 O.3    77  A77        -0.2156
   1616  C1'      -25.8980  -23.9790  -11.0410 C.3    77  A77         0.2408
   1617   N9      -25.3760  -22.6250  -10.8520 N.ar   77  A77        -0.2693
   1618   C8      -24.0650  -22.2170  -10.8160 C.ar   77  A77         0.1816
   1619   N7      -23.9180  -20.9260  -10.6480 N.ar   77  A77        -0.2193
   1620   C5      -25.2200  -20.4520  -10.5650 C.ar   77  A77         0.1518
   1621   C6      -25.7450  -19.1610  -10.3870 C.ar   77  A77         0.1919
   1622   N6      -24.9940  -18.0710  -10.2550 N.pl3  77  A77        -0.1054
   1623   N.1     -27.0840  -19.0290  -10.3480 N.ar   77  A77        -0.2040
   1624   C.2     -27.8380  -20.1260  -10.4800 C.ar   77  A77         0.2016
   1625   N.3     -27.4640  -21.3930  -10.6520 N.ar   77  A77        -0.2048
   1626   C4      -26.1260  -21.4870  -10.6860 C.ar   77  A77         0.1692
   1627    P.3    -24.0280  -24.9470  -15.4430 P.3    78  C78         0.2141
   1628  OP1      -23.7170  -26.0870  -16.3440 O.2    78  C78        -0.5172
   1629  OP2      -22.9230  -24.1250  -14.9040 O.3    78  C78        -0.4373
   1630  O5'      -25.0480  -23.9820  -16.1860 O.3    78  C78        -0.3114
   1631  C5'      -26.2350  -24.4980  -16.7600 C.3    78  C78         0.1812
   1632  C4'      -27.2700  -23.4140  -16.8660 C.3    78  C78         0.1773
   1633  O4'      -27.5200  -22.8560  -15.5500 O.3    78  C78        -0.3307
   1634  C3'      -26.8750  -22.2030  -17.6840 C.3    78  C78         0.1860
   1635  O3'      -27.0290  -22.4800  -19.0710 O.3    78  C78        -0.3112
   1636  C2'      -27.8680  -21.1720  -17.1690 C.3    78  C78         0.2309
   1637  O2'      -29.1810  -21.3660  -17.6340 O.3    78  C78        -0.2156
   1638  C1'      -27.8550  -21.4830  -15.6750 C.3    78  C78         0.2420
   1639   N.1     -26.8560  -20.6720  -14.9680 N.ar   78  C78        -0.2535
   1640   C.2     -27.1190  -19.3240  -14.8120 C.ar   78  C78         0.3532
   1641   O.2     -28.1960  -18.8800  -15.2400 O.2    78  C78        -0.2443
   1642   N.3     -26.2030  -18.5300  -14.2060 N.ar   78  C78        -0.1739
   1643   C4      -25.0630  -19.0500  -13.7620 C.ar   78  C78         0.1759
   1644   N.4     -24.1900  -18.2230  -13.1950 N.pl3  78  C78        -0.1070
   1645   C5      -24.7720  -20.4410  -13.8880 C.ar   78  C78         0.0566
   1646   C6      -25.6920  -21.2090  -14.4920 C.ar   78  C78         0.0850
   1647    P.3    -25.9660  -21.8950  -20.1240 P.3    79  G79         0.2141
   1648  OP1      -26.0930  -22.6690  -21.3820 O.2    79  G79        -0.5172
   1649  OP2      -24.6520  -21.8100  -19.4420 O.3    79  G79        -0.4373
   1650  O5'      -26.5310  -20.4450  -20.4270 O.3    79  G79        -0.3114
   1651  C5'      -27.8690  -20.3030  -20.8830 C.3    79  G79         0.1812
   1652  C4'      -28.3400  -18.8850  -20.7110 C.3    79  G79         0.1773
   1653  O4'      -28.4350  -18.5620  -19.3010 O.3    79  G79        -0.3307
   1654  C3'      -27.4210  -17.8180  -21.2650 C.3    79  G79         0.1860
   1655  O3'      -27.6110  -17.6440  -22.6520 O.3    79  G79        -0.3112
   1656  C2'      -27.8820  -16.5960  -20.5010 C.3    79  G79         0.2309
   1657  O2'      -29.0750  -16.0800  -21.0480 O.3    79  G79        -0.2156
   1658  C1'      -28.1120  -17.1940  -19.1130 C.3    79  G79         0.2408
   1659   N9      -26.9350  -17.1220  -18.2540 N.ar   79  G79        -0.2693
   1660   C8      -26.0680  -18.1440  -17.9310 C.ar   79  G79         0.1817
   1661   N7      -25.1070  -17.7700  -17.1280 N.ar   79  G79        -0.2173
   1662   C5      -25.3490  -16.4160  -16.9150 C.ar   79  G79         0.1748
   1663   C6      -24.6300  -15.4510  -16.1440 C.ar   79  G79         0.3023
   1664   O6      -23.5850  -15.6000  -15.4850 O.2    79  G79        -0.2633
   1665   N.1     -25.2380  -14.2010  -16.2030 N.ar   79  G79        -0.1709
   1666   C.2     -26.3780  -13.9040  -16.9170 C.ar   79  G79         0.2606
   1667   N.2     -26.8200  -12.6350  -16.8390 N.pl3  79  G79        -0.0859
   1668   N.3     -27.0400  -14.7810  -17.6490 N.ar   79  G79        -0.1918
   1669   C4      -26.4790  -16.0060  -17.6010 C.ar   79  G79         0.1723
   1670    P.3    -26.3710  -17.1790  -23.5540 P.3    80  C80         0.2141
   1671  OP1      -26.7190  -17.3580  -24.9890 O.2    80  C80        -0.5172
   1672  OP2      -25.1440  -17.8160  -23.0140 O.3    80  C80        -0.4373
   1673  O5'      -26.2800  -15.6230  -23.2620 O.3    80  C80        -0.3114
   1674  C5'      -27.2650  -14.7370  -23.7520 C.3    80  C80         0.1812
   1675  C4'      -26.9350  -13.3310  -23.3300 C.3    80  C80         0.1773
   1676  O4'      -26.9740  -13.2540  -21.8780 O.3    80  C80        -0.3307
   1677  C3'      -25.5330  -12.8610  -23.6760 C.3    80  C80         0.1860
   1678  O3'      -25.4760  -12.3680  -25.0050 O.3    80  C80        -0.3112
   1679  C2'      -25.3320  -11.7580  -22.6510 C.3    80  C80         0.2309
   1680  O2'      -26.0810  -10.6040  -22.9660 O.3    80  C80        -0.2156
   1681  C1'      -25.9300  -12.4160  -21.4130 C.3    80  C80         0.2420
   1682   N.1     -24.9710  -13.2390  -20.6670 N.ar   80  C80        -0.2535
   1683   C.2     -24.1930  -12.6230  -19.6850 C.ar   80  C80         0.3532
   1684   O.2     -24.3420  -11.4030  -19.4960 O.2    80  C80        -0.2443
   1685   N.3     -23.3060  -13.3650  -18.9770 N.ar   80  C80        -0.1739
   1686   C4      -23.1860  -14.6770  -19.2310 C.ar   80  C80         0.1759
   1687   N.4     -22.3050  -15.3850  -18.5240 N.pl3  80  C80        -0.1070
   1688   C5      -23.9690  -15.3240  -20.2300 C.ar   80  C80         0.0566
   1689   C6      -24.8400  -14.5740  -20.9180 C.ar   80  C80         0.0850
   1690    P.3    -24.0720  -12.3650  -25.7900 P.3    81  C81         0.2141
   1691  OP1      -24.3610  -11.8010  -27.1350 O.2    81  C81        -0.5172
   1692  OP2      -23.4260  -13.6960  -25.6790 O.3    81  C81        -0.4373
   1693  O5'      -23.1960  -11.3090  -24.9800 O.3    81  C81        -0.3114
   1694  C5'      -23.6320   -9.9550  -24.8360 C.3    81  C81         0.1812
   1695  C4'      -22.7080   -9.1950  -23.9100 C.3    81  C81         0.1773
   1696  O4'      -22.8710   -9.6490  -22.5380 O.3    81  C81        -0.3307
   1697  C3'      -21.2180   -9.3650  -24.1460 C.3    81  C81         0.1860
   1698  O3'      -20.7520   -8.6350  -25.2690 O.3    81  C81        -0.3112
   1699  C2'      -20.6560   -8.8690  -22.8200 C.3    81  C81         0.2309
   1700  O2'      -20.7060   -7.4650  -22.6460 O.3    81  C81        -0.2156
   1701  C1'      -21.6300   -9.5320  -21.8490 C.3    81  C81         0.2420
   1702   N.1     -21.1750  -10.8720  -21.4570 N.ar   81  C81        -0.2535
   1703   C.2     -20.2720  -10.9820  -20.4060 C.ar   81  C81         0.3532
   1704   O.2     -19.8910   -9.9460  -19.8340 O.2    81  C81        -0.2443
   1705   N.3     -19.8330  -12.2060  -20.0430 N.ar   81  C81        -0.1739
   1706   C4      -20.2590  -13.2880  -20.6950 C.ar   81  C81         0.1759
   1707   N.4     -19.7850  -14.4730  -20.3150 N.pl3  81  C81        -0.1070
   1708   C5      -21.1840  -13.2030  -21.7660 C.ar   81  C81         0.0566
   1709   C6      -21.6150  -11.9880  -22.1100 C.ar   81  C81         0.0850
   1710    P.3    -19.4720   -9.1680  -26.0910 P.3    82  G82         0.2141
   1711  OP1      -19.3090   -8.2450  -27.2410 O.2    82  G82        -0.5172
   1712  OP2      -19.6010  -10.6340  -26.3170 O.3    82  G82        -0.4373
   1713  O5'      -18.2390   -8.9660  -25.1020 O.3    82  G82        -0.3114
   1714  C5'      -17.8520   -7.6720  -24.6680 C.3    82  G82         0.1812
   1715  C4'      -16.8130   -7.7840  -23.5800 C.3    82  G82         0.1773
   1716  O4'      -17.3660   -8.4790  -22.4240 O.3    82  G82        -0.3307
   1717  C3'      -15.5790   -8.6110  -23.8960 C.3    82  G82         0.1860
   1718  O3'      -14.6810   -7.8890  -24.7280 O.3    82  G82        -0.3112
   1719  C2'      -15.0280   -8.8280  -22.4940 C.3    82  G82         0.2309
   1720  O2'      -14.4530   -7.6560  -21.9480 O.3    82  G82        -0.2156
   1721  C1'      -16.3170   -9.1530  -21.7360 C.3    82  G82         0.2408
   1722   N9      -16.6030  -10.5830  -21.7350 N.ar   82  G82        -0.2693
   1723   C8      -17.5180  -11.2560  -22.5090 C.ar   82  G82         0.1817
   1724   N7      -17.5570  -12.5370  -22.2590 N.ar   82  G82        -0.2173
   1725   C5      -16.6080  -12.7200  -21.2590 C.ar   82  G82         0.1748
   1726   C6      -16.2060  -13.9050  -20.5580 C.ar   82  G82         0.3023
   1727   O6      -16.6410  -15.0730  -20.6740 O.2    82  G82        -0.2633
   1728   N.1     -15.1980  -13.6300  -19.6370 N.ar   82  G82        -0.1709
   1729   C.2     -14.6540  -12.3930  -19.4090 C.ar   82  G82         0.2606
   1730   N.2     -13.6860  -12.3340  -18.4910 N.pl3  82  G82        -0.0859
   1731   N.3     -15.0280  -11.2900  -20.0360 N.ar   82  G82        -0.1918
   1732   C4      -16.0010  -11.5260  -20.9390 C.ar   82  G82         0.1723
   1733    P.3    -13.4410   -8.6480  -25.4220 P.3    83  G83         0.2141
   1734  OP1      -12.7500   -7.6170  -26.2370 O.2    83  G83        -0.5172
   1735  OP2      -13.8630   -9.9230  -26.0450 O.3    83  G83        -0.4373
   1736  O5'      -12.5020   -9.0470  -24.2100 O.3    83  G83        -0.3114
   1737  C5'      -11.7920   -8.0650  -23.4850 C.3    83  G83         0.1812
   1738  C4'      -10.9150   -8.7360  -22.4720 C.3    83  G83         0.1773
   1739  O4'      -11.7700   -9.4830  -21.5670 O.3    83  G83        -0.3307
   1740  C3'       -9.9790   -9.7940  -23.0330 C.3    83  G83         0.1860
   1741  O3'       -8.7730   -9.2270  -23.5220 O.3    83  G83        -0.3112
   1742  C2'       -9.7360  -10.6500  -21.8090 C.3    83  G83         0.2309
   1743  O2'       -8.8510  -10.0150  -20.9050 O.3    83  G83        -0.2156
   1744  C1'      -11.1480  -10.7020  -21.2230 C.3    83  G83         0.2408
   1745   N9      -11.9760  -11.7890  -21.7310 N.ar   83  G83        -0.2693
   1746   C8      -12.9960  -11.7050  -22.6460 C.ar   83  G83         0.1817
   1747   N7      -13.5850  -12.8490  -22.8630 N.ar   83  G83        -0.2173
   1748   C5      -12.9010  -13.7430  -22.0530 C.ar   83  G83         0.1748
   1749   C6      -13.0870  -15.1320  -21.8630 C.ar   83  G83         0.3023
   1750   O6      -13.9250  -15.8730  -22.3990 O.2    83  G83        -0.2633
   1751   N.1     -12.1700  -15.6490  -20.9460 N.ar   83  G83        -0.1709
   1752   C.2     -11.1990  -14.9150  -20.3000 C.ar   83  G83         0.2606
   1753   N.2     -10.4010  -15.5710  -19.4420 N.pl3  83  G83        -0.0859
   1754   N.3     -11.0190  -13.6210  -20.4780 N.ar   83  G83        -0.1918
   1755   C4      -11.8980  -13.1040  -21.3580 C.ar   83  G83         0.1723
   1756    P.3     -8.0100   -9.9280  -24.7490 P.3    84  C84         0.2141
   1757  OP1       -6.8280   -9.0830  -25.0460 O.3    84  C84        -0.4373
   1758  OP2       -8.9810  -10.2280  -25.8320 O.2    84  C84        -0.5172
   1759  O5'       -7.5010  -11.3030  -24.1260 O.3    84  C84        -0.3114
   1760  C5'       -6.4880  -11.2980  -23.1240 C.3    84  C84         0.1812
   1761  C4'       -6.2350  -12.6920  -22.6100 C.3    84  C84         0.1773
   1762  O4'       -7.3970  -13.2150  -21.9080 O.3    84  C84        -0.3307
   1763  C3'       -5.9720  -13.7520  -23.6580 C.3    84  C84         0.1860
   1764  O3'       -4.6730  -13.6410  -24.2100 O.3    84  C84        -0.3112
   1765  C2'       -6.1700  -15.0120  -22.8330 C.3    84  C84         0.2309
   1766  O2'       -5.1000  -15.2790  -21.9460 O.3    84  C84        -0.2156
   1767  C1'       -7.4360  -14.6320  -22.0620 C.3    84  C84         0.2420
   1768   N.1      -8.6430  -14.9950  -22.8260 N.ar   84  C84        -0.2535
   1769   C.2      -9.0760  -16.3180  -22.7840 C.ar   84  C84         0.3532
   1770   O.2      -8.4390  -17.1300  -22.0910 O.2    84  C84        -0.2443
   1771   N.3     -10.1660  -16.6800  -23.5000 N.ar   84  C84        -0.1739
   1772   C4      -10.8140  -15.7750  -24.2320 C.ar   84  C84         0.1759
   1773   N.4     -11.8830  -16.1780  -24.9150 N.pl3  84  C84        -0.1070
   1774   C5      -10.3970  -14.4170  -24.2930 C.ar   84  C84         0.0566
   1775   C6       -9.3180  -14.0720  -23.5790 C.ar   84  C84         0.0850
   1776    P.3     -4.3980  -14.1980  -25.6840 P.3    85  G85         0.2141
   1777  OP1       -2.9670  -13.9360  -25.9730 O.3    85  G85        -0.4373
   1778  OP2       -5.4360  -13.7260  -26.6310 O.2    85  G85        -0.5172
   1779  O5'       -4.5840  -15.7600  -25.5050 O.3    85  G85        -0.3114
   1780  C5'       -3.7760  -16.4550  -24.5800 C.3    85  G85         0.1812
   1781  C4'       -4.1820  -17.9000  -24.5200 C.3    85  G85         0.1773
   1782  O4'       -5.4980  -18.0360  -23.9290 O.3    85  G85        -0.3307
   1783  C3'       -4.3220  -18.6430  -25.8320 C.3    85  G85         0.1860
   1784  O3'       -3.0490  -18.9940  -26.3520 O.3    85  G85        -0.3112
   1785  C2'       -5.0860  -19.8650  -25.3530 C.3    85  G85         0.2309
   1786  O2'       -4.2680  -20.7120  -24.5710 O.3    85  G85        -0.2156
   1787  C1'       -6.1120  -19.2070  -24.4350 C.3    85  G85         0.2408
   1788   N9       -7.3040  -18.7920  -25.1570 N.ar   85  G85        -0.2693
   1789   C8       -7.5830  -17.5380  -25.6430 C.ar   85  G85         0.1817
   1790   N7       -8.7340  -17.4720  -26.2560 N.ar   85  G85        -0.2173
   1791   C5       -9.2390  -18.7640  -26.1730 C.ar   85  G85         0.1748
   1792   C6      -10.4430  -19.3100  -26.6660 C.ar   85  G85         0.3023
   1793   O6      -11.3240  -18.7580  -27.3320 O.2    85  G85        -0.2633
   1794   N.1     -10.5700  -20.6470  -26.3270 N.ar   85  G85        -0.1709
   1795   C.2      -9.6470  -21.3770  -25.6310 C.ar   85  G85         0.2606
   1796   N.2      -9.9570  -22.6560  -25.4020 N.pl3  85  G85        -0.0859
   1797   N.3      -8.5070  -20.8930  -25.1900 N.ar   85  G85        -0.1918
   1798   C4       -8.3720  -19.5860  -25.4880 C.ar   85  G85         0.1723
   1799    P.3     -2.8770  -19.2390  -27.9310 P.3    86  A86         0.2141
   1800  OP1       -1.5430  -18.7260  -28.3320 O.3    86  A86        -0.4373
   1801  OP2       -4.0930  -18.7160  -28.5990 O.2    86  A86        -0.5172
   1802  O5'       -2.8590  -20.8260  -28.0660 O.3    86  A86        -0.3114
   1803  C5'       -1.9490  -21.6180  -27.3070 C.3    86  A86         0.1812
   1804  C4'       -2.2600  -23.0870  -27.4870 C.3    86  A86         0.1773
   1805  O4'       -3.4790  -23.4270  -26.7850 O.3    86  A86        -0.3307
   1806  C3'       -2.4950  -23.5360  -28.9210 C.3    86  A86         0.1860
   1807  O3'       -1.2630  -23.9000  -29.5200 O.3    86  A86        -0.3112
   1808  C2'       -3.3570  -24.7730  -28.7400 C.3    86  A86         0.2309
   1809  O2'       -2.5740  -25.8990  -28.4230 O.3    86  A86        -0.2156
   1810  C1'       -4.2070  -24.3900  -27.5290 C.3    86  A86         0.2408
   1811   N9       -5.5170  -23.8230  -27.8590 N.ar   86  A86        -0.2693
   1812   C8       -5.8300  -22.5010  -28.0740 C.ar   86  A86         0.1816
   1813   N7       -7.1010  -22.2940  -28.3130 N.ar   86  A86        -0.2193
   1814   C5       -7.6620  -23.5610  -28.2540 C.ar   86  A86         0.1518
   1815   C6       -8.9760  -24.0120  -28.4090 C.ar   86  A86         0.1919
   1816   N6      -10.0140  -23.1970  -28.6220 N.pl3  86  A86        -0.1054
   1817   N.1      -9.1980  -25.3420  -28.3260 N.ar   86  A86        -0.2040
   1818   C.2      -8.1620  -26.1460  -28.0730 C.ar   86  A86         0.2016
   1819   N.3      -6.8840  -25.8360  -27.8840 N.ar   86  A86        -0.2048
   1820   C4       -6.6980  -24.5130  -27.9940 C.ar   86  A86         0.1692
   1821    P.3     -0.8090  -23.1930  -30.8860 P.3    87  A87         0.2141
   1822  OP1        0.6670  -23.1970  -30.8740 O.3    87  A87        -0.4373
   1823  OP2       -1.5390  -21.9050  -31.0000 O.2    87  A87        -0.5172
   1824  O5'       -1.3300  -24.1680  -32.0360 O.3    87  A87        -0.3114
   1825  C5'       -0.7820  -25.4720  -32.1950 C.3    87  A87         0.1812
   1826  C4'       -1.8470  -26.4390  -32.6630 C.3    87  A87         0.1773
   1827  O4'       -2.8830  -26.5650  -31.6520 O.3    87  A87        -0.3307
   1828  C3'       -2.6240  -26.0570  -33.9110 C.3    87  A87         0.1860
   1829  O3'       -1.9220  -26.3760  -35.1020 O.3    87  A87        -0.3112
   1830  C2'       -3.8510  -26.9380  -33.7770 C.3    87  A87         0.2309
   1831  O2'       -3.5860  -28.2720  -34.1400 O.3    87  A87        -0.2156
   1832  C1'       -4.1290  -26.8240  -32.2790 C.3    87  A87         0.2408
   1833   N9       -5.0090  -25.6960  -31.9980 N.ar   87  A87        -0.2693
   1834   C8       -4.6390  -24.3990  -31.7480 C.ar   87  A87         0.1816
   1835   N7       -5.6500  -23.5910  -31.5480 N.ar   87  A87        -0.2193
   1836   C5       -6.7610  -24.4120  -31.6720 C.ar   87  A87         0.1518
   1837   C6       -8.1310  -24.1550  -31.5830 C.ar   87  A87         0.1919
   1838   N6       -8.6320  -22.9490  -31.3210 N.pl3  87  A87        -0.1054
   1839   N.1      -8.9800  -25.1890  -31.7730 N.ar   87  A87        -0.2040
   1840   C.2      -8.4690  -26.3970  -32.0310 C.ar   87  A87         0.2016
   1841   N.3      -7.1950  -26.7650  -32.1360 N.ar   87  A87        -0.2048
   1842   C4       -6.3820  -25.7120  -31.9460 C.ar   87  A87         0.1692
   1843    P.3     -1.8930  -25.3150  -36.3100 P.3    88  G88         0.2141
   1844  OP1       -1.7290  -26.0650  -37.5790 O.2    88  G88        -0.5172
   1845  OP2       -0.9020  -24.2750  -35.9370 O.3    88  G88        -0.4373
   1846  O5'       -3.3410  -24.6480  -36.2350 O.3    88  G88        -0.3114
   1847  C5'       -4.2940  -24.7540  -37.2860 C.3    88  G88         0.1812
   1848  C4'       -5.6370  -25.1550  -36.7210 C.3    88  G88         0.1773
   1849  O4'       -5.8400  -24.6020  -35.3960 O.3    88  G88        -0.3307
   1850  C3'       -6.8570  -24.6690  -37.4720 C.3    88  G88         0.1860
   1851  O3'       -7.0760  -25.4020  -38.6550 O.3    88  G88        -0.3112
   1852  C2'       -7.9520  -24.8910  -36.4450 C.3    88  G88         0.2309
   1853  O2'       -8.3350  -26.2400  -36.3820 O.3    88  G88        -0.2156
   1854  C1'       -7.2330  -24.4830  -35.1570 C.3    88  G88         0.2408
   1855   N9       -7.5120  -23.1090  -34.7500 N.ar   88  G88        -0.2693
   1856   C8       -6.5950  -22.1550  -34.3870 C.ar   88  G88         0.1817
   1857   N7       -7.1440  -21.0230  -34.0420 N.ar   88  G88        -0.2173
   1858   C5       -8.5050  -21.2400  -34.1930 C.ar   88  G88         0.1748
   1859   C6       -9.6030  -20.3740  -33.9580 C.ar   88  G88         0.3023
   1860   O6       -9.5920  -19.2000  -33.5560 O.2    88  G88        -0.2633
   1861   N.1     -10.8160  -20.9970  -34.2420 N.ar   88  G88        -0.1709
   1862   C.2     -10.9540  -22.2820  -34.6990 C.ar   88  G88         0.2606
   1863   N.2     -12.2080  -22.6750  -34.9600 N.pl3  88  G88        -0.0859
   1864   N.3      -9.9390  -23.1080  -34.8990 N.ar   88  G88        -0.1918
   1865   C4       -8.7510  -22.5200  -34.6340 C.ar   88  G88         0.1723
   1866    P.3     -7.1820  -24.6170  -40.0500 P.3    89  U89         0.2141
   1867  OP1       -6.9140  -25.6000  -41.1200 O.2    89  U89        -0.5172
   1868  OP2       -6.3630  -23.3790  -39.9590 O.3    89  U89        -0.4373
   1869  O5'       -8.7120  -24.2140  -40.1540 O.3    89  U89        -0.3114
   1870  C5'       -9.7010  -25.2100  -40.3130 C.3    89  U89         0.1812
   1871  C4'      -11.0720  -24.6020  -40.1750 C.3    89  U89         0.1773
   1872  O4'      -11.2460  -24.0460  -38.8490 O.3    89  U89        -0.3307
   1873  C3'      -11.3410  -23.4090  -41.0630 C.3    89  U89         0.1860
   1874  O3'      -11.6030  -23.8090  -42.3960 O.3    89  U89        -0.3112
   1875  C2'      -12.5620  -22.8090  -40.3880 C.3    89  U89         0.2309
   1876  O2'      -13.7400  -23.5220  -40.6960 O.3    89  U89        -0.2156
   1877  C1'      -12.1970  -22.9940  -38.9120 C.3    89  U89         0.2420
   1878   N.1     -11.5970  -21.7880  -38.3230 N.ar   89  U89        -0.2534
   1879   C.2     -12.4470  -20.7550  -38.0040 C.ar   89  U89         0.3546
   1880   O.2     -13.6460  -20.8000  -38.2320 O.2    89  U89        -0.2443
   1881   N.3     -11.8500  -19.6700  -37.4130 N.ar   89  U89        -0.1530
   1882   C4      -10.5130  -19.5180  -37.1220 C.ar   89  U89         0.2846
   1883   O4      -10.1290  -18.5120  -36.5030 O.2    89  U89        -0.2650
   1884   C5       -9.6920  -20.6250  -37.5170 C.ar   89  U89         0.0814
   1885   C6      -10.2490  -21.6940  -38.0870 C.ar   89  U89         0.0870
   1886    P.3    -10.8170  -23.0950  -43.5950 P.3    90  C90         0.2141
   1887  OP1      -10.9280  -23.9660  -44.7810 O.2    90  C90        -0.5172
   1888  OP2       -9.4840  -22.6900  -43.0870 O.3    90  C90        -0.4373
   1889  O5'      -11.6500  -21.7720  -43.8840 O.3    90  C90        -0.3114
   1890  C5'      -13.0270  -21.8350  -44.2140 C.3    90  C90         0.1812
   1891  C4'      -13.7210  -20.5970  -43.7250 C.3    90  C90         0.1773
   1892  O4'      -13.5670  -20.5000  -42.2820 O.3    90  C90        -0.3307
   1893  C3'      -13.1080  -19.2930  -44.1930 C.3    90  C90         0.1860
   1894  O3'      -13.4780  -18.9780  -45.5250 O.3    90  C90        -0.3112
   1895  C2'      -13.7000  -18.3190  -43.1940 C.3    90  C90         0.2309
   1896  O2'      -15.0430  -18.0290  -43.4920 O.3    90  C90        -0.2156
   1897  C1'      -13.5930  -19.1320  -41.9040 C.3    90  C90         0.2420
   1898   N.1     -12.3400  -18.8200  -41.2120 N.ar   90  C90        -0.2535
   1899   C.2     -12.2700  -17.6450  -40.4720 C.ar   90  C90         0.3532
   1900   O.2     -13.2780  -16.9250  -40.4080 O.2    90  C90        -0.2443
   1901   N.3     -11.1130  -17.3230  -39.8460 N.ar   90  C90        -0.1739
   1902   C4      -10.0570  -18.1280  -39.9420 C.ar   90  C90         0.1759
   1903   N.4      -8.9380  -17.7630  -39.3150 N.pl3  90  C90        -0.1070
   1904   C5      -10.1030  -19.3440  -40.6830 C.ar   90  C90         0.0566
   1905   C6      -11.2560  -19.6500  -41.2960 C.ar   90  C90         0.0850
   1906    P.3    -12.3770  -18.3530  -46.5180 P.3    91  G91         0.2141
   1907  OP1      -12.8820  -18.5360  -47.9120 O.2    91  G91        -0.5172
   1908  OP2      -11.0350  -18.8610  -46.1320 O.3    91  G91        -0.4373
   1909  O5'      -12.3680  -16.7990  -46.1880 O.3    91  G91        -0.3114
   1910  C5'      -13.5330  -16.0230  -46.3480 C.3    91  G91         0.1812
   1911  C4'      -13.3710  -14.7370  -45.6100 C.3    91  G91         0.1773
   1912  O4'      -13.0900  -15.0320  -44.2290 O.3    91  G91        -0.3307
   1913  C3'      -12.1690  -13.8940  -45.9970 C.3    91  G91         0.1860
   1914  O3'      -12.4420  -13.1580  -47.1830 O.3    91  G91        -0.3112
   1915  C2'      -12.0730  -12.9630  -44.7980 C.3    91  G91         0.2309
   1916  O2'      -13.0680  -11.9660  -44.8430 O.3    91  G91        -0.2156
   1917  C1'      -12.4090  -13.9210  -43.6560 C.3    91  G91         0.2408
   1918   N9      -11.2260  -14.4060  -42.9560 N.ar   91  G91        -0.2693
   1919   C8      -10.6630  -15.6590  -43.0310 C.ar   91  G91         0.1817
   1920   N7       -9.6080  -15.7890  -42.2730 N.ar   91  G91        -0.2173
   1921   C5       -9.4660  -14.5470  -41.6640 C.ar   91  G91         0.1748
   1922   C6       -8.5000  -14.0820  -40.7360 C.ar   91  G91         0.3023
   1923   O6       -7.5530  -14.7000  -40.2280 O.2    91  G91        -0.2633
   1924   N.1      -8.7190  -12.7510  -40.3980 N.ar   91  G91        -0.1709
   1925   C.2      -9.7390  -11.9740  -40.8800 C.ar   91  G91         0.2606
   1926   N.2      -9.7850  -10.7090  -40.4390 N.pl3  91  G91        -0.0859
   1927   N.3     -10.6490  -12.4020  -41.7330 N.ar   91  G91        -0.1918
   1928   C4      -10.4520  -13.6850  -42.0810 C.ar   91  G91         0.1723
   1929    P.3    -11.2400  -12.7720  -48.1750 P.3    92  C92         0.2141
   1930  OP1      -11.8490  -12.2790  -49.4370 O.2    92  C92        -0.5172
   1931  OP2      -10.2950  -13.9290  -48.2120 O.3    92  C92        -0.4373
   1932  O5'      -10.5520  -11.5270  -47.4490 O.3    92  C92        -0.3114
   1933  C5'      -11.2680  -10.3020  -47.2590 C.3    92  C92         0.1813
   1934  C4'      -10.4840   -9.3500  -46.3710 C.3    92  C92         0.1801
   1935  O4'      -10.3910   -9.8410  -45.0060 O.3    92  C92        -0.3306
   1936  C3'       -9.0310   -9.0670  -46.7150 C.3    92  C92         0.2161
   1937  O3'       -8.8000   -8.2830  -47.8820 O.3    92  C92        -0.2175
   1938  C2'       -8.5720   -8.4140  -45.4260 C.3    92  C92         0.2338
   1939  O2'       -9.1880   -7.1510  -45.2600 O.3    92  C92        -0.2155
   1940  C1'       -9.1890   -9.3700  -44.4100 C.3    92  C92         0.2421
   1941   N.1      -8.3420  -10.5320  -44.0780 N.ar   92  C92        -0.2535
   1942   C.2      -7.3680  -10.3820  -43.0860 C.ar   92  C92         0.3532
   1943   O.2      -7.2320   -9.2780  -42.5500 O.2    92  C92        -0.2443
   1944   N.3      -6.6010  -11.4360  -42.7390 N.ar   92  C92        -0.1739
   1945   C4       -6.7690  -12.6130  -43.3450 C.ar   92  C92         0.1759
   1946   N.4      -5.9900  -13.6390  -42.9410 N.pl3  92  C92        -0.1070
   1947   C5       -7.7420  -12.7960  -44.3800 C.ar   92  C92         0.0566
   1948   C6       -8.5010  -11.7380  -44.7110 C.ar   92  C92         0.0850
@<TRIPOS>BOND
     1  1930  1929    2
     2  1931  1929    1
     3  1929  1932    1
     4  1929  1914    1
     5  1907  1906    2
     6  1937  1936    1
     7  1932  1933    1
     8  1933  1934    1
     9  1914  1913    1
    10  1936  1934    1
    11  1936  1938    1
    12  1906  1909    1
    13  1906  1908    1
    14  1906  1894    1
    15  1934  1935    1
    16  1910  1909    1
    17  1910  1911    1
    18  1913  1911    1
    19  1913  1915    1
    20  1911  1912    1
    21  1894  1893    1
    22  1938  1939    1
    23  1938  1940    1
    24  1935  1940    1
    25  1916  1915    1
    26  1915  1917    1
    27  1887  1886    2
    28  1948  1947   ar
    29  1948  1941   ar
    30  1940  1941    1
    31  1947  1945   ar
    32  1912  1917    1
    33  1890  1889    1
    34  1890  1891    1
    35  1893  1891    1
    36  1893  1895    1
    37  1941  1942   ar
    38  1889  1886    1
    39  1891  1892    1
    40  1917  1918    1
    41  1886  1888    1
    42  1886  1874    1
    43  1896  1895    1
    44   989   988    2
    45  1945  1946    1
    46  1945  1944   ar
    47  1895  1897    1
    48  1942  1944   ar
    49  1942  1943    2
    50  1919  1918   ar
    51  1919  1920   ar
    52  1918  1928   ar
    53   988   987   ar
    54   988   990   ar
    55  1874  1873    1
    56   987   985   ar
    57  1892  1897    1
    58  1920  1921   ar
    59   990   991   ar
    60  1928  1927   ar
    61  1928  1921   ar
    62  1897  1898    1
    63  1927  1925   ar
    64  1921  1922   ar
    65   985   986    2
    66   985   984   ar
    67   991   984   ar
    68  1009  1008    2
    69  1905  1898   ar
    70  1905  1904   ar
    71  1898  1899   ar
    72  1867  1866    2
    73   984   983    1
    74  1873  1875    1
    75  1873  1871    1
    76  1032  1031    1
    77  1925  1926    1
    78  1925  1924   ar
    79  1922  1924   ar
    80  1922  1923    2
    81  1876  1875    1
    82  1007  1008   ar
    83  1007  1005   ar
    84  1904  1902   ar
    85  1008  1010   ar
    86  1030  1031   ar
    87  1030  1028   ar
    88  1029  1028    2
    89  1899  1900    2
    90  1899  1901   ar
    91  1875  1877    1
    92  1870  1871    1
    93  1870  1869    1
    94  1031  1033   ar
    95  1871  1872    1
    96  1869  1866    1
    97   983   978    1
    98   983   981    1
    99  1028  1027   ar
   100   978   977    1
   101  1866  1868    1
   102  1866  1851    1
   103  1006  1005    2
   104   975   976    1
   105  1902  1901   ar
   106  1902  1903    1
   107  1005  1004   ar
   108  1075  1074    1
   109  1010  1011   ar
   110  1033  1034   ar
   111   976   977    1
   112  1027  1034   ar
   113  1027  1026   ar
   114  1004  1011   ar
   115  1004  1003    1
   116   476   475    1
   117  1074  1073   ar
   118  1074  1076   ar
   119  1877  1872    1
   120  1877  1878    1
   121   977   979    1
   122   470   468    2
   123  1049  1048    2
   124  1034  1024   ar
   125   981   979    1
   126   981   982    1
   127   522   521    2
   128  1851  1850    1
   129  1073  1071   ar
   130  1076  1077   ar
   131   469   468    1
   132  1050  1048   ar
   133  1050  1051   ar
   134   426   425    2
   135   383   382    2
   136  1878  1885   ar
   137  1878  1879   ar
   138  1026  1025   ar
   139   521   520   ar
   140   521   523   ar
   141   406   405    2
   142  1880  1879    2
   143   979   980    1
   144   520   518   ar
   145  1003   998    1
   146  1003  1001    1
   147  1048  1047   ar
   148  1885  1884   ar
   149  1052  1051    1
   150   468   471    1
   151   468   453    1
   152  1879  1881   ar
   153   447   445    2
   154   523   524   ar
   155   475   477    1
   156   475   473    1
   157   446   445    1
   158   518   519    2
   159   518   517   ar
   160   471   472    1
   161  1024  1025   ar
   162  1024  1023    1
   163   998   997    1
   164  1051  1053   ar
   165  1071  1072    2
   166  1071  1070   ar
   167   524   517   ar
   168  1077  1070   ar
   169  1077  1067   ar
   170  1844  1843    2
   171   517   516    1
   172  1884  1882   ar
   173  1850  1848    1
   174  1850  1852    1
   175  1065  1064    1
   176  1881  1882   ar
   177   427   425    1
   178  1088  1087    1
   179  1847  1848    1
   180  1847  1846    1
   181   425   428    1
   182   425   413    1
   183   445   448    1
   184   445   433    1
   185   472   473    1
   186   511   516    1
   187   511   510    1
   188   516   514    1
   189  1092  1091    2
   190  1882  1883    2
   191  1047  1046    1
   192  1047  1054   ar
   193  1070  1069   ar
   194   477   478    1
   195   477   479    1
   196  1023  1018    1
   197  1023  1021    1
   198  1066  1067    1
   199  1066  1064    1
   200  1066  1061    1
   201   486   487   ar
   202   486   484   ar
   203   405   407    1
   204   405   390    1
   205   405   408    1
   206  1001  1002    1
   207  1001   999    1
   208  1067  1068   ar
   209   485   484    1
   210   382   368    1
   211   382   385    1
   212   382   384    1
   213  1089  1084    1
   214  1089  1087    1
   215  1089  1090    1
   216  1084  1083    1
   217   473   474    1
   218  1046  1041    1
   219  1046  1044    1
   220   980   992    1
   221   488   489    1
   222   487   480   ar
   223  1848  1849    1
   224   386   385    1
   225   386   387    1
   226  1053  1054   ar
   227   484   483   ar
   228   428   429    1
   229  1064  1062    1
   230   390   389    1
   231   453   452    1
   232   448   449    1
   233   368   367    1
   234  1018  1017    1
   235  1852  1853    1
   236  1852  1854    1
   237  1091  1090   ar
   238  1091  1093   ar
   239   994   992    2
   240  1843  1846    1
   241  1843  1845    1
   242  1843  1829    1
   243   997   999    1
   244   997   996    1
   245  1045  1044    1
   246  1087  1085    1
   247   995   992    1
   248   995   996    1
   249  1061  1060    1
   250  1083  1082    1
   251  1083  1085    1
   252   502   501    2
   253   480   479    1
   254   480   481   ar
   255  1069  1068   ar
   256  1090  1097   ar
   257   413   412    1
   258  1041  1040    1
   259   429   430    1
   260   483   481   ar
   261  1021  1022    1
   262  1021  1019    1
   263  1044  1042    1
   264   999  1000    1
   265   433   432    1
   266   479   474    1
   267   992   993    1
   268   489   490    1
   269   452   450    1
   270   452   454    1
   271   510   509    1
   272   510   512    1
   273   408   409    1
   274   514   515    1
   275   514   512    1
   276   387   389    1
   277   387   388    1
   278   501   500   ar
   279   501   503   ar
   280   481   482    2
   281   449   450    1
   282   500   498   ar
   283   542   541    2
   284  1093  1094   ar
   285   494   495    1
   286   494   492    1
   287   494   496    1
   288   509   508    1
   289   409   410    1
   290   389   391    1
   291  1082  1081    1
   292   508   505    1
   293  1060  1062    1
   294  1060  1059    1
   295  1849  1854    1
   296  1104  1109    1
   297  1104  1103    1
   298  1085  1086    1
   299   499   498    2
   300   498   497   ar
   301   492   490    1
   302   492   493    1
   303   503   504   ar
   304   370   369    1
   305   432   430    1
   306   432   434    1
   307  1097  1096   ar
   308  1062  1063    1
   309   541   540   ar
   310   541   543   ar
   311  1854  1855    1
   312   367   365    1
   313   367   369    1
   314  1829  1828    1
   315   450   451    1
   316  1086  1098    1
   317   412   410    1
   318   412   414    1
   319  1017  1019    1
   320  1017  1016    1
   321   364   365    1
   322   364   363    1
   323   539   540   ar
   324   539   538   ar
   325   365   366    1
   326   361   360    2
   327  1109  1110    1
   328  1109  1107    1
   329  1863  1862    1
   330   512   513    1
   331   497   504   ar
   332   497   496    1
   333   430   431    1
   334  1864  1862   ar
   335  1864  1865   ar
   336   458   459   ar
   337   458   457   ar
   338   459   460   ar
   339   540   547   ar
   340   543   544   ar
   341  1112  1111    2
   342   490   491    1
   343   454   455    1
   344   454   456    1
   345  1019  1020    1
   346  1855  1865   ar
   347  1855  1856   ar
   348  1094  1096   ar
   349  1094  1095    2
   350  1040  1042    1
   351  1040  1039    1
   352   410   411    1
   353  1103  1102    1
   354  1103  1105    1
   355  1862  1861   ar
   356  1063  1078    1
   357  1865  1858   ar
   358  1000  1012    1
   359   538   537   ar
   360  1042  1043    1
   361  1108  1107    1
   362   496   491    1
   363  1102  1101    1
   364  1015  1016    1
   365  1015  1012    1
   366   388   393    1
   367   369   371    1
   368  1081  1078    1
   369   392   391    1
   370  1856  1857   ar
   371  1110  1111   ar
   372  1110  1117   ar
   373  1111  1113   ar
   374   547   537   ar
   375   547   546   ar
   376   544   545    1
   377   544   546   ar
   378   493   505    1
   379  1861  1859   ar
   380   443   444   ar
   381   443   441   ar
   382   391   393    1
   383   507   505    2
   384  1014  1012    2
   385  1858  1857   ar
   386  1858  1859   ar
   387   457   456    1
   388   457   467   ar
   389  1059  1058    1
   390   444   437   ar
   391   537   536    1
   392  1831  1830    1
   393   505   506    1
   394   460   461   ar
   395   460   467   ar
   396   451   456    1
   397   363   360    1
   398   462   461    2
   399  1859  1860    2
   400  1107  1105    1
   401  1828  1830    1
   402  1828  1826    1
   403   434   435    1
   404   434   436    1
   405   531   536    1
   406   531   530    1
   407   431   436    1
   408  1012  1013    1
   409  1117  1116   ar
   410  1830  1832    1
   411   366   371    1
   412  1113  1114   ar
   413   461   463   ar
   414   360   346    1
   415   360   362    1
   416   467   466   ar
   417   414   415    1
   418   414   416    1
   419   513   525    1
   420  1039  1038    1
   421   536   534    1
   422  1043  1055    1
   423  1078  1079    2
   424  1078  1080    1
   425  1038  1035    1
   426   348   347    1
   427  1098  1101    1
   428  1098  1099    2
   429  1098  1100    1
   430  1058  1055    1
   431  1020  1035    1
   432   393   394    1
   433  1105  1106    1
   434   442   441    1
   435   441   440   ar
   436   411   416    1
   437   346   345    1
   438   371   372    1
   439   437   436    1
   440   437   438   ar
   441  1116  1114   ar
   442  1114  1115    1
   443   463   464   ar
   444   466   464   ar
   445  1106  1118    1
   446   424   423   ar
   447   424   417   ar
   448   565   564    1
   449  1037  1035    2
   450   416   417    1
   451   529   528    1
   452   529   530    1
   453  1035  1036    1
   454   395   394   ar
   455   395   396   ar
   456  1826  1825    1
   457  1826  1827    1
   458   394   404   ar
   459   528   525    1
   460   464   465    1
   461  1055  1057    2
   462  1055  1056    1
   463   530   532    1
   464   440   438   ar
   465   438   439    2
   466  1124  1129    1
   467  1124  1123    1
   468   347   345    1
   469   347   349    1
   470   527   525    2
   471   525   526    1
   472   423   421   ar
   473   417   418   ar
   474  1832  1833    1
   475  1832  1827    1
   476  1825  1824    1
   477   345   343    1
   478  1841  1840   ar
   479  1841  1842   ar
   480   534   535    1
   481   534   532    1
   482   372   373   ar
   483   372   381   ar
   484   564   563   ar
   485   564   566   ar
   486  1824  1821    1
   487  1840  1839   ar
   488  1833  1842   ar
   489  1833  1834   ar
   490   563   561   ar
   491  1842  1836   ar
   492  1122  1123    1
   493  1122  1121    1
   494   396   397   ar
   495  1129  1130    1
   496  1129  1127    1
   497  1839  1837   ar
   498  1834  1835   ar
   499  1123  1125    1
   500   404   403   ar
   501   404   397   ar
   502  1836  1837   ar
   503  1836  1835   ar
   504   373   374   ar
   505   532   533    1
   506  1138  1137   ar
   507  1138  1139   ar
   508  1837  1838    1
   509   343   344    1
   510   343   342    1
   511  1137  1136   ar
   512   421   420   ar
   513   421   422    2
   514   566   567   ar
   515   418   420   ar
   516   418   419    2
   517  1130  1139   ar
   518  1130  1131   ar
   519  1118  1119    2
   520  1118  1121    1
   521  1118  1120    1
   522  1139  1133   ar
   523   403   401   ar
   524   585   584    2
   525   561   562    2
   526   561   560   ar
   527   349   344    1
   528   349   350    1
   529   397   398   ar
   530   381   380   ar
   531   381   375   ar
   532   380   379   ar
   533   358   357   ar
   534   358   359   ar
   535   586   584   ar
   536   586   587   ar
   537  1131  1132   ar
   538  1136  1134   ar
   539   588   587    1
   540  1823  1821    2
   541  1133  1134   ar
   542  1133  1132   ar
   543  1128  1127    1
   544  1821  1822    1
   545  1821  1807    1
   546   584   583   ar
   547  1134  1135    1
   548   357   356   ar
   549   567   560   ar
   550   342   341    1
   551   587   589   ar
   552   560   559    1
   553  1127  1125    1
   554   374   375   ar
   555   401   402    1
   556   401   400   ar
   557   533   548    1
   558  1125  1126    1
   559   375   376   ar
   560   359   350   ar
   561   359   353   ar
   562   350   351   ar
   563   398   400   ar
   564   398   399    2
   565   379   378   ar
   566   583   590   ar
   567   583   582   ar
   568   589   590   ar
   569   559   554    1
   570   559   557    1
   571   341   338    1
   572   554   553    1
   573   356   354   ar
   574   590   580   ar
   575   550   548    2
   576  1126  1140    1
   577  1807  1806    1
   578   582   581   ar
   579   605   604    2
   580   376   378   ar
   581   376   377    1
   582   548   551    1
   583   548   549    1
   584   353   354   ar
   585   353   352   ar
   586  1806  1808    1
   587  1806  1804    1
   588   606   604   ar
   589   606   607   ar
   590   351   352   ar
   591   580   581   ar
   592   580   579    1
   593   551   552    1
   594  1808  1809    1
   595  1808  1810    1
   596   354   355    1
   597   604   603   ar
   598   608   607    2
   599  1816  1815    1
   600  1801  1799    2
   601   338   339    2
   602   338   340    1
   603   338   323    1
   604   625   624    2
   605   557   558    1
   606   557   555    1
   607  1815  1817   ar
   608  1815  1814   ar
   609   553   552    1
   610   553   555    1
   611   607   609   ar
   612  1800  1799    1
   613  1817  1818   ar
   614  1813  1814   ar
   615  1813  1812   ar
   616  1814  1820   ar
   617   579   574    1
   618   579   577    1
   619  1812  1811   ar
   620  1818  1819   ar
   621  1802  1799    1
   622  1802  1803    1
   623  1820  1819   ar
   624  1820  1811   ar
   625  1140  1142    2
   626  1140  1141    1
   627  1140  1143    1
   628   626   624   ar
   629   626   627   ar
   630  1799  1784    1
   631  1811  1810    1
   632   603   602    1
   633   603   610   ar
   634   624   623   ar
   635   555   556    1
   636  1158  1159   ar
   637  1158  1156   ar
   638  1146  1151    1
   639  1146  1145    1
   640   574   573    1
   641  1159  1152   ar
   642   602   597    1
   643   602   600    1
   644  1157  1156    1
   645  1810  1805    1
   646  1804  1803    1
   647  1804  1805    1
   648   650   651   ar
   649   650   649   ar
   650  1156  1155   ar
   651   609   610   ar
   652   628   627    1
   653   323   322    1
   654  1793  1792    2
   655  1144  1143    1
   656  1144  1145    1
   657  1711  1710    2
   658   627   629   ar
   659   651   652   ar
   660  1152  1151    1
   661  1152  1153   ar
   662  1691  1690    2
   663  1155  1153   ar
   664   597   596    1
   665   649   647   ar
   666  1151  1149    1
   667   577   578    1
   668   577   575    1
   669   623   622    1
   670   623   630   ar
   671  1153  1154    2
   672   601   600    1
   673   622   617    1
   674   622   620    1
   675  1145  1147    1
   676  1792  1794   ar
   677  1792  1791   ar
   678  1778  1776    2
   679   600   598    1
   680   617   616    1
   681  1784  1783    1
   682   556   568    1
   683   652   643   ar
   684   652   646   ar
   685  1794  1795   ar
   686   629   630   ar
   687  1712  1710    1
   688   621   620    1
   689  1790  1791   ar
   690  1790  1789   ar
   691  1734  1733    2
   692   570   568    2
   693  1791  1798   ar
   694   647   646   ar
   695   647   648    1
   696   573   575    1
   697   573   572    1
   698   322   324    1
   699   322   320    1
   700   642   643    1
   701   642   637    1
   702   642   640    1
   703  1710  1698    1
   704  1710  1713    1
   705  1735  1733    1
   706  1777  1776    1
   707   325   324    1
   708   641   640    1
   709   575   576    1
   710  1783  1785    1
   711  1783  1781    1
   712  1758  1756    2
   713   620   618    1
   714   643   644   ar
   715   646   645   ar
   716  1690  1692    1
   717  1690  1678    1
   718  1690  1693    1
   719   637   636    1
   720   324   326    1
   721   596   598    1
   722   596   595    1
   723  1776  1779    1
   724  1776  1764    1
   725   571   568    1
   726   571   572    1
   727  1789  1788   ar
   728  1795  1796    1
   729  1795  1797   ar
   730  1149  1147    1
   731  1149  1150    1
   732   568   569    1
   733  1779  1780    1
   734  1798  1797   ar
   735  1798  1788   ar
   736  1147  1148    1
   737  1733  1718    1
   738  1733  1736    1
   739  1785  1786    1
   740  1785  1787    1
   741   598   599    1
   742  1698  1697    1
   743   640   638    1
   744   616   618    1
   745   616   615    1
   746  1788  1787    1
   747  1713  1714    1
   748  1757  1756    1
   749   644   645   ar
   750   320   319    1
   751   320   321    1
   752  1678  1677    1
   753  1671  1670    2
   754  1693  1694    1
   755   316   315    2
   756  1773  1772    1
   757   319   318    1
   758  1694  1695    1
   759   595   594    1
   760   636   638    1
   761   636   635    1
   762  1756  1759    1
   763  1756  1741    1
   764  1718  1717    1
   765   594   591    1
   766  1714  1715    1
   767   667   666    2
   768  1780  1781    1
   769   618   619    1
   770   576   591    1
   771   318   315    1
   772   659   664    1
   773   659   658    1
   774  1781  1782    1
   775  1787  1782    1
   776   664   665    1
   777   664   662    1
   778  1148  1160    1
   779   615   614    1
   780  1774  1772   ar
   781  1774  1775   ar
   782   599   611    1
   783  1177  1176    2
   784  1772  1771   ar
   785   326   327    1
   786   326   321    1
   787  1736  1737    1
   788  1764  1763    1
   789  1697  1695    1
   790  1697  1699    1
   791  1759  1760    1
   792   317   315    1
   793   315   303    1
   794   335   334    1
   795   638   639    1
   796   336   334   ar
   797   336   337   ar
   798   666   665   ar
   799   666   668   ar
   800   663   662    1
   801   334   333   ar
   802   327   337   ar
   803   327   328   ar
   804  1695  1696    1
   805   635   634    1
   806  1717  1715    1
   807  1717  1719    1
   808   337   330   ar
   809   665   672   ar
   810  1174  1175   ar
   811  1174  1173   ar
   812   614   611    1
   813   591   593    2
   814   591   592    1
   815  1674  1675    1
   816  1674  1673    1
   817   333   331   ar
   818   328   329   ar
   819  1677  1675    1
   820  1677  1679    1
   821  1763  1765    1
   822  1763  1761    1
   823  1176  1175   ar
   824  1176  1178   ar
   825   619   631    1
   826   330   331   ar
   827   330   329   ar
   828   658   657    1
   829   658   660    1
   830   668   669   ar
   831  1715  1716    1
   832  1775  1768   ar
   833  1670  1673    1
   834  1670  1672    1
   835  1670  1655    1
   836  1741  1740    1
   837   331   332    2
   838  1771  1769   ar
   839  1737  1738    1
   840  1175  1182   ar
   841  1173  1172   ar
   842  1162  1160    2
   843   662   660    1
   844   639   653    1
   845  1675  1676    1
   846   634   631    1
   847   672   671   ar
   848   657   656    1
   849   611   613    2
   850   611   612    1
   851  1760  1761    1
   852  1178  1179   ar
   853  1740  1738    1
   854  1740  1742    1
   855  1160  1163    1
   856  1160  1161    1
   857  1680  1679    1
   858   669   671   ar
   859   669   670    1
   860  1747  1746   ar
   861  1747  1748   ar
   862  1765  1767    1
   863  1765  1766    1
   864  1768  1769   ar
   865  1768  1767    1
   866  1699  1700    1
   867  1699  1701    1
   868  1769  1770    2
   869  1182  1172   ar
   870  1182  1181   ar
   871  1172  1171    1
   872  1655  1654    1
   873  1679  1681    1
   874  1746  1745   ar
   875   303   302    1
   876  1166  1171    1
   877  1166  1165    1
   878  1761  1762    1
   879  1696  1701    1
   880   660   661    1
   881  1723  1724   ar
   882  1723  1722   ar
   883  1719  1720    1
   884  1719  1721    1
   885  1738  1739    1
   886   631   633    2
   887   631   632    1
   888  1179  1181   ar
   889  1179  1180    1
   890  1716  1721    1
   891  1750  1749    2
   892   656   653    1
   893  1163  1164    1
   894  1724  1725   ar
   895  1171  1169    1
   896  1709  1708   ar
   897  1709  1702   ar
   898  1767  1762    1
   899  1748  1749   ar
   900  1748  1755   ar
   901   679   684    1
   902   679   678    1
   903  1164  1165    1
   904   653   654    2
   905   653   655    1
   906  1676  1681    1
   907  1749  1751   ar
   908  1701  1702    1
   909  1742  1744    1
   910  1742  1743    1
   911  1708  1706   ar
   912  1721  1722    1
   913  1722  1732   ar
   914  1745  1755   ar
   915  1745  1744    1
   916   661   673    1
   917   302   304    1
   918   302   300    1
   919  1739  1744    1
   920   684   685    1
   921   684   682    1
   922  1165  1167    1
   923  1702  1703   ar
   924   305   304    1
   925  1681  1682    1
   926   304   306    1
   927  1648  1647    2
   928  1200  1199    1
   929  1755  1754   ar
   930  1654  1652    1
   931  1654  1656    1
   932  1725  1732   ar
   933  1725  1726   ar
   934   685   686   ar
   935   685   695   ar
   936   678   677    1
   937   678   680    1
   938   677   676    1
   939  1657  1656    1
   940   694   695   ar
   941   694   692   ar
   942   686   687   ar
   943   695   688   ar
   944  1751  1752   ar
   945  1732  1731   ar
   946  1689  1682   ar
   947  1689  1688   ar
   948  1651  1652    1
   949  1651  1650    1
   950   693   692    1
   951   692   691   ar
   952   687   688   ar
   953  1652  1653    1
   954  1706  1707    1
   955  1706  1705   ar
   956   688   689   ar
   957  1727  1726    2
   958  1682  1683   ar
   959   683   682    1
   960  1169  1167    1
   961  1169  1170    1
   962  1199  1201   ar
   963  1199  1198   ar
   964  1726  1728   ar
   965   691   689   ar
   966  1656  1658    1
   967  1754  1752   ar
   968  1167  1168    1
   969  1650  1647    1
   970   689   690    2
   971   676   673    1
   972  1703  1705   ar
   973  1703  1704    2
   974  1752  1753    1
   975   682   680    1
   976  1201  1202   ar
   977  1688  1686   ar
   978   312   311    1
   979   309   308    2
   980   300   299    1
   981   300   301    1
   982   310   308   ar
   983   310   311   ar
   984   673   674    2
   985   673   675    1
   986   308   307   ar
   987  1198  1196   ar
   988   311   313   ar
   989   296   295    2
   990  1647  1649    1
   991  1647  1635    1
   992  1731  1729   ar
   993   307   306    1
   994   307   314   ar
   995   306   301    1
   996   298   299    1
   997   298   295    1
   998   313   314   ar
   999   297   295    1
  1000   680   681    1
  1001  1683  1684    2
  1002  1683  1685   ar
  1003  1728  1729   ar
  1004   295   280    1
  1005  1202  1195   ar
  1006  1729  1730    1
  1007  1196  1195   ar
  1008  1196  1197    2
  1009  1653  1658    1
  1010  1686  1685   ar
  1011  1686  1687    1
  1012  1168  1183    1
  1013  1658  1659    1
  1014  1635  1634    1
  1015  1195  1194    1
  1016   681   696    1
  1017  1220  1219    1
  1018  1185  1183    2
  1019  1659  1660   ar
  1020  1659  1669   ar
  1021  1189  1194    1
  1022  1189  1188    1
  1023  1194  1192    1
  1024  1243  1242    1
  1025  1218  1219   ar
  1026  1218  1216   ar
  1027  1219  1221   ar
  1028  1183  1186    1
  1029  1183  1184    1
  1030   280   279    1
  1031  1241  1242   ar
  1032  1241  1239   ar
  1033  1660  1661   ar
  1034  1266  1265    1
  1035   702   707    1
  1036   702   701    1
  1037  1240  1239    2
  1038  1634  1636    1
  1039  1634  1632    1
  1040  1668  1669   ar
  1041  1668  1666   ar
  1042  1637  1636    1
  1043  1186  1187    1
  1044  1669  1662   ar
  1045   274   272    2
  1046  1242  1244   ar
  1047  1239  1238   ar
  1048   715   714   ar
  1049   715   708   ar
  1050   714   712   ar
  1051   696   698    2
  1052   696   699    1
  1053   696   697    1
  1054   708   707    1
  1055   708   709   ar
  1056   707   705    1
  1057   712   713    1
  1058   712   711   ar
  1059   709   710    2
  1060   709   711   ar
  1061   273   272    1
  1062  1217  1216    2
  1063  1216  1215   ar
  1064   279   281    1
  1065   279   277    1
  1066  1221  1222   ar
  1067  1636  1638    1
  1068  1661  1662   ar
  1069   289   288    2
  1070  1187  1188    1
  1071  1265  1264   ar
  1072  1265  1267   ar
  1073  1264  1262   ar
  1074   700   699    1
  1075   700   701    1
  1076  1188  1190    1
  1077  1666  1667    1
  1078  1666  1665   ar
  1079  1662  1663   ar
  1080   281   282    1
  1081   281   283    1
  1082  1632  1631    1
  1083  1632  1633    1
  1084   701   703    1
  1085   288   290   ar
  1086   288   287   ar
  1087   290   291   ar
  1088   272   275    1
  1089   272   257    1
  1090  1631  1630    1
  1091  1192  1190    1
  1092  1192  1193    1
  1093  1244  1245   ar
  1094   287   286   ar
  1095   287   294   ar
  1096   292   291    1
  1097   291   293   ar
  1098   275   276    1
  1099   286   285   ar
  1100  1238  1245   ar
  1101  1238  1237   ar
  1102  1215  1222   ar
  1103  1215  1214    1
  1104  1628  1627    2
  1105  1263  1262    2
  1106  1267  1268   ar
  1107  1262  1261   ar
  1108   294   293   ar
  1109   294   284   ar
  1110  1190  1191    1
  1111  1665  1663   ar
  1112  1630  1627    1
  1113  1663  1664    2
  1114   285   284   ar
  1115  1245  1235   ar
  1116   251   249    2
  1117   706   705    1
  1118   284   283    1
  1119   705   703    1
  1120   250   249    1
  1121  1283  1282    2
  1122   277   276    1
  1123   277   278    1
  1124  1638  1633    1
  1125  1638  1639    1
  1126   283   278    1
  1127  1237  1236   ar
  1128   703   704    1
  1129  1268  1261   ar
  1130  1268  1258   ar
  1131  1214  1209    1
  1132  1214  1212    1
  1133  1627  1629    1
  1134  1627  1613    1
  1135  1261  1260   ar
  1136   257   256    1
  1137   249   252    1
  1138   249   237    1
  1139  1641  1640    2
  1140   230   229    2
  1141  1209  1208    1
  1142  1309  1308    1
  1143  1235  1236   ar
  1144  1235  1234    1
  1145   231   229    1
  1146  1639  1640   ar
  1147  1639  1646   ar
  1148  1282  1284   ar
  1149  1282  1281   ar
  1150  1191  1203    1
  1151  1640  1642   ar
  1152   252   253    1
  1153   210   209    2
  1154  1284  1285   ar
  1155  1258  1257    1
  1156  1258  1259   ar
  1157   256   258    1
  1158   256   254    1
  1159  1646  1645   ar
  1160  1260  1259   ar
  1161   704   716    1
  1162   266   265    2
  1163  1280  1281    1
  1164  1280  1275    1
  1165  1280  1278    1
  1166  1205  1203    2
  1167   229   232    1
  1168   229   217    1
  1169  1257  1252    1
  1170  1257  1255    1
  1171  1331  1332   ar
  1172  1331  1330   ar
  1173  1234  1229    1
  1174  1234  1232    1
  1175  1308  1310   ar
  1176  1308  1307   ar
  1177  1310  1311   ar
  1178  1212  1213    1
  1179  1212  1210    1
  1180   733   732    1
  1181  1642  1643   ar
  1182  1332  1333   ar
  1183  1281  1288   ar
  1184  1613  1612    1
  1185  1279  1278    1
  1186   263   264   ar
  1187   263   262   ar
  1188  1275  1274    1
  1189   211   209    1
  1190  1330  1328   ar
  1191   265   264   ar
  1192   265   267   ar
  1193   732   734   ar
  1194   732   731   ar
  1195   253   254    1
  1196   734   735   ar
  1197  1299  1298    1
  1198   187   186    2
  1199   237   236    1
  1200  1645  1643   ar
  1201  1206  1203    1
  1202  1206  1207    1
  1203  1203  1204    1
  1204   264   271   ar
  1205  1256  1255    1
  1206   731   729   ar
  1207  1643  1644    1
  1208  1252  1251    1
  1209  1300  1295    1
  1210  1300  1301    1
  1211  1300  1298    1
  1212  1229  1228    1
  1213   262   261   ar
  1214  1285  1286    1
  1215  1285  1287   ar
  1216   232   233    1
  1217   258   259    1
  1218   258   260    1
  1219  1208  1210    1
  1220  1208  1207    1
  1221   209   212    1
  1222   209   194    1
  1223  1307  1305   ar
  1224   735   728   ar
  1225  1333  1324   ar
  1226  1333  1327   ar
  1227   267   268   ar
  1228  1295  1294    1
  1229  1278  1276    1
  1230   729   728   ar
  1231   729   730    2
  1232  1323  1318    1
  1233  1323  1324    1
  1234  1323  1321    1
  1235   254   255    1
  1236  1311  1301   ar
  1237  1311  1304   ar
  1238  1255  1253    1
  1239  1328  1327   ar
  1240  1328  1329    1
  1241   728   727    1
  1242   722   727    1
  1243   722   721    1
  1244  1318  1317    1
  1245  1210  1211    1
  1246  1324  1325   ar
  1247   271   261   ar
  1248   271   270   ar
  1249  1232  1233    1
  1250  1232  1230    1
  1251  1288  1287   ar
  1252  1327  1326   ar
  1253  1301  1302   ar
  1254   261   260    1
  1255  1322  1321    1
  1256   217   216    1
  1257   718   716    2
  1258   236   234    1
  1259   236   238    1
  1260   167   166    2
  1261   268   270   ar
  1262   268   269    1
  1263   233   234    1
  1264  1298  1296    1
  1265   716   719    1
  1266   716   717    1
  1267  1612  1614    1
  1268  1612  1610    1
  1269   727   725    1
  1270   188   186    1
  1271   212   213    1
  1272  1274  1276    1
  1273  1274  1273    1
  1274  1305  1304   ar
  1275  1305  1306    2
  1276  1304  1303   ar
  1277   186   189    1
  1278   186   174    1
  1279   260   255    1
  1280  1325  1326   ar
  1281  1294  1296    1
  1282  1294  1293    1
  1283   719   720    1
  1284   247   248   ar
  1285   247   245   ar
  1286  1615  1614    1
  1287   194   193    1
  1288  1614  1616    1
  1289  1321  1319    1
  1290   720   721    1
  1291   213   214    1
  1292  1251  1253    1
  1293  1251  1250    1
  1294   246   245    1
  1295  1317  1316    1
  1296  1317  1319    1
  1297  1302  1303   ar
  1298   234   235    1
  1299  1228  1230    1
  1300  1228  1227    1
  1301  1276  1277    1
  1302   248   241   ar
  1303   216   214    1
  1304   216   218    1
  1305   721   723    1
  1306  1253  1254    1
  1307   245   244   ar
  1308  1230  1231    1
  1309   238   239    1
  1310   238   240    1
  1311  1273  1272    1
  1312   189   190    1
  1313  1211  1223    1
  1314  1296  1297    1
  1315  1293  1292    1
  1316  1226  1227    1
  1317  1226  1223    1
  1318  1610  1609    1
  1319  1610  1611    1
  1320   166   168    1
  1321   166   169    1
  1322   166   152    1
  1323  1606  1605    2
  1324  1316  1315    1
  1325   174   173    1
  1326  1609  1608    1
  1327   190   191    1
  1328  1225  1223    2
  1329   214   215    1
  1330  1608  1605    1
  1331  1319  1320    1
  1332  1250  1249    1
  1333   241   240    1
  1334   241   242   ar
  1335   193   191    1
  1336   193   195    1
  1337   725   726    1
  1338   725   723    1
  1339  1277  1289    1
  1340  1272  1269    1
  1341  1297  1312    1
  1342   753   752    2
  1343   145   144    2
  1344   169   170    1
  1345   244   242   ar
  1346   235   240    1
  1347   227   228   ar
  1348   227   225   ar
  1349  1223  1224    1
  1350  1249  1246    1
  1351  1254  1269    1
  1352   723   724    1
  1353   170   171    1
  1354  1607  1605    1
  1355   228   221   ar
  1356   218   219    1
  1357   218   220    1
  1358  1616  1617    1
  1359  1616  1611    1
  1360  1605  1593    1
  1361  1292  1289    1
  1362  1315  1312    1
  1363  1340  1345    1
  1364  1340  1339    1
  1365   242   243    2
  1366  1320  1334    1
  1367   191   192    1
  1368  1617  1618   ar
  1369  1617  1626   ar
  1370   752   754   ar
  1371   752   751   ar
  1372  1231  1246    1
  1373  1618  1619   ar
  1374  1354  1353   ar
  1375  1354  1355   ar
  1376  1353  1352   ar
  1377  1345  1346    1
  1378  1345  1343    1
  1379   152   151    1
  1380  1626  1625   ar
  1381  1626  1620   ar
  1382  1625  1624   ar
  1383  1619  1620   ar
  1384   750   751   ar
  1385   750   749   ar
  1386   173   171    1
  1387   173   175    1
  1388   226   225    1
  1389  1355  1346   ar
  1390  1355  1349   ar
  1391  1620  1621   ar
  1392   754   755   ar
  1393  1346  1347   ar
  1394  1352  1350   ar
  1395   751   758   ar
  1396   225   224   ar
  1397  1624  1623   ar
  1398   215   220    1
  1399  1621  1623   ar
  1400  1621  1622    1
  1401  1349  1350   ar
  1402  1349  1348   ar
  1403  1269  1271    2
  1404  1269  1270    1
  1405  1350  1351    1
  1406  1347  1348   ar
  1407   221   220    1
  1408   221   222   ar
  1409  1289  1291    2
  1410  1289  1290    1
  1411   195   196    1
  1412   195   197    1
  1413   171   172    1
  1414  1248  1246    2
  1415  1246  1247    1
  1416  1312  1314    2
  1417  1312  1313    1
  1418   749   748   ar
  1419   755   756    1
  1420   755   757   ar
  1421   758   748   ar
  1422   758   757   ar
  1423   144   147    1
  1424   144   146    1
  1425   144   132    1
  1426   724   736    1
  1427  1339  1338    1
  1428  1339  1341    1
  1429   148   147    1
  1430   148   149    1
  1431   748   747    1
  1432   224   222   ar
  1433  1344  1343    1
  1434  1338  1337    1
  1435   192   197    1
  1436  1337  1334    1
  1437   222   223    2
  1438   199   200   ar
  1439   199   198   ar
  1440  1593  1592    1
  1441   151   149    1
  1442   151   153    1
  1443  1343  1341    1
  1444  1334  1335    2
  1445  1334  1336    1
  1446   175   176    1
  1447   175   177    1
  1448   742   747    1
  1449   742   741    1
  1450   197   198    1
  1451   200   201   ar
  1452   747   745    1
  1453   149   150    1
  1454   132   131    1
  1455   198   208   ar
  1456   172   177    1
  1457   738   736    2
  1458   776   775    2
  1459  1341  1342    1
  1460   736   739    1
  1461   736   737    1
  1462  1592  1594    1
  1463  1592  1590    1
  1464   154   153    1
  1465   185   184   ar
  1466   185   178   ar
  1467   739   740    1
  1468   777   775   ar
  1469   777   778   ar
  1470   201   208   ar
  1471   201   202   ar
  1472   775   774   ar
  1473   153   155    1
  1474   177   178    1
  1475   208   207   ar
  1476  1594  1595    1
  1477  1594  1596    1
  1478   184   182   ar
  1479   740   741    1
  1480   779   778    1
  1481   741   743    1
  1482   178   179   ar
  1483   778   780   ar
  1484   774   773   ar
  1485   774   781   ar
  1486  1362  1367    1
  1487  1362  1361    1
  1488   125   124    2
  1489  1587  1585    2
  1490  1342  1356    1
  1491   150   155    1
  1492   131   129    1
  1493   131   133    1
  1494   202   203    2
  1495   202   204   ar
  1496   745   746    1
  1497   745   743    1
  1498   207   205   ar
  1499   134   133    1
  1500  1586  1585    1
  1501  1376  1375    1
  1502   773   772   ar
  1503  1377  1375   ar
  1504  1377  1378   ar
  1505  1588  1585    1
  1506  1588  1589    1
  1507  1602  1601    1
  1508  1367  1368    1
  1509  1367  1365    1
  1510  1375  1374   ar
  1511  1600  1601   ar
  1512  1600  1598   ar
  1513  1378  1368   ar
  1514  1378  1371   ar
  1515  1599  1598    2
  1516  1368  1369   ar
  1517  1601  1603   ar
  1518  1374  1372   ar
  1519   780   781   ar
  1520   128   129    1
  1521   128   127    1
  1522  1598  1597   ar
  1523  1371  1372   ar
  1524  1371  1370   ar
  1525   781   771   ar
  1526  1369  1370   ar
  1527  1372  1373    2
  1528  1590  1589    1
  1529  1590  1591    1
  1530   155   156    1
  1531   129   130    1
  1532  1585  1573    1
  1533  1603  1604   ar
  1534   743   744    1
  1535  1597  1604   ar
  1536  1597  1596    1
  1537   182   183    1
  1538   182   181   ar
  1539   205   204   ar
  1540   205   206    1
  1541   133   135    1
  1542   179   181   ar
  1543   179   180    2
  1544  1596  1591    1
  1545   772   771   ar
  1546   127   124    1
  1547   771   770    1
  1548  1361  1360    1
  1549  1361  1363    1
  1550   157   156   ar
  1551   157   158   ar
  1552  1360  1359    1
  1553   124   126    1
  1554   124   112    1
  1555   156   165   ar
  1556  1359  1356    1
  1557  1366  1365    1
  1558  1356  1358    2
  1559  1356  1357    1
  1560  1365  1363    1
  1561   770   765    1
  1562   770   768    1
  1563   765   764    1
  1564   158   159   ar
  1565   799   798    1
  1566   744   759    1
  1567   130   135    1
  1568   822   821    1
  1569   797   798   ar
  1570   797   795   ar
  1571   165   164   ar
  1572   165   159   ar
  1573   135   136    1
  1574  1573  1572    1
  1575   796   795    2
  1576  1363  1364    1
  1577   112   111    1
  1578   798   800   ar
  1579   164   163   ar
  1580   159   160   ar
  1581   795   794   ar
  1582  1567  1565    2
  1583  1480  1479    2
  1584   820   821   ar
  1585   820   818   ar
  1586   821   823   ar
  1587   761   759    2
  1588  1566  1565    1
  1589  1572  1574    1
  1590  1572  1570    1
  1591   136   143   ar
  1592   136   137   ar
  1593  1582  1581    2
  1594   768   769    1
  1595   768   766    1
  1596   759   762    1
  1597   759   760    1
  1598   800   801   ar
  1599   138   137    2
  1600   764   763    1
  1601   764   766    1
  1602   762   763    1
  1603   819   818    2
  1604  1500  1499    2
  1605   794   801   ar
  1606   794   793    1
  1607   143   142   ar
  1608   823   824   ar
  1609   818   817   ar
  1610   163   162   ar
  1611  1581  1583   ar
  1612  1581  1580   ar
  1613  1565  1568    1
  1614  1565  1550    1
  1615  1364  1379    1
  1616  1574  1575    1
  1617  1574  1576    1
  1618   160   162   ar
  1619   160   161    1
  1620  1583  1584   ar
  1621   137   139   ar
  1622  1385  1390    1
  1623  1385  1384    1
  1624  1393  1392    2
  1625  1580  1578   ar
  1626  1568  1569    1
  1627   114   113    1
  1628  1394  1392   ar
  1629  1394  1395   ar
  1630  1396  1395    2
  1631  1392  1391   ar
  1632   111   113    1
  1633   111   109    1
  1634  1395  1397   ar
  1635   793   788    1
  1636   793   791    1
  1637  1584  1577   ar
  1638  1391  1390    1
  1639  1391  1398   ar
  1640   766   767    1
  1641   824   817   ar
  1642   824   814   ar
  1643  1390  1388    1
  1644  1397  1398   ar
  1645   817   816   ar
  1646  1578  1577   ar
  1647  1578  1579    2
  1648   889   888    1
  1649   142   140   ar
  1650  1577  1576    1
  1651  1544  1542    2
  1652  1479  1467    1
  1653  1479  1481    1
  1654  1479  1482    1
  1655   788   787    1
  1656   113   115    1
  1657  1543  1542    1
  1658   139   140   ar
  1659  1569  1570    1
  1660  1501  1499    1
  1661  1570  1571    1
  1662   105   104    2
  1663  1523  1522    2
  1664  1499  1487    1
  1665  1499  1502    1
  1666   140   141    1
  1667  1384  1383    1
  1668  1384  1386    1
  1669  1383  1382    1
  1670  1576  1571    1
  1671  1467  1466    1
  1672  1524  1522    1
  1673   109   108    1
  1674   109   110    1
  1675   814   813    1
  1676   814   815   ar
  1677   816   815   ar
  1678   108   107    1
  1679  1550  1549    1
  1680   888   887   ar
  1681   888   890   ar
  1682  1483  1482    1
  1683  1483  1484    1
  1684  1542  1545    1
  1685  1542  1530    1
  1686  1379  1382    1
  1687  1379  1381    2
  1688  1379  1380    1
  1689  1487  1486    1
  1690   791   792    1
  1691   791   789    1
  1692   813   808    1
  1693   813   811    1
  1694   107   104    1
  1695   887   885   ar
  1696  1389  1388    1
  1697   890   891   ar
  1698  1522  1525    1
  1699  1522  1507    1
  1700  1463  1464    1
  1701  1463  1462    1
  1702   767   782    1
  1703  1545  1546    1
  1704   104   106    1
  1705   104    89    1
  1706  1388  1386    1
  1707   808   807    1
  1708   787   789    1
  1709   787   786    1
  1710  1549  1551    1
  1711  1549  1547    1
  1712  1502  1503    1
  1713   115   110    1
  1714   115   116    1
  1715   906   905    2
  1716  1386  1387    1
  1717  1466  1464    1
  1718  1466  1468    1
  1719  1484  1486    1
  1720  1484  1485    1
  1721  1464  1465    1
  1722   885   886    2
  1723   885   884   ar
  1724   812   811    1
  1725   784   782    2
  1726  1559  1558    2
  1727  1486  1488    1
  1728   785   786    1
  1729   785   782    1
  1730   891   884   ar
  1731   891   881   ar
  1732  1525  1526    1
  1733   789   790    1
  1734  1546  1547    1
  1735   811   809    1
  1736  1556  1555   ar
  1737  1556  1557   ar
  1738  1530  1529    1
  1739   116   123   ar
  1740   116   117   ar
  1741   903   898    1
  1742   903   904    1
  1743   903   901    1
  1744   782   783    1
  1745  1503  1504    1
  1746   902   901    1
  1747   898   897    1
  1748   118   117    2
  1749  1507  1506    1
  1750   884   883   ar
  1751  1558  1557   ar
  1752  1558  1560   ar
  1753   905   904   ar
  1754   905   907   ar
  1755  1469  1468    1
  1756   123   122   ar
  1757  1555  1554   ar
  1758  1557  1564   ar
  1759  1551  1552    1
  1760  1551  1553    1
  1761   117   119   ar
  1762   879   878    1
  1763   880   881    1
  1764   880   878    1
  1765   880   875    1
  1766  1547  1548    1
  1767   881   882   ar
  1768    89    88    1
  1769  1526  1527    1
  1770   807   809    1
  1771   807   806    1
  1772  1387  1399    1
  1773  1416  1415    1
  1774   904   911   ar
  1775  1560  1561   ar
  1776  1414  1415   ar
  1777  1414  1412   ar
  1778  1468  1470    1
  1779   907   908   ar
  1780  1415  1417   ar
  1781  1529  1527    1
  1782  1529  1531    1
  1783   122   120   ar
  1784  1554  1564   ar
  1785  1554  1553    1
  1786   878   876    1
  1787  1564  1563   ar
  1788   119   120   ar
  1789  1413  1412    2
  1790  1506  1504    1
  1791  1506  1508    1
  1792  1412  1411   ar
  1793   901   899    1
  1794   897   896    1
  1795   897   899    1
  1796  1485  1490    1
  1797   883   882   ar
  1798  1417  1418   ar
  1799  1540  1541   ar
  1800  1540  1538   ar
  1801  1489  1488    1
  1802  1465  1470    1
  1803   120   121    2
  1804  1488  1490    1
  1805   809   810    1
  1806   790   802    1
  1807  1561  1563   ar
  1808  1561  1562    1
  1809  1411  1418   ar
  1810  1411  1410    1
  1811  1405  1410    1
  1812  1405  1404    1
  1813  1504  1505    1
  1814   875   874    1
  1815   806   805    1
  1816  1553  1548    1
  1817  1541  1534   ar
  1818   911   910   ar
  1819  1527  1528    1
  1820  1410  1408    1
  1821  1539  1538    1
  1822   908   909    2
  1823   908   910   ar
  1824   805   802    1
  1825   896   895    1
  1826    88    90    1
  1827    88    86    1
  1828   918   923    1
  1829   918   917    1
  1830  1470  1471    1
  1831  1538  1537   ar
  1832   899   900    1
  1833    91    90    1
  1834  1498  1497   ar
  1835  1498  1491   ar
  1836  1490  1491    1
  1837  1531  1533    1
  1838  1531  1532    1
  1839   804   802    2
  1840    90    92    1
  1841   926   925    2
  1842  1399  1401    2
  1843  1399  1402    1
  1844  1399  1400    1
  1845   923   924    1
  1846   923   921    1
  1847   802   803    1
  1848   810   825    1
  1849  1512  1513   ar
  1850  1512  1511   ar
  1851  1508  1509    1
  1852  1508  1510    1
  1853  1505  1510    1
  1854   876   874    1
  1855   876   877    1
  1856  1534  1533    1
  1857  1534  1535   ar
  1858   900   912    1
  1859  1528  1533    1
  1860  1497  1495   ar
  1861  1404  1403    1
  1862  1404  1406    1
  1863   874   873    1
  1864  1513  1514   ar
  1865  1403  1402    1
  1866   917   916    1
  1867   917   919    1
  1868  1491  1492   ar
  1869   922   921    1
  1870   925   924   ar
  1871   925   927   ar
  1872  1537  1535   ar
  1873   895   892    1
  1874   916   915    1
  1875   924   931   ar
  1876  1471  1478   ar
  1877  1471  1472   ar
  1878    82    81    2
  1879  1478  1477   ar
  1880    86    85    1
  1881    86    87    1
  1882  1408  1409    1
  1883  1408  1406    1
  1884  1436  1435    2
  1885  1510  1511    1
  1886  1535  1536    2
  1887  1511  1521   ar
  1888    84    85    1
  1889    84    81    1
  1890   877   892    1
  1891   849   847    2
  1892   921   919    1
  1893   101   100    1
  1894   872   873    1
  1895   872   869    1
  1896   927   928   ar
  1897   931   930   ar
  1898  1435  1437   ar
  1899  1435  1434   ar
  1900   100   102   ar
  1901   100    99   ar
  1902   102   103   ar
  1903  1514  1521   ar
  1904  1514  1515   ar
  1905  1406  1407    1
  1906    92    93    1
  1907    92    87    1
  1908   871   869    2
  1909    83    81    1
  1910    81    69    1
  1911  1437  1438   ar
  1912   915   912    1
  1913    99    97   ar
  1914   825   827    2
  1915   825   826    1
  1916   825   828    1
  1917   103    93   ar
  1918   103    96   ar
  1919  1473  1472    2
  1920  1472  1474   ar
  1921  1495  1496    2
  1922  1495  1494   ar
  1923    93    94   ar
  1924   919   920    1
  1925  1477  1475   ar
  1926  1434  1433   ar
  1927  1434  1441   ar
  1928  1433  1432   ar
  1929   912   913    2
  1930   912   914    1
  1931  1492  1494   ar
  1932  1492  1493    2
  1933  1521  1520   ar
  1934   892   893    2
  1935   892   894    1
  1936    97    96   ar
  1937    97    98    2
  1938    96    95   ar
  1939   928   930   ar
  1940   928   929    1
  1941    94    95   ar
  1942   848   847    1
  1943  1438  1439    1
  1944  1438  1440   ar
  1945  1516  1515    2
  1946   869   870    1
  1947   869   855    1
  1948   829   828    1
  1949   829   830    1
  1950  1515  1517   ar
  1951  1441  1440   ar
  1952  1441  1431   ar
  1953  1432  1431   ar
  1954   847   833    1
  1955   847   850    1
  1956   920   932    1
  1957  1431  1430    1
  1958  1474  1475   ar
  1959  1407  1419    1
  1960  1475  1476    2
  1961  1520  1518   ar
  1962  1425  1430    1
  1963  1425  1424    1
  1964  1430  1428    1
  1965    69    68    1
  1966   938   937    1
  1967   938   943    1
  1968   833   832    1
  1969  1517  1518   ar
  1970   850   851    1
  1971  1518  1519    1
  1972   936   937    1
  1973   936   935    1
  1974   830   832    1
  1975   830   831    1
  1976   832   834    1
  1977   855   854    1
  1978  1459  1458    1
  1979   937   939    1
  1980   943   944    1
  1981   943   941    1
  1982    16    17   ar
  1983    16    14   ar
  1984   932   935    1
  1985   932   933    2
  1986   932   934    1
  1987  1421  1419    2
  1988   861   860   ar
  1989   861   862   ar
  1990   854   856    1
  1991   854   852    1
  1992   945   944   ar
  1993   945   946   ar
  1994   944   954   ar
  1995    68    70    1
  1996    68    66    1
  1997  1419  1422    1
  1998  1419  1420    1
  1999    15    14    2
  2000   860   859   ar
  2001  1424  1423    1
  2002  1424  1426    1
  2003   946   947   ar
  2004   838   839   ar
  2005   838   837   ar
  2006    17    10   ar
  2007   954   953   ar
  2008   954   947   ar
  2009  1422  1423    1
  2010    14    13   ar
  2011   851   852    1
  2012   839   840   ar
  2013    70    71    1
  2014    70    72    1
  2015  1458  1457   ar
  2016  1458  1460   ar
  2017   953   951   ar
  2018   947   948   ar
  2019  1428  1429    1
  2020  1428  1426    1
  2021  1457  1455   ar
  2022   864   863    1
  2023   831   836    1
  2024   951   952    1
  2025   951   950   ar
  2026   948   950   ar
  2027   948   949    2
  2028     4     9    1
  2029     4     3    1
  2030   856   858    1
  2031   856   857    1
  2032     1     2    1
  2033   862   863   ar
  2034   862   868   ar
  2035  1460  1461   ar
  2036   852   853    1
  2037    10    11   ar
  2038    10     9    1
  2039   834   836    1
  2040   834   835    1
  2041    13    11   ar
  2042    78    77    1
  2043  1455  1456    2
  2044  1455  1454   ar
  2045     2     3    1
  2046  1426  1427    1
  2047   859   868   ar
  2048   859   858    1
  2049   863   865   ar
  2050   837   836    1
  2051   837   846   ar
  2052    77    76   ar
  2053    77    79   ar
  2054   941   942    1
  2055   941   939    1
  2056    76    74   ar
  2057    63    61    2
  2058   939   940    1
  2059    79    80   ar
  2060    11    12    2
  2061    62    61    1
  2062     9     7    1
  2063   840   846   ar
  2064   840   841   ar
  2065    64    65    1
  2066    64    61    1
  2067  1461  1454   ar
  2068    66    65    1
  2069    66    67    1
  2070    74    73   ar
  2071    74    75    2
  2072    80    73   ar
  2073  1454  1453    1
  2074    73    72    1
  2075   868   867   ar
  2076     3     5    1
  2077   853   858    1
  2078   842   841    1
  2079    72    67    1
  2080    61    46    1
  2081   846   845   ar
  2082   841   843   ar
  2083  1448  1453    1
  2084  1448  1447    1
  2085  1453  1451    1
  2086   865   866   ar
  2087   940   955    1
  2088  1427  1442    1
  2089   867   866   ar
  2090     7     5    1
  2091     7     8    1
  2092   845   844   ar
  2093     5     6    1
  2094   843   844   ar
  2095   961   966    1
  2096   961   960    1
  2097    46    45    1
  2098  1447  1446    1
  2099  1447  1449    1
  2100  1445  1446    1
  2101  1445  1442    1
  2102  1451  1452    1
  2103  1451  1449    1
  2104   973   974   ar
  2105   973   971   ar
  2106   974   967   ar
  2107  1444  1442    2
  2108  1442  1443    1
  2109   972   971    1
  2110    40    38    2
  2111   955   957    2
  2112   955   958    1
  2113   955   956    1
  2114   971   970   ar
  2115   967   966    1
  2116   967   968   ar
  2117   966   964    1
  2118    55    54    2
  2119     6    18    1
  2120   970   968   ar
  2121    45    47    1
  2122    45    43    1
  2123   968   969    2
  2124   959   958    1
  2125   959   960    1
  2126    54    56   ar
  2127    54    53   ar
  2128  1449  1450    1
  2129   960   962    1
  2130    47    48    1
  2131    47    49    1
  2132    20    18    2
  2133    39    38    1
  2134    52    53   ar
  2135    52    51   ar
  2136    56    57   ar
  2137    53    60   ar
  2138    38    41    1
  2139    38    26    1
  2140    41    42    1
  2141    51    50   ar
  2142    57    58    1
  2143    57    59   ar
  2144    60    50   ar
  2145    60    59   ar
  2146    18    19    1
  2147    18    21    1
  2148    50    49    1
  2149   964   965    1
  2150   964   962    1
  2151    43    42    1
  2152    43    44    1
  2153    49    44    1
  2154   962   963    1
  2155    26    25    1
  2156    21    22    1
  2157    35    34    2
  2158    25    23    1
  2159    25    27    1
  2160    36    34   ar
  2161    36    37   ar
  2162    34    33   ar
  2163    22    23    1
  2164    37    30   ar
  2165    33    31   ar
  2166    23    24    1
  2167    27    29    1
  2168    27    28    1
  2169    30    31   ar
  2170    30    29    1
  2171    31    32    2
  2172    29    24    1
