lig.pdb
 OpenBabel11021811523D
libRbt.so/2013.1/901 2013/11/27
 32 34  0  0  0  0  0  0  0  0999 V2000
    6.5133   20.5063    2.7277 P   0  0  0  0  0  0  0  0  0  0  0  0
    6.8372   21.6800    3.6197 O   0  0  0  0  0  0  0  0  0  0  0  0
    7.8376   19.5764    2.8463 O   0  0  0  0  0  0  0  0  0  0  0  0
    5.3999   19.5758    3.1395 O   0  0  0  0  0  0  0  0  0  0  0  0
    6.1158   21.0689    1.4517 O   0  0  0  0  0  0  0  0  0  0  0  0
    6.1033   20.0021    0.4234 P   0  0  1  0  0  0  0  0  0  0  0  0
    5.7948   20.6258   -0.8850 O   0  0  0  0  0  0  0  0  0  0  0  0
    7.4333   19.3540    0.3479 O   0  0  0  0  0  0  0  0  0  0  0  0
    5.0714   18.9932    0.7711 O   0  0  0  0  0  0  0  0  0  0  0  0
    4.8639   17.7586   -0.0225 P   0  0  1  0  0  0  0  0  0  0  0  0
    5.2072   17.8769   -1.4542 O   0  0  0  0  0  0  0  0  0  0  0  0
    5.3234   16.5105    0.6264 O   0  0  0  0  0  0  0  0  0  0  0  0
    3.2514   17.6278   -0.0636 O   0  0  0  0  0  0  0  0  0  0  0  0
    2.5061   17.0975    1.0162 C   0  0  0  0  0  0  0  0  0  0  0  0
    2.5520   15.5640    1.0680 C   0  0  1  0  0  0  0  0  0  0  0  0
    1.8180   15.0886    2.1777 O   0  0  0  0  0  0  0  0  0  0  0  0
    1.8161   14.8816   -0.0984 C   0  0  1  0  0  0  0  0  0  0  0  0
    2.5111   14.8693   -1.3341 O   0  0  0  0  0  0  0  0  0  0  0  0
    1.5348   13.4772    0.4354 C   0  0  1  0  0  0  0  0  0  0  0  0
    2.5695   12.5651    0.1120 O   0  0  0  0  0  0  0  0  0  0  0  0
    1.5476   13.7180    1.9438 C   0  0  2  0  0  0  0  0  0  0  0  0
    0.3349   13.2785    2.6664 N   0  0  0  0  0  0  0  0  0  0  0  0
   -0.9889   13.5588    2.4399 C   0  0  0  0  0  0  0  0  0  0  0  0
   -1.7987   13.0744    3.3457 N   0  0  0  0  0  0  0  0  0  0  0  0
   -0.9582   12.4013    4.2273 C   0  0  0  0  0  0  0  0  0  0  0  0
   -1.2452   11.7016    5.4430 C   0  0  0  0  0  0  0  0  0  0  0  0
   -2.3337   11.5790    6.0010 O   0  0  0  0  0  0  0  0  0  0  0  0
   -0.1048   11.1274    6.0207 N   0  0  0  0  0  0  0  0  0  0  0  0
    1.1612   11.1964    5.4588 C   0  0  0  0  0  0  0  0  0  0  0  0
    2.1499   10.5171    6.0510 N   0  0  0  0  0  0  0  0  0  0  0  0
    1.4336   11.8944    4.3443 N   0  0  0  0  0  0  0  0  0  0  0  0
    0.3400   12.4770    3.7812 C   0  0  0  0  0  0  0  0  0  0  0  0
  1  2  2  0  0  0  0
  1  4  1  0  0  0  0
  1  3  1  0  0  0  0
  5  1  1  0  0  0  0
  6  7  2  6  0  0  0
  6  9  1  0  0  0  0
  6  5  1  0  0  0  0
  6  8  1  0  0  0  0
 10 11  2  6  0  0  0
 10 12  1  0  0  0  0
 10 13  1  0  0  0  0
 10  9  1  0  0  0  0
 13 14  1  0  0  0  0
 15 14  1  6  0  0  0
 15 16  1  0  0  0  0
 17 19  1  0  0  0  0
 17 15  1  0  0  0  0
 17 18  1  6  0  0  0
 19 21  1  0  0  0  0
 19 20  1  1  0  0  0
 21 16  1  0  0  0  0
 21 22  1  6  0  0  0
 22 32  1  0  0  0  0
 23 22  1  0  0  0  0
 23 24  2  0  0  0  0
 24 25  1  0  0  0  0
 25 26  1  0  0  0  0
 26 27  2  0  0  0  0
 26 28  1  0  0  0  0
 29 28  1  0  0  0  0
 29 30  1  0  0  0  0
 31 29  2  0  0  0  0
 32 25  2  0  0  0  0
 32 31  1  0  0  0  0
M  END
>  <CHROM.1>
166.11855752,-176.47097501,-175.76654084,-80.15931835,-29.04355404,-78.47401178
178.74553399,58.59432513,-61.61323458,71.67867390,3.26825889,16.16965720
1.97051979,-0.33006606,0.88781402,1.61326827

>  <Name>
lig.pdb

>  <RI>
3.03081e+07

>  <Rbt.Current_Directory>
/home/itssahil/PROJECTS/Mol_Feturizer/New_Systems/rnas/5lwj

>  <Rbt.Executable>
rbdock ($Id: //depot/dev/client3/rdock/2013.1/src/exe/rbdock.cxx#4 $)

>  <Rbt.Library>
libRbt.so (2013.1, Build901 2013/11/27)

>  <Rbt.Parameter_File>
/export/apps/rDock/src/rDock_2013.1_src/data/scripts/dock_solv.prm

>  <Rbt.Receptor>
prm/pocket_docking_2.prm

>  <SCORE>
-54.5143

>  <SCORE.INTER>
-49.7482

>  <SCORE.INTER.CONST>
1

>  <SCORE.INTER.POLAR>
-6.39908

>  <SCORE.INTER.ROT>
8

>  <SCORE.INTER.SOLV>
15.3761

>  <SCORE.INTER.VDW>
-25.8939

>  <SCORE.INTER.norm>
-1.55463

>  <SCORE.INTRA>
-4.80556

>  <SCORE.INTRA.DIHEDRAL>
-3.9521

>  <SCORE.INTRA.DIHEDRAL.0>
10.9248

>  <SCORE.INTRA.POLAR>
0

>  <SCORE.INTRA.POLAR.0>
0

>  <SCORE.INTRA.REPUL>
0

>  <SCORE.INTRA.REPUL.0>
0

>  <SCORE.INTRA.SOLV>
-0.181391

>  <SCORE.INTRA.SOLV.lig_0>
-51.4104

>  <SCORE.INTRA.VDW>
-2.73882

>  <SCORE.INTRA.VDW.0>
0.110327

>  <SCORE.INTRA.norm>
-0.150174

>  <SCORE.RESTR>
0.0395202

>  <SCORE.RESTR.CAVITY>
0.0395202

>  <SCORE.RESTR.norm>
0.00123501

>  <SCORE.SYSTEM>
0

>  <SCORE.SYSTEM.CONST>
0

>  <SCORE.SYSTEM.DIHEDRAL>
0

>  <SCORE.SYSTEM.SOLV>
0

>  <SCORE.SYSTEM.norm>
0

>  <SCORE.heavy>
32

>  <SCORE.norm>
-1.70357

>  <RMSD>
0.767

$$$$
lig.pdb
 OpenBabel11021811523D
libRbt.so/2013.1/901 2013/11/27
 32 34  0  0  0  0  0  0  0  0999 V2000
    6.3877   20.3808    2.3250 P   0  0  0  0  0  0  0  0  0  0  0  0
    6.7578   21.7344    2.8806 O   0  0  0  0  0  0  0  0  0  0  0  0
    7.7735   19.5444    2.4373 O   0  0  0  0  0  0  0  0  0  0  0  0
    5.4080   19.5308    3.0949 O   0  0  0  0  0  0  0  0  0  0  0  0
    5.7761   20.6298    1.0340 O   0  0  0  0  0  0  0  0  0  0  0  0
    5.9205   19.4285    0.1785 P   0  0  1  0  0  0  0  0  0  0  0  0
    5.1135   19.6350   -1.0471 O   0  0  0  0  0  0  0  0  0  0  0  0
    7.3400   19.2446   -0.2031 O   0  0  0  0  0  0  0  0  0  0  0  0
    5.4401   18.2347    0.9185 O   0  0  0  0  0  0  0  0  0  0  0  0
    4.9335   17.0220    0.2332 P   0  0  1  0  0  0  0  0  0  0  0  0
    5.2426   16.9505   -1.2094 O   0  0  0  0  0  0  0  0  0  0  0  0
    5.1259   15.7555    0.9741 O   0  0  0  0  0  0  0  0  0  0  0  0
    3.3322   17.2554    0.2321 O   0  0  0  0  0  0  0  0  0  0  0  0
    2.4802   16.6701    1.1987 C   0  0  0  0  0  0  0  0  0  0  0  0
    2.2092   15.1844    0.9239 C   0  0  1  0  0  0  0  0  0  0  0  0
    1.6093   14.5787    2.0507 O   0  0  0  0  0  0  0  0  0  0  0  0
    1.1426   14.9381   -0.1576 C   0  0  1  0  0  0  0  0  0  0  0  0
    1.5785   15.1149   -1.4951 O   0  0  0  0  0  0  0  0  0  0  0  0
    0.6741   13.5114    0.1276 C   0  0  1  0  0  0  0  0  0  0  0  0
    1.4140   12.5495   -0.6033 O   0  0  0  0  0  0  0  0  0  0  0  0
    1.0164   13.3703    1.6096 C   0  0  2  0  0  0  0  0  0  0  0  0
   -0.1069   12.9721    2.4847 N   0  0  0  0  0  0  0  0  0  0  0  0
   -1.4586   13.1574    2.3408 C   0  0  0  0  0  0  0  0  0  0  0  0
   -2.1635   12.7577    3.3675 N   0  0  0  0  0  0  0  0  0  0  0  0
   -1.2173   12.2461    4.2504 C   0  0  0  0  0  0  0  0  0  0  0  0
   -1.3646   11.6983    5.5650 C   0  0  0  0  0  0  0  0  0  0  0  0
   -2.3959   11.5982    6.2266 O   0  0  0  0  0  0  0  0  0  0  0  0
   -0.1501   11.2591    6.1090 N   0  0  0  0  0  0  0  0  0  0  0  0
    1.0605   11.3138    5.4348 C   0  0  0  0  0  0  0  0  0  0  0  0
    2.1314   10.7653    6.0196 N   0  0  0  0  0  0  0  0  0  0  0  0
    1.2016   11.8725    4.2216 N   0  0  0  0  0  0  0  0  0  0  0  0
    0.0343   12.3241    3.6870 C   0  0  0  0  0  0  0  0  0  0  0  0
  1  2  2  0  0  0  0
  1  4  1  0  0  0  0
  1  3  1  0  0  0  0
  5  1  1  0  0  0  0
  6  7  2  6  0  0  0
  6  9  1  0  0  0  0
  6  5  1  0  0  0  0
  6  8  1  0  0  0  0
 10 11  2  6  0  0  0
 10 12  1  0  0  0  0
 10 13  1  0  0  0  0
 10  9  1  0  0  0  0
 13 14  1  0  0  0  0
 15 14  1  1  0  0  0
 15 16  1  0  0  0  0
 17 19  1  0  0  0  0
 17 15  1  0  0  0  0
 17 18  1  6  0  0  0
 19 21  1  0  0  0  0
 19 20  1  6  0  0  0
 21 16  1  0  0  0  0
 21 22  1  1  0  0  0
 22 32  1  0  0  0  0
 23 22  1  0  0  0  0
 23 24  2  0  0  0  0
 24 25  1  0  0  0  0
 25 26  1  0  0  0  0
 26 27  2  0  0  0  0
 26 28  1  0  0  0  0
 29 28  1  0  0  0  0
 29 30  1  0  0  0  0
 31 29  2  0  0  0  0
 32 25  2  0  0  0  0
 32 31  1  0  0  0  0
M  END
>  <CHROM.1>
155.35124516,154.57933571,171.52225249,-97.68785567,14.26752586,-77.36069375
167.16795302,-173.76434811,-57.90026512,97.59595608,3.02359254,15.89522833
1.85638521,-0.37679415,0.83275460,1.67162028

>  <Name>
lig.pdb

>  <RI>
3.03081e+07

>  <Rbt.Current_Directory>
/home/itssahil/PROJECTS/Mol_Feturizer/New_Systems/rnas/5lwj

>  <Rbt.Executable>
rbdock ($Id: //depot/dev/client3/rdock/2013.1/src/exe/rbdock.cxx#4 $)

>  <Rbt.Library>
libRbt.so (2013.1, Build901 2013/11/27)

>  <Rbt.Parameter_File>
/export/apps/rDock/src/rDock_2013.1_src/data/scripts/dock_solv.prm

>  <Rbt.Receptor>
prm/pocket_docking_2.prm

>  <SCORE>
-51.1341

>  <SCORE.INTER>
-47.9595

>  <SCORE.INTER.CONST>
1

>  <SCORE.INTER.POLAR>
-5.80659

>  <SCORE.INTER.ROT>
8

>  <SCORE.INTER.SOLV>
15.713

>  <SCORE.INTER.VDW>
-26.7887

>  <SCORE.INTER.norm>
-1.49874

>  <SCORE.INTRA>
-3.20049

>  <SCORE.INTRA.DIHEDRAL>
-1.04809

>  <SCORE.INTRA.DIHEDRAL.0>
10.9248

>  <SCORE.INTRA.POLAR>
0

>  <SCORE.INTRA.POLAR.0>
0

>  <SCORE.INTRA.REPUL>
0

>  <SCORE.INTRA.REPUL.0>
0

>  <SCORE.INTRA.SOLV>
0.0849315

>  <SCORE.INTRA.SOLV.lig_0>
-51.4104

>  <SCORE.INTRA.VDW>
-2.7189

>  <SCORE.INTRA.VDW.0>
0.110327

>  <SCORE.INTRA.norm>
-0.100015

>  <SCORE.RESTR>
0.0259346

>  <SCORE.RESTR.CAVITY>
0.0259346

>  <SCORE.RESTR.norm>
0.000810456

>  <SCORE.SYSTEM>
0

>  <SCORE.SYSTEM.CONST>
0

>  <SCORE.SYSTEM.DIHEDRAL>
0

>  <SCORE.SYSTEM.SOLV>
0

>  <SCORE.SYSTEM.norm>
0

>  <SCORE.heavy>
32

>  <SCORE.norm>
-1.59794

>  <RMSD>
1.004

$$$$
lig.pdb
 OpenBabel11021811523D
libRbt.so/2013.1/901 2013/11/27
 32 34  0  0  0  0  0  0  0  0999 V2000
    6.0692   20.6390    2.9926 P   0  0  0  0  0  0  0  0  0  0  0  0
    6.4449   22.0842    3.2123 O   0  0  0  0  0  0  0  0  0  0  0  0
    7.4796   19.8588    3.1787 O   0  0  0  0  0  0  0  0  0  0  0  0
    5.1685   19.9690    4.0000 O   0  0  0  0  0  0  0  0  0  0  0  0
    5.3606   20.5956    1.7282 O   0  0  0  0  0  0  0  0  0  0  0  0
    5.3476   19.2052    1.2161 P   0  0  1  0  0  0  0  0  0  0  0  0
    6.7456   18.8055    0.9301 O   0  0  0  0  0  0  0  0  0  0  0  0
    4.7838   18.2929    2.2382 O   0  0  0  0  0  0  0  0  0  0  0  0
    4.5288   19.1421   -0.0205 O   0  0  0  0  0  0  0  0  0  0  0  0
    4.2773   17.8747   -0.7466 P   0  0  1  0  0  0  0  0  0  0  0  0
    4.4765   17.9476   -2.2084 O   0  0  0  0  0  0  0  0  0  0  0  0
    4.8301   16.6621   -0.1032 O   0  0  0  0  0  0  0  0  0  0  0  0
    2.6724   17.7061   -0.6248 O   0  0  0  0  0  0  0  0  0  0  0  0
    2.0459   17.2485    0.5587 C   0  0  0  0  0  0  0  0  0  0  0  0
    2.3321   15.7674    0.8429 C   0  0  1  0  0  0  0  0  0  0  0  0
    1.6007   15.3344    1.9716 O   0  0  0  0  0  0  0  0  0  0  0  0
    1.8060   14.8141   -0.2444 C   0  0  1  0  0  0  0  0  0  0  0  0
    2.5866   14.7471   -1.4261 O   0  0  0  0  0  0  0  0  0  0  0  0
    1.7126   13.4710    0.4791 C   0  0  1  0  0  0  0  0  0  0  0  0
    2.9014   12.7110    0.3512 O   0  0  0  0  0  0  0  0  0  0  0  0
    1.5714   13.9188    1.9327 C   0  0  2  0  0  0  0  0  0  0  0  0
    0.3927   13.3857    2.6487 N   0  0  0  0  0  0  0  0  0  0  0  0
   -0.9418   13.4423    2.3356 C   0  0  0  0  0  0  0  0  0  0  0  0
   -1.7266   12.9441    3.2557 N   0  0  0  0  0  0  0  0  0  0  0  0
   -0.8525   12.5005    4.2436 C   0  0  0  0  0  0  0  0  0  0  0  0
   -1.1085   11.9006    5.5182 C   0  0  0  0  0  0  0  0  0  0  0  0
   -2.1996   11.6798    6.0397 O   0  0  0  0  0  0  0  0  0  0  0  0
    0.0658   11.5658    6.2058 N   0  0  0  0  0  0  0  0  0  0  0  0
    1.3400   11.7595    5.6940 C   0  0  0  0  0  0  0  0  0  0  0  0
    2.3784   11.3005    6.4017 N   0  0  0  0  0  0  0  0  0  0  0  0
    1.5759   12.3664    4.5194 N   0  0  0  0  0  0  0  0  0  0  0  0
    0.4458   12.7179    3.8473 C   0  0  0  0  0  0  0  0  0  0  0  0
  1  2  2  0  0  0  0
  1  4  1  0  0  0  0
  1  3  1  0  0  0  0
  5  1  1  0  0  0  0
  6  7  2  6  0  0  0
  6  9  1  0  0  0  0
  6  5  1  0  0  0  0
  6  8  1  0  0  0  0
 10 11  2  6  0  0  0
 10 12  1  0  0  0  0
 10 13  1  0  0  0  0
 10  9  1  0  0  0  0
 13 14  1  0  0  0  0
 15 14  1  6  0  0  0
 15 16  1  0  0  0  0
 17 19  1  0  0  0  0
 17 15  1  0  0  0  0
 17 18  1  6  0  0  0
 19 21  1  0  0  0  0
 19 20  1  1  0  0  0
 21 16  1  0  0  0  0
 21 22  1  6  0  0  0
 22 32  1  0  0  0  0
 23 22  1  0  0  0  0
 23 24  2  0  0  0  0
 24 25  1  0  0  0  0
 25 26  1  0  0  0  0
 26 27  2  0  0  0  0
 26 28  1  0  0  0  0
 29 28  1  0  0  0  0
 29 30  1  0  0  0  0
 31 29  2  0  0  0  0
 32 25  2  0  0  0  0
 32 31  1  0  0  0  0
M  END
>  <CHROM.1>
161.40532521,-177.58025089,-64.28600661,-77.64546145,-133.02816764,-69.24246248
-175.34639769,-175.32987341,40.14222586,69.22245974,3.01279229,16.17760535
2.05399570,-0.33615448,0.91352935,1.61567989

>  <Name>
lig.pdb

>  <RI>
1.82117e+07

>  <Rbt.Current_Directory>
/home/itssahil/PROJECTS/Mol_Feturizer/New_Systems/rnas/5lwj

>  <Rbt.Executable>
rbdock ($Id: //depot/dev/client3/rdock/2013.1/src/exe/rbdock.cxx#4 $)

>  <Rbt.Library>
libRbt.so (2013.1, Build901 2013/11/27)

>  <Rbt.Parameter_File>
/export/apps/rDock/src/rDock_2013.1_src/data/scripts/dock_solv.prm

>  <Rbt.Receptor>
prm/pocket_docking_5.prm

>  <SCORE>
-56.862

>  <SCORE.INTER>
-52.8484

>  <SCORE.INTER.CONST>
1

>  <SCORE.INTER.POLAR>
-7.00318

>  <SCORE.INTER.ROT>
8

>  <SCORE.INTER.SOLV>
15.9176

>  <SCORE.INTER.VDW>
-26.1276

>  <SCORE.INTER.norm>
-1.65151

>  <SCORE.INTRA>
-4.01356

>  <SCORE.INTRA.DIHEDRAL>
-2.68431

>  <SCORE.INTRA.DIHEDRAL.0>
10.9248

>  <SCORE.INTRA.POLAR>
0

>  <SCORE.INTRA.POLAR.0>
0

>  <SCORE.INTRA.REPUL>
0

>  <SCORE.INTRA.REPUL.0>
0

>  <SCORE.INTRA.SOLV>
-0.349722

>  <SCORE.INTRA.SOLV.lig_0>
-51.4104

>  <SCORE.INTRA.VDW>
-2.49654

>  <SCORE.INTRA.VDW.0>
0.110327

>  <SCORE.INTRA.norm>
-0.125424

>  <SCORE.RESTR>
0

>  <SCORE.RESTR.CAVITY>
0

>  <SCORE.RESTR.norm>
0

>  <SCORE.SYSTEM>
0

>  <SCORE.SYSTEM.CONST>
0

>  <SCORE.SYSTEM.DIHEDRAL>
0

>  <SCORE.SYSTEM.SOLV>
0

>  <SCORE.SYSTEM.norm>
0

>  <SCORE.heavy>
32

>  <SCORE.norm>
-1.77694

>  <RMSD>
1.067

$$$$
lig.pdb
 OpenBabel11021811523D
libRbt.so/2013.1/901 2013/11/27
 32 34  0  0  0  0  0  0  0  0999 V2000
    7.3336   21.1810    2.0230 P   0  0  0  0  0  0  0  0  0  0  0  0
    6.8788   22.2998    2.9283 O   0  0  0  0  0  0  0  0  0  0  0  0
    8.3280   21.9297    0.9822 O   0  0  0  0  0  0  0  0  0  0  0  0
    8.1996   20.0919    2.6052 O   0  0  0  0  0  0  0  0  0  0  0  0
    6.1270   20.5277    1.5540 O   0  0  0  0  0  0  0  0  0  0  0  0
    6.3749   19.9287    0.2216 P   0  0  1  0  0  0  0  0  0  0  0  0
    6.5456   21.0299   -0.7551 O   0  0  0  0  0  0  0  0  0  0  0  0
    7.6124   19.1148    0.2532 O   0  0  0  0  0  0  0  0  0  0  0  0
    5.2214   19.0751   -0.1584 O   0  0  0  0  0  0  0  0  0  0  0  0
    4.7402   17.9601    0.6915 P   0  0  1  0  0  0  0  0  0  0  0  0
    4.9997   16.6108    0.1494 O   0  0  0  0  0  0  0  0  0  0  0  0
    5.0106   18.1117    2.1385 O   0  0  0  0  0  0  0  0  0  0  0  0
    3.1317   18.0810    0.5617 O   0  0  0  0  0  0  0  0  0  0  0  0
    2.2478   17.4139    1.4428 C   0  0  0  0  0  0  0  0  0  0  0  0
    2.4326   15.8901    1.4221 C   0  0  1  0  0  0  0  0  0  0  0  0
    1.6896   15.2919    2.4644 O   0  0  0  0  0  0  0  0  0  0  0  0
    1.8237   15.2082    0.1844 C   0  0  1  0  0  0  0  0  0  0  0  0
    2.5795   15.3248   -1.0095 O   0  0  0  0  0  0  0  0  0  0  0  0
    1.6465   13.7576    0.6323 C   0  0  1  0  0  0  0  0  0  0  0  0
    2.7763   12.9607    0.3232 O   0  0  0  0  0  0  0  0  0  0  0  0
    1.5595   13.9171    2.1490 C   0  0  2  0  0  0  0  0  0  0  0  0
    0.3571   13.3324    2.7802 N   0  0  0  0  0  0  0  0  0  0  0  0
   -0.9711   13.4673    2.4640 C   0  0  0  0  0  0  0  0  0  0  0  0
   -1.7816   12.8797    3.3058 N   0  0  0  0  0  0  0  0  0  0  0  0
   -0.9333   12.2890    4.2376 C   0  0  0  0  0  0  0  0  0  0  0  0
   -1.2227   11.5402    5.4231 C   0  0  0  0  0  0  0  0  0  0  0  0
   -2.3263   11.2871    5.9019 O   0  0  0  0  0  0  0  0  0  0  0  0
   -0.0674   11.0866    6.0739 N   0  0  0  0  0  0  0  0  0  0  0  0
    1.2183   11.3062    5.6031 C   0  0  0  0  0  0  0  0  0  0  0  0
    2.2341   10.7310    6.2566 N   0  0  0  0  0  0  0  0  0  0  0  0
    1.4866   12.0499    4.5174 N   0  0  0  0  0  0  0  0  0  0  0  0
    0.3757   12.5168    3.8846 C   0  0  0  0  0  0  0  0  0  0  0  0
  1  2  2  0  0  0  0
  1  4  1  0  0  0  0
  1  3  1  0  0  0  0
  5  1  1  0  0  0  0
  6  7  2  6  0  0  0
  6  9  1  0  0  0  0
  6  5  1  0  0  0  0
  6  8  1  0  0  0  0
 10 11  2  6  0  0  0
 10 12  1  0  0  0  0
 10 13  1  0  0  0  0
 10  9  1  0  0  0  0
 13 14  1  0  0  0  0
 15 14  1  6  0  0  0
 15 16  1  0  0  0  0
 17 19  1  0  0  0  0
 17 15  1  0  0  0  0
 17 18  1  6  0  0  0
 19 21  1  0  0  0  0
 19 20  1  1  0  0  0
 21 16  1  0  0  0  0
 21 22  1  6  0  0  0
 22 32  1  0  0  0  0
 23 22  1  0  0  0  0
 23 24  2  0  0  0  0
 24 25  1  0  0  0  0
 25 26  1  0  0  0  0
 26 27  2  0  0  0  0
 26 28  1  0  0  0  0
 29 28  1  0  0  0  0
 29 30  1  0  0  0  0
 31 29  2  0  0  0  0
 32 25  2  0  0  0  0
 32 31  1  0  0  0  0
M  END
>  <CHROM.1>
151.62385563,-55.98004309,-68.96774664,-165.17888218,-109.61732692,-59.24901135
170.51294087,30.34987467,-61.67069176,74.30873066,3.45137570,16.40422229
2.03654063,-0.47909843,0.81635084,1.82055959

>  <Name>
lig.pdb

>  <RI>
3.03081e+07

>  <Rbt.Current_Directory>
/home/itssahil/PROJECTS/Mol_Feturizer/New_Systems/rnas/5lwj

>  <Rbt.Executable>
rbdock ($Id: //depot/dev/client3/rdock/2013.1/src/exe/rbdock.cxx#4 $)

>  <Rbt.Library>
libRbt.so (2013.1, Build901 2013/11/27)

>  <Rbt.Parameter_File>
/export/apps/rDock/src/rDock_2013.1_src/data/scripts/dock_solv.prm

>  <Rbt.Receptor>
prm/pocket_docking_2.prm

>  <SCORE>
-51.7806

>  <SCORE.INTER>
-45.2969

>  <SCORE.INTER.CONST>
1

>  <SCORE.INTER.POLAR>
-5.57519

>  <SCORE.INTER.ROT>
8

>  <SCORE.INTER.SOLV>
14.7083

>  <SCORE.INTER.VDW>
-25.4501

>  <SCORE.INTER.norm>
-1.41553

>  <SCORE.INTRA>
-6.52222

>  <SCORE.INTRA.DIHEDRAL>
-1.04653

>  <SCORE.INTRA.DIHEDRAL.0>
10.9248

>  <SCORE.INTRA.POLAR>
-0.880941

>  <SCORE.INTRA.POLAR.0>
0

>  <SCORE.INTRA.REPUL>
0

>  <SCORE.INTRA.REPUL.0>
0

>  <SCORE.INTRA.SOLV>
0.585456

>  <SCORE.INTRA.SOLV.lig_0>
-51.4104

>  <SCORE.INTRA.VDW>
-3.29649

>  <SCORE.INTRA.VDW.0>
0.110327

>  <SCORE.INTRA.norm>
-0.20382

>  <SCORE.RESTR>
0.0385318

>  <SCORE.RESTR.CAVITY>
0.0385318

>  <SCORE.RESTR.norm>
0.00120412

>  <SCORE.SYSTEM>
0

>  <SCORE.SYSTEM.CONST>
0

>  <SCORE.SYSTEM.DIHEDRAL>
0

>  <SCORE.SYSTEM.SOLV>
0

>  <SCORE.SYSTEM.norm>
0

>  <SCORE.heavy>
32

>  <SCORE.norm>
-1.61814

>  <RMSD>
1.115

$$$$
lig.pdb
 OpenBabel11021811523D
libRbt.so/2013.1/901 2013/11/27
 32 34  0  0  0  0  0  0  0  0999 V2000
    7.7316   20.4212    2.7337 P   0  0  0  0  0  0  0  0  0  0  0  0
    8.4538   20.3887    4.0586 O   0  0  0  0  0  0  0  0  0  0  0  0
    6.1713   20.5239    3.1665 O   0  0  0  0  0  0  0  0  0  0  0  0
    7.9218   21.6216    1.8403 O   0  0  0  0  0  0  0  0  0  0  0  0
    8.2178   19.2800    1.9827 O   0  0  0  0  0  0  0  0  0  0  0  0
    7.1958   18.8681    0.9922 P   0  0  1  0  0  0  0  0  0  0  0  0
    6.9832   19.9941    0.0526 O   0  0  0  0  0  0  0  0  0  0  0  0
    7.6713   17.6884    0.2327 O   0  0  0  0  0  0  0  0  0  0  0  0
    5.9315   18.5366    1.6960 O   0  0  0  0  0  0  0  0  0  0  0  0
    4.7420   18.0035    0.9904 P   0  0  1  0  0  0  0  0  0  0  0  0
    4.1218   18.9371    0.0283 O   0  0  0  0  0  0  0  0  0  0  0  0
    4.8691   16.6093    0.5105 O   0  0  0  0  0  0  0  0  0  0  0  0
    3.6323   17.9312    2.1660 O   0  0  0  0  0  0  0  0  0  0  0  0
    2.3210   17.4484    1.9420 C   0  0  0  0  0  0  0  0  0  0  0  0
    2.2895   15.9426    1.6453 C   0  0  1  0  0  0  0  0  0  0  0  0
    1.6261   15.2519    2.6841 O   0  0  0  0  0  0  0  0  0  0  0  0
    1.4238   15.5679    0.4296 C   0  0  1  0  0  0  0  0  0  0  0  0
    2.0120   15.8140   -0.8367 O   0  0  0  0  0  0  0  0  0  0  0  0
    1.1136   14.0891    0.6598 C   0  0  1  0  0  0  0  0  0  0  0  0
    2.0678   13.2407    0.0459 O   0  0  0  0  0  0  0  0  0  0  0  0
    1.2647   13.9800    2.1760 C   0  0  2  0  0  0  0  0  0  0  0  0
    0.0946   13.4280    2.8917 N   0  0  0  0  0  0  0  0  0  0  0  0
   -1.2477   13.6395    2.7027 C   0  0  0  0  0  0  0  0  0  0  0  0
   -2.0094   13.0571    3.5924 N   0  0  0  0  0  0  0  0  0  0  0  0
   -1.1132   12.3883    4.4207 C   0  0  0  0  0  0  0  0  0  0  0  0
   -1.3343   11.6057    5.5991 C   0  0  0  0  0  0  0  0  0  0  0  0
   -2.4026   11.3862    6.1665 O   0  0  0  0  0  0  0  0  0  0  0  0
   -0.1506   11.0706    6.1250 N   0  0  0  0  0  0  0  0  0  0  0  0
    1.0978   11.2475    5.5478 C   0  0  0  0  0  0  0  0  0  0  0  0
    2.1366   10.5976    6.0845 N   0  0  0  0  0  0  0  0  0  0  0  0
    1.3064   12.0218    4.4704 N   0  0  0  0  0  0  0  0  0  0  0  0
    0.1692   12.5674    3.9589 C   0  0  0  0  0  0  0  0  0  0  0  0
  1  2  2  0  0  0  0
  1  4  1  0  0  0  0
  1  3  1  0  0  0  0
  5  1  1  0  0  0  0
  6  7  2  6  0  0  0
  6  9  1  0  0  0  0
  6  5  1  0  0  0  0
  6  8  1  0  0  0  0
 10 11  2  6  0  0  0
 10 12  1  0  0  0  0
 10 13  1  0  0  0  0
 10  9  1  0  0  0  0
 13 14  1  0  0  0  0
 15 14  1  1  0  0  0
 15 16  1  0  0  0  0
 17 19  1  0  0  0  0
 17 15  1  0  0  0  0
 17 18  1  6  0  0  0
 19 21  1  0  0  0  0
 19 20  1  6  0  0  0
 21 16  1  0  0  0  0
 21 22  1  1  0  0  0
 22 32  1  0  0  0  0
 23 22  1  0  0  0  0
 23 24  2  0  0  0  0
 24 25  1  0  0  0  0
 25 26  1  0  0  0  0
 26 27  2  0  0  0  0
 26 28  1  0  0  0  0
 29 28  1  0  0  0  0
 29 30  1  0  0  0  0
 31 29  2  0  0  0  0
 32 25  2  0  0  0  0
 32 31  1  0  0  0  0
M  END
>  <CHROM.1>
154.62943477,-175.85726296,61.91521091,-178.94618972,-65.42977408,68.28817609
113.99884658,-173.43168449,-173.26920976,83.86449756,3.45633569,16.18878522
2.37002287,-0.50277618,0.68067423,1.94927292

>  <Name>
lig.pdb

>  <RI>
3.03081e+07

>  <Rbt.Current_Directory>
/home/itssahil/PROJECTS/Mol_Feturizer/New_Systems/rnas/5lwj

>  <Rbt.Executable>
rbdock ($Id: //depot/dev/client3/rdock/2013.1/src/exe/rbdock.cxx#4 $)

>  <Rbt.Library>
libRbt.so (2013.1, Build901 2013/11/27)

>  <Rbt.Parameter_File>
/export/apps/rDock/src/rDock_2013.1_src/data/scripts/dock_solv.prm

>  <Rbt.Receptor>
prm/pocket_docking_2.prm

>  <SCORE>
-48.2245

>  <SCORE.INTER>
-44.3156

>  <SCORE.INTER.CONST>
1

>  <SCORE.INTER.POLAR>
-4.79725

>  <SCORE.INTER.ROT>
8

>  <SCORE.INTER.SOLV>
18.6888

>  <SCORE.INTER.VDW>
-28.7158

>  <SCORE.INTER.norm>
-1.38486

>  <SCORE.INTRA>
-3.90898

>  <SCORE.INTRA.DIHEDRAL>
-1.53735

>  <SCORE.INTRA.DIHEDRAL.0>
10.9248

>  <SCORE.INTRA.POLAR>
0

>  <SCORE.INTRA.POLAR.0>
0

>  <SCORE.INTRA.REPUL>
0.00472036

>  <SCORE.INTRA.REPUL.0>
0

>  <SCORE.INTRA.SOLV>
0.359054

>  <SCORE.INTRA.SOLV.lig_0>
-51.4104

>  <SCORE.INTRA.VDW>
-3.34343

>  <SCORE.INTRA.VDW.0>
0.110327

>  <SCORE.INTRA.norm>
-0.122156

>  <SCORE.RESTR>
4.81663e-05

>  <SCORE.RESTR.CAVITY>
4.81663e-05

>  <SCORE.RESTR.norm>
1.5052e-06

>  <SCORE.SYSTEM>
0

>  <SCORE.SYSTEM.CONST>
0

>  <SCORE.SYSTEM.DIHEDRAL>
0

>  <SCORE.SYSTEM.SOLV>
0

>  <SCORE.SYSTEM.norm>
0

>  <SCORE.heavy>
32

>  <SCORE.norm>
-1.50702

>  <RMSD>
1.116

$$$$
lig.pdb
 OpenBabel11021811523D
libRbt.so/2013.1/901 2013/11/27
 32 34  0  0  0  0  0  0  0  0999 V2000
    6.1726   20.0730    2.5800 P   0  0  0  0  0  0  0  0  0  0  0  0
    6.5284   21.4621    2.1091 O   0  0  0  0  0  0  0  0  0  0  0  0
    7.1057   19.8782    3.8930 O   0  0  0  0  0  0  0  0  0  0  0  0
    4.7806   19.8264    3.1060 O   0  0  0  0  0  0  0  0  0  0  0  0
    6.3263   19.2063    1.4276 O   0  0  0  0  0  0  0  0  0  0  0  0
    5.5492   19.7529    0.2906 P   0  0  1  0  0  0  0  0  0  0  0  0
    4.2333   20.2012    0.8039 O   0  0  0  0  0  0  0  0  0  0  0  0
    6.2585   20.9125   -0.2983 O   0  0  0  0  0  0  0  0  0  0  0  0
    5.3705   18.6976   -0.7380 O   0  0  0  0  0  0  0  0  0  0  0  0
    4.3918   17.5947   -0.5874 P   0  0  1  0  0  0  0  0  0  0  0  0
    3.0911   17.8254   -1.2483 O   0  0  0  0  0  0  0  0  0  0  0  0
    4.9468   16.2343   -0.7644 O   0  0  0  0  0  0  0  0  0  0  0  0
    4.0015   17.6756    0.9810 O   0  0  0  0  0  0  0  0  0  0  0  0
    2.7936   17.1423    1.4901 C   0  0  0  0  0  0  0  0  0  0  0  0
    2.7430   15.6105    1.4053 C   0  0  1  0  0  0  0  0  0  0  0  0
    2.0020   15.0837    2.4869 O   0  0  0  0  0  0  0  0  0  0  0  0
    1.9424   15.0819    0.2021 C   0  0  1  0  0  0  0  0  0  0  0  0
    2.6111   15.1376   -1.0469 O   0  0  0  0  0  0  0  0  0  0  0  0
    1.5830   13.6554    0.6169 C   0  0  1  0  0  0  0  0  0  0  0  0
    2.5511   12.7140    0.1884 O   0  0  0  0  0  0  0  0  0  0  0  0
    1.6405   13.7588    2.1399 C   0  0  2  0  0  0  0  0  0  0  0  0
    0.4167   13.3318    2.8511 N   0  0  0  0  0  0  0  0  0  0  0  0
   -0.9016   13.6311    2.6164 C   0  0  0  0  0  0  0  0  0  0  0  0
   -1.7245   13.1529    3.5135 N   0  0  0  0  0  0  0  0  0  0  0  0
   -0.8997   12.4639    4.3977 C   0  0  0  0  0  0  0  0  0  0  0  0
   -1.2051   11.7617    5.6074 C   0  0  0  0  0  0  0  0  0  0  0  0
   -2.2993   11.6507    6.1567 O   0  0  0  0  0  0  0  0  0  0  0  0
   -0.0768   11.1692    6.1905 N   0  0  0  0  0  0  0  0  0  0  0  0
    1.1941   11.2240    5.6383 C   0  0  0  0  0  0  0  0  0  0  0  0
    2.1691   10.5284    6.2341 N   0  0  0  0  0  0  0  0  0  0  0  0
    1.4842   11.9242    4.5296 N   0  0  0  0  0  0  0  0  0  0  0  0
    0.4027   12.5244    3.9616 C   0  0  0  0  0  0  0  0  0  0  0  0
  1  2  2  0  0  0  0
  1  4  1  0  0  0  0
  1  3  1  0  0  0  0
  5  1  1  0  0  0  0
  6  7  2  1  0  0  0
  6  9  1  0  0  0  0
  6  5  1  0  0  0  0
  6  8  1  0  0  0  0
 10 11  2  6  0  0  0
 10 12  1  0  0  0  0
 10 13  1  0  0  0  0
 10  9  1  0  0  0  0
 13 14  1  0  0  0  0
 15 14  1  1  0  0  0
 15 16  1  0  0  0  0
 17 19  1  0  0  0  0
 17 15  1  0  0  0  0
 17 18  1  6  0  0  0
 19 21  1  0  0  0  0
 19 20  1  6  0  0  0
 21 16  1  0  0  0  0
 21 22  1  1  0  0  0
 22 32  1  0  0  0  0
 23 22  1  0  0  0  0
 23 24  2  0  0  0  0
 24 25  1  0  0  0  0
 25 26  1  0  0  0  0
 26 27  2  0  0  0  0
 26 28  1  0  0  0  0
 29 28  1  0  0  0  0
 29 30  1  0  0  0  0
 31 29  2  0  0  0  0
 32 25  2  0  0  0  0
 32 31  1  0  0  0  0
M  END
>  <CHROM.1>
-52.78164282,76.52852093,-43.09281255,157.77205935,95.93922160,67.25868154
147.48843749,178.62306090,-138.55845056,77.50095314,3.05173713,16.12891758
1.99505916,-0.41161371,0.91730017,1.63428841

>  <Name>
lig.pdb

>  <RI>
3.03081e+07

>  <Rbt.Current_Directory>
/home/itssahil/PROJECTS/Mol_Feturizer/New_Systems/rnas/5lwj

>  <Rbt.Executable>
rbdock ($Id: //depot/dev/client3/rdock/2013.1/src/exe/rbdock.cxx#4 $)

>  <Rbt.Library>
libRbt.so (2013.1, Build901 2013/11/27)

>  <Rbt.Parameter_File>
/export/apps/rDock/src/rDock_2013.1_src/data/scripts/dock_solv.prm

>  <Rbt.Receptor>
prm/pocket_docking_2.prm

>  <SCORE>
-46.221

>  <SCORE.INTER>
-50.8022

>  <SCORE.INTER.CONST>
1

>  <SCORE.INTER.POLAR>
-6.52631

>  <SCORE.INTER.ROT>
8

>  <SCORE.INTER.SOLV>
16.0457

>  <SCORE.INTER.VDW>
-26.3957

>  <SCORE.INTER.norm>
-1.58757

>  <SCORE.INTRA>
4.45486

>  <SCORE.INTRA.DIHEDRAL>
3.99624

>  <SCORE.INTRA.DIHEDRAL.0>
10.9248

>  <SCORE.INTRA.POLAR>
0

>  <SCORE.INTRA.POLAR.0>
0

>  <SCORE.INTRA.REPUL>
0

>  <SCORE.INTRA.REPUL.0>
0

>  <SCORE.INTRA.SOLV>
3.34445

>  <SCORE.INTRA.SOLV.lig_0>
-51.4104

>  <SCORE.INTRA.VDW>
0.784513

>  <SCORE.INTRA.VDW.0>
0.110327

>  <SCORE.INTRA.norm>
0.139214

>  <SCORE.RESTR>
0.126326

>  <SCORE.RESTR.CAVITY>
0.126326

>  <SCORE.RESTR.norm>
0.00394768

>  <SCORE.SYSTEM>
0

>  <SCORE.SYSTEM.CONST>
0

>  <SCORE.SYSTEM.DIHEDRAL>
0

>  <SCORE.SYSTEM.SOLV>
0

>  <SCORE.SYSTEM.norm>
0

>  <SCORE.heavy>
32

>  <SCORE.norm>
-1.44441

>  <RMSD>
1.137

$$$$
lig.pdb
 OpenBabel11021811523D
libRbt.so/2013.1/901 2013/11/27
 32 34  0  0  0  0  0  0  0  0999 V2000
    7.0002   20.3855    2.7308 P   0  0  0  0  0  0  0  0  0  0  0  0
    7.5083   21.7700    2.4100 O   0  0  0  0  0  0  0  0  0  0  0  0
    8.0368   19.4197    1.9400 O   0  0  0  0  0  0  0  0  0  0  0  0
    7.0919   19.8978    4.1552 O   0  0  0  0  0  0  0  0  0  0  0  0
    5.5891   20.3878    2.3967 O   0  0  0  0  0  0  0  0  0  0  0  0
    5.4259   20.1864    0.9378 P   0  0  1  0  0  0  0  0  0  0  0  0
    4.0011   20.4099    0.5975 O   0  0  0  0  0  0  0  0  0  0  0  0
    6.2587   21.1604    0.1946 O   0  0  0  0  0  0  0  0  0  0  0  0
    5.8314   18.8034    0.5819 O   0  0  0  0  0  0  0  0  0  0  0  0
    4.8531   17.7012    0.4237 P   0  0  1  0  0  0  0  0  0  0  0  0
    3.7717   17.9668   -0.5467 O   0  0  0  0  0  0  0  0  0  0  0  0
    5.4419   16.3458    0.3435 O   0  0  0  0  0  0  0  0  0  0  0  0
    4.0626   17.7203    1.8356 O   0  0  0  0  0  0  0  0  0  0  0  0
    2.7467   17.2185    1.9745 C   0  0  0  0  0  0  0  0  0  0  0  0
    2.6357   15.7379    1.5846 C   0  0  1  0  0  0  0  0  0  0  0  0
    1.9694   15.0127    2.5978 O   0  0  0  0  0  0  0  0  0  0  0  0
    1.7198   15.4820    0.3749 C   0  0  1  0  0  0  0  0  0  0  0  0
    2.2836   15.7820   -0.8909 O   0  0  0  0  0  0  0  0  0  0  0  0
    1.3465   14.0070    0.5210 C   0  0  1  0  0  0  0  0  0  0  0  0
    2.2420   13.1574   -0.1742 O   0  0  0  0  0  0  0  0  0  0  0  0
    1.5342   13.7939    2.0219 C   0  0  2  0  0  0  0  0  0  0  0  0
    0.3596   13.2508    2.7370 N   0  0  0  0  0  0  0  0  0  0  0  0
   -0.9746   13.2907    2.4198 C   0  0  0  0  0  0  0  0  0  0  0  0
   -1.7563   12.7879    3.3401 N   0  0  0  0  0  0  0  0  0  0  0  0
   -0.8801   12.3589    4.3324 C   0  0  0  0  0  0  0  0  0  0  0  0
   -1.1329   11.7621    5.6091 C   0  0  0  0  0  0  0  0  0  0  0  0
   -2.2229   11.5312    6.1286 O   0  0  0  0  0  0  0  0  0  0  0  0
    0.0431   11.4438    6.3017 N   0  0  0  0  0  0  0  0  0  0  0  0
    1.3165   11.6497    5.7926 C   0  0  0  0  0  0  0  0  0  0  0  0
    2.3580   11.2059    6.5053 N   0  0  0  0  0  0  0  0  0  0  0  0
    1.5489   12.2537    4.6158 N   0  0  0  0  0  0  0  0  0  0  0  0
    0.4168   12.5893    3.9388 C   0  0  0  0  0  0  0  0  0  0  0  0
  1  2  2  0  0  0  0
  1  4  1  0  0  0  0
  1  3  1  0  0  0  0
  5  1  1  0  0  0  0
  6  7  2  6  0  0  0
  6  9  1  0  0  0  0
  6  5  1  0  0  0  0
  6  8  1  0  0  0  0
 10 11  2  6  0  0  0
 10 12  1  0  0  0  0
 10 13  1  0  0  0  0
 10  9  1  0  0  0  0
 13 14  1  0  0  0  0
 15 14  1  1  0  0  0
 15 16  1  0  0  0  0
 17 19  1  0  0  0  0
 17 15  1  0  0  0  0
 17 18  1  6  0  0  0
 19 21  1  0  0  0  0
 19 20  1  6  0  0  0
 21 16  1  0  0  0  0
 21 22  1  1  0  0  0
 22 32  1  0  0  0  0
 23 22  1  0  0  0  0
 23 24  2  0  0  0  0
 24 25  1  0  0  0  0
 25 26  1  0  0  0  0
 26 27  2  0  0  0  0
 26 28  1  0  0  0  0
 29 28  1  0  0  0  0
 29 30  1  0  0  0  0
 31 29  2  0  0  0  0
 32 25  2  0  0  0  0
 32 31  1  0  0  0  0
M  END
>  <CHROM.1>
81.10938689,97.21928593,-171.03810116,155.38627983,55.27827832,58.83179950
130.08151698,-56.84659037,-168.31558096,100.70215286,3.25029577,16.32394757
2.26317492,-0.51217955,0.81103085,1.87549764

>  <Name>
lig.pdb

>  <RI>
3.03081e+07

>  <Rbt.Current_Directory>
/home/itssahil/PROJECTS/Mol_Feturizer/New_Systems/rnas/5lwj

>  <Rbt.Executable>
rbdock ($Id: //depot/dev/client3/rdock/2013.1/src/exe/rbdock.cxx#4 $)

>  <Rbt.Library>
libRbt.so (2013.1, Build901 2013/11/27)

>  <Rbt.Parameter_File>
/export/apps/rDock/src/rDock_2013.1_src/data/scripts/dock_solv.prm

>  <Rbt.Receptor>
prm/pocket_docking_2.prm

>  <SCORE>
-49.9624

>  <SCORE.INTER>
-44.8076

>  <SCORE.INTER.CONST>
1

>  <SCORE.INTER.POLAR>
-4.93639

>  <SCORE.INTER.ROT>
8

>  <SCORE.INTER.SOLV>
15.3119

>  <SCORE.INTER.VDW>
-27.4544

>  <SCORE.INTER.norm>
-1.40024

>  <SCORE.INTRA>
-5.22351

>  <SCORE.INTRA.DIHEDRAL>
0.867746

>  <SCORE.INTRA.DIHEDRAL.0>
10.9248

>  <SCORE.INTRA.POLAR>
-0.992544

>  <SCORE.INTRA.POLAR.0>
0

>  <SCORE.INTRA.REPUL>
0

>  <SCORE.INTRA.REPUL.0>
0

>  <SCORE.INTRA.SOLV>
2.65637

>  <SCORE.INTRA.SOLV.lig_0>
-51.4104

>  <SCORE.INTRA.VDW>
-3.61091

>  <SCORE.INTRA.VDW.0>
0.110327

>  <SCORE.INTRA.norm>
-0.163235

>  <SCORE.RESTR>
0.068699

>  <SCORE.RESTR.CAVITY>
0.068699

>  <SCORE.RESTR.norm>
0.00214685

>  <SCORE.SYSTEM>
0

>  <SCORE.SYSTEM.CONST>
0

>  <SCORE.SYSTEM.DIHEDRAL>
0

>  <SCORE.SYSTEM.SOLV>
0

>  <SCORE.SYSTEM.norm>
0

>  <SCORE.heavy>
32

>  <SCORE.norm>
-1.56132

>  <RMSD>
1.171

$$$$
lig.pdb
 OpenBabel11021811523D
libRbt.so/2013.1/901 2013/11/27
 32 34  0  0  0  0  0  0  0  0999 V2000
    7.3665   20.4419    2.3183 P   0  0  0  0  0  0  0  0  0  0  0  0
    7.9660   21.7927    2.6246 O   0  0  0  0  0  0  0  0  0  0  0  0
    8.5888   19.4186    2.6210 O   0  0  0  0  0  0  0  0  0  0  0  0
    6.2591   19.9289    3.2046 O   0  0  0  0  0  0  0  0  0  0  0  0
    6.8006   20.5457    0.9872 O   0  0  0  0  0  0  0  0  0  0  0  0
    6.7444   19.2009    0.3675 P   0  0  1  0  0  0  0  0  0  0  0  0
    6.2456   19.3523   -1.0196 O   0  0  0  0  0  0  0  0  0  0  0  0
    8.0987   18.6015    0.3312 O   0  0  0  0  0  0  0  0  0  0  0  0
    5.8315   18.3330    1.1531 O   0  0  0  0  0  0  0  0  0  0  0  0
    4.3596   18.5067    1.1415 P   0  0  1  0  0  0  0  0  0  0  0  0
    3.7758   18.9360    2.4286 O   0  0  0  0  0  0  0  0  0  0  0  0
    3.8185   19.1997   -0.0489 O   0  0  0  0  0  0  0  0  0  0  0  0
    3.8219   16.9862    1.0084 O   0  0  0  0  0  0  0  0  0  0  0  0
    2.4444   16.6635    1.0424 C   0  0  0  0  0  0  0  0  0  0  0  0
    2.1827   15.1689    0.8096 C   0  0  1  0  0  0  0  0  0  0  0  0
    1.5871   14.5914    1.9534 O   0  0  0  0  0  0  0  0  0  0  0  0
    1.1174   14.8856   -0.2640 C   0  0  1  0  0  0  0  0  0  0  0  0
    1.5517   15.0275   -1.6061 O   0  0  0  0  0  0  0  0  0  0  0  0
    0.6580   13.4646    0.0614 C   0  0  1  0  0  0  0  0  0  0  0  0
    1.4038   12.4872   -0.6425 O   0  0  0  0  0  0  0  0  0  0  0  0
    1.0016   13.3674    1.5467 C   0  0  2  0  0  0  0  0  0  0  0  0
   -0.1187   12.9868    2.4332 N   0  0  0  0  0  0  0  0  0  0  0  0
   -1.4695   13.1868    2.2994 C   0  0  0  0  0  0  0  0  0  0  0  0
   -2.1703   12.8009    3.3341 N   0  0  0  0  0  0  0  0  0  0  0  0
   -1.2227   12.2832    4.2120 C   0  0  0  0  0  0  0  0  0  0  0  0
   -1.3653   11.7443    5.5308 C   0  0  0  0  0  0  0  0  0  0  0  0
   -2.3922   11.6596    6.2014 O   0  0  0  0  0  0  0  0  0  0  0  0
   -0.1514   11.2942    6.0672 N   0  0  0  0  0  0  0  0  0  0  0  0
    1.0541   11.3314    5.3827 C   0  0  0  0  0  0  0  0  0  0  0  0
    2.1234   10.7738    5.9617 N   0  0  0  0  0  0  0  0  0  0  0  0
    1.1915   11.8818    4.1653 N   0  0  0  0  0  0  0  0  0  0  0  0
    0.0250   12.3438    3.6378 C   0  0  0  0  0  0  0  0  0  0  0  0
  1  2  2  0  0  0  0
  1  4  1  0  0  0  0
  1  3  1  0  0  0  0
  5  1  1  0  0  0  0
  6  7  2  6  0  0  0
  6  9  1  0  0  0  0
  6  5  1  0  0  0  0
  6  8  1  0  0  0  0
 10 11  2  1  0  0  0
 10 12  1  0  0  0  0
 10 13  1  0  0  0  0
 10  9  1  0  0  0  0
 13 14  1  0  0  0  0
 15 14  1  1  0  0  0
 15 16  1  0  0  0  0
 17 19  1  0  0  0  0
 17 15  1  0  0  0  0
 17 18  1  6  0  0  0
 19 21  1  0  0  0  0
 19 20  1  6  0  0  0
 21 16  1  0  0  0  0
 21 22  1  1  0  0  0
 22 32  1  0  0  0  0
 23 22  1  0  0  0  0
 23 24  2  0  0  0  0
 24 25  1  0  0  0  0
 25 26  1  0  0  0  0
 26 27  2  0  0  0  0
 26 28  1  0  0  0  0
 29 28  1  0  0  0  0
 29 30  1  0  0  0  0
 31 29  2  0  0  0  0
 32 25  2  0  0  0  0
 32 31  1  0  0  0  0
M  END
>  <CHROM.1>
154.82698451,72.10137479,-176.36974512,175.96694407,-113.77446415,176.42964565
116.74127610,59.90399508,-61.93917792,95.88694912,3.21311749,16.11470478
2.01748792,-0.42205718,0.75880913,1.82939512

>  <Name>
lig.pdb

>  <RI>
3.03081e+07

>  <Rbt.Current_Directory>
/home/itssahil/PROJECTS/Mol_Feturizer/New_Systems/rnas/5lwj

>  <Rbt.Executable>
rbdock ($Id: //depot/dev/client3/rdock/2013.1/src/exe/rbdock.cxx#4 $)

>  <Rbt.Library>
libRbt.so (2013.1, Build901 2013/11/27)

>  <Rbt.Parameter_File>
/export/apps/rDock/src/rDock_2013.1_src/data/scripts/dock_solv.prm

>  <Rbt.Receptor>
prm/pocket_docking_2.prm

>  <SCORE>
-49.4241

>  <SCORE.INTER>
-46.9371

>  <SCORE.INTER.CONST>
1

>  <SCORE.INTER.POLAR>
-5.6289

>  <SCORE.INTER.ROT>
8

>  <SCORE.INTER.SOLV>
17.3659

>  <SCORE.INTER.VDW>
-27.2504

>  <SCORE.INTER.norm>
-1.46678

>  <SCORE.INTRA>
-2.59407

>  <SCORE.INTRA.DIHEDRAL>
0.00864021

>  <SCORE.INTRA.DIHEDRAL.0>
10.9248

>  <SCORE.INTRA.POLAR>
0

>  <SCORE.INTRA.POLAR.0>
0

>  <SCORE.INTRA.REPUL>
0

>  <SCORE.INTRA.REPUL.0>
0

>  <SCORE.INTRA.SOLV>
-0.208775

>  <SCORE.INTRA.SOLV.lig_0>
-51.4104

>  <SCORE.INTRA.VDW>
-2.49401

>  <SCORE.INTRA.VDW.0>
0.110327

>  <SCORE.INTRA.norm>
-0.0810648

>  <SCORE.RESTR>
0.107016

>  <SCORE.RESTR.CAVITY>
0.107016

>  <SCORE.RESTR.norm>
0.00334424

>  <SCORE.SYSTEM>
0

>  <SCORE.SYSTEM.CONST>
0

>  <SCORE.SYSTEM.DIHEDRAL>
0

>  <SCORE.SYSTEM.SOLV>
0

>  <SCORE.SYSTEM.norm>
0

>  <SCORE.heavy>
32

>  <SCORE.norm>
-1.5445

>  <RMSD>
1.201

$$$$
lig.pdb
 OpenBabel11021811523D
libRbt.so/2013.1/901 2013/11/27
 32 34  0  0  0  0  0  0  0  0999 V2000
    6.2336   20.6306    2.4123 P   0  0  0  0  0  0  0  0  0  0  0  0
    7.5608   20.5981    3.1303 O   0  0  0  0  0  0  0  0  0  0  0  0
    5.3498   19.5363    3.2211 O   0  0  0  0  0  0  0  0  0  0  0  0
    5.3982   21.8833    2.5016 O   0  0  0  0  0  0  0  0  0  0  0  0
    6.5329   20.4464    1.0055 O   0  0  0  0  0  0  0  0  0  0  0  0
    6.8731   19.0263    0.7541 P   0  0  1  0  0  0  0  0  0  0  0  0
    7.1887   18.8752   -0.6859 O   0  0  0  0  0  0  0  0  0  0  0  0
    8.0599   18.6396    1.5520 O   0  0  0  0  0  0  0  0  0  0  0  0
    5.7184   18.1693    1.1228 O   0  0  0  0  0  0  0  0  0  0  0  0
    4.3638   18.3688    0.5553 P   0  0  1  0  0  0  0  0  0  0  0  0
    3.3781   18.9457    1.4919 O   0  0  0  0  0  0  0  0  0  0  0  0
    4.3327   18.9395   -0.8098 O   0  0  0  0  0  0  0  0  0  0  0  0
    3.8248   16.8535    0.3768 O   0  0  0  0  0  0  0  0  0  0  0  0
    3.3596   16.0809    1.4674 C   0  0  0  0  0  0  0  0  0  0  0  0
    2.7768   14.7306    1.0277 C   0  0  1  0  0  0  0  0  0  0  0  0
    2.0923   14.1189    2.1018 O   0  0  0  0  0  0  0  0  0  0  0  0
    1.6551   14.8503   -0.0189 C   0  0  1  0  0  0  0  0  0  0  0  0
    2.0842   15.1069   -1.3456 O   0  0  0  0  0  0  0  0  0  0  0  0
    0.9058   13.5248    0.1139 C   0  0  1  0  0  0  0  0  0  0  0  0
    1.4093   12.5354   -0.7663 O   0  0  0  0  0  0  0  0  0  0  0  0
    1.2486   13.1250    1.5479 C   0  0  2  0  0  0  0  0  0  0  0  0
    0.0895   12.8542    2.4249 N   0  0  0  0  0  0  0  0  0  0  0  0
   -1.2358   13.1763    2.2764 C   0  0  0  0  0  0  0  0  0  0  0  0
   -1.9791   12.8626    3.3059 N   0  0  0  0  0  0  0  0  0  0  0  0
   -1.0914   12.2658    4.1961 C   0  0  0  0  0  0  0  0  0  0  0  0
   -1.2955   11.7505    5.5163 C   0  0  0  0  0  0  0  0  0  0  0  0
   -2.3322   11.7644    6.1768 O   0  0  0  0  0  0  0  0  0  0  0  0
   -0.1332   11.1944    6.0674 N   0  0  0  0  0  0  0  0  0  0  0  0
    1.0772   11.1168    5.3951 C   0  0  0  0  0  0  0  0  0  0  0  0
    2.0853   10.4672    5.9879 N   0  0  0  0  0  0  0  0  0  0  0  0
    1.2762   11.6446    4.1763 N   0  0  0  0  0  0  0  0  0  0  0  0
    0.1621   12.2083    3.6344 C   0  0  0  0  0  0  0  0  0  0  0  0
  1  2  2  0  0  0  0
  1  4  1  0  0  0  0
  1  3  1  0  0  0  0
  5  1  1  0  0  0  0
  6  7  2  6  0  0  0
  6  9  1  0  0  0  0
  6  5  1  0  0  0  0
  6  8  1  0  0  0  0
 10 11  2  1  0  0  0
 10 12  1  0  0  0  0
 10 13  1  0  0  0  0
 10  9  1  0  0  0  0
 13 14  1  0  0  0  0
 15 14  1  1  0  0  0
 15 16  1  0  0  0  0
 17 19  1  0  0  0  0
 17 15  1  0  0  0  0
 17 18  1  6  0  0  0
 19 21  1  0  0  0  0
 19 20  1  6  0  0  0
 21 16  1  0  0  0  0
 21 22  1  1  0  0  0
 22 32  1  0  0  0  0
 23 22  1  0  0  0  0
 23 24  2  0  0  0  0
 24 25  1  0  0  0  0
 25 26  1  0  0  0  0
 26 27  2  0  0  0  0
 26 28  1  0  0  0  0
 29 28  1  0  0  0  0
 29 30  1  0  0  0  0
 31 29  2  0  0  0  0
 32 25  2  0  0  0  0
 32 31  1  0  0  0  0
M  END
>  <CHROM.1>
75.00710752,55.27207404,-179.33442128,76.93042347,-107.12254697,174.45673880
-168.37894937,-177.90174897,62.72002346,107.83031552,3.16058139,16.03294885
2.03267376,-0.31245205,0.86592426,1.64181534

>  <Name>
lig.pdb

>  <RI>
3.03081e+07

>  <Rbt.Current_Directory>
/home/itssahil/PROJECTS/Mol_Feturizer/New_Systems/rnas/5lwj

>  <Rbt.Executable>
rbdock ($Id: //depot/dev/client3/rdock/2013.1/src/exe/rbdock.cxx#4 $)

>  <Rbt.Library>
libRbt.so (2013.1, Build901 2013/11/27)

>  <Rbt.Parameter_File>
/export/apps/rDock/src/rDock_2013.1_src/data/scripts/dock_solv.prm

>  <Rbt.Receptor>
prm/pocket_docking_2.prm

>  <SCORE>
-55.2833

>  <SCORE.INTER>
-50.9713

>  <SCORE.INTER.CONST>
1

>  <SCORE.INTER.POLAR>
-5.87932

>  <SCORE.INTER.ROT>
8

>  <SCORE.INTER.SOLV>
17.1588

>  <SCORE.INTER.VDW>
-29.036

>  <SCORE.INTER.norm>
-1.59285

>  <SCORE.INTRA>
-4.43316

>  <SCORE.INTRA.DIHEDRAL>
-4.74536

>  <SCORE.INTRA.DIHEDRAL.0>
10.9248

>  <SCORE.INTRA.POLAR>
0

>  <SCORE.INTRA.POLAR.0>
0

>  <SCORE.INTRA.REPUL>
0

>  <SCORE.INTRA.REPUL.0>
0

>  <SCORE.INTRA.SOLV>
1.62822

>  <SCORE.INTRA.SOLV.lig_0>
-51.4104

>  <SCORE.INTRA.VDW>
-2.87459

>  <SCORE.INTRA.VDW.0>
0.110327

>  <SCORE.INTRA.norm>
-0.138536

>  <SCORE.RESTR>
0.121126

>  <SCORE.RESTR.CAVITY>
0.121126

>  <SCORE.RESTR.norm>
0.0037852

>  <SCORE.SYSTEM>
0

>  <SCORE.SYSTEM.CONST>
0

>  <SCORE.SYSTEM.DIHEDRAL>
0

>  <SCORE.SYSTEM.SOLV>
0

>  <SCORE.SYSTEM.norm>
0

>  <SCORE.heavy>
32

>  <SCORE.norm>
-1.7276

>  <RMSD>
1.213

$$$$
lig.pdb
 OpenBabel11021811523D
libRbt.so/2013.1/901 2013/11/27
 32 34  0  0  0  0  0  0  0  0999 V2000
    6.8436   21.7570    1.9685 P   0  0  0  0  0  0  0  0  0  0  0  0
    8.0525   21.4367    1.1234 O   0  0  0  0  0  0  0  0  0  0  0  0
    7.3403   21.4031    3.4720 O   0  0  0  0  0  0  0  0  0  0  0  0
    6.4045   23.1957    2.0795 O   0  0  0  0  0  0  0  0  0  0  0  0
    5.7332   21.0429    1.3686 O   0  0  0  0  0  0  0  0  0  0  0  0
    5.7298   19.6410    1.8482 P   0  0  1  0  0  0  0  0  0  0  0  0
    7.0533   19.0466    1.5464 O   0  0  0  0  0  0  0  0  0  0  0  0
    5.5071   19.6058    3.3124 O   0  0  0  0  0  0  0  0  0  0  0  0
    4.6545   18.8855    1.1579 O   0  0  0  0  0  0  0  0  0  0  0  0
    4.9375   17.8432    0.1427 P   0  0  1  0  0  0  0  0  0  0  0  0
    4.9299   18.3208   -1.2550 O   0  0  0  0  0  0  0  0  0  0  0  0
    6.0468   16.9233    0.4797 O   0  0  0  0  0  0  0  0  0  0  0  0
    3.6097   16.9199    0.1995 O   0  0  0  0  0  0  0  0  0  0  0  0
    3.2895   16.1209    1.3227 C   0  0  0  0  0  0  0  0  0  0  0  0
    2.7387   14.7432    0.9289 C   0  0  1  0  0  0  0  0  0  0  0  0
    2.0595   14.1564    2.0202 O   0  0  0  0  0  0  0  0  0  0  0  0
    1.6225   14.8006   -0.1287 C   0  0  1  0  0  0  0  0  0  0  0  0
    2.0558   15.0179   -1.4611 O   0  0  0  0  0  0  0  0  0  0  0  0
    0.9006   13.4649    0.0476 C   0  0  1  0  0  0  0  0  0  0  0  0
    1.4314   12.4553   -0.7926 O   0  0  0  0  0  0  0  0  0  0  0  0
    1.2412   13.1251    1.4974 C   0  0  2  0  0  0  0  0  0  0  0  0
    0.0818   12.8615    2.3761 N   0  0  0  0  0  0  0  0  0  0  0  0
   -1.2402   13.1998    2.2339 C   0  0  0  0  0  0  0  0  0  0  0  0
   -1.9839   12.8876    3.2635 N   0  0  0  0  0  0  0  0  0  0  0  0
   -1.1005   12.2744    4.1468 C   0  0  0  0  0  0  0  0  0  0  0  0
   -1.3066   11.7524    5.4640 C   0  0  0  0  0  0  0  0  0  0  0  0
   -2.3411   11.7736    6.1278 O   0  0  0  0  0  0  0  0  0  0  0  0
   -0.1491   11.1792    6.0077 N   0  0  0  0  0  0  0  0  0  0  0  0
    1.0583   11.0923    5.3311 C   0  0  0  0  0  0  0  0  0  0  0  0
    2.0606   10.4271    5.9163 N   0  0  0  0  0  0  0  0  0  0  0  0
    1.2597   11.6263    4.1153 N   0  0  0  0  0  0  0  0  0  0  0  0
    0.1505   12.2065    3.5809 C   0  0  0  0  0  0  0  0  0  0  0  0
  1  2  2  0  0  0  0
  1  4  1  0  0  0  0
  1  3  1  0  0  0  0
  5  1  1  0  0  0  0
  6  7  2  6  0  0  0
  6  9  1  0  0  0  0
  6  5  1  0  0  0  0
  6  8  1  0  0  0  0
 10 11  2  6  0  0  0
 10 12  1  0  0  0  0
 10 13  1  0  0  0  0
 10  9  1  0  0  0  0
 13 14  1  0  0  0  0
 15 14  1  1  0  0  0
 15 16  1  0  0  0  0
 17 19  1  0  0  0  0
 17 15  1  0  0  0  0
 17 18  1  6  0  0  0
 19 21  1  0  0  0  0
 19 20  1  6  0  0  0
 21 16  1  0  0  0  0
 21 22  1  1  0  0  0
 22 32  1  0  0  0  0
 23 22  1  0  0  0  0
 23 24  2  0  0  0  0
 24 25  1  0  0  0  0
 25 26  1  0  0  0  0
 26 27  2  0  0  0  0
 26 28  1  0  0  0  0
 29 28  1  0  0  0  0
 29 30  1  0  0  0  0
 31 29  2  0  0  0  0
 32 25  2  0  0  0  0
 32 31  1  0  0  0  0
M  END
>  <CHROM.1>
83.01245260,109.41407878,-55.59716013,-68.04725228,-94.00432263,-139.36379312
-161.88351360,-53.50746626,-47.01803778,104.65647350,3.21645227,16.22129633
2.02861008,-0.16675188,0.92450218,1.52028857

>  <Name>
lig.pdb

>  <RI>
3.03081e+07

>  <Rbt.Current_Directory>
/home/itssahil/PROJECTS/Mol_Feturizer/New_Systems/rnas/5lwj

>  <Rbt.Executable>
rbdock ($Id: //depot/dev/client3/rdock/2013.1/src/exe/rbdock.cxx#4 $)

>  <Rbt.Library>
libRbt.so (2013.1, Build901 2013/11/27)

>  <Rbt.Parameter_File>
/export/apps/rDock/src/rDock_2013.1_src/data/scripts/dock_solv.prm

>  <Rbt.Receptor>
prm/pocket_docking_2.prm

>  <SCORE>
-51.0927

>  <SCORE.INTER>
-49.3536

>  <SCORE.INTER.CONST>
1

>  <SCORE.INTER.POLAR>
-5.87208

>  <SCORE.INTER.ROT>
8

>  <SCORE.INTER.SOLV>
16.8906

>  <SCORE.INTER.VDW>
-27.8924

>  <SCORE.INTER.norm>
-1.5423

>  <SCORE.INTRA>
-1.96775

>  <SCORE.INTRA.DIHEDRAL>
3.69927

>  <SCORE.INTRA.DIHEDRAL.0>
10.9248

>  <SCORE.INTRA.POLAR>
-0.527393

>  <SCORE.INTRA.POLAR.0>
0

>  <SCORE.INTRA.REPUL>
0

>  <SCORE.INTRA.REPUL.0>
0

>  <SCORE.INTRA.SOLV>
-0.357435

>  <SCORE.INTRA.SOLV.lig_0>
-51.4104

>  <SCORE.INTRA.VDW>
-1.84553

>  <SCORE.INTRA.VDW.0>
0.110327

>  <SCORE.INTRA.norm>
-0.0614922

>  <SCORE.RESTR>
0.228689

>  <SCORE.RESTR.CAVITY>
0.228689

>  <SCORE.RESTR.norm>
0.00714654

>  <SCORE.SYSTEM>
0

>  <SCORE.SYSTEM.CONST>
0

>  <SCORE.SYSTEM.DIHEDRAL>
0

>  <SCORE.SYSTEM.SOLV>
0

>  <SCORE.SYSTEM.norm>
0

>  <SCORE.heavy>
32

>  <SCORE.norm>
-1.59665

>  <RMSD>
1.245

$$$$
lig.pdb
 OpenBabel11021811523D
libRbt.so/2013.1/901 2013/11/27
 32 34  0  0  0  0  0  0  0  0999 V2000
    6.2252   20.4071    2.2232 P   0  0  0  0  0  0  0  0  0  0  0  0
    7.5357   19.7659    2.6098 O   0  0  0  0  0  0  0  0  0  0  0  0
    5.1257   19.4846    2.9799 O   0  0  0  0  0  0  0  0  0  0  0  0
    5.9242   21.7935    2.7356 O   0  0  0  0  0  0  0  0  0  0  0  0
    6.2379   20.5071    0.7766 O   0  0  0  0  0  0  0  0  0  0  0  0
    5.7642   19.2322    0.1886 P   0  0  1  0  0  0  0  0  0  0  0  0
    5.9985   19.2831   -1.2737 O   0  0  0  0  0  0  0  0  0  0  0  0
    6.5239   18.0962    0.7603 O   0  0  0  0  0  0  0  0  0  0  0  0
    4.3173   19.0641    0.4746 O   0  0  0  0  0  0  0  0  0  0  0  0
    3.5321   17.9145   -0.0341 P   0  0  1  0  0  0  0  0  0  0  0  0
    2.1268   17.8745    0.4192 O   0  0  0  0  0  0  0  0  0  0  0  0
    3.7328   17.6019   -1.4666 O   0  0  0  0  0  0  0  0  0  0  0  0
    4.1847   16.6603    0.7530 O   0  0  0  0  0  0  0  0  0  0  0  0
    3.4751   15.9294    1.7353 C   0  0  0  0  0  0  0  0  0  0  0  0
    2.7872   14.6831    1.1610 C   0  0  1  0  0  0  0  0  0  0  0  0
    2.0897   13.9950    2.1790 O   0  0  0  0  0  0  0  0  0  0  0  0
    1.6497   15.0015    0.1747 C   0  0  1  0  0  0  0  0  0  0  0  0
    2.0609   15.3850   -1.1268 O   0  0  0  0  0  0  0  0  0  0  0  0
    0.8126   13.7227    0.1772 C   0  0  1  0  0  0  0  0  0  0  0  0
    1.2218   12.8138   -0.8296 O   0  0  0  0  0  0  0  0  0  0  0  0
    1.1638   13.1329    1.5418 C   0  0  2  0  0  0  0  0  0  0  0  0
    0.0119   12.8377    2.4205 N   0  0  0  0  0  0  0  0  0  0  0  0
   -1.3194   13.1365    2.2763 C   0  0  0  0  0  0  0  0  0  0  0  0
   -2.0544   12.8053    3.3063 N   0  0  0  0  0  0  0  0  0  0  0  0
   -1.1540   12.2209    4.1920 C   0  0  0  0  0  0  0  0  0  0  0  0
   -1.3457   11.6967    5.5104 C   0  0  0  0  0  0  0  0  0  0  0  0
   -2.3809   11.6892    6.1735 O   0  0  0  0  0  0  0  0  0  0  0  0
   -0.1722   11.1593    6.0565 N   0  0  0  0  0  0  0  0  0  0  0  0
    1.0377   11.1062    5.3811 C   0  0  0  0  0  0  0  0  0  0  0  0
    2.0588   10.4725    5.9689 N   0  0  0  0  0  0  0  0  0  0  0  0
    1.2243   11.6425    4.1640 N   0  0  0  0  0  0  0  0  0  0  0  0
    0.0989   12.1883    3.6271 C   0  0  0  0  0  0  0  0  0  0  0  0
  1  2  2  0  0  0  0
  1  4  1  0  0  0  0
  1  3  1  0  0  0  0
  5  1  1  0  0  0  0
  6  7  2  6  0  0  0
  6  9  1  0  0  0  0
  6  5  1  0  0  0  0
  6  8  1  0  0  0  0
 10 11  2  1  0  0  0
 10 12  1  0  0  0  0
 10 13  1  0  0  0  0
 10  9  1  0  0  0  0
 13 14  1  0  0  0  0
 15 14  1  1  0  0  0
 15 16  1  0  0  0  0
 17 19  1  0  0  0  0
 17 15  1  0  0  0  0
 17 18  1  6  0  0  0
 19 21  1  0  0  0  0
 19 20  1  6  0  0  0
 21 16  1  0  0  0  0
 21 22  1  1  0  0  0
 22 32  1  0  0  0  0
 23 22  1  0  0  0  0
 23 24  2  0  0  0  0
 24 25  1  0  0  0  0
 25 26  1  0  0  0  0
 26 27  2  0  0  0  0
 26 28  1  0  0  0  0
 29 28  1  0  0  0  0
 29 30  1  0  0  0  0
 31 29  2  0  0  0  0
 32 25  2  0  0  0  0
 32 31  1  0  0  0  0
M  END
>  <CHROM.1>
85.00717201,177.16932142,-170.79433864,112.09824136,176.53196500,94.46178841
-179.72615899,56.85611579,-64.37492614,116.21613676,2.84684667,15.92836430
1.84539100,-0.47229096,0.85641778,1.77207460

>  <Name>
lig.pdb

>  <RI>
3.03081e+07

>  <Rbt.Current_Directory>
/home/itssahil/PROJECTS/Mol_Feturizer/New_Systems/rnas/5lwj

>  <Rbt.Executable>
rbdock ($Id: //depot/dev/client3/rdock/2013.1/src/exe/rbdock.cxx#4 $)

>  <Rbt.Library>
libRbt.so (2013.1, Build901 2013/11/27)

>  <Rbt.Parameter_File>
/export/apps/rDock/src/rDock_2013.1_src/data/scripts/dock_solv.prm

>  <Rbt.Receptor>
prm/pocket_docking_2.prm

>  <SCORE>
-52.0618

>  <SCORE.INTER>
-49.7414

>  <SCORE.INTER.CONST>
1

>  <SCORE.INTER.POLAR>
-5.86997

>  <SCORE.INTER.ROT>
8

>  <SCORE.INTER.SOLV>
16.416

>  <SCORE.INTER.VDW>
-27.9997

>  <SCORE.INTER.norm>
-1.55442

>  <SCORE.INTRA>
-2.44766

>  <SCORE.INTRA.DIHEDRAL>
0.0885762

>  <SCORE.INTRA.DIHEDRAL.0>
10.9248

>  <SCORE.INTRA.POLAR>
0

>  <SCORE.INTRA.POLAR.0>
0

>  <SCORE.INTRA.REPUL>
0

>  <SCORE.INTRA.REPUL.0>
0

>  <SCORE.INTRA.SOLV>
1.67588

>  <SCORE.INTRA.SOLV.lig_0>
-51.4104

>  <SCORE.INTRA.VDW>
-3.32989

>  <SCORE.INTRA.VDW.0>
0.110327

>  <SCORE.INTRA.norm>
-0.0764893

>  <SCORE.RESTR>
0.127226

>  <SCORE.RESTR.CAVITY>
0.127226

>  <SCORE.RESTR.norm>
0.00397583

>  <SCORE.SYSTEM>
0

>  <SCORE.SYSTEM.CONST>
0

>  <SCORE.SYSTEM.DIHEDRAL>
0

>  <SCORE.SYSTEM.SOLV>
0

>  <SCORE.SYSTEM.norm>
0

>  <SCORE.heavy>
32

>  <SCORE.norm>
-1.62693

>  <RMSD>
1.248

$$$$
lig.pdb
 OpenBabel11021811523D
libRbt.so/2013.1/901 2013/11/27
 32 34  0  0  0  0  0  0  0  0999 V2000
    7.0555   20.3062    3.4267 P   0  0  0  0  0  0  0  0  0  0  0  0
    5.7924   19.6126    3.8754 O   0  0  0  0  0  0  0  0  0  0  0  0
    7.7379   20.7701    4.8237 O   0  0  0  0  0  0  0  0  0  0  0  0
    8.1353   19.4811    2.7722 O   0  0  0  0  0  0  0  0  0  0  0  0
    6.6466   21.2879    2.4409 O   0  0  0  0  0  0  0  0  0  0  0  0
    6.1972   20.5955    1.2104 P   0  0  1  0  0  0  0  0  0  0  0  0
    5.5574   21.5966    0.3248 O   0  0  0  0  0  0  0  0  0  0  0  0
    7.3591   20.0021    0.5085 O   0  0  0  0  0  0  0  0  0  0  0  0
    5.2287   19.5293    1.5695 O   0  0  0  0  0  0  0  0  0  0  0  0
    4.5897   18.6577    0.5551 P   0  0  1  0  0  0  0  0  0  0  0  0
    3.4861   19.2883   -0.1974 O   0  0  0  0  0  0  0  0  0  0  0  0
    5.5265   17.8596   -0.2668 O   0  0  0  0  0  0  0  0  0  0  0  0
    3.8106   17.5669    1.4617 O   0  0  0  0  0  0  0  0  0  0  0  0
    2.5709   17.0053    1.0737 C   0  0  0  0  0  0  0  0  0  0  0  0
    2.5825   15.4707    1.1061 C   0  0  1  0  0  0  0  0  0  0  0  0
    1.8563   14.9983    2.2223 O   0  0  0  0  0  0  0  0  0  0  0  0
    1.8117   14.8199   -0.0558 C   0  0  1  0  0  0  0  0  0  0  0  0
    2.4856   14.8073   -1.3031 O   0  0  0  0  0  0  0  0  0  0  0  0
    1.5073   13.4157    0.4655 C   0  0  1  0  0  0  0  0  0  0  0  0
    2.5152   12.4845    0.1135 O   0  0  0  0  0  0  0  0  0  0  0  0
    1.5507   13.6372    1.9763 C   0  0  2  0  0  0  0  0  0  0  0  0
    0.3404   13.2163    2.7140 N   0  0  0  0  0  0  0  0  0  0  0  0
   -0.9833   13.5007    2.4919 C   0  0  0  0  0  0  0  0  0  0  0  0
   -1.7896   13.0356    3.4108 N   0  0  0  0  0  0  0  0  0  0  0  0
   -0.9470   12.3718    4.2974 C   0  0  0  0  0  0  0  0  0  0  0  0
   -1.2297   11.6932    5.5260 C   0  0  0  0  0  0  0  0  0  0  0  0
   -2.3151   11.5858    6.0931 O   0  0  0  0  0  0  0  0  0  0  0  0
   -0.0887   11.1217    6.1052 N   0  0  0  0  0  0  0  0  0  0  0  0
    1.1738   11.1743    5.5338 C   0  0  0  0  0  0  0  0  0  0  0  0
    2.1626   10.4988    6.1301 N   0  0  0  0  0  0  0  0  0  0  0  0
    1.4426   11.8528    4.4064 N   0  0  0  0  0  0  0  0  0  0  0  0
    0.3485   12.4327    3.8414 C   0  0  0  0  0  0  0  0  0  0  0  0
  1  2  2  0  0  0  0
  1  4  1  0  0  0  0
  1  3  1  0  0  0  0
  5  1  1  0  0  0  0
  6  7  2  6  0  0  0
  6  9  1  0  0  0  0
  6  5  1  0  0  0  0
  6  8  1  0  0  0  0
 10 11  2  6  0  0  0
 10 12  1  0  0  0  0
 10 13  1  0  0  0  0
 10  9  1  0  0  0  0
 13 14  1  0  0  0  0
 15 14  1  6  0  0  0
 15 16  1  0  0  0  0
 17 19  1  0  0  0  0
 17 15  1  0  0  0  0
 17 18  1  6  0  0  0
 19 21  1  0  0  0  0
 19 20  1  1  0  0  0
 21 16  1  0  0  0  0
 21 22  1  6  0  0  0
 22 32  1  0  0  0  0
 23 22  1  0  0  0  0
 23 24  2  0  0  0  0
 24 25  1  0  0  0  0
 25 26  1  0  0  0  0
 26 27  2  0  0  0  0
 26 28  1  0  0  0  0
 29 28  1  0  0  0  0
 29 30  1  0  0  0  0
 31 29  2  0  0  0  0
 32 25  2  0  0  0  0
 32 31  1  0  0  0  0
M  END
>  <CHROM.1>
-69.70379057,179.73138759,169.74269050,145.70884862,-77.29830476,127.65005570
105.61099149,-178.93879232,-65.71176271,73.66036862,3.32176260,16.34766734
2.33319397,-0.41676880,0.85173462,1.82908984

>  <Name>
lig.pdb

>  <RI>
3.03081e+07

>  <Rbt.Current_Directory>
/home/itssahil/PROJECTS/Mol_Feturizer/New_Systems/rnas/5lwj

>  <Rbt.Executable>
rbdock ($Id: //depot/dev/client3/rdock/2013.1/src/exe/rbdock.cxx#4 $)

>  <Rbt.Library>
libRbt.so (2013.1, Build901 2013/11/27)

>  <Rbt.Parameter_File>
/export/apps/rDock/src/rDock_2013.1_src/data/scripts/dock_solv.prm

>  <Rbt.Receptor>
prm/pocket_docking_2.prm

>  <SCORE>
-48.1314

>  <SCORE.INTER>
-51.5489

>  <SCORE.INTER.CONST>
1

>  <SCORE.INTER.POLAR>
-6.38695

>  <SCORE.INTER.ROT>
8

>  <SCORE.INTER.SOLV>
18.5377

>  <SCORE.INTER.VDW>
-28.1887

>  <SCORE.INTER.norm>
-1.6109

>  <SCORE.INTRA>
2.20967

>  <SCORE.INTRA.DIHEDRAL>
5.24727

>  <SCORE.INTRA.DIHEDRAL.0>
10.9248

>  <SCORE.INTRA.POLAR>
0

>  <SCORE.INTRA.POLAR.0>
0

>  <SCORE.INTRA.REPUL>
0.000554426

>  <SCORE.INTRA.REPUL.0>
0

>  <SCORE.INTRA.SOLV>
-0.159909

>  <SCORE.INTRA.SOLV.lig_0>
-51.4104

>  <SCORE.INTRA.VDW>
-0.336785

>  <SCORE.INTRA.VDW.0>
0.110327

>  <SCORE.INTRA.norm>
0.069052

>  <SCORE.RESTR>
1.20784

>  <SCORE.RESTR.CAVITY>
1.20784

>  <SCORE.RESTR.norm>
0.0377451

>  <SCORE.SYSTEM>
0

>  <SCORE.SYSTEM.CONST>
0

>  <SCORE.SYSTEM.DIHEDRAL>
0

>  <SCORE.SYSTEM.SOLV>
0

>  <SCORE.SYSTEM.norm>
0

>  <SCORE.heavy>
32

>  <SCORE.norm>
-1.50411

>  <RMSD>
1.257

$$$$
lig.pdb
 OpenBabel11021811523D
libRbt.so/2013.1/901 2013/11/27
 32 34  0  0  0  0  0  0  0  0999 V2000
    6.9025   21.6792    2.1688 P   0  0  0  0  0  0  0  0  0  0  0  0
    8.2037   21.9689    2.8767 O   0  0  0  0  0  0  0  0  0  0  0  0
    5.7979   21.8421    3.3460 O   0  0  0  0  0  0  0  0  0  0  0  0
    6.4274   22.6463    1.1132 O   0  0  0  0  0  0  0  0  0  0  0  0
    7.0852   20.4077    1.4961 O   0  0  0  0  0  0  0  0  0  0  0  0
    5.7858   19.7004    1.4141 P   0  0  1  0  0  0  0  0  0  0  0  0
    5.3909   19.2999    2.7851 O   0  0  0  0  0  0  0  0  0  0  0  0
    4.7509   20.6025    0.8574 O   0  0  0  0  0  0  0  0  0  0  0  0
    5.9287   18.5039    0.5471 O   0  0  0  0  0  0  0  0  0  0  0  0
    4.8055   17.5749    0.2785 P   0  0  1  0  0  0  0  0  0  0  0  0
    3.9205   17.9774   -0.8335 O   0  0  0  0  0  0  0  0  0  0  0  0
    5.1594   16.1381    0.3031 O   0  0  0  0  0  0  0  0  0  0  0  0
    3.8533   17.7832    1.5703 O   0  0  0  0  0  0  0  0  0  0  0  0
    2.5650   17.2052    1.6636 C   0  0  0  0  0  0  0  0  0  0  0  0
    2.5925   15.6768    1.5237 C   0  0  1  0  0  0  0  0  0  0  0  0
    1.8547   15.0754    2.5679 O   0  0  0  0  0  0  0  0  0  0  0  0
    1.8463   15.1538    0.2837 C   0  0  1  0  0  0  0  0  0  0  0  0
    2.5391   15.2875   -0.9460 O   0  0  0  0  0  0  0  0  0  0  0  0
    1.5491   13.6973    0.6392 C   0  0  1  0  0  0  0  0  0  0  0  0
    2.5722   12.8205    0.2013 O   0  0  0  0  0  0  0  0  0  0  0  0
    1.5674   13.7479    2.1658 C   0  0  2  0  0  0  0  0  0  0  0  0
    0.3507   13.2360    2.8319 N   0  0  0  0  0  0  0  0  0  0  0  0
   -0.9756   13.4478    2.5516 C   0  0  0  0  0  0  0  0  0  0  0  0
   -1.7956   12.9106    3.4175 N   0  0  0  0  0  0  0  0  0  0  0  0
   -0.9580   12.2733    4.3280 C   0  0  0  0  0  0  0  0  0  0  0  0
   -1.2579   11.5454    5.5239 C   0  0  0  0  0  0  0  0  0  0  0  0
   -2.3609   11.3585    6.0337 O   0  0  0  0  0  0  0  0  0  0  0  0
   -0.1137   11.0265    6.1446 N   0  0  0  0  0  0  0  0  0  0  0  0
    1.1693   11.1693    5.6380 C   0  0  0  0  0  0  0  0  0  0  0  0
    2.1673   10.5371    6.2657 N   0  0  0  0  0  0  0  0  0  0  0  0
    1.4506   11.8936    4.5425 N   0  0  0  0  0  0  0  0  0  0  0  0
    0.3519   12.4233    3.9385 C   0  0  0  0  0  0  0  0  0  0  0  0
  1  2  2  0  0  0  0
  1  4  1  0  0  0  0
  1  3  1  0  0  0  0
  5  1  1  0  0  0  0
  6  7  2  1  0  0  0
  6  9  1  0  0  0  0
  6  5  1  0  0  0  0
  6  8  1  0  0  0  0
 10 11  2  6  0  0  0
 10 12  1  0  0  0  0
 10 13  1  0  0  0  0
 10  9  1  0  0  0  0
 13 14  1  0  0  0  0
 15 14  1  1  0  0  0
 15 16  1  0  0  0  0
 17 19  1  0  0  0  0
 17 15  1  0  0  0  0
 17 18  1  6  0  0  0
 19 21  1  0  0  0  0
 19 20  1  6  0  0  0
 21 16  1  0  0  0  0
 21 22  1  1  0  0  0
 22 32  1  0  0  0  0
 23 22  1  0  0  0  0
 23 24  2  0  0  0  0
 24 25  1  0  0  0  0
 25 26  1  0  0  0  0
 26 27  2  0  0  0  0
 26 28  1  0  0  0  0
 29 28  1  0  0  0  0
 29 30  1  0  0  0  0
 31 29  2  0  0  0  0
 32 25  2  0  0  0  0
 32 31  1  0  0  0  0
M  END
>  <CHROM.1>
149.58286970,179.24643464,-68.40133157,172.11940522,85.24261866,57.63515822
130.69715863,-58.58027325,-134.47266409,79.67531815,3.22009360,16.35853679
2.24222837,-0.23142044,0.94565636,1.54503870

>  <Name>
lig.pdb

>  <RI>
3.03081e+07

>  <Rbt.Current_Directory>
/home/itssahil/PROJECTS/Mol_Feturizer/New_Systems/rnas/5lwj

>  <Rbt.Executable>
rbdock ($Id: //depot/dev/client3/rdock/2013.1/src/exe/rbdock.cxx#4 $)

>  <Rbt.Library>
libRbt.so (2013.1, Build901 2013/11/27)

>  <Rbt.Parameter_File>
/export/apps/rDock/src/rDock_2013.1_src/data/scripts/dock_solv.prm

>  <Rbt.Receptor>
prm/pocket_docking_2.prm

>  <SCORE>
-50.6722

>  <SCORE.INTER>
-49.5946

>  <SCORE.INTER.CONST>
1

>  <SCORE.INTER.POLAR>
-6.10561

>  <SCORE.INTER.ROT>
8

>  <SCORE.INTER.SOLV>
16.4008

>  <SCORE.INTER.VDW>
-27.1113

>  <SCORE.INTER.norm>
-1.54983

>  <SCORE.INTRA>
-1.16835

>  <SCORE.INTRA.DIHEDRAL>
5.06062

>  <SCORE.INTRA.DIHEDRAL.0>
10.9248

>  <SCORE.INTRA.POLAR>
-0.534105

>  <SCORE.INTRA.POLAR.0>
0

>  <SCORE.INTRA.REPUL>
0.00653827

>  <SCORE.INTRA.REPUL.0>
0

>  <SCORE.INTRA.SOLV>
0.965556

>  <SCORE.INTRA.SOLV.lig_0>
-51.4104

>  <SCORE.INTRA.VDW>
-2.39818

>  <SCORE.INTRA.VDW.0>
0.110327

>  <SCORE.INTRA.norm>
-0.0365111

>  <SCORE.RESTR>
0.0907804

>  <SCORE.RESTR.CAVITY>
0.0907804

>  <SCORE.RESTR.norm>
0.00283689

>  <SCORE.SYSTEM>
0

>  <SCORE.SYSTEM.CONST>
0

>  <SCORE.SYSTEM.DIHEDRAL>
0

>  <SCORE.SYSTEM.SOLV>
0

>  <SCORE.SYSTEM.norm>
0

>  <SCORE.heavy>
32

>  <SCORE.norm>
-1.58351

>  <RMSD>
1.296

$$$$
lig.pdb
 OpenBabel11021811523D
libRbt.so/2013.1/901 2013/11/27
 32 34  0  0  0  0  0  0  0  0999 V2000
    5.2972   20.7864    2.8314 P   0  0  0  0  0  0  0  0  0  0  0  0
    4.3106   21.1440    3.9161 O   0  0  0  0  0  0  0  0  0  0  0  0
    4.7147   21.5640    1.5319 O   0  0  0  0  0  0  0  0  0  0  0  0
    6.7082   21.3080    2.9422 O   0  0  0  0  0  0  0  0  0  0  0  0
    5.4011   19.3401    2.8434 O   0  0  0  0  0  0  0  0  0  0  0  0
    5.5485   18.8433    1.4552 P   0  0  1  0  0  0  0  0  0  0  0  0
    6.5894   19.6555    0.7823 O   0  0  0  0  0  0  0  0  0  0  0  0
    5.9748   17.4246    1.4662 O   0  0  0  0  0  0  0  0  0  0  0  0
    4.2519   18.9731    0.7441 O   0  0  0  0  0  0  0  0  0  0  0  0
    3.9465   18.2276   -0.5000 P   0  0  1  0  0  0  0  0  0  0  0  0
    3.3304   19.0361   -1.5718 O   0  0  0  0  0  0  0  0  0  0  0  0
    5.0069   17.2996   -0.9523 O   0  0  0  0  0  0  0  0  0  0  0  0
    2.7265   17.2650   -0.0489 O   0  0  0  0  0  0  0  0  0  0  0  0
    2.7866   16.4586    1.1125 C   0  0  0  0  0  0  0  0  0  0  0  0
    2.4137   14.9957    0.8349 C   0  0  1  0  0  0  0  0  0  0  0  0
    1.7812   14.4282    1.9638 O   0  0  0  0  0  0  0  0  0  0  0  0
    1.3260   14.8261   -0.2403 C   0  0  1  0  0  0  0  0  0  0  0  0
    1.7645   14.9776   -1.5801 O   0  0  0  0  0  0  0  0  0  0  0  0
    0.7636   13.4335    0.0435 C   0  0  1  0  0  0  0  0  0  0  0  0
    1.4319   12.4261   -0.6951 O   0  0  0  0  0  0  0  0  0  0  0  0
    1.1048   13.2644    1.5229 C   0  0  2  0  0  0  0  0  0  0  0  0
   -0.0373   12.9402    2.4041 N   0  0  0  0  0  0  0  0  0  0  0  0
   -1.3710   13.2374    2.2812 C   0  0  0  0  0  0  0  0  0  0  0  0
   -2.0946   12.8748    3.3086 N   0  0  0  0  0  0  0  0  0  0  0  0
   -1.1834   12.2697    4.1689 C   0  0  0  0  0  0  0  0  0  0  0  0
   -1.3602   11.7082    5.4741 C   0  0  0  0  0  0  0  0  0  0  0  0
   -2.3888   11.6781    6.1466 O   0  0  0  0  0  0  0  0  0  0  0  0
   -0.1794   11.1607    5.9936 N   0  0  0  0  0  0  0  0  0  0  0  0
    1.0241   11.1313    5.3053 C   0  0  0  0  0  0  0  0  0  0  0  0
    2.0532   10.4856    5.8653 N   0  0  0  0  0  0  0  0  0  0  0  0
    1.1967   11.7020    4.1018 N   0  0  0  0  0  0  0  0  0  0  0  0
    0.0641   12.2578    3.5912 C   0  0  0  0  0  0  0  0  0  0  0  0
  1  2  2  0  0  0  0
  1  4  1  0  0  0  0
  1  3  1  0  0  0  0
  5  1  1  0  0  0  0
  6  7  2  6  0  0  0
  6  9  1  0  0  0  0
  6  5  1  0  0  0  0
  6  8  1  0  0  0  0
 10 11  2  6  0  0  0
 10 12  1  0  0  0  0
 10 13  1  0  0  0  0
 10  9  1  0  0  0  0
 13 14  1  0  0  0  0
 15 14  1  1  0  0  0
 15 16  1  0  0  0  0
 17 19  1  0  0  0  0
 17 15  1  0  0  0  0
 17 18  1  6  0  0  0
 19 21  1  0  0  0  0
 19 20  1  6  0  0  0
 21 16  1  0  0  0  0
 21 22  1  1  0  0  0
 22 32  1  0  0  0  0
 23 22  1  0  0  0  0
 23 24  2  0  0  0  0
 24 25  1  0  0  0  0
 25 26  1  0  0  0  0
 26 27  2  0  0  0  0
 26 28  1  0  0  0  0
 29 28  1  0  0  0  0
 29 30  1  0  0  0  0
 31 29  2  0  0  0  0
 32 25  2  0  0  0  0
 32 31  1  0  0  0  0
M  END
>  <CHROM.1>
143.20142730,-161.89699942,47.59989408,-50.02146010,-134.25205411,-129.30839408
-147.73511428,60.31913961,59.98093943,96.30761374,2.66437810,16.04797419
1.95273067,-0.26593870,0.96113305,1.57246157

>  <Name>
lig.pdb

>  <RI>
3.03081e+07

>  <Rbt.Current_Directory>
/home/itssahil/PROJECTS/Mol_Feturizer/New_Systems/rnas/5lwj

>  <Rbt.Executable>
rbdock ($Id: //depot/dev/client3/rdock/2013.1/src/exe/rbdock.cxx#4 $)

>  <Rbt.Library>
libRbt.so (2013.1, Build901 2013/11/27)

>  <Rbt.Parameter_File>
/export/apps/rDock/src/rDock_2013.1_src/data/scripts/dock_solv.prm

>  <Rbt.Receptor>
prm/pocket_docking_2.prm

>  <SCORE>
-46.4812

>  <SCORE.INTER>
-48.1642

>  <SCORE.INTER.CONST>
1

>  <SCORE.INTER.POLAR>
-5.84283

>  <SCORE.INTER.ROT>
8

>  <SCORE.INTER.SOLV>
18.1971

>  <SCORE.INTER.VDW>
-27.6324

>  <SCORE.INTER.norm>
-1.50513

>  <SCORE.INTRA>
0.777955

>  <SCORE.INTRA.DIHEDRAL>
6.21883

>  <SCORE.INTRA.DIHEDRAL.0>
10.9248

>  <SCORE.INTRA.POLAR>
0

>  <SCORE.INTRA.POLAR.0>
0

>  <SCORE.INTRA.REPUL>
0

>  <SCORE.INTRA.REPUL.0>
0

>  <SCORE.INTRA.SOLV>
-0.251252

>  <SCORE.INTRA.SOLV.lig_0>
-51.4104

>  <SCORE.INTRA.VDW>
-2.20583

>  <SCORE.INTRA.VDW.0>
0.110327

>  <SCORE.INTRA.norm>
0.0243111

>  <SCORE.RESTR>
0.905054

>  <SCORE.RESTR.CAVITY>
0.905054

>  <SCORE.RESTR.norm>
0.0282829

>  <SCORE.SYSTEM>
0

>  <SCORE.SYSTEM.CONST>
0

>  <SCORE.SYSTEM.DIHEDRAL>
0

>  <SCORE.SYSTEM.SOLV>
0

>  <SCORE.SYSTEM.norm>
0

>  <SCORE.heavy>
32

>  <SCORE.norm>
-1.45254

>  <RMSD>
1.307

$$$$
lig.pdb
 OpenBabel11021811523D
libRbt.so/2013.1/901 2013/11/27
 32 34  0  0  0  0  0  0  0  0999 V2000
    7.2659   21.4930    3.4078 P   0  0  0  0  0  0  0  0  0  0  0  0
    8.4343   21.1556    2.5139 O   0  0  0  0  0  0  0  0  0  0  0  0
    7.9756   22.1507    4.7102 O   0  0  0  0  0  0  0  0  0  0  0  0
    6.3043   22.5655    2.9602 O   0  0  0  0  0  0  0  0  0  0  0  0
    6.4852   20.2767    3.5253 O   0  0  0  0  0  0  0  0  0  0  0  0
    6.1616   19.7642    2.1732 P   0  0  1  0  0  0  0  0  0  0  0  0
    5.6781   20.8995    1.3527 O   0  0  0  0  0  0  0  0  0  0  0  0
    7.3749   19.1945    1.5424 O   0  0  0  0  0  0  0  0  0  0  0  0
    5.1124   18.7195    2.2793 O   0  0  0  0  0  0  0  0  0  0  0  0
    4.6364   17.9454    1.1083 P   0  0  1  0  0  0  0  0  0  0  0  0
    3.8982   18.7351    0.1017 O   0  0  0  0  0  0  0  0  0  0  0  0
    5.6149   16.9854    0.5504 O   0  0  0  0  0  0  0  0  0  0  0  0
    3.4713   17.0188    1.7426 O   0  0  0  0  0  0  0  0  0  0  0  0
    2.2750   16.7228    1.0469 C   0  0  0  0  0  0  0  0  0  0  0  0
    2.0760   15.2163    0.8298 C   0  0  1  0  0  0  0  0  0  0  0  0
    1.4903   14.6291    1.9736 O   0  0  0  0  0  0  0  0  0  0  0  0
    1.0359   14.8776   -0.2524 C   0  0  1  0  0  0  0  0  0  0  0  0
    1.4803   15.0207   -1.5912 O   0  0  0  0  0  0  0  0  0  0  0  0
    0.6298   13.4433    0.0853 C   0  0  1  0  0  0  0  0  0  0  0  0
    1.4225   12.4882   -0.5978 O   0  0  0  0  0  0  0  0  0  0  0  0
    0.9592   13.3778    1.5755 C   0  0  2  0  0  0  0  0  0  0  0  0
   -0.1556   12.9631    2.4536 N   0  0  0  0  0  0  0  0  0  0  0  0
   -1.5097   13.1388    2.3192 C   0  0  0  0  0  0  0  0  0  0  0  0
   -2.2053   12.7249    3.3466 N   0  0  0  0  0  0  0  0  0  0  0  0
   -1.2499   12.2134    4.2196 C   0  0  0  0  0  0  0  0  0  0  0  0
   -1.3851   11.6535    5.5303 C   0  0  0  0  0  0  0  0  0  0  0  0
   -2.4117   11.5395    6.1970 O   0  0  0  0  0  0  0  0  0  0  0  0
   -0.1639   11.2195    6.0635 N   0  0  0  0  0  0  0  0  0  0  0  0
    1.0422   11.2896    5.3829 C   0  0  0  0  0  0  0  0  0  0  0  0
    2.1208   10.7448    5.9568 N   0  0  0  0  0  0  0  0  0  0  0  0
    1.1717   11.8595    4.1736 N   0  0  0  0  0  0  0  0  0  0  0  0
   -0.0023   12.3063    3.6496 C   0  0  0  0  0  0  0  0  0  0  0  0
  1  2  2  0  0  0  0
  1  4  1  0  0  0  0
  1  3  1  0  0  0  0
  5  1  1  0  0  0  0
  6  7  2  6  0  0  0
  6  9  1  0  0  0  0
  6  5  1  0  0  0  0
  6  8  1  0  0  0  0
 10 11  2  6  0  0  0
 10 12  1  0  0  0  0
 10 13  1  0  0  0  0
 10  9  1  0  0  0  0
 13 14  1  0  0  0  0
 15 14  1  1  0  0  0
 15 16  1  0  0  0  0
 17 19  1  0  0  0  0
 17 15  1  0  0  0  0
 17 18  1  6  0  0  0
 19 21  1  0  0  0  0
 19 20  1  6  0  0  0
 21 16  1  0  0  0  0
 21 22  1  1  0  0  0
 22 32  1  0  0  0  0
 23 22  1  0  0  0  0
 23 24  2  0  0  0  0
 24 25  1  0  0  0  0
 25 26  1  0  0  0  0
 26 27  2  0  0  0  0
 26 28  1  0  0  0  0
 29 28  1  0  0  0  0
 29 30  1  0  0  0  0
 31 29  2  0  0  0  0
 32 25  2  0  0  0  0
 32 31  1  0  0  0  0
M  END
>  <CHROM.1>
-53.30885281,-175.73590843,-46.56711171,142.21196199,-67.11690734,120.35521023
83.76666959,-58.43046263,60.48190502,93.90193880,3.14136178,16.30893147,2.44326384
-0.22859889,0.86225828,1.73405385

>  <Name>
lig.pdb

>  <RI>
3.03081e+07

>  <Rbt.Current_Directory>
/home/itssahil/PROJECTS/Mol_Feturizer/New_Systems/rnas/5lwj

>  <Rbt.Executable>
rbdock ($Id: //depot/dev/client3/rdock/2013.1/src/exe/rbdock.cxx#4 $)

>  <Rbt.Library>
libRbt.so (2013.1, Build901 2013/11/27)

>  <Rbt.Parameter_File>
/export/apps/rDock/src/rDock_2013.1_src/data/scripts/dock_solv.prm

>  <Rbt.Receptor>
prm/pocket_docking_2.prm

>  <SCORE>
-46.196

>  <SCORE.INTER>
-49.4935

>  <SCORE.INTER.CONST>
1

>  <SCORE.INTER.POLAR>
-5.68667

>  <SCORE.INTER.ROT>
8

>  <SCORE.INTER.SOLV>
18.287

>  <SCORE.INTER.VDW>
-29.0691

>  <SCORE.INTER.norm>
-1.54667

>  <SCORE.INTRA>
2.33234

>  <SCORE.INTRA.DIHEDRAL>
3.1048

>  <SCORE.INTRA.DIHEDRAL.0>
10.9248

>  <SCORE.INTRA.POLAR>
0

>  <SCORE.INTRA.POLAR.0>
0

>  <SCORE.INTRA.REPUL>
0

>  <SCORE.INTRA.REPUL.0>
0

>  <SCORE.INTRA.SOLV>
-0.81357

>  <SCORE.INTRA.SOLV.lig_0>
-51.4104

>  <SCORE.INTRA.VDW>
1.18673

>  <SCORE.INTRA.VDW.0>
0.110327

>  <SCORE.INTRA.norm>
0.0728857

>  <SCORE.RESTR>
0.96507

>  <SCORE.RESTR.CAVITY>
0.96507

>  <SCORE.RESTR.norm>
0.0301584

>  <SCORE.SYSTEM>
0

>  <SCORE.SYSTEM.CONST>
0

>  <SCORE.SYSTEM.DIHEDRAL>
0

>  <SCORE.SYSTEM.SOLV>
0

>  <SCORE.SYSTEM.norm>
0

>  <SCORE.heavy>
32

>  <SCORE.norm>
-1.44363

>  <RMSD>
1.332

$$$$
lig.pdb
 OpenBabel11021811523D
libRbt.so/2013.1/901 2013/11/27
 32 34  0  0  0  0  0  0  0  0999 V2000
    6.8027   20.3580    3.1271 P   0  0  0  0  0  0  0  0  0  0  0  0
    7.8922   20.9034    4.0179 O   0  0  0  0  0  0  0  0  0  0  0  0
    7.6013   19.3381    2.1499 O   0  0  0  0  0  0  0  0  0  0  0  0
    5.7396   19.4838    3.7441 O   0  0  0  0  0  0  0  0  0  0  0  0
    6.1105   21.5117    2.5862 O   0  0  0  0  0  0  0  0  0  0  0  0
    5.5008   21.1566    1.2833 P   0  0  1  0  0  0  0  0  0  0  0  0
    4.3511   22.0618    1.0496 O   0  0  0  0  0  0  0  0  0  0  0  0
    6.4883   21.3388    0.1941 O   0  0  0  0  0  0  0  0  0  0  0  0
    5.0470   19.7436    1.3192 O   0  0  0  0  0  0  0  0  0  0  0  0
    4.3174   19.1114    0.1945 P   0  0  1  0  0  0  0  0  0  0  0  0
    2.8971   19.5008    0.0801 O   0  0  0  0  0  0  0  0  0  0  0  0
    5.0556   19.0677   -1.0873 O   0  0  0  0  0  0  0  0  0  0  0  0
    4.2151   17.5649    0.6598 O   0  0  0  0  0  0  0  0  0  0  0  0
    3.1530   17.0830    1.4613 C   0  0  0  0  0  0  0  0  0  0  0  0
    3.0053   15.5568    1.3897 C   0  0  1  0  0  0  0  0  0  0  0  0
    2.2477   15.0855    2.4853 O   0  0  0  0  0  0  0  0  0  0  0  0
    2.1567   15.0708    0.2016 C   0  0  1  0  0  0  0  0  0  0  0  0
    2.8102   15.0754   -1.0566 O   0  0  0  0  0  0  0  0  0  0  0  0
    1.7143   13.6727    0.6327 C   0  0  1  0  0  0  0  0  0  0  0  0
    2.6154   12.6693    0.1990 O   0  0  0  0  0  0  0  0  0  0  0  0
    1.7992   13.7834    2.1539 C   0  0  2  0  0  0  0  0  0  0  0  0
    0.5609   13.4393    2.8848 N   0  0  0  0  0  0  0  0  0  0  0  0
   -0.7340   13.8476    2.6873 C   0  0  0  0  0  0  0  0  0  0  0  0
   -1.5727   13.4164    3.5936 N   0  0  0  0  0  0  0  0  0  0  0  0
   -0.7866   12.6444    4.4437 C   0  0  0  0  0  0  0  0  0  0  0  0
   -1.1208   11.9418    5.6457 C   0  0  0  0  0  0  0  0  0  0  0  0
   -2.2081   11.9060    6.2181 O   0  0  0  0  0  0  0  0  0  0  0  0
   -0.0311   11.2486    6.1896 N   0  0  0  0  0  0  0  0  0  0  0  0
    1.2278   11.2145    5.6090 C   0  0  0  0  0  0  0  0  0  0  0  0
    2.1568   10.4304    6.1673 N   0  0  0  0  0  0  0  0  0  0  0  0
    1.5487   11.9141    4.5083 N   0  0  0  0  0  0  0  0  0  0  0  0
    0.5066   12.6109    3.9784 C   0  0  0  0  0  0  0  0  0  0  0  0
  1  2  2  0  0  0  0
  1  4  1  0  0  0  0
  1  3  1  0  0  0  0
  5  1  1  0  0  0  0
  6  7  2  6  0  0  0
  6  9  1  0  0  0  0
  6  5  1  0  0  0  0
  6  8  1  0  0  0  0
 10 11  2  6  0  0  0
 10 12  1  0  0  0  0
 10 13  1  0  0  0  0
 10  9  1  0  0  0  0
 13 14  1  0  0  0  0
 15 14  1  1  0  0  0
 15 16  1  0  0  0  0
 17 19  1  0  0  0  0
 17 15  1  0  0  0  0
 17 18  1  6  0  0  0
 19 21  1  0  0  0  0
 19 20  1  6  0  0  0
 21 16  1  0  0  0  0
 21 22  1  1  0  0  0
 22 32  1  0  0  0  0
 23 22  1  0  0  0  0
 23 24  2  0  0  0  0
 24 25  1  0  0  0  0
 25 26  1  0  0  0  0
 26 27  2  0  0  0  0
 26 28  1  0  0  0  0
 29 28  1  0  0  0  0
 29 30  1  0  0  0  0
 31 29  2  0  0  0  0
 32 25  2  0  0  0  0
 32 31  1  0  0  0  0
M  END
>  <CHROM.1>
153.43806682,176.07505658,154.91363872,87.69142609,-76.02996502,160.97570356
161.64456871,-55.45385440,-62.97384219,75.49328262,3.24003943,16.61566537
2.30625744,-0.50478653,0.90074692,1.85934856

>  <Name>
lig.pdb

>  <RI>
3.03081e+07

>  <Rbt.Current_Directory>
/home/itssahil/PROJECTS/Mol_Feturizer/New_Systems/rnas/5lwj

>  <Rbt.Executable>
rbdock ($Id: //depot/dev/client3/rdock/2013.1/src/exe/rbdock.cxx#4 $)

>  <Rbt.Library>
libRbt.so (2013.1, Build901 2013/11/27)

>  <Rbt.Parameter_File>
/export/apps/rDock/src/rDock_2013.1_src/data/scripts/dock_solv.prm

>  <Rbt.Receptor>
prm/pocket_docking_2.prm

>  <SCORE>
-51.8493

>  <SCORE.INTER>
-49.6532

>  <SCORE.INTER.CONST>
1

>  <SCORE.INTER.POLAR>
-6.48784

>  <SCORE.INTER.ROT>
8

>  <SCORE.INTER.SOLV>
16.5939

>  <SCORE.INTER.VDW>
-25.9407

>  <SCORE.INTER.norm>
-1.55166

>  <SCORE.INTRA>
-3.6554

>  <SCORE.INTRA.DIHEDRAL>
-2.31422

>  <SCORE.INTRA.DIHEDRAL.0>
10.9248

>  <SCORE.INTRA.POLAR>
0

>  <SCORE.INTRA.POLAR.0>
0

>  <SCORE.INTRA.REPUL>
0

>  <SCORE.INTRA.REPUL.0>
0

>  <SCORE.INTRA.SOLV>
-0.581476

>  <SCORE.INTRA.SOLV.lig_0>
-51.4104

>  <SCORE.INTRA.VDW>
-2.20755

>  <SCORE.INTRA.VDW.0>
0.110327

>  <SCORE.INTRA.norm>
-0.114231

>  <SCORE.RESTR>
1.4593

>  <SCORE.RESTR.CAVITY>
1.4593

>  <SCORE.RESTR.norm>
0.0456032

>  <SCORE.SYSTEM>
0

>  <SCORE.SYSTEM.CONST>
0

>  <SCORE.SYSTEM.DIHEDRAL>
0

>  <SCORE.SYSTEM.SOLV>
0

>  <SCORE.SYSTEM.norm>
0

>  <SCORE.heavy>
32

>  <SCORE.norm>
-1.62029

>  <RMSD>
1.377

$$$$
lig.pdb
 OpenBabel11021811523D
libRbt.so/2013.1/901 2013/11/27
 32 34  0  0  0  0  0  0  0  0999 V2000
    7.0819   22.4466    1.8805 P   0  0  0  0  0  0  0  0  0  0  0  0
    7.0437   23.6983    1.0380 O   0  0  0  0  0  0  0  0  0  0  0  0
    8.6706   22.1847    2.0802 O   0  0  0  0  0  0  0  0  0  0  0  0
    6.5629   22.5159    3.2951 O   0  0  0  0  0  0  0  0  0  0  0  0
    6.2520   21.4751    1.1949 O   0  0  0  0  0  0  0  0  0  0  0  0
    6.8165   20.1187    1.3878 P   0  0  1  0  0  0  0  0  0  0  0  0
    8.1028   20.0457    0.6557 O   0  0  0  0  0  0  0  0  0  0  0  0
    7.0653   19.8723    2.8273 O   0  0  0  0  0  0  0  0  0  0  0  0
    5.8645   19.1084    0.8620 O   0  0  0  0  0  0  0  0  0  0  0  0
    4.4380   19.0722    1.2626 P   0  0  1  0  0  0  0  0  0  0  0  0
    4.1781   19.4555    2.6652 O   0  0  0  0  0  0  0  0  0  0  0  0
    3.4941   19.6439    0.2765 O   0  0  0  0  0  0  0  0  0  0  0  0
    4.1097   17.4876    1.2711 O   0  0  0  0  0  0  0  0  0  0  0  0
    2.7881   16.9877    1.3488 C   0  0  0  0  0  0  0  0  0  0  0  0
    2.7325   15.4549    1.2862 C   0  0  1  0  0  0  0  0  0  0  0  0
    1.9909   14.9462    2.3759 O   0  0  0  0  0  0  0  0  0  0  0  0
    1.9292   14.9116    0.0915 C   0  0  1  0  0  0  0  0  0  0  0  0
    2.5968   14.9471   -1.1588 O   0  0  0  0  0  0  0  0  0  0  0  0
    1.5656   13.4923    0.5271 C   0  0  1  0  0  0  0  0  0  0  0  0
    2.5303   12.5417    0.1114 O   0  0  0  0  0  0  0  0  0  0  0  0
    1.6249   13.6175    2.0484 C   0  0  2  0  0  0  0  0  0  0  0  0
    0.4004   13.2048    2.7668 N   0  0  0  0  0  0  0  0  0  0  0  0
   -0.9170   13.5062    2.5300 C   0  0  0  0  0  0  0  0  0  0  0  0
   -1.7405   13.0431    3.4345 N   0  0  0  0  0  0  0  0  0  0  0  0
   -0.9172   12.3624    4.3264 C   0  0  0  0  0  0  0  0  0  0  0  0
   -1.2237   11.6773    5.5457 C   0  0  0  0  0  0  0  0  0  0  0  0
   -2.3175   11.5779    6.0978 O   0  0  0  0  0  0  0  0  0  0  0  0
   -0.0969   11.0880    6.1349 N   0  0  0  0  0  0  0  0  0  0  0  0
    1.1734   11.1305    5.5803 C   0  0  0  0  0  0  0  0  0  0  0  0
    2.1465   10.4389    6.1839 N   0  0  0  0  0  0  0  0  0  0  0  0
    1.4647   11.8150    4.4621 N   0  0  0  0  0  0  0  0  0  0  0  0
    0.3848   12.4120    3.8878 C   0  0  0  0  0  0  0  0  0  0  0  0
  1  2  2  0  0  0  0
  1  4  1  0  0  0  0
  1  3  1  0  0  0  0
  5  1  1  0  0  0  0
  6  7  2  6  0  0  0
  6  9  1  0  0  0  0
  6  5  1  0  0  0  0
  6  8  1  0  0  0  0
 10 11  2  1  0  0  0
 10 12  1  0  0  0  0
 10 13  1  0  0  0  0
 10  9  1  0  0  0  0
 13 14  1  0  0  0  0
 15 14  1  1  0  0  0
 15 16  1  0  0  0  0
 17 19  1  0  0  0  0
 17 15  1  0  0  0  0
 17 18  1  6  0  0  0
 19 21  1  0  0  0  0
 19 20  1  6  0  0  0
 21 16  1  0  0  0  0
 21 22  1  1  0  0  0
 22 32  1  0  0  0  0
 23 22  1  0  0  0  0
 23 24  2  0  0  0  0
 24 25  1  0  0  0  0
 25 26  1  0  0  0  0
 26 27  2  0  0  0  0
 26 28  1  0  0  0  0
 29 28  1  0  0  0  0
 29 30  1  0  0  0  0
 31 29  2  0  0  0  0
 32 25  2  0  0  0  0
 32 31  1  0  0  0  0
M  END
>  <CHROM.1>
145.77721195,-52.11513654,-68.09731739,-167.51721987,-35.09537069,177.79437616
127.43952091,176.74360456,-65.23539756,77.40576332,3.44499390,16.73507104
2.29723521,-0.25901213,0.93822035,1.62247410

>  <Name>
lig.pdb

>  <RI>
3.03081e+07

>  <Rbt.Current_Directory>
/home/itssahil/PROJECTS/Mol_Feturizer/New_Systems/rnas/5lwj

>  <Rbt.Executable>
rbdock ($Id: //depot/dev/client3/rdock/2013.1/src/exe/rbdock.cxx#4 $)

>  <Rbt.Library>
libRbt.so (2013.1, Build901 2013/11/27)

>  <Rbt.Parameter_File>
/export/apps/rDock/src/rDock_2013.1_src/data/scripts/dock_solv.prm

>  <Rbt.Receptor>
prm/pocket_docking_2.prm

>  <SCORE>
-52.0212

>  <SCORE.INTER>
-49.0257

>  <SCORE.INTER.CONST>
1

>  <SCORE.INTER.POLAR>
-6.36464

>  <SCORE.INTER.ROT>
8

>  <SCORE.INTER.SOLV>
16.8806

>  <SCORE.INTER.VDW>
-26.0285

>  <SCORE.INTER.norm>
-1.53205

>  <SCORE.INTRA>
-3.46371

>  <SCORE.INTRA.DIHEDRAL>
0.122006

>  <SCORE.INTRA.DIHEDRAL.0>
10.9248

>  <SCORE.INTRA.POLAR>
0

>  <SCORE.INTRA.POLAR.0>
0

>  <SCORE.INTRA.REPUL>
0

>  <SCORE.INTRA.REPUL.0>
0

>  <SCORE.INTRA.SOLV>
-1.17898

>  <SCORE.INTRA.SOLV.lig_0>
-51.4104

>  <SCORE.INTRA.VDW>
-2.93522

>  <SCORE.INTRA.VDW.0>
0.110327

>  <SCORE.INTRA.norm>
-0.108241

>  <SCORE.RESTR>
0.46822

>  <SCORE.RESTR.CAVITY>
0.46822

>  <SCORE.RESTR.norm>
0.0146319

>  <SCORE.SYSTEM>
0

>  <SCORE.SYSTEM.CONST>
0

>  <SCORE.SYSTEM.DIHEDRAL>
0

>  <SCORE.SYSTEM.SOLV>
0

>  <SCORE.SYSTEM.norm>
0

>  <SCORE.heavy>
32

>  <SCORE.norm>
-1.62566

>  <RMSD>
1.422

$$$$
lig.pdb
 OpenBabel11021811523D
libRbt.so/2013.1/901 2013/11/27
 32 34  0  0  0  0  0  0  0  0999 V2000
    7.4433   20.6112    2.8538 P   0  0  0  0  0  0  0  0  0  0  0  0
    6.7839   21.0913    4.1238 O   0  0  0  0  0  0  0  0  0  0  0  0
    7.7059   21.9855    2.0322 O   0  0  0  0  0  0  0  0  0  0  0  0
    8.8172   19.9956    2.9452 O   0  0  0  0  0  0  0  0  0  0  0  0
    6.5762   19.5811    2.3154 O   0  0  0  0  0  0  0  0  0  0  0  0
    6.1549   19.9559    0.9452 P   0  0  1  0  0  0  0  0  0  0  0  0
    5.3582   21.2024    1.0319 O   0  0  0  0  0  0  0  0  0  0  0  0
    7.3447   20.2011    0.0973 O   0  0  0  0  0  0  0  0  0  0  0  0
    5.3394   18.8609    0.3625 O   0  0  0  0  0  0  0  0  0  0  0  0
    4.4427   18.0115    1.1818 P   0  0  1  0  0  0  0  0  0  0  0  0
    4.8344   16.5894    1.2578 O   0  0  0  0  0  0  0  0  0  0  0  0
    4.0137   18.6080    2.4665 O   0  0  0  0  0  0  0  0  0  0  0  0
    3.0943   17.9511    0.2891 O   0  0  0  0  0  0  0  0  0  0  0  0
    1.9410   17.2441    0.7047 C   0  0  0  0  0  0  0  0  0  0  0  0
    2.2098   15.7471    0.9123 C   0  0  1  0  0  0  0  0  0  0  0  0
    1.5147   15.2772    2.0492 O   0  0  0  0  0  0  0  0  0  0  0  0
    1.6236   14.8523   -0.1939 C   0  0  1  0  0  0  0  0  0  0  0  0
    2.3561   14.8244   -1.4074 O   0  0  0  0  0  0  0  0  0  0  0  0
    1.5329   13.4802    0.4734 C   0  0  1  0  0  0  0  0  0  0  0  0
    2.7011   12.7061    0.2652 O   0  0  0  0  0  0  0  0  0  0  0  0
    1.4570   13.8653    1.9497 C   0  0  2  0  0  0  0  0  0  0  0  0
    0.2972   13.3215    2.6880 N   0  0  0  0  0  0  0  0  0  0  0  0
   -1.0427   13.3569    2.3952 C   0  0  0  0  0  0  0  0  0  0  0  0
   -1.8062   12.8551    3.3312 N   0  0  0  0  0  0  0  0  0  0  0  0
   -0.9108   12.4317    4.3088 C   0  0  0  0  0  0  0  0  0  0  0  0
   -1.1385   11.8385    5.5919 C   0  0  0  0  0  0  0  0  0  0  0  0
   -2.2182   11.6065    6.1320 O   0  0  0  0  0  0  0  0  0  0  0  0
    0.0508   11.5257    6.2638 N   0  0  0  0  0  0  0  0  0  0  0  0
    1.3141   11.7332    5.7308 C   0  0  0  0  0  0  0  0  0  0  0  0
    2.3697   11.2946    6.4258 N   0  0  0  0  0  0  0  0  0  0  0  0
    1.5233   12.3339    4.5480 N   0  0  0  0  0  0  0  0  0  0  0  0
    0.3781   12.6642    3.8907 C   0  0  0  0  0  0  0  0  0  0  0  0
  1  2  2  0  0  0  0
  1  4  1  0  0  0  0
  1  3  1  0  0  0  0
  5  1  1  0  0  0  0
  6  7  2  1  0  0  0
  6  9  1  0  0  0  0
  6  5  1  0  0  0  0
  6  8  1  0  0  0  0
 10 11  2  1  0  0  0
 10 12  1  0  0  0  0
 10 13  1  0  0  0  0
 10  9  1  0  0  0  0
 13 14  1  0  0  0  0
 15 14  1  6  0  0  0
 15 16  1  0  0  0  0
 17 19  1  0  0  0  0
 17 15  1  0  0  0  0
 17 18  1  6  0  0  0
 19 21  1  0  0  0  0
 19 20  1  1  0  0  0
 21 16  1  0  0  0  0
 21 22  1  6  0  0  0
 22 32  1  0  0  0  0
 23 22  1  0  0  0  0
 23 24  2  0  0  0  0
 24 25  1  0  0  0  0
 25 26  1  0  0  0  0
 26 27  2  0  0  0  0
 26 28  1  0  0  0  0
 29 28  1  0  0  0  0
 29 30  1  0  0  0  0
 31 29  2  0  0  0  0
 32 25  2  0  0  0  0
 32 31  1  0  0  0  0
M  END
>  <CHROM.1>
122.07114370,33.47129871,-63.35256883,-179.22839785,-114.60497118,-59.98230347
140.69387400,59.92995478,45.47570557,72.98875647,3.33407793,16.36769354,2.31094910
-0.41268578,0.81342175,1.82408287

>  <Name>
lig.pdb

>  <RI>
3.03081e+07

>  <Rbt.Current_Directory>
/home/itssahil/PROJECTS/Mol_Feturizer/New_Systems/rnas/5lwj

>  <Rbt.Executable>
rbdock ($Id: //depot/dev/client3/rdock/2013.1/src/exe/rbdock.cxx#4 $)

>  <Rbt.Library>
libRbt.so (2013.1, Build901 2013/11/27)

>  <Rbt.Parameter_File>
/export/apps/rDock/src/rDock_2013.1_src/data/scripts/dock_solv.prm

>  <Rbt.Receptor>
prm/pocket_docking_2.prm

>  <SCORE>
-49.4517

>  <SCORE.INTER>
-48.3007

>  <SCORE.INTER.CONST>
1

>  <SCORE.INTER.POLAR>
-5.93287

>  <SCORE.INTER.ROT>
8

>  <SCORE.INTER.SOLV>
17.1362

>  <SCORE.INTER.VDW>
-27.0697

>  <SCORE.INTER.norm>
-1.5094

>  <SCORE.INTRA>
-1.17769

>  <SCORE.INTRA.DIHEDRAL>
1.82123

>  <SCORE.INTRA.DIHEDRAL.0>
10.9248

>  <SCORE.INTRA.POLAR>
0

>  <SCORE.INTRA.POLAR.0>
0

>  <SCORE.INTRA.REPUL>
0

>  <SCORE.INTRA.REPUL.0>
0

>  <SCORE.INTRA.SOLV>
0.161828

>  <SCORE.INTRA.SOLV.lig_0>
-51.4104

>  <SCORE.INTRA.VDW>
-2.16922

>  <SCORE.INTRA.VDW.0>
0.110327

>  <SCORE.INTRA.norm>
-0.0368028

>  <SCORE.RESTR>
0.0267575

>  <SCORE.RESTR.CAVITY>
0.0267575

>  <SCORE.RESTR.norm>
0.000836173

>  <SCORE.SYSTEM>
0

>  <SCORE.SYSTEM.CONST>
0

>  <SCORE.SYSTEM.DIHEDRAL>
0

>  <SCORE.SYSTEM.SOLV>
0

>  <SCORE.SYSTEM.norm>
0

>  <SCORE.heavy>
32

>  <SCORE.norm>
-1.54536

>  <RMSD>
1.430

$$$$
lig.pdb
 OpenBabel11021811523D
libRbt.so/2013.1/901 2013/11/27
 32 34  0  0  0  0  0  0  0  0999 V2000
    7.3286   20.8740    1.8077 P   0  0  0  0  0  0  0  0  0  0  0  0
    8.0988   19.9903    0.8569 O   0  0  0  0  0  0  0  0  0  0  0  0
    8.4993   21.6421    2.6276 O   0  0  0  0  0  0  0  0  0  0  0  0
    6.5093   22.0038    1.2356 O   0  0  0  0  0  0  0  0  0  0  0  0
    6.3919   20.0056    2.4942 O   0  0  0  0  0  0  0  0  0  0  0  0
    5.5977   19.2491    1.4979 P   0  0  1  0  0  0  0  0  0  0  0  0
    5.1721   20.1906    0.4356 O   0  0  0  0  0  0  0  0  0  0  0  0
    6.4269   18.1809    0.8928 O   0  0  0  0  0  0  0  0  0  0  0  0
    4.4132   18.6502    2.1626 O   0  0  0  0  0  0  0  0  0  0  0  0
    3.1657   18.3275    1.4300 P   0  0  1  0  0  0  0  0  0  0  0  0
    1.9681   19.0572    1.8936 O   0  0  0  0  0  0  0  0  0  0  0  0
    3.3072   18.2346   -0.0402 O   0  0  0  0  0  0  0  0  0  0  0  0
    2.8535   16.8130    1.9067 O   0  0  0  0  0  0  0  0  0  0  0  0
    3.7065   15.7283    1.5928 C   0  0  0  0  0  0  0  0  0  0  0  0
    2.9395   14.5088    1.0628 C   0  0  1  0  0  0  0  0  0  0  0  0
    2.2255   13.8853    2.1105 O   0  0  0  0  0  0  0  0  0  0  0  0
    1.8021   14.8662    0.0900 C   0  0  1  0  0  0  0  0  0  0  0  0
    2.2079   15.1948   -1.2281 O   0  0  0  0  0  0  0  0  0  0  0  0
    0.8958   13.6364    0.1401 C   0  0  1  0  0  0  0  0  0  0  0  0
    1.2341   12.6822   -0.8509 O   0  0  0  0  0  0  0  0  0  0  0  0
    1.2409   13.0610    1.5124 C   0  0  2  0  0  0  0  0  0  0  0  0
    0.0921   12.8516    2.4193 N   0  0  0  0  0  0  0  0  0  0  0  0
   -1.2216   13.2276    2.2961 C   0  0  0  0  0  0  0  0  0  0  0  0
   -1.9533   12.9598    3.3466 N   0  0  0  0  0  0  0  0  0  0  0  0
   -1.0711   12.3382    4.2252 C   0  0  0  0  0  0  0  0  0  0  0  0
   -1.2661   11.8502    5.5571 C   0  0  0  0  0  0  0  0  0  0  0  0
   -2.2857   11.9171    6.2406 O   0  0  0  0  0  0  0  0  0  0  0  0
   -0.1157   11.2529    6.0899 N   0  0  0  0  0  0  0  0  0  0  0  0
    1.0744   11.1148    5.3916 C   0  0  0  0  0  0  0  0  0  0  0  0
    2.0678   10.4313    5.9710 N   0  0  0  0  0  0  0  0  0  0  0  0
    1.2671   11.6170    4.1610 N   0  0  0  0  0  0  0  0  0  0  0  0
    0.1655   12.2199    3.6362 C   0  0  0  0  0  0  0  0  0  0  0  0
  1  2  2  0  0  0  0
  1  4  1  0  0  0  0
  1  3  1  0  0  0  0
  5  1  1  0  0  0  0
  6  7  2  6  0  0  0
  6  9  1  0  0  0  0
  6  5  1  0  0  0  0
  6  8  1  0  0  0  0
 10 11  2  1  0  0  0
 10 12  1  0  0  0  0
 10 13  1  0  0  0  0
 10  9  1  0  0  0  0
 13 14  1  0  0  0  0
 15 14  1  1  0  0  0
 15 16  1  0  0  0  0
 17 19  1  0  0  0  0
 17 15  1  0  0  0  0
 17 18  1  6  0  0  0
 19 21  1  0  0  0  0
 19 20  1  6  0  0  0
 21 16  1  0  0  0  0
 21 22  1  1  0  0  0
 22 32  1  0  0  0  0
 23 22  1  0  0  0  0
 23 24  2  0  0  0  0
 24 25  1  0  0  0  0
 25 26  1  0  0  0  0
 26 27  2  0  0  0  0
 26 28  1  0  0  0  0
 29 28  1  0  0  0  0
 29 30  1  0  0  0  0
 31 29  2  0  0  0  0
 32 25  2  0  0  0  0
 32 31  1  0  0  0  0
M  END
>  <CHROM.1>
-53.28279297,154.18710591,-44.56214253,-64.93348371,-118.27420984,-133.06930940
-72.22994028,-59.77707631,77.59091224,115.77073364,2.98911161,16.11656968
2.15530343,-0.45142218,0.83300794,1.85368272

>  <Name>
lig.pdb

>  <RI>
3.03081e+07

>  <Rbt.Current_Directory>
/home/itssahil/PROJECTS/Mol_Feturizer/New_Systems/rnas/5lwj

>  <Rbt.Executable>
rbdock ($Id: //depot/dev/client3/rdock/2013.1/src/exe/rbdock.cxx#4 $)

>  <Rbt.Library>
libRbt.so (2013.1, Build901 2013/11/27)

>  <Rbt.Parameter_File>
/export/apps/rDock/src/rDock_2013.1_src/data/scripts/dock_solv.prm

>  <Rbt.Receptor>
prm/pocket_docking_2.prm

>  <SCORE>
-48.3067

>  <SCORE.INTER>
-51.0917

>  <SCORE.INTER.CONST>
1

>  <SCORE.INTER.POLAR>
-5.89909

>  <SCORE.INTER.ROT>
8

>  <SCORE.INTER.SOLV>
18.0358

>  <SCORE.INTER.VDW>
-29.3428

>  <SCORE.INTER.norm>
-1.59662

>  <SCORE.INTRA>
2.64952

>  <SCORE.INTRA.DIHEDRAL>
3.6627

>  <SCORE.INTRA.DIHEDRAL.0>
10.9248

>  <SCORE.INTRA.POLAR>
0

>  <SCORE.INTRA.POLAR.0>
0

>  <SCORE.INTRA.REPUL>
0

>  <SCORE.INTRA.REPUL.0>
0

>  <SCORE.INTRA.SOLV>
-0.0933102

>  <SCORE.INTRA.SOLV.lig_0>
-51.4104

>  <SCORE.INTRA.VDW>
0.864826

>  <SCORE.INTRA.VDW.0>
0.110327

>  <SCORE.INTRA.norm>
0.0827976

>  <SCORE.RESTR>
0.135514

>  <SCORE.RESTR.CAVITY>
0.135514

>  <SCORE.RESTR.norm>
0.00423481

>  <SCORE.SYSTEM>
0

>  <SCORE.SYSTEM.CONST>
0

>  <SCORE.SYSTEM.DIHEDRAL>
0

>  <SCORE.SYSTEM.SOLV>
0

>  <SCORE.SYSTEM.norm>
0

>  <SCORE.heavy>
32

>  <SCORE.norm>
-1.50958

>  <RMSD>
1.546

$$$$
lig.pdb
 OpenBabel11021811523D
libRbt.so/2013.1/901 2013/11/27
 32 34  0  0  0  0  0  0  0  0999 V2000
    7.4578   20.8274    3.1197 P   0  0  0  0  0  0  0  0  0  0  0  0
    8.5723   20.3883    4.0379 O   0  0  0  0  0  0  0  0  0  0  0  0
    6.3036   21.3182    4.1491 O   0  0  0  0  0  0  0  0  0  0  0  0
    7.6796   22.0377    2.2472 O   0  0  0  0  0  0  0  0  0  0  0  0
    7.2208   19.7184    2.2161 O   0  0  0  0  0  0  0  0  0  0  0  0
    5.7983   19.7136    1.8015 P   0  0  1  0  0  0  0  0  0  0  0  0
    4.9705   19.4207    2.9952 O   0  0  0  0  0  0  0  0  0  0  0  0
    5.4210   21.0424    1.2662 O   0  0  0  0  0  0  0  0  0  0  0  0
    5.5906   18.6752    0.7612 O   0  0  0  0  0  0  0  0  0  0  0  0
    4.2420   18.2440    0.3228 P   0  0  1  0  0  0  0  0  0  0  0  0
    3.1280   18.7659    1.1403 O   0  0  0  0  0  0  0  0  0  0  0  0
    4.0138   18.2858   -1.1388 O   0  0  0  0  0  0  0  0  0  0  0  0
    4.2333   16.6686    0.6926 O   0  0  0  0  0  0  0  0  0  0  0  0
    3.3197   16.1125    1.6193 C   0  0  0  0  0  0  0  0  0  0  0  0
    2.7635   14.7578    1.1591 C   0  0  1  0  0  0  0  0  0  0  0  0
    2.0745   14.1252    2.2181 O   0  0  0  0  0  0  0  0  0  0  0  0
    1.6541   14.8707    0.0988 C   0  0  1  0  0  0  0  0  0  0  0  0
    2.0966   15.1467   -1.2196 O   0  0  0  0  0  0  0  0  0  0  0  0
    0.9236   13.5326    0.2089 C   0  0  1  0  0  0  0  0  0  0  0  0
    1.4537   12.5597   -0.6740 O   0  0  0  0  0  0  0  0  0  0  0  0
    1.2536   13.1241    1.6434 C   0  0  2  0  0  0  0  0  0  0  0  0
    0.0874   12.8270    2.5023 N   0  0  0  0  0  0  0  0  0  0  0  0
   -1.2415   13.1254    2.3365 C   0  0  0  0  0  0  0  0  0  0  0  0
   -1.9934   12.7923    3.3536 N   0  0  0  0  0  0  0  0  0  0  0  0
   -1.1075   12.2071    4.2533 C   0  0  0  0  0  0  0  0  0  0  0  0
   -1.3208   11.6808    5.5676 C   0  0  0  0  0  0  0  0  0  0  0  0
   -2.3669   11.6719    6.2133 O   0  0  0  0  0  0  0  0  0  0  0  0
   -0.1564   11.1433    6.1324 N   0  0  0  0  0  0  0  0  0  0  0  0
    1.0647   11.0917    5.4771 C   0  0  0  0  0  0  0  0  0  0  0  0
    2.0761   10.4576    6.0809 N   0  0  0  0  0  0  0  0  0  0  0  0
    1.2712   11.6299    4.2641 N   0  0  0  0  0  0  0  0  0  0  0  0
    0.1547   12.1759    3.7093 C   0  0  0  0  0  0  0  0  0  0  0  0
  1  2  2  0  0  0  0
  1  4  1  0  0  0  0
  1  3  1  0  0  0  0
  5  1  1  0  0  0  0
  6  7  2  1  0  0  0
  6  9  1  0  0  0  0
  6  5  1  0  0  0  0
  6  8  1  0  0  0  0
 10 11  2  1  0  0  0
 10 12  1  0  0  0  0
 10 13  1  0  0  0  0
 10  9  1  0  0  0  0
 13 14  1  0  0  0  0
 15 14  1  1  0  0  0
 15 16  1  0  0  0  0
 17 19  1  0  0  0  0
 17 15  1  0  0  0  0
 17 18  1  6  0  0  0
 19 21  1  0  0  0  0
 19 20  1  6  0  0  0
 21 16  1  0  0  0  0
 21 22  1  1  0  0  0
 22 32  1  0  0  0  0
 23 22  1  0  0  0  0
 23 24  2  0  0  0  0
 24 25  1  0  0  0  0
 25 26  1  0  0  0  0
 26 27  2  0  0  0  0
 26 28  1  0  0  0  0
 29 28  1  0  0  0  0
 29 30  1  0  0  0  0
 31 29  2  0  0  0  0
 32 25  2  0  0  0  0
 32 31  1  0  0  0  0
M  END
>  <CHROM.1>
150.16734000,168.25050997,-66.06096713,118.25052329,-9.12730060,138.81631504
168.41252095,57.36209430,-63.84861016,108.14083869,3.15265165,16.17480393
2.33529465,-0.33480785,0.86346450,1.78985065

>  <Name>
lig.pdb

>  <RI>
3.03081e+07

>  <Rbt.Current_Directory>
/home/itssahil/PROJECTS/Mol_Feturizer/New_Systems/rnas/5lwj

>  <Rbt.Executable>
rbdock ($Id: //depot/dev/client3/rdock/2013.1/src/exe/rbdock.cxx#4 $)

>  <Rbt.Library>
libRbt.so (2013.1, Build901 2013/11/27)

>  <Rbt.Parameter_File>
/export/apps/rDock/src/rDock_2013.1_src/data/scripts/dock_solv.prm

>  <Rbt.Receptor>
prm/pocket_docking_2.prm

>  <SCORE>
-51.1738

>  <SCORE.INTER>
-51.3201

>  <SCORE.INTER.CONST>
1

>  <SCORE.INTER.POLAR>
-5.87105

>  <SCORE.INTER.ROT>
8

>  <SCORE.INTER.SOLV>
19.7718

>  <SCORE.INTER.VDW>
-30.1672

>  <SCORE.INTER.norm>
-1.60375

>  <SCORE.INTRA>
0.133449

>  <SCORE.INTRA.DIHEDRAL>
3.96619

>  <SCORE.INTRA.DIHEDRAL.0>
10.9248

>  <SCORE.INTRA.POLAR>
0

>  <SCORE.INTRA.POLAR.0>
0

>  <SCORE.INTRA.REPUL>
0

>  <SCORE.INTRA.REPUL.0>
0

>  <SCORE.INTRA.SOLV>
-0.0363301

>  <SCORE.INTRA.SOLV.lig_0>
-51.4104

>  <SCORE.INTRA.VDW>
-1.83148

>  <SCORE.INTRA.VDW.0>
0.110327

>  <SCORE.INTRA.norm>
0.00417027

>  <SCORE.RESTR>
0.0127982

>  <SCORE.RESTR.CAVITY>
0.0127982

>  <SCORE.RESTR.norm>
0.000399945

>  <SCORE.SYSTEM>
0

>  <SCORE.SYSTEM.CONST>
0

>  <SCORE.SYSTEM.DIHEDRAL>
0

>  <SCORE.SYSTEM.SOLV>
0

>  <SCORE.SYSTEM.norm>
0

>  <SCORE.heavy>
32

>  <SCORE.norm>
-1.59918

>  <RMSD>
1.558

$$$$
lig.pdb
 OpenBabel11021811523D
libRbt.so/2013.1/901 2013/11/27
 32 34  0  0  0  0  0  0  0  0999 V2000
    7.3881   20.2742    2.9249 P   0  0  0  0  0  0  0  0  0  0  0  0
    8.7228   19.6971    3.3295 O   0  0  0  0  0  0  0  0  0  0  0  0
    6.5667   20.3199    4.3233 O   0  0  0  0  0  0  0  0  0  0  0  0
    7.3378   21.7042    2.4479 O   0  0  0  0  0  0  0  0  0  0  0  0
    6.9192   19.4642    1.8173 O   0  0  0  0  0  0  0  0  0  0  0  0
    5.4454   19.5762    1.7119 P   0  0  1  0  0  0  0  0  0  0  0  0
    4.8502   19.0128    2.9465 O   0  0  0  0  0  0  0  0  0  0  0  0
    5.0517   20.9993    1.5917 O   0  0  0  0  0  0  0  0  0  0  0  0
    4.9768   18.8228    0.5218 O   0  0  0  0  0  0  0  0  0  0  0  0
    5.3109   17.3960    0.2988 P   0  0  1  0  0  0  0  0  0  0  0  0
    5.7831   17.0755   -1.0636 O   0  0  0  0  0  0  0  0  0  0  0  0
    6.0760   16.7523    1.3898 O   0  0  0  0  0  0  0  0  0  0  0  0
    3.8605   16.6794    0.3391 O   0  0  0  0  0  0  0  0  0  0  0  0
    3.4572   15.8439    1.4077 C   0  0  0  0  0  0  0  0  0  0  0  0
    2.7711   14.5584    0.9250 C   0  0  1  0  0  0  0  0  0  0  0  0
    2.0839   13.9386    1.9928 O   0  0  0  0  0  0  0  0  0  0  0  0
    1.6253   14.8038   -0.0724 C   0  0  1  0  0  0  0  0  0  0  0  0
    2.0255   15.0991   -1.4000 O   0  0  0  0  0  0  0  0  0  0  0  0
    0.7941   13.5247    0.0237 C   0  0  1  0  0  0  0  0  0  0  0  0
    1.2004   12.5507   -0.9216 O   0  0  0  0  0  0  0  0  0  0  0  0
    1.1576   13.0312    1.4229 C   0  0  2  0  0  0  0  0  0  0  0  0
    0.0133   12.7920    2.3280 N   0  0  0  0  0  0  0  0  0  0  0  0
   -1.3096   13.1333    2.2026 C   0  0  0  0  0  0  0  0  0  0  0  0
   -2.0357   12.8467    3.2521 N   0  0  0  0  0  0  0  0  0  0  0  0
   -1.1389   12.2487    4.1322 C   0  0  0  0  0  0  0  0  0  0  0  0
   -1.3232   11.7561    5.4639 C   0  0  0  0  0  0  0  0  0  0  0  0
   -2.3452   11.7964    6.1458 O   0  0  0  0  0  0  0  0  0  0  0  0
   -0.1584   11.1893    5.9987 N   0  0  0  0  0  0  0  0  0  0  0  0
    1.0360   11.0823    5.3024 C   0  0  0  0  0  0  0  0  0  0  0  0
    2.0461   10.4252    5.8835 N   0  0  0  0  0  0  0  0  0  0  0  0
    1.2175   11.5890    4.0719 N   0  0  0  0  0  0  0  0  0  0  0  0
    0.1012   12.1627    3.5452 C   0  0  0  0  0  0  0  0  0  0  0  0
  1  2  2  0  0  0  0
  1  4  1  0  0  0  0
  1  3  1  0  0  0  0
  5  1  1  0  0  0  0
  6  7  2  1  0  0  0
  6  9  1  0  0  0  0
  6  5  1  0  0  0  0
  6  8  1  0  0  0  0
 10 11  2  6  0  0  0
 10 12  1  0  0  0  0
 10 13  1  0  0  0  0
 10  9  1  0  0  0  0
 13 14  1  0  0  0  0
 15 14  1  1  0  0  0
 15 16  1  0  0  0  0
 17 19  1  0  0  0  0
 17 15  1  0  0  0  0
 17 18  1  6  0  0  0
 19 21  1  0  0  0  0
 19 20  1  6  0  0  0
 21 16  1  0  0  0  0
 21 22  1  1  0  0  0
 22 32  1  0  0  0  0
 23 22  1  0  0  0  0
 23 24  2  0  0  0  0
 24 25  1  0  0  0  0
 25 26  1  0  0  0  0
 26 27  2  0  0  0  0
 26 28  1  0  0  0  0
 29 28  1  0  0  0  0
 29 30  1  0  0  0  0
 31 29  2  0  0  0  0
 32 25  2  0  0  0  0
 32 31  1  0  0  0  0
M  END
>  <CHROM.1>
157.20127136,54.18009652,-63.61665925,-109.30546386,-133.10574161,-135.68219846
-164.62686347,-55.96870551,178.95140412,112.57198244,3.26111922,15.88707377
2.20901946,-0.21462684,0.84459576,1.62898971

>  <Name>
lig.pdb

>  <RI>
0

>  <Rbt.Current_Directory>
/home/itssahil/PROJECTS/Mol_Feturizer/New_Systems/rnas/5lwj

>  <Rbt.Executable>
rbdock ($Id: //depot/dev/client3/rdock/2013.1/src/exe/rbdock.cxx#4 $)

>  <Rbt.Library>
libRbt.so (2013.1, Build901 2013/11/27)

>  <Rbt.Parameter_File>
/export/apps/rDock/src/rDock_2013.1_src/data/scripts/dock_solv.prm

>  <Rbt.Receptor>
prm/pocket_docking_3.prm

>  <SCORE>
-58.4046

>  <SCORE.INTER>
-56.6603

>  <SCORE.INTER.CONST>
1

>  <SCORE.INTER.POLAR>
-6.63836

>  <SCORE.INTER.ROT>
8

>  <SCORE.INTER.SOLV>
20.2933

>  <SCORE.INTER.VDW>
-31.3434

>  <SCORE.INTER.norm>
-1.77063

>  <SCORE.INTRA>
-1.74428

>  <SCORE.INTRA.DIHEDRAL>
3.95201

>  <SCORE.INTRA.DIHEDRAL.0>
10.9248

>  <SCORE.INTRA.POLAR>
-0.37531

>  <SCORE.INTRA.POLAR.0>
0

>  <SCORE.INTRA.REPUL>
0

>  <SCORE.INTRA.REPUL.0>
0

>  <SCORE.INTRA.SOLV>
-0.651343

>  <SCORE.INTRA.SOLV.lig_0>
-51.4104

>  <SCORE.INTRA.VDW>
-2.11856

>  <SCORE.INTRA.VDW.0>
0.110327

>  <SCORE.INTRA.norm>
-0.0545086

>  <SCORE.RESTR>
0

>  <SCORE.RESTR.CAVITY>
0

>  <SCORE.RESTR.norm>
0

>  <SCORE.SYSTEM>
0

>  <SCORE.SYSTEM.CONST>
0

>  <SCORE.SYSTEM.DIHEDRAL>
0

>  <SCORE.SYSTEM.SOLV>
0

>  <SCORE.SYSTEM.norm>
0

>  <SCORE.heavy>
32

>  <SCORE.norm>
-1.82514

>  <RMSD>
1.620

$$$$
lig.pdb
 OpenBabel11021811523D
libRbt.so/2013.1/901 2013/11/27
 32 34  0  0  0  0  0  0  0  0999 V2000
    7.2911   20.4616    2.7731 P   0  0  0  0  0  0  0  0  0  0  0  0
    8.5930   19.8647    3.2493 O   0  0  0  0  0  0  0  0  0  0  0  0
    6.7249   21.2138    4.0945 O   0  0  0  0  0  0  0  0  0  0  0  0
    7.3389   21.5624    1.7429 O   0  0  0  0  0  0  0  0  0  0  0  0
    6.5488   19.3742    2.1653 O   0  0  0  0  0  0  0  0  0  0  0  0
    5.1127   19.7327    2.0981 P   0  0  1  0  0  0  0  0  0  0  0  0
    4.6523   20.0532    3.4697 O   0  0  0  0  0  0  0  0  0  0  0  0
    4.9261   20.9225    1.2355 O   0  0  0  0  0  0  0  0  0  0  0  0
    4.3433   18.5881    1.5490 O   0  0  0  0  0  0  0  0  0  0  0  0
    4.8035   17.8068    0.3765 P   0  0  1  0  0  0  0  0  0  0  0  0
    4.7104   18.5156   -0.9160 O   0  0  0  0  0  0  0  0  0  0  0  0
    6.0575   17.0478    0.5808 O   0  0  0  0  0  0  0  0  0  0  0  0
    3.6585   16.6725    0.2317 O   0  0  0  0  0  0  0  0  0  0  0  0
    3.3122   15.8048    1.2946 C   0  0  0  0  0  0  0  0  0  0  0  0
    2.5290   14.5731    0.8195 C   0  0  1  0  0  0  0  0  0  0  0  0
    1.8915   13.9455    1.9131 O   0  0  0  0  0  0  0  0  0  0  0  0
    1.3271   14.9113   -0.0799 C   0  0  1  0  0  0  0  0  0  0  0  0
    1.6436   15.2388   -1.4226 O   0  0  0  0  0  0  0  0  0  0  0  0
    0.4421   13.6703    0.0328 C   0  0  1  0  0  0  0  0  0  0  0  0
    0.7288   12.7157   -0.9741 O   0  0  0  0  0  0  0  0  0  0  0  0
    0.8816   13.1059    1.3825 C   0  0  2  0  0  0  0  0  0  0  0  0
   -0.2041   12.8862    2.3618 N   0  0  0  0  0  0  0  0  0  0  0  0
   -1.5251   13.2549    2.3265 C   0  0  0  0  0  0  0  0  0  0  0  0
   -2.1849   12.9787    3.4216 N   0  0  0  0  0  0  0  0  0  0  0  0
   -1.2435   12.3587    4.2377 C   0  0  0  0  0  0  0  0  0  0  0  0
   -1.3481   11.8642    5.5773 C   0  0  0  0  0  0  0  0  0  0  0  0
   -2.3211   11.9224    6.3265 O   0  0  0  0  0  0  0  0  0  0  0  0
   -0.1620   11.2715    6.0310 N   0  0  0  0  0  0  0  0  0  0  0  0
    0.9806   11.1432    5.2557 C   0  0  0  0  0  0  0  0  0  0  0  0
    2.0135   10.4631    5.7657 N   0  0  0  0  0  0  0  0  0  0  0  0
    1.0894   11.6514    4.0172 N   0  0  0  0  0  0  0  0  0  0  0  0
   -0.0476   12.2500    3.5685 C   0  0  0  0  0  0  0  0  0  0  0  0
  1  2  2  0  0  0  0
  1  4  1  0  0  0  0
  1  3  1  0  0  0  0
  5  1  1  0  0  0  0
  6  7  2  1  0  0  0
  6  9  1  0  0  0  0
  6  5  1  0  0  0  0
  6  8  1  0  0  0  0
 10 11  2  6  0  0  0
 10 12  1  0  0  0  0
 10 13  1  0  0  0  0
 10  9  1  0  0  0  0
 13 14  1  0  0  0  0
 15 14  1  1  0  0  0
 15 16  1  0  0  0  0
 17 19  1  0  0  0  0
 17 15  1  0  0  0  0
 17 18  1  6  0  0  0
 19 21  1  0  0  0  0
 19 20  1  6  0  0  0
 21 16  1  0  0  0  0
 21 22  1  1  0  0  0
 22 32  1  0  0  0  0
 23 22  1  0  0  0  0
 23 24  2  0  0  0  0
 24 25  1  0  0  0  0
 25 26  1  0  0  0  0
 26 27  2  0  0  0  0
 26 28  1  0  0  0  0
 29 28  1  0  0  0  0
 29 30  1  0  0  0  0
 31 29  2  0  0  0  0
 32 25  2  0  0  0  0
 32 31  1  0  0  0  0
M  END
>  <CHROM.1>
160.44696381,-44.02135931,-56.44722103,-55.61578026,-71.76015308,-162.95017394
-163.64222795,-171.62243586,-175.14370109,115.12239521,3.02869273,16.07710047
2.22206553,-0.27701556,0.84918482,1.71691619

>  <Name>
lig.pdb

>  <RI>
3.03081e+07

>  <Rbt.Current_Directory>
/home/itssahil/PROJECTS/Mol_Feturizer/New_Systems/rnas/5lwj

>  <Rbt.Executable>
rbdock ($Id: //depot/dev/client3/rdock/2013.1/src/exe/rbdock.cxx#4 $)

>  <Rbt.Library>
libRbt.so (2013.1, Build901 2013/11/27)

>  <Rbt.Parameter_File>
/export/apps/rDock/src/rDock_2013.1_src/data/scripts/dock_solv.prm

>  <Rbt.Receptor>
prm/pocket_docking_2.prm

>  <SCORE>
-57.2437

>  <SCORE.INTER>
-52.9913

>  <SCORE.INTER.CONST>
1

>  <SCORE.INTER.POLAR>
-6.1566

>  <SCORE.INTER.ROT>
8

>  <SCORE.INTER.SOLV>
19.6174

>  <SCORE.INTER.VDW>
-30.278

>  <SCORE.INTER.norm>
-1.65598

>  <SCORE.INTRA>
-4.823

>  <SCORE.INTRA.DIHEDRAL>
-4.46971

>  <SCORE.INTRA.DIHEDRAL.0>
10.9248

>  <SCORE.INTRA.POLAR>
0

>  <SCORE.INTRA.POLAR.0>
0

>  <SCORE.INTRA.REPUL>
0

>  <SCORE.INTRA.REPUL.0>
0

>  <SCORE.INTRA.SOLV>
-0.980153

>  <SCORE.INTRA.SOLV.lig_0>
-51.4104

>  <SCORE.INTRA.VDW>
-2.09806

>  <SCORE.INTRA.VDW.0>
0.110327

>  <SCORE.INTRA.norm>
-0.150719

>  <SCORE.RESTR>
0.570559

>  <SCORE.RESTR.CAVITY>
0.570559

>  <SCORE.RESTR.norm>
0.01783

>  <SCORE.SYSTEM>
0

>  <SCORE.SYSTEM.CONST>
0

>  <SCORE.SYSTEM.DIHEDRAL>
0

>  <SCORE.SYSTEM.SOLV>
0

>  <SCORE.SYSTEM.norm>
0

>  <SCORE.heavy>
32

>  <SCORE.norm>
-1.78887

>  <RMSD>
1.625

$$$$
lig.pdb
 OpenBabel11021811523D
libRbt.so/2013.1/901 2013/11/27
 32 34  0  0  0  0  0  0  0  0999 V2000
    7.4148   21.2389    2.4543 P   0  0  0  0  0  0  0  0  0  0  0  0
    7.7429   21.2283    3.9275 O   0  0  0  0  0  0  0  0  0  0  0  0
    6.4574   22.5396    2.2990 O   0  0  0  0  0  0  0  0  0  0  0  0
    8.5269   21.5094    1.4719 O   0  0  0  0  0  0  0  0  0  0  0  0
    6.9177   19.9126    2.1436 O   0  0  0  0  0  0  0  0  0  0  0  0
    5.4532   19.8691    2.3648 P   0  0  1  0  0  0  0  0  0  0  0  0
    5.1821   20.3171    3.7511 O   0  0  0  0  0  0  0  0  0  0  0  0
    4.7696   20.7825    1.4196 O   0  0  0  0  0  0  0  0  0  0  0  0
    4.9647   18.4816    2.1652 O   0  0  0  0  0  0  0  0  0  0  0  0
    5.2642   17.6987    0.9427 P   0  0  1  0  0  0  0  0  0  0  0  0
    4.5536   18.1490   -0.2714 O   0  0  0  0  0  0  0  0  0  0  0  0
    6.6932   17.3709    0.7415 O   0  0  0  0  0  0  0  0  0  0  0  0
    4.5577   16.2753    1.2485 O   0  0  0  0  0  0  0  0  0  0  0  0
    3.1798   16.1623    1.5506 C   0  0  0  0  0  0  0  0  0  0  0  0
    2.5757   14.8379    1.0633 C   0  0  1  0  0  0  0  0  0  0  0  0
    1.9223   14.1761    2.1271 O   0  0  0  0  0  0  0  0  0  0  0  0
    1.4221   15.0141    0.0604 C   0  0  1  0  0  0  0  0  0  0  0  0
    1.8103   15.3348   -1.2650 O   0  0  0  0  0  0  0  0  0  0  0  0
    0.6700   13.6866    0.1511 C   0  0  1  0  0  0  0  0  0  0  0  0
    1.1397   12.7403   -0.7929 O   0  0  0  0  0  0  0  0  0  0  0  0
    1.0559   13.2145    1.5517 C   0  0  2  0  0  0  0  0  0  0  0  0
   -0.0762   12.9050    2.4509 N   0  0  0  0  0  0  0  0  0  0  0  0
   -1.4102   13.2063    2.3415 C   0  0  0  0  0  0  0  0  0  0  0  0
   -2.1222   12.8582    3.3820 N   0  0  0  0  0  0  0  0  0  0  0  0
   -1.2025   12.2591    4.2375 C   0  0  0  0  0  0  0  0  0  0  0  0
   -1.3650   11.7131    5.5511 C   0  0  0  0  0  0  0  0  0  0  0  0
   -2.3851   11.6948    6.2369 O   0  0  0  0  0  0  0  0  0  0  0  0
   -0.1799   11.1666    6.0618 N   0  0  0  0  0  0  0  0  0  0  0  0
    1.0146   11.1245    5.3588 C   0  0  0  0  0  0  0  0  0  0  0  0
    2.0482   10.4810    5.9130 N   0  0  0  0  0  0  0  0  0  0  0  0
    1.1742   11.6809    4.1468 N   0  0  0  0  0  0  0  0  0  0  0  0
    0.0374   12.2357    3.6443 C   0  0  0  0  0  0  0  0  0  0  0  0
  1  2  2  0  0  0  0
  1  4  1  0  0  0  0
  1  3  1  0  0  0  0
  5  1  1  0  0  0  0
  6  7  2  1  0  0  0
  6  9  1  0  0  0  0
  6  5  1  0  0  0  0
  6  8  1  0  0  0  0
 10 11  2  6  0  0  0
 10 12  1  0  0  0  0
 10 13  1  0  0  0  0
 10  9  1  0  0  0  0
 13 14  1  0  0  0  0
 15 14  1  1  0  0  0
 15 16  1  0  0  0  0
 17 19  1  0  0  0  0
 17 15  1  0  0  0  0
 17 18  1  6  0  0  0
 19 21  1  0  0  0  0
 19 20  1  6  0  0  0
 21 16  1  0  0  0  0
 21 22  1  1  0  0  0
 22 32  1  0  0  0  0
 23 22  1  0  0  0  0
 23 24  2  0  0  0  0
 24 25  1  0  0  0  0
 25 26  1  0  0  0  0
 26 27  2  0  0  0  0
 26 28  1  0  0  0  0
 29 28  1  0  0  0  0
 29 30  1  0  0  0  0
 31 29  2  0  0  0  0
 32 25  2  0  0  0  0
 32 31  1  0  0  0  0
M  END
>  <CHROM.1>
88.50785888,-52.28552858,-54.65540984,56.98655674,-71.56440679,148.52060705
126.50050524,-177.79320122,-175.85992287,109.96794589,3.21277078,16.22328911
2.35147003,-0.20973691,0.87852804,1.63496556

>  <Name>
lig.pdb

>  <RI>
3.03081e+07

>  <Rbt.Current_Directory>
/home/itssahil/PROJECTS/Mol_Feturizer/New_Systems/rnas/5lwj

>  <Rbt.Executable>
rbdock ($Id: //depot/dev/client3/rdock/2013.1/src/exe/rbdock.cxx#4 $)

>  <Rbt.Library>
libRbt.so (2013.1, Build901 2013/11/27)

>  <Rbt.Parameter_File>
/export/apps/rDock/src/rDock_2013.1_src/data/scripts/dock_solv.prm

>  <Rbt.Receptor>
prm/pocket_docking_2.prm

>  <SCORE>
-56.7619

>  <SCORE.INTER>
-55.3805

>  <SCORE.INTER.CONST>
1

>  <SCORE.INTER.POLAR>
-6.51349

>  <SCORE.INTER.ROT>
8

>  <SCORE.INTER.SOLV>
19.591

>  <SCORE.INTER.VDW>
-30.6724

>  <SCORE.INTER.norm>
-1.73064

>  <SCORE.INTRA>
-1.99143

>  <SCORE.INTRA.DIHEDRAL>
2.32468

>  <SCORE.INTRA.DIHEDRAL.0>
10.9248

>  <SCORE.INTRA.POLAR>
0

>  <SCORE.INTRA.POLAR.0>
0

>  <SCORE.INTRA.REPUL>
0

>  <SCORE.INTRA.REPUL.0>
0

>  <SCORE.INTRA.SOLV>
-0.58334

>  <SCORE.INTRA.SOLV.lig_0>
-51.4104

>  <SCORE.INTRA.VDW>
-2.8621

>  <SCORE.INTRA.VDW.0>
0.110327

>  <SCORE.INTRA.norm>
-0.0622321

>  <SCORE.RESTR>
0.610092

>  <SCORE.RESTR.CAVITY>
0.610092

>  <SCORE.RESTR.norm>
0.0190654

>  <SCORE.SYSTEM>
0

>  <SCORE.SYSTEM.CONST>
0

>  <SCORE.SYSTEM.DIHEDRAL>
0

>  <SCORE.SYSTEM.SOLV>
0

>  <SCORE.SYSTEM.norm>
0

>  <SCORE.heavy>
32

>  <SCORE.norm>
-1.77381

>  <RMSD>
1.630

$$$$
lig.pdb
 OpenBabel11021811523D
libRbt.so/2013.1/901 2013/11/27
 32 34  0  0  0  0  0  0  0  0999 V2000
    5.8719   20.6818    3.5088 P   0  0  0  0  0  0  0  0  0  0  0  0
    6.0762   22.0491    4.1145 O   0  0  0  0  0  0  0  0  0  0  0  0
    7.1701   20.5046    2.5518 O   0  0  0  0  0  0  0  0  0  0  0  0
    5.9427   19.4768    4.4133 O   0  0  0  0  0  0  0  0  0  0  0  0
    4.5345   20.6860    2.9486 O   0  0  0  0  0  0  0  0  0  0  0  0
    4.5001   19.8236    1.7442 P   0  0  1  0  0  0  0  0  0  0  0  0
    3.0946   19.7290    1.2841 O   0  0  0  0  0  0  0  0  0  0  0  0
    5.3217   20.4230    0.6670 O   0  0  0  0  0  0  0  0  0  0  0  0
    5.0238   18.4773    2.0858 O   0  0  0  0  0  0  0  0  0  0  0  0
    5.5113   17.5268    1.0583 P   0  0  1  0  0  0  0  0  0  0  0  0
    5.0013   17.7733   -0.3059 O   0  0  0  0  0  0  0  0  0  0  0  0
    6.9538   17.2053    1.1344 O   0  0  0  0  0  0  0  0  0  0  0  0
    4.7640   16.1496    1.4628 O   0  0  0  0  0  0  0  0  0  0  0  0
    3.3619   16.0710    1.6376 C   0  0  0  0  0  0  0  0  0  0  0  0
    2.7820   14.7322    1.1604 C   0  0  1  0  0  0  0  0  0  0  0  0
    2.0886   14.0949    2.2137 O   0  0  0  0  0  0  0  0  0  0  0  0
    1.6690   14.8782    0.1080 C   0  0  1  0  0  0  0  0  0  0  0  0
    2.1089   15.1667   -1.2086 O   0  0  0  0  0  0  0  0  0  0  0  0
    0.9180   13.5502    0.2024 C   0  0  1  0  0  0  0  0  0  0  0  0
    1.4282   12.5823   -0.6977 O   0  0  0  0  0  0  0  0  0  0  0  0
    1.2490   13.1154    1.6288 C   0  0  2  0  0  0  0  0  0  0  0  0
    0.0827   12.8240    2.4896 N   0  0  0  0  0  0  0  0  0  0  0  0
   -1.2446   13.1310    2.3271 C   0  0  0  0  0  0  0  0  0  0  0  0
   -1.9964   12.8007    3.3452 N   0  0  0  0  0  0  0  0  0  0  0  0
   -1.1124   12.2081    4.2418 C   0  0  0  0  0  0  0  0  0  0  0  0
   -1.3263   11.6806    5.5556 C   0  0  0  0  0  0  0  0  0  0  0  0
   -2.3711   11.6770    6.2034 O   0  0  0  0  0  0  0  0  0  0  0  0
   -0.1641   11.1346    6.1169 N   0  0  0  0  0  0  0  0  0  0  0  0
    1.0553   11.0767    5.4589 C   0  0  0  0  0  0  0  0  0  0  0  0
    2.0639   10.4350    6.0593 N   0  0  0  0  0  0  0  0  0  0  0  0
    1.2626   11.6160    4.2465 N   0  0  0  0  0  0  0  0  0  0  0  0
    0.1484   12.1701    3.6951 C   0  0  0  0  0  0  0  0  0  0  0  0
  1  2  2  0  0  0  0
  1  4  1  0  0  0  0
  1  3  1  0  0  0  0
  5  1  1  0  0  0  0
  6  7  2  6  0  0  0
  6  9  1  0  0  0  0
  6  5  1  0  0  0  0
  6  8  1  0  0  0  0
 10 11  2  6  0  0  0
 10 12  1  0  0  0  0
 10 13  1  0  0  0  0
 10  9  1  0  0  0  0
 13 14  1  0  0  0  0
 15 14  1  1  0  0  0
 15 16  1  0  0  0  0
 17 19  1  0  0  0  0
 17 15  1  0  0  0  0
 17 18  1  6  0  0  0
 19 21  1  0  0  0  0
 19 20  1  6  0  0  0
 21 16  1  0  0  0  0
 21 22  1  1  0  0  0
 22 32  1  0  0  0  0
 23 22  1  0  0  0  0
 23 24  2  0  0  0  0
 24 25  1  0  0  0  0
 25 26  1  0  0  0  0
 26 27  2  0  0  0  0
 26 28  1  0  0  0  0
 29 28  1  0  0  0  0
 29 30  1  0  0  0  0
 31 29  2  0  0  0  0
 32 25  2  0  0  0  0
 32 31  1  0  0  0  0
M  END
>  <CHROM.1>
147.52050254,-160.67832091,173.84197559,53.14177869,-21.56517062,144.30526444
122.87674383,-177.08841867,-66.64601081,109.07184356,2.95323151,16.01063287
2.45538772,-0.07791831,0.95099978,1.44976614

>  <Name>
lig.pdb

>  <RI>
3.03081e+07

>  <Rbt.Current_Directory>
/home/itssahil/PROJECTS/Mol_Feturizer/New_Systems/rnas/5lwj

>  <Rbt.Executable>
rbdock ($Id: //depot/dev/client3/rdock/2013.1/src/exe/rbdock.cxx#4 $)

>  <Rbt.Library>
libRbt.so (2013.1, Build901 2013/11/27)

>  <Rbt.Parameter_File>
/export/apps/rDock/src/rDock_2013.1_src/data/scripts/dock_solv.prm

>  <Rbt.Receptor>
prm/pocket_docking_2.prm

>  <SCORE>
-54.5509

>  <SCORE.INTER>
-54.6919

>  <SCORE.INTER.CONST>
1

>  <SCORE.INTER.POLAR>
-6.00731

>  <SCORE.INTER.ROT>
8

>  <SCORE.INTER.SOLV>
19.9424

>  <SCORE.INTER.VDW>
-32.0177

>  <SCORE.INTER.norm>
-1.70912

>  <SCORE.INTRA>
-0.506944

>  <SCORE.INTRA.DIHEDRAL>
5.76019

>  <SCORE.INTRA.DIHEDRAL.0>
10.9248

>  <SCORE.INTRA.POLAR>
0

>  <SCORE.INTRA.POLAR.0>
0

>  <SCORE.INTRA.REPUL>
0

>  <SCORE.INTRA.REPUL.0>
0

>  <SCORE.INTRA.SOLV>
0.167882

>  <SCORE.INTRA.SOLV.lig_0>
-51.4104

>  <SCORE.INTRA.VDW>
-3.47098

>  <SCORE.INTRA.VDW.0>
0.110327

>  <SCORE.INTRA.norm>
-0.015842

>  <SCORE.RESTR>
0.647962

>  <SCORE.RESTR.CAVITY>
0.647962

>  <SCORE.RESTR.norm>
0.0202488

>  <SCORE.SYSTEM>
0

>  <SCORE.SYSTEM.CONST>
0

>  <SCORE.SYSTEM.DIHEDRAL>
0

>  <SCORE.SYSTEM.SOLV>
0

>  <SCORE.SYSTEM.norm>
0

>  <SCORE.heavy>
32

>  <SCORE.norm>
-1.70472

>  <RMSD>
1.644

$$$$
lig.pdb
 OpenBabel11021811523D
libRbt.so/2013.1/901 2013/11/27
 32 34  0  0  0  0  0  0  0  0999 V2000
    6.9532   20.3834    0.7181 P   0  0  0  0  0  0  0  0  0  0  0  0
    6.8930   20.1704   -0.7748 O   0  0  0  0  0  0  0  0  0  0  0  0
    7.6242   19.0092    1.2601 O   0  0  0  0  0  0  0  0  0  0  0  0
    7.8722   21.4519    1.2556 O   0  0  0  0  0  0  0  0  0  0  0  0
    5.6140   20.7635    1.1242 O   0  0  0  0  0  0  0  0  0  0  0  0
    4.7570   19.5568    1.1934 P   0  0  1  0  0  0  0  0  0  0  0  0
    5.2101   18.7339    2.3395 O   0  0  0  0  0  0  0  0  0  0  0  0
    3.3447   19.9487    1.4086 O   0  0  0  0  0  0  0  0  0  0  0  0
    4.8790   18.7913   -0.0726 O   0  0  0  0  0  0  0  0  0  0  0  0
    4.5554   17.3479   -0.1662 P   0  0  1  0  0  0  0  0  0  0  0  0
    4.1581   16.8876   -1.5123 O   0  0  0  0  0  0  0  0  0  0  0  0
    5.4874   16.4479    0.5490 O   0  0  0  0  0  0  0  0  0  0  0  0
    3.1680   17.2389    0.6595 O   0  0  0  0  0  0  0  0  0  0  0  0
    2.9673   16.2809    1.6816 C   0  0  0  0  0  0  0  0  0  0  0  0
    2.3892   14.9624    1.1492 C   0  0  1  0  0  0  0  0  0  0  0  0
    1.7712   14.2403    2.1946 O   0  0  0  0  0  0  0  0  0  0  0  0
    1.2146   15.1495    0.1729 C   0  0  1  0  0  0  0  0  0  0  0  0
    1.5718   15.5347   -1.1439 O   0  0  0  0  0  0  0  0  0  0  0  0
    0.4984   13.8000    0.2201 C   0  0  1  0  0  0  0  0  0  0  0  0
    0.9761   12.9063   -0.7699 O   0  0  0  0  0  0  0  0  0  0  0  0
    0.9200   13.2808    1.5935 C   0  0  2  0  0  0  0  0  0  0  0  0
   -0.1883   12.9047    2.4968 N   0  0  0  0  0  0  0  0  0  0  0  0
   -1.5409   13.1022    2.3792 C   0  0  0  0  0  0  0  0  0  0  0  0
   -2.2279   12.7222    3.4254 N   0  0  0  0  0  0  0  0  0  0  0  0
   -1.2683   12.2114    4.2943 C   0  0  0  0  0  0  0  0  0  0  0  0
   -1.3933   11.6810    5.6183 C   0  0  0  0  0  0  0  0  0  0  0  0
   -2.4112   11.5994    6.3027 O   0  0  0  0  0  0  0  0  0  0  0  0
   -0.1720   11.2358    6.1419 N   0  0  0  0  0  0  0  0  0  0  0  0
    1.0246   11.2700    5.4417 C   0  0  0  0  0  0  0  0  0  0  0  0
    2.1020   10.7174    6.0105 N   0  0  0  0  0  0  0  0  0  0  0  0
    1.1455   11.8125    4.2191 N   0  0  0  0  0  0  0  0  0  0  0  0
   -0.0283   12.2697    3.7037 C   0  0  0  0  0  0  0  0  0  0  0  0
  1  2  2  0  0  0  0
  1  4  1  0  0  0  0
  1  3  1  0  0  0  0
  5  1  1  0  0  0  0
  6  7  2  1  0  0  0
  6  9  1  0  0  0  0
  6  5  1  0  0  0  0
  6  8  1  0  0  0  0
 10 11  2  6  0  0  0
 10 12  1  0  0  0  0
 10 13  1  0  0  0  0
 10  9  1  0  0  0  0
 13 14  1  0  0  0  0
 15 14  1  1  0  0  0
 15 16  1  0  0  0  0
 17 19  1  0  0  0  0
 17 15  1  0  0  0  0
 17 18  1  6  0  0  0
 19 21  1  0  0  0  0
 19 20  1  6  0  0  0
 21 16  1  0  0  0  0
 21 22  1  1  0  0  0
 22 32  1  0  0  0  0
 23 22  1  0  0  0  0
 23 24  2  0  0  0  0
 24 25  1  0  0  0  0
 25 26  1  0  0  0  0
 26 27  2  0  0  0  0
 26 28  1  0  0  0  0
 29 28  1  0  0  0  0
 29 30  1  0  0  0  0
 31 29  2  0  0  0  0
 32 25  2  0  0  0  0
 32 31  1  0  0  0  0
M  END
>  <CHROM.1>
78.25560926,158.08382899,69.38918834,-129.73004187,154.40542978,-89.84351825
-159.12745143,63.01012629,-176.52052128,114.62430146,2.86220933,15.94580315
1.75887645,-0.53847332,0.78812716,1.82968011

>  <Name>
lig.pdb

>  <RI>
3.03081e+07

>  <Rbt.Current_Directory>
/home/itssahil/PROJECTS/Mol_Feturizer/New_Systems/rnas/5lwj

>  <Rbt.Executable>
rbdock ($Id: //depot/dev/client3/rdock/2013.1/src/exe/rbdock.cxx#4 $)

>  <Rbt.Library>
libRbt.so (2013.1, Build901 2013/11/27)

>  <Rbt.Parameter_File>
/export/apps/rDock/src/rDock_2013.1_src/data/scripts/dock_solv.prm

>  <Rbt.Receptor>
prm/pocket_docking_2.prm

>  <SCORE>
-52.6754

>  <SCORE.INTER>
-51.6193

>  <SCORE.INTER.CONST>
1

>  <SCORE.INTER.POLAR>
-6.59548

>  <SCORE.INTER.ROT>
8

>  <SCORE.INTER.SOLV>
15.9166

>  <SCORE.INTER.VDW>
-26.6668

>  <SCORE.INTER.norm>
-1.6131

>  <SCORE.INTRA>
-1.24281

>  <SCORE.INTRA.DIHEDRAL>
1.17095

>  <SCORE.INTRA.DIHEDRAL.0>
10.9248

>  <SCORE.INTRA.POLAR>
-0.013349

>  <SCORE.INTRA.POLAR.0>
0

>  <SCORE.INTRA.REPUL>
0

>  <SCORE.INTRA.REPUL.0>
0

>  <SCORE.INTRA.SOLV>
2.72202

>  <SCORE.INTRA.SOLV.lig_0>
-51.4104

>  <SCORE.INTRA.VDW>
-3.1439

>  <SCORE.INTRA.VDW.0>
0.110327

>  <SCORE.INTRA.norm>
-0.0388377

>  <SCORE.RESTR>
0.186686

>  <SCORE.RESTR.CAVITY>
0.186686

>  <SCORE.RESTR.norm>
0.00583393

>  <SCORE.SYSTEM>
0

>  <SCORE.SYSTEM.CONST>
0

>  <SCORE.SYSTEM.DIHEDRAL>
0

>  <SCORE.SYSTEM.SOLV>
0

>  <SCORE.SYSTEM.norm>
0

>  <SCORE.heavy>
32

>  <SCORE.norm>
-1.64611

>  <RMSD>
1.645

$$$$
lig.pdb
 OpenBabel11021811523D
libRbt.so/2013.1/901 2013/11/27
 32 34  0  0  0  0  0  0  0  0999 V2000
    7.3781   20.1809    2.7110 P   0  0  0  0  0  0  0  0  0  0  0  0
    6.6783   20.2891    4.0439 O   0  0  0  0  0  0  0  0  0  0  0  0
    7.7711   21.7188    2.3748 O   0  0  0  0  0  0  0  0  0  0  0  0
    8.7041   19.4646    2.6509 O   0  0  0  0  0  0  0  0  0  0  0  0
    6.4813   19.4400    1.8451 O   0  0  0  0  0  0  0  0  0  0  0  0
    5.4400   20.3514    1.3155 P   0  0  1  0  0  0  0  0  0  0  0  0
    4.8337   21.0735    2.4587 O   0  0  0  0  0  0  0  0  0  0  0  0
    6.0492   21.3355    0.3908 O   0  0  0  0  0  0  0  0  0  0  0  0
    4.4089   19.5596    0.5989 O   0  0  0  0  0  0  0  0  0  0  0  0
    3.7327   18.3912    1.2108 P   0  0  1  0  0  0  0  0  0  0  0  0
    4.5010   17.1308    1.1548 O   0  0  0  0  0  0  0  0  0  0  0  0
    3.0682   18.6575    2.5060 O   0  0  0  0  0  0  0  0  0  0  0  0
    2.5186   18.1017    0.1808 O   0  0  0  0  0  0  0  0  0  0  0  0
    1.4122   17.2882    0.5226 C   0  0  0  0  0  0  0  0  0  0  0  0
    1.8165   15.8381    0.8227 C   0  0  1  0  0  0  0  0  0  0  0  0
    1.1391   15.3675    1.9699 O   0  0  0  0  0  0  0  0  0  0  0  0
    1.3480   14.8306   -0.2418 C   0  0  1  0  0  0  0  0  0  0  0  0
    2.1122   14.8057   -1.4358 O   0  0  0  0  0  0  0  0  0  0  0  0
    1.3704   13.4955    0.5021 C   0  0  1  0  0  0  0  0  0  0  0  0
    2.6121   12.8274    0.3642 O   0  0  0  0  0  0  0  0  0  0  0  0
    1.2186   13.9534    1.9515 C   0  0  2  0  0  0  0  0  0  0  0  0
    0.0964   13.3423    2.6953 N   0  0  0  0  0  0  0  0  0  0  0  0
   -1.2500   13.3364    2.4318 C   0  0  0  0  0  0  0  0  0  0  0  0
   -1.9734   12.7758    3.3663 N   0  0  0  0  0  0  0  0  0  0  0  0
   -1.0414   12.3549    4.3102 C   0  0  0  0  0  0  0  0  0  0  0  0
   -1.2186   11.7119    5.5772 C   0  0  0  0  0  0  0  0  0  0  0  0
   -2.2767   11.4217    6.1317 O   0  0  0  0  0  0  0  0  0  0  0  0
   -0.0038   11.4226    6.2133 N   0  0  0  0  0  0  0  0  0  0  0  0
    1.2388   11.6950    5.6613 C   0  0  0  0  0  0  0  0  0  0  0  0
    2.3251   11.2741    6.3190 N   0  0  0  0  0  0  0  0  0  0  0  0
    1.3993   12.3415    4.4951 N   0  0  0  0  0  0  0  0  0  0  0  0
    0.2283   12.6495    3.8734 C   0  0  0  0  0  0  0  0  0  0  0  0
  1  2  2  0  0  0  0
  1  4  1  0  0  0  0
  1  3  1  0  0  0  0
  5  1  1  0  0  0  0
  6  7  2  1  0  0  0
  6  9  1  0  0  0  0
  6  5  1  0  0  0  0
  6  8  1  0  0  0  0
 10 11  2  1  0  0  0
 10 12  1  0  0  0  0
 10 13  1  0  0  0  0
 10  9  1  0  0  0  0
 13 14  1  0  0  0  0
 15 14  1  6  0  0  0
 15 16  1  0  0  0  0
 17 19  1  0  0  0  0
 17 15  1  0  0  0  0
 17 18  1  6  0  0  0
 19 21  1  0  0  0  0
 19 20  1  1  0  0  0
 21 16  1  0  0  0  0
 21 22  1  6  0  0  0
 22 32  1  0  0  0  0
 23 22  1  0  0  0  0
 23 24  2  0  0  0  0
 24 25  1  0  0  0  0
 25 26  1  0  0  0  0
 26 27  2  0  0  0  0
 26 28  1  0  0  0  0
 29 28  1  0  0  0  0
 29 30  1  0  0  0  0
 31 29  2  0  0  0  0
 32 25  2  0  0  0  0
 32 31  1  0  0  0  0
M  END
>  <CHROM.1>
80.67513138,51.86804239,-51.25936239,-163.91458499,-81.45451943,-62.58830811
136.59154936,-56.03175587,49.28535501,66.29433517,2.99699248,16.40696135
2.35053238,-0.55578988,0.76648713,2.02780965

>  <Name>
lig.pdb

>  <RI>
3.03081e+07

>  <Rbt.Current_Directory>
/home/itssahil/PROJECTS/Mol_Feturizer/New_Systems/rnas/5lwj

>  <Rbt.Executable>
rbdock ($Id: //depot/dev/client3/rdock/2013.1/src/exe/rbdock.cxx#4 $)

>  <Rbt.Library>
libRbt.so (2013.1, Build901 2013/11/27)

>  <Rbt.Parameter_File>
/export/apps/rDock/src/rDock_2013.1_src/data/scripts/dock_solv.prm

>  <Rbt.Receptor>
prm/pocket_docking_2.prm

>  <SCORE>
-49.1598

>  <SCORE.INTER>
-45.6899

>  <SCORE.INTER.CONST>
1

>  <SCORE.INTER.POLAR>
-5.4159

>  <SCORE.INTER.ROT>
8

>  <SCORE.INTER.SOLV>
17.2787

>  <SCORE.INTER.VDW>
-27.0998

>  <SCORE.INTER.norm>
-1.42781

>  <SCORE.INTRA>
-3.574

>  <SCORE.INTRA.DIHEDRAL>
-1.60633

>  <SCORE.INTRA.DIHEDRAL.0>
10.9248

>  <SCORE.INTRA.POLAR>
0

>  <SCORE.INTRA.POLAR.0>
0

>  <SCORE.INTRA.REPUL>
0

>  <SCORE.INTRA.REPUL.0>
0

>  <SCORE.INTRA.SOLV>
0.142778

>  <SCORE.INTRA.SOLV.lig_0>
-51.4104

>  <SCORE.INTRA.VDW>
-2.84223

>  <SCORE.INTRA.VDW.0>
0.110327

>  <SCORE.INTRA.norm>
-0.111688

>  <SCORE.RESTR>
0.104088

>  <SCORE.RESTR.CAVITY>
0.104088

>  <SCORE.RESTR.norm>
0.00325274

>  <SCORE.SYSTEM>
0

>  <SCORE.SYSTEM.CONST>
0

>  <SCORE.SYSTEM.DIHEDRAL>
0

>  <SCORE.SYSTEM.SOLV>
0

>  <SCORE.SYSTEM.norm>
0

>  <SCORE.heavy>
32

>  <SCORE.norm>
-1.53625

>  <RMSD>
1.647

$$$$
lig.pdb
 OpenBabel11021811523D
libRbt.so/2013.1/901 2013/11/27
 32 34  0  0  0  0  0  0  0  0999 V2000
    7.4037   21.0647    1.1364 P   0  0  0  0  0  0  0  0  0  0  0  0
    8.4905   20.2640    1.8115 O   0  0  0  0  0  0  0  0  0  0  0  0
    7.4184   22.4674    1.9517 O   0  0  0  0  0  0  0  0  0  0  0  0
    7.6107   21.4948   -0.2945 O   0  0  0  0  0  0  0  0  0  0  0  0
    6.2243   20.2212    1.1360 O   0  0  0  0  0  0  0  0  0  0  0  0
    5.5823   20.2680    2.4706 P   0  0  1  0  0  0  0  0  0  0  0  0
    6.5951   19.8883    3.4836 O   0  0  0  0  0  0  0  0  0  0  0  0
    5.1045   21.6408    2.7563 O   0  0  0  0  0  0  0  0  0  0  0  0
    4.4395   19.3211    2.5024 O   0  0  0  0  0  0  0  0  0  0  0  0
    4.1836   18.3433    1.4182 P   0  0  1  0  0  0  0  0  0  0  0  0
    4.2353   18.9040    0.0527 O   0  0  0  0  0  0  0  0  0  0  0  0
    4.8581   17.0360    1.5798 O   0  0  0  0  0  0  0  0  0  0  0  0
    2.6091   18.0155    1.5976 O   0  0  0  0  0  0  0  0  0  0  0  0
    1.8942   17.2065    0.6827 C   0  0  0  0  0  0  0  0  0  0  0  0
    2.1643   15.7088    0.8834 C   0  0  1  0  0  0  0  0  0  0  0  0
    1.4781   15.2353    2.0242 O   0  0  0  0  0  0  0  0  0  0  0  0
    1.5694   14.8177   -0.2210 C   0  0  1  0  0  0  0  0  0  0  0  0
    2.2925   14.7936   -1.4404 O   0  0  0  0  0  0  0  0  0  0  0  0
    1.4838   13.4434    0.4425 C   0  0  1  0  0  0  0  0  0  0  0  0
    2.6502   12.6699    0.2227 O   0  0  0  0  0  0  0  0  0  0  0  0
    1.4194   13.8238    1.9205 C   0  0  2  0  0  0  0  0  0  0  0  0
    0.2654   13.2777    2.6661 N   0  0  0  0  0  0  0  0  0  0  0  0
   -1.0756   13.3024    2.3771 C   0  0  0  0  0  0  0  0  0  0  0  0
   -1.8330   12.8022    3.3189 N   0  0  0  0  0  0  0  0  0  0  0  0
   -0.9320   12.3915    4.2967 C   0  0  0  0  0  0  0  0  0  0  0  0
   -1.1521   11.8059    5.5846 C   0  0  0  0  0  0  0  0  0  0  0  0
   -2.2287   11.5707    6.1295 O   0  0  0  0  0  0  0  0  0  0  0  0
    0.0412   11.5054    6.2551 N   0  0  0  0  0  0  0  0  0  0  0  0
    1.3016   11.7173    5.7169 C   0  0  0  0  0  0  0  0  0  0  0  0
    2.3620   11.2904    6.4118 N   0  0  0  0  0  0  0  0  0  0  0  0
    1.5034   12.3111    4.5292 N   0  0  0  0  0  0  0  0  0  0  0  0
    0.3541   12.6293    3.8732 C   0  0  0  0  0  0  0  0  0  0  0  0
  1  2  2  0  0  0  0
  1  4  1  0  0  0  0
  1  3  1  0  0  0  0
  5  1  1  0  0  0  0
  6  7  2  1  0  0  0
  6  9  1  0  0  0  0
  6  5  1  0  0  0  0
  6  8  1  0  0  0  0
 10 11  2  6  0  0  0
 10 12  1  0  0  0  0
 10 13  1  0  0  0  0
 10  9  1  0  0  0  0
 13 14  1  0  0  0  0
 15 14  1  6  0  0  0
 15 16  1  0  0  0  0
 17 19  1  0  0  0  0
 17 15  1  0  0  0  0
 17 18  1  6  0  0  0
 19 21  1  0  0  0  0
 19 20  1  1  0  0  0
 21 16  1  0  0  0  0
 21 22  1  6  0  0  0
 22 32  1  0  0  0  0
 23 22  1  0  0  0  0
 23 24  2  0  0  0  0
 24 25  1  0  0  0  0
 25 26  1  0  0  0  0
 26 27  2  0  0  0  0
 26 28  1  0  0  0  0
 29 28  1  0  0  0  0
 29 30  1  0  0  0  0
 31 29  2  0  0  0  0
 32 25  2  0  0  0  0
 32 31  1  0  0  0  0
M  END
>  <CHROM.1>
79.39400920,9.57049747,-55.21629094,173.97839632,-47.72429205,77.78248444
75.38946963,-59.98010404,-63.78583270,73.73807433,3.19254634,16.51478335
2.28923406,-0.36402950,0.87726257,1.73127249

>  <Name>
lig.pdb

>  <RI>
3.03081e+07

>  <Rbt.Current_Directory>
/home/itssahil/PROJECTS/Mol_Feturizer/New_Systems/rnas/5lwj

>  <Rbt.Executable>
rbdock ($Id: //depot/dev/client3/rdock/2013.1/src/exe/rbdock.cxx#4 $)

>  <Rbt.Library>
libRbt.so (2013.1, Build901 2013/11/27)

>  <Rbt.Parameter_File>
/export/apps/rDock/src/rDock_2013.1_src/data/scripts/dock_solv.prm

>  <Rbt.Receptor>
prm/pocket_docking_2.prm

>  <SCORE>
-53.1421

>  <SCORE.INTER>
-50.0374

>  <SCORE.INTER.CONST>
1

>  <SCORE.INTER.POLAR>
-6.34874

>  <SCORE.INTER.ROT>
8

>  <SCORE.INTER.SOLV>
17.4173

>  <SCORE.INTER.VDW>
-26.9349

>  <SCORE.INTER.norm>
-1.56367

>  <SCORE.INTRA>
-3.25407

>  <SCORE.INTRA.DIHEDRAL>
-2.00389

>  <SCORE.INTRA.DIHEDRAL.0>
10.9248

>  <SCORE.INTRA.POLAR>
0

>  <SCORE.INTRA.POLAR.0>
0

>  <SCORE.INTRA.REPUL>
0

>  <SCORE.INTRA.REPUL.0>
0

>  <SCORE.INTRA.SOLV>
0.157824

>  <SCORE.INTRA.SOLV.lig_0>
-51.4104

>  <SCORE.INTRA.VDW>
-2.33104

>  <SCORE.INTRA.VDW.0>
0.110327

>  <SCORE.INTRA.norm>
-0.10169

>  <SCORE.RESTR>
0.149394

>  <SCORE.RESTR.CAVITY>
0.149394

>  <SCORE.RESTR.norm>
0.00466856

>  <SCORE.SYSTEM>
0

>  <SCORE.SYSTEM.CONST>
0

>  <SCORE.SYSTEM.DIHEDRAL>
0

>  <SCORE.SYSTEM.SOLV>
0

>  <SCORE.SYSTEM.norm>
0

>  <SCORE.heavy>
32

>  <SCORE.norm>
-1.66069

>  <RMSD>
1.699

$$$$
lig.pdb
 OpenBabel11021811523D
libRbt.so/2013.1/901 2013/11/27
 32 34  0  0  0  0  0  0  0  0999 V2000
    6.3364   20.2782    2.8102 P   0  0  0  0  0  0  0  0  0  0  0  0
    6.1729   21.6872    2.2943 O   0  0  0  0  0  0  0  0  0  0  0  0
    7.2024   19.5562    1.6434 O   0  0  0  0  0  0  0  0  0  0  0  0
    7.1716   20.0576    4.0467 O   0  0  0  0  0  0  0  0  0  0  0  0
    5.0027   19.8128    3.1376 O   0  0  0  0  0  0  0  0  0  0  0  0
    4.3418   19.3045    1.9127 P   0  0  1  0  0  0  0  0  0  0  0  0
    2.9073   19.0908    2.2169 O   0  0  0  0  0  0  0  0  0  0  0  0
    4.4612   20.2991    0.8213 O   0  0  0  0  0  0  0  0  0  0  0  0
    4.9785   18.0281    1.5015 O   0  0  0  0  0  0  0  0  0  0  0  0
    4.9989   17.5642    0.0939 P   0  0  1  0  0  0  0  0  0  0  0  0
    4.0048   18.2111   -0.7865 O   0  0  0  0  0  0  0  0  0  0  0  0
    6.3469   17.4108   -0.4972 O   0  0  0  0  0  0  0  0  0  0  0  0
    4.4285   16.0540    0.2076 O   0  0  0  0  0  0  0  0  0  0  0  0
    3.4578   15.6805    1.1672 C   0  0  0  0  0  0  0  0  0  0  0  0
    2.6343   14.4612    0.7296 C   0  0  1  0  0  0  0  0  0  0  0  0
    1.9822   13.8848    1.8427 O   0  0  0  0  0  0  0  0  0  0  0  0
    1.4398   14.8117   -0.1749 C   0  0  1  0  0  0  0  0  0  0  0  0
    1.7606   15.0913   -1.5273 O   0  0  0  0  0  0  0  0  0  0  0  0
    0.5168   13.6027   -0.0242 C   0  0  1  0  0  0  0  0  0  0  0  0
    0.7692   12.6118   -1.0048 O   0  0  0  0  0  0  0  0  0  0  0  0
    0.9442   13.0628    1.3393 C   0  0  2  0  0  0  0  0  0  0  0  0
   -0.1436   12.9049    2.3281 N   0  0  0  0  0  0  0  0  0  0  0  0
   -1.4572   13.2976    2.2793 C   0  0  0  0  0  0  0  0  0  0  0  0
   -2.1201   13.0796    3.3856 N   0  0  0  0  0  0  0  0  0  0  0  0
   -1.1893   12.4754    4.2255 C   0  0  0  0  0  0  0  0  0  0  0  0
   -1.3008   12.0386    5.5844 C   0  0  0  0  0  0  0  0  0  0  0  0
   -2.2710   12.1466    6.3317 O   0  0  0  0  0  0  0  0  0  0  0  0
   -0.1256   11.4420    6.0607 N   0  0  0  0  0  0  0  0  0  0  0  0
    1.0127   11.2596    5.2899 C   0  0  0  0  0  0  0  0  0  0  0  0
    2.0332   10.5810    5.8262 N   0  0  0  0  0  0  0  0  0  0  0  0
    1.1289   11.7142    4.0315 N   0  0  0  0  0  0  0  0  0  0  0  0
    0.0029   12.3159    3.5598 C   0  0  0  0  0  0  0  0  0  0  0  0
  1  2  2  0  0  0  0
  1  4  1  0  0  0  0
  1  3  1  0  0  0  0
  5  1  1  0  0  0  0
  6  7  2  1  0  0  0
  6  9  1  0  0  0  0
  6  5  1  0  0  0  0
  6  8  1  0  0  0  0
 10 11  2  6  0  0  0
 10 12  1  0  0  0  0
 10 13  1  0  0  0  0
 10  9  1  0  0  0  0
 13 14  1  0  0  0  0
 15 14  1  1  0  0  0
 15 16  1  0  0  0  0
 17 19  1  0  0  0  0
 17 15  1  0  0  0  0
 17 18  1  6  0  0  0
 19 21  1  0  0  0  0
 19 20  1  6  0  0  0
 21 16  1  0  0  0  0
 21 22  1  1  0  0  0
 22 32  1  0  0  0  0
 23 22  1  0  0  0  0
 23 24  2  0  0  0  0
 24 25  1  0  0  0  0
 25 26  1  0  0  0  0
 26 27  2  0  0  0  0
 26 28  1  0  0  0  0
 29 28  1  0  0  0  0
 29 30  1  0  0  0  0
 31 29  2  0  0  0  0
 32 25  2  0  0  0  0
 32 31  1  0  0  0  0
M  END
>  <CHROM.1>
83.45761558,-152.85090288,-168.90828490,33.23581358,-18.39423894,154.63639369
162.34898633,-55.41477578,-174.97915389,116.14147560,2.82424274,15.92673493
2.09394468,-0.19832179,0.89851133,1.53650388

>  <Name>
lig.pdb

>  <RI>
3.03081e+07

>  <Rbt.Current_Directory>
/home/itssahil/PROJECTS/Mol_Feturizer/New_Systems/rnas/5lwj

>  <Rbt.Executable>
rbdock ($Id: //depot/dev/client3/rdock/2013.1/src/exe/rbdock.cxx#4 $)

>  <Rbt.Library>
libRbt.so (2013.1, Build901 2013/11/27)

>  <Rbt.Parameter_File>
/export/apps/rDock/src/rDock_2013.1_src/data/scripts/dock_solv.prm

>  <Rbt.Receptor>
prm/pocket_docking_2.prm

>  <SCORE>
-55.7924

>  <SCORE.INTER>
-53.8849

>  <SCORE.INTER.CONST>
1

>  <SCORE.INTER.POLAR>
-6.58362

>  <SCORE.INTER.ROT>
8

>  <SCORE.INTER.SOLV>
18.5828

>  <SCORE.INTER.VDW>
-29.1055

>  <SCORE.INTER.norm>
-1.6839

>  <SCORE.INTRA>
-2.26047

>  <SCORE.INTRA.DIHEDRAL>
1.18808

>  <SCORE.INTRA.DIHEDRAL.0>
10.9248

>  <SCORE.INTRA.POLAR>
0

>  <SCORE.INTRA.POLAR.0>
0

>  <SCORE.INTRA.REPUL>
0

>  <SCORE.INTRA.REPUL.0>
0

>  <SCORE.INTRA.SOLV>
0.580088

>  <SCORE.INTRA.SOLV.lig_0>
-51.4104

>  <SCORE.INTRA.VDW>
-3.14456

>  <SCORE.INTRA.VDW.0>
0.110327

>  <SCORE.INTRA.norm>
-0.0706398

>  <SCORE.RESTR>
0.353017

>  <SCORE.RESTR.CAVITY>
0.353017

>  <SCORE.RESTR.norm>
0.0110318

>  <SCORE.SYSTEM>
0

>  <SCORE.SYSTEM.CONST>
0

>  <SCORE.SYSTEM.DIHEDRAL>
0

>  <SCORE.SYSTEM.SOLV>
0

>  <SCORE.SYSTEM.norm>
0

>  <SCORE.heavy>
32

>  <SCORE.norm>
-1.74351

>  <RMSD>
1.711

$$$$
lig.pdb
 OpenBabel11021811523D
libRbt.so/2013.1/901 2013/11/27
 32 34  0  0  0  0  0  0  0  0999 V2000
    5.3847   21.1243    3.4662 P   0  0  0  0  0  0  0  0  0  0  0  0
    4.3358   22.0362    4.0545 O   0  0  0  0  0  0  0  0  0  0  0  0
    6.7699   21.9152    3.7634 O   0  0  0  0  0  0  0  0  0  0  0  0
    5.6104   19.7788    4.1094 O   0  0  0  0  0  0  0  0  0  0  0  0
    4.9643   20.8537    2.1050 O   0  0  0  0  0  0  0  0  0  0  0  0
    3.8298   19.9007    2.1180 P   0  0  1  0  0  0  0  0  0  0  0  0
    4.3508   18.5680    2.5033 O   0  0  0  0  0  0  0  0  0  0  0  0
    2.8179   20.3295    3.1114 O   0  0  0  0  0  0  0  0  0  0  0  0
    3.2162   19.8450    0.7674 O   0  0  0  0  0  0  0  0  0  0  0  0
    3.7639   19.0039   -0.3233 P   0  0  1  0  0  0  0  0  0  0  0  0
    3.4636   19.4846   -1.6873 O   0  0  0  0  0  0  0  0  0  0  0  0
    5.1539   18.5386   -0.1197 O   0  0  0  0  0  0  0  0  0  0  0  0
    2.8653   17.6617   -0.2244 O   0  0  0  0  0  0  0  0  0  0  0  0
    2.4216   17.1358    1.0122 C   0  0  0  0  0  0  0  0  0  0  0  0
    2.5017   15.6038    1.0645 C   0  0  1  0  0  0  0  0  0  0  0  0
    1.7709   15.1120    2.1693 O   0  0  0  0  0  0  0  0  0  0  0  0
    1.7892   14.9050   -0.1068 C   0  0  1  0  0  0  0  0  0  0  0  0
    2.4929   14.9084   -1.3377 O   0  0  0  0  0  0  0  0  0  0  0  0
    1.5360   13.4947    0.4252 C   0  0  1  0  0  0  0  0  0  0  0  0
    2.5931   12.6061    0.1090 O   0  0  0  0  0  0  0  0  0  0  0  0
    1.5330   13.7356    1.9337 C   0  0  2  0  0  0  0  0  0  0  0  0
    0.3256   13.2690    2.6480 N   0  0  0  0  0  0  0  0  0  0  0  0
   -1.0031   13.5104    2.4058 C   0  0  0  0  0  0  0  0  0  0  0  0
   -1.8084   13.0117    3.3077 N   0  0  0  0  0  0  0  0  0  0  0  0
   -0.9587   12.3699    4.2037 C   0  0  0  0  0  0  0  0  0  0  0  0
   -1.2387   11.6731    5.4227 C   0  0  0  0  0  0  0  0  0  0  0  0
   -2.3291   11.5251    5.9708 O   0  0  0  0  0  0  0  0  0  0  0  0
   -0.0889   11.1358    6.0169 N   0  0  0  0  0  0  0  0  0  0  0  0
    1.1804   11.2349    5.4672 C   0  0  0  0  0  0  0  0  0  0  0  0
    2.1814   10.5885    6.0753 N   0  0  0  0  0  0  0  0  0  0  0  0
    1.4449   11.9305    4.3491 N   0  0  0  0  0  0  0  0  0  0  0  0
    0.3414   12.4776    3.7699 C   0  0  0  0  0  0  0  0  0  0  0  0
  1  2  2  0  0  0  0
  1  4  1  0  0  0  0
  1  3  1  0  0  0  0
  5  1  1  0  0  0  0
  6  7  2  1  0  0  0
  6  9  1  0  0  0  0
  6  5  1  0  0  0  0
  6  8  1  0  0  0  0
 10 11  2  6  0  0  0
 10 12  1  0  0  0  0
 10 13  1  0  0  0  0
 10  9  1  0  0  0  0
 13 14  1  0  0  0  0
 15 14  1  6  0  0  0
 15 16  1  0  0  0  0
 17 19  1  0  0  0  0
 17 15  1  0  0  0  0
 17 18  1  6  0  0  0
 19 21  1  0  0  0  0
 19 20  1  1  0  0  0
 21 16  1  0  0  0  0
 21 22  1  6  0  0  0
 22 32  1  0  0  0  0
 23 22  1  0  0  0  0
 23 24  2  0  0  0  0
 24 25  1  0  0  0  0
 25 26  1  0  0  0  0
 26 27  2  0  0  0  0
 26 28  1  0  0  0  0
 29 28  1  0  0  0  0
 29 30  1  0  0  0  0
 31 29  2  0  0  0  0
 32 25  2  0  0  0  0
 32 31  1  0  0  0  0
M  END
>  <CHROM.1>
-74.67090309,82.52743323,-71.64104736,-36.02215332,-153.74692122,-139.75748242
-166.35239682,-51.08713063,-137.03058138,72.29421388,2.53973698,16.46958125
2.33946421,-0.19233105,1.07019887,1.54052068

>  <Name>
lig.pdb

>  <RI>
0

>  <Rbt.Current_Directory>
/home/itssahil/PROJECTS/Mol_Feturizer/New_Systems/rnas/5lwj

>  <Rbt.Executable>
rbdock ($Id: //depot/dev/client3/rdock/2013.1/src/exe/rbdock.cxx#4 $)

>  <Rbt.Library>
libRbt.so (2013.1, Build901 2013/11/27)

>  <Rbt.Parameter_File>
/export/apps/rDock/src/rDock_2013.1_src/data/scripts/dock_solv.prm

>  <Rbt.Receptor>
prm/pocket_docking_4.prm

>  <SCORE>
-51.376

>  <SCORE.INTER>
-54.2242

>  <SCORE.INTER.CONST>
1

>  <SCORE.INTER.POLAR>
-7.16579

>  <SCORE.INTER.ROT>
8

>  <SCORE.INTER.SOLV>
16.9993

>  <SCORE.INTER.VDW>
-26.8633

>  <SCORE.INTER.norm>
-1.69451

>  <SCORE.INTRA>
2.84828

>  <SCORE.INTRA.DIHEDRAL>
7.40336

>  <SCORE.INTRA.DIHEDRAL.0>
10.9248

>  <SCORE.INTRA.POLAR>
-0.412363

>  <SCORE.INTRA.POLAR.0>
0

>  <SCORE.INTRA.REPUL>
0

>  <SCORE.INTRA.REPUL.0>
0

>  <SCORE.INTRA.SOLV>
-0.0288332

>  <SCORE.INTRA.SOLV.lig_0>
-51.4104

>  <SCORE.INTRA.VDW>
0.563052

>  <SCORE.INTRA.VDW.0>
0.110327

>  <SCORE.INTRA.norm>
0.0890086

>  <SCORE.RESTR>
0

>  <SCORE.RESTR.CAVITY>
0

>  <SCORE.RESTR.norm>
0

>  <SCORE.SYSTEM>
0

>  <SCORE.SYSTEM.CONST>
0

>  <SCORE.SYSTEM.DIHEDRAL>
0

>  <SCORE.SYSTEM.SOLV>
0

>  <SCORE.SYSTEM.norm>
0

>  <SCORE.heavy>
32

>  <SCORE.norm>
-1.6055

>  <RMSD>
1.735

$$$$
lig.pdb
 OpenBabel11021811523D
libRbt.so/2013.1/901 2013/11/27
 32 34  0  0  0  0  0  0  0  0999 V2000
    7.9399   20.5135    3.3936 P   0  0  0  0  0  0  0  0  0  0  0  0
    8.1537   19.7202    4.6596 O   0  0  0  0  0  0  0  0  0  0  0  0
    7.3256   21.9142    3.9352 O   0  0  0  0  0  0  0  0  0  0  0  0
    9.1496   20.9491    2.6049 O   0  0  0  0  0  0  0  0  0  0  0  0
    7.1696   19.6602    2.5097 O   0  0  0  0  0  0  0  0  0  0  0  0
    5.7278   19.7965    2.8233 P   0  0  1  0  0  0  0  0  0  0  0  0
    5.5741   19.7982    4.2972 O   0  0  0  0  0  0  0  0  0  0  0  0
    5.2092   21.0743    2.2820 O   0  0  0  0  0  0  0  0  0  0  0  0
    4.9832   18.6590    2.2273 O   0  0  0  0  0  0  0  0  0  0  0  0
    4.4914   18.6727    0.8292 P   0  0  1  0  0  0  0  0  0  0  0  0
    3.2808   19.4891    0.6058 O   0  0  0  0  0  0  0  0  0  0  0  0
    5.5405   18.8202   -0.2041 O   0  0  0  0  0  0  0  0  0  0  0  0
    3.9333   17.1665    0.6324 O   0  0  0  0  0  0  0  0  0  0  0  0
    3.2119   16.4873    1.6428 C   0  0  0  0  0  0  0  0  0  0  0  0
    2.7539   15.0899    1.2027 C   0  0  1  0  0  0  0  0  0  0  0  0
    2.0628   14.4466    2.2539 O   0  0  0  0  0  0  0  0  0  0  0  0
    1.6812   15.1075    0.0996 C   0  0  1  0  0  0  0  0  0  0  0  0
    2.1571   15.3733   -1.2093 O   0  0  0  0  0  0  0  0  0  0  0  0
    1.0264   13.7319    0.2223 C   0  0  1  0  0  0  0  0  0  0  0  0
    1.6459   12.7685   -0.6114 O   0  0  0  0  0  0  0  0  0  0  0  0
    1.3244   13.3831    1.6794 C   0  0  2  0  0  0  0  0  0  0  0  0
    0.1454   13.0409    2.5033 N   0  0  0  0  0  0  0  0  0  0  0  0
   -1.1811   13.3469    2.3328 C   0  0  0  0  0  0  0  0  0  0  0  0
   -1.9482   12.9605    3.3192 N   0  0  0  0  0  0  0  0  0  0  0  0
   -1.0756   12.3294    4.2006 C   0  0  0  0  0  0  0  0  0  0  0  0
   -1.3086   11.7348    5.4821 C   0  0  0  0  0  0  0  0  0  0  0  0
   -2.3645   11.6915    6.1101 O   0  0  0  0  0  0  0  0  0  0  0  0
   -0.1523   11.1689    6.0359 N   0  0  0  0  0  0  0  0  0  0  0  0
    1.0789   11.1524    5.3979 C   0  0  0  0  0  0  0  0  0  0  0  0
    2.0817   10.4880    5.9832 N   0  0  0  0  0  0  0  0  0  0  0  0
    1.3034   11.7536    4.2180 N   0  0  0  0  0  0  0  0  0  0  0  0
    0.1949   12.3274    3.6754 C   0  0  0  0  0  0  0  0  0  0  0  0
  1  2  2  0  0  0  0
  1  4  1  0  0  0  0
  1  3  1  0  0  0  0
  5  1  1  0  0  0  0
  6  7  2  1  0  0  0
  6  9  1  0  0  0  0
  6  5  1  0  0  0  0
  6  8  1  0  0  0  0
 10 11  2  6  0  0  0
 10 12  1  0  0  0  0
 10 13  1  0  0  0  0
 10  9  1  0  0  0  0
 13 14  1  0  0  0  0
 15 14  1  1  0  0  0
 15 16  1  0  0  0  0
 17 19  1  0  0  0  0
 17 15  1  0  0  0  0
 17 18  1  6  0  0  0
 19 21  1  0  0  0  0
 19 20  1  6  0  0  0
 21 16  1  0  0  0  0
 21 22  1  1  0  0  0
 22 32  1  0  0  0  0
 23 22  1  0  0  0  0
 23 24  2  0  0  0  0
 24 25  1  0  0  0  0
 25 26  1  0  0  0  0
 26 27  2  0  0  0  0
 26 28  1  0  0  0  0
 29 28  1  0  0  0  0
 29 30  1  0  0  0  0
 31 29  2  0  0  0  0
 32 25  2  0  0  0  0
 32 31  1  0  0  0  0
M  END
>  <CHROM.1>
84.69268056,-86.04473083,-42.94159909,40.42857866,-76.57831317,178.25793003
178.87518916,61.47060349,62.92371275,102.29673798,3.30990172,16.30483672
2.59423738,-0.33094747,0.82242406,1.86667911

>  <Name>
lig.pdb

>  <RI>
0

>  <Rbt.Current_Directory>
/home/itssahil/PROJECTS/Mol_Feturizer/New_Systems/rnas/5lwj

>  <Rbt.Executable>
rbdock ($Id: //depot/dev/client3/rdock/2013.1/src/exe/rbdock.cxx#4 $)

>  <Rbt.Library>
libRbt.so (2013.1, Build901 2013/11/27)

>  <Rbt.Parameter_File>
/export/apps/rDock/src/rDock_2013.1_src/data/scripts/dock_solv.prm

>  <Rbt.Receptor>
prm/pocket_docking_4.prm

>  <SCORE>
-56.9459

>  <SCORE.INTER>
-52.4586

>  <SCORE.INTER.CONST>
1

>  <SCORE.INTER.POLAR>
-5.92667

>  <SCORE.INTER.ROT>
8

>  <SCORE.INTER.SOLV>
22.9963

>  <SCORE.INTER.VDW>
-31.8156

>  <SCORE.INTER.norm>
-1.63933

>  <SCORE.INTRA>
-4.48734

>  <SCORE.INTRA.DIHEDRAL>
-4.88365

>  <SCORE.INTRA.DIHEDRAL.0>
10.9248

>  <SCORE.INTRA.POLAR>
0

>  <SCORE.INTRA.POLAR.0>
0

>  <SCORE.INTRA.REPUL>
0

>  <SCORE.INTRA.REPUL.0>
0

>  <SCORE.INTRA.SOLV>
-0.865288

>  <SCORE.INTRA.SOLV.lig_0>
-51.4104

>  <SCORE.INTRA.VDW>
-1.61287

>  <SCORE.INTRA.VDW.0>
0.110327

>  <SCORE.INTRA.norm>
-0.140229

>  <SCORE.RESTR>
0

>  <SCORE.RESTR.CAVITY>
0

>  <SCORE.RESTR.norm>
0

>  <SCORE.SYSTEM>
0

>  <SCORE.SYSTEM.CONST>
0

>  <SCORE.SYSTEM.DIHEDRAL>
0

>  <SCORE.SYSTEM.SOLV>
0

>  <SCORE.SYSTEM.norm>
0

>  <SCORE.heavy>
32

>  <SCORE.norm>
-1.77956

>  <RMSD>
1.740

$$$$
lig.pdb
 OpenBabel11021811523D
libRbt.so/2013.1/901 2013/11/27
 32 34  0  0  0  0  0  0  0  0999 V2000
    5.7685   20.4357    1.8962 P   0  0  0  0  0  0  0  0  0  0  0  0
    7.2070   19.9871    1.9821 O   0  0  0  0  0  0  0  0  0  0  0  0
    5.0161   19.4677    2.9588 O   0  0  0  0  0  0  0  0  0  0  0  0
    5.4167   21.8200    2.3809 O   0  0  0  0  0  0  0  0  0  0  0  0
    5.4204   20.4020    0.4889 O   0  0  0  0  0  0  0  0  0  0  0  0
    4.2130   19.5645    0.2981 P   0  0  1  0  0  0  0  0  0  0  0  0
    3.0836   20.2153    1.0030 O   0  0  0  0  0  0  0  0  0  0  0  0
    3.8883   19.4627   -1.1437 O   0  0  0  0  0  0  0  0  0  0  0  0
    4.4583   18.2104    0.8550 O   0  0  0  0  0  0  0  0  0  0  0  0
    5.2542   17.1857    0.1386 P   0  0  1  0  0  0  0  0  0  0  0  0
    4.7113   16.7861   -1.1757 O   0  0  0  0  0  0  0  0  0  0  0  0
    6.7191   17.3939    0.1692 O   0  0  0  0  0  0  0  0  0  0  0  0
    5.0118   15.8575    1.0307 O   0  0  0  0  0  0  0  0  0  0  0  0
    3.8028   15.6227    1.7276 C   0  0  0  0  0  0  0  0  0  0  0  0
    2.9990   14.4553    1.1380 C   0  0  1  0  0  0  0  0  0  0  0  0
    2.2648   13.8030    2.1537 O   0  0  0  0  0  0  0  0  0  0  0  0
    1.8743   14.8956    0.1846 C   0  0  1  0  0  0  0  0  0  0  0  0
    2.2916   15.2765   -1.1157 O   0  0  0  0  0  0  0  0  0  0  0  0
    0.9303   13.6935    0.1739 C   0  0  1  0  0  0  0  0  0  0  0  0
    1.2401   12.7796   -0.8634 O   0  0  0  0  0  0  0  0  0  0  0  0
    1.2559   13.0403    1.5159 C   0  0  2  0  0  0  0  0  0  0  0  0
    0.1002   12.8218    2.4117 N   0  0  0  0  0  0  0  0  0  0  0  0
   -1.2162   13.1831    2.2735 C   0  0  0  0  0  0  0  0  0  0  0  0
   -1.9558   12.9113    3.3175 N   0  0  0  0  0  0  0  0  0  0  0  0
   -1.0760   12.3025    4.2075 C   0  0  0  0  0  0  0  0  0  0  0  0
   -1.2795   11.8172    5.5391 C   0  0  0  0  0  0  0  0  0  0  0  0
   -2.3067   11.8756    6.2118 O   0  0  0  0  0  0  0  0  0  0  0  0
   -0.1283   11.2344    6.0859 N   0  0  0  0  0  0  0  0  0  0  0  0
    1.0704   11.1066    5.4004 C   0  0  0  0  0  0  0  0  0  0  0  0
    2.0650   10.4360    5.9925 N   0  0  0  0  0  0  0  0  0  0  0  0
    1.2703   11.6063    4.1700 N   0  0  0  0  0  0  0  0  0  0  0  0
    0.1677   12.1954    3.6317 C   0  0  0  0  0  0  0  0  0  0  0  0
  1  2  2  0  0  0  0
  1  4  1  0  0  0  0
  1  3  1  0  0  0  0
  5  1  1  0  0  0  0
  6  7  2  1  0  0  0
  6  9  1  0  0  0  0
  6  5  1  0  0  0  0
  6  8  1  0  0  0  0
 10 11  2  6  0  0  0
 10 12  1  0  0  0  0
 10 13  1  0  0  0  0
 10  9  1  0  0  0  0
 13 14  1  0  0  0  0
 15 14  1  1  0  0  0
 15 16  1  0  0  0  0
 17 19  1  0  0  0  0
 17 15  1  0  0  0  0
 17 18  1  6  0  0  0
 19 21  1  0  0  0  0
 19 20  1  6  0  0  0
 21 16  1  0  0  0  0
 21 22  1  1  0  0  0
 22 32  1  0  0  0  0
 23 22  1  0  0  0  0
 23 24  2  0  0  0  0
 24 25  1  0  0  0  0
 25 26  1  0  0  0  0
 26 27  2  0  0  0  0
 26 28  1  0  0  0  0
 29 28  1  0  0  0  0
 29 30  1  0  0  0  0
 31 29  2  0  0  0  0
 32 25  2  0  0  0  0
 32 31  1  0  0  0  0
M  END
>  <CHROM.1>
125.30531756,-78.12628746,63.98999358,31.76385741,-60.77221457,111.44137445
148.88324272,61.81279282,78.12770295,119.69448246,2.86430009,15.87216173
1.83975808,-0.21931844,0.97408902,1.42396293

>  <Name>
lig.pdb

>  <RI>
3.03081e+07

>  <Rbt.Current_Directory>
/home/itssahil/PROJECTS/Mol_Feturizer/New_Systems/rnas/5lwj

>  <Rbt.Executable>
rbdock ($Id: //depot/dev/client3/rdock/2013.1/src/exe/rbdock.cxx#4 $)

>  <Rbt.Library>
libRbt.so (2013.1, Build901 2013/11/27)

>  <Rbt.Parameter_File>
/export/apps/rDock/src/rDock_2013.1_src/data/scripts/dock_solv.prm

>  <Rbt.Receptor>
prm/pocket_docking_2.prm

>  <SCORE>
-49.5937

>  <SCORE.INTER>
-51.3184

>  <SCORE.INTER.CONST>
1

>  <SCORE.INTER.POLAR>
-6.03776

>  <SCORE.INTER.ROT>
8

>  <SCORE.INTER.SOLV>
16.1988

>  <SCORE.INTER.VDW>
-28.4193

>  <SCORE.INTER.norm>
-1.6037

>  <SCORE.INTRA>
1.36218

>  <SCORE.INTRA.DIHEDRAL>
6.72461

>  <SCORE.INTRA.DIHEDRAL.0>
10.9248

>  <SCORE.INTRA.POLAR>
-0.000369304

>  <SCORE.INTRA.POLAR.0>
0

>  <SCORE.INTRA.REPUL>
0.00624865

>  <SCORE.INTRA.REPUL.0>
0

>  <SCORE.INTRA.SOLV>
2.31779

>  <SCORE.INTRA.SOLV.lig_0>
-51.4104

>  <SCORE.INTRA.VDW>
-3.189

>  <SCORE.INTRA.VDW.0>
0.110327

>  <SCORE.INTRA.norm>
0.0425682

>  <SCORE.RESTR>
0.362506

>  <SCORE.RESTR.CAVITY>
0.362506

>  <SCORE.RESTR.norm>
0.0113283

>  <SCORE.SYSTEM>
0

>  <SCORE.SYSTEM.CONST>
0

>  <SCORE.SYSTEM.DIHEDRAL>
0

>  <SCORE.SYSTEM.SOLV>
0

>  <SCORE.SYSTEM.norm>
0

>  <SCORE.heavy>
32

>  <SCORE.norm>
-1.5498

>  <RMSD>
1.742

$$$$
lig.pdb
 OpenBabel11021811523D
libRbt.so/2013.1/901 2013/11/27
 32 34  0  0  0  0  0  0  0  0999 V2000
    5.8875   20.6374    2.7688 P   0  0  0  0  0  0  0  0  0  0  0  0
    7.3249   20.2730    2.4878 O   0  0  0  0  0  0  0  0  0  0  0  0
    5.5102   19.6988    4.0374 O   0  0  0  0  0  0  0  0  0  0  0  0
    5.5822   22.0285    3.2655 O   0  0  0  0  0  0  0  0  0  0  0  0
    5.1835   20.4969    1.5088 O   0  0  0  0  0  0  0  0  0  0  0  0
    4.5974   19.1389    1.4186 P   0  0  1  0  0  0  0  0  0  0  0  0
    3.5768   19.0049    2.4846 O   0  0  0  0  0  0  0  0  0  0  0  0
    3.9467   18.9533    0.1008 O   0  0  0  0  0  0  0  0  0  0  0  0
    5.6679   18.1262    1.5978 O   0  0  0  0  0  0  0  0  0  0  0  0
    5.7865   16.9293    0.7316 P   0  0  1  0  0  0  0  0  0  0  0  0
    6.0721   17.2176   -0.6886 O   0  0  0  0  0  0  0  0  0  0  0  0
    6.5664   15.8116    1.3084 O   0  0  0  0  0  0  0  0  0  0  0  0
    4.2658   16.3789    0.6733 O   0  0  0  0  0  0  0  0  0  0  0  0
    3.7230   15.5434    1.6783 C   0  0  0  0  0  0  0  0  0  0  0  0
    2.8970   14.3857    1.1004 C   0  0  1  0  0  0  0  0  0  0  0  0
    2.1787   13.7348    2.1284 O   0  0  0  0  0  0  0  0  0  0  0  0
    1.7563   14.8401    0.1730 C   0  0  1  0  0  0  0  0  0  0  0  0
    2.1494   15.2236   -1.1341 O   0  0  0  0  0  0  0  0  0  0  0  0
    0.8020   13.6462    0.1767 C   0  0  1  0  0  0  0  0  0  0  0  0
    1.0819   12.7346   -0.8711 O   0  0  0  0  0  0  0  0  0  0  0  0
    1.1501   12.9839    1.5084 C   0  0  2  0  0  0  0  0  0  0  0  0
    0.0116   12.7710    2.4275 N   0  0  0  0  0  0  0  0  0  0  0  0
   -1.3053   13.1396    2.3163 C   0  0  0  0  0  0  0  0  0  0  0  0
   -2.0249   12.8710    3.3750 N   0  0  0  0  0  0  0  0  0  0  0  0
   -1.1306   12.2566    4.2464 C   0  0  0  0  0  0  0  0  0  0  0  0
   -1.3096   11.7714    5.5815 C   0  0  0  0  0  0  0  0  0  0  0  0
   -2.3226   11.8349    6.2751 O   0  0  0  0  0  0  0  0  0  0  0  0
   -0.1508   11.1819    6.1044 N   0  0  0  0  0  0  0  0  0  0  0  0
    1.0330   11.0481    5.3946 C   0  0  0  0  0  0  0  0  0  0  0  0
    2.0358   10.3715    5.9659 N   0  0  0  0  0  0  0  0  0  0  0  0
    1.2106   11.5477    4.1607 N   0  0  0  0  0  0  0  0  0  0  0  0
    0.1006   12.1432    3.6453 C   0  0  0  0  0  0  0  0  0  0  0  0
  1  2  2  0  0  0  0
  1  4  1  0  0  0  0
  1  3  1  0  0  0  0
  5  1  1  0  0  0  0
  6  7  2  1  0  0  0
  6  9  1  0  0  0  0
  6  5  1  0  0  0  0
  6  8  1  0  0  0  0
 10 11  2  6  0  0  0
 10 12  1  0  0  0  0
 10 13  1  0  0  0  0
 10  9  1  0  0  0  0
 13 14  1  0  0  0  0
 15 14  1  1  0  0  0
 15 16  1  0  0  0  0
 17 19  1  0  0  0  0
 17 15  1  0  0  0  0
 17 18  1  6  0  0  0
 19 21  1  0  0  0  0
 19 20  1  6  0  0  0
 21 16  1  0  0  0  0
 21 22  1  1  0  0  0
 22 32  1  0  0  0  0
 23 22  1  0  0  0  0
 23 24  2  0  0  0  0
 24 25  1  0  0  0  0
 25 26  1  0  0  0  0
 26 27  2  0  0  0  0
 26 28  1  0  0  0  0
 29 28  1  0  0  0  0
 29 30  1  0  0  0  0
 31 29  2  0  0  0  0
 32 25  2  0  0  0  0
 32 31  1  0  0  0  0
M  END
>  <CHROM.1>
93.26424909,-135.30073687,64.48427745,-83.93562667,63.98030332,-136.96608707
-169.12443817,-49.69904844,-178.38681163,119.98446656,2.96864738,15.76831980
2.25026232,-0.01198418,0.93084229,1.29831181

>  <Name>
lig.pdb

>  <RI>
0

>  <Rbt.Current_Directory>
/home/itssahil/PROJECTS/Mol_Feturizer/New_Systems/rnas/5lwj

>  <Rbt.Executable>
rbdock ($Id: //depot/dev/client3/rdock/2013.1/src/exe/rbdock.cxx#4 $)

>  <Rbt.Library>
libRbt.so (2013.1, Build901 2013/11/27)

>  <Rbt.Parameter_File>
/export/apps/rDock/src/rDock_2013.1_src/data/scripts/dock_solv.prm

>  <Rbt.Receptor>
prm/pocket_docking_3.prm

>  <SCORE>
-62.039

>  <SCORE.INTER>
-60.1643

>  <SCORE.INTER.CONST>
1

>  <SCORE.INTER.POLAR>
-7.03383

>  <SCORE.INTER.ROT>
8

>  <SCORE.INTER.SOLV>
19.748

>  <SCORE.INTER.VDW>
-32.1795

>  <SCORE.INTER.norm>
-1.88014

>  <SCORE.INTRA>
-1.95671

>  <SCORE.INTRA.DIHEDRAL>
3.47047

>  <SCORE.INTRA.DIHEDRAL.0>
10.9248

>  <SCORE.INTRA.POLAR>
-0.390138

>  <SCORE.INTRA.POLAR.0>
0

>  <SCORE.INTRA.REPUL>
0.00703558

>  <SCORE.INTRA.REPUL.0>
0

>  <SCORE.INTRA.SOLV>
0.413382

>  <SCORE.INTRA.SOLV.lig_0>
-51.4104

>  <SCORE.INTRA.VDW>
-2.60735

>  <SCORE.INTRA.VDW.0>
0.110327

>  <SCORE.INTRA.norm>
-0.0611473

>  <SCORE.RESTR>
0.0820074

>  <SCORE.RESTR.CAVITY>
0.0820074

>  <SCORE.RESTR.norm>
0.00256273

>  <SCORE.SYSTEM>
0

>  <SCORE.SYSTEM.CONST>
0

>  <SCORE.SYSTEM.DIHEDRAL>
0

>  <SCORE.SYSTEM.SOLV>
0

>  <SCORE.SYSTEM.norm>
0

>  <SCORE.heavy>
32

>  <SCORE.norm>
-1.93872

>  <RMSD>
1.765

$$$$
lig.pdb
 OpenBabel11021811523D
libRbt.so/2013.1/901 2013/11/27
 32 34  0  0  0  0  0  0  0  0999 V2000
    7.1528   20.8000    3.5759 P   0  0  0  0  0  0  0  0  0  0  0  0
    6.4993   21.5558    4.7072 O   0  0  0  0  0  0  0  0  0  0  0  0
    7.8097   21.9791    2.6755 O   0  0  0  0  0  0  0  0  0  0  0  0
    8.3291   19.9098    3.8906 O   0  0  0  0  0  0  0  0  0  0  0  0
    6.1282   19.9332    3.0269 O   0  0  0  0  0  0  0  0  0  0  0  0
    6.1227   20.0481    1.5496 P   0  0  1  0  0  0  0  0  0  0  0  0
    5.6499   21.4068    1.1941 O   0  0  0  0  0  0  0  0  0  0  0  0
    7.4935   19.8598    1.0206 O   0  0  0  0  0  0  0  0  0  0  0  0
    5.2175   19.0199    0.9777 O   0  0  0  0  0  0  0  0  0  0  0  0
    3.7670   18.9776    1.2796 P   0  0  1  0  0  0  0  0  0  0  0  0
    3.4170   19.2741    2.6836 O   0  0  0  0  0  0  0  0  0  0  0  0
    2.8968   19.6237    0.2718 O   0  0  0  0  0  0  0  0  0  0  0  0
    3.4242   17.4003    1.1639 O   0  0  0  0  0  0  0  0  0  0  0  0
    4.2700   16.3995    1.6985 C   0  0  0  0  0  0  0  0  0  0  0  0
    3.7591   14.9806    1.4123 C   0  0  1  0  0  0  0  0  0  0  0  0
    2.6577   14.6789    2.2443 O   0  0  0  0  0  0  0  0  0  0  0  0
    3.1383   14.8150    0.0141 C   0  0  1  0  0  0  0  0  0  0  0  0
    4.0636   14.7068   -1.0547 O   0  0  0  0  0  0  0  0  0  0  0  0
    2.2596   13.5733    0.1630 C   0  0  1  0  0  0  0  0  0  0  0  0
    2.9524   12.3844   -0.1741 O   0  0  0  0  0  0  0  0  0  0  0  0
    1.9879   13.5727    1.6662 C   0  0  2  0  0  0  0  0  0  0  0  0
    0.5611   13.5464    2.0527 N   0  0  0  0  0  0  0  0  0  0  0  0
   -0.5310   14.1410    1.4729 C   0  0  0  0  0  0  0  0  0  0  0  0
   -1.6423   13.9845    2.1447 N   0  0  0  0  0  0  0  0  0  0  0  0
   -1.2711   13.2089    3.2390 C   0  0  0  0  0  0  0  0  0  0  0  0
   -2.0352   12.7402    4.3554 C   0  0  0  0  0  0  0  0  0  0  0  0
   -3.2169   12.9679    4.6065 O   0  0  0  0  0  0  0  0  0  0  0  0
   -1.2829   11.9487    5.2338 N   0  0  0  0  0  0  0  0  0  0  0  0
    0.0490   11.6222    5.0278 C   0  0  0  0  0  0  0  0  0  0  0  0
    0.6275   10.7716    5.8830 N   0  0  0  0  0  0  0  0  0  0  0  0
    0.7742   12.1038    4.0050 N   0  0  0  0  0  0  0  0  0  0  0  0
    0.0640   12.8924    3.1529 C   0  0  0  0  0  0  0  0  0  0  0  0
  1  2  2  0  0  0  0
  1  4  1  0  0  0  0
  1  3  1  0  0  0  0
  5  1  1  0  0  0  0
  6  7  2  6  0  0  0
  6  9  1  0  0  0  0
  6  5  1  0  0  0  0
  6  8  1  0  0  0  0
 10 11  2  1  0  0  0
 10 12  1  0  0  0  0
 10 13  1  0  0  0  0
 10  9  1  0  0  0  0
 13 14  1  0  0  0  0
 15 14  1  1  0  0  0
 15 16  1  0  0  0  0
 17 19  1  0  0  0  0
 17 15  1  0  0  0  0
 17 18  1  6  0  0  0
 19 21  1  0  0  0  0
 19 20  1  1  0  0  0
 21 16  1  0  0  0  0
 21 22  1  6  0  0  0
 22 32  1  0  0  0  0
 23 22  1  0  0  0  0
 23 24  2  0  0  0  0
 24 25  1  0  0  0  0
 25 26  1  0  0  0  0
 26 27  2  0  0  0  0
 26 28  1  0  0  0  0
 29 28  1  0  0  0  0
 29 30  1  0  0  0  0
 31 29  2  0  0  0  0
 32 25  2  0  0  0  0
 32 31  1  0  0  0  0
M  END
>  <CHROM.1>
132.70744746,61.39685962,-67.98199974,42.63573344,-39.94006965,-177.67722754
-74.88045892,-178.22050458,-58.62906437,87.90312595,3.26308230,16.61002069
2.30219631,0.20692086,0.84578137,1.17137701

>  <Name>
lig.pdb

>  <RI>
3.03081e+07

>  <Rbt.Current_Directory>
/home/itssahil/PROJECTS/Mol_Feturizer/New_Systems/rnas/5lwj

>  <Rbt.Executable>
rbdock ($Id: //depot/dev/client3/rdock/2013.1/src/exe/rbdock.cxx#4 $)

>  <Rbt.Library>
libRbt.so (2013.1, Build901 2013/11/27)

>  <Rbt.Parameter_File>
/export/apps/rDock/src/rDock_2013.1_src/data/scripts/dock_solv.prm

>  <Rbt.Receptor>
prm/pocket_docking_2.prm

>  <SCORE>
-36.4539

>  <SCORE.INTER>
-33.7688

>  <SCORE.INTER.CONST>
1

>  <SCORE.INTER.POLAR>
-3.35023

>  <SCORE.INTER.ROT>
8

>  <SCORE.INTER.SOLV>
16.6932

>  <SCORE.INTER.VDW>
-25.8429

>  <SCORE.INTER.norm>
-1.05528

>  <SCORE.INTRA>
-4.6442

>  <SCORE.INTRA.DIHEDRAL>
-3.63996

>  <SCORE.INTRA.DIHEDRAL.0>
10.9248

>  <SCORE.INTRA.POLAR>
0

>  <SCORE.INTRA.POLAR.0>
0

>  <SCORE.INTRA.REPUL>
0

>  <SCORE.INTRA.REPUL.0>
0

>  <SCORE.INTRA.SOLV>
-0.197384

>  <SCORE.INTRA.SOLV.lig_0>
-51.4104

>  <SCORE.INTRA.VDW>
-2.72553

>  <SCORE.INTRA.VDW.0>
0.110327

>  <SCORE.INTRA.norm>
-0.145131

>  <SCORE.RESTR>
1.95913

>  <SCORE.RESTR.CAVITY>
1.95913

>  <SCORE.RESTR.norm>
0.0612229

>  <SCORE.SYSTEM>
0

>  <SCORE.SYSTEM.CONST>
0

>  <SCORE.SYSTEM.DIHEDRAL>
0

>  <SCORE.SYSTEM.SOLV>
0

>  <SCORE.SYSTEM.norm>
0

>  <SCORE.heavy>
32

>  <SCORE.norm>
-1.13918

>  <RMSD>
1.769

$$$$
lig.pdb
 OpenBabel11021811523D
libRbt.so/2013.1/901 2013/11/27
 32 34  0  0  0  0  0  0  0  0999 V2000
    7.5856   20.4933    4.0891 P   0  0  0  0  0  0  0  0  0  0  0  0
    8.5145   19.6366    3.2638 O   0  0  0  0  0  0  0  0  0  0  0  0
    6.9224   19.4305    5.1203 O   0  0  0  0  0  0  0  0  0  0  0  0
    8.1867   21.5319    5.0028 O   0  0  0  0  0  0  0  0  0  0  0  0
    6.7611   21.2193    3.1426 O   0  0  0  0  0  0  0  0  0  0  0  0
    5.6574   20.3470    2.6773 P   0  0  1  0  0  0  0  0  0  0  0  0
    4.8158   20.0034    3.8477 O   0  0  0  0  0  0  0  0  0  0  0  0
    4.8289   21.0644    1.6805 O   0  0  0  0  0  0  0  0  0  0  0  0
    6.2232   19.1169    2.0688 O   0  0  0  0  0  0  0  0  0  0  0  0
    5.4045   18.1711    1.2737 P   0  0  1  0  0  0  0  0  0  0  0  0
    5.0240   18.6571   -0.0682 O   0  0  0  0  0  0  0  0  0  0  0  0
    5.8507   16.7609    1.3212 O   0  0  0  0  0  0  0  0  0  0  0  0
    3.9889   18.1782    2.0578 O   0  0  0  0  0  0  0  0  0  0  0  0
    2.8245   17.5752    1.5255 C   0  0  0  0  0  0  0  0  0  0  0  0
    2.8881   16.0417    1.5551 C   0  0  1  0  0  0  0  0  0  0  0  0
    2.0877   15.5379    2.6048 O   0  0  0  0  0  0  0  0  0  0  0  0
    2.2417   15.3704    0.3306 C   0  0  1  0  0  0  0  0  0  0  0  0
    3.0185   15.3884   -0.8554 O   0  0  0  0  0  0  0  0  0  0  0  0
    1.9447   13.9535    0.8210 C   0  0  1  0  0  0  0  0  0  0  0  0
    3.0113   13.0604    0.5532 O   0  0  0  0  0  0  0  0  0  0  0  0
    1.8527   14.1682    2.3306 C   0  0  2  0  0  0  0  0  0  0  0  0
    0.6003   13.7009    2.9623 N   0  0  0  0  0  0  0  0  0  0  0  0
   -0.7058   14.0348    2.7074 C   0  0  0  0  0  0  0  0  0  0  0  0
   -1.5646   13.4963    3.5341 N   0  0  0  0  0  0  0  0  0  0  0  0
   -0.7784   12.7278    4.3872 C   0  0  0  0  0  0  0  0  0  0  0  0
   -1.1333   11.9342    5.5249 C   0  0  0  0  0  0  0  0  0  0  0  0
   -2.2473   11.7933    6.0253 O   0  0  0  0  0  0  0  0  0  0  0  0
   -0.0323   11.2823    6.0964 N   0  0  0  0  0  0  0  0  0  0  0  0
    1.2578   11.3653    5.5946 C   0  0  0  0  0  0  0  0  0  0  0  0
    2.2043   10.6115    6.1652 N   0  0  0  0  0  0  0  0  0  0  0  0
    1.5939   12.1489    4.5569 N   0  0  0  0  0  0  0  0  0  0  0  0
    0.5391   12.8067    4.0025 C   0  0  0  0  0  0  0  0  0  0  0  0
  1  2  2  0  0  0  0
  1  4  1  0  0  0  0
  1  3  1  0  0  0  0
  5  1  1  0  0  0  0
  6  7  2  1  0  0  0
  6  9  1  0  0  0  0
  6  5  1  0  0  0  0
  6  8  1  0  0  0  0
 10 11  2  6  0  0  0
 10 12  1  0  0  0  0
 10 13  1  0  0  0  0
 10  9  1  0  0  0  0
 13 14  1  0  0  0  0
 15 14  1  6  0  0  0
 15 16  1  0  0  0  0
 17 19  1  0  0  0  0
 17 15  1  0  0  0  0
 17 18  1  6  0  0  0
 19 21  1  0  0  0  0
 19 20  1  1  0  0  0
 21 16  1  0  0  0  0
 21 22  1  6  0  0  0
 22 32  1  0  0  0  0
 23 22  1  0  0  0  0
 23 24  2  0  0  0  0
 24 25  1  0  0  0  0
 25 26  1  0  0  0  0
 26 27  2  0  0  0  0
 26 28  1  0  0  0  0
 29 28  1  0  0  0  0
 29 30  1  0  0  0  0
 31 29  2  0  0  0  0
 32 25  2  0  0  0  0
 32 31  1  0  0  0  0
M  END
>  <CHROM.1>
81.11568179,-167.66295871,62.57208976,169.55609723,72.95854679,72.29128999
103.71318209,-176.17794251,43.32614487,66.89852458,3.55420117,16.48594882
2.93437413,-0.26088614,0.85277265,1.74616402

>  <Name>
lig.pdb

>  <RI>
0

>  <Rbt.Current_Directory>
/home/itssahil/PROJECTS/Mol_Feturizer/New_Systems/rnas/5lwj

>  <Rbt.Executable>
rbdock ($Id: //depot/dev/client3/rdock/2013.1/src/exe/rbdock.cxx#4 $)

>  <Rbt.Library>
libRbt.so (2013.1, Build901 2013/11/27)

>  <Rbt.Parameter_File>
/export/apps/rDock/src/rDock_2013.1_src/data/scripts/dock_solv.prm

>  <Rbt.Receptor>
prm/pocket_docking_4.prm

>  <SCORE>
-58.3202

>  <SCORE.INTER>
-56.1742

>  <SCORE.INTER.CONST>
1

>  <SCORE.INTER.POLAR>
-6.52394

>  <SCORE.INTER.ROT>
8

>  <SCORE.INTER.SOLV>
22.615

>  <SCORE.INTER.VDW>
-32.1747

>  <SCORE.INTER.norm>
-1.75544

>  <SCORE.INTRA>
-2.14607

>  <SCORE.INTRA.DIHEDRAL>
0.119421

>  <SCORE.INTRA.DIHEDRAL.0>
10.9248

>  <SCORE.INTRA.POLAR>
0

>  <SCORE.INTRA.POLAR.0>
0

>  <SCORE.INTRA.REPUL>
0

>  <SCORE.INTRA.REPUL.0>
0

>  <SCORE.INTRA.SOLV>
1.14992

>  <SCORE.INTRA.SOLV.lig_0>
-51.4104

>  <SCORE.INTRA.VDW>
-2.78074

>  <SCORE.INTRA.VDW.0>
0.110327

>  <SCORE.INTRA.norm>
-0.0670646

>  <SCORE.RESTR>
0

>  <SCORE.RESTR.CAVITY>
0

>  <SCORE.RESTR.norm>
0

>  <SCORE.SYSTEM>
0

>  <SCORE.SYSTEM.CONST>
0

>  <SCORE.SYSTEM.DIHEDRAL>
0

>  <SCORE.SYSTEM.SOLV>
0

>  <SCORE.SYSTEM.norm>
0

>  <SCORE.heavy>
32

>  <SCORE.norm>
-1.82251

>  <RMSD>
1.788

$$$$
lig.pdb
 OpenBabel11021811523D
libRbt.so/2013.1/901 2013/11/27
 32 34  0  0  0  0  0  0  0  0999 V2000
    6.4519   20.7817    4.2145 P   0  0  0  0  0  0  0  0  0  0  0  0
    7.7024   19.9436    4.3233 O   0  0  0  0  0  0  0  0  0  0  0  0
    6.3795   21.5251    5.6549 O   0  0  0  0  0  0  0  0  0  0  0  0
    6.4371   21.9274    3.2336 O   0  0  0  0  0  0  0  0  0  0  0  0
    5.3981   19.8787    3.7939 O   0  0  0  0  0  0  0  0  0  0  0  0
    5.5642   19.5605    2.3563 P   0  0  1  0  0  0  0  0  0  0  0  0
    4.9691   20.6647    1.5673 O   0  0  0  0  0  0  0  0  0  0  0  0
    7.0036   19.4502    2.0236 O   0  0  0  0  0  0  0  0  0  0  0  0
    4.8783   18.2797    2.0516 O   0  0  0  0  0  0  0  0  0  0  0  0
    3.4649   18.2173    1.6100 P   0  0  1  0  0  0  0  0  0  0  0  0
    2.5562   19.1513    2.3055 O   0  0  0  0  0  0  0  0  0  0  0  0
    3.2678   18.1323    0.1457 O   0  0  0  0  0  0  0  0  0  0  0  0
    2.9785   16.7797    2.1717 O   0  0  0  0  0  0  0  0  0  0  0  0
    3.7282   15.5957    1.9745 C   0  0  0  0  0  0  0  0  0  0  0  0
    2.9069   14.4809    1.3120 C   0  0  1  0  0  0  0  0  0  0  0  0
    2.1754   13.7655    2.2864 O   0  0  0  0  0  0  0  0  0  0  0  0
    1.7779   14.9985    0.4035 C   0  0  1  0  0  0  0  0  0  0  0  0
    2.1870   15.4664   -0.8708 O   0  0  0  0  0  0  0  0  0  0  0  0
    0.8214   13.8094    0.3173 C   0  0  1  0  0  0  0  0  0  0  0  0
    1.1120   12.9682   -0.7850 O   0  0  0  0  0  0  0  0  0  0  0  0
    1.1527   13.0597    1.6064 C   0  0  2  0  0  0  0  0  0  0  0  0
    0.0032   12.7896    2.4961 N   0  0  0  0  0  0  0  0  0  0  0  0
   -1.3220   13.1203    2.3664 C   0  0  0  0  0  0  0  0  0  0  0  0
   -2.0541   12.8040    3.4031 N   0  0  0  0  0  0  0  0  0  0  0  0
   -1.1588   12.1961    4.2781 C   0  0  0  0  0  0  0  0  0  0  0  0
   -1.3494   11.6731    5.5972 C   0  0  0  0  0  0  0  0  0  0  0  0
   -2.3777   11.6885    6.2708 O   0  0  0  0  0  0  0  0  0  0  0  0
   -0.1836   11.1066    6.1300 N   0  0  0  0  0  0  0  0  0  0  0  0
    1.0178   11.0266    5.4420 C   0  0  0  0  0  0  0  0  0  0  0  0
    2.0295   10.3673    6.0177 N   0  0  0  0  0  0  0  0  0  0  0  0
    1.2046   11.5615    4.2243 N   0  0  0  0  0  0  0  0  0  0  0  0
    0.0871   12.1352    3.7003 C   0  0  0  0  0  0  0  0  0  0  0  0
  1  2  2  0  0  0  0
  1  4  1  0  0  0  0
  1  3  1  0  0  0  0
  5  1  1  0  0  0  0
  6  7  2  6  0  0  0
  6  9  1  0  0  0  0
  6  5  1  0  0  0  0
  6  8  1  0  0  0  0
 10 11  2  1  0  0  0
 10 12  1  0  0  0  0
 10 13  1  0  0  0  0
 10  9  1  0  0  0  0
 13 14  1  0  0  0  0
 15 14  1  1  0  0  0
 15 16  1  0  0  0  0
 17 19  1  0  0  0  0
 17 15  1  0  0  0  0
 17 18  1  6  0  0  0
 19 21  1  0  0  0  0
 19 20  1  6  0  0  0
 21 16  1  0  0  0  0
 21 22  1  1  0  0  0
 22 32  1  0  0  0  0
 23 22  1  0  0  0  0
 23 24  2  0  0  0  0
 24 25  1  0  0  0  0
 25 26  1  0  0  0  0
 26 27  2  0  0  0  0
 26 28  1  0  0  0  0
 29 28  1  0  0  0  0
 29 30  1  0  0  0  0
 31 29  2  0  0  0  0
 32 25  2  0  0  0  0
 32 31  1  0  0  0  0
M  END
>  <CHROM.1>
-74.98225879,90.88645434,-82.18826673,-48.42110116,-40.26090626,-125.28094074
-84.69500040,-69.29010271,61.18513375,123.08304262,2.85541713,16.13634892
2.82118098,-0.24333093,0.91764104,1.77705603

>  <Name>
lig.pdb

>  <RI>
0

>  <Rbt.Current_Directory>
/home/itssahil/PROJECTS/Mol_Feturizer/New_Systems/rnas/5lwj

>  <Rbt.Executable>
rbdock ($Id: //depot/dev/client3/rdock/2013.1/src/exe/rbdock.cxx#4 $)

>  <Rbt.Library>
libRbt.so (2013.1, Build901 2013/11/27)

>  <Rbt.Parameter_File>
/export/apps/rDock/src/rDock_2013.1_src/data/scripts/dock_solv.prm

>  <Rbt.Receptor>
prm/pocket_docking_4.prm

>  <SCORE>
-57.7103

>  <SCORE.INTER>
-57.0747

>  <SCORE.INTER.CONST>
1

>  <SCORE.INTER.POLAR>
-5.999

>  <SCORE.INTER.ROT>
8

>  <SCORE.INTER.SOLV>
23.7643

>  <SCORE.INTER.VDW>
-34.9079

>  <SCORE.INTER.norm>
-1.78359

>  <SCORE.INTRA>
-0.635558

>  <SCORE.INTRA.DIHEDRAL>
4.71477

>  <SCORE.INTRA.DIHEDRAL.0>
10.9248

>  <SCORE.INTRA.POLAR>
-1

>  <SCORE.INTRA.POLAR.0>
0

>  <SCORE.INTRA.REPUL>
0.0179581

>  <SCORE.INTRA.REPUL.0>
0

>  <SCORE.INTRA.SOLV>
0.383411

>  <SCORE.INTRA.SOLV.lig_0>
-51.4104

>  <SCORE.INTRA.VDW>
0.125562

>  <SCORE.INTRA.VDW.0>
0.110327

>  <SCORE.INTRA.norm>
-0.0198612

>  <SCORE.RESTR>
0

>  <SCORE.RESTR.CAVITY>
0

>  <SCORE.RESTR.norm>
0

>  <SCORE.SYSTEM>
0

>  <SCORE.SYSTEM.CONST>
0

>  <SCORE.SYSTEM.DIHEDRAL>
0

>  <SCORE.SYSTEM.SOLV>
0

>  <SCORE.SYSTEM.norm>
0

>  <SCORE.heavy>
32

>  <SCORE.norm>
-1.80345

>  <RMSD>
1.798

$$$$
lig.pdb
 OpenBabel11021811523D
libRbt.so/2013.1/901 2013/11/27
 32 34  0  0  0  0  0  0  0  0999 V2000
    4.1173   21.4229    2.3889 P   0  0  0  0  0  0  0  0  0  0  0  0
    4.0329   22.8801    2.0048 O   0  0  0  0  0  0  0  0  0  0  0  0
    4.3296   21.4769    3.9965 O   0  0  0  0  0  0  0  0  0  0  0  0
    2.8864   20.5654    2.2317 O   0  0  0  0  0  0  0  0  0  0  0  0
    5.1272   20.8381    1.5281 O   0  0  0  0  0  0  0  0  0  0  0  0
    5.7094   19.6461    2.1881 P   0  0  1  0  0  0  0  0  0  0  0  0
    6.7481   19.0841    1.2930 O   0  0  0  0  0  0  0  0  0  0  0  0
    6.3370   20.0329    3.4731 O   0  0  0  0  0  0  0  0  0  0  0  0
    4.6406   18.6452    2.4319 O   0  0  0  0  0  0  0  0  0  0  0  0
    3.8843   18.0020    1.3313 P   0  0  1  0  0  0  0  0  0  0  0  0
    2.4460   17.8018    1.6018 O   0  0  0  0  0  0  0  0  0  0  0  0
    4.1980   18.5058   -0.0244 O   0  0  0  0  0  0  0  0  0  0  0  0
    4.4526   16.4869    1.3456 O   0  0  0  0  0  0  0  0  0  0  0  0
    3.9026   15.4788    2.1726 C   0  0  0  0  0  0  0  0  0  0  0  0
    2.9934   14.5129    1.4000 C   0  0  1  0  0  0  0  0  0  0  0  0
    2.2326   13.7314    2.2982 O   0  0  0  0  0  0  0  0  0  0  0  0
    1.8861   15.2143    0.5939 C   0  0  1  0  0  0  0  0  0  0  0  0
    2.3024   15.8098   -0.6235 O   0  0  0  0  0  0  0  0  0  0  0  0
    0.8478   14.1117    0.3877 C   0  0  1  0  0  0  0  0  0  0  0  0
    1.0582   13.3978   -0.8178 O   0  0  0  0  0  0  0  0  0  0  0  0
    1.1506   13.1861    1.5645 C   0  0  2  0  0  0  0  0  0  0  0  0
    0.0021   12.8838    2.4453 N   0  0  0  0  0  0  0  0  0  0  0  0
   -1.3290   13.1881    2.3113 C   0  0  0  0  0  0  0  0  0  0  0  0
   -2.0599   12.8469    3.3409 N   0  0  0  0  0  0  0  0  0  0  0  0
   -1.1568   12.2496    4.2152 C   0  0  0  0  0  0  0  0  0  0  0  0
   -1.3436   11.7105    5.5284 C   0  0  0  0  0  0  0  0  0  0  0  0
   -2.3755   11.6982    6.1964 O   0  0  0  0  0  0  0  0  0  0  0  0
   -0.1690   11.1635    6.0624 N   0  0  0  0  0  0  0  0  0  0  0  0
    1.0375   11.1149    5.3804 C   0  0  0  0  0  0  0  0  0  0  0  0
    2.0595   10.4714    5.9557 N   0  0  0  0  0  0  0  0  0  0  0  0
    1.2196   11.6649    4.1688 N   0  0  0  0  0  0  0  0  0  0  0  0
    0.0932   12.2201    3.6438 C   0  0  0  0  0  0  0  0  0  0  0  0
  1  2  2  0  0  0  0
  1  4  1  0  0  0  0
  1  3  1  0  0  0  0
  5  1  1  0  0  0  0
  6  7  2  6  0  0  0
  6  9  1  0  0  0  0
  6  5  1  0  0  0  0
  6  8  1  0  0  0  0
 10 11  2  1  0  0  0
 10 12  1  0  0  0  0
 10 13  1  0  0  0  0
 10  9  1  0  0  0  0
 13 14  1  0  0  0  0
 15 14  1  1  0  0  0
 15 16  1  0  0  0  0
 17 19  1  0  0  0  0
 17 15  1  0  0  0  0
 17 18  1  6  0  0  0
 19 21  1  0  0  0  0
 19 20  1  6  0  0  0
 21 16  1  0  0  0  0
 21 22  1  1  0  0  0
 22 32  1  0  0  0  0
 23 22  1  0  0  0  0
 23 24  2  0  0  0  0
 24 25  1  0  0  0  0
 25 26  1  0  0  0  0
 26 27  2  0  0  0  0
 26 28  1  0  0  0  0
 29 28  1  0  0  0  0
 29 30  1  0  0  0  0
 31 29  2  0  0  0  0
 32 25  2  0  0  0  0
 32 31  1  0  0  0  0
M  END
>  <CHROM.1>
154.79615386,62.98173197,-179.24849660,86.89476288,-141.25490778,102.65377370
-166.35818058,59.97258453,-64.43524842,131.60940489,2.56744793,16.24135211
2.45747539,-0.02057254,1.04658155,1.35586593

>  <Name>
lig.pdb

>  <RI>
0

>  <Rbt.Current_Directory>
/home/itssahil/PROJECTS/Mol_Feturizer/New_Systems/rnas/5lwj

>  <Rbt.Executable>
rbdock ($Id: //depot/dev/client3/rdock/2013.1/src/exe/rbdock.cxx#4 $)

>  <Rbt.Library>
libRbt.so (2013.1, Build901 2013/11/27)

>  <Rbt.Parameter_File>
/export/apps/rDock/src/rDock_2013.1_src/data/scripts/dock_solv.prm

>  <Rbt.Receptor>
prm/pocket_docking_4.prm

>  <SCORE>
-52.3716

>  <SCORE.INTER>
-51.9142

>  <SCORE.INTER.CONST>
1

>  <SCORE.INTER.POLAR>
-5.80845

>  <SCORE.INTER.ROT>
8

>  <SCORE.INTER.SOLV>
18.548

>  <SCORE.INTER.VDW>
-30.3639

>  <SCORE.INTER.norm>
-1.62232

>  <SCORE.INTRA>
-0.45742

>  <SCORE.INTRA.DIHEDRAL>
2.19024

>  <SCORE.INTRA.DIHEDRAL.0>
10.9248

>  <SCORE.INTRA.POLAR>
0

>  <SCORE.INTRA.POLAR.0>
0

>  <SCORE.INTRA.REPUL>
0.0722298

>  <SCORE.INTRA.REPUL.0>
0

>  <SCORE.INTRA.SOLV>
2.70777

>  <SCORE.INTRA.SOLV.lig_0>
-51.4104

>  <SCORE.INTRA.VDW>
-3.26758

>  <SCORE.INTRA.VDW.0>
0.110327

>  <SCORE.INTRA.norm>
-0.0142944

>  <SCORE.RESTR>
0

>  <SCORE.RESTR.CAVITY>
0

>  <SCORE.RESTR.norm>
0

>  <SCORE.SYSTEM>
0

>  <SCORE.SYSTEM.CONST>
0

>  <SCORE.SYSTEM.DIHEDRAL>
0

>  <SCORE.SYSTEM.SOLV>
0

>  <SCORE.SYSTEM.norm>
0

>  <SCORE.heavy>
32

>  <SCORE.norm>
-1.63661

>  <RMSD>
1.808

$$$$
lig.pdb
 OpenBabel11021811523D
libRbt.so/2013.1/901 2013/11/27
 32 34  0  0  0  0  0  0  0  0999 V2000
    5.2081   20.9245    3.7085 P   0  0  0  0  0  0  0  0  0  0  0  0
    5.1280   22.1499    4.5860 O   0  0  0  0  0  0  0  0  0  0  0  0
    6.3425   21.3241    2.6195 O   0  0  0  0  0  0  0  0  0  0  0  0
    5.7387   19.6453    4.3063 O   0  0  0  0  0  0  0  0  0  0  0  0
    3.8490   20.6396    3.2909 O   0  0  0  0  0  0  0  0  0  0  0  0
    3.8715   19.8796    2.0191 P   0  0  1  0  0  0  0  0  0  0  0  0
    2.4839   19.4659    1.7039 O   0  0  0  0  0  0  0  0  0  0  0  0
    4.3805   20.7376    0.9239 O   0  0  0  0  0  0  0  0  0  0  0  0
    4.7440   18.6882    2.1712 O   0  0  0  0  0  0  0  0  0  0  0  0
    5.0800   17.7957    1.0366 P   0  0  1  0  0  0  0  0  0  0  0  0
    5.0274   18.4368   -0.2931 O   0  0  0  0  0  0  0  0  0  0  0  0
    6.2479   16.9136    1.2561 O   0  0  0  0  0  0  0  0  0  0  0  0
    3.8128   16.7905    0.9857 O   0  0  0  0  0  0  0  0  0  0  0  0
    3.7014   15.6673    1.8394 C   0  0  0  0  0  0  0  0  0  0  0  0
    2.9174   14.5141    1.1977 C   0  0  1  0  0  0  0  0  0  0  0  0
    2.1885   13.8094    2.1818 O   0  0  0  0  0  0  0  0  0  0  0  0
    1.7904   14.9775    0.2581 C   0  0  1  0  0  0  0  0  0  0  0  0
    2.2076   15.4183   -1.0232 O   0  0  0  0  0  0  0  0  0  0  0  0
    0.8642   13.7634    0.1927 C   0  0  1  0  0  0  0  0  0  0  0  0
    1.1917   12.8982   -0.8803 O   0  0  0  0  0  0  0  0  0  0  0  0
    1.1936   13.0595    1.5078 C   0  0  2  0  0  0  0  0  0  0  0  0
    0.0374   12.7872    2.3882 N   0  0  0  0  0  0  0  0  0  0  0  0
   -1.2922   13.0879    2.2329 C   0  0  0  0  0  0  0  0  0  0  0  0
   -2.0322   12.7812    3.2668 N   0  0  0  0  0  0  0  0  0  0  0  0
   -1.1373   12.2121    4.1679 C   0  0  0  0  0  0  0  0  0  0  0  0
   -1.3358   11.7164    5.4963 C   0  0  0  0  0  0  0  0  0  0  0  0
   -2.3734   11.7268    6.1555 O   0  0  0  0  0  0  0  0  0  0  0  0
   -0.1664   11.1862    6.0579 N   0  0  0  0  0  0  0  0  0  0  0  0
    1.0458   11.1143    5.3883 C   0  0  0  0  0  0  0  0  0  0  0  0
    2.0622   10.4892    5.9930 N   0  0  0  0  0  0  0  0  0  0  0  0
    1.2388   11.6243    4.1609 N   0  0  0  0  0  0  0  0  0  0  0  0
    0.1175   12.1629    3.6085 C   0  0  0  0  0  0  0  0  0  0  0  0
  1  2  2  0  0  0  0
  1  4  1  0  0  0  0
  1  3  1  0  0  0  0
  5  1  1  0  0  0  0
  6  7  2  6  0  0  0
  6  9  1  0  0  0  0
  6  5  1  0  0  0  0
  6  8  1  0  0  0  0
 10 11  2  6  0  0  0
 10 12  1  0  0  0  0
 10 13  1  0  0  0  0
 10  9  1  0  0  0  0
 13 14  1  0  0  0  0
 15 14  1  1  0  0  0
 15 16  1  0  0  0  0
 17 19  1  0  0  0  0
 17 15  1  0  0  0  0
 17 18  1  6  0  0  0
 19 21  1  0  0  0  0
 19 20  1  6  0  0  0
 21 16  1  0  0  0  0
 21 22  1  1  0  0  0
 22 32  1  0  0  0  0
 23 22  1  0  0  0  0
 23 24  2  0  0  0  0
 24 25  1  0  0  0  0
 25 26  1  0  0  0  0
 26 27  2  0  0  0  0
 26 28  1  0  0  0  0
 29 28  1  0  0  0  0
 29 30  1  0  0  0  0
 31 29  2  0  0  0  0
 32 25  2  0  0  0  0
 32 31  1  0  0  0  0
M  END
>  <CHROM.1>
155.43181013,-173.87543582,173.37957204,-81.63510713,26.05686149,-149.81389632
-146.64723435,-177.70739493,63.52296859,122.67870944,2.66912740,16.11888000
2.50593328,0.06787475,1.01462684,1.30665989

>  <Name>
lig.pdb

>  <RI>
0

>  <Rbt.Current_Directory>
/home/itssahil/PROJECTS/Mol_Feturizer/New_Systems/rnas/5lwj

>  <Rbt.Executable>
rbdock ($Id: //depot/dev/client3/rdock/2013.1/src/exe/rbdock.cxx#4 $)

>  <Rbt.Library>
libRbt.so (2013.1, Build901 2013/11/27)

>  <Rbt.Parameter_File>
/export/apps/rDock/src/rDock_2013.1_src/data/scripts/dock_solv.prm

>  <Rbt.Receptor>
prm/pocket_docking_3.prm

>  <SCORE>
-58.1756

>  <SCORE.INTER>
-56.3651

>  <SCORE.INTER.CONST>
1

>  <SCORE.INTER.POLAR>
-6.28894

>  <SCORE.INTER.ROT>
8

>  <SCORE.INTER.SOLV>
19.7261

>  <SCORE.INTER.VDW>
-32.1223

>  <SCORE.INTER.norm>
-1.76141

>  <SCORE.INTRA>
-1.81345

>  <SCORE.INTRA.DIHEDRAL>
0.955027

>  <SCORE.INTRA.DIHEDRAL.0>
10.9248

>  <SCORE.INTRA.POLAR>
0

>  <SCORE.INTRA.POLAR.0>
0

>  <SCORE.INTRA.REPUL>
0.0162697

>  <SCORE.INTRA.REPUL.0>
0

>  <SCORE.INTRA.SOLV>
0.146412

>  <SCORE.INTRA.SOLV.lig_0>
-51.4104

>  <SCORE.INTRA.VDW>
-2.44552

>  <SCORE.INTRA.VDW.0>
0.110327

>  <SCORE.INTRA.norm>
-0.0566702

>  <SCORE.RESTR>
0.00286016

>  <SCORE.RESTR.CAVITY>
0.00286016

>  <SCORE.RESTR.norm>
8.93799e-05

>  <SCORE.SYSTEM>
0

>  <SCORE.SYSTEM.CONST>
0

>  <SCORE.SYSTEM.DIHEDRAL>
0

>  <SCORE.SYSTEM.SOLV>
0

>  <SCORE.SYSTEM.norm>
0

>  <SCORE.heavy>
32

>  <SCORE.norm>
-1.81799

>  <RMSD>
1.859

$$$$
lig.pdb
 OpenBabel11021811523D
libRbt.so/2013.1/901 2013/11/27
 32 34  0  0  0  0  0  0  0  0999 V2000
    5.4567   22.2122    2.9093 P   0  0  0  0  0  0  0  0  0  0  0  0
    6.9149   22.4470    2.5984 O   0  0  0  0  0  0  0  0  0  0  0  0
    5.4803   21.7554    4.4660 O   0  0  0  0  0  0  0  0  0  0  0  0
    4.5221   23.3960    2.9109 O   0  0  0  0  0  0  0  0  0  0  0  0
    4.9662   21.3142    1.8818 O   0  0  0  0  0  0  0  0  0  0  0  0
    5.2110   19.9117    2.2928 P   0  0  1  0  0  0  0  0  0  0  0  0
    6.6591   19.7570    2.5668 O   0  0  0  0  0  0  0  0  0  0  0  0
    4.4504   19.6040    3.5263 O   0  0  0  0  0  0  0  0  0  0  0  0
    4.7908   18.9970    1.2018 O   0  0  0  0  0  0  0  0  0  0  0  0
    4.0403   19.4657    0.0127 P   0  0  1  0  0  0  0  0  0  0  0  0
    2.8960   20.3508    0.3111 O   0  0  0  0  0  0  0  0  0  0  0  0
    4.8778   19.8954   -1.1292 O   0  0  0  0  0  0  0  0  0  0  0  0
    3.3088   18.1171   -0.5020 O   0  0  0  0  0  0  0  0  0  0  0  0
    2.2351   17.5214    0.2014 C   0  0  0  0  0  0  0  0  0  0  0  0
    2.7040   16.4537    1.1997 C   0  0  1  0  0  0  0  0  0  0  0  0
    1.6230   16.0235    2.0014 O   0  0  0  0  0  0  0  0  0  0  0  0
    3.1363   15.1333    0.5382 C   0  0  1  0  0  0  0  0  0  0  0  0
    4.4194   15.1452   -0.0650 O   0  0  0  0  0  0  0  0  0  0  0  0
    3.0271   14.1172    1.6748 C   0  0  1  0  0  0  0  0  0  0  0  0
    4.2440   13.9786    2.3869 O   0  0  0  0  0  0  0  0  0  0  0  0
    2.0006   14.7892    2.5848 C   0  0  2  0  0  0  0  0  0  0  0  0
    0.8172   13.9689    2.9201 N   0  0  0  0  0  0  0  0  0  0  0  0
   -0.4336   13.9358    2.3572 C   0  0  0  0  0  0  0  0  0  0  0  0
   -1.2758   13.1493    2.9760 N   0  0  0  0  0  0  0  0  0  0  0  0
   -0.5274   12.5984    4.0119 C   0  0  0  0  0  0  0  0  0  0  0  0
   -0.9013   11.6956    5.0583 C   0  0  0  0  0  0  0  0  0  0  0  0
   -2.0163   11.2319    5.2886 O   0  0  0  0  0  0  0  0  0  0  0  0
    0.1735   11.3546    5.8905 N   0  0  0  0  0  0  0  0  0  0  0  0
    1.4690   11.8117    5.7017 C   0  0  0  0  0  0  0  0  0  0  0  0
    2.4284   11.3300    6.5000 N   0  0  0  0  0  0  0  0  0  0  0  0
    1.8049   12.6960    4.7483 N   0  0  0  0  0  0  0  0  0  0  0  0
    0.7676   13.0548    3.9435 C   0  0  0  0  0  0  0  0  0  0  0  0
  1  2  2  0  0  0  0
  1  4  1  0  0  0  0
  1  3  1  0  0  0  0
  5  1  1  0  0  0  0
  6  7  2  1  0  0  0
  6  9  1  0  0  0  0
  6  5  1  0  0  0  0
  6  8  1  0  0  0  0
 10 11  2  1  0  0  0
 10 12  1  0  0  0  0
 10 13  1  0  0  0  0
 10  9  1  0  0  0  0
 13 14  1  0  0  0  0
 15 14  1  6  0  0  0
 15 16  1  0  0  0  0
 17 19  1  0  0  0  0
 17 15  1  0  0  0  0
 17 18  1  1  0  0  0
 19 21  1  0  0  0  0
 19 20  1  1  0  0  0
 21 16  1  0  0  0  0
 21 22  1  6  0  0  0
 22 32  1  0  0  0  0
 23 22  1  0  0  0  0
 23 24  2  0  0  0  0
 24 25  1  0  0  0  0
 25 26  1  0  0  0  0
 26 27  2  0  0  0  0
 26 28  1  0  0  0  0
 29 28  1  0  0  0  0
 29 30  1  0  0  0  0
 31 29  2  0  0  0  0
 32 25  2  0  0  0  0
 32 31  1  0  0  0  0
M  END
>  <CHROM.1>
86.98061570,-9.31414643,-56.00405321,71.16779416,-46.74260503,-92.11931961
171.97331167,171.42933885,-70.61544498,27.60874624,3.11489153,17.03093853
2.46853172,-0.34346588,1.05517219,1.69003972

>  <Name>
lig.pdb

>  <RI>
0

>  <Rbt.Current_Directory>
/home/itssahil/PROJECTS/Mol_Feturizer/New_Systems/rnas/5lwj

>  <Rbt.Executable>
rbdock ($Id: //depot/dev/client3/rdock/2013.1/src/exe/rbdock.cxx#4 $)

>  <Rbt.Library>
libRbt.so (2013.1, Build901 2013/11/27)

>  <Rbt.Parameter_File>
/export/apps/rDock/src/rDock_2013.1_src/data/scripts/dock_solv.prm

>  <Rbt.Receptor>
prm/pocket_docking_6.prm

>  <SCORE>
-37.5048

>  <SCORE.INTER>
-36.0968

>  <SCORE.INTER.CONST>
1

>  <SCORE.INTER.POLAR>
-4.57551

>  <SCORE.INTER.ROT>
8

>  <SCORE.INTER.SOLV>
16.0254

>  <SCORE.INTER.VDW>
-23.088

>  <SCORE.INTER.norm>
-1.12802

>  <SCORE.INTRA>
-1.40801

>  <SCORE.INTRA.DIHEDRAL>
1.30691

>  <SCORE.INTRA.DIHEDRAL.0>
10.9248

>  <SCORE.INTRA.POLAR>
0

>  <SCORE.INTRA.POLAR.0>
0

>  <SCORE.INTRA.REPUL>
0.0797919

>  <SCORE.INTRA.REPUL.0>
0

>  <SCORE.INTRA.SOLV>
0.97345

>  <SCORE.INTRA.SOLV.lig_0>
-51.4104

>  <SCORE.INTRA.VDW>
-2.94715

>  <SCORE.INTRA.VDW.0>
0.110327

>  <SCORE.INTRA.norm>
-0.0440003

>  <SCORE.RESTR>
0

>  <SCORE.RESTR.CAVITY>
0

>  <SCORE.RESTR.norm>
0

>  <SCORE.SYSTEM>
0

>  <SCORE.SYSTEM.CONST>
0

>  <SCORE.SYSTEM.DIHEDRAL>
0

>  <SCORE.SYSTEM.SOLV>
0

>  <SCORE.SYSTEM.norm>
0

>  <SCORE.heavy>
32

>  <SCORE.norm>
-1.17202

>  <RMSD>
1.900

$$$$
lig.pdb
 OpenBabel11021811523D
libRbt.so/2013.1/901 2013/11/27
 32 34  0  0  0  0  0  0  0  0999 V2000
    3.5377   20.1081    1.8000 P   0  0  0  0  0  0  0  0  0  0  0  0
    4.1883   21.4606    1.9604 O   0  0  0  0  0  0  0  0  0  0  0  0
    3.2141   19.6708    3.3286 O   0  0  0  0  0  0  0  0  0  0  0  0
    2.1900   20.0338    1.1269 O   0  0  0  0  0  0  0  0  0  0  0  0
    4.4402   19.3226    0.9808 O   0  0  0  0  0  0  0  0  0  0  0  0
    5.7780   19.2835    1.6166 P   0  0  1  0  0  0  0  0  0  0  0  0
    6.5331   20.4805    1.1772 O   0  0  0  0  0  0  0  0  0  0  0  0
    5.6403   19.3137    3.0913 O   0  0  0  0  0  0  0  0  0  0  0  0
    6.4853   18.0457    1.2030 O   0  0  0  0  0  0  0  0  0  0  0  0
    5.7674   16.8056    0.8240 P   0  0  1  0  0  0  0  0  0  0  0  0
    4.8910   16.9333   -0.3581 O   0  0  0  0  0  0  0  0  0  0  0  0
    6.5825   15.5711    0.8636 O   0  0  0  0  0  0  0  0  0  0  0  0
    4.7002   16.6291    2.0277 O   0  0  0  0  0  0  0  0  0  0  0  0
    3.3083   16.5192    1.7967 C   0  0  0  0  0  0  0  0  0  0  0  0
    2.9003   15.1233    1.3054 C   0  0  1  0  0  0  0  0  0  0  0  0
    2.1836   14.4390    2.3126 O   0  0  0  0  0  0  0  0  0  0  0  0
    1.8715   15.1447    0.1612 C   0  0  1  0  0  0  0  0  0  0  0  0
    2.3921   15.4534   -1.1209 O   0  0  0  0  0  0  0  0  0  0  0  0
    1.2444   13.7523    0.2248 C   0  0  1  0  0  0  0  0  0  0  0  0
    1.9182   12.8239   -0.6065 O   0  0  0  0  0  0  0  0  0  0  0  0
    1.4930   13.3741    1.6838 C   0  0  2  0  0  0  0  0  0  0  0  0
    0.2909   12.9854    2.4518 N   0  0  0  0  0  0  0  0  0  0  0  0
   -1.0391   13.2107    2.2011 C   0  0  0  0  0  0  0  0  0  0  0  0
   -1.8372   12.8057    3.1549 N   0  0  0  0  0  0  0  0  0  0  0  0
   -0.9813   12.2475    4.0995 C   0  0  0  0  0  0  0  0  0  0  0  0
   -1.2518   11.6724    5.3825 C   0  0  0  0  0  0  0  0  0  0  0  0
   -2.3370   11.5843    5.9533 O   0  0  0  0  0  0  0  0  0  0  0  0
   -0.0984   11.1875    6.0138 N   0  0  0  0  0  0  0  0  0  0  0  0
    1.1654   11.2256    5.4442 C   0  0  0  0  0  0  0  0  0  0  0  0
    2.1695   10.6344    6.1013 N   0  0  0  0  0  0  0  0  0  0  0  0
    1.4214   11.8093    4.2620 N   0  0  0  0  0  0  0  0  0  0  0  0
    0.3146   12.3051    3.6443 C   0  0  0  0  0  0  0  0  0  0  0  0
  1  2  2  0  0  0  0
  1  4  1  0  0  0  0
  1  3  1  0  0  0  0
  5  1  1  0  0  0  0
  6  7  2  6  0  0  0
  6  9  1  0  0  0  0
  6  5  1  0  0  0  0
  6  8  1  0  0  0  0
 10 11  2  6  0  0  0
 10 12  1  0  0  0  0
 10 13  1  0  0  0  0
 10  9  1  0  0  0  0
 13 14  1  0  0  0  0
 15 14  1  1  0  0  0
 15 16  1  0  0  0  0
 17 19  1  0  0  0  0
 17 15  1  0  0  0  0
 17 18  1  6  0  0  0
 19 21  1  0  0  0  0
 19 20  1  6  0  0  0
 21 16  1  0  0  0  0
 21 22  1  1  0  0  0
 22 32  1  0  0  0  0
 23 22  1  0  0  0  0
 23 24  2  0  0  0  0
 24 25  1  0  0  0  0
 25 26  1  0  0  0  0
 26 27  2  0  0  0  0
 26 28  1  0  0  0  0
 29 28  1  0  0  0  0
 29 30  1  0  0  0  0
 31 29  2  0  0  0  0
 32 25  2  0  0  0  0
 32 31  1  0  0  0  0
M  END
>  <CHROM.1>
56.21167315,-27.67084314,-86.35688658,124.37194337,62.13147070,77.44410415
109.34289099,73.02707306,167.20813047,105.90524930,2.83886793,15.83459160
2.17486783,0.50327488,0.88632774,0.58588282

>  <Name>
lig.pdb

>  <RI>
0

>  <Rbt.Current_Directory>
/home/itssahil/PROJECTS/Mol_Feturizer/New_Systems/rnas/5lwj

>  <Rbt.Executable>
rbdock ($Id: //depot/dev/client3/rdock/2013.1/src/exe/rbdock.cxx#4 $)

>  <Rbt.Library>
libRbt.so (2013.1, Build901 2013/11/27)

>  <Rbt.Parameter_File>
/export/apps/rDock/src/rDock_2013.1_src/data/scripts/dock_solv.prm

>  <Rbt.Receptor>
prm/pocket_docking_3.prm

>  <SCORE>
-53.0538

>  <SCORE.INTER>
-55.4651

>  <SCORE.INTER.CONST>
1

>  <SCORE.INTER.POLAR>
-6.49171

>  <SCORE.INTER.ROT>
8

>  <SCORE.INTER.SOLV>
17.7943

>  <SCORE.INTER.VDW>
-30.2024

>  <SCORE.INTER.norm>
-1.73328

>  <SCORE.INTRA>
2.41125

>  <SCORE.INTRA.DIHEDRAL>
4.5307

>  <SCORE.INTRA.DIHEDRAL.0>
10.9248

>  <SCORE.INTRA.POLAR>
-0.104245

>  <SCORE.INTRA.POLAR.0>
0

>  <SCORE.INTRA.REPUL>
0

>  <SCORE.INTRA.REPUL.0>
0

>  <SCORE.INTRA.SOLV>
2.46256

>  <SCORE.INTRA.SOLV.lig_0>
-51.4104

>  <SCORE.INTRA.VDW>
-0.730948

>  <SCORE.INTRA.VDW.0>
0.110327

>  <SCORE.INTRA.norm>
0.0753516

>  <SCORE.RESTR>
0

>  <SCORE.RESTR.CAVITY>
0

>  <SCORE.RESTR.norm>
0

>  <SCORE.SYSTEM>
0

>  <SCORE.SYSTEM.CONST>
0

>  <SCORE.SYSTEM.DIHEDRAL>
0

>  <SCORE.SYSTEM.SOLV>
0

>  <SCORE.SYSTEM.norm>
0

>  <SCORE.heavy>
32

>  <SCORE.norm>
-1.65793

>  <RMSD>
1.917

$$$$
lig.pdb
 OpenBabel11021811523D
libRbt.so/2013.1/901 2013/11/27
 32 34  0  0  0  0  0  0  0  0999 V2000
    5.3532   22.3123    1.0187 P   0  0  0  0  0  0  0  0  0  0  0  0
    4.1582   23.0957    1.5047 O   0  0  0  0  0  0  0  0  0  0  0  0
    5.8629   23.1721   -0.2594 O   0  0  0  0  0  0  0  0  0  0  0  0
    6.5758   22.2454    1.8996 O   0  0  0  0  0  0  0  0  0  0  0  0
    4.8988   20.9448    0.8572 O   0  0  0  0  0  0  0  0  0  0  0  0
    5.6848   20.2856   -0.2120 P   0  0  1  0  0  0  0  0  0  0  0  0
    5.2704   20.8629   -1.5124 O   0  0  0  0  0  0  0  0  0  0  0  0
    7.1302   20.5393   -0.0095 O   0  0  0  0  0  0  0  0  0  0  0  0
    5.4226   18.8246   -0.1883 O   0  0  0  0  0  0  0  0  0  0  0  0
    5.6189   17.9988    1.0268 P   0  0  1  0  0  0  0  0  0  0  0  0
    6.9837   17.4600    1.1964 O   0  0  0  0  0  0  0  0  0  0  0  0
    5.0065   18.5411    2.2602 O   0  0  0  0  0  0  0  0  0  0  0  0
    4.7606   16.6675    0.6960 O   0  0  0  0  0  0  0  0  0  0  0  0
    4.1507   15.8879    1.7074 C   0  0  0  0  0  0  0  0  0  0  0  0
    3.5382   14.5899    1.1630 C   0  0  1  0  0  0  0  0  0  0  0  0
    2.4815   14.1591    1.9963 O   0  0  0  0  0  0  0  0  0  0  0  0
    2.8128   14.7631   -0.1829 C   0  0  1  0  0  0  0  0  0  0  0  0
    3.6532   14.8541   -1.3211 O   0  0  0  0  0  0  0  0  0  0  0  0
    1.8748   13.5575   -0.2358 C   0  0  1  0  0  0  0  0  0  0  0  0
    2.4709   12.4439   -0.8774 O   0  0  0  0  0  0  0  0  0  0  0  0
    1.7090   13.2369    1.2485 C   0  0  2  0  0  0  0  0  0  0  0  0
    0.3135   13.1866    1.7343 N   0  0  0  0  0  0  0  0  0  0  0  0
   -0.8479   13.6367    1.1591 C   0  0  0  0  0  0  0  0  0  0  0  0
   -1.9031   13.5135    1.9221 N   0  0  0  0  0  0  0  0  0  0  0  0
   -1.4162   12.9155    3.0806 C   0  0  0  0  0  0  0  0  0  0  0  0
   -2.0782   12.5628    4.3002 C   0  0  0  0  0  0  0  0  0  0  0  0
   -3.2539   12.7584    4.6013 O   0  0  0  0  0  0  0  0  0  0  0  0
   -1.2243   11.9403    5.2206 N   0  0  0  0  0  0  0  0  0  0  0  0
    0.1101   11.6612    4.9666 C   0  0  0  0  0  0  0  0  0  0  0  0
    0.7933   10.9676    5.8841 N   0  0  0  0  0  0  0  0  0  0  0  0
    0.7384   12.0372    3.8407 N   0  0  0  0  0  0  0  0  0  0  0  0
   -0.0719   12.6629    2.9437 C   0  0  0  0  0  0  0  0  0  0  0  0
  1  2  2  0  0  0  0
  1  4  1  0  0  0  0
  1  3  1  0  0  0  0
  5  1  1  0  0  0  0
  6  7  2  6  0  0  0
  6  9  1  0  0  0  0
  6  5  1  0  0  0  0
  6  8  1  0  0  0  0
 10 11  2  1  0  0  0
 10 12  1  0  0  0  0
 10 13  1  0  0  0  0
 10  9  1  0  0  0  0
 13 14  1  0  0  0  0
 15 14  1  1  0  0  0
 15 16  1  0  0  0  0
 17 19  1  0  0  0  0
 17 15  1  0  0  0  0
 17 18  1  6  0  0  0
 19 21  1  0  0  0  0
 19 20  1  6  0  0  0
 21 16  1  0  0  0  0
 21 22  1  1  0  0  0
 22 32  1  0  0  0  0
 23 22  1  0  0  0  0
 23 24  2  0  0  0  0
 24 25  1  0  0  0  0
 25 26  1  0  0  0  0
 26 27  2  0  0  0  0
 26 28  1  0  0  0  0
 29 28  1  0  0  0  0
 29 30  1  0  0  0  0
 31 29  2  0  0  0  0
 32 25  2  0  0  0  0
 32 31  1  0  0  0  0
M  END
>  <CHROM.1>
150.81699799,-55.30918885,-71.38054505,-150.61015402,-87.89188757,-173.12457187
-154.02416325,-53.34672463,171.13406592,109.23163570,3.12510363,16.63417728
1.45667191,0.67714470,0.76825423,0.39852690

>  <Name>
lig.pdb

>  <RI>
0

>  <Rbt.Current_Directory>
/home/itssahil/PROJECTS/Mol_Feturizer/New_Systems/rnas/5lwj

>  <Rbt.Executable>
rbdock ($Id: //depot/dev/client3/rdock/2013.1/src/exe/rbdock.cxx#4 $)

>  <Rbt.Library>
libRbt.so (2013.1, Build901 2013/11/27)

>  <Rbt.Parameter_File>
/export/apps/rDock/src/rDock_2013.1_src/data/scripts/dock_solv.prm

>  <Rbt.Receptor>
prm/pocket_docking_3.prm

>  <SCORE>
-36.4017

>  <SCORE.INTER>
-30.6018

>  <SCORE.INTER.CONST>
1

>  <SCORE.INTER.POLAR>
-3.30052

>  <SCORE.INTER.ROT>
8

>  <SCORE.INTER.SOLV>
14.8858

>  <SCORE.INTER.VDW>
-23.2947

>  <SCORE.INTER.norm>
-0.956307

>  <SCORE.INTRA>
-5.81185

>  <SCORE.INTRA.DIHEDRAL>
-2.29583

>  <SCORE.INTRA.DIHEDRAL.0>
10.9248

>  <SCORE.INTRA.POLAR>
-0.467245

>  <SCORE.INTRA.POLAR.0>
0

>  <SCORE.INTRA.REPUL>
0

>  <SCORE.INTRA.REPUL.0>
0

>  <SCORE.INTRA.SOLV>
-1.21572

>  <SCORE.INTRA.SOLV.lig_0>
-51.4104

>  <SCORE.INTRA.VDW>
-2.46744

>  <SCORE.INTRA.VDW.0>
0.110327

>  <SCORE.INTRA.norm>
-0.18162

>  <SCORE.RESTR>
0.0119725

>  <SCORE.RESTR.CAVITY>
0.0119725

>  <SCORE.RESTR.norm>
0.000374139

>  <SCORE.SYSTEM>
0

>  <SCORE.SYSTEM.CONST>
0

>  <SCORE.SYSTEM.DIHEDRAL>
0

>  <SCORE.SYSTEM.SOLV>
0

>  <SCORE.SYSTEM.norm>
0

>  <SCORE.heavy>
32

>  <SCORE.norm>
-1.13755

>  <RMSD>
1.941

$$$$
lig.pdb
 OpenBabel11021811523D
libRbt.so/2013.1/901 2013/11/27
 32 34  0  0  0  0  0  0  0  0999 V2000
    5.8392   21.2488    4.1521 P   0  0  0  0  0  0  0  0  0  0  0  0
    6.0097   22.4840    5.0026 O   0  0  0  0  0  0  0  0  0  0  0  0
    6.6710   21.6096    2.8066 O   0  0  0  0  0  0  0  0  0  0  0  0
    6.4752   19.9624    4.6167 O   0  0  0  0  0  0  0  0  0  0  0  0
    4.4128   20.9942    4.0945 O   0  0  0  0  0  0  0  0  0  0  0  0
    4.0624   20.4421    2.7649 P   0  0  1  0  0  0  0  0  0  0  0  0
    2.6285   20.0683    2.7836 O   0  0  0  0  0  0  0  0  0  0  0  0
    4.2812   21.4655    1.7164 O   0  0  0  0  0  0  0  0  0  0  0  0
    4.9034   19.2506    2.4877 O   0  0  0  0  0  0  0  0  0  0  0  0
    5.1972   18.7844    1.1118 P   0  0  1  0  0  0  0  0  0  0  0  0
    4.3249   19.3540    0.0647 O   0  0  0  0  0  0  0  0  0  0  0  0
    6.6339   18.7276    0.7615 O   0  0  0  0  0  0  0  0  0  0  0  0
    4.7249   17.2371    1.1507 O   0  0  0  0  0  0  0  0  0  0  0  0
    3.4238   16.8515    1.5522 C   0  0  0  0  0  0  0  0  0  0  0  0
    3.1842   15.3424    1.4060 C   0  0  1  0  0  0  0  0  0  0  0  0
    2.4025   14.8635    2.4811 O   0  0  0  0  0  0  0  0  0  0  0  0
    2.3048   14.9679    0.2001 C   0  0  1  0  0  0  0  0  0  0  0  0
    2.9542   14.9957   -1.0600 O   0  0  0  0  0  0  0  0  0  0  0  0
    1.7801   13.5792    0.5639 C   0  0  1  0  0  0  0  0  0  0  0  0
    2.6181   12.5463    0.0761 O   0  0  0  0  0  0  0  0  0  0  0  0
    1.8754   13.6088    2.0882 C   0  0  2  0  0  0  0  0  0  0  0  0
    0.6205   13.3038    2.8081 N   0  0  0  0  0  0  0  0  0  0  0  0
   -0.6649   13.7242    2.5772 C   0  0  0  0  0  0  0  0  0  0  0  0
   -1.5244   13.3317    3.4815 N   0  0  0  0  0  0  0  0  0  0  0  0
   -0.7635   12.5742    4.3669 C   0  0  0  0  0  0  0  0  0  0  0  0
   -1.1274   11.9121    5.5831 C   0  0  0  0  0  0  0  0  0  0  0  0
   -2.2243   11.9083    6.1381 O   0  0  0  0  0  0  0  0  0  0  0  0
   -0.0569   11.2199    6.1652 N   0  0  0  0  0  0  0  0  0  0  0  0
    1.2107   11.1512    5.6070 C   0  0  0  0  0  0  0  0  0  0  0  0
    2.1191   10.3709    6.2034 N   0  0  0  0  0  0  0  0  0  0  0  0
    1.5596   11.8134    4.4918 N   0  0  0  0  0  0  0  0  0  0  0  0
    0.5364   12.5088    3.9244 C   0  0  0  0  0  0  0  0  0  0  0  0
  1  2  2  0  0  0  0
  1  4  1  0  0  0  0
  1  3  1  0  0  0  0
  5  1  1  0  0  0  0
  6  7  2  6  0  0  0
  6  9  1  0  0  0  0
  6  5  1  0  0  0  0
  6  8  1  0  0  0  0
 10 11  2  6  0  0  0
 10 12  1  0  0  0  0
 10 13  1  0  0  0  0
 10  9  1  0  0  0  0
 13 14  1  0  0  0  0
 15 14  1  1  0  0  0
 15 16  1  0  0  0  0
 17 19  1  0  0  0  0
 17 15  1  0  0  0  0
 17 18  1  6  0  0  0
 19 21  1  0  0  0  0
 19 20  1  6  0  0  0
 21 16  1  0  0  0  0
 21 22  1  1  0  0  0
 22 32  1  0  0  0  0
 23 22  1  0  0  0  0
 23 24  2  0  0  0  0
 24 25  1  0  0  0  0
 25 26  1  0  0  0  0
 26 27  2  0  0  0  0
 26 28  1  0  0  0  0
 29 28  1  0  0  0  0
 29 30  1  0  0  0  0
 31 29  2  0  0  0  0
 32 25  2  0  0  0  0
 32 31  1  0  0  0  0
M  END
>  <CHROM.1>
145.31656164,-155.67852576,174.47707375,54.51874965,-15.40624786,175.74519829
142.13491454,-173.27511778,-69.29970991,80.86139935,3.04542947,16.56948914
2.82187780,0.22112242,1.02167560,1.15341914

>  <Name>
lig.pdb

>  <RI>
0

>  <Rbt.Current_Directory>
/home/itssahil/PROJECTS/Mol_Feturizer/New_Systems/rnas/5lwj

>  <Rbt.Executable>
rbdock ($Id: //depot/dev/client3/rdock/2013.1/src/exe/rbdock.cxx#4 $)

>  <Rbt.Library>
libRbt.so (2013.1, Build901 2013/11/27)

>  <Rbt.Parameter_File>
/export/apps/rDock/src/rDock_2013.1_src/data/scripts/dock_solv.prm

>  <Rbt.Receptor>
prm/pocket_docking_3.prm

>  <SCORE>
-56.4148

>  <SCORE.INTER>
-53.3273

>  <SCORE.INTER.CONST>
1

>  <SCORE.INTER.POLAR>
-6.55133

>  <SCORE.INTER.ROT>
8

>  <SCORE.INTER.SOLV>
19.4354

>  <SCORE.INTER.VDW>
-29.1256

>  <SCORE.INTER.norm>
-1.66648

>  <SCORE.INTRA>
-3.10417

>  <SCORE.INTRA.DIHEDRAL>
0.63555

>  <SCORE.INTRA.DIHEDRAL.0>
10.9248

>  <SCORE.INTRA.POLAR>
0

>  <SCORE.INTRA.POLAR.0>
0

>  <SCORE.INTRA.REPUL>
0

>  <SCORE.INTRA.REPUL.0>
0

>  <SCORE.INTRA.SOLV>
0.076652

>  <SCORE.INTRA.SOLV.lig_0>
-51.4104

>  <SCORE.INTRA.VDW>
-3.46027

>  <SCORE.INTRA.VDW.0>
0.110327

>  <SCORE.INTRA.norm>
-0.0970053

>  <SCORE.RESTR>
0.0166985

>  <SCORE.RESTR.CAVITY>
0.0166985

>  <SCORE.RESTR.norm>
0.000521828

>  <SCORE.SYSTEM>
0

>  <SCORE.SYSTEM.CONST>
0

>  <SCORE.SYSTEM.DIHEDRAL>
0

>  <SCORE.SYSTEM.SOLV>
0

>  <SCORE.SYSTEM.norm>
0

>  <SCORE.heavy>
32

>  <SCORE.norm>
-1.76296

>  <RMSD>
1.952

$$$$
lig.pdb
 OpenBabel11021811523D
libRbt.so/2013.1/901 2013/11/27
 32 34  0  0  0  0  0  0  0  0999 V2000
    5.9973   20.7631    3.5271 P   0  0  0  0  0  0  0  0  0  0  0  0
    6.3915   22.1012    4.1034 O   0  0  0  0  0  0  0  0  0  0  0  0
    7.3145   20.3197    2.6898 O   0  0  0  0  0  0  0  0  0  0  0  0
    5.7840   19.6075    4.4727 O   0  0  0  0  0  0  0  0  0  0  0  0
    4.7292   20.9725    2.8556 O   0  0  0  0  0  0  0  0  0  0  0  0
    4.5461   19.9378    1.8109 P   0  0  1  0  0  0  0  0  0  0  0  0
    5.4336   20.2699    0.6716 O   0  0  0  0  0  0  0  0  0  0  0  0
    4.9209   18.6070    2.3432 O   0  0  0  0  0  0  0  0  0  0  0  0
    3.1276   19.9231    1.3738 O   0  0  0  0  0  0  0  0  0  0  0  0
    2.0386   19.3767    2.2179 P   0  0  1  0  0  0  0  0  0  0  0  0
    2.2158   19.5844    3.6695 O   0  0  0  0  0  0  0  0  0  0  0  0
    0.6691   19.6279    1.7162 O   0  0  0  0  0  0  0  0  0  0  0  0
    2.2406   17.7779    2.0705 O   0  0  0  0  0  0  0  0  0  0  0  0
    2.1370   17.1123    0.8259 C   0  0  0  0  0  0  0  0  0  0  0  0
    2.3386   15.5955    0.9496 C   0  0  1  0  0  0  0  0  0  0  0  0
    1.6439   15.0986    2.0751 O   0  0  0  0  0  0  0  0  0  0  0  0
    1.6899   14.7887   -0.1889 C   0  0  1  0  0  0  0  0  0  0  0  0
    2.3971   14.7913   -1.4177 O   0  0  0  0  0  0  0  0  0  0  0  0
    1.5472   13.3888    0.4079 C   0  0  1  0  0  0  0  0  0  0  0  0
    2.6734   12.5738    0.1346 O   0  0  0  0  0  0  0  0  0  0  0  0
    1.5176   13.6983    1.9035 C   0  0  2  0  0  0  0  0  0  0  0  0
    0.3476   13.1702    2.6372 N   0  0  0  0  0  0  0  0  0  0  0  0
   -0.9876   13.1941    2.3225 C   0  0  0  0  0  0  0  0  0  0  0  0
   -1.7644   12.7143    3.2590 N   0  0  0  0  0  0  0  0  0  0  0  0
   -0.8835   12.3187    4.2611 C   0  0  0  0  0  0  0  0  0  0  0  0
   -1.1300   11.7580    5.5552 C   0  0  0  0  0  0  0  0  0  0  0  0
   -2.2175   11.5368    6.0841 O   0  0  0  0  0  0  0  0  0  0  0  0
    0.0493   11.4660    6.2536 N   0  0  0  0  0  0  0  0  0  0  0  0
    1.3204   11.6634    5.7354 C   0  0  0  0  0  0  0  0  0  0  0  0
    2.3659   11.2458    6.4580 N   0  0  0  0  0  0  0  0  0  0  0  0
    1.5467   12.2342    4.5410 N   0  0  0  0  0  0  0  0  0  0  0  0
    0.4112   12.5442    3.8575 C   0  0  0  0  0  0  0  0  0  0  0  0
  1  2  2  0  0  0  0
  1  4  1  0  0  0  0
  1  3  1  0  0  0  0
  5  1  1  0  0  0  0
  6  7  2  6  0  0  0
  6  9  1  0  0  0  0
  6  5  1  0  0  0  0
  6  8  1  0  0  0  0
 10 11  2  1  0  0  0
 10 12  1  0  0  0  0
 10 13  1  0  0  0  0
 10  9  1  0  0  0  0
 13 14  1  0  0  0  0
 15 14  1  6  0  0  0
 15 16  1  0  0  0  0
 17 19  1  0  0  0  0
 17 15  1  0  0  0  0
 17 18  1  6  0  0  0
 19 21  1  0  0  0  0
 19 20  1  1  0  0  0
 21 16  1  0  0  0  0
 21 22  1  6  0  0  0
 22 32  1  0  0  0  0
 23 22  1  0  0  0  0
 23 24  2  0  0  0  0
 24 25  1  0  0  0  0
 25 26  1  0  0  0  0
 26 27  2  0  0  0  0
 26 28  1  0  0  0  0
 29 28  1  0  0  0  0
 29 30  1  0  0  0  0
 31 29  2  0  0  0  0
 32 25  2  0  0  0  0
 32 31  1  0  0  0  0
M  END
>  <CHROM.1>
156.10316257,-73.00885848,-74.50544601,-61.59980476,34.39925829,-178.73883999
43.07484071,-55.74786871,-131.03840951,78.67925206,2.50220262,16.48558962
2.73051694,-0.34478872,1.00042322,1.79939531

>  <Name>
lig.pdb

>  <RI>
0

>  <Rbt.Current_Directory>
/home/itssahil/PROJECTS/Mol_Feturizer/New_Systems/rnas/5lwj

>  <Rbt.Executable>
rbdock ($Id: //depot/dev/client3/rdock/2013.1/src/exe/rbdock.cxx#4 $)

>  <Rbt.Library>
libRbt.so (2013.1, Build901 2013/11/27)

>  <Rbt.Parameter_File>
/export/apps/rDock/src/rDock_2013.1_src/data/scripts/dock_solv.prm

>  <Rbt.Receptor>
prm/pocket_docking_4.prm

>  <SCORE>
-59.487

>  <SCORE.INTER>
-56.5126

>  <SCORE.INTER.CONST>
1

>  <SCORE.INTER.POLAR>
-7.15231

>  <SCORE.INTER.ROT>
8

>  <SCORE.INTER.SOLV>
17.7666

>  <SCORE.INTER.VDW>
-28.6896

>  <SCORE.INTER.norm>
-1.76602

>  <SCORE.INTRA>
-2.97436

>  <SCORE.INTRA.DIHEDRAL>
0.779239

>  <SCORE.INTRA.DIHEDRAL.0>
10.9248

>  <SCORE.INTRA.POLAR>
0

>  <SCORE.INTRA.POLAR.0>
0

>  <SCORE.INTRA.REPUL>
0

>  <SCORE.INTRA.REPUL.0>
0

>  <SCORE.INTRA.SOLV>
-0.935364

>  <SCORE.INTRA.SOLV.lig_0>
-51.4104

>  <SCORE.INTRA.VDW>
-2.8963

>  <SCORE.INTRA.VDW.0>
0.110327

>  <SCORE.INTRA.norm>
-0.0929488

>  <SCORE.RESTR>
0

>  <SCORE.RESTR.CAVITY>
0

>  <SCORE.RESTR.norm>
0

>  <SCORE.SYSTEM>
0

>  <SCORE.SYSTEM.CONST>
0

>  <SCORE.SYSTEM.DIHEDRAL>
0

>  <SCORE.SYSTEM.SOLV>
0

>  <SCORE.SYSTEM.norm>
0

>  <SCORE.heavy>
32

>  <SCORE.norm>
-1.85897

>  <RMSD>
1.977

$$$$
lig.pdb
 OpenBabel11021811523D
libRbt.so/2013.1/901 2013/11/27
 32 34  0  0  0  0  0  0  0  0999 V2000
    3.5224   20.8749    1.7758 P   0  0  0  0  0  0  0  0  0  0  0  0
    3.4227   21.9434    2.8371 O   0  0  0  0  0  0  0  0  0  0  0  0
    2.6840   19.6413    2.4144 O   0  0  0  0  0  0  0  0  0  0  0  0
    2.8374   21.1096    0.4526 O   0  0  0  0  0  0  0  0  0  0  0  0
    4.9346   20.7345    1.4781 O   0  0  0  0  0  0  0  0  0  0  0  0
    5.5691   19.8596    2.4918 P   0  0  1  0  0  0  0  0  0  0  0  0
    7.0338   19.8810    2.2684 O   0  0  0  0  0  0  0  0  0  0  0  0
    5.2806   20.3679    3.8531 O   0  0  0  0  0  0  0  0  0  0  0  0
    5.0447   18.4781    2.3495 O   0  0  0  0  0  0  0  0  0  0  0  0
    5.2629   17.6640    1.1303 P   0  0  1  0  0  0  0  0  0  0  0  0
    4.5674   18.1558   -0.0764 O   0  0  0  0  0  0  0  0  0  0  0  0
    6.6594   17.2271    0.9087 O   0  0  0  0  0  0  0  0  0  0  0  0
    4.4565   16.3009    1.4623 O   0  0  0  0  0  0  0  0  0  0  0  0
    3.0428   16.2464    1.4997 C   0  0  0  0  0  0  0  0  0  0  0  0
    2.4923   14.8900    1.0376 C   0  0  1  0  0  0  0  0  0  0  0  0
    1.8547   14.2282    2.1109 O   0  0  0  0  0  0  0  0  0  0  0  0
    1.3416   15.0009    0.0220 C   0  0  1  0  0  0  0  0  0  0  0  0
    1.7290   15.3063   -1.3072 O   0  0  0  0  0  0  0  0  0  0  0  0
    0.6384   13.6487    0.1368 C   0  0  1  0  0  0  0  0  0  0  0  0
    1.1508   12.6998   -0.7820 O   0  0  0  0  0  0  0  0  0  0  0  0
    1.0294   13.2225    1.5506 C   0  0  2  0  0  0  0  0  0  0  0  0
   -0.0982   12.8912    2.4477 N   0  0  0  0  0  0  0  0  0  0  0  0
   -1.4408   13.1447    2.3236 C   0  0  0  0  0  0  0  0  0  0  0  0
   -2.1483   12.7918    3.3656 N   0  0  0  0  0  0  0  0  0  0  0  0
   -1.2151   12.2404    4.2385 C   0  0  0  0  0  0  0  0  0  0  0  0
   -1.3686   11.7136    5.5609 C   0  0  0  0  0  0  0  0  0  0  0  0
   -2.3926   11.6732    6.2400 O   0  0  0  0  0  0  0  0  0  0  0  0
   -0.1695   11.2176    6.0899 N   0  0  0  0  0  0  0  0  0  0  0  0
    1.0310   11.2033    5.3959 C   0  0  0  0  0  0  0  0  0  0  0  0
    2.0818   10.6059    5.9691 N   0  0  0  0  0  0  0  0  0  0  0  0
    1.1806   11.7423    4.1748 N   0  0  0  0  0  0  0  0  0  0  0  0
    0.0293   12.2484    3.6543 C   0  0  0  0  0  0  0  0  0  0  0  0
  1  2  2  0  0  0  0
  1  4  1  0  0  0  0
  1  3  1  0  0  0  0
  5  1  1  0  0  0  0
  6  7  2  6  0  0  0
  6  9  1  0  0  0  0
  6  5  1  0  0  0  0
  6  8  1  0  0  0  0
 10 11  2  6  0  0  0
 10 12  1  0  0  0  0
 10 13  1  0  0  0  0
 10  9  1  0  0  0  0
 13 14  1  0  0  0  0
 15 14  1  1  0  0  0
 15 16  1  0  0  0  0
 17 19  1  0  0  0  0
 17 15  1  0  0  0  0
 17 18  1  6  0  0  0
 19 21  1  0  0  0  0
 19 20  1  6  0  0  0
 21 16  1  0  0  0  0
 21 22  1  1  0  0  0
 22 32  1  0  0  0  0
 23 22  1  0  0  0  0
 23 24  2  0  0  0  0
 24 25  1  0  0  0  0
 25 26  1  0  0  0  0
 26 27  2  0  0  0  0
 26 28  1  0  0  0  0
 29 28  1  0  0  0  0
 29 30  1  0  0  0  0
 31 29  2  0  0  0  0
 32 25  2  0  0  0  0
 32 31  1  0  0  0  0
M  END
>  <CHROM.1>
81.91625842,63.52645707,-172.57653170,71.17659199,-67.63973683,147.21606948
114.23899008,176.25285245,-173.48883816,109.69154736,2.55848836,16.12086918
2.29935709,-0.14160659,1.00793808,1.46597261

>  <Name>
lig.pdb

>  <RI>
0

>  <Rbt.Current_Directory>
/home/itssahil/PROJECTS/Mol_Feturizer/New_Systems/rnas/5lwj

>  <Rbt.Executable>
rbdock ($Id: //depot/dev/client3/rdock/2013.1/src/exe/rbdock.cxx#4 $)

>  <Rbt.Library>
libRbt.so (2013.1, Build901 2013/11/27)

>  <Rbt.Parameter_File>
/export/apps/rDock/src/rDock_2013.1_src/data/scripts/dock_solv.prm

>  <Rbt.Receptor>
prm/pocket_docking_6.prm

>  <SCORE>
-57.9102

>  <SCORE.INTER>
-55.5953

>  <SCORE.INTER.CONST>
1

>  <SCORE.INTER.POLAR>
-6.53966

>  <SCORE.INTER.ROT>
8

>  <SCORE.INTER.SOLV>
19.0699

>  <SCORE.INTER.VDW>
-30.5547

>  <SCORE.INTER.norm>
-1.73735

>  <SCORE.INTRA>
-2.31483

>  <SCORE.INTRA.DIHEDRAL>
2.52992

>  <SCORE.INTRA.DIHEDRAL.0>
10.9248

>  <SCORE.INTRA.POLAR>
0

>  <SCORE.INTRA.POLAR.0>
0

>  <SCORE.INTRA.REPUL>
0

>  <SCORE.INTRA.REPUL.0>
0

>  <SCORE.INTRA.SOLV>
0.971208

>  <SCORE.INTRA.SOLV.lig_0>
-51.4104

>  <SCORE.INTRA.VDW>
-4.06539

>  <SCORE.INTRA.VDW.0>
0.110327

>  <SCORE.INTRA.norm>
-0.0723385

>  <SCORE.RESTR>
0

>  <SCORE.RESTR.CAVITY>
0

>  <SCORE.RESTR.norm>
0

>  <SCORE.SYSTEM>
0

>  <SCORE.SYSTEM.CONST>
0

>  <SCORE.SYSTEM.DIHEDRAL>
0

>  <SCORE.SYSTEM.SOLV>
0

>  <SCORE.SYSTEM.norm>
0

>  <SCORE.heavy>
32

>  <SCORE.norm>
-1.80969

>  <RMSD>
2.023

$$$$
lig.pdb
 OpenBabel11021811523D
libRbt.so/2013.1/901 2013/11/27
 32 34  0  0  0  0  0  0  0  0999 V2000
    6.2374   19.1568    1.2543 P   0  0  0  0  0  0  0  0  0  0  0  0
    7.3792   18.1818    1.4079 O   0  0  0  0  0  0  0  0  0  0  0  0
    5.5022   19.0946    2.6994 O   0  0  0  0  0  0  0  0  0  0  0  0
    6.5592   20.6216    1.0935 O   0  0  0  0  0  0  0  0  0  0  0  0
    5.5337   18.7651    0.0485 O   0  0  0  0  0  0  0  0  0  0  0  0
    5.0142   17.3862    0.2049 P   0  0  1  0  0  0  0  0  0  0  0  0
    5.8918   16.4723   -0.5636 O   0  0  0  0  0  0  0  0  0  0  0  0
    5.0397   16.9930    1.6330 O   0  0  0  0  0  0  0  0  0  0  0  0
    3.6233   17.3212   -0.3096 O   0  0  0  0  0  0  0  0  0  0  0  0
    2.7025   18.4820   -0.2679 P   0  0  1  0  0  0  0  0  0  0  0  0
    2.8497   19.3477    0.9197 O   0  0  0  0  0  0  0  0  0  0  0  0
    2.5457   19.2054   -1.5494 O   0  0  0  0  0  0  0  0  0  0  0  0
    1.2636   17.7870   -0.0125 O   0  0  0  0  0  0  0  0  0  0  0  0
    0.8932   16.5646   -0.6218 C   0  0  0  0  0  0  0  0  0  0  0  0
    1.4757   15.3436    0.1036 C   0  0  1  0  0  0  0  0  0  0  0  0
    0.7635   15.0974    1.2988 O   0  0  0  0  0  0  0  0  0  0  0  0
    1.2713   14.0181   -0.6508 C   0  0  1  0  0  0  0  0  0  0  0  0
    2.1471   13.7974   -1.7438 O   0  0  0  0  0  0  0  0  0  0  0  0
    1.4164   12.9626    0.4451 C   0  0  1  0  0  0  0  0  0  0  0  0
    2.7509   12.5044    0.5730 O   0  0  0  0  0  0  0  0  0  0  0  0
    1.0532   13.7676    1.6915 C   0  0  2  0  0  0  0  0  0  0  0  0
   -0.0351   13.2018    2.5169 N   0  0  0  0  0  0  0  0  0  0  0  0
   -1.3900   13.1663    2.3037 C   0  0  0  0  0  0  0  0  0  0  0  0
   -2.0735   12.6677    3.3011 N   0  0  0  0  0  0  0  0  0  0  0  0
   -1.1041   12.3225    4.2380 C   0  0  0  0  0  0  0  0  0  0  0  0
   -1.2290   11.7699    5.5529 C   0  0  0  0  0  0  0  0  0  0  0  0
   -2.2635   11.5113    6.1646 O   0  0  0  0  0  0  0  0  0  0  0  0
    0.0106   11.5364    6.1633 N   0  0  0  0  0  0  0  0  0  0  0  0
    1.2298   11.7790    5.5486 C   0  0  0  0  0  0  0  0  0  0  0  0
    2.3433   11.4148    6.1946 N   0  0  0  0  0  0  0  0  0  0  0  0
    1.3417   12.3422    4.3345 N   0  0  0  0  0  0  0  0  0  0  0  0
    0.1461   12.5957    3.7355 C   0  0  0  0  0  0  0  0  0  0  0  0
  1  2  2  0  0  0  0
  1  4  1  0  0  0  0
  1  3  1  0  0  0  0
  5  1  1  0  0  0  0
  6  7  2  6  0  0  0
  6  9  1  0  0  0  0
  6  5  1  0  0  0  0
  6  8  1  0  0  0  0
 10 11  2  1  0  0  0
 10 12  1  0  0  0  0
 10 13  1  0  0  0  0
 10  9  1  0  0  0  0
 13 14  1  0  0  0  0
 15 14  1  6  0  0  0
 15 16  1  0  0  0  0
 17 19  1  0  0  0  0
 17 15  1  0  0  0  0
 17 18  1  6  0  0  0
 19 21  1  0  0  0  0
 19 20  1  1  0  0  0
 21 16  1  0  0  0  0
 21 22  1  6  0  0  0
 22 32  1  0  0  0  0
 23 22  1  0  0  0  0
 23 24  2  0  0  0  0
 24 25  1  0  0  0  0
 25 26  1  0  0  0  0
 26 27  2  0  0  0  0
 26 28  1  0  0  0  0
 29 28  1  0  0  0  0
 29 30  1  0  0  0  0
 31 29  2  0  0  0  0
 32 25  2  0  0  0  0
 32 31  1  0  0  0  0
M  END
>  <CHROM.1>
60.99473249,-30.21146474,-103.33060324,-38.55010994,-35.40584899,80.61608465
75.61123339,63.56708528,40.71718586,49.79067891,2.52455432,15.65139085,1.59684717
-0.79473891,0.60596024,2.09405565

>  <Name>
lig.pdb

>  <RI>
3.03081e+07

>  <Rbt.Current_Directory>
/home/itssahil/PROJECTS/Mol_Feturizer/New_Systems/rnas/5lwj

>  <Rbt.Executable>
rbdock ($Id: //depot/dev/client3/rdock/2013.1/src/exe/rbdock.cxx#4 $)

>  <Rbt.Library>
libRbt.so (2013.1, Build901 2013/11/27)

>  <Rbt.Parameter_File>
/export/apps/rDock/src/rDock_2013.1_src/data/scripts/dock_solv.prm

>  <Rbt.Receptor>
prm/pocket_docking_2.prm

>  <SCORE>
-42.81

>  <SCORE.INTER>
-45.8719

>  <SCORE.INTER.CONST>
1

>  <SCORE.INTER.POLAR>
-6.28244

>  <SCORE.INTER.ROT>
8

>  <SCORE.INTER.SOLV>
16.3513

>  <SCORE.INTER.VDW>
-24.0236

>  <SCORE.INTER.norm>
-1.4335

>  <SCORE.INTRA>
2.0998

>  <SCORE.INTRA.DIHEDRAL>
1.53233

>  <SCORE.INTRA.DIHEDRAL.0>
10.9248

>  <SCORE.INTRA.POLAR>
0

>  <SCORE.INTRA.POLAR.0>
0

>  <SCORE.INTRA.REPUL>
0

>  <SCORE.INTRA.REPUL.0>
0

>  <SCORE.INTRA.SOLV>
1.31505

>  <SCORE.INTRA.SOLV.lig_0>
-51.4104

>  <SCORE.INTRA.VDW>
0.676105

>  <SCORE.INTRA.VDW.0>
0.110327

>  <SCORE.INTRA.norm>
0.0656186

>  <SCORE.RESTR>
0.962165

>  <SCORE.RESTR.CAVITY>
0.962165

>  <SCORE.RESTR.norm>
0.0300676

>  <SCORE.SYSTEM>
0

>  <SCORE.SYSTEM.CONST>
0

>  <SCORE.SYSTEM.DIHEDRAL>
0

>  <SCORE.SYSTEM.SOLV>
0

>  <SCORE.SYSTEM.norm>
0

>  <SCORE.heavy>
32

>  <SCORE.norm>
-1.33781

>  <RMSD>
2.041

$$$$
lig.pdb
 OpenBabel11021811523D
libRbt.so/2013.1/901 2013/11/27
 32 34  0  0  0  0  0  0  0  0999 V2000
    3.7151   20.8214    0.9897 P   0  0  0  0  0  0  0  0  0  0  0  0
    3.0040   19.5309    1.3168 O   0  0  0  0  0  0  0  0  0  0  0  0
    2.9381   21.3453   -0.3348 O   0  0  0  0  0  0  0  0  0  0  0  0
    3.5826   21.9785    1.9482 O   0  0  0  0  0  0  0  0  0  0  0  0
    5.1283   20.5002    0.9402 O   0  0  0  0  0  0  0  0  0  0  0  0
    5.5265   19.8259    2.1981 P   0  0  1  0  0  0  0  0  0  0  0  0
    7.0062   19.8338    2.2777 O   0  0  0  0  0  0  0  0  0  0  0  0
    4.9762   20.5577    3.3627 O   0  0  0  0  0  0  0  0  0  0  0  0
    5.0166   18.4317    2.1937 O   0  0  0  0  0  0  0  0  0  0  0  0
    5.3790   17.4533    1.1409 P   0  0  1  0  0  0  0  0  0  0  0  0
    4.8652   17.7736   -0.2064 O   0  0  0  0  0  0  0  0  0  0  0  0
    6.7820   16.9838    1.1762 O   0  0  0  0  0  0  0  0  0  0  0  0
    4.5031   16.1539    1.5446 O   0  0  0  0  0  0  0  0  0  0  0  0
    3.0889   16.1774    1.5911 C   0  0  0  0  0  0  0  0  0  0  0  0
    2.4600   14.8744    1.0784 C   0  0  1  0  0  0  0  0  0  0  0  0
    1.8236   14.1876    2.1365 O   0  0  0  0  0  0  0  0  0  0  0  0
    1.2862   15.0921    0.1076 C   0  0  1  0  0  0  0  0  0  0  0  0
    1.6479   15.4485   -1.2161 O   0  0  0  0  0  0  0  0  0  0  0  0
    0.5222   13.7701    0.1758 C   0  0  1  0  0  0  0  0  0  0  0  0
    0.9605   12.8479   -0.8064 O   0  0  0  0  0  0  0  0  0  0  0  0
    0.9343   13.2524    1.5526 C   0  0  2  0  0  0  0  0  0  0  0  0
   -0.1806   12.9273    2.4676 N   0  0  0  0  0  0  0  0  0  0  0  0
   -1.5168   13.2283    2.3876 C   0  0  0  0  0  0  0  0  0  0  0  0
   -2.2090   12.8631    3.4356 N   0  0  0  0  0  0  0  0  0  0  0  0
   -1.2729   12.2522    4.2646 C   0  0  0  0  0  0  0  0  0  0  0  0
   -1.4104   11.6858    5.5723 C   0  0  0  0  0  0  0  0  0  0  0  0
   -2.4177   11.6554    6.2765 O   0  0  0  0  0  0  0  0  0  0  0  0
   -0.2155   11.1333    6.0526 N   0  0  0  0  0  0  0  0  0  0  0  0
    0.9659   11.1038    5.3270 C   0  0  0  0  0  0  0  0  0  0  0  0
    2.0104   10.4533    5.8521 N   0  0  0  0  0  0  0  0  0  0  0  0
    1.1024   11.6790    4.1211 N   0  0  0  0  0  0  0  0  0  0  0  0
   -0.0441   12.2398    3.6483 C   0  0  0  0  0  0  0  0  0  0  0  0
  1  2  2  0  0  0  0
  1  4  1  0  0  0  0
  1  3  1  0  0  0  0
  5  1  1  0  0  0  0
  6  7  2  1  0  0  0
  6  9  1  0  0  0  0
  6  5  1  0  0  0  0
  6  8  1  0  0  0  0
 10 11  2  6  0  0  0
 10 12  1  0  0  0  0
 10 13  1  0  0  0  0
 10  9  1  0  0  0  0
 13 14  1  0  0  0  0
 15 14  1  1  0  0  0
 15 16  1  0  0  0  0
 17 19  1  0  0  0  0
 17 15  1  0  0  0  0
 17 18  1  6  0  0  0
 19 21  1  0  0  0  0
 19 20  1  6  0  0  0
 21 16  1  0  0  0  0
 21 22  1  1  0  0  0
 22 32  1  0  0  0  0
 23 22  1  0  0  0  0
 23 24  2  0  0  0  0
 24 25  1  0  0  0  0
 25 26  1  0  0  0  0
 26 27  2  0  0  0  0
 26 28  1  0  0  0  0
 29 28  1  0  0  0  0
 29 30  1  0  0  0  0
 31 29  2  0  0  0  0
 32 25  2  0  0  0  0
 32 31  1  0  0  0  0
M  END
>  <CHROM.1>
-53.47963149,58.45776771,-165.23139107,61.20301799,-66.31558414,141.98787695
112.63507146,-52.96628150,-49.12784961,111.05781894,2.57149829,16.08855384
2.12775710,0.63679598,-0.85417030,-1.12639482

>  <Name>
lig.pdb

>  <RI>
0

>  <Rbt.Current_Directory>
/home/itssahil/PROJECTS/Mol_Feturizer/New_Systems/rnas/5lwj

>  <Rbt.Executable>
rbdock ($Id: //depot/dev/client3/rdock/2013.1/src/exe/rbdock.cxx#4 $)

>  <Rbt.Library>
libRbt.so (2013.1, Build901 2013/11/27)

>  <Rbt.Parameter_File>
/export/apps/rDock/src/rDock_2013.1_src/data/scripts/dock_solv.prm

>  <Rbt.Receptor>
prm/pocket_docking_4.prm

>  <SCORE>
-49.08

>  <SCORE.INTER>
-50.003

>  <SCORE.INTER.CONST>
1

>  <SCORE.INTER.POLAR>
-5.65557

>  <SCORE.INTER.ROT>
8

>  <SCORE.INTER.SOLV>
18.8623

>  <SCORE.INTER.VDW>
-29.7042

>  <SCORE.INTER.norm>
-1.56259

>  <SCORE.INTRA>
0.922915

>  <SCORE.INTRA.DIHEDRAL>
3.17815

>  <SCORE.INTRA.DIHEDRAL.0>
10.9248

>  <SCORE.INTRA.POLAR>
-0.0722408

>  <SCORE.INTRA.POLAR.0>
0

>  <SCORE.INTRA.REPUL>
0

>  <SCORE.INTRA.REPUL.0>
0

>  <SCORE.INTRA.SOLV>
2.009

>  <SCORE.INTRA.SOLV.lig_0>
-51.4104

>  <SCORE.INTRA.VDW>
-1.42504

>  <SCORE.INTRA.VDW.0>
0.110327

>  <SCORE.INTRA.norm>
0.0288411

>  <SCORE.RESTR>
0

>  <SCORE.RESTR.CAVITY>
0

>  <SCORE.RESTR.norm>
0

>  <SCORE.SYSTEM>
0

>  <SCORE.SYSTEM.CONST>
0

>  <SCORE.SYSTEM.DIHEDRAL>
0

>  <SCORE.SYSTEM.SOLV>
0

>  <SCORE.SYSTEM.norm>
0

>  <SCORE.heavy>
32

>  <SCORE.norm>
-1.53375

>  <RMSD>
2.131

$$$$
lig.pdb
 OpenBabel11021811523D
libRbt.so/2013.1/901 2013/11/27
 32 34  0  0  0  0  0  0  0  0999 V2000
    5.5627   19.5662    1.9470 P   0  0  0  0  0  0  0  0  0  0  0  0
    5.2664   19.4926    3.4252 O   0  0  0  0  0  0  0  0  0  0  0  0
    5.0965   21.0692    1.5517 O   0  0  0  0  0  0  0  0  0  0  0  0
    7.0023   19.5221    1.4991 O   0  0  0  0  0  0  0  0  0  0  0  0
    4.9204   18.4111    1.3504 O   0  0  0  0  0  0  0  0  0  0  0  0
    4.2126   18.8220    0.1152 P   0  0  1  0  0  0  0  0  0  0  0  0
    3.1155   19.7424    0.4962 O   0  0  0  0  0  0  0  0  0  0  0  0
    5.1447   19.5308   -0.7923 O   0  0  0  0  0  0  0  0  0  0  0  0
    3.6664   17.6202   -0.5639 O   0  0  0  0  0  0  0  0  0  0  0  0
    2.8103   17.7061   -1.7708 P   0  0  1  0  0  0  0  0  0  0  0  0
    1.5383   18.4318   -1.5782 O   0  0  0  0  0  0  0  0  0  0  0  0
    3.5253   18.0265   -3.0263 O   0  0  0  0  0  0  0  0  0  0  0  0
    2.3109   16.1790   -1.9636 O   0  0  0  0  0  0  0  0  0  0  0  0
    1.2785   15.6141   -1.1776 C   0  0  0  0  0  0  0  0  0  0  0  0
    1.7077   15.3752    0.2767 C   0  0  1  0  0  0  0  0  0  0  0  0
    0.5725   15.2274    1.1050 O   0  0  0  0  0  0  0  0  0  0  0  0
    2.4237   14.0315    0.4994 C   0  0  1  0  0  0  0  0  0  0  0  0
    3.7782   13.9862    0.0832 O   0  0  0  0  0  0  0  0  0  0  0  0
    2.2579   13.7879    1.9992 C   0  0  1  0  0  0  0  0  0  0  0  0
    3.3400   14.3116    2.7488 O   0  0  0  0  0  0  0  0  0  0  0  0
    1.0073   14.6106    2.3037 C   0  0  2  0  0  0  0  0  0  0  0  0
   -0.0937   13.8722    2.9581 N   0  0  0  0  0  0  0  0  0  0  0  0
   -1.4482   13.9164    2.7441 C   0  0  0  0  0  0  0  0  0  0  0  0
   -2.1440   13.1917    3.5816 N   0  0  0  0  0  0  0  0  0  0  0  0
   -1.1841   12.6015    4.3983 C   0  0  0  0  0  0  0  0  0  0  0  0
   -1.3235   11.7335    5.5285 C   0  0  0  0  0  0  0  0  0  0  0  0
   -2.3646   11.3456    6.0547 O   0  0  0  0  0  0  0  0  0  0  0  0
   -0.0904   11.3298    6.0579 N   0  0  0  0  0  0  0  0  0  0  0  0
    1.1351   11.6997    5.5245 C   0  0  0  0  0  0  0  0  0  0  0  0
    2.2396   11.1628    6.0549 N   0  0  0  0  0  0  0  0  0  0  0  0
    1.2612   12.5524    4.4945 N   0  0  0  0  0  0  0  0  0  0  0  0
    0.0724   12.9717    3.9812 C   0  0  0  0  0  0  0  0  0  0  0  0
  1  2  2  0  0  0  0
  1  4  1  0  0  0  0
  1  3  1  0  0  0  0
  5  1  1  0  0  0  0
  6  7  2  1  0  0  0
  6  9  1  0  0  0  0
  6  5  1  0  0  0  0
  6  8  1  0  0  0  0
 10 11  2  1  0  0  0
 10 12  1  0  0  0  0
 10 13  1  0  0  0  0
 10  9  1  0  0  0  0
 13 14  1  0  0  0  0
 15 14  1  6  0  0  0
 15 16  1  0  0  0  0
 17 19  1  0  0  0  0
 17 15  1  0  0  0  0
 17 18  1  1  0  0  0
 19 21  1  0  0  0  0
 19 20  1  1  0  0  0
 21 16  1  0  0  0  0
 21 22  1  6  0  0  0
 22 32  1  0  0  0  0
 23 22  1  0  0  0  0
 23 24  2  0  0  0  0
 24 25  1  0  0  0  0
 25 26  1  0  0  0  0
 26 27  2  0  0  0  0
 26 28  1  0  0  0  0
 29 28  1  0  0  0  0
 29 30  1  0  0  0  0
 31 29  2  0  0  0  0
 32 25  2  0  0  0  0
 32 31  1  0  0  0  0
M  END
>  <CHROM.1>
135.28407434,174.93369558,-65.13346859,77.93897846,-61.38597464,-70.66122391
161.28227750,-60.74298873,-54.80603199,-14.49355852,2.40748000,15.98030332
1.61662593,-0.81830530,0.75334634,1.97192876

>  <Name>
lig.pdb

>  <RI>
0

>  <Rbt.Current_Directory>
/home/itssahil/PROJECTS/Mol_Feturizer/New_Systems/rnas/5lwj

>  <Rbt.Executable>
rbdock ($Id: //depot/dev/client3/rdock/2013.1/src/exe/rbdock.cxx#4 $)

>  <Rbt.Library>
libRbt.so (2013.1, Build901 2013/11/27)

>  <Rbt.Parameter_File>
/export/apps/rDock/src/rDock_2013.1_src/data/scripts/dock_solv.prm

>  <Rbt.Receptor>
prm/pocket_docking_3.prm

>  <SCORE>
-42.7145

>  <SCORE.INTER>
-37.6215

>  <SCORE.INTER.CONST>
1

>  <SCORE.INTER.POLAR>
-4.83724

>  <SCORE.INTER.ROT>
8

>  <SCORE.INTER.SOLV>
17.2808

>  <SCORE.INTER.VDW>
-23.6504

>  <SCORE.INTER.norm>
-1.17567

>  <SCORE.INTRA>
-5.09309

>  <SCORE.INTRA.DIHEDRAL>
-3.73244

>  <SCORE.INTRA.DIHEDRAL.0>
10.9248

>  <SCORE.INTRA.POLAR>
-0.0221855

>  <SCORE.INTRA.POLAR.0>
0

>  <SCORE.INTRA.REPUL>
0

>  <SCORE.INTRA.REPUL.0>
0

>  <SCORE.INTRA.SOLV>
0.376088

>  <SCORE.INTRA.SOLV.lig_0>
-51.4104

>  <SCORE.INTRA.VDW>
-3.33948

>  <SCORE.INTRA.VDW.0>
0.110327

>  <SCORE.INTRA.norm>
-0.159159

>  <SCORE.RESTR>
0

>  <SCORE.RESTR.CAVITY>
0

>  <SCORE.RESTR.norm>
0

>  <SCORE.SYSTEM>
0

>  <SCORE.SYSTEM.CONST>
0

>  <SCORE.SYSTEM.DIHEDRAL>
0

>  <SCORE.SYSTEM.SOLV>
0

>  <SCORE.SYSTEM.norm>
0

>  <SCORE.heavy>
32

>  <SCORE.norm>
-1.33483

>  <RMSD>
2.178

$$$$
lig.pdb
 OpenBabel11021811523D
libRbt.so/2013.1/901 2013/11/27
 32 34  0  0  0  0  0  0  0  0999 V2000
    8.3679   19.2468   -0.8126 P   0  0  0  0  0  0  0  0  0  0  0  0
    8.9551   19.9322    0.3971 O   0  0  0  0  0  0  0  0  0  0  0  0
    6.9935   20.0693   -1.0718 O   0  0  0  0  0  0  0  0  0  0  0  0
    9.0943   19.3646   -2.1292 O   0  0  0  0  0  0  0  0  0  0  0  0
    8.3353   17.8319   -0.4966 O   0  0  0  0  0  0  0  0  0  0  0  0
    6.9445   17.4268   -0.1850 P   0  0  1  0  0  0  0  0  0  0  0  0
    6.1282   17.5987   -1.4097 O   0  0  0  0  0  0  0  0  0  0  0  0
    6.9098   16.0030    0.2228 O   0  0  0  0  0  0  0  0  0  0  0  0
    6.4166   18.2768    0.9116 O   0  0  0  0  0  0  0  0  0  0  0  0
    4.9675   18.4012    1.1971 P   0  0  1  0  0  0  0  0  0  0  0  0
    4.6374   18.7206    2.6009 O   0  0  0  0  0  0  0  0  0  0  0  0
    4.1914   19.1563    0.1883 O   0  0  0  0  0  0  0  0  0  0  0  0
    4.4440   16.8763    1.0575 O   0  0  0  0  0  0  0  0  0  0  0  0
    3.3596   16.3747    1.8158 C   0  0  0  0  0  0  0  0  0  0  0  0
    2.8799   15.0023    1.3230 C   0  0  1  0  0  0  0  0  0  0  0  0
    2.1656   14.3368    2.3444 O   0  0  0  0  0  0  0  0  0  0  0  0
    1.8197   15.0786    0.2104 C   0  0  1  0  0  0  0  0  0  0  0  0
    2.3145   15.3800   -1.0836 O   0  0  0  0  0  0  0  0  0  0  0  0
    1.1377   13.7124    0.2789 C   0  0  1  0  0  0  0  0  0  0  0  0
    1.7478   12.7665   -0.5814 O   0  0  0  0  0  0  0  0  0  0  0  0
    1.4133   13.3081    1.7260 C   0  0  2  0  0  0  0  0  0  0  0  0
    0.2193   12.9605    2.5256 N   0  0  0  0  0  0  0  0  0  0  0  0
   -1.1057   13.2540    2.3239 C   0  0  0  0  0  0  0  0  0  0  0  0
   -1.8912   12.8668    3.2954 N   0  0  0  0  0  0  0  0  0  0  0  0
   -1.0330   12.2484    4.1997 C   0  0  0  0  0  0  0  0  0  0  0  0
   -1.2893   11.6594    5.4793 C   0  0  0  0  0  0  0  0  0  0  0  0
   -2.3585   11.6107    6.0840 O   0  0  0  0  0  0  0  0  0  0  0  0
   -0.1409   11.1068    6.0620 N   0  0  0  0  0  0  0  0  0  0  0  0
    1.1042   11.0972    5.4515 C   0  0  0  0  0  0  0  0  0  0  0  0
    2.0994   10.4449    6.0629 N   0  0  0  0  0  0  0  0  0  0  0  0
    1.3498   11.6934    4.2734 N   0  0  0  0  0  0  0  0  0  0  0  0
    0.2488   12.2543    3.7028 C   0  0  0  0  0  0  0  0  0  0  0  0
  1  2  2  0  0  0  0
  1  4  1  0  0  0  0
  1  3  1  0  0  0  0
  5  1  1  0  0  0  0
  6  7  2  6  0  0  0
  6  9  1  0  0  0  0
  6  5  1  0  0  0  0
  6  8  1  0  0  0  0
 10 11  2  1  0  0  0
 10 12  1  0  0  0  0
 10 13  1  0  0  0  0
 10  9  1  0  0  0  0
 13 14  1  0  0  0  0
 15 14  1  1  0  0  0
 15 16  1  0  0  0  0
 17 19  1  0  0  0  0
 17 15  1  0  0  0  0
 17 18  1  6  0  0  0
 19 21  1  0  0  0  0
 19 20  1  6  0  0  0
 21 16  1  0  0  0  0
 21 22  1  1  0  0  0
 22 32  1  0  0  0  0
 23 22  1  0  0  0  0
 23 24  2  0  0  0  0
 24 25  1  0  0  0  0
 25 26  1  0  0  0  0
 26 27  2  0  0  0  0
 26 28  1  0  0  0  0
 29 28  1  0  0  0  0
 29 30  1  0  0  0  0
 31 29  2  0  0  0  0
 32 25  2  0  0  0  0
 32 31  1  0  0  0  0
M  END
>  <CHROM.1>
104.59631572,162.05485690,64.55383751,148.80201068,152.64590266,169.03528479
159.00690793,-59.63874646,61.25575929,105.18491023,3.65267830,15.62865925
1.49528279,-0.66682936,0.53177791,1.96657416

>  <Name>
lig.pdb

>  <RI>
0

>  <Rbt.Current_Directory>
/home/itssahil/PROJECTS/Mol_Feturizer/New_Systems/rnas/5lwj

>  <Rbt.Executable>
rbdock ($Id: //depot/dev/client3/rdock/2013.1/src/exe/rbdock.cxx#4 $)

>  <Rbt.Library>
libRbt.so (2013.1, Build901 2013/11/27)

>  <Rbt.Parameter_File>
/export/apps/rDock/src/rDock_2013.1_src/data/scripts/dock_solv.prm

>  <Rbt.Receptor>
prm/pocket_docking_3.prm

>  <SCORE>
-51.8183

>  <SCORE.INTER>
-48.4164

>  <SCORE.INTER.CONST>
1

>  <SCORE.INTER.POLAR>
-5.73507

>  <SCORE.INTER.ROT>
8

>  <SCORE.INTER.SOLV>
18.0772

>  <SCORE.INTER.VDW>
-28.1198

>  <SCORE.INTER.norm>
-1.51301

>  <SCORE.INTRA>
-3.40189

>  <SCORE.INTRA.DIHEDRAL>
-1.71793

>  <SCORE.INTRA.DIHEDRAL.0>
10.9248

>  <SCORE.INTRA.POLAR>
0

>  <SCORE.INTRA.POLAR.0>
0

>  <SCORE.INTRA.REPUL>
0

>  <SCORE.INTRA.REPUL.0>
0

>  <SCORE.INTRA.SOLV>
0.15912

>  <SCORE.INTRA.SOLV.lig_0>
-51.4104

>  <SCORE.INTRA.VDW>
-2.62249

>  <SCORE.INTRA.VDW.0>
0.110327

>  <SCORE.INTRA.norm>
-0.106309

>  <SCORE.RESTR>
0

>  <SCORE.RESTR.CAVITY>
0

>  <SCORE.RESTR.norm>
0

>  <SCORE.SYSTEM>
0

>  <SCORE.SYSTEM.CONST>
0

>  <SCORE.SYSTEM.DIHEDRAL>
0

>  <SCORE.SYSTEM.SOLV>
0

>  <SCORE.SYSTEM.norm>
0

>  <SCORE.heavy>
32

>  <SCORE.norm>
-1.61932

>  <RMSD>
2.194

$$$$
lig.pdb
 OpenBabel11021811523D
libRbt.so/2013.1/901 2013/11/27
 32 34  0  0  0  0  0  0  0  0999 V2000
    3.9130   21.1841    3.2984 P   0  0  0  0  0  0  0  0  0  0  0  0
    5.2753   21.2871    3.9398 O   0  0  0  0  0  0  0  0  0  0  0  0
    3.3896   19.7245    3.7763 O   0  0  0  0  0  0  0  0  0  0  0  0
    2.8232   22.1136    3.7714 O   0  0  0  0  0  0  0  0  0  0  0  0
    4.1079   21.4763    1.8915 O   0  0  0  0  0  0  0  0  0  0  0  0
    3.0319   20.8354    1.0996 P   0  0  1  0  0  0  0  0  0  0  0  0
    1.7302   21.3412    1.5952 O   0  0  0  0  0  0  0  0  0  0  0  0
    3.1747   21.1901   -0.3316 O   0  0  0  0  0  0  0  0  0  0  0  0
    3.1097   19.3620    1.2626 O   0  0  0  0  0  0  0  0  0  0  0  0
    4.3682   18.6034    1.0684 P   0  0  1  0  0  0  0  0  0  0  0  0
    5.0924   18.9135   -0.1811 O   0  0  0  0  0  0  0  0  0  0  0  0
    5.2233   18.4874    2.2706 O   0  0  0  0  0  0  0  0  0  0  0  0
    3.8394   17.0983    0.7966 O   0  0  0  0  0  0  0  0  0  0  0  0
    3.3587   16.2647    1.8342 C   0  0  0  0  0  0  0  0  0  0  0  0
    2.8362   14.9180    1.3149 C   0  0  1  0  0  0  0  0  0  0  0  0
    2.1317   14.2393    2.3344 O   0  0  0  0  0  0  0  0  0  0  0  0
    1.7515   15.0497    0.2314 C   0  0  1  0  0  0  0  0  0  0  0  0
    2.2218   15.3771   -1.0654 O   0  0  0  0  0  0  0  0  0  0  0  0
    1.0404   13.6975    0.2781 C   0  0  1  0  0  0  0  0  0  0  0  0
    1.6079   12.7635   -0.6233 O   0  0  0  0  0  0  0  0  0  0  0  0
    1.3415   13.2457    1.7060 C   0  0  2  0  0  0  0  0  0  0  0  0
    0.1595   12.9017    2.5248 N   0  0  0  0  0  0  0  0  0  0  0  0
   -1.1702   13.1795    2.3324 C   0  0  0  0  0  0  0  0  0  0  0  0
   -1.9415   12.8027    3.3192 N   0  0  0  0  0  0  0  0  0  0  0  0
   -1.0680   12.2084    4.2250 C   0  0  0  0  0  0  0  0  0  0  0  0
   -1.3049   11.6400    5.5175 C   0  0  0  0  0  0  0  0  0  0  0  0
   -2.3670   11.5925    6.1347 O   0  0  0  0  0  0  0  0  0  0  0  0
   -0.1452   11.1084    6.0973 N   0  0  0  0  0  0  0  0  0  0  0  0
    1.0933   11.0991    5.4735 C   0  0  0  0  0  0  0  0  0  0  0  0
    2.1010   10.4669    6.0854 N   0  0  0  0  0  0  0  0  0  0  0  0
    1.3206   11.6763    4.2822 N   0  0  0  0  0  0  0  0  0  0  0  0
    0.2083   12.2170    3.7139 C   0  0  0  0  0  0  0  0  0  0  0  0
  1  2  2  0  0  0  0
  1  4  1  0  0  0  0
  1  3  1  0  0  0  0
  5  1  1  0  0  0  0
  6  7  2  1  0  0  0
  6  9  1  0  0  0  0
  6  5  1  0  0  0  0
  6  8  1  0  0  0  0
 10 11  2  6  0  0  0
 10 12  1  0  0  0  0
 10 13  1  0  0  0  0
 10  9  1  0  0  0  0
 13 14  1  0  0  0  0
 15 14  1  1  0  0  0
 15 16  1  0  0  0  0
 17 19  1  0  0  0  0
 17 15  1  0  0  0  0
 17 18  1  6  0  0  0
 19 21  1  0  0  0  0
 19 20  1  6  0  0  0
 21 16  1  0  0  0  0
 21 22  1  1  0  0  0
 22 32  1  0  0  0  0
 23 22  1  0  0  0  0
 23 24  2  0  0  0  0
 24 25  1  0  0  0  0
 25 26  1  0  0  0  0
 26 27  2  0  0  0  0
 26 28  1  0  0  0  0
 29 28  1  0  0  0  0
 29 30  1  0  0  0  0
 31 29  2  0  0  0  0
 32 25  2  0  0  0  0
 32 31  1  0  0  0  0
M  END
>  <CHROM.1>
154.80906889,-50.63579548,57.76799506,-75.86327108,-49.05417565,176.52024651
-168.36018492,-53.90838369,59.73823005,108.49004274,2.22073544,16.46995631
2.38608365,0.29613870,1.14884139,0.99475760

>  <Name>
lig.pdb

>  <RI>
0

>  <Rbt.Current_Directory>
/home/itssahil/PROJECTS/Mol_Feturizer/New_Systems/rnas/5lwj

>  <Rbt.Executable>
rbdock ($Id: //depot/dev/client3/rdock/2013.1/src/exe/rbdock.cxx#4 $)

>  <Rbt.Library>
libRbt.so (2013.1, Build901 2013/11/27)

>  <Rbt.Parameter_File>
/export/apps/rDock/src/rDock_2013.1_src/data/scripts/dock_solv.prm

>  <Rbt.Receptor>
prm/pocket_docking_6.prm

>  <SCORE>
-57.6843

>  <SCORE.INTER>
-51.1456

>  <SCORE.INTER.CONST>
1

>  <SCORE.INTER.POLAR>
-6.08224

>  <SCORE.INTER.ROT>
8

>  <SCORE.INTER.SOLV>
17.0133

>  <SCORE.INTER.VDW>
-28.4274

>  <SCORE.INTER.norm>
-1.5983

>  <SCORE.INTRA>
-6.53874

>  <SCORE.INTRA.DIHEDRAL>
-5.52033

>  <SCORE.INTRA.DIHEDRAL.0>
10.9248

>  <SCORE.INTRA.POLAR>
-0.353849

>  <SCORE.INTRA.POLAR.0>
0

>  <SCORE.INTRA.REPUL>
0

>  <SCORE.INTRA.REPUL.0>
0

>  <SCORE.INTRA.SOLV>
1.07863

>  <SCORE.INTRA.SOLV.lig_0>
-51.4104

>  <SCORE.INTRA.VDW>
-3.1148

>  <SCORE.INTRA.VDW.0>
0.110327

>  <SCORE.INTRA.norm>
-0.204336

>  <SCORE.RESTR>
0

>  <SCORE.RESTR.CAVITY>
0

>  <SCORE.RESTR.norm>
0

>  <SCORE.SYSTEM>
0

>  <SCORE.SYSTEM.CONST>
0

>  <SCORE.SYSTEM.DIHEDRAL>
0

>  <SCORE.SYSTEM.SOLV>
0

>  <SCORE.SYSTEM.norm>
0

>  <SCORE.heavy>
32

>  <SCORE.norm>
-1.80264

>  <RMSD>
2.203

$$$$
lig.pdb
 OpenBabel11021811523D
libRbt.so/2013.1/901 2013/11/27
 32 34  0  0  0  0  0  0  0  0999 V2000
    7.7518   20.2079    3.2939 P   0  0  0  0  0  0  0  0  0  0  0  0
    8.8940   19.7040    4.1422 O   0  0  0  0  0  0  0  0  0  0  0  0
    8.4170   21.4396    2.4735 O   0  0  0  0  0  0  0  0  0  0  0  0
    7.2178   19.3143    2.2024 O   0  0  0  0  0  0  0  0  0  0  0  0
    6.6458   20.4362    4.2036 O   0  0  0  0  0  0  0  0  0  0  0  0
    5.4527   20.8614    3.4346 P   0  0  1  0  0  0  0  0  0  0  0  0
    4.5270   21.5519    4.3632 O   0  0  0  0  0  0  0  0  0  0  0  0
    5.8495   21.8013    2.3604 O   0  0  0  0  0  0  0  0  0  0  0  0
    4.7964   19.6691    2.8421 O   0  0  0  0  0  0  0  0  0  0  0  0
    3.4405   19.7190    2.2455 P   0  0  1  0  0  0  0  0  0  0  0  0
    2.3545   20.0246    3.1990 O   0  0  0  0  0  0  0  0  0  0  0  0
    3.3500   20.4302    0.9509 O   0  0  0  0  0  0  0  0  0  0  0  0
    3.1537   18.1687    1.8807 O   0  0  0  0  0  0  0  0  0  0  0  0
    1.9231   17.5355    2.1761 C   0  0  0  0  0  0  0  0  0  0  0  0
    1.8992   16.0624    1.7452 C   0  0  1  0  0  0  0  0  0  0  0  0
    1.3028   15.2673    2.7495 O   0  0  0  0  0  0  0  0  0  0  0  0
    0.9759   15.7815    0.5467 C   0  0  1  0  0  0  0  0  0  0  0  0
    1.4920   16.1528   -0.7206 O   0  0  0  0  0  0  0  0  0  0  0  0
    0.7015   14.2819    0.6567 C   0  0  1  0  0  0  0  0  0  0  0  0
    1.6347   13.5121   -0.0805 O   0  0  0  0  0  0  0  0  0  0  0  0
    0.9347   14.0395    2.1467 C   0  0  2  0  0  0  0  0  0  0  0  0
   -0.1868   13.4014    2.8685 N   0  0  0  0  0  0  0  0  0  0  0  0
   -1.5423   13.5132    2.6880 C   0  0  0  0  0  0  0  0  0  0  0  0
   -2.2533   12.8749    3.5812 N   0  0  0  0  0  0  0  0  0  0  0  0
   -1.3050   12.2731    4.4029 C   0  0  0  0  0  0  0  0  0  0  0  0
   -1.4603   11.4747    5.5813 C   0  0  0  0  0  0  0  0  0  0  0  0
   -2.5058   11.1760    6.1547 O   0  0  0  0  0  0  0  0  0  0  0  0
   -0.2370   11.0279    6.0990 N   0  0  0  0  0  0  0  0  0  0  0  0
    0.9913   11.2976    5.5146 C   0  0  0  0  0  0  0  0  0  0  0  0
    2.0787   10.7257    6.0439 N   0  0  0  0  0  0  0  0  0  0  0  0
    1.1354   12.0867    4.4374 N   0  0  0  0  0  0  0  0  0  0  0  0
   -0.0422   12.5472    3.9337 C   0  0  0  0  0  0  0  0  0  0  0  0
  1  2  2  0  0  0  0
  1  4  1  0  0  0  0
  1  3  1  0  0  0  0
  5  1  1  0  0  0  0
  6  7  2  1  0  0  0
  6  9  1  0  0  0  0
  6  5  1  0  0  0  0
  6  8  1  0  0  0  0
 10 11  2  1  0  0  0
 10 12  1  0  0  0  0
 10 13  1  0  0  0  0
 10  9  1  0  0  0  0
 13 14  1  0  0  0  0
 15 14  1  1  0  0  0
 15 16  1  0  0  0  0
 17 19  1  0  0  0  0
 17 15  1  0  0  0  0
 17 18  1  6  0  0  0
 19 21  1  0  0  0  0
 19 20  1  6  0  0  0
 21 16  1  0  0  0  0
 21 22  1  1  0  0  0
 22 32  1  0  0  0  0
 23 22  1  0  0  0  0
 23 24  2  0  0  0  0
 24 25  1  0  0  0  0
 25 26  1  0  0  0  0
 26 27  2  0  0  0  0
 26 28  1  0  0  0  0
 29 28  1  0  0  0  0
 29 30  1  0  0  0  0
 31 29  2  0  0  0  0
 32 25  2  0  0  0  0
 32 31  1  0  0  0  0
M  END
>  <CHROM.1>
-176.77474196,167.53111911,-159.47947704,134.59894699,-64.89971711,-179.46007010
137.05496162,58.74958312,59.21150061,90.46988778,2.87108283,16.76056187,3.02852137
-0.65481405,0.67123323,2.32556758

>  <Name>
lig.pdb

>  <RI>
2.0892e+07

>  <Rbt.Current_Directory>
/home/itssahil/PROJECTS/Mol_Feturizer/New_Systems/rnas/5lwj

>  <Rbt.Executable>
rbdock ($Id: //depot/dev/client3/rdock/2013.1/src/exe/rbdock.cxx#4 $)

>  <Rbt.Library>
libRbt.so (2013.1, Build901 2013/11/27)

>  <Rbt.Parameter_File>
/export/apps/rDock/src/rDock_2013.1_src/data/scripts/dock_solv.prm

>  <Rbt.Receptor>
prm/pocket_docking_8.prm

>  <SCORE>
-48.9614

>  <SCORE.INTER>
-47.8281

>  <SCORE.INTER.CONST>
1

>  <SCORE.INTER.POLAR>
-5.35705

>  <SCORE.INTER.ROT>
8

>  <SCORE.INTER.SOLV>
20.9595

>  <SCORE.INTER.VDW>
-29.9484

>  <SCORE.INTER.norm>
-1.49463

>  <SCORE.INTRA>
-1.13334

>  <SCORE.INTRA.DIHEDRAL>
-0.928691

>  <SCORE.INTRA.DIHEDRAL.0>
10.9248

>  <SCORE.INTRA.POLAR>
0

>  <SCORE.INTRA.POLAR.0>
0

>  <SCORE.INTRA.REPUL>
0

>  <SCORE.INTRA.REPUL.0>
0

>  <SCORE.INTRA.SOLV>
-1.41274

>  <SCORE.INTRA.SOLV.lig_0>
-51.4104

>  <SCORE.INTRA.VDW>
0.037375

>  <SCORE.INTRA.VDW.0>
0.110327

>  <SCORE.INTRA.norm>
-0.0354169

>  <SCORE.RESTR>
0

>  <SCORE.RESTR.CAVITY>
0

>  <SCORE.RESTR.norm>
0

>  <SCORE.SYSTEM>
0

>  <SCORE.SYSTEM.CONST>
0

>  <SCORE.SYSTEM.DIHEDRAL>
0

>  <SCORE.SYSTEM.SOLV>
0

>  <SCORE.SYSTEM.norm>
0

>  <SCORE.heavy>
32

>  <SCORE.norm>
-1.53004

>  <RMSD>
2.247

$$$$
lig.pdb
 OpenBabel11021811523D
libRbt.so/2013.1/901 2013/11/27
 32 34  0  0  0  0  0  0  0  0999 V2000
    7.0218   17.8192   -0.2498 P   0  0  0  0  0  0  0  0  0  0  0  0
    7.5733   18.5250   -1.4646 O   0  0  0  0  0  0  0  0  0  0  0  0
    6.1992   16.5747   -0.8879 O   0  0  0  0  0  0  0  0  0  0  0  0
    7.9891   17.1470    0.6923 O   0  0  0  0  0  0  0  0  0  0  0  0
    6.3408   18.8343    0.5302 O   0  0  0  0  0  0  0  0  0  0  0  0
    5.3846   19.5641   -0.3351 P   0  0  1  0  0  0  0  0  0  0  0  0
    6.1316   20.6165   -1.0635 O   0  0  0  0  0  0  0  0  0  0  0  0
    4.7774   18.6355   -1.3168 O   0  0  0  0  0  0  0  0  0  0  0  0
    4.3227   20.1719    0.5054 O   0  0  0  0  0  0  0  0  0  0  0  0
    2.9488   19.6205    0.5769 P   0  0  1  0  0  0  0  0  0  0  0  0
    2.1406   20.1147    1.7102 O   0  0  0  0  0  0  0  0  0  0  0  0
    2.2314   19.5525   -0.7157 O   0  0  0  0  0  0  0  0  0  0  0  0
    3.2051   18.0752    0.9834 O   0  0  0  0  0  0  0  0  0  0  0  0
    2.3371   17.3642    1.8457 C   0  0  0  0  0  0  0  0  0  0  0  0
    2.4683   15.8426    1.6912 C   0  0  1  0  0  0  0  0  0  0  0  0
    1.7373   15.1820    2.7040 O   0  0  0  0  0  0  0  0  0  0  0  0
    1.7985   15.2879    0.4218 C   0  0  1  0  0  0  0  0  0  0  0  0
    2.5210   15.4812   -0.7827 O   0  0  0  0  0  0  0  0  0  0  0  0
    1.5850   13.8110    0.7522 C   0  0  1  0  0  0  0  0  0  0  0  0
    2.6765   13.0075    0.3398 O   0  0  0  0  0  0  0  0  0  0  0  0
    1.5500   13.8438    2.2790 C   0  0  2  0  0  0  0  0  0  0  0  0
    0.3480   13.2463    2.8988 N   0  0  0  0  0  0  0  0  0  0  0  0
   -0.9790   13.3715    2.5734 C   0  0  0  0  0  0  0  0  0  0  0  0
   -1.7906   12.7735    3.4067 N   0  0  0  0  0  0  0  0  0  0  0  0
   -0.9443   12.1859    4.3422 C   0  0  0  0  0  0  0  0  0  0  0  0
   -1.2361   11.4296    5.5223 C   0  0  0  0  0  0  0  0  0  0  0  0
   -2.3410   11.1651    5.9919 O   0  0  0  0  0  0  0  0  0  0  0  0
   -0.0818   10.9828    6.1796 N   0  0  0  0  0  0  0  0  0  0  0  0
    1.2055   11.2152    5.7192 C   0  0  0  0  0  0  0  0  0  0  0  0
    2.2212   10.6457    6.3777 N   0  0  0  0  0  0  0  0  0  0  0  0
    1.4754   11.9658    4.6387 N   0  0  0  0  0  0  0  0  0  0  0  0
    0.3653   12.4261    3.9998 C   0  0  0  0  0  0  0  0  0  0  0  0
  1  2  2  0  0  0  0
  1  4  1  0  0  0  0
  1  3  1  0  0  0  0
  5  1  1  0  0  0  0
  6  7  2  6  0  0  0
  6  9  1  0  0  0  0
  6  5  1  0  0  0  0
  6  8  1  0  0  0  0
 10 11  2  1  0  0  0
 10 12  1  0  0  0  0
 10 13  1  0  0  0  0
 10  9  1  0  0  0  0
 13 14  1  0  0  0  0
 15 14  1  1  0  0  0
 15 16  1  0  0  0  0
 17 19  1  0  0  0  0
 17 15  1  0  0  0  0
 17 18  1  6  0  0  0
 19 21  1  0  0  0  0
 19 20  1  1  0  0  0
 21 16  1  0  0  0  0
 21 22  1  6  0  0  0
 22 32  1  0  0  0  0
 23 22  1  0  0  0  0
 23 24  2  0  0  0  0
 24 25  1  0  0  0  0
 25 26  1  0  0  0  0
 26 27  2  0  0  0  0
 26 28  1  0  0  0  0
 29 28  1  0  0  0  0
 29 30  1  0  0  0  0
 31 29  2  0  0  0  0
 32 25  2  0  0  0  0
 32 31  1  0  0  0  0
M  END
>  <CHROM.1>
52.04416012,-105.15137946,-83.07708949,144.05267763,164.43476401,159.23145414
171.20060854,-63.76024268,-52.35384404,79.95627076,2.91565268,15.99108046
1.58913849,-0.97831051,-0.23630815,2.68652309

>  <Name>
lig.pdb

>  <RI>
3.03081e+07

>  <Rbt.Current_Directory>
/home/itssahil/PROJECTS/Mol_Feturizer/New_Systems/rnas/5lwj

>  <Rbt.Executable>
rbdock ($Id: //depot/dev/client3/rdock/2013.1/src/exe/rbdock.cxx#4 $)

>  <Rbt.Library>
libRbt.so (2013.1, Build901 2013/11/27)

>  <Rbt.Parameter_File>
/export/apps/rDock/src/rDock_2013.1_src/data/scripts/dock_solv.prm

>  <Rbt.Receptor>
prm/pocket_docking_2.prm

>  <SCORE>
-40.2634

>  <SCORE.INTER>
-40.7435

>  <SCORE.INTER.CONST>
1

>  <SCORE.INTER.POLAR>
-4.96018

>  <SCORE.INTER.ROT>
8

>  <SCORE.INTER.SOLV>
14.9362

>  <SCORE.INTER.VDW>
-24.5404

>  <SCORE.INTER.norm>
-1.27323

>  <SCORE.INTRA>
-1.33871

>  <SCORE.INTRA.DIHEDRAL>
-1.0232

>  <SCORE.INTRA.DIHEDRAL.0>
10.9248

>  <SCORE.INTRA.POLAR>
-0.0421545

>  <SCORE.INTRA.POLAR.0>
0

>  <SCORE.INTRA.REPUL>
0

>  <SCORE.INTRA.REPUL.0>
0

>  <SCORE.INTRA.SOLV>
-0.560042

>  <SCORE.INTRA.SOLV.lig_0>
-51.4104

>  <SCORE.INTRA.VDW>
-0.403766

>  <SCORE.INTRA.VDW.0>
0.110327

>  <SCORE.INTRA.norm>
-0.0418347

>  <SCORE.RESTR>
1.81878

>  <SCORE.RESTR.CAVITY>
1.81878

>  <SCORE.RESTR.norm>
0.0568368

>  <SCORE.SYSTEM>
0

>  <SCORE.SYSTEM.CONST>
0

>  <SCORE.SYSTEM.DIHEDRAL>
0

>  <SCORE.SYSTEM.SOLV>
0

>  <SCORE.SYSTEM.norm>
0

>  <SCORE.heavy>
32

>  <SCORE.norm>
-1.25823

>  <RMSD>
2.255

$$$$
lig.pdb
 OpenBabel11021811523D
libRbt.so/2013.1/901 2013/11/27
 32 34  0  0  0  0  0  0  0  0999 V2000
    5.8120   20.5220    2.6561 P   0  0  0  0  0  0  0  0  0  0  0  0
    5.9440   22.0131    2.8487 O   0  0  0  0  0  0  0  0  0  0  0  0
    6.9157   19.9186    3.6809 O   0  0  0  0  0  0  0  0  0  0  0  0
    4.5332   19.8511    3.0916 O   0  0  0  0  0  0  0  0  0  0  0  0
    5.9221   20.2896    1.2290 O   0  0  0  0  0  0  0  0  0  0  0  0
    6.6429   19.0174    0.9893 P   0  0  1  0  0  0  0  0  0  0  0  0
    6.7728   18.8293   -0.4749 O   0  0  0  0  0  0  0  0  0  0  0  0
    7.9955   19.0792    1.5903 O   0  0  0  0  0  0  0  0  0  0  0  0
    5.8773   17.8957    1.5886 O   0  0  0  0  0  0  0  0  0  0  0  0
    4.6469   17.3489    0.9688 P   0  0  1  0  0  0  0  0  0  0  0  0
    4.0483   18.2020   -0.0780 O   0  0  0  0  0  0  0  0  0  0  0  0
    4.6957   15.9062    0.6430 O   0  0  0  0  0  0  0  0  0  0  0  0
    3.5641   17.4608    2.1663 O   0  0  0  0  0  0  0  0  0  0  0  0
    2.2224   17.0362    2.0172 C   0  0  0  0  0  0  0  0  0  0  0  0
    2.1053   15.5252    1.7735 C   0  0  1  0  0  0  0  0  0  0  0  0
    1.9132   14.8447    2.9968 O   0  0  0  0  0  0  0  0  0  0  0  0
    0.8406   15.1183    0.9972 C   0  0  1  0  0  0  0  0  0  0  0  0
    0.8829   15.3492   -0.4010 O   0  0  0  0  0  0  0  0  0  0  0  0
    0.6724   13.6399    1.3471 C   0  0  1  0  0  0  0  0  0  0  0  0
    1.3265   12.7929    0.4187 O   0  0  0  0  0  0  0  0  0  0  0  0
    1.4056   13.5596    2.6848 C   0  0  2  0  0  0  0  0  0  0  0  0
    0.6184   13.0057    3.8071 N   0  0  0  0  0  0  0  0  0  0  0  0
    1.0097   12.2509    4.8839 C   0  0  0  0  0  0  0  0  0  0  0  0
    0.0210   11.8470    5.6390 N   0  0  0  0  0  0  0  0  0  0  0  0
   -1.1097   12.3914    5.0375 C   0  0  0  0  0  0  0  0  0  0  0  0
   -2.4966   12.2719    5.3727 C   0  0  0  0  0  0  0  0  0  0  0  0
   -2.9970   11.6050    6.2760 O   0  0  0  0  0  0  0  0  0  0  0  0
   -3.3264   13.0141    4.5215 N   0  0  0  0  0  0  0  0  0  0  0  0
   -2.8555   13.8092    3.4875 C   0  0  0  0  0  0  0  0  0  0  0  0
   -3.7398   14.5529    2.8132 N   0  0  0  0  0  0  0  0  0  0  0  0
   -1.5583   13.8800    3.1469 N   0  0  0  0  0  0  0  0  0  0  0  0
   -0.7397   13.1476    3.9507 C   0  0  0  0  0  0  0  0  0  0  0  0
  1  2  2  0  0  0  0
  1  4  1  0  0  0  0
  1  3  1  0  0  0  0
  5  1  1  0  0  0  0
  6  7  2  6  0  0  0
  6  9  1  0  0  0  0
  6  5  1  0  0  0  0
  6  8  1  0  0  0  0
 10 11  2  6  0  0  0
 10 12  1  0  0  0  0
 10 13  1  0  0  0  0
 10  9  1  0  0  0  0
 13 14  1  0  0  0  0
 15 14  1  1  0  0  0
 15 16  1  0  0  0  0
 17 19  1  0  0  0  0
 17 15  1  0  0  0  0
 17 18  1  6  0  0  0
 19 21  1  0  0  0  0
 19 20  1  6  0  0  0
 21 16  1  0  0  0  0
 21 22  1  1  0  0  0
 22 32  1  0  0  0  0
 23 22  1  0  0  0  0
 23 24  2  0  0  0  0
 24 25  1  0  0  0  0
 25 26  1  0  0  0  0
 26 27  2  0  0  0  0
 26 28  1  0  0  0  0
 29 28  1  0  0  0  0
 29 30  1  0  0  0  0
 31 29  2  0  0  0  0
 32 25  2  0  0  0  0
 32 31  1  0  0  0  0
M  END
>  <CHROM.1>
144.11719374,75.54215059,-178.38725041,-179.66872137,-14.89472358,64.11555556
93.23374569,59.81947224,65.53480053,-89.00570424,2.60182348,16.25275324,2.38018397
0.06594493,0.74031606,1.12527137

>  <Name>
lig.pdb

>  <RI>
3.03081e+07

>  <Rbt.Current_Directory>
/home/itssahil/PROJECTS/Mol_Feturizer/New_Systems/rnas/5lwj

>  <Rbt.Executable>
rbdock ($Id: //depot/dev/client3/rdock/2013.1/src/exe/rbdock.cxx#4 $)

>  <Rbt.Library>
libRbt.so (2013.1, Build901 2013/11/27)

>  <Rbt.Parameter_File>
/export/apps/rDock/src/rDock_2013.1_src/data/scripts/dock_solv.prm

>  <Rbt.Receptor>
prm/pocket_docking_2.prm

>  <SCORE>
-26.2047

>  <SCORE.INTER>
-23.8485

>  <SCORE.INTER.CONST>
1

>  <SCORE.INTER.POLAR>
-1.40831

>  <SCORE.INTER.ROT>
8

>  <SCORE.INTER.SOLV>
16.3719

>  <SCORE.INTER.VDW>
-25.5952

>  <SCORE.INTER.norm>
-0.745264

>  <SCORE.INTRA>
-2.77709

>  <SCORE.INTRA.DIHEDRAL>
-0.999317

>  <SCORE.INTRA.DIHEDRAL.0>
10.9248

>  <SCORE.INTRA.POLAR>
0

>  <SCORE.INTRA.POLAR.0>
0

>  <SCORE.INTRA.REPUL>
0.0929218

>  <SCORE.INTRA.REPUL.0>
0

>  <SCORE.INTRA.SOLV>
1.20236

>  <SCORE.INTRA.SOLV.lig_0>
-51.4104

>  <SCORE.INTRA.VDW>
-3.34322

>  <SCORE.INTRA.VDW.0>
0.110327

>  <SCORE.INTRA.norm>
-0.086784

>  <SCORE.RESTR>
0.420886

>  <SCORE.RESTR.CAVITY>
0.420886

>  <SCORE.RESTR.norm>
0.0131527

>  <SCORE.SYSTEM>
0

>  <SCORE.SYSTEM.CONST>
0

>  <SCORE.SYSTEM.DIHEDRAL>
0

>  <SCORE.SYSTEM.SOLV>
0

>  <SCORE.SYSTEM.norm>
0

>  <SCORE.heavy>
32

>  <SCORE.norm>
-0.818895

>  <RMSD>
2.288

$$$$
lig.pdb
 OpenBabel11021811523D
libRbt.so/2013.1/901 2013/11/27
 32 34  0  0  0  0  0  0  0  0999 V2000
    7.0104   19.9036   -1.4091 P   0  0  0  0  0  0  0  0  0  0  0  0
    7.3040   21.1888   -0.6742 O   0  0  0  0  0  0  0  0  0  0  0  0
    5.6563   20.2506   -2.2327 O   0  0  0  0  0  0  0  0  0  0  0  0
    7.9659   19.4576   -2.4876 O   0  0  0  0  0  0  0  0  0  0  0  0
    7.0189   18.8562   -0.4063 O   0  0  0  0  0  0  0  0  0  0  0  0
    5.7502   18.8935    0.3584 P   0  0  1  0  0  0  0  0  0  0  0  0
    5.7198   20.1515    1.1410 O   0  0  0  0  0  0  0  0  0  0  0  0
    4.5966   18.8746   -0.5707 O   0  0  0  0  0  0  0  0  0  0  0  0
    5.6852   17.7195    1.2646 O   0  0  0  0  0  0  0  0  0  0  0  0
    5.9927   16.3428    0.8095 P   0  0  1  0  0  0  0  0  0  0  0  0
    5.4057   15.9755   -0.4952 O   0  0  0  0  0  0  0  0  0  0  0  0
    7.3969   15.9169    1.0018 O   0  0  0  0  0  0  0  0  0  0  0  0
    5.1438   15.4283    1.8399 O   0  0  0  0  0  0  0  0  0  0  0  0
    3.7560   15.6102    2.0486 C   0  0  0  0  0  0  0  0  0  0  0  0
    2.9075   14.5539    1.3271 C   0  0  1  0  0  0  0  0  0  0  0  0
    2.1697   13.7948    2.2629 O   0  0  0  0  0  0  0  0  0  0  0  0
    1.7819   15.1475    0.4620 C   0  0  1  0  0  0  0  0  0  0  0  0
    2.1900   15.6841   -0.7852 O   0  0  0  0  0  0  0  0  0  0  0  0
    0.8013   13.9846    0.3126 C   0  0  1  0  0  0  0  0  0  0  0  0
    1.0663   13.2067   -0.8414 O   0  0  0  0  0  0  0  0  0  0  0  0
    1.1278   13.1517    1.5507 C   0  0  2  0  0  0  0  0  0  0  0  0
   -0.0198   12.8503    2.4329 N   0  0  0  0  0  0  0  0  0  0  0  0
   -1.3527   13.1441    2.2941 C   0  0  0  0  0  0  0  0  0  0  0  0
   -2.0828   12.8081    3.3260 N   0  0  0  0  0  0  0  0  0  0  0  0
   -1.1769   12.2255    4.2073 C   0  0  0  0  0  0  0  0  0  0  0  0
   -1.3619   11.6979    5.5254 C   0  0  0  0  0  0  0  0  0  0  0  0
   -2.3946   11.6852    6.1921 O   0  0  0  0  0  0  0  0  0  0  0  0
   -0.1844   11.1641    6.0663 N   0  0  0  0  0  0  0  0  0  0  0  0
    1.0233   11.1170    5.3865 C   0  0  0  0  0  0  0  0  0  0  0  0
    2.0489   10.4861    5.9693 N   0  0  0  0  0  0  0  0  0  0  0  0
    1.2034   11.6564    4.1697 N   0  0  0  0  0  0  0  0  0  0  0  0
    0.0741   12.1988    3.6379 C   0  0  0  0  0  0  0  0  0  0  0  0
  1  2  2  0  0  0  0
  1  4  1  0  0  0  0
  1  3  1  0  0  0  0
  5  1  1  0  0  0  0
  6  7  2  1  0  0  0
  6  9  1  0  0  0  0
  6  5  1  0  0  0  0
  6  8  1  0  0  0  0
 10 11  2  6  0  0  0
 10 12  1  0  0  0  0
 10 13  1  0  0  0  0
 10  9  1  0  0  0  0
 13 14  1  0  0  0  0
 15 14  1  1  0  0  0
 15 16  1  0  0  0  0
 17 19  1  0  0  0  0
 17 15  1  0  0  0  0
 17 18  1  6  0  0  0
 19 21  1  0  0  0  0
 19 20  1  6  0  0  0
 21 16  1  0  0  0  0
 21 22  1  1  0  0  0
 22 32  1  0  0  0  0
 23 22  1  0  0  0  0
 23 24  2  0  0  0  0
 24 25  1  0  0  0  0
 25 26  1  0  0  0  0
 26 27  2  0  0  0  0
 26 28  1  0  0  0  0
 29 28  1  0  0  0  0
 29 30  1  0  0  0  0
 31 29  2  0  0  0  0
 32 25  2  0  0  0  0
 32 31  1  0  0  0  0
M  END
>  <CHROM.1>
77.32432069,-47.36086935,-66.85636920,53.81259902,-43.93739066,102.87468836
118.06118601,57.71034914,62.48753310,127.60256937,3.36380989,15.60566567
1.41081216,0.83042275,-0.41731914,-0.95336576

>  <Name>
lig.pdb

>  <RI>
0

>  <Rbt.Current_Directory>
/home/itssahil/PROJECTS/Mol_Feturizer/New_Systems/rnas/5lwj

>  <Rbt.Executable>
rbdock ($Id: //depot/dev/client3/rdock/2013.1/src/exe/rbdock.cxx#4 $)

>  <Rbt.Library>
libRbt.so (2013.1, Build901 2013/11/27)

>  <Rbt.Parameter_File>
/export/apps/rDock/src/rDock_2013.1_src/data/scripts/dock_solv.prm

>  <Rbt.Receptor>
prm/pocket_docking_3.prm

>  <SCORE>
-47.2093

>  <SCORE.INTER>
-48.0044

>  <SCORE.INTER.CONST>
1

>  <SCORE.INTER.POLAR>
-5.00317

>  <SCORE.INTER.ROT>
8

>  <SCORE.INTER.SOLV>
16.7242

>  <SCORE.INTER.VDW>
-29.8337

>  <SCORE.INTER.norm>
-1.50014

>  <SCORE.INTRA>
0.754683

>  <SCORE.INTRA.DIHEDRAL>
4.7209

>  <SCORE.INTRA.DIHEDRAL.0>
10.9248

>  <SCORE.INTRA.POLAR>
0

>  <SCORE.INTRA.POLAR.0>
0

>  <SCORE.INTRA.REPUL>
0.0463513

>  <SCORE.INTRA.REPUL.0>
0

>  <SCORE.INTRA.SOLV>
0.917822

>  <SCORE.INTRA.SOLV.lig_0>
-51.4104

>  <SCORE.INTRA.VDW>
-2.29643

>  <SCORE.INTRA.VDW.0>
0.110327

>  <SCORE.INTRA.norm>
0.0235838

>  <SCORE.RESTR>
0.0403539

>  <SCORE.RESTR.CAVITY>
0.0403539

>  <SCORE.RESTR.norm>
0.00126106

>  <SCORE.SYSTEM>
0

>  <SCORE.SYSTEM.CONST>
0

>  <SCORE.SYSTEM.DIHEDRAL>
0

>  <SCORE.SYSTEM.SOLV>
0

>  <SCORE.SYSTEM.norm>
0

>  <SCORE.heavy>
32

>  <SCORE.norm>
-1.47529

>  <RMSD>
2.290

$$$$
lig.pdb
 OpenBabel11021811523D
libRbt.so/2013.1/901 2013/11/27
 32 34  0  0  0  0  0  0  0  0999 V2000
    4.5385   19.0714    1.1210 P   0  0  0  0  0  0  0  0  0  0  0  0
    5.1585   18.6466    2.4299 O   0  0  0  0  0  0  0  0  0  0  0  0
    3.0727   19.6076    1.5640 O   0  0  0  0  0  0  0  0  0  0  0  0
    5.1326   20.2516    0.3935 O   0  0  0  0  0  0  0  0  0  0  0  0
    4.6728   17.9383    0.2261 O   0  0  0  0  0  0  0  0  0  0  0  0
    6.0911   17.5122    0.1771 P   0  0  1  0  0  0  0  0  0  0  0  0
    6.2978   16.7379   -1.0693 O   0  0  0  0  0  0  0  0  0  0  0  0
    6.9776   18.6991    0.1611 O   0  0  0  0  0  0  0  0  0  0  0  0
    6.3959   16.6732    1.3632 O   0  0  0  0  0  0  0  0  0  0  0  0
    5.7997   15.3314    1.5654 P   0  0  1  0  0  0  0  0  0  0  0  0
    5.3736   14.6493    0.3264 O   0  0  0  0  0  0  0  0  0  0  0  0
    6.5080   14.4696    2.5379 O   0  0  0  0  0  0  0  0  0  0  0  0
    4.3861   15.6722    2.2756 O   0  0  0  0  0  0  0  0  0  0  0  0
    3.2079   15.9288    1.5348 C   0  0  0  0  0  0  0  0  0  0  0  0
    2.5465   14.6447    1.0151 C   0  0  1  0  0  0  0  0  0  0  0  0
    1.8934   13.9682    2.0697 O   0  0  0  0  0  0  0  0  0  0  0  0
    1.3781   14.8972    0.0461 C   0  0  1  0  0  0  0  0  0  0  0  0
    1.7483   15.2519   -1.2758 O   0  0  0  0  0  0  0  0  0  0  0  0
    0.5813   13.5943    0.1072 C   0  0  1  0  0  0  0  0  0  0  0  0
    0.9961   12.6670   -0.8803 O   0  0  0  0  0  0  0  0  0  0  0  0
    0.9808   13.0588    1.4809 C   0  0  2  0  0  0  0  0  0  0  0  0
   -0.1417   12.7566    2.3946 N   0  0  0  0  0  0  0  0  0  0  0  0
   -1.4796   13.0408    2.2882 C   0  0  0  0  0  0  0  0  0  0  0  0
   -2.1806   12.7078    3.3410 N   0  0  0  0  0  0  0  0  0  0  0  0
   -1.2485   12.1376    4.2028 C   0  0  0  0  0  0  0  0  0  0  0  0
   -1.3959   11.6187    5.5291 C   0  0  0  0  0  0  0  0  0  0  0  0
   -2.4110   11.6042    6.2223 O   0  0  0  0  0  0  0  0  0  0  0  0
   -0.2013   11.0965    6.0432 N   0  0  0  0  0  0  0  0  0  0  0  0
    0.9888   11.0521    5.3328 C   0  0  0  0  0  0  0  0  0  0  0  0
    2.0332   10.4321    5.8935 N   0  0  0  0  0  0  0  0  0  0  0  0
    1.1339   11.5836    4.1079 N   0  0  0  0  0  0  0  0  0  0  0  0
   -0.0124   12.1148    3.6015 C   0  0  0  0  0  0  0  0  0  0  0  0
  1  2  2  0  0  0  0
  1  4  1  0  0  0  0
  1  3  1  0  0  0  0
  5  1  1  0  0  0  0
  6  7  2  6  0  0  0
  6  9  1  0  0  0  0
  6  5  1  0  0  0  0
  6  8  1  0  0  0  0
 10 11  2  6  0  0  0
 10 12  1  0  0  0  0
 10 13  1  0  0  0  0
 10  9  1  0  0  0  0
 13 14  1  0  0  0  0
 15 14  1  1  0  0  0
 15 16  1  0  0  0  0
 17 19  1  0  0  0  0
 17 15  1  0  0  0  0
 17 18  1  6  0  0  0
 19 21  1  0  0  0  0
 19 20  1  6  0  0  0
 21 16  1  0  0  0  0
 21 22  1  1  0  0  0
 22 32  1  0  0  0  0
 23 22  1  0  0  0  0
 23 24  2  0  0  0  0
 24 25  1  0  0  0  0
 25 26  1  0  0  0  0
 26 27  2  0  0  0  0
 26 28  1  0  0  0  0
 29 28  1  0  0  0  0
 29 30  1  0  0  0  0
 31 29  2  0  0  0  0
 32 25  2  0  0  0  0
 32 31  1  0  0  0  0
M  END
>  <CHROM.1>
-53.56119789,67.18885802,-159.01564300,88.69479464,24.85149469,78.58949866
74.86316249,-176.42524963,-60.49359794,114.29454240,2.89067506,15.03650926
1.88972343,0.80032270,-0.37696146,-0.88104229

>  <Name>
lig.pdb

>  <RI>
2.92062e+07

>  <Rbt.Current_Directory>
/home/itssahil/PROJECTS/Mol_Feturizer/New_Systems/rnas/5lwj

>  <Rbt.Executable>
rbdock ($Id: //depot/dev/client3/rdock/2013.1/src/exe/rbdock.cxx#4 $)

>  <Rbt.Library>
libRbt.so (2013.1, Build901 2013/11/27)

>  <Rbt.Parameter_File>
/export/apps/rDock/src/rDock_2013.1_src/data/scripts/dock_solv.prm

>  <Rbt.Receptor>
prm/pocket_docking_7.prm

>  <SCORE>
-56.4052

>  <SCORE.INTER>
-55.8937

>  <SCORE.INTER.CONST>
1

>  <SCORE.INTER.POLAR>
-5.80295

>  <SCORE.INTER.ROT>
8

>  <SCORE.INTER.SOLV>
21.0594

>  <SCORE.INTER.VDW>
-33.8725

>  <SCORE.INTER.norm>
-1.74668

>  <SCORE.INTRA>
-0.511465

>  <SCORE.INTRA.DIHEDRAL>
-2.71897

>  <SCORE.INTRA.DIHEDRAL.0>
10.9248

>  <SCORE.INTRA.POLAR>
0

>  <SCORE.INTRA.POLAR.0>
0

>  <SCORE.INTRA.REPUL>
0

>  <SCORE.INTRA.REPUL.0>
0

>  <SCORE.INTRA.SOLV>
3.35979

>  <SCORE.INTRA.SOLV.lig_0>
-51.4104

>  <SCORE.INTRA.VDW>
-0.831873

>  <SCORE.INTRA.VDW.0>
0.110327

>  <SCORE.INTRA.norm>
-0.0159833

>  <SCORE.RESTR>
0

>  <SCORE.RESTR.CAVITY>
0

>  <SCORE.RESTR.norm>
0

>  <SCORE.SYSTEM>
0

>  <SCORE.SYSTEM.CONST>
0

>  <SCORE.SYSTEM.DIHEDRAL>
0

>  <SCORE.SYSTEM.SOLV>
0

>  <SCORE.SYSTEM.norm>
0

>  <SCORE.heavy>
32

>  <SCORE.norm>
-1.76266

>  <RMSD>
2.314

$$$$
lig.pdb
 OpenBabel11021811523D
libRbt.so/2013.1/901 2013/11/27
 32 34  0  0  0  0  0  0  0  0999 V2000
    6.9222   19.6041   -0.7526 P   0  0  0  0  0  0  0  0  0  0  0  0
    7.8035   20.7844   -0.4237 O   0  0  0  0  0  0  0  0  0  0  0  0
    5.4347   20.2515   -0.7830 O   0  0  0  0  0  0  0  0  0  0  0  0
    7.0501   18.9685   -2.1145 O   0  0  0  0  0  0  0  0  0  0  0  0
    7.2600   18.5706    0.2068 O   0  0  0  0  0  0  0  0  0  0  0  0
    6.0904   17.6841    0.4111 P   0  0  1  0  0  0  0  0  0  0  0  0
    5.0064   18.4848    1.0274 O   0  0  0  0  0  0  0  0  0  0  0  0
    5.6203   17.1556   -0.8906 O   0  0  0  0  0  0  0  0  0  0  0  0
    6.4726   16.5597    1.3017 O   0  0  0  0  0  0  0  0  0  0  0  0
    5.6132   15.3676    1.4949 P   0  0  1  0  0  0  0  0  0  0  0  0
    5.1612   14.7203    0.2465 O   0  0  0  0  0  0  0  0  0  0  0  0
    6.0622   14.4345    2.5521 O   0  0  0  0  0  0  0  0  0  0  0  0
    4.2415   16.0059    2.0692 O   0  0  0  0  0  0  0  0  0  0  0  0
    3.0634   16.0969    1.2903 C   0  0  0  0  0  0  0  0  0  0  0  0
    2.5039   14.7207    0.9040 C   0  0  1  0  0  0  0  0  0  0  0  0
    1.8650   14.1222    2.0130 O   0  0  0  0  0  0  0  0  0  0  0  0
    1.3514   14.7832   -0.1137 C   0  0  1  0  0  0  0  0  0  0  0  0
    1.7373   15.0134   -1.4584 O   0  0  0  0  0  0  0  0  0  0  0  0
    0.6405   13.4434    0.0759 C   0  0  1  0  0  0  0  0  0  0  0  0
    1.1451   12.4429   -0.7909 O   0  0  0  0  0  0  0  0  0  0  0  0
    1.0324   13.0925    1.5100 C   0  0  2  0  0  0  0  0  0  0  0  0
   -0.0949   12.8172    2.4262 N   0  0  0  0  0  0  0  0  0  0  0  0
   -1.4261   13.1324    2.3222 C   0  0  0  0  0  0  0  0  0  0  0  0
   -2.1325   12.8165    3.3767 N   0  0  0  0  0  0  0  0  0  0  0  0
   -1.2121   12.2255    4.2371 C   0  0  0  0  0  0  0  0  0  0  0  0
   -1.3689   11.7112    5.5641 C   0  0  0  0  0  0  0  0  0  0  0  0
   -2.3827   11.7210    6.2594 O   0  0  0  0  0  0  0  0  0  0  0  0
   -0.1858   11.1618    6.0763 N   0  0  0  0  0  0  0  0  0  0  0  0
    1.0015   11.0892    5.3635 C   0  0  0  0  0  0  0  0  0  0  0  0
    2.0324   10.4456    5.9227 N   0  0  0  0  0  0  0  0  0  0  0  0
    1.1565   11.6162    4.1379 N   0  0  0  0  0  0  0  0  0  0  0  0
    0.0218   12.1735    3.6334 C   0  0  0  0  0  0  0  0  0  0  0  0
  1  2  2  0  0  0  0
  1  4  1  0  0  0  0
  1  3  1  0  0  0  0
  5  1  1  0  0  0  0
  6  7  2  1  0  0  0
  6  9  1  0  0  0  0
  6  5  1  0  0  0  0
  6  8  1  0  0  0  0
 10 11  2  6  0  0  0
 10 12  1  0  0  0  0
 10 13  1  0  0  0  0
 10  9  1  0  0  0  0
 13 14  1  0  0  0  0
 15 14  1  1  0  0  0
 15 16  1  0  0  0  0
 17 19  1  0  0  0  0
 17 15  1  0  0  0  0
 17 18  1  6  0  0  0
 19 21  1  0  0  0  0
 19 20  1  6  0  0  0
 21 16  1  0  0  0  0
 21 22  1  1  0  0  0
 22 32  1  0  0  0  0
 23 22  1  0  0  0  0
 23 24  2  0  0  0  0
 24 25  1  0  0  0  0
 25 26  1  0  0  0  0
 26 27  2  0  0  0  0
 26 28  1  0  0  0  0
 29 28  1  0  0  0  0
 29 30  1  0  0  0  0
 31 29  2  0  0  0  0
 32 25  2  0  0  0  0
 32 31  1  0  0  0  0
M  END
>  <CHROM.1>
152.89066923,-168.10426196,-64.59021677,107.02265289,51.16659272,64.15559450
75.54033277,-58.21293388,-61.40050368,105.90010562,3.22243161,15.17181622
1.56353974,-0.75589145,0.46983508,2.10129932

>  <Name>
lig.pdb

>  <RI>
1.82117e+07

>  <Rbt.Current_Directory>
/home/itssahil/PROJECTS/Mol_Feturizer/New_Systems/rnas/5lwj

>  <Rbt.Executable>
rbdock ($Id: //depot/dev/client3/rdock/2013.1/src/exe/rbdock.cxx#4 $)

>  <Rbt.Library>
libRbt.so (2013.1, Build901 2013/11/27)

>  <Rbt.Parameter_File>
/export/apps/rDock/src/rDock_2013.1_src/data/scripts/dock_solv.prm

>  <Rbt.Receptor>
prm/pocket_docking_5.prm

>  <SCORE>
-54.1879

>  <SCORE.INTER>
-50.6264

>  <SCORE.INTER.CONST>
1

>  <SCORE.INTER.POLAR>
-5.03079

>  <SCORE.INTER.ROT>
8

>  <SCORE.INTER.SOLV>
19.6157

>  <SCORE.INTER.VDW>
-32.4536

>  <SCORE.INTER.norm>
-1.58208

>  <SCORE.INTRA>
-3.56742

>  <SCORE.INTRA.DIHEDRAL>
-3.84608

>  <SCORE.INTRA.DIHEDRAL.0>
10.9248

>  <SCORE.INTRA.POLAR>
0

>  <SCORE.INTRA.POLAR.0>
0

>  <SCORE.INTRA.REPUL>
0

>  <SCORE.INTRA.REPUL.0>
0

>  <SCORE.INTRA.SOLV>
0.416595

>  <SCORE.INTRA.SOLV.lig_0>
-51.4104

>  <SCORE.INTRA.VDW>
-1.85268

>  <SCORE.INTRA.VDW.0>
0.110327

>  <SCORE.INTRA.norm>
-0.111482

>  <SCORE.RESTR>
0.00593464

>  <SCORE.RESTR.CAVITY>
0.00593464

>  <SCORE.RESTR.norm>
0.000185457

>  <SCORE.SYSTEM>
0

>  <SCORE.SYSTEM.CONST>
0

>  <SCORE.SYSTEM.DIHEDRAL>
0

>  <SCORE.SYSTEM.SOLV>
0

>  <SCORE.SYSTEM.norm>
0

>  <SCORE.heavy>
32

>  <SCORE.norm>
-1.69337

>  <RMSD>
2.357

$$$$
lig.pdb
 OpenBabel11021811523D
libRbt.so/2013.1/901 2013/11/27
 32 34  0  0  0  0  0  0  0  0999 V2000
    5.8757   19.3951   -1.0853 P   0  0  0  0  0  0  0  0  0  0  0  0
    6.4555   20.5987   -0.3829 O   0  0  0  0  0  0  0  0  0  0  0  0
    4.2849   19.5302   -0.7963 O   0  0  0  0  0  0  0  0  0  0  0  0
    5.9494   19.3363   -2.5907 O   0  0  0  0  0  0  0  0  0  0  0  0
    6.6212   18.2494   -0.6012 O   0  0  0  0  0  0  0  0  0  0  0  0
    5.8024   17.0244   -0.7582 P   0  0  1  0  0  0  0  0  0  0  0  0
    5.4999   16.8528   -2.1987 O   0  0  0  0  0  0  0  0  0  0  0  0
    6.5583   15.8437   -0.2793 O   0  0  0  0  0  0  0  0  0  0  0  0
    4.5465   17.1669    0.0203 O   0  0  0  0  0  0  0  0  0  0  0  0
    4.5089   17.0675    1.4986 P   0  0  1  0  0  0  0  0  0  0  0  0
    4.8111   15.7259    2.0377 O   0  0  0  0  0  0  0  0  0  0  0  0
    5.1539   18.1874    2.2198 O   0  0  0  0  0  0  0  0  0  0  0  0
    2.9321   17.2246    1.8269 O   0  0  0  0  0  0  0  0  0  0  0  0
    1.9255   16.8760    0.8954 C   0  0  0  0  0  0  0  0  0  0  0  0
    1.7826   15.3575    0.7218 C   0  0  1  0  0  0  0  0  0  0  0  0
    1.2474   14.7781    1.8940 O   0  0  0  0  0  0  0  0  0  0  0  0
    0.7324   14.9491   -0.3261 C   0  0  1  0  0  0  0  0  0  0  0  0
    1.1398   15.0741   -1.6784 O   0  0  0  0  0  0  0  0  0  0  0  0
    0.3924   13.5092    0.0579 C   0  0  1  0  0  0  0  0  0  0  0  0
    1.2071   12.5686   -0.6192 O   0  0  0  0  0  0  0  0  0  0  0  0
    0.7583   13.4965    1.5410 C   0  0  2  0  0  0  0  0  0  0  0  0
   -0.3185   13.0614    2.4560 N   0  0  0  0  0  0  0  0  0  0  0  0
   -1.6800   13.2028    2.3622 C   0  0  0  0  0  0  0  0  0  0  0  0
   -2.3333   12.7798    3.4134 N   0  0  0  0  0  0  0  0  0  0  0  0
   -1.3391   12.2987    4.2600 C   0  0  0  0  0  0  0  0  0  0  0  0
   -1.4202   11.7457    5.5782 C   0  0  0  0  0  0  0  0  0  0  0  0
   -2.4226   11.6117    6.2770 O   0  0  0  0  0  0  0  0  0  0  0  0
   -0.1728   11.3459    6.0765 N   0  0  0  0  0  0  0  0  0  0  0  0
    1.0098   11.4404    5.3584 C   0  0  0  0  0  0  0  0  0  0  0  0
    2.1187   10.9267    5.9025 N   0  0  0  0  0  0  0  0  0  0  0  0
    1.0880   12.0040    4.1418 N   0  0  0  0  0  0  0  0  0  0  0  0
   -0.1123   12.4178    3.6512 C   0  0  0  0  0  0  0  0  0  0  0  0
  1  2  2  0  0  0  0
  1  4  1  0  0  0  0
  1  3  1  0  0  0  0
  5  1  1  0  0  0  0
  6  7  2  6  0  0  0
  6  9  1  0  0  0  0
  6  5  1  0  0  0  0
  6  8  1  0  0  0  0
 10 11  2  1  0  0  0
 10 12  1  0  0  0  0
 10 13  1  0  0  0  0
 10  9  1  0  0  0  0
 13 14  1  0  0  0  0
 15 14  1  1  0  0  0
 15 16  1  0  0  0  0
 17 19  1  0  0  0  0
 17 15  1  0  0  0  0
 17 18  1  6  0  0  0
 19 21  1  0  0  0  0
 19 20  1  6  0  0  0
 21 16  1  0  0  0  0
 21 22  1  1  0  0  0
 22 32  1  0  0  0  0
 23 22  1  0  0  0  0
 23 24  2  0  0  0  0
 24 25  1  0  0  0  0
 25 26  1  0  0  0  0
 26 27  2  0  0  0  0
 26 28  1  0  0  0  0
 29 28  1  0  0  0  0
 29 30  1  0  0  0  0
 31 29  2  0  0  0  0
 32 25  2  0  0  0  0
 32 31  1  0  0  0  0
M  END
>  <CHROM.1>
156.13261428,-74.29528708,60.44070451,26.01862089,-67.34403198,72.52248997
69.08450471,-58.28357291,-164.24523088,92.44730003,2.71229248,15.43535692
1.33297911,-0.76157762,0.57179182,1.95309467

>  <Name>
lig.pdb

>  <RI>
0

>  <Rbt.Current_Directory>
/home/itssahil/PROJECTS/Mol_Feturizer/New_Systems/rnas/5lwj

>  <Rbt.Executable>
rbdock ($Id: //depot/dev/client3/rdock/2013.1/src/exe/rbdock.cxx#4 $)

>  <Rbt.Library>
libRbt.so (2013.1, Build901 2013/11/27)

>  <Rbt.Parameter_File>
/export/apps/rDock/src/rDock_2013.1_src/data/scripts/dock_solv.prm

>  <Rbt.Receptor>
prm/pocket_docking_3.prm

>  <SCORE>
-51.178

>  <SCORE.INTER>
-46.2834

>  <SCORE.INTER.CONST>
1

>  <SCORE.INTER.POLAR>
-5.9293

>  <SCORE.INTER.ROT>
8

>  <SCORE.INTER.SOLV>
17.0251

>  <SCORE.INTER.VDW>
-25.6997

>  <SCORE.INTER.norm>
-1.44636

>  <SCORE.INTRA>
-5.01924

>  <SCORE.INTRA.DIHEDRAL>
-3.51343

>  <SCORE.INTRA.DIHEDRAL.0>
10.9248

>  <SCORE.INTRA.POLAR>
0

>  <SCORE.INTRA.POLAR.0>
0

>  <SCORE.INTRA.REPUL>
0

>  <SCORE.INTRA.REPUL.0>
0

>  <SCORE.INTRA.SOLV>
0.753774

>  <SCORE.INTRA.SOLV.lig_0>
-51.4104

>  <SCORE.INTRA.VDW>
-3.63941

>  <SCORE.INTRA.VDW.0>
0.110327

>  <SCORE.INTRA.norm>
-0.156851

>  <SCORE.RESTR>
0.124718

>  <SCORE.RESTR.CAVITY>
0.124718

>  <SCORE.RESTR.norm>
0.00389744

>  <SCORE.SYSTEM>
0

>  <SCORE.SYSTEM.CONST>
0

>  <SCORE.SYSTEM.DIHEDRAL>
0

>  <SCORE.SYSTEM.SOLV>
0

>  <SCORE.SYSTEM.norm>
0

>  <SCORE.heavy>
32

>  <SCORE.norm>
-1.59931

>  <RMSD>
2.370

$$$$
lig.pdb
 OpenBabel11021811523D
libRbt.so/2013.1/901 2013/11/27
 32 34  0  0  0  0  0  0  0  0999 V2000
    9.3073   18.2539   -0.7128 P   0  0  0  0  0  0  0  0  0  0  0  0
    9.5945   18.4525    0.7555 O   0  0  0  0  0  0  0  0  0  0  0  0
    9.7285   19.6777   -1.3670 O   0  0  0  0  0  0  0  0  0  0  0  0
   10.1427   17.2603   -1.4811 O   0  0  0  0  0  0  0  0  0  0  0  0
    7.9402   17.7775   -0.7942 O   0  0  0  0  0  0  0  0  0  0  0  0
    7.0147   18.9342   -0.8284 P   0  0  1  0  0  0  0  0  0  0  0  0
    7.3255   19.8084    0.3271 O   0  0  0  0  0  0  0  0  0  0  0  0
    7.2076   19.7019   -2.0806 O   0  0  0  0  0  0  0  0  0  0  0  0
    5.6143   18.4486   -0.7470 O   0  0  0  0  0  0  0  0  0  0  0  0
    5.1402   17.5600    0.3404 P   0  0  1  0  0  0  0  0  0  0  0  0
    5.3790   16.1202    0.1129 O   0  0  0  0  0  0  0  0  0  0  0  0
    5.4385   18.0310    1.7112 O   0  0  0  0  0  0  0  0  0  0  0  0
    3.5305   17.6674    0.2129 O   0  0  0  0  0  0  0  0  0  0  0  0
    2.6549   17.1052    1.1719 C   0  0  0  0  0  0  0  0  0  0  0  0
    2.6976   15.5708    1.1820 C   0  0  1  0  0  0  0  0  0  0  0  0
    1.9367   15.0661    2.2603 O   0  0  0  0  0  0  0  0  0  0  0  0
    1.9888   14.9226   -0.0201 C   0  0  1  0  0  0  0  0  0  0  0  0
    2.7132   14.9435   -1.2388 O   0  0  0  0  0  0  0  0  0  0  0  0
    1.6932   13.5045    0.4674 C   0  0  1  0  0  0  0  0  0  0  0  0
    2.7341   12.5998    0.1434 O   0  0  0  0  0  0  0  0  0  0  0  0
    1.6703   13.7031    1.9818 C   0  0  2  0  0  0  0  0  0  0  0  0
    0.4401   13.2459    2.6628 N   0  0  0  0  0  0  0  0  0  0  0  0
   -0.8794   13.4995    2.3856 C   0  0  0  0  0  0  0  0  0  0  0  0
   -1.7129   13.0065    3.2648 N   0  0  0  0  0  0  0  0  0  0  0  0
   -0.8931   12.3557    4.1820 C   0  0  0  0  0  0  0  0  0  0  0  0
   -1.2117   11.6595    5.3918 C   0  0  0  0  0  0  0  0  0  0  0  0
   -2.3176   11.5203    5.9103 O   0  0  0  0  0  0  0  0  0  0  0  0
   -0.0829   11.1111    6.0155 N   0  0  0  0  0  0  0  0  0  0  0  0
    1.2014   11.1999    5.5000 C   0  0  0  0  0  0  0  0  0  0  0  0
    2.1801   10.5437    6.1335 N   0  0  0  0  0  0  0  0  0  0  0  0
    1.5018   11.8949    4.3907 N   0  0  0  0  0  0  0  0  0  0  0  0
    0.4190   12.4527    3.7833 C   0  0  0  0  0  0  0  0  0  0  0  0
  1  2  2  0  0  0  0
  1  4  1  0  0  0  0
  1  3  1  0  0  0  0
  5  1  1  0  0  0  0
  6  7  2  1  0  0  0
  6  9  1  0  0  0  0
  6  5  1  0  0  0  0
  6  8  1  0  0  0  0
 10 11  2  6  0  0  0
 10 12  1  0  0  0  0
 10 13  1  0  0  0  0
 10  9  1  0  0  0  0
 13 14  1  0  0  0  0
 15 14  1  6  0  0  0
 15 16  1  0  0  0  0
 17 19  1  0  0  0  0
 17 15  1  0  0  0  0
 17 18  1  6  0  0  0
 19 21  1  0  0  0  0
 19 20  1  1  0  0  0
 21 16  1  0  0  0  0
 21 22  1  6  0  0  0
 22 32  1  0  0  0  0
 23 22  1  0  0  0  0
 23 24  2  0  0  0  0
 24 25  1  0  0  0  0
 25 26  1  0  0  0  0
 26 27  2  0  0  0  0
 26 28  1  0  0  0  0
 29 28  1  0  0  0  0
 29 30  1  0  0  0  0
 31 29  2  0  0  0  0
 32 25  2  0  0  0  0
 32 31  1  0  0  0  0
M  END
>  <CHROM.1>
86.58590152,54.27622436,-52.98632994,-171.78253641,-84.90415272,-67.32719024
172.77895348,-58.97893109,-62.48859179,74.13517811,3.97611311,15.65239770
1.30128978,-0.76798859,0.21114726,2.27490234

>  <Name>
lig.pdb

>  <RI>
1.82117e+07

>  <Rbt.Current_Directory>
/home/itssahil/PROJECTS/Mol_Feturizer/New_Systems/rnas/5lwj

>  <Rbt.Executable>
rbdock ($Id: //depot/dev/client3/rdock/2013.1/src/exe/rbdock.cxx#4 $)

>  <Rbt.Library>
libRbt.so (2013.1, Build901 2013/11/27)

>  <Rbt.Parameter_File>
/export/apps/rDock/src/rDock_2013.1_src/data/scripts/dock_solv.prm

>  <Rbt.Receptor>
prm/pocket_docking_5.prm

>  <SCORE>
-49.8807

>  <SCORE.INTER>
-43.9565

>  <SCORE.INTER.CONST>
1

>  <SCORE.INTER.POLAR>
-5.47529

>  <SCORE.INTER.ROT>
8

>  <SCORE.INTER.SOLV>
14.7151

>  <SCORE.INTER.VDW>
-24.8917

>  <SCORE.INTER.norm>
-1.37364

>  <SCORE.INTRA>
-5.92423

>  <SCORE.INTRA.DIHEDRAL>
-5.75968

>  <SCORE.INTRA.DIHEDRAL.0>
10.9248

>  <SCORE.INTRA.POLAR>
0

>  <SCORE.INTRA.POLAR.0>
0

>  <SCORE.INTRA.REPUL>
0

>  <SCORE.INTRA.REPUL.0>
0

>  <SCORE.INTRA.SOLV>
1.02243

>  <SCORE.INTRA.SOLV.lig_0>
-51.4104

>  <SCORE.INTRA.VDW>
-3.55561

>  <SCORE.INTRA.VDW.0>
0.110327

>  <SCORE.INTRA.norm>
-0.185132

>  <SCORE.RESTR>
0

>  <SCORE.RESTR.CAVITY>
0

>  <SCORE.RESTR.norm>
0

>  <SCORE.SYSTEM>
0

>  <SCORE.SYSTEM.CONST>
0

>  <SCORE.SYSTEM.DIHEDRAL>
0

>  <SCORE.SYSTEM.SOLV>
0

>  <SCORE.SYSTEM.norm>
0

>  <SCORE.heavy>
32

>  <SCORE.norm>
-1.55877

>  <RMSD>
2.372

$$$$
lig.pdb
 OpenBabel11021811523D
libRbt.so/2013.1/901 2013/11/27
 32 34  0  0  0  0  0  0  0  0999 V2000
    4.7751   22.6491    1.3137 P   0  0  0  0  0  0  0  0  0  0  0  0
    4.5621   24.1063    1.6444 O   0  0  0  0  0  0  0  0  0  0  0  0
    5.3187   22.6932   -0.2143 O   0  0  0  0  0  0  0  0  0  0  0  0
    5.8592   21.8969    2.0444 O   0  0  0  0  0  0  0  0  0  0  0  0
    3.5314   21.9775    1.6377 O   0  0  0  0  0  0  0  0  0  0  0  0
    3.3789   20.7786    0.7804 P   0  0  1  0  0  0  0  0  0  0  0  0
    3.1637   21.2324   -0.6138 O   0  0  0  0  0  0  0  0  0  0  0  0
    4.6090   19.9549    0.8360 O   0  0  0  0  0  0  0  0  0  0  0  0
    2.2181   19.9808    1.2492 O   0  0  0  0  0  0  0  0  0  0  0  0
    2.1489   19.3971    2.6099 P   0  0  1  0  0  0  0  0  0  0  0  0
    3.3525   19.6121    3.4386 O   0  0  0  0  0  0  0  0  0  0  0  0
    0.8637   19.5993    3.3152 O   0  0  0  0  0  0  0  0  0  0  0  0
    2.2093   17.8063    2.3192 O   0  0  0  0  0  0  0  0  0  0  0  0
    3.3070   17.1959    1.6671 C   0  0  0  0  0  0  0  0  0  0  0  0
    3.1393   15.6766    1.5265 C   0  0  1  0  0  0  0  0  0  0  0  0
    2.3586   15.1690    2.5892 O   0  0  0  0  0  0  0  0  0  0  0  0
    2.3022   15.2552    0.3060 C   0  0  1  0  0  0  0  0  0  0  0  0
    2.9749   15.3051   -0.9410 O   0  0  0  0  0  0  0  0  0  0  0  0
    1.8339   13.8462    0.6690 C   0  0  1  0  0  0  0  0  0  0  0  0
    2.7276   12.8497    0.2050 O   0  0  0  0  0  0  0  0  0  0  0  0
    1.8971   13.8893    2.1946 C   0  0  2  0  0  0  0  0  0  0  0  0
    0.6432   13.5317    2.8915 N   0  0  0  0  0  0  0  0  0  0  0  0
   -0.6503   13.9249    2.6580 C   0  0  0  0  0  0  0  0  0  0  0  0
   -1.5088   13.4850    3.5413 N   0  0  0  0  0  0  0  0  0  0  0  0
   -0.7376   12.7228    4.4137 C   0  0  0  0  0  0  0  0  0  0  0  0
   -1.0967   12.0176    5.6069 C   0  0  0  0  0  0  0  0  0  0  0  0
   -2.1990   11.9698    6.1491 O   0  0  0  0  0  0  0  0  0  0  0  0
   -0.0146   11.3373    6.1815 N   0  0  0  0  0  0  0  0  0  0  0  0
    1.2601   11.3172    5.6358 C   0  0  0  0  0  0  0  0  0  0  0  0
    2.1823   10.5443    6.2205 N   0  0  0  0  0  0  0  0  0  0  0  0
    1.6033   12.0193    4.5436 N   0  0  0  0  0  0  0  0  0  0  0  0
    0.5682   12.7037    3.9843 C   0  0  0  0  0  0  0  0  0  0  0  0
  1  2  2  0  0  0  0
  1  4  1  0  0  0  0
  1  3  1  0  0  0  0
  5  1  1  0  0  0  0
  6  7  2  6  0  0  0
  6  9  1  0  0  0  0
  6  5  1  0  0  0  0
  6  8  1  0  0  0  0
 10 11  2  1  0  0  0
 10 12  1  0  0  0  0
 10 13  1  0  0  0  0
 10  9  1  0  0  0  0
 13 14  1  0  0  0  0
 15 14  1  1  0  0  0
 15 16  1  0  0  0  0
 17 19  1  0  0  0  0
 17 15  1  0  0  0  0
 17 18  1  6  0  0  0
 19 21  1  0  0  0  0
 19 20  1  6  0  0  0
 21 16  1  0  0  0  0
 21 22  1  1  0  0  0
 22 32  1  0  0  0  0
 23 22  1  0  0  0  0
 23 24  2  0  0  0  0
 24 25  1  0  0  0  0
 25 26  1  0  0  0  0
 26 27  2  0  0  0  0
 26 28  1  0  0  0  0
 29 28  1  0  0  0  0
 29 30  1  0  0  0  0
 31 29  2  0  0  0  0
 32 25  2  0  0  0  0
 32 31  1  0  0  0  0
M  END
>  <CHROM.1>
152.15823319,-60.89628102,-68.28172770,60.34410229,-2.96994735,179.15758186
-29.49778642,-60.77340905,38.56818128,78.53702533,2.29928375,17.06366727
2.36152418,0.78836525,1.04718463,0.38118892

>  <Name>
lig.pdb

>  <RI>
0

>  <Rbt.Current_Directory>
/home/itssahil/PROJECTS/Mol_Feturizer/New_Systems/rnas/5lwj

>  <Rbt.Executable>
rbdock ($Id: //depot/dev/client3/rdock/2013.1/src/exe/rbdock.cxx#4 $)

>  <Rbt.Library>
libRbt.so (2013.1, Build901 2013/11/27)

>  <Rbt.Parameter_File>
/export/apps/rDock/src/rDock_2013.1_src/data/scripts/dock_solv.prm

>  <Rbt.Receptor>
prm/pocket_docking_4.prm

>  <SCORE>
-46.7522

>  <SCORE.INTER>
-43.5478

>  <SCORE.INTER.CONST>
1

>  <SCORE.INTER.POLAR>
-5.78538

>  <SCORE.INTER.ROT>
8

>  <SCORE.INTER.SOLV>
15.9743

>  <SCORE.INTER.VDW>
-24.0054

>  <SCORE.INTER.norm>
-1.36087

>  <SCORE.INTRA>
-3.20435

>  <SCORE.INTRA.DIHEDRAL>
-0.296754

>  <SCORE.INTRA.DIHEDRAL.0>
10.9248

>  <SCORE.INTRA.POLAR>
0

>  <SCORE.INTRA.POLAR.0>
0

>  <SCORE.INTRA.REPUL>
0

>  <SCORE.INTRA.REPUL.0>
0

>  <SCORE.INTRA.SOLV>
-0.534199

>  <SCORE.INTRA.SOLV.lig_0>
-51.4104

>  <SCORE.INTRA.VDW>
-2.78888

>  <SCORE.INTRA.VDW.0>
0.110327

>  <SCORE.INTRA.norm>
-0.100136

>  <SCORE.RESTR>
0

>  <SCORE.RESTR.CAVITY>
0

>  <SCORE.RESTR.norm>
0

>  <SCORE.SYSTEM>
0

>  <SCORE.SYSTEM.CONST>
0

>  <SCORE.SYSTEM.DIHEDRAL>
0

>  <SCORE.SYSTEM.SOLV>
0

>  <SCORE.SYSTEM.norm>
0

>  <SCORE.heavy>
32

>  <SCORE.norm>
-1.46101

>  <RMSD>
2.373

$$$$
lig.pdb
 OpenBabel11021811523D
libRbt.so/2013.1/901 2013/11/27
 32 34  0  0  0  0  0  0  0  0999 V2000
    6.6112   19.9351    2.6545 P   0  0  0  0  0  0  0  0  0  0  0  0
    7.1597   20.0108    4.0586 O   0  0  0  0  0  0  0  0  0  0  0  0
    5.0504   19.5582    2.8880 O   0  0  0  0  0  0  0  0  0  0  0  0
    6.5422   21.2028    1.8400 O   0  0  0  0  0  0  0  0  0  0  0  0
    7.4886   19.0378    1.9281 O   0  0  0  0  0  0  0  0  0  0  0  0
    6.7690   18.4823    0.7580 P   0  0  1  0  0  0  0  0  0  0  0  0
    6.4374   19.6021   -0.1542 O   0  0  0  0  0  0  0  0  0  0  0  0
    7.6339   17.5159    0.0419 O   0  0  0  0  0  0  0  0  0  0  0  0
    5.5302   17.8048    1.2162 O   0  0  0  0  0  0  0  0  0  0  0  0
    4.4896   17.3244    0.2763 P   0  0  1  0  0  0  0  0  0  0  0  0
    4.0760   18.3072   -0.7458 O   0  0  0  0  0  0  0  0  0  0  0  0
    4.6873   15.9474   -0.2289 O   0  0  0  0  0  0  0  0  0  0  0  0
    3.1758   17.2298    1.2163 O   0  0  0  0  0  0  0  0  0  0  0  0
    3.0346   16.2476    2.2252 C   0  0  0  0  0  0  0  0  0  0  0  0
    2.2830   15.0022    1.7351 C   0  0  1  0  0  0  0  0  0  0  0  0
    2.0118   14.1355    2.8175 O   0  0  0  0  0  0  0  0  0  0  0  0
    0.8638   15.2973    1.2188 C   0  0  1  0  0  0  0  0  0  0  0  0
    0.7927   15.8620   -0.0798 O   0  0  0  0  0  0  0  0  0  0  0  0
    0.1652   13.9411    1.3125 C   0  0  1  0  0  0  0  0  0  0  0  0
    0.2792   13.1968    0.1124 O   0  0  0  0  0  0  0  0  0  0  0  0
    0.9888   13.2501    2.3977 C   0  0  2  0  0  0  0  0  0  0  0  0
    0.2167   12.7364    3.5492 N   0  0  0  0  0  0  0  0  0  0  0  0
    0.5774   11.8694    4.5494 C   0  0  0  0  0  0  0  0  0  0  0  0
   -0.3998   11.5543    5.3597 N   0  0  0  0  0  0  0  0  0  0  0  0
   -1.4852   12.2822    4.8815 C   0  0  0  0  0  0  0  0  0  0  0  0
   -2.8470   12.3283    5.3211 C   0  0  0  0  0  0  0  0  0  0  0  0
   -3.3676   11.6784    6.2255 O   0  0  0  0  0  0  0  0  0  0  0  0
   -3.6261   13.2274    4.5804 N   0  0  0  0  0  0  0  0  0  0  0  0
   -3.1266   14.0163    3.5552 C   0  0  0  0  0  0  0  0  0  0  0  0
   -3.9464   14.9128    2.9950 N   0  0  0  0  0  0  0  0  0  0  0  0
   -1.8605   13.9343    3.1148 N   0  0  0  0  0  0  0  0  0  0  0  0
   -1.0946   13.0494    3.8097 C   0  0  0  0  0  0  0  0  0  0  0  0
  1  2  2  0  0  0  0
  1  4  1  0  0  0  0
  1  3  1  0  0  0  0
  5  1  1  0  0  0  0
  6  7  2  6  0  0  0
  6  9  1  0  0  0  0
  6  5  1  0  0  0  0
  6  8  1  0  0  0  0
 10 11  2  6  0  0  0
 10 12  1  0  0  0  0
 10 13  1  0  0  0  0
 10  9  1  0  0  0  0
 13 14  1  0  0  0  0
 15 14  1  1  0  0  0
 15 16  1  0  0  0  0
 17 19  1  0  0  0  0
 17 15  1  0  0  0  0
 17 18  1  6  0  0  0
 19 21  1  0  0  0  0
 19 20  1  6  0  0  0
 21 16  1  0  0  0  0
 21 22  1  1  0  0  0
 22 32  1  0  0  0  0
 23 22  1  0  0  0  0
 23 24  2  0  0  0  0
 24 25  1  0  0  0  0
 25 26  1  0  0  0  0
 26 27  2  0  0  0  0
 26 28  1  0  0  0  0
 29 28  1  0  0  0  0
 29 30  1  0  0  0  0
 31 29  2  0  0  0  0
 32 25  2  0  0  0  0
 32 31  1  0  0  0  0
M  END
>  <CHROM.1>
157.60698441,170.59773013,63.57809369,-70.47884988,-48.25835292,-93.94034548
-172.15037677,66.99376932,-169.46400235,-69.56488482,2.56122300,16.05884069
2.16716440,-0.17184299,0.66300837,1.43922266

>  <Name>
lig.pdb

>  <RI>
3.03081e+07

>  <Rbt.Current_Directory>
/home/itssahil/PROJECTS/Mol_Feturizer/New_Systems/rnas/5lwj

>  <Rbt.Executable>
rbdock ($Id: //depot/dev/client3/rdock/2013.1/src/exe/rbdock.cxx#4 $)

>  <Rbt.Library>
libRbt.so (2013.1, Build901 2013/11/27)

>  <Rbt.Parameter_File>
/export/apps/rDock/src/rDock_2013.1_src/data/scripts/dock_solv.prm

>  <Rbt.Receptor>
prm/pocket_docking_2.prm

>  <SCORE>
-28.9613

>  <SCORE.INTER>
-26.5328

>  <SCORE.INTER.CONST>
1

>  <SCORE.INTER.POLAR>
-2.13587

>  <SCORE.INTER.ROT>
8

>  <SCORE.INTER.SOLV>
16.79

>  <SCORE.INTER.VDW>
-25.099

>  <SCORE.INTER.norm>
-0.829149

>  <SCORE.INTRA>
-3.04961

>  <SCORE.INTRA.DIHEDRAL>
-1.37485

>  <SCORE.INTRA.DIHEDRAL.0>
10.9248

>  <SCORE.INTRA.POLAR>
-0.0427486

>  <SCORE.INTRA.POLAR.0>
0

>  <SCORE.INTRA.REPUL>
0

>  <SCORE.INTRA.REPUL.0>
0

>  <SCORE.INTRA.SOLV>
0.869128

>  <SCORE.INTRA.SOLV.lig_0>
-51.4104

>  <SCORE.INTRA.VDW>
-2.6514

>  <SCORE.INTRA.VDW.0>
0.110327

>  <SCORE.INTRA.norm>
-0.0953003

>  <SCORE.RESTR>
0.621122

>  <SCORE.RESTR.CAVITY>
0.621122

>  <SCORE.RESTR.norm>
0.0194101

>  <SCORE.SYSTEM>
0

>  <SCORE.SYSTEM.CONST>
0

>  <SCORE.SYSTEM.DIHEDRAL>
0

>  <SCORE.SYSTEM.SOLV>
0

>  <SCORE.SYSTEM.norm>
0

>  <SCORE.heavy>
32

>  <SCORE.norm>
-0.90504

>  <RMSD>
2.463

$$$$
lig.pdb
 OpenBabel11021811523D
libRbt.so/2013.1/901 2013/11/27
 32 34  0  0  0  0  0  0  0  0999 V2000
    6.7854   21.6816    0.8068 P   0  0  0  0  0  0  0  0  0  0  0  0
    6.8895   21.2732   -0.6425 O   0  0  0  0  0  0  0  0  0  0  0  0
    8.3003   21.4878    1.3544 O   0  0  0  0  0  0  0  0  0  0  0  0
    6.4842   23.1244    1.1275 O   0  0  0  0  0  0  0  0  0  0  0  0
    5.6923   20.9091    1.3646 O   0  0  0  0  0  0  0  0  0  0  0  0
    6.1824   19.5646    1.7486 P   0  0  1  0  0  0  0  0  0  0  0  0
    6.7457   18.9163    0.5409 O   0  0  0  0  0  0  0  0  0  0  0  0
    7.2461   19.6853    2.7726 O   0  0  0  0  0  0  0  0  0  0  0  0
    5.0548   18.7632    2.2870 O   0  0  0  0  0  0  0  0  0  0  0  0
    4.1594   17.9624    1.4187 P   0  0  1  0  0  0  0  0  0  0  0  0
    3.6583   18.6712    0.2236 O   0  0  0  0  0  0  0  0  0  0  0  0
    4.5992   16.5701    1.1774 O   0  0  0  0  0  0  0  0  0  0  0  0
    2.8233   17.8182    2.3202 O   0  0  0  0  0  0  0  0  0  0  0  0
    1.6870   17.0976    1.8818 C   0  0  0  0  0  0  0  0  0  0  0  0
    1.9376   15.5846    1.8150 C   0  0  1  0  0  0  0  0  0  0  0  0
    1.6554   14.9853    3.0631 O   0  0  0  0  0  0  0  0  0  0  0  0
    0.9629   14.8347    0.8902 C   0  0  1  0  0  0  0  0  0  0  0  0
    1.2295   14.9488   -0.4976 O   0  0  0  0  0  0  0  0  0  0  0  0
    1.0412   13.3925    1.3903 C   0  0  1  0  0  0  0  0  0  0  0  0
    2.0266   12.6411    0.7036 O   0  0  0  0  0  0  0  0  0  0  0  0
    1.4981   13.5964    2.8336 C   0  0  2  0  0  0  0  0  0  0  0  0
    0.6392   12.9753    3.8644 N   0  0  0  0  0  0  0  0  0  0  0  0
    0.9436   12.0780    4.8567 C   0  0  0  0  0  0  0  0  0  0  0  0
   -0.0942   11.6613    5.5350 N   0  0  0  0  0  0  0  0  0  0  0  0
   -1.1657   12.3480    4.9720 C   0  0  0  0  0  0  0  0  0  0  0  0
   -2.5678   12.2885    5.2561 C   0  0  0  0  0  0  0  0  0  0  0  0
   -3.1410   11.5601    6.0637 O   0  0  0  0  0  0  0  0  0  0  0  0
   -3.3178   13.1784    4.4754 N   0  0  0  0  0  0  0  0  0  0  0  0
   -2.7611   14.0506    3.5521 C   0  0  0  0  0  0  0  0  0  0  0  0
   -3.5712   14.9258    2.9459 N   0  0  0  0  0  0  0  0  0  0  0  0
   -1.4515   14.0687    3.2547 N   0  0  0  0  0  0  0  0  0  0  0  0
   -0.7105   13.1946    3.9891 C   0  0  0  0  0  0  0  0  0  0  0  0
  1  2  2  0  0  0  0
  1  4  1  0  0  0  0
  1  3  1  0  0  0  0
  5  1  1  0  0  0  0
  6  7  2  6  0  0  0
  6  9  1  0  0  0  0
  6  5  1  0  0  0  0
  6  8  1  0  0  0  0
 10 11  2  6  0  0  0
 10 12  1  0  0  0  0
 10 13  1  0  0  0  0
 10  9  1  0  0  0  0
 13 14  1  0  0  0  0
 15 14  1  1  0  0  0
 15 16  1  0  0  0  0
 17 19  1  0  0  0  0
 17 15  1  0  0  0  0
 17 18  1  6  0  0  0
 19 21  1  0  0  0  0
 19 20  1  6  0  0  0
 21 16  1  0  0  0  0
 21 22  1  1  0  0  0
 22 32  1  0  0  0  0
 23 22  1  0  0  0  0
 23 24  2  0  0  0  0
 24 25  1  0  0  0  0
 25 26  1  0  0  0  0
 26 27  2  0  0  0  0
 26 28  1  0  0  0  0
 29 28  1  0  0  0  0
 29 30  1  0  0  0  0
 31 29  2  0  0  0  0
 32 25  2  0  0  0  0
 32 31  1  0  0  0  0
M  END
>  <CHROM.1>
82.89565465,87.08681487,-58.28434663,-179.12431950,-47.11430268,69.18262552
87.96745343,-164.22535259,-52.16312915,-111.82718461,2.65801043,16.62420342
2.22705110,0.58965032,0.59284911,0.33407853

>  <Name>
lig.pdb

>  <RI>
3.03081e+07

>  <Rbt.Current_Directory>
/home/itssahil/PROJECTS/Mol_Feturizer/New_Systems/rnas/5lwj

>  <Rbt.Executable>
rbdock ($Id: //depot/dev/client3/rdock/2013.1/src/exe/rbdock.cxx#4 $)

>  <Rbt.Library>
libRbt.so (2013.1, Build901 2013/11/27)

>  <Rbt.Parameter_File>
/export/apps/rDock/src/rDock_2013.1_src/data/scripts/dock_solv.prm

>  <Rbt.Receptor>
prm/pocket_docking_2.prm

>  <SCORE>
-25.7647

>  <SCORE.INTER>
-22.6407

>  <SCORE.INTER.CONST>
1

>  <SCORE.INTER.POLAR>
-1.77858

>  <SCORE.INTER.ROT>
8

>  <SCORE.INTER.SOLV>
15.6431

>  <SCORE.INTER.VDW>
-23.3129

>  <SCORE.INTER.norm>
-0.707522

>  <SCORE.INTRA>
-3.68845

>  <SCORE.INTRA.DIHEDRAL>
-1.28783

>  <SCORE.INTRA.DIHEDRAL.0>
10.9248

>  <SCORE.INTRA.POLAR>
-0.00274722

>  <SCORE.INTRA.POLAR.0>
0

>  <SCORE.INTRA.REPUL>
0

>  <SCORE.INTRA.REPUL.0>
0

>  <SCORE.INTRA.SOLV>
0.497749

>  <SCORE.INTRA.SOLV.lig_0>
-51.4104

>  <SCORE.INTRA.VDW>
-3.28407

>  <SCORE.INTRA.VDW.0>
0.110327

>  <SCORE.INTRA.norm>
-0.115264

>  <SCORE.RESTR>
0.56449

>  <SCORE.RESTR.CAVITY>
0.56449

>  <SCORE.RESTR.norm>
0.0176403

>  <SCORE.SYSTEM>
0

>  <SCORE.SYSTEM.CONST>
0

>  <SCORE.SYSTEM.DIHEDRAL>
0

>  <SCORE.SYSTEM.SOLV>
0

>  <SCORE.SYSTEM.norm>
0

>  <SCORE.heavy>
32

>  <SCORE.norm>
-0.805146

>  <RMSD>
2.477

$$$$
lig.pdb
 OpenBabel11021811523D
libRbt.so/2013.1/901 2013/11/27
 32 34  0  0  0  0  0  0  0  0999 V2000
    3.7472   21.6978    2.8191 P   0  0  0  0  0  0  0  0  0  0  0  0
    4.8213   21.1569    3.7310 O   0  0  0  0  0  0  0  0  0  0  0  0
    3.7793   23.2925    3.1166 O   0  0  0  0  0  0  0  0  0  0  0  0
    3.9632   21.6203    1.3283 O   0  0  0  0  0  0  0  0  0  0  0  0
    2.5562   20.9176    3.0938 O   0  0  0  0  0  0  0  0  0  0  0  0
    2.6999   19.5690    2.4970 P   0  0  1  0  0  0  0  0  0  0  0  0
    2.5276   19.6925    1.0303 O   0  0  0  0  0  0  0  0  0  0  0  0
    4.0501   19.0294    2.7809 O   0  0  0  0  0  0  0  0  0  0  0  0
    1.6679   18.6654    3.0644 O   0  0  0  0  0  0  0  0  0  0  0  0
    1.3285   17.3587    2.4526 P   0  0  1  0  0  0  0  0  0  0  0  0
    0.3495   16.5543    3.2117 O   0  0  0  0  0  0  0  0  0  0  0  0
    1.1078   17.3888    0.9895 O   0  0  0  0  0  0  0  0  0  0  0  0
    2.6936   16.5105    2.6423 O   0  0  0  0  0  0  0  0  0  0  0  0
    3.3859   15.9342    1.5508 C   0  0  0  0  0  0  0  0  0  0  0  0
    2.7196   14.6483    1.0422 C   0  0  1  0  0  0  0  0  0  0  0  0
    2.0406   13.9977    2.0968 O   0  0  0  0  0  0  0  0  0  0  0  0
    1.5713   14.8959    0.0483 C   0  0  1  0  0  0  0  0  0  0  0  0
    1.9686   15.2229   -1.2729 O   0  0  0  0  0  0  0  0  0  0  0  0
    0.7593   13.6029    0.1182 C   0  0  1  0  0  0  0  0  0  0  0  0
    1.1811   12.6537   -0.8452 O   0  0  0  0  0  0  0  0  0  0  0  0
    1.1286   13.0877    1.5081 C   0  0  2  0  0  0  0  0  0  0  0  0
   -0.0130   12.8139    2.4069 N   0  0  0  0  0  0  0  0  0  0  0  0
   -1.3403   13.1404    2.2877 C   0  0  0  0  0  0  0  0  0  0  0  0
   -2.0631   12.8217    3.3301 N   0  0  0  0  0  0  0  0  0  0  0  0
   -1.1590   12.2165    4.1979 C   0  0  0  0  0  0  0  0  0  0  0  0
   -1.3375   11.6928    5.5184 C   0  0  0  0  0  0  0  0  0  0  0  0
   -2.3604   11.7049    6.2001 O   0  0  0  0  0  0  0  0  0  0  0  0
   -0.1657   11.1300    6.0418 N   0  0  0  0  0  0  0  0  0  0  0  0
    1.0305   11.0538    5.3444 C   0  0  0  0  0  0  0  0  0  0  0  0
    2.0487   10.3976    5.9120 N   0  0  0  0  0  0  0  0  0  0  0  0
    1.2059   11.5894    4.1253 N   0  0  0  0  0  0  0  0  0  0  0  0
    0.0825   12.1597    3.6102 C   0  0  0  0  0  0  0  0  0  0  0  0
  1  2  2  0  0  0  0
  1  4  1  0  0  0  0
  1  3  1  0  0  0  0
  5  1  1  0  0  0  0
  6  7  2  6  0  0  0
  6  9  1  0  0  0  0
  6  5  1  0  0  0  0
  6  8  1  0  0  0  0
 10 11  2  1  0  0  0
 10 12  1  0  0  0  0
 10 13  1  0  0  0  0
 10  9  1  0  0  0  0
 13 14  1  0  0  0  0
 15 14  1  1  0  0  0
 15 16  1  0  0  0  0
 17 19  1  0  0  0  0
 17 15  1  0  0  0  0
 17 18  1  6  0  0  0
 19 21  1  0  0  0  0
 19 20  1  6  0  0  0
 21 16  1  0  0  0  0
 21 22  1  1  0  0  0
 22 32  1  0  0  0  0
 23 22  1  0  0  0  0
 23 24  2  0  0  0  0
 24 25  1  0  0  0  0
 25 26  1  0  0  0  0
 26 27  2  0  0  0  0
 26 28  1  0  0  0  0
 29 28  1  0  0  0  0
 29 30  1  0  0  0  0
 31 29  2  0  0  0  0
 32 25  2  0  0  0  0
 32 31  1  0  0  0  0
M  END
>  <CHROM.1>
-74.34406728,164.89457044,-74.40860830,-122.88589605,175.69253766,-77.26746350
-29.09181796,-56.39670897,-173.06411820,112.40743813,1.62229532,16.11337365
2.64529353,0.24131654,1.19070481,1.15220179

>  <Name>
lig.pdb

>  <RI>
1.82117e+07

>  <Rbt.Current_Directory>
/home/itssahil/PROJECTS/Mol_Feturizer/New_Systems/rnas/5lwj

>  <Rbt.Executable>
rbdock ($Id: //depot/dev/client3/rdock/2013.1/src/exe/rbdock.cxx#4 $)

>  <Rbt.Library>
libRbt.so (2013.1, Build901 2013/11/27)

>  <Rbt.Parameter_File>
/export/apps/rDock/src/rDock_2013.1_src/data/scripts/dock_solv.prm

>  <Rbt.Receptor>
prm/pocket_docking_5.prm

>  <SCORE>
-58.5255

>  <SCORE.INTER>
-58.3764

>  <SCORE.INTER.CONST>
1

>  <SCORE.INTER.POLAR>
-7.29874

>  <SCORE.INTER.ROT>
8

>  <SCORE.INTER.SOLV>
18.9091

>  <SCORE.INTER.VDW>
-29.8248

>  <SCORE.INTER.norm>
-1.82426

>  <SCORE.INTRA>
-0.149136

>  <SCORE.INTRA.DIHEDRAL>
-0.41725

>  <SCORE.INTRA.DIHEDRAL.0>
10.9248

>  <SCORE.INTRA.POLAR>
0

>  <SCORE.INTRA.POLAR.0>
0

>  <SCORE.INTRA.REPUL>
0

>  <SCORE.INTRA.REPUL.0>
0

>  <SCORE.INTRA.SOLV>
1.02219

>  <SCORE.INTRA.SOLV.lig_0>
-51.4104

>  <SCORE.INTRA.VDW>
-0.451607

>  <SCORE.INTRA.VDW.0>
0.110327

>  <SCORE.INTRA.norm>
-0.00466049

>  <SCORE.RESTR>
0

>  <SCORE.RESTR.CAVITY>
0

>  <SCORE.RESTR.norm>
0

>  <SCORE.SYSTEM>
0

>  <SCORE.SYSTEM.CONST>
0

>  <SCORE.SYSTEM.DIHEDRAL>
0

>  <SCORE.SYSTEM.SOLV>
0

>  <SCORE.SYSTEM.norm>
0

>  <SCORE.heavy>
32

>  <SCORE.norm>
-1.82892

>  <RMSD>
2.710

$$$$
lig.pdb
 OpenBabel11021811523D
libRbt.so/2013.1/901 2013/11/27
 32 34  0  0  0  0  0  0  0  0999 V2000
    5.9273   18.1621   -1.9610 P   0  0  0  0  0  0  0  0  0  0  0  0
    5.6030   17.9830   -3.4242 O   0  0  0  0  0  0  0  0  0  0  0  0
    6.4014   19.7114   -1.8753 O   0  0  0  0  0  0  0  0  0  0  0  0
    4.8008   18.0898   -0.9606 O   0  0  0  0  0  0  0  0  0  0  0  0
    6.8398   17.0888   -1.6173 O   0  0  0  0  0  0  0  0  0  0  0  0
    7.4007   17.3300   -0.2672 P   0  0  1  0  0  0  0  0  0  0  0  0
    8.5684   16.4358   -0.0859 O   0  0  0  0  0  0  0  0  0  0  0  0
    7.8468   18.7375   -0.1467 O   0  0  0  0  0  0  0  0  0  0  0  0
    6.3651   17.0415    0.7565 O   0  0  0  0  0  0  0  0  0  0  0  0
    5.7306   15.7092    0.8957 P   0  0  1  0  0  0  0  0  0  0  0  0
    4.8535   15.3199   -0.2271 O   0  0  0  0  0  0  0  0  0  0  0  0
    6.6238   14.6368    1.3881 O   0  0  0  0  0  0  0  0  0  0  0  0
    4.6714   15.9421    2.0968 O   0  0  0  0  0  0  0  0  0  0  0  0
    3.2798   16.0600    1.8681 C   0  0  0  0  0  0  0  0  0  0  0  0
    2.6652   14.7753    1.2953 C   0  0  1  0  0  0  0  0  0  0  0  0
    1.9873   14.0617    2.3090 O   0  0  0  0  0  0  0  0  0  0  0  0
    1.5290   15.0266    0.2885 C   0  0  1  0  0  0  0  0  0  0  0  0
    1.9409   15.4189   -1.0102 O   0  0  0  0  0  0  0  0  0  0  0  0
    0.7578   13.7069    0.2904 C   0  0  1  0  0  0  0  0  0  0  0  0
    1.2286   12.8111   -0.7010 O   0  0  0  0  0  0  0  0  0  0  0  0
    1.1166   13.1480    1.6660 C   0  0  2  0  0  0  0  0  0  0  0  0
   -0.0327   12.8025    2.5295 N   0  0  0  0  0  0  0  0  0  0  0  0
   -1.3711   13.0649    2.3802 C   0  0  0  0  0  0  0  0  0  0  0  0
   -2.1038   12.6927    3.3977 N   0  0  0  0  0  0  0  0  0  0  0  0
   -1.1933   12.1182    4.2795 C   0  0  0  0  0  0  0  0  0  0  0  0
   -1.3795   11.5634    5.5863 C   0  0  0  0  0  0  0  0  0  0  0  0
   -2.4190   11.5130    6.2406 O   0  0  0  0  0  0  0  0  0  0  0  0
   -0.1950   11.0504    6.1317 N   0  0  0  0  0  0  0  0  0  0  0  0
    1.0211   11.0456    5.4653 C   0  0  0  0  0  0  0  0  0  0  0  0
    2.0559   10.4309    6.0493 N   0  0  0  0  0  0  0  0  0  0  0  0
    1.2010   11.6103    4.2600 N   0  0  0  0  0  0  0  0  0  0  0  0
    0.0642   12.1330    3.7244 C   0  0  0  0  0  0  0  0  0  0  0  0
  1  2  2  0  0  0  0
  1  4  1  0  0  0  0
  1  3  1  0  0  0  0
  5  1  1  0  0  0  0
  6  7  2  1  0  0  0
  6  9  1  0  0  0  0
  6  5  1  0  0  0  0
  6  8  1  0  0  0  0
 10 11  2  6  0  0  0
 10 12  1  0  0  0  0
 10 13  1  0  0  0  0
 10  9  1  0  0  0  0
 13 14  1  0  0  0  0
 15 14  1  1  0  0  0
 15 16  1  0  0  0  0
 17 19  1  0  0  0  0
 17 15  1  0  0  0  0
 17 18  1  6  0  0  0
 19 21  1  0  0  0  0
 19 20  1  6  0  0  0
 21 16  1  0  0  0  0
 21 22  1  1  0  0  0
 22 32  1  0  0  0  0
 23 22  1  0  0  0  0
 23 24  2  0  0  0  0
 24 25  1  0  0  0  0
 25 26  1  0  0  0  0
 26 27  2  0  0  0  0
 26 28  1  0  0  0  0
 29 28  1  0  0  0  0
 29 30  1  0  0  0  0
 31 29  2  0  0  0  0
 32 25  2  0  0  0  0
 32 31  1  0  0  0  0
M  END
>  <CHROM.1>
169.80669265,59.64382492,-165.56978240,104.96835446,-68.16529379,64.04427561
102.02458427,14.11440829,53.84655304,114.13260459,3.36566633,14.94423101
1.28308258,0.81102834,-0.27593918,-1.00470888

>  <Name>
lig.pdb

>  <RI>
0

>  <Rbt.Current_Directory>
/home/itssahil/PROJECTS/Mol_Feturizer/New_Systems/rnas/5lwj

>  <Rbt.Executable>
rbdock ($Id: //depot/dev/client3/rdock/2013.1/src/exe/rbdock.cxx#4 $)

>  <Rbt.Library>
libRbt.so (2013.1, Build901 2013/11/27)

>  <Rbt.Parameter_File>
/export/apps/rDock/src/rDock_2013.1_src/data/scripts/dock_solv.prm

>  <Rbt.Receptor>
prm/pocket_docking_4.prm

>  <SCORE>
-49.074

>  <SCORE.INTER>
-47.6019

>  <SCORE.INTER.CONST>
1

>  <SCORE.INTER.POLAR>
-4.81515

>  <SCORE.INTER.ROT>
8

>  <SCORE.INTER.SOLV>
17.4801

>  <SCORE.INTER.VDW>
-30.4442

>  <SCORE.INTER.norm>
-1.48756

>  <SCORE.INTRA>
-1.49579

>  <SCORE.INTRA.DIHEDRAL>
4.94577

>  <SCORE.INTRA.DIHEDRAL.0>
10.9248

>  <SCORE.INTRA.POLAR>
-0.953509

>  <SCORE.INTRA.POLAR.0>
0

>  <SCORE.INTRA.REPUL>
0

>  <SCORE.INTRA.REPUL.0>
0

>  <SCORE.INTRA.SOLV>
1.70203

>  <SCORE.INTRA.SOLV.lig_0>
-51.4104

>  <SCORE.INTRA.VDW>
-1.57776

>  <SCORE.INTRA.VDW.0>
0.110327

>  <SCORE.INTRA.norm>
-0.0467435

>  <SCORE.RESTR>
0.0237691

>  <SCORE.RESTR.CAVITY>
0.0237691

>  <SCORE.RESTR.norm>
0.000742784

>  <SCORE.SYSTEM>
0

>  <SCORE.SYSTEM.CONST>
0

>  <SCORE.SYSTEM.DIHEDRAL>
0

>  <SCORE.SYSTEM.SOLV>
0

>  <SCORE.SYSTEM.norm>
0

>  <SCORE.heavy>
32

>  <SCORE.norm>
-1.53356

>  <RMSD>
2.779

$$$$
lig.pdb
 OpenBabel11021811523D
libRbt.so/2013.1/901 2013/11/27
 32 34  0  0  0  0  0  0  0  0999 V2000
    6.6572   18.9008   -2.4149 P   0  0  0  0  0  0  0  0  0  0  0  0
    6.8258   17.4453   -2.7767 O   0  0  0  0  0  0  0  0  0  0  0  0
    8.1614   19.4925   -2.5552 O   0  0  0  0  0  0  0  0  0  0  0  0
    5.8520   19.7824   -3.3367 O   0  0  0  0  0  0  0  0  0  0  0  0
    5.9701   18.9207   -1.1381 O   0  0  0  0  0  0  0  0  0  0  0  0
    4.5508   18.5432   -1.3343 P   0  0  1  0  0  0  0  0  0  0  0  0
    3.8561   19.6802   -1.9829 O   0  0  0  0  0  0  0  0  0  0  0  0
    4.4584   17.3551   -2.2144 O   0  0  0  0  0  0  0  0  0  0  0  0
    3.9332   18.2431   -0.0182 O   0  0  0  0  0  0  0  0  0  0  0  0
    3.6476   19.2943    0.9870 P   0  0  1  0  0  0  0  0  0  0  0  0
    4.8199   20.0931    1.3988 O   0  0  0  0  0  0  0  0  0  0  0  0
    2.4156   20.0774    0.7440 O   0  0  0  0  0  0  0  0  0  0  0  0
    3.3291   18.4353    2.3210 O   0  0  0  0  0  0  0  0  0  0  0  0
    2.1016   17.7573    2.5109 C   0  0  0  0  0  0  0  0  0  0  0  0
    2.1291   16.3231    1.9644 C   0  0  1  0  0  0  0  0  0  0  0  0
    1.5126   15.4385    2.8775 O   0  0  0  0  0  0  0  0  0  0  0  0
    1.2602   16.1203    0.7107 C   0  0  1  0  0  0  0  0  0  0  0  0
    1.8166   16.6020   -0.5011 O   0  0  0  0  0  0  0  0  0  0  0  0
    1.0168   14.6115    0.6905 C   0  0  1  0  0  0  0  0  0  0  0  0
    1.9960   13.9220   -0.0665 O   0  0  0  0  0  0  0  0  0  0  0  0
    1.1972   14.2555    2.1651 C   0  0  2  0  0  0  0  0  0  0  0  0
    0.0635   13.5393    2.7877 N   0  0  0  0  0  0  0  0  0  0  0  0
   -1.2721   13.5395    2.4739 C   0  0  0  0  0  0  0  0  0  0  0  0
   -2.0154   12.8582    3.3071 N   0  0  0  0  0  0  0  0  0  0  0  0
   -1.1085   12.3456    4.2298 C   0  0  0  0  0  0  0  0  0  0  0  0
   -1.3160   11.5533    5.4042 C   0  0  0  0  0  0  0  0  0  0  0  0
   -2.3864   11.1794    5.8794 O   0  0  0  0  0  0  0  0  0  0  0  0
   -0.1186   11.2132    6.0478 N   0  0  0  0  0  0  0  0  0  0  0  0
    1.1364   11.5726    5.5800 C   0  0  0  0  0  0  0  0  0  0  0  0
    2.2078   11.0970    6.2247 N   0  0  0  0  0  0  0  0  0  0  0  0
    1.3237   12.3562    4.5054 N   0  0  0  0  0  0  0  0  0  0  0  0
    0.1690   12.7139    3.8799 C   0  0  0  0  0  0  0  0  0  0  0  0
  1  2  2  0  0  0  0
  1  4  1  0  0  0  0
  1  3  1  0  0  0  0
  5  1  1  0  0  0  0
  6  7  2  6  0  0  0
  6  9  1  0  0  0  0
  6  5  1  0  0  0  0
  6  8  1  0  0  0  0
 10 11  2  1  0  0  0
 10 12  1  0  0  0  0
 10 13  1  0  0  0  0
 10  9  1  0  0  0  0
 13 14  1  0  0  0  0
 15 14  1  1  0  0  0
 15 16  1  0  0  0  0
 17 19  1  0  0  0  0
 17 15  1  0  0  0  0
 17 18  1  6  0  0  0
 19 21  1  0  0  0  0
 19 20  1  6  0  0  0
 21 16  1  0  0  0  0
 21 22  1  1  0  0  0
 22 32  1  0  0  0  0
 23 22  1  0  0  0  0
 23 24  2  0  0  0  0
 24 25  1  0  0  0  0
 25 26  1  0  0  0  0
 26 27  2  0  0  0  0
 26 28  1  0  0  0  0
 29 28  1  0  0  0  0
 29 30  1  0  0  0  0
 31 29  2  0  0  0  0
 32 25  2  0  0  0  0
 32 31  1  0  0  0  0
M  END
>  <CHROM.1>
-73.12266763,70.53075666,-73.34252589,-75.96020361,-56.86818168,89.48642749
136.86047315,-37.27936038,-45.92603730,97.74544585,2.70337813,16.23100815
1.15655624,-0.67560762,-0.82099035,-3.13876389

>  <Name>
lig.pdb

>  <RI>
0

>  <Rbt.Current_Directory>
/home/itssahil/PROJECTS/Mol_Feturizer/New_Systems/rnas/5lwj

>  <Rbt.Executable>
rbdock ($Id: //depot/dev/client3/rdock/2013.1/src/exe/rbdock.cxx#4 $)

>  <Rbt.Library>
libRbt.so (2013.1, Build901 2013/11/27)

>  <Rbt.Parameter_File>
/export/apps/rDock/src/rDock_2013.1_src/data/scripts/dock_solv.prm

>  <Rbt.Receptor>
prm/pocket_docking_3.prm

>  <SCORE>
-38.4226

>  <SCORE.INTER>
-37.0095

>  <SCORE.INTER.CONST>
1

>  <SCORE.INTER.POLAR>
-4.66564

>  <SCORE.INTER.ROT>
8

>  <SCORE.INTER.SOLV>
12.8203

>  <SCORE.INTER.VDW>
-22.3276

>  <SCORE.INTER.norm>
-1.15655

>  <SCORE.INTRA>
-1.44702

>  <SCORE.INTRA.DIHEDRAL>
3.96965

>  <SCORE.INTRA.DIHEDRAL.0>
10.9248

>  <SCORE.INTRA.POLAR>
-1.0329

>  <SCORE.INTRA.POLAR.0>
0

>  <SCORE.INTRA.REPUL>
0

>  <SCORE.INTRA.REPUL.0>
0

>  <SCORE.INTRA.SOLV>
2.0748

>  <SCORE.INTRA.SOLV.lig_0>
-51.4104

>  <SCORE.INTRA.VDW>
-0.957383

>  <SCORE.INTRA.VDW.0>
0.110327

>  <SCORE.INTRA.norm>
-0.0452194

>  <SCORE.RESTR>
0.0338927

>  <SCORE.RESTR.CAVITY>
0.0338927

>  <SCORE.RESTR.norm>
0.00105915

>  <SCORE.SYSTEM>
0

>  <SCORE.SYSTEM.CONST>
0

>  <SCORE.SYSTEM.DIHEDRAL>
0

>  <SCORE.SYSTEM.SOLV>
0

>  <SCORE.SYSTEM.norm>
0

>  <SCORE.heavy>
32

>  <SCORE.norm>
-1.20071

>  <RMSD>
2.792

$$$$
lig.pdb
 OpenBabel11021811523D
libRbt.so/2013.1/901 2013/11/27
 32 34  0  0  0  0  0  0  0  0999 V2000
    8.7344   18.5227   -1.0321 P   0  0  0  0  0  0  0  0  0  0  0  0
    7.7430   19.6579   -0.9506 O   0  0  0  0  0  0  0  0  0  0  0  0
    8.4885   17.9243   -2.5201 O   0  0  0  0  0  0  0  0  0  0  0  0
   10.2063   18.8520   -1.0312 O   0  0  0  0  0  0  0  0  0  0  0  0
    8.5050   17.7036    0.1422 O   0  0  0  0  0  0  0  0  0  0  0  0
    7.3916   16.7621   -0.1214 P   0  0  1  0  0  0  0  0  0  0  0  0
    6.2136   17.5499   -0.5545 O   0  0  0  0  0  0  0  0  0  0  0  0
    7.7674   15.8212   -1.2022 O   0  0  0  0  0  0  0  0  0  0  0  0
    7.0805   16.0060    1.1177 O   0  0  0  0  0  0  0  0  0  0  0  0
    5.9115   15.1013    1.2276 P   0  0  1  0  0  0  0  0  0  0  0  0
    5.6918   14.2273    0.0573 O   0  0  0  0  0  0  0  0  0  0  0  0
    5.7544   14.4352    2.5397 O   0  0  0  0  0  0  0  0  0  0  0  0
    4.6598   16.1228    1.1357 O   0  0  0  0  0  0  0  0  0  0  0  0
    3.4197   15.8608    1.7651 C   0  0  0  0  0  0  0  0  0  0  0  0
    2.7194   14.6195    1.1950 C   0  0  1  0  0  0  0  0  0  0  0  0
    2.0349   13.9286    2.2199 O   0  0  0  0  0  0  0  0  0  0  0  0
    1.5685   14.9462    0.2273 C   0  0  1  0  0  0  0  0  0  0  0  0
    1.9615   15.3348   -1.0783 O   0  0  0  0  0  0  0  0  0  0  0  0
    0.7274   13.6700    0.2360 C   0  0  1  0  0  0  0  0  0  0  0  0
    1.1187   12.7648   -0.7812 O   0  0  0  0  0  0  0  0  0  0  0  0
    1.0969   13.0725    1.5924 C   0  0  2  0  0  0  0  0  0  0  0  0
   -0.0428   12.7766    2.4866 N   0  0  0  0  0  0  0  0  0  0  0  0
   -1.3763   13.0736    2.3600 C   0  0  0  0  0  0  0  0  0  0  0  0
   -2.0970   12.7423    3.4000 N   0  0  0  0  0  0  0  0  0  0  0  0
   -1.1841   12.1598    4.2740 C   0  0  0  0  0  0  0  0  0  0  0  0
   -1.3575   11.6365    5.5954 C   0  0  0  0  0  0  0  0  0  0  0  0
   -2.3838   11.6283    6.2722 O   0  0  0  0  0  0  0  0  0  0  0  0
   -0.1762   11.1011    6.1262 N   0  0  0  0  0  0  0  0  0  0  0  0
    1.0247   11.0490    5.4347 C   0  0  0  0  0  0  0  0  0  0  0  0
    2.0543   10.4170    6.0094 N   0  0  0  0  0  0  0  0  0  0  0  0
    1.1943   11.5845    4.2148 N   0  0  0  0  0  0  0  0  0  0  0  0
    0.0612   12.1283    3.6925 C   0  0  0  0  0  0  0  0  0  0  0  0
  1  2  2  0  0  0  0
  1  4  1  0  0  0  0
  1  3  1  0  0  0  0
  5  1  1  0  0  0  0
  6  7  2  6  0  0  0
  6  9  1  0  0  0  0
  6  5  1  0  0  0  0
  6  8  1  0  0  0  0
 10 11  2  6  0  0  0
 10 12  1  0  0  0  0
 10 13  1  0  0  0  0
 10  9  1  0  0  0  0
 13 14  1  0  0  0  0
 15 14  1  1  0  0  0
 15 16  1  0  0  0  0
 17 19  1  0  0  0  0
 17 15  1  0  0  0  0
 17 18  1  6  0  0  0
 19 21  1  0  0  0  0
 19 20  1  6  0  0  0
 21 16  1  0  0  0  0
 21 22  1  1  0  0  0
 22 32  1  0  0  0  0
 23 22  1  0  0  0  0
 23 24  2  0  0  0  0
 24 25  1  0  0  0  0
 25 26  1  0  0  0  0
 26 27  2  0  0  0  0
 26 28  1  0  0  0  0
 29 28  1  0  0  0  0
 29 30  1  0  0  0  0
 31 29  2  0  0  0  0
 32 25  2  0  0  0  0
 32 31  1  0  0  0  0
M  END
>  <CHROM.1>
83.75144018,172.57882139,-54.88688956,-150.79820853,43.53986081,-63.95183184
144.43664547,-65.83650209,-178.99998143,116.63857336,3.83874228,14.79837511
1.43211726,-0.67455596,0.29872658,2.07585076

>  <Name>
lig.pdb

>  <RI>
0

>  <Rbt.Current_Directory>
/home/itssahil/PROJECTS/Mol_Feturizer/New_Systems/rnas/5lwj

>  <Rbt.Executable>
rbdock ($Id: //depot/dev/client3/rdock/2013.1/src/exe/rbdock.cxx#4 $)

>  <Rbt.Library>
libRbt.so (2013.1, Build901 2013/11/27)

>  <Rbt.Parameter_File>
/export/apps/rDock/src/rDock_2013.1_src/data/scripts/dock_solv.prm

>  <Rbt.Receptor>
prm/pocket_docking_4.prm

>  <SCORE>
-59.1158

>  <SCORE.INTER>
-55.3369

>  <SCORE.INTER.CONST>
1

>  <SCORE.INTER.POLAR>
-5.7745

>  <SCORE.INTER.ROT>
8

>  <SCORE.INTER.SOLV>
19.3026

>  <SCORE.INTER.VDW>
-33.0104

>  <SCORE.INTER.norm>
-1.72928

>  <SCORE.INTRA>
-3.79671

>  <SCORE.INTRA.DIHEDRAL>
-2.21455

>  <SCORE.INTRA.DIHEDRAL.0>
10.9248

>  <SCORE.INTRA.POLAR>
0

>  <SCORE.INTRA.POLAR.0>
0

>  <SCORE.INTRA.REPUL>
0.000344802

>  <SCORE.INTRA.REPUL.0>
0

>  <SCORE.INTRA.SOLV>
0.160492

>  <SCORE.INTRA.SOLV.lig_0>
-51.4104

>  <SCORE.INTRA.VDW>
-2.7714

>  <SCORE.INTRA.VDW.0>
0.110327

>  <SCORE.INTRA.norm>
-0.118647

>  <SCORE.RESTR>
0.0177919

>  <SCORE.RESTR.CAVITY>
0.0177919

>  <SCORE.RESTR.norm>
0.000555998

>  <SCORE.SYSTEM>
0

>  <SCORE.SYSTEM.CONST>
0

>  <SCORE.SYSTEM.DIHEDRAL>
0

>  <SCORE.SYSTEM.SOLV>
0

>  <SCORE.SYSTEM.norm>
0

>  <SCORE.heavy>
32

>  <SCORE.norm>
-1.84737

>  <RMSD>
2.800

$$$$
lig.pdb
 OpenBabel11021811523D
libRbt.so/2013.1/901 2013/11/27
 32 34  0  0  0  0  0  0  0  0999 V2000
    1.4306   20.2752    3.4011 P   0  0  0  0  0  0  0  0  0  0  0  0
   -0.0509   20.5633    3.4008 O   0  0  0  0  0  0  0  0  0  0  0  0
    2.0846   21.7050    3.0005 O   0  0  0  0  0  0  0  0  0  0  0  0
    2.0987   19.9451    4.7125 O   0  0  0  0  0  0  0  0  0  0  0  0
    1.6144   19.1136    2.5527 O   0  0  0  0  0  0  0  0  0  0  0  0
    2.9539   19.1689    1.9218 P   0  0  1  0  0  0  0  0  0  0  0  0
    2.9807   20.3255    0.9958 O   0  0  0  0  0  0  0  0  0  0  0  0
    3.9959   19.3557    2.9582 O   0  0  0  0  0  0  0  0  0  0  0  0
    3.2030   17.9073    1.1802 O   0  0  0  0  0  0  0  0  0  0  0  0
    4.5070   17.5986    0.5469 P   0  0  1  0  0  0  0  0  0  0  0  0
    4.5493   17.8012   -0.9156 O   0  0  0  0  0  0  0  0  0  0  0  0
    5.6936   18.0957    1.2783 O   0  0  0  0  0  0  0  0  0  0  0  0
    4.5935   15.9878    0.6750 O   0  0  0  0  0  0  0  0  0  0  0  0
    3.8747   15.2657    1.6572 C   0  0  0  0  0  0  0  0  0  0  0  0
    2.9615   14.1919    1.0494 C   0  0  1  0  0  0  0  0  0  0  0  0
    2.2195   13.5474    2.0645 O   0  0  0  0  0  0  0  0  0  0  0  0
    1.8375   14.7611    0.1659 C   0  0  1  0  0  0  0  0  0  0  0  0
    2.2319   15.1729   -1.1322 O   0  0  0  0  0  0  0  0  0  0  0  0
    0.8045   13.6349    0.1403 C   0  0  1  0  0  0  0  0  0  0  0  0
    1.0026   12.7522   -0.9500 O   0  0  0  0  0  0  0  0  0  0  0  0
    1.1310   12.8944    1.4359 C   0  0  2  0  0  0  0  0  0  0  0  0
   -0.0024   12.7195    2.3691 N   0  0  0  0  0  0  0  0  0  0  0  0
   -1.3162   13.0986    2.2577 C   0  0  0  0  0  0  0  0  0  0  0  0
   -2.0302   12.8674    3.3289 N   0  0  0  0  0  0  0  0  0  0  0  0
   -1.1355   12.2684    4.2105 C   0  0  0  0  0  0  0  0  0  0  0  0
   -1.3090   11.8228    5.5600 C   0  0  0  0  0  0  0  0  0  0  0  0
   -2.3158   11.9164    6.2592 O   0  0  0  0  0  0  0  0  0  0  0  0
   -0.1522   11.2359    6.0905 N   0  0  0  0  0  0  0  0  0  0  0  0
    1.0245   11.0698    5.3758 C   0  0  0  0  0  0  0  0  0  0  0  0
    2.0247   10.3990    5.9583 N   0  0  0  0  0  0  0  0  0  0  0  0
    1.1976   11.5327    4.1270 N   0  0  0  0  0  0  0  0  0  0  0  0
    0.0897   12.1252    3.6035 C   0  0  0  0  0  0  0  0  0  0  0  0
  1  2  2  0  0  0  0
  1  4  1  0  0  0  0
  1  3  1  0  0  0  0
  5  1  1  0  0  0  0
  6  7  2  6  0  0  0
  6  9  1  0  0  0  0
  6  5  1  0  0  0  0
  6  8  1  0  0  0  0
 10 11  2  6  0  0  0
 10 12  1  0  0  0  0
 10 13  1  0  0  0  0
 10  9  1  0  0  0  0
 13 14  1  0  0  0  0
 15 14  1  1  0  0  0
 15 16  1  0  0  0  0
 17 19  1  0  0  0  0
 17 15  1  0  0  0  0
 17 18  1  6  0  0  0
 19 21  1  0  0  0  0
 19 20  1  6  0  0  0
 21 16  1  0  0  0  0
 21 22  1  1  0  0  0
 22 32  1  0  0  0  0
 23 22  1  0  0  0  0
 23 24  2  0  0  0  0
 24 25  1  0  0  0  0
 25 26  1  0  0  0  0
 26 27  2  0  0  0  0
 26 28  1  0  0  0  0
 29 28  1  0  0  0  0
 29 30  1  0  0  0  0
 31 29  2  0  0  0  0
 32 25  2  0  0  0  0
 32 31  1  0  0  0  0
M  END
>  <CHROM.1>
150.42266116,-174.00722049,-66.20997561,-23.50152918,-101.84482905,123.23607510
-177.10280695,-175.91642711,83.06200733,125.22012487,1.82806397,15.85463937
2.38252639,0.90681816,0.92063777,0.26880865

>  <Name>
lig.pdb

>  <RI>
1.82117e+07

>  <Rbt.Current_Directory>
/home/itssahil/PROJECTS/Mol_Feturizer/New_Systems/rnas/5lwj

>  <Rbt.Executable>
rbdock ($Id: //depot/dev/client3/rdock/2013.1/src/exe/rbdock.cxx#4 $)

>  <Rbt.Library>
libRbt.so (2013.1, Build901 2013/11/27)

>  <Rbt.Parameter_File>
/export/apps/rDock/src/rDock_2013.1_src/data/scripts/dock_solv.prm

>  <Rbt.Receptor>
prm/pocket_docking_5.prm

>  <SCORE>
-52.6727

>  <SCORE.INTER>
-53.2925

>  <SCORE.INTER.CONST>
1

>  <SCORE.INTER.POLAR>
-6.27799

>  <SCORE.INTER.ROT>
8

>  <SCORE.INTER.SOLV>
17.7338

>  <SCORE.INTER.VDW>
-29.4463

>  <SCORE.INTER.norm>
-1.66539

>  <SCORE.INTRA>
0.618675

>  <SCORE.INTRA.DIHEDRAL>
5.3484

>  <SCORE.INTRA.DIHEDRAL.0>
10.9248

>  <SCORE.INTRA.POLAR>
0

>  <SCORE.INTRA.POLAR.0>
0

>  <SCORE.INTRA.REPUL>
0.0282106

>  <SCORE.INTRA.REPUL.0>
0

>  <SCORE.INTRA.SOLV>
-0.0995355

>  <SCORE.INTRA.SOLV.lig_0>
-51.4104

>  <SCORE.INTRA.VDW>
-2.14681

>  <SCORE.INTRA.VDW.0>
0.110327

>  <SCORE.INTRA.norm>
0.0193336

>  <SCORE.RESTR>
0.00111421

>  <SCORE.RESTR.CAVITY>
0.00111421

>  <SCORE.RESTR.norm>
3.4819e-05

>  <SCORE.SYSTEM>
0

>  <SCORE.SYSTEM.CONST>
0

>  <SCORE.SYSTEM.DIHEDRAL>
0

>  <SCORE.SYSTEM.SOLV>
0

>  <SCORE.SYSTEM.norm>
0

>  <SCORE.heavy>
32

>  <SCORE.norm>
-1.64602

>  <RMSD>
2.845

$$$$
lig.pdb
 OpenBabel11021811523D
libRbt.so/2013.1/901 2013/11/27
 32 34  0  0  0  0  0  0  0  0999 V2000
    8.4507   17.0395   -1.5433 P   0  0  0  0  0  0  0  0  0  0  0  0
    8.6211   17.2008   -3.0343 O   0  0  0  0  0  0  0  0  0  0  0  0
    9.2262   15.6489   -1.2317 O   0  0  0  0  0  0  0  0  0  0  0  0
    9.1331   18.0275   -0.6305 O   0  0  0  0  0  0  0  0  0  0  0  0
    7.0296   17.1685   -1.2849 O   0  0  0  0  0  0  0  0  0  0  0  0
    6.6916   16.4720   -0.0215 P   0  0  1  0  0  0  0  0  0  0  0  0
    6.9402   15.0236   -0.2120 O   0  0  0  0  0  0  0  0  0  0  0  0
    7.5511   16.9691    1.0780 O   0  0  0  0  0  0  0  0  0  0  0  0
    5.2644   16.7124    0.3083 O   0  0  0  0  0  0  0  0  0  0  0  0
    4.7547   18.0407    0.7242 P   0  0  1  0  0  0  0  0  0  0  0  0
    4.9758   18.3719    2.1466 O   0  0  0  0  0  0  0  0  0  0  0  0
    5.0325   19.1442   -0.2219 O   0  0  0  0  0  0  0  0  0  0  0  0
    3.1498   17.8429    0.6611 O   0  0  0  0  0  0  0  0  0  0  0  0
    2.4356   17.1207    1.6465 C   0  0  0  0  0  0  0  0  0  0  0  0
    2.3457   15.6214    1.3297 C   0  0  1  0  0  0  0  0  0  0  0  0
    1.7326   14.9303    2.3988 O   0  0  0  0  0  0  0  0  0  0  0  0
    1.3940   15.2891    0.1671 C   0  0  1  0  0  0  0  0  0  0  0  0
    1.9057   15.5414   -1.1308 O   0  0  0  0  0  0  0  0  0  0  0  0
    1.0606   13.8148    0.3946 C   0  0  1  0  0  0  0  0  0  0  0  0
    1.9508   12.9532   -0.2926 O   0  0  0  0  0  0  0  0  0  0  0  0
    1.3060   13.6766    1.8960 C   0  0  2  0  0  0  0  0  0  0  0  0
    0.1704   13.1423    2.6775 N   0  0  0  0  0  0  0  0  0  0  0  0
   -1.1745   13.1365    2.4065 C   0  0  0  0  0  0  0  0  0  0  0  0
   -1.9116   12.6613    3.3769 N   0  0  0  0  0  0  0  0  0  0  0  0
   -0.9915   12.3009    4.3568 C   0  0  0  0  0  0  0  0  0  0  0  0
   -1.1856   11.7612    5.6687 C   0  0  0  0  0  0  0  0  0  0  0  0
   -2.2511   11.5311    6.2370 O   0  0  0  0  0  0  0  0  0  0  0  0
    0.0210   11.5037    6.3333 N   0  0  0  0  0  0  0  0  0  0  0  0
    1.2707   11.7135    5.7700 C   0  0  0  0  0  0  0  0  0  0  0  0
    2.3467   11.3286    6.4656 N   0  0  0  0  0  0  0  0  0  0  0  0
    1.4476   12.2649    4.5582 N   0  0  0  0  0  0  0  0  0  0  0  0
    0.2850   12.5413    3.9067 C   0  0  0  0  0  0  0  0  0  0  0  0
  1  2  2  0  0  0  0
  1  4  1  0  0  0  0
  1  3  1  0  0  0  0
  5  1  1  0  0  0  0
  6  7  2  6  0  0  0
  6  9  1  0  0  0  0
  6  5  1  0  0  0  0
  6  8  1  0  0  0  0
 10 11  2  1  0  0  0
 10 12  1  0  0  0  0
 10 13  1  0  0  0  0
 10  9  1  0  0  0  0
 13 14  1  0  0  0  0
 15 14  1  1  0  0  0
 15 16  1  0  0  0  0
 17 19  1  0  0  0  0
 17 15  1  0  0  0  0
 17 18  1  6  0  0  0
 19 21  1  0  0  0  0
 19 20  1  6  0  0  0
 21 16  1  0  0  0  0
 21 22  1  1  0  0  0
 22 32  1  0  0  0  0
 23 22  1  0  0  0  0
 23 24  2  0  0  0  0
 24 25  1  0  0  0  0
 25 26  1  0  0  0  0
 26 27  2  0  0  0  0
 26 28  1  0  0  0  0
 29 28  1  0  0  0  0
 29 30  1  0  0  0  0
 31 29  2  0  0  0  0
 32 25  2  0  0  0  0
 32 31  1  0  0  0  0
M  END
>  <CHROM.1>
155.74368673,-69.18491417,-65.02752317,75.47897577,-81.01298103,-88.50714988
174.67123523,60.96029313,-64.74730885,100.81423869,3.60288299,15.21063457
1.42014566,-0.75540190,0.04372163,2.27380814

>  <Name>
lig.pdb

>  <RI>
2.92062e+07

>  <Rbt.Current_Directory>
/home/itssahil/PROJECTS/Mol_Feturizer/New_Systems/rnas/5lwj

>  <Rbt.Executable>
rbdock ($Id: //depot/dev/client3/rdock/2013.1/src/exe/rbdock.cxx#4 $)

>  <Rbt.Library>
libRbt.so (2013.1, Build901 2013/11/27)

>  <Rbt.Parameter_File>
/export/apps/rDock/src/rDock_2013.1_src/data/scripts/dock_solv.prm

>  <Rbt.Receptor>
prm/pocket_docking_7.prm

>  <SCORE>
-48.9662

>  <SCORE.INTER>
-44.2063

>  <SCORE.INTER.CONST>
1

>  <SCORE.INTER.POLAR>
-5.36283

>  <SCORE.INTER.ROT>
8

>  <SCORE.INTER.SOLV>
16.3026

>  <SCORE.INTER.VDW>
-25.9623

>  <SCORE.INTER.norm>
-1.38145

>  <SCORE.INTRA>
-4.75996

>  <SCORE.INTRA.DIHEDRAL>
-3.07487

>  <SCORE.INTRA.DIHEDRAL.0>
10.9248

>  <SCORE.INTRA.POLAR>
0

>  <SCORE.INTRA.POLAR.0>
0

>  <SCORE.INTRA.REPUL>
0

>  <SCORE.INTRA.REPUL.0>
0

>  <SCORE.INTRA.SOLV>
-0.477712

>  <SCORE.INTRA.SOLV.lig_0>
-51.4104

>  <SCORE.INTRA.VDW>
-2.98367

>  <SCORE.INTRA.VDW.0>
0.110327

>  <SCORE.INTRA.norm>
-0.148749

>  <SCORE.RESTR>
0

>  <SCORE.RESTR.CAVITY>
0

>  <SCORE.RESTR.norm>
0

>  <SCORE.SYSTEM>
0

>  <SCORE.SYSTEM.CONST>
0

>  <SCORE.SYSTEM.DIHEDRAL>
0

>  <SCORE.SYSTEM.SOLV>
0

>  <SCORE.SYSTEM.norm>
0

>  <SCORE.heavy>
32

>  <SCORE.norm>
-1.53019

>  <RMSD>
2.859

$$$$
lig.pdb
 OpenBabel11021811523D
libRbt.so/2013.1/901 2013/11/27
 32 34  0  0  0  0  0  0  0  0999 V2000
    6.8779   18.9171    0.1899 P   0  0  0  0  0  0  0  0  0  0  0  0
    8.3213   19.0036   -0.2428 O   0  0  0  0  0  0  0  0  0  0  0  0
    6.7449   17.3922    0.7282 O   0  0  0  0  0  0  0  0  0  0  0  0
    6.4309   19.7407    1.3719 O   0  0  0  0  0  0  0  0  0  0  0  0
    6.0916   19.3746   -0.9393 O   0  0  0  0  0  0  0  0  0  0  0  0
    4.8070   18.6371   -0.9786 P   0  0  1  0  0  0  0  0  0  0  0  0
    3.9021   19.3362   -1.9211 O   0  0  0  0  0  0  0  0  0  0  0  0
    5.0302   17.2538   -1.4594 O   0  0  0  0  0  0  0  0  0  0  0  0
    4.2133   18.6069    0.3816 O   0  0  0  0  0  0  0  0  0  0  0  0
    2.8329   18.1322    0.6389 P   0  0  1  0  0  0  0  0  0  0  0  0
    1.8767   19.1884    1.0286 O   0  0  0  0  0  0  0  0  0  0  0  0
    2.3128   17.1530   -0.3413 O   0  0  0  0  0  0  0  0  0  0  0  0
    2.9951   17.2898    2.0110 O   0  0  0  0  0  0  0  0  0  0  0  0
    1.8981   16.6669    2.6524 C   0  0  0  0  0  0  0  0  0  0  0  0
    1.6647   15.2315    2.1609 C   0  0  1  0  0  0  0  0  0  0  0  0
    1.5003   14.3578    3.2590 O   0  0  0  0  0  0  0  0  0  0  0  0
    0.3313   15.0397    1.4172 C   0  0  1  0  0  0  0  0  0  0  0  0
    0.3057   15.5109    0.0803 O   0  0  0  0  0  0  0  0  0  0  0  0
    0.0846   13.5346    1.5181 C   0  0  1  0  0  0  0  0  0  0  0  0
    0.6234   12.8292    0.4139 O   0  0  0  0  0  0  0  0  0  0  0  0
    0.8892   13.1785    2.7669 C   0  0  2  0  0  0  0  0  0  0  0  0
    0.1347   12.4805    3.8296 N   0  0  0  0  0  0  0  0  0  0  0  0
    0.4991   11.4390    4.6451 C   0  0  0  0  0  0  0  0  0  0  0  0
   -0.4642   11.0025    5.4146 N   0  0  0  0  0  0  0  0  0  0  0  0
   -1.5427   11.8273    5.1093 C   0  0  0  0  0  0  0  0  0  0  0  0
   -2.8908   11.8210    5.5915 C   0  0  0  0  0  0  0  0  0  0  0  0
   -3.4040   11.0286    6.3790 O   0  0  0  0  0  0  0  0  0  0  0  0
   -3.6656   12.8554    5.0498 N   0  0  0  0  0  0  0  0  0  0  0  0
   -3.1731   13.8068    4.1692 C   0  0  0  0  0  0  0  0  0  0  0  0
   -3.9839   14.8068    3.8058 N   0  0  0  0  0  0  0  0  0  0  0  0
   -1.9216   13.7799    3.6827 N   0  0  0  0  0  0  0  0  0  0  0  0
   -1.1607   12.7680    4.1824 C   0  0  0  0  0  0  0  0  0  0  0  0
  1  2  2  0  0  0  0
  1  4  1  0  0  0  0
  1  3  1  0  0  0  0
  5  1  1  0  0  0  0
  6  7  2  6  0  0  0
  6  9  1  0  0  0  0
  6  5  1  0  0  0  0
  6  8  1  0  0  0  0
 10 11  2  1  0  0  0
 10 12  1  0  0  0  0
 10 13  1  0  0  0  0
 10  9  1  0  0  0  0
 13 14  1  0  0  0  0
 15 14  1  1  0  0  0
 15 16  1  0  0  0  0
 17 19  1  0  0  0  0
 17 15  1  0  0  0  0
 17 18  1  6  0  0  0
 19 21  1  0  0  0  0
 19 20  1  6  0  0  0
 21 16  1  0  0  0  0
 21 22  1  1  0  0  0
 22 32  1  0  0  0  0
 23 22  1  0  0  0  0
 23 24  2  0  0  0  0
 24 25  1  0  0  0  0
 25 26  1  0  0  0  0
 26 27  2  0  0  0  0
 26 28  1  0  0  0  0
 29 28  1  0  0  0  0
 29 30  1  0  0  0  0
 31 29  2  0  0  0  0
 32 25  2  0  0  0  0
 32 31  1  0  0  0  0
M  END
>  <CHROM.1>
146.75644812,170.15679259,166.57890267,178.64325816,-109.88931092,89.57026258
132.16843983,-38.52831717,-58.23516626,-96.04924562,1.95761295,15.88028229
1.76011257,-0.80421818,0.01757614,2.47773955

>  <Name>
lig.pdb

>  <RI>
3.03081e+07

>  <Rbt.Current_Directory>
/home/itssahil/PROJECTS/Mol_Feturizer/New_Systems/rnas/5lwj

>  <Rbt.Executable>
rbdock ($Id: //depot/dev/client3/rdock/2013.1/src/exe/rbdock.cxx#4 $)

>  <Rbt.Library>
libRbt.so (2013.1, Build901 2013/11/27)

>  <Rbt.Parameter_File>
/export/apps/rDock/src/rDock_2013.1_src/data/scripts/dock_solv.prm

>  <Rbt.Receptor>
prm/pocket_docking_2.prm

>  <SCORE>
-18.9517

>  <SCORE.INTER>
-16.0852

>  <SCORE.INTER.CONST>
1

>  <SCORE.INTER.POLAR>
-0.798435

>  <SCORE.INTER.ROT>
8

>  <SCORE.INTER.SOLV>
15.0477

>  <SCORE.INTER.VDW>
-22.0112

>  <SCORE.INTER.norm>
-0.502662

>  <SCORE.INTRA>
-3.95518

>  <SCORE.INTRA.DIHEDRAL>
5.30359

>  <SCORE.INTRA.DIHEDRAL.0>
10.9248

>  <SCORE.INTRA.POLAR>
-0.921449

>  <SCORE.INTRA.POLAR.0>
0

>  <SCORE.INTRA.REPUL>
0

>  <SCORE.INTRA.REPUL.0>
0

>  <SCORE.INTRA.SOLV>
0.528406

>  <SCORE.INTRA.SOLV.lig_0>
-51.4104

>  <SCORE.INTRA.VDW>
-3.73825

>  <SCORE.INTRA.VDW.0>
0.110327

>  <SCORE.INTRA.norm>
-0.123599

>  <SCORE.RESTR>
1.0887

>  <SCORE.RESTR.CAVITY>
1.0887

>  <SCORE.RESTR.norm>
0.034022

>  <SCORE.SYSTEM>
0

>  <SCORE.SYSTEM.CONST>
0

>  <SCORE.SYSTEM.DIHEDRAL>
0

>  <SCORE.SYSTEM.SOLV>
0

>  <SCORE.SYSTEM.norm>
0

>  <SCORE.heavy>
32

>  <SCORE.norm>
-0.592239

>  <RMSD>
2.921

$$$$
lig.pdb
 OpenBabel11021811523D
libRbt.so/2013.1/901 2013/11/27
 32 34  0  0  0  0  0  0  0  0999 V2000
    4.8344   20.5996    3.0698 P   0  0  0  0  0  0  0  0  0  0  0  0
    3.4390   20.5798    3.6446 O   0  0  0  0  0  0  0  0  0  0  0  0
    4.7265   21.6941    1.8769 O   0  0  0  0  0  0  0  0  0  0  0  0
    5.9571   21.1311    3.9255 O   0  0  0  0  0  0  0  0  0  0  0  0
    5.1692   19.2189    2.7795 O   0  0  0  0  0  0  0  0  0  0  0  0
    4.5210   18.8090    1.5117 P   0  0  1  0  0  0  0  0  0  0  0  0
    5.1010   19.6182    0.4140 O   0  0  0  0  0  0  0  0  0  0  0  0
    4.7851   17.3756    1.2467 O   0  0  0  0  0  0  0  0  0  0  0  0
    3.0580   19.0413    1.6075 O   0  0  0  0  0  0  0  0  0  0  0  0
    2.1202   18.6807    0.5178 P   0  0  1  0  0  0  0  0  0  0  0  0
    1.7852   19.7861   -0.4029 O   0  0  0  0  0  0  0  0  0  0  0  0
    2.3915   17.3834   -0.1405 O   0  0  0  0  0  0  0  0  0  0  0  0
    0.7258   18.4543    1.3073 O   0  0  0  0  0  0  0  0  0  0  0  0
    0.5986   17.5301    2.3714 C   0  0  0  0  0  0  0  0  0  0  0  0
    0.7110   16.0725    1.9034 C   0  0  1  0  0  0  0  0  0  0  0  0
    0.6908   15.1982    3.0132 O   0  0  0  0  0  0  0  0  0  0  0  0
   -0.5102   15.5809    1.1067 C   0  0  1  0  0  0  0  0  0  0  0  0
   -0.5751   16.0175   -0.2406 O   0  0  0  0  0  0  0  0  0  0  0  0
   -0.4237   14.0599    1.2314 C   0  0  1  0  0  0  0  0  0  0  0  0
    0.3094   13.4771    0.1685 O   0  0  0  0  0  0  0  0  0  0  0  0
    0.3789   13.9067    2.5221 C   0  0  2  0  0  0  0  0  0  0  0  0
   -0.2532   13.0728    3.5666 N   0  0  0  0  0  0  0  0  0  0  0  0
    0.2317   11.9929    4.2603 C   0  0  0  0  0  0  0  0  0  0  0  0
   -0.6453   11.4297    5.0505 N   0  0  0  0  0  0  0  0  0  0  0  0
   -1.7911   12.2036    4.8922 C   0  0  0  0  0  0  0  0  0  0  0  0
   -3.0980   12.0668    5.4608 C   0  0  0  0  0  0  0  0  0  0  0  0
   -3.5039   11.1784    6.2073 O   0  0  0  0  0  0  0  0  0  0  0  0
   -3.9712   13.0892    5.0659 N   0  0  0  0  0  0  0  0  0  0  0  0
   -3.6021   14.1422    4.2424 C   0  0  0  0  0  0  0  0  0  0  0  0
   -4.4962   15.1130    4.0240 N   0  0  0  0  0  0  0  0  0  0  0  0
   -2.3897   14.2399    3.6730 N   0  0  0  0  0  0  0  0  0  0  0  0
   -1.5348   13.2425    4.0291 C   0  0  0  0  0  0  0  0  0  0  0  0
  1  2  2  0  0  0  0
  1  4  1  0  0  0  0
  1  3  1  0  0  0  0
  5  1  1  0  0  0  0
  6  7  2  6  0  0  0
  6  9  1  0  0  0  0
  6  5  1  0  0  0  0
  6  8  1  0  0  0  0
 10 11  2  6  0  0  0
 10 12  1  0  0  0  0
 10 13  1  0  0  0  0
 10  9  1  0  0  0  0
 13 14  1  0  0  0  0
 15 14  1  1  0  0  0
 15 16  1  0  0  0  0
 17 19  1  0  0  0  0
 17 15  1  0  0  0  0
 17 18  1  6  0  0  0
 19 21  1  0  0  0  0
 19 20  1  6  0  0  0
 21 16  1  0  0  0  0
 21 22  1  1  0  0  0
 22 32  1  0  0  0  0
 23 22  1  0  0  0  0
 23 24  2  0  0  0  0
 24 25  1  0  0  0  0
 25 26  1  0  0  0  0
 26 27  2  0  0  0  0
 26 28  1  0  0  0  0
 29 28  1  0  0  0  0
 29 30  1  0  0  0  0
 31 29  2  0  0  0  0
 32 25  2  0  0  0  0
 32 31  1  0  0  0  0
M  END
>  <CHROM.1>
78.87579723,-177.50246728,64.53198803,-56.44933524,-95.58876429,-68.56743186
175.06512798,-178.81934917,-168.63788165,-108.81038352,1.18050310,16.58599911
2.46047987,-0.40426738,0.75966314,1.79984825

>  <Name>
lig.pdb

>  <RI>
0

>  <Rbt.Current_Directory>
/home/itssahil/PROJECTS/Mol_Feturizer/New_Systems/rnas/5lwj

>  <Rbt.Executable>
rbdock ($Id: //depot/dev/client3/rdock/2013.1/src/exe/rbdock.cxx#4 $)

>  <Rbt.Library>
libRbt.so (2013.1, Build901 2013/11/27)

>  <Rbt.Parameter_File>
/export/apps/rDock/src/rDock_2013.1_src/data/scripts/dock_solv.prm

>  <Rbt.Receptor>
prm/pocket_docking_3.prm

>  <SCORE>
-35.1725

>  <SCORE.INTER>
-29.0287

>  <SCORE.INTER.CONST>
1

>  <SCORE.INTER.POLAR>
-3.3089

>  <SCORE.INTER.ROT>
8

>  <SCORE.INTER.SOLV>
16.0363

>  <SCORE.INTER.VDW>
-22.6015

>  <SCORE.INTER.norm>
-0.907146

>  <SCORE.INTRA>
-6.17748

>  <SCORE.INTRA.DIHEDRAL>
-5.38343

>  <SCORE.INTRA.DIHEDRAL.0>
10.9248

>  <SCORE.INTRA.POLAR>
0

>  <SCORE.INTRA.POLAR.0>
0

>  <SCORE.INTRA.REPUL>
0

>  <SCORE.INTRA.REPUL.0>
0

>  <SCORE.INTRA.SOLV>
1.58427

>  <SCORE.INTRA.SOLV.lig_0>
-51.4104

>  <SCORE.INTRA.VDW>
-4.2779

>  <SCORE.INTRA.VDW.0>
0.110327

>  <SCORE.INTRA.norm>
-0.193046

>  <SCORE.RESTR>
0.0336728

>  <SCORE.RESTR.CAVITY>
0.0336728

>  <SCORE.RESTR.norm>
0.00105228

>  <SCORE.SYSTEM>
0

>  <SCORE.SYSTEM.CONST>
0

>  <SCORE.SYSTEM.DIHEDRAL>
0

>  <SCORE.SYSTEM.SOLV>
0

>  <SCORE.SYSTEM.norm>
0

>  <SCORE.heavy>
32

>  <SCORE.norm>
-1.09914

>  <RMSD>
2.943

$$$$
lig.pdb
 OpenBabel11021811523D
libRbt.so/2013.1/901 2013/11/27
 32 34  0  0  0  0  0  0  0  0999 V2000
    6.1031   18.1589   -0.5089 P   0  0  0  0  0  0  0  0  0  0  0  0
    7.1038   17.1171   -0.9463 O   0  0  0  0  0  0  0  0  0  0  0  0
    6.2316   18.1377    1.1084 O   0  0  0  0  0  0  0  0  0  0  0  0
    6.3687   19.6022   -0.8575 O   0  0  0  0  0  0  0  0  0  0  0  0
    4.8529   17.8124   -1.1566 O   0  0  0  0  0  0  0  0  0  0  0  0
    4.1300   16.8140   -0.3343 P   0  0  1  0  0  0  0  0  0  0  0  0
    5.0252   15.6514   -0.1271 O   0  0  0  0  0  0  0  0  0  0  0  0
    3.7825   17.3968    0.9826 O   0  0  0  0  0  0  0  0  0  0  0  0
    2.8935   16.3947   -1.0406 O   0  0  0  0  0  0  0  0  0  0  0  0
    2.9201   15.6751   -2.3361 P   0  0  1  0  0  0  0  0  0  0  0  0
    2.9978   16.5453   -3.5271 O   0  0  0  0  0  0  0  0  0  0  0  0
    3.8003   14.4861   -2.3760 O   0  0  0  0  0  0  0  0  0  0  0  0
    1.4203   15.0767   -2.4428 O   0  0  0  0  0  0  0  0  0  0  0  0
    0.9504   14.0519   -1.5875 C   0  0  0  0  0  0  0  0  0  0  0  0
    1.2813   14.3169   -0.1121 C   0  0  1  0  0  0  0  0  0  0  0  0
    0.1079   14.2548    0.6725 O   0  0  0  0  0  0  0  0  0  0  0  0
    2.1403   13.2180    0.5379 C   0  0  1  0  0  0  0  0  0  0  0  0
    3.5201   13.2510    0.2134 O   0  0  0  0  0  0  0  0  0  0  0  0
    1.8801   13.4048    2.0324 C   0  0  1  0  0  0  0  0  0  0  0  0
    2.8196   14.2782    2.6337 O   0  0  0  0  0  0  0  0  0  0  0  0
    0.5141   14.0884    2.0192 C   0  0  2  0  0  0  0  0  0  0  0  0
   -0.5361   13.4223    2.8189 N   0  0  0  0  0  0  0  0  0  0  0  0
   -1.9033   13.4814    2.7215 C   0  0  0  0  0  0  0  0  0  0  0  0
   -2.5334   12.8329    3.6667 N   0  0  0  0  0  0  0  0  0  0  0  0
   -1.5143   12.2803    4.4365 C   0  0  0  0  0  0  0  0  0  0  0  0
   -1.5665   11.4971    5.6340 C   0  0  0  0  0  0  0  0  0  0  0  0
   -2.5628   11.1703    6.2758 O   0  0  0  0  0  0  0  0  0  0  0  0
   -0.2978   11.1042    6.0810 N   0  0  0  0  0  0  0  0  0  0  0  0
    0.8812   11.4085    5.4173 C   0  0  0  0  0  0  0  0  0  0  0  0
    2.0198   10.8858    5.8863 N   0  0  0  0  0  0  0  0  0  0  0  0
    0.9288   12.1838    4.3217 N   0  0  0  0  0  0  0  0  0  0  0  0
   -0.2940   12.5923    3.8856 C   0  0  0  0  0  0  0  0  0  0  0  0
  1  2  2  0  0  0  0
  1  4  1  0  0  0  0
  1  3  1  0  0  0  0
  5  1  1  0  0  0  0
  6  7  2  1  0  0  0
  6  9  1  0  0  0  0
  6  5  1  0  0  0  0
  6  8  1  0  0  0  0
 10 11  2  6  0  0  0
 10 12  1  0  0  0  0
 10 13  1  0  0  0  0
 10  9  1  0  0  0  0
 13 14  1  0  0  0  0
 15 14  1  6  0  0  0
 15 16  1  0  0  0  0
 17 19  1  0  0  0  0
 17 15  1  0  0  0  0
 17 18  1  1  0  0  0
 19 21  1  0  0  0  0
 19 20  1  6  0  0  0
 21 16  1  0  0  0  0
 21 22  1  1  0  0  0
 22 32  1  0  0  0  0
 23 22  1  0  0  0  0
 23 24  2  0  0  0  0
 24 25  1  0  0  0  0
 25 26  1  0  0  0  0
 26 27  2  0  0  0  0
 26 28  1  0  0  0  0
 29 28  1  0  0  0  0
 29 30  1  0  0  0  0
 31 29  2  0  0  0  0
 32 25  2  0  0  0  0
 32 31  1  0  0  0  0
M  END
>  <CHROM.1>
85.35528536,64.22299281,-56.08563467,-68.57779394,-86.07229647,46.87534787
126.07730934,-47.84950420,-175.96836813,-32.87611380,2.35109652,14.78718180
1.03500370,-0.82602117,0.53635581,1.86551088

>  <Name>
lig.pdb

>  <RI>
0

>  <Rbt.Current_Directory>
/home/itssahil/PROJECTS/Mol_Feturizer/New_Systems/rnas/5lwj

>  <Rbt.Executable>
rbdock ($Id: //depot/dev/client3/rdock/2013.1/src/exe/rbdock.cxx#4 $)

>  <Rbt.Library>
libRbt.so (2013.1, Build901 2013/11/27)

>  <Rbt.Parameter_File>
/export/apps/rDock/src/rDock_2013.1_src/data/scripts/dock_solv.prm

>  <Rbt.Receptor>
prm/pocket_docking_3.prm

>  <SCORE>
-40.1407

>  <SCORE.INTER>
-35.3162

>  <SCORE.INTER.CONST>
1

>  <SCORE.INTER.POLAR>
-4.64371

>  <SCORE.INTER.ROT>
8

>  <SCORE.INTER.SOLV>
15.1206

>  <SCORE.INTER.VDW>
-22.0387

>  <SCORE.INTER.norm>
-1.10363

>  <SCORE.INTRA>
-4.96567

>  <SCORE.INTRA.DIHEDRAL>
0.22279

>  <SCORE.INTRA.DIHEDRAL.0>
10.9248

>  <SCORE.INTRA.POLAR>
-0.804877

>  <SCORE.INTRA.POLAR.0>
0

>  <SCORE.INTRA.REPUL>
0

>  <SCORE.INTRA.REPUL.0>
0

>  <SCORE.INTRA.SOLV>
3.67077

>  <SCORE.INTRA.SOLV.lig_0>
-51.4104

>  <SCORE.INTRA.VDW>
-4.17587

>  <SCORE.INTRA.VDW.0>
0.110327

>  <SCORE.INTRA.norm>
-0.155177

>  <SCORE.RESTR>
0.141173

>  <SCORE.RESTR.CAVITY>
0.141173

>  <SCORE.RESTR.norm>
0.00441165

>  <SCORE.SYSTEM>
0

>  <SCORE.SYSTEM.CONST>
0

>  <SCORE.SYSTEM.DIHEDRAL>
0

>  <SCORE.SYSTEM.SOLV>
0

>  <SCORE.SYSTEM.norm>
0

>  <SCORE.heavy>
32

>  <SCORE.norm>
-1.2544

>  <RMSD>
3.043

$$$$
lig.pdb
 OpenBabel11021811523D
libRbt.so/2013.1/901 2013/11/27
 32 34  0  0  0  0  0  0  0  0999 V2000
    6.0977   15.6923   -0.2353 P   0  0  0  0  0  0  0  0  0  0  0  0
    6.7179   14.7885    0.8022 O   0  0  0  0  0  0  0  0  0  0  0  0
    7.0412   15.4634   -1.5353 O   0  0  0  0  0  0  0  0  0  0  0  0
    4.7183   15.3594   -0.7469 O   0  0  0  0  0  0  0  0  0  0  0  0
    5.9927   17.0002    0.3820 O   0  0  0  0  0  0  0  0  0  0  0  0
    4.8717   17.0011    1.3510 P   0  0  1  0  0  0  0  0  0  0  0  0
    4.9757   15.7762    2.1784 O   0  0  0  0  0  0  0  0  0  0  0  0
    4.9631   18.1885    2.2321 O   0  0  0  0  0  0  0  0  0  0  0  0
    3.5827   17.0195    0.6148 O   0  0  0  0  0  0  0  0  0  0  0  0
    3.0693   18.2330   -0.0640 P   0  0  1  0  0  0  0  0  0  0  0  0
    2.4432   19.2265    0.8319 O   0  0  0  0  0  0  0  0  0  0  0  0
    3.9655   18.8025   -1.0948 O   0  0  0  0  0  0  0  0  0  0  0  0
    1.8000   17.6678   -0.8936 O   0  0  0  0  0  0  0  0  0  0  0  0
    0.8098   16.8495   -0.2998 C   0  0  0  0  0  0  0  0  0  0  0  0
    1.3936   15.5720    0.3194 C   0  0  1  0  0  0  0  0  0  0  0  0
    0.6942   15.2353    1.4999 O   0  0  0  0  0  0  0  0  0  0  0  0
    1.1725   14.3115   -0.5351 C   0  0  1  0  0  0  0  0  0  0  0  0
    2.0339   14.1739   -1.6528 O   0  0  0  0  0  0  0  0  0  0  0  0
    1.3244   13.1717    0.4719 C   0  0  1  0  0  0  0  0  0  0  0  0
    2.6576   12.6983    0.5466 O   0  0  0  0  0  0  0  0  0  0  0  0
    0.9807   13.8771    1.7825 C   0  0  2  0  0  0  0  0  0  0  0  0
   -0.1011   13.2530    2.5738 N   0  0  0  0  0  0  0  0  0  0  0  0
   -1.4541   13.2035    2.3515 C   0  0  0  0  0  0  0  0  0  0  0  0
   -2.1331   12.6455    3.3201 N   0  0  0  0  0  0  0  0  0  0  0  0
   -1.1620   12.2732    4.2448 C   0  0  0  0  0  0  0  0  0  0  0  0
   -1.2831   11.6559    5.5310 C   0  0  0  0  0  0  0  0  0  0  0  0
   -2.3156   11.3498    6.1239 O   0  0  0  0  0  0  0  0  0  0  0  0
   -0.0423   11.4156    6.1364 N   0  0  0  0  0  0  0  0  0  0  0  0
    1.1752   11.7092    5.5409 C   0  0  0  0  0  0  0  0  0  0  0  0
    2.2920   11.3344    6.1748 N   0  0  0  0  0  0  0  0  0  0  0  0
    1.2825   12.3319    4.3558 N   0  0  0  0  0  0  0  0  0  0  0  0
    0.0853   12.5924    3.7630 C   0  0  0  0  0  0  0  0  0  0  0  0
  1  2  2  0  0  0  0
  1  4  1  0  0  0  0
  1  3  1  0  0  0  0
  5  1  1  0  0  0  0
  6  7  2  1  0  0  0
  6  9  1  0  0  0  0
  6  5  1  0  0  0  0
  6  8  1  0  0  0  0
 10 11  2  1  0  0  0
 10 12  1  0  0  0  0
 10 13  1  0  0  0  0
 10  9  1  0  0  0  0
 13 14  1  0  0  0  0
 15 14  1  6  0  0  0
 15 16  1  0  0  0  0
 17 19  1  0  0  0  0
 17 15  1  0  0  0  0
 17 18  1  6  0  0  0
 19 21  1  0  0  0  0
 19 20  1  1  0  0  0
 21 16  1  0  0  0  0
 21 22  1  6  0  0  0
 22 32  1  0  0  0  0
 23 22  1  0  0  0  0
 23 24  2  0  0  0  0
 24 25  1  0  0  0  0
 25 26  1  0  0  0  0
 26 27  2  0  0  0  0
 26 28  1  0  0  0  0
 29 28  1  0  0  0  0
 29 30  1  0  0  0  0
 31 29  2  0  0  0  0
 32 25  2  0  0  0  0
 32 31  1  0  0  0  0
M  END
>  <CHROM.1>
-75.23886158,-74.24303019,46.47445673,48.91313834,-78.67312483,-57.37538584
144.10485930,48.93469320,-62.98977618,52.24212038,2.49291869,14.99489281
1.53643007,-0.91960526,0.01401019,2.37232161

>  <Name>
lig.pdb

>  <RI>
1.82117e+07

>  <Rbt.Current_Directory>
/home/itssahil/PROJECTS/Mol_Feturizer/New_Systems/rnas/5lwj

>  <Rbt.Executable>
rbdock ($Id: //depot/dev/client3/rdock/2013.1/src/exe/rbdock.cxx#4 $)

>  <Rbt.Library>
libRbt.so (2013.1, Build901 2013/11/27)

>  <Rbt.Parameter_File>
/export/apps/rDock/src/rDock_2013.1_src/data/scripts/dock_solv.prm

>  <Rbt.Receptor>
prm/pocket_docking_5.prm

>  <SCORE>
-52.711

>  <SCORE.INTER>
-47.4532

>  <SCORE.INTER.CONST>
1

>  <SCORE.INTER.POLAR>
-5.74115

>  <SCORE.INTER.ROT>
8

>  <SCORE.INTER.SOLV>
18.2217

>  <SCORE.INTER.VDW>
-27.5056

>  <SCORE.INTER.norm>
-1.48291

>  <SCORE.INTRA>
-5.25779

>  <SCORE.INTRA.DIHEDRAL>
-3.04453

>  <SCORE.INTRA.DIHEDRAL.0>
10.9248

>  <SCORE.INTRA.POLAR>
-0.990112

>  <SCORE.INTRA.POLAR.0>
0

>  <SCORE.INTRA.REPUL>
0

>  <SCORE.INTRA.REPUL.0>
0

>  <SCORE.INTRA.SOLV>
1.81436

>  <SCORE.INTRA.SOLV.lig_0>
-51.4104

>  <SCORE.INTRA.VDW>
-1.27632

>  <SCORE.INTRA.VDW.0>
0.110327

>  <SCORE.INTRA.norm>
-0.164306

>  <SCORE.RESTR>
0

>  <SCORE.RESTR.CAVITY>
0

>  <SCORE.RESTR.norm>
0

>  <SCORE.SYSTEM>
0

>  <SCORE.SYSTEM.CONST>
0

>  <SCORE.SYSTEM.DIHEDRAL>
0

>  <SCORE.SYSTEM.SOLV>
0

>  <SCORE.SYSTEM.norm>
0

>  <SCORE.heavy>
32

>  <SCORE.norm>
-1.64722

>  <RMSD>
3.081

$$$$
lig.pdb
 OpenBabel11021811523D
libRbt.so/2013.1/901 2013/11/27
 32 34  0  0  0  0  0  0  0  0999 V2000
    5.7519   17.2343    0.5780 P   0  0  0  0  0  0  0  0  0  0  0  0
    6.2566   18.3977    1.3964 O   0  0  0  0  0  0  0  0  0  0  0  0
    6.7268   17.2450   -0.7189 O   0  0  0  0  0  0  0  0  0  0  0  0
    5.9236   15.8402    1.1276 O   0  0  0  0  0  0  0  0  0  0  0  0
    4.3233   17.4356    0.4317 O   0  0  0  0  0  0  0  0  0  0  0  0
    3.8773   16.8859   -0.8701 P   0  0  1  0  0  0  0  0  0  0  0  0
    4.4568   17.7224   -1.9473 O   0  0  0  0  0  0  0  0  0  0  0  0
    4.3607   15.4943   -1.0261 O   0  0  0  0  0  0  0  0  0  0  0  0
    2.3945   16.9133   -0.9356 O   0  0  0  0  0  0  0  0  0  0  0  0
    1.6485   16.7208   -2.2019 P   0  0  1  0  0  0  0  0  0  0  0  0
    0.1984   16.9877   -2.1138 O   0  0  0  0  0  0  0  0  0  0  0  0
    2.3091   17.2657   -3.4089 O   0  0  0  0  0  0  0  0  0  0  0  0
    1.6927   15.1156   -2.4016 O   0  0  0  0  0  0  0  0  0  0  0  0
    0.9931   14.2263   -1.5517 C   0  0  0  0  0  0  0  0  0  0  0  0
    1.3353   14.4346   -0.0698 C   0  0  1  0  0  0  0  0  0  0  0  0
    0.1641   14.3685    0.7178 O   0  0  0  0  0  0  0  0  0  0  0  0
    2.1755   13.2980    0.5385 C   0  0  1  0  0  0  0  0  0  0  0  0
    3.5543   13.3155    0.2087 O   0  0  0  0  0  0  0  0  0  0  0  0
    1.9251   13.4389    2.0397 C   0  0  1  0  0  0  0  0  0  0  0  0
    2.8838   14.2732    2.6657 O   0  0  0  0  0  0  0  0  0  0  0  0
    0.5726   14.1487    2.0562 C   0  0  2  0  0  0  0  0  0  0  0  0
   -0.4870   13.4761    2.8379 N   0  0  0  0  0  0  0  0  0  0  0  0
   -1.8530   13.5376    2.7261 C   0  0  0  0  0  0  0  0  0  0  0  0
   -2.4941   12.8808    3.6580 N   0  0  0  0  0  0  0  0  0  0  0  0
   -1.4840   12.3198    4.4337 C   0  0  0  0  0  0  0  0  0  0  0  0
   -1.5502   11.5253    5.6230 C   0  0  0  0  0  0  0  0  0  0  0  0
   -2.5537   11.1934    6.2507 O   0  0  0  0  0  0  0  0  0  0  0  0
   -0.2868   11.1269    6.0803 N   0  0  0  0  0  0  0  0  0  0  0  0
    0.8997   11.4362    5.4324 C   0  0  0  0  0  0  0  0  0  0  0  0
    2.0326   10.9078    5.9089 N   0  0  0  0  0  0  0  0  0  0  0  0
    0.9601   12.2218    4.3448 N   0  0  0  0  0  0  0  0  0  0  0  0
   -0.2575   12.6358    3.8992 C   0  0  0  0  0  0  0  0  0  0  0  0
  1  2  2  0  0  0  0
  1  4  1  0  0  0  0
  1  3  1  0  0  0  0
  5  1  1  0  0  0  0
  6  7  2  6  0  0  0
  6  9  1  0  0  0  0
  6  5  1  0  0  0  0
  6  8  1  0  0  0  0
 10 11  2  1  0  0  0
 10 12  1  0  0  0  0
 10 13  1  0  0  0  0
 10  9  1  0  0  0  0
 13 14  1  0  0  0  0
 15 14  1  6  0  0  0
 15 16  1  0  0  0  0
 17 19  1  0  0  0  0
 17 15  1  0  0  0  0
 17 18  1  1  0  0  0
 19 21  1  0  0  0  0
 19 20  1  6  0  0  0
 21 16  1  0  0  0  0
 21 22  1  6  0  0  0
 22 32  1  0  0  0  0
 23 22  1  0  0  0  0
 23 24  2  0  0  0  0
 24 25  1  0  0  0  0
 25 26  1  0  0  0  0
 26 27  2  0  0  0  0
 26 28  1  0  0  0  0
 29 28  1  0  0  0  0
 29 30  1  0  0  0  0
 31 29  2  0  0  0  0
 32 25  2  0  0  0  0
 32 31  1  0  0  0  0
M  END
>  <CHROM.1>
148.28029696,165.97743068,-67.86039553,68.58103953,-170.92065873,-54.42236212
137.72252855,31.72566945,-164.13413420,-30.91786876,2.07875457,14.83393267
1.10848616,-0.98358168,0.32001766,2.07823274

>  <Name>
lig.pdb

>  <RI>
0

>  <Rbt.Current_Directory>
/home/itssahil/PROJECTS/Mol_Feturizer/New_Systems/rnas/5lwj

>  <Rbt.Executable>
rbdock ($Id: //depot/dev/client3/rdock/2013.1/src/exe/rbdock.cxx#4 $)

>  <Rbt.Library>
libRbt.so (2013.1, Build901 2013/11/27)

>  <Rbt.Parameter_File>
/export/apps/rDock/src/rDock_2013.1_src/data/scripts/dock_solv.prm

>  <Rbt.Receptor>
prm/pocket_docking_3.prm

>  <SCORE>
-41.2243

>  <SCORE.INTER>
-36.2729

>  <SCORE.INTER.CONST>
1

>  <SCORE.INTER.POLAR>
-4.52374

>  <SCORE.INTER.ROT>
8

>  <SCORE.INTER.SOLV>
16.9383

>  <SCORE.INTER.VDW>
-23.6822

>  <SCORE.INTER.norm>
-1.13353

>  <SCORE.INTRA>
-5.08889

>  <SCORE.INTRA.DIHEDRAL>
2.59663

>  <SCORE.INTRA.DIHEDRAL.0>
10.9248

>  <SCORE.INTRA.POLAR>
-0.938386

>  <SCORE.INTRA.POLAR.0>
0

>  <SCORE.INTRA.REPUL>
0

>  <SCORE.INTRA.REPUL.0>
0

>  <SCORE.INTRA.SOLV>
1.53763

>  <SCORE.INTRA.SOLV.lig_0>
-51.4104

>  <SCORE.INTRA.VDW>
-3.9655

>  <SCORE.INTRA.VDW.0>
0.110327

>  <SCORE.INTRA.norm>
-0.159028

>  <SCORE.RESTR>
0.13752

>  <SCORE.RESTR.CAVITY>
0.13752

>  <SCORE.RESTR.norm>
0.0042975

>  <SCORE.SYSTEM>
0

>  <SCORE.SYSTEM.CONST>
0

>  <SCORE.SYSTEM.DIHEDRAL>
0

>  <SCORE.SYSTEM.SOLV>
0

>  <SCORE.SYSTEM.norm>
0

>  <SCORE.heavy>
32

>  <SCORE.norm>
-1.28826

>  <RMSD>
3.132

$$$$
lig.pdb
 OpenBabel11021811523D
libRbt.so/2013.1/901 2013/11/27
 32 34  0  0  0  0  0  0  0  0999 V2000
    6.6488   19.8057    0.8163 P   0  0  0  0  0  0  0  0  0  0  0  0
    6.6761   20.9394    1.8122 O   0  0  0  0  0  0  0  0  0  0  0  0
    5.1504   19.2058    0.9811 O   0  0  0  0  0  0  0  0  0  0  0  0
    6.7284   20.1372   -0.6530 O   0  0  0  0  0  0  0  0  0  0  0  0
    7.8099   18.9872    1.1071 O   0  0  0  0  0  0  0  0  0  0  0  0
    7.6100   17.6292    0.5489 P   0  0  1  0  0  0  0  0  0  0  0  0
    7.4643   17.7511   -0.9208 O   0  0  0  0  0  0  0  0  0  0  0  0
    8.7855   16.7789    0.8488 O   0  0  0  0  0  0  0  0  0  0  0  0
    6.3895   17.0267    1.1411 O   0  0  0  0  0  0  0  0  0  0  0  0
    6.1067   15.5730    1.0783 P   0  0  1  0  0  0  0  0  0  0  0  0
    6.3418   14.9521   -0.2411 O   0  0  0  0  0  0  0  0  0  0  0  0
    6.5985   14.7874    2.2320 O   0  0  0  0  0  0  0  0  0  0  0  0
    4.4943   15.5174    1.2039 O   0  0  0  0  0  0  0  0  0  0  0  0
    3.8088   14.3669    1.6614 C   0  0  0  0  0  0  0  0  0  0  0  0
    2.2875   14.4794    1.4897 C   0  0  1  0  0  0  0  0  0  0  0  0
    1.6378   13.4272    2.1732 O   0  0  0  0  0  0  0  0  0  0  0  0
    1.6752   15.7125    2.1770 C   0  0  1  0  0  0  0  0  0  0  0  0
    1.8520   16.9420    1.4934 O   0  0  0  0  0  0  0  0  0  0  0  0
    0.2036   15.3321    2.3379 C   0  0  1  0  0  0  0  0  0  0  0  0
   -0.5806   15.7506    1.2348 O   0  0  0  0  0  0  0  0  0  0  0  0
    0.2824   13.8066    2.3324 C   0  0  2  0  0  0  0  0  0  0  0  0
   -0.3299   13.1358    3.4991 N   0  0  0  0  0  0  0  0  0  0  0  0
    0.1726   12.1766    4.3416 C   0  0  0  0  0  0  0  0  0  0  0  0
   -0.6900   11.7333    5.2192 N   0  0  0  0  0  0  0  0  0  0  0  0
   -1.8443   12.4664    4.9608 C   0  0  0  0  0  0  0  0  0  0  0  0
   -3.1431   12.4081    5.5605 C   0  0  0  0  0  0  0  0  0  0  0  0
   -3.5323   11.6400    6.4379 O   0  0  0  0  0  0  0  0  0  0  0  0
   -4.0299   13.3530    5.0271 N   0  0  0  0  0  0  0  0  0  0  0  0
   -3.6799   14.2719    4.0492 C   0  0  0  0  0  0  0  0  0  0  0  0
   -4.5851   15.1924    3.6983 N   0  0  0  0  0  0  0  0  0  0  0  0
   -2.4752   14.2908    3.4558 N   0  0  0  0  0  0  0  0  0  0  0  0
   -1.6074   13.3646    3.9474 C   0  0  0  0  0  0  0  0  0  0  0  0
  1  2  2  0  0  0  0
  1  4  1  0  0  0  0
  1  3  1  0  0  0  0
  5  1  1  0  0  0  0
  6  7  2  6  0  0  0
  6  9  1  0  0  0  0
  6  5  1  0  0  0  0
  6  8  1  0  0  0  0
 10 11  2  6  0  0  0
 10 12  1  0  0  0  0
 10 13  1  0  0  0  0
 10  9  1  0  0  0  0
 13 14  1  0  0  0  0
 15 14  1  1  0  0  0
 15 16  1  0  0  0  0
 17 19  1  0  0  0  0
 17 15  1  0  0  0  0
 17 18  1  6  0  0  0
 19 21  1  0  0  0  0
 19 20  1  6  0  0  0
 21 16  1  0  0  0  0
 21 22  1  1  0  0  0
 22 32  1  0  0  0  0
 23 22  1  0  0  0  0
 23 24  2  0  0  0  0
 24 25  1  0  0  0  0
 25 26  1  0  0  0  0
 26 27  2  0  0  0  0
 26 28  1  0  0  0  0
 29 28  1  0  0  0  0
 29 30  1  0  0  0  0
 31 29  2  0  0  0  0
 32 25  2  0  0  0  0
 32 31  1  0  0  0  0
M  END
>  <CHROM.1>
159.24054564,-163.32452762,61.45009284,-156.94582789,-44.84733074,-171.19247885
-169.42363938,-51.05049424,-53.86903279,-5.23875988,2.87354924,15.74394283
2.11082975,0.52399235,0.25513281,-0.24207537

>  <Name>
lig.pdb

>  <RI>
0

>  <Rbt.Current_Directory>
/home/itssahil/PROJECTS/Mol_Feturizer/New_Systems/rnas/5lwj

>  <Rbt.Executable>
rbdock ($Id: //depot/dev/client3/rdock/2013.1/src/exe/rbdock.cxx#4 $)

>  <Rbt.Library>
libRbt.so (2013.1, Build901 2013/11/27)

>  <Rbt.Parameter_File>
/export/apps/rDock/src/rDock_2013.1_src/data/scripts/dock_solv.prm

>  <Rbt.Receptor>
prm/pocket_docking_4.prm

>  <SCORE>
-30.1644

>  <SCORE.INTER>
-24.3841

>  <SCORE.INTER.CONST>
1

>  <SCORE.INTER.POLAR>
-1.05227

>  <SCORE.INTER.ROT>
8

>  <SCORE.INTER.SOLV>
15.8051

>  <SCORE.INTER.VDW>
-26.9502

>  <SCORE.INTER.norm>
-0.762003

>  <SCORE.INTRA>
-5.86602

>  <SCORE.INTRA.DIHEDRAL>
-4.2249

>  <SCORE.INTRA.DIHEDRAL.0>
10.9248

>  <SCORE.INTRA.POLAR>
-0.400762

>  <SCORE.INTRA.POLAR.0>
0

>  <SCORE.INTRA.REPUL>
0.0163372

>  <SCORE.INTRA.REPUL.0>
0

>  <SCORE.INTRA.SOLV>
-0.113686

>  <SCORE.INTRA.SOLV.lig_0>
-51.4104

>  <SCORE.INTRA.VDW>
-2.41582

>  <SCORE.INTRA.VDW.0>
0.110327

>  <SCORE.INTRA.norm>
-0.183313

>  <SCORE.RESTR>
0.0857573

>  <SCORE.RESTR.CAVITY>
0.0857573

>  <SCORE.RESTR.norm>
0.00267992

>  <SCORE.SYSTEM>
0

>  <SCORE.SYSTEM.CONST>
0

>  <SCORE.SYSTEM.DIHEDRAL>
0

>  <SCORE.SYSTEM.SOLV>
0

>  <SCORE.SYSTEM.norm>
0

>  <SCORE.heavy>
32

>  <SCORE.norm>
-0.942636

>  <RMSD>
3.182

$$$$
lig.pdb
 OpenBabel11021811523D
libRbt.so/2013.1/901 2013/11/27
 32 34  0  0  0  0  0  0  0  0999 V2000
    6.4201   19.5200    0.1405 P   0  0  0  0  0  0  0  0  0  0  0  0
    7.8996   19.6364   -0.1342 O   0  0  0  0  0  0  0  0  0  0  0  0
    6.3705   18.9540    1.6603 O   0  0  0  0  0  0  0  0  0  0  0  0
    5.6010   20.7844    0.2160 O   0  0  0  0  0  0  0  0  0  0  0  0
    5.8672   18.7478   -0.9553 O   0  0  0  0  0  0  0  0  0  0  0  0
    5.9695   17.3029   -0.6430 P   0  0  1  0  0  0  0  0  0  0  0  0
    5.5447   16.5406   -1.8406 O   0  0  0  0  0  0  0  0  0  0  0  0
    7.3716   16.9515   -0.3189 O   0  0  0  0  0  0  0  0  0  0  0  0
    5.0917   16.9839    0.5109 O   0  0  0  0  0  0  0  0  0  0  0  0
    4.5513   15.6246    0.7499 P   0  0  1  0  0  0  0  0  0  0  0  0
    3.4888   15.2062   -0.1870 O   0  0  0  0  0  0  0  0  0  0  0  0
    5.5661   14.5880    1.0426 O   0  0  0  0  0  0  0  0  0  0  0  0
    3.7377   15.8029    2.1374 O   0  0  0  0  0  0  0  0  0  0  0  0
    3.3611   14.7015    2.9422 C   0  0  0  0  0  0  0  0  0  0  0  0
    2.1144   13.9810    2.4103 C   0  0  1  0  0  0  0  0  0  0  0  0
    1.6090   13.0913    3.3846 O   0  0  0  0  0  0  0  0  0  0  0  0
    0.9073   14.9099    2.1912 C   0  0  1  0  0  0  0  0  0  0  0  0
    0.9566   15.7076    1.0202 O   0  0  0  0  0  0  0  0  0  0  0  0
   -0.2826   13.9506    2.2031 C   0  0  1  0  0  0  0  0  0  0  0  0
   -0.6048   13.4822    0.9054 O   0  0  0  0  0  0  0  0  0  0  0  0
    0.2747   12.7863    3.0199 C   0  0  2  0  0  0  0  0  0  0  0  0
   -0.5288   12.3964    4.1983 N   0  0  0  0  0  0  0  0  0  0  0  0
   -0.2479   11.5259    5.2208 C   0  0  0  0  0  0  0  0  0  0  0  0
   -1.2395   11.3456    6.0546 N   0  0  0  0  0  0  0  0  0  0  0  0
   -2.2466   12.1738    5.5684 C   0  0  0  0  0  0  0  0  0  0  0  0
   -3.5872   12.3833    6.0256 C   0  0  0  0  0  0  0  0  0  0  0  0
   -4.1600   11.8228    6.9578 O   0  0  0  0  0  0  0  0  0  0  0  0
   -4.2757   13.3397    5.2672 N   0  0  0  0  0  0  0  0  0  0  0  0
   -3.7107   14.0369    4.2100 C   0  0  0  0  0  0  0  0  0  0  0  0
   -4.4368   15.0008    3.6327 N   0  0  0  0  0  0  0  0  0  0  0  0
   -2.4692   13.8022    3.7546 N   0  0  0  0  0  0  0  0  0  0  0  0
   -1.7930   12.8600    4.4670 C   0  0  0  0  0  0  0  0  0  0  0  0
  1  2  2  0  0  0  0
  1  4  1  0  0  0  0
  1  3  1  0  0  0  0
  5  1  1  0  0  0  0
  6  7  2  6  0  0  0
  6  9  1  0  0  0  0
  6  5  1  0  0  0  0
  6  8  1  0  0  0  0
 10 11  2  6  0  0  0
 10 12  1  0  0  0  0
 10 13  1  0  0  0  0
 10  9  1  0  0  0  0
 13 14  1  0  0  0  0
 15 14  1  1  0  0  0
 15 16  1  0  0  0  0
 17 19  1  0  0  0  0
 17 15  1  0  0  0  0
 17 18  1  6  0  0  0
 19 21  1  0  0  0  0
 19 20  1  6  0  0  0
 21 16  1  0  0  0  0
 21 22  1  1  0  0  0
 22 32  1  0  0  0  0
 23 22  1  0  0  0  0
 23 24  2  0  0  0  0
 24 25  1  0  0  0  0
 25 26  1  0  0  0  0
 26 27  2  0  0  0  0
 26 28  1  0  0  0  0
 29 28  1  0  0  0  0
 29 30  1  0  0  0  0
 31 29  2  0  0  0  0
 32 25  2  0  0  0  0
 32 31  1  0  0  0  0
M  END
>  <CHROM.1>
87.05178991,155.63873952,-173.50835224,-162.23760841,-72.29556456,-79.17629381
-167.13458453,-174.94594312,-57.91428216,-46.82761260,2.20430226,15.35942910
2.02901378,0.62563528,0.32033417,-0.33362534

>  <Name>
lig.pdb

>  <RI>
0

>  <Rbt.Current_Directory>
/home/itssahil/PROJECTS/Mol_Feturizer/New_Systems/rnas/5lwj

>  <Rbt.Executable>
rbdock ($Id: //depot/dev/client3/rdock/2013.1/src/exe/rbdock.cxx#4 $)

>  <Rbt.Library>
libRbt.so (2013.1, Build901 2013/11/27)

>  <Rbt.Parameter_File>
/export/apps/rDock/src/rDock_2013.1_src/data/scripts/dock_solv.prm

>  <Rbt.Receptor>
prm/pocket_docking_3.prm

>  <SCORE>
-31.8955

>  <SCORE.INTER>
-28.2828

>  <SCORE.INTER.CONST>
1

>  <SCORE.INTER.POLAR>
-1.89116

>  <SCORE.INTER.ROT>
8

>  <SCORE.INTER.SOLV>
15.2428

>  <SCORE.INTER.VDW>
-26.5656

>  <SCORE.INTER.norm>
-0.883839

>  <SCORE.INTRA>
-3.74117

>  <SCORE.INTRA.DIHEDRAL>
-3.01546

>  <SCORE.INTRA.DIHEDRAL.0>
10.9248

>  <SCORE.INTRA.POLAR>
0

>  <SCORE.INTRA.POLAR.0>
0

>  <SCORE.INTRA.REPUL>
0

>  <SCORE.INTRA.REPUL.0>
0

>  <SCORE.INTRA.SOLV>
1.5415

>  <SCORE.INTRA.SOLV.lig_0>
-51.4104

>  <SCORE.INTRA.VDW>
-3.0042

>  <SCORE.INTRA.VDW.0>
0.110327

>  <SCORE.INTRA.norm>
-0.116912

>  <SCORE.RESTR>
0.128504

>  <SCORE.RESTR.CAVITY>
0.128504

>  <SCORE.RESTR.norm>
0.00401574

>  <SCORE.SYSTEM>
0

>  <SCORE.SYSTEM.CONST>
0

>  <SCORE.SYSTEM.DIHEDRAL>
0

>  <SCORE.SYSTEM.SOLV>
0

>  <SCORE.SYSTEM.norm>
0

>  <SCORE.heavy>
32

>  <SCORE.norm>
-0.996734

>  <RMSD>
3.235

$$$$
lig.pdb
 OpenBabel11021811523D
libRbt.so/2013.1/901 2013/11/27
 32 34  0  0  0  0  0  0  0  0999 V2000
    5.2846   18.9399   -2.1904 P   0  0  0  0  0  0  0  0  0  0  0  0
    4.1253   19.8850   -1.9884 O   0  0  0  0  0  0  0  0  0  0  0  0
    4.9208   18.2034   -3.5896 O   0  0  0  0  0  0  0  0  0  0  0  0
    6.6508   19.5232   -2.4522 O   0  0  0  0  0  0  0  0  0  0  0  0
    5.4013   18.1785   -0.9618 O   0  0  0  0  0  0  0  0  0  0  0  0
    4.4852   17.0150   -1.0122 P   0  0  1  0  0  0  0  0  0  0  0  0
    3.1296   17.5091   -1.3500 O   0  0  0  0  0  0  0  0  0  0  0  0
    4.9280   16.0652   -2.0593 O   0  0  0  0  0  0  0  0  0  0  0  0
    4.4741   16.3377    0.3087 O   0  0  0  0  0  0  0  0  0  0  0  0
    5.6943   15.7567    0.9173 P   0  0  1  0  0  0  0  0  0  0  0  0
    6.0855   14.4366    0.3824 O   0  0  0  0  0  0  0  0  0  0  0  0
    6.8129   16.7061    1.1101 O   0  0  0  0  0  0  0  0  0  0  0  0
    5.2060   15.3910    2.4162 O   0  0  0  0  0  0  0  0  0  0  0  0
    4.2478   14.3827    2.6766 C   0  0  0  0  0  0  0  0  0  0  0  0
    2.9207   14.6270    1.9447 C   0  0  1  0  0  0  0  0  0  0  0  0
    2.0088   13.5838    2.2216 O   0  0  0  0  0  0  0  0  0  0  0  0
    2.1456   15.8529    2.4584 C   0  0  1  0  0  0  0  0  0  0  0  0
    2.6305   17.1098    2.0166 O   0  0  0  0  0  0  0  0  0  0  0  0
    0.7120   15.5797    2.0038 C   0  0  1  0  0  0  0  0  0  0  0  0
    0.4400   16.1358    0.7296 O   0  0  0  0  0  0  0  0  0  0  0  0
    0.7173   14.0569    1.8829 C   0  0  2  0  0  0  0  0  0  0  0  0
   -0.3312   13.3559    2.6544 N   0  0  0  0  0  0  0  0  0  0  0  0
   -1.6888   13.2970    2.4650 C   0  0  0  0  0  0  0  0  0  0  0  0
   -2.3310   12.6566    3.4074 N   0  0  0  0  0  0  0  0  0  0  0  0
   -1.3284   12.2361    4.2760 C   0  0  0  0  0  0  0  0  0  0  0  0
   -1.4031   11.5241    5.5159 C   0  0  0  0  0  0  0  0  0  0  0  0
   -2.4133   11.1556    6.1117 O   0  0  0  0  0  0  0  0  0  0  0  0
   -0.1420   11.2637    6.0689 N   0  0  0  0  0  0  0  0  0  0  0  0
    1.0532   11.6234    5.4646 C   0  0  0  0  0  0  0  0  0  0  0  0
    2.1935   11.2246    6.0394 N   0  0  0  0  0  0  0  0  0  0  0  0
    1.1169   12.3333    4.3263 N   0  0  0  0  0  0  0  0  0  0  0  0
   -0.1005   12.6136    3.7862 C   0  0  0  0  0  0  0  0  0  0  0  0
  1  2  2  0  0  0  0
  1  4  1  0  0  0  0
  1  3  1  0  0  0  0
  5  1  1  0  0  0  0
  6  7  2  6  0  0  0
  6  9  1  0  0  0  0
  6  5  1  0  0  0  0
  6  8  1  0  0  0  0
 10 11  2  6  0  0  0
 10 12  1  0  0  0  0
 10 13  1  0  0  0  0
 10  9  1  0  0  0  0
 13 14  1  0  0  0  0
 15 14  1  1  0  0  0
 15 16  1  0  0  0  0
 17 19  1  0  0  0  0
 17 15  1  0  0  0  0
 17 18  1  6  0  0  0
 19 21  1  0  0  0  0
 19 20  1  6  0  0  0
 21 16  1  0  0  0  0
 21 22  1  1  0  0  0
 22 32  1  0  0  0  0
 23 22  1  0  0  0  0
 23 24  2  0  0  0  0
 24 25  1  0  0  0  0
 25 26  1  0  0  0  0
 26 27  2  0  0  0  0
 26 28  1  0  0  0  0
 29 28  1  0  0  0  0
 29 30  1  0  0  0  0
 31 29  2  0  0  0  0
 32 25  2  0  0  0  0
 32 31  1  0  0  0  0
M  END
>  <CHROM.1>
85.49644534,-60.28245228,-52.46273659,67.08273080,-79.27750198,-57.17353027
179.10148012,41.23472715,-62.01612951,-165.23986239,2.82350728,15.29182471
1.38384410,0.97661875,-0.03881131,-0.83813486

>  <Name>
lig.pdb

>  <RI>
0

>  <Rbt.Current_Directory>
/home/itssahil/PROJECTS/Mol_Feturizer/New_Systems/rnas/5lwj

>  <Rbt.Executable>
rbdock ($Id: //depot/dev/client3/rdock/2013.1/src/exe/rbdock.cxx#4 $)

>  <Rbt.Library>
libRbt.so (2013.1, Build901 2013/11/27)

>  <Rbt.Parameter_File>
/export/apps/rDock/src/rDock_2013.1_src/data/scripts/dock_solv.prm

>  <Rbt.Receptor>
prm/pocket_docking_3.prm

>  <SCORE>
-46.6847

>  <SCORE.INTER>
-41.8276

>  <SCORE.INTER.CONST>
1

>  <SCORE.INTER.POLAR>
-4.18633

>  <SCORE.INTER.ROT>
8

>  <SCORE.INTER.SOLV>
16.4968

>  <SCORE.INTER.VDW>
-28.3629

>  <SCORE.INTER.norm>
-1.30711

>  <SCORE.INTRA>
-5.41082

>  <SCORE.INTRA.DIHEDRAL>
-4.89583

>  <SCORE.INTRA.DIHEDRAL.0>
10.9248

>  <SCORE.INTRA.POLAR>
-0.576405

>  <SCORE.INTRA.POLAR.0>
0

>  <SCORE.INTRA.REPUL>
0.234464

>  <SCORE.INTRA.REPUL.0>
0

>  <SCORE.INTRA.SOLV>
3.58064

>  <SCORE.INTRA.SOLV.lig_0>
-51.4104

>  <SCORE.INTRA.VDW>
-3.96578

>  <SCORE.INTRA.VDW.0>
0.110327

>  <SCORE.INTRA.norm>
-0.169088

>  <SCORE.RESTR>
0.553782

>  <SCORE.RESTR.CAVITY>
0.553782

>  <SCORE.RESTR.norm>
0.0173057

>  <SCORE.SYSTEM>
0

>  <SCORE.SYSTEM.CONST>
0

>  <SCORE.SYSTEM.DIHEDRAL>
0

>  <SCORE.SYSTEM.SOLV>
0

>  <SCORE.SYSTEM.norm>
0

>  <SCORE.heavy>
32

>  <SCORE.norm>
-1.4589

>  <RMSD>
3.248

$$$$
lig.pdb
 OpenBabel11021811523D
libRbt.so/2013.1/901 2013/11/27
 32 34  0  0  0  0  0  0  0  0999 V2000
    0.4873   21.1088    2.0139 P   0  0  0  0  0  0  0  0  0  0  0  0
   -0.5464   20.5712    2.9734 O   0  0  0  0  0  0  0  0  0  0  0  0
    0.9618   19.7857    1.2034 O   0  0  0  0  0  0  0  0  0  0  0  0
    0.0350   22.0414    0.9180 O   0  0  0  0  0  0  0  0  0  0  0  0
    1.4298   21.8615    2.8187 O   0  0  0  0  0  0  0  0  0  0  0  0
    2.8039   21.6348    2.3125 P   0  0  1  0  0  0  0  0  0  0  0  0
    2.8403   22.0279    0.8842 O   0  0  0  0  0  0  0  0  0  0  0  0
    3.7673   22.4689    3.0679 O   0  0  0  0  0  0  0  0  0  0  0  0
    3.1550   20.2003    2.4628 O   0  0  0  0  0  0  0  0  0  0  0  0
    4.4606   19.6491    2.0286 P   0  0  1  0  0  0  0  0  0  0  0  0
    4.8070   19.9141    0.6174 O   0  0  0  0  0  0  0  0  0  0  0  0
    5.5718   19.8372    2.9877 O   0  0  0  0  0  0  0  0  0  0  0  0
    4.1906   18.0535    2.0242 O   0  0  0  0  0  0  0  0  0  0  0  0
    3.0942   17.4720    1.3442 C   0  0  0  0  0  0  0  0  0  0  0  0
    3.1053   15.9384    1.4099 C   0  0  1  0  0  0  0  0  0  0  0  0
    2.2816   15.4868    2.4653 O   0  0  0  0  0  0  0  0  0  0  0  0
    2.4442   15.2608    0.1968 C   0  0  1  0  0  0  0  0  0  0  0  0
    3.2286   15.2246   -0.9837 O   0  0  0  0  0  0  0  0  0  0  0  0
    2.0960   13.8667    0.7179 C   0  0  1  0  0  0  0  0  0  0  0  0
    3.1333   12.9319    0.4785 O   0  0  0  0  0  0  0  0  0  0  0  0
    2.0018   14.1198    2.2214 C   0  0  2  0  0  0  0  0  0  0  0  0
    0.7303   13.7101    2.8549 N   0  0  0  0  0  0  0  0  0  0  0  0
   -0.5608   14.0933    2.5928 C   0  0  0  0  0  0  0  0  0  0  0  0
   -1.4423   13.5989    3.4230 N   0  0  0  0  0  0  0  0  0  0  0  0
   -0.6895   12.8092    4.2868 C   0  0  0  0  0  0  0  0  0  0  0  0
   -1.0785   12.0433    5.4322 C   0  0  0  0  0  0  0  0  0  0  0  0
   -2.1983   11.9527    5.9312 O   0  0  0  0  0  0  0  0  0  0  0  0
   -0.0058   11.3542    6.0139 N   0  0  0  0  0  0  0  0  0  0  0  0
    1.2878   11.3798    5.5147 C   0  0  0  0  0  0  0  0  0  0  0  0
    2.2020   10.5952    6.0963 N   0  0  0  0  0  0  0  0  0  0  0  0
    1.6573   12.1377    4.4693 N   0  0  0  0  0  0  0  0  0  0  0  0
    0.6310   12.8309    3.9048 C   0  0  0  0  0  0  0  0  0  0  0  0
  1  2  2  0  0  0  0
  1  4  1  0  0  0  0
  1  3  1  0  0  0  0
  5  1  1  0  0  0  0
  6  7  2  6  0  0  0
  6  9  1  0  0  0  0
  6  5  1  0  0  0  0
  6  8  1  0  0  0  0
 10 11  2  6  0  0  0
 10 12  1  0  0  0  0
 10 13  1  0  0  0  0
 10  9  1  0  0  0  0
 13 14  1  0  0  0  0
 15 14  1  6  0  0  0
 15 16  1  0  0  0  0
 17 19  1  0  0  0  0
 17 15  1  0  0  0  0
 17 18  1  6  0  0  0
 19 21  1  0  0  0  0
 19 20  1  1  0  0  0
 21 16  1  0  0  0  0
 21 22  1  6  0  0  0
 22 32  1  0  0  0  0
 23 22  1  0  0  0  0
 23 24  2  0  0  0  0
 24 25  1  0  0  0  0
 25 26  1  0  0  0  0
 26 27  2  0  0  0  0
 26 28  1  0  0  0  0
 29 28  1  0  0  0  0
 29 30  1  0  0  0  0
 31 29  2  0  0  0  0
 32 25  2  0  0  0  0
 32 31  1  0  0  0  0
M  END
>  <CHROM.1>
141.13254551,179.10513604,57.20308854,52.00214106,-54.84939978,176.20065916
96.01551724,-178.65262564,38.57690346,66.08073988,1.89109934,17.02491911
2.54794817,1.29643310,0.55510872,-0.11392684

>  <Name>
lig.pdb

>  <RI>
1.82117e+07

>  <Rbt.Current_Directory>
/home/itssahil/PROJECTS/Mol_Feturizer/New_Systems/rnas/5lwj

>  <Rbt.Executable>
rbdock ($Id: //depot/dev/client3/rdock/2013.1/src/exe/rbdock.cxx#4 $)

>  <Rbt.Library>
libRbt.so (2013.1, Build901 2013/11/27)

>  <Rbt.Parameter_File>
/export/apps/rDock/src/rDock_2013.1_src/data/scripts/dock_solv.prm

>  <Rbt.Receptor>
prm/pocket_docking_5.prm

>  <SCORE>
-47.5249

>  <SCORE.INTER>
-43.8571

>  <SCORE.INTER.CONST>
1

>  <SCORE.INTER.POLAR>
-5.85218

>  <SCORE.INTER.ROT>
8

>  <SCORE.INTER.SOLV>
15.1725

>  <SCORE.INTER.VDW>
-23.7217

>  <SCORE.INTER.norm>
-1.37053

>  <SCORE.INTRA>
-3.67924

>  <SCORE.INTRA.DIHEDRAL>
-0.794727

>  <SCORE.INTRA.DIHEDRAL.0>
10.9248

>  <SCORE.INTRA.POLAR>
0

>  <SCORE.INTRA.POLAR.0>
0

>  <SCORE.INTRA.REPUL>
0

>  <SCORE.INTRA.REPUL.0>
0

>  <SCORE.INTRA.SOLV>
-0.164881

>  <SCORE.INTRA.SOLV.lig_0>
-51.4104

>  <SCORE.INTRA.VDW>
-3.19944

>  <SCORE.INTRA.VDW.0>
0.110327

>  <SCORE.INTRA.norm>
-0.114976

>  <SCORE.RESTR>
0.0114278

>  <SCORE.RESTR.CAVITY>
0.0114278

>  <SCORE.RESTR.norm>
0.000357118

>  <SCORE.SYSTEM>
0

>  <SCORE.SYSTEM.CONST>
0

>  <SCORE.SYSTEM.DIHEDRAL>
0

>  <SCORE.SYSTEM.SOLV>
0

>  <SCORE.SYSTEM.norm>
0

>  <SCORE.heavy>
32

>  <SCORE.norm>
-1.48515

>  <RMSD>
3.311

$$$$
lig.pdb
 OpenBabel11021811523D
libRbt.so/2013.1/901 2013/11/27
 32 34  0  0  0  0  0  0  0  0999 V2000
    2.3792   19.5162   -0.4359 P   0  0  0  0  0  0  0  0  0  0  0  0
    3.0558   19.4268    0.9103 O   0  0  0  0  0  0  0  0  0  0  0  0
    1.1336   20.5179   -0.1569 O   0  0  0  0  0  0  0  0  0  0  0  0
    3.1158   20.1881   -1.5678 O   0  0  0  0  0  0  0  0  0  0  0  0
    2.1487   18.1493   -0.8616 O   0  0  0  0  0  0  0  0  0  0  0  0
    3.4199   17.3905   -0.7978 P   0  0  1  0  0  0  0  0  0  0  0  0
    4.4634   18.1787   -1.4947 O   0  0  0  0  0  0  0  0  0  0  0  0
    3.8243   17.1952    0.6140 O   0  0  0  0  0  0  0  0  0  0  0  0
    3.2416   16.0723   -1.4566 O   0  0  0  0  0  0  0  0  0  0  0  0
    4.3839   15.1962   -1.8097 P   0  0  1  0  0  0  0  0  0  0  0  0
    4.7138   15.1576   -3.2489 O   0  0  0  0  0  0  0  0  0  0  0  0
    5.5519   15.2927   -0.9061 O   0  0  0  0  0  0  0  0  0  0  0  0
    3.7894   13.7134   -1.5517 O   0  0  0  0  0  0  0  0  0  0  0  0
    3.6020   13.1874   -0.2513 C   0  0  0  0  0  0  0  0  0  0  0  0
    2.8764   14.1665    0.6821 C   0  0  1  0  0  0  0  0  0  0  0  0
    1.5435   13.7473    0.8921 O   0  0  0  0  0  0  0  0  0  0  0  0
    3.4233   14.1730    2.1204 C   0  0  1  0  0  0  0  0  0  0  0  0
    4.6375   14.8808    2.3077 O   0  0  0  0  0  0  0  0  0  0  0  0
    2.2681   14.7556    2.9343 C   0  0  1  0  0  0  0  0  0  0  0  0
    2.3587   16.1639    3.0590 O   0  0  0  0  0  0  0  0  0  0  0  0
    1.0715   14.4182    2.0468 C   0  0  2  0  0  0  0  0  0  0  0  0
   -0.0118   13.6573    2.7053 N   0  0  0  0  0  0  0  0  0  0  0  0
   -1.3506   13.5799    2.4158 C   0  0  0  0  0  0  0  0  0  0  0  0
   -2.0423   12.8792    3.2769 N   0  0  0  0  0  0  0  0  0  0  0  0
   -1.0939   12.4362    4.1938 C   0  0  0  0  0  0  0  0  0  0  0  0
   -1.2391   11.6606    5.3886 C   0  0  0  0  0  0  0  0  0  0  0  0
   -2.2798   11.2415    5.8911 O   0  0  0  0  0  0  0  0  0  0  0  0
   -0.0144   11.3989    6.0176 N   0  0  0  0  0  0  0  0  0  0  0  0
    1.2116   11.8135    5.5195 C   0  0  0  0  0  0  0  0  0  0  0  0
    2.3175   11.4098    6.1547 N   0  0  0  0  0  0  0  0  0  0  0  0
    1.3386   12.5814    4.4250 N   0  0  0  0  0  0  0  0  0  0  0  0
    0.1560   12.8635    3.8129 C   0  0  0  0  0  0  0  0  0  0  0  0
  1  2  2  0  0  0  0
  1  4  1  0  0  0  0
  1  3  1  0  0  0  0
  5  1  1  0  0  0  0
  6  7  2  6  0  0  0
  6  9  1  0  0  0  0
  6  5  1  0  0  0  0
  6  8  1  0  0  0  0
 10 11  2  6  0  0  0
 10 12  1  0  0  0  0
 10 13  1  0  0  0  0
 10  9  1  0  0  0  0
 13 14  1  0  0  0  0
 15 14  1  6  0  0  0
 15 16  1  0  0  0  0
 17 19  1  0  0  0  0
 17 15  1  0  0  0  0
 17 18  1  6  0  0  0
 19 21  1  0  0  0  0
 19 20  1  6  0  0  0
 21 16  1  0  0  0  0
 21 22  1  1  0  0  0
 22 32  1  0  0  0  0
 23 22  1  0  0  0  0
 23 24  2  0  0  0  0
 24 25  1  0  0  0  0
 25 26  1  0  0  0  0
 26 27  2  0  0  0  0
 26 28  1  0  0  0  0
 29 28  1  0  0  0  0
 29 30  1  0  0  0  0
 31 29  2  0  0  0  0
 32 25  2  0  0  0  0
 32 31  1  0  0  0  0
M  END
>  <CHROM.1>
-52.94054366,167.00623871,-49.71644071,-74.55143746,-105.39092259,48.18934300
105.97618870,59.66335121,48.94761151,-81.07753141,2.23008772,15.26043092
1.23546558,0.98155322,0.74620175,-0.38002615

>  <Name>
lig.pdb

>  <RI>
2.92062e+07

>  <Rbt.Current_Directory>
/home/itssahil/PROJECTS/Mol_Feturizer/New_Systems/rnas/5lwj

>  <Rbt.Executable>
rbdock ($Id: //depot/dev/client3/rdock/2013.1/src/exe/rbdock.cxx#4 $)

>  <Rbt.Library>
libRbt.so (2013.1, Build901 2013/11/27)

>  <Rbt.Parameter_File>
/export/apps/rDock/src/rDock_2013.1_src/data/scripts/dock_solv.prm

>  <Rbt.Receptor>
prm/pocket_docking_7.prm

>  <SCORE>
-39.5797

>  <SCORE.INTER>
-32.9602

>  <SCORE.INTER.CONST>
1

>  <SCORE.INTER.POLAR>
-3.84877

>  <SCORE.INTER.ROT>
8

>  <SCORE.INTER.SOLV>
16.4229

>  <SCORE.INTER.VDW>
-23.5519

>  <SCORE.INTER.norm>
-1.03001

>  <SCORE.INTRA>
-6.61945

>  <SCORE.INTRA.DIHEDRAL>
-0.114837

>  <SCORE.INTRA.DIHEDRAL.0>
10.9248

>  <SCORE.INTRA.POLAR>
-1.97652

>  <SCORE.INTRA.POLAR.0>
0

>  <SCORE.INTRA.REPUL>
0

>  <SCORE.INTRA.REPUL.0>
0

>  <SCORE.INTRA.SOLV>
2.13702

>  <SCORE.INTRA.SOLV.lig_0>
-51.4104

>  <SCORE.INTRA.VDW>
-0.910382

>  <SCORE.INTRA.VDW.0>
0.110327

>  <SCORE.INTRA.norm>
-0.206858

>  <SCORE.RESTR>
0

>  <SCORE.RESTR.CAVITY>
0

>  <SCORE.RESTR.norm>
0

>  <SCORE.SYSTEM>
0

>  <SCORE.SYSTEM.CONST>
0

>  <SCORE.SYSTEM.DIHEDRAL>
0

>  <SCORE.SYSTEM.SOLV>
0

>  <SCORE.SYSTEM.norm>
0

>  <SCORE.heavy>
32

>  <SCORE.norm>
-1.23686

>  <RMSD>
3.377

$$$$
lig.pdb
 OpenBabel11021811523D
libRbt.so/2013.1/901 2013/11/27
 32 34  0  0  0  0  0  0  0  0999 V2000
    5.0283   21.2712    1.5075 P   0  0  0  0  0  0  0  0  0  0  0  0
    6.0301   20.2377    1.0533 O   0  0  0  0  0  0  0  0  0  0  0  0
    5.4944   21.5937    3.0278 O   0  0  0  0  0  0  0  0  0  0  0  0
    5.0439   22.6269    0.8465 O   0  0  0  0  0  0  0  0  0  0  0  0
    3.7195   20.7078    1.2384 O   0  0  0  0  0  0  0  0  0  0  0  0
    3.2725   19.9149    2.4076 P   0  0  1  0  0  0  0  0  0  0  0  0
    4.3299   18.9269    2.7269 O   0  0  0  0  0  0  0  0  0  0  0  0
    3.0722   20.8027    3.5765 O   0  0  0  0  0  0  0  0  0  0  0  0
    2.0012   19.2230    2.0781 O   0  0  0  0  0  0  0  0  0  0  0  0
    1.3606   18.2517    2.9964 P   0  0  1  0  0  0  0  0  0  0  0  0
    1.4959   18.5734    4.4317 O   0  0  0  0  0  0  0  0  0  0  0  0
    0.0147   17.7931    2.5860 O   0  0  0  0  0  0  0  0  0  0  0  0
    2.3014   16.9438    2.8454 O   0  0  0  0  0  0  0  0  0  0  0  0
    2.6474   16.4002    1.5855 C   0  0  0  0  0  0  0  0  0  0  0  0
    1.7512   15.2197    1.1860 C   0  0  1  0  0  0  0  0  0  0  0  0
    1.6067   14.3250    2.2700 O   0  0  0  0  0  0  0  0  0  0  0  0
    0.2879   15.6141    0.9200 C   0  0  1  0  0  0  0  0  0  0  0  0
    0.0416   16.2353   -0.3304 O   0  0  0  0  0  0  0  0  0  0  0  0
   -0.4681   14.2958    1.0839 C   0  0  1  0  0  0  0  0  0  0  0  0
   -0.5963   13.5969   -0.1418 O   0  0  0  0  0  0  0  0  0  0  0  0
    0.4769   13.5158    1.9961 C   0  0  2  0  0  0  0  0  0  0  0  0
   -0.1281   12.9981    3.2419 N   0  0  0  0  0  0  0  0  0  0  0  0
    0.3827   12.1589    4.1997 C   0  0  0  0  0  0  0  0  0  0  0  0
   -0.4747   11.8279    5.1303 N   0  0  0  0  0  0  0  0  0  0  0  0
   -1.6343   12.5146    4.7832 C   0  0  0  0  0  0  0  0  0  0  0  0
   -2.9311   12.5268    5.3899 C   0  0  0  0  0  0  0  0  0  0  0  0
   -3.3132   11.8765    6.3607 O   0  0  0  0  0  0  0  0  0  0  0  0
   -3.8252   13.3896    4.7418 N   0  0  0  0  0  0  0  0  0  0  0  0
   -3.4836   14.1762    3.6521 C   0  0  0  0  0  0  0  0  0  0  0  0
   -4.3954   15.0383    3.1882 N   0  0  0  0  0  0  0  0  0  0  0  0
   -2.2806   14.1253    3.0570 N   0  0  0  0  0  0  0  0  0  0  0  0
   -1.4057   13.2755    3.6612 C   0  0  0  0  0  0  0  0  0  0  0  0
  1  2  2  0  0  0  0
  1  4  1  0  0  0  0
  1  3  1  0  0  0  0
  5  1  1  0  0  0  0
  6  7  2  1  0  0  0
  6  9  1  0  0  0  0
  6  5  1  0  0  0  0
  6  8  1  0  0  0  0
 10 11  2  1  0  0  0
 10 12  1  0  0  0  0
 10 13  1  0  0  0  0
 10  9  1  0  0  0  0
 13 14  1  0  0  0  0
 15 14  1  1  0  0  0
 15 16  1  0  0  0  0
 17 19  1  0  0  0  0
 17 15  1  0  0  0  0
 17 18  1  6  0  0  0
 19 21  1  0  0  0  0
 19 20  1  6  0  0  0
 21 16  1  0  0  0  0
 21 22  1  1  0  0  0
 22 32  1  0  0  0  0
 23 22  1  0  0  0  0
 23 24  2  0  0  0  0
 24 25  1  0  0  0  0
 25 26  1  0  0  0  0
 26 27  2  0  0  0  0
 26 28  1  0  0  0  0
 29 28  1  0  0  0  0
 29 30  1  0  0  0  0
 31 29  2  0  0  0  0
 32 25  2  0  0  0  0
 32 31  1  0  0  0  0
M  END
>  <CHROM.1>
88.65393881,174.25329747,-53.81106407,-50.51563262,35.67773362,-97.41168089
-46.29660147,-64.07589025,175.90157165,-63.23905145,1.12479669,16.75221035
2.64219353,-0.37973842,-0.82238359,-2.31666835

>  <Name>
lig.pdb

>  <RI>
1.82117e+07

>  <Rbt.Current_Directory>
/home/itssahil/PROJECTS/Mol_Feturizer/New_Systems/rnas/5lwj

>  <Rbt.Executable>
rbdock ($Id: //depot/dev/client3/rdock/2013.1/src/exe/rbdock.cxx#4 $)

>  <Rbt.Library>
libRbt.so (2013.1, Build901 2013/11/27)

>  <Rbt.Parameter_File>
/export/apps/rDock/src/rDock_2013.1_src/data/scripts/dock_solv.prm

>  <Rbt.Receptor>
prm/pocket_docking_5.prm

>  <SCORE>
-29.2807

>  <SCORE.INTER>
-26.9213

>  <SCORE.INTER.CONST>
1

>  <SCORE.INTER.POLAR>
-2.99371

>  <SCORE.INTER.ROT>
8

>  <SCORE.INTER.SOLV>
15.7584

>  <SCORE.INTER.VDW>
-22.1546

>  <SCORE.INTER.norm>
-0.841291

>  <SCORE.INTRA>
-2.35935

>  <SCORE.INTRA.DIHEDRAL>
-0.392331

>  <SCORE.INTRA.DIHEDRAL.0>
10.9248

>  <SCORE.INTRA.POLAR>
0

>  <SCORE.INTRA.POLAR.0>
0

>  <SCORE.INTRA.REPUL>
0.0221059

>  <SCORE.INTRA.REPUL.0>
0

>  <SCORE.INTRA.SOLV>
1.2666

>  <SCORE.INTRA.SOLV.lig_0>
-51.4104

>  <SCORE.INTRA.VDW>
-2.90702

>  <SCORE.INTRA.VDW.0>
0.110327

>  <SCORE.INTRA.norm>
-0.0737297

>  <SCORE.RESTR>
0

>  <SCORE.RESTR.CAVITY>
0

>  <SCORE.RESTR.norm>
0

>  <SCORE.SYSTEM>
0

>  <SCORE.SYSTEM.CONST>
0

>  <SCORE.SYSTEM.DIHEDRAL>
0

>  <SCORE.SYSTEM.SOLV>
0

>  <SCORE.SYSTEM.norm>
0

>  <SCORE.heavy>
32

>  <SCORE.norm>
-0.915021

>  <RMSD>
3.470

$$$$
lig.pdb
 OpenBabel11021811523D
libRbt.so/2013.1/901 2013/11/27
 32 34  0  0  0  0  0  0  0  0999 V2000
    7.6616   18.1310   -2.1148 P   0  0  0  0  0  0  0  0  0  0  0  0
    9.0996   18.4833   -2.4082 O   0  0  0  0  0  0  0  0  0  0  0  0
    6.8793   19.5289   -2.3725 O   0  0  0  0  0  0  0  0  0  0  0  0
    6.9557   17.1657   -3.0342 O   0  0  0  0  0  0  0  0  0  0  0  0
    7.6588   17.5121   -0.8034 O   0  0  0  0  0  0  0  0  0  0  0  0
    6.3207   17.6672   -0.1863 P   0  0  1  0  0  0  0  0  0  0  0  0
    6.3435   17.0029    1.1382 O   0  0  0  0  0  0  0  0  0  0  0  0
    6.0104   19.1038   -0.0009 O   0  0  0  0  0  0  0  0  0  0  0  0
    5.2979   17.0408   -1.0610 O   0  0  0  0  0  0  0  0  0  0  0  0
    3.8588   17.3861   -0.9791 P   0  0  1  0  0  0  0  0  0  0  0  0
    3.5159   18.7349   -1.4740 O   0  0  0  0  0  0  0  0  0  0  0  0
    2.9307   16.3138   -1.4020 O   0  0  0  0  0  0  0  0  0  0  0  0
    3.6167   17.5310    0.6143 O   0  0  0  0  0  0  0  0  0  0  0  0
    2.3876   17.9754    1.1570 C   0  0  0  0  0  0  0  0  0  0  0  0
    1.2377   16.9927    0.8959 C   0  0  1  0  0  0  0  0  0  0  0  0
    1.4955   15.7566    1.5300 O   0  0  0  0  0  0  0  0  0  0  0  0
   -0.0903   17.4022    1.5566 C   0  0  1  0  0  0  0  0  0  0  0  0
   -0.8080   18.4311    0.8959 O   0  0  0  0  0  0  0  0  0  0  0  0
   -0.8694   16.0890    1.6261 C   0  0  1  0  0  0  0  0  0  0  0  0
   -1.6801   15.8871    0.4819 O   0  0  0  0  0  0  0  0  0  0  0  0
    0.2628   15.0636    1.6115 C   0  0  2  0  0  0  0  0  0  0  0  0
    0.2607   14.1008    2.7335 N   0  0  0  0  0  0  0  0  0  0  0  0
    1.2483   13.2684    3.1963 C   0  0  0  0  0  0  0  0  0  0  0  0
    0.8649   12.4704    4.1590 N   0  0  0  0  0  0  0  0  0  0  0  0
   -0.4676   12.8109    4.3717 C   0  0  0  0  0  0  0  0  0  0  0  0
   -1.4413   12.2635    5.2674 C   0  0  0  0  0  0  0  0  0  0  0  0
   -1.3051   11.3153    6.0378 O   0  0  0  0  0  0  0  0  0  0  0  0
   -2.6764   12.9216    5.1942 N   0  0  0  0  0  0  0  0  0  0  0  0
   -2.9217   14.0100    4.3706 C   0  0  0  0  0  0  0  0  0  0  0  0
   -4.1091   14.6182    4.4692 N   0  0  0  0  0  0  0  0  0  0  0  0
   -2.0204   14.4890    3.4976 N   0  0  0  0  0  0  0  0  0  0  0  0
   -0.8210   13.8471    3.5402 C   0  0  0  0  0  0  0  0  0  0  0  0
  1  2  2  0  0  0  0
  1  4  1  0  0  0  0
  1  3  1  0  0  0  0
  5  1  1  0  0  0  0
  6  7  2  1  0  0  0
  6  9  1  0  0  0  0
  6  5  1  0  0  0  0
  6  8  1  0  0  0  0
 10 11  2  6  0  0  0
 10 12  1  0  0  0  0
 10 13  1  0  0  0  0
 10  9  1  0  0  0  0
 13 14  1  0  0  0  0
 15 14  1  1  0  0  0
 15 16  1  0  0  0  0
 17 19  1  0  0  0  0
 17 15  1  0  0  0  0
 17 18  1  6  0  0  0
 19 21  1  0  0  0  0
 19 20  1  6  0  0  0
 21 16  1  0  0  0  0
 21 22  1  1  0  0  0
 22 32  1  0  0  0  0
 23 22  1  0  0  0  0
 23 24  2  0  0  0  0
 24 25  1  0  0  0  0
 25 26  1  0  0  0  0
 26 27  2  0  0  0  0
 26 28  1  0  0  0  0
 29 28  1  0  0  0  0
 29 30  1  0  0  0  0
 31 29  2  0  0  0  0
 32 25  2  0  0  0  0
 32 31  1  0  0  0  0
M  END
>  <CHROM.1>
155.54015307,-159.63710040,178.92001263,174.23518338,70.63147906,65.88002284
62.89276249,179.91839959,179.45057239,-39.46635726,2.53046210,16.24857487
0.98078647,-0.68137901,-0.16411847,2.44090006

>  <Name>
lig.pdb

>  <RI>
0

>  <Rbt.Current_Directory>
/home/itssahil/PROJECTS/Mol_Feturizer/New_Systems/rnas/5lwj

>  <Rbt.Executable>
rbdock ($Id: //depot/dev/client3/rdock/2013.1/src/exe/rbdock.cxx#4 $)

>  <Rbt.Library>
libRbt.so (2013.1, Build901 2013/11/27)

>  <Rbt.Parameter_File>
/export/apps/rDock/src/rDock_2013.1_src/data/scripts/dock_solv.prm

>  <Rbt.Receptor>
prm/pocket_docking_4.prm

>  <SCORE>
-15.4549

>  <SCORE.INTER>
-10.2508

>  <SCORE.INTER.CONST>
1

>  <SCORE.INTER.POLAR>
-1.39573

>  <SCORE.INTER.ROT>
8

>  <SCORE.INTER.SOLV>
8.99277

>  <SCORE.INTER.VDW>
-14.1124

>  <SCORE.INTER.norm>
-0.320339

>  <SCORE.INTRA>
-5.20409

>  <SCORE.INTRA.DIHEDRAL>
-5.89901

>  <SCORE.INTRA.DIHEDRAL.0>
10.9248

>  <SCORE.INTRA.POLAR>
0

>  <SCORE.INTRA.POLAR.0>
0

>  <SCORE.INTRA.REPUL>
0

>  <SCORE.INTRA.REPUL.0>
0

>  <SCORE.INTRA.SOLV>
0.797371

>  <SCORE.INTRA.SOLV.lig_0>
-51.4104

>  <SCORE.INTRA.VDW>
-2.65327

>  <SCORE.INTRA.VDW.0>
0.110327

>  <SCORE.INTRA.norm>
-0.162628

>  <SCORE.RESTR>
0

>  <SCORE.RESTR.CAVITY>
0

>  <SCORE.RESTR.norm>
0

>  <SCORE.SYSTEM>
0

>  <SCORE.SYSTEM.CONST>
0

>  <SCORE.SYSTEM.DIHEDRAL>
0

>  <SCORE.SYSTEM.SOLV>
0

>  <SCORE.SYSTEM.norm>
0

>  <SCORE.heavy>
32

>  <SCORE.norm>
-0.482967

>  <RMSD>
3.517

$$$$
lig.pdb
 OpenBabel11021811523D
libRbt.so/2013.1/901 2013/11/27
 32 34  0  0  0  0  0  0  0  0999 V2000
    6.0115   17.4466   -3.0752 P   0  0  0  0  0  0  0  0  0  0  0  0
    7.4597   17.7844   -3.3334 O   0  0  0  0  0  0  0  0  0  0  0  0
    5.2818   18.8952   -3.1167 O   0  0  0  0  0  0  0  0  0  0  0  0
    5.2618   16.6524   -4.1155 O   0  0  0  0  0  0  0  0  0  0  0  0
    5.9951   16.6439   -1.8677 O   0  0  0  0  0  0  0  0  0  0  0  0
    4.6425   16.6861   -1.2642 P   0  0  1  0  0  0  0  0  0  0  0  0
    4.3308   18.0953   -0.9279 O   0  0  0  0  0  0  0  0  0  0  0  0
    3.6386   16.1873   -2.2328 O   0  0  0  0  0  0  0  0  0  0  0  0
    4.6213   15.8460   -0.0406 O   0  0  0  0  0  0  0  0  0  0  0  0
    5.6701   15.9308    1.0033 P   0  0  1  0  0  0  0  0  0  0  0  0
    6.5923   14.7780    1.0506 O   0  0  0  0  0  0  0  0  0  0  0  0
    6.3206   17.2536    1.1337 O   0  0  0  0  0  0  0  0  0  0  0  0
    4.8258   15.7541    2.3726 O   0  0  0  0  0  0  0  0  0  0  0  0
    4.0748   14.5884    2.6550 C   0  0  0  0  0  0  0  0  0  0  0  0
    2.8214   14.4670    1.7772 C   0  0  1  0  0  0  0  0  0  0  0  0
    1.9581   13.4728    2.2898 O   0  0  0  0  0  0  0  0  0  0  0  0
    1.9132   15.7086    1.8176 C   0  0  1  0  0  0  0  0  0  0  0  0
    2.3564   16.8133    1.0473 O   0  0  0  0  0  0  0  0  0  0  0  0
    0.5595   15.1706    1.3549 C   0  0  1  0  0  0  0  0  0  0  0  0
    0.3899   15.2839   -0.0471 O   0  0  0  0  0  0  0  0  0  0  0  0
    0.6817   13.6913    1.7156 C   0  0  2  0  0  0  0  0  0  0  0  0
   -0.3940   13.1580    2.5784 N   0  0  0  0  0  0  0  0  0  0  0  0
   -1.7575   13.2721    2.4773 C   0  0  0  0  0  0  0  0  0  0  0  0
   -2.4119   12.7507    3.4826 N   0  0  0  0  0  0  0  0  0  0  0  0
   -1.4155   12.2290    4.3022 C   0  0  0  0  0  0  0  0  0  0  0  0
   -1.4976   11.5712    5.5713 C   0  0  0  0  0  0  0  0  0  0  0  0
   -2.5044   11.3570    6.2434 O   0  0  0  0  0  0  0  0  0  0  0  0
   -0.2462   11.1646    6.0535 N   0  0  0  0  0  0  0  0  0  0  0  0
    0.9419   11.3455    5.3616 C   0  0  0  0  0  0  0  0  0  0  0  0
    2.0573   10.8181    5.8787 N   0  0  0  0  0  0  0  0  0  0  0  0
    1.0196   12.0057    4.1946 N   0  0  0  0  0  0  0  0  0  0  0  0
   -0.1851   12.4268    3.7217 C   0  0  0  0  0  0  0  0  0  0  0  0
  1  2  2  0  0  0  0
  1  4  1  0  0  0  0
  1  3  1  0  0  0  0
  5  1  1  0  0  0  0
  6  7  2  1  0  0  0
  6  9  1  0  0  0  0
  6  5  1  0  0  0  0
  6  8  1  0  0  0  0
 10 11  2  6  0  0  0
 10 12  1  0  0  0  0
 10 13  1  0  0  0  0
 10  9  1  0  0  0  0
 13 14  1  0  0  0  0
 15 14  1  1  0  0  0
 15 16  1  0  0  0  0
 17 19  1  0  0  0  0
 17 15  1  0  0  0  0
 17 18  1  6  0  0  0
 19 21  1  0  0  0  0
 19 20  1  6  0  0  0
 21 16  1  0  0  0  0
 21 22  1  1  0  0  0
 22 32  1  0  0  0  0
 23 22  1  0  0  0  0
 23 24  2  0  0  0  0
 24 25  1  0  0  0  0
 25 26  1  0  0  0  0
 26 27  2  0  0  0  0
 26 28  1  0  0  0  0
 29 28  1  0  0  0  0
 29 30  1  0  0  0  0
 31 29  2  0  0  0  0
 32 25  2  0  0  0  0
 32 31  1  0  0  0  0
M  END
>  <CHROM.1>
159.19615443,47.55850553,-60.65468853,60.92694144,-107.75940338,-70.89640602
-166.78296549,-173.15800825,-177.95052216,172.54140964,2.89435671,14.96471255
1.13049412,0.92110597,-0.14349186,-1.01584044

>  <Name>
lig.pdb

>  <RI>
0

>  <Rbt.Current_Directory>
/home/itssahil/PROJECTS/Mol_Feturizer/New_Systems/rnas/5lwj

>  <Rbt.Executable>
rbdock ($Id: //depot/dev/client3/rdock/2013.1/src/exe/rbdock.cxx#4 $)

>  <Rbt.Library>
libRbt.so (2013.1, Build901 2013/11/27)

>  <Rbt.Parameter_File>
/export/apps/rDock/src/rDock_2013.1_src/data/scripts/dock_solv.prm

>  <Rbt.Receptor>
prm/pocket_docking_4.prm

>  <SCORE>
-45.7197

>  <SCORE.INTER>
-43.8636

>  <SCORE.INTER.CONST>
1

>  <SCORE.INTER.POLAR>
-4.54174

>  <SCORE.INTER.ROT>
8

>  <SCORE.INTER.SOLV>
16.5663

>  <SCORE.INTER.VDW>
-28.5587

>  <SCORE.INTER.norm>
-1.37074

>  <SCORE.INTRA>
-1.85608

>  <SCORE.INTRA.DIHEDRAL>
-4.36376

>  <SCORE.INTRA.DIHEDRAL.0>
10.9248

>  <SCORE.INTRA.POLAR>
0

>  <SCORE.INTRA.POLAR.0>
0

>  <SCORE.INTRA.REPUL>
0.491044

>  <SCORE.INTRA.REPUL.0>
0

>  <SCORE.INTRA.SOLV>
2.77631

>  <SCORE.INTRA.SOLV.lig_0>
-51.4104

>  <SCORE.INTRA.VDW>
-3.51757

>  <SCORE.INTRA.VDW.0>
0.110327

>  <SCORE.INTRA.norm>
-0.0580025

>  <SCORE.RESTR>
0

>  <SCORE.RESTR.CAVITY>
0

>  <SCORE.RESTR.norm>
0

>  <SCORE.SYSTEM>
0

>  <SCORE.SYSTEM.CONST>
0

>  <SCORE.SYSTEM.DIHEDRAL>
0

>  <SCORE.SYSTEM.SOLV>
0

>  <SCORE.SYSTEM.norm>
0

>  <SCORE.heavy>
32

>  <SCORE.norm>
-1.42874

>  <RMSD>
3.532

$$$$
lig.pdb
 OpenBabel11021811523D
libRbt.so/2013.1/901 2013/11/27
 32 34  0  0  0  0  0  0  0  0999 V2000
    2.5535   19.2941   -1.8444 P   0  0  0  0  0  0  0  0  0  0  0  0
    2.9213   19.6302   -0.4197 O   0  0  0  0  0  0  0  0  0  0  0  0
    1.3893   18.1774   -1.6712 O   0  0  0  0  0  0  0  0  0  0  0  0
    1.8908   20.3562   -2.6857 O   0  0  0  0  0  0  0  0  0  0  0  0
    3.7976   18.9686   -2.5145 O   0  0  0  0  0  0  0  0  0  0  0  0
    3.5163   18.1127   -3.6909 P   0  0  1  0  0  0  0  0  0  0  0  0
    2.6499   18.8754   -4.6202 O   0  0  0  0  0  0  0  0  0  0  0  0
    4.7806   17.7682   -4.3820 O   0  0  0  0  0  0  0  0  0  0  0  0
    2.8321   16.8724   -3.2468 O   0  0  0  0  0  0  0  0  0  0  0  0
    3.4825   15.8751   -2.3641 P   0  0  1  0  0  0  0  0  0  0  0  0
    4.6174   15.1534   -2.9747 O   0  0  0  0  0  0  0  0  0  0  0  0
    3.7062   16.3210   -0.9708 O   0  0  0  0  0  0  0  0  0  0  0  0
    2.3592   14.7162   -2.2466 O   0  0  0  0  0  0  0  0  0  0  0  0
    1.2180   14.8475   -1.4200 C   0  0  0  0  0  0  0  0  0  0  0  0
    1.5742   14.9110    0.0718 C   0  0  1  0  0  0  0  0  0  0  0  0
    0.4067   14.8008    0.8598 O   0  0  0  0  0  0  0  0  0  0  0  0
    2.3902   13.7038    0.5665 C   0  0  1  0  0  0  0  0  0  0  0  0
    3.7670   13.7187    0.2283 O   0  0  0  0  0  0  0  0  0  0  0  0
    2.1525   13.7125    2.0764 C   0  0  1  0  0  0  0  0  0  0  0  0
    3.1351   14.4629    2.7681 O   0  0  0  0  0  0  0  0  0  0  0  0
    0.8178   14.4496    2.1691 C   0  0  2  0  0  0  0  0  0  0  0  0
   -0.2530   13.7336    2.8947 N   0  0  0  0  0  0  0  0  0  0  0  0
   -1.6144   13.7569    2.7260 C   0  0  0  0  0  0  0  0  0  0  0  0
   -2.2740   13.0664    3.6197 N   0  0  0  0  0  0  0  0  0  0  0  0
   -1.2811   12.5226    4.4291 C   0  0  0  0  0  0  0  0  0  0  0  0
   -1.3734   11.7071    5.6023 C   0  0  0  0  0  0  0  0  0  0  0  0
   -2.3920   11.3357    6.1817 O   0  0  0  0  0  0  0  0  0  0  0  0
   -0.1190   11.3383    6.1067 N   0  0  0  0  0  0  0  0  0  0  0  0
    1.0839   11.6928    5.5146 C   0  0  0  0  0  0  0  0  0  0  0  0
    2.2111   11.1902    6.0307 N   0  0  0  0  0  0  0  0  0  0  0  0
    1.1664   12.4976    4.4426 N   0  0  0  0  0  0  0  0  0  0  0  0
   -0.0432   12.8830    3.9520 C   0  0  0  0  0  0  0  0  0  0  0  0
  1  2  2  0  0  0  0
  1  4  1  0  0  0  0
  1  3  1  0  0  0  0
  5  1  1  0  0  0  0
  6  7  2  6  0  0  0
  6  9  1  0  0  0  0
  6  5  1  0  0  0  0
  6  8  1  0  0  0  0
 10 11  2  6  0  0  0
 10 12  1  0  0  0  0
 10 13  1  0  0  0  0
 10  9  1  0  0  0  0
 13 14  1  0  0  0  0
 15 14  1  6  0  0  0
 15 16  1  0  0  0  0
 17 19  1  0  0  0  0
 17 15  1  0  0  0  0
 17 18  1  1  0  0  0
 19 21  1  0  0  0  0
 19 20  1  1  0  0  0
 21 16  1  0  0  0  0
 21 22  1  6  0  0  0
 22 32  1  0  0  0  0
 23 22  1  0  0  0  0
 23 24  2  0  0  0  0
 24 25  1  0  0  0  0
 25 26  1  0  0  0  0
 26 27  2  0  0  0  0
 26 28  1  0  0  0  0
 29 28  1  0  0  0  0
 29 30  1  0  0  0  0
 31 29  2  0  0  0  0
 32 25  2  0  0  0  0
 32 31  1  0  0  0  0
M  END
>  <CHROM.1>
156.68684767,-64.16649751,61.21925655,-76.90610563,-67.28331029,-65.28082778
-169.56127080,40.67671566,-174.73420944,-24.88204084,1.84756195,15.38988675
0.31716803,1.16512327,0.57060347,-0.69429736

>  <Name>
lig.pdb

>  <RI>
0

>  <Rbt.Current_Directory>
/home/itssahil/PROJECTS/Mol_Feturizer/New_Systems/rnas/5lwj

>  <Rbt.Executable>
rbdock ($Id: //depot/dev/client3/rdock/2013.1/src/exe/rbdock.cxx#4 $)

>  <Rbt.Library>
libRbt.so (2013.1, Build901 2013/11/27)

>  <Rbt.Parameter_File>
/export/apps/rDock/src/rDock_2013.1_src/data/scripts/dock_solv.prm

>  <Rbt.Receptor>
prm/pocket_docking_4.prm

>  <SCORE>
-37.8456

>  <SCORE.INTER>
-31.5685

>  <SCORE.INTER.CONST>
1

>  <SCORE.INTER.POLAR>
-4.02643

>  <SCORE.INTER.ROT>
8

>  <SCORE.INTER.SOLV>
13.9253

>  <SCORE.INTER.VDW>
-21.1994

>  <SCORE.INTER.norm>
-0.986517

>  <SCORE.INTRA>
-6.27701

>  <SCORE.INTRA.DIHEDRAL>
-4.61979

>  <SCORE.INTRA.DIHEDRAL.0>
10.9248

>  <SCORE.INTRA.POLAR>
-0.371493

>  <SCORE.INTRA.POLAR.0>
0

>  <SCORE.INTRA.REPUL>
0.00453372

>  <SCORE.INTRA.REPUL.0>
0

>  <SCORE.INTRA.SOLV>
2.59118

>  <SCORE.INTRA.SOLV.lig_0>
-51.4104

>  <SCORE.INTRA.VDW>
-4.0223

>  <SCORE.INTRA.VDW.0>
0.110327

>  <SCORE.INTRA.norm>
-0.196157

>  <SCORE.RESTR>
0

>  <SCORE.RESTR.CAVITY>
0

>  <SCORE.RESTR.norm>
0

>  <SCORE.SYSTEM>
0

>  <SCORE.SYSTEM.CONST>
0

>  <SCORE.SYSTEM.DIHEDRAL>
0

>  <SCORE.SYSTEM.SOLV>
0

>  <SCORE.SYSTEM.norm>
0

>  <SCORE.heavy>
32

>  <SCORE.norm>
-1.18267

>  <RMSD>
3.716

$$$$
lig.pdb
 OpenBabel11021811523D
libRbt.so/2013.1/901 2013/11/27
 32 34  0  0  0  0  0  0  0  0999 V2000
    5.1986   17.1933   -4.2189 P   0  0  0  0  0  0  0  0  0  0  0  0
    5.9323   16.9236   -5.5099 O   0  0  0  0  0  0  0  0  0  0  0  0
    5.4458   18.7787   -3.9783 O   0  0  0  0  0  0  0  0  0  0  0  0
    3.6951   17.0726   -4.2074 O   0  0  0  0  0  0  0  0  0  0  0  0
    5.6877   16.2151   -3.2666 O   0  0  0  0  0  0  0  0  0  0  0  0
    5.5330   16.7438   -1.8911 P   0  0  1  0  0  0  0  0  0  0  0  0
    6.4671   17.8824   -1.7264 O   0  0  0  0  0  0  0  0  0  0  0  0
    4.1464   17.2226   -1.6841 O   0  0  0  0  0  0  0  0  0  0  0  0
    5.8463   15.6726   -0.9123 O   0  0  0  0  0  0  0  0  0  0  0  0
    5.8694   15.9107    0.5505 P   0  0  1  0  0  0  0  0  0  0  0  0
    5.8877   14.6870    1.3776 O   0  0  0  0  0  0  0  0  0  0  0  0
    6.7916   16.9781    0.9983 O   0  0  0  0  0  0  0  0  0  0  0  0
    4.3906   16.5008    0.8394 O   0  0  0  0  0  0  0  0  0  0  0  0
    3.5048   15.9050    1.7684 C   0  0  0  0  0  0  0  0  0  0  0  0
    2.8490   14.6287    1.2232 C   0  0  1  0  0  0  0  0  0  0  0  0
    2.1417   13.9638    2.2498 O   0  0  0  0  0  0  0  0  0  0  0  0
    1.7273   14.8944    0.2039 C   0  0  1  0  0  0  0  0  0  0  0  0
    2.1592   15.2405   -1.1014 O   0  0  0  0  0  0  0  0  0  0  0  0
    0.9109   13.6025    0.2331 C   0  0  1  0  0  0  0  0  0  0  0  0
    1.3555   12.6671   -0.7335 O   0  0  0  0  0  0  0  0  0  0  0  0
    1.2432   13.0652    1.6240 C   0  0  2  0  0  0  0  0  0  0  0  0
    0.0782   12.7807    2.4888 N   0  0  0  0  0  0  0  0  0  0  0  0
   -1.2495   13.0853    2.3252 C   0  0  0  0  0  0  0  0  0  0  0  0
   -1.9998   12.7635    3.3471 N   0  0  0  0  0  0  0  0  0  0  0  0
   -1.1142   12.1795    4.2479 C   0  0  0  0  0  0  0  0  0  0  0  0
   -1.3261   11.6635    5.5665 C   0  0  0  0  0  0  0  0  0  0  0  0
   -2.3701   11.6650    6.2157 O   0  0  0  0  0  0  0  0  0  0  0  0
   -0.1628   11.1234    6.1312 N   0  0  0  0  0  0  0  0  0  0  0  0
    1.0558   11.0605    5.4723 C   0  0  0  0  0  0  0  0  0  0  0  0
    2.0657   10.4249    6.0771 N   0  0  0  0  0  0  0  0  0  0  0  0
    1.2612   11.5891    4.2548 N   0  0  0  0  0  0  0  0  0  0  0  0
    0.1459   12.1375    3.7000 C   0  0  0  0  0  0  0  0  0  0  0  0
  1  2  2  0  0  0  0
  1  4  1  0  0  0  0
  1  3  1  0  0  0  0
  5  1  1  0  0  0  0
  6  7  2  1  0  0  0
  6  9  1  0  0  0  0
  6  5  1  0  0  0  0
  6  8  1  0  0  0  0
 10 11  2  1  0  0  0
 10 12  1  0  0  0  0
 10 13  1  0  0  0  0
 10  9  1  0  0  0  0
 13 14  1  0  0  0  0
 15 14  1  1  0  0  0
 15 16  1  0  0  0  0
 17 19  1  0  0  0  0
 17 15  1  0  0  0  0
 17 18  1  6  0  0  0
 19 21  1  0  0  0  0
 19 20  1  6  0  0  0
 21 16  1  0  0  0  0
 21 22  1  1  0  0  0
 22 32  1  0  0  0  0
 23 22  1  0  0  0  0
 23 24  2  0  0  0  0
 24 25  1  0  0  0  0
 25 26  1  0  0  0  0
 26 27  2  0  0  0  0
 26 28  1  0  0  0  0
 29 28  1  0  0  0  0
 29 30  1  0  0  0  0
 31 29  2  0  0  0  0
 32 25  2  0  0  0  0
 32 31  1  0  0  0  0
M  END
>  <CHROM.1>
154.29603767,175.91084875,-67.92290031,123.30833775,166.45432695,-76.49049220
170.96528189,-60.99527758,70.45716629,114.13140337,3.02038023,14.75346548
0.58037373,0.96557506,-0.34072584,-1.18147065

>  <Name>
lig.pdb

>  <RI>
1.82117e+07

>  <Rbt.Current_Directory>
/home/itssahil/PROJECTS/Mol_Feturizer/New_Systems/rnas/5lwj

>  <Rbt.Executable>
rbdock ($Id: //depot/dev/client3/rdock/2013.1/src/exe/rbdock.cxx#4 $)

>  <Rbt.Library>
libRbt.so (2013.1, Build901 2013/11/27)

>  <Rbt.Parameter_File>
/export/apps/rDock/src/rDock_2013.1_src/data/scripts/dock_solv.prm

>  <Rbt.Receptor>
prm/pocket_docking_5.prm

>  <SCORE>
-53.3225

>  <SCORE.INTER>
-46.2662

>  <SCORE.INTER.CONST>
1

>  <SCORE.INTER.POLAR>
-5.05637

>  <SCORE.INTER.ROT>
8

>  <SCORE.INTER.SOLV>
17.4932

>  <SCORE.INTER.VDW>
-28.7539

>  <SCORE.INTER.norm>
-1.44582

>  <SCORE.INTRA>
-7.05635

>  <SCORE.INTRA.DIHEDRAL>
-2.77325

>  <SCORE.INTRA.DIHEDRAL.0>
10.9248

>  <SCORE.INTRA.POLAR>
-1

>  <SCORE.INTRA.POLAR.0>
0

>  <SCORE.INTRA.REPUL>
0

>  <SCORE.INTRA.REPUL.0>
0

>  <SCORE.INTRA.SOLV>
0.288649

>  <SCORE.INTRA.SOLV.lig_0>
-51.4104

>  <SCORE.INTRA.VDW>
-2.41405

>  <SCORE.INTRA.VDW.0>
0.110327

>  <SCORE.INTRA.norm>
-0.220511

>  <SCORE.RESTR>
0

>  <SCORE.RESTR.CAVITY>
0

>  <SCORE.RESTR.norm>
0

>  <SCORE.SYSTEM>
0

>  <SCORE.SYSTEM.CONST>
0

>  <SCORE.SYSTEM.DIHEDRAL>
0

>  <SCORE.SYSTEM.SOLV>
0

>  <SCORE.SYSTEM.norm>
0

>  <SCORE.heavy>
32

>  <SCORE.norm>
-1.66633

>  <RMSD>
3.722

$$$$
lig.pdb
 OpenBabel11021811523D
libRbt.so/2013.1/901 2013/11/27
 32 34  0  0  0  0  0  0  0  0999 V2000
    0.3570   17.7657    3.1422 P   0  0  0  0  0  0  0  0  0  0  0  0
   -0.7680   18.6568    3.6093 O   0  0  0  0  0  0  0  0  0  0  0  0
    1.6614   18.4122    3.8585 O   0  0  0  0  0  0  0  0  0  0  0  0
    0.3808   16.3321    3.6106 O   0  0  0  0  0  0  0  0  0  0  0  0
    0.2556   17.7146    1.6965 O   0  0  0  0  0  0  0  0  0  0  0  0
    0.5224   19.0594    1.1343 P   0  0  1  0  0  0  0  0  0  0  0  0
    0.4272   18.9698   -0.3418 O   0  0  0  0  0  0  0  0  0  0  0  0
   -0.4881   20.0248    1.6258 O   0  0  0  0  0  0  0  0  0  0  0  0
    1.8801   19.5031    1.5386 O   0  0  0  0  0  0  0  0  0  0  0  0
    3.0732   19.3001    0.6830 P   0  0  1  0  0  0  0  0  0  0  0  0
    2.8731   19.6183   -0.7455 O   0  0  0  0  0  0  0  0  0  0  0  0
    4.3474   19.7880    1.2564 O   0  0  0  0  0  0  0  0  0  0  0  0
    3.2260   17.6893    0.6600 O   0  0  0  0  0  0  0  0  0  0  0  0
    3.4015   16.9275    1.8396 C   0  0  0  0  0  0  0  0  0  0  0  0
    3.1755   15.4264    1.6116 C   0  0  1  0  0  0  0  0  0  0  0  0
    2.3867   14.8857    2.6517 O   0  0  0  0  0  0  0  0  0  0  0  0
    2.3114   15.1095    0.3784 C   0  0  1  0  0  0  0  0  0  0  0  0
    2.9733   15.2086   -0.8715 O   0  0  0  0  0  0  0  0  0  0  0  0
    1.7942   13.6996    0.6631 C   0  0  1  0  0  0  0  0  0  0  0  0
    2.6453   12.7001    0.1305 O   0  0  0  0  0  0  0  0  0  0  0  0
    1.8738   13.6495    2.1877 C   0  0  2  0  0  0  0  0  0  0  0  0
    0.6141   13.2976    2.8772 N   0  0  0  0  0  0  0  0  0  0  0  0
   -0.6773   13.6895    2.6304 C   0  0  0  0  0  0  0  0  0  0  0  0
   -1.5430   13.2566    3.5101 N   0  0  0  0  0  0  0  0  0  0  0  0
   -0.7792   12.5007    4.3943 C   0  0  0  0  0  0  0  0  0  0  0  0
   -1.1481   11.8046    5.5898 C   0  0  0  0  0  0  0  0  0  0  0  0
   -2.2547   11.7613    6.1236 O   0  0  0  0  0  0  0  0  0  0  0  0
   -0.0709   11.1284    6.1783 N   0  0  0  0  0  0  0  0  0  0  0  0
    1.2081   11.1037    5.6430 C   0  0  0  0  0  0  0  0  0  0  0  0
    2.1253   10.3349    6.2409 N   0  0  0  0  0  0  0  0  0  0  0  0
    1.5603   11.7975    4.5483 N   0  0  0  0  0  0  0  0  0  0  0  0
    0.5301   12.4780    3.9756 C   0  0  0  0  0  0  0  0  0  0  0  0
  1  2  2  0  0  0  0
  1  4  1  0  0  0  0
  1  3  1  0  0  0  0
  5  1  1  0  0  0  0
  6  7  2  6  0  0  0
  6  9  1  0  0  0  0
  6  5  1  0  0  0  0
  6  8  1  0  0  0  0
 10 11  2  6  0  0  0
 10 12  1  0  0  0  0
 10 13  1  0  0  0  0
 10  9  1  0  0  0  0
 13 14  1  0  0  0  0
 15 14  1  1  0  0  0
 15 16  1  0  0  0  0
 17 19  1  0  0  0  0
 17 15  1  0  0  0  0
 17 18  1  6  0  0  0
 19 21  1  0  0  0  0
 19 20  1  6  0  0  0
 21 16  1  0  0  0  0
 21 22  1  1  0  0  0
 22 32  1  0  0  0  0
 23 22  1  0  0  0  0
 23 24  2  0  0  0  0
 24 25  1  0  0  0  0
 25 26  1  0  0  0  0
 26 27  2  0  0  0  0
 26 28  1  0  0  0  0
 29 28  1  0  0  0  0
 29 30  1  0  0  0  0
 31 29  2  0  0  0  0
 32 25  2  0  0  0  0
 32 31  1  0  0  0  0
M  END
>  <CHROM.1>
65.42317277,94.37959513,179.33651506,-58.86990404,44.17287280,165.80464076
-135.45184707,177.47788132,-59.12600619,83.04087940,1.22969999,15.87151001
2.41508562,1.28255967,0.73637473,-0.30442397

>  <Name>
lig.pdb

>  <RI>
0

>  <Rbt.Current_Directory>
/home/itssahil/PROJECTS/Mol_Feturizer/New_Systems/rnas/5lwj

>  <Rbt.Executable>
rbdock ($Id: //depot/dev/client3/rdock/2013.1/src/exe/rbdock.cxx#4 $)

>  <Rbt.Library>
libRbt.so (2013.1, Build901 2013/11/27)

>  <Rbt.Parameter_File>
/export/apps/rDock/src/rDock_2013.1_src/data/scripts/dock_solv.prm

>  <Rbt.Receptor>
prm/pocket_docking_6.prm

>  <SCORE>
-51.978

>  <SCORE.INTER>
-48.7619

>  <SCORE.INTER.CONST>
1

>  <SCORE.INTER.POLAR>
-6.46521

>  <SCORE.INTER.ROT>
8

>  <SCORE.INTER.SOLV>
15.5892

>  <SCORE.INTER.VDW>
-25.0869

>  <SCORE.INTER.norm>
-1.52381

>  <SCORE.INTRA>
-3.21615

>  <SCORE.INTRA.DIHEDRAL>
-0.991492

>  <SCORE.INTRA.DIHEDRAL.0>
10.9248

>  <SCORE.INTRA.POLAR>
0

>  <SCORE.INTRA.POLAR.0>
0

>  <SCORE.INTRA.REPUL>
0

>  <SCORE.INTRA.REPUL.0>
0

>  <SCORE.INTRA.SOLV>
3.1021

>  <SCORE.INTRA.SOLV.lig_0>
-51.4104

>  <SCORE.INTRA.VDW>
-4.27145

>  <SCORE.INTRA.VDW.0>
0.110327

>  <SCORE.INTRA.norm>
-0.100505

>  <SCORE.RESTR>
0

>  <SCORE.RESTR.CAVITY>
0

>  <SCORE.RESTR.norm>
0

>  <SCORE.SYSTEM>
0

>  <SCORE.SYSTEM.CONST>
0

>  <SCORE.SYSTEM.DIHEDRAL>
0

>  <SCORE.SYSTEM.SOLV>
0

>  <SCORE.SYSTEM.norm>
0

>  <SCORE.heavy>
32

>  <SCORE.norm>
-1.62431

>  <RMSD>
3.769

$$$$
lig.pdb
 OpenBabel11021811523D
libRbt.so/2013.1/901 2013/11/27
 32 34  0  0  0  0  0  0  0  0999 V2000
    8.5530   14.4238   -1.2101 P   0  0  0  0  0  0  0  0  0  0  0  0
    8.5548   12.9561   -1.5619 O   0  0  0  0  0  0  0  0  0  0  0  0
   10.0194   14.6474   -0.5527 O   0  0  0  0  0  0  0  0  0  0  0  0
    8.5200   15.4321   -2.3314 O   0  0  0  0  0  0  0  0  0  0  0  0
    7.3507   14.6491   -0.4314 O   0  0  0  0  0  0  0  0  0  0  0  0
    7.5382   15.8359    0.4358 P   0  0  1  0  0  0  0  0  0  0  0  0
    8.6956   15.5796    1.3250 O   0  0  0  0  0  0  0  0  0  0  0  0
    7.8211   17.0307   -0.3931 O   0  0  0  0  0  0  0  0  0  0  0  0
    6.3097   16.0601    1.2383 O   0  0  0  0  0  0  0  0  0  0  0  0
    5.4880   14.9456    1.7670 P   0  0  1  0  0  0  0  0  0  0  0  0
    4.9493   14.0310    0.7398 O   0  0  0  0  0  0  0  0  0  0  0  0
    6.0346   14.2779    2.9693 O   0  0  0  0  0  0  0  0  0  0  0  0
    4.1557   15.7011    2.2896 O   0  0  0  0  0  0  0  0  0  0  0  0
    3.0632   15.9879    1.4371 C   0  0  0  0  0  0  0  0  0  0  0  0
    2.3660   14.7199    0.9247 C   0  0  1  0  0  0  0  0  0  0  0  0
    1.7460   14.0351    1.9937 O   0  0  0  0  0  0  0  0  0  0  0  0
    1.1642   15.0011    0.0057 C   0  0  1  0  0  0  0  0  0  0  0  0
    1.4872   15.3714   -1.3242 O   0  0  0  0  0  0  0  0  0  0  0  0
    0.3542   13.7070    0.0786 C   0  0  1  0  0  0  0  0  0  0  0  0
    0.7187   12.7900   -0.9379 O   0  0  0  0  0  0  0  0  0  0  0  0
    0.7999   13.1458    1.4276 C   0  0  2  0  0  0  0  0  0  0  0  0
   -0.2899   12.8430    2.3798 N   0  0  0  0  0  0  0  0  0  0  0  0
   -1.6291   13.1362    2.3251 C   0  0  0  0  0  0  0  0  0  0  0  0
   -2.2928   12.7990    3.4006 N   0  0  0  0  0  0  0  0  0  0  0  0
   -1.3331   12.2163    4.2229 C   0  0  0  0  0  0  0  0  0  0  0  0
   -1.4347   11.6877    5.5496 C   0  0  0  0  0  0  0  0  0  0  0  0
   -2.4237   11.6738    6.2798 O   0  0  0  0  0  0  0  0  0  0  0  0
   -0.2254   11.1542    6.0151 N   0  0  0  0  0  0  0  0  0  0  0  0
    0.9374   11.1083    5.2608 C   0  0  0  0  0  0  0  0  0  0  0  0
    1.9979   10.4776    5.7778 N   0  0  0  0  0  0  0  0  0  0  0  0
    1.0405   11.6487    4.0356 N   0  0  0  0  0  0  0  0  0  0  0  0
   -0.1203   12.1908    3.5761 C   0  0  0  0  0  0  0  0  0  0  0  0
  1  2  2  0  0  0  0
  1  4  1  0  0  0  0
  1  3  1  0  0  0  0
  5  1  1  0  0  0  0
  6  7  2  1  0  0  0
  6  9  1  0  0  0  0
  6  5  1  0  0  0  0
  6  8  1  0  0  0  0
 10 11  2  6  0  0  0
 10 12  1  0  0  0  0
 10 13  1  0  0  0  0
 10  9  1  0  0  0  0
 13 14  1  0  0  0  0
 15 14  1  1  0  0  0
 15 16  1  0  0  0  0
 17 19  1  0  0  0  0
 17 15  1  0  0  0  0
 17 18  1  6  0  0  0
 19 21  1  0  0  0  0
 19 20  1  6  0  0  0
 21 16  1  0  0  0  0
 21 22  1  1  0  0  0
 22 32  1  0  0  0  0
 23 22  1  0  0  0  0
 23 24  2  0  0  0  0
 24 25  1  0  0  0  0
 25 26  1  0  0  0  0
 26 27  2  0  0  0  0
 26 28  1  0  0  0  0
 29 28  1  0  0  0  0
 29 30  1  0  0  0  0
 31 29  2  0  0  0  0
 32 25  2  0  0  0  0
 32 31  1  0  0  0  0
M  END
>  <CHROM.1>
155.26498361,36.05748915,-59.38442737,86.00416174,-59.04685597,65.32564587
66.25951076,67.03068304,176.32306504,114.84233563,3.69955874,13.96550874
1.54939698,-0.54202531,0.09988820,2.00273712

>  <Name>
lig.pdb

>  <RI>
0

>  <Rbt.Current_Directory>
/home/itssahil/PROJECTS/Mol_Feturizer/New_Systems/rnas/5lwj

>  <Rbt.Executable>
rbdock ($Id: //depot/dev/client3/rdock/2013.1/src/exe/rbdock.cxx#4 $)

>  <Rbt.Library>
libRbt.so (2013.1, Build901 2013/11/27)

>  <Rbt.Parameter_File>
/export/apps/rDock/src/rDock_2013.1_src/data/scripts/dock_solv.prm

>  <Rbt.Receptor>
prm/pocket_docking_6.prm

>  <SCORE>
-63.0028

>  <SCORE.INTER>
-59.1958

>  <SCORE.INTER.CONST>
1

>  <SCORE.INTER.POLAR>
-5.80539

>  <SCORE.INTER.ROT>
8

>  <SCORE.INTER.SOLV>
24.5058

>  <SCORE.INTER.VDW>
-37.2145

>  <SCORE.INTER.norm>
-1.84987

>  <SCORE.INTRA>
-3.807

>  <SCORE.INTRA.DIHEDRAL>
-4.89084

>  <SCORE.INTRA.DIHEDRAL.0>
10.9248

>  <SCORE.INTRA.POLAR>
-0.0438555

>  <SCORE.INTRA.POLAR.0>
0

>  <SCORE.INTRA.REPUL>
0

>  <SCORE.INTRA.REPUL.0>
0

>  <SCORE.INTRA.SOLV>
0.468697

>  <SCORE.INTRA.SOLV.lig_0>
-51.4104

>  <SCORE.INTRA.VDW>
-1.44682

>  <SCORE.INTRA.VDW.0>
0.110327

>  <SCORE.INTRA.norm>
-0.118969

>  <SCORE.RESTR>
0

>  <SCORE.RESTR.CAVITY>
0

>  <SCORE.RESTR.norm>
0

>  <SCORE.SYSTEM>
0

>  <SCORE.SYSTEM.CONST>
0

>  <SCORE.SYSTEM.DIHEDRAL>
0

>  <SCORE.SYSTEM.SOLV>
0

>  <SCORE.SYSTEM.norm>
0

>  <SCORE.heavy>
32

>  <SCORE.norm>
-1.96884

>  <RMSD>
3.871

$$$$
lig.pdb
 OpenBabel11021811523D
libRbt.so/2013.1/901 2013/11/27
 32 34  0  0  0  0  0  0  0  0999 V2000
    0.7690   20.1273   -0.4615 P   0  0  0  0  0  0  0  0  0  0  0  0
   -0.2372   20.5842   -1.4896 O   0  0  0  0  0  0  0  0  0  0  0  0
    1.9610   19.4993   -1.3656 O   0  0  0  0  0  0  0  0  0  0  0  0
    1.4766   21.1714    0.3658 O   0  0  0  0  0  0  0  0  0  0  0  0
    0.0370   19.2990    0.4770 O   0  0  0  0  0  0  0  0  0  0  0  0
    0.5029   17.8967    0.3669 P   0  0  1  0  0  0  0  0  0  0  0  0
   -0.2851   17.0728    1.3135 O   0  0  0  0  0  0  0  0  0  0  0  0
    0.2826   17.3950   -1.0095 O   0  0  0  0  0  0  0  0  0  0  0  0
    1.9476   17.8288    0.7015 O   0  0  0  0  0  0  0  0  0  0  0  0
    2.4520   17.9607    2.0889 P   0  0  1  0  0  0  0  0  0  0  0  0
    3.7730   18.6106    2.2092 O   0  0  0  0  0  0  0  0  0  0  0  0
    1.4484   18.4030    3.0825 O   0  0  0  0  0  0  0  0  0  0  0  0
    2.7821   16.4296    2.4957 O   0  0  0  0  0  0  0  0  0  0  0  0
    3.5869   15.5881    1.6913 C   0  0  0  0  0  0  0  0  0  0  0  0
    2.8075   14.3941    1.1228 C   0  0  1  0  0  0  0  0  0  0  0  0
    2.1021   13.7334    2.1535 O   0  0  0  0  0  0  0  0  0  0  0  0
    1.6609   14.7948    0.1780 C   0  0  1  0  0  0  0  0  0  0  0  0
    2.0535   15.1728   -1.1309 O   0  0  0  0  0  0  0  0  0  0  0  0
    0.7488   13.5684    0.1903 C   0  0  1  0  0  0  0  0  0  0  0  0
    1.0708   12.6521   -0.8411 O   0  0  0  0  0  0  0  0  0  0  0  0
    1.1064   12.9380    1.5350 C   0  0  2  0  0  0  0  0  0  0  0  0
   -0.0330   12.6988    2.4463 N   0  0  0  0  0  0  0  0  0  0  0  0
   -1.3576   13.0355    2.3254 C   0  0  0  0  0  0  0  0  0  0  0  0
   -2.0780   12.7508    3.3793 N   0  0  0  0  0  0  0  0  0  0  0  0
   -1.1754   12.1589    4.2577 C   0  0  0  0  0  0  0  0  0  0  0  0
   -1.3521   11.6710    5.5921 C   0  0  0  0  0  0  0  0  0  0  0  0
   -2.3712   11.7108    6.2785 O   0  0  0  0  0  0  0  0  0  0  0  0
   -0.1832   11.1100    6.1239 N   0  0  0  0  0  0  0  0  0  0  0  0
    1.0085   11.0039    5.4226 C   0  0  0  0  0  0  0  0  0  0  0  0
    2.0231   10.3522    6.0017 N   0  0  0  0  0  0  0  0  0  0  0  0
    1.1827   11.5064    4.1893 N   0  0  0  0  0  0  0  0  0  0  0  0
    0.0624   12.0745    3.6655 C   0  0  0  0  0  0  0  0  0  0  0  0
  1  2  2  0  0  0  0
  1  4  1  0  0  0  0
  1  3  1  0  0  0  0
  5  1  1  0  0  0  0
  6  7  2  1  0  0  0
  6  9  1  0  0  0  0
  6  5  1  0  0  0  0
  6  8  1  0  0  0  0
 10 11  2  1  0  0  0
 10 12  1  0  0  0  0
 10 13  1  0  0  0  0
 10  9  1  0  0  0  0
 13 14  1  0  0  0  0
 15 14  1  1  0  0  0
 15 16  1  0  0  0  0
 17 19  1  0  0  0  0
 17 15  1  0  0  0  0
 17 18  1  6  0  0  0
 19 21  1  0  0  0  0
 19 20  1  6  0  0  0
 21 16  1  0  0  0  0
 21 22  1  1  0  0  0
 22 32  1  0  0  0  0
 23 22  1  0  0  0  0
 23 24  2  0  0  0  0
 24 25  1  0  0  0  0
 25 26  1  0  0  0  0
 26 27  2  0  0  0  0
 26 28  1  0  0  0  0
 29 28  1  0  0  0  0
 29 30  1  0  0  0  0
 31 29  2  0  0  0  0
 32 25  2  0  0  0  0
 32 31  1  0  0  0  0
M  END
>  <CHROM.1>
112.93835650,73.50591173,-178.67838924,51.77364852,-147.14748446,-115.32413861
-50.22788156,-167.21948271,72.25836046,118.97675406,0.94395931,15.64337966
1.77606373,0.92192494,1.33173193,0.09572699

>  <Name>
lig.pdb

>  <RI>
0

>  <Rbt.Current_Directory>
/home/itssahil/PROJECTS/Mol_Feturizer/New_Systems/rnas/5lwj

>  <Rbt.Executable>
rbdock ($Id: //depot/dev/client3/rdock/2013.1/src/exe/rbdock.cxx#4 $)

>  <Rbt.Library>
libRbt.so (2013.1, Build901 2013/11/27)

>  <Rbt.Parameter_File>
/export/apps/rDock/src/rDock_2013.1_src/data/scripts/dock_solv.prm

>  <Rbt.Receptor>
prm/pocket_docking_6.prm

>  <SCORE>
-49.2628

>  <SCORE.INTER>
-46.7125

>  <SCORE.INTER.CONST>
1

>  <SCORE.INTER.POLAR>
-5.42113

>  <SCORE.INTER.ROT>
8

>  <SCORE.INTER.SOLV>
17.6976

>  <SCORE.INTER.VDW>
-27.9037

>  <SCORE.INTER.norm>
-1.45976

>  <SCORE.INTRA>
-2.55039

>  <SCORE.INTRA.DIHEDRAL>
5.34874

>  <SCORE.INTRA.DIHEDRAL.0>
10.9248

>  <SCORE.INTRA.POLAR>
-0.521536

>  <SCORE.INTRA.POLAR.0>
0

>  <SCORE.INTRA.REPUL>
0.00447161

>  <SCORE.INTRA.REPUL.0>
0

>  <SCORE.INTRA.SOLV>
3.30427

>  <SCORE.INTRA.SOLV.lig_0>
-51.4104

>  <SCORE.INTRA.VDW>
-5.12603

>  <SCORE.INTRA.VDW.0>
0.110327

>  <SCORE.INTRA.norm>
-0.0796998

>  <SCORE.RESTR>
0

>  <SCORE.RESTR.CAVITY>
0

>  <SCORE.RESTR.norm>
0

>  <SCORE.SYSTEM>
0

>  <SCORE.SYSTEM.CONST>
0

>  <SCORE.SYSTEM.DIHEDRAL>
0

>  <SCORE.SYSTEM.SOLV>
0

>  <SCORE.SYSTEM.norm>
0

>  <SCORE.heavy>
32

>  <SCORE.norm>
-1.53946

>  <RMSD>
3.907

$$$$
lig.pdb
 OpenBabel11021811523D
libRbt.so/2013.1/901 2013/11/27
 32 34  0  0  0  0  0  0  0  0999 V2000
    0.5970   22.1399    0.8465 P   0  0  0  0  0  0  0  0  0  0  0  0
   -0.0287   22.5385   -0.4679 O   0  0  0  0  0  0  0  0  0  0  0  0
    1.9642   21.3933    0.3929 O   0  0  0  0  0  0  0  0  0  0  0  0
    1.0874   23.2280    1.7688 O   0  0  0  0  0  0  0  0  0  0  0  0
   -0.4292   21.4239    1.5794 O   0  0  0  0  0  0  0  0  0  0  0  0
    0.2065   20.5418    2.5861 P   0  0  1  0  0  0  0  0  0  0  0  0
    0.9831   21.3913    3.5195 O   0  0  0  0  0  0  0  0  0  0  0  0
   -0.8321   19.8107    3.3487 O   0  0  0  0  0  0  0  0  0  0  0  0
    1.1010   19.5752    1.9011 O   0  0  0  0  0  0  0  0  0  0  0  0
    1.9692   18.6291    2.6414 P   0  0  1  0  0  0  0  0  0  0  0  0
    3.4181   18.8844    2.5098 O   0  0  0  0  0  0  0  0  0  0  0  0
    1.5170   18.3034    4.0124 O   0  0  0  0  0  0  0  0  0  0  0  0
    1.7844   17.2517    1.8124 O   0  0  0  0  0  0  0  0  0  0  0  0
    2.8759   16.4141    1.4810 C   0  0  0  0  0  0  0  0  0  0  0  0
    2.4327   15.0051    1.0631 C   0  0  1  0  0  0  0  0  0  0  0  0
    1.8002   14.3496    2.1432 O   0  0  0  0  0  0  0  0  0  0  0  0
    1.3158   14.9946    0.0047 C   0  0  1  0  0  0  0  0  0  0  0  0
    1.7316   15.2670   -1.3231 O   0  0  0  0  0  0  0  0  0  0  0  0
    0.6985   13.6046    0.1573 C   0  0  1  0  0  0  0  0  0  0  0  0
    1.3056   12.6531   -0.6989 O   0  0  0  0  0  0  0  0  0  0  0  0
    1.0636   13.2675    1.6017 C   0  0  2  0  0  0  0  0  0  0  0  0
   -0.0725   12.9009    2.4740 N   0  0  0  0  0  0  0  0  0  0  0  0
   -1.4174   13.1310    2.3307 C   0  0  0  0  0  0  0  0  0  0  0  0
   -2.1356   12.7485    3.3547 N   0  0  0  0  0  0  0  0  0  0  0  0
   -1.2071   12.2010    4.2349 C   0  0  0  0  0  0  0  0  0  0  0  0
   -1.3730   11.6505    5.5461 C   0  0  0  0  0  0  0  0  0  0  0  0
   -2.4074   11.5801    6.2067 O   0  0  0  0  0  0  0  0  0  0  0  0
   -0.1737   11.1687    6.0880 N   0  0  0  0  0  0  0  0  0  0  0  0
    1.0384   11.1880    5.4147 C   0  0  0  0  0  0  0  0  0  0  0  0
    2.0905   10.6014    5.9966 N   0  0  0  0  0  0  0  0  0  0  0  0
    1.1984   11.7489    4.2049 N   0  0  0  0  0  0  0  0  0  0  0  0
    0.0467   12.2416    3.6724 C   0  0  0  0  0  0  0  0  0  0  0  0
  1  2  2  0  0  0  0
  1  4  1  0  0  0  0
  1  3  1  0  0  0  0
  5  1  1  0  0  0  0
  6  7  2  1  0  0  0
  6  9  1  0  0  0  0
  6  5  1  0  0  0  0
  6  8  1  0  0  0  0
 10 11  2  6  0  0  0
 10 12  1  0  0  0  0
 10 13  1  0  0  0  0
 10  9  1  0  0  0  0
 13 14  1  0  0  0  0
 15 14  1  1  0  0  0
 15 16  1  0  0  0  0
 17 19  1  0  0  0  0
 17 15  1  0  0  0  0
 17 18  1  6  0  0  0
 19 21  1  0  0  0  0
 19 20  1  6  0  0  0
 21 16  1  0  0  0  0
 21 22  1  1  0  0  0
 22 32  1  0  0  0  0
 23 22  1  0  0  0  0
 23 24  2  0  0  0  0
 24 25  1  0  0  0  0
 25 26  1  0  0  0  0
 26 27  2  0  0  0  0
 26 28  1  0  0  0  0
 29 28  1  0  0  0  0
 29 30  1  0  0  0  0
 31 29  2  0  0  0  0
 32 25  2  0  0  0  0
 32 31  1  0  0  0  0
M  END
>  <CHROM.1>
157.07748756,174.80581035,60.61678322,136.19548953,-112.58664558,163.59852505
-63.74117129,-65.56805530,-59.70584205,105.16700414,0.75164736,16.60531124
2.41998893,1.35645784,1.16557305,-0.05956858

>  <Name>
lig.pdb

>  <RI>
0

>  <Rbt.Current_Directory>
/home/itssahil/PROJECTS/Mol_Feturizer/New_Systems/rnas/5lwj

>  <Rbt.Executable>
rbdock ($Id: //depot/dev/client3/rdock/2013.1/src/exe/rbdock.cxx#4 $)

>  <Rbt.Library>
libRbt.so (2013.1, Build901 2013/11/27)

>  <Rbt.Parameter_File>
/export/apps/rDock/src/rDock_2013.1_src/data/scripts/dock_solv.prm

>  <Rbt.Receptor>
prm/pocket_docking_6.prm

>  <SCORE>
-49.0268

>  <SCORE.INTER>
-45.8155

>  <SCORE.INTER.CONST>
1

>  <SCORE.INTER.POLAR>
-5.51543

>  <SCORE.INTER.ROT>
8

>  <SCORE.INTER.SOLV>
16.5589

>  <SCORE.INTER.VDW>
-26.6119

>  <SCORE.INTER.norm>
-1.43174

>  <SCORE.INTRA>
-3.21126

>  <SCORE.INTRA.DIHEDRAL>
-2.13867

>  <SCORE.INTRA.DIHEDRAL.0>
10.9248

>  <SCORE.INTRA.POLAR>
0

>  <SCORE.INTRA.POLAR.0>
0

>  <SCORE.INTRA.REPUL>
0

>  <SCORE.INTRA.REPUL.0>
0

>  <SCORE.INTRA.SOLV>
-0.462546

>  <SCORE.INTRA.SOLV.lig_0>
-51.4104

>  <SCORE.INTRA.VDW>
-1.91065

>  <SCORE.INTRA.VDW.0>
0.110327

>  <SCORE.INTRA.norm>
-0.100352

>  <SCORE.RESTR>
0

>  <SCORE.RESTR.CAVITY>
0

>  <SCORE.RESTR.norm>
0

>  <SCORE.SYSTEM>
0

>  <SCORE.SYSTEM.CONST>
0

>  <SCORE.SYSTEM.DIHEDRAL>
0

>  <SCORE.SYSTEM.SOLV>
0

>  <SCORE.SYSTEM.norm>
0

>  <SCORE.heavy>
32

>  <SCORE.norm>
-1.53209

>  <RMSD>
3.911

$$$$
lig.pdb
 OpenBabel11021811523D
libRbt.so/2013.1/901 2013/11/27
 32 34  0  0  0  0  0  0  0  0999 V2000
    2.1625   19.9768    3.7813 P   0  0  0  0  0  0  0  0  0  0  0  0
    3.6687   19.8904    3.8254 O   0  0  0  0  0  0  0  0  0  0  0  0
    1.7260   18.5216    3.2118 O   0  0  0  0  0  0  0  0  0  0  0  0
    1.4095   20.0777    5.0844 O   0  0  0  0  0  0  0  0  0  0  0  0
    1.8507   21.1848    3.0422 O   0  0  0  0  0  0  0  0  0  0  0  0
    2.2023   20.9961    1.6152 P   0  0  1  0  0  0  0  0  0  0  0  0
    1.8151   22.2221    0.8783 O   0  0  0  0  0  0  0  0  0  0  0  0
    3.6626   20.7892    1.4752 O   0  0  0  0  0  0  0  0  0  0  0  0
    1.4741   19.8190    1.0788 O   0  0  0  0  0  0  0  0  0  0  0  0
    1.4630   19.4774   -0.3635 P   0  0  1  0  0  0  0  0  0  0  0  0
    0.3985   20.1355   -1.1482 O   0  0  0  0  0  0  0  0  0  0  0  0
    2.7921   19.4557   -1.0139 O   0  0  0  0  0  0  0  0  0  0  0  0
    0.9845   17.9316   -0.3605 O   0  0  0  0  0  0  0  0  0  0  0  0
   -0.3466   17.5506   -0.0673 C   0  0  0  0  0  0  0  0  0  0  0  0
   -0.5881   16.0481   -0.2687 C   0  0  1  0  0  0  0  0  0  0  0  0
    0.1329   15.3026    0.6908 O   0  0  0  0  0  0  0  0  0  0  0  0
   -2.0326   15.6071    0.0261 C   0  0  1  0  0  0  0  0  0  0  0  0
   -2.9793   15.9039   -0.9867 O   0  0  0  0  0  0  0  0  0  0  0  0
   -1.8970   14.1072    0.2871 C   0  0  1  0  0  0  0  0  0  0  0  0
   -2.0689   13.3415   -0.8925 O   0  0  0  0  0  0  0  0  0  0  0  0
   -0.4380   14.0068    0.7283 C   0  0  2  0  0  0  0  0  0  0  0  0
   -0.2149   13.3589    2.0384 N   0  0  0  0  0  0  0  0  0  0  0  0
    0.8621   12.6534    2.5126 C   0  0  0  0  0  0  0  0  0  0  0  0
    0.6772   12.1313    3.6975 N   0  0  0  0  0  0  0  0  0  0  0  0
   -0.6060   12.5377    4.0510 C   0  0  0  0  0  0  0  0  0  0  0  0
   -1.3906   12.2513    5.2139 C   0  0  0  0  0  0  0  0  0  0  0  0
   -1.0938   11.5263    6.1613 O   0  0  0  0  0  0  0  0  0  0  0  0
   -2.6374   12.8909    5.1982 N   0  0  0  0  0  0  0  0  0  0  0  0
   -3.0548   13.7400    4.1844 C   0  0  0  0  0  0  0  0  0  0  0  0
   -4.2230   14.3740    4.3361 N   0  0  0  0  0  0  0  0  0  0  0  0
   -2.3356   13.9672    3.0731 N   0  0  0  0  0  0  0  0  0  0  0  0
   -1.1298   13.3361    3.0620 C   0  0  0  0  0  0  0  0  0  0  0  0
  1  2  2  0  0  0  0
  1  4  1  0  0  0  0
  1  3  1  0  0  0  0
  5  1  1  0  0  0  0
  6  7  2  6  0  0  0
  6  9  1  0  0  0  0
  6  5  1  0  0  0  0
  6  8  1  0  0  0  0
 10 11  2  6  0  0  0
 10 12  1  0  0  0  0
 10 13  1  0  0  0  0
 10  9  1  0  0  0  0
 13 14  1  0  0  0  0
 15 14  1  1  0  0  0
 15 16  1  0  0  0  0
 17 19  1  0  0  0  0
 17 15  1  0  0  0  0
 17 18  1  6  0  0  0
 19 21  1  0  0  0  0
 19 20  1  6  0  0  0
 21 16  1  0  0  0  0
 21 22  1  1  0  0  0
 22 32  1  0  0  0  0
 23 22  1  0  0  0  0
 23 24  2  0  0  0  0
 24 25  1  0  0  0  0
 25 26  1  0  0  0  0
 26 27  2  0  0  0  0
 26 28  1  0  0  0  0
 29 28  1  0  0  0  0
 29 30  1  0  0  0  0
 31 29  2  0  0  0  0
 32 25  2  0  0  0  0
 32 31  1  0  0  0  0
M  END
>  <CHROM.1>
70.08753422,171.26818524,177.44802428,72.28281519,-87.48537850,174.09098542
67.55618048,65.47499606,-61.98487831,-84.07241041,0.24602583,16.92723757
1.92924150,-0.55350819,1.01448304,1.97118970

>  <Name>
lig.pdb

>  <RI>
0

>  <Rbt.Current_Directory>
/home/itssahil/PROJECTS/Mol_Feturizer/New_Systems/rnas/5lwj

>  <Rbt.Executable>
rbdock ($Id: //depot/dev/client3/rdock/2013.1/src/exe/rbdock.cxx#4 $)

>  <Rbt.Library>
libRbt.so (2013.1, Build901 2013/11/27)

>  <Rbt.Parameter_File>
/export/apps/rDock/src/rDock_2013.1_src/data/scripts/dock_solv.prm

>  <Rbt.Receptor>
prm/pocket_docking_6.prm

>  <SCORE>
-29.3741

>  <SCORE.INTER>
-23.714

>  <SCORE.INTER.CONST>
1

>  <SCORE.INTER.POLAR>
-3.2801

>  <SCORE.INTER.ROT>
8

>  <SCORE.INTER.SOLV>
14.7065

>  <SCORE.INTER.VDW>
-18.7111

>  <SCORE.INTER.norm>
-0.741062

>  <SCORE.INTRA>
-5.66012

>  <SCORE.INTRA.DIHEDRAL>
-6.44958

>  <SCORE.INTRA.DIHEDRAL.0>
10.9248

>  <SCORE.INTRA.POLAR>
0

>  <SCORE.INTRA.POLAR.0>
0

>  <SCORE.INTRA.REPUL>
0.0124197

>  <SCORE.INTRA.REPUL.0>
0

>  <SCORE.INTRA.SOLV>
-0.164664

>  <SCORE.INTRA.SOLV.lig_0>
-51.4104

>  <SCORE.INTRA.VDW>
-2.4151

>  <SCORE.INTRA.VDW.0>
0.110327

>  <SCORE.INTRA.norm>
-0.176879

>  <SCORE.RESTR>
0

>  <SCORE.RESTR.CAVITY>
0

>  <SCORE.RESTR.norm>
0

>  <SCORE.SYSTEM>
0

>  <SCORE.SYSTEM.CONST>
0

>  <SCORE.SYSTEM.DIHEDRAL>
0

>  <SCORE.SYSTEM.SOLV>
0

>  <SCORE.SYSTEM.norm>
0

>  <SCORE.heavy>
32

>  <SCORE.norm>
-0.91794

>  <RMSD>
3.915

$$$$
lig.pdb
 OpenBabel11021811523D
libRbt.so/2013.1/901 2013/11/27
 32 34  0  0  0  0  0  0  0  0999 V2000
    8.2086   17.4979   -2.1201 P   0  0  0  0  0  0  0  0  0  0  0  0
    9.2017   16.3712   -2.2695 O   0  0  0  0  0  0  0  0  0  0  0  0
    8.9519   18.5111   -1.0937 O   0  0  0  0  0  0  0  0  0  0  0  0
    7.9230   18.3684   -3.3184 O   0  0  0  0  0  0  0  0  0  0  0  0
    6.9472   16.8774   -1.7641 O   0  0  0  0  0  0  0  0  0  0  0  0
    6.8723   16.7182   -0.2929 P   0  0  1  0  0  0  0  0  0  0  0  0
    8.0371   15.9131    0.1442 O   0  0  0  0  0  0  0  0  0  0  0  0
    6.9276   18.0444    0.3649 O   0  0  0  0  0  0  0  0  0  0  0  0
    5.6059   16.0317    0.0656 O   0  0  0  0  0  0  0  0  0  0  0  0
    5.1521   15.8765    1.4681 P   0  0  1  0  0  0  0  0  0  0  0  0
    5.9450   14.9266    2.2747 O   0  0  0  0  0  0  0  0  0  0  0  0
    4.8029   17.1383    2.1582 O   0  0  0  0  0  0  0  0  0  0  0  0
    3.7432   15.0977    1.3033 O   0  0  0  0  0  0  0  0  0  0  0  0
    3.0816   14.4882    2.3958 C   0  0  0  0  0  0  0  0  0  0  0  0
    1.7637   13.8158    1.9867 C   0  0  1  0  0  0  0  0  0  0  0  0
    1.3008   12.9736    3.0225 O   0  0  0  0  0  0  0  0  0  0  0  0
    0.5861   14.7956    1.8422 C   0  0  1  0  0  0  0  0  0  0  0  0
    0.5745   15.5632    0.6503 O   0  0  0  0  0  0  0  0  0  0  0  0
   -0.6411   13.8944    1.9768 C   0  0  1  0  0  0  0  0  0  0  0  0
   -1.0905   13.4124    0.7227 O   0  0  0  0  0  0  0  0  0  0  0  0
   -0.0716   12.7239    2.7761 C   0  0  2  0  0  0  0  0  0  0  0  0
   -0.7916   12.3997    4.0261 N   0  0  0  0  0  0  0  0  0  0  0  0
   -0.4605   11.5503    5.0514 C   0  0  0  0  0  0  0  0  0  0  0  0
   -1.3881   11.4320    5.9660 N   0  0  0  0  0  0  0  0  0  0  0  0
   -2.4014   12.2822    5.5336 C   0  0  0  0  0  0  0  0  0  0  0  0
   -3.6932   12.5551    6.0875 C   0  0  0  0  0  0  0  0  0  0  0  0
   -4.2090   12.0444    7.0797 O   0  0  0  0  0  0  0  0  0  0  0  0
   -4.4064   13.5134    5.3547 N   0  0  0  0  0  0  0  0  0  0  0  0
   -3.9035   14.1571    4.2341 C   0  0  0  0  0  0  0  0  0  0  0  0
   -4.6394   15.1298    3.6844 N   0  0  0  0  0  0  0  0  0  0  0  0
   -2.7111   13.8629    3.6905 N   0  0  0  0  0  0  0  0  0  0  0  0
   -2.0135   12.9178    4.3780 C   0  0  0  0  0  0  0  0  0  0  0  0
  1  2  2  0  0  0  0
  1  4  1  0  0  0  0
  1  3  1  0  0  0  0
  5  1  1  0  0  0  0
  6  7  2  1  0  0  0
  6  9  1  0  0  0  0
  6  5  1  0  0  0  0
  6  8  1  0  0  0  0
 10 11  2  1  0  0  0
 10 12  1  0  0  0  0
 10 13  1  0  0  0  0
 10  9  1  0  0  0  0
 13 14  1  0  0  0  0
 15 14  1  1  0  0  0
 15 16  1  0  0  0  0
 17 19  1  0  0  0  0
 17 15  1  0  0  0  0
 17 18  1  6  0  0  0
 19 21  1  0  0  0  0
 19 20  1  6  0  0  0
 21 16  1  0  0  0  0
 21 22  1  1  0  0  0
 22 32  1  0  0  0  0
 23 22  1  0  0  0  0
 23 24  2  0  0  0  0
 24 25  1  0  0  0  0
 25 26  1  0  0  0  0
 26 27  2  0  0  0  0
 26 28  1  0  0  0  0
 29 28  1  0  0  0  0
 29 30  1  0  0  0  0
 31 29  2  0  0  0  0
 32 25  2  0  0  0  0
 32 31  1  0  0  0  0
M  END
>  <CHROM.1>
87.39399252,-172.05240695,-57.38170216,166.39502719,-70.57171741,179.89633210
166.64360072,60.70426689,68.86841683,-46.09735027,2.62953110,15.00560692
1.74433702,0.59918262,0.01099678,-0.92525591

>  <Name>
lig.pdb

>  <RI>
1.82117e+07

>  <Rbt.Current_Directory>
/home/itssahil/PROJECTS/Mol_Feturizer/New_Systems/rnas/5lwj

>  <Rbt.Executable>
rbdock ($Id: //depot/dev/client3/rdock/2013.1/src/exe/rbdock.cxx#4 $)

>  <Rbt.Library>
libRbt.so (2013.1, Build901 2013/11/27)

>  <Rbt.Parameter_File>
/export/apps/rDock/src/rDock_2013.1_src/data/scripts/dock_solv.prm

>  <Rbt.Receptor>
prm/pocket_docking_5.prm

>  <SCORE>
-34.6474

>  <SCORE.INTER>
-30.1831

>  <SCORE.INTER.CONST>
1

>  <SCORE.INTER.POLAR>
-2.08652

>  <SCORE.INTER.ROT>
8

>  <SCORE.INTER.SOLV>
19.0587

>  <SCORE.INTER.VDW>
-28.4532

>  <SCORE.INTER.norm>
-0.943223

>  <SCORE.INTRA>
-4.46425

>  <SCORE.INTRA.DIHEDRAL>
-5.4438

>  <SCORE.INTRA.DIHEDRAL.0>
10.9248

>  <SCORE.INTRA.POLAR>
0

>  <SCORE.INTRA.POLAR.0>
0

>  <SCORE.INTRA.REPUL>
0

>  <SCORE.INTRA.REPUL.0>
0

>  <SCORE.INTRA.SOLV>
-0.549312

>  <SCORE.INTRA.SOLV.lig_0>
-51.4104

>  <SCORE.INTRA.VDW>
-1.46769

>  <SCORE.INTRA.VDW.0>
0.110327

>  <SCORE.INTRA.norm>
-0.139508

>  <SCORE.RESTR>
0

>  <SCORE.RESTR.CAVITY>
0

>  <SCORE.RESTR.norm>
0

>  <SCORE.SYSTEM>
0

>  <SCORE.SYSTEM.CONST>
0

>  <SCORE.SYSTEM.DIHEDRAL>
0

>  <SCORE.SYSTEM.SOLV>
0

>  <SCORE.SYSTEM.norm>
0

>  <SCORE.heavy>
32

>  <SCORE.norm>
-1.08273

>  <RMSD>
4.057

$$$$
lig.pdb
 OpenBabel11021811523D
libRbt.so/2013.1/901 2013/11/27
 32 34  0  0  0  0  0  0  0  0999 V2000
   -0.0243   18.0543    4.8834 P   0  0  0  0  0  0  0  0  0  0  0  0
   -0.8174   18.5788    6.0556 O   0  0  0  0  0  0  0  0  0  0  0  0
    1.4859   17.9659    5.4698 O   0  0  0  0  0  0  0  0  0  0  0  0
   -0.2919   16.6489    4.4053 O   0  0  0  0  0  0  0  0  0  0  0  0
   -0.3348   18.9249    3.7662 O   0  0  0  0  0  0  0  0  0  0  0  0
    0.4738   20.1627    3.8643 P   0  0  1  0  0  0  0  0  0  0  0  0
    0.1023   21.0475    2.7351 O   0  0  0  0  0  0  0  0  0  0  0  0
    0.1837   20.8590    5.1393 O   0  0  0  0  0  0  0  0  0  0  0  0
    1.9159   19.8170    3.7972 O   0  0  0  0  0  0  0  0  0  0  0  0
    2.5917   19.4582    2.5277 P   0  0  1  0  0  0  0  0  0  0  0  0
    2.1921   20.2715    1.3612 O   0  0  0  0  0  0  0  0  0  0  0  0
    4.0453   19.2043    2.6403 O   0  0  0  0  0  0  0  0  0  0  0  0
    1.9507   18.0141    2.1779 O   0  0  0  0  0  0  0  0  0  0  0  0
    2.1834   17.3601    0.9447 C   0  0  0  0  0  0  0  0  0  0  0  0
    2.4377   15.8557    1.1136 C   0  0  1  0  0  0  0  0  0  0  0  0
    1.7085   15.3558    2.2158 O   0  0  0  0  0  0  0  0  0  0  0  0
    1.8775   14.9991   -0.0354 C   0  0  1  0  0  0  0  0  0  0  0  0
    2.6435   15.0034   -1.2285 O   0  0  0  0  0  0  0  0  0  0  0  0
    1.7604   13.6078    0.5866 C   0  0  1  0  0  0  0  0  0  0  0  0
    2.9295   12.8328    0.3872 O   0  0  0  0  0  0  0  0  0  0  0  0
    1.6455   13.9481    2.0713 C   0  0  2  0  0  0  0  0  0  0  0  0
    0.4624   13.3896    2.7601 N   0  0  0  0  0  0  0  0  0  0  0  0
   -0.8684   13.4410    2.4304 C   0  0  0  0  0  0  0  0  0  0  0  0
   -1.6607   12.9165    3.3293 N   0  0  0  0  0  0  0  0  0  0  0  0
   -0.7956   12.4597    4.3191 C   0  0  0  0  0  0  0  0  0  0  0  0
   -1.0629   11.8308    5.5773 C   0  0  0  0  0  0  0  0  0  0  0  0
   -2.1587   11.5893    6.0794 O   0  0  0  0  0  0  0  0  0  0  0  0
    0.1053   11.4918    6.2733 N   0  0  0  0  0  0  0  0  0  0  0  0
    1.3843   11.7076    5.7828 C   0  0  0  0  0  0  0  0  0  0  0  0
    2.4174   11.2429    6.4945 N   0  0  0  0  0  0  0  0  0  0  0  0
    1.6301   12.3413    4.6245 N   0  0  0  0  0  0  0  0  0  0  0  0
    0.5058   12.6970    3.9449 C   0  0  0  0  0  0  0  0  0  0  0  0
  1  2  2  0  0  0  0
  1  4  1  0  0  0  0
  1  3  1  0  0  0  0
  5  1  1  0  0  0  0
  6  7  2  6  0  0  0
  6  9  1  0  0  0  0
  6  5  1  0  0  0  0
  6  8  1  0  0  0  0
 10 11  2  6  0  0  0
 10 12  1  0  0  0  0
 10 13  1  0  0  0  0
 10  9  1  0  0  0  0
 13 14  1  0  0  0  0
 15 14  1  6  0  0  0
 15 16  1  0  0  0  0
 17 19  1  0  0  0  0
 17 15  1  0  0  0  0
 17 18  1  6  0  0  0
 19 21  1  0  0  0  0
 19 20  1  1  0  0  0
 21 16  1  0  0  0  0
 21 22  1  6  0  0  0
 22 32  1  0  0  0  0
 23 22  1  0  0  0  0
 23 24  2  0  0  0  0
 24 25  1  0  0  0  0
 25 26  1  0  0  0  0
 26 27  2  0  0  0  0
 26 28  1  0  0  0  0
 29 28  1  0  0  0  0
 29 30  1  0  0  0  0
 31 29  2  0  0  0  0
 32 25  2  0  0  0  0
 32 31  1  0  0  0  0
M  END
>  <CHROM.1>
80.62747672,76.24024316,-178.21053862,171.71118101,40.56871180,137.99679289
31.97433534,-176.26362522,40.75904365,73.09545408,0.99435172,16.19803229
3.36482145,1.32388169,1.05005657,0.07627609

>  <Name>
lig.pdb

>  <RI>
2.92062e+07

>  <Rbt.Current_Directory>
/home/itssahil/PROJECTS/Mol_Feturizer/New_Systems/rnas/5lwj

>  <Rbt.Executable>
rbdock ($Id: //depot/dev/client3/rdock/2013.1/src/exe/rbdock.cxx#4 $)

>  <Rbt.Library>
libRbt.so (2013.1, Build901 2013/11/27)

>  <Rbt.Parameter_File>
/export/apps/rDock/src/rDock_2013.1_src/data/scripts/dock_solv.prm

>  <Rbt.Receptor>
prm/pocket_docking_7.prm

>  <SCORE>
-60.4502

>  <SCORE.INTER>
-58.4601

>  <SCORE.INTER.CONST>
1

>  <SCORE.INTER.POLAR>
-7.36388

>  <SCORE.INTER.ROT>
8

>  <SCORE.INTER.SOLV>
18.454

>  <SCORE.INTER.VDW>
-29.5118

>  <SCORE.INTER.norm>
-1.82688

>  <SCORE.INTRA>
-1.9901

>  <SCORE.INTRA.DIHEDRAL>
3.09232

>  <SCORE.INTRA.DIHEDRAL.0>
10.9248

>  <SCORE.INTRA.POLAR>
0

>  <SCORE.INTRA.POLAR.0>
0

>  <SCORE.INTRA.REPUL>
0

>  <SCORE.INTRA.REPUL.0>
0

>  <SCORE.INTRA.SOLV>
0.957456

>  <SCORE.INTRA.SOLV.lig_0>
-51.4104

>  <SCORE.INTRA.VDW>
-4.01499

>  <SCORE.INTRA.VDW.0>
0.110327

>  <SCORE.INTRA.norm>
-0.0621905

>  <SCORE.RESTR>
0

>  <SCORE.RESTR.CAVITY>
0

>  <SCORE.RESTR.norm>
0

>  <SCORE.SYSTEM>
0

>  <SCORE.SYSTEM.CONST>
0

>  <SCORE.SYSTEM.DIHEDRAL>
0

>  <SCORE.SYSTEM.SOLV>
0

>  <SCORE.SYSTEM.norm>
0

>  <SCORE.heavy>
32

>  <SCORE.norm>
-1.88907

>  <RMSD>
4.240

$$$$
lig.pdb
 OpenBabel11021811523D
libRbt.so/2013.1/901 2013/11/27
 32 34  0  0  0  0  0  0  0  0999 V2000
   -0.6055   18.5239    5.2804 P   0  0  0  0  0  0  0  0  0  0  0  0
   -1.1616   18.0983    6.6175 O   0  0  0  0  0  0  0  0  0  0  0  0
   -0.3058   17.1119    4.5393 O   0  0  0  0  0  0  0  0  0  0  0  0
   -1.5204   19.2338    4.3140 O   0  0  0  0  0  0  0  0  0  0  0  0
    0.4712   19.4511    5.5696 O   0  0  0  0  0  0  0  0  0  0  0  0
    1.2098   19.7560    4.3218 P   0  0  1  0  0  0  0  0  0  0  0  0
    0.3395   20.5934    3.4631 O   0  0  0  0  0  0  0  0  0  0  0  0
    2.4471   20.5081    4.6350 O   0  0  0  0  0  0  0  0  0  0  0  0
    1.5536   18.4887    3.6293 O   0  0  0  0  0  0  0  0  0  0  0  0
    2.2927   18.4568    2.3450 P   0  0  1  0  0  0  0  0  0  0  0  0
    1.7217   19.3061    1.2798 O   0  0  0  0  0  0  0  0  0  0  0  0
    3.7663   18.5186    2.4669 O   0  0  0  0  0  0  0  0  0  0  0  0
    1.9906   16.9647    1.7963 O   0  0  0  0  0  0  0  0  0  0  0  0
    2.9984   16.1447    1.2355 C   0  0  0  0  0  0  0  0  0  0  0  0
    2.4804   14.7509    0.8540 C   0  0  1  0  0  0  0  0  0  0  0  0
    1.8412   14.1459    1.9593 O   0  0  0  0  0  0  0  0  0  0  0  0
    1.3417   14.7741   -0.1807 C   0  0  1  0  0  0  0  0  0  0  0  0
    1.7411   15.0022   -1.5218 O   0  0  0  0  0  0  0  0  0  0  0  0
    0.6631   13.4180    0.0113 C   0  0  1  0  0  0  0  0  0  0  0  0
    1.2061   12.4233   -0.8388 O   0  0  0  0  0  0  0  0  0  0  0  0
    1.0431   13.0903    1.4541 C   0  0  2  0  0  0  0  0  0  0  0  0
   -0.0900   12.7940    2.3565 N   0  0  0  0  0  0  0  0  0  0  0  0
   -1.4252   13.0860    2.2371 C   0  0  0  0  0  0  0  0  0  0  0  0
   -2.1383   12.7562    3.2829 N   0  0  0  0  0  0  0  0  0  0  0  0
   -1.2180   12.1802    4.1534 C   0  0  0  0  0  0  0  0  0  0  0  0
   -1.3814   11.6613    5.4778 C   0  0  0  0  0  0  0  0  0  0  0  0
   -2.4033   11.6522    6.1610 O   0  0  0  0  0  0  0  0  0  0  0  0
   -0.1949   11.1319    6.0032 N   0  0  0  0  0  0  0  0  0  0  0  0
    1.0018   11.0812    5.3045 C   0  0  0  0  0  0  0  0  0  0  0  0
    2.0371   10.4550    5.8750 N   0  0  0  0  0  0  0  0  0  0  0  0
    1.1620   11.6126    4.0814 N   0  0  0  0  0  0  0  0  0  0  0  0
    0.0238   12.1507    3.5642 C   0  0  0  0  0  0  0  0  0  0  0  0
  1  2  2  0  0  0  0
  1  4  1  0  0  0  0
  1  3  1  0  0  0  0
  5  1  1  0  0  0  0
  6  7  2  6  0  0  0
  6  9  1  0  0  0  0
  6  5  1  0  0  0  0
  6  8  1  0  0  0  0
 10 11  2  6  0  0  0
 10 12  1  0  0  0  0
 10 13  1  0  0  0  0
 10  9  1  0  0  0  0
 13 14  1  0  0  0  0
 15 14  1  1  0  0  0
 15 16  1  0  0  0  0
 17 19  1  0  0  0  0
 17 15  1  0  0  0  0
 17 18  1  6  0  0  0
 19 21  1  0  0  0  0
 19 20  1  6  0  0  0
 21 16  1  0  0  0  0
 21 22  1  1  0  0  0
 22 32  1  0  0  0  0
 23 22  1  0  0  0  0
 23 24  2  0  0  0  0
 24 25  1  0  0  0  0
 25 26  1  0  0  0  0
 26 27  2  0  0  0  0
 26 28  1  0  0  0  0
 29 28  1  0  0  0  0
 29 30  1  0  0  0  0
 31 29  2  0  0  0  0
 32 25  2  0  0  0  0
 32 31  1  0  0  0  0
M  END
>  <CHROM.1>
171.25028112,179.79620725,70.82379708,-136.03832163,-52.11824214,177.10442470
-53.30046859,-62.33734209,59.03514647,105.10994874,0.71872837,15.78667709
3.25763308,1.26598058,1.08196649,0.30412543

>  <Name>
lig.pdb

>  <RI>
2.92062e+07

>  <Rbt.Current_Directory>
/home/itssahil/PROJECTS/Mol_Feturizer/New_Systems/rnas/5lwj

>  <Rbt.Executable>
rbdock ($Id: //depot/dev/client3/rdock/2013.1/src/exe/rbdock.cxx#4 $)

>  <Rbt.Library>
libRbt.so (2013.1, Build901 2013/11/27)

>  <Rbt.Parameter_File>
/export/apps/rDock/src/rDock_2013.1_src/data/scripts/dock_solv.prm

>  <Rbt.Receptor>
prm/pocket_docking_7.prm

>  <SCORE>
-60.5482

>  <SCORE.INTER>
-56.4665

>  <SCORE.INTER.CONST>
1

>  <SCORE.INTER.POLAR>
-6.35686

>  <SCORE.INTER.ROT>
8

>  <SCORE.INTER.SOLV>
21.9111

>  <SCORE.INTER.VDW>
-32.6918

>  <SCORE.INTER.norm>
-1.76458

>  <SCORE.INTRA>
-4.08169

>  <SCORE.INTRA.DIHEDRAL>
-5.13031

>  <SCORE.INTRA.DIHEDRAL.0>
10.9248

>  <SCORE.INTRA.POLAR>
0

>  <SCORE.INTRA.POLAR.0>
0

>  <SCORE.INTRA.REPUL>
0.00116895

>  <SCORE.INTRA.REPUL.0>
0

>  <SCORE.INTRA.SOLV>
-0.580774

>  <SCORE.INTRA.SOLV.lig_0>
-51.4104

>  <SCORE.INTRA.VDW>
-1.232

>  <SCORE.INTRA.VDW.0>
0.110327

>  <SCORE.INTRA.norm>
-0.127553

>  <SCORE.RESTR>
0

>  <SCORE.RESTR.CAVITY>
0

>  <SCORE.RESTR.norm>
0

>  <SCORE.SYSTEM>
0

>  <SCORE.SYSTEM.CONST>
0

>  <SCORE.SYSTEM.DIHEDRAL>
0

>  <SCORE.SYSTEM.SOLV>
0

>  <SCORE.SYSTEM.norm>
0

>  <SCORE.heavy>
32

>  <SCORE.norm>
-1.89213

>  <RMSD>
4.304

$$$$
lig.pdb
 OpenBabel11021811523D
libRbt.so/2013.1/901 2013/11/27
 32 34  0  0  0  0  0  0  0  0999 V2000
    0.0993   20.2016    4.5391 P   0  0  0  0  0  0  0  0  0  0  0  0
    0.2733   21.2070    3.4268 O   0  0  0  0  0  0  0  0  0  0  0  0
    1.6190   19.9467    5.0470 O   0  0  0  0  0  0  0  0  0  0  0  0
   -0.6163   20.6346    5.7943 O   0  0  0  0  0  0  0  0  0  0  0  0
   -0.6865   19.1178    3.9819 O   0  0  0  0  0  0  0  0  0  0  0  0
   -0.2957   17.8418    4.6259 P   0  0  1  0  0  0  0  0  0  0  0  0
   -0.3241   18.0382    6.0944 O   0  0  0  0  0  0  0  0  0  0  0  0
   -1.2567   16.7745    4.2626 O   0  0  0  0  0  0  0  0  0  0  0  0
    1.0688   17.4621    4.1816 O   0  0  0  0  0  0  0  0  0  0  0  0
    1.4532   17.3988    2.7514 P   0  0  1  0  0  0  0  0  0  0  0  0
    0.4803   16.7115    1.8779 O   0  0  0  0  0  0  0  0  0  0  0  0
    2.0121   18.6513    2.1955 O   0  0  0  0  0  0  0  0  0  0  0  0
    2.6983   16.3653    2.7619 O   0  0  0  0  0  0  0  0  0  0  0  0
    3.2863   15.8746    1.5719 C   0  0  0  0  0  0  0  0  0  0  0  0
    2.6049   14.5979    1.0600 C   0  0  1  0  0  0  0  0  0  0  0  0
    1.9407   13.9385    2.1185 O   0  0  0  0  0  0  0  0  0  0  0  0
    1.4412   14.8626    0.0887 C   0  0  1  0  0  0  0  0  0  0  0  0
    1.8175   15.2028   -1.2352 O   0  0  0  0  0  0  0  0  0  0  0  0
    0.6239   13.5728    0.1577 C   0  0  1  0  0  0  0  0  0  0  0  0
    1.0245   12.6327   -0.8235 O   0  0  0  0  0  0  0  0  0  0  0  0
    1.0141   13.0399    1.5351 C   0  0  2  0  0  0  0  0  0  0  0  0
   -0.1134   12.7613    2.4500 N   0  0  0  0  0  0  0  0  0  0  0  0
   -1.4466   13.0666    2.3413 C   0  0  0  0  0  0  0  0  0  0  0  0
   -2.1532   12.7511    3.3958 N   0  0  0  0  0  0  0  0  0  0  0  0
   -1.2308   12.1711    4.2614 C   0  0  0  0  0  0  0  0  0  0  0  0
   -1.3871   11.6625    5.5906 C   0  0  0  0  0  0  0  0  0  0  0  0
   -2.4026   11.6686    6.2835 O   0  0  0  0  0  0  0  0  0  0  0  0
   -0.2013   11.1241    6.1084 N   0  0  0  0  0  0  0  0  0  0  0  0
    0.9882   11.0563    5.3988 C   0  0  0  0  0  0  0  0  0  0  0  0
    2.0222   10.4228    5.9637 N   0  0  0  0  0  0  0  0  0  0  0  0
    1.1423   11.5780    4.1709 N   0  0  0  0  0  0  0  0  0  0  0  0
    0.0050   12.1247    3.6608 C   0  0  0  0  0  0  0  0  0  0  0  0
  1  2  2  0  0  0  0
  1  4  1  0  0  0  0
  1  3  1  0  0  0  0
  5  1  1  0  0  0  0
  6  7  2  1  0  0  0
  6  9  1  0  0  0  0
  6  5  1  0  0  0  0
  6  8  1  0  0  0  0
 10 11  2  6  0  0  0
 10 12  1  0  0  0  0
 10 13  1  0  0  0  0
 10  9  1  0  0  0  0
 13 14  1  0  0  0  0
 15 14  1  1  0  0  0
 15 16  1  0  0  0  0
 17 19  1  0  0  0  0
 17 15  1  0  0  0  0
 17 18  1  6  0  0  0
 19 21  1  0  0  0  0
 19 20  1  6  0  0  0
 21 16  1  0  0  0  0
 21 22  1  1  0  0  0
 22 32  1  0  0  0  0
 23 22  1  0  0  0  0
 23 24  2  0  0  0  0
 24 25  1  0  0  0  0
 25 26  1  0  0  0  0
 26 27  2  0  0  0  0
 26 28  1  0  0  0  0
 29 28  1  0  0  0  0
 29 30  1  0  0  0  0
 31 29  2  0  0  0  0
 32 25  2  0  0  0  0
 32 31  1  0  0  0  0
M  END
>  <CHROM.1>
148.34029428,-51.65502728,50.19543543,172.08168651,-45.60715501,-88.64887601
-23.01998937,-177.44504971,178.23181078,114.25825042,0.49876838,15.59922082
3.36641289,1.49830715,1.12684279,0.14413203

>  <Name>
lig.pdb

>  <RI>
2.92062e+07

>  <Rbt.Current_Directory>
/home/itssahil/PROJECTS/Mol_Feturizer/New_Systems/rnas/5lwj

>  <Rbt.Executable>
rbdock ($Id: //depot/dev/client3/rdock/2013.1/src/exe/rbdock.cxx#4 $)

>  <Rbt.Library>
libRbt.so (2013.1, Build901 2013/11/27)

>  <Rbt.Parameter_File>
/export/apps/rDock/src/rDock_2013.1_src/data/scripts/dock_solv.prm

>  <Rbt.Receptor>
prm/pocket_docking_7.prm

>  <SCORE>
-62.3478

>  <SCORE.INTER>
-60.0863

>  <SCORE.INTER.CONST>
1

>  <SCORE.INTER.POLAR>
-6.964

>  <SCORE.INTER.ROT>
8

>  <SCORE.INTER.SOLV>
21.0661

>  <SCORE.INTER.VDW>
-32.7996

>  <SCORE.INTER.norm>
-1.8777

>  <SCORE.INTRA>
-2.26144

>  <SCORE.INTRA.DIHEDRAL>
1.01145

>  <SCORE.INTRA.DIHEDRAL.0>
10.9248

>  <SCORE.INTRA.POLAR>
0

>  <SCORE.INTRA.POLAR.0>
0

>  <SCORE.INTRA.REPUL>
0

>  <SCORE.INTRA.REPUL.0>
0

>  <SCORE.INTRA.SOLV>
2.69818

>  <SCORE.INTRA.SOLV.lig_0>
-51.4104

>  <SCORE.INTRA.VDW>
-4.11625

>  <SCORE.INTRA.VDW.0>
0.110327

>  <SCORE.INTRA.norm>
-0.0706699

>  <SCORE.RESTR>
0

>  <SCORE.RESTR.CAVITY>
0

>  <SCORE.RESTR.norm>
0

>  <SCORE.SYSTEM>
0

>  <SCORE.SYSTEM.CONST>
0

>  <SCORE.SYSTEM.DIHEDRAL>
0

>  <SCORE.SYSTEM.SOLV>
0

>  <SCORE.SYSTEM.norm>
0

>  <SCORE.heavy>
32

>  <SCORE.norm>
-1.94837

>  <RMSD>
4.452

$$$$
lig.pdb
 OpenBabel11021811523D
libRbt.so/2013.1/901 2013/11/27
 32 34  0  0  0  0  0  0  0  0999 V2000
   -2.1385   20.8343    0.9595 P   0  0  0  0  0  0  0  0  0  0  0  0
   -3.5019   21.2763    0.4866 O   0  0  0  0  0  0  0  0  0  0  0  0
   -1.1366   21.8752    0.2210 O   0  0  0  0  0  0  0  0  0  0  0  0
   -1.7947   21.0004    2.4187 O   0  0  0  0  0  0  0  0  0  0  0  0
   -2.0601   19.4121    0.6874 O   0  0  0  0  0  0  0  0  0  0  0  0
   -0.6515   19.0362    0.4227 P   0  0  1  0  0  0  0  0  0  0  0  0
   -0.5903   17.5653    0.2532 O   0  0  0  0  0  0  0  0  0  0  0  0
   -0.1777   19.6860   -0.8215 O   0  0  0  0  0  0  0  0  0  0  0  0
    0.1958   19.4604    1.5654 O   0  0  0  0  0  0  0  0  0  0  0  0
    1.6661   19.2738    1.5805 P   0  0  1  0  0  0  0  0  0  0  0  0
    2.3631   19.7430    0.3657 O   0  0  0  0  0  0  0  0  0  0  0  0
    2.3309   19.6272    2.8547 O   0  0  0  0  0  0  0  0  0  0  0  0
    1.8231   17.6670    1.4699 O   0  0  0  0  0  0  0  0  0  0  0  0
    3.0846   17.0258    1.4833 C   0  0  0  0  0  0  0  0  0  0  0  0
    2.9717   15.4992    1.3688 C   0  0  1  0  0  0  0  0  0  0  0  0
    2.2037   14.9829    2.4364 O   0  0  0  0  0  0  0  0  0  0  0  0
    2.1570   15.0270    0.1518 C   0  0  1  0  0  0  0  0  0  0  0  0
    2.8344   15.0789   -1.0926 O   0  0  0  0  0  0  0  0  0  0  0  0
    1.7371   13.6088    0.5373 C   0  0  1  0  0  0  0  0  0  0  0  0
    2.6682   12.6367    0.0955 O   0  0  0  0  0  0  0  0  0  0  0  0
    1.7902   13.6808    2.0622 C   0  0  2  0  0  0  0  0  0  0  0  0
    0.5459   13.2910    2.7592 N   0  0  0  0  0  0  0  0  0  0  0  0
   -0.7619   13.6113    2.4954 C   0  0  0  0  0  0  0  0  0  0  0  0
   -1.6097   13.1660    3.3863 N   0  0  0  0  0  0  0  0  0  0  0  0
   -0.8142   12.4780    4.2977 C   0  0  0  0  0  0  0  0  0  0  0  0
   -1.1546   11.8047    5.5146 C   0  0  0  0  0  0  0  0  0  0  0  0
   -2.2603   11.7253    6.0460 O   0  0  0  0  0  0  0  0  0  0  0  0
   -0.0487   11.2016    6.1285 N   0  0  0  0  0  0  0  0  0  0  0  0
    1.2326   11.2214    5.5984 C   0  0  0  0  0  0  0  0  0  0  0  0
    2.1831   10.5184    6.2243 N   0  0  0  0  0  0  0  0  0  0  0  0
    1.5558   11.8949    4.4822 N   0  0  0  0  0  0  0  0  0  0  0  0
    0.4965   12.5051    3.8840 C   0  0  0  0  0  0  0  0  0  0  0  0
  1  2  2  0  0  0  0
  1  4  1  0  0  0  0
  1  3  1  0  0  0  0
  5  1  1  0  0  0  0
  6  7  2  6  0  0  0
  6  9  1  0  0  0  0
  6  5  1  0  0  0  0
  6  8  1  0  0  0  0
 10 11  2  6  0  0  0
 10 12  1  0  0  0  0
 10 13  1  0  0  0  0
 10  9  1  0  0  0  0
 13 14  1  0  0  0  0
 15 14  1  1  0  0  0
 15 16  1  0  0  0  0
 17 19  1  0  0  0  0
 17 15  1  0  0  0  0
 17 18  1  6  0  0  0
 19 21  1  0  0  0  0
 19 20  1  6  0  0  0
 21 16  1  0  0  0  0
 21 22  1  1  0  0  0
 22 32  1  0  0  0  0
 23 22  1  0  0  0  0
 23 24  2  0  0  0  0
 24 25  1  0  0  0  0
 25 26  1  0  0  0  0
 26 27  2  0  0  0  0
 26 28  1  0  0  0  0
 29 28  1  0  0  0  0
 29 30  1  0  0  0  0
 31 29  2  0  0  0  0
 32 25  2  0  0  0  0
 32 31  1  0  0  0  0
M  END
>  <CHROM.1>
150.02888187,-177.55647960,175.66624858,-178.35456483,49.30663650,179.87181364
-59.05196211,-60.58947016,-136.85452030,80.09347770,0.38850213,16.38427666
2.00831102,1.73880714,0.52006285,-0.49472957

>  <Name>
lig.pdb

>  <RI>
2.0892e+07

>  <Rbt.Current_Directory>
/home/itssahil/PROJECTS/Mol_Feturizer/New_Systems/rnas/5lwj

>  <Rbt.Executable>
rbdock ($Id: //depot/dev/client3/rdock/2013.1/src/exe/rbdock.cxx#4 $)

>  <Rbt.Library>
libRbt.so (2013.1, Build901 2013/11/27)

>  <Rbt.Parameter_File>
/export/apps/rDock/src/rDock_2013.1_src/data/scripts/dock_solv.prm

>  <Rbt.Receptor>
prm/pocket_docking_8.prm

>  <SCORE>
-48.7007

>  <SCORE.INTER>
-43.9486

>  <SCORE.INTER.CONST>
1

>  <SCORE.INTER.POLAR>
-5.8171

>  <SCORE.INTER.ROT>
8

>  <SCORE.INTER.SOLV>
14.2655

>  <SCORE.INTER.VDW>
-23.5972

>  <SCORE.INTER.norm>
-1.37339

>  <SCORE.INTRA>
-4.75206

>  <SCORE.INTRA.DIHEDRAL>
-1.46098

>  <SCORE.INTRA.DIHEDRAL.0>
10.9248

>  <SCORE.INTRA.POLAR>
0

>  <SCORE.INTRA.POLAR.0>
0

>  <SCORE.INTRA.REPUL>
0

>  <SCORE.INTRA.REPUL.0>
0

>  <SCORE.INTRA.SOLV>
-0.414642

>  <SCORE.INTRA.SOLV.lig_0>
-51.4104

>  <SCORE.INTRA.VDW>
-3.81425

>  <SCORE.INTRA.VDW.0>
0.110327

>  <SCORE.INTRA.norm>
-0.148502

>  <SCORE.RESTR>
0

>  <SCORE.RESTR.CAVITY>
0

>  <SCORE.RESTR.norm>
0

>  <SCORE.SYSTEM>
0

>  <SCORE.SYSTEM.CONST>
0

>  <SCORE.SYSTEM.DIHEDRAL>
0

>  <SCORE.SYSTEM.SOLV>
0

>  <SCORE.SYSTEM.norm>
0

>  <SCORE.heavy>
32

>  <SCORE.norm>
-1.5219

>  <RMSD>
4.597

$$$$
lig.pdb
 OpenBabel11021811523D
libRbt.so/2013.1/901 2013/11/27
 32 34  0  0  0  0  0  0  0  0999 V2000
   -0.5380   18.9044   -1.0062 P   0  0  0  0  0  0  0  0  0  0  0  0
    0.1824   20.1204   -1.5358 O   0  0  0  0  0  0  0  0  0  0  0  0
   -1.8974   19.5264   -0.3758 O   0  0  0  0  0  0  0  0  0  0  0  0
   -1.0499   17.8852   -1.9933 O   0  0  0  0  0  0  0  0  0  0  0  0
    0.4157   18.2064   -0.1659 O   0  0  0  0  0  0  0  0  0  0  0  0
   -0.3112   17.3709    0.8184 P   0  0  1  0  0  0  0  0  0  0  0  0
   -1.0875   18.2706    1.7038 O   0  0  0  0  0  0  0  0  0  0  0  0
   -1.2450   16.4583    0.1185 O   0  0  0  0  0  0  0  0  0  0  0  0
    0.6639   16.5810    1.6113 O   0  0  0  0  0  0  0  0  0  0  0  0
    1.6346   17.2105    2.5378 P   0  0  1  0  0  0  0  0  0  0  0  0
    2.2322   18.4694    2.0482 O   0  0  0  0  0  0  0  0  0  0  0  0
    1.2246   17.2283    3.9597 O   0  0  0  0  0  0  0  0  0  0  0  0
    2.8895   16.1900    2.4875 O   0  0  0  0  0  0  0  0  0  0  0  0
    3.3939   15.6681    1.2726 C   0  0  0  0  0  0  0  0  0  0  0  0
    2.6444   14.4089    0.8152 C   0  0  1  0  0  0  0  0  0  0  0  0
    1.9812   13.8086    1.9089 O   0  0  0  0  0  0  0  0  0  0  0  0
    1.4675   14.6976   -0.1330 C   0  0  1  0  0  0  0  0  0  0  0  0
    1.8223   14.9845   -1.4753 O   0  0  0  0  0  0  0  0  0  0  0  0
    0.5974   13.4473   -0.0061 C   0  0  1  0  0  0  0  0  0  0  0  0
    0.9305   12.4640   -0.9700 O   0  0  0  0  0  0  0  0  0  0  0  0
    1.0013   12.9358    1.3755 C   0  0  2  0  0  0  0  0  0  0  0  0
   -0.1121   12.7323    2.3267 N   0  0  0  0  0  0  0  0  0  0  0  0
   -1.4365   13.0789    2.2369 C   0  0  0  0  0  0  0  0  0  0  0  0
   -2.1273   12.8294    3.3192 N   0  0  0  0  0  0  0  0  0  0  0  0
   -1.2038   12.2521    4.1856 C   0  0  0  0  0  0  0  0  0  0  0  0
   -1.3444   11.8015    5.5374 C   0  0  0  0  0  0  0  0  0  0  0  0
   -2.3418   11.8697    6.2528 O   0  0  0  0  0  0  0  0  0  0  0  0
   -0.1650   11.2431    6.0485 N   0  0  0  0  0  0  0  0  0  0  0  0
    1.0037   11.1066    5.3147 C   0  0  0  0  0  0  0  0  0  0  0  0
    2.0295   10.4604    5.8803 N   0  0  0  0  0  0  0  0  0  0  0  0
    1.1451   11.5744    4.0637 N   0  0  0  0  0  0  0  0  0  0  0  0
    0.0145   12.1397    3.5588 C   0  0  0  0  0  0  0  0  0  0  0  0
  1  2  2  0  0  0  0
  1  4  1  0  0  0  0
  1  3  1  0  0  0  0
  5  1  1  0  0  0  0
  6  7  2  1  0  0  0
  6  9  1  0  0  0  0
  6  5  1  0  0  0  0
  6  8  1  0  0  0  0
 10 11  2  6  0  0  0
 10 12  1  0  0  0  0
 10 13  1  0  0  0  0
 10  9  1  0  0  0  0
 13 14  1  0  0  0  0
 15 14  1  1  0  0  0
 15 16  1  0  0  0  0
 17 19  1  0  0  0  0
 17 15  1  0  0  0  0
 17 18  1  6  0  0  0
 19 21  1  0  0  0  0
 19 20  1  6  0  0  0
 21 16  1  0  0  0  0
 21 22  1  1  0  0  0
 22 32  1  0  0  0  0
 23 22  1  0  0  0  0
 23 24  2  0  0  0  0
 24 25  1  0  0  0  0
 25 26  1  0  0  0  0
 26 27  2  0  0  0  0
 26 28  1  0  0  0  0
 29 28  1  0  0  0  0
 29 30  1  0  0  0  0
 31 29  2  0  0  0  0
 32 25  2  0  0  0  0
 32 31  1  0  0  0  0
M  END
>  <CHROM.1>
156.25289188,65.90796389,-63.86912666,45.42887922,-39.46098020,-85.74043722
-20.96967390,-171.40877121,70.59707481,115.11936196,0.39106761,15.28157400
1.74655716,1.58177267,0.78461393,-0.64752067

>  <Name>
lig.pdb

>  <RI>
0

>  <Rbt.Current_Directory>
/home/itssahil/PROJECTS/Mol_Feturizer/New_Systems/rnas/5lwj

>  <Rbt.Executable>
rbdock ($Id: //depot/dev/client3/rdock/2013.1/src/exe/rbdock.cxx#4 $)

>  <Rbt.Library>
libRbt.so (2013.1, Build901 2013/11/27)

>  <Rbt.Parameter_File>
/export/apps/rDock/src/rDock_2013.1_src/data/scripts/dock_solv.prm

>  <Rbt.Receptor>
prm/pocket_docking_6.prm

>  <SCORE>
-51.0264

>  <SCORE.INTER>
-48.8539

>  <SCORE.INTER.CONST>
1

>  <SCORE.INTER.POLAR>
-5.87429

>  <SCORE.INTER.ROT>
8

>  <SCORE.INTER.SOLV>
17.266

>  <SCORE.INTER.VDW>
-27.677

>  <SCORE.INTER.norm>
-1.52669

>  <SCORE.INTRA>
-2.17248

>  <SCORE.INTRA.DIHEDRAL>
1.43863

>  <SCORE.INTRA.DIHEDRAL.0>
10.9248

>  <SCORE.INTRA.POLAR>
0

>  <SCORE.INTRA.POLAR.0>
0

>  <SCORE.INTRA.REPUL>
0

>  <SCORE.INTRA.REPUL.0>
0

>  <SCORE.INTRA.SOLV>
2.51279

>  <SCORE.INTRA.SOLV.lig_0>
-51.4104

>  <SCORE.INTRA.VDW>
-4.14819

>  <SCORE.INTRA.VDW.0>
0.110327

>  <SCORE.INTRA.norm>
-0.06789

>  <SCORE.RESTR>
0

>  <SCORE.RESTR.CAVITY>
0

>  <SCORE.RESTR.norm>
0

>  <SCORE.SYSTEM>
0

>  <SCORE.SYSTEM.CONST>
0

>  <SCORE.SYSTEM.DIHEDRAL>
0

>  <SCORE.SYSTEM.SOLV>
0

>  <SCORE.SYSTEM.norm>
0

>  <SCORE.heavy>
32

>  <SCORE.norm>
-1.59458

>  <RMSD>
4.641

$$$$
lig.pdb
 OpenBabel11021811523D
libRbt.so/2013.1/901 2013/11/27
 32 34  0  0  0  0  0  0  0  0999 V2000
   -1.8726   16.6417    3.9745 P   0  0  0  0  0  0  0  0  0  0  0  0
   -2.2644   15.6360    5.0296 O   0  0  0  0  0  0  0  0  0  0  0  0
   -2.4508   15.9864    2.6075 O   0  0  0  0  0  0  0  0  0  0  0  0
   -2.5189   18.0042    4.0046 O   0  0  0  0  0  0  0  0  0  0  0  0
   -0.4502   16.8676    4.1430 O   0  0  0  0  0  0  0  0  0  0  0  0
    0.1522   17.2228    2.8367 P   0  0  1  0  0  0  0  0  0  0  0  0
    0.2382   15.9908    2.0178 O   0  0  0  0  0  0  0  0  0  0  0  0
   -0.7012   18.2102    2.1357 O   0  0  0  0  0  0  0  0  0  0  0  0
    1.5051   17.7933    3.0557 O   0  0  0  0  0  0  0  0  0  0  0  0
    2.5933   17.6713    2.0568 P   0  0  1  0  0  0  0  0  0  0  0  0
    2.1446   17.3441    0.6880 O   0  0  0  0  0  0  0  0  0  0  0  0
    3.6381   18.7164    2.1357 O   0  0  0  0  0  0  0  0  0  0  0  0
    3.3422   16.3101    2.5094 O   0  0  0  0  0  0  0  0  0  0  0  0
    4.1852   15.5823    1.6362 C   0  0  0  0  0  0  0  0  0  0  0  0
    3.4950   14.3453    1.0448 C   0  0  1  0  0  0  0  0  0  0  0  0
    2.4392   13.9245    1.8842 O   0  0  0  0  0  0  0  0  0  0  0  0
    2.7459   14.6223   -0.2705 C   0  0  1  0  0  0  0  0  0  0  0  0
    3.5613   14.7302   -1.4253 O   0  0  0  0  0  0  0  0  0  0  0  0
    1.7477   13.4681   -0.3576 C   0  0  1  0  0  0  0  0  0  0  0  0
    2.2712   12.3610   -1.0700 O   0  0  0  0  0  0  0  0  0  0  0  0
    1.6030   13.0806    1.1129 C   0  0  2  0  0  0  0  0  0  0  0  0
    0.2193   13.0736    1.6336 N   0  0  0  0  0  0  0  0  0  0  0  0
   -0.9499   13.5115    1.0648 C   0  0  0  0  0  0  0  0  0  0  0  0
   -1.9877   13.4404    1.8578 N   0  0  0  0  0  0  0  0  0  0  0  0
   -1.4804   12.8928    3.0323 C   0  0  0  0  0  0  0  0  0  0  0  0
   -2.1169   12.6092    4.2831 C   0  0  0  0  0  0  0  0  0  0  0  0
   -3.2823   12.8358    4.6021 O   0  0  0  0  0  0  0  0  0  0  0  0
   -1.2488   12.0202    5.2123 N   0  0  0  0  0  0  0  0  0  0  0  0
    0.0753   11.7104    4.9407 C   0  0  0  0  0  0  0  0  0  0  0  0
    0.7716   11.0527    5.8746 N   0  0  0  0  0  0  0  0  0  0  0  0
    0.6806   12.0223    3.7830 N   0  0  0  0  0  0  0  0  0  0  0  0
   -0.1431   12.6148    2.8760 C   0  0  0  0  0  0  0  0  0  0  0  0
  1  2  2  0  0  0  0
  1  4  1  0  0  0  0
  1  3  1  0  0  0  0
  5  1  1  0  0  0  0
  6  7  2  6  0  0  0
  6  9  1  0  0  0  0
  6  5  1  0  0  0  0
  6  8  1  0  0  0  0
 10 11  2  6  0  0  0
 10 12  1  0  0  0  0
 10 13  1  0  0  0  0
 10  9  1  0  0  0  0
 13 14  1  0  0  0  0
 15 14  1  1  0  0  0
 15 16  1  0  0  0  0
 17 19  1  0  0  0  0
 17 15  1  0  0  0  0
 17 18  1  6  0  0  0
 19 21  1  0  0  0  0
 19 20  1  6  0  0  0
 21 16  1  0  0  0  0
 21 22  1  1  0  0  0
 22 32  1  0  0  0  0
 23 22  1  0  0  0  0
 23 24  2  0  0  0  0
 24 25  1  0  0  0  0
 25 26  1  0  0  0  0
 26 27  2  0  0  0  0
 26 28  1  0  0  0  0
 29 28  1  0  0  0  0
 29 30  1  0  0  0  0
 31 29  2  0  0  0  0
 32 25  2  0  0  0  0
 32 31  1  0  0  0  0
M  END
>  <CHROM.1>
150.59198468,150.80774329,-74.40644846,160.70425261,18.75055314,-101.55574523
-23.84258174,61.76741404,166.94596225,115.28835324,0.49703887,15.08140544
2.51105527,2.76253602,-0.65039196,-3.09451079

>  <Name>
lig.pdb

>  <RI>
2.92062e+07

>  <Rbt.Current_Directory>
/home/itssahil/PROJECTS/Mol_Feturizer/New_Systems/rnas/5lwj

>  <Rbt.Executable>
rbdock ($Id: //depot/dev/client3/rdock/2013.1/src/exe/rbdock.cxx#4 $)

>  <Rbt.Library>
libRbt.so (2013.1, Build901 2013/11/27)

>  <Rbt.Parameter_File>
/export/apps/rDock/src/rDock_2013.1_src/data/scripts/dock_solv.prm

>  <Rbt.Receptor>
prm/pocket_docking_7.prm

>  <SCORE>
-37.8395

>  <SCORE.INTER>
-37.1823

>  <SCORE.INTER.CONST>
1

>  <SCORE.INTER.POLAR>
-3.99687

>  <SCORE.INTER.ROT>
8

>  <SCORE.INTER.SOLV>
17.2385

>  <SCORE.INTER.VDW>
-26.1448

>  <SCORE.INTER.norm>
-1.16195

>  <SCORE.INTRA>
-0.657253

>  <SCORE.INTRA.DIHEDRAL>
5.92264

>  <SCORE.INTRA.DIHEDRAL.0>
10.9248

>  <SCORE.INTRA.POLAR>
-0.00606014

>  <SCORE.INTRA.POLAR.0>
0

>  <SCORE.INTRA.REPUL>
0

>  <SCORE.INTRA.REPUL.0>
0

>  <SCORE.INTRA.SOLV>
4.1945

>  <SCORE.INTRA.SOLV.lig_0>
-51.4104

>  <SCORE.INTRA.VDW>
-5.69522

>  <SCORE.INTRA.VDW.0>
0.110327

>  <SCORE.INTRA.norm>
-0.0205392

>  <SCORE.RESTR>
0

>  <SCORE.RESTR.CAVITY>
0

>  <SCORE.RESTR.norm>
0

>  <SCORE.SYSTEM>
0

>  <SCORE.SYSTEM.CONST>
0

>  <SCORE.SYSTEM.DIHEDRAL>
0

>  <SCORE.SYSTEM.SOLV>
0

>  <SCORE.SYSTEM.norm>
0

>  <SCORE.heavy>
32

>  <SCORE.norm>
-1.18249

>  <RMSD>
4.998

$$$$
lig.pdb
 OpenBabel11021811523D
libRbt.so/2013.1/901 2013/11/27
 32 34  0  0  0  0  0  0  0  0999 V2000
   -1.5336   16.4332    3.8355 P   0  0  0  0  0  0  0  0  0  0  0  0
   -1.3175   16.3376    2.3448 O   0  0  0  0  0  0  0  0  0  0  0  0
   -2.6198   17.6304    3.9747 O   0  0  0  0  0  0  0  0  0  0  0  0
   -2.2000   15.2786    4.5411 O   0  0  0  0  0  0  0  0  0  0  0  0
   -0.2149   16.5579    4.4257 O   0  0  0  0  0  0  0  0  0  0  0  0
    0.1656   17.9886    4.4881 P   0  0  1  0  0  0  0  0  0  0  0  0
   -0.8794   18.7114    5.2508 O   0  0  0  0  0  0  0  0  0  0  0  0
    1.4637   18.1388    5.1859 O   0  0  0  0  0  0  0  0  0  0  0  0
    0.2693   18.5325    3.1108 O   0  0  0  0  0  0  0  0  0  0  0  0
    1.4184   18.2388    2.2218 P   0  0  1  0  0  0  0  0  0  0  0  0
    2.1265   19.4298    1.7099 O   0  0  0  0  0  0  0  0  0  0  0  0
    2.2987   17.1393    2.6760 O   0  0  0  0  0  0  0  0  0  0  0  0
    0.7014   17.6641    0.8898 O   0  0  0  0  0  0  0  0  0  0  0  0
    1.4072   16.9348   -0.0965 C   0  0  0  0  0  0  0  0  0  0  0  0
    1.8553   15.5530    0.3996 C   0  0  1  0  0  0  0  0  0  0  0  0
    1.1543   15.2030    1.5753 O   0  0  0  0  0  0  0  0  0  0  0  0
    1.4656   14.3997   -0.5416 C   0  0  1  0  0  0  0  0  0  0  0  0
    2.2740   14.2565   -1.6975 O   0  0  0  0  0  0  0  0  0  0  0  0
    1.5115   13.1718    0.3674 C   0  0  1  0  0  0  0  0  0  0  0  0
    2.7821   12.5452    0.3560 O   0  0  0  0  0  0  0  0  0  0  0  0
    1.2885   13.8026    1.7407 C   0  0  2  0  0  0  0  0  0  0  0  0
    0.1637   13.2432    2.5204 N   0  0  0  0  0  0  0  0  0  0  0  0
   -1.1825   13.2247    2.2562 C   0  0  0  0  0  0  0  0  0  0  0  0
   -1.9085   12.7266    3.2235 N   0  0  0  0  0  0  0  0  0  0  0  0
   -0.9788   12.3636    4.1933 C   0  0  0  0  0  0  0  0  0  0  0  0
   -1.1592   11.8028    5.4983 C   0  0  0  0  0  0  0  0  0  0  0  0
   -2.2187   11.5515    6.0688 O   0  0  0  0  0  0  0  0  0  0  0  0
    0.0540   11.5507    6.1529 N   0  0  0  0  0  0  0  0  0  0  0  0
    1.2980   11.7838    5.5862 C   0  0  0  0  0  0  0  0  0  0  0  0
    2.3823   11.4023    6.2706 N   0  0  0  0  0  0  0  0  0  0  0  0
    1.4617   12.3546    4.3816 N   0  0  0  0  0  0  0  0  0  0  0  0
    0.2923   12.6261    3.7402 C   0  0  0  0  0  0  0  0  0  0  0  0
  1  2  2  0  0  0  0
  1  4  1  0  0  0  0
  1  3  1  0  0  0  0
  5  1  1  0  0  0  0
  6  7  2  1  0  0  0
  6  9  1  0  0  0  0
  6  5  1  0  0  0  0
  6  8  1  0  0  0  0
 10 11  2  6  0  0  0
 10 12  1  0  0  0  0
 10 13  1  0  0  0  0
 10  9  1  0  0  0  0
 13 14  1  0  0  0  0
 15 14  1  6  0  0  0
 15 16  1  0  0  0  0
 17 19  1  0  0  0  0
 17 15  1  0  0  0  0
 17 18  1  6  0  0  0
 19 21  1  0  0  0  0
 19 20  1  1  0  0  0
 21 16  1  0  0  0  0
 21 22  1  6  0  0  0
 22 32  1  0  0  0  0
 23 22  1  0  0  0  0
 23 24  2  0  0  0  0
 24 25  1  0  0  0  0
 25 26  1  0  0  0  0
 26 27  2  0  0  0  0
 26 28  1  0  0  0  0
 29 28  1  0  0  0  0
 29 30  1  0  0  0  0
 31 29  2  0  0  0  0
 32 25  2  0  0  0  0
 32 31  1  0  0  0  0
M  END
>  <CHROM.1>
88.32496874,-75.69006990,56.54649182,-163.22857116,-123.71600048,68.82888102
15.80501126,-179.18209613,-60.62869433,61.44301901,0.34218936,15.30788492
3.05996125,1.28260903,1.04768050,-0.13308837

>  <Name>
lig.pdb

>  <RI>
0

>  <Rbt.Current_Directory>
/home/itssahil/PROJECTS/Mol_Feturizer/New_Systems/rnas/5lwj

>  <Rbt.Executable>
rbdock ($Id: //depot/dev/client3/rdock/2013.1/src/exe/rbdock.cxx#4 $)

>  <Rbt.Library>
libRbt.so (2013.1, Build901 2013/11/27)

>  <Rbt.Parameter_File>
/export/apps/rDock/src/rDock_2013.1_src/data/scripts/dock_solv.prm

>  <Rbt.Receptor>
prm/pocket_docking_6.prm

>  <SCORE>
-60.0072

>  <SCORE.INTER>
-57.5783

>  <SCORE.INTER.CONST>
1

>  <SCORE.INTER.POLAR>
-7.41161

>  <SCORE.INTER.ROT>
8

>  <SCORE.INTER.SOLV>
18.384

>  <SCORE.INTER.VDW>
-28.7415

>  <SCORE.INTER.norm>
-1.79932

>  <SCORE.INTRA>
-2.42894

>  <SCORE.INTRA.DIHEDRAL>
0.859282

>  <SCORE.INTRA.DIHEDRAL.0>
10.9248

>  <SCORE.INTRA.POLAR>
0

>  <SCORE.INTRA.POLAR.0>
0

>  <SCORE.INTRA.REPUL>
0.00881232

>  <SCORE.INTRA.REPUL.0>
0

>  <SCORE.INTRA.SOLV>
4.20471

>  <SCORE.INTRA.SOLV.lig_0>
-51.4104

>  <SCORE.INTRA.VDW>
-5.005

>  <SCORE.INTRA.VDW.0>
0.110327

>  <SCORE.INTRA.norm>
-0.0759043

>  <SCORE.RESTR>
0

>  <SCORE.RESTR.CAVITY>
0

>  <SCORE.RESTR.norm>
0

>  <SCORE.SYSTEM>
0

>  <SCORE.SYSTEM.CONST>
0

>  <SCORE.SYSTEM.DIHEDRAL>
0

>  <SCORE.SYSTEM.SOLV>
0

>  <SCORE.SYSTEM.norm>
0

>  <SCORE.heavy>
32

>  <SCORE.norm>
-1.87523

>  <RMSD>
5.001

$$$$
lig.pdb
 OpenBabel11021811523D
libRbt.so/2013.1/901 2013/11/27
 32 34  0  0  0  0  0  0  0  0999 V2000
    0.2531   18.1961    4.9747 P   0  0  0  0  0  0  0  0  0  0  0  0
   -0.6247   19.1656    5.7280 O   0  0  0  0  0  0  0  0  0  0  0  0
    0.7903   19.0797    3.7244 O   0  0  0  0  0  0  0  0  0  0  0  0
    1.5242   17.7176    5.6308 O   0  0  0  0  0  0  0  0  0  0  0  0
   -0.5544   17.0125    4.7517 O   0  0  0  0  0  0  0  0  0  0  0  0
   -1.4210   17.2209    3.5680 P   0  0  1  0  0  0  0  0  0  0  0  0
   -2.3345   16.0595    3.4544 O   0  0  0  0  0  0  0  0  0  0  0  0
   -2.2254   18.4532    3.7384 O   0  0  0  0  0  0  0  0  0  0  0  0
   -0.5771   17.3355    2.3522 O   0  0  0  0  0  0  0  0  0  0  0  0
   -1.1493   17.5445    1.0010 P   0  0  1  0  0  0  0  0  0  0  0  0
   -1.9215   16.4022    0.4713 O   0  0  0  0  0  0  0  0  0  0  0  0
   -1.7687   18.8702    0.7796 O   0  0  0  0  0  0  0  0  0  0  0  0
    0.1628   17.5434    0.0537 O   0  0  0  0  0  0  0  0  0  0  0  0
    0.5197   16.4316   -0.7457 C   0  0  0  0  0  0  0  0  0  0  0  0
    1.1837   15.3104    0.0658 C   0  0  1  0  0  0  0  0  0  0  0  0
    0.4625   15.0745    1.2576 O   0  0  0  0  0  0  0  0  0  0  0  0
    1.1135   13.9300   -0.6106 C   0  0  1  0  0  0  0  0  0  0  0  0
    2.0345   13.7218   -1.6682 O   0  0  0  0  0  0  0  0  0  0  0  0
    1.3176   12.9575    0.5508 C   0  0  1  0  0  0  0  0  0  0  0  0
    2.6822   12.6248    0.7361 O   0  0  0  0  0  0  0  0  0  0  0  0
    0.8533   13.8002    1.7372 C   0  0  2  0  0  0  0  0  0  0  0  0
   -0.2053   13.1921    2.5713 N   0  0  0  0  0  0  0  0  0  0  0  0
   -1.5629   13.1292    2.3834 C   0  0  0  0  0  0  0  0  0  0  0  0
   -2.2150   12.5942    3.3830 N   0  0  0  0  0  0  0  0  0  0  0  0
   -1.2196   12.2526    4.2936 C   0  0  0  0  0  0  0  0  0  0  0  0
   -1.3058   11.6701    5.5987 C   0  0  0  0  0  0  0  0  0  0  0  0
   -2.3219   11.3747    6.2246 O   0  0  0  0  0  0  0  0  0  0  0  0
   -0.0493   11.4532    6.1801 N   0  0  0  0  0  0  0  0  0  0  0  0
    1.1516   11.7370    5.5474 C   0  0  0  0  0  0  0  0  0  0  0  0
    2.2856   11.3858    6.1640 N   0  0  0  0  0  0  0  0  0  0  0  0
    1.2265   12.3277    4.3436 N   0  0  0  0  0  0  0  0  0  0  0  0
    0.0138   12.5653    3.7731 C   0  0  0  0  0  0  0  0  0  0  0  0
  1  2  2  0  0  0  0
  1  4  1  0  0  0  0
  1  3  1  0  0  0  0
  5  1  1  0  0  0  0
  6  7  2  6  0  0  0
  6  9  1  0  0  0  0
  6  5  1  0  0  0  0
  6  8  1  0  0  0  0
 10 11  2  6  0  0  0
 10 12  1  0  0  0  0
 10 13  1  0  0  0  0
 10  9  1  0  0  0  0
 13 14  1  0  0  0  0
 15 14  1  6  0  0  0
 15 16  1  0  0  0  0
 17 19  1  0  0  0  0
 17 15  1  0  0  0  0
 17 18  1  6  0  0  0
 19 21  1  0  0  0  0
 19 20  1  1  0  0  0
 21 16  1  0  0  0  0
 21 22  1  6  0  0  0
 22 32  1  0  0  0  0
 23 22  1  0  0  0  0
 23 24  2  0  0  0  0
 24 25  1  0  0  0  0
 25 26  1  0  0  0  0
 26 27  2  0  0  0  0
 26 28  1  0  0  0  0
 29 28  1  0  0  0  0
 29 30  1  0  0  0  0
 31 29  2  0  0  0  0
 32 25  2  0  0  0  0
 32 31  1  0  0  0  0
M  END
>  <CHROM.1>
82.11181977,179.77393001,-173.94384565,103.24271167,-67.80527327,-77.84834473
45.44557221,-57.19020013,57.09437256,43.39507639,-0.17838663,15.31838190
2.89142948,2.05479334,1.28118311,-0.79598239

>  <Name>
lig.pdb

>  <RI>
0

>  <Rbt.Current_Directory>
/home/itssahil/PROJECTS/Mol_Feturizer/New_Systems/rnas/5lwj

>  <Rbt.Executable>
rbdock ($Id: //depot/dev/client3/rdock/2013.1/src/exe/rbdock.cxx#4 $)

>  <Rbt.Library>
libRbt.so (2013.1, Build901 2013/11/27)

>  <Rbt.Parameter_File>
/export/apps/rDock/src/rDock_2013.1_src/data/scripts/dock_solv.prm

>  <Rbt.Receptor>
prm/pocket_docking_6.prm

>  <SCORE>
-53.9965

>  <SCORE.INTER>
-49.184

>  <SCORE.INTER.CONST>
1

>  <SCORE.INTER.POLAR>
-6.47738

>  <SCORE.INTER.ROT>
8

>  <SCORE.INTER.SOLV>
19.446

>  <SCORE.INTER.VDW>
-26.6134

>  <SCORE.INTER.norm>
-1.537

>  <SCORE.INTRA>
-4.97143

>  <SCORE.INTRA.DIHEDRAL>
-2.9724

>  <SCORE.INTRA.DIHEDRAL.0>
10.9248

>  <SCORE.INTRA.POLAR>
0

>  <SCORE.INTRA.POLAR.0>
0

>  <SCORE.INTRA.REPUL>
0

>  <SCORE.INTRA.REPUL.0>
0

>  <SCORE.INTRA.SOLV>
2.36849

>  <SCORE.INTRA.SOLV.lig_0>
-51.4104

>  <SCORE.INTRA.VDW>
-4.66947

>  <SCORE.INTRA.VDW.0>
0.110327

>  <SCORE.INTRA.norm>
-0.155357

>  <SCORE.RESTR>
0.158882

>  <SCORE.RESTR.CAVITY>
0.158882

>  <SCORE.RESTR.norm>
0.00496505

>  <SCORE.SYSTEM>
0

>  <SCORE.SYSTEM.CONST>
0

>  <SCORE.SYSTEM.DIHEDRAL>
0

>  <SCORE.SYSTEM.SOLV>
0

>  <SCORE.SYSTEM.norm>
0

>  <SCORE.heavy>
32

>  <SCORE.norm>
-1.68739

>  <RMSD>
5.020

$$$$
lig.pdb
 OpenBabel11021811523D
libRbt.so/2013.1/901 2013/11/27
 32 34  0  0  0  0  0  0  0  0999 V2000
    4.9555   15.0164   -4.1903 P   0  0  0  0  0  0  0  0  0  0  0  0
    5.2134   16.2396   -3.3445 O   0  0  0  0  0  0  0  0  0  0  0  0
    3.3362   14.9637   -4.2787 O   0  0  0  0  0  0  0  0  0  0  0  0
    5.3797   15.0402   -5.6375 O   0  0  0  0  0  0  0  0  0  0  0  0
    5.6984   13.9358   -3.5713 O   0  0  0  0  0  0  0  0  0  0  0  0
    5.0145   12.6488   -3.8387 P   0  0  1  0  0  0  0  0  0  0  0  0
    4.9342   12.4651   -5.3070 O   0  0  0  0  0  0  0  0  0  0  0  0
    5.7902   11.5305   -3.2536 O   0  0  0  0  0  0  0  0  0  0  0  0
    3.6536   12.6805   -3.2466 O   0  0  0  0  0  0  0  0  0  0  0  0
    3.3244   12.0078   -1.9676 P   0  0  1  0  0  0  0  0  0  0  0  0
    2.8000   10.6340   -2.1068 O   0  0  0  0  0  0  0  0  0  0  0  0
    4.3221   12.1865   -0.8892 O   0  0  0  0  0  0  0  0  0  0  0  0
    2.0231   12.8244   -1.4594 O   0  0  0  0  0  0  0  0  0  0  0  0
    2.0184   14.2327   -1.3205 C   0  0  0  0  0  0  0  0  0  0  0  0
    2.0124   14.6808    0.1477 C   0  0  1  0  0  0  0  0  0  0  0  0
    0.7356   14.4765    0.7175 O   0  0  0  0  0  0  0  0  0  0  0  0
    2.8961   13.8161    1.0637 C   0  0  1  0  0  0  0  0  0  0  0  0
    4.2888   14.0693    0.9832 O   0  0  0  0  0  0  0  0  0  0  0  0
    2.3267   14.0825    2.4569 C   0  0  1  0  0  0  0  0  0  0  0  0
    2.9796   15.1602    3.1044 O   0  0  0  0  0  0  0  0  0  0  0  0
    0.8967   14.5044    2.1245 C   0  0  2  0  0  0  0  0  0  0  0  0
   -0.1662   13.7319    2.8024 N   0  0  0  0  0  0  0  0  0  0  0  0
   -1.5178   13.6826    2.5722 C   0  0  0  0  0  0  0  0  0  0  0  0
   -2.1795   12.9575    3.4366 N   0  0  0  0  0  0  0  0  0  0  0  0
   -1.1967   12.4671    4.2911 C   0  0  0  0  0  0  0  0  0  0  0  0
   -1.2983   11.6473    5.4606 C   0  0  0  0  0  0  0  0  0  0  0  0
   -2.3209   11.2219    5.9941 O   0  0  0  0  0  0  0  0  0  0  0  0
   -0.0501   11.3458    6.0219 N   0  0  0  0  0  0  0  0  0  0  0  0
    1.1577   11.7642    5.4841 C   0  0  0  0  0  0  0  0  0  0  0  0
    2.2856   11.3222    6.0516 N   0  0  0  0  0  0  0  0  0  0  0  0
    1.2456   12.5728    4.4153 N   0  0  0  0  0  0  0  0  0  0  0  0
    0.0406   12.8933    3.8698 C   0  0  0  0  0  0  0  0  0  0  0  0
  1  2  2  0  0  0  0
  1  4  1  0  0  0  0
  1  3  1  0  0  0  0
  5  1  1  0  0  0  0
  6  7  2  6  0  0  0
  6  9  1  0  0  0  0
  6  5  1  0  0  0  0
  6  8  1  0  0  0  0
 10 11  2  6  0  0  0
 10 12  1  0  0  0  0
 10 13  1  0  0  0  0
 10  9  1  0  0  0  0
 13 14  1  0  0  0  0
 15 14  1  6  0  0  0
 15 16  1  0  0  0  0
 17 19  1  0  0  0  0
 17 15  1  0  0  0  0
 17 18  1  1  0  0  0
 19 21  1  0  0  0  0
 19 20  1  6  0  0  0
 21 16  1  0  0  0  0
 21 22  1  1  0  0  0
 22 32  1  0  0  0  0
 23 22  1  0  0  0  0
 23 24  2  0  0  0  0
 24 25  1  0  0  0  0
 25 26  1  0  0  0  0
 26 27  2  0  0  0  0
 26 28  1  0  0  0  0
 29 28  1  0  0  0  0
 29 30  1  0  0  0  0
 31 29  2  0  0  0  0
 32 25  2  0  0  0  0
 32 31  1  0  0  0  0
M  END
>  <CHROM.1>
150.89852999,-101.76283815,58.93345869,-53.97210474,-93.16251842,-108.31398178
-74.27359394,-168.97243248,-63.73185621,-43.24866602,2.54639444,13.22081412
-0.00748821,0.49253766,0.97053667,-0.43181671

>  <Name>
lig.pdb

>  <RI>
2.92062e+07

>  <Rbt.Current_Directory>
/home/itssahil/PROJECTS/Mol_Feturizer/New_Systems/rnas/5lwj

>  <Rbt.Executable>
rbdock ($Id: //depot/dev/client3/rdock/2013.1/src/exe/rbdock.cxx#4 $)

>  <Rbt.Library>
libRbt.so (2013.1, Build901 2013/11/27)

>  <Rbt.Parameter_File>
/export/apps/rDock/src/rDock_2013.1_src/data/scripts/dock_solv.prm

>  <Rbt.Receptor>
prm/pocket_docking_7.prm

>  <SCORE>
-39.8671

>  <SCORE.INTER>
-39.3588

>  <SCORE.INTER.CONST>
1

>  <SCORE.INTER.POLAR>
-4.64503

>  <SCORE.INTER.ROT>
8

>  <SCORE.INTER.SOLV>
18.1273

>  <SCORE.INTER.VDW>
-25.7315

>  <SCORE.INTER.norm>
-1.22996

>  <SCORE.INTRA>
-0.50845

>  <SCORE.INTRA.DIHEDRAL>
3.47422

>  <SCORE.INTRA.DIHEDRAL.0>
10.9248

>  <SCORE.INTRA.POLAR>
0

>  <SCORE.INTRA.POLAR.0>
0

>  <SCORE.INTRA.REPUL>
0

>  <SCORE.INTRA.REPUL.0>
0

>  <SCORE.INTRA.SOLV>
1.30498

>  <SCORE.INTRA.SOLV.lig_0>
-51.4104

>  <SCORE.INTRA.VDW>
-2.89805

>  <SCORE.INTRA.VDW.0>
0.110327

>  <SCORE.INTRA.norm>
-0.0158891

>  <SCORE.RESTR>
9.71643e-05

>  <SCORE.RESTR.CAVITY>
9.71643e-05

>  <SCORE.RESTR.norm>
3.03638e-06

>  <SCORE.SYSTEM>
0

>  <SCORE.SYSTEM.CONST>
0

>  <SCORE.SYSTEM.DIHEDRAL>
0

>  <SCORE.SYSTEM.SOLV>
0

>  <SCORE.SYSTEM.norm>
0

>  <SCORE.heavy>
32

>  <SCORE.norm>
-1.24585

>  <RMSD>
5.450

$$$$
lig.pdb
 OpenBabel11021811523D
libRbt.so/2013.1/901 2013/11/27
 32 34  0  0  0  0  0  0  0  0999 V2000
   -0.4013   16.8193   -5.2637 P   0  0  0  0  0  0  0  0  0  0  0  0
   -0.9616   18.2152   -5.3872 O   0  0  0  0  0  0  0  0  0  0  0  0
   -1.7308   15.8979   -5.1374 O   0  0  0  0  0  0  0  0  0  0  0  0
    0.3187   16.2259   -6.4488 O   0  0  0  0  0  0  0  0  0  0  0  0
    0.5693   16.8695   -4.1875 O   0  0  0  0  0  0  0  0  0  0  0  0
   -0.1289   16.7513   -2.8859 P   0  0  1  0  0  0  0  0  0  0  0  0
   -1.1570   17.8162   -2.8152 O   0  0  0  0  0  0  0  0  0  0  0  0
   -0.7932   15.4310   -2.7842 O   0  0  0  0  0  0  0  0  0  0  0  0
    0.8526   16.9064   -1.7832 O   0  0  0  0  0  0  0  0  0  0  0  0
    1.5945   18.1678   -1.5474 P   0  0  1  0  0  0  0  0  0  0  0  0
    2.4917   18.5743   -2.6480 O   0  0  0  0  0  0  0  0  0  0  0  0
    0.7954   19.2655   -0.9586 O   0  0  0  0  0  0  0  0  0  0  0  0
    2.6404   17.7545   -0.3838 O   0  0  0  0  0  0  0  0  0  0  0  0
    2.2187   17.2868    0.8835 C   0  0  0  0  0  0  0  0  0  0  0  0
    2.4611   15.7822    1.0677 C   0  0  1  0  0  0  0  0  0  0  0  0
    1.7273   15.2992    2.1744 O   0  0  0  0  0  0  0  0  0  0  0  0
    1.8948   14.9185   -0.0730 C   0  0  1  0  0  0  0  0  0  0  0  0
    2.6615   14.9048   -1.2655 O   0  0  0  0  0  0  0  0  0  0  0  0
    1.7664   13.5346    0.5629 C   0  0  1  0  0  0  0  0  0  0  0  0
    2.9295   12.7484    0.3721 O   0  0  0  0  0  0  0  0  0  0  0  0
    1.6533   13.8907    2.0441 C   0  0  2  0  0  0  0  0  0  0  0  0
    0.4655   13.3485    2.7377 N   0  0  0  0  0  0  0  0  0  0  0  0
   -0.8635   13.3970    2.4007 C   0  0  0  0  0  0  0  0  0  0  0  0
   -1.6615   12.8918    3.3055 N   0  0  0  0  0  0  0  0  0  0  0  0
   -0.8024   12.4518    4.3081 C   0  0  0  0  0  0  0  0  0  0  0  0
   -1.0774   11.8477    5.5767 C   0  0  0  0  0  0  0  0  0  0  0  0
   -2.1762   11.6187    6.0781 O   0  0  0  0  0  0  0  0  0  0  0  0
    0.0865   11.5192    6.2848 N   0  0  0  0  0  0  0  0  0  0  0  0
    1.3685   11.7223    5.7964 C   0  0  0  0  0  0  0  0  0  0  0  0
    2.3969   11.2687    6.5218 N   0  0  0  0  0  0  0  0  0  0  0  0
    1.6215   12.3331    4.6274 N   0  0  0  0  0  0  0  0  0  0  0  0
    0.5013   12.6786    3.9357 C   0  0  0  0  0  0  0  0  0  0  0  0
  1  2  2  0  0  0  0
  1  4  1  0  0  0  0
  1  3  1  0  0  0  0
  5  1  1  0  0  0  0
  6  7  2  1  0  0  0
  6  9  1  0  0  0  0
  6  5  1  0  0  0  0
  6  8  1  0  0  0  0
 10 11  2  6  0  0  0
 10 12  1  0  0  0  0
 10 13  1  0  0  0  0
 10  9  1  0  0  0  0
 13 14  1  0  0  0  0
 15 14  1  6  0  0  0
 15 16  1  0  0  0  0
 17 19  1  0  0  0  0
 17 15  1  0  0  0  0
 17 18  1  6  0  0  0
 19 21  1  0  0  0  0
 19 20  1  1  0  0  0
 21 16  1  0  0  0  0
 21 22  1  6  0  0  0
 22 32  1  0  0  0  0
 23 22  1  0  0  0  0
 23 24  2  0  0  0  0
 24 25  1  0  0  0  0
 25 26  1  0  0  0  0
 26 27  2  0  0  0  0
 26 28  1  0  0  0  0
 29 28  1  0  0  0  0
 29 30  1  0  0  0  0
 31 29  2  0  0  0  0
 32 25  2  0  0  0  0
 32 31  1  0  0  0  0
M  END
>  <CHROM.1>
82.27436967,64.44020989,-55.45245531,-60.46171675,-62.86482337,107.37376366
-164.86030203,60.79697431,39.90378294,73.74150716,0.65150039,15.26052891
-0.05355394,1.59830220,-0.55472206,-1.03544691

>  <Name>
lig.pdb

>  <RI>
2.0892e+07

>  <Rbt.Current_Directory>
/home/itssahil/PROJECTS/Mol_Feturizer/New_Systems/rnas/5lwj

>  <Rbt.Executable>
rbdock ($Id: //depot/dev/client3/rdock/2013.1/src/exe/rbdock.cxx#4 $)

>  <Rbt.Library>
libRbt.so (2013.1, Build901 2013/11/27)

>  <Rbt.Parameter_File>
/export/apps/rDock/src/rDock_2013.1_src/data/scripts/dock_solv.prm

>  <Rbt.Receptor>
prm/pocket_docking_8.prm

>  <SCORE>
-41.6049

>  <SCORE.INTER>
-40.1053

>  <SCORE.INTER.CONST>
1

>  <SCORE.INTER.POLAR>
-5.37727

>  <SCORE.INTER.ROT>
8

>  <SCORE.INTER.SOLV>
13.668

>  <SCORE.INTER.VDW>
-22.302

>  <SCORE.INTER.norm>
-1.25329

>  <SCORE.INTRA>
-1.49959

>  <SCORE.INTRA.DIHEDRAL>
1.95557

>  <SCORE.INTRA.DIHEDRAL.0>
10.9248

>  <SCORE.INTRA.POLAR>
0

>  <SCORE.INTRA.POLAR.0>
0

>  <SCORE.INTRA.REPUL>
0

>  <SCORE.INTRA.REPUL.0>
0

>  <SCORE.INTRA.SOLV>
2.12745

>  <SCORE.INTRA.SOLV.lig_0>
-51.4104

>  <SCORE.INTRA.VDW>
-3.5411

>  <SCORE.INTRA.VDW.0>
0.110327

>  <SCORE.INTRA.norm>
-0.0468623

>  <SCORE.RESTR>
0

>  <SCORE.RESTR.CAVITY>
0

>  <SCORE.RESTR.norm>
0

>  <SCORE.SYSTEM>
0

>  <SCORE.SYSTEM.CONST>
0

>  <SCORE.SYSTEM.DIHEDRAL>
0

>  <SCORE.SYSTEM.SOLV>
0

>  <SCORE.SYSTEM.norm>
0

>  <SCORE.heavy>
32

>  <SCORE.norm>
-1.30015

>  <RMSD>
5.497

$$$$
lig.pdb
 OpenBabel11021811523D
libRbt.so/2013.1/901 2013/11/27
 32 34  0  0  0  0  0  0  0  0999 V2000
    4.8451   14.3893   -5.5545 P   0  0  0  0  0  0  0  0  0  0  0  0
    4.3941   14.9475   -6.8823 O   0  0  0  0  0  0  0  0  0  0  0  0
    6.4519   14.6118   -5.5873 O   0  0  0  0  0  0  0  0  0  0  0  0
    4.4234   15.1024   -4.2940 O   0  0  0  0  0  0  0  0  0  0  0  0
    4.2843   13.0548   -5.4681 O   0  0  0  0  0  0  0  0  0  0  0  0
    5.0653   12.2521   -4.4980 P   0  0  1  0  0  0  0  0  0  0  0  0
    4.4728   10.8951   -4.4387 O   0  0  0  0  0  0  0  0  0  0  0  0
    6.4737   12.1450   -4.9449 O   0  0  0  0  0  0  0  0  0  0  0  0
    5.0093   12.8992   -3.1632 O   0  0  0  0  0  0  0  0  0  0  0  0
    5.2948   12.1644   -1.9080 P   0  0  1  0  0  0  0  0  0  0  0  0
    4.6143   10.8592   -1.7853 O   0  0  0  0  0  0  0  0  0  0  0  0
    6.7135   12.1683   -1.4871 O   0  0  0  0  0  0  0  0  0  0  0  0
    4.5351   13.0563   -0.7917 O   0  0  0  0  0  0  0  0  0  0  0  0
    3.1470   12.9382   -0.5431 C   0  0  0  0  0  0  0  0  0  0  0  0
    2.6334   13.9920    0.4480 C   0  0  1  0  0  0  0  0  0  0  0  0
    1.2863   13.7320    0.7859 O   0  0  0  0  0  0  0  0  0  0  0  0
    3.3109   13.9277    1.8281 C   0  0  1  0  0  0  0  0  0  0  0  0
    4.6123   14.4864    1.8950 O   0  0  0  0  0  0  0  0  0  0  0  0
    2.3147   14.6389    2.7435 C   0  0  1  0  0  0  0  0  0  0  0  0
    2.5820   16.0261    2.8495 O   0  0  0  0  0  0  0  0  0  0  0  0
    1.0081   14.4489    1.9754 C   0  0  2  0  0  0  0  0  0  0  0  0
   -0.0901   13.8182    2.7385 N   0  0  0  0  0  0  0  0  0  0  0  0
   -1.4499   13.8949    2.5730 C   0  0  0  0  0  0  0  0  0  0  0  0
   -2.1353   13.2793    3.5015 N   0  0  0  0  0  0  0  0  0  0  0  0
   -1.1636   12.7311    4.3334 C   0  0  0  0  0  0  0  0  0  0  0  0
   -1.2863   11.9786    5.5453 C   0  0  0  0  0  0  0  0  0  0  0  0
   -2.3176   11.6824    6.1453 O   0  0  0  0  0  0  0  0  0  0  0  0
   -0.0471   11.5785    6.0632 N   0  0  0  0  0  0  0  0  0  0  0  0
    1.1673   11.8489    5.4508 C   0  0  0  0  0  0  0  0  0  0  0  0
    2.2735   11.3215    5.9874 N   0  0  0  0  0  0  0  0  0  0  0  0
    1.2804   12.5961    4.3405 N   0  0  0  0  0  0  0  0  0  0  0  0
    0.0867   13.0115    3.8354 C   0  0  0  0  0  0  0  0  0  0  0  0
  1  2  2  0  0  0  0
  1  4  1  0  0  0  0
  1  3  1  0  0  0  0
  5  1  1  0  0  0  0
  6  7  2  1  0  0  0
  6  9  1  0  0  0  0
  6  5  1  0  0  0  0
  6  8  1  0  0  0  0
 10 11  2  6  0  0  0
 10 12  1  0  0  0  0
 10 13  1  0  0  0  0
 10  9  1  0  0  0  0
 13 14  1  0  0  0  0
 15 14  1  6  0  0  0
 15 16  1  0  0  0  0
 17 19  1  0  0  0  0
 17 15  1  0  0  0  0
 17 18  1  6  0  0  0
 19 21  1  0  0  0  0
 19 20  1  6  0  0  0
 21 16  1  0  0  0  0
 21 22  1  1  0  0  0
 22 32  1  0  0  0  0
 23 22  1  0  0  0  0
 23 24  2  0  0  0  0
 24 25  1  0  0  0  0
 25 26  1  0  0  0  0
 26 27  2  0  0  0  0
 26 28  1  0  0  0  0
 29 28  1  0  0  0  0
 29 30  1  0  0  0  0
 31 29  2  0  0  0  0
 32 25  2  0  0  0  0
 32 31  1  0  0  0  0
M  END
>  <CHROM.1>
158.26470346,159.70980123,-179.69728887,81.83699522,-47.29032620,-173.72620221
-172.90024914,-81.56961364,-24.88991550,-80.68424252,2.99560281,13.12333148
-0.22591667,0.94849997,0.56025574,-1.15409895

>  <Name>
lig.pdb

>  <RI>
2.92062e+07

>  <Rbt.Current_Directory>
/home/itssahil/PROJECTS/Mol_Feturizer/New_Systems/rnas/5lwj

>  <Rbt.Executable>
rbdock ($Id: //depot/dev/client3/rdock/2013.1/src/exe/rbdock.cxx#4 $)

>  <Rbt.Library>
libRbt.so (2013.1, Build901 2013/11/27)

>  <Rbt.Parameter_File>
/export/apps/rDock/src/rDock_2013.1_src/data/scripts/dock_solv.prm

>  <Rbt.Receptor>
prm/pocket_docking_7.prm

>  <SCORE>
-47.1918

>  <SCORE.INTER>
-44.3279

>  <SCORE.INTER.CONST>
1

>  <SCORE.INTER.POLAR>
-6.05726

>  <SCORE.INTER.ROT>
8

>  <SCORE.INTER.SOLV>
21.7631

>  <SCORE.INTER.VDW>
-25.5488

>  <SCORE.INTER.norm>
-1.38525

>  <SCORE.INTRA>
-2.86392

>  <SCORE.INTRA.DIHEDRAL>
0.994439

>  <SCORE.INTRA.DIHEDRAL.0>
10.9248

>  <SCORE.INTRA.POLAR>
-0.33379

>  <SCORE.INTRA.POLAR.0>
0

>  <SCORE.INTRA.REPUL>
0

>  <SCORE.INTRA.REPUL.0>
0

>  <SCORE.INTRA.SOLV>
-0.299147

>  <SCORE.INTRA.SOLV.lig_0>
-51.4104

>  <SCORE.INTRA.VDW>
-2.07668

>  <SCORE.INTRA.VDW.0>
0.110327

>  <SCORE.INTRA.norm>
-0.0894976

>  <SCORE.RESTR>
0

>  <SCORE.RESTR.CAVITY>
0

>  <SCORE.RESTR.norm>
0

>  <SCORE.SYSTEM>
0

>  <SCORE.SYSTEM.CONST>
0

>  <SCORE.SYSTEM.DIHEDRAL>
0

>  <SCORE.SYSTEM.SOLV>
0

>  <SCORE.SYSTEM.norm>
0

>  <SCORE.heavy>
32

>  <SCORE.norm>
-1.47475

>  <RMSD>
5.952

$$$$
lig.pdb
 OpenBabel11021811523D
libRbt.so/2013.1/901 2013/11/27
 32 34  0  0  0  0  0  0  0  0999 V2000
    5.1611   15.2044    1.2933 P   0  0  0  0  0  0  0  0  0  0  0  0
    6.3560   14.5985    0.5983 O   0  0  0  0  0  0  0  0  0  0  0  0
    4.9621   14.2464    2.5875 O   0  0  0  0  0  0  0  0  0  0  0  0
    5.3021   16.5785    1.8992 O   0  0  0  0  0  0  0  0  0  0  0  0
    4.1231   15.3136    0.2866 O   0  0  0  0  0  0  0  0  0  0  0  0
    3.4952   13.9878    0.0781 P   0  0  1  0  0  0  0  0  0  0  0  0
    2.5296   14.1050   -1.0399 O   0  0  0  0  0  0  0  0  0  0  0  0
    4.5279   12.9873   -0.2786 O   0  0  0  0  0  0  0  0  0  0  0  0
    2.7988   13.5703    1.3208 O   0  0  0  0  0  0  0  0  0  0  0  0
    1.9188   14.4841    2.0873 P   0  0  1  0  0  0  0  0  0  0  0  0
    2.5942   15.6748    2.6420 O   0  0  0  0  0  0  0  0  0  0  0  0
    0.5990   14.7478    1.4717 O   0  0  0  0  0  0  0  0  0  0  0  0
    1.5847   13.6254    3.4176 O   0  0  0  0  0  0  0  0  0  0  0  0
    0.5571   12.6530    3.4540 C   0  0  0  0  0  0  0  0  0  0  0  0
   -0.6677   13.1187    4.2536 C   0  0  1  0  0  0  0  0  0  0  0  0
   -1.1796   14.3190    3.7117 O   0  0  0  0  0  0  0  0  0  0  0  0
   -1.8837   12.1844    4.1259 C   0  0  1  0  0  0  0  0  0  0  0  0
   -1.8224   10.9954    4.8957 O   0  0  0  0  0  0  0  0  0  0  0  0
   -3.0593   13.0804    4.5150 C   0  0  1  0  0  0  0  0  0  0  0  0
   -3.3480   13.0120    5.9003 O   0  0  0  0  0  0  0  0  0  0  0  0
   -2.5016   14.4668    4.1986 C   0  0  2  0  0  0  0  0  0  0  0  0
   -3.3230   15.2868    3.2827 N   0  0  0  0  0  0  0  0  0  0  0  0
   -4.1387   16.3606    3.5359 C   0  0  0  0  0  0  0  0  0  0  0  0
   -4.7982   16.7871    2.4900 N   0  0  0  0  0  0  0  0  0  0  0  0
   -4.3743   15.9544    1.4587 C   0  0  0  0  0  0  0  0  0  0  0  0
   -4.7663   15.8958    0.0829 C   0  0  0  0  0  0  0  0  0  0  0  0
   -5.6213   16.5725   -0.4848 O   0  0  0  0  0  0  0  0  0  0  0  0
   -4.0658   14.9206   -0.6398 N   0  0  0  0  0  0  0  0  0  0  0  0
   -3.0731   14.1215   -0.0930 C   0  0  0  0  0  0  0  0  0  0  0  0
   -2.4038   13.3016   -0.9113 N   0  0  0  0  0  0  0  0  0  0  0  0
   -2.7429   14.1467    1.2086 N   0  0  0  0  0  0  0  0  0  0  0  0
   -3.4293   15.0743    1.9304 C   0  0  0  0  0  0  0  0  0  0  0  0
  1  2  2  0  0  0  0
  1  4  1  0  0  0  0
  1  3  1  0  0  0  0
  5  1  1  0  0  0  0
  6  7  2  6  0  0  0
  6  9  1  0  0  0  0
  6  5  1  0  0  0  0
  6  8  1  0  0  0  0
 10 11  2  1  0  0  0
 10 12  1  0  0  0  0
 10 13  1  0  0  0  0
 10  9  1  0  0  0  0
 13 14  1  0  0  0  0
 15 14  1  6  0  0  0
 15 16  1  0  0  0  0
 17 19  1  0  0  0  0
 17 15  1  0  0  0  0
 17 18  1  1  0  0  0
 19 21  1  0  0  0  0
 19 20  1  1  0  0  0
 21 16  1  0  0  0  0
 21 22  1  6  0  0  0
 22 32  1  0  0  0  0
 23 22  1  0  0  0  0
 23 24  2  0  0  0  0
 24 25  1  0  0  0  0
 25 26  1  0  0  0  0
 26 27  2  0  0  0  0
 26 28  1  0  0  0  0
 29 28  1  0  0  0  0
 29 30  1  0  0  0  0
 31 29  2  0  0  0  0
 32 25  2  0  0  0  0
 32 31  1  0  0  0  0
M  END
>  <CHROM.1>
78.46831042,46.04343838,-174.85867678,-83.21335840,-62.55378207,-106.85839902
57.60476778,57.25276318,-63.62230490,-130.91666858,0.20347250,14.40305979
1.88685368,0.13334255,0.07596818,-1.14700557

>  <Name>
lig.pdb

>  <RI>
0

>  <Rbt.Current_Directory>
/home/itssahil/PROJECTS/Mol_Feturizer/New_Systems/rnas/5lwj

>  <Rbt.Executable>
rbdock ($Id: //depot/dev/client3/rdock/2013.1/src/exe/rbdock.cxx#4 $)

>  <Rbt.Library>
libRbt.so (2013.1, Build901 2013/11/27)

>  <Rbt.Parameter_File>
/export/apps/rDock/src/rDock_2013.1_src/data/scripts/dock_solv.prm

>  <Rbt.Receptor>
prm/pocket_docking_6.prm

>  <SCORE>
-22.3001

>  <SCORE.INTER>
-20.1239

>  <SCORE.INTER.CONST>
1

>  <SCORE.INTER.POLAR>
-1.25151

>  <SCORE.INTER.ROT>
8

>  <SCORE.INTER.SOLV>
19.5533

>  <SCORE.INTER.VDW>
-24.6954

>  <SCORE.INTER.norm>
-0.628873

>  <SCORE.INTRA>
-2.25783

>  <SCORE.INTRA.DIHEDRAL>
0.297545

>  <SCORE.INTRA.DIHEDRAL.0>
10.9248

>  <SCORE.INTRA.POLAR>
0

>  <SCORE.INTRA.POLAR.0>
0

>  <SCORE.INTRA.REPUL>
0.223241

>  <SCORE.INTRA.REPUL.0>
0

>  <SCORE.INTRA.SOLV>
2.33627

>  <SCORE.INTRA.SOLV.lig_0>
-51.4104

>  <SCORE.INTRA.VDW>
-4.69094

>  <SCORE.INTRA.VDW.0>
0.110327

>  <SCORE.INTRA.norm>
-0.0705573

>  <SCORE.RESTR>
0.0816477

>  <SCORE.RESTR.CAVITY>
0.0816477

>  <SCORE.RESTR.norm>
0.00255149

>  <SCORE.SYSTEM>
0

>  <SCORE.SYSTEM.CONST>
0

>  <SCORE.SYSTEM.DIHEDRAL>
0

>  <SCORE.SYSTEM.SOLV>
0

>  <SCORE.SYSTEM.norm>
0

>  <SCORE.heavy>
32

>  <SCORE.norm>
-0.696879

>  <RMSD>
6.239

$$$$
lig.pdb
 OpenBabel11021811523D
libRbt.so/2013.1/901 2013/11/27
 32 34  0  0  0  0  0  0  0  0999 V2000
    6.5411   11.5084   -4.3341 P   0  0  0  0  0  0  0  0  0  0  0  0
    6.6954   11.9279   -5.7757 O   0  0  0  0  0  0  0  0  0  0  0  0
    5.1830   10.6210   -4.3514 O   0  0  0  0  0  0  0  0  0  0  0  0
    7.5618   10.5663   -3.7461 O   0  0  0  0  0  0  0  0  0  0  0  0
    6.6197   12.7261   -3.5506 O   0  0  0  0  0  0  0  0  0  0  0  0
    5.9315   12.5249   -2.2539 P   0  0  1  0  0  0  0  0  0  0  0  0
    4.4921   12.3005   -2.5251 O   0  0  0  0  0  0  0  0  0  0  0  0
    6.4844   11.3357   -1.5647 O   0  0  0  0  0  0  0  0  0  0  0  0
    6.1159   13.7288   -1.4051 O   0  0  0  0  0  0  0  0  0  0  0  0
    5.2718   14.0048   -0.2184 P   0  0  1  0  0  0  0  0  0  0  0  0
    4.3440   12.9158    0.1493 O   0  0  0  0  0  0  0  0  0  0  0  0
    5.9768   14.6327    0.9213 O   0  0  0  0  0  0  0  0  0  0  0  0
    4.2635   15.1506   -0.7563 O   0  0  0  0  0  0  0  0  0  0  0  0
    3.4748   14.9813   -1.9191 C   0  0  0  0  0  0  0  0  0  0  0  0
    2.2299   14.1193   -1.6671 C   0  0  1  0  0  0  0  0  0  0  0  0
    2.0577   13.8996   -0.2820 O   0  0  0  0  0  0  0  0  0  0  0  0
    0.9079   14.8176   -2.0310 C   0  0  1  0  0  0  0  0  0  0  0  0
    0.6049   14.8660   -3.4152 O   0  0  0  0  0  0  0  0  0  0  0  0
   -0.1340   14.0425   -1.2247 C   0  0  1  0  0  0  0  0  0  0  0  0
   -0.6827   12.9621   -1.9588 O   0  0  0  0  0  0  0  0  0  0  0  0
    0.7186   13.4802   -0.0888 C   0  0  2  0  0  0  0  0  0  0  0  0
    0.2471   13.7993    1.2757 N   0  0  0  0  0  0  0  0  0  0  0  0
    0.9508   14.0772    2.4202 C   0  0  0  0  0  0  0  0  0  0  0  0
    0.2033   14.2190    3.4842 N   0  0  0  0  0  0  0  0  0  0  0  0
   -1.0947   14.0480    3.0123 C   0  0  0  0  0  0  0  0  0  0  0  0
   -2.3485   14.0471    3.7035 C   0  0  0  0  0  0  0  0  0  0  0  0
   -2.5410   14.1644    4.9120 O   0  0  0  0  0  0  0  0  0  0  0  0
   -3.4416   13.8712    2.8443 N   0  0  0  0  0  0  0  0  0  0  0  0
   -3.3273   13.7477    1.4678 C   0  0  0  0  0  0  0  0  0  0  0  0
   -4.4521   13.6918    0.7458 N   0  0  0  0  0  0  0  0  0  0  0  0
   -2.1465   13.7007    0.8295 N   0  0  0  0  0  0  0  0  0  0  0  0
   -1.0724   13.8487    1.6522 C   0  0  0  0  0  0  0  0  0  0  0  0
  1  2  2  0  0  0  0
  1  4  1  0  0  0  0
  1  3  1  0  0  0  0
  5  1  1  0  0  0  0
  6  7  2  6  0  0  0
  6  9  1  0  0  0  0
  6  5  1  0  0  0  0
  6  8  1  0  0  0  0
 10 11  2  1  0  0  0
 10 12  1  0  0  0  0
 10 13  1  0  0  0  0
 10  9  1  0  0  0  0
 13 14  1  0  0  0  0
 15 14  1  1  0  0  0
 15 16  1  0  0  0  0
 17 19  1  0  0  0  0
 17 15  1  0  0  0  0
 17 18  1  6  0  0  0
 19 21  1  0  0  0  0
 19 20  1  6  0  0  0
 21 16  1  0  0  0  0
 21 22  1  1  0  0  0
 22 32  1  0  0  0  0
 23 22  1  0  0  0  0
 23 24  2  0  0  0  0
 24 25  1  0  0  0  0
 25 26  1  0  0  0  0
 26 27  2  0  0  0  0
 26 28  1  0  0  0  0
 29 28  1  0  0  0  0
 29 30  1  0  0  0  0
 31 29  2  0  0  0  0
 32 25  2  0  0  0  0
 32 31  1  0  0  0  0
M  END
>  <CHROM.1>
156.17956608,163.17857198,-64.71144446,54.28445657,6.99755258,78.69932648
10.14570626,-63.06653818,165.32780616,-19.49833940,2.56453068,13.33737884
-0.76916414,0.59040529,0.04968301,-1.82557742

>  <Name>
lig.pdb

>  <RI>
2.0892e+07

>  <Rbt.Current_Directory>
/home/itssahil/PROJECTS/Mol_Feturizer/New_Systems/rnas/5lwj

>  <Rbt.Executable>
rbdock ($Id: //depot/dev/client3/rdock/2013.1/src/exe/rbdock.cxx#4 $)

>  <Rbt.Library>
libRbt.so (2013.1, Build901 2013/11/27)

>  <Rbt.Parameter_File>
/export/apps/rDock/src/rDock_2013.1_src/data/scripts/dock_solv.prm

>  <Rbt.Receptor>
prm/pocket_docking_8.prm

>  <SCORE>
-29.3433

>  <SCORE.INTER>
-29.134

>  <SCORE.INTER.CONST>
1

>  <SCORE.INTER.POLAR>
-4.33542

>  <SCORE.INTER.ROT>
8

>  <SCORE.INTER.SOLV>
16.8467

>  <SCORE.INTER.VDW>
-19.5202

>  <SCORE.INTER.norm>
-0.910438

>  <SCORE.INTRA>
-0.209293

>  <SCORE.INTRA.DIHEDRAL>
2.2508

>  <SCORE.INTRA.DIHEDRAL.0>
10.9248

>  <SCORE.INTRA.POLAR>
0

>  <SCORE.INTRA.POLAR.0>
0

>  <SCORE.INTRA.REPUL>
0

>  <SCORE.INTRA.REPUL.0>
0

>  <SCORE.INTRA.SOLV>
1.96543

>  <SCORE.INTRA.SOLV.lig_0>
-51.4104

>  <SCORE.INTRA.VDW>
-2.31741

>  <SCORE.INTRA.VDW.0>
0.110327

>  <SCORE.INTRA.norm>
-0.00654039

>  <SCORE.RESTR>
0

>  <SCORE.RESTR.CAVITY>
0

>  <SCORE.RESTR.norm>
0

>  <SCORE.SYSTEM>
0

>  <SCORE.SYSTEM.CONST>
0

>  <SCORE.SYSTEM.DIHEDRAL>
0

>  <SCORE.SYSTEM.SOLV>
0

>  <SCORE.SYSTEM.norm>
0

>  <SCORE.heavy>
32

>  <SCORE.norm>
-0.916979

>  <RMSD>
6.335

$$$$
lig.pdb
 OpenBabel11021811523D
libRbt.so/2013.1/901 2013/11/27
 32 34  0  0  0  0  0  0  0  0999 V2000
    0.9926   11.2464   -3.7331 P   0  0  0  0  0  0  0  0  0  0  0  0
   -0.3712   10.6712   -3.4381 O   0  0  0  0  0  0  0  0  0  0  0  0
    1.8654    9.9389   -4.1351 O   0  0  0  0  0  0  0  0  0  0  0  0
    1.1489   12.1478   -4.9323 O   0  0  0  0  0  0  0  0  0  0  0  0
    1.3492   12.0479   -2.5785 O   0  0  0  0  0  0  0  0  0  0  0  0
    2.8237   12.0805   -2.4354 P   0  0  1  0  0  0  0  0  0  0  0  0
    3.2770   10.7323   -2.0196 O   0  0  0  0  0  0  0  0  0  0  0  0
    3.4522   12.4227   -3.7325 O   0  0  0  0  0  0  0  0  0  0  0  0
    3.1984   13.0897   -1.4134 O   0  0  0  0  0  0  0  0  0  0  0  0
    4.5763   13.2121   -0.8811 P   0  0  1  0  0  0  0  0  0  0  0  0
    5.4422   12.0410   -1.1270 O   0  0  0  0  0  0  0  0  0  0  0  0
    5.2235   14.5232   -1.1096 O   0  0  0  0  0  0  0  0  0  0  0  0
    4.3480   13.1428    0.7195 O   0  0  0  0  0  0  0  0  0  0  0  0
    3.7828   14.2138    1.4517 C   0  0  0  0  0  0  0  0  0  0  0  0
    2.3487   14.5380    1.0106 C   0  0  1  0  0  0  0  0  0  0  0  0
    1.4578   13.5413    1.4680 O   0  0  0  0  0  0  0  0  0  0  0  0
    1.7646   15.7966    1.6760 C   0  0  1  0  0  0  0  0  0  0  0  0
    2.2161   17.0316    1.1460 O   0  0  0  0  0  0  0  0  0  0  0  0
    0.2553   15.6060    1.5271 C   0  0  1  0  0  0  0  0  0  0  0  0
   -0.2430   16.1928    0.3378 O   0  0  0  0  0  0  0  0  0  0  0  0
    0.1521   14.0869    1.4046 C   0  0  2  0  0  0  0  0  0  0  0  0
   -0.7515   13.4324    2.3748 N   0  0  0  0  0  0  0  0  0  0  0  0
   -2.1117   13.2551    2.3475 C   0  0  0  0  0  0  0  0  0  0  0  0
   -2.6001   12.7123    3.4327 N   0  0  0  0  0  0  0  0  0  0  0  0
   -1.4835   12.4882    4.2324 C   0  0  0  0  0  0  0  0  0  0  0  0
   -1.3733   11.9554    5.5567 C   0  0  0  0  0  0  0  0  0  0  0  0
   -2.2842   11.6071    6.3052 O   0  0  0  0  0  0  0  0  0  0  0  0
   -0.0456   11.8625    5.9954 N   0  0  0  0  0  0  0  0  0  0  0  0
    1.0485   12.2134    5.2191 C   0  0  0  0  0  0  0  0  0  0  0  0
    2.2701   11.9785    5.7112 N   0  0  0  0  0  0  0  0  0  0  0  0
    0.9379   12.7577    3.9963 N   0  0  0  0  0  0  0  0  0  0  0  0
   -0.3469   12.8753    3.5628 C   0  0  0  0  0  0  0  0  0  0  0  0
  1  2  2  0  0  0  0
  1  4  1  0  0  0  0
  1  3  1  0  0  0  0
  5  1  1  0  0  0  0
  6  7  2  1  0  0  0
  6  9  1  0  0  0  0
  6  5  1  0  0  0  0
  6  8  1  0  0  0  0
 10 11  2  6  0  0  0
 10 12  1  0  0  0  0
 10 13  1  0  0  0  0
 10  9  1  0  0  0  0
 13 14  1  0  0  0  0
 15 14  1  1  0  0  0
 15 16  1  0  0  0  0
 17 19  1  0  0  0  0
 17 15  1  0  0  0  0
 17 18  1  6  0  0  0
 19 21  1  0  0  0  0
 19 20  1  6  0  0  0
 21 16  1  0  0  0  0
 21 22  1  1  0  0  0
 22 32  1  0  0  0  0
 23 22  1  0  0  0  0
 23 24  2  0  0  0  0
 24 25  1  0  0  0  0
 25 26  1  0  0  0  0
 26 27  2  0  0  0  0
 26 28  1  0  0  0  0
 29 28  1  0  0  0  0
 29 30  1  0  0  0  0
 31 29  2  0  0  0  0
 32 25  2  0  0  0  0
 32 31  1  0  0  0  0
M  END
>  <CHROM.1>
151.52621735,169.89583831,-69.87684877,-72.97514172,-17.02361538,61.88671738
73.36018742,-57.76593887,54.68057080,-152.62647889,1.55282382,12.89343874
0.41913903,1.11974828,-0.46287673,-1.89733624

>  <Name>
lig.pdb

>  <RI>
0

>  <Rbt.Current_Directory>
/home/itssahil/PROJECTS/Mol_Feturizer/New_Systems/rnas/5lwj

>  <Rbt.Executable>
rbdock ($Id: //depot/dev/client3/rdock/2013.1/src/exe/rbdock.cxx#4 $)

>  <Rbt.Library>
libRbt.so (2013.1, Build901 2013/11/27)

>  <Rbt.Parameter_File>
/export/apps/rDock/src/rDock_2013.1_src/data/scripts/dock_solv.prm

>  <Rbt.Receptor>
prm/pocket_docking_6.prm

>  <SCORE>
-39.9521

>  <SCORE.INTER>
-35.1807

>  <SCORE.INTER.CONST>
1

>  <SCORE.INTER.POLAR>
-3.54064

>  <SCORE.INTER.ROT>
8

>  <SCORE.INTER.SOLV>
16.9398

>  <SCORE.INTER.VDW>
-26.2316

>  <SCORE.INTER.norm>
-1.0994

>  <SCORE.INTRA>
-4.7805

>  <SCORE.INTRA.DIHEDRAL>
-3.60427

>  <SCORE.INTRA.DIHEDRAL.0>
10.9248

>  <SCORE.INTRA.POLAR>
0

>  <SCORE.INTRA.POLAR.0>
0

>  <SCORE.INTRA.REPUL>
0.0124564

>  <SCORE.INTRA.REPUL.0>
0

>  <SCORE.INTRA.SOLV>
0.0162277

>  <SCORE.INTRA.SOLV.lig_0>
-51.4104

>  <SCORE.INTRA.VDW>
-3.04877

>  <SCORE.INTRA.VDW.0>
0.110327

>  <SCORE.INTRA.norm>
-0.149391

>  <SCORE.RESTR>
0.00914013

>  <SCORE.RESTR.CAVITY>
0.00914013

>  <SCORE.RESTR.norm>
0.000285629

>  <SCORE.SYSTEM>
0

>  <SCORE.SYSTEM.CONST>
0

>  <SCORE.SYSTEM.DIHEDRAL>
0

>  <SCORE.SYSTEM.SOLV>
0

>  <SCORE.SYSTEM.norm>
0

>  <SCORE.heavy>
32

>  <SCORE.norm>
-1.2485

>  <RMSD>
6.469

$$$$
lig.pdb
 OpenBabel11021811523D
libRbt.so/2013.1/901 2013/11/27
 32 34  0  0  0  0  0  0  0  0999 V2000
    1.7583    9.6505   -3.3856 P   0  0  0  0  0  0  0  0  0  0  0  0
    0.8573    9.0709   -4.4487 O   0  0  0  0  0  0  0  0  0  0  0  0
    0.7158   10.3632   -2.3669 O   0  0  0  0  0  0  0  0  0  0  0  0
    2.5197    8.7024   -2.4931 O   0  0  0  0  0  0  0  0  0  0  0  0
    2.7580   10.4316   -4.0880 O   0  0  0  0  0  0  0  0  0  0  0  0
    2.2013   11.7642   -4.4191 P   0  0  1  0  0  0  0  0  0  0  0  0
    3.2695   12.5635   -5.0640 O   0  0  0  0  0  0  0  0  0  0  0  0
    1.0685   11.6210   -5.3631 O   0  0  0  0  0  0  0  0  0  0  0  0
    1.7380   12.4289   -3.1752 O   0  0  0  0  0  0  0  0  0  0  0  0
    0.8016   13.5777   -3.1861 P   0  0  1  0  0  0  0  0  0  0  0  0
    1.2401   14.7272   -4.0035 O   0  0  0  0  0  0  0  0  0  0  0  0
   -0.6276   13.2215   -3.3295 O   0  0  0  0  0  0  0  0  0  0  0  0
    0.9291   14.1563   -1.6802 O   0  0  0  0  0  0  0  0  0  0  0  0
    1.9361   15.0769   -1.3044 C   0  0  0  0  0  0  0  0  0  0  0  0
    2.1445   15.1356    0.2153 C   0  0  1  0  0  0  0  0  0  0  0  0
    0.9093   14.9899    0.8856 O   0  0  0  0  0  0  0  0  0  0  0  0
    2.9388   13.9443    0.7789 C   0  0  1  0  0  0  0  0  0  0  0  0
    4.3411   13.9958    0.5759 O   0  0  0  0  0  0  0  0  0  0  0  0
    2.5560   13.9336    2.2586 C   0  0  1  0  0  0  0  0  0  0  0  0
    3.4478   14.7015    3.0473 O   0  0  0  0  0  0  0  0  0  0  0  0
    1.2005   14.6371    2.2262 C   0  0  2  0  0  0  0  0  0  0  0  0
    0.0827   13.8887    2.8398 N   0  0  0  0  0  0  0  0  0  0  0  0
   -1.2594   13.8979    2.5553 C   0  0  0  0  0  0  0  0  0  0  0  0
   -1.9823   13.1763    3.3723 N   0  0  0  0  0  0  0  0  0  0  0  0
   -1.0540   12.6258    4.2508 C   0  0  0  0  0  0  0  0  0  0  0  0
   -1.2335   11.7799    5.3919 C   0  0  0  0  0  0  0  0  0  0  0  0
   -2.2921   11.3804    5.8726 O   0  0  0  0  0  0  0  0  0  0  0  0
   -0.0213   11.4156    5.9933 N   0  0  0  0  0  0  0  0  0  0  0  0
    1.2221   11.8010    5.5155 C   0  0  0  0  0  0  0  0  0  0  0  0
    2.3087   11.3008    6.1144 N   0  0  0  0  0  0  0  0  0  0  0  0
    1.3836   12.6335    4.4740 N   0  0  0  0  0  0  0  0  0  0  0  0
    0.2145   13.0148    3.8906 C   0  0  0  0  0  0  0  0  0  0  0  0
  1  2  2  0  0  0  0
  1  4  1  0  0  0  0
  1  3  1  0  0  0  0
  5  1  1  0  0  0  0
  6  7  2  6  0  0  0
  6  9  1  0  0  0  0
  6  5  1  0  0  0  0
  6  8  1  0  0  0  0
 10 11  2  6  0  0  0
 10 12  1  0  0  0  0
 10 13  1  0  0  0  0
 10  9  1  0  0  0  0
 13 14  1  0  0  0  0
 15 14  1  6  0  0  0
 15 16  1  0  0  0  0
 17 19  1  0  0  0  0
 17 15  1  0  0  0  0
 17 18  1  1  0  0  0
 19 21  1  0  0  0  0
 19 20  1  1  0  0  0
 21 16  1  0  0  0  0
 21 22  1  6  0  0  0
 22 32  1  0  0  0  0
 23 22  1  0  0  0  0
 23 24  2  0  0  0  0
 24 25  1  0  0  0  0
 25 26  1  0  0  0  0
 26 27  2  0  0  0  0
 26 28  1  0  0  0  0
 29 28  1  0  0  0  0
 29 30  1  0  0  0  0
 31 29  2  0  0  0  0
 32 25  2  0  0  0  0
 32 31  1  0  0  0  0
M  END
>  <CHROM.1>
81.81774485,-162.27089139,176.76090856,85.44494901,-55.45777038,-161.61453231
-36.43304131,-178.48107342,-160.55811141,-26.17603684,1.22398830,12.54152841
-0.17638362,1.04676269,-1.24178360,-2.19582320

>  <Name>
lig.pdb

>  <RI>
2.92062e+07

>  <Rbt.Current_Directory>
/home/itssahil/PROJECTS/Mol_Feturizer/New_Systems/rnas/5lwj

>  <Rbt.Executable>
rbdock ($Id: //depot/dev/client3/rdock/2013.1/src/exe/rbdock.cxx#4 $)

>  <Rbt.Library>
libRbt.so (2013.1, Build901 2013/11/27)

>  <Rbt.Parameter_File>
/export/apps/rDock/src/rDock_2013.1_src/data/scripts/dock_solv.prm

>  <Rbt.Receptor>
prm/pocket_docking_7.prm

>  <SCORE>
-48.5018

>  <SCORE.INTER>
-45.7694

>  <SCORE.INTER.CONST>
1

>  <SCORE.INTER.POLAR>
-5.05466

>  <SCORE.INTER.ROT>
8

>  <SCORE.INTER.SOLV>
18.551

>  <SCORE.INTER.VDW>
-28.781

>  <SCORE.INTER.norm>
-1.43029

>  <SCORE.INTRA>
-2.73243

>  <SCORE.INTRA.DIHEDRAL>
-0.471

>  <SCORE.INTRA.DIHEDRAL.0>
10.9248

>  <SCORE.INTRA.POLAR>
0

>  <SCORE.INTRA.POLAR.0>
0

>  <SCORE.INTRA.REPUL>
0

>  <SCORE.INTRA.REPUL.0>
0

>  <SCORE.INTRA.SOLV>
0.399841

>  <SCORE.INTRA.SOLV.lig_0>
-51.4104

>  <SCORE.INTRA.VDW>
-2.69685

>  <SCORE.INTRA.VDW.0>
0.110327

>  <SCORE.INTRA.norm>
-0.0853885

>  <SCORE.RESTR>
0

>  <SCORE.RESTR.CAVITY>
0

>  <SCORE.RESTR.norm>
0

>  <SCORE.SYSTEM>
0

>  <SCORE.SYSTEM.CONST>
0

>  <SCORE.SYSTEM.DIHEDRAL>
0

>  <SCORE.SYSTEM.SOLV>
0

>  <SCORE.SYSTEM.norm>
0

>  <SCORE.heavy>
32

>  <SCORE.norm>
-1.51568

>  <RMSD>
7.014

$$$$
lig.pdb
 OpenBabel11021811523D
libRbt.so/2013.1/901 2013/11/27
 32 34  0  0  0  0  0  0  0  0999 V2000
   -1.3224   13.7050    3.1032 P   0  0  0  0  0  0  0  0  0  0  0  0
   -2.7920   13.9049    2.8235 O   0  0  0  0  0  0  0  0  0  0  0  0
   -1.0508   14.6849    4.3676 O   0  0  0  0  0  0  0  0  0  0  0  0
   -0.8623   12.3588    3.6045 O   0  0  0  0  0  0  0  0  0  0  0  0
   -0.6404   13.9186    1.8414 O   0  0  0  0  0  0  0  0  0  0  0  0
    0.7676   14.3019    2.0990 P   0  0  1  0  0  0  0  0  0  0  0  0
    0.7674   15.5182    2.9455 O   0  0  0  0  0  0  0  0  0  0  0  0
    1.4668   13.2123    2.8191 O   0  0  0  0  0  0  0  0  0  0  0  0
    1.4501   14.5705    0.8084 O   0  0  0  0  0  0  0  0  0  0  0  0
    1.8423   13.4894   -0.1266 P   0  0  1  0  0  0  0  0  0  0  0  0
    3.0210   12.7042    0.2930 O   0  0  0  0  0  0  0  0  0  0  0  0
    0.7210   12.6881   -0.6657 O   0  0  0  0  0  0  0  0  0  0  0  0
    2.4091   14.3086   -1.4019 O   0  0  0  0  0  0  0  0  0  0  0  0
    1.5701   15.0785   -2.2421 C   0  0  0  0  0  0  0  0  0  0  0  0
    1.5946   16.5726   -1.8911 C   0  0  1  0  0  0  0  0  0  0  0  0
    0.7229   16.8369   -0.8110 O   0  0  0  0  0  0  0  0  0  0  0  0
    2.9402   17.0539   -1.3207 C   0  0  1  0  0  0  0  0  0  0  0  0
    3.9706   17.2522   -2.2742 O   0  0  0  0  0  0  0  0  0  0  0  0
    2.5693   18.3362   -0.5761 C   0  0  1  0  0  0  0  0  0  0  0  0
    2.6843   19.4842   -1.3983 O   0  0  0  0  0  0  0  0  0  0  0  0
    1.0913   18.0952   -0.2749 C   0  0  2  0  0  0  0  0  0  0  0  0
    0.7081   18.2058    1.1488 N   0  0  0  0  0  0  0  0  0  0  0  0
   -0.4204   17.7824    1.8042 C   0  0  0  0  0  0  0  0  0  0  0  0
   -0.4713   18.1379    3.0619 N   0  0  0  0  0  0  0  0  0  0  0  0
    0.7200   18.8270    3.2682 C   0  0  0  0  0  0  0  0  0  0  0  0
    1.2254   19.4941    4.4299 C   0  0  0  0  0  0  0  0  0  0  0  0
    0.6705   19.6333    5.5181 O   0  0  0  0  0  0  0  0  0  0  0  0
    2.4987   20.0438    4.2290 N   0  0  0  0  0  0  0  0  0  0  0  0
    3.2111   19.9247    3.0452 C   0  0  0  0  0  0  0  0  0  0  0  0
    4.4607   20.4012    3.0126 N   0  0  0  0  0  0  0  0  0  0  0  0
    2.7132   19.3401    1.9433 N   0  0  0  0  0  0  0  0  0  0  0  0
    1.4675   18.8190    2.1145 C   0  0  0  0  0  0  0  0  0  0  0  0
  1  2  2  0  0  0  0
  1  4  1  0  0  0  0
  1  3  1  0  0  0  0
  5  1  1  0  0  0  0
  6  7  2  1  0  0  0
  6  9  1  0  0  0  0
  6  5  1  0  0  0  0
  6  8  1  0  0  0  0
 10 11  2  1  0  0  0
 10 12  1  0  0  0  0
 10 13  1  0  0  0  0
 10  9  1  0  0  0  0
 13 14  1  0  0  0  0
 15 14  1  1  0  0  0
 15 16  1  0  0  0  0
 17 19  1  0  0  0  0
 17 15  1  0  0  0  0
 17 18  1  6  0  0  0
 19 21  1  0  0  0  0
 19 20  1  6  0  0  0
 21 16  1  0  0  0  0
 21 22  1  1  0  0  0
 22 32  1  0  0  0  0
 23 22  1  0  0  0  0
 23 24  2  0  0  0  0
 24 25  1  0  0  0  0
 25 26  1  0  0  0  0
 26 27  2  0  0  0  0
 26 28  1  0  0  0  0
 29 28  1  0  0  0  0
 29 30  1  0  0  0  0
 31 29  2  0  0  0  0
 32 25  2  0  0  0  0
 32 31  1  0  0  0  0
M  END
>  <CHROM.1>
156.50672857,-73.49005484,-57.58428730,-68.84244005,-74.68823859,98.27750229
-82.04798167,-179.62780210,-63.41189856,-39.83555824,1.16224087,16.15932535
1.42835809,2.24509277,-0.97933894,-2.48773838

>  <Name>
lig.pdb

>  <RI>
2.92062e+07

>  <Rbt.Current_Directory>
/home/itssahil/PROJECTS/Mol_Feturizer/New_Systems/rnas/5lwj

>  <Rbt.Executable>
rbdock ($Id: //depot/dev/client3/rdock/2013.1/src/exe/rbdock.cxx#4 $)

>  <Rbt.Library>
libRbt.so (2013.1, Build901 2013/11/27)

>  <Rbt.Parameter_File>
/export/apps/rDock/src/rDock_2013.1_src/data/scripts/dock_solv.prm

>  <Rbt.Receptor>
prm/pocket_docking_7.prm

>  <SCORE>
-24.3924

>  <SCORE.INTER>
-21.0968

>  <SCORE.INTER.CONST>
1

>  <SCORE.INTER.POLAR>
-3.45611

>  <SCORE.INTER.ROT>
8

>  <SCORE.INTER.SOLV>
10.2716

>  <SCORE.INTER.VDW>
-14.9014

>  <SCORE.INTER.norm>
-0.659275

>  <SCORE.INTRA>
-3.29565

>  <SCORE.INTRA.DIHEDRAL>
-0.335769

>  <SCORE.INTRA.DIHEDRAL.0>
10.9248

>  <SCORE.INTRA.POLAR>
0

>  <SCORE.INTRA.POLAR.0>
0

>  <SCORE.INTRA.REPUL>
0

>  <SCORE.INTRA.REPUL.0>
0

>  <SCORE.INTRA.SOLV>
2.31162

>  <SCORE.INTRA.SOLV.lig_0>
-51.4104

>  <SCORE.INTRA.VDW>
-4.28357

>  <SCORE.INTRA.VDW.0>
0.110327

>  <SCORE.INTRA.norm>
-0.102989

>  <SCORE.RESTR>
0

>  <SCORE.RESTR.CAVITY>
0

>  <SCORE.RESTR.norm>
0

>  <SCORE.SYSTEM>
0

>  <SCORE.SYSTEM.CONST>
0

>  <SCORE.SYSTEM.DIHEDRAL>
0

>  <SCORE.SYSTEM.SOLV>
0

>  <SCORE.SYSTEM.norm>
0

>  <SCORE.heavy>
32

>  <SCORE.norm>
-0.762264

>  <RMSD>
7.423

$$$$
lig.pdb
 OpenBabel11021811523D
libRbt.so/2013.1/901 2013/11/27
 32 34  0  0  0  0  0  0  0  0999 V2000
   -1.8723   16.2537    3.4352 P   0  0  0  0  0  0  0  0  0  0  0  0
   -2.1987   17.5250    4.1805 O   0  0  0  0  0  0  0  0  0  0  0  0
   -1.1880   15.3233    4.5748 O   0  0  0  0  0  0  0  0  0  0  0  0
   -3.0113   15.4023    2.9323 O   0  0  0  0  0  0  0  0  0  0  0  0
   -1.1231   16.6572    2.2611 O   0  0  0  0  0  0  0  0  0  0  0  0
    0.2939   16.8818    2.6316 P   0  0  1  0  0  0  0  0  0  0  0  0
    1.0264   17.3100    1.4167 O   0  0  0  0  0  0  0  0  0  0  0  0
    0.3882   17.9496    3.6541 O   0  0  0  0  0  0  0  0  0  0  0  0
    0.8702   15.6222    3.1655 O   0  0  0  0  0  0  0  0  0  0  0  0
    0.8936   14.3622    2.3852 P   0  0  1  0  0  0  0  0  0  0  0  0
    0.3567   13.1834    3.0951 O   0  0  0  0  0  0  0  0  0  0  0  0
    0.4625   14.4889    0.9751 O   0  0  0  0  0  0  0  0  0  0  0  0
    2.4738   14.0243    2.3004 O   0  0  0  0  0  0  0  0  0  0  0  0
    3.4161   14.9347    1.7657 C   0  0  0  0  0  0  0  0  0  0  0  0
    4.5446   14.2326    0.9976 C   0  0  1  0  0  0  0  0  0  0  0  0
    4.0414   13.1075    0.3067 O   0  0  0  0  0  0  0  0  0  0  0  0
    5.1203   15.0676   -0.1596 C   0  0  1  0  0  0  0  0  0  0  0  0
    6.0113   16.1030    0.2203 O   0  0  0  0  0  0  0  0  0  0  0  0
    5.7796   14.0202   -1.0565 C   0  0  1  0  0  0  0  0  0  0  0  0
    7.1432   13.8182   -0.7296 O   0  0  0  0  0  0  0  0  0  0  0  0
    4.9949   12.7639   -0.6829 C   0  0  2  0  0  0  0  0  0  0  0  0
    4.3629   12.0514   -1.8137 N   0  0  0  0  0  0  0  0  0  0  0  0
    4.9063   11.2177   -2.7582 C   0  0  0  0  0  0  0  0  0  0  0  0
    4.0621   10.8369   -3.6818 N   0  0  0  0  0  0  0  0  0  0  0  0
    2.8626   11.4392   -3.3145 C   0  0  0  0  0  0  0  0  0  0  0  0
    1.5800   11.4340   -3.9509 C   0  0  0  0  0  0  0  0  0  0  0  0
    1.2719   10.9053   -5.0172 O   0  0  0  0  0  0  0  0  0  0  0  0
    0.6132   12.1468   -3.2291 N   0  0  0  0  0  0  0  0  0  0  0  0
    0.8596   12.7615   -2.0107 C   0  0  0  0  0  0  0  0  0  0  0  0
   -0.1722   13.3203   -1.3682 N   0  0  0  0  0  0  0  0  0  0  0  0
    2.0754   12.8047   -1.4417 N   0  0  0  0  0  0  0  0  0  0  0  0
    3.0320   12.1349   -2.1409 C   0  0  0  0  0  0  0  0  0  0  0  0
  1  2  2  0  0  0  0
  1  4  1  0  0  0  0
  1  3  1  0  0  0  0
  5  1  1  0  0  0  0
  6  7  2  6  0  0  0
  6  9  1  0  0  0  0
  6  5  1  0  0  0  0
  6  8  1  0  0  0  0
 10 11  2  1  0  0  0
 10 12  1  0  0  0  0
 10 13  1  0  0  0  0
 10  9  1  0  0  0  0
 13 14  1  0  0  0  0
 15 14  1  6  0  0  0
 15 16  1  0  0  0  0
 17 19  1  0  0  0  0
 17 15  1  0  0  0  0
 17 18  1  1  0  0  0
 19 21  1  0  0  0  0
 19 20  1  1  0  0  0
 21 16  1  0  0  0  0
 21 22  1  6  0  0  0
 22 32  1  0  0  0  0
 23 22  1  0  0  0  0
 23 24  2  0  0  0  0
 24 25  1  0  0  0  0
 25 26  1  0  0  0  0
 26 27  2  0  0  0  0
 26 28  1  0  0  0  0
 29 28  1  0  0  0  0
 29 30  1  0  0  0  0
 31 29  2  0  0  0  0
 32 25  2  0  0  0  0
 32 31  1  0  0  0  0
M  END
>  <CHROM.1>
81.31153765,57.73533899,-179.22783734,-56.41675353,-129.15500756,-144.38733687
36.27330967,70.16350921,179.15000956,-158.49889889,1.70935748,14.32821499
0.59110115,2.16664591,0.06590759,0.90844595

>  <Name>
lig.pdb

>  <RI>
1.82117e+07

>  <Rbt.Current_Directory>
/home/itssahil/PROJECTS/Mol_Feturizer/New_Systems/rnas/5lwj

>  <Rbt.Executable>
rbdock ($Id: //depot/dev/client3/rdock/2013.1/src/exe/rbdock.cxx#4 $)

>  <Rbt.Library>
libRbt.so (2013.1, Build901 2013/11/27)

>  <Rbt.Parameter_File>
/export/apps/rDock/src/rDock_2013.1_src/data/scripts/dock_solv.prm

>  <Rbt.Receptor>
prm/pocket_docking_5.prm

>  <SCORE>
-26.3998

>  <SCORE.INTER>
-21.7735

>  <SCORE.INTER.CONST>
1

>  <SCORE.INTER.POLAR>
-3.14368

>  <SCORE.INTER.ROT>
8

>  <SCORE.INTER.SOLV>
10.7154

>  <SCORE.INTER.VDW>
-16.5418

>  <SCORE.INTER.norm>
-0.680421

>  <SCORE.INTRA>
-5.34175

>  <SCORE.INTRA.DIHEDRAL>
1.96214

>  <SCORE.INTRA.DIHEDRAL.0>
10.9248

>  <SCORE.INTRA.POLAR>
-1.07366

>  <SCORE.INTRA.POLAR.0>
0

>  <SCORE.INTRA.REPUL>
0.117377

>  <SCORE.INTRA.REPUL.0>
0

>  <SCORE.INTRA.SOLV>
2.7899

>  <SCORE.INTRA.SOLV.lig_0>
-51.4104

>  <SCORE.INTRA.VDW>
-4.65421

>  <SCORE.INTRA.VDW.0>
0.110327

>  <SCORE.INTRA.norm>
-0.16693

>  <SCORE.RESTR>
0.71539

>  <SCORE.RESTR.CAVITY>
0.71539

>  <SCORE.RESTR.norm>
0.0223559

>  <SCORE.SYSTEM>
0

>  <SCORE.SYSTEM.CONST>
0

>  <SCORE.SYSTEM.DIHEDRAL>
0

>  <SCORE.SYSTEM.SOLV>
0

>  <SCORE.SYSTEM.norm>
0

>  <SCORE.heavy>
32

>  <SCORE.norm>
-0.824995

>  <RMSD>
7.453

$$$$
lig.pdb
 OpenBabel11021811523D
libRbt.so/2013.1/901 2013/11/27
 32 34  0  0  0  0  0  0  0  0999 V2000
    1.8667    9.4817   -3.2583 P   0  0  0  0  0  0  0  0  0  0  0  0
    2.2840    8.9178   -1.9219 O   0  0  0  0  0  0  0  0  0  0  0  0
    3.1682    9.2208   -4.1914 O   0  0  0  0  0  0  0  0  0  0  0  0
    0.7568    8.7944   -4.0139 O   0  0  0  0  0  0  0  0  0  0  0  0
    1.4009   10.8300   -2.9980 O   0  0  0  0  0  0  0  0  0  0  0  0
    1.0779   11.4979   -4.2806 P   0  0  1  0  0  0  0  0  0  0  0  0
    2.1535   11.1814   -5.2495 O   0  0  0  0  0  0  0  0  0  0  0  0
   -0.2108   10.9908   -4.8067 O   0  0  0  0  0  0  0  0  0  0  0  0
    0.9910   12.9641   -4.0656 O   0  0  0  0  0  0  0  0  0  0  0  0
    2.1909   13.8183   -3.8997 P   0  0  1  0  0  0  0  0  0  0  0  0
    3.4771   13.1356   -4.1478 O   0  0  0  0  0  0  0  0  0  0  0  0
    2.0829   15.1732   -4.4850 O   0  0  0  0  0  0  0  0  0  0  0  0
    2.2342   14.0663   -2.3012 O   0  0  0  0  0  0  0  0  0  0  0  0
    1.1132   14.5357   -1.5762 C   0  0  0  0  0  0  0  0  0  0  0  0
    1.4150   14.7302   -0.0837 C   0  0  1  0  0  0  0  0  0  0  0  0
    0.2179   14.9489    0.6342 O   0  0  0  0  0  0  0  0  0  0  0  0
    1.9587   13.4681    0.6087 C   0  0  1  0  0  0  0  0  0  0  0  0
    3.3242   13.1774    0.3615 O   0  0  0  0  0  0  0  0  0  0  0  0
    1.6671   13.7237    2.0872 C   0  0  1  0  0  0  0  0  0  0  0  0
    2.7491   14.3610    2.7431 O   0  0  0  0  0  0  0  0  0  0  0  0
    0.4998   14.7052    2.0008 C   0  0  2  0  0  0  0  0  0  0  0  0
   -0.7186   14.3079    2.7383 N   0  0  0  0  0  0  0  0  0  0  0  0
   -1.4864   13.1746    2.6472 C   0  0  0  0  0  0  0  0  0  0  0  0
   -2.5625   13.1988    3.3904 N   0  0  0  0  0  0  0  0  0  0  0  0
   -2.4961   14.4258    4.0437 C   0  0  0  0  0  0  0  0  0  0  0  0
   -3.4045   15.0485    4.9587 C   0  0  0  0  0  0  0  0  0  0  0  0
   -4.4934   14.6258    5.3418 O   0  0  0  0  0  0  0  0  0  0  0  0
   -2.9445   16.2893    5.4199 N   0  0  0  0  0  0  0  0  0  0  0  0
   -1.7243   16.8409    5.0595 C   0  0  0  0  0  0  0  0  0  0  0  0
   -1.3508   17.9816    5.6502 N   0  0  0  0  0  0  0  0  0  0  0  0
   -0.8980   16.2759    4.1640 N   0  0  0  0  0  0  0  0  0  0  0  0
   -1.3398   15.0793    3.6892 C   0  0  0  0  0  0  0  0  0  0  0  0
  1  2  2  0  0  0  0
  1  4  1  0  0  0  0
  1  3  1  0  0  0  0
  5  1  1  0  0  0  0
  6  7  2  6  0  0  0
  6  9  1  0  0  0  0
  6  5  1  0  0  0  0
  6  8  1  0  0  0  0
 10 11  2  6  0  0  0
 10 12  1  0  0  0  0
 10 13  1  0  0  0  0
 10  9  1  0  0  0  0
 13 14  1  0  0  0  0
 15 14  1  6  0  0  0
 15 16  1  0  0  0  0
 17 19  1  0  0  0  0
 17 15  1  0  0  0  0
 17 18  1  1  0  0  0
 19 21  1  0  0  0  0
 19 20  1  6  0  0  0
 21 16  1  0  0  0  0
 21 22  1  6  0  0  0
 22 32  1  0  0  0  0
 23 22  1  0  0  0  0
 23 24  2  0  0  0  0
 24 25  1  0  0  0  0
 25 26  1  0  0  0  0
 26 27  2  0  0  0  0
 26 28  1  0  0  0  0
 29 28  1  0  0  0  0
 29 30  1  0  0  0  0
 31 29  2  0  0  0  0
 32 25  2  0  0  0  0
 32 31  1  0  0  0  0
M  END
>  <CHROM.1>
175.23783689,75.98132703,-43.18675840,-51.66146893,7.98963763,-178.29500261
-168.83862945,-53.72330921,-44.22311697,67.61958890,0.62470544,13.21491508
-0.41454366,0.96818428,-0.86579871,-2.52673145

>  <Name>
lig.pdb

>  <RI>
2.0892e+07

>  <Rbt.Current_Directory>
/home/itssahil/PROJECTS/Mol_Feturizer/New_Systems/rnas/5lwj

>  <Rbt.Executable>
rbdock ($Id: //depot/dev/client3/rdock/2013.1/src/exe/rbdock.cxx#4 $)

>  <Rbt.Library>
libRbt.so (2013.1, Build901 2013/11/27)

>  <Rbt.Parameter_File>
/export/apps/rDock/src/rDock_2013.1_src/data/scripts/dock_solv.prm

>  <Rbt.Receptor>
prm/pocket_docking_8.prm

>  <SCORE>
-23.8366

>  <SCORE.INTER>
-19.757

>  <SCORE.INTER.CONST>
1

>  <SCORE.INTER.POLAR>
-2.19547

>  <SCORE.INTER.ROT>
8

>  <SCORE.INTER.SOLV>
14.2587

>  <SCORE.INTER.VDW>
-19.5393

>  <SCORE.INTER.norm>
-0.617407

>  <SCORE.INTRA>
-4.07956

>  <SCORE.INTRA.DIHEDRAL>
-3.49879

>  <SCORE.INTRA.DIHEDRAL.0>
10.9248

>  <SCORE.INTRA.POLAR>
-0.475886

>  <SCORE.INTRA.POLAR.0>
0

>  <SCORE.INTRA.REPUL>
0

>  <SCORE.INTRA.REPUL.0>
0

>  <SCORE.INTRA.SOLV>
0.0223553

>  <SCORE.INTRA.SOLV.lig_0>
-51.4104

>  <SCORE.INTRA.VDW>
-0.723328

>  <SCORE.INTRA.VDW.0>
0.110327

>  <SCORE.INTRA.norm>
-0.127486

>  <SCORE.RESTR>
0

>  <SCORE.RESTR.CAVITY>
0

>  <SCORE.RESTR.norm>
0

>  <SCORE.SYSTEM>
0

>  <SCORE.SYSTEM.CONST>
0

>  <SCORE.SYSTEM.DIHEDRAL>
0

>  <SCORE.SYSTEM.SOLV>
0

>  <SCORE.SYSTEM.norm>
0

>  <SCORE.heavy>
32

>  <SCORE.norm>
-0.744893

>  <RMSD>
7.563

$$$$
lig.pdb
 OpenBabel11021811523D
libRbt.so/2013.1/901 2013/11/27
 32 34  0  0  0  0  0  0  0  0999 V2000
   -2.5922   13.5646    2.0907 P   0  0  0  0  0  0  0  0  0  0  0  0
   -3.6734   13.1810    1.1100 O   0  0  0  0  0  0  0  0  0  0  0  0
   -3.3511   14.5888    3.0946 O   0  0  0  0  0  0  0  0  0  0  0  0
   -2.0551   12.5048    3.0200 O   0  0  0  0  0  0  0  0  0  0  0  0
   -1.4653   14.0087    1.2934 O   0  0  0  0  0  0  0  0  0  0  0  0
   -1.7005   15.3981    0.8355 P   0  0  1  0  0  0  0  0  0  0  0  0
   -0.5741   15.7915   -0.0433 O   0  0  0  0  0  0  0  0  0  0  0  0
   -2.9633   15.4717    0.0643 O   0  0  0  0  0  0  0  0  0  0  0  0
   -1.7770   16.2996    2.0124 O   0  0  0  0  0  0  0  0  0  0  0  0
   -0.5975   16.6165    2.8522 P   0  0  1  0  0  0  0  0  0  0  0  0
   -0.8354   17.6334    3.8967 O   0  0  0  0  0  0  0  0  0  0  0  0
    0.1925   15.4452    3.2928 O   0  0  0  0  0  0  0  0  0  0  0  0
    0.3738   17.4001    1.8221 O   0  0  0  0  0  0  0  0  0  0  0  0
    1.6753   17.8243    2.1811 C   0  0  0  0  0  0  0  0  0  0  0  0
    2.6992   16.6812    2.1452 C   0  0  1  0  0  0  0  0  0  0  0  0
    2.1129   15.5144    1.6056 O   0  0  0  0  0  0  0  0  0  0  0  0
    3.8608   16.9194    1.1645 C   0  0  1  0  0  0  0  0  0  0  0  0
    4.8637   17.8153    1.6135 O   0  0  0  0  0  0  0  0  0  0  0  0
    4.3982   15.5122    0.9058 C   0  0  1  0  0  0  0  0  0  0  0  0
    5.4349   15.1619    1.8057 O   0  0  0  0  0  0  0  0  0  0  0  0
    3.1709   14.6571    1.2156 C   0  0  2  0  0  0  0  0  0  0  0  0
    2.7487   13.7393    0.1361 N   0  0  0  0  0  0  0  0  0  0  0  0
    1.4979   13.4400   -0.3418 C   0  0  0  0  0  0  0  0  0  0  0  0
    1.4856   12.4985   -1.2496 N   0  0  0  0  0  0  0  0  0  0  0  0
    2.8266   12.1616   -1.4076 C   0  0  0  0  0  0  0  0  0  0  0  0
    3.4510   11.1686   -2.2285 C   0  0  0  0  0  0  0  0  0  0  0  0
    2.9046   10.3498   -2.9650 O   0  0  0  0  0  0  0  0  0  0  0  0
    4.8481   11.1747   -2.1194 N   0  0  0  0  0  0  0  0  0  0  0  0
    5.5552   12.0692   -1.3302 C   0  0  0  0  0  0  0  0  0  0  0  0
    6.8913   12.0432   -1.3929 N   0  0  0  0  0  0  0  0  0  0  0  0
    4.9632   12.9666   -0.5253 N   0  0  0  0  0  0  0  0  0  0  0  0
    3.6043   12.9599   -0.6027 C   0  0  0  0  0  0  0  0  0  0  0  0
  1  2  2  0  0  0  0
  1  4  1  0  0  0  0
  1  3  1  0  0  0  0
  5  1  1  0  0  0  0
  6  7  2  6  0  0  0
  6  9  1  0  0  0  0
  6  5  1  0  0  0  0
  6  8  1  0  0  0  0
 10 11  2  1  0  0  0
 10 12  1  0  0  0  0
 10 13  1  0  0  0  0
 10  9  1  0  0  0  0
 13 14  1  0  0  0  0
 15 14  1  6  0  0  0
 15 16  1  0  0  0  0
 17 19  1  0  0  0  0
 17 15  1  0  0  0  0
 17 18  1  1  0  0  0
 19 21  1  0  0  0  0
 19 20  1  1  0  0  0
 21 16  1  0  0  0  0
 21 22  1  6  0  0  0
 22 32  1  0  0  0  0
 23 22  1  0  0  0  0
 23 24  2  0  0  0  0
 24 25  1  0  0  0  0
 25 26  1  0  0  0  0
 26 27  2  0  0  0  0
 26 28  1  0  0  0  0
 29 28  1  0  0  0  0
 29 30  1  0  0  0  0
 31 29  2  0  0  0  0
 32 25  2  0  0  0  0
 32 31  1  0  0  0  0
M  END
>  <CHROM.1>
79.26705737,69.38475835,-176.54370997,-175.92353498,174.23749594,78.81492424
6.96218430,65.44702079,63.04775995,-13.18028387,1.10159284,14.57830185,0.92902012
2.62119253,0.17832513,0.58283030

>  <Name>
lig.pdb

>  <RI>
2.0892e+07

>  <Rbt.Current_Directory>
/home/itssahil/PROJECTS/Mol_Feturizer/New_Systems/rnas/5lwj

>  <Rbt.Executable>
rbdock ($Id: //depot/dev/client3/rdock/2013.1/src/exe/rbdock.cxx#4 $)

>  <Rbt.Library>
libRbt.so (2013.1, Build901 2013/11/27)

>  <Rbt.Parameter_File>
/export/apps/rDock/src/rDock_2013.1_src/data/scripts/dock_solv.prm

>  <Rbt.Receptor>
prm/pocket_docking_8.prm

>  <SCORE>
-26.216

>  <SCORE.INTER>
-22.9899

>  <SCORE.INTER.CONST>
1

>  <SCORE.INTER.POLAR>
-2.52866

>  <SCORE.INTER.ROT>
8

>  <SCORE.INTER.SOLV>
15.3401

>  <SCORE.INTER.VDW>
-20.9444

>  <SCORE.INTER.norm>
-0.718433

>  <SCORE.INTRA>
-3.22615

>  <SCORE.INTRA.DIHEDRAL>
-0.382708

>  <SCORE.INTRA.DIHEDRAL.0>
10.9248

>  <SCORE.INTRA.POLAR>
0

>  <SCORE.INTRA.POLAR.0>
0

>  <SCORE.INTRA.REPUL>
0.00965691

>  <SCORE.INTRA.REPUL.0>
0

>  <SCORE.INTRA.SOLV>
2.76431

>  <SCORE.INTRA.SOLV.lig_0>
-51.4104

>  <SCORE.INTRA.VDW>
-4.46524

>  <SCORE.INTRA.VDW.0>
0.110327

>  <SCORE.INTRA.norm>
-0.100817

>  <SCORE.RESTR>
0

>  <SCORE.RESTR.CAVITY>
0

>  <SCORE.RESTR.norm>
0

>  <SCORE.SYSTEM>
0

>  <SCORE.SYSTEM.CONST>
0

>  <SCORE.SYSTEM.DIHEDRAL>
0

>  <SCORE.SYSTEM.SOLV>
0

>  <SCORE.SYSTEM.norm>
0

>  <SCORE.heavy>
32

>  <SCORE.norm>
-0.81925

>  <RMSD>
7.721

$$$$
lig.pdb
 OpenBabel11021811523D
libRbt.so/2013.1/901 2013/11/27
 32 34  0  0  0  0  0  0  0  0999 V2000
   -1.4730   14.3465    3.5099 P   0  0  0  0  0  0  0  0  0  0  0  0
   -2.9409   14.1179    3.7762 O   0  0  0  0  0  0  0  0  0  0  0  0
   -1.4433   14.7656    1.9427 O   0  0  0  0  0  0  0  0  0  0  0  0
   -0.7908   15.5069    4.1906 O   0  0  0  0  0  0  0  0  0  0  0  0
   -0.7903   13.1528    3.9699 O   0  0  0  0  0  0  0  0  0  0  0  0
    0.3460   12.8540    3.0670 P   0  0  1  0  0  0  0  0  0  0  0  0
    1.0140   11.6252    3.5567 O   0  0  0  0  0  0  0  0  0  0  0  0
   -0.1476   12.6195    1.6901 O   0  0  0  0  0  0  0  0  0  0  0  0
    1.2949   13.9956    3.0733 O   0  0  0  0  0  0  0  0  0  0  0  0
    2.0766   14.3894    1.8771 P   0  0  1  0  0  0  0  0  0  0  0  0
    2.4089   13.2796    0.9607 O   0  0  0  0  0  0  0  0  0  0  0  0
    1.6234   15.6311    1.2117 O   0  0  0  0  0  0  0  0  0  0  0  0
    3.5211   14.7651    2.5026 O   0  0  0  0  0  0  0  0  0  0  0  0
    4.2523   15.9045    2.0908 C   0  0  0  0  0  0  0  0  0  0  0  0
    4.8070   15.7664    0.6661 C   0  0  1  0  0  0  0  0  0  0  0  0
    5.1744   14.4262    0.4108 O   0  0  0  0  0  0  0  0  0  0  0  0
    3.7588   16.0092   -0.4339 C   0  0  1  0  0  0  0  0  0  0  0  0
    3.4382   17.3680   -0.6812 O   0  0  0  0  0  0  0  0  0  0  0  0
    4.3602   15.3124   -1.6542 C   0  0  1  0  0  0  0  0  0  0  0  0
    5.1541   16.1896   -2.4335 O   0  0  0  0  0  0  0  0  0  0  0  0
    5.2732   14.2805   -0.9947 C   0  0  2  0  0  0  0  0  0  0  0  0
    5.0475   12.8787   -1.4069 N   0  0  0  0  0  0  0  0  0  0  0  0
    5.9382   11.8569   -1.6189 C   0  0  0  0  0  0  0  0  0  0  0  0
    5.3920   10.7603   -2.0772 N   0  0  0  0  0  0  0  0  0  0  0  0
    4.0358   11.0630   -2.1537 C   0  0  0  0  0  0  0  0  0  0  0  0
    2.9286   10.2841   -2.6201 C   0  0  0  0  0  0  0  0  0  0  0  0
    2.9550    9.1546   -3.1045 O   0  0  0  0  0  0  0  0  0  0  0  0
    1.7038   10.9538   -2.4964 N   0  0  0  0  0  0  0  0  0  0  0  0
    1.5704   12.2203   -1.9477 C   0  0  0  0  0  0  0  0  0  0  0  0
    0.3355   12.7090   -1.7866 N   0  0  0  0  0  0  0  0  0  0  0  0
    2.6167   12.9658   -1.5563 N   0  0  0  0  0  0  0  0  0  0  0  0
    3.8172   12.3384   -1.6895 C   0  0  0  0  0  0  0  0  0  0  0  0
  1  2  2  0  0  0  0
  1  4  1  0  0  0  0
  1  3  1  0  0  0  0
  5  1  1  0  0  0  0
  6  7  2  1  0  0  0
  6  9  1  0  0  0  0
  6  5  1  0  0  0  0
  6  8  1  0  0  0  0
 10 11  2  6  0  0  0
 10 12  1  0  0  0  0
 10 13  1  0  0  0  0
 10  9  1  0  0  0  0
 13 14  1  0  0  0  0
 15 14  1  1  0  0  0
 15 16  1  0  0  0  0
 17 19  1  0  0  0  0
 17 15  1  0  0  0  0
 17 18  1  6  0  0  0
 19 21  1  0  0  0  0
 19 20  1  6  0  0  0
 21 16  1  0  0  0  0
 21 22  1  1  0  0  0
 22 32  1  0  0  0  0
 23 22  1  0  0  0  0
 23 24  2  0  0  0  0
 24 25  1  0  0  0  0
 25 26  1  0  0  0  0
 26 27  2  0  0  0  0
 26 28  1  0  0  0  0
 29 28  1  0  0  0  0
 29 30  1  0  0  0  0
 31 29  2  0  0  0  0
 32 25  2  0  0  0  0
 32 31  1  0  0  0  0
M  END
>  <CHROM.1>
143.73830986,-146.60110109,-179.52848539,-137.08087172,-30.02456264,-70.28756768
-34.89393075,-61.17198540,-63.33624141,-93.15025191,2.11688178,13.63187364
0.64542806,2.56143677,0.61796683,0.60249131

>  <Name>
lig.pdb

>  <RI>
2.92062e+07

>  <Rbt.Current_Directory>
/home/itssahil/PROJECTS/Mol_Feturizer/New_Systems/rnas/5lwj

>  <Rbt.Executable>
rbdock ($Id: //depot/dev/client3/rdock/2013.1/src/exe/rbdock.cxx#4 $)

>  <Rbt.Library>
libRbt.so (2013.1, Build901 2013/11/27)

>  <Rbt.Parameter_File>
/export/apps/rDock/src/rDock_2013.1_src/data/scripts/dock_solv.prm

>  <Rbt.Receptor>
prm/pocket_docking_7.prm

>  <SCORE>
-29.4509

>  <SCORE.INTER>
-26.9308

>  <SCORE.INTER.CONST>
1

>  <SCORE.INTER.POLAR>
-2.72741

>  <SCORE.INTER.ROT>
8

>  <SCORE.INTER.SOLV>
16.5571

>  <SCORE.INTER.VDW>
-23.3149

>  <SCORE.INTER.norm>
-0.841588

>  <SCORE.INTRA>
-2.52004

>  <SCORE.INTRA.DIHEDRAL>
0.749498

>  <SCORE.INTRA.DIHEDRAL.0>
10.9248

>  <SCORE.INTRA.POLAR>
0

>  <SCORE.INTRA.POLAR.0>
0

>  <SCORE.INTRA.REPUL>
0

>  <SCORE.INTRA.REPUL.0>
0

>  <SCORE.INTRA.SOLV>
3.47994

>  <SCORE.INTRA.SOLV.lig_0>
-51.4104

>  <SCORE.INTRA.VDW>
-4.63476

>  <SCORE.INTRA.VDW.0>
0.110327

>  <SCORE.INTRA.norm>
-0.0787512

>  <SCORE.RESTR>
0

>  <SCORE.RESTR.CAVITY>
0

>  <SCORE.RESTR.norm>
0

>  <SCORE.SYSTEM>
0

>  <SCORE.SYSTEM.CONST>
0

>  <SCORE.SYSTEM.DIHEDRAL>
0

>  <SCORE.SYSTEM.SOLV>
0

>  <SCORE.SYSTEM.norm>
0

>  <SCORE.heavy>
32

>  <SCORE.norm>
-0.920339

>  <RMSD>
7.750

$$$$
lig.pdb
 OpenBabel11021811523D
libRbt.so/2013.1/901 2013/11/27
 32 34  0  0  0  0  0  0  0  0999 V2000
    0.4288   11.6031    5.6921 P   0  0  0  0  0  0  0  0  0  0  0  0
    0.1732   10.1419    5.4136 O   0  0  0  0  0  0  0  0  0  0  0  0
   -1.0382   12.1629    6.1007 O   0  0  0  0  0  0  0  0  0  0  0  0
    1.2819   11.9702    6.8806 O   0  0  0  0  0  0  0  0  0  0  0  0
    1.1198   12.1196    4.5265 O   0  0  0  0  0  0  0  0  0  0  0  0
    0.1575   12.8396    3.6598 P   0  0  1  0  0  0  0  0  0  0  0  0
   -0.9327   11.9018    3.3020 O   0  0  0  0  0  0  0  0  0  0  0  0
   -0.4179   13.9935    4.3893 O   0  0  0  0  0  0  0  0  0  0  0  0
    0.8532   13.3139    2.4373 O   0  0  0  0  0  0  0  0  0  0  0  0
    2.0333   14.2093    2.4878 P   0  0  1  0  0  0  0  0  0  0  0  0
    2.9527   13.9600    3.6167 O   0  0  0  0  0  0  0  0  0  0  0  0
    2.6965   14.4481    1.1866 O   0  0  0  0  0  0  0  0  0  0  0  0
    1.3814   15.6370    2.8820 O   0  0  0  0  0  0  0  0  0  0  0  0
    1.7572   16.8437    2.2452 C   0  0  0  0  0  0  0  0  0  0  0  0
    1.2090   16.9517    0.8155 C   0  0  1  0  0  0  0  0  0  0  0  0
   -0.1938   16.7828    0.8141 O   0  0  0  0  0  0  0  0  0  0  0  0
    1.3468   18.3566    0.2029 C   0  0  1  0  0  0  0  0  0  0  0  0
    2.6435   18.6956   -0.2594 O   0  0  0  0  0  0  0  0  0  0  0  0
    0.3023   18.3587   -0.9130 C   0  0  1  0  0  0  0  0  0  0  0  0
    0.8428   17.9349   -2.1521 O   0  0  0  0  0  0  0  0  0  0  0  0
   -0.6752   17.2955   -0.4155 C   0  0  2  0  0  0  0  0  0  0  0  0
   -2.0831   17.7322   -0.3012 N   0  0  0  0  0  0  0  0  0  0  0  0
   -2.6482   18.9719   -0.4628 C   0  0  0  0  0  0  0  0  0  0  0  0
   -3.9260   19.0152   -0.1868 N   0  0  0  0  0  0  0  0  0  0  0  0
   -4.2427   17.7053    0.1604 C   0  0  0  0  0  0  0  0  0  0  0  0
   -5.4761   17.1268    0.6010 C   0  0  0  0  0  0  0  0  0  0  0  0
   -6.5438   17.6998    0.8081 O   0  0  0  0  0  0  0  0  0  0  0  0
   -5.3803   15.7457    0.8186 N   0  0  0  0  0  0  0  0  0  0  0  0
   -4.2265   15.0091    0.5968 C   0  0  0  0  0  0  0  0  0  0  0  0
   -4.2914   13.6805    0.7391 N   0  0  0  0  0  0  0  0  0  0  0  0
   -3.0595   15.5637    0.2301 N   0  0  0  0  0  0  0  0  0  0  0  0
   -3.1292   16.9089    0.0349 C   0  0  0  0  0  0  0  0  0  0  0  0
  1  2  2  0  0  0  0
  1  4  1  0  0  0  0
  1  3  1  0  0  0  0
  5  1  1  0  0  0  0
  6  7  2  6  0  0  0
  6  9  1  0  0  0  0
  6  5  1  0  0  0  0
  6  8  1  0  0  0  0
 10 11  2  1  0  0  0
 10 12  1  0  0  0  0
 10 13  1  0  0  0  0
 10  9  1  0  0  0  0
 13 14  1  0  0  0  0
 15 14  1  1  0  0  0
 15 16  1  0  0  0  0
 17 19  1  0  0  0  0
 17 15  1  0  0  0  0
 17 18  1  6  0  0  0
 19 21  1  0  0  0  0
 19 20  1  6  0  0  0
 21 16  1  0  0  0  0
 21 22  1  1  0  0  0
 22 32  1  0  0  0  0
 23 22  1  0  0  0  0
 23 24  2  0  0  0  0
 24 25  1  0  0  0  0
 25 26  1  0  0  0  0
 26 27  2  0  0  0  0
 26 28  1  0  0  0  0
 29 28  1  0  0  0  0
 29 30  1  0  0  0  0
 31 29  2  0  0  0  0
 32 25  2  0  0  0  0
 32 31  1  0  0  0  0
M  END
>  <CHROM.1>
100.17560383,-57.89478617,-57.15535139,-136.05302553,36.18584379,73.08767061
54.84551573,-57.66331407,-62.75820605,118.06023613,-0.57957649,15.10626271
2.04757009,1.13849352,0.05408474,2.42270840

>  <Name>
lig.pdb

>  <RI>
2.0892e+07

>  <Rbt.Current_Directory>
/home/itssahil/PROJECTS/Mol_Feturizer/New_Systems/rnas/5lwj

>  <Rbt.Executable>
rbdock ($Id: //depot/dev/client3/rdock/2013.1/src/exe/rbdock.cxx#4 $)

>  <Rbt.Library>
libRbt.so (2013.1, Build901 2013/11/27)

>  <Rbt.Parameter_File>
/export/apps/rDock/src/rDock_2013.1_src/data/scripts/dock_solv.prm

>  <Rbt.Receptor>
prm/pocket_docking_8.prm

>  <SCORE>
-36.0829

>  <SCORE.INTER>
-32.0089

>  <SCORE.INTER.CONST>
1

>  <SCORE.INTER.POLAR>
-3.89459

>  <SCORE.INTER.ROT>
8

>  <SCORE.INTER.SOLV>
22.04

>  <SCORE.INTER.VDW>
-24.6373

>  <SCORE.INTER.norm>
-1.00028

>  <SCORE.INTRA>
-4.07469

>  <SCORE.INTRA.DIHEDRAL>
-2.77958

>  <SCORE.INTRA.DIHEDRAL.0>
10.9248

>  <SCORE.INTRA.POLAR>
0

>  <SCORE.INTRA.POLAR.0>
0

>  <SCORE.INTRA.REPUL>
0.00255308

>  <SCORE.INTRA.REPUL.0>
0

>  <SCORE.INTRA.SOLV>
-0.103832

>  <SCORE.INTRA.SOLV.lig_0>
-51.4104

>  <SCORE.INTRA.VDW>
-2.64575

>  <SCORE.INTRA.VDW.0>
0.110327

>  <SCORE.INTRA.norm>
-0.127334

>  <SCORE.RESTR>
0.000697434

>  <SCORE.RESTR.CAVITY>
0.000697434

>  <SCORE.RESTR.norm>
2.17948e-05

>  <SCORE.SYSTEM>
0

>  <SCORE.SYSTEM.CONST>
0

>  <SCORE.SYSTEM.DIHEDRAL>
0

>  <SCORE.SYSTEM.SOLV>
0

>  <SCORE.SYSTEM.norm>
0

>  <SCORE.heavy>
32

>  <SCORE.norm>
-1.12759

>  <RMSD>
7.763

$$$$
lig.pdb
 OpenBabel11021811523D
libRbt.so/2013.1/901 2013/11/27
 32 34  0  0  0  0  0  0  0  0999 V2000
   -1.5532   13.3644    3.9504 P   0  0  0  0  0  0  0  0  0  0  0  0
   -2.2125   14.0731    5.1085 O   0  0  0  0  0  0  0  0  0  0  0  0
   -1.5788   11.8079    4.4075 O   0  0  0  0  0  0  0  0  0  0  0  0
   -2.2640   13.3454    2.6202 O   0  0  0  0  0  0  0  0  0  0  0  0
   -0.2949   14.0488    3.7241 O   0  0  0  0  0  0  0  0  0  0  0  0
    0.6120   13.1719    2.9469 P   0  0  1  0  0  0  0  0  0  0  0  0
    0.8343   11.9312    3.7260 O   0  0  0  0  0  0  0  0  0  0  0  0
   -0.0094   12.8220    1.6484 O   0  0  0  0  0  0  0  0  0  0  0  0
    1.8991   13.8742    2.7152 O   0  0  0  0  0  0  0  0  0  0  0  0
    1.9686   15.2664    2.2112 P   0  0  1  0  0  0  0  0  0  0  0  0
    1.5171   15.4440    0.8161 O   0  0  0  0  0  0  0  0  0  0  0  0
    1.4911   16.3006    3.1559 O   0  0  0  0  0  0  0  0  0  0  0  0
    3.5618   15.5245    2.0941 O   0  0  0  0  0  0  0  0  0  0  0  0
    4.4909   14.4694    1.9324 C   0  0  0  0  0  0  0  0  0  0  0  0
    4.4494   13.8573    0.5253 C   0  0  1  0  0  0  0  0  0  0  0  0
    3.2026   13.2322    0.2990 O   0  0  0  0  0  0  0  0  0  0  0  0
    4.4766   14.9002   -0.6058 C   0  0  1  0  0  0  0  0  0  0  0  0
    5.7461   15.4682   -0.8809 O   0  0  0  0  0  0  0  0  0  0  0  0
    3.8977   14.1410   -1.7995 C   0  0  1  0  0  0  0  0  0  0  0  0
    4.9042   13.5078   -2.5696 O   0  0  0  0  0  0  0  0  0  0  0  0
    3.0663   13.0664   -1.1011 C   0  0  2  0  0  0  0  0  0  0  0  0
    1.6437   13.0069   -1.4993 N   0  0  0  0  0  0  0  0  0  0  0  0
    0.5157   13.4327   -0.8445 C   0  0  0  0  0  0  0  0  0  0  0  0
   -0.6009   13.1289   -1.4540 N   0  0  0  0  0  0  0  0  0  0  0  0
   -0.1889   12.4750   -2.6113 C   0  0  0  0  0  0  0  0  0  0  0  0
   -0.9475   11.8680   -3.6630 C   0  0  0  0  0  0  0  0  0  0  0  0
   -2.1696   11.7621   -3.7441 O   0  0  0  0  0  0  0  0  0  0  0  0
   -0.1398   11.3381   -4.6783 N   0  0  0  0  0  0  0  0  0  0  0  0
    1.2443   11.4232   -4.6849 C   0  0  0  0  0  0  0  0  0  0  0  0
    1.8969   10.9730   -5.7625 N   0  0  0  0  0  0  0  0  0  0  0  0
    1.9532   11.9504   -3.6733 N   0  0  0  0  0  0  0  0  0  0  0  0
    1.1845   12.4511   -2.6678 C   0  0  0  0  0  0  0  0  0  0  0  0
  1  2  2  0  0  0  0
  1  4  1  0  0  0  0
  1  3  1  0  0  0  0
  5  1  1  0  0  0  0
  6  7  2  1  0  0  0
  6  9  1  0  0  0  0
  6  5  1  0  0  0  0
  6  8  1  0  0  0  0
 10 11  2  6  0  0  0
 10 12  1  0  0  0  0
 10 13  1  0  0  0  0
 10  9  1  0  0  0  0
 13 14  1  0  0  0  0
 15 14  1  1  0  0  0
 15 16  1  0  0  0  0
 17 19  1  0  0  0  0
 17 15  1  0  0  0  0
 17 18  1  6  0  0  0
 19 21  1  0  0  0  0
 19 20  1  1  0  0  0
 21 16  1  0  0  0  0
 21 22  1  1  0  0  0
 22 32  1  0  0  0  0
 23 22  1  0  0  0  0
 23 24  2  0  0  0  0
 24 25  1  0  0  0  0
 25 26  1  0  0  0  0
 26 27  2  0  0  0  0
 26 28  1  0  0  0  0
 29 28  1  0  0  0  0
 29 30  1  0  0  0  0
 31 29  2  0  0  0  0
 32 25  2  0  0  0  0
 32 31  1  0  0  0  0
M  END
>  <CHROM.1>
160.76681603,-48.39466804,-59.77037360,24.59919534,-68.00295184,72.86025994
-65.10054812,179.89945365,56.62276892,19.98945476,1.23154608,13.44213542
0.39502792,1.85185088,0.38769399,1.26681809

>  <Name>
lig.pdb

>  <RI>
2.0892e+07

>  <Rbt.Current_Directory>
/home/itssahil/PROJECTS/Mol_Feturizer/New_Systems/rnas/5lwj

>  <Rbt.Executable>
rbdock ($Id: //depot/dev/client3/rdock/2013.1/src/exe/rbdock.cxx#4 $)

>  <Rbt.Library>
libRbt.so (2013.1, Build901 2013/11/27)

>  <Rbt.Parameter_File>
/export/apps/rDock/src/rDock_2013.1_src/data/scripts/dock_solv.prm

>  <Rbt.Receptor>
prm/pocket_docking_8.prm

>  <SCORE>
-33.4505

>  <SCORE.INTER>
-29.1159

>  <SCORE.INTER.CONST>
1

>  <SCORE.INTER.POLAR>
-2.93663

>  <SCORE.INTER.ROT>
8

>  <SCORE.INTER.SOLV>
15.8514

>  <SCORE.INTER.VDW>
-23.839

>  <SCORE.INTER.norm>
-0.909872

>  <SCORE.INTRA>
-4.33462

>  <SCORE.INTRA.DIHEDRAL>
-5.09657

>  <SCORE.INTRA.DIHEDRAL.0>
10.9248

>  <SCORE.INTRA.POLAR>
0

>  <SCORE.INTRA.POLAR.0>
0

>  <SCORE.INTRA.REPUL>
0.006406

>  <SCORE.INTRA.REPUL.0>
0

>  <SCORE.INTRA.SOLV>
3.09896

>  <SCORE.INTRA.SOLV.lig_0>
-51.4104

>  <SCORE.INTRA.VDW>
-3.36784

>  <SCORE.INTRA.VDW.0>
0.110327

>  <SCORE.INTRA.norm>
-0.135457

>  <SCORE.RESTR>
0

>  <SCORE.RESTR.CAVITY>
0

>  <SCORE.RESTR.norm>
0

>  <SCORE.SYSTEM>
0

>  <SCORE.SYSTEM.CONST>
0

>  <SCORE.SYSTEM.DIHEDRAL>
0

>  <SCORE.SYSTEM.SOLV>
0

>  <SCORE.SYSTEM.norm>
0

>  <SCORE.heavy>
32

>  <SCORE.norm>
-1.04533

>  <RMSD>
7.779

$$$$
lig.pdb
 OpenBabel11021811523D
libRbt.so/2013.1/901 2013/11/27
 32 34  0  0  0  0  0  0  0  0999 V2000
    2.5959   13.3442   -0.6599 P   0  0  0  0  0  0  0  0  0  0  0  0
    3.8072   12.8356    0.0831 O   0  0  0  0  0  0  0  0  0  0  0  0
    2.8073   14.9528   -0.6528 O   0  0  0  0  0  0  0  0  0  0  0  0
    2.4637   13.0198   -2.1270 O   0  0  0  0  0  0  0  0  0  0  0  0
    1.4456   12.7459   -0.0107 O   0  0  0  0  0  0  0  0  0  0  0  0
    1.0882   13.5375    1.1898 P   0  0  1  0  0  0  0  0  0  0  0  0
    2.3249   13.7762    1.9705 O   0  0  0  0  0  0  0  0  0  0  0  0
    0.5129   14.8414    0.7854 O   0  0  0  0  0  0  0  0  0  0  0  0
    0.1014   12.7832    2.0028 O   0  0  0  0  0  0  0  0  0  0  0  0
   -0.0043   12.9368    3.4733 P   0  0  1  0  0  0  0  0  0  0  0  0
    1.0797   12.2936    4.2433 O   0  0  0  0  0  0  0  0  0  0  0  0
   -0.3782   14.2913    3.9378 O   0  0  0  0  0  0  0  0  0  0  0  0
   -1.2820   12.0130    3.8377 O   0  0  0  0  0  0  0  0  0  0  0  0
   -1.5847   11.6273    5.1652 C   0  0  0  0  0  0  0  0  0  0  0  0
   -2.4896   12.6392    5.8817 C   0  0  1  0  0  0  0  0  0  0  0  0
   -2.5781   13.8342    5.1330 O   0  0  0  0  0  0  0  0  0  0  0  0
   -3.9664   12.2121    5.9485 C   0  0  1  0  0  0  0  0  0  0  0  0
   -4.2740   11.2320    6.9257 O   0  0  0  0  0  0  0  0  0  0  0  0
   -4.7046   13.5302    6.1809 C   0  0  1  0  0  0  0  0  0  0  0  0
   -4.8836   13.8071    7.5587 O   0  0  0  0  0  0  0  0  0  0  0  0
   -3.7134   14.5388    5.6031 C   0  0  2  0  0  0  0  0  0  0  0  0
   -4.2571   15.4374    4.5624 N   0  0  0  0  0  0  0  0  0  0  0  0
   -5.0630   16.5425    4.6706 C   0  0  0  0  0  0  0  0  0  0  0  0
   -5.4354   17.0449    3.5218 N   0  0  0  0  0  0  0  0  0  0  0  0
   -4.8139   16.2322    2.5785 C   0  0  0  0  0  0  0  0  0  0  0  0
   -4.8689   16.2493    1.1479 C   0  0  0  0  0  0  0  0  0  0  0  0
   -5.5343   16.9929    0.4298 O   0  0  0  0  0  0  0  0  0  0  0  0
   -4.0587   15.2673    0.5620 N   0  0  0  0  0  0  0  0  0  0  0  0
   -3.2600   14.3951    1.2860 C   0  0  0  0  0  0  0  0  0  0  0  0
   -2.4507   13.5736    0.6079 N   0  0  0  0  0  0  0  0  0  0  0  0
   -3.2487   14.3509    2.6283 N   0  0  0  0  0  0  0  0  0  0  0  0
   -4.0471   15.2846    3.2142 C   0  0  0  0  0  0  0  0  0  0  0  0
  1  2  2  0  0  0  0
  1  4  1  0  0  0  0
  1  3  1  0  0  0  0
  5  1  1  0  0  0  0
  6  7  2  1  0  0  0
  6  9  1  0  0  0  0
  6  5  1  0  0  0  0
  6  8  1  0  0  0  0
 10 11  2  1  0  0  0
 10 12  1  0  0  0  0
 10 13  1  0  0  0  0
 10  9  1  0  0  0  0
 13 14  1  0  0  0  0
 15 14  1  6  0  0  0
 15 16  1  0  0  0  0
 17 19  1  0  0  0  0
 17 15  1  0  0  0  0
 17 18  1  1  0  0  0
 19 21  1  0  0  0  0
 19 20  1  1  0  0  0
 21 16  1  0  0  0  0
 21 22  1  6  0  0  0
 22 32  1  0  0  0  0
 23 22  1  0  0  0  0
 23 24  2  0  0  0  0
 24 25  1  0  0  0  0
 25 26  1  0  0  0  0
 26 27  2  0  0  0  0
 26 28  1  0  0  0  0
 29 28  1  0  0  0  0
 29 30  1  0  0  0  0
 31 29  2  0  0  0  0
 32 25  2  0  0  0  0
 32 31  1  0  0  0  0
M  END
>  <CHROM.1>
82.52778511,151.31583099,-48.23636507,166.09582916,-74.31231495,89.14626704
-11.78040322,-176.17244547,-55.51260775,-159.09556676,-1.41297718,13.87695688
2.67930221,0.47656391,0.45399180,-1.05717558

>  <Name>
lig.pdb

>  <RI>
0

>  <Rbt.Current_Directory>
/home/itssahil/PROJECTS/Mol_Feturizer/New_Systems/rnas/5lwj

>  <Rbt.Executable>
rbdock ($Id: //depot/dev/client3/rdock/2013.1/src/exe/rbdock.cxx#4 $)

>  <Rbt.Library>
libRbt.so (2013.1, Build901 2013/11/27)

>  <Rbt.Parameter_File>
/export/apps/rDock/src/rDock_2013.1_src/data/scripts/dock_solv.prm

>  <Rbt.Receptor>
prm/pocket_docking_6.prm

>  <SCORE>
-32.3996

>  <SCORE.INTER>
-28.4471

>  <SCORE.INTER.CONST>
1

>  <SCORE.INTER.POLAR>
-2.53941

>  <SCORE.INTER.ROT>
8

>  <SCORE.INTER.SOLV>
22.7863

>  <SCORE.INTER.VDW>
-27.0288

>  <SCORE.INTER.norm>
-0.888972

>  <SCORE.INTRA>
-3.95247

>  <SCORE.INTRA.DIHEDRAL>
2.76988

>  <SCORE.INTRA.DIHEDRAL.0>
10.9248

>  <SCORE.INTRA.POLAR>
-0.939667

>  <SCORE.INTRA.POLAR.0>
0

>  <SCORE.INTRA.REPUL>
0.123626

>  <SCORE.INTRA.REPUL.0>
0

>  <SCORE.INTRA.SOLV>
3.04106

>  <SCORE.INTRA.SOLV.lig_0>
-51.4104

>  <SCORE.INTRA.VDW>
-4.2812

>  <SCORE.INTRA.VDW.0>
0.110327

>  <SCORE.INTRA.norm>
-0.123515

>  <SCORE.RESTR>
0

>  <SCORE.RESTR.CAVITY>
0

>  <SCORE.RESTR.norm>
0

>  <SCORE.SYSTEM>
0

>  <SCORE.SYSTEM.CONST>
0

>  <SCORE.SYSTEM.DIHEDRAL>
0

>  <SCORE.SYSTEM.SOLV>
0

>  <SCORE.SYSTEM.norm>
0

>  <SCORE.heavy>
32

>  <SCORE.norm>
-1.01249

>  <RMSD>
7.850

$$$$
lig.pdb
 OpenBabel11021811523D
libRbt.so/2013.1/901 2013/11/27
 32 34  0  0  0  0  0  0  0  0999 V2000
    0.3634   11.4118    5.6249 P   0  0  0  0  0  0  0  0  0  0  0  0
    0.3070    9.9043    5.6715 O   0  0  0  0  0  0  0  0  0  0  0  0
   -1.0936   11.8531    6.1862 O   0  0  0  0  0  0  0  0  0  0  0  0
    1.3196   12.1246    6.5484 O   0  0  0  0  0  0  0  0  0  0  0  0
    0.7732   11.7573    4.2775 O   0  0  0  0  0  0  0  0  0  0  0  0
   -0.2456   12.6396    3.6617 P   0  0  1  0  0  0  0  0  0  0  0  0
   -1.5088   11.8737    3.5434 O   0  0  0  0  0  0  0  0  0  0  0  0
   -0.4775   13.8240    4.5207 O   0  0  0  0  0  0  0  0  0  0  0  0
    0.2226   13.0743    2.3218 O   0  0  0  0  0  0  0  0  0  0  0  0
    1.4112   13.9398    2.1344 P   0  0  1  0  0  0  0  0  0  0  0  0
    2.4582   13.7867    3.1649 O   0  0  0  0  0  0  0  0  0  0  0  0
    1.9136   14.0242    0.7449 O   0  0  0  0  0  0  0  0  0  0  0  0
    0.8302   15.4170    2.4491 O   0  0  0  0  0  0  0  0  0  0  0  0
    1.6583   16.5637    2.4935 C   0  0  0  0  0  0  0  0  0  0  0  0
    0.8814   17.8391    2.8486 C   0  0  1  0  0  0  0  0  0  0  0  0
   -0.2362   17.9856    1.9967 O   0  0  0  0  0  0  0  0  0  0  0  0
    0.2062   17.7896    4.2304 C   0  0  1  0  0  0  0  0  0  0  0  0
    1.0676   17.9957    5.3375 O   0  0  0  0  0  0  0  0  0  0  0  0
   -0.8875   18.8523    4.1267 C   0  0  1  0  0  0  0  0  0  0  0  0
   -0.4405   20.1239    4.5630 O   0  0  0  0  0  0  0  0  0  0  0  0
   -1.1171   18.9049    2.6175 C   0  0  2  0  0  0  0  0  0  0  0  0
   -2.5132   18.6902    2.1806 N   0  0  0  0  0  0  0  0  0  0  0  0
   -3.5152   19.5909    1.9215 C   0  0  0  0  0  0  0  0  0  0  0  0
   -4.6691   19.0398    1.6466 N   0  0  0  0  0  0  0  0  0  0  0  0
   -4.4142   17.6729    1.7016 C   0  0  0  0  0  0  0  0  0  0  0  0
   -5.2877   16.5511    1.5332 C   0  0  0  0  0  0  0  0  0  0  0  0
   -6.5008   16.5659    1.3345 O   0  0  0  0  0  0  0  0  0  0  0  0
   -4.6198   15.3233    1.6349 N   0  0  0  0  0  0  0  0  0  0  0  0
   -3.2535   15.2043    1.8399 C   0  0  0  0  0  0  0  0  0  0  0  0
   -2.7178   13.9788    1.8120 N   0  0  0  0  0  0  0  0  0  0  0  0
   -2.4466   16.2580    2.0454 N   0  0  0  0  0  0  0  0  0  0  0  0
   -3.0832   17.4587    1.9713 C   0  0  0  0  0  0  0  0  0  0  0  0
  1  2  2  0  0  0  0
  1  4  1  0  0  0  0
  1  3  1  0  0  0  0
  5  1  1  0  0  0  0
  6  7  2  6  0  0  0
  6  9  1  0  0  0  0
  6  5  1  0  0  0  0
  6  8  1  0  0  0  0
 10 11  2  1  0  0  0
 10 12  1  0  0  0  0
 10 13  1  0  0  0  0
 10  9  1  0  0  0  0
 13 14  1  0  0  0  0
 15 14  1  6  0  0  0
 15 16  1  0  0  0  0
 17 19  1  0  0  0  0
 17 15  1  0  0  0  0
 17 18  1  1  0  0  0
 19 21  1  0  0  0  0
 19 20  1  6  0  0  0
 21 16  1  0  0  0  0
 21 22  1  1  0  0  0
 22 32  1  0  0  0  0
 23 22  1  0  0  0  0
 23 24  2  0  0  0  0
 24 25  1  0  0  0  0
 25 26  1  0  0  0  0
 26 27  2  0  0  0  0
 26 28  1  0  0  0  0
 29 28  1  0  0  0  0
 29 30  1  0  0  0  0
 31 29  2  0  0  0  0
 32 25  2  0  0  0  0
 32 31  1  0  0  0  0
M  END
>  <CHROM.1>
122.70548566,-65.46458834,-63.92686344,174.84923685,30.03216895,-178.40445330
-52.15976957,-160.12723957,62.90923819,-142.43951346,-0.86408265,15.16818451
3.21055120,1.03841646,0.31717326,2.95805816

>  <Name>
lig.pdb

>  <RI>
2.0892e+07

>  <Rbt.Current_Directory>
/home/itssahil/PROJECTS/Mol_Feturizer/New_Systems/rnas/5lwj

>  <Rbt.Executable>
rbdock ($Id: //depot/dev/client3/rdock/2013.1/src/exe/rbdock.cxx#4 $)

>  <Rbt.Library>
libRbt.so (2013.1, Build901 2013/11/27)

>  <Rbt.Parameter_File>
/export/apps/rDock/src/rDock_2013.1_src/data/scripts/dock_solv.prm

>  <Rbt.Receptor>
prm/pocket_docking_8.prm

>  <SCORE>
-38.1133

>  <SCORE.INTER>
-34.8732

>  <SCORE.INTER.CONST>
1

>  <SCORE.INTER.POLAR>
-3.82049

>  <SCORE.INTER.ROT>
8

>  <SCORE.INTER.SOLV>
22.4473

>  <SCORE.INTER.VDW>
-26.9296

>  <SCORE.INTER.norm>
-1.08979

>  <SCORE.INTRA>
-3.27159

>  <SCORE.INTRA.DIHEDRAL>
-2.90471

>  <SCORE.INTRA.DIHEDRAL.0>
10.9248

>  <SCORE.INTRA.POLAR>
-1

>  <SCORE.INTRA.POLAR.0>
0

>  <SCORE.INTRA.REPUL>
1

>  <SCORE.INTRA.REPUL.0>
0

>  <SCORE.INTRA.SOLV>
2.46564

>  <SCORE.INTRA.SOLV.lig_0>
-51.4104

>  <SCORE.INTRA.VDW>
-4.65206

>  <SCORE.INTRA.VDW.0>
0.110327

>  <SCORE.INTRA.norm>
-0.102237

>  <SCORE.RESTR>
0.0314752

>  <SCORE.RESTR.CAVITY>
0.0314752

>  <SCORE.RESTR.norm>
0.000983601

>  <SCORE.SYSTEM>
0

>  <SCORE.SYSTEM.CONST>
0

>  <SCORE.SYSTEM.DIHEDRAL>
0

>  <SCORE.SYSTEM.SOLV>
0

>  <SCORE.SYSTEM.norm>
0

>  <SCORE.heavy>
32

>  <SCORE.norm>
-1.19104

>  <RMSD>
7.919

$$$$
lig.pdb
 OpenBabel11021811523D
libRbt.so/2013.1/901 2013/11/27
 32 34  0  0  0  0  0  0  0  0999 V2000
   -1.1880   12.1563    4.7956 P   0  0  0  0  0  0  0  0  0  0  0  0
   -1.9463   12.4522    6.0666 O   0  0  0  0  0  0  0  0  0  0  0  0
   -0.5487   10.6923    5.0798 O   0  0  0  0  0  0  0  0  0  0  0  0
   -1.9705   11.9502    3.5227 O   0  0  0  0  0  0  0  0  0  0  0  0
   -0.3335   13.3041    4.5608 O   0  0  0  0  0  0  0  0  0  0  0  0
    0.5040   13.0603    3.3630 P   0  0  1  0  0  0  0  0  0  0  0  0
    1.0259   11.6754    3.4388 O   0  0  0  0  0  0  0  0  0  0  0  0
   -0.3125   13.2024    2.1351 O   0  0  0  0  0  0  0  0  0  0  0  0
    1.6242   14.0340    3.3373 O   0  0  0  0  0  0  0  0  0  0  0  0
    2.2851   14.4563    2.0796 P   0  0  1  0  0  0  0  0  0  0  0  0
    3.7542   14.5846    2.1641 O   0  0  0  0  0  0  0  0  0  0  0  0
    1.7882   13.7904    0.8550 O   0  0  0  0  0  0  0  0  0  0  0  0
    1.8121   15.9964    1.9276 O   0  0  0  0  0  0  0  0  0  0  0  0
    2.3850   16.8752    0.9777 C   0  0  0  0  0  0  0  0  0  0  0  0
    1.7711   16.7146   -0.4200 C   0  0  1  0  0  0  0  0  0  0  0  0
    2.2137   15.5118   -1.0147 O   0  0  0  0  0  0  0  0  0  0  0  0
    0.2468   16.5049   -0.4076 C   0  0  1  0  0  0  0  0  0  0  0  0
   -0.5275   17.6729   -0.1923 O   0  0  0  0  0  0  0  0  0  0  0  0
   -0.0306   15.8535   -1.7622 C   0  0  1  0  0  0  0  0  0  0  0  0
   -0.3266   16.8097   -2.7648 O   0  0  0  0  0  0  0  0  0  0  0  0
    1.3224   15.2176   -2.0757 C   0  0  2  0  0  0  0  0  0  0  0  0
    1.2901   13.7678   -2.3640 N   0  0  0  0  0  0  0  0  0  0  0  0
    0.2285   12.9193   -2.5522 C   0  0  0  0  0  0  0  0  0  0  0  0
    0.5680   11.6640   -2.6924 N   0  0  0  0  0  0  0  0  0  0  0  0
    1.9575   11.6777   -2.6172 C   0  0  0  0  0  0  0  0  0  0  0  0
    2.9071   10.6070   -2.6602 C   0  0  0  0  0  0  0  0  0  0  0  0
    2.6781    9.4017   -2.7376 O   0  0  0  0  0  0  0  0  0  0  0  0
    4.2330   11.0543   -2.5844 N   0  0  0  0  0  0  0  0  0  0  0  0
    4.5918   12.3919   -2.5125 C   0  0  0  0  0  0  0  0  0  0  0  0
    5.8937   12.6969   -2.5525 N   0  0  0  0  0  0  0  0  0  0  0  0
    3.6967   13.3893   -2.4237 N   0  0  0  0  0  0  0  0  0  0  0  0
    2.4026   12.9706   -2.4743 C   0  0  0  0  0  0  0  0  0  0  0  0
  1  2  2  0  0  0  0
  1  4  1  0  0  0  0
  1  3  1  0  0  0  0
  5  1  1  0  0  0  0
  6  7  2  1  0  0  0
  6  9  1  0  0  0  0
  6  5  1  0  0  0  0
  6  8  1  0  0  0  0
 10 11  2  1  0  0  0
 10 12  1  0  0  0  0
 10 13  1  0  0  0  0
 10  9  1  0  0  0  0
 13 14  1  0  0  0  0
 15 14  1  1  0  0  0
 15 16  1  0  0  0  0
 17 19  1  0  0  0  0
 17 15  1  0  0  0  0
 17 18  1  6  0  0  0
 19 21  1  0  0  0  0
 19 20  1  6  0  0  0
 21 16  1  0  0  0  0
 21 22  1  1  0  0  0
 22 32  1  0  0  0  0
 23 22  1  0  0  0  0
 23 24  2  0  0  0  0
 24 25  1  0  0  0  0
 25 26  1  0  0  0  0
 26 27  2  0  0  0  0
 26 28  1  0  0  0  0
 29 28  1  0  0  0  0
 29 30  1  0  0  0  0
 31 29  2  0  0  0  0
 32 25  2  0  0  0  0
 32 31  1  0  0  0  0
M  END
>  <CHROM.1>
176.95647553,-153.61529526,-43.99263241,169.12614773,-139.37362910,82.40824059
-73.03160404,-65.33248532,-179.27880810,132.88517559,1.25409772,13.57491462
0.67068423,-2.66842489,1.07437759,-0.44394545

>  <Name>
lig.pdb

>  <RI>
1.82117e+07

>  <Rbt.Current_Directory>
/home/itssahil/PROJECTS/Mol_Feturizer/New_Systems/rnas/5lwj

>  <Rbt.Executable>
rbdock ($Id: //depot/dev/client3/rdock/2013.1/src/exe/rbdock.cxx#4 $)

>  <Rbt.Library>
libRbt.so (2013.1, Build901 2013/11/27)

>  <Rbt.Parameter_File>
/export/apps/rDock/src/rDock_2013.1_src/data/scripts/dock_solv.prm

>  <Rbt.Receptor>
prm/pocket_docking_5.prm

>  <SCORE>
-29.0633

>  <SCORE.INTER>
-27.8071

>  <SCORE.INTER.CONST>
1

>  <SCORE.INTER.POLAR>
-3.07632

>  <SCORE.INTER.ROT>
8

>  <SCORE.INTER.SOLV>
18.2098

>  <SCORE.INTER.VDW>
-23.2869

>  <SCORE.INTER.norm>
-0.868972

>  <SCORE.INTRA>
-1.79001

>  <SCORE.INTRA.DIHEDRAL>
-1.58992

>  <SCORE.INTRA.DIHEDRAL.0>
10.9248

>  <SCORE.INTRA.POLAR>
0

>  <SCORE.INTRA.POLAR.0>
0

>  <SCORE.INTRA.REPUL>
0.0833801

>  <SCORE.INTRA.REPUL.0>
0

>  <SCORE.INTRA.SOLV>
-0.704381

>  <SCORE.INTRA.SOLV.lig_0>
-51.4104

>  <SCORE.INTRA.VDW>
-1.05976

>  <SCORE.INTRA.VDW.0>
0.110327

>  <SCORE.INTRA.norm>
-0.0559378

>  <SCORE.RESTR>
0.533779

>  <SCORE.RESTR.CAVITY>
0.533779

>  <SCORE.RESTR.norm>
0.0166806

>  <SCORE.SYSTEM>
0

>  <SCORE.SYSTEM.CONST>
0

>  <SCORE.SYSTEM.DIHEDRAL>
0

>  <SCORE.SYSTEM.SOLV>
0

>  <SCORE.SYSTEM.norm>
0

>  <SCORE.heavy>
32

>  <SCORE.norm>
-0.908229

>  <RMSD>
7.935

$$$$
lig.pdb
 OpenBabel11021811523D
libRbt.so/2013.1/901 2013/11/27
 32 34  0  0  0  0  0  0  0  0999 V2000
   -0.0420   13.1995    3.2424 P   0  0  0  0  0  0  0  0  0  0  0  0
    0.6809   11.9478    3.6769 O   0  0  0  0  0  0  0  0  0  0  0  0
   -1.0297   13.5077    4.4922 O   0  0  0  0  0  0  0  0  0  0  0  0
    0.7496   14.4760    3.1050 O   0  0  0  0  0  0  0  0  0  0  0  0
   -0.5801   12.9165    1.9260 O   0  0  0  0  0  0  0  0  0  0  0  0
   -1.7245   13.8180    1.6553 P   0  0  1  0  0  0  0  0  0  0  0  0
   -2.7915   13.5177    2.6389 O   0  0  0  0  0  0  0  0  0  0  0  0
   -1.3063   15.2305    1.8124 O   0  0  0  0  0  0  0  0  0  0  0  0
   -2.2165   13.5901    0.2734 O   0  0  0  0  0  0  0  0  0  0  0  0
   -1.3279   13.6588   -0.9110 P   0  0  1  0  0  0  0  0  0  0  0  0
    0.0983   13.3944   -0.6321 O   0  0  0  0  0  0  0  0  0  0  0  0
   -1.8549   13.0056   -2.1299 O   0  0  0  0  0  0  0  0  0  0  0  0
   -1.3240   15.2382   -1.2631 O   0  0  0  0  0  0  0  0  0  0  0  0
   -1.1012   15.7220   -2.5742 C   0  0  0  0  0  0  0  0  0  0  0  0
    0.2882   15.3515   -3.1116 C   0  0  1  0  0  0  0  0  0  0  0  0
    1.2624   15.5057   -2.0999 O   0  0  0  0  0  0  0  0  0  0  0  0
    0.4420   13.8599   -3.4571 C   0  0  1  0  0  0  0  0  0  0  0  0
   -0.1490   13.4534   -4.6801 O   0  0  0  0  0  0  0  0  0  0  0  0
    1.9553   13.6465   -3.4324 C   0  0  1  0  0  0  0  0  0  0  0  0
    2.5439   13.8426   -4.7060 O   0  0  0  0  0  0  0  0  0  0  0  0
    2.4055   14.7742   -2.5056 C   0  0  2  0  0  0  0  0  0  0  0  0
    3.2153   14.3538   -1.3422 N   0  0  0  0  0  0  0  0  0  0  0  0
    3.5119   13.1010   -0.8680 C   0  0  0  0  0  0  0  0  0  0  0  0
    4.1827   13.1013    0.2549 N   0  0  0  0  0  0  0  0  0  0  0  0
    4.3691   14.4509    0.5385 C   0  0  0  0  0  0  0  0  0  0  0  0
    4.9953   15.0944    1.6538 C   0  0  0  0  0  0  0  0  0  0  0  0
    5.4839   14.5652    2.6500 O   0  0  0  0  0  0  0  0  0  0  0  0
    5.0034   16.4911    1.5399 N   0  0  0  0  0  0  0  0  0  0  0  0
    4.4933   17.1779    0.4485 C   0  0  0  0  0  0  0  0  0  0  0  0
    4.6561   18.5052    0.4086 N   0  0  0  0  0  0  0  0  0  0  0  0
    3.8639   16.5729   -0.5721 N   0  0  0  0  0  0  0  0  0  0  0  0
    3.8281   15.2163   -0.4672 C   0  0  0  0  0  0  0  0  0  0  0  0
  1  2  2  0  0  0  0
  1  4  1  0  0  0  0
  1  3  1  0  0  0  0
  5  1  1  0  0  0  0
  6  7  2  1  0  0  0
  6  9  1  0  0  0  0
  6  5  1  0  0  0  0
  6  8  1  0  0  0  0
 10 11  2  1  0  0  0
 10 12  1  0  0  0  0
 10 13  1  0  0  0  0
 10  9  1  0  0  0  0
 13 14  1  0  0  0  0
 15 14  1  1  0  0  0
 15 16  1  0  0  0  0
 17 19  1  0  0  0  0
 17 15  1  0  0  0  0
 17 18  1  6  0  0  0
 19 21  1  0  0  0  0
 19 20  1  6  0  0  0
 21 16  1  0  0  0  0
 21 22  1  1  0  0  0
 22 32  1  0  0  0  0
 23 22  1  0  0  0  0
 23 24  2  0  0  0  0
 24 25  1  0  0  0  0
 25 26  1  0  0  0  0
 26 27  2  0  0  0  0
 26 28  1  0  0  0  0
 29 28  1  0  0  0  0
 29 30  1  0  0  0  0
 31 29  2  0  0  0  0
 32 25  2  0  0  0  0
 32 31  1  0  0  0  0
M  END
>  <CHROM.1>
157.12922908,-53.95070768,-63.49605839,-152.77545502,24.87542396,-62.23776913
-41.26326830,-66.41697926,-177.63678244,116.03715266,0.99511959,14.33476723
0.03511075,-2.67155863,-0.31867330,-1.50709697

>  <Name>
lig.pdb

>  <RI>
2.92062e+07

>  <Rbt.Current_Directory>
/home/itssahil/PROJECTS/Mol_Feturizer/New_Systems/rnas/5lwj

>  <Rbt.Executable>
rbdock ($Id: //depot/dev/client3/rdock/2013.1/src/exe/rbdock.cxx#4 $)

>  <Rbt.Library>
libRbt.so (2013.1, Build901 2013/11/27)

>  <Rbt.Parameter_File>
/export/apps/rDock/src/rDock_2013.1_src/data/scripts/dock_solv.prm

>  <Rbt.Receptor>
prm/pocket_docking_7.prm

>  <SCORE>
-28.8587

>  <SCORE.INTER>
-24.6721

>  <SCORE.INTER.CONST>
1

>  <SCORE.INTER.POLAR>
-3.32612

>  <SCORE.INTER.ROT>
8

>  <SCORE.INTER.SOLV>
14.7761

>  <SCORE.INTER.VDW>
-19.2197

>  <SCORE.INTER.norm>
-0.771002

>  <SCORE.INTRA>
-4.18663

>  <SCORE.INTRA.DIHEDRAL>
-4.03248

>  <SCORE.INTRA.DIHEDRAL.0>
10.9248

>  <SCORE.INTRA.POLAR>
0

>  <SCORE.INTRA.POLAR.0>
0

>  <SCORE.INTRA.REPUL>
0

>  <SCORE.INTRA.REPUL.0>
0

>  <SCORE.INTRA.SOLV>
2.36855

>  <SCORE.INTRA.SOLV.lig_0>
-51.4104

>  <SCORE.INTRA.VDW>
-3.35467

>  <SCORE.INTRA.VDW.0>
0.110327

>  <SCORE.INTRA.norm>
-0.130832

>  <SCORE.RESTR>
0

>  <SCORE.RESTR.CAVITY>
0

>  <SCORE.RESTR.norm>
0

>  <SCORE.SYSTEM>
0

>  <SCORE.SYSTEM.CONST>
0

>  <SCORE.SYSTEM.DIHEDRAL>
0

>  <SCORE.SYSTEM.SOLV>
0

>  <SCORE.SYSTEM.norm>
0

>  <SCORE.heavy>
32

>  <SCORE.norm>
-0.901834

>  <RMSD>
7.940

$$$$
lig.pdb
 OpenBabel11021811523D
libRbt.so/2013.1/901 2013/11/27
 32 34  0  0  0  0  0  0  0  0999 V2000
   -2.7723   14.8845    4.1228 P   0  0  0  0  0  0  0  0  0  0  0  0
   -3.5249   16.1722    4.3538 O   0  0  0  0  0  0  0  0  0  0  0  0
   -1.2732   15.2365    4.6339 O   0  0  0  0  0  0  0  0  0  0  0  0
   -3.1434   13.6768    4.9468 O   0  0  0  0  0  0  0  0  0  0  0  0
   -3.0163   14.5187    2.7410 O   0  0  0  0  0  0  0  0  0  0  0  0
   -1.9514   13.5984    2.2776 P   0  0  1  0  0  0  0  0  0  0  0  0
   -2.0341   12.3554    3.0801 O   0  0  0  0  0  0  0  0  0  0  0  0
   -2.1546   13.2653    0.8485 O   0  0  0  0  0  0  0  0  0  0  0  0
   -0.6271   14.2440    2.4599 O   0  0  0  0  0  0  0  0  0  0  0  0
    0.6487   13.5098    2.2863 P   0  0  1  0  0  0  0  0  0  0  0  0
    1.0090   12.6191    3.4081 O   0  0  0  0  0  0  0  0  0  0  0  0
    0.8631   12.9330    0.9404 O   0  0  0  0  0  0  0  0  0  0  0  0
    1.7556   14.6840    2.4084 O   0  0  0  0  0  0  0  0  0  0  0  0
    3.1431   14.4333    2.2879 C   0  0  0  0  0  0  0  0  0  0  0  0
    3.6105   14.3924    0.8263 C   0  0  1  0  0  0  0  0  0  0  0  0
    3.4209   13.1004    0.2867 O   0  0  0  0  0  0  0  0  0  0  0  0
    2.7531   15.2474   -0.1233 C   0  0  1  0  0  0  0  0  0  0  0  0
    2.9974   16.6431   -0.0751 O   0  0  0  0  0  0  0  0  0  0  0  0
    3.0409   14.6442   -1.4979 C   0  0  1  0  0  0  0  0  0  0  0  0
    4.1235   15.2868   -2.1477 O   0  0  0  0  0  0  0  0  0  0  0  0
    3.4664   13.2257   -1.1235 C   0  0  2  0  0  0  0  0  0  0  0  0
    2.7088   12.1413   -1.7840 N   0  0  0  0  0  0  0  0  0  0  0  0
    3.1318   10.9389   -2.2914 C   0  0  0  0  0  0  0  0  0  0  0  0
    2.1956   10.2588   -2.9012 N   0  0  0  0  0  0  0  0  0  0  0  0
    1.0598   11.0523   -2.7703 C   0  0  0  0  0  0  0  0  0  0  0  0
   -0.2714   10.8684   -3.2641 C   0  0  0  0  0  0  0  0  0  0  0  0
   -0.6929    9.9519   -3.9668 O   0  0  0  0  0  0  0  0  0  0  0  0
   -1.1403   11.8981   -2.8783 N   0  0  0  0  0  0  0  0  0  0  0  0
   -0.7634   12.9630   -2.0740 C   0  0  0  0  0  0  0  0  0  0  0  0
   -1.7106   13.8250   -1.6872 N   0  0  0  0  0  0  0  0  0  0  0  0
    0.4973   13.1565   -1.6535 N   0  0  0  0  0  0  0  0  0  0  0  0
    1.3598   12.1761   -2.0375 C   0  0  0  0  0  0  0  0  0  0  0  0
  1  2  2  0  0  0  0
  1  4  1  0  0  0  0
  1  3  1  0  0  0  0
  5  1  1  0  0  0  0
  6  7  2  1  0  0  0
  6  9  1  0  0  0  0
  6  5  1  0  0  0  0
  6  8  1  0  0  0  0
 10 11  2  1  0  0  0
 10 12  1  0  0  0  0
 10 13  1  0  0  0  0
 10  9  1  0  0  0  0
 13 14  1  0  0  0  0
 15 14  1  1  0  0  0
 15 16  1  0  0  0  0
 17 19  1  0  0  0  0
 17 15  1  0  0  0  0
 17 18  1  6  0  0  0
 19 21  1  0  0  0  0
 19 20  1  1  0  0  0
 21 16  1  0  0  0  0
 21 22  1  6  0  0  0
 22 32  1  0  0  0  0
 23 22  1  0  0  0  0
 23 24  2  0  0  0  0
 24 25  1  0  0  0  0
 25 26  1  0  0  0  0
 26 27  2  0  0  0  0
 26 28  1  0  0  0  0
 29 28  1  0  0  0  0
 29 30  1  0  0  0  0
 31 29  2  0  0  0  0
 32 25  2  0  0  0  0
 32 31  1  0  0  0  0
M  END
>  <CHROM.1>
158.65410902,170.45620306,63.55047130,-179.32797574,-76.60292434,83.46143749
-85.33309752,68.24489194,-177.28508470,-95.21565357,0.27681789,13.49335098
0.66380531,2.19314739,0.30865232,1.02290511

>  <Name>
lig.pdb

>  <RI>
2.92062e+07

>  <Rbt.Current_Directory>
/home/itssahil/PROJECTS/Mol_Feturizer/New_Systems/rnas/5lwj

>  <Rbt.Executable>
rbdock ($Id: //depot/dev/client3/rdock/2013.1/src/exe/rbdock.cxx#4 $)

>  <Rbt.Library>
libRbt.so (2013.1, Build901 2013/11/27)

>  <Rbt.Parameter_File>
/export/apps/rDock/src/rDock_2013.1_src/data/scripts/dock_solv.prm

>  <Rbt.Receptor>
prm/pocket_docking_7.prm

>  <SCORE>
-31.8381

>  <SCORE.INTER>
-26.5374

>  <SCORE.INTER.CONST>
1

>  <SCORE.INTER.POLAR>
-2.93764

>  <SCORE.INTER.ROT>
8

>  <SCORE.INTER.SOLV>
14.009

>  <SCORE.INTER.VDW>
-21.5025

>  <SCORE.INTER.norm>
-0.829292

>  <SCORE.INTRA>
-5.30072

>  <SCORE.INTRA.DIHEDRAL>
-2.80392

>  <SCORE.INTRA.DIHEDRAL.0>
10.9248

>  <SCORE.INTRA.POLAR>
-0.0548695

>  <SCORE.INTRA.POLAR.0>
0

>  <SCORE.INTRA.REPUL>
0.01443

>  <SCORE.INTRA.REPUL.0>
0

>  <SCORE.INTRA.SOLV>
1.91725

>  <SCORE.INTRA.SOLV.lig_0>
-51.4104

>  <SCORE.INTRA.VDW>
-4.74298

>  <SCORE.INTRA.VDW.0>
0.110327

>  <SCORE.INTRA.norm>
-0.165647

>  <SCORE.RESTR>
0

>  <SCORE.RESTR.CAVITY>
0

>  <SCORE.RESTR.norm>
0

>  <SCORE.SYSTEM>
0

>  <SCORE.SYSTEM.CONST>
0

>  <SCORE.SYSTEM.DIHEDRAL>
0

>  <SCORE.SYSTEM.SOLV>
0

>  <SCORE.SYSTEM.norm>
0

>  <SCORE.heavy>
32

>  <SCORE.norm>
-0.99494

>  <RMSD>
7.964

$$$$
lig.pdb
 OpenBabel11021811523D
libRbt.so/2013.1/901 2013/11/27
 32 34  0  0  0  0  0  0  0  0999 V2000
   -0.1418   11.7170    5.9568 P   0  0  0  0  0  0  0  0  0  0  0  0
    0.9489   11.8479    6.9918 O   0  0  0  0  0  0  0  0  0  0  0  0
    0.0870   10.2229    5.3668 O   0  0  0  0  0  0  0  0  0  0  0  0
   -1.5759   11.6883    6.4230 O   0  0  0  0  0  0  0  0  0  0  0  0
   -0.0217   12.8786    5.0971 O   0  0  0  0  0  0  0  0  0  0  0  0
   -0.3945   12.5089    3.7115 P   0  0  1  0  0  0  0  0  0  0  0  0
    0.6389   11.5860    3.1860 O   0  0  0  0  0  0  0  0  0  0  0  0
   -1.7059   11.8198    3.7052 O   0  0  0  0  0  0  0  0  0  0  0  0
   -0.4663   13.7339    2.8760 O   0  0  0  0  0  0  0  0  0  0  0  0
    0.7100   14.2798    2.1582 P   0  0  1  0  0  0  0  0  0  0  0  0
    1.7024   14.9557    3.0185 O   0  0  0  0  0  0  0  0  0  0  0  0
    1.2856   13.3882    1.1268 O   0  0  0  0  0  0  0  0  0  0  0  0
    0.0780   15.5143    1.3244 O   0  0  0  0  0  0  0  0  0  0  0  0
    0.0098   15.5183   -0.0891 C   0  0  0  0  0  0  0  0  0  0  0  0
   -0.8181   16.6894   -0.6365 C   0  0  1  0  0  0  0  0  0  0  0  0
   -2.1984   16.4214   -0.4973 O   0  0  0  0  0  0  0  0  0  0  0  0
   -0.6758   17.9851    0.1811 C   0  0  1  0  0  0  0  0  0  0  0  0
    0.5191   18.7161   -0.0380 O   0  0  0  0  0  0  0  0  0  0  0  0
   -1.9293   18.7765   -0.1912 C   0  0  1  0  0  0  0  0  0  0  0  0
   -1.7112   19.6343   -1.2974 O   0  0  0  0  0  0  0  0  0  0  0  0
   -2.8783   17.6582   -0.6180 C   0  0  2  0  0  0  0  0  0  0  0  0
   -4.1787   17.6273    0.0848 N   0  0  0  0  0  0  0  0  0  0  0  0
   -5.3325   18.3340   -0.1427 C   0  0  0  0  0  0  0  0  0  0  0  0
   -6.2700   18.1236    0.7447 N   0  0  0  0  0  0  0  0  0  0  0  0
   -5.7118   17.1908    1.6136 C   0  0  0  0  0  0  0  0  0  0  0  0
   -6.2316   16.5975    2.8085 C   0  0  0  0  0  0  0  0  0  0  0  0
   -7.3078   16.8284    3.3559 O   0  0  0  0  0  0  0  0  0  0  0  0
   -5.3531   15.6660    3.3781 N   0  0  0  0  0  0  0  0  0  0  0  0
   -4.1271   15.3259    2.8265 C   0  0  0  0  0  0  0  0  0  0  0  0
   -3.4267   14.3449    3.4069 N   0  0  0  0  0  0  0  0  0  0  0  0
   -3.6231   15.9201    1.7325 N   0  0  0  0  0  0  0  0  0  0  0  0
   -4.4549   16.8438    1.1780 C   0  0  0  0  0  0  0  0  0  0  0  0
  1  2  2  0  0  0  0
  1  4  1  0  0  0  0
  1  3  1  0  0  0  0
  5  1  1  0  0  0  0
  6  7  2  6  0  0  0
  6  9  1  0  0  0  0
  6  5  1  0  0  0  0
  6  8  1  0  0  0  0
 10 11  2  1  0  0  0
 10 12  1  0  0  0  0
 10 13  1  0  0  0  0
 10  9  1  0  0  0  0
 13 14  1  0  0  0  0
 15 14  1  1  0  0  0
 15 16  1  0  0  0  0
 17 19  1  0  0  0  0
 17 15  1  0  0  0  0
 17 18  1  6  0  0  0
 19 21  1  0  0  0  0
 19 20  1  6  0  0  0
 21 16  1  0  0  0  0
 21 22  1  1  0  0  0
 22 32  1  0  0  0  0
 23 22  1  0  0  0  0
 23 24  2  0  0  0  0
 24 25  1  0  0  0  0
 25 26  1  0  0  0  0
 26 27  2  0  0  0  0
 26 28  1  0  0  0  0
 29 28  1  0  0  0  0
 29 30  1  0  0  0  0
 31 29  2  0  0  0  0
 32 25  2  0  0  0  0
 32 31  1  0  0  0  0
M  END
>  <CHROM.1>
146.15070806,88.72706339,-68.04247984,-113.49548399,-74.18532788,171.23803569
-77.64715788,-58.53802287,60.83624636,-153.09118486,-1.69596400,14.98563165
2.38608349,1.08119671,-0.25356332,2.35012360

>  <Name>
lig.pdb

>  <RI>
2.0892e+07

>  <Rbt.Current_Directory>
/home/itssahil/PROJECTS/Mol_Feturizer/New_Systems/rnas/5lwj

>  <Rbt.Executable>
rbdock ($Id: //depot/dev/client3/rdock/2013.1/src/exe/rbdock.cxx#4 $)

>  <Rbt.Library>
libRbt.so (2013.1, Build901 2013/11/27)

>  <Rbt.Parameter_File>
/export/apps/rDock/src/rDock_2013.1_src/data/scripts/dock_solv.prm

>  <Rbt.Receptor>
prm/pocket_docking_8.prm

>  <SCORE>
-30.0985

>  <SCORE.INTER>
-24.5495

>  <SCORE.INTER.CONST>
1

>  <SCORE.INTER.POLAR>
-2.70311

>  <SCORE.INTER.ROT>
8

>  <SCORE.INTER.SOLV>
21.7963

>  <SCORE.INTER.VDW>
-23.5548

>  <SCORE.INTER.norm>
-0.767172

>  <SCORE.INTRA>
-5.58409

>  <SCORE.INTRA.DIHEDRAL>
-1.77862

>  <SCORE.INTRA.DIHEDRAL.0>
10.9248

>  <SCORE.INTRA.POLAR>
-1.00116

>  <SCORE.INTRA.POLAR.0>
0

>  <SCORE.INTRA.REPUL>
0.33489

>  <SCORE.INTRA.REPUL.0>
0

>  <SCORE.INTRA.SOLV>
0.706569

>  <SCORE.INTRA.SOLV.lig_0>
-51.4104

>  <SCORE.INTRA.VDW>
-3.31858

>  <SCORE.INTRA.VDW.0>
0.110327

>  <SCORE.INTRA.norm>
-0.174503

>  <SCORE.RESTR>
0.0350904

>  <SCORE.RESTR.CAVITY>
0.0350904

>  <SCORE.RESTR.norm>
0.00109658

>  <SCORE.SYSTEM>
0

>  <SCORE.SYSTEM.CONST>
0

>  <SCORE.SYSTEM.DIHEDRAL>
0

>  <SCORE.SYSTEM.SOLV>
0

>  <SCORE.SYSTEM.norm>
0

>  <SCORE.heavy>
32

>  <SCORE.norm>
-0.940578

>  <RMSD>
7.985

$$$$
lig.pdb
 OpenBabel11021811523D
libRbt.so/2013.1/901 2013/11/27
 32 34  0  0  0  0  0  0  0  0999 V2000
   -0.2478   12.0451    4.8209 P   0  0  0  0  0  0  0  0  0  0  0  0
   -1.2383   10.9127    4.7001 O   0  0  0  0  0  0  0  0  0  0  0  0
   -1.1978   13.3550    4.9394 O   0  0  0  0  0  0  0  0  0  0  0  0
    0.6061   12.1244    6.0618 O   0  0  0  0  0  0  0  0  0  0  0  0
    0.6714   11.8954    3.7094 O   0  0  0  0  0  0  0  0  0  0  0  0
    0.3154   12.8577    2.6404 P   0  0  1  0  0  0  0  0  0  0  0  0
    1.2014   12.6067    1.4794 O   0  0  0  0  0  0  0  0  0  0  0  0
   -1.0927   12.6578    2.2256 O   0  0  0  0  0  0  0  0  0  0  0  0
    0.5000   14.2429    3.1414 O   0  0  0  0  0  0  0  0  0  0  0  0
    0.7776   15.3865    2.2403 P   0  0  1  0  0  0  0  0  0  0  0  0
    1.9796   15.2327    1.3956 O   0  0  0  0  0  0  0  0  0  0  0  0
   -0.4056   15.9386    1.5437 O   0  0  0  0  0  0  0  0  0  0  0  0
    1.2259   16.5516    3.2700 O   0  0  0  0  0  0  0  0  0  0  0  0
    1.1997   17.9228    2.9213 C   0  0  0  0  0  0  0  0  0  0  0  0
    2.2643   18.2864    1.8768 C   0  0  1  0  0  0  0  0  0  0  0  0
    3.4032   17.4644    2.0309 O   0  0  0  0  0  0  0  0  0  0  0  0
    1.8499   17.9638    0.4305 C   0  0  1  0  0  0  0  0  0  0  0  0
    0.9434   18.8787   -0.1624 O   0  0  0  0  0  0  0  0  0  0  0  0
    3.1846   17.8902   -0.3107 C   0  0  1  0  0  0  0  0  0  0  0  0
    3.5600   19.1402   -0.8617 O   0  0  0  0  0  0  0  0  0  0  0  0
    4.1448   17.5480    0.8270 C   0  0  2  0  0  0  0  0  0  0  0  0
    4.9693   16.3385    0.6187 N   0  0  0  0  0  0  0  0  0  0  0  0
    6.2109   16.0114    1.1022 C   0  0  0  0  0  0  0  0  0  0  0  0
    6.6878   14.8888    0.6300 N   0  0  0  0  0  0  0  0  0  0  0  0
    5.6826   14.4196   -0.2102 C   0  0  0  0  0  0  0  0  0  0  0  0
    5.6280   13.2579   -1.0452 C   0  0  0  0  0  0  0  0  0  0  0  0
    6.5100   12.4212   -1.2281 O   0  0  0  0  0  0  0  0  0  0  0  0
    4.4044   13.1289   -1.7162 N   0  0  0  0  0  0  0  0  0  0  0  0
    3.3448   14.0101   -1.5620 C   0  0  0  0  0  0  0  0  0  0  0  0
    2.1915   13.7201   -2.1748 N   0  0  0  0  0  0  0  0  0  0  0  0
    3.4179   15.1241   -0.8154 N   0  0  0  0  0  0  0  0  0  0  0  0
    4.6080   15.2764   -0.1729 C   0  0  0  0  0  0  0  0  0  0  0  0
  1  2  2  0  0  0  0
  1  4  1  0  0  0  0
  1  3  1  0  0  0  0
  5  1  1  0  0  0  0
  6  7  2  6  0  0  0
  6  9  1  0  0  0  0
  6  5  1  0  0  0  0
  6  8  1  0  0  0  0
 10 11  2  6  0  0  0
 10 12  1  0  0  0  0
 10 13  1  0  0  0  0
 10  9  1  0  0  0  0
 13 14  1  0  0  0  0
 15 14  1  1  0  0  0
 15 16  1  0  0  0  0
 17 19  1  0  0  0  0
 17 15  1  0  0  0  0
 17 18  1  6  0  0  0
 19 21  1  0  0  0  0
 19 20  1  1  0  0  0
 21 16  1  0  0  0  0
 21 22  1  6  0  0  0
 22 32  1  0  0  0  0
 23 22  1  0  0  0  0
 23 24  2  0  0  0  0
 24 25  1  0  0  0  0
 25 26  1  0  0  0  0
 26 27  2  0  0  0  0
 26 28  1  0  0  0  0
 29 28  1  0  0  0  0
 29 30  1  0  0  0  0
 31 29  2  0  0  0  0
 32 25  2  0  0  0  0
 32 31  1  0  0  0  0
M  END
>  <CHROM.1>
101.42077670,154.20812306,-175.54387164,-160.38997842,-57.17188387,-69.24899477
-31.42102087,58.76163616,179.34570407,-83.83028579,2.09591458,14.80137207
1.57078902,-2.54673695,0.69703308,-0.14283585

>  <Name>
lig.pdb

>  <RI>
1.82117e+07

>  <Rbt.Current_Directory>
/home/itssahil/PROJECTS/Mol_Feturizer/New_Systems/rnas/5lwj

>  <Rbt.Executable>
rbdock ($Id: //depot/dev/client3/rdock/2013.1/src/exe/rbdock.cxx#4 $)

>  <Rbt.Library>
libRbt.so (2013.1, Build901 2013/11/27)

>  <Rbt.Parameter_File>
/export/apps/rDock/src/rDock_2013.1_src/data/scripts/dock_solv.prm

>  <Rbt.Receptor>
prm/pocket_docking_5.prm

>  <SCORE>
-27.3186

>  <SCORE.INTER>
-23.6096

>  <SCORE.INTER.CONST>
1

>  <SCORE.INTER.POLAR>
-2.24321

>  <SCORE.INTER.ROT>
8

>  <SCORE.INTER.SOLV>
15.3997

>  <SCORE.INTER.VDW>
-22.3289

>  <SCORE.INTER.norm>
-0.737799

>  <SCORE.INTRA>
-3.70907

>  <SCORE.INTRA.DIHEDRAL>
-1.59726

>  <SCORE.INTRA.DIHEDRAL.0>
10.9248

>  <SCORE.INTRA.POLAR>
0

>  <SCORE.INTRA.POLAR.0>
0

>  <SCORE.INTRA.REPUL>
0

>  <SCORE.INTRA.REPUL.0>
0

>  <SCORE.INTRA.SOLV>
3.3476

>  <SCORE.INTRA.SOLV.lig_0>
-51.4104

>  <SCORE.INTRA.VDW>
-4.58424

>  <SCORE.INTRA.VDW.0>
0.110327

>  <SCORE.INTRA.norm>
-0.115908

>  <SCORE.RESTR>
0

>  <SCORE.RESTR.CAVITY>
0

>  <SCORE.RESTR.norm>
0

>  <SCORE.SYSTEM>
0

>  <SCORE.SYSTEM.CONST>
0

>  <SCORE.SYSTEM.DIHEDRAL>
0

>  <SCORE.SYSTEM.SOLV>
0

>  <SCORE.SYSTEM.norm>
0

>  <SCORE.heavy>
32

>  <SCORE.norm>
-0.853708

>  <RMSD>
8.024

$$$$
lig.pdb
 OpenBabel11021811523D
libRbt.so/2013.1/901 2013/11/27
 32 34  0  0  0  0  0  0  0  0999 V2000
    0.6285   11.5404    5.7292 P   0  0  0  0  0  0  0  0  0  0  0  0
    0.9338   11.9165    7.1586 O   0  0  0  0  0  0  0  0  0  0  0  0
    2.0919   11.2006    5.1164 O   0  0  0  0  0  0  0  0  0  0  0  0
   -0.1560   10.2785    5.4695 O   0  0  0  0  0  0  0  0  0  0  0  0
   -0.1663   12.6262    5.1887 O   0  0  0  0  0  0  0  0  0  0  0  0
    0.1371   12.7915    3.7478 P   0  0  1  0  0  0  0  0  0  0  0  0
    1.2539   13.7570    3.6191 O   0  0  0  0  0  0  0  0  0  0  0  0
    0.5503   11.4942    3.1639 O   0  0  0  0  0  0  0  0  0  0  0  0
   -1.0679   13.2983    3.0445 O   0  0  0  0  0  0  0  0  0  0  0  0
   -1.4091   14.7395    2.9842 P   0  0  1  0  0  0  0  0  0  0  0  0
   -2.7415   15.0381    2.4210 O   0  0  0  0  0  0  0  0  0  0  0  0
   -1.0547   15.5196    4.1909 O   0  0  0  0  0  0  0  0  0  0  0  0
   -0.4155   15.2936    1.8333 O   0  0  0  0  0  0  0  0  0  0  0  0
   -0.6139   16.5421    1.1973 C   0  0  0  0  0  0  0  0  0  0  0  0
    0.4768   16.8578    0.1643 C   0  0  1  0  0  0  0  0  0  0  0  0
    1.6881   16.2239    0.5208 O   0  0  0  0  0  0  0  0  0  0  0  0
    0.2117   16.2485   -1.2236 C   0  0  1  0  0  0  0  0  0  0  0  0
   -0.7474   16.9295   -2.0152 O   0  0  0  0  0  0  0  0  0  0  0  0
    1.5976   16.2216   -1.8675 C   0  0  1  0  0  0  0  0  0  0  0  0
    1.8664   17.3994   -2.6075 O   0  0  0  0  0  0  0  0  0  0  0  0
    2.5031   16.1983   -0.6375 C   0  0  2  0  0  0  0  0  0  0  0  0
    3.4748   15.0852   -0.5864 N   0  0  0  0  0  0  0  0  0  0  0  0
    4.7760   15.0564   -0.1524 C   0  0  0  0  0  0  0  0  0  0  0  0
    5.3767   13.9106   -0.3445 N   0  0  0  0  0  0  0  0  0  0  0  0
    4.3994   13.1084   -0.9261 C   0  0  0  0  0  0  0  0  0  0  0  0
    4.4590   11.7603   -1.4046 C   0  0  0  0  0  0  0  0  0  0  0  0
    5.4370   11.0161   -1.4359 O   0  0  0  0  0  0  0  0  0  0  0  0
    3.2283   11.3041   -1.8958 N   0  0  0  0  0  0  0  0  0  0  0  0
    2.0668   12.0617   -1.8871 C   0  0  0  0  0  0  0  0  0  0  0  0
    0.9315   11.4768   -2.2855 N   0  0  0  0  0  0  0  0  0  0  0  0
    2.0271   13.3416   -1.4820 N   0  0  0  0  0  0  0  0  0  0  0  0
    3.2198   13.8080   -1.0212 C   0  0  0  0  0  0  0  0  0  0  0  0
  1  2  2  0  0  0  0
  1  4  1  0  0  0  0
  1  3  1  0  0  0  0
  5  1  1  0  0  0  0
  6  7  2  6  0  0  0
  6  9  1  0  0  0  0
  6  5  1  0  0  0  0
  6  8  1  0  0  0  0
 10 11  2  6  0  0  0
 10 12  1  0  0  0  0
 10 13  1  0  0  0  0
 10  9  1  0  0  0  0
 13 14  1  0  0  0  0
 15 14  1  1  0  0  0
 15 16  1  0  0  0  0
 17 19  1  0  0  0  0
 17 15  1  0  0  0  0
 17 18  1  6  0  0  0
 19 21  1  0  0  0  0
 19 20  1  1  0  0  0
 21 16  1  0  0  0  0
 21 22  1  1  0  0  0
 22 32  1  0  0  0  0
 23 22  1  0  0  0  0
 23 24  2  0  0  0  0
 24 25  1  0  0  0  0
 25 26  1  0  0  0  0
 26 27  2  0  0  0  0
 26 28  1  0  0  0  0
 29 28  1  0  0  0  0
 29 30  1  0  0  0  0
 31 29  2  0  0  0  0
 32 25  2  0  0  0  0
 32 31  1  0  0  0  0
M  END
>  <CHROM.1>
146.95509969,84.36327091,-90.20903982,163.62099471,-171.22787557,178.75590306
-28.23250998,-61.18512482,-63.51432277,-94.13855630,1.15567919,13.77700098
1.45941751,-2.08020147,0.73232058,-0.89983761

>  <Name>
lig.pdb

>  <RI>
0

>  <Rbt.Current_Directory>
/home/itssahil/PROJECTS/Mol_Feturizer/New_Systems/rnas/5lwj

>  <Rbt.Executable>
rbdock ($Id: //depot/dev/client3/rdock/2013.1/src/exe/rbdock.cxx#4 $)

>  <Rbt.Library>
libRbt.so (2013.1, Build901 2013/11/27)

>  <Rbt.Parameter_File>
/export/apps/rDock/src/rDock_2013.1_src/data/scripts/dock_solv.prm

>  <Rbt.Receptor>
prm/pocket_docking_6.prm

>  <SCORE>
-26.8297

>  <SCORE.INTER>
-24.7304

>  <SCORE.INTER.CONST>
1

>  <SCORE.INTER.POLAR>
-2.76316

>  <SCORE.INTER.ROT>
8

>  <SCORE.INTER.SOLV>
18.6397

>  <SCORE.INTER.VDW>
-22.423

>  <SCORE.INTER.norm>
-0.772825

>  <SCORE.INTRA>
-2.09934

>  <SCORE.INTRA.DIHEDRAL>
-1.14854

>  <SCORE.INTRA.DIHEDRAL.0>
10.9248

>  <SCORE.INTRA.POLAR>
0

>  <SCORE.INTRA.POLAR.0>
0

>  <SCORE.INTRA.REPUL>
0.058451

>  <SCORE.INTRA.REPUL.0>
0

>  <SCORE.INTRA.SOLV>
-1.09756

>  <SCORE.INTRA.SOLV.lig_0>
-51.4104

>  <SCORE.INTRA.VDW>
-1.26854

>  <SCORE.INTRA.VDW.0>
0.110327

>  <SCORE.INTRA.norm>
-0.0656043

>  <SCORE.RESTR>
0

>  <SCORE.RESTR.CAVITY>
0

>  <SCORE.RESTR.norm>
0

>  <SCORE.SYSTEM>
0

>  <SCORE.SYSTEM.CONST>
0

>  <SCORE.SYSTEM.DIHEDRAL>
0

>  <SCORE.SYSTEM.SOLV>
0

>  <SCORE.SYSTEM.norm>
0

>  <SCORE.heavy>
32

>  <SCORE.norm>
-0.838429

>  <RMSD>
8.024

$$$$
lig.pdb
 OpenBabel11021811523D
libRbt.so/2013.1/901 2013/11/27
 32 34  0  0  0  0  0  0  0  0999 V2000
    0.1488   11.2738    5.8433 P   0  0  0  0  0  0  0  0  0  0  0  0
   -1.0750   11.8813    6.4846 O   0  0  0  0  0  0  0  0  0  0  0  0
    1.3637   12.1569    6.4570 O   0  0  0  0  0  0  0  0  0  0  0  0
    0.5279    9.8613    6.2123 O   0  0  0  0  0  0  0  0  0  0  0  0
   -0.1095   11.2610    4.4164 O   0  0  0  0  0  0  0  0  0  0  0  0
    0.2788   12.5661    3.8319 P   0  0  1  0  0  0  0  0  0  0  0  0
   -0.5773   13.6149    4.4345 O   0  0  0  0  0  0  0  0  0  0  0  0
    1.6965   12.8609    4.1448 O   0  0  0  0  0  0  0  0  0  0  0  0
    0.0869   12.5247    2.3605 O   0  0  0  0  0  0  0  0  0  0  0  0
    0.1094   13.7444    1.5186 P   0  0  1  0  0  0  0  0  0  0  0  0
    0.1359   13.4929    0.0634 O   0  0  0  0  0  0  0  0  0  0  0  0
   -0.8121   14.8202    1.9473 O   0  0  0  0  0  0  0  0  0  0  0  0
    1.5887   14.3403    1.7931 O   0  0  0  0  0  0  0  0  0  0  0  0
    2.6643   14.1423    0.8951 C   0  0  0  0  0  0  0  0  0  0  0  0
    3.4889   15.4177    0.6720 C   0  0  1  0  0  0  0  0  0  0  0  0
    2.7048   16.5619    0.9410 O   0  0  0  0  0  0  0  0  0  0  0  0
    4.6408   15.5954    1.6767 C   0  0  1  0  0  0  0  0  0  0  0  0
    5.7892   14.8001    1.4343 O   0  0  0  0  0  0  0  0  0  0  0  0
    4.9357   17.0938    1.6139 C   0  0  1  0  0  0  0  0  0  0  0  0
    5.9313   17.4031    0.6546 O   0  0  0  0  0  0  0  0  0  0  0  0
    3.5974   17.6460    1.1265 C   0  0  2  0  0  0  0  0  0  0  0  0
    2.9976   18.6966    1.9765 N   0  0  0  0  0  0  0  0  0  0  0  0
    3.5493   19.8321    2.5137 C   0  0  0  0  0  0  0  0  0  0  0  0
    2.7449   20.4918    3.3065 N   0  0  0  0  0  0  0  0  0  0  0  0
    1.5628   19.7579    3.2776 C   0  0  0  0  0  0  0  0  0  0  0  0
    0.3260   19.9494    3.9730 C   0  0  0  0  0  0  0  0  0  0  0  0
    0.0558   20.8160    4.8020 O   0  0  0  0  0  0  0  0  0  0  0  0
   -0.6404   18.9926    3.6346 N   0  0  0  0  0  0  0  0  0  0  0  0
   -0.4364   17.9889    2.6997 C   0  0  0  0  0  0  0  0  0  0  0  0
   -1.4717   17.2021    2.3855 N   0  0  0  0  0  0  0  0  0  0  0  0
    0.7407   17.7841    2.0861 N   0  0  0  0  0  0  0  0  0  0  0  0
    1.6980   18.6923    2.4196 C   0  0  0  0  0  0  0  0  0  0  0  0
  1  2  2  0  0  0  0
  1  4  1  0  0  0  0
  1  3  1  0  0  0  0
  5  1  1  0  0  0  0
  6  7  2  1  0  0  0
  6  9  1  0  0  0  0
  6  5  1  0  0  0  0
  6  8  1  0  0  0  0
 10 11  2  6  0  0  0
 10 12  1  0  0  0  0
 10 13  1  0  0  0  0
 10  9  1  0  0  0  0
 13 14  1  0  0  0  0
 15 14  1  1  0  0  0
 15 16  1  0  0  0  0
 17 19  1  0  0  0  0
 17 15  1  0  0  0  0
 17 18  1  6  0  0  0
 19 21  1  0  0  0  0
 19 20  1  6  0  0  0
 21 16  1  0  0  0  0
 21 22  1  1  0  0  0
 22 32  1  0  0  0  0
 23 22  1  0  0  0  0
 23 24  2  0  0  0  0
 24 25  1  0  0  0  0
 25 26  1  0  0  0  0
 26 27  2  0  0  0  0
 26 28  1  0  0  0  0
 29 28  1  0  0  0  0
 29 30  1  0  0  0  0
 31 29  2  0  0  0  0
 32 25  2  0  0  0  0
 32 31  1  0  0  0  0
M  END
>  <CHROM.1>
85.76555073,166.77867895,-62.94583167,99.69381407,169.88400737,136.60333100
-24.27102776,-62.37989175,-53.21769943,172.48353942,1.34863998,15.26660865
2.97355860,1.97472772,-0.62546683,3.03650846

>  <Name>
lig.pdb

>  <RI>
0

>  <Rbt.Current_Directory>
/home/itssahil/PROJECTS/Mol_Feturizer/New_Systems/rnas/5lwj

>  <Rbt.Executable>
rbdock ($Id: //depot/dev/client3/rdock/2013.1/src/exe/rbdock.cxx#4 $)

>  <Rbt.Library>
libRbt.so (2013.1, Build901 2013/11/27)

>  <Rbt.Parameter_File>
/export/apps/rDock/src/rDock_2013.1_src/data/scripts/dock_solv.prm

>  <Rbt.Receptor>
prm/pocket_docking_6.prm

>  <SCORE>
-28.7905

>  <SCORE.INTER>
-30.4303

>  <SCORE.INTER.CONST>
1

>  <SCORE.INTER.POLAR>
-2.18593

>  <SCORE.INTER.ROT>
8

>  <SCORE.INTER.SOLV>
19.994

>  <SCORE.INTER.VDW>
-28.5985

>  <SCORE.INTER.norm>
-0.950948

>  <SCORE.INTRA>
1.6398

>  <SCORE.INTRA.DIHEDRAL>
4.58633

>  <SCORE.INTRA.DIHEDRAL.0>
10.9248

>  <SCORE.INTRA.POLAR>
-0.514382

>  <SCORE.INTRA.POLAR.0>
0

>  <SCORE.INTRA.REPUL>
0.524062

>  <SCORE.INTRA.REPUL.0>
0

>  <SCORE.INTRA.SOLV>
0.791503

>  <SCORE.INTRA.SOLV.lig_0>
-51.4104

>  <SCORE.INTRA.VDW>
-1.92053

>  <SCORE.INTRA.VDW.0>
0.110327

>  <SCORE.INTRA.norm>
0.0512438

>  <SCORE.RESTR>
0

>  <SCORE.RESTR.CAVITY>
0

>  <SCORE.RESTR.norm>
0

>  <SCORE.SYSTEM>
0

>  <SCORE.SYSTEM.CONST>
0

>  <SCORE.SYSTEM.DIHEDRAL>
0

>  <SCORE.SYSTEM.SOLV>
0

>  <SCORE.SYSTEM.norm>
0

>  <SCORE.heavy>
32

>  <SCORE.norm>
-0.899704

>  <RMSD>
8.039

$$$$
lig.pdb
 OpenBabel11021811523D
libRbt.so/2013.1/901 2013/11/27
 32 34  0  0  0  0  0  0  0  0999 V2000
    0.1273   12.9206    2.6929 P   0  0  0  0  0  0  0  0  0  0  0  0
    0.8213   11.9703    3.6381 O   0  0  0  0  0  0  0  0  0  0  0  0
    0.7331   14.3661    3.1124 O   0  0  0  0  0  0  0  0  0  0  0  0
    0.4420   12.8284    1.2207 O   0  0  0  0  0  0  0  0  0  0  0  0
   -1.2914   12.6480    2.8186 O   0  0  0  0  0  0  0  0  0  0  0  0
   -2.0589   13.6601    2.0556 P   0  0  1  0  0  0  0  0  0  0  0  0
   -3.4898   13.5223    2.4156 O   0  0  0  0  0  0  0  0  0  0  0  0
   -1.5996   15.0221    2.4141 O   0  0  0  0  0  0  0  0  0  0  0  0
   -1.8676   13.4317    0.6013 O   0  0  0  0  0  0  0  0  0  0  0  0
   -1.5300   14.5255   -0.3402 P   0  0  1  0  0  0  0  0  0  0  0  0
   -2.6676   15.3858   -0.7246 O   0  0  0  0  0  0  0  0  0  0  0  0
   -0.2765   15.2510   -0.0364 O   0  0  0  0  0  0  0  0  0  0  0  0
   -1.2187   13.7301   -1.7146 O   0  0  0  0  0  0  0  0  0  0  0  0
   -0.1299   12.8352   -1.8426 C   0  0  0  0  0  0  0  0  0  0  0  0
    1.1336   13.5172   -2.3856 C   0  0  1  0  0  0  0  0  0  0  0  0
    1.1132   14.8977   -2.0855 O   0  0  0  0  0  0  0  0  0  0  0  0
    2.4288   13.0725   -1.6839 C   0  0  1  0  0  0  0  0  0  0  0  0
    2.9320   11.8070   -2.0780 O   0  0  0  0  0  0  0  0  0  0  0  0
    3.4009   14.2138   -1.9816 C   0  0  1  0  0  0  0  0  0  0  0  0
    4.1472   13.9858   -3.1641 O   0  0  0  0  0  0  0  0  0  0  0  0
    2.4393   15.3754   -2.2253 C   0  0  2  0  0  0  0  0  0  0  0  0
    2.6693   16.5746   -1.3916 N   0  0  0  0  0  0  0  0  0  0  0  0
    2.1191   17.8294   -1.4630 C   0  0  0  0  0  0  0  0  0  0  0  0
    2.6313   18.6848   -0.6164 N   0  0  0  0  0  0  0  0  0  0  0  0
    3.5741   17.9421    0.0880 C   0  0  0  0  0  0  0  0  0  0  0  0
    4.4893   18.3292    1.1188 C   0  0  0  0  0  0  0  0  0  0  0  0
    4.6638   19.4527    1.5863 O   0  0  0  0  0  0  0  0  0  0  0  0
    5.2562   17.2569    1.5941 N   0  0  0  0  0  0  0  0  0  0  0  0
    5.1202   15.9528    1.1426 C   0  0  0  0  0  0  0  0  0  0  0  0
    5.8353   14.9992    1.7501 N   0  0  0  0  0  0  0  0  0  0  0  0
    4.2949   15.6035    0.1423 N   0  0  0  0  0  0  0  0  0  0  0  0
    3.5571   16.6378   -0.3461 C   0  0  0  0  0  0  0  0  0  0  0  0
  1  2  2  0  0  0  0
  1  4  1  0  0  0  0
  1  3  1  0  0  0  0
  5  1  1  0  0  0  0
  6  7  2  1  0  0  0
  6  9  1  0  0  0  0
  6  5  1  0  0  0  0
  6  8  1  0  0  0  0
 10 11  2  6  0  0  0
 10 12  1  0  0  0  0
 10 13  1  0  0  0  0
 10  9  1  0  0  0  0
 13 14  1  0  0  0  0
 15 14  1  1  0  0  0
 15 16  1  0  0  0  0
 17 19  1  0  0  0  0
 17 15  1  0  0  0  0
 17 18  1  6  0  0  0
 19 21  1  0  0  0  0
 19 20  1  6  0  0  0
 21 16  1  0  0  0  0
 21 22  1  1  0  0  0
 22 32  1  0  0  0  0
 23 22  1  0  0  0  0
 23 24  2  0  0  0  0
 24 25  1  0  0  0  0
 25 26  1  0  0  0  0
 26 27  2  0  0  0  0
 26 28  1  0  0  0  0
 29 28  1  0  0  0  0
 29 30  1  0  0  0  0
 31 29  2  0  0  0  0
 32 25  2  0  0  0  0
 32 31  1  0  0  0  0
M  END
>  <CHROM.1>
172.59926586,-132.22906975,-168.97534840,-64.68600647,-77.94631279,-92.53964334
25.48586518,-80.94306421,-48.22005833,-65.08886271,1.14825460,14.73996854
0.30485973,-3.03661023,-0.54541343,-1.82831015

>  <Name>
lig.pdb

>  <RI>
0

>  <Rbt.Current_Directory>
/home/itssahil/PROJECTS/Mol_Feturizer/New_Systems/rnas/5lwj

>  <Rbt.Executable>
rbdock ($Id: //depot/dev/client3/rdock/2013.1/src/exe/rbdock.cxx#4 $)

>  <Rbt.Library>
libRbt.so (2013.1, Build901 2013/11/27)

>  <Rbt.Parameter_File>
/export/apps/rDock/src/rDock_2013.1_src/data/scripts/dock_solv.prm

>  <Rbt.Receptor>
prm/pocket_docking_6.prm

>  <SCORE>
-27.3347

>  <SCORE.INTER>
-27.1172

>  <SCORE.INTER.CONST>
1

>  <SCORE.INTER.POLAR>
-4.00063

>  <SCORE.INTER.ROT>
8

>  <SCORE.INTER.SOLV>
15.8602

>  <SCORE.INTER.VDW>
-18.9627

>  <SCORE.INTER.norm>
-0.847411

>  <SCORE.INTRA>
-0.217505

>  <SCORE.INTRA.DIHEDRAL>
4.17896

>  <SCORE.INTRA.DIHEDRAL.0>
10.9248

>  <SCORE.INTRA.POLAR>
-0.0833355

>  <SCORE.INTRA.POLAR.0>
0

>  <SCORE.INTRA.REPUL>
0

>  <SCORE.INTRA.REPUL.0>
0

>  <SCORE.INTRA.SOLV>
0.434205

>  <SCORE.INTRA.SOLV.lig_0>
-51.4104

>  <SCORE.INTRA.VDW>
-2.24075

>  <SCORE.INTRA.VDW.0>
0.110327

>  <SCORE.INTRA.norm>
-0.00679704

>  <SCORE.RESTR>
0

>  <SCORE.RESTR.CAVITY>
0

>  <SCORE.RESTR.norm>
0

>  <SCORE.SYSTEM>
0

>  <SCORE.SYSTEM.CONST>
0

>  <SCORE.SYSTEM.DIHEDRAL>
0

>  <SCORE.SYSTEM.SOLV>
0

>  <SCORE.SYSTEM.norm>
0

>  <SCORE.heavy>
32

>  <SCORE.norm>
-0.854208

>  <RMSD>
8.053

$$$$
lig.pdb
 OpenBabel11021811523D
libRbt.so/2013.1/901 2013/11/27
 32 34  0  0  0  0  0  0  0  0999 V2000
    1.6154   17.4166    2.4204 P   0  0  0  0  0  0  0  0  0  0  0  0
    1.2250   17.2047    3.8628 O   0  0  0  0  0  0  0  0  0  0  0  0
    0.8744   16.1934    1.6541 O   0  0  0  0  0  0  0  0  0  0  0  0
    1.0934   18.6383    1.7061 O   0  0  0  0  0  0  0  0  0  0  0  0
    3.0610   17.5306    2.4077 O   0  0  0  0  0  0  0  0  0  0  0  0
    3.5750   17.1549    1.0697 P   0  0  1  0  0  0  0  0  0  0  0  0
    2.9658   18.0629    0.0695 O   0  0  0  0  0  0  0  0  0  0  0  0
    5.0477   17.3102    1.0296 O   0  0  0  0  0  0  0  0  0  0  0  0
    3.2100   15.7458    0.7785 O   0  0  0  0  0  0  0  0  0  0  0  0
    3.6972   14.6102    1.5970 P   0  0  1  0  0  0  0  0  0  0  0  0
    5.1592   14.5787    1.8057 O   0  0  0  0  0  0  0  0  0  0  0  0
    2.8904   14.3127    2.8015 O   0  0  0  0  0  0  0  0  0  0  0  0
    3.4600   13.3402    0.6226 O   0  0  0  0  0  0  0  0  0  0  0  0
    4.2894   13.0752   -0.4930 C   0  0  0  0  0  0  0  0  0  0  0  0
    3.6830   12.0351   -1.4452 C   0  0  1  0  0  0  0  0  0  0  0  0
    2.6443   12.6149   -2.2076 O   0  0  0  0  0  0  0  0  0  0  0  0
    4.6473   11.5688   -2.5499 C   0  0  1  0  0  0  0  0  0  0  0  0
    5.6336   10.6347   -2.1439 O   0  0  0  0  0  0  0  0  0  0  0  0
    3.7118   11.0116   -3.6226 C   0  0  1  0  0  0  0  0  0  0  0  0
    3.4761    9.6243   -3.4583 O   0  0  0  0  0  0  0  0  0  0  0  0
    2.4193   11.7674   -3.3200 C   0  0  2  0  0  0  0  0  0  0  0  0
    1.8409   12.5151   -4.4569 N   0  0  0  0  0  0  0  0  0  0  0  0
    0.5577   12.5496   -4.9413 C   0  0  0  0  0  0  0  0  0  0  0  0
    0.4200   13.2525   -6.0357 N   0  0  0  0  0  0  0  0  0  0  0  0
    1.6979   13.7430   -6.2871 C   0  0  0  0  0  0  0  0  0  0  0  0
    2.1972   14.5434   -7.3641 C   0  0  0  0  0  0  0  0  0  0  0  0
    1.5821   14.9468   -8.3491 O   0  0  0  0  0  0  0  0  0  0  0  0
    3.5569   14.8531   -7.2248 N   0  0  0  0  0  0  0  0  0  0  0  0
    4.3297   14.4592   -6.1428 C   0  0  0  0  0  0  0  0  0  0  0  0
    5.5881   14.9077   -6.0723 N   0  0  0  0  0  0  0  0  0  0  0  0
    3.8693   13.6684   -5.1598 N   0  0  0  0  0  0  0  0  0  0  0  0
    2.5549   13.3400   -5.2906 C   0  0  0  0  0  0  0  0  0  0  0  0
  1  2  2  0  0  0  0
  1  4  1  0  0  0  0
  1  3  1  0  0  0  0
  5  1  1  0  0  0  0
  6  7  2  6  0  0  0
  6  9  1  0  0  0  0
  6  5  1  0  0  0  0
  6  8  1  0  0  0  0
 10 11  2  1  0  0  0
 10 12  1  0  0  0  0
 10 13  1  0  0  0  0
 10  9  1  0  0  0  0
 13 14  1  0  0  0  0
 15 14  1  1  0  0  0
 15 16  1  0  0  0  0
 17 19  1  0  0  0  0
 17 15  1  0  0  0  0
 17 18  1  1  0  0  0
 19 21  1  0  0  0  0
 19 20  1  1  0  0  0
 21 16  1  0  0  0  0
 21 22  1  6  0  0  0
 22 32  1  0  0  0  0
 23 22  1  0  0  0  0
 23 24  2  0  0  0  0
 24 25  1  0  0  0  0
 25 26  1  0  0  0  0
 26 27  2  0  0  0  0
 26 28  1  0  0  0  0
 29 28  1  0  0  0  0
 29 30  1  0  0  0  0
 31 29  2  0  0  0  0
 32 25  2  0  0  0  0
 32 31  1  0  0  0  0
M  END
>  <CHROM.1>
155.56219638,-62.31378204,59.12357773,74.69893647,-51.46540669,-166.28817546
75.57038721,-174.50112330,53.40639594,-104.26857483,3.03811449,14.55175844
-1.50104453,1.63685329,-1.18255861,1.19360515

>  <Name>
lig.pdb

>  <RI>
2.0892e+07

>  <Rbt.Current_Directory>
/home/itssahil/PROJECTS/Mol_Feturizer/New_Systems/rnas/5lwj

>  <Rbt.Executable>
rbdock ($Id: //depot/dev/client3/rdock/2013.1/src/exe/rbdock.cxx#4 $)

>  <Rbt.Library>
libRbt.so (2013.1, Build901 2013/11/27)

>  <Rbt.Parameter_File>
/export/apps/rDock/src/rDock_2013.1_src/data/scripts/dock_solv.prm

>  <Rbt.Receptor>
prm/pocket_docking_8.prm

>  <SCORE>
-18.1431

>  <SCORE.INTER>
-12.9181

>  <SCORE.INTER.CONST>
1

>  <SCORE.INTER.POLAR>
-2.11519

>  <SCORE.INTER.ROT>
8

>  <SCORE.INTER.SOLV>
14.2952

>  <SCORE.INTER.VDW>
-15.2599

>  <SCORE.INTER.norm>
-0.403691

>  <SCORE.INTRA>
-5.22499

>  <SCORE.INTRA.DIHEDRAL>
-4.62993

>  <SCORE.INTRA.DIHEDRAL.0>
10.9248

>  <SCORE.INTRA.POLAR>
0

>  <SCORE.INTRA.POLAR.0>
0

>  <SCORE.INTRA.REPUL>
0.0119963

>  <SCORE.INTRA.REPUL.0>
0

>  <SCORE.INTRA.SOLV>
1.10377

>  <SCORE.INTRA.SOLV.lig_0>
-51.4104

>  <SCORE.INTRA.VDW>
-3.5219

>  <SCORE.INTRA.VDW.0>
0.110327

>  <SCORE.INTRA.norm>
-0.163281

>  <SCORE.RESTR>
0

>  <SCORE.RESTR.CAVITY>
0

>  <SCORE.RESTR.norm>
0

>  <SCORE.SYSTEM>
0

>  <SCORE.SYSTEM.CONST>
0

>  <SCORE.SYSTEM.DIHEDRAL>
0

>  <SCORE.SYSTEM.SOLV>
0

>  <SCORE.SYSTEM.norm>
0

>  <SCORE.heavy>
32

>  <SCORE.norm>
-0.566972

>  <RMSD>
8.076

$$$$
lig.pdb
 OpenBabel11021811523D
libRbt.so/2013.1/901 2013/11/27
 32 34  0  0  0  0  0  0  0  0999 V2000
    0.4463   11.3308    5.6716 P   0  0  0  0  0  0  0  0  0  0  0  0
    0.4803    9.8501    5.9620 O   0  0  0  0  0  0  0  0  0  0  0  0
   -1.0172   11.7788    6.2100 O   0  0  0  0  0  0  0  0  0  0  0  0
    1.3853   12.2344    6.4312 O   0  0  0  0  0  0  0  0  0  0  0  0
    0.7955   11.4739    4.2715 O   0  0  0  0  0  0  0  0  0  0  0  0
   -0.0147   12.5578    3.6680 P   0  0  1  0  0  0  0  0  0  0  0  0
   -1.3293   11.9921    3.2835 O   0  0  0  0  0  0  0  0  0  0  0  0
   -0.2256   13.6432    4.6540 O   0  0  0  0  0  0  0  0  0  0  0  0
    0.6869   13.0926    2.4741 O   0  0  0  0  0  0  0  0  0  0  0  0
    0.4339   14.4532    1.9433 P   0  0  1  0  0  0  0  0  0  0  0  0
   -0.7456   14.5650    1.0612 O   0  0  0  0  0  0  0  0  0  0  0  0
    0.5807   15.5485    2.9276 O   0  0  0  0  0  0  0  0  0  0  0  0
    1.6601   14.6664    0.9091 O   0  0  0  0  0  0  0  0  0  0  0  0
    2.9948   14.3278    1.2355 C   0  0  0  0  0  0  0  0  0  0  0  0
    3.7486   13.6968    0.0566 C   0  0  1  0  0  0  0  0  0  0  0  0
    3.2260   12.4158   -0.2304 O   0  0  0  0  0  0  0  0  0  0  0  0
    3.5262   14.4227   -1.2818 C   0  0  1  0  0  0  0  0  0  0  0  0
    4.2542   15.6277   -1.4501 O   0  0  0  0  0  0  0  0  0  0  0  0
    3.8885   13.3632   -2.3222 C   0  0  1  0  0  0  0  0  0  0  0  0
    5.2542   13.4241   -2.6941 O   0  0  0  0  0  0  0  0  0  0  0  0
    3.6512   12.0742   -1.5376 C   0  0  2  0  0  0  0  0  0  0  0  0
    2.7260   11.1090   -2.1687 N   0  0  0  0  0  0  0  0  0  0  0  0
    2.9708    9.8972   -2.7636 C   0  0  0  0  0  0  0  0  0  0  0  0
    1.9164    9.3493   -3.3104 N   0  0  0  0  0  0  0  0  0  0  0  0
    0.8885   10.2476   -3.0401 C   0  0  0  0  0  0  0  0  0  0  0  0
   -0.4936   10.2273   -3.4137 C   0  0  0  0  0  0  0  0  0  0  0  0
   -1.0718    9.3965   -4.1113 O   0  0  0  0  0  0  0  0  0  0  0  0
   -1.2092   11.3196   -2.9050 N   0  0  0  0  0  0  0  0  0  0  0  0
   -0.6502   12.2973   -2.0959 C   0  0  0  0  0  0  0  0  0  0  0  0
   -1.4612   13.2310   -1.5859 N   0  0  0  0  0  0  0  0  0  0  0  0
    0.6565   12.3381   -1.7882 N   0  0  0  0  0  0  0  0  0  0  0  0
    1.3713   11.2954   -2.2925 C   0  0  0  0  0  0  0  0  0  0  0  0
  1  2  2  0  0  0  0
  1  4  1  0  0  0  0
  1  3  1  0  0  0  0
  5  1  1  0  0  0  0
  6  7  2  6  0  0  0
  6  9  1  0  0  0  0
  6  5  1  0  0  0  0
  6  8  1  0  0  0  0
 10 11  2  6  0  0  0
 10 12  1  0  0  0  0
 10 13  1  0  0  0  0
 10  9  1  0  0  0  0
 13 14  1  0  0  0  0
 15 14  1  1  0  0  0
 15 16  1  0  0  0  0
 17 19  1  0  0  0  0
 17 15  1  0  0  0  0
 17 18  1  1  0  0  0
 19 21  1  0  0  0  0
 19 20  1  1  0  0  0
 21 16  1  0  0  0  0
 21 22  1  6  0  0  0
 22 32  1  0  0  0  0
 23 22  1  0  0  0  0
 23 24  2  0  0  0  0
 24 25  1  0  0  0  0
 25 26  1  0  0  0  0
 26 27  2  0  0  0  0
 26 28  1  0  0  0  0
 29 28  1  0  0  0  0
 29 30  1  0  0  0  0
 31 29  2  0  0  0  0
 32 25  2  0  0  0  0
 32 31  1  0  0  0  0
M  END
>  <CHROM.1>
142.21772970,-156.99914072,-83.28547051,-45.09627315,-82.81673720,140.65712988
-68.87189818,61.26165813,60.48649782,-127.44654075,1.11492050,12.50155040
0.83894265,1.88280416,0.74628903,1.28633222

>  <Name>
lig.pdb

>  <RI>
0

>  <Rbt.Current_Directory>
/home/itssahil/PROJECTS/Mol_Feturizer/New_Systems/rnas/5lwj

>  <Rbt.Executable>
rbdock ($Id: //depot/dev/client3/rdock/2013.1/src/exe/rbdock.cxx#4 $)

>  <Rbt.Library>
libRbt.so (2013.1, Build901 2013/11/27)

>  <Rbt.Parameter_File>
/export/apps/rDock/src/rDock_2013.1_src/data/scripts/dock_solv.prm

>  <Rbt.Receptor>
prm/pocket_docking_6.prm

>  <SCORE>
-38.9826

>  <SCORE.INTER>
-36.2396

>  <SCORE.INTER.CONST>
1

>  <SCORE.INTER.POLAR>
-3.9528

>  <SCORE.INTER.ROT>
8

>  <SCORE.INTER.SOLV>
21.6282

>  <SCORE.INTER.VDW>
-27.1264

>  <SCORE.INTER.norm>
-1.13249

>  <SCORE.INTRA>
-3.31886

>  <SCORE.INTRA.DIHEDRAL>
1.23316

>  <SCORE.INTRA.DIHEDRAL.0>
10.9248

>  <SCORE.INTRA.POLAR>
-1

>  <SCORE.INTRA.POLAR.0>
0

>  <SCORE.INTRA.REPUL>
0.393296

>  <SCORE.INTRA.REPUL.0>
0

>  <SCORE.INTRA.SOLV>
0.383482

>  <SCORE.INTRA.SOLV.lig_0>
-51.4104

>  <SCORE.INTRA.VDW>
-2.69366

>  <SCORE.INTRA.VDW.0>
0.110327

>  <SCORE.INTRA.norm>
-0.103714

>  <SCORE.RESTR>
0.575781

>  <SCORE.RESTR.CAVITY>
0.575781

>  <SCORE.RESTR.norm>
0.0179932

>  <SCORE.SYSTEM>
0

>  <SCORE.SYSTEM.CONST>
0

>  <SCORE.SYSTEM.DIHEDRAL>
0

>  <SCORE.SYSTEM.SOLV>
0

>  <SCORE.SYSTEM.norm>
0

>  <SCORE.heavy>
32

>  <SCORE.norm>
-1.21821

>  <RMSD>
8.123

$$$$
lig.pdb
 OpenBabel11021811523D
libRbt.so/2013.1/901 2013/11/27
 32 34  0  0  0  0  0  0  0  0999 V2000
   -2.3853   13.1771    3.9658 P   0  0  0  0  0  0  0  0  0  0  0  0
   -3.6381   13.4637    3.1744 O   0  0  0  0  0  0  0  0  0  0  0  0
   -2.1590   14.5460    4.8068 O   0  0  0  0  0  0  0  0  0  0  0  0
   -2.4388   12.1178    5.0382 O   0  0  0  0  0  0  0  0  0  0  0  0
   -1.3970   12.7269    3.0049 O   0  0  0  0  0  0  0  0  0  0  0  0
   -0.0426   13.0964    3.4786 P   0  0  1  0  0  0  0  0  0  0  0  0
    0.0247   14.5734    3.5782 O   0  0  0  0  0  0  0  0  0  0  0  0
    0.2048   12.5103    4.8165 O   0  0  0  0  0  0  0  0  0  0  0  0
    0.9707   12.5966    2.5157 O   0  0  0  0  0  0  0  0  0  0  0  0
    1.5980   13.4681    1.4940 P   0  0  1  0  0  0  0  0  0  0  0  0
    2.0206   14.7952    1.9862 O   0  0  0  0  0  0  0  0  0  0  0  0
    2.5723   12.7945    0.6068 O   0  0  0  0  0  0  0  0  0  0  0  0
    0.3537   13.8382    0.5279 O   0  0  0  0  0  0  0  0  0  0  0  0
    0.3015   13.4372   -0.8282 C   0  0  0  0  0  0  0  0  0  0  0  0
    0.9064   14.4822   -1.7761 C   0  0  1  0  0  0  0  0  0  0  0  0
    0.1690   15.6858   -1.7139 O   0  0  0  0  0  0  0  0  0  0  0  0
    2.3074   14.9618   -1.3579 C   0  0  1  0  0  0  0  0  0  0  0  0
    3.3696   14.0693   -1.6499 O   0  0  0  0  0  0  0  0  0  0  0  0
    2.4493   16.3041   -2.0750 C   0  0  1  0  0  0  0  0  0  0  0  0
    3.0473   16.1675   -3.3520 O   0  0  0  0  0  0  0  0  0  0  0  0
    0.9870   16.7057   -2.2591 C   0  0  2  0  0  0  0  0  0  0  0  0
    0.6213   18.0332   -1.7206 N   0  0  0  0  0  0  0  0  0  0  0  0
    0.2654   19.1903   -2.3662 C   0  0  0  0  0  0  0  0  0  0  0  0
    0.1006   20.2153   -1.5706 N   0  0  0  0  0  0  0  0  0  0  0  0
    0.3394   19.7005   -0.2999 C   0  0  0  0  0  0  0  0  0  0  0  0
    0.3523   20.3401    0.9810 C   0  0  0  0  0  0  0  0  0  0  0  0
    0.1856   21.5329    1.2275 O   0  0  0  0  0  0  0  0  0  0  0  0
    0.6069   19.4473    2.0307 N   0  0  0  0  0  0  0  0  0  0  0  0
    0.7904   18.0840    1.8550 C   0  0  0  0  0  0  0  0  0  0  0  0
    0.9199   17.3210    2.9462 N   0  0  0  0  0  0  0  0  0  0  0  0
    0.8254   17.4966    0.6476 N   0  0  0  0  0  0  0  0  0  0  0  0
    0.6011   18.3537   -0.3856 C   0  0  0  0  0  0  0  0  0  0  0  0
  1  2  2  0  0  0  0
  1  4  1  0  0  0  0
  1  3  1  0  0  0  0
  5  1  1  0  0  0  0
  6  7  2  1  0  0  0
  6  9  1  0  0  0  0
  6  5  1  0  0  0  0
  6  8  1  0  0  0  0
 10 11  2  1  0  0  0
 10 12  1  0  0  0  0
 10 13  1  0  0  0  0
 10  9  1  0  0  0  0
 13 14  1  0  0  0  0
 15 14  1  1  0  0  0
 15 16  1  0  0  0  0
 17 19  1  0  0  0  0
 17 15  1  0  0  0  0
 17 18  1  6  0  0  0
 19 21  1  0  0  0  0
 19 20  1  6  0  0  0
 21 16  1  0  0  0  0
 21 22  1  1  0  0  0
 22 32  1  0  0  0  0
 23 22  1  0  0  0  0
 23 24  2  0  0  0  0
 24 25  1  0  0  0  0
 25 26  1  0  0  0  0
 26 27  2  0  0  0  0
 26 28  1  0  0  0  0
 29 28  1  0  0  0  0
 29 30  1  0  0  0  0
 31 29  2  0  0  0  0
 32 25  2  0  0  0  0
 32 31  1  0  0  0  0
M  END
>  <CHROM.1>
150.27476301,99.71805120,-61.53107658,-115.93248018,44.13242963,-91.13763275
-62.65224467,-174.81519748,-176.38652753,-124.62533203,0.38368647,15.42008369
1.14317822,2.13142667,-0.98291704,2.87549248

>  <Name>
lig.pdb

>  <RI>
0

>  <Rbt.Current_Directory>
/home/itssahil/PROJECTS/Mol_Feturizer/New_Systems/rnas/5lwj

>  <Rbt.Executable>
rbdock ($Id: //depot/dev/client3/rdock/2013.1/src/exe/rbdock.cxx#4 $)

>  <Rbt.Library>
libRbt.so (2013.1, Build901 2013/11/27)

>  <Rbt.Parameter_File>
/export/apps/rDock/src/rDock_2013.1_src/data/scripts/dock_solv.prm

>  <Rbt.Receptor>
prm/pocket_docking_6.prm

>  <SCORE>
-24.4614

>  <SCORE.INTER>
-17.2787

>  <SCORE.INTER.CONST>
1

>  <SCORE.INTER.POLAR>
-1.82034

>  <SCORE.INTER.ROT>
8

>  <SCORE.INTER.SOLV>
12.0489

>  <SCORE.INTER.VDW>
-18.401

>  <SCORE.INTER.norm>
-0.539961

>  <SCORE.INTRA>
-7.18269

>  <SCORE.INTRA.DIHEDRAL>
1.19428

>  <SCORE.INTRA.DIHEDRAL.0>
10.9248

>  <SCORE.INTRA.POLAR>
-1.67758

>  <SCORE.INTRA.POLAR.0>
0

>  <SCORE.INTRA.REPUL>
0.02437

>  <SCORE.INTRA.REPUL.0>
0

>  <SCORE.INTRA.SOLV>
3.71079

>  <SCORE.INTRA.SOLV.lig_0>
-51.4104

>  <SCORE.INTRA.VDW>
-4.05331

>  <SCORE.INTRA.VDW.0>
0.110327

>  <SCORE.INTRA.norm>
-0.224459

>  <SCORE.RESTR>
0

>  <SCORE.RESTR.CAVITY>
0

>  <SCORE.RESTR.norm>
0

>  <SCORE.SYSTEM>
0

>  <SCORE.SYSTEM.CONST>
0

>  <SCORE.SYSTEM.DIHEDRAL>
0

>  <SCORE.SYSTEM.SOLV>
0

>  <SCORE.SYSTEM.norm>
0

>  <SCORE.heavy>
32

>  <SCORE.norm>
-0.76442

>  <RMSD>
8.124

$$$$
lig.pdb
 OpenBabel11021811523D
libRbt.so/2013.1/901 2013/11/27
 32 34  0  0  0  0  0  0  0  0999 V2000
    1.1959   11.4875    5.7269 P   0  0  0  0  0  0  0  0  0  0  0  0
    1.7565   10.7956    4.5083 O   0  0  0  0  0  0  0  0  0  0  0  0
    0.4933   10.2771    6.5478 O   0  0  0  0  0  0  0  0  0  0  0  0
    2.1598   12.0710    6.7297 O   0  0  0  0  0  0  0  0  0  0  0  0
    0.4091   12.6001    5.2311 O   0  0  0  0  0  0  0  0  0  0  0  0
   -0.9707   12.1416    4.9455 P   0  0  1  0  0  0  0  0  0  0  0  0
   -0.9392   10.6720    4.7576 O   0  0  0  0  0  0  0  0  0  0  0  0
   -1.8591   12.4638    6.0864 O   0  0  0  0  0  0  0  0  0  0  0  0
   -1.4684   12.8092    3.7166 O   0  0  0  0  0  0  0  0  0  0  0  0
   -1.4676   14.2823    3.5531 P   0  0  1  0  0  0  0  0  0  0  0  0
   -2.2212   15.0212    4.5865 O   0  0  0  0  0  0  0  0  0  0  0  0
   -0.1589   14.8736    3.1957 O   0  0  0  0  0  0  0  0  0  0  0  0
   -2.3853   14.4960    2.2375 O   0  0  0  0  0  0  0  0  0  0  0  0
   -2.8565   15.7700    1.8406 C   0  0  0  0  0  0  0  0  0  0  0  0
   -1.8827   16.4923    0.8992 C   0  0  1  0  0  0  0  0  0  0  0  0
   -0.7216   16.8850    1.6019 O   0  0  0  0  0  0  0  0  0  0  0  0
   -1.2861   15.5850   -0.1911 C   0  0  1  0  0  0  0  0  0  0  0  0
   -2.1439   15.2995   -1.2833 O   0  0  0  0  0  0  0  0  0  0  0  0
   -0.0188   16.3278   -0.6135 C   0  0  1  0  0  0  0  0  0  0  0  0
   -0.2527   17.2118   -1.6956 O   0  0  0  0  0  0  0  0  0  0  0  0
    0.2804   17.1524    0.6371 C   0  0  2  0  0  0  0  0  0  0  0  0
    1.6341   16.9750    1.2047 N   0  0  0  0  0  0  0  0  0  0  0  0
    2.3911   17.8127    1.9842 C   0  0  0  0  0  0  0  0  0  0  0  0
    3.5974   17.3693    2.2270 N   0  0  0  0  0  0  0  0  0  0  0  0
    3.6414   16.1357    1.5843 C   0  0  0  0  0  0  0  0  0  0  0  0
    4.7063   15.1879    1.4513 C   0  0  0  0  0  0  0  0  0  0  0  0
    5.8602   15.2909    1.8625 O   0  0  0  0  0  0  0  0  0  0  0  0
    4.3250   14.0391    0.7451 N   0  0  0  0  0  0  0  0  0  0  0  0
    3.0446   13.8238    0.2579 C   0  0  0  0  0  0  0  0  0  0  0  0
    2.7770   12.6407   -0.3063 N   0  0  0  0  0  0  0  0  0  0  0  0
    2.0627   14.7363    0.3430 N   0  0  0  0  0  0  0  0  0  0  0  0
    2.4224   15.8682    1.0078 C   0  0  0  0  0  0  0  0  0  0  0  0
  1  2  2  0  0  0  0
  1  4  1  0  0  0  0
  1  3  1  0  0  0  0
  5  1  1  0  0  0  0
  6  7  2  6  0  0  0
  6  9  1  0  0  0  0
  6  5  1  0  0  0  0
  6  8  1  0  0  0  0
 10 11  2  1  0  0  0
 10 12  1  0  0  0  0
 10 13  1  0  0  0  0
 10  9  1  0  0  0  0
 13 14  1  0  0  0  0
 15 14  1  1  0  0  0
 15 16  1  0  0  0  0
 17 19  1  0  0  0  0
 17 15  1  0  0  0  0
 17 18  1  6  0  0  0
 19 21  1  0  0  0  0
 19 20  1  6  0  0  0
 21 16  1  0  0  0  0
 21 22  1  1  0  0  0
 22 32  1  0  0  0  0
 23 22  1  0  0  0  0
 23 24  2  0  0  0  0
 24 25  1  0  0  0  0
 25 26  1  0  0  0  0
 26 27  2  0  0  0  0
 26 28  1  0  0  0  0
 29 28  1  0  0  0  0
 29 30  1  0  0  0  0
 31 29  2  0  0  0  0
 32 25  2  0  0  0  0
 32 31  1  0  0  0  0
M  END
>  <CHROM.1>
87.20936928,-54.12797281,-21.57081359,168.59287010,-57.68539631,89.64224652
-69.98632941,66.36062813,-179.29307217,-80.42983286,0.51524126,14.25223554
2.65362057,-1.76761246,0.07930080,-0.84588753

>  <Name>
lig.pdb

>  <RI>
1.82117e+07

>  <Rbt.Current_Directory>
/home/itssahil/PROJECTS/Mol_Feturizer/New_Systems/rnas/5lwj

>  <Rbt.Executable>
rbdock ($Id: //depot/dev/client3/rdock/2013.1/src/exe/rbdock.cxx#4 $)

>  <Rbt.Library>
libRbt.so (2013.1, Build901 2013/11/27)

>  <Rbt.Parameter_File>
/export/apps/rDock/src/rDock_2013.1_src/data/scripts/dock_solv.prm

>  <Rbt.Receptor>
prm/pocket_docking_5.prm

>  <SCORE>
-32.7313

>  <SCORE.INTER>
-33.4975

>  <SCORE.INTER.CONST>
1

>  <SCORE.INTER.POLAR>
-3.94791

>  <SCORE.INTER.ROT>
8

>  <SCORE.INTER.SOLV>
21.1272

>  <SCORE.INTER.VDW>
-25.1477

>  <SCORE.INTER.norm>
-1.0468

>  <SCORE.INTRA>
0.763069

>  <SCORE.INTRA.DIHEDRAL>
-0.729562

>  <SCORE.INTRA.DIHEDRAL.0>
10.9248

>  <SCORE.INTRA.POLAR>
-0.0381054

>  <SCORE.INTRA.POLAR.0>
0

>  <SCORE.INTRA.REPUL>
0

>  <SCORE.INTRA.REPUL.0>
0

>  <SCORE.INTRA.SOLV>
0.856861

>  <SCORE.INTRA.SOLV.lig_0>
-51.4104

>  <SCORE.INTRA.VDW>
0.828978

>  <SCORE.INTRA.VDW.0>
0.110327

>  <SCORE.INTRA.norm>
0.0238459

>  <SCORE.RESTR>
0.00312212

>  <SCORE.RESTR.CAVITY>
0.00312212

>  <SCORE.RESTR.norm>
9.75662e-05

>  <SCORE.SYSTEM>
0

>  <SCORE.SYSTEM.CONST>
0

>  <SCORE.SYSTEM.DIHEDRAL>
0

>  <SCORE.SYSTEM.SOLV>
0

>  <SCORE.SYSTEM.norm>
0

>  <SCORE.heavy>
32

>  <SCORE.norm>
-1.02285

>  <RMSD>
8.136

$$$$
lig.pdb
 OpenBabel11021811523D
libRbt.so/2013.1/901 2013/11/27
 32 34  0  0  0  0  0  0  0  0999 V2000
   -1.3692   13.0946    3.8343 P   0  0  0  0  0  0  0  0  0  0  0  0
   -2.2605   13.7214    4.8787 O   0  0  0  0  0  0  0  0  0  0  0  0
   -1.1233   11.5975    4.4095 O   0  0  0  0  0  0  0  0  0  0  0  0
   -1.9370   12.8471    2.4590 O   0  0  0  0  0  0  0  0  0  0  0  0
   -0.2588   14.0091    3.6522 O   0  0  0  0  0  0  0  0  0  0  0  0
    0.7817   13.3638    2.8176 P   0  0  1  0  0  0  0  0  0  0  0  0
    2.0217   14.1684    2.9217 O   0  0  0  0  0  0  0  0  0  0  0  0
    1.0518   11.9937    3.3124 O   0  0  0  0  0  0  0  0  0  0  0  0
    0.3191   13.3071    1.4082 O   0  0  0  0  0  0  0  0  0  0  0  0
    1.2574   13.2300    0.2634 P   0  0  1  0  0  0  0  0  0  0  0  0
    2.6867   13.3119    0.6267 O   0  0  0  0  0  0  0  0  0  0  0  0
    0.9307   12.2000   -0.7479 O   0  0  0  0  0  0  0  0  0  0  0  0
    1.0123   14.6386   -0.4945 O   0  0  0  0  0  0  0  0  0  0  0  0
   -0.2603   15.2544   -0.5571 C   0  0  0  0  0  0  0  0  0  0  0  0
   -0.1924   16.6979   -1.0750 C   0  0  1  0  0  0  0  0  0  0  0  0
    0.3933   17.5403   -0.1036 O   0  0  0  0  0  0  0  0  0  0  0  0
    0.7696   16.8866   -2.2611 C   0  0  1  0  0  0  0  0  0  0  0  0
    0.2807   16.4494   -3.5181 O   0  0  0  0  0  0  0  0  0  0  0  0
    1.0735   18.3843   -2.2338 C   0  0  1  0  0  0  0  0  0  0  0  0
    0.1780   19.1266   -3.0426 O   0  0  0  0  0  0  0  0  0  0  0  0
    0.8046   18.7216   -0.7684 C   0  0  2  0  0  0  0  0  0  0  0  0
    1.9195   19.3797   -0.0542 N   0  0  0  0  0  0  0  0  0  0  0  0
    2.2410   20.7080    0.0663 C   0  0  0  0  0  0  0  0  0  0  0  0
    3.3652   20.9290    0.6973 N   0  0  0  0  0  0  0  0  0  0  0  0
    3.8148   19.6587    1.0449 C   0  0  0  0  0  0  0  0  0  0  0  0
    5.0095   19.2400    1.7136 C   0  0  0  0  0  0  0  0  0  0  0  0
    5.9405   19.9434    2.1006 O   0  0  0  0  0  0  0  0  0  0  0  0
    5.0678   17.8526    1.9024 N   0  0  0  0  0  0  0  0  0  0  0  0
    4.0614   16.9798    1.5171 C   0  0  0  0  0  0  0  0  0  0  0  0
    4.1868   15.6897    1.8483 N   0  0  0  0  0  0  0  0  0  0  0  0
    2.9652   17.3716    0.8473 N   0  0  0  0  0  0  0  0  0  0  0  0
    2.9026   18.7148    0.6363 C   0  0  0  0  0  0  0  0  0  0  0  0
  1  2  2  0  0  0  0
  1  4  1  0  0  0  0
  1  3  1  0  0  0  0
  5  1  1  0  0  0  0
  6  7  2  1  0  0  0
  6  9  1  0  0  0  0
  6  5  1  0  0  0  0
  6  8  1  0  0  0  0
 10 11  2  1  0  0  0
 10 12  1  0  0  0  0
 10 13  1  0  0  0  0
 10  9  1  0  0  0  0
 13 14  1  0  0  0  0
 15 14  1  1  0  0  0
 15 16  1  0  0  0  0
 17 19  1  0  0  0  0
 17 15  1  0  0  0  0
 17 18  1  6  0  0  0
 19 21  1  0  0  0  0
 19 20  1  6  0  0  0
 21 16  1  0  0  0  0
 21 22  1  1  0  0  0
 22 32  1  0  0  0  0
 23 22  1  0  0  0  0
 23 24  2  0  0  0  0
 24 25  1  0  0  0  0
 25 26  1  0  0  0  0
 26 27  2  0  0  0  0
 26 28  1  0  0  0  0
 29 28  1  0  0  0  0
 29 30  1  0  0  0  0
 31 29  2  0  0  0  0
 32 25  2  0  0  0  0
 32 31  1  0  0  0  0
M  END
>  <CHROM.1>
170.29935247,155.48362609,-166.36053704,-34.85211997,-4.20588847,168.52137751
-71.33599905,-57.56312281,-178.60521500,-147.63188376,1.30167395,15.73439870
1.04550383,-2.19227305,-0.75864731,-0.90775665

>  <Name>
lig.pdb

>  <RI>
1.82117e+07

>  <Rbt.Current_Directory>
/home/itssahil/PROJECTS/Mol_Feturizer/New_Systems/rnas/5lwj

>  <Rbt.Executable>
rbdock ($Id: //depot/dev/client3/rdock/2013.1/src/exe/rbdock.cxx#4 $)

>  <Rbt.Library>
libRbt.so (2013.1, Build901 2013/11/27)

>  <Rbt.Parameter_File>
/export/apps/rDock/src/rDock_2013.1_src/data/scripts/dock_solv.prm

>  <Rbt.Receptor>
prm/pocket_docking_5.prm

>  <SCORE>
-30.4937

>  <SCORE.INTER>
-23.3708

>  <SCORE.INTER.CONST>
1

>  <SCORE.INTER.POLAR>
-2.84235

>  <SCORE.INTER.ROT>
8

>  <SCORE.INTER.SOLV>
14.0183

>  <SCORE.INTER.VDW>
-19.7121

>  <SCORE.INTER.norm>
-0.730338

>  <SCORE.INTRA>
-7.12286

>  <SCORE.INTRA.DIHEDRAL>
-2.61463

>  <SCORE.INTRA.DIHEDRAL.0>
10.9248

>  <SCORE.INTRA.POLAR>
-1.59114

>  <SCORE.INTRA.POLAR.0>
0

>  <SCORE.INTRA.REPUL>
0.253821

>  <SCORE.INTRA.REPUL.0>
0

>  <SCORE.INTRA.SOLV>
1.87598

>  <SCORE.INTRA.SOLV.lig_0>
-51.4104

>  <SCORE.INTRA.VDW>
-2.61277

>  <SCORE.INTRA.VDW.0>
0.110327

>  <SCORE.INTRA.norm>
-0.222589

>  <SCORE.RESTR>
0

>  <SCORE.RESTR.CAVITY>
0

>  <SCORE.RESTR.norm>
0

>  <SCORE.SYSTEM>
0

>  <SCORE.SYSTEM.CONST>
0

>  <SCORE.SYSTEM.DIHEDRAL>
0

>  <SCORE.SYSTEM.SOLV>
0

>  <SCORE.SYSTEM.norm>
0

>  <SCORE.heavy>
32

>  <SCORE.norm>
-0.952927

>  <RMSD>
8.147

$$$$
lig.pdb
 OpenBabel11021811523D
libRbt.so/2013.1/901 2013/11/27
 32 34  0  0  0  0  0  0  0  0999 V2000
   -0.5247   13.5323    2.9620 P   0  0  0  0  0  0  0  0  0  0  0  0
    0.4588   13.0008    1.9480 O   0  0  0  0  0  0  0  0  0  0  0  0
   -1.9602   13.0808    2.3553 O   0  0  0  0  0  0  0  0  0  0  0  0
   -0.5290   12.9290    4.3445 O   0  0  0  0  0  0  0  0  0  0  0  0
   -0.2033   14.9355    3.1366 O   0  0  0  0  0  0  0  0  0  0  0  0
   -1.4183   15.6726    3.5562 P   0  0  1  0  0  0  0  0  0  0  0  0
   -2.4151   15.5793    2.4637 O   0  0  0  0  0  0  0  0  0  0  0  0
   -1.9852   15.0616    4.7809 O   0  0  0  0  0  0  0  0  0  0  0  0
   -1.0693   17.0916    3.8176 O   0  0  0  0  0  0  0  0  0  0  0  0
   -1.1085   18.1302    2.7610 P   0  0  1  0  0  0  0  0  0  0  0  0
   -2.4504   18.3986    2.2050 O   0  0  0  0  0  0  0  0  0  0  0  0
   -0.2965   19.3365    3.0358 O   0  0  0  0  0  0  0  0  0  0  0  0
   -0.3596   17.4073    1.5219 O   0  0  0  0  0  0  0  0  0  0  0  0
   -0.0360   18.0933    0.3272 C   0  0  0  0  0  0  0  0  0  0  0  0
    1.0648   19.1438    0.5297 C   0  0  1  0  0  0  0  0  0  0  0  0
    2.2427   18.5325    1.0148 O   0  0  0  0  0  0  0  0  0  0  0  0
    1.5675   19.7759   -0.7801 C   0  0  1  0  0  0  0  0  0  0  0  0
    0.7195   20.7610   -1.3463 O   0  0  0  0  0  0  0  0  0  0  0  0
    2.9421   20.3264   -0.4012 C   0  0  1  0  0  0  0  0  0  0  0  0
    2.8764   21.6709    0.0406 O   0  0  0  0  0  0  0  0  0  0  0  0
    3.3079   19.4377    0.7861 C   0  0  2  0  0  0  0  0  0  0  0  0
    4.6005   18.7290    0.6733 N   0  0  0  0  0  0  0  0  0  0  0  0
    5.7797   19.1128    0.0862 C   0  0  0  0  0  0  0  0  0  0  0  0
    6.7021   18.1853    0.0873 N   0  0  0  0  0  0  0  0  0  0  0  0
    6.1049   17.1135    0.7440 C   0  0  0  0  0  0  0  0  0  0  0  0
    6.5940   15.7968    1.0216 C   0  0  0  0  0  0  0  0  0  0  0  0
    7.6729   15.3100    0.6896 O   0  0  0  0  0  0  0  0  0  0  0  0
    5.6793   15.0196    1.7450 N   0  0  0  0  0  0  0  0  0  0  0  0
    4.4470   15.4847    2.1788 C   0  0  0  0  0  0  0  0  0  0  0  0
    3.7085   14.6813    2.9526 N   0  0  0  0  0  0  0  0  0  0  0  0
    3.9729   16.7039    1.8746 N   0  0  0  0  0  0  0  0  0  0  0  0
    4.8405   17.4652    1.1533 C   0  0  0  0  0  0  0  0  0  0  0  0
  1  2  2  0  0  0  0
  1  4  1  0  0  0  0
  1  3  1  0  0  0  0
  5  1  1  0  0  0  0
  6  7  2  6  0  0  0
  6  9  1  0  0  0  0
  6  5  1  0  0  0  0
  6  8  1  0  0  0  0
 10 11  2  6  0  0  0
 10 12  1  0  0  0  0
 10 13  1  0  0  0  0
 10  9  1  0  0  0  0
 13 14  1  0  0  0  0
 15 14  1  6  0  0  0
 15 16  1  0  0  0  0
 17 19  1  0  0  0  0
 17 15  1  0  0  0  0
 17 18  1  1  0  0  0
 19 21  1  0  0  0  0
 19 20  1  1  0  0  0
 21 16  1  0  0  0  0
 21 22  1  6  0  0  0
 22 32  1  0  0  0  0
 23 22  1  0  0  0  0
 23 24  2  0  0  0  0
 24 25  1  0  0  0  0
 25 26  1  0  0  0  0
 26 27  2  0  0  0  0
 26 28  1  0  0  0  0
 29 28  1  0  0  0  0
 29 30  1  0  0  0  0
 31 29  2  0  0  0  0
 32 25  2  0  0  0  0
 32 31  1  0  0  0  0
M  END
>  <CHROM.1>
153.03143076,89.24282347,-63.28014276,-172.92405267,64.27831237,68.89596591
59.27524844,-175.72963419,179.69893787,158.32607138,1.47632434,16.88739493
1.82124854,-2.60107206,0.21792353,-0.38974940

>  <Name>
lig.pdb

>  <RI>
0

>  <Rbt.Current_Directory>
/home/itssahil/PROJECTS/Mol_Feturizer/New_Systems/rnas/5lwj

>  <Rbt.Executable>
rbdock ($Id: //depot/dev/client3/rdock/2013.1/src/exe/rbdock.cxx#4 $)

>  <Rbt.Library>
libRbt.so (2013.1, Build901 2013/11/27)

>  <Rbt.Parameter_File>
/export/apps/rDock/src/rDock_2013.1_src/data/scripts/dock_solv.prm

>  <Rbt.Receptor>
prm/pocket_docking_6.prm

>  <SCORE>
-21.1594

>  <SCORE.INTER>
-18.1138

>  <SCORE.INTER.CONST>
1

>  <SCORE.INTER.POLAR>
-2.03038

>  <SCORE.INTER.ROT>
8

>  <SCORE.INTER.SOLV>
11.5963

>  <SCORE.INTER.VDW>
-18.1067

>  <SCORE.INTER.norm>
-0.566056

>  <SCORE.INTRA>
-3.04559

>  <SCORE.INTRA.DIHEDRAL>
-5.31831

>  <SCORE.INTRA.DIHEDRAL.0>
10.9248

>  <SCORE.INTRA.POLAR>
0

>  <SCORE.INTRA.POLAR.0>
0

>  <SCORE.INTRA.REPUL>
0.398849

>  <SCORE.INTRA.REPUL.0>
0

>  <SCORE.INTRA.SOLV>
0.688591

>  <SCORE.INTRA.SOLV.lig_0>
-51.4104

>  <SCORE.INTRA.VDW>
-2.72498

>  <SCORE.INTRA.VDW.0>
0.110327

>  <SCORE.INTRA.norm>
-0.0951748

>  <SCORE.RESTR>
0

>  <SCORE.RESTR.CAVITY>
0

>  <SCORE.RESTR.norm>
0

>  <SCORE.SYSTEM>
0

>  <SCORE.SYSTEM.CONST>
0

>  <SCORE.SYSTEM.DIHEDRAL>
0

>  <SCORE.SYSTEM.SOLV>
0

>  <SCORE.SYSTEM.norm>
0

>  <SCORE.heavy>
32

>  <SCORE.norm>
-0.661231

>  <RMSD>
8.168

$$$$
lig.pdb
 OpenBabel11021811523D
libRbt.so/2013.1/901 2013/11/27
 32 34  0  0  0  0  0  0  0  0999 V2000
    1.4364   11.4521    5.8721 P   0  0  0  0  0  0  0  0  0  0  0  0
    2.0325   10.3666    5.0093 O   0  0  0  0  0  0  0  0  0  0  0  0
   -0.0483   10.8873    6.2023 O   0  0  0  0  0  0  0  0  0  0  0  0
    2.0274   11.6898    7.2394 O   0  0  0  0  0  0  0  0  0  0  0  0
    1.6109   12.6904    5.1379 O   0  0  0  0  0  0  0  0  0  0  0  0
    0.5149   12.8393    4.1520 P   0  0  1  0  0  0  0  0  0  0  0  0
    0.8327   13.9941    3.2794 O   0  0  0  0  0  0  0  0  0  0  0  0
    0.4118   11.6185    3.3191 O   0  0  0  0  0  0  0  0  0  0  0  0
   -0.7652   13.0692    4.8676 O   0  0  0  0  0  0  0  0  0  0  0  0
   -2.0853   12.8924    4.2173 P   0  0  1  0  0  0  0  0  0  0  0  0
   -2.0375   12.2818    2.8732 O   0  0  0  0  0  0  0  0  0  0  0  0
   -3.1549   12.3734    5.0987 O   0  0  0  0  0  0  0  0  0  0  0  0
   -2.5285   14.4140    3.8899 O   0  0  0  0  0  0  0  0  0  0  0  0
   -1.6488   15.3479    3.2927 C   0  0  0  0  0  0  0  0  0  0  0  0
   -1.9554   15.5803    1.8066 C   0  0  1  0  0  0  0  0  0  0  0  0
   -0.8501   16.1847    1.1666 O   0  0  0  0  0  0  0  0  0  0  0  0
   -2.1050   14.2823    0.9938 C   0  0  1  0  0  0  0  0  0  0  0  0
   -3.3397   13.6034    1.1512 O   0  0  0  0  0  0  0  0  0  0  0  0
   -1.8598   14.7368   -0.4448 C   0  0  1  0  0  0  0  0  0  0  0  0
   -3.0602   15.1031   -1.1018 O   0  0  0  0  0  0  0  0  0  0  0  0
   -1.0176   15.9924   -0.2267 C   0  0  2  0  0  0  0  0  0  0  0  0
    0.2815   16.0151   -0.9323 N   0  0  0  0  0  0  0  0  0  0  0  0
    0.5929   16.3869   -2.2157 C   0  0  0  0  0  0  0  0  0  0  0  0
    1.8438   16.1849   -2.5403 N   0  0  0  0  0  0  0  0  0  0  0  0
    2.4148   15.6638   -1.3832 C   0  0  0  0  0  0  0  0  0  0  0  0
    3.7456   15.2050   -1.1218 C   0  0  0  0  0  0  0  0  0  0  0  0
    4.6866   15.1391   -1.9102 O   0  0  0  0  0  0  0  0  0  0  0  0
    3.9231   14.7806    0.2019 N   0  0  0  0  0  0  0  0  0  0  0  0
    2.9289   14.8325    1.1673 C   0  0  0  0  0  0  0  0  0  0  0  0
    3.2522   14.4983    2.4217 N   0  0  0  0  0  0  0  0  0  0  0  0
    1.6693   15.2181    0.9053 N   0  0  0  0  0  0  0  0  0  0  0  0
    1.4737   15.6137   -0.3822 C   0  0  0  0  0  0  0  0  0  0  0  0
  1  2  2  0  0  0  0
  1  4  1  0  0  0  0
  1  3  1  0  0  0  0
  5  1  1  0  0  0  0
  6  7  2  6  0  0  0
  6  9  1  0  0  0  0
  6  5  1  0  0  0  0
  6  8  1  0  0  0  0
 10 11  2  6  0  0  0
 10 12  1  0  0  0  0
 10 13  1  0  0  0  0
 10  9  1  0  0  0  0
 13 14  1  0  0  0  0
 15 14  1  1  0  0  0
 15 16  1  0  0  0  0
 17 19  1  0  0  0  0
 17 15  1  0  0  0  0
 17 18  1  6  0  0  0
 19 21  1  0  0  0  0
 19 20  1  1  0  0  0
 21 16  1  0  0  0  0
 21 22  1  6  0  0  0
 22 32  1  0  0  0  0
 23 22  1  0  0  0  0
 23 24  2  0  0  0  0
 24 25  1  0  0  0  0
 25 26  1  0  0  0  0
 26 27  2  0  0  0  0
 26 28  1  0  0  0  0
 29 28  1  0  0  0  0
 29 30  1  0  0  0  0
 31 29  2  0  0  0  0
 32 25  2  0  0  0  0
 32 31  1  0  0  0  0
M  END
>  <CHROM.1>
83.12121213,-162.90227125,-171.28268874,46.65317449,8.60354843,103.88108953
-162.61976139,56.06648827,-66.92155143,-151.18534075,0.20744182,13.84320689
2.33425221,-1.74129219,0.07069709,-1.03493392

>  <Name>
lig.pdb

>  <RI>
1.82117e+07

>  <Rbt.Current_Directory>
/home/itssahil/PROJECTS/Mol_Feturizer/New_Systems/rnas/5lwj

>  <Rbt.Executable>
rbdock ($Id: //depot/dev/client3/rdock/2013.1/src/exe/rbdock.cxx#4 $)

>  <Rbt.Library>
libRbt.so (2013.1, Build901 2013/11/27)

>  <Rbt.Parameter_File>
/export/apps/rDock/src/rDock_2013.1_src/data/scripts/dock_solv.prm

>  <Rbt.Receptor>
prm/pocket_docking_5.prm

>  <SCORE>
-22.514

>  <SCORE.INTER>
-24.7673

>  <SCORE.INTER.CONST>
1

>  <SCORE.INTER.POLAR>
-1.31345

>  <SCORE.INTER.ROT>
8

>  <SCORE.INTER.SOLV>
20.1937

>  <SCORE.INTER.VDW>
-27.798

>  <SCORE.INTER.norm>
-0.773979

>  <SCORE.INTRA>
2.25336

>  <SCORE.INTRA.DIHEDRAL>
2.94932

>  <SCORE.INTRA.DIHEDRAL.0>
10.9248

>  <SCORE.INTRA.POLAR>
-0.633087

>  <SCORE.INTRA.POLAR.0>
0

>  <SCORE.INTRA.REPUL>
0.792708

>  <SCORE.INTRA.REPUL.0>
0

>  <SCORE.INTRA.SOLV>
5.98461

>  <SCORE.INTRA.SOLV.lig_0>
-51.4104

>  <SCORE.INTRA.VDW>
-4.02466

>  <SCORE.INTRA.VDW.0>
0.110327

>  <SCORE.INTRA.norm>
0.0704174

>  <SCORE.RESTR>
0

>  <SCORE.RESTR.CAVITY>
0

>  <SCORE.RESTR.norm>
0

>  <SCORE.SYSTEM>
0

>  <SCORE.SYSTEM.CONST>
0

>  <SCORE.SYSTEM.DIHEDRAL>
0

>  <SCORE.SYSTEM.SOLV>
0

>  <SCORE.SYSTEM.norm>
0

>  <SCORE.heavy>
32

>  <SCORE.norm>
-0.703562

>  <RMSD>
8.193

$$$$
lig.pdb
 OpenBabel11021811523D
libRbt.so/2013.1/901 2013/11/27
 32 34  0  0  0  0  0  0  0  0999 V2000
    0.8116   11.7650    5.6990 P   0  0  0  0  0  0  0  0  0  0  0  0
    0.3584   10.3378    5.5104 O   0  0  0  0  0  0  0  0  0  0  0  0
    1.2661   11.8051    7.2561 O   0  0  0  0  0  0  0  0  0  0  0  0
    2.0457   12.2303    4.9671 O   0  0  0  0  0  0  0  0  0  0  0  0
   -0.2758   12.5983    5.2238 O   0  0  0  0  0  0  0  0  0  0  0  0
   -0.1711   12.7573    3.7543 P   0  0  1  0  0  0  0  0  0  0  0  0
    0.5798   14.0044    3.4772 O   0  0  0  0  0  0  0  0  0  0  0  0
    0.5639   11.6111    3.1706 O   0  0  0  0  0  0  0  0  0  0  0  0
   -1.5326   12.8327    3.1676 O   0  0  0  0  0  0  0  0  0  0  0  0
   -2.6852   13.4109    3.8986 P   0  0  1  0  0  0  0  0  0  0  0  0
   -3.7655   13.9345    3.0381 O   0  0  0  0  0  0  0  0  0  0  0  0
   -3.1449   12.6271    5.0667 O   0  0  0  0  0  0  0  0  0  0  0  0
   -2.0631   14.7632    4.5334 O   0  0  0  0  0  0  0  0  0  0  0  0
   -2.6583   16.0331    4.3441 C   0  0  0  0  0  0  0  0  0  0  0  0
   -2.0608   16.7927    3.1515 C   0  0  1  0  0  0  0  0  0  0  0  0
   -1.7140   15.8916    2.1200 O   0  0  0  0  0  0  0  0  0  0  0  0
   -3.0674   17.7068    2.4310 C   0  0  1  0  0  0  0  0  0  0  0  0
   -3.3508   18.9341    3.0820 O   0  0  0  0  0  0  0  0  0  0  0  0
   -2.4418   17.9010    1.0501 C   0  0  1  0  0  0  0  0  0  0  0  0
   -1.6045   19.0427    0.9981 O   0  0  0  0  0  0  0  0  0  0  0  0
   -1.5728   16.6503    0.9322 C   0  0  2  0  0  0  0  0  0  0  0  0
   -1.8150   15.8206   -0.2674 N   0  0  0  0  0  0  0  0  0  0  0  0
   -2.8190   15.8741   -1.2009 C   0  0  0  0  0  0  0  0  0  0  0  0
   -2.7751   14.9124   -2.0863 N   0  0  0  0  0  0  0  0  0  0  0  0
   -1.6469   14.1778   -1.7340 C   0  0  0  0  0  0  0  0  0  0  0  0
   -1.0953   12.9829   -2.2977 C   0  0  0  0  0  0  0  0  0  0  0  0
   -1.5452   12.3112   -3.2238 O   0  0  0  0  0  0  0  0  0  0  0  0
    0.0862   12.5782   -1.6618 N   0  0  0  0  0  0  0  0  0  0  0  0
    0.6798   13.2778   -0.6220 C   0  0  0  0  0  0  0  0  0  0  0  0
    1.8629   12.8476   -0.1694 N   0  0  0  0  0  0  0  0  0  0  0  0
    0.1332   14.3709   -0.0650 N   0  0  0  0  0  0  0  0  0  0  0  0
   -1.0269   14.7659   -0.6571 C   0  0  0  0  0  0  0  0  0  0  0  0
  1  2  2  0  0  0  0
  1  4  1  0  0  0  0
  1  3  1  0  0  0  0
  5  1  1  0  0  0  0
  6  7  2  6  0  0  0
  6  9  1  0  0  0  0
  6  5  1  0  0  0  0
  6  8  1  0  0  0  0
 10 11  2  6  0  0  0
 10 12  1  0  0  0  0
 10 13  1  0  0  0  0
 10  9  1  0  0  0  0
 13 14  1  0  0  0  0
 15 14  1  1  0  0  0
 15 16  1  0  0  0  0
 17 19  1  0  0  0  0
 17 15  1  0  0  0  0
 17 18  1  1  0  0  0
 19 21  1  0  0  0  0
 19 20  1  1  0  0  0
 21 16  1  0  0  0  0
 21 22  1  6  0  0  0
 22 32  1  0  0  0  0
 23 22  1  0  0  0  0
 23 24  2  0  0  0  0
 24 25  1  0  0  0  0
 25 26  1  0  0  0  0
 26 27  2  0  0  0  0
 26 28  1  0  0  0  0
 29 28  1  0  0  0  0
 29 30  1  0  0  0  0
 31 29  2  0  0  0  0
 32 25  2  0  0  0  0
 32 31  1  0  0  0  0
M  END
>  <CHROM.1>
-84.05965894,31.03319929,-93.89753806,126.76325575,154.97584762,-93.86429707
34.76429698,-63.93298560,-170.33197155,113.49660797,-1.07002509,14.09747114
2.33112614,-0.99809898,1.01324500,-1.50980915

>  <Name>
lig.pdb

>  <RI>
2.0892e+07

>  <Rbt.Current_Directory>
/home/itssahil/PROJECTS/Mol_Feturizer/New_Systems/rnas/5lwj

>  <Rbt.Executable>
rbdock ($Id: //depot/dev/client3/rdock/2013.1/src/exe/rbdock.cxx#4 $)

>  <Rbt.Library>
libRbt.so (2013.1, Build901 2013/11/27)

>  <Rbt.Parameter_File>
/export/apps/rDock/src/rDock_2013.1_src/data/scripts/dock_solv.prm

>  <Rbt.Receptor>
prm/pocket_docking_8.prm

>  <SCORE>
-25.3273

>  <SCORE.INTER>
-29.6791

>  <SCORE.INTER.CONST>
1

>  <SCORE.INTER.POLAR>
-2.53771

>  <SCORE.INTER.ROT>
8

>  <SCORE.INTER.SOLV>
19.6231

>  <SCORE.INTER.VDW>
-26.8014

>  <SCORE.INTER.norm>
-0.927473

>  <SCORE.INTRA>
4.35189

>  <SCORE.INTRA.DIHEDRAL>
4.5192

>  <SCORE.INTRA.DIHEDRAL.0>
10.9248

>  <SCORE.INTRA.POLAR>
0

>  <SCORE.INTRA.POLAR.0>
0

>  <SCORE.INTRA.REPUL>
0.0503749

>  <SCORE.INTRA.REPUL.0>
0

>  <SCORE.INTRA.SOLV>
2.21804

>  <SCORE.INTRA.SOLV.lig_0>
-51.4104

>  <SCORE.INTRA.VDW>
0.73139

>  <SCORE.INTRA.VDW.0>
0.110327

>  <SCORE.INTRA.norm>
0.135996

>  <SCORE.RESTR>
0

>  <SCORE.RESTR.CAVITY>
0

>  <SCORE.RESTR.norm>
0

>  <SCORE.SYSTEM>
0

>  <SCORE.SYSTEM.CONST>
0

>  <SCORE.SYSTEM.DIHEDRAL>
0

>  <SCORE.SYSTEM.SOLV>
0

>  <SCORE.SYSTEM.norm>
0

>  <SCORE.heavy>
32

>  <SCORE.norm>
-0.791477

>  <RMSD>
8.207

$$$$
lig.pdb
 OpenBabel11021811523D
libRbt.so/2013.1/901 2013/11/27
 32 34  0  0  0  0  0  0  0  0999 V2000
   -1.1916   12.4351    4.6628 P   0  0  0  0  0  0  0  0  0  0  0  0
   -1.6839   13.8451    4.8806 O   0  0  0  0  0  0  0  0  0  0  0  0
   -0.0232   12.2760    5.7774 O   0  0  0  0  0  0  0  0  0  0  0  0
   -2.1244   11.2915    4.9747 O   0  0  0  0  0  0  0  0  0  0  0  0
   -0.8853   12.3301    3.2494 O   0  0  0  0  0  0  0  0  0  0  0  0
    0.3898   13.0298    2.9663 P   0  0  1  0  0  0  0  0  0  0  0  0
    1.4321   12.4684    3.8576 O   0  0  0  0  0  0  0  0  0  0  0  0
    0.7887   12.8079    1.5570 O   0  0  0  0  0  0  0  0  0  0  0  0
    0.2221   14.4830    3.2186 O   0  0  0  0  0  0  0  0  0  0  0  0
    0.1766   15.4822    2.1248 P   0  0  1  0  0  0  0  0  0  0  0  0
    1.4973   15.9075    1.6182 O   0  0  0  0  0  0  0  0  0  0  0  0
   -0.8367   15.2217    1.0781 O   0  0  0  0  0  0  0  0  0  0  0  0
   -0.3490   16.8138    2.8794 O   0  0  0  0  0  0  0  0  0  0  0  0
    0.5234   17.6874    3.5711 C   0  0  0  0  0  0  0  0  0  0  0  0
    1.1453   18.7488    2.6530 C   0  0  1  0  0  0  0  0  0  0  0  0
    2.5451   18.5719    2.5768 O   0  0  0  0  0  0  0  0  0  0  0  0
    0.7398   18.6055    1.1755 C   0  0  1  0  0  0  0  0  0  0  0  0
   -0.5586   19.0737    0.8516 O   0  0  0  0  0  0  0  0  0  0  0  0
    1.8423   19.3596    0.4325 C   0  0  1  0  0  0  0  0  0  0  0  0
    1.5143   20.7228    0.2292 O   0  0  0  0  0  0  0  0  0  0  0  0
    2.9937   19.2767    1.4329 C   0  0  2  0  0  0  0  0  0  0  0  0
    4.2507   18.7029    0.9069 N   0  0  0  0  0  0  0  0  0  0  0  0
    5.1815   19.2309    0.0483 C   0  0  0  0  0  0  0  0  0  0  0  0
    6.1336   18.3977   -0.2835 N   0  0  0  0  0  0  0  0  0  0  0  0
    5.8310   17.2377    0.4234 C   0  0  0  0  0  0  0  0  0  0  0  0
    6.4773   15.9603    0.4449 C   0  0  0  0  0  0  0  0  0  0  0  0
    7.4509   15.5990   -0.2131 O   0  0  0  0  0  0  0  0  0  0  0  0
    5.8680   15.0588    1.3281 N   0  0  0  0  0  0  0  0  0  0  0  0
    4.7785   15.3780    2.1245 C   0  0  0  0  0  0  0  0  0  0  0  0
    4.3539   14.4645    3.0048 N   0  0  0  0  0  0  0  0  0  0  0  0
    4.1463   16.5615    2.0653 N   0  0  0  0  0  0  0  0  0  0  0  0
    4.7125   17.4425    1.1959 C   0  0  0  0  0  0  0  0  0  0  0  0
  1  2  2  0  0  0  0
  1  4  1  0  0  0  0
  1  3  1  0  0  0  0
  5  1  1  0  0  0  0
  6  7  2  1  0  0  0
  6  9  1  0  0  0  0
  6  5  1  0  0  0  0
  6  8  1  0  0  0  0
 10 11  2  6  0  0  0
 10 12  1  0  0  0  0
 10 13  1  0  0  0  0
 10  9  1  0  0  0  0
 13 14  1  0  0  0  0
 15 14  1  1  0  0  0
 15 16  1  0  0  0  0
 17 19  1  0  0  0  0
 17 15  1  0  0  0  0
 17 18  1  1  0  0  0
 19 21  1  0  0  0  0
 19 20  1  1  0  0  0
 21 16  1  0  0  0  0
 21 22  1  6  0  0  0
 22 32  1  0  0  0  0
 23 22  1  0  0  0  0
 23 24  2  0  0  0  0
 24 25  1  0  0  0  0
 25 26  1  0  0  0  0
 26 27  2  0  0  0  0
 26 28  1  0  0  0  0
 29 28  1  0  0  0  0
 29 30  1  0  0  0  0
 31 29  2  0  0  0  0
 32 25  2  0  0  0  0
 32 31  1  0  0  0  0
M  END
>  <CHROM.1>
75.58883402,-108.62561259,54.96387745,84.31680839,-82.24462378,86.51085013
-115.56874971,-173.91861594,-56.84686710,-162.57956803,1.75287279,15.75509910
2.24976846,-2.29517611,0.26571728,-0.34381183

>  <Name>
lig.pdb

>  <RI>
0

>  <Rbt.Current_Directory>
/home/itssahil/PROJECTS/Mol_Feturizer/New_Systems/rnas/5lwj

>  <Rbt.Executable>
rbdock ($Id: //depot/dev/client3/rdock/2013.1/src/exe/rbdock.cxx#4 $)

>  <Rbt.Library>
libRbt.so (2013.1, Build901 2013/11/27)

>  <Rbt.Parameter_File>
/export/apps/rDock/src/rDock_2013.1_src/data/scripts/dock_solv.prm

>  <Rbt.Receptor>
prm/pocket_docking_4.prm

>  <SCORE>
-23.7809

>  <SCORE.INTER>
-27.622

>  <SCORE.INTER.CONST>
1

>  <SCORE.INTER.POLAR>
-2.53926

>  <SCORE.INTER.ROT>
8

>  <SCORE.INTER.SOLV>
17.2367

>  <SCORE.INTER.VDW>
-24.6293

>  <SCORE.INTER.norm>
-0.863187

>  <SCORE.INTRA>
3.84113

>  <SCORE.INTRA.DIHEDRAL>
4.03973

>  <SCORE.INTRA.DIHEDRAL.0>
10.9248

>  <SCORE.INTRA.POLAR>
0

>  <SCORE.INTRA.POLAR.0>
0

>  <SCORE.INTRA.REPUL>
0.512657

>  <SCORE.INTRA.REPUL.0>
0

>  <SCORE.INTRA.SOLV>
4.63664

>  <SCORE.INTRA.SOLV.lig_0>
-51.4104

>  <SCORE.INTRA.VDW>
-3.06034

>  <SCORE.INTRA.VDW.0>
0.110327

>  <SCORE.INTRA.norm>
0.120035

>  <SCORE.RESTR>
0

>  <SCORE.RESTR.CAVITY>
0

>  <SCORE.RESTR.norm>
0

>  <SCORE.SYSTEM>
0

>  <SCORE.SYSTEM.CONST>
0

>  <SCORE.SYSTEM.DIHEDRAL>
0

>  <SCORE.SYSTEM.SOLV>
0

>  <SCORE.SYSTEM.norm>
0

>  <SCORE.heavy>
32

>  <SCORE.norm>
-0.743152

>  <RMSD>
8.209

$$$$
lig.pdb
 OpenBabel11021811523D
libRbt.so/2013.1/901 2013/11/27
 32 34  0  0  0  0  0  0  0  0999 V2000
    0.4782   11.5639    5.7714 P   0  0  0  0  0  0  0  0  0  0  0  0
    0.9308   11.9832    7.1488 O   0  0  0  0  0  0  0  0  0  0  0  0
    1.7804   11.8588    4.8495 O   0  0  0  0  0  0  0  0  0  0  0  0
    0.2005   10.1029    5.5194 O   0  0  0  0  0  0  0  0  0  0  0  0
   -0.7719   12.2581    5.5303 O   0  0  0  0  0  0  0  0  0  0  0  0
   -0.8074   12.7407    4.1298 P   0  0  1  0  0  0  0  0  0  0  0  0
   -0.0397   14.0063    4.0580 O   0  0  0  0  0  0  0  0  0  0  0  0
   -0.1790   11.7431    3.2329 O   0  0  0  0  0  0  0  0  0  0  0  0
   -2.2164   12.9671    3.7211 O   0  0  0  0  0  0  0  0  0  0  0  0
   -2.8592   14.3014    3.7795 P   0  0  1  0  0  0  0  0  0  0  0  0
   -4.2110   14.3648    3.1878 O   0  0  0  0  0  0  0  0  0  0  0  0
   -2.7101   15.0143    5.0678 O   0  0  0  0  0  0  0  0  0  0  0  0
   -1.9819   15.1664    2.7303 O   0  0  0  0  0  0  0  0  0  0  0  0
   -2.5424   16.2037    1.9476 C   0  0  0  0  0  0  0  0  0  0  0  0
   -1.5232   16.8371    0.9904 C   0  0  1  0  0  0  0  0  0  0  0  0
   -0.4668   15.9350    0.7321 O   0  0  0  0  0  0  0  0  0  0  0  0
   -2.0705   17.0785   -0.4274 C   0  0  1  0  0  0  0  0  0  0  0  0
   -2.9180   18.2061   -0.5698 O   0  0  0  0  0  0  0  0  0  0  0  0
   -0.8067   17.1775   -1.2812 C   0  0  1  0  0  0  0  0  0  0  0  0
   -0.3450   18.5116   -1.4003 O   0  0  0  0  0  0  0  0  0  0  0  0
    0.1918   16.3868   -0.4378 C   0  0  2  0  0  0  0  0  0  0  0  0
    0.8707   15.2743   -1.1359 N   0  0  0  0  0  0  0  0  0  0  0  0
    0.5437   14.6167   -2.2948 C   0  0  0  0  0  0  0  0  0  0  0  0
    1.3244   13.6045   -2.5716 N   0  0  0  0  0  0  0  0  0  0  0  0
    2.2547   13.6004   -1.5366 C   0  0  0  0  0  0  0  0  0  0  0  0
    3.3400   12.7091   -1.2581 C   0  0  0  0  0  0  0  0  0  0  0  0
    3.6630   11.6999   -1.8815 O   0  0  0  0  0  0  0  0  0  0  0  0
    4.0676   13.0794   -0.1191 N   0  0  0  0  0  0  0  0  0  0  0  0
    3.7915   14.2078    0.6381 C   0  0  0  0  0  0  0  0  0  0  0  0
    4.6243   14.5122    1.6398 N   0  0  0  0  0  0  0  0  0  0  0  0
    2.7435   15.0136    0.4013 N   0  0  0  0  0  0  0  0  0  0  0  0
    2.0126   14.6560   -0.6898 C   0  0  0  0  0  0  0  0  0  0  0  0
  1  2  2  0  0  0  0
  1  4  1  0  0  0  0
  1  3  1  0  0  0  0
  5  1  1  0  0  0  0
  6  7  2  6  0  0  0
  6  9  1  0  0  0  0
  6  5  1  0  0  0  0
  6  8  1  0  0  0  0
 10 11  2  6  0  0  0
 10 12  1  0  0  0  0
 10 13  1  0  0  0  0
 10  9  1  0  0  0  0
 13 14  1  0  0  0  0
 15 14  1  1  0  0  0
 15 16  1  0  0  0  0
 17 19  1  0  0  0  0
 17 15  1  0  0  0  0
 17 18  1  1  0  0  0
 19 21  1  0  0  0  0
 19 20  1  1  0  0  0
 21 16  1  0  0  0  0
 21 22  1  6  0  0  0
 22 32  1  0  0  0  0
 23 22  1  0  0  0  0
 23 24  2  0  0  0  0
 24 25  1  0  0  0  0
 25 26  1  0  0  0  0
 26 27  2  0  0  0  0
 26 28  1  0  0  0  0
 29 28  1  0  0  0  0
 29 30  1  0  0  0  0
 31 29  2  0  0  0  0
 32 25  2  0  0  0  0
 32 31  1  0  0  0  0
M  END
>  <CHROM.1>
139.31139771,96.31137104,-81.42191373,147.11871981,173.22479631,-177.73188729
23.10737717,-59.26694695,62.83354875,106.20790320,0.01633487,14.13087313
1.96747782,-1.82419651,0.53058243,-0.97783272

>  <Name>
lig.pdb

>  <RI>
2.92062e+07

>  <Rbt.Current_Directory>
/home/itssahil/PROJECTS/Mol_Feturizer/New_Systems/rnas/5lwj

>  <Rbt.Executable>
rbdock ($Id: //depot/dev/client3/rdock/2013.1/src/exe/rbdock.cxx#4 $)

>  <Rbt.Library>
libRbt.so (2013.1, Build901 2013/11/27)

>  <Rbt.Parameter_File>
/export/apps/rDock/src/rDock_2013.1_src/data/scripts/dock_solv.prm

>  <Rbt.Receptor>
prm/pocket_docking_7.prm

>  <SCORE>
-32.4606

>  <SCORE.INTER>
-31.5601

>  <SCORE.INTER.CONST>
1

>  <SCORE.INTER.POLAR>
-3.66884

>  <SCORE.INTER.ROT>
8

>  <SCORE.INTER.SOLV>
19.3341

>  <SCORE.INTER.VDW>
-24.1886

>  <SCORE.INTER.norm>
-0.986253

>  <SCORE.INTRA>
-0.900549

>  <SCORE.INTRA.DIHEDRAL>
0.742692

>  <SCORE.INTRA.DIHEDRAL.0>
10.9248

>  <SCORE.INTRA.POLAR>
0

>  <SCORE.INTRA.POLAR.0>
0

>  <SCORE.INTRA.REPUL>
0.0112186

>  <SCORE.INTRA.REPUL.0>
0

>  <SCORE.INTRA.SOLV>
-1.32849

>  <SCORE.INTRA.SOLV.lig_0>
-51.4104

>  <SCORE.INTRA.VDW>
-0.663742

>  <SCORE.INTRA.VDW.0>
0.110327

>  <SCORE.INTRA.norm>
-0.0281422

>  <SCORE.RESTR>
0

>  <SCORE.RESTR.CAVITY>
0

>  <SCORE.RESTR.norm>
0

>  <SCORE.SYSTEM>
0

>  <SCORE.SYSTEM.CONST>
0

>  <SCORE.SYSTEM.DIHEDRAL>
0

>  <SCORE.SYSTEM.SOLV>
0

>  <SCORE.SYSTEM.norm>
0

>  <SCORE.heavy>
32

>  <SCORE.norm>
-1.0144

>  <RMSD>
8.219

$$$$
lig.pdb
 OpenBabel11021811523D
libRbt.so/2013.1/901 2013/11/27
 32 34  0  0  0  0  0  0  0  0999 V2000
   -2.8131   13.4566    5.0510 P   0  0  0  0  0  0  0  0  0  0  0  0
   -3.4415   14.5540    5.8750 O   0  0  0  0  0  0  0  0  0  0  0  0
   -2.9593   12.1508    6.0028 O   0  0  0  0  0  0  0  0  0  0  0  0
   -3.4982   13.0328    3.7758 O   0  0  0  0  0  0  0  0  0  0  0  0
   -1.5049   13.9457    4.6612 O   0  0  0  0  0  0  0  0  0  0  0  0
   -0.6792   12.8155    4.1749 P   0  0  1  0  0  0  0  0  0  0  0  0
   -0.7056   11.7486    5.2030 O   0  0  0  0  0  0  0  0  0  0  0  0
   -1.2409   12.2830    2.9117 O   0  0  0  0  0  0  0  0  0  0  0  0
    0.7120   13.2815    3.9494 O   0  0  0  0  0  0  0  0  0  0  0  0
    1.2064   13.7010    2.6165 P   0  0  1  0  0  0  0  0  0  0  0  0
    1.4409   12.5950    1.6659 O   0  0  0  0  0  0  0  0  0  0  0  0
    0.5298   14.8841    2.0397 O   0  0  0  0  0  0  0  0  0  0  0  0
    2.7102   14.2061    2.9364 O   0  0  0  0  0  0  0  0  0  0  0  0
    3.4510   15.0027    2.0312 C   0  0  0  0  0  0  0  0  0  0  0  0
    4.3253   14.1652    1.0875 C   0  0  1  0  0  0  0  0  0  0  0  0
    3.5811   13.0880    0.5563 O   0  0  0  0  0  0  0  0  0  0  0  0
    4.7425   14.9078   -0.1940 C   0  0  1  0  0  0  0  0  0  0  0  0
    5.7934   15.8469   -0.0397 O   0  0  0  0  0  0  0  0  0  0  0  0
    5.0982   13.7759   -1.1576 C   0  0  1  0  0  0  0  0  0  0  0  0
    6.4713   13.4325   -1.0955 O   0  0  0  0  0  0  0  0  0  0  0  0
    4.2779   12.6214   -0.5853 C   0  0  2  0  0  0  0  0  0  0  0  0
    3.3633   11.9591   -1.5397 N   0  0  0  0  0  0  0  0  0  0  0  0
    3.5880   10.9380   -2.4281 C   0  0  0  0  0  0  0  0  0  0  0  0
    2.5648   10.6647   -3.1956 N   0  0  0  0  0  0  0  0  0  0  0  0
    1.5776   11.5499   -2.7732 C   0  0  0  0  0  0  0  0  0  0  0  0
    0.2467   11.7658   -3.2550 C   0  0  0  0  0  0  0  0  0  0  0  0
   -0.3072   11.2168   -4.2053 O   0  0  0  0  0  0  0  0  0  0  0  0
   -0.4436   12.7414   -2.5233 N   0  0  0  0  0  0  0  0  0  0  0  0
    0.0892   13.4024   -1.4267 C   0  0  0  0  0  0  0  0  0  0  0  0
   -0.7068   14.2351   -0.7466 N   0  0  0  0  0  0  0  0  0  0  0  0
    1.3540   13.2314   -1.0086 N   0  0  0  0  0  0  0  0  0  0  0  0
    2.0464   12.3020   -1.7223 C   0  0  0  0  0  0  0  0  0  0  0  0
  1  2  2  0  0  0  0
  1  4  1  0  0  0  0
  1  3  1  0  0  0  0
  5  1  1  0  0  0  0
  6  7  2  1  0  0  0
  6  9  1  0  0  0  0
  6  5  1  0  0  0  0
  6  8  1  0  0  0  0
 10 11  2  6  0  0  0
 10 12  1  0  0  0  0
 10 13  1  0  0  0  0
 10  9  1  0  0  0  0
 13 14  1  0  0  0  0
 15 14  1  1  0  0  0
 15 16  1  0  0  0  0
 17 19  1  0  0  0  0
 17 15  1  0  0  0  0
 17 18  1  1  0  0  0
 19 21  1  0  0  0  0
 19 20  1  1  0  0  0
 21 16  1  0  0  0  0
 21 22  1  6  0  0  0
 22 32  1  0  0  0  0
 23 22  1  0  0  0  0
 23 24  2  0  0  0  0
 24 25  1  0  0  0  0
 25 26  1  0  0  0  0
 26 27  2  0  0  0  0
 26 28  1  0  0  0  0
 29 28  1  0  0  0  0
 29 30  1  0  0  0  0
 31 29  2  0  0  0  0
 32 25  2  0  0  0  0
 32 31  1  0  0  0  0
M  END
>  <CHROM.1>
164.60144803,-96.21907174,-52.17194087,-163.81516895,-73.72716548,-92.32163646
46.34005277,177.84364910,60.93454143,-149.71044754,1.01803720,13.16392261
1.26932059,2.31361433,0.28741115,1.25989700

>  <Name>
lig.pdb

>  <RI>
0

>  <Rbt.Current_Directory>
/home/itssahil/PROJECTS/Mol_Feturizer/New_Systems/rnas/5lwj

>  <Rbt.Executable>
rbdock ($Id: //depot/dev/client3/rdock/2013.1/src/exe/rbdock.cxx#4 $)

>  <Rbt.Library>
libRbt.so (2013.1, Build901 2013/11/27)

>  <Rbt.Parameter_File>
/export/apps/rDock/src/rDock_2013.1_src/data/scripts/dock_solv.prm

>  <Rbt.Receptor>
prm/pocket_docking_6.prm

>  <SCORE>
-38.5898

>  <SCORE.INTER>
-33.4775

>  <SCORE.INTER.CONST>
1

>  <SCORE.INTER.POLAR>
-3.22699

>  <SCORE.INTER.ROT>
8

>  <SCORE.INTER.SOLV>
18.7627

>  <SCORE.INTER.VDW>
-26.7493

>  <SCORE.INTER.norm>
-1.04617

>  <SCORE.INTRA>
-5.1123

>  <SCORE.INTRA.DIHEDRAL>
-1.01418

>  <SCORE.INTRA.DIHEDRAL.0>
10.9248

>  <SCORE.INTRA.POLAR>
-0.937423

>  <SCORE.INTRA.POLAR.0>
0

>  <SCORE.INTRA.REPUL>
0

>  <SCORE.INTRA.REPUL.0>
0

>  <SCORE.INTRA.SOLV>
2.07283

>  <SCORE.INTRA.SOLV.lig_0>
-51.4104

>  <SCORE.INTRA.VDW>
-2.45439

>  <SCORE.INTRA.VDW.0>
0.110327

>  <SCORE.INTRA.norm>
-0.159759

>  <SCORE.RESTR>
0

>  <SCORE.RESTR.CAVITY>
0

>  <SCORE.RESTR.norm>
0

>  <SCORE.SYSTEM>
0

>  <SCORE.SYSTEM.CONST>
0

>  <SCORE.SYSTEM.DIHEDRAL>
0

>  <SCORE.SYSTEM.SOLV>
0

>  <SCORE.SYSTEM.norm>
0

>  <SCORE.heavy>
32

>  <SCORE.norm>
-1.20593

>  <RMSD>
8.248

$$$$
lig.pdb
 OpenBabel11021811523D
libRbt.so/2013.1/901 2013/11/27
 32 34  0  0  0  0  0  0  0  0999 V2000
   -0.3273   11.6900    4.3572 P   0  0  0  0  0  0  0  0  0  0  0  0
   -0.3110   10.5654    5.3637 O   0  0  0  0  0  0  0  0  0  0  0  0
    0.2583   12.9472    5.1993 O   0  0  0  0  0  0  0  0  0  0  0  0
    0.6005   11.6069    3.1709 O   0  0  0  0  0  0  0  0  0  0  0  0
   -1.6716   11.7245    3.8146 O   0  0  0  0  0  0  0  0  0  0  0  0
   -1.9710   13.0893    3.3216 P   0  0  1  0  0  0  0  0  0  0  0  0
   -0.8400   13.5319    2.4725 O   0  0  0  0  0  0  0  0  0  0  0  0
   -3.2091   13.0751    2.5081 O   0  0  0  0  0  0  0  0  0  0  0  0
   -2.1392   14.0059    4.4771 O   0  0  0  0  0  0  0  0  0  0  0  0
   -2.4486   15.4463    4.3141 P   0  0  1  0  0  0  0  0  0  0  0  0
   -3.0631   15.8058    3.0199 O   0  0  0  0  0  0  0  0  0  0  0  0
   -3.0613   16.0944    5.4950 O   0  0  0  0  0  0  0  0  0  0  0  0
   -0.9800   16.1157    4.1969 O   0  0  0  0  0  0  0  0  0  0  0  0
   -0.7787   17.4151    3.6737 C   0  0  0  0  0  0  0  0  0  0  0  0
    0.6693   17.6516    3.2224 C   0  0  1  0  0  0  0  0  0  0  0  0
    1.3469   16.4196    3.0829 O   0  0  0  0  0  0  0  0  0  0  0  0
    0.7896   18.2275    1.8005 C   0  0  1  0  0  0  0  0  0  0  0  0
    0.5163   19.6134    1.6790 O   0  0  0  0  0  0  0  0  0  0  0  0
    2.2191   17.8694    1.3948 C   0  0  1  0  0  0  0  0  0  0  0  0
    3.1404   18.8951    1.7207 O   0  0  0  0  0  0  0  0  0  0  0  0
    2.4943   16.6614    2.2883 C   0  0  2  0  0  0  0  0  0  0  0  0
    2.9273   15.4363    1.5828 N   0  0  0  0  0  0  0  0  0  0  0  0
    3.9433   14.5578    1.8627 C   0  0  0  0  0  0  0  0  0  0  0  0
    4.1055   13.6255    0.9598 N   0  0  0  0  0  0  0  0  0  0  0  0
    3.1108   13.8847    0.0218 C   0  0  0  0  0  0  0  0  0  0  0  0
    2.8015   13.2365   -1.2168 C   0  0  0  0  0  0  0  0  0  0  0  0
    3.3999   12.3024   -1.7465 O   0  0  0  0  0  0  0  0  0  0  0  0
    1.6849   13.7920   -1.8559 N   0  0  0  0  0  0  0  0  0  0  0  0
    0.9355   14.8338   -1.3302 C   0  0  0  0  0  0  0  0  0  0  0  0
   -0.1708   15.2052   -1.9842 N   0  0  0  0  0  0  0  0  0  0  0  0
    1.2581   15.4701   -0.1923 N   0  0  0  0  0  0  0  0  0  0  0  0
    2.3537   14.9567    0.4312 C   0  0  0  0  0  0  0  0  0  0  0  0
  1  2  2  0  0  0  0
  1  4  1  0  0  0  0
  1  3  1  0  0  0  0
  5  1  1  0  0  0  0
  6  7  2  6  0  0  0
  6  9  1  0  0  0  0
  6  5  1  0  0  0  0
  6  8  1  0  0  0  0
 10 11  2  6  0  0  0
 10 12  1  0  0  0  0
 10 13  1  0  0  0  0
 10  9  1  0  0  0  0
 13 14  1  0  0  0  0
 15 14  1  6  0  0  0
 15 16  1  0  0  0  0
 17 19  1  0  0  0  0
 17 15  1  0  0  0  0
 17 18  1  1  0  0  0
 19 21  1  0  0  0  0
 19 20  1  1  0  0  0
 21 16  1  0  0  0  0
 21 22  1  6  0  0  0
 22 32  1  0  0  0  0
 23 22  1  0  0  0  0
 23 24  2  0  0  0  0
 24 25  1  0  0  0  0
 25 26  1  0  0  0  0
 26 27  2  0  0  0  0
 26 28  1  0  0  0  0
 29 28  1  0  0  0  0
 29 30  1  0  0  0  0
 31 29  2  0  0  0  0
 32 25  2  0  0  0  0
 32 31  1  0  0  0  0
M  END
>  <CHROM.1>
154.55850863,-179.94363604,48.80412314,162.41102043,21.78727761,-160.58568923
16.69733836,-175.53213745,59.17983707,-101.39374215,0.24911142,14.70980159
2.35386781,-2.81703620,0.78919537,0.02757666

>  <Name>
lig.pdb

>  <RI>
1.82117e+07

>  <Rbt.Current_Directory>
/home/itssahil/PROJECTS/Mol_Feturizer/New_Systems/rnas/5lwj

>  <Rbt.Executable>
rbdock ($Id: //depot/dev/client3/rdock/2013.1/src/exe/rbdock.cxx#4 $)

>  <Rbt.Library>
libRbt.so (2013.1, Build901 2013/11/27)

>  <Rbt.Parameter_File>
/export/apps/rDock/src/rDock_2013.1_src/data/scripts/dock_solv.prm

>  <Rbt.Receptor>
prm/pocket_docking_5.prm

>  <SCORE>
-27.9066

>  <SCORE.INTER>
-26.218

>  <SCORE.INTER.CONST>
1

>  <SCORE.INTER.POLAR>
-3.2976

>  <SCORE.INTER.ROT>
8

>  <SCORE.INTER.SOLV>
15.4332

>  <SCORE.INTER.VDW>
-20.5644

>  <SCORE.INTER.norm>
-0.819313

>  <SCORE.INTRA>
-1.68859

>  <SCORE.INTRA.DIHEDRAL>
0.236122

>  <SCORE.INTRA.DIHEDRAL.0>
10.9248

>  <SCORE.INTRA.POLAR>
0

>  <SCORE.INTRA.POLAR.0>
0

>  <SCORE.INTRA.REPUL>
0.147028

>  <SCORE.INTRA.REPUL.0>
0

>  <SCORE.INTRA.SOLV>
0.688023

>  <SCORE.INTRA.SOLV.lig_0>
-51.4104

>  <SCORE.INTRA.VDW>
-2.8858

>  <SCORE.INTRA.VDW.0>
0.110327

>  <SCORE.INTRA.norm>
-0.0527684

>  <SCORE.RESTR>
0

>  <SCORE.RESTR.CAVITY>
0

>  <SCORE.RESTR.norm>
0

>  <SCORE.SYSTEM>
0

>  <SCORE.SYSTEM.CONST>
0

>  <SCORE.SYSTEM.DIHEDRAL>
0

>  <SCORE.SYSTEM.SOLV>
0

>  <SCORE.SYSTEM.norm>
0

>  <SCORE.heavy>
32

>  <SCORE.norm>
-0.872081

>  <RMSD>
8.249

$$$$
lig.pdb
 OpenBabel11021811523D
libRbt.so/2013.1/901 2013/11/27
 32 34  0  0  0  0  0  0  0  0999 V2000
   -0.1384   17.8651    4.9374 P   0  0  0  0  0  0  0  0  0  0  0  0
   -1.2302   17.4829    5.9069 O   0  0  0  0  0  0  0  0  0  0  0  0
   -0.6378   19.2993    4.3661 O   0  0  0  0  0  0  0  0  0  0  0  0
    1.2341   18.1699    5.4835 O   0  0  0  0  0  0  0  0  0  0  0  0
    0.0252   16.7309    4.0488 O   0  0  0  0  0  0  0  0  0  0  0  0
    0.5523   17.1964    2.7446 P   0  0  1  0  0  0  0  0  0  0  0  0
   -0.5158   17.9645    2.0626 O   0  0  0  0  0  0  0  0  0  0  0  0
    1.7227   18.0798    2.9561 O   0  0  0  0  0  0  0  0  0  0  0  0
    0.9491   16.0238    1.9254 O   0  0  0  0  0  0  0  0  0  0  0  0
    2.3077   15.4340    1.9824 P   0  0  1  0  0  0  0  0  0  0  0  0
    3.3628   16.2445    1.3407 O   0  0  0  0  0  0  0  0  0  0  0  0
    2.6826   14.8459    3.2877 O   0  0  0  0  0  0  0  0  0  0  0  0
    2.1891   14.1672    0.9826 O   0  0  0  0  0  0  0  0  0  0  0  0
    1.5471   14.2520   -0.2757 C   0  0  0  0  0  0  0  0  0  0  0  0
    1.6583   12.9516   -1.0837 C   0  0  1  0  0  0  0  0  0  0  0  0
    1.1206   13.1308   -2.3779 O   0  0  0  0  0  0  0  0  0  0  0  0
    3.1064   12.5457   -1.4095 C   0  0  1  0  0  0  0  0  0  0  0  0
    3.8286   11.9545   -0.3422 O   0  0  0  0  0  0  0  0  0  0  0  0
    2.9491   11.6088   -2.6069 C   0  0  1  0  0  0  0  0  0  0  0  0
    2.8225   10.2539   -2.2128 O   0  0  0  0  0  0  0  0  0  0  0  0
    1.6154   12.0776   -3.1856 C   0  0  2  0  0  0  0  0  0  0  0  0
    1.6436   12.4625   -4.6128 N   0  0  0  0  0  0  0  0  0  0  0  0
    1.4298   11.7143   -5.7427 C   0  0  0  0  0  0  0  0  0  0  0  0
    1.6335   12.3648   -6.8590 N   0  0  0  0  0  0  0  0  0  0  0  0
    1.9847   13.6464   -6.4458 C   0  0  0  0  0  0  0  0  0  0  0  0
    2.3656   14.8012   -7.2017 C   0  0  0  0  0  0  0  0  0  0  0  0
    2.5032   14.8906   -8.4200 O   0  0  0  0  0  0  0  0  0  0  0  0
    2.6116   15.9206   -6.3952 N   0  0  0  0  0  0  0  0  0  0  0  0
    2.4669   15.9231   -5.0160 C   0  0  0  0  0  0  0  0  0  0  0  0
    2.6278   17.0828   -4.3689 N   0  0  0  0  0  0  0  0  0  0  0  0
    2.1564   14.8252   -4.3075 N   0  0  0  0  0  0  0  0  0  0  0  0
    1.9349   13.7225   -5.0741 C   0  0  0  0  0  0  0  0  0  0  0  0
  1  2  2  0  0  0  0
  1  4  1  0  0  0  0
  1  3  1  0  0  0  0
  5  1  1  0  0  0  0
  6  7  2  6  0  0  0
  6  9  1  0  0  0  0
  6  5  1  0  0  0  0
  6  8  1  0  0  0  0
 10 11  2  6  0  0  0
 10 12  1  0  0  0  0
 10 13  1  0  0  0  0
 10  9  1  0  0  0  0
 13 14  1  0  0  0  0
 15 14  1  1  0  0  0
 15 16  1  0  0  0  0
 17 19  1  0  0  0  0
 17 15  1  0  0  0  0
 17 18  1  1  0  0  0
 19 21  1  0  0  0  0
 19 20  1  1  0  0  0
 21 16  1  0  0  0  0
 21 22  1  6  0  0  0
 22 32  1  0  0  0  0
 23 22  1  0  0  0  0
 23 24  2  0  0  0  0
 24 25  1  0  0  0  0
 25 26  1  0  0  0  0
 26 27  2  0  0  0  0
 26 28  1  0  0  0  0
 29 28  1  0  0  0  0
 29 30  1  0  0  0  0
 31 29  2  0  0  0  0
 32 25  2  0  0  0  0
 32 31  1  0  0  0  0
M  END
>  <CHROM.1>
153.38967322,-89.14997586,-69.83837327,44.03973775,-72.61706380,175.57836106
-174.17411751,-178.35970066,44.55405373,-145.63938737,1.61202856,15.12900278
-0.49565684,2.22357725,-1.28639613,1.80662398

>  <Name>
lig.pdb

>  <RI>
2.0892e+07

>  <Rbt.Current_Directory>
/home/itssahil/PROJECTS/Mol_Feturizer/New_Systems/rnas/5lwj

>  <Rbt.Executable>
rbdock ($Id: //depot/dev/client3/rdock/2013.1/src/exe/rbdock.cxx#4 $)

>  <Rbt.Library>
libRbt.so (2013.1, Build901 2013/11/27)

>  <Rbt.Parameter_File>
/export/apps/rDock/src/rDock_2013.1_src/data/scripts/dock_solv.prm

>  <Rbt.Receptor>
prm/pocket_docking_8.prm

>  <SCORE>
-24.48

>  <SCORE.INTER>
-19.2004

>  <SCORE.INTER.CONST>
1

>  <SCORE.INTER.POLAR>
-3.34941

>  <SCORE.INTER.ROT>
8

>  <SCORE.INTER.SOLV>
13.1483

>  <SCORE.INTER.VDW>
-14.9516

>  <SCORE.INTER.norm>
-0.600012

>  <SCORE.INTRA>
-5.27965

>  <SCORE.INTRA.DIHEDRAL>
-4.2697

>  <SCORE.INTRA.DIHEDRAL.0>
10.9248

>  <SCORE.INTRA.POLAR>
0

>  <SCORE.INTRA.POLAR.0>
0

>  <SCORE.INTRA.REPUL>
0

>  <SCORE.INTRA.REPUL.0>
0

>  <SCORE.INTRA.SOLV>
-0.674057

>  <SCORE.INTRA.SOLV.lig_0>
-51.4104

>  <SCORE.INTRA.VDW>
-2.80777

>  <SCORE.INTRA.VDW.0>
0.110327

>  <SCORE.INTRA.norm>
-0.164989

>  <SCORE.RESTR>
0

>  <SCORE.RESTR.CAVITY>
0

>  <SCORE.RESTR.norm>
0

>  <SCORE.SYSTEM>
0

>  <SCORE.SYSTEM.CONST>
0

>  <SCORE.SYSTEM.DIHEDRAL>
0

>  <SCORE.SYSTEM.SOLV>
0

>  <SCORE.SYSTEM.norm>
0

>  <SCORE.heavy>
32

>  <SCORE.norm>
-0.765001

>  <RMSD>
8.250

$$$$
lig.pdb
 OpenBabel11021811523D
libRbt.so/2013.1/901 2013/11/27
 32 34  0  0  0  0  0  0  0  0999 V2000
    2.6354   14.5824    2.0296 P   0  0  0  0  0  0  0  0  0  0  0  0
    3.3194   15.8505    1.5801 O   0  0  0  0  0  0  0  0  0  0  0  0
    3.2851   13.4510    1.0651 O   0  0  0  0  0  0  0  0  0  0  0  0
    2.9243   14.0620    3.4156 O   0  0  0  0  0  0  0  0  0  0  0  0
    1.2123   14.8584    1.9923 O   0  0  0  0  0  0  0  0  0  0  0  0
    0.4666   13.5888    1.8262 P   0  0  1  0  0  0  0  0  0  0  0  0
    0.8640   12.9860    0.5321 O   0  0  0  0  0  0  0  0  0  0  0  0
    0.8093   12.6516    2.9211 O   0  0  0  0  0  0  0  0  0  0  0  0
   -0.9914   13.8671    1.8406 O   0  0  0  0  0  0  0  0  0  0  0  0
   -1.6656   14.5301    2.9820 P   0  0  1  0  0  0  0  0  0  0  0  0
   -0.7991   14.7851    4.1507 O   0  0  0  0  0  0  0  0  0  0  0  0
   -2.5632   15.6488    2.6173 O   0  0  0  0  0  0  0  0  0  0  0  0
   -2.6560   13.3745    3.5318 O   0  0  0  0  0  0  0  0  0  0  0  0
   -2.7684   13.0641    4.9080 C   0  0  0  0  0  0  0  0  0  0  0  0
   -4.0690   13.5938    5.5278 C   0  0  1  0  0  0  0  0  0  0  0  0
   -4.3595   12.9011    6.7246 O   0  0  0  0  0  0  0  0  0  0  0  0
   -3.9701   15.0441    6.0322 C   0  0  1  0  0  0  0  0  0  0  0  0
   -4.0309   16.0440    5.0288 O   0  0  0  0  0  0  0  0  0  0  0  0
   -5.1159   15.1465    7.0386 C   0  0  1  0  0  0  0  0  0  0  0  0
   -6.3158   15.6013    6.4384 O   0  0  0  0  0  0  0  0  0  0  0  0
   -5.2944   13.6847    7.4445 C   0  0  2  0  0  0  0  0  0  0  0  0
   -5.2162   13.4156    8.8963 N   0  0  0  0  0  0  0  0  0  0  0  0
   -4.9722   14.2618    9.9483 C   0  0  0  0  0  0  0  0  0  0  0  0
   -4.8770   13.6596   11.1055 N   0  0  0  0  0  0  0  0  0  0  0  0
   -5.0977   12.3180   10.8091 C   0  0  0  0  0  0  0  0  0  0  0  0
   -5.0811   11.1594   11.6502 C   0  0  0  0  0  0  0  0  0  0  0  0
   -4.8200   11.1052   12.8503 O   0  0  0  0  0  0  0  0  0  0  0  0
   -5.3912    9.9814   10.9573 N   0  0  0  0  0  0  0  0  0  0  0  0
   -5.7158    9.9432    9.6096 C   0  0  0  0  0  0  0  0  0  0  0  0
   -6.0970    8.7720    9.0875 N   0  0  0  0  0  0  0  0  0  0  0  0
   -5.6829   11.0253    8.8146 N   0  0  0  0  0  0  0  0  0  0  0  0
   -5.3623   12.1757    9.4676 C   0  0  0  0  0  0  0  0  0  0  0  0
  1  2  2  0  0  0  0
  1  4  1  0  0  0  0
  1  3  1  0  0  0  0
  5  1  1  0  0  0  0
  6  7  2  6  0  0  0
  6  9  1  0  0  0  0
  6  5  1  0  0  0  0
  6  8  1  0  0  0  0
 10 11  2  1  0  0  0
 10 12  1  0  0  0  0
 10 13  1  0  0  0  0
 10  9  1  0  0  0  0
 13 14  1  0  0  0  0
 15 14  1  1  0  0  0
 15 16  1  0  0  0  0
 17 19  1  0  0  0  0
 17 15  1  0  0  0  0
 17 18  1  6  0  0  0
 19 21  1  0  0  0  0
 19 20  1  6  0  0  0
 21 16  1  0  0  0  0
 21 22  1  1  0  0  0
 22 32  1  0  0  0  0
 23 22  1  0  0  0  0
 23 24  2  0  0  0  0
 24 25  1  0  0  0  0
 25 26  1  0  0  0  0
 26 27  2  0  0  0  0
 26 28  1  0  0  0  0
 29 28  1  0  0  0  0
 29 30  1  0  0  0  0
 31 29  2  0  0  0  0
 32 25  2  0  0  0  0
 32 31  1  0  0  0  0
M  END
>  <CHROM.1>
155.17943051,-58.12925802,-61.88700700,133.66992809,-5.12044203,105.12797132
160.10009819,-56.81471550,63.39226526,122.20124073,-2.29297844,13.47520352
5.48440477,-0.76139794,-0.51745197,2.33471321

>  <Name>
lig.pdb

>  <RI>
2.0892e+07

>  <Rbt.Current_Directory>
/home/itssahil/PROJECTS/Mol_Feturizer/New_Systems/rnas/5lwj

>  <Rbt.Executable>
rbdock ($Id: //depot/dev/client3/rdock/2013.1/src/exe/rbdock.cxx#4 $)

>  <Rbt.Library>
libRbt.so (2013.1, Build901 2013/11/27)

>  <Rbt.Parameter_File>
/export/apps/rDock/src/rDock_2013.1_src/data/scripts/dock_solv.prm

>  <Rbt.Receptor>
prm/pocket_docking_8.prm

>  <SCORE>
-30.7307

>  <SCORE.INTER>
-30.1442

>  <SCORE.INTER.CONST>
1

>  <SCORE.INTER.POLAR>
-3.3027

>  <SCORE.INTER.ROT>
8

>  <SCORE.INTER.SOLV>
21.6431

>  <SCORE.INTER.VDW>
-25.2348

>  <SCORE.INTER.norm>
-0.942005

>  <SCORE.INTRA>
-0.586503

>  <SCORE.INTRA.DIHEDRAL>
4.39825

>  <SCORE.INTRA.DIHEDRAL.0>
10.9248

>  <SCORE.INTRA.POLAR>
-0.399801

>  <SCORE.INTRA.POLAR.0>
0

>  <SCORE.INTRA.REPUL>
0.0143781

>  <SCORE.INTRA.REPUL.0>
0

>  <SCORE.INTRA.SOLV>
1.13838

>  <SCORE.INTRA.SOLV.lig_0>
-51.4104

>  <SCORE.INTRA.VDW>
-2.06738

>  <SCORE.INTRA.VDW.0>
0.110327

>  <SCORE.INTRA.norm>
-0.0183282

>  <SCORE.RESTR>
0

>  <SCORE.RESTR.CAVITY>
0

>  <SCORE.RESTR.norm>
0

>  <SCORE.SYSTEM>
0

>  <SCORE.SYSTEM.CONST>
0

>  <SCORE.SYSTEM.DIHEDRAL>
0

>  <SCORE.SYSTEM.SOLV>
0

>  <SCORE.SYSTEM.norm>
0

>  <SCORE.heavy>
32

>  <SCORE.norm>
-0.960334

>  <RMSD>
8.253

$$$$
lig.pdb
 OpenBabel11021811523D
libRbt.so/2013.1/901 2013/11/27
 32 34  0  0  0  0  0  0  0  0999 V2000
   -0.1448   11.6699    5.0814 P   0  0  0  0  0  0  0  0  0  0  0  0
    0.0939   10.2238    5.4415 O   0  0  0  0  0  0  0  0  0  0  0  0
   -1.2422   12.1468    6.1772 O   0  0  0  0  0  0  0  0  0  0  0  0
    0.9827   12.6538    5.2711 O   0  0  0  0  0  0  0  0  0  0  0  0
   -0.4577   11.6853    3.6655 O   0  0  0  0  0  0  0  0  0  0  0  0
   -1.3224   12.8498    3.3628 P   0  0  1  0  0  0  0  0  0  0  0  0
   -1.7054   12.7811    1.9329 O   0  0  0  0  0  0  0  0  0  0  0  0
   -2.5478   12.8019    4.1939 O   0  0  0  0  0  0  0  0  0  0  0  0
   -0.5767   14.1034    3.6384 O   0  0  0  0  0  0  0  0  0  0  0  0
   -0.8925   15.3842    2.9625 P   0  0  1  0  0  0  0  0  0  0  0  0
   -0.5108   15.4434    1.5368 O   0  0  0  0  0  0  0  0  0  0  0  0
   -2.2258   15.9462    3.2733 O   0  0  0  0  0  0  0  0  0  0  0  0
    0.1536   16.4143    3.6432 O   0  0  0  0  0  0  0  0  0  0  0  0
   -0.0843   17.8081    3.7018 C   0  0  0  0  0  0  0  0  0  0  0  0
    0.8635   18.6070    2.7964 C   0  0  1  0  0  0  0  0  0  0  0  0
    2.1680   18.0675    2.8546 O   0  0  0  0  0  0  0  0  0  0  0  0
    0.5464   18.4752    1.2965 C   0  0  1  0  0  0  0  0  0  0  0  0
   -0.5537   19.2421    0.8362 O   0  0  0  0  0  0  0  0  0  0  0  0
    1.8617   18.8648    0.6224 C   0  0  1  0  0  0  0  0  0  0  0  0
    1.9225   20.2495    0.3290 O   0  0  0  0  0  0  0  0  0  0  0  0
    2.8717   18.5528    1.7251 C   0  0  2  0  0  0  0  0  0  0  0  0
    3.9676   17.6377    1.3408 N   0  0  0  0  0  0  0  0  0  0  0  0
    5.3209   17.8499    1.2637 C   0  0  0  0  0  0  0  0  0  0  0  0
    5.9933   16.8339    0.7877 N   0  0  0  0  0  0  0  0  0  0  0  0
    5.0227   15.8646    0.5531 C   0  0  0  0  0  0  0  0  0  0  0  0
    5.1296   14.5497   -0.0034 C   0  0  0  0  0  0  0  0  0  0  0  0
    6.1371   13.9983   -0.4417 O   0  0  0  0  0  0  0  0  0  0  0  0
    3.9024   13.8739   -0.0380 N   0  0  0  0  0  0  0  0  0  0  0  0
    2.7168   14.4045    0.4476 C   0  0  0  0  0  0  0  0  0  0  0  0
    1.6333   13.6200    0.4555 N   0  0  0  0  0  0  0  0  0  0  0  0
    2.6123   15.6559    0.9241 N   0  0  0  0  0  0  0  0  0  0  0  0
    3.7918   16.3348    0.9450 C   0  0  0  0  0  0  0  0  0  0  0  0
  1  2  2  0  0  0  0
  1  4  1  0  0  0  0
  1  3  1  0  0  0  0
  5  1  1  0  0  0  0
  6  7  2  6  0  0  0
  6  9  1  0  0  0  0
  6  5  1  0  0  0  0
  6  8  1  0  0  0  0
 10 11  2  6  0  0  0
 10 12  1  0  0  0  0
 10 13  1  0  0  0  0
 10  9  1  0  0  0  0
 13 14  1  0  0  0  0
 15 14  1  1  0  0  0
 15 16  1  0  0  0  0
 17 19  1  0  0  0  0
 17 15  1  0  0  0  0
 17 18  1  6  0  0  0
 19 21  1  0  0  0  0
 19 20  1  1  0  0  0
 21 16  1  0  0  0  0
 21 22  1  6  0  0  0
 22 32  1  0  0  0  0
 23 22  1  0  0  0  0
 23 24  2  0  0  0  0
 24 25  1  0  0  0  0
 25 26  1  0  0  0  0
 26 27  2  0  0  0  0
 26 28  1  0  0  0  0
 29 28  1  0  0  0  0
 29 30  1  0  0  0  0
 31 29  2  0  0  0  0
 32 25  2  0  0  0  0
 32 31  1  0  0  0  0
M  END
>  <CHROM.1>
152.24748649,154.52675892,-175.87460589,-155.55882626,-71.60711870,-110.77365256
-40.02418739,64.89388168,178.42747614,-119.77051327,1.08602533,15.18368211
2.42018692,-2.27405259,0.45103648,-0.26477464

>  <Name>
lig.pdb

>  <RI>
0

>  <Rbt.Current_Directory>
/home/itssahil/PROJECTS/Mol_Feturizer/New_Systems/rnas/5lwj

>  <Rbt.Executable>
rbdock ($Id: //depot/dev/client3/rdock/2013.1/src/exe/rbdock.cxx#4 $)

>  <Rbt.Library>
libRbt.so (2013.1, Build901 2013/11/27)

>  <Rbt.Parameter_File>
/export/apps/rDock/src/rDock_2013.1_src/data/scripts/dock_solv.prm

>  <Rbt.Receptor>
prm/pocket_docking_4.prm

>  <SCORE>
-27.331

>  <SCORE.INTER>
-22.1517

>  <SCORE.INTER.CONST>
1

>  <SCORE.INTER.POLAR>
-2.0958

>  <SCORE.INTER.ROT>
8

>  <SCORE.INTER.SOLV>
17.1414

>  <SCORE.INTER.VDW>
-22.429

>  <SCORE.INTER.norm>
-0.692241

>  <SCORE.INTRA>
-5.46274

>  <SCORE.INTRA.DIHEDRAL>
2.76796

>  <SCORE.INTRA.DIHEDRAL.0>
10.9248

>  <SCORE.INTRA.POLAR>
-0.934172

>  <SCORE.INTRA.POLAR.0>
0

>  <SCORE.INTRA.REPUL>
0

>  <SCORE.INTRA.REPUL.0>
0

>  <SCORE.INTRA.SOLV>
2.53774

>  <SCORE.INTRA.SOLV.lig_0>
-51.4104

>  <SCORE.INTRA.VDW>
-4.93941

>  <SCORE.INTRA.VDW.0>
0.110327

>  <SCORE.INTRA.norm>
-0.170711

>  <SCORE.RESTR>
0.283421

>  <SCORE.RESTR.CAVITY>
0.283421

>  <SCORE.RESTR.norm>
0.00885691

>  <SCORE.SYSTEM>
0

>  <SCORE.SYSTEM.CONST>
0

>  <SCORE.SYSTEM.DIHEDRAL>
0

>  <SCORE.SYSTEM.SOLV>
0

>  <SCORE.SYSTEM.norm>
0

>  <SCORE.heavy>
32

>  <SCORE.norm>
-0.854095

>  <RMSD>
8.254

$$$$
lig.pdb
 OpenBabel11021811523D
libRbt.so/2013.1/901 2013/11/27
 32 34  0  0  0  0  0  0  0  0999 V2000
   -2.1597   13.1260    3.8505 P   0  0  0  0  0  0  0  0  0  0  0  0
   -3.5093   13.4517    3.2584 O   0  0  0  0  0  0  0  0  0  0  0  0
   -1.8365   14.4243    4.7684 O   0  0  0  0  0  0  0  0  0  0  0  0
   -2.0600   11.9799    4.8260 O   0  0  0  0  0  0  0  0  0  0  0  0
   -1.3038   12.7782    2.7328 O   0  0  0  0  0  0  0  0  0  0  0  0
    0.0933   13.1639    3.0412 P   0  0  1  0  0  0  0  0  0  0  0  0
    0.1451   14.6383    3.1809 O   0  0  0  0  0  0  0  0  0  0  0  0
    0.5220   12.5425    4.3158 O   0  0  0  0  0  0  0  0  0  0  0  0
    0.9832   12.7176    1.9400 O   0  0  0  0  0  0  0  0  0  0  0  0
    1.8721   13.6490    1.2057 P   0  0  1  0  0  0  0  0  0  0  0  0
    1.1864   14.5214    0.2308 O   0  0  0  0  0  0  0  0  0  0  0  0
    2.8946   14.3257    2.0345 O   0  0  0  0  0  0  0  0  0  0  0  0
    2.7159   12.6556    0.2466 O   0  0  0  0  0  0  0  0  0  0  0  0
    3.4768   13.1258   -0.8500 C   0  0  0  0  0  0  0  0  0  0  0  0
    3.7780   12.0235   -1.8750 C   0  0  1  0  0  0  0  0  0  0  0  0
    2.7546   11.0493   -1.8623 O   0  0  0  0  0  0  0  0  0  0  0  0
    3.7232   12.5032   -3.3360 C   0  0  1  0  0  0  0  0  0  0  0  0
    4.8528   13.2363   -3.7796 O   0  0  0  0  0  0  0  0  0  0  0  0
    3.5109   11.2107   -4.1239 C   0  0  1  0  0  0  0  0  0  0  0  0
    4.7353   10.6223   -4.5259 O   0  0  0  0  0  0  0  0  0  0  0  0
    2.8603   10.3166   -3.0700 C   0  0  2  0  0  0  0  0  0  0  0  0
    1.5612    9.7248   -3.4550 N   0  0  0  0  0  0  0  0  0  0  0  0
    0.7932    9.9121   -4.5763 C   0  0  0  0  0  0  0  0  0  0  0  0
   -0.3594    9.2947   -4.5419 N   0  0  0  0  0  0  0  0  0  0  0  0
   -0.3506    8.6271   -3.3209 C   0  0  0  0  0  0  0  0  0  0  0  0
   -1.3478    7.8148   -2.6919 C   0  0  0  0  0  0  0  0  0  0  0  0
   -2.4787    7.5608   -3.1015 O   0  0  0  0  0  0  0  0  0  0  0  0
   -0.9260    7.2935   -1.4614 N   0  0  0  0  0  0  0  0  0  0  0  0
    0.3345    7.5090   -0.9249 C   0  0  0  0  0  0  0  0  0  0  0  0
    0.6544    6.8697    0.2058 N   0  0  0  0  0  0  0  0  0  0  0  0
    1.2488    8.3107   -1.4952 N   0  0  0  0  0  0  0  0  0  0  0  0
    0.8472    8.8431   -2.6817 C   0  0  0  0  0  0  0  0  0  0  0  0
  1  2  2  0  0  0  0
  1  4  1  0  0  0  0
  1  3  1  0  0  0  0
  5  1  1  0  0  0  0
  6  7  2  1  0  0  0
  6  9  1  0  0  0  0
  6  5  1  0  0  0  0
  6  8  1  0  0  0  0
 10 11  2  6  0  0  0
 10 12  1  0  0  0  0
 10 13  1  0  0  0  0
 10  9  1  0  0  0  0
 13 14  1  0  0  0  0
 15 14  1  1  0  0  0
 15 16  1  0  0  0  0
 17 19  1  0  0  0  0
 17 15  1  0  0  0  0
 17 18  1  6  0  0  0
 19 21  1  0  0  0  0
 19 20  1  1  0  0  0
 21 16  1  0  0  0  0
 21 22  1  6  0  0  0
 22 32  1  0  0  0  0
 23 22  1  0  0  0  0
 23 24  2  0  0  0  0
 24 25  1  0  0  0  0
 25 26  1  0  0  0  0
 26 27  2  0  0  0  0
 26 28  1  0  0  0  0
 29 28  1  0  0  0  0
 29 30  1  0  0  0  0
 31 29  2  0  0  0  0
 32 25  2  0  0  0  0
 32 31  1  0  0  0  0
M  END
>  <CHROM.1>
148.95725995,124.21253118,-63.86012947,165.39359398,-75.45756118,-160.09545219
28.79102428,56.89966725,-61.91590695,119.45820490,0.81379811,11.54401657
-0.05503824,1.98948945,0.63672612,0.82002878

>  <Name>
lig.pdb

>  <RI>
2.0892e+07

>  <Rbt.Current_Directory>
/home/itssahil/PROJECTS/Mol_Feturizer/New_Systems/rnas/5lwj

>  <Rbt.Executable>
rbdock ($Id: //depot/dev/client3/rdock/2013.1/src/exe/rbdock.cxx#4 $)

>  <Rbt.Library>
libRbt.so (2013.1, Build901 2013/11/27)

>  <Rbt.Parameter_File>
/export/apps/rDock/src/rDock_2013.1_src/data/scripts/dock_solv.prm

>  <Rbt.Receptor>
prm/pocket_docking_8.prm

>  <SCORE>
-44.4631

>  <SCORE.INTER>
-42.2454

>  <SCORE.INTER.CONST>
1

>  <SCORE.INTER.POLAR>
-3.36527

>  <SCORE.INTER.ROT>
8

>  <SCORE.INTER.SOLV>
22.9625

>  <SCORE.INTER.VDW>
-33.5336

>  <SCORE.INTER.norm>
-1.32017

>  <SCORE.INTRA>
-2.21765

>  <SCORE.INTRA.DIHEDRAL>
0.230809

>  <SCORE.INTRA.DIHEDRAL.0>
10.9248

>  <SCORE.INTRA.POLAR>
0

>  <SCORE.INTRA.POLAR.0>
0

>  <SCORE.INTRA.REPUL>
0.00571435

>  <SCORE.INTRA.REPUL.0>
0

>  <SCORE.INTRA.SOLV>
-1.13122

>  <SCORE.INTRA.SOLV.lig_0>
-51.4104

>  <SCORE.INTRA.VDW>
-1.79601

>  <SCORE.INTRA.VDW.0>
0.110327

>  <SCORE.INTRA.norm>
-0.0693014

>  <SCORE.RESTR>
0

>  <SCORE.RESTR.CAVITY>
0

>  <SCORE.RESTR.norm>
0

>  <SCORE.SYSTEM>
0

>  <SCORE.SYSTEM.CONST>
0

>  <SCORE.SYSTEM.DIHEDRAL>
0

>  <SCORE.SYSTEM.SOLV>
0

>  <SCORE.SYSTEM.norm>
0

>  <SCORE.heavy>
32

>  <SCORE.norm>
-1.38947

>  <RMSD>
8.262

$$$$
lig.pdb
 OpenBabel11021811523D
libRbt.so/2013.1/901 2013/11/27
 32 34  0  0  0  0  0  0  0  0999 V2000
    0.3081   11.5244    4.6774 P   0  0  0  0  0  0  0  0  0  0  0  0
   -0.8339   10.5779    4.9571 O   0  0  0  0  0  0  0  0  0  0  0  0
    0.3537   12.4510    6.0085 O   0  0  0  0  0  0  0  0  0  0  0  0
    1.7056   10.9621    4.6001 O   0  0  0  0  0  0  0  0  0  0  0  0
    0.0372   12.1083    3.3781 O   0  0  0  0  0  0  0  0  0  0  0  0
   -1.1238   13.0234    3.4795 P   0  0  1  0  0  0  0  0  0  0  0  0
   -2.2155   12.3080    4.1812 O   0  0  0  0  0  0  0  0  0  0  0  0
   -0.7548   14.2270    4.2604 O   0  0  0  0  0  0  0  0  0  0  0  0
   -1.5589   13.4218    2.1173 O   0  0  0  0  0  0  0  0  0  0  0  0
   -2.8054   14.1846    1.8695 P   0  0  1  0  0  0  0  0  0  0  0  0
   -3.9504   13.3702    1.4141 O   0  0  0  0  0  0  0  0  0  0  0  0
   -3.1335   15.2013    2.8936 O   0  0  0  0  0  0  0  0  0  0  0  0
   -2.4424   15.0411    0.5454 O   0  0  0  0  0  0  0  0  0  0  0  0
   -1.9293   14.4406   -0.6289 C   0  0  0  0  0  0  0  0  0  0  0  0
   -1.2082   15.4451   -1.5385 C   0  0  1  0  0  0  0  0  0  0  0  0
   -0.3391   16.2592   -0.7781 O   0  0  0  0  0  0  0  0  0  0  0  0
   -0.2264   14.7927   -2.5275 C   0  0  1  0  0  0  0  0  0  0  0  0
   -0.8193   14.1794   -3.6600 O   0  0  0  0  0  0  0  0  0  0  0  0
    0.7128   15.9394   -2.9003 C   0  0  1  0  0  0  0  0  0  0  0  0
    0.2685   16.6434   -4.0467 O   0  0  0  0  0  0  0  0  0  0  0  0
    0.5768   16.8511   -1.6822 C   0  0  2  0  0  0  0  0  0  0  0  0
    1.8451   17.2031   -1.0089 N   0  0  0  0  0  0  0  0  0  0  0  0
    2.7545   18.1936   -1.2814 C   0  0  0  0  0  0  0  0  0  0  0  0
    3.8263   18.1537   -0.5328 N   0  0  0  0  0  0  0  0  0  0  0  0
    3.6064   17.0742    0.3175 C   0  0  0  0  0  0  0  0  0  0  0  0
    4.4351   16.5008    1.3346 C   0  0  0  0  0  0  0  0  0  0  0  0
    5.5745   16.8349    1.6529 O   0  0  0  0  0  0  0  0  0  0  0  0
    3.8209   15.4274    1.9936 N   0  0  0  0  0  0  0  0  0  0  0  0
    2.5347   14.9884    1.7179 C   0  0  0  0  0  0  0  0  0  0  0  0
    2.0209   14.0231    2.4886 N   0  0  0  0  0  0  0  0  0  0  0  0
    1.7799   15.4979    0.7307 N   0  0  0  0  0  0  0  0  0  0  0  0
    2.3700   16.5283    0.0656 C   0  0  0  0  0  0  0  0  0  0  0  0
  1  2  2  0  0  0  0
  1  4  1  0  0  0  0
  1  3  1  0  0  0  0
  5  1  1  0  0  0  0
  6  7  2  1  0  0  0
  6  9  1  0  0  0  0
  6  5  1  0  0  0  0
  6  8  1  0  0  0  0
 10 11  2  6  0  0  0
 10 12  1  0  0  0  0
 10 13  1  0  0  0  0
 10  9  1  0  0  0  0
 13 14  1  0  0  0  0
 15 14  1  1  0  0  0
 15 16  1  0  0  0  0
 17 19  1  0  0  0  0
 17 15  1  0  0  0  0
 17 18  1  6  0  0  0
 19 21  1  0  0  0  0
 19 20  1  6  0  0  0
 21 16  1  0  0  0  0
 21 22  1  1  0  0  0
 22 32  1  0  0  0  0
 23 22  1  0  0  0  0
 23 24  2  0  0  0  0
 24 25  1  0  0  0  0
 25 26  1  0  0  0  0
 26 27  2  0  0  0  0
 26 28  1  0  0  0  0
 29 28  1  0  0  0  0
 29 30  1  0  0  0  0
 31 29  2  0  0  0  0
 32 25  2  0  0  0  0
 32 31  1  0  0  0  0
M  END
>  <CHROM.1>
69.93544437,171.56501322,-49.22569889,52.38562185,-100.26523683,-159.61239727
46.00840223,-57.82595603,-49.60241203,-151.26539066,0.21845309,14.51586892
1.35932321,-1.94840827,-0.32219391,-1.03656618

>  <Name>
lig.pdb

>  <RI>
2.92062e+07

>  <Rbt.Current_Directory>
/home/itssahil/PROJECTS/Mol_Feturizer/New_Systems/rnas/5lwj

>  <Rbt.Executable>
rbdock ($Id: //depot/dev/client3/rdock/2013.1/src/exe/rbdock.cxx#4 $)

>  <Rbt.Library>
libRbt.so (2013.1, Build901 2013/11/27)

>  <Rbt.Parameter_File>
/export/apps/rDock/src/rDock_2013.1_src/data/scripts/dock_solv.prm

>  <Rbt.Receptor>
prm/pocket_docking_7.prm

>  <SCORE>
-23.5003

>  <SCORE.INTER>
-19.156

>  <SCORE.INTER.CONST>
1

>  <SCORE.INTER.POLAR>
-1.87134

>  <SCORE.INTER.ROT>
8

>  <SCORE.INTER.SOLV>
17.4822

>  <SCORE.INTER.VDW>
-21.2936

>  <SCORE.INTER.norm>
-0.598626

>  <SCORE.INTRA>
-4.34429

>  <SCORE.INTRA.DIHEDRAL>
-3.15595

>  <SCORE.INTRA.DIHEDRAL.0>
10.9248

>  <SCORE.INTRA.POLAR>
-0.528468

>  <SCORE.INTRA.POLAR.0>
0

>  <SCORE.INTRA.REPUL>
0.0610446

>  <SCORE.INTRA.REPUL.0>
0

>  <SCORE.INTRA.SOLV>
2.24181

>  <SCORE.INTRA.SOLV.lig_0>
-51.4104

>  <SCORE.INTRA.VDW>
-2.39565

>  <SCORE.INTRA.VDW.0>
0.110327

>  <SCORE.INTRA.norm>
-0.135759

>  <SCORE.RESTR>
0

>  <SCORE.RESTR.CAVITY>
0

>  <SCORE.RESTR.norm>
0

>  <SCORE.SYSTEM>
0

>  <SCORE.SYSTEM.CONST>
0

>  <SCORE.SYSTEM.DIHEDRAL>
0

>  <SCORE.SYSTEM.SOLV>
0

>  <SCORE.SYSTEM.norm>
0

>  <SCORE.heavy>
32

>  <SCORE.norm>
-0.734385

>  <RMSD>
8.265

$$$$
lig.pdb
 OpenBabel11021811523D
libRbt.so/2013.1/901 2013/11/27
 32 34  0  0  0  0  0  0  0  0999 V2000
    1.3805   10.9366    5.7686 P   0  0  0  0  0  0  0  0  0  0  0  0
    2.2350    9.7390    6.1057 O   0  0  0  0  0  0  0  0  0  0  0  0
    1.4770   11.8473    7.1079 O   0  0  0  0  0  0  0  0  0  0  0  0
    1.8490   11.8710    4.6811 O   0  0  0  0  0  0  0  0  0  0  0  0
    0.1058   10.4082    5.3230 O   0  0  0  0  0  0  0  0  0  0  0  0
   -0.8918   11.5026    5.2701 P   0  0  1  0  0  0  0  0  0  0  0  0
   -2.1969   10.9191    4.8798 O   0  0  0  0  0  0  0  0  0  0  0  0
   -1.0243   12.1337    6.6038 O   0  0  0  0  0  0  0  0  0  0  0  0
   -0.4605   12.5162    4.2750 O   0  0  0  0  0  0  0  0  0  0  0  0
   -1.4161   13.4206    3.5924 P   0  0  1  0  0  0  0  0  0  0  0  0
   -1.1918   13.5782    2.1410 O   0  0  0  0  0  0  0  0  0  0  0  0
   -2.8320   13.2525    3.9884 O   0  0  0  0  0  0  0  0  0  0  0  0
   -1.0017   14.8760    4.1659 O   0  0  0  0  0  0  0  0  0  0  0  0
   -1.6794   16.0600    3.7899 C   0  0  0  0  0  0  0  0  0  0  0  0
   -1.0822   16.7079    2.5330 C   0  0  1  0  0  0  0  0  0  0  0  0
   -0.0651   15.8880    1.9948 O   0  0  0  0  0  0  0  0  0  0  0  0
   -2.0641   16.7897    1.3510 C   0  0  1  0  0  0  0  0  0  0  0  0
   -3.0326   17.8219    1.4334 O   0  0  0  0  0  0  0  0  0  0  0  0
   -1.1451   16.9370    0.1386 C   0  0  1  0  0  0  0  0  0  0  0  0
   -0.8923   18.2944   -0.1790 O   0  0  0  0  0  0  0  0  0  0  0  0
    0.1457   16.3067    0.6581 C   0  0  2  0  0  0  0  0  0  0  0  0
    0.6934   15.2100   -0.1685 N   0  0  0  0  0  0  0  0  0  0  0  0
    0.1345   14.5140   -1.2104 C   0  0  0  0  0  0  0  0  0  0  0  0
    0.8753   13.5310   -1.6527 N   0  0  0  0  0  0  0  0  0  0  0  0
    2.0220   13.5897   -0.8665 C   0  0  0  0  0  0  0  0  0  0  0  0
    3.1834   12.7527   -0.8424 C   0  0  0  0  0  0  0  0  0  0  0  0
    3.3982   11.7454   -1.5135 O   0  0  0  0  0  0  0  0  0  0  0  0
    4.1401   13.1788    0.0888 N   0  0  0  0  0  0  0  0  0  0  0  0
    3.9966   14.3102    0.8778 C   0  0  0  0  0  0  0  0  0  0  0  0
    5.0262   14.6721    1.6514 N   0  0  0  0  0  0  0  0  0  0  0  0
    2.8853   15.0643    0.8862 N   0  0  0  0  0  0  0  0  0  0  0  0
    1.9361   14.6518    0.0022 C   0  0  0  0  0  0  0  0  0  0  0  0
  1  2  2  0  0  0  0
  1  4  1  0  0  0  0
  1  3  1  0  0  0  0
  5  1  1  0  0  0  0
  6  7  2  6  0  0  0
  6  9  1  0  0  0  0
  6  5  1  0  0  0  0
  6  8  1  0  0  0  0
 10 11  2  6  0  0  0
 10 12  1  0  0  0  0
 10 13  1  0  0  0  0
 10  9  1  0  0  0  0
 13 14  1  0  0  0  0
 15 14  1  1  0  0  0
 15 16  1  0  0  0  0
 17 19  1  0  0  0  0
 17 15  1  0  0  0  0
 17 18  1  1  0  0  0
 19 21  1  0  0  0  0
 19 20  1  1  0  0  0
 21 16  1  0  0  0  0
 21 22  1  6  0  0  0
 22 32  1  0  0  0  0
 23 22  1  0  0  0  0
 23 24  2  0  0  0  0
 24 25  1  0  0  0  0
 25 26  1  0  0  0  0
 26 27  2  0  0  0  0
 26 28  1  0  0  0  0
 29 28  1  0  0  0  0
 29 30  1  0  0  0  0
 31 29  2  0  0  0  0
 32 25  2  0  0  0  0
 32 31  1  0  0  0  0
M  END
>  <CHROM.1>
167.03424464,155.29623077,-177.13364568,-179.03402611,-135.94535363,-88.76098030
5.03928812,61.08290637,57.54094692,112.40012787,0.33661799,13.67647542,2.64869240
-1.67337534,0.55287851,-0.87453382

>  <Name>
lig.pdb

>  <RI>
0

>  <Rbt.Current_Directory>
/home/itssahil/PROJECTS/Mol_Feturizer/New_Systems/rnas/5lwj

>  <Rbt.Executable>
rbdock ($Id: //depot/dev/client3/rdock/2013.1/src/exe/rbdock.cxx#4 $)

>  <Rbt.Library>
libRbt.so (2013.1, Build901 2013/11/27)

>  <Rbt.Parameter_File>
/export/apps/rDock/src/rDock_2013.1_src/data/scripts/dock_solv.prm

>  <Rbt.Receptor>
prm/pocket_docking_6.prm

>  <SCORE>
-41.5487

>  <SCORE.INTER>
-41.724

>  <SCORE.INTER.CONST>
1

>  <SCORE.INTER.POLAR>
-4.45177

>  <SCORE.INTER.ROT>
8

>  <SCORE.INTER.SOLV>
22.5816

>  <SCORE.INTER.VDW>
-29.4373

>  <SCORE.INTER.norm>
-1.30387

>  <SCORE.INTRA>
0.171505

>  <SCORE.INTRA.DIHEDRAL>
3.47131

>  <SCORE.INTRA.DIHEDRAL.0>
10.9248

>  <SCORE.INTRA.POLAR>
0

>  <SCORE.INTRA.POLAR.0>
0

>  <SCORE.INTRA.REPUL>
0

>  <SCORE.INTRA.REPUL.0>
0

>  <SCORE.INTRA.SOLV>
0.663887

>  <SCORE.INTRA.SOLV.lig_0>
-51.4104

>  <SCORE.INTRA.VDW>
-1.89609

>  <SCORE.INTRA.VDW.0>
0.110327

>  <SCORE.INTRA.norm>
0.00535954

>  <SCORE.RESTR>
0.00381845

>  <SCORE.RESTR.CAVITY>
0.00381845

>  <SCORE.RESTR.norm>
0.000119327

>  <SCORE.SYSTEM>
0

>  <SCORE.SYSTEM.CONST>
0

>  <SCORE.SYSTEM.DIHEDRAL>
0

>  <SCORE.SYSTEM.SOLV>
0

>  <SCORE.SYSTEM.norm>
0

>  <SCORE.heavy>
32

>  <SCORE.norm>
-1.2984

>  <RMSD>
8.269

$$$$
lig.pdb
 OpenBabel11021811523D
libRbt.so/2013.1/901 2013/11/27
 32 34  0  0  0  0  0  0  0  0999 V2000
   -2.5292   16.0643    2.2060 P   0  0  0  0  0  0  0  0  0  0  0  0
   -2.7936   16.9519    3.3978 O   0  0  0  0  0  0  0  0  0  0  0  0
   -4.0009   15.4851    1.8438 O   0  0  0  0  0  0  0  0  0  0  0  0
   -2.0837   16.7063    0.9159 O   0  0  0  0  0  0  0  0  0  0  0  0
   -1.4584   15.1698    2.6008 O   0  0  0  0  0  0  0  0  0  0  0  0
   -2.0333   13.9564    3.2273 P   0  0  1  0  0  0  0  0  0  0  0  0
   -2.9540   14.3859    4.3061 O   0  0  0  0  0  0  0  0  0  0  0  0
   -2.7955   13.1788    2.2228 O   0  0  0  0  0  0  0  0  0  0  0  0
   -0.9387   13.1222    3.7839 O   0  0  0  0  0  0  0  0  0  0  0  0
    0.2992   12.8218    3.0261 P   0  0  1  0  0  0  0  0  0  0  0  0
    1.1043   11.7091    3.5699 O   0  0  0  0  0  0  0  0  0  0  0  0
    0.1493   12.8196    1.5539 O   0  0  0  0  0  0  0  0  0  0  0  0
    1.2305   14.1074    3.3399 O   0  0  0  0  0  0  0  0  0  0  0  0
    2.5838   14.1807    2.9326 C   0  0  0  0  0  0  0  0  0  0  0  0
    2.8148   15.2336    1.8397 C   0  0  1  0  0  0  0  0  0  0  0  0
    2.4001   16.5070    2.2902 O   0  0  0  0  0  0  0  0  0  0  0  0
    4.3000   15.4897    1.5291 C   0  0  1  0  0  0  0  0  0  0  0  0
    4.9335   14.5065    0.7278 O   0  0  0  0  0  0  0  0  0  0  0  0
    4.2902   16.8702    0.8730 C   0  0  1  0  0  0  0  0  0  0  0  0
    4.1693   16.7915   -0.5364 O   0  0  0  0  0  0  0  0  0  0  0  0
    3.0047   17.4674    1.4425 C   0  0  2  0  0  0  0  0  0  0  0  0
    3.1593   18.7681    2.1283 N   0  0  0  0  0  0  0  0  0  0  0  0
    4.1734   19.6905    2.0731 C   0  0  0  0  0  0  0  0  0  0  0  0
    4.0245   20.6961    2.8960 N   0  0  0  0  0  0  0  0  0  0  0  0
    2.8119   20.4400    3.5289 C   0  0  0  0  0  0  0  0  0  0  0  0
    2.1270   21.1558    4.5626 C   0  0  0  0  0  0  0  0  0  0  0  0
    2.5036   22.1652    5.1547 O   0  0  0  0  0  0  0  0  0  0  0  0
    0.8979   20.5745    4.9023 N   0  0  0  0  0  0  0  0  0  0  0  0
    0.3806   19.4480    4.2806 C   0  0  0  0  0  0  0  0  0  0  0  0
   -0.8510   19.0517    4.6207 N   0  0  0  0  0  0  0  0  0  0  0  0
    1.0483   18.7525    3.3456 N   0  0  0  0  0  0  0  0  0  0  0  0
    2.2546   19.2916    3.0186 C   0  0  0  0  0  0  0  0  0  0  0  0
  1  2  2  0  0  0  0
  1  4  1  0  0  0  0
  1  3  1  0  0  0  0
  5  1  1  0  0  0  0
  6  7  2  1  0  0  0
  6  9  1  0  0  0  0
  6  5  1  0  0  0  0
  6  8  1  0  0  0  0
 10 11  2  1  0  0  0
 10 12  1  0  0  0  0
 10 13  1  0  0  0  0
 10  9  1  0  0  0  0
 13 14  1  0  0  0  0
 15 14  1  1  0  0  0
 15 16  1  0  0  0  0
 17 19  1  0  0  0  0
 17 15  1  0  0  0  0
 17 18  1  6  0  0  0
 19 21  1  0  0  0  0
 19 20  1  6  0  0  0
 21 16  1  0  0  0  0
 21 22  1  1  0  0  0
 22 32  1  0  0  0  0
 23 22  1  0  0  0  0
 23 24  2  0  0  0  0
 24 25  1  0  0  0  0
 25 26  1  0  0  0  0
 26 27  2  0  0  0  0
 26 28  1  0  0  0  0
 29 28  1  0  0  0  0
 29 30  1  0  0  0  0
 31 29  2  0  0  0  0
 32 25  2  0  0  0  0
 32 31  1  0  0  0  0
M  END
>  <CHROM.1>
89.19253489,-45.89458509,-52.64546957,172.84050351,-164.52889737,111.65455831
57.97308180,-79.12884116,-61.55839130,142.17240770,0.67880935,16.31858369
2.73137631,2.27392615,-0.26586365,-2.88597954

>  <Name>
lig.pdb

>  <RI>
2.92062e+07

>  <Rbt.Current_Directory>
/home/itssahil/PROJECTS/Mol_Feturizer/New_Systems/rnas/5lwj

>  <Rbt.Executable>
rbdock ($Id: //depot/dev/client3/rdock/2013.1/src/exe/rbdock.cxx#4 $)

>  <Rbt.Library>
libRbt.so (2013.1, Build901 2013/11/27)

>  <Rbt.Parameter_File>
/export/apps/rDock/src/rDock_2013.1_src/data/scripts/dock_solv.prm

>  <Rbt.Receptor>
prm/pocket_docking_7.prm

>  <SCORE>
-26.2463

>  <SCORE.INTER>
-22.1552

>  <SCORE.INTER.CONST>
1

>  <SCORE.INTER.POLAR>
-2.02987

>  <SCORE.INTER.ROT>
8

>  <SCORE.INTER.SOLV>
12.8954

>  <SCORE.INTER.VDW>
-21.2357

>  <SCORE.INTER.norm>
-0.692349

>  <SCORE.INTRA>
-4.09111

>  <SCORE.INTRA.DIHEDRAL>
3.02793

>  <SCORE.INTRA.DIHEDRAL.0>
10.9248

>  <SCORE.INTRA.POLAR>
-1

>  <SCORE.INTRA.POLAR.0>
0

>  <SCORE.INTRA.REPUL>
0.248958

>  <SCORE.INTRA.REPUL.0>
0

>  <SCORE.INTRA.SOLV>
0.406755

>  <SCORE.INTRA.SOLV.lig_0>
-51.4104

>  <SCORE.INTRA.VDW>
-3.65325

>  <SCORE.INTRA.VDW.0>
0.110327

>  <SCORE.INTRA.norm>
-0.127847

>  <SCORE.RESTR>
0

>  <SCORE.RESTR.CAVITY>
0

>  <SCORE.RESTR.norm>
0

>  <SCORE.SYSTEM>
0

>  <SCORE.SYSTEM.CONST>
0

>  <SCORE.SYSTEM.DIHEDRAL>
0

>  <SCORE.SYSTEM.SOLV>
0

>  <SCORE.SYSTEM.norm>
0

>  <SCORE.heavy>
32

>  <SCORE.norm>
-0.820196

>  <RMSD>
8.269

$$$$
lig.pdb
 OpenBabel11021811523D
libRbt.so/2013.1/901 2013/11/27
 32 34  0  0  0  0  0  0  0  0999 V2000
   -1.2968   12.3358    4.7514 P   0  0  0  0  0  0  0  0  0  0  0  0
   -1.7599   13.7618    4.9245 O   0  0  0  0  0  0  0  0  0  0  0  0
   -0.0715   12.2150    5.8080 O   0  0  0  0  0  0  0  0  0  0  0  0
   -2.2246   11.2226    5.1698 O   0  0  0  0  0  0  0  0  0  0  0  0
   -1.0692   12.1567    3.3305 O   0  0  0  0  0  0  0  0  0  0  0  0
    0.2184   12.7852    2.9529 P   0  0  1  0  0  0  0  0  0  0  0  0
    1.2996   12.1152    3.7131 O   0  0  0  0  0  0  0  0  0  0  0  0
    0.4648   12.6063    1.5031 O   0  0  0  0  0  0  0  0  0  0  0  0
    0.1763   14.2324    3.2808 O   0  0  0  0  0  0  0  0  0  0  0  0
    0.5785   15.2813    2.3139 P   0  0  1  0  0  0  0  0  0  0  0  0
    2.0033   15.2527    1.9252 O   0  0  0  0  0  0  0  0  0  0  0  0
   -0.3667   15.5010    1.1966 O   0  0  0  0  0  0  0  0  0  0  0  0
    0.4886   16.6343    3.1970 O   0  0  0  0  0  0  0  0  0  0  0  0
    1.1166   17.8398    2.8033 C   0  0  0  0  0  0  0  0  0  0  0  0
    0.4550   18.4750    1.5724 C   0  0  1  0  0  0  0  0  0  0  0  0
    0.7054   17.6928    0.4226 O   0  0  0  0  0  0  0  0  0  0  0  0
   -1.0830   18.4631    1.6194 C   0  0  1  0  0  0  0  0  0  0  0  0
   -1.6750   19.4440    2.4545 O   0  0  0  0  0  0  0  0  0  0  0  0
   -1.4819   18.6176    0.1520 C   0  0  1  0  0  0  0  0  0  0  0  0
   -1.6584   19.9748   -0.2141 O   0  0  0  0  0  0  0  0  0  0  0  0
   -0.2425   18.0758   -0.5578 C   0  0  2  0  0  0  0  0  0  0  0  0
   -0.4908   16.9823   -1.5214 N   0  0  0  0  0  0  0  0  0  0  0  0
   -1.6648   16.3967   -1.9228 C   0  0  0  0  0  0  0  0  0  0  0  0
   -1.5044   15.3779   -2.7272 N   0  0  0  0  0  0  0  0  0  0  0  0
   -0.1256   15.2918   -2.8951 C   0  0  0  0  0  0  0  0  0  0  0  0
    0.6704   14.3554   -3.6295 C   0  0  0  0  0  0  0  0  0  0  0  0
    0.2855   13.3715   -4.2581 O   0  0  0  0  0  0  0  0  0  0  0  0
    2.0406   14.6434   -3.5693 N   0  0  0  0  0  0  0  0  0  0  0  0
    2.5690   15.7379   -2.9016 C   0  0  0  0  0  0  0  0  0  0  0  0
    3.8833   15.9643   -3.0068 N   0  0  0  0  0  0  0  0  0  0  0  0
    1.8232   16.5856   -2.1743 N   0  0  0  0  0  0  0  0  0  0  0  0
    0.4911   16.3079   -2.2043 C   0  0  0  0  0  0  0  0  0  0  0  0
  1  2  2  0  0  0  0
  1  4  1  0  0  0  0
  1  3  1  0  0  0  0
  5  1  1  0  0  0  0
  6  7  2  1  0  0  0
  6  9  1  0  0  0  0
  6  5  1  0  0  0  0
  6  8  1  0  0  0  0
 10 11  2  6  0  0  0
 10 12  1  0  0  0  0
 10 13  1  0  0  0  0
 10  9  1  0  0  0  0
 13 14  1  0  0  0  0
 15 14  1  1  0  0  0
 15 16  1  0  0  0  0
 17 19  1  0  0  0  0
 17 15  1  0  0  0  0
 17 18  1  1  0  0  0
 19 21  1  0  0  0  0
 19 20  1  6  0  0  0
 21 16  1  0  0  0  0
 21 22  1  1  0  0  0
 22 32  1  0  0  0  0
 23 22  1  0  0  0  0
 23 24  2  0  0  0  0
 24 25  1  0  0  0  0
 25 26  1  0  0  0  0
 26 27  2  0  0  0  0
 26 28  1  0  0  0  0
 29 28  1  0  0  0  0
 29 30  1  0  0  0  0
 31 29  2  0  0  0  0
 32 25  2  0  0  0  0
 32 31  1  0  0  0  0
M  END
>  <CHROM.1>
77.40654312,-131.17087091,60.85571554,162.75738924,-64.43455077,69.45822167
-69.73418868,-178.73434876,61.03261706,126.73566357,0.04878764,15.24472667
1.06030329,-2.08063589,1.23994244,-0.55702075

>  <Name>
lig.pdb

>  <RI>
2.92062e+07

>  <Rbt.Current_Directory>
/home/itssahil/PROJECTS/Mol_Feturizer/New_Systems/rnas/5lwj

>  <Rbt.Executable>
rbdock ($Id: //depot/dev/client3/rdock/2013.1/src/exe/rbdock.cxx#4 $)

>  <Rbt.Library>
libRbt.so (2013.1, Build901 2013/11/27)

>  <Rbt.Parameter_File>
/export/apps/rDock/src/rDock_2013.1_src/data/scripts/dock_solv.prm

>  <Rbt.Receptor>
prm/pocket_docking_7.prm

>  <SCORE>
-21.6648

>  <SCORE.INTER>
-17.6326

>  <SCORE.INTER.CONST>
1

>  <SCORE.INTER.POLAR>
-2.42552

>  <SCORE.INTER.ROT>
8

>  <SCORE.INTER.SOLV>
12.0005

>  <SCORE.INTER.VDW>
-16.6035

>  <SCORE.INTER.norm>
-0.551019

>  <SCORE.INTRA>
-4.03217

>  <SCORE.INTRA.DIHEDRAL>
-4.02907

>  <SCORE.INTRA.DIHEDRAL.0>
10.9248

>  <SCORE.INTRA.POLAR>
0

>  <SCORE.INTRA.POLAR.0>
0

>  <SCORE.INTRA.REPUL>
0.0368418

>  <SCORE.INTRA.REPUL.0>
0

>  <SCORE.INTRA.SOLV>
1.74018

>  <SCORE.INTRA.SOLV.lig_0>
-51.4104

>  <SCORE.INTRA.VDW>
-3.07193

>  <SCORE.INTRA.VDW.0>
0.110327

>  <SCORE.INTRA.norm>
-0.126005

>  <SCORE.RESTR>
0

>  <SCORE.RESTR.CAVITY>
0

>  <SCORE.RESTR.norm>
0

>  <SCORE.SYSTEM>
0

>  <SCORE.SYSTEM.CONST>
0

>  <SCORE.SYSTEM.DIHEDRAL>
0

>  <SCORE.SYSTEM.SOLV>
0

>  <SCORE.SYSTEM.norm>
0

>  <SCORE.heavy>
32

>  <SCORE.norm>
-0.677025

>  <RMSD>
8.275

$$$$
lig.pdb
 OpenBabel11021811523D
libRbt.so/2013.1/901 2013/11/27
 32 34  0  0  0  0  0  0  0  0999 V2000
   -0.4729   11.5689    5.3021 P   0  0  0  0  0  0  0  0  0  0  0  0
    0.5223   10.4525    5.5055 O   0  0  0  0  0  0  0  0  0  0  0  0
   -1.7115   10.8283    4.5604 O   0  0  0  0  0  0  0  0  0  0  0  0
   -1.1180   12.1874    6.5172 O   0  0  0  0  0  0  0  0  0  0  0  0
    0.2517   12.6383    4.6434 O   0  0  0  0  0  0  0  0  0  0  0  0
   -0.6800   13.4168    3.7940 P   0  0  1  0  0  0  0  0  0  0  0  0
   -1.1350   12.5430    2.6870 O   0  0  0  0  0  0  0  0  0  0  0  0
   -1.8559   13.8424    4.5881 O   0  0  0  0  0  0  0  0  0  0  0  0
    0.0216   14.6093    3.2561 O   0  0  0  0  0  0  0  0  0  0  0  0
    1.1109   14.5101    2.2559 P   0  0  1  0  0  0  0  0  0  0  0  0
    2.3207   13.8040    2.7248 O   0  0  0  0  0  0  0  0  0  0  0  0
    0.6756   14.1561    0.8864 O   0  0  0  0  0  0  0  0  0  0  0  0
    1.6275   16.0391    2.1378 O   0  0  0  0  0  0  0  0  0  0  0  0
    2.4717   16.4753    1.0891 C   0  0  0  0  0  0  0  0  0  0  0  0
    3.8532   15.8073    1.1273 C   0  0  1  0  0  0  0  0  0  0  0  0
    3.7667   14.4750    0.6647 O   0  0  0  0  0  0  0  0  0  0  0  0
    4.8612   16.4097    0.1329 C   0  0  1  0  0  0  0  0  0  0  0  0
    5.4380   17.6448    0.5226 O   0  0  0  0  0  0  0  0  0  0  0  0
    5.8985   15.2995   -0.0339 C   0  0  1  0  0  0  0  0  0  0  0  0
    6.9682   15.4245    0.8867 O   0  0  0  0  0  0  0  0  0  0  0  0
    5.0800   14.0624    0.3310 C   0  0  2  0  0  0  0  0  0  0  0  0
    5.0642   12.9899   -0.6865 N   0  0  0  0  0  0  0  0  0  0  0  0
    6.0914   12.2595   -1.2285 C   0  0  0  0  0  0  0  0  0  0  0  0
    5.7218   11.4504   -2.1875 N   0  0  0  0  0  0  0  0  0  0  0  0
    4.3453   11.6352   -2.2759 C   0  0  0  0  0  0  0  0  0  0  0  0
    3.3800   11.0623   -3.1646 C   0  0  0  0  0  0  0  0  0  0  0  0
    3.5829   10.2857   -4.0957 O   0  0  0  0  0  0  0  0  0  0  0  0
    2.0733   11.4922   -2.8964 N   0  0  0  0  0  0  0  0  0  0  0  0
    1.7427   12.3514   -1.8594 C   0  0  0  0  0  0  0  0  0  0  0  0
    0.4472   12.6030   -1.6400 N   0  0  0  0  0  0  0  0  0  0  0  0
    2.6569   12.9237   -1.0591 N   0  0  0  0  0  0  0  0  0  0  0  0
    3.9346   12.5335   -1.3197 C   0  0  0  0  0  0  0  0  0  0  0  0
  1  2  2  0  0  0  0
  1  4  1  0  0  0  0
  1  3  1  0  0  0  0
  5  1  1  0  0  0  0
  6  7  2  6  0  0  0
  6  9  1  0  0  0  0
  6  5  1  0  0  0  0
  6  8  1  0  0  0  0
 10 11  2  1  0  0  0
 10 12  1  0  0  0  0
 10 13  1  0  0  0  0
 10  9  1  0  0  0  0
 13 14  1  0  0  0  0
 15 14  1  6  0  0  0
 15 16  1  0  0  0  0
 17 19  1  0  0  0  0
 17 15  1  0  0  0  0
 17 18  1  1  0  0  0
 19 21  1  0  0  0  0
 19 20  1  1  0  0  0
 21 16  1  0  0  0  0
 21 22  1  6  0  0  0
 22 32  1  0  0  0  0
 23 22  1  0  0  0  0
 23 24  2  0  0  0  0
 24 25  1  0  0  0  0
 25 26  1  0  0  0  0
 26 27  2  0  0  0  0
 26 28  1  0  0  0  0
 29 28  1  0  0  0  0
 29 30  1  0  0  0  0
 31 29  2  0  0  0  0
 32 25  2  0  0  0  0
 32 31  1  0  0  0  0
M  END
>  <CHROM.1>
150.45015044,68.64757241,-66.79645577,-166.16029994,-63.79917100,-64.82506529
75.42701461,-61.03896597,-178.42387220,-175.79237351,2.07454993,13.36976978
1.37037601,2.65391994,0.72668699,0.80713298

>  <Name>
lig.pdb

>  <RI>
2.92062e+07

>  <Rbt.Current_Directory>
/home/itssahil/PROJECTS/Mol_Feturizer/New_Systems/rnas/5lwj

>  <Rbt.Executable>
rbdock ($Id: //depot/dev/client3/rdock/2013.1/src/exe/rbdock.cxx#4 $)

>  <Rbt.Library>
libRbt.so (2013.1, Build901 2013/11/27)

>  <Rbt.Parameter_File>
/export/apps/rDock/src/rDock_2013.1_src/data/scripts/dock_solv.prm

>  <Rbt.Receptor>
prm/pocket_docking_7.prm

>  <SCORE>
-35.7658

>  <SCORE.INTER>
-28.4009

>  <SCORE.INTER.CONST>
1

>  <SCORE.INTER.POLAR>
-2.41321

>  <SCORE.INTER.ROT>
8

>  <SCORE.INTER.SOLV>
20.9822

>  <SCORE.INTER.VDW>
-26.8173

>  <SCORE.INTER.norm>
-0.887529

>  <SCORE.INTRA>
-7.36489

>  <SCORE.INTRA.DIHEDRAL>
-5.58033

>  <SCORE.INTRA.DIHEDRAL.0>
10.9248

>  <SCORE.INTRA.POLAR>
-1

>  <SCORE.INTRA.POLAR.0>
0

>  <SCORE.INTRA.REPUL>
0.400708

>  <SCORE.INTRA.REPUL.0>
0

>  <SCORE.INTRA.SOLV>
1.3516

>  <SCORE.INTRA.SOLV.lig_0>
-51.4104

>  <SCORE.INTRA.VDW>
-3.85407

>  <SCORE.INTRA.VDW.0>
0.110327

>  <SCORE.INTRA.norm>
-0.230153

>  <SCORE.RESTR>
0

>  <SCORE.RESTR.CAVITY>
0

>  <SCORE.RESTR.norm>
0

>  <SCORE.SYSTEM>
0

>  <SCORE.SYSTEM.CONST>
0

>  <SCORE.SYSTEM.DIHEDRAL>
0

>  <SCORE.SYSTEM.SOLV>
0

>  <SCORE.SYSTEM.norm>
0

>  <SCORE.heavy>
32

>  <SCORE.norm>
-1.11768

>  <RMSD>
8.318

$$$$
lig.pdb
 OpenBabel11021811523D
libRbt.so/2013.1/901 2013/11/27
 32 34  0  0  0  0  0  0  0  0999 V2000
   -1.0679   13.0476    3.7361 P   0  0  0  0  0  0  0  0  0  0  0  0
   -1.2577   12.4282    5.0993 O   0  0  0  0  0  0  0  0  0  0  0  0
   -0.7471   14.6009    4.0780 O   0  0  0  0  0  0  0  0  0  0  0  0
    0.1220   12.6225    2.9124 O   0  0  0  0  0  0  0  0  0  0  0  0
   -2.2410   12.6868    2.9638 O   0  0  0  0  0  0  0  0  0  0  0  0
   -2.3500   13.5776    1.7848 P   0  0  1  0  0  0  0  0  0  0  0  0
   -3.5598   13.1884    1.0225 O   0  0  0  0  0  0  0  0  0  0  0  0
   -2.4877   14.9859    2.2234 O   0  0  0  0  0  0  0  0  0  0  0  0
   -1.1378   13.4301    0.9407 O   0  0  0  0  0  0  0  0  0  0  0  0
   -1.0036   14.0828   -0.3832 P   0  0  1  0  0  0  0  0  0  0  0  0
   -1.8001   13.4647   -1.4627 O   0  0  0  0  0  0  0  0  0  0  0  0
   -1.0304   15.5623   -0.3595 O   0  0  0  0  0  0  0  0  0  0  0  0
    0.5108   13.7086   -0.8138 O   0  0  0  0  0  0  0  0  0  0  0  0
    0.9217   13.6501   -2.1667 C   0  0  0  0  0  0  0  0  0  0  0  0
    2.4476   13.7108   -2.3229 C   0  0  1  0  0  0  0  0  0  0  0  0
    2.9149   15.0197   -2.0684 O   0  0  0  0  0  0  0  0  0  0  0  0
    3.2126   12.9028   -1.2600 C   0  0  1  0  0  0  0  0  0  0  0  0
    3.2389   11.4998   -1.4629 O   0  0  0  0  0  0  0  0  0  0  0  0
    4.6069   13.5287   -1.2772 C   0  0  1  0  0  0  0  0  0  0  0  0
    5.4775   12.8702   -2.1803 O   0  0  0  0  0  0  0  0  0  0  0  0
    4.3057   14.9254   -1.8173 C   0  0  2  0  0  0  0  0  0  0  0  0
    4.7770   16.0460   -0.9756 N   0  0  0  0  0  0  0  0  0  0  0  0
    6.0087   16.6451   -0.8963 C   0  0  0  0  0  0  0  0  0  0  0  0
    6.0994   17.5550    0.0390 N   0  0  0  0  0  0  0  0  0  0  0  0
    4.8302   17.5834    0.6091 C   0  0  0  0  0  0  0  0  0  0  0  0
    4.3148   18.3450    1.7064 C   0  0  0  0  0  0  0  0  0  0  0  0
    4.9234   19.1357    2.4246 O   0  0  0  0  0  0  0  0  0  0  0  0
    2.9558   18.1003    1.9459 N   0  0  0  0  0  0  0  0  0  0  0  0
    2.1815   17.2410    1.1810 C   0  0  0  0  0  0  0  0  0  0  0  0
    0.8714   17.1733    1.4432 N   0  0  0  0  0  0  0  0  0  0  0  0
    2.6806   16.4927    0.1836 N   0  0  0  0  0  0  0  0  0  0  0  0
    4.0052   16.7022   -0.0488 C   0  0  0  0  0  0  0  0  0  0  0  0
  1  2  2  0  0  0  0
  1  4  1  0  0  0  0
  1  3  1  0  0  0  0
  5  1  1  0  0  0  0
  6  7  2  6  0  0  0
  6  9  1  0  0  0  0
  6  5  1  0  0  0  0
  6  8  1  0  0  0  0
 10 11  2  6  0  0  0
 10 12  1  0  0  0  0
 10 13  1  0  0  0  0
 10  9  1  0  0  0  0
 13 14  1  0  0  0  0
 15 14  1  1  0  0  0
 15 16  1  0  0  0  0
 17 19  1  0  0  0  0
 17 15  1  0  0  0  0
 17 18  1  6  0  0  0
 19 21  1  0  0  0  0
 19 20  1  6  0  0  0
 21 16  1  0  0  0  0
 21 22  1  1  0  0  0
 22 32  1  0  0  0  0
 23 22  1  0  0  0  0
 23 24  2  0  0  0  0
 24 25  1  0  0  0  0
 25 26  1  0  0  0  0
 26 27  2  0  0  0  0
 26 28  1  0  0  0  0
 29 28  1  0  0  0  0
 29 30  1  0  0  0  0
 31 29  2  0  0  0  0
 32 25  2  0  0  0  0
 32 31  1  0  0  0  0
M  END
>  <CHROM.1>
162.46549313,173.54781445,-179.69975483,154.58046792,-74.13724175,162.20459167
-73.36909899,-78.97323943,-177.87173391,-152.23389987,1.21450699,14.68162174
0.62420603,-3.10985972,-0.53421855,-2.27924149

>  <Name>
lig.pdb

>  <RI>
1.82117e+07

>  <Rbt.Current_Directory>
/home/itssahil/PROJECTS/Mol_Feturizer/New_Systems/rnas/5lwj

>  <Rbt.Executable>
rbdock ($Id: //depot/dev/client3/rdock/2013.1/src/exe/rbdock.cxx#4 $)

>  <Rbt.Library>
libRbt.so (2013.1, Build901 2013/11/27)

>  <Rbt.Parameter_File>
/export/apps/rDock/src/rDock_2013.1_src/data/scripts/dock_solv.prm

>  <Rbt.Receptor>
prm/pocket_docking_5.prm

>  <SCORE>
-22.5388

>  <SCORE.INTER>
-13.9144

>  <SCORE.INTER.CONST>
1

>  <SCORE.INTER.POLAR>
-1.36965

>  <SCORE.INTER.ROT>
8

>  <SCORE.INTER.SOLV>
14.6002

>  <SCORE.INTER.VDW>
-18.5108

>  <SCORE.INTER.norm>
-0.434825

>  <SCORE.INTRA>
-8.62443

>  <SCORE.INTRA.DIHEDRAL>
-3.02071

>  <SCORE.INTRA.DIHEDRAL.0>
10.9248

>  <SCORE.INTRA.POLAR>
-1

>  <SCORE.INTRA.POLAR.0>
0

>  <SCORE.INTRA.REPUL>
0.0115444

>  <SCORE.INTRA.REPUL.0>
0

>  <SCORE.INTRA.SOLV>
-0.0416141

>  <SCORE.INTRA.SOLV.lig_0>
-51.4104

>  <SCORE.INTRA.VDW>
-3.75099

>  <SCORE.INTRA.VDW.0>
0.110327

>  <SCORE.INTRA.norm>
-0.269513

>  <SCORE.RESTR>
0

>  <SCORE.RESTR.CAVITY>
0

>  <SCORE.RESTR.norm>
0

>  <SCORE.SYSTEM>
0

>  <SCORE.SYSTEM.CONST>
0

>  <SCORE.SYSTEM.DIHEDRAL>
0

>  <SCORE.SYSTEM.SOLV>
0

>  <SCORE.SYSTEM.norm>
0

>  <SCORE.heavy>
32

>  <SCORE.norm>
-0.704339

>  <RMSD>
8.322

$$$$
lig.pdb
 OpenBabel11021811523D
libRbt.so/2013.1/901 2013/11/27
 32 34  0  0  0  0  0  0  0  0999 V2000
    0.8164   11.6045    5.6868 P   0  0  0  0  0  0  0  0  0  0  0  0
    1.7163   12.0716    6.8048 O   0  0  0  0  0  0  0  0  0  0  0  0
    1.7849   10.6407    4.8118 O   0  0  0  0  0  0  0  0  0  0  0  0
   -0.3472   10.7072    6.0274 O   0  0  0  0  0  0  0  0  0  0  0  0
    0.2432   12.8027    5.1049 O   0  0  0  0  0  0  0  0  0  0  0  0
   -0.3297   12.4820    3.7765 P   0  0  1  0  0  0  0  0  0  0  0  0
    0.7355   11.8660    2.9509 O   0  0  0  0  0  0  0  0  0  0  0  0
   -1.4449   11.5180    3.9239 O   0  0  0  0  0  0  0  0  0  0  0  0
   -0.8232   13.7278    3.1378 O   0  0  0  0  0  0  0  0  0  0  0  0
    0.0768   14.6778    2.4418 P   0  0  1  0  0  0  0  0  0  0  0  0
    0.6642   15.7218    3.3061 O   0  0  0  0  0  0  0  0  0  0  0  0
    1.0200   14.0610    1.4826 O   0  0  0  0  0  0  0  0  0  0  0  0
   -0.9458   15.5279    1.5197 O   0  0  0  0  0  0  0  0  0  0  0  0
   -0.7880   16.9160    1.2939 C   0  0  0  0  0  0  0  0  0  0  0  0
   -0.2346   17.2272   -0.1037 C   0  0  1  0  0  0  0  0  0  0  0  0
    1.0041   17.8992   -0.0022 O   0  0  0  0  0  0  0  0  0  0  0  0
    0.1630   15.9759   -0.9062 C   0  0  1  0  0  0  0  0  0  0  0  0
   -0.9125   15.2545   -1.4831 O   0  0  0  0  0  0  0  0  0  0  0  0
    1.1364   16.5215   -1.9507 C   0  0  1  0  0  0  0  0  0  0  0  0
    0.4807   16.8922   -3.1506 O   0  0  0  0  0  0  0  0  0  0  0  0
    1.6457   17.7851   -1.2599 C   0  0  2  0  0  0  0  0  0  0  0  0
    3.1145   17.8860   -1.1250 N   0  0  0  0  0  0  0  0  0  0  0  0
    3.9927   18.8212   -1.6114 C   0  0  0  0  0  0  0  0  0  0  0  0
    5.2496   18.5429   -1.3804 N   0  0  0  0  0  0  0  0  0  0  0  0
    5.2073   17.3487   -0.6671 C   0  0  0  0  0  0  0  0  0  0  0  0
    6.2624   16.5211   -0.1654 C   0  0  0  0  0  0  0  0  0  0  0  0
    7.4736   16.6826   -0.3004 O   0  0  0  0  0  0  0  0  0  0  0  0
    5.7889   15.4051    0.5377 N   0  0  0  0  0  0  0  0  0  0  0  0
    4.4443   15.1467    0.7574 C   0  0  0  0  0  0  0  0  0  0  0  0
    4.1227   14.1063    1.5345 N   0  0  0  0  0  0  0  0  0  0  0  0
    3.4577   15.8994    0.2438 N   0  0  0  0  0  0  0  0  0  0  0  0
    3.9000   16.9767   -0.4607 C   0  0  0  0  0  0  0  0  0  0  0  0
  1  2  2  0  0  0  0
  1  4  1  0  0  0  0
  1  3  1  0  0  0  0
  5  1  1  0  0  0  0
  6  7  2  6  0  0  0
  6  9  1  0  0  0  0
  6  5  1  0  0  0  0
  6  8  1  0  0  0  0
 10 11  2  1  0  0  0
 10 12  1  0  0  0  0
 10 13  1  0  0  0  0
 10  9  1  0  0  0  0
 13 14  1  0  0  0  0
 15 14  1  1  0  0  0
 15 16  1  0  0  0  0
 17 19  1  0  0  0  0
 17 15  1  0  0  0  0
 17 18  1  6  0  0  0
 19 21  1  0  0  0  0
 19 20  1  6  0  0  0
 21 16  1  0  0  0  0
 21 22  1  1  0  0  0
 22 32  1  0  0  0  0
 23 22  1  0  0  0  0
 23 24  2  0  0  0  0
 24 25  1  0  0  0  0
 25 26  1  0  0  0  0
 26 27  2  0  0  0  0
 26 28  1  0  0  0  0
 29 28  1  0  0  0  0
 29 30  1  0  0  0  0
 31 29  2  0  0  0  0
 32 25  2  0  0  0  0
 32 31  1  0  0  0  0
M  END
>  <CHROM.1>
163.64628895,80.47672092,-55.45089740,142.47003337,-88.75511838,104.23144646
-118.97880994,-62.27096905,-176.25722924,-116.28585842,1.58087142,14.83496637
1.63343549,-1.96979823,-0.05534364,-0.86125496

>  <Name>
lig.pdb

>  <RI>
0

>  <Rbt.Current_Directory>
/home/itssahil/PROJECTS/Mol_Feturizer/New_Systems/rnas/5lwj

>  <Rbt.Executable>
rbdock ($Id: //depot/dev/client3/rdock/2013.1/src/exe/rbdock.cxx#4 $)

>  <Rbt.Library>
libRbt.so (2013.1, Build901 2013/11/27)

>  <Rbt.Parameter_File>
/export/apps/rDock/src/rDock_2013.1_src/data/scripts/dock_solv.prm

>  <Rbt.Receptor>
prm/pocket_docking_4.prm

>  <SCORE>
-29.6718

>  <SCORE.INTER>
-27.0253

>  <SCORE.INTER.CONST>
1

>  <SCORE.INTER.POLAR>
-3.28104

>  <SCORE.INTER.ROT>
8

>  <SCORE.INTER.SOLV>
17.1168

>  <SCORE.INTER.VDW>
-21.719

>  <SCORE.INTER.norm>
-0.844539

>  <SCORE.INTRA>
-2.64656

>  <SCORE.INTRA.DIHEDRAL>
6.22973

>  <SCORE.INTRA.DIHEDRAL.0>
10.9248

>  <SCORE.INTRA.POLAR>
-1.05929

>  <SCORE.INTRA.POLAR.0>
0

>  <SCORE.INTRA.REPUL>
0

>  <SCORE.INTRA.REPUL.0>
0

>  <SCORE.INTRA.SOLV>
1.18217

>  <SCORE.INTRA.SOLV.lig_0>
-51.4104

>  <SCORE.INTRA.VDW>
-2.75093

>  <SCORE.INTRA.VDW.0>
0.110327

>  <SCORE.INTRA.norm>
-0.0827051

>  <SCORE.RESTR>
0

>  <SCORE.RESTR.CAVITY>
0

>  <SCORE.RESTR.norm>
0

>  <SCORE.SYSTEM>
0

>  <SCORE.SYSTEM.CONST>
0

>  <SCORE.SYSTEM.DIHEDRAL>
0

>  <SCORE.SYSTEM.SOLV>
0

>  <SCORE.SYSTEM.norm>
0

>  <SCORE.heavy>
32

>  <SCORE.norm>
-0.927244

>  <RMSD>
8.325

$$$$
lig.pdb
 OpenBabel11021811523D
libRbt.so/2013.1/901 2013/11/27
 32 34  0  0  0  0  0  0  0  0999 V2000
   -0.8222   11.9871    4.8992 P   0  0  0  0  0  0  0  0  0  0  0  0
   -1.1793   12.3970    6.3072 O   0  0  0  0  0  0  0  0  0  0  0  0
    0.0055   10.6084    5.1150 O   0  0  0  0  0  0  0  0  0  0  0  0
   -1.9342   11.5797    3.9650 O   0  0  0  0  0  0  0  0  0  0  0  0
   -0.1903   13.1425    4.2922 O   0  0  0  0  0  0  0  0  0  0  0  0
    0.2506   12.8007    2.9194 P   0  0  1  0  0  0  0  0  0  0  0  0
    1.0559   11.5587    2.9890 O   0  0  0  0  0  0  0  0  0  0  0  0
   -0.9269   12.5651    2.0519 O   0  0  0  0  0  0  0  0  0  0  0  0
    1.0645   13.9143    2.3707 O   0  0  0  0  0  0  0  0  0  0  0  0
    2.2982   14.4017    3.0321 P   0  0  1  0  0  0  0  0  0  0  0  0
    2.3179   15.8510    3.3168 O   0  0  0  0  0  0  0  0  0  0  0  0
    2.8030   13.5455    4.1286 O   0  0  0  0  0  0  0  0  0  0  0  0
    3.4083   14.2643    1.8626 O   0  0  0  0  0  0  0  0  0  0  0  0
    4.7876   14.4756    2.0981 C   0  0  0  0  0  0  0  0  0  0  0  0
    5.5566   14.8329    0.8185 C   0  0  1  0  0  0  0  0  0  0  0  0
    5.1269   14.0206   -0.2548 O   0  0  0  0  0  0  0  0  0  0  0  0
    5.2440   16.2398    0.2793 C   0  0  1  0  0  0  0  0  0  0  0  0
    5.8724   17.3093    0.9659 O   0  0  0  0  0  0  0  0  0  0  0  0
    5.6594   16.1550   -1.1892 C   0  0  1  0  0  0  0  0  0  0  0  0
    7.0062   16.5476   -1.3874 O   0  0  0  0  0  0  0  0  0  0  0  0
    5.5427   14.6547   -1.4512 C   0  0  2  0  0  0  0  0  0  0  0  0
    4.6783   14.2751   -2.5891 N   0  0  0  0  0  0  0  0  0  0  0  0
    4.9212   14.2953   -3.9393 C   0  0  0  0  0  0  0  0  0  0  0  0
    3.8846   13.9803   -4.6720 N   0  0  0  0  0  0  0  0  0  0  0  0
    2.8841   13.7059   -3.7444 C   0  0  0  0  0  0  0  0  0  0  0  0
    1.5107   13.3457   -3.9291 C   0  0  0  0  0  0  0  0  0  0  0  0
    0.8979   13.2375   -4.9893 O   0  0  0  0  0  0  0  0  0  0  0  0
    0.8414   13.1205   -2.7187 N   0  0  0  0  0  0  0  0  0  0  0  0
    1.4501   13.2010   -1.4753 C   0  0  0  0  0  0  0  0  0  0  0  0
    0.7313   12.8593   -0.4000 N   0  0  0  0  0  0  0  0  0  0  0  0
    2.7254   13.5861   -1.3047 N   0  0  0  0  0  0  0  0  0  0  0  0
    3.3849   13.8299   -2.4701 C   0  0  0  0  0  0  0  0  0  0  0  0
  1  2  2  0  0  0  0
  1  4  1  0  0  0  0
  1  3  1  0  0  0  0
  5  1  1  0  0  0  0
  6  7  2  1  0  0  0
  6  9  1  0  0  0  0
  6  5  1  0  0  0  0
  6  8  1  0  0  0  0
 10 11  2  1  0  0  0
 10 12  1  0  0  0  0
 10 13  1  0  0  0  0
 10  9  1  0  0  0  0
 13 14  1  0  0  0  0
 15 14  1  1  0  0  0
 15 16  1  0  0  0  0
 17 19  1  0  0  0  0
 17 15  1  0  0  0  0
 17 18  1  1  0  0  0
 19 21  1  0  0  0  0
 19 20  1  1  0  0  0
 21 16  1  0  0  0  0
 21 22  1  6  0  0  0
 22 32  1  0  0  0  0
 23 22  1  0  0  0  0
 23 24  2  0  0  0  0
 24 25  1  0  0  0  0
 25 26  1  0  0  0  0
 26 27  2  0  0  0  0
 26 28  1  0  0  0  0
 29 28  1  0  0  0  0
 29 30  1  0  0  0  0
 31 29  2  0  0  0  0
 32 25  2  0  0  0  0
 32 31  1  0  0  0  0
M  END
>  <CHROM.1>
177.36341671,58.05791682,-51.74850961,-172.42958786,-125.67987608,-157.53724255
-42.13777327,-43.48916214,-49.45566286,-157.39436535,2.27531047,13.73429246
0.92617872,2.26947436,0.55444923,1.49285363

>  <Name>
lig.pdb

>  <RI>
0

>  <Rbt.Current_Directory>
/home/itssahil/PROJECTS/Mol_Feturizer/New_Systems/rnas/5lwj

>  <Rbt.Executable>
rbdock ($Id: //depot/dev/client3/rdock/2013.1/src/exe/rbdock.cxx#4 $)

>  <Rbt.Library>
libRbt.so (2013.1, Build901 2013/11/27)

>  <Rbt.Parameter_File>
/export/apps/rDock/src/rDock_2013.1_src/data/scripts/dock_solv.prm

>  <Rbt.Receptor>
prm/pocket_docking_6.prm

>  <SCORE>
-21.8219

>  <SCORE.INTER>
-23.5804

>  <SCORE.INTER.CONST>
1

>  <SCORE.INTER.POLAR>
-3.03118

>  <SCORE.INTER.ROT>
8

>  <SCORE.INTER.SOLV>
21.0194

>  <SCORE.INTER.VDW>
-21.5561

>  <SCORE.INTER.norm>
-0.736887

>  <SCORE.INTRA>
1.63314

>  <SCORE.INTRA.DIHEDRAL>
-0.518974

>  <SCORE.INTRA.DIHEDRAL.0>
10.9248

>  <SCORE.INTRA.POLAR>
-0.817621

>  <SCORE.INTRA.POLAR.0>
0

>  <SCORE.INTRA.REPUL>
1.13984

>  <SCORE.INTRA.REPUL.0>
0

>  <SCORE.INTRA.SOLV>
1.93267

>  <SCORE.INTRA.SOLV.lig_0>
-51.4104

>  <SCORE.INTRA.VDW>
-1.993

>  <SCORE.INTRA.VDW.0>
0.110327

>  <SCORE.INTRA.norm>
0.0510356

>  <SCORE.RESTR>
0.125332

>  <SCORE.RESTR.CAVITY>
0.125332

>  <SCORE.RESTR.norm>
0.00391664

>  <SCORE.SYSTEM>
0

>  <SCORE.SYSTEM.CONST>
0

>  <SCORE.SYSTEM.DIHEDRAL>
0

>  <SCORE.SYSTEM.SOLV>
0

>  <SCORE.SYSTEM.norm>
0

>  <SCORE.heavy>
32

>  <SCORE.norm>
-0.681935

>  <RMSD>
8.326

$$$$
lig.pdb
 OpenBabel11021811523D
libRbt.so/2013.1/901 2013/11/27
 32 34  0  0  0  0  0  0  0  0999 V2000
    0.0625   11.4452    5.5111 P   0  0  0  0  0  0  0  0  0  0  0  0
   -0.8458   12.1282    6.5043 O   0  0  0  0  0  0  0  0  0  0  0  0
    1.4298   12.3139    5.6035 O   0  0  0  0  0  0  0  0  0  0  0  0
    0.5253   10.0405    5.8074 O   0  0  0  0  0  0  0  0  0  0  0  0
   -0.6837   11.3692    4.2700 O   0  0  0  0  0  0  0  0  0  0  0  0
   -0.4182   12.5802    3.4585 P   0  0  1  0  0  0  0  0  0  0  0  0
   -0.6315   13.7681    4.3184 O   0  0  0  0  0  0  0  0  0  0  0  0
    0.9845   12.5746    2.9819 O   0  0  0  0  0  0  0  0  0  0  0  0
   -1.3433   12.6095    2.2980 O   0  0  0  0  0  0  0  0  0  0  0  0
   -1.4324   13.7684    1.3781 P   0  0  1  0  0  0  0  0  0  0  0  0
   -2.7051   13.8743    0.6360 O   0  0  0  0  0  0  0  0  0  0  0  0
   -0.9237   15.0455    1.9260 O   0  0  0  0  0  0  0  0  0  0  0  0
   -0.3828   13.3782    0.2099 O   0  0  0  0  0  0  0  0  0  0  0  0
   -0.3568   14.0433   -1.0390 C   0  0  0  0  0  0  0  0  0  0  0  0
   -0.0914   15.5489   -0.9001 C   0  0  1  0  0  0  0  0  0  0  0  0
    1.1497   15.7712   -0.2624 O   0  0  0  0  0  0  0  0  0  0  0  0
    0.1240   16.2673   -2.2437 C   0  0  1  0  0  0  0  0  0  0  0  0
   -1.0529   16.5346   -2.9876 O   0  0  0  0  0  0  0  0  0  0  0  0
    0.8743   17.5387   -1.8475 C   0  0  1  0  0  0  0  0  0  0  0  0
   -0.0045   18.6192   -1.5879 O   0  0  0  0  0  0  0  0  0  0  0  0
    1.5250   17.1098   -0.5337 C   0  0  2  0  0  0  0  0  0  0  0  0
    2.9922   17.2806   -0.4674 N   0  0  0  0  0  0  0  0  0  0  0  0
    3.8315   18.0777   -1.2040 C   0  0  0  0  0  0  0  0  0  0  0  0
    5.1005   17.9024   -0.9403 N   0  0  0  0  0  0  0  0  0  0  0  0
    5.1087   16.9367    0.0618 C   0  0  0  0  0  0  0  0  0  0  0  0
    6.1982   16.2974    0.7357 C   0  0  0  0  0  0  0  0  0  0  0  0
    7.4011   16.4492    0.5323 O   0  0  0  0  0  0  0  0  0  0  0  0
    5.7729   15.3933    1.7183 N   0  0  0  0  0  0  0  0  0  0  0  0
    4.4413   15.1669    2.0322 C   0  0  0  0  0  0  0  0  0  0  0  0
    4.1666   14.3592    3.0627 N   0  0  0  0  0  0  0  0  0  0  0  0
    3.4223   15.7326    1.3648 N   0  0  0  0  0  0  0  0  0  0  0  0
    3.8177   16.5982    0.3917 C   0  0  0  0  0  0  0  0  0  0  0  0
  1  2  2  0  0  0  0
  1  4  1  0  0  0  0
  1  3  1  0  0  0  0
  5  1  1  0  0  0  0
  6  7  2  1  0  0  0
  6  9  1  0  0  0  0
  6  5  1  0  0  0  0
  6  8  1  0  0  0  0
 10 11  2  6  0  0  0
 10 12  1  0  0  0  0
 10 13  1  0  0  0  0
 10  9  1  0  0  0  0
 13 14  1  0  0  0  0
 15 14  1  6  0  0  0
 15 16  1  0  0  0  0
 17 19  1  0  0  0  0
 17 15  1  0  0  0  0
 17 18  1  1  0  0  0
 19 21  1  0  0  0  0
 19 20  1  1  0  0  0
 21 16  1  0  0  0  0
 21 22  1  6  0  0  0
 22 32  1  0  0  0  0
 23 22  1  0  0  0  0
 23 24  2  0  0  0  0
 24 25  1  0  0  0  0
 25 26  1  0  0  0  0
 26 27  2  0  0  0  0
 26 28  1  0  0  0  0
 29 28  1  0  0  0  0
 29 30  1  0  0  0  0
 31 29  2  0  0  0  0
 32 25  2  0  0  0  0
 32 31  1  0  0  0  0
M  END
>  <CHROM.1>
90.37294604,173.07544252,-50.60592044,165.08591845,-157.21914092,59.51388119
59.33705122,-59.35214514,59.47161996,144.69391609,1.18649378,14.57772518
1.56501049,-2.04839159,-0.24956307,-0.93116654

>  <Name>
lig.pdb

>  <RI>
1.82117e+07

>  <Rbt.Current_Directory>
/home/itssahil/PROJECTS/Mol_Feturizer/New_Systems/rnas/5lwj

>  <Rbt.Executable>
rbdock ($Id: //depot/dev/client3/rdock/2013.1/src/exe/rbdock.cxx#4 $)

>  <Rbt.Library>
libRbt.so (2013.1, Build901 2013/11/27)

>  <Rbt.Parameter_File>
/export/apps/rDock/src/rDock_2013.1_src/data/scripts/dock_solv.prm

>  <Rbt.Receptor>
prm/pocket_docking_5.prm

>  <SCORE>
-32.6284

>  <SCORE.INTER>
-28.9198

>  <SCORE.INTER.CONST>
1

>  <SCORE.INTER.POLAR>
-1.70754

>  <SCORE.INTER.ROT>
8

>  <SCORE.INTER.SOLV>
21.3776

>  <SCORE.INTER.VDW>
-29.6473

>  <SCORE.INTER.norm>
-0.903745

>  <SCORE.INTRA>
-4.00262

>  <SCORE.INTRA.DIHEDRAL>
-4.9818

>  <SCORE.INTRA.DIHEDRAL.0>
10.9248

>  <SCORE.INTRA.POLAR>
0

>  <SCORE.INTRA.POLAR.0>
0

>  <SCORE.INTRA.REPUL>
0.259998

>  <SCORE.INTRA.REPUL.0>
0

>  <SCORE.INTRA.SOLV>
-0.44612

>  <SCORE.INTRA.SOLV.lig_0>
-51.4104

>  <SCORE.INTRA.VDW>
-2.58865

>  <SCORE.INTRA.VDW.0>
0.110327

>  <SCORE.INTRA.norm>
-0.125082

>  <SCORE.RESTR>
0.29404

>  <SCORE.RESTR.CAVITY>
0.29404

>  <SCORE.RESTR.norm>
0.00918875

>  <SCORE.SYSTEM>
0

>  <SCORE.SYSTEM.CONST>
0

>  <SCORE.SYSTEM.DIHEDRAL>
0

>  <SCORE.SYSTEM.SOLV>
0

>  <SCORE.SYSTEM.norm>
0

>  <SCORE.heavy>
32

>  <SCORE.norm>
-1.01964

>  <RMSD>
8.330

$$$$
lig.pdb
 OpenBabel11021811523D
libRbt.so/2013.1/901 2013/11/27
 32 34  0  0  0  0  0  0  0  0999 V2000
   -0.2543   11.2594    5.7206 P   0  0  0  0  0  0  0  0  0  0  0  0
   -1.5003   11.6065    6.4985 O   0  0  0  0  0  0  0  0  0  0  0  0
    0.8718   12.2252    6.3776 O   0  0  0  0  0  0  0  0  0  0  0  0
    0.3350    9.8806    5.8844 O   0  0  0  0  0  0  0  0  0  0  0  0
   -0.6081   11.3815    4.3196 O   0  0  0  0  0  0  0  0  0  0  0  0
    0.1447   12.5058    3.7157 P   0  0  1  0  0  0  0  0  0  0  0  0
   -0.3849   13.7706    4.2776 O   0  0  0  0  0  0  0  0  0  0  0  0
    1.5830   12.3927    4.0521 O   0  0  0  0  0  0  0  0  0  0  0  0
   -0.0302   12.4820    2.2418 O   0  0  0  0  0  0  0  0  0  0  0  0
    0.7429   13.3609    1.3325 P   0  0  1  0  0  0  0  0  0  0  0  0
    0.8434   14.7687    1.7682 O   0  0  0  0  0  0  0  0  0  0  0  0
    2.0015   12.7783    0.8161 O   0  0  0  0  0  0  0  0  0  0  0  0
   -0.2196   13.4683    0.0361 O   0  0  0  0  0  0  0  0  0  0  0  0
    0.2143   13.1087   -1.2620 C   0  0  0  0  0  0  0  0  0  0  0  0
    1.1785   14.1379   -1.8681 C   0  0  1  0  0  0  0  0  0  0  0  0
    1.0225   15.3899   -1.2320 O   0  0  0  0  0  0  0  0  0  0  0  0
    2.6617   13.8377   -1.5892 C   0  0  1  0  0  0  0  0  0  0  0  0
    3.2373   12.8163   -2.3864 O   0  0  0  0  0  0  0  0  0  0  0  0
    3.3391   15.1936   -1.7865 C   0  0  1  0  0  0  0  0  0  0  0  0
    3.7873   15.3788   -3.1176 O   0  0  0  0  0  0  0  0  0  0  0  0
    2.1801   16.1530   -1.5219 C   0  0  2  0  0  0  0  0  0  0  0  0
    2.4264   17.1728   -0.4801 N   0  0  0  0  0  0  0  0  0  0  0  0
    1.6035   18.1465    0.0270 C   0  0  0  0  0  0  0  0  0  0  0  0
    2.1880   18.9465    0.8809 N   0  0  0  0  0  0  0  0  0  0  0  0
    3.4878   18.4574    0.9695 C   0  0  0  0  0  0  0  0  0  0  0  0
    4.6174   18.9324    1.7099 C   0  0  0  0  0  0  0  0  0  0  0  0
    4.6840   19.9340    2.4196 O   0  0  0  0  0  0  0  0  0  0  0  0
    5.7506   18.1238    1.5490 N   0  0  0  0  0  0  0  0  0  0  0  0
    5.7691   16.9668    0.7848 C   0  0  0  0  0  0  0  0  0  0  0  0
    6.8814   16.2236    0.7957 N   0  0  0  0  0  0  0  0  0  0  0  0
    4.7215   16.5519    0.0538 N   0  0  0  0  0  0  0  0  0  0  0  0
    3.6180   17.3383    0.1817 C   0  0  0  0  0  0  0  0  0  0  0  0
  1  2  2  0  0  0  0
  1  4  1  0  0  0  0
  1  3  1  0  0  0  0
  5  1  1  0  0  0  0
  6  7  2  1  0  0  0
  6  9  1  0  0  0  0
  6  5  1  0  0  0  0
  6  8  1  0  0  0  0
 10 11  2  1  0  0  0
 10 12  1  0  0  0  0
 10 13  1  0  0  0  0
 10  9  1  0  0  0  0
 13 14  1  0  0  0  0
 15 14  1  1  0  0  0
 15 16  1  0  0  0  0
 17 19  1  0  0  0  0
 17 15  1  0  0  0  0
 17 18  1  6  0  0  0
 19 21  1  0  0  0  0
 19 20  1  6  0  0  0
 21 16  1  0  0  0  0
 21 22  1  1  0  0  0
 22 32  1  0  0  0  0
 23 22  1  0  0  0  0
 23 24  2  0  0  0  0
 24 25  1  0  0  0  0
 25 26  1  0  0  0  0
 26 27  2  0  0  0  0
 26 28  1  0  0  0  0
 29 28  1  0  0  0  0
 29 30  1  0  0  0  0
 31 29  2  0  0  0  0
 32 25  2  0  0  0  0
 32 31  1  0  0  0  0
M  END
>  <CHROM.1>
113.58857003,-171.41304429,-69.66491762,-123.43269971,-44.89467561,-73.71002045
-21.53878689,-60.28881351,-50.99965725,-53.63383644,1.85217037,14.46999091
1.58029608,-2.55934171,-0.95531698,-1.65347251

>  <Name>
lig.pdb

>  <RI>
0

>  <Rbt.Current_Directory>
/home/itssahil/PROJECTS/Mol_Feturizer/New_Systems/rnas/5lwj

>  <Rbt.Executable>
rbdock ($Id: //depot/dev/client3/rdock/2013.1/src/exe/rbdock.cxx#4 $)

>  <Rbt.Library>
libRbt.so (2013.1, Build901 2013/11/27)

>  <Rbt.Parameter_File>
/export/apps/rDock/src/rDock_2013.1_src/data/scripts/dock_solv.prm

>  <Rbt.Receptor>
prm/pocket_docking_3.prm

>  <SCORE>
-25.1644

>  <SCORE.INTER>
-25.4053

>  <SCORE.INTER.CONST>
1

>  <SCORE.INTER.POLAR>
-2.42073

>  <SCORE.INTER.ROT>
8

>  <SCORE.INTER.SOLV>
19.4981

>  <SCORE.INTER.VDW>
-24.3004

>  <SCORE.INTER.norm>
-0.793914

>  <SCORE.INTRA>
0.216804

>  <SCORE.INTRA.DIHEDRAL>
2.68048

>  <SCORE.INTRA.DIHEDRAL.0>
10.9248

>  <SCORE.INTRA.POLAR>
-0.054711

>  <SCORE.INTRA.POLAR.0>
0

>  <SCORE.INTRA.REPUL>
0

>  <SCORE.INTRA.REPUL.0>
0

>  <SCORE.INTRA.SOLV>
1.20151

>  <SCORE.INTRA.SOLV.lig_0>
-51.4104

>  <SCORE.INTRA.VDW>
-1.53817

>  <SCORE.INTRA.VDW.0>
0.110327

>  <SCORE.INTRA.norm>
0.00677512

>  <SCORE.RESTR>
0.0240412

>  <SCORE.RESTR.CAVITY>
0.0240412

>  <SCORE.RESTR.norm>
0.000751287

>  <SCORE.SYSTEM>
0

>  <SCORE.SYSTEM.CONST>
0

>  <SCORE.SYSTEM.DIHEDRAL>
0

>  <SCORE.SYSTEM.SOLV>
0

>  <SCORE.SYSTEM.norm>
0

>  <SCORE.heavy>
32

>  <SCORE.norm>
-0.786388

>  <RMSD>
8.332

$$$$
lig.pdb
 OpenBabel11021811523D
libRbt.so/2013.1/901 2013/11/27
 32 34  0  0  0  0  0  0  0  0999 V2000
    0.1421   11.7507    4.6117 P   0  0  0  0  0  0  0  0  0  0  0  0
   -0.2449   10.5795    5.4815 O   0  0  0  0  0  0  0  0  0  0  0  0
    1.2632   12.5158    5.5007 O   0  0  0  0  0  0  0  0  0  0  0  0
    0.8591   11.4763    3.3134 O   0  0  0  0  0  0  0  0  0  0  0  0
   -1.0975   12.4128    4.2543 O   0  0  0  0  0  0  0  0  0  0  0  0
   -0.8302   13.4356    3.2160 P   0  0  1  0  0  0  0  0  0  0  0  0
    0.3899   14.1810    3.6055 O   0  0  0  0  0  0  0  0  0  0  0  0
   -0.5995   12.7818    1.9068 O   0  0  0  0  0  0  0  0  0  0  0  0
   -1.9902   14.3570    3.1203 O   0  0  0  0  0  0  0  0  0  0  0  0
   -2.8696   14.4110    1.9284 P   0  0  1  0  0  0  0  0  0  0  0  0
   -3.4700   13.1181    1.5418 O   0  0  0  0  0  0  0  0  0  0  0  0
   -3.7950   15.5650    1.8827 O   0  0  0  0  0  0  0  0  0  0  0  0
   -1.8224   14.6794    0.7242 O   0  0  0  0  0  0  0  0  0  0  0  0
   -0.9366   15.7831    0.7217 C   0  0  0  0  0  0  0  0  0  0  0  0
    0.0272   15.7634   -0.4728 C   0  0  1  0  0  0  0  0  0  0  0  0
    0.8650   14.6275   -0.4082 O   0  0  0  0  0  0  0  0  0  0  0  0
   -0.6693   15.5508   -1.8284 C   0  0  1  0  0  0  0  0  0  0  0  0
   -1.3227   16.6897   -2.3632 O   0  0  0  0  0  0  0  0  0  0  0  0
    0.4563   15.0389   -2.7268 C   0  0  1  0  0  0  0  0  0  0  0  0
    1.1176   16.0909   -3.4073 O   0  0  0  0  0  0  0  0  0  0  0  0
    1.4156   14.4403   -1.6998 C   0  0  2  0  0  0  0  0  0  0  0  0
    1.7860   13.0270   -1.9265 N   0  0  0  0  0  0  0  0  0  0  0  0
    2.9795   12.3767   -1.7393 C   0  0  0  0  0  0  0  0  0  0  0  0
    2.9766   11.1317   -2.1401 N   0  0  0  0  0  0  0  0  0  0  0  0
    1.6811   10.9280   -2.6057 C   0  0  0  0  0  0  0  0  0  0  0  0
    1.0733    9.7798   -3.2074 C   0  0  0  0  0  0  0  0  0  0  0  0
    1.6038    8.7055   -3.4824 O   0  0  0  0  0  0  0  0  0  0  0  0
   -0.2813    9.9775   -3.5074 N   0  0  0  0  0  0  0  0  0  0  0  0
   -0.9713   11.1456   -3.2201 C   0  0  0  0  0  0  0  0  0  0  0  0
   -2.2875   11.1732   -3.4581 N   0  0  0  0  0  0  0  0  0  0  0  0
   -0.3854   12.2365   -2.7001 N   0  0  0  0  0  0  0  0  0  0  0  0
    0.9364   12.0690   -2.4222 C   0  0  0  0  0  0  0  0  0  0  0  0
  1  2  2  0  0  0  0
  1  4  1  0  0  0  0
  1  3  1  0  0  0  0
  5  1  1  0  0  0  0
  6  7  2  1  0  0  0
  6  9  1  0  0  0  0
  6  5  1  0  0  0  0
  6  8  1  0  0  0  0
 10 11  2  6  0  0  0
 10 12  1  0  0  0  0
 10 13  1  0  0  0  0
 10  9  1  0  0  0  0
 13 14  1  0  0  0  0
 15 14  1  1  0  0  0
 15 16  1  0  0  0  0
 17 19  1  0  0  0  0
 17 15  1  0  0  0  0
 17 18  1  6  0  0  0
 19 21  1  0  0  0  0
 19 20  1  1  0  0  0
 21 16  1  0  0  0  0
 21 22  1  6  0  0  0
 22 32  1  0  0  0  0
 23 22  1  0  0  0  0
 23 24  2  0  0  0  0
 24 25  1  0  0  0  0
 25 26  1  0  0  0  0
 26 27  2  0  0  0  0
 26 28  1  0  0  0  0
 29 28  1  0  0  0  0
 29 30  1  0  0  0  0
 31 29  2  0  0  0  0
 32 25  2  0  0  0  0
 32 31  1  0  0  0  0
M  END
>  <CHROM.1>
-170.45127567,-112.38283292,-44.13352614,-56.07794410,55.38023581,175.71588216
-63.28163428,59.08589418,-58.93563645,-93.24605301,-0.28702478,13.10688408
0.38768339,-2.03070057,1.05778045,-1.27263413

>  <Name>
lig.pdb

>  <RI>
2.92062e+07

>  <Rbt.Current_Directory>
/home/itssahil/PROJECTS/Mol_Feturizer/New_Systems/rnas/5lwj

>  <Rbt.Executable>
rbdock ($Id: //depot/dev/client3/rdock/2013.1/src/exe/rbdock.cxx#4 $)

>  <Rbt.Library>
libRbt.so (2013.1, Build901 2013/11/27)

>  <Rbt.Parameter_File>
/export/apps/rDock/src/rDock_2013.1_src/data/scripts/dock_solv.prm

>  <Rbt.Receptor>
prm/pocket_docking_7.prm

>  <SCORE>
-23.2424

>  <SCORE.INTER>
-21.2845

>  <SCORE.INTER.CONST>
1

>  <SCORE.INTER.POLAR>
-1.85961

>  <SCORE.INTER.ROT>
8

>  <SCORE.INTER.SOLV>
16.287

>  <SCORE.INTER.VDW>
-22.3533

>  <SCORE.INTER.norm>
-0.66514

>  <SCORE.INTRA>
-1.95798

>  <SCORE.INTRA.DIHEDRAL>
-5.04319

>  <SCORE.INTRA.DIHEDRAL.0>
10.9248

>  <SCORE.INTRA.POLAR>
0

>  <SCORE.INTRA.POLAR.0>
0

>  <SCORE.INTRA.REPUL>
0.00367732

>  <SCORE.INTRA.REPUL.0>
0

>  <SCORE.INTRA.SOLV>
-0.188505

>  <SCORE.INTRA.SOLV.lig_0>
-51.4104

>  <SCORE.INTRA.VDW>
0.639486

>  <SCORE.INTRA.VDW.0>
0.110327

>  <SCORE.INTRA.norm>
-0.0611868

>  <SCORE.RESTR>
0

>  <SCORE.RESTR.CAVITY>
0

>  <SCORE.RESTR.norm>
0

>  <SCORE.SYSTEM>
0

>  <SCORE.SYSTEM.CONST>
0

>  <SCORE.SYSTEM.DIHEDRAL>
0

>  <SCORE.SYSTEM.SOLV>
0

>  <SCORE.SYSTEM.norm>
0

>  <SCORE.heavy>
32

>  <SCORE.norm>
-0.726327

>  <RMSD>
8.352

$$$$
lig.pdb
 OpenBabel11021811523D
libRbt.so/2013.1/901 2013/11/27
 32 34  0  0  0  0  0  0  0  0999 V2000
    0.3919   11.5710    5.3262 P   0  0  0  0  0  0  0  0  0  0  0  0
    1.4463   12.1573    6.2331 O   0  0  0  0  0  0  0  0  0  0  0  0
    1.1675   11.4185    3.9092 O   0  0  0  0  0  0  0  0  0  0  0  0
   -0.0983   10.1719    5.6038 O   0  0  0  0  0  0  0  0  0  0  0  0
   -0.7669   12.4343    5.4464 O   0  0  0  0  0  0  0  0  0  0  0  0
   -1.0581   13.0568    4.1337 P   0  0  1  0  0  0  0  0  0  0  0  0
    0.1468   13.8017    3.6986 O   0  0  0  0  0  0  0  0  0  0  0  0
   -1.3664   12.0095    3.1323 O   0  0  0  0  0  0  0  0  0  0  0  0
   -2.2142   13.9781    4.2696 O   0  0  0  0  0  0  0  0  0  0  0  0
   -2.1340   15.4157    3.9178 P   0  0  1  0  0  0  0  0  0  0  0  0
   -3.4363   16.1080    3.8378 O   0  0  0  0  0  0  0  0  0  0  0  0
   -1.0684   16.1733    4.6112 O   0  0  0  0  0  0  0  0  0  0  0  0
   -1.6668   15.3786    2.3689 O   0  0  0  0  0  0  0  0  0  0  0  0
   -0.9894   16.4590    1.7553 C   0  0  0  0  0  0  0  0  0  0  0  0
   -0.0624   16.0051    0.6190 C   0  0  1  0  0  0  0  0  0  0  0  0
    1.2508   16.4778    0.8390 O   0  0  0  0  0  0  0  0  0  0  0  0
    0.1654   14.4839    0.5745 C   0  0  1  0  0  0  0  0  0  0  0  0
   -0.8970   13.7243    0.0229 O   0  0  0  0  0  0  0  0  0  0  0  0
    1.4649   14.3450   -0.2181 C   0  0  1  0  0  0  0  0  0  0  0  0
    1.2304   14.1940   -1.6071 O   0  0  0  0  0  0  0  0  0  0  0  0
    2.1148   15.7061    0.0240 C   0  0  2  0  0  0  0  0  0  0  0  0
    3.4840   15.6650    0.5803 N   0  0  0  0  0  0  0  0  0  0  0  0
    4.0383   16.3432    1.6363 C   0  0  0  0  0  0  0  0  0  0  0  0
    5.3202   16.1341    1.7900 N   0  0  0  0  0  0  0  0  0  0  0  0
    5.6406   15.2324    0.7796 C   0  0  0  0  0  0  0  0  0  0  0  0
    6.8963   14.6559    0.4042 C   0  0  0  0  0  0  0  0  0  0  0  0
    8.0018   14.8774    0.8940 O   0  0  0  0  0  0  0  0  0  0  0  0
    6.7821   13.7552   -0.6634 N   0  0  0  0  0  0  0  0  0  0  0  0
    5.5786   13.4273   -1.2693 C   0  0  0  0  0  0  0  0  0  0  0  0
    5.5862   12.4739   -2.2077 N   0  0  0  0  0  0  0  0  0  0  0  0
    4.4110   14.0068   -0.9459 N   0  0  0  0  0  0  0  0  0  0  0  0
    4.5072   14.9009    0.0758 C   0  0  0  0  0  0  0  0  0  0  0  0
  1  2  2  0  0  0  0
  1  4  1  0  0  0  0
  1  3  1  0  0  0  0
  5  1  1  0  0  0  0
  6  7  2  6  0  0  0
  6  9  1  0  0  0  0
  6  5  1  0  0  0  0
  6  8  1  0  0  0  0
 10 11  2  1  0  0  0
 10 12  1  0  0  0  0
 10 13  1  0  0  0  0
 10  9  1  0  0  0  0
 13 14  1  0  0  0  0
 15 14  1  1  0  0  0
 15 16  1  0  0  0  0
 17 19  1  0  0  0  0
 17 15  1  0  0  0  0
 17 18  1  6  0  0  0
 19 21  1  0  0  0  0
 19 20  1  6  0  0  0
 21 16  1  0  0  0  0
 21 22  1  1  0  0  0
 22 32  1  0  0  0  0
 23 22  1  0  0  0  0
 23 24  2  0  0  0  0
 24 25  1  0  0  0  0
 25 26  1  0  0  0  0
 26 27  2  0  0  0  0
 26 28  1  0  0  0  0
 29 28  1  0  0  0  0
 29 30  1  0  0  0  0
 31 29  2  0  0  0  0
 32 25  2  0  0  0  0
 32 31  1  0  0  0  0
M  END
>  <CHROM.1>
117.19622080,122.58990758,-57.68472810,-155.78089400,167.41937735,151.29017490
-125.23227954,-174.78717449,52.86376344,-7.36982515,1.30322298,14.12392355
2.19032330,-2.62427604,0.34645953,-0.83269239

>  <Name>
lig.pdb

>  <RI>
0

>  <Rbt.Current_Directory>
/home/itssahil/PROJECTS/Mol_Feturizer/New_Systems/rnas/5lwj

>  <Rbt.Executable>
rbdock ($Id: //depot/dev/client3/rdock/2013.1/src/exe/rbdock.cxx#4 $)

>  <Rbt.Library>
libRbt.so (2013.1, Build901 2013/11/27)

>  <Rbt.Parameter_File>
/export/apps/rDock/src/rDock_2013.1_src/data/scripts/dock_solv.prm

>  <Rbt.Receptor>
prm/pocket_docking_6.prm

>  <SCORE>
-26.8858

>  <SCORE.INTER>
-27.9087

>  <SCORE.INTER.CONST>
1

>  <SCORE.INTER.POLAR>
-2.75841

>  <SCORE.INTER.ROT>
8

>  <SCORE.INTER.SOLV>
16.1748

>  <SCORE.INTER.VDW>
-23.736

>  <SCORE.INTER.norm>
-0.872146

>  <SCORE.INTRA>
1.02291

>  <SCORE.INTRA.DIHEDRAL>
6.29669

>  <SCORE.INTRA.DIHEDRAL.0>
10.9248

>  <SCORE.INTRA.POLAR>
0

>  <SCORE.INTRA.POLAR.0>
0

>  <SCORE.INTRA.REPUL>
0

>  <SCORE.INTRA.REPUL.0>
0

>  <SCORE.INTRA.SOLV>
0.760667

>  <SCORE.INTRA.SOLV.lig_0>
-51.4104

>  <SCORE.INTRA.VDW>
-2.50577

>  <SCORE.INTRA.VDW.0>
0.110327

>  <SCORE.INTRA.norm>
0.0319659

>  <SCORE.RESTR>
0

>  <SCORE.RESTR.CAVITY>
0

>  <SCORE.RESTR.norm>
0

>  <SCORE.SYSTEM>
0

>  <SCORE.SYSTEM.CONST>
0

>  <SCORE.SYSTEM.DIHEDRAL>
0

>  <SCORE.SYSTEM.SOLV>
0

>  <SCORE.SYSTEM.norm>
0

>  <SCORE.heavy>
32

>  <SCORE.norm>
-0.840181

>  <RMSD>
8.372

$$$$
lig.pdb
 OpenBabel11021811523D
libRbt.so/2013.1/901 2013/11/27
 32 34  0  0  0  0  0  0  0  0999 V2000
    0.5270   11.5177    5.6828 P   0  0  0  0  0  0  0  0  0  0  0  0
    0.3316   10.0239    5.5919 O   0  0  0  0  0  0  0  0  0  0  0  0
   -0.8126   12.0191    6.4488 O   0  0  0  0  0  0  0  0  0  0  0  0
    1.6403   12.0458    6.5527 O   0  0  0  0  0  0  0  0  0  0  0  0
    0.8215   11.9672    4.3359 O   0  0  0  0  0  0  0  0  0  0  0  0
   -0.3842   12.5992    3.7508 P   0  0  1  0  0  0  0  0  0  0  0  0
   -1.5055   11.6356    3.8516 O   0  0  0  0  0  0  0  0  0  0  0  0
   -0.7317   13.8256    4.5057 O   0  0  0  0  0  0  0  0  0  0  0  0
   -0.1225   12.9407    2.3300 O   0  0  0  0  0  0  0  0  0  0  0  0
    0.6591   14.1340    1.9276 P   0  0  1  0  0  0  0  0  0  0  0  0
    0.5555   15.2830    2.8500 O   0  0  0  0  0  0  0  0  0  0  0  0
    2.0262   13.8526    1.4357 O   0  0  0  0  0  0  0  0  0  0  0  0
   -0.1426   14.6632    0.6253 O   0  0  0  0  0  0  0  0  0  0  0  0
   -0.3262   16.0403    0.3559 C   0  0  0  0  0  0  0  0  0  0  0  0
    0.1001   16.4249   -1.0677 C   0  0  1  0  0  0  0  0  0  0  0  0
    1.4304   16.0146   -1.3089 O   0  0  0  0  0  0  0  0  0  0  0  0
   -0.6576   15.6631   -2.1693 C   0  0  1  0  0  0  0  0  0  0  0  0
   -1.9742   16.1196   -2.4309 O   0  0  0  0  0  0  0  0  0  0  0  0
    0.2635   15.7889   -3.3825 C   0  0  1  0  0  0  0  0  0  0  0  0
   -0.0443   16.9242   -4.1721 O   0  0  0  0  0  0  0  0  0  0  0  0
    1.6184   16.0105   -2.7129 C   0  0  2  0  0  0  0  0  0  0  0  0
    2.6840   15.0655   -3.1097 N   0  0  0  0  0  0  0  0  0  0  0  0
    3.0211   14.5681   -4.3432 C   0  0  0  0  0  0  0  0  0  0  0  0
    3.9674   13.6657   -4.3134 N   0  0  0  0  0  0  0  0  0  0  0  0
    4.3040   13.5711   -2.9664 C   0  0  0  0  0  0  0  0  0  0  0  0
    5.2441   12.7258   -2.2944 C   0  0  0  0  0  0  0  0  0  0  0  0
    5.9495   11.8467   -2.7852 O   0  0  0  0  0  0  0  0  0  0  0  0
    5.3053   12.9707   -0.9160 N   0  0  0  0  0  0  0  0  0  0  0  0
    4.5633   13.9506   -0.2740 C   0  0  0  0  0  0  0  0  0  0  0  0
    4.7889   14.1584    1.0281 N   0  0  0  0  0  0  0  0  0  0  0  0
    3.6478   14.7079   -0.9003 N   0  0  0  0  0  0  0  0  0  0  0  0
    3.5599   14.4682   -2.2372 C   0  0  0  0  0  0  0  0  0  0  0  0
  1  2  2  0  0  0  0
  1  4  1  0  0  0  0
  1  3  1  0  0  0  0
  5  1  1  0  0  0  0
  6  7  2  1  0  0  0
  6  9  1  0  0  0  0
  6  5  1  0  0  0  0
  6  8  1  0  0  0  0
 10 11  2  1  0  0  0
 10 12  1  0  0  0  0
 10 13  1  0  0  0  0
 10  9  1  0  0  0  0
 13 14  1  0  0  0  0
 15 14  1  1  0  0  0
 15 16  1  0  0  0  0
 17 19  1  0  0  0  0
 17 15  1  0  0  0  0
 17 18  1  6  0  0  0
 19 21  1  0  0  0  0
 19 20  1  6  0  0  0
 21 16  1  0  0  0  0
 21 22  1  1  0  0  0
 22 32  1  0  0  0  0
 23 22  1  0  0  0  0
 23 24  2  0  0  0  0
 24 25  1  0  0  0  0
 25 26  1  0  0  0  0
 26 27  2  0  0  0  0
 26 28  1  0  0  0  0
 29 28  1  0  0  0  0
 29 30  1  0  0  0  0
 31 29  2  0  0  0  0
 32 25  2  0  0  0  0
 32 31  1  0  0  0  0
M  END
>  <CHROM.1>
102.79016653,-78.57726188,-54.32305233,141.95037779,-30.83413796,128.45393217
-54.26769655,179.02133634,-173.06430795,166.52613259,1.36264025,13.82487412
0.79023385,-1.89148863,0.43001747,-1.09874894

>  <Name>
lig.pdb

>  <RI>
0

>  <Rbt.Current_Directory>
/home/itssahil/PROJECTS/Mol_Feturizer/New_Systems/rnas/5lwj

>  <Rbt.Executable>
rbdock ($Id: //depot/dev/client3/rdock/2013.1/src/exe/rbdock.cxx#4 $)

>  <Rbt.Library>
libRbt.so (2013.1, Build901 2013/11/27)

>  <Rbt.Parameter_File>
/export/apps/rDock/src/rDock_2013.1_src/data/scripts/dock_solv.prm

>  <Rbt.Receptor>
prm/pocket_docking_6.prm

>  <SCORE>
-31.1493

>  <SCORE.INTER>
-33.6769

>  <SCORE.INTER.CONST>
1

>  <SCORE.INTER.POLAR>
-4.46716

>  <SCORE.INTER.ROT>
8

>  <SCORE.INTER.SOLV>
18.0845

>  <SCORE.INTER.VDW>
-22.5223

>  <SCORE.INTER.norm>
-1.0524

>  <SCORE.INTRA>
2.52759

>  <SCORE.INTRA.DIHEDRAL>
4.94234

>  <SCORE.INTRA.DIHEDRAL.0>
10.9248

>  <SCORE.INTRA.POLAR>
0

>  <SCORE.INTRA.POLAR.0>
0

>  <SCORE.INTRA.REPUL>
0.47029

>  <SCORE.INTRA.REPUL.0>
0

>  <SCORE.INTRA.SOLV>
0.298536

>  <SCORE.INTRA.SOLV.lig_0>
-51.4104

>  <SCORE.INTRA.VDW>
-2.4443

>  <SCORE.INTRA.VDW.0>
0.110327

>  <SCORE.INTRA.norm>
0.0789872

>  <SCORE.RESTR>
0

>  <SCORE.RESTR.CAVITY>
0

>  <SCORE.RESTR.norm>
0

>  <SCORE.SYSTEM>
0

>  <SCORE.SYSTEM.CONST>
0

>  <SCORE.SYSTEM.DIHEDRAL>
0

>  <SCORE.SYSTEM.SOLV>
0

>  <SCORE.SYSTEM.norm>
0

>  <SCORE.heavy>
32

>  <SCORE.norm>
-0.973417

>  <RMSD>
8.408

$$$$
lig.pdb
 OpenBabel11021811523D
libRbt.so/2013.1/901 2013/11/27
 32 34  0  0  0  0  0  0  0  0999 V2000
   -2.4144   13.9161    3.4196 P   0  0  0  0  0  0  0  0  0  0  0  0
   -2.0586   14.8317    4.5654 O   0  0  0  0  0  0  0  0  0  0  0  0
   -1.8266   12.4813    3.8977 O   0  0  0  0  0  0  0  0  0  0  0  0
   -3.8708   13.6230    3.1587 O   0  0  0  0  0  0  0  0  0  0  0  0
   -1.9126   14.5590    2.2206 O   0  0  0  0  0  0  0  0  0  0  0  0
   -0.4527   14.3304    2.1108 P   0  0  1  0  0  0  0  0  0  0  0  0
    0.1982   14.9236    3.3027 O   0  0  0  0  0  0  0  0  0  0  0  0
   -0.1674   12.8771    2.0777 O   0  0  0  0  0  0  0  0  0  0  0  0
    0.0556   14.9709    0.8719 O   0  0  0  0  0  0  0  0  0  0  0  0
    0.1214   14.2573   -0.4255 P   0  0  1  0  0  0  0  0  0  0  0  0
   -1.1014   13.5111   -0.7854 O   0  0  0  0  0  0  0  0  0  0  0  0
    0.7304   15.0254   -1.5343 O   0  0  0  0  0  0  0  0  0  0  0  0
    1.1764   13.0675   -0.1253 O   0  0  0  0  0  0  0  0  0  0  0  0
    2.4807   13.0544   -0.6742 C   0  0  0  0  0  0  0  0  0  0  0  0
    3.4234   14.0463    0.0213 C   0  0  1  0  0  0  0  0  0  0  0  0
    3.6504   15.1693   -0.8056 O   0  0  0  0  0  0  0  0  0  0  0  0
    2.8162   14.7068    1.2714 C   0  0  1  0  0  0  0  0  0  0  0  0
    2.7920   13.8995    2.4366 O   0  0  0  0  0  0  0  0  0  0  0  0
    3.6571   15.9712    1.4459 C   0  0  1  0  0  0  0  0  0  0  0  0
    4.7738   15.7582    2.2914 O   0  0  0  0  0  0  0  0  0  0  0  0
    4.1580   16.2013    0.0213 C   0  0  2  0  0  0  0  0  0  0  0  0
    3.8674   17.5357   -0.5453 N   0  0  0  0  0  0  0  0  0  0  0  0
    3.9651   17.9983   -1.8332 C   0  0  0  0  0  0  0  0  0  0  0  0
    3.7179   19.2764   -1.9605 N   0  0  0  0  0  0  0  0  0  0  0  0
    3.4087   19.6926   -0.6690 C   0  0  0  0  0  0  0  0  0  0  0  0
    3.0901   20.9907   -0.1558 C   0  0  0  0  0  0  0  0  0  0  0  0
    3.0601   22.0553   -0.7698 O   0  0  0  0  0  0  0  0  0  0  0  0
    2.8056   20.9768    1.2163 N   0  0  0  0  0  0  0  0  0  0  0  0
    2.7967   19.8257    1.9895 C   0  0  0  0  0  0  0  0  0  0  0  0
    2.4053   19.9277    3.2647 N   0  0  0  0  0  0  0  0  0  0  0  0
    3.1432   18.6183    1.5143 N   0  0  0  0  0  0  0  0  0  0  0  0
    3.4436   18.6172    0.1868 C   0  0  0  0  0  0  0  0  0  0  0  0
  1  2  2  0  0  0  0
  1  4  1  0  0  0  0
  1  3  1  0  0  0  0
  5  1  1  0  0  0  0
  6  7  2  1  0  0  0
  6  9  1  0  0  0  0
  6  5  1  0  0  0  0
  6  8  1  0  0  0  0
 10 11  2  6  0  0  0
 10 12  1  0  0  0  0
 10 13  1  0  0  0  0
 10  9  1  0  0  0  0
 13 14  1  0  0  0  0
 15 14  1  6  0  0  0
 15 16  1  0  0  0  0
 17 19  1  0  0  0  0
 17 15  1  0  0  0  0
 17 18  1  1  0  0  0
 19 21  1  0  0  0  0
 19 20  1  1  0  0  0
 21 16  1  0  0  0  0
 21 22  1  6  0  0  0
 22 32  1  0  0  0  0
 23 22  1  0  0  0  0
 23 24  2  0  0  0  0
 24 25  1  0  0  0  0
 25 26  1  0  0  0  0
 26 27  2  0  0  0  0
 26 28  1  0  0  0  0
 29 28  1  0  0  0  0
 29 30  1  0  0  0  0
 31 29  2  0  0  0  0
 32 25  2  0  0  0  0
 32 31  1  0  0  0  0
M  END
>  <CHROM.1>
78.86133797,-90.28028952,-60.61490233,-108.90077755,46.77478774,75.39614755
-105.69882624,-171.76798038,-177.72419138,-43.55554061,1.27773333,15.84938244
1.10448923,2.54844858,-0.71041508,-2.78388690

>  <Name>
lig.pdb

>  <RI>
0

>  <Rbt.Current_Directory>
/home/itssahil/PROJECTS/Mol_Feturizer/New_Systems/rnas/5lwj

>  <Rbt.Executable>
rbdock ($Id: //depot/dev/client3/rdock/2013.1/src/exe/rbdock.cxx#4 $)

>  <Rbt.Library>
libRbt.so (2013.1, Build901 2013/11/27)

>  <Rbt.Parameter_File>
/export/apps/rDock/src/rDock_2013.1_src/data/scripts/dock_solv.prm

>  <Rbt.Receptor>
prm/pocket_docking_4.prm

>  <SCORE>
-14.2954

>  <SCORE.INTER>
-13.2247

>  <SCORE.INTER.CONST>
1

>  <SCORE.INTER.POLAR>
-1.66277

>  <SCORE.INTER.ROT>
8

>  <SCORE.INTER.SOLV>
10.1763

>  <SCORE.INTER.VDW>
-15.5993

>  <SCORE.INTER.norm>
-0.413272

>  <SCORE.INTRA>
-1.07076

>  <SCORE.INTRA.DIHEDRAL>
1.9176

>  <SCORE.INTRA.DIHEDRAL.0>
10.9248

>  <SCORE.INTRA.POLAR>
-0.390629

>  <SCORE.INTRA.POLAR.0>
0

>  <SCORE.INTRA.REPUL>
0

>  <SCORE.INTRA.REPUL.0>
0

>  <SCORE.INTRA.SOLV>
3.9646

>  <SCORE.INTRA.SOLV.lig_0>
-51.4104

>  <SCORE.INTRA.VDW>
-2.68372

>  <SCORE.INTRA.VDW.0>
0.110327

>  <SCORE.INTRA.norm>
-0.0334612

>  <SCORE.RESTR>
0

>  <SCORE.RESTR.CAVITY>
0

>  <SCORE.RESTR.norm>
0

>  <SCORE.SYSTEM>
0

>  <SCORE.SYSTEM.CONST>
0

>  <SCORE.SYSTEM.DIHEDRAL>
0

>  <SCORE.SYSTEM.SOLV>
0

>  <SCORE.SYSTEM.norm>
0

>  <SCORE.heavy>
32

>  <SCORE.norm>
-0.446733

>  <RMSD>
8.439

$$$$
lig.pdb
 OpenBabel11021811523D
libRbt.so/2013.1/901 2013/11/27
 32 34  0  0  0  0  0  0  0  0999 V2000
   -3.1152   16.8371    4.5124 P   0  0  0  0  0  0  0  0  0  0  0  0
   -3.6485   17.3365    5.8331 O   0  0  0  0  0  0  0  0  0  0  0  0
   -4.4247   16.1888    3.8071 O   0  0  0  0  0  0  0  0  0  0  0  0
   -2.6423   17.8490    3.4988 O   0  0  0  0  0  0  0  0  0  0  0  0
   -1.9624   16.0163    4.8290 O   0  0  0  0  0  0  0  0  0  0  0  0
   -1.7488   15.0256    3.7480 P   0  0  1  0  0  0  0  0  0  0  0  0
   -2.9369   14.1418    3.6905 O   0  0  0  0  0  0  0  0  0  0  0  0
   -1.5985   15.7182    2.4471 O   0  0  0  0  0  0  0  0  0  0  0  0
   -0.5283   14.2324    4.0393 O   0  0  0  0  0  0  0  0  0  0  0  0
   -0.0621   13.1343    3.1597 P   0  0  1  0  0  0  0  0  0  0  0  0
    0.8112   12.1413    3.8176 O   0  0  0  0  0  0  0  0  0  0  0  0
   -1.0960   12.5607    2.2698 O   0  0  0  0  0  0  0  0  0  0  0  0
    0.9638   13.8884    2.1608 O   0  0  0  0  0  0  0  0  0  0  0  0
    1.0451   13.5787    0.7823 C   0  0  0  0  0  0  0  0  0  0  0  0
    2.1744   14.3384    0.0726 C   0  0  1  0  0  0  0  0  0  0  0  0
    2.0721   15.7235    0.3319 O   0  0  0  0  0  0  0  0  0  0  0  0
    3.5755   14.0276    0.6278 C   0  0  1  0  0  0  0  0  0  0  0  0
    4.1349   12.7922    0.2142 O   0  0  0  0  0  0  0  0  0  0  0  0
    4.4061   15.2310    0.1825 C   0  0  1  0  0  0  0  0  0  0  0  0
    5.0264   15.0174   -1.0732 O   0  0  0  0  0  0  0  0  0  0  0  0
    3.3277   16.3007    0.0208 C   0  0  2  0  0  0  0  0  0  0  0  0
    3.5507   17.5465    0.7853 N   0  0  0  0  0  0  0  0  0  0  0  0
    4.5399   17.8821    1.6747 C   0  0  0  0  0  0  0  0  0  0  0  0
    4.3706   19.0468    2.2455 N   0  0  0  0  0  0  0  0  0  0  0  0
    3.1972   19.5352    1.6786 C   0  0  0  0  0  0  0  0  0  0  0  0
    2.4719   20.7446    1.9261 C   0  0  0  0  0  0  0  0  0  0  0  0
    2.7269   21.6187    2.7519 O   0  0  0  0  0  0  0  0  0  0  0  0
    1.3413   20.8761    1.1085 N   0  0  0  0  0  0  0  0  0  0  0  0
    0.9813   19.9537    0.1376 C   0  0  0  0  0  0  0  0  0  0  0  0
   -0.0595   20.2444   -0.6509 N   0  0  0  0  0  0  0  0  0  0  0  0
    1.6372   18.7980   -0.0576 N   0  0  0  0  0  0  0  0  0  0  0  0
    2.7266   18.6440    0.7436 C   0  0  0  0  0  0  0  0  0  0  0  0
  1  2  2  0  0  0  0
  1  4  1  0  0  0  0
  1  3  1  0  0  0  0
  5  1  1  0  0  0  0
  6  7  2  6  0  0  0
  6  9  1  0  0  0  0
  6  5  1  0  0  0  0
  6  8  1  0  0  0  0
 10 11  2  1  0  0  0
 10 12  1  0  0  0  0
 10 13  1  0  0  0  0
 10  9  1  0  0  0  0
 13 14  1  0  0  0  0
 15 14  1  1  0  0  0
 15 16  1  0  0  0  0
 17 19  1  0  0  0  0
 17 15  1  0  0  0  0
 17 18  1  6  0  0  0
 19 21  1  0  0  0  0
 19 20  1  6  0  0  0
 21 16  1  0  0  0  0
 21 22  1  1  0  0  0
 22 32  1  0  0  0  0
 23 22  1  0  0  0  0
 23 24  2  0  0  0  0
 24 25  1  0  0  0  0
 25 26  1  0  0  0  0
 26 27  2  0  0  0  0
 26 28  1  0  0  0  0
 29 28  1  0  0  0  0
 29 30  1  0  0  0  0
 31 29  2  0  0  0  0
 32 25  2  0  0  0  0
 32 31  1  0  0  0  0
M  END
>  <CHROM.1>
154.57476708,178.49293200,-62.60098991,-141.00574320,-157.51509832,-174.94274027
-52.18214784,172.97434616,-60.13168410,120.58031647,0.62057601,16.23727712
2.15145468,2.77452980,-0.53236640,3.11208809

>  <Name>
lig.pdb

>  <RI>
0

>  <Rbt.Current_Directory>
/home/itssahil/PROJECTS/Mol_Feturizer/New_Systems/rnas/5lwj

>  <Rbt.Executable>
rbdock ($Id: //depot/dev/client3/rdock/2013.1/src/exe/rbdock.cxx#4 $)

>  <Rbt.Library>
libRbt.so (2013.1, Build901 2013/11/27)

>  <Rbt.Parameter_File>
/export/apps/rDock/src/rDock_2013.1_src/data/scripts/dock_solv.prm

>  <Rbt.Receptor>
prm/pocket_docking_6.prm

>  <SCORE>
-28.8858

>  <SCORE.INTER>
-24.1944

>  <SCORE.INTER.CONST>
1

>  <SCORE.INTER.POLAR>
-4.20659

>  <SCORE.INTER.ROT>
8

>  <SCORE.INTER.SOLV>
11.2815

>  <SCORE.INTER.VDW>
-14.8015

>  <SCORE.INTER.norm>
-0.756076

>  <SCORE.INTRA>
-4.69135

>  <SCORE.INTRA.DIHEDRAL>
-3.79666

>  <SCORE.INTRA.DIHEDRAL.0>
10.9248

>  <SCORE.INTRA.POLAR>
0

>  <SCORE.INTRA.POLAR.0>
0

>  <SCORE.INTRA.REPUL>
0.0203207

>  <SCORE.INTRA.REPUL.0>
0

>  <SCORE.INTRA.SOLV>
-1.61807

>  <SCORE.INTRA.SOLV.lig_0>
-51.4104

>  <SCORE.INTRA.VDW>
-2.08559

>  <SCORE.INTRA.VDW.0>
0.110327

>  <SCORE.INTRA.norm>
-0.146605

>  <SCORE.RESTR>
0

>  <SCORE.RESTR.CAVITY>
0

>  <SCORE.RESTR.norm>
0

>  <SCORE.SYSTEM>
0

>  <SCORE.SYSTEM.CONST>
0

>  <SCORE.SYSTEM.DIHEDRAL>
0

>  <SCORE.SYSTEM.SOLV>
0

>  <SCORE.SYSTEM.norm>
0

>  <SCORE.heavy>
32

>  <SCORE.norm>
-0.902681

>  <RMSD>
8.456

$$$$
lig.pdb
 OpenBabel11021811523D
libRbt.so/2013.1/901 2013/11/27
 32 34  0  0  0  0  0  0  0  0999 V2000
    1.4100   10.9423    5.8370 P   0  0  0  0  0  0  0  0  0  0  0  0
    2.2014    9.7175    6.2264 O   0  0  0  0  0  0  0  0  0  0  0  0
    1.3943   11.8205    7.2012 O   0  0  0  0  0  0  0  0  0  0  0  0
    2.0026   11.8892    4.8235 O   0  0  0  0  0  0  0  0  0  0  0  0
    0.1739   10.4544    5.2566 O   0  0  0  0  0  0  0  0  0  0  0  0
   -0.8419   11.5330    5.2778 P   0  0  1  0  0  0  0  0  0  0  0  0
   -2.0193   11.0735    4.5041 O   0  0  0  0  0  0  0  0  0  0  0  0
   -1.2585   11.8108    6.6720 O   0  0  0  0  0  0  0  0  0  0  0  0
   -0.2710   12.7609    4.6696 O   0  0  0  0  0  0  0  0  0  0  0  0
   -0.9314   13.4796    3.5542 P   0  0  1  0  0  0  0  0  0  0  0  0
   -0.5356   13.0277    2.2048 O   0  0  0  0  0  0  0  0  0  0  0  0
   -2.3817   13.7156    3.7306 O   0  0  0  0  0  0  0  0  0  0  0  0
   -0.2653   14.9522    3.6345 O   0  0  0  0  0  0  0  0  0  0  0  0
   -0.9017   16.1018    3.1088 C   0  0  0  0  0  0  0  0  0  0  0  0
    0.0888   17.2302    2.7892 C   0  0  1  0  0  0  0  0  0  0  0  0
    1.4174   16.7613    2.8960 O   0  0  0  0  0  0  0  0  0  0  0  0
    0.0472   17.6952    1.3230 C   0  0  1  0  0  0  0  0  0  0  0  0
   -1.0389   18.5402    0.9820 O   0  0  0  0  0  0  0  0  0  0  0  0
    1.4048   18.3701    1.1285 C   0  0  1  0  0  0  0  0  0  0  0  0
    1.3567   19.7582    1.4077 O   0  0  0  0  0  0  0  0  0  0  0  0
    2.2423   17.6825    2.2051 C   0  0  2  0  0  0  0  0  0  0  0  0
    3.4842   17.0381    1.7270 N   0  0  0  0  0  0  0  0  0  0  0  0
    4.7767   17.4979    1.7066 C   0  0  0  0  0  0  0  0  0  0  0  0
    5.6199   16.6913    1.1157 N   0  0  0  0  0  0  0  0  0  0  0  0
    4.8397   15.6034    0.7360 C   0  0  0  0  0  0  0  0  0  0  0  0
    5.1804   14.4146    0.0143 C   0  0  0  0  0  0  0  0  0  0  0  0
    6.2695   14.1160   -0.4713 O   0  0  0  0  0  0  0  0  0  0  0  0
    4.0953   13.5402   -0.1340 N   0  0  0  0  0  0  0  0  0  0  0  0
    2.8349   13.7804    0.3922 C   0  0  0  0  0  0  0  0  0  0  0  0
    1.9109   12.8202    0.2747 N   0  0  0  0  0  0  0  0  0  0  0  0
    2.5077   14.9183    1.0262 N   0  0  0  0  0  0  0  0  0  0  0  0
    3.5453   15.7889    1.1604 C   0  0  0  0  0  0  0  0  0  0  0  0
  1  2  2  0  0  0  0
  1  4  1  0  0  0  0
  1  3  1  0  0  0  0
  5  1  1  0  0  0  0
  6  7  2  6  0  0  0
  6  9  1  0  0  0  0
  6  5  1  0  0  0  0
  6  8  1  0  0  0  0
 10 11  2  6  0  0  0
 10 12  1  0  0  0  0
 10 13  1  0  0  0  0
 10  9  1  0  0  0  0
 13 14  1  0  0  0  0
 15 14  1  6  0  0  0
 15 16  1  0  0  0  0
 17 19  1  0  0  0  0
 17 15  1  0  0  0  0
 17 18  1  1  0  0  0
 19 21  1  0  0  0  0
 19 20  1  1  0  0  0
 21 16  1  0  0  0  0
 21 22  1  6  0  0  0
 22 32  1  0  0  0  0
 23 22  1  0  0  0  0
 23 24  2  0  0  0  0
 24 25  1  0  0  0  0
 25 26  1  0  0  0  0
 26 27  2  0  0  0  0
 26 28  1  0  0  0  0
 29 28  1  0  0  0  0
 29 30  1  0  0  0  0
 31 29  2  0  0  0  0
 32 25  2  0  0  0  0
 32 31  1  0  0  0  0
M  END
>  <CHROM.1>
160.53263673,126.13351752,171.79173787,-156.56120169,-89.88586482,-157.13452413
9.55840476,75.14300444,179.87274555,-139.41276070,1.25753508,14.21879031
3.01097583,-2.03634580,0.42044157,-0.49112487

>  <Name>
lig.pdb

>  <RI>
0

>  <Rbt.Current_Directory>
/home/itssahil/PROJECTS/Mol_Feturizer/New_Systems/rnas/5lwj

>  <Rbt.Executable>
rbdock ($Id: //depot/dev/client3/rdock/2013.1/src/exe/rbdock.cxx#4 $)

>  <Rbt.Library>
libRbt.so (2013.1, Build901 2013/11/27)

>  <Rbt.Parameter_File>
/export/apps/rDock/src/rDock_2013.1_src/data/scripts/dock_solv.prm

>  <Rbt.Receptor>
prm/pocket_docking_4.prm

>  <SCORE>
-39.0694

>  <SCORE.INTER>
-35.4012

>  <SCORE.INTER.CONST>
1

>  <SCORE.INTER.POLAR>
-2.66558

>  <SCORE.INTER.ROT>
8

>  <SCORE.INTER.SOLV>
23.6423

>  <SCORE.INTER.VDW>
-31.5297

>  <SCORE.INTER.norm>
-1.10629

>  <SCORE.INTRA>
-4.07597

>  <SCORE.INTRA.DIHEDRAL>
4.34987

>  <SCORE.INTRA.DIHEDRAL.0>
10.9248

>  <SCORE.INTRA.POLAR>
-1.12357

>  <SCORE.INTRA.POLAR.0>
0

>  <SCORE.INTRA.REPUL>
0.0120826

>  <SCORE.INTRA.REPUL.0>
0

>  <SCORE.INTRA.SOLV>
0.542459

>  <SCORE.INTRA.SOLV.lig_0>
-51.4104

>  <SCORE.INTRA.VDW>
-2.76241

>  <SCORE.INTRA.VDW.0>
0.110327

>  <SCORE.INTRA.norm>
-0.127374

>  <SCORE.RESTR>
0.407808

>  <SCORE.RESTR.CAVITY>
0.407808

>  <SCORE.RESTR.norm>
0.012744

>  <SCORE.SYSTEM>
0

>  <SCORE.SYSTEM.CONST>
0

>  <SCORE.SYSTEM.DIHEDRAL>
0

>  <SCORE.SYSTEM.SOLV>
0

>  <SCORE.SYSTEM.norm>
0

>  <SCORE.heavy>
32

>  <SCORE.norm>
-1.22092

>  <RMSD>
8.465

$$$$
lig.pdb
 OpenBabel11021811523D
libRbt.so/2013.1/901 2013/11/27
 32 34  0  0  0  0  0  0  0  0999 V2000
   -0.3085   12.0231    4.7288 P   0  0  0  0  0  0  0  0  0  0  0  0
   -1.3706   10.9688    4.5326 O   0  0  0  0  0  0  0  0  0  0  0  0
   -1.1671   13.3953    4.8407 O   0  0  0  0  0  0  0  0  0  0  0  0
    0.4900   12.0101    6.0084 O   0  0  0  0  0  0  0  0  0  0  0  0
    0.6484   11.8342    3.6558 O   0  0  0  0  0  0  0  0  0  0  0  0
    0.4273   12.8601    2.6097 P   0  0  1  0  0  0  0  0  0  0  0  0
    0.7329   14.1876    3.1930 O   0  0  0  0  0  0  0  0  0  0  0  0
    1.3312   12.6173    1.4614 O   0  0  0  0  0  0  0  0  0  0  0  0
   -0.9856   12.8073    2.1573 O   0  0  0  0  0  0  0  0  0  0  0  0
   -1.5829   13.8461    1.2849 P   0  0  1  0  0  0  0  0  0  0  0  0
   -2.7709   13.4084    0.5240 O   0  0  0  0  0  0  0  0  0  0  0  0
   -1.6952   15.1897    1.8949 O   0  0  0  0  0  0  0  0  0  0  0  0
   -0.4713   14.0174    0.1214 O   0  0  0  0  0  0  0  0  0  0  0  0
   -0.6706   14.8580   -0.9995 C   0  0  0  0  0  0  0  0  0  0  0  0
   -0.8417   16.3324   -0.6083 C   0  0  1  0  0  0  0  0  0  0  0  0
    0.2077   16.7378    0.2466 O   0  0  0  0  0  0  0  0  0  0  0  0
   -0.6709   17.3101   -1.7842 C   0  0  1  0  0  0  0  0  0  0  0  0
   -1.7791   17.4058   -2.6633 O   0  0  0  0  0  0  0  0  0  0  0  0
   -0.3460   18.6358   -1.0963 C   0  0  1  0  0  0  0  0  0  0  0  0
   -1.5092   19.4002   -0.8323 O   0  0  0  0  0  0  0  0  0  0  0  0
    0.2356   18.1540    0.2314 C   0  0  2  0  0  0  0  0  0  0  0  0
    1.5828   18.6685    0.5575 N   0  0  0  0  0  0  0  0  0  0  0  0
    2.7562   18.6076   -0.1508 C   0  0  0  0  0  0  0  0  0  0  0  0
    3.7909   19.0869    0.4900 N   0  0  0  0  0  0  0  0  0  0  0  0
    3.2669   19.5217    1.7037 C   0  0  0  0  0  0  0  0  0  0  0  0
    3.9081   20.1008    2.8454 C   0  0  0  0  0  0  0  0  0  0  0  0
    5.1089   20.3067    3.0095 O   0  0  0  0  0  0  0  0  0  0  0  0
    3.0051   20.4333    3.8642 N   0  0  0  0  0  0  0  0  0  0  0  0
    1.6333   20.2557    3.7659 C   0  0  0  0  0  0  0  0  0  0  0  0
    0.8672   20.7111    4.7636 N   0  0  0  0  0  0  0  0  0  0  0  0
    1.0418   19.6679    2.7131 N   0  0  0  0  0  0  0  0  0  0  0  0
    1.9073   19.3188    1.7224 C   0  0  0  0  0  0  0  0  0  0  0  0
  1  2  2  0  0  0  0
  1  4  1  0  0  0  0
  1  3  1  0  0  0  0
  5  1  1  0  0  0  0
  6  7  2  1  0  0  0
  6  9  1  0  0  0  0
  6  5  1  0  0  0  0
  6  8  1  0  0  0  0
 10 11  2  6  0  0  0
 10 12  1  0  0  0  0
 10 13  1  0  0  0  0
 10  9  1  0  0  0  0
 13 14  1  0  0  0  0
 15 14  1  6  0  0  0
 15 16  1  0  0  0  0
 17 19  1  0  0  0  0
 17 15  1  0  0  0  0
 17 18  1  1  0  0  0
 19 21  1  0  0  0  0
 19 20  1  1  0  0  0
 21 16  1  0  0  0  0
 21 22  1  6  0  0  0
 22 32  1  0  0  0  0
 23 22  1  0  0  0  0
 23 24  2  0  0  0  0
 24 25  1  0  0  0  0
 25 26  1  0  0  0  0
 26 27  2  0  0  0  0
 26 28  1  0  0  0  0
 29 28  1  0  0  0  0
 29 30  1  0  0  0  0
 31 29  2  0  0  0  0
 32 25  2  0  0  0  0
 32 31  1  0  0  0  0
M  END
>  <CHROM.1>
102.38692449,169.61754668,65.19622513,175.47192992,157.56737627,62.16606935
50.83899113,-173.05416678,-176.92131979,68.60801527,0.35236076,15.92809872
1.85759747,-2.15177652,-0.92832868,-0.72511614

>  <Name>
lig.pdb

>  <RI>
0

>  <Rbt.Current_Directory>
/home/itssahil/PROJECTS/Mol_Feturizer/New_Systems/rnas/5lwj

>  <Rbt.Executable>
rbdock ($Id: //depot/dev/client3/rdock/2013.1/src/exe/rbdock.cxx#4 $)

>  <Rbt.Library>
libRbt.so (2013.1, Build901 2013/11/27)

>  <Rbt.Parameter_File>
/export/apps/rDock/src/rDock_2013.1_src/data/scripts/dock_solv.prm

>  <Rbt.Receptor>
prm/pocket_docking_6.prm

>  <SCORE>
-27.0349

>  <SCORE.INTER>
-21.2804

>  <SCORE.INTER.CONST>
1

>  <SCORE.INTER.POLAR>
-2.17638

>  <SCORE.INTER.ROT>
8

>  <SCORE.INTER.SOLV>
16.477

>  <SCORE.INTER.VDW>
-21.358

>  <SCORE.INTER.norm>
-0.665014

>  <SCORE.INTRA>
-5.75442

>  <SCORE.INTRA.DIHEDRAL>
-4.91434

>  <SCORE.INTRA.DIHEDRAL.0>
10.9248

>  <SCORE.INTRA.POLAR>
0

>  <SCORE.INTRA.POLAR.0>
0

>  <SCORE.INTRA.REPUL>
0

>  <SCORE.INTRA.REPUL.0>
0

>  <SCORE.INTRA.SOLV>
0.493417

>  <SCORE.INTRA.SOLV.lig_0>
-51.4104

>  <SCORE.INTRA.VDW>
-3.54396

>  <SCORE.INTRA.VDW.0>
0.110327

>  <SCORE.INTRA.norm>
-0.179826

>  <SCORE.RESTR>
0

>  <SCORE.RESTR.CAVITY>
0

>  <SCORE.RESTR.norm>
0

>  <SCORE.SYSTEM>
0

>  <SCORE.SYSTEM.CONST>
0

>  <SCORE.SYSTEM.DIHEDRAL>
0

>  <SCORE.SYSTEM.SOLV>
0

>  <SCORE.SYSTEM.norm>
0

>  <SCORE.heavy>
32

>  <SCORE.norm>
-0.84484

>  <RMSD>
8.492

$$$$
lig.pdb
 OpenBabel11021811523D
libRbt.so/2013.1/901 2013/11/27
 32 34  0  0  0  0  0  0  0  0999 V2000
    1.0252   11.4369    5.6912 P   0  0  0  0  0  0  0  0  0  0  0  0
    1.5119   10.9892    4.3345 O   0  0  0  0  0  0  0  0  0  0  0  0
    0.3442   10.0958    6.2998 O   0  0  0  0  0  0  0  0  0  0  0  0
    2.0481   11.8090    6.7354 O   0  0  0  0  0  0  0  0  0  0  0  0
    0.2335   12.6297    5.4609 O   0  0  0  0  0  0  0  0  0  0  0  0
   -1.1696   12.2454    5.1797 P   0  0  1  0  0  0  0  0  0  0  0  0
   -1.1708   11.3123    4.0284 O   0  0  0  0  0  0  0  0  0  0  0  0
   -1.7542   11.5613    6.3565 O   0  0  0  0  0  0  0  0  0  0  0  0
   -1.9600   13.4607    4.8607 O   0  0  0  0  0  0  0  0  0  0  0  0
   -2.1045   13.9782    3.4793 P   0  0  1  0  0  0  0  0  0  0  0  0
   -2.9436   13.1484    2.5910 O   0  0  0  0  0  0  0  0  0  0  0  0
   -2.3417   15.4354    3.3763 O   0  0  0  0  0  0  0  0  0  0  0  0
   -0.6254   13.7605    2.8600 O   0  0  0  0  0  0  0  0  0  0  0  0
   -0.4103   13.4924    1.4872 C   0  0  0  0  0  0  0  0  0  0  0  0
   -0.6567   14.7210    0.6005 C   0  0  1  0  0  0  0  0  0  0  0  0
   -0.0453   15.8632    1.1644 O   0  0  0  0  0  0  0  0  0  0  0  0
    0.0409   14.6474   -0.7691 C   0  0  1  0  0  0  0  0  0  0  0  0
   -0.5888   13.8167   -1.7301 O   0  0  0  0  0  0  0  0  0  0  0  0
    0.1117   16.1099   -1.2078 C   0  0  1  0  0  0  0  0  0  0  0  0
   -1.0152   16.4928   -1.9762 O   0  0  0  0  0  0  0  0  0  0  0  0
    0.0566   16.8328    0.1368 C   0  0  2  0  0  0  0  0  0  0  0  0
    1.1655   17.7758    0.3957 N   0  0  0  0  0  0  0  0  0  0  0  0
    1.2723   19.1192    0.1386 C   0  0  0  0  0  0  0  0  0  0  0  0
    2.4479   19.6225    0.4131 N   0  0  0  0  0  0  0  0  0  0  0  0
    3.1709   18.5434    0.9125 C   0  0  0  0  0  0  0  0  0  0  0  0
    4.5321   18.4503    1.3466 C   0  0  0  0  0  0  0  0  0  0  0  0
    5.3883   19.3323    1.3310 O   0  0  0  0  0  0  0  0  0  0  0  0
    4.8654   17.1729    1.8168 N   0  0  0  0  0  0  0  0  0  0  0  0
    3.9659   16.1199    1.8895 C   0  0  0  0  0  0  0  0  0  0  0  0
    4.3767   14.9799    2.4565 N   0  0  0  0  0  0  0  0  0  0  0  0
    2.7041   16.1984    1.4364 N   0  0  0  0  0  0  0  0  0  0  0  0
    2.3696   17.4272    0.9560 C   0  0  0  0  0  0  0  0  0  0  0  0
  1  2  2  0  0  0  0
  1  4  1  0  0  0  0
  1  3  1  0  0  0  0
  5  1  1  0  0  0  0
  6  7  2  6  0  0  0
  6  9  1  0  0  0  0
  6  5  1  0  0  0  0
  6  8  1  0  0  0  0
 10 11  2  6  0  0  0
 10 12  1  0  0  0  0
 10 13  1  0  0  0  0
 10  9  1  0  0  0  0
 13 14  1  0  0  0  0
 15 14  1  1  0  0  0
 15 16  1  0  0  0  0
 17 19  1  0  0  0  0
 17 15  1  0  0  0  0
 17 18  1  6  0  0  0
 19 21  1  0  0  0  0
 19 20  1  6  0  0  0
 21 16  1  0  0  0  0
 21 22  1  1  0  0  0
 22 32  1  0  0  0  0
 23 22  1  0  0  0  0
 23 24  2  0  0  0  0
 24 25  1  0  0  0  0
 25 26  1  0  0  0  0
 26 27  2  0  0  0  0
 26 28  1  0  0  0  0
 29 28  1  0  0  0  0
 29 30  1  0  0  0  0
 31 29  2  0  0  0  0
 32 25  2  0  0  0  0
 32 31  1  0  0  0  0
M  END
>  <CHROM.1>
87.80620105,89.97540742,-56.21996261,148.85994007,70.59945758,72.12908268
45.40902320,-174.96200698,176.76984968,-144.38775203,0.55703792,14.59569808
2.57627375,-1.97645145,-0.39512102,-0.85722950

>  <Name>
lig.pdb

>  <RI>
1.82117e+07

>  <Rbt.Current_Directory>
/home/itssahil/PROJECTS/Mol_Feturizer/New_Systems/rnas/5lwj

>  <Rbt.Executable>
rbdock ($Id: //depot/dev/client3/rdock/2013.1/src/exe/rbdock.cxx#4 $)

>  <Rbt.Library>
libRbt.so (2013.1, Build901 2013/11/27)

>  <Rbt.Parameter_File>
/export/apps/rDock/src/rDock_2013.1_src/data/scripts/dock_solv.prm

>  <Rbt.Receptor>
prm/pocket_docking_5.prm

>  <SCORE>
-37.6379

>  <SCORE.INTER>
-34.1929

>  <SCORE.INTER.CONST>
1

>  <SCORE.INTER.POLAR>
-2.96756

>  <SCORE.INTER.ROT>
8

>  <SCORE.INTER.SOLV>
21.0078

>  <SCORE.INTER.VDW>
-28.8393

>  <SCORE.INTER.norm>
-1.06853

>  <SCORE.INTRA>
-3.44506

>  <SCORE.INTRA.DIHEDRAL>
-2.14274

>  <SCORE.INTRA.DIHEDRAL.0>
10.9248

>  <SCORE.INTRA.POLAR>
0

>  <SCORE.INTRA.POLAR.0>
0

>  <SCORE.INTRA.REPUL>
0.0015331

>  <SCORE.INTRA.REPUL.0>
0

>  <SCORE.INTRA.SOLV>
1.50969

>  <SCORE.INTRA.SOLV.lig_0>
-51.4104

>  <SCORE.INTRA.VDW>
-3.1362

>  <SCORE.INTRA.VDW.0>
0.110327

>  <SCORE.INTRA.norm>
-0.107658

>  <SCORE.RESTR>
0

>  <SCORE.RESTR.CAVITY>
0

>  <SCORE.RESTR.norm>
0

>  <SCORE.SYSTEM>
0

>  <SCORE.SYSTEM.CONST>
0

>  <SCORE.SYSTEM.DIHEDRAL>
0

>  <SCORE.SYSTEM.SOLV>
0

>  <SCORE.SYSTEM.norm>
0

>  <SCORE.heavy>
32

>  <SCORE.norm>
-1.17619

>  <RMSD>
8.494

$$$$
lig.pdb
 OpenBabel11021811523D
libRbt.so/2013.1/901 2013/11/27
 32 34  0  0  0  0  0  0  0  0999 V2000
    0.3868   11.4716    4.7214 P   0  0  0  0  0  0  0  0  0  0  0  0
   -0.7169   10.5235    5.1227 O   0  0  0  0  0  0  0  0  0  0  0  0
    0.5260   12.4436    6.0130 O   0  0  0  0  0  0  0  0  0  0  0  0
    1.7810   10.9215    4.5514 O   0  0  0  0  0  0  0  0  0  0  0  0
    0.0060   12.0078    3.4291 O   0  0  0  0  0  0  0  0  0  0  0  0
   -1.1189   12.9572    3.5997 P   0  0  1  0  0  0  0  0  0  0  0  0
   -2.1991   12.2645    4.3408 O   0  0  0  0  0  0  0  0  0  0  0  0
   -0.6752   14.1349    4.3812 O   0  0  0  0  0  0  0  0  0  0  0  0
   -1.6041   13.3926    2.2660 O   0  0  0  0  0  0  0  0  0  0  0  0
   -2.8155   14.2287    2.0921 P   0  0  1  0  0  0  0  0  0  0  0  0
   -3.7928   13.7083    1.1143 O   0  0  0  0  0  0  0  0  0  0  0  0
   -3.4061   14.7470    3.3461 O   0  0  0  0  0  0  0  0  0  0  0  0
   -2.2390   15.5402    1.3396 O   0  0  0  0  0  0  0  0  0  0  0  0
   -1.2621   16.3812    1.9236 C   0  0  0  0  0  0  0  0  0  0  0  0
    0.0837   15.6709    2.1250 C   0  0  1  0  0  0  0  0  0  0  0  0
    0.5148   15.0846    0.9139 O   0  0  0  0  0  0  0  0  0  0  0  0
    1.2498   16.6268    2.4321 C   0  0  1  0  0  0  0  0  0  0  0  0
    1.3009   17.1189    3.7608 O   0  0  0  0  0  0  0  0  0  0  0  0
    2.4849   15.8082    2.0572 C   0  0  1  0  0  0  0  0  0  0  0  0
    2.9973   15.0786    3.1582 O   0  0  0  0  0  0  0  0  0  0  0  0
    1.9007   14.8235    1.0460 C   0  0  2  0  0  0  0  0  0  0  0  0
    2.5704   14.7957   -0.2718 N   0  0  0  0  0  0  0  0  0  0  0  0
    3.7088   15.4257   -0.7071 C   0  0  0  0  0  0  0  0  0  0  0  0
    3.9606   15.2523   -1.9789 N   0  0  0  0  0  0  0  0  0  0  0  0
    2.9302   14.4273   -2.4195 C   0  0  0  0  0  0  0  0  0  0  0  0
    2.6317   13.9196   -3.7245 C   0  0  0  0  0  0  0  0  0  0  0  0
    3.2279   14.1487   -4.7749 O   0  0  0  0  0  0  0  0  0  0  0  0
    1.5069   13.0838   -3.7374 N   0  0  0  0  0  0  0  0  0  0  0  0
    0.7804   12.7526   -2.6036 C   0  0  0  0  0  0  0  0  0  0  0  0
   -0.2086   11.8604   -2.7287 N   0  0  0  0  0  0  0  0  0  0  0  0
    1.0350   13.2694   -1.3904 N   0  0  0  0  0  0  0  0  0  0  0  0
    2.1123   14.1009   -1.3638 C   0  0  0  0  0  0  0  0  0  0  0  0
  1  2  2  0  0  0  0
  1  4  1  0  0  0  0
  1  3  1  0  0  0  0
  5  1  1  0  0  0  0
  6  7  2  1  0  0  0
  6  9  1  0  0  0  0
  6  5  1  0  0  0  0
  6  8  1  0  0  0  0
 10 11  2  6  0  0  0
 10 12  1  0  0  0  0
 10 13  1  0  0  0  0
 10  9  1  0  0  0  0
 13 14  1  0  0  0  0
 15 14  1  6  0  0  0
 15 16  1  0  0  0  0
 17 19  1  0  0  0  0
 17 15  1  0  0  0  0
 17 18  1  1  0  0  0
 19 21  1  0  0  0  0
 19 20  1  1  0  0  0
 21 16  1  0  0  0  0
 21 22  1  6  0  0  0
 22 32  1  0  0  0  0
 23 22  1  0  0  0  0
 23 24  2  0  0  0  0
 24 25  1  0  0  0  0
 25 26  1  0  0  0  0
 26 27  2  0  0  0  0
 26 28  1  0  0  0  0
 29 28  1  0  0  0  0
 29 30  1  0  0  0  0
 31 29  2  0  0  0  0
 32 25  2  0  0  0  0
 32 31  1  0  0  0  0
M  END
>  <CHROM.1>
72.27092608,173.23387146,-53.64000983,-61.29994825,-129.03077862,64.99478227
52.82615017,-138.90434118,-175.98910163,130.67045965,0.30407078,13.85544935
1.53481364,-2.03978750,-0.21984440,-1.49198179

>  <Name>
lig.pdb

>  <RI>
2.92062e+07

>  <Rbt.Current_Directory>
/home/itssahil/PROJECTS/Mol_Feturizer/New_Systems/rnas/5lwj

>  <Rbt.Executable>
rbdock ($Id: //depot/dev/client3/rdock/2013.1/src/exe/rbdock.cxx#4 $)

>  <Rbt.Library>
libRbt.so (2013.1, Build901 2013/11/27)

>  <Rbt.Parameter_File>
/export/apps/rDock/src/rDock_2013.1_src/data/scripts/dock_solv.prm

>  <Rbt.Receptor>
prm/pocket_docking_7.prm

>  <SCORE>
-27.4708

>  <SCORE.INTER>
-25.3471

>  <SCORE.INTER.CONST>
1

>  <SCORE.INTER.POLAR>
-3.22653

>  <SCORE.INTER.ROT>
8

>  <SCORE.INTER.SOLV>
19.6724

>  <SCORE.INTER.VDW>
-21.6337

>  <SCORE.INTER.norm>
-0.792096

>  <SCORE.INTRA>
-2.18109

>  <SCORE.INTRA.DIHEDRAL>
0.548792

>  <SCORE.INTRA.DIHEDRAL.0>
10.9248

>  <SCORE.INTRA.POLAR>
0

>  <SCORE.INTRA.POLAR.0>
0

>  <SCORE.INTRA.REPUL>
0.0645161

>  <SCORE.INTRA.REPUL.0>
0

>  <SCORE.INTRA.SOLV>
0.770278

>  <SCORE.INTRA.SOLV.lig_0>
-51.4104

>  <SCORE.INTRA.VDW>
-3.1632

>  <SCORE.INTRA.VDW.0>
0.110327

>  <SCORE.INTRA.norm>
-0.068159

>  <SCORE.RESTR>
0.0573817

>  <SCORE.RESTR.CAVITY>
0.0573817

>  <SCORE.RESTR.norm>
0.00179318

>  <SCORE.SYSTEM>
0

>  <SCORE.SYSTEM.CONST>
0

>  <SCORE.SYSTEM.DIHEDRAL>
0

>  <SCORE.SYSTEM.SOLV>
0

>  <SCORE.SYSTEM.norm>
0

>  <SCORE.heavy>
32

>  <SCORE.norm>
-0.858461

>  <RMSD>
8.494

$$$$
lig.pdb
 OpenBabel11021811523D
libRbt.so/2013.1/901 2013/11/27
 32 34  0  0  0  0  0  0  0  0999 V2000
   -1.5972   13.3517    3.8197 P   0  0  0  0  0  0  0  0  0  0  0  0
   -3.0727   13.6015    3.6233 O   0  0  0  0  0  0  0  0  0  0  0  0
   -1.0788   14.7264    4.5083 O   0  0  0  0  0  0  0  0  0  0  0  0
   -1.1722   12.2908    4.8040 O   0  0  0  0  0  0  0  0  0  0  0  0
   -1.0854   12.9314    2.5297 O   0  0  0  0  0  0  0  0  0  0  0  0
    0.3930   13.0307    2.5280 P   0  0  1  0  0  0  0  0  0  0  0  0
    0.9236   12.0355    3.4893 O   0  0  0  0  0  0  0  0  0  0  0  0
    0.9207   12.7269    1.1775 O   0  0  0  0  0  0  0  0  0  0  0  0
    0.7962   14.4021    2.9285 O   0  0  0  0  0  0  0  0  0  0  0  0
    2.1021   14.9920    2.5496 P   0  0  1  0  0  0  0  0  0  0  0  0
    2.2490   16.4274    2.8655 O   0  0  0  0  0  0  0  0  0  0  0  0
    3.2835   14.1604    2.8705 O   0  0  0  0  0  0  0  0  0  0  0  0
    2.0349   14.9993    0.9328 O   0  0  0  0  0  0  0  0  0  0  0  0
    3.1670   15.2705    0.1282 C   0  0  0  0  0  0  0  0  0  0  0  0
    3.8654   13.9926   -0.3573 C   0  0  1  0  0  0  0  0  0  0  0  0
    3.1278   13.3989   -1.4061 O   0  0  0  0  0  0  0  0  0  0  0  0
    5.2187   14.2479   -1.0438 C   0  0  1  0  0  0  0  0  0  0  0  0
    6.3030   14.5196   -0.1717 O   0  0  0  0  0  0  0  0  0  0  0  0
    5.4340   12.9862   -1.8792 C   0  0  1  0  0  0  0  0  0  0  0  0
    6.1560   11.9934   -1.1719 O   0  0  0  0  0  0  0  0  0  0  0  0
    3.9981   12.5026   -2.0736 C   0  0  2  0  0  0  0  0  0  0  0  0
    3.5832   12.2961   -3.4776 N   0  0  0  0  0  0  0  0  0  0  0  0
    4.2574   12.5272   -4.6500 C   0  0  0  0  0  0  0  0  0  0  0  0
    3.5423   12.3203   -5.7255 N   0  0  0  0  0  0  0  0  0  0  0  0
    2.3098   11.8970   -5.2375 C   0  0  0  0  0  0  0  0  0  0  0  0
    1.0991   11.5579   -5.9224 C   0  0  0  0  0  0  0  0  0  0  0  0
    0.8790   11.6097   -7.1308 O   0  0  0  0  0  0  0  0  0  0  0  0
    0.0818   11.1423   -5.0527 N   0  0  0  0  0  0  0  0  0  0  0  0
    0.2389   11.0347   -3.6791 C   0  0  0  0  0  0  0  0  0  0  0  0
   -0.7731   10.5245   -2.9684 N   0  0  0  0  0  0  0  0  0  0  0  0
    1.3605   11.3999   -3.0368 N   0  0  0  0  0  0  0  0  0  0  0  0
    2.3525   11.8267   -3.8652 C   0  0  0  0  0  0  0  0  0  0  0  0
  1  2  2  0  0  0  0
  1  4  1  0  0  0  0
  1  3  1  0  0  0  0
  5  1  1  0  0  0  0
  6  7  2  1  0  0  0
  6  9  1  0  0  0  0
  6  5  1  0  0  0  0
  6  8  1  0  0  0  0
 10 11  2  1  0  0  0
 10 12  1  0  0  0  0
 10 13  1  0  0  0  0
 10  9  1  0  0  0  0
 13 14  1  0  0  0  0
 15 14  1  6  0  0  0
 15 16  1  0  0  0  0
 17 19  1  0  0  0  0
 17 15  1  0  0  0  0
 17 18  1  1  0  0  0
 19 21  1  0  0  0  0
 19 20  1  1  0  0  0
 21 16  1  0  0  0  0
 21 22  1  6  0  0  0
 22 32  1  0  0  0  0
 23 22  1  0  0  0  0
 23 24  2  0  0  0  0
 24 25  1  0  0  0  0
 25 26  1  0  0  0  0
 26 27  2  0  0  0  0
 26 28  1  0  0  0  0
 29 28  1  0  0  0  0
 29 30  1  0  0  0  0
 31 29  2  0  0  0  0
 32 25  2  0  0  0  0
 32 31  1  0  0  0  0
M  END
>  <CHROM.1>
164.23124684,-156.15718662,66.30190472,-168.92646576,171.48037100,96.44153012
75.99814014,57.99408957,41.56682741,120.73239565,1.70160772,13.13179469,-0.10504810
1.93138647,0.31644871,1.23026418

>  <Name>
lig.pdb

>  <RI>
2.0892e+07

>  <Rbt.Current_Directory>
/home/itssahil/PROJECTS/Mol_Feturizer/New_Systems/rnas/5lwj

>  <Rbt.Executable>
rbdock ($Id: //depot/dev/client3/rdock/2013.1/src/exe/rbdock.cxx#4 $)

>  <Rbt.Library>
libRbt.so (2013.1, Build901 2013/11/27)

>  <Rbt.Parameter_File>
/export/apps/rDock/src/rDock_2013.1_src/data/scripts/dock_solv.prm

>  <Rbt.Receptor>
prm/pocket_docking_8.prm

>  <SCORE>
-37.5922

>  <SCORE.INTER>
-35.9299

>  <SCORE.INTER.CONST>
1

>  <SCORE.INTER.POLAR>
-4.69282

>  <SCORE.INTER.ROT>
8

>  <SCORE.INTER.SOLV>
18.2278

>  <SCORE.INTER.VDW>
-23.3198

>  <SCORE.INTER.norm>
-1.12281

>  <SCORE.INTRA>
-1.66225

>  <SCORE.INTRA.DIHEDRAL>
0.410963

>  <SCORE.INTRA.DIHEDRAL.0>
10.9248

>  <SCORE.INTRA.POLAR>
0

>  <SCORE.INTRA.POLAR.0>
0

>  <SCORE.INTRA.REPUL>
0.020956

>  <SCORE.INTRA.REPUL.0>
0

>  <SCORE.INTRA.SOLV>
-0.732786

>  <SCORE.INTRA.SOLV.lig_0>
-51.4104

>  <SCORE.INTRA.VDW>
-1.60612

>  <SCORE.INTRA.VDW.0>
0.110327

>  <SCORE.INTRA.norm>
-0.0519453

>  <SCORE.RESTR>
0

>  <SCORE.RESTR.CAVITY>
0

>  <SCORE.RESTR.norm>
0

>  <SCORE.SYSTEM>
0

>  <SCORE.SYSTEM.CONST>
0

>  <SCORE.SYSTEM.DIHEDRAL>
0

>  <SCORE.SYSTEM.SOLV>
0

>  <SCORE.SYSTEM.norm>
0

>  <SCORE.heavy>
32

>  <SCORE.norm>
-1.17476

>  <RMSD>
8.501

$$$$
lig.pdb
 OpenBabel11021811523D
libRbt.so/2013.1/901 2013/11/27
 32 34  0  0  0  0  0  0  0  0999 V2000
    0.9141   11.3724    5.6971 P   0  0  0  0  0  0  0  0  0  0  0  0
    2.1309   12.0571    6.2703 O   0  0  0  0  0  0  0  0  0  0  0  0
    1.3074   11.1669    4.1364 O   0  0  0  0  0  0  0  0  0  0  0  0
    0.5919    9.9732    6.1591 O   0  0  0  0  0  0  0  0  0  0  0  0
   -0.2221   12.1914    6.0724 O   0  0  0  0  0  0  0  0  0  0  0  0
   -1.2038   12.2135    4.9627 P   0  0  1  0  0  0  0  0  0  0  0  0
   -1.6459   10.8219    4.7097 O   0  0  0  0  0  0  0  0  0  0  0  0
   -2.3790   13.0325    5.3406 O   0  0  0  0  0  0  0  0  0  0  0  0
   -0.5645   12.7813    3.7492 O   0  0  0  0  0  0  0  0  0  0  0  0
   -0.9085   14.1225    3.2200 P   0  0  1  0  0  0  0  0  0  0  0  0
   -2.1078   14.1602    2.3587 O   0  0  0  0  0  0  0  0  0  0  0  0
   -0.8108   15.2278    4.1992 O   0  0  0  0  0  0  0  0  0  0  0  0
    0.2843   14.4060    2.1638 O   0  0  0  0  0  0  0  0  0  0  0  0
    1.6504   14.2829    2.5121 C   0  0  0  0  0  0  0  0  0  0  0  0
    2.5517   15.2309    1.7087 C   0  0  1  0  0  0  0  0  0  0  0  0
    1.9773   16.5204    1.6490 O   0  0  0  0  0  0  0  0  0  0  0  0
    3.8997   15.5296    2.3882 C   0  0  1  0  0  0  0  0  0  0  0  0
    4.8736   14.5042    2.2874 O   0  0  0  0  0  0  0  0  0  0  0  0
    4.3453   16.8347    1.7292 C   0  0  1  0  0  0  0  0  0  0  0  0
    5.1490   16.6086    0.5846 O   0  0  0  0  0  0  0  0  0  0  0  0
    3.0075   17.4201    1.2807 C   0  0  2  0  0  0  0  0  0  0  0  0
    2.7220   18.7894    1.7599 N   0  0  0  0  0  0  0  0  0  0  0  0
    3.1293   20.0068    1.2757 C   0  0  0  0  0  0  0  0  0  0  0  0
    2.7641   21.0230    2.0138 N   0  0  0  0  0  0  0  0  0  0  0  0
    2.0398   20.4453    3.0523 C   0  0  0  0  0  0  0  0  0  0  0  0
    1.4177   21.0345    4.1993 C   0  0  0  0  0  0  0  0  0  0  0  0
    1.4283   22.2167    4.5364 O   0  0  0  0  0  0  0  0  0  0  0  0
    0.7498   20.0953    4.9967 N   0  0  0  0  0  0  0  0  0  0  0  0
    0.6673   18.7451    4.6911 C   0  0  0  0  0  0  0  0  0  0  0  0
   -0.0888   17.9680    5.4747 N   0  0  0  0  0  0  0  0  0  0  0  0
    1.2929   18.1897    3.6404 N   0  0  0  0  0  0  0  0  0  0  0  0
    1.9648   19.0853    2.8664 C   0  0  0  0  0  0  0  0  0  0  0  0
  1  2  2  0  0  0  0
  1  4  1  0  0  0  0
  1  3  1  0  0  0  0
  5  1  1  0  0  0  0
  6  7  2  6  0  0  0
  6  9  1  0  0  0  0
  6  5  1  0  0  0  0
  6  8  1  0  0  0  0
 10 11  2  6  0  0  0
 10 12  1  0  0  0  0
 10 13  1  0  0  0  0
 10  9  1  0  0  0  0
 13 14  1  0  0  0  0
 15 14  1  1  0  0  0
 15 16  1  0  0  0  0
 17 19  1  0  0  0  0
 17 15  1  0  0  0  0
 17 18  1  6  0  0  0
 19 21  1  0  0  0  0
 19 20  1  6  0  0  0
 21 16  1  0  0  0  0
 21 22  1  1  0  0  0
 22 32  1  0  0  0  0
 23 22  1  0  0  0  0
 23 24  2  0  0  0  0
 24 25  1  0  0  0  0
 25 26  1  0  0  0  0
 26 27  2  0  0  0  0
 26 28  1  0  0  0  0
 29 28  1  0  0  0  0
 29 30  1  0  0  0  0
 31 29  2  0  0  0  0
 32 25  2  0  0  0  0
 32 31  1  0  0  0  0
M  END
>  <CHROM.1>
142.57279730,-108.75871972,60.23120882,-51.85970056,-83.31538618,-150.22942802
44.68345988,-62.19616754,-178.88235331,-153.76150183,1.06639746,15.39358681
3.64167860,-1.96793934,0.59324104,-0.05332285

>  <Name>
lig.pdb

>  <RI>
2.0892e+07

>  <Rbt.Current_Directory>
/home/itssahil/PROJECTS/Mol_Feturizer/New_Systems/rnas/5lwj

>  <Rbt.Executable>
rbdock ($Id: //depot/dev/client3/rdock/2013.1/src/exe/rbdock.cxx#4 $)

>  <Rbt.Library>
libRbt.so (2013.1, Build901 2013/11/27)

>  <Rbt.Parameter_File>
/export/apps/rDock/src/rDock_2013.1_src/data/scripts/dock_solv.prm

>  <Rbt.Receptor>
prm/pocket_docking_8.prm

>  <SCORE>
-40.6048

>  <SCORE.INTER>
-34.229

>  <SCORE.INTER.CONST>
1

>  <SCORE.INTER.POLAR>
-2.1084

>  <SCORE.INTER.ROT>
8

>  <SCORE.INTER.SOLV>
23.4588

>  <SCORE.INTER.VDW>
-32.5443

>  <SCORE.INTER.norm>
-1.06966

>  <SCORE.INTRA>
-6.46716

>  <SCORE.INTRA.DIHEDRAL>
0.367812

>  <SCORE.INTRA.DIHEDRAL.0>
10.9248

>  <SCORE.INTRA.POLAR>
-1

>  <SCORE.INTRA.POLAR.0>
0

>  <SCORE.INTRA.REPUL>
0.0875281

>  <SCORE.INTRA.REPUL.0>
0

>  <SCORE.INTRA.SOLV>
0.135013

>  <SCORE.INTRA.SOLV.lig_0>
-51.4104

>  <SCORE.INTRA.VDW>
-3.75621

>  <SCORE.INTRA.VDW.0>
0.110327

>  <SCORE.INTRA.norm>
-0.202099

>  <SCORE.RESTR>
0.0913747

>  <SCORE.RESTR.CAVITY>
0.0913747

>  <SCORE.RESTR.norm>
0.00285546

>  <SCORE.SYSTEM>
0

>  <SCORE.SYSTEM.CONST>
0

>  <SCORE.SYSTEM.DIHEDRAL>
0

>  <SCORE.SYSTEM.SOLV>
0

>  <SCORE.SYSTEM.norm>
0

>  <SCORE.heavy>
32

>  <SCORE.norm>
-1.2689

>  <RMSD>
8.504

$$$$
lig.pdb
 OpenBabel11021811523D
libRbt.so/2013.1/901 2013/11/27
 32 34  0  0  0  0  0  0  0  0999 V2000
   -3.1082   15.5467    4.0440 P   0  0  0  0  0  0  0  0  0  0  0  0
   -2.8865   15.2036    5.4970 O   0  0  0  0  0  0  0  0  0  0  0  0
   -4.6486   15.1039    3.7913 O   0  0  0  0  0  0  0  0  0  0  0  0
   -3.0955   16.9993    3.6380 O   0  0  0  0  0  0  0  0  0  0  0  0
   -2.0271   14.9153    3.3124 O   0  0  0  0  0  0  0  0  0  0  0  0
   -2.3423   13.4827    3.1028 P   0  0  1  0  0  0  0  0  0  0  0  0
   -2.8844   12.9391    4.3703 O   0  0  0  0  0  0  0  0  0  0  0  0
   -3.3633   13.3378    2.0392 O   0  0  0  0  0  0  0  0  0  0  0  0
   -1.1066   12.7568    2.7157 O   0  0  0  0  0  0  0  0  0  0  0  0
    0.0978   12.7160    3.5786 P   0  0  1  0  0  0  0  0  0  0  0  0
   -0.1598   12.9501    5.0141 O   0  0  0  0  0  0  0  0  0  0  0  0
    1.0416   11.6138    3.2876 O   0  0  0  0  0  0  0  0  0  0  0  0
    0.8919   14.0582    3.1468 O   0  0  0  0  0  0  0  0  0  0  0  0
    2.2639   14.0490    2.8001 C   0  0  0  0  0  0  0  0  0  0  0  0
    2.6169   15.1219    1.7606 C   0  0  1  0  0  0  0  0  0  0  0  0
    2.2236   16.3986    2.2207 O   0  0  0  0  0  0  0  0  0  0  0  0
    4.1300   15.3219    1.5649 C   0  0  1  0  0  0  0  0  0  0  0  0
    4.7788   14.3356    0.7799 O   0  0  0  0  0  0  0  0  0  0  0  0
    4.2249   16.7199    0.9542 C   0  0  1  0  0  0  0  0  0  0  0  0
    4.2035   16.6872   -0.4620 O   0  0  0  0  0  0  0  0  0  0  0  0
    2.9273   17.3559    1.4493 C   0  0  2  0  0  0  0  0  0  0  0  0
    3.0854   18.6282    2.1856 N   0  0  0  0  0  0  0  0  0  0  0  0
    4.1172   19.5326    2.1922 C   0  0  0  0  0  0  0  0  0  0  0  0
    3.9626   20.5111    3.0463 N   0  0  0  0  0  0  0  0  0  0  0  0
    2.7278   20.2558    3.6350 C   0  0  0  0  0  0  0  0  0  0  0  0
    2.0263   20.9475    4.6740 C   0  0  0  0  0  0  0  0  0  0  0  0
    2.4038   21.9279    5.3124 O   0  0  0  0  0  0  0  0  0  0  0  0
    0.7777   20.3779    4.9577 N   0  0  0  0  0  0  0  0  0  0  0  0
    0.2583   19.2842    4.2816 C   0  0  0  0  0  0  0  0  0  0  0  0
   -0.9895   18.8996    4.5723 N   0  0  0  0  0  0  0  0  0  0  0  0
    0.9402   18.6097    3.3414 N   0  0  0  0  0  0  0  0  0  0  0  0
    2.1649   19.1370    3.0682 C   0  0  0  0  0  0  0  0  0  0  0  0
  1  2  2  0  0  0  0
  1  4  1  0  0  0  0
  1  3  1  0  0  0  0
  5  1  1  0  0  0  0
  6  7  2  1  0  0  0
  6  9  1  0  0  0  0
  6  5  1  0  0  0  0
  6  8  1  0  0  0  0
 10 11  2  1  0  0  0
 10 12  1  0  0  0  0
 10 13  1  0  0  0  0
 10  9  1  0  0  0  0
 13 14  1  0  0  0  0
 15 14  1  1  0  0  0
 15 16  1  0  0  0  0
 17 19  1  0  0  0  0
 17 15  1  0  0  0  0
 17 18  1  6  0  0  0
 19 21  1  0  0  0  0
 19 20  1  6  0  0  0
 21 16  1  0  0  0  0
 21 22  1  1  0  0  0
 22 32  1  0  0  0  0
 23 22  1  0  0  0  0
 23 24  2  0  0  0  0
 24 25  1  0  0  0  0
 25 26  1  0  0  0  0
 26 27  2  0  0  0  0
 26 28  1  0  0  0  0
 29 28  1  0  0  0  0
 29 30  1  0  0  0  0
 31 29  2  0  0  0  0
 32 25  2  0  0  0  0
 32 31  1  0  0  0  0
M  END
>  <CHROM.1>
80.79793756,59.15729551,-43.61733026,-129.79994672,23.44600698,148.88982749
55.61868833,-78.24644780,-55.78412529,145.03119812,0.44071489,16.05684183
3.17166916,2.42837533,-0.39480824,-2.87679813

>  <Name>
lig.pdb

>  <RI>
2.0892e+07

>  <Rbt.Current_Directory>
/home/itssahil/PROJECTS/Mol_Feturizer/New_Systems/rnas/5lwj

>  <Rbt.Executable>
rbdock ($Id: //depot/dev/client3/rdock/2013.1/src/exe/rbdock.cxx#4 $)

>  <Rbt.Library>
libRbt.so (2013.1, Build901 2013/11/27)

>  <Rbt.Parameter_File>
/export/apps/rDock/src/rDock_2013.1_src/data/scripts/dock_solv.prm

>  <Rbt.Receptor>
prm/pocket_docking_8.prm

>  <SCORE>
-29.9417

>  <SCORE.INTER>
-27.7164

>  <SCORE.INTER.CONST>
1

>  <SCORE.INTER.POLAR>
-2.55512

>  <SCORE.INTER.ROT>
8

>  <SCORE.INTER.SOLV>
15.5868

>  <SCORE.INTER.VDW>
-24.0895

>  <SCORE.INTER.norm>
-0.866138

>  <SCORE.INTRA>
-2.24038

>  <SCORE.INTRA.DIHEDRAL>
1.78754

>  <SCORE.INTRA.DIHEDRAL.0>
10.9248

>  <SCORE.INTRA.POLAR>
-0.957235

>  <SCORE.INTRA.POLAR.0>
0

>  <SCORE.INTRA.REPUL>
0.348459

>  <SCORE.INTRA.REPUL.0>
0

>  <SCORE.INTRA.SOLV>
1.34273

>  <SCORE.INTRA.SOLV.lig_0>
-51.4104

>  <SCORE.INTRA.VDW>
-2.29321

>  <SCORE.INTRA.VDW.0>
0.110327

>  <SCORE.INTRA.norm>
-0.0700118

>  <SCORE.RESTR>
0.0150539

>  <SCORE.RESTR.CAVITY>
0.0150539

>  <SCORE.RESTR.norm>
0.000470435

>  <SCORE.SYSTEM>
0

>  <SCORE.SYSTEM.CONST>
0

>  <SCORE.SYSTEM.DIHEDRAL>
0

>  <SCORE.SYSTEM.SOLV>
0

>  <SCORE.SYSTEM.norm>
0

>  <SCORE.heavy>
32

>  <SCORE.norm>
-0.935679

>  <RMSD>
8.509

$$$$
lig.pdb
 OpenBabel11021811523D
libRbt.so/2013.1/901 2013/11/27
 32 34  0  0  0  0  0  0  0  0999 V2000
   -1.9955   13.3029    4.0213 P   0  0  0  0  0  0  0  0  0  0  0  0
   -3.0652   13.3993    5.0817 O   0  0  0  0  0  0  0  0  0  0  0  0
   -1.0136   14.5456    4.3737 O   0  0  0  0  0  0  0  0  0  0  0  0
   -1.0680   12.1135    4.0415 O   0  0  0  0  0  0  0  0  0  0  0  0
   -2.6926   13.2476    2.7510 O   0  0  0  0  0  0  0  0  0  0  0  0
   -1.7899   13.7106    1.6710 P   0  0  1  0  0  0  0  0  0  0  0  0
   -0.5742   12.8634    1.6905 O   0  0  0  0  0  0  0  0  0  0  0  0
   -2.4568   13.5682    0.3559 O   0  0  0  0  0  0  0  0  0  0  0  0
   -1.4324   15.1327    1.9021 O   0  0  0  0  0  0  0  0  0  0  0  0
   -0.4023   15.8363    1.1017 P   0  0  1  0  0  0  0  0  0  0  0  0
   -0.4261   17.3087    1.2173 O   0  0  0  0  0  0  0  0  0  0  0  0
    0.9475   15.2309    1.1440 O   0  0  0  0  0  0  0  0  0  0  0  0
   -0.9081   15.6009   -0.4173 O   0  0  0  0  0  0  0  0  0  0  0  0
   -0.0101   15.4477   -1.5002 C   0  0  0  0  0  0  0  0  0  0  0  0
    0.3593   16.7864   -2.1542 C   0  0  1  0  0  0  0  0  0  0  0  0
    0.9083   17.6661   -1.1945 O   0  0  0  0  0  0  0  0  0  0  0  0
    1.5124   16.6842   -3.1680 C   0  0  1  0  0  0  0  0  0  0  0  0
    1.1648   16.1513   -4.4350 O   0  0  0  0  0  0  0  0  0  0  0  0
    2.0351   18.1180   -3.2532 C   0  0  1  0  0  0  0  0  0  0  0  0
    1.4022   18.8576   -4.2826 O   0  0  0  0  0  0  0  0  0  0  0  0
    1.5954   18.6819   -1.9034 C   0  0  2  0  0  0  0  0  0  0  0  0
    2.6726   19.2753   -1.0828 N   0  0  0  0  0  0  0  0  0  0  0  0
    3.2354   20.5260   -1.1192 C   0  0  0  0  0  0  0  0  0  0  0  0
    4.2459   20.6796   -0.3031 N   0  0  0  0  0  0  0  0  0  0  0  0
    4.3504   19.4513    0.3427 C   0  0  0  0  0  0  0  0  0  0  0  0
    5.2890   18.9842    1.3178 C   0  0  0  0  0  0  0  0  0  0  0  0
    6.2588   19.5848    1.7760 O   0  0  0  0  0  0  0  0  0  0  0  0
    5.0221   17.6764    1.7447 N   0  0  0  0  0  0  0  0  0  0  0  0
    3.9443   16.9257    1.3000 C   0  0  0  0  0  0  0  0  0  0  0  0
    3.7362   15.7297    1.8622 N   0  0  0  0  0  0  0  0  0  0  0  0
    3.0951   17.3500    0.3500 N   0  0  0  0  0  0  0  0  0  0  0  0
    3.3526   18.6113   -0.0919 C   0  0  0  0  0  0  0  0  0  0  0  0
  1  2  2  0  0  0  0
  1  4  1  0  0  0  0
  1  3  1  0  0  0  0
  5  1  1  0  0  0  0
  6  7  2  1  0  0  0
  6  9  1  0  0  0  0
  6  5  1  0  0  0  0
  6  8  1  0  0  0  0
 10 11  2  1  0  0  0
 10 12  1  0  0  0  0
 10 13  1  0  0  0  0
 10  9  1  0  0  0  0
 13 14  1  0  0  0  0
 15 14  1  1  0  0  0
 15 16  1  0  0  0  0
 17 19  1  0  0  0  0
 17 15  1  0  0  0  0
 17 18  1  6  0  0  0
 19 21  1  0  0  0  0
 19 20  1  6  0  0  0
 21 16  1  0  0  0  0
 21 22  1  1  0  0  0
 22 32  1  0  0  0  0
 23 22  1  0  0  0  0
 23 24  2  0  0  0  0
 24 25  1  0  0  0  0
 25 26  1  0  0  0  0
 26 27  2  0  0  0  0
 26 28  1  0  0  0  0
 29 28  1  0  0  0  0
 29 30  1  0  0  0  0
 31 29  2  0  0  0  0
 32 25  2  0  0  0  0
 32 31  1  0  0  0  0
M  END
>  <CHROM.1>
156.61962252,171.58944109,56.98665048,-146.24207970,164.54744181,-89.40696588
56.80749407,65.64368034,-178.20087613,-152.81199179,0.80595233,16.20766844
0.63624245,-2.43621348,-0.61677132,-1.24332701

>  <Name>
lig.pdb

>  <RI>
0

>  <Rbt.Current_Directory>
/home/itssahil/PROJECTS/Mol_Feturizer/New_Systems/rnas/5lwj

>  <Rbt.Executable>
rbdock ($Id: //depot/dev/client3/rdock/2013.1/src/exe/rbdock.cxx#4 $)

>  <Rbt.Library>
libRbt.so (2013.1, Build901 2013/11/27)

>  <Rbt.Parameter_File>
/export/apps/rDock/src/rDock_2013.1_src/data/scripts/dock_solv.prm

>  <Rbt.Receptor>
prm/pocket_docking_4.prm

>  <SCORE>
-18.7932

>  <SCORE.INTER>
-11.237

>  <SCORE.INTER.CONST>
1

>  <SCORE.INTER.POLAR>
-1.64751

>  <SCORE.INTER.ROT>
8

>  <SCORE.INTER.SOLV>
9.65238

>  <SCORE.INTER.VDW>
-14.1505

>  <SCORE.INTER.norm>
-0.351158

>  <SCORE.INTRA>
-7.55611

>  <SCORE.INTRA.DIHEDRAL>
-2.0691

>  <SCORE.INTRA.DIHEDRAL.0>
10.9248

>  <SCORE.INTRA.POLAR>
-0.977556

>  <SCORE.INTRA.POLAR.0>
0

>  <SCORE.INTRA.REPUL>
0.0154617

>  <SCORE.INTRA.REPUL.0>
0

>  <SCORE.INTRA.SOLV>
2.17042

>  <SCORE.INTRA.SOLV.lig_0>
-51.4104

>  <SCORE.INTRA.VDW>
-4.36039

>  <SCORE.INTRA.VDW.0>
0.110327

>  <SCORE.INTRA.norm>
-0.236128

>  <SCORE.RESTR>
0

>  <SCORE.RESTR.CAVITY>
0

>  <SCORE.RESTR.norm>
0

>  <SCORE.SYSTEM>
0

>  <SCORE.SYSTEM.CONST>
0

>  <SCORE.SYSTEM.DIHEDRAL>
0

>  <SCORE.SYSTEM.SOLV>
0

>  <SCORE.SYSTEM.norm>
0

>  <SCORE.heavy>
32

>  <SCORE.norm>
-0.587286

>  <RMSD>
8.518

$$$$
lig.pdb
 OpenBabel11021811523D
libRbt.so/2013.1/901 2013/11/27
 32 34  0  0  0  0  0  0  0  0999 V2000
    0.7492   11.4419    5.7938 P   0  0  0  0  0  0  0  0  0  0  0  0
    0.7152    9.9340    5.8515 O   0  0  0  0  0  0  0  0  0  0  0  0
   -0.5832   11.8725    6.6134 O   0  0  0  0  0  0  0  0  0  0  0  0
    1.8529   12.1648    6.5246 O   0  0  0  0  0  0  0  0  0  0  0  0
    0.9007   11.7872    4.3936 O   0  0  0  0  0  0  0  0  0  0  0  0
   -0.3633   12.3733    3.8892 P   0  0  1  0  0  0  0  0  0  0  0  0
   -1.4367   11.3645    4.0509 O   0  0  0  0  0  0  0  0  0  0  0  0
   -0.7123   13.5801    4.6744 O   0  0  0  0  0  0  0  0  0  0  0  0
   -0.2039   12.7335    2.4580 O   0  0  0  0  0  0  0  0  0  0  0  0
    0.6401   13.8666    2.0099 P   0  0  1  0  0  0  0  0  0  0  0  0
    2.0745   13.7391    2.3386 O   0  0  0  0  0  0  0  0  0  0  0  0
    0.3564   14.3589    0.6434 O   0  0  0  0  0  0  0  0  0  0  0  0
    0.1683   15.0699    2.9836 O   0  0  0  0  0  0  0  0  0  0  0  0
   -0.0388   16.3886    2.5136 C   0  0  0  0  0  0  0  0  0  0  0  0
    1.2515   17.2202    2.5021 C   0  0  1  0  0  0  0  0  0  0  0  0
    2.3087   16.4771    1.9308 O   0  0  0  0  0  0  0  0  0  0  0  0
    1.1954   18.4392    1.5647 C   0  0  1  0  0  0  0  0  0  0  0  0
    0.4709   19.5540    2.0572 O   0  0  0  0  0  0  0  0  0  0  0  0
    2.6687   18.7571    1.3111 C   0  0  1  0  0  0  0  0  0  0  0  0
    3.1820   19.6927    2.2430 O   0  0  0  0  0  0  0  0  0  0  0  0
    3.3206   17.4000    1.5694 C   0  0  2  0  0  0  0  0  0  0  0  0
    4.1557   16.8776    0.4669 N   0  0  0  0  0  0  0  0  0  0  0  0
    5.4873   17.0615    0.1923 C   0  0  0  0  0  0  0  0  0  0  0  0
    5.8784   16.5238   -0.9340 N   0  0  0  0  0  0  0  0  0  0  0  0
    4.7316   15.9159   -1.4361 C   0  0  0  0  0  0  0  0  0  0  0  0
    4.5098   15.2020   -2.6572 C   0  0  0  0  0  0  0  0  0  0  0  0
    5.3108   15.0038   -3.5685 O   0  0  0  0  0  0  0  0  0  0  0  0
    3.2013   14.7131   -2.7698 N   0  0  0  0  0  0  0  0  0  0  0  0
    2.2332   14.8704   -1.7894 C   0  0  0  0  0  0  0  0  0  0  0  0
    1.0532   14.2659   -1.9681 N   0  0  0  0  0  0  0  0  0  0  0  0
    2.4317   15.5820   -0.6678 N   0  0  0  0  0  0  0  0  0  0  0  0
    3.6921   16.0826   -0.5521 C   0  0  0  0  0  0  0  0  0  0  0  0
  1  2  2  0  0  0  0
  1  4  1  0  0  0  0
  1  3  1  0  0  0  0
  5  1  1  0  0  0  0
  6  7  2  1  0  0  0
  6  9  1  0  0  0  0
  6  5  1  0  0  0  0
  6  8  1  0  0  0  0
 10 11  2  1  0  0  0
 10 12  1  0  0  0  0
 10 13  1  0  0  0  0
 10  9  1  0  0  0  0
 13 14  1  0  0  0  0
 15 14  1  6  0  0  0
 15 16  1  0  0  0  0
 17 19  1  0  0  0  0
 17 15  1  0  0  0  0
 17 18  1  1  0  0  0
 19 21  1  0  0  0  0
 19 20  1  1  0  0  0
 21 16  1  0  0  0  0
 21 22  1  6  0  0  0
 22 32  1  0  0  0  0
 23 22  1  0  0  0  0
 23 24  2  0  0  0  0
 24 25  1  0  0  0  0
 25 26  1  0  0  0  0
 26 27  2  0  0  0  0
 26 28  1  0  0  0  0
 29 28  1  0  0  0  0
 29 30  1  0  0  0  0
 31 29  2  0  0  0  0
 32 25  2  0  0  0  0
 32 31  1  0  0  0  0
M  END
>  <CHROM.1>
109.10263834,-70.94878792,-60.05337537,-137.91687941,62.17609907,-86.13090568
46.25848242,61.06155223,57.60006132,-147.26215005,1.67108991,14.69893156
1.96517074,-2.72635626,1.08001680,0.21794380

>  <Name>
lig.pdb

>  <RI>
0

>  <Rbt.Current_Directory>
/home/itssahil/PROJECTS/Mol_Feturizer/New_Systems/rnas/5lwj

>  <Rbt.Executable>
rbdock ($Id: //depot/dev/client3/rdock/2013.1/src/exe/rbdock.cxx#4 $)

>  <Rbt.Library>
libRbt.so (2013.1, Build901 2013/11/27)

>  <Rbt.Parameter_File>
/export/apps/rDock/src/rDock_2013.1_src/data/scripts/dock_solv.prm

>  <Rbt.Receptor>
prm/pocket_docking_3.prm

>  <SCORE>
-27.5539

>  <SCORE.INTER>
-24.6361

>  <SCORE.INTER.CONST>
1

>  <SCORE.INTER.POLAR>
-2.46747

>  <SCORE.INTER.ROT>
8

>  <SCORE.INTER.SOLV>
17.6236

>  <SCORE.INTER.VDW>
-23.007

>  <SCORE.INTER.norm>
-0.769877

>  <SCORE.INTRA>
-4.49099

>  <SCORE.INTRA.DIHEDRAL>
0.0843552

>  <SCORE.INTRA.DIHEDRAL.0>
10.9248

>  <SCORE.INTRA.POLAR>
-0.739931

>  <SCORE.INTRA.POLAR.0>
0

>  <SCORE.INTRA.REPUL>
0

>  <SCORE.INTRA.REPUL.0>
0

>  <SCORE.INTRA.SOLV>
2.24556

>  <SCORE.INTRA.SOLV.lig_0>
-51.4104

>  <SCORE.INTRA.VDW>
-3.14018

>  <SCORE.INTRA.VDW.0>
0.110327

>  <SCORE.INTRA.norm>
-0.140343

>  <SCORE.RESTR>
1.57313

>  <SCORE.RESTR.CAVITY>
1.57313

>  <SCORE.RESTR.norm>
0.0491602

>  <SCORE.SYSTEM>
0

>  <SCORE.SYSTEM.CONST>
0

>  <SCORE.SYSTEM.DIHEDRAL>
0

>  <SCORE.SYSTEM.SOLV>
0

>  <SCORE.SYSTEM.norm>
0

>  <SCORE.heavy>
32

>  <SCORE.norm>
-0.861061

>  <RMSD>
8.529

$$$$
lig.pdb
 OpenBabel11021811523D
libRbt.so/2013.1/901 2013/11/27
 32 34  0  0  0  0  0  0  0  0999 V2000
    0.1912   11.3548    5.4322 P   0  0  0  0  0  0  0  0  0  0  0  0
    1.4601   12.1436    5.6460 O   0  0  0  0  0  0  0  0  0  0  0  0
    0.5399    9.9109    6.0851 O   0  0  0  0  0  0  0  0  0  0  0  0
   -1.0522   11.7779    6.1740 O   0  0  0  0  0  0  0  0  0  0  0  0
   -0.1227   11.4728    4.0215 O   0  0  0  0  0  0  0  0  0  0  0  0
   -0.0463   12.8957    3.6152 P   0  0  1  0  0  0  0  0  0  0  0  0
   -0.6929   13.0325    2.2889 O   0  0  0  0  0  0  0  0  0  0  0  0
   -0.7673   13.7426    4.5938 O   0  0  0  0  0  0  0  0  0  0  0  0
    1.3766   13.3125    3.5418 O   0  0  0  0  0  0  0  0  0  0  0  0
    1.8534   14.3612    2.6092 P   0  0  1  0  0  0  0  0  0  0  0  0
    0.7942   15.2355    2.0656 O   0  0  0  0  0  0  0  0  0  0  0  0
    3.0847   15.0649    3.0320 O   0  0  0  0  0  0  0  0  0  0  0  0
    2.2974   13.5070    1.3085 O   0  0  0  0  0  0  0  0  0  0  0  0
    1.3563   12.9351    0.4196 C   0  0  0  0  0  0  0  0  0  0  0  0
    1.7828   13.0575   -1.0499 C   0  0  1  0  0  0  0  0  0  0  0  0
    1.4092   14.3188   -1.5656 O   0  0  0  0  0  0  0  0  0  0  0  0
    3.3078   13.0854   -1.2529 C   0  0  1  0  0  0  0  0  0  0  0  0
    3.9583   11.8291   -1.1597 O   0  0  0  0  0  0  0  0  0  0  0  0
    3.4688   13.7336   -2.6278 C   0  0  1  0  0  0  0  0  0  0  0  0
    3.5037   12.7748   -3.6702 O   0  0  0  0  0  0  0  0  0  0  0  0
    2.1717   14.5325   -2.7401 C   0  0  2  0  0  0  0  0  0  0  0  0
    2.3375   15.9751   -3.0181 N   0  0  0  0  0  0  0  0  0  0  0  0
    2.6310   16.6301   -4.1873 C   0  0  0  0  0  0  0  0  0  0  0  0
    2.8012   17.9194   -4.0477 N   0  0  0  0  0  0  0  0  0  0  0  0
    2.5813   18.1459   -2.6923 C   0  0  0  0  0  0  0  0  0  0  0  0
    2.6620   19.3488   -1.9200 C   0  0  0  0  0  0  0  0  0  0  0  0
    2.9929   20.4685   -2.3046 O   0  0  0  0  0  0  0  0  0  0  0  0
    2.3277   19.1524   -0.5733 N   0  0  0  0  0  0  0  0  0  0  0  0
    1.9259   17.9329   -0.0493 C   0  0  0  0  0  0  0  0  0  0  0  0
    1.5305   17.8969    1.2282 N   0  0  0  0  0  0  0  0  0  0  0  0
    1.8983   16.7978   -0.7668 N   0  0  0  0  0  0  0  0  0  0  0  0
    2.2412   16.9666   -2.0731 C   0  0  0  0  0  0  0  0  0  0  0  0
  1  2  2  0  0  0  0
  1  4  1  0  0  0  0
  1  3  1  0  0  0  0
  5  1  1  0  0  0  0
  6  7  2  6  0  0  0
  6  9  1  0  0  0  0
  6  5  1  0  0  0  0
  6  8  1  0  0  0  0
 10 11  2  6  0  0  0
 10 12  1  0  0  0  0
 10 13  1  0  0  0  0
 10  9  1  0  0  0  0
 13 14  1  0  0  0  0
 15 14  1  1  0  0  0
 15 16  1  0  0  0  0
 17 19  1  0  0  0  0
 17 15  1  0  0  0  0
 17 18  1  6  0  0  0
 19 21  1  0  0  0  0
 19 20  1  6  0  0  0
 21 16  1  0  0  0  0
 21 22  1  1  0  0  0
 22 32  1  0  0  0  0
 23 22  1  0  0  0  0
 23 24  2  0  0  0  0
 24 25  1  0  0  0  0
 25 26  1  0  0  0  0
 26 27  2  0  0  0  0
 26 28  1  0  0  0  0
 29 28  1  0  0  0  0
 29 30  1  0  0  0  0
 31 29  2  0  0  0  0
 32 25  2  0  0  0  0
 32 31  1  0  0  0  0
M  END
>  <CHROM.1>
-48.60499823,150.16715070,-165.89427147,74.31176474,17.72218954,140.06671626
-84.09542352,-59.94580599,-37.73988190,-158.25978542,1.60654629,14.44264257
0.98587895,-2.42563222,1.21659532,-0.13875097

>  <Name>
lig.pdb

>  <RI>
0

>  <Rbt.Current_Directory>
/home/itssahil/PROJECTS/Mol_Feturizer/New_Systems/rnas/5lwj

>  <Rbt.Executable>
rbdock ($Id: //depot/dev/client3/rdock/2013.1/src/exe/rbdock.cxx#4 $)

>  <Rbt.Library>
libRbt.so (2013.1, Build901 2013/11/27)

>  <Rbt.Parameter_File>
/export/apps/rDock/src/rDock_2013.1_src/data/scripts/dock_solv.prm

>  <Rbt.Receptor>
prm/pocket_docking_4.prm

>  <SCORE>
-21.8136

>  <SCORE.INTER>
-22.4113

>  <SCORE.INTER.CONST>
1

>  <SCORE.INTER.POLAR>
-1.36869

>  <SCORE.INTER.ROT>
8

>  <SCORE.INTER.SOLV>
16.085

>  <SCORE.INTER.VDW>
-24.6735

>  <SCORE.INTER.norm>
-0.700352

>  <SCORE.INTRA>
0.312592

>  <SCORE.INTRA.DIHEDRAL>
4.59237

>  <SCORE.INTRA.DIHEDRAL.0>
10.9248

>  <SCORE.INTRA.POLAR>
-1.2088

>  <SCORE.INTRA.POLAR.0>
0

>  <SCORE.INTRA.REPUL>
0.108692

>  <SCORE.INTRA.REPUL.0>
0

>  <SCORE.INTRA.SOLV>
3.73588

>  <SCORE.INTRA.SOLV.lig_0>
-51.4104

>  <SCORE.INTRA.VDW>
-0.285062

>  <SCORE.INTRA.VDW.0>
0.110327

>  <SCORE.INTRA.norm>
0.0097685

>  <SCORE.RESTR>
0.285093

>  <SCORE.RESTR.CAVITY>
0.285093

>  <SCORE.RESTR.norm>
0.00890917

>  <SCORE.SYSTEM>
0

>  <SCORE.SYSTEM.CONST>
0

>  <SCORE.SYSTEM.DIHEDRAL>
0

>  <SCORE.SYSTEM.SOLV>
0

>  <SCORE.SYSTEM.norm>
0

>  <SCORE.heavy>
32

>  <SCORE.norm>
-0.681675

>  <RMSD>
8.534

$$$$
lig.pdb
 OpenBabel11021811523D
libRbt.so/2013.1/901 2013/11/27
 32 34  0  0  0  0  0  0  0  0999 V2000
   -1.3618   12.2888    4.7300 P   0  0  0  0  0  0  0  0  0  0  0  0
   -1.5928   10.8020    4.6120 O   0  0  0  0  0  0  0  0  0  0  0  0
   -2.0948   12.6663    6.1274 O   0  0  0  0  0  0  0  0  0  0  0  0
    0.0484   12.7834    4.9353 O   0  0  0  0  0  0  0  0  0  0  0  0
   -1.8121   12.8663    3.4785 O   0  0  0  0  0  0  0  0  0  0  0  0
   -1.5818   14.3299    3.4979 P   0  0  1  0  0  0  0  0  0  0  0  0
   -2.4154   14.9425    2.4369 O   0  0  0  0  0  0  0  0  0  0  0  0
   -1.9820   14.8894    4.8100 O   0  0  0  0  0  0  0  0  0  0  0  0
   -0.1446   14.6069    3.2505 O   0  0  0  0  0  0  0  0  0  0  0  0
    0.5802   14.0699    2.0744 P   0  0  1  0  0  0  0  0  0  0  0  0
    2.0416   14.2833    2.0963 O   0  0  0  0  0  0  0  0  0  0  0  0
    0.1549   12.7217    1.6367 O   0  0  0  0  0  0  0  0  0  0  0  0
    0.1051   15.0553    0.8819 O   0  0  0  0  0  0  0  0  0  0  0  0
    0.2545   14.7187   -0.4845 C   0  0  0  0  0  0  0  0  0  0  0  0
    0.4570   15.9511   -1.3769 C   0  0  1  0  0  0  0  0  0  0  0  0
    0.8603   17.0592   -0.5986 O   0  0  0  0  0  0  0  0  0  0  0  0
    1.6374   15.8211   -2.3555 C   0  0  1  0  0  0  0  0  0  0  0  0
    1.3947   15.0210   -3.5006 O   0  0  0  0  0  0  0  0  0  0  0  0
    1.9655   17.2719   -2.7071 C   0  0  1  0  0  0  0  0  0  0  0  0
    1.2642   17.7156   -3.8553 O   0  0  0  0  0  0  0  0  0  0  0  0
    1.4221   18.0103   -1.4853 C   0  0  2  0  0  0  0  0  0  0  0  0
    2.3903   18.8860   -0.7911 N   0  0  0  0  0  0  0  0  0  0  0  0
    2.5978   20.2387   -0.8874 C   0  0  0  0  0  0  0  0  0  0  0  0
    3.6170   20.6723   -0.1916 N   0  0  0  0  0  0  0  0  0  0  0  0
    4.1108   19.5315    0.4340 C   0  0  0  0  0  0  0  0  0  0  0  0
    5.2413   19.3517    1.2940 C   0  0  0  0  0  0  0  0  0  0  0  0
    6.0644   20.1965    1.6405 O   0  0  0  0  0  0  0  0  0  0  0  0
    5.3758   18.0314    1.7443 N   0  0  0  0  0  0  0  0  0  0  0  0
    4.4900   17.0139    1.4231 C   0  0  0  0  0  0  0  0  0  0  0  0
    4.6664   15.8206    2.0014 N   0  0  0  0  0  0  0  0  0  0  0  0
    3.4592   17.1765    0.5776 N   0  0  0  0  0  0  0  0  0  0  0  0
    3.3263   18.4490    0.1135 C   0  0  0  0  0  0  0  0  0  0  0  0
  1  2  2  0  0  0  0
  1  4  1  0  0  0  0
  1  3  1  0  0  0  0
  5  1  1  0  0  0  0
  6  7  2  6  0  0  0
  6  9  1  0  0  0  0
  6  5  1  0  0  0  0
  6  8  1  0  0  0  0
 10 11  2  1  0  0  0
 10 12  1  0  0  0  0
 10 13  1  0  0  0  0
 10  9  1  0  0  0  0
 13 14  1  0  0  0  0
 15 14  1  1  0  0  0
 15 16  1  0  0  0  0
 17 19  1  0  0  0  0
 17 15  1  0  0  0  0
 17 18  1  6  0  0  0
 19 21  1  0  0  0  0
 19 20  1  6  0  0  0
 21 16  1  0  0  0  0
 21 22  1  1  0  0  0
 22 32  1  0  0  0  0
 23 22  1  0  0  0  0
 23 24  2  0  0  0  0
 24 25  1  0  0  0  0
 25 26  1  0  0  0  0
 26 27  2  0  0  0  0
 26 28  1  0  0  0  0
 29 28  1  0  0  0  0
 29 30  1  0  0  0  0
 31 29  2  0  0  0  0
 32 25  2  0  0  0  0
 32 31  1  0  0  0  0
M  END
>  <CHROM.1>
-178.37849946,53.63748655,-162.30262994,-162.57095280,-171.46049365,-149.64450824
18.37502838,-179.37869256,-177.24368311,-138.44168786,1.08791876,15.67456006
1.40514900,-2.36638061,-0.70633884,-1.29486710

>  <Name>
lig.pdb

>  <RI>
0

>  <Rbt.Current_Directory>
/home/itssahil/PROJECTS/Mol_Feturizer/New_Systems/rnas/5lwj

>  <Rbt.Executable>
rbdock ($Id: //depot/dev/client3/rdock/2013.1/src/exe/rbdock.cxx#4 $)

>  <Rbt.Library>
libRbt.so (2013.1, Build901 2013/11/27)

>  <Rbt.Parameter_File>
/export/apps/rDock/src/rDock_2013.1_src/data/scripts/dock_solv.prm

>  <Rbt.Receptor>
prm/pocket_docking_3.prm

>  <SCORE>
-25.3185

>  <SCORE.INTER>
-21.2279

>  <SCORE.INTER.CONST>
1

>  <SCORE.INTER.POLAR>
-3.30719

>  <SCORE.INTER.ROT>
8

>  <SCORE.INTER.SOLV>
13.1662

>  <SCORE.INTER.VDW>
-16.45

>  <SCORE.INTER.norm>
-0.663371

>  <SCORE.INTRA>
-4.77443

>  <SCORE.INTRA.DIHEDRAL>
1.10886

>  <SCORE.INTRA.DIHEDRAL.0>
10.9248

>  <SCORE.INTRA.POLAR>
-1

>  <SCORE.INTRA.POLAR.0>
0

>  <SCORE.INTRA.REPUL>
0.00639709

>  <SCORE.INTRA.REPUL.0>
0

>  <SCORE.INTRA.SOLV>
1.45102

>  <SCORE.INTRA.SOLV.lig_0>
-51.4104

>  <SCORE.INTRA.VDW>
-2.68636

>  <SCORE.INTRA.VDW.0>
0.110327

>  <SCORE.INTRA.norm>
-0.149201

>  <SCORE.RESTR>
0.683796

>  <SCORE.RESTR.CAVITY>
0.683796

>  <SCORE.RESTR.norm>
0.0213686

>  <SCORE.SYSTEM>
0

>  <SCORE.SYSTEM.CONST>
0

>  <SCORE.SYSTEM.DIHEDRAL>
0

>  <SCORE.SYSTEM.SOLV>
0

>  <SCORE.SYSTEM.norm>
0

>  <SCORE.heavy>
32

>  <SCORE.norm>
-0.791203

>  <RMSD>
8.538

$$$$
lig.pdb
 OpenBabel11021811523D
libRbt.so/2013.1/901 2013/11/27
 32 34  0  0  0  0  0  0  0  0999 V2000
   -0.1104   12.3422    4.0679 P   0  0  0  0  0  0  0  0  0  0  0  0
   -1.1351   11.3247    4.5071 O   0  0  0  0  0  0  0  0  0  0  0  0
    1.2607   11.8015    4.7465 O   0  0  0  0  0  0  0  0  0  0  0  0
    0.2386   12.4250    2.6029 O   0  0  0  0  0  0  0  0  0  0  0  0
   -0.6522   13.6387    4.4261 O   0  0  0  0  0  0  0  0  0  0  0  0
   -1.9576   13.8324    3.7522 P   0  0  1  0  0  0  0  0  0  0  0  0
   -2.9265   12.8772    4.3393 O   0  0  0  0  0  0  0  0  0  0  0  0
   -2.4446   15.2135    3.9761 O   0  0  0  0  0  0  0  0  0  0  0  0
   -1.8037   13.5834    2.2968 O   0  0  0  0  0  0  0  0  0  0  0  0
   -2.7990   14.0432    1.2994 P   0  0  1  0  0  0  0  0  0  0  0  0
   -3.9859   13.1746    1.1622 O   0  0  0  0  0  0  0  0  0  0  0  0
   -3.0897   15.4940    1.3252 O   0  0  0  0  0  0  0  0  0  0  0  0
   -2.0324   13.8051   -0.1057 O   0  0  0  0  0  0  0  0  0  0  0  0
   -2.2671   14.6130   -1.2436 C   0  0  0  0  0  0  0  0  0  0  0  0
   -1.1363   14.5187   -2.2774 C   0  0  1  0  0  0  0  0  0  0  0  0
   -0.1607   15.5101   -2.0289 O   0  0  0  0  0  0  0  0  0  0  0  0
   -0.2986   13.2328   -2.1649 C   0  0  1  0  0  0  0  0  0  0  0  0
   -0.8984   12.0657   -2.7017 O   0  0  0  0  0  0  0  0  0  0  0  0
    1.0088   13.6011   -2.8658 C   0  0  1  0  0  0  0  0  0  0  0  0
    0.9849   13.2797   -4.2454 O   0  0  0  0  0  0  0  0  0  0  0  0
    1.0148   15.1214   -2.7170 C   0  0  2  0  0  0  0  0  0  0  0  0
    2.2224   15.6916   -2.0824 N   0  0  0  0  0  0  0  0  0  0  0  0
    2.6515   16.9914   -1.9891 C   0  0  0  0  0  0  0  0  0  0  0  0
    3.8294   17.1253   -1.4363 N   0  0  0  0  0  0  0  0  0  0  0  0
    4.2033   15.8240   -1.1148 C   0  0  0  0  0  0  0  0  0  0  0  0
    5.4052   15.3145   -0.5267 C   0  0  0  0  0  0  0  0  0  0  0  0
    6.4111   15.9444   -0.2062 O   0  0  0  0  0  0  0  0  0  0  0  0
    5.3702   13.9265   -0.3367 N   0  0  0  0  0  0  0  0  0  0  0  0
    4.2765   13.1335   -0.6497 C   0  0  0  0  0  0  0  0  0  0  0  0
    4.3253   11.8373   -0.3227 N   0  0  0  0  0  0  0  0  0  0  0  0
    3.1706   13.6086   -1.2456 N   0  0  0  0  0  0  0  0  0  0  0  0
    3.1963   14.9529   -1.4572 C   0  0  0  0  0  0  0  0  0  0  0  0
  1  2  2  0  0  0  0
  1  4  1  0  0  0  0
  1  3  1  0  0  0  0
  5  1  1  0  0  0  0
  6  7  2  1  0  0  0
  6  9  1  0  0  0  0
  6  5  1  0  0  0  0
  6  8  1  0  0  0  0
 10 11  2  1  0  0  0
 10 12  1  0  0  0  0
 10 13  1  0  0  0  0
 10  9  1  0  0  0  0
 13 14  1  0  0  0  0
 15 14  1  1  0  0  0
 15 16  1  0  0  0  0
 17 19  1  0  0  0  0
 17 15  1  0  0  0  0
 17 18  1  6  0  0  0
 19 21  1  0  0  0  0
 19 20  1  6  0  0  0
 21 16  1  0  0  0  0
 21 22  1  1  0  0  0
 22 32  1  0  0  0  0
 23 22  1  0  0  0  0
 23 24  2  0  0  0  0
 24 25  1  0  0  0  0
 25 26  1  0  0  0  0
 26 27  2  0  0  0  0
 26 28  1  0  0  0  0
 29 28  1  0  0  0  0
 29 30  1  0  0  0  0
 31 29  2  0  0  0  0
 32 25  2  0  0  0  0
 32 31  1  0  0  0  0
M  END
>  <CHROM.1>
-58.73279473,-162.76448923,67.82154100,-149.73697370,-81.02204013,160.95769416
-90.74782704,-91.76828411,-179.96413466,-67.60516567,0.34956449,13.93338972
0.58192019,-2.38017588,-0.03668529,-1.31136440

>  <Name>
lig.pdb

>  <RI>
0

>  <Rbt.Current_Directory>
/home/itssahil/PROJECTS/Mol_Feturizer/New_Systems/rnas/5lwj

>  <Rbt.Executable>
rbdock ($Id: //depot/dev/client3/rdock/2013.1/src/exe/rbdock.cxx#4 $)

>  <Rbt.Library>
libRbt.so (2013.1, Build901 2013/11/27)

>  <Rbt.Parameter_File>
/export/apps/rDock/src/rDock_2013.1_src/data/scripts/dock_solv.prm

>  <Rbt.Receptor>
prm/pocket_docking_6.prm

>  <SCORE>
-23.0599

>  <SCORE.INTER>
-25.3634

>  <SCORE.INTER.CONST>
1

>  <SCORE.INTER.POLAR>
-2.88354

>  <SCORE.INTER.ROT>
8

>  <SCORE.INTER.SOLV>
18.4894

>  <SCORE.INTER.VDW>
-22.3936

>  <SCORE.INTER.norm>
-0.792606

>  <SCORE.INTRA>
2.30346

>  <SCORE.INTRA.DIHEDRAL>
2.12738

>  <SCORE.INTRA.DIHEDRAL.0>
10.9248

>  <SCORE.INTRA.POLAR>
0

>  <SCORE.INTRA.POLAR.0>
0

>  <SCORE.INTRA.REPUL>
0.00966142

>  <SCORE.INTRA.REPUL.0>
0

>  <SCORE.INTRA.SOLV>
0.31422

>  <SCORE.INTRA.SOLV.lig_0>
-51.4104

>  <SCORE.INTRA.VDW>
1.03435

>  <SCORE.INTRA.VDW.0>
0.110327

>  <SCORE.INTRA.norm>
0.0719831

>  <SCORE.RESTR>
0

>  <SCORE.RESTR.CAVITY>
0

>  <SCORE.RESTR.norm>
0

>  <SCORE.SYSTEM>
0

>  <SCORE.SYSTEM.CONST>
0

>  <SCORE.SYSTEM.DIHEDRAL>
0

>  <SCORE.SYSTEM.SOLV>
0

>  <SCORE.SYSTEM.norm>
0

>  <SCORE.heavy>
32

>  <SCORE.norm>
-0.720623

>  <RMSD>
8.538

$$$$
lig.pdb
 OpenBabel11021811523D
libRbt.so/2013.1/901 2013/11/27
 32 34  0  0  0  0  0  0  0  0999 V2000
    0.6376   11.5157    5.3669 P   0  0  0  0  0  0  0  0  0  0  0  0
    1.8834   11.9611    6.0933 O   0  0  0  0  0  0  0  0  0  0  0  0
    1.1694   11.2364    3.8597 O   0  0  0  0  0  0  0  0  0  0  0  0
    0.0069   10.2030    5.7594 O   0  0  0  0  0  0  0  0  0  0  0  0
   -0.3624   12.5344    5.6220 O   0  0  0  0  0  0  0  0  0  0  0  0
   -1.0565   12.8736    4.3576 P   0  0  1  0  0  0  0  0  0  0  0  0
   -0.0520   13.4098    3.4091 O   0  0  0  0  0  0  0  0  0  0  0  0
   -1.6715   11.6586    3.7742 O   0  0  0  0  0  0  0  0  0  0  0  0
   -2.1059   13.8883    4.6273 O   0  0  0  0  0  0  0  0  0  0  0  0
   -2.9202   14.4992    3.5499 P   0  0  1  0  0  0  0  0  0  0  0  0
   -2.5802   14.0491    2.1848 O   0  0  0  0  0  0  0  0  0  0  0  0
   -4.3701   14.5882    3.8324 O   0  0  0  0  0  0  0  0  0  0  0  0
   -2.4101   16.0349    3.5443 O   0  0  0  0  0  0  0  0  0  0  0  0
   -1.0388   16.3781    3.4785 C   0  0  0  0  0  0  0  0  0  0  0  0
   -0.6905   17.1770    2.2149 C   0  0  1  0  0  0  0  0  0  0  0  0
    0.4720   17.9510    2.4290 O   0  0  0  0  0  0  0  0  0  0  0  0
   -0.2577   16.3006    1.0265 C   0  0  1  0  0  0  0  0  0  0  0  0
   -1.3098   15.6487    0.3348 O   0  0  0  0  0  0  0  0  0  0  0  0
    0.5216   17.2703    0.1384 C   0  0  1  0  0  0  0  0  0  0  0  0
   -0.3069   17.8963   -0.8253 O   0  0  0  0  0  0  0  0  0  0  0  0
    0.9696   18.3189    1.1548 C   0  0  2  0  0  0  0  0  0  0  0  0
    2.4247   18.5770    1.2001 N   0  0  0  0  0  0  0  0  0  0  0  0
    3.1257   19.7520    1.0988 C   0  0  0  0  0  0  0  0  0  0  0  0
    4.4244   19.5981    1.0828 N   0  0  0  0  0  0  0  0  0  0  0  0
    4.6049   18.2238    1.2072 C   0  0  0  0  0  0  0  0  0  0  0  0
    5.7990   17.4340    1.2117 C   0  0  0  0  0  0  0  0  0  0  0  0
    6.9565   17.8202    1.0623 O   0  0  0  0  0  0  0  0  0  0  0  0
    5.5454   16.0681    1.3959 N   0  0  0  0  0  0  0  0  0  0  0  0
    4.2783   15.5392    1.5901 C   0  0  0  0  0  0  0  0  0  0  0  0
    4.1767   14.2332    1.8613 N   0  0  0  0  0  0  0  0  0  0  0  0
    3.1576   16.2775    1.5368 N   0  0  0  0  0  0  0  0  0  0  0  0
    3.3843   17.6046    1.3370 C   0  0  0  0  0  0  0  0  0  0  0  0
  1  2  2  0  0  0  0
  1  4  1  0  0  0  0
  1  3  1  0  0  0  0
  5  1  1  0  0  0  0
  6  7  2  6  0  0  0
  6  9  1  0  0  0  0
  6  5  1  0  0  0  0
  6  8  1  0  0  0  0
 10 11  2  6  0  0  0
 10 12  1  0  0  0  0
 10 13  1  0  0  0  0
 10  9  1  0  0  0  0
 13 14  1  0  0  0  0
 15 14  1  1  0  0  0
 15 16  1  0  0  0  0
 17 19  1  0  0  0  0
 17 15  1  0  0  0  0
 17 18  1  6  0  0  0
 19 21  1  0  0  0  0
 19 20  1  6  0  0  0
 21 16  1  0  0  0  0
 21 22  1  1  0  0  0
 22 32  1  0  0  0  0
 23 22  1  0  0  0  0
 23 24  2  0  0  0  0
 24 25  1  0  0  0  0
 25 26  1  0  0  0  0
 26 27  2  0  0  0  0
 26 28  1  0  0  0  0
 29 28  1  0  0  0  0
 29 30  1  0  0  0  0
 31 29  2  0  0  0  0
 32 25  2  0  0  0  0
 32 31  1  0  0  0  0
M  END
>  <CHROM.1>
134.71372451,175.99356784,-61.32607236,51.14035679,-1.67384101,117.70456653
155.79428006,-63.38153683,63.41626132,-109.13721763,0.69387697,15.14596872
2.76193962,-2.25196433,0.02596304,-0.56720708

>  <Name>
lig.pdb

>  <RI>
0

>  <Rbt.Current_Directory>
/home/itssahil/PROJECTS/Mol_Feturizer/New_Systems/rnas/5lwj

>  <Rbt.Executable>
rbdock ($Id: //depot/dev/client3/rdock/2013.1/src/exe/rbdock.cxx#4 $)

>  <Rbt.Library>
libRbt.so (2013.1, Build901 2013/11/27)

>  <Rbt.Parameter_File>
/export/apps/rDock/src/rDock_2013.1_src/data/scripts/dock_solv.prm

>  <Rbt.Receptor>
prm/pocket_docking_6.prm

>  <SCORE>
-32.2331

>  <SCORE.INTER>
-28.5616

>  <SCORE.INTER.CONST>
1

>  <SCORE.INTER.POLAR>
-2.48535

>  <SCORE.INTER.ROT>
8

>  <SCORE.INTER.SOLV>
17.3519

>  <SCORE.INTER.VDW>
-25.4738

>  <SCORE.INTER.norm>
-0.892549

>  <SCORE.INTRA>
-3.67148

>  <SCORE.INTRA.DIHEDRAL>
5.07988

>  <SCORE.INTRA.DIHEDRAL.0>
10.9248

>  <SCORE.INTRA.POLAR>
-1

>  <SCORE.INTRA.POLAR.0>
0

>  <SCORE.INTRA.REPUL>
0

>  <SCORE.INTRA.REPUL.0>
0

>  <SCORE.INTRA.SOLV>
2.02887

>  <SCORE.INTRA.SOLV.lig_0>
-51.4104

>  <SCORE.INTRA.VDW>
-3.82585

>  <SCORE.INTRA.VDW.0>
0.110327

>  <SCORE.INTRA.norm>
-0.114734

>  <SCORE.RESTR>
0

>  <SCORE.RESTR.CAVITY>
0

>  <SCORE.RESTR.norm>
0

>  <SCORE.SYSTEM>
0

>  <SCORE.SYSTEM.CONST>
0

>  <SCORE.SYSTEM.DIHEDRAL>
0

>  <SCORE.SYSTEM.SOLV>
0

>  <SCORE.SYSTEM.norm>
0

>  <SCORE.heavy>
32

>  <SCORE.norm>
-1.00728

>  <RMSD>
8.540

$$$$
lig.pdb
 OpenBabel11021811523D
libRbt.so/2013.1/901 2013/11/27
 32 34  0  0  0  0  0  0  0  0999 V2000
    0.6348   11.3141    6.0834 P   0  0  0  0  0  0  0  0  0  0  0  0
    1.6071   11.9908    7.0186 O   0  0  0  0  0  0  0  0  0  0  0  0
    1.1814   11.7354    4.6149 O   0  0  0  0  0  0  0  0  0  0  0  0
    0.6213    9.8068    6.0274 O   0  0  0  0  0  0  0  0  0  0  0  0
   -0.6886   11.7119    6.5227 O   0  0  0  0  0  0  0  0  0  0  0  0
   -1.4699   12.1978    5.3612 P   0  0  1  0  0  0  0  0  0  0  0  0
   -1.6163   11.0777    4.4021 O   0  0  0  0  0  0  0  0  0  0  0  0
   -2.8149   12.6357    5.8014 O   0  0  0  0  0  0  0  0  0  0  0  0
   -0.7549   13.3327    4.7251 O   0  0  0  0  0  0  0  0  0  0  0  0
   -1.2526   14.0029    3.5003 P   0  0  1  0  0  0  0  0  0  0  0  0
   -1.4632   13.1067    2.3452 O   0  0  0  0  0  0  0  0  0  0  0  0
   -2.3270   14.9965    3.7208 O   0  0  0  0  0  0  0  0  0  0  0  0
    0.0237   14.8792    3.0294 O   0  0  0  0  0  0  0  0  0  0  0  0
    0.0448   15.5914    1.8067 C   0  0  0  0  0  0  0  0  0  0  0  0
    1.4700   15.8428    1.2948 C   0  0  1  0  0  0  0  0  0  0  0  0
    2.1512   14.6175    1.1192 O   0  0  0  0  0  0  0  0  0  0  0  0
    1.5241   16.4275   -0.1275 C   0  0  1  0  0  0  0  0  0  0  0  0
    1.2342   17.8116   -0.2291 O   0  0  0  0  0  0  0  0  0  0  0  0
    2.9377   16.0838   -0.5965 C   0  0  1  0  0  0  0  0  0  0  0  0
    3.8636   17.1157   -0.3045 O   0  0  0  0  0  0  0  0  0  0  0  0
    3.2613   14.8734    0.2774 C   0  0  2  0  0  0  0  0  0  0  0  0
    3.6737   13.6560   -0.4532 N   0  0  0  0  0  0  0  0  0  0  0  0
    4.8889   13.0222   -0.5159 C   0  0  0  0  0  0  0  0  0  0  0  0
    4.9212   12.0129   -1.3472 N   0  0  0  0  0  0  0  0  0  0  0  0
    3.6282   11.9526   -1.8583 C   0  0  0  0  0  0  0  0  0  0  0  0
    3.0509   11.0874   -2.8422 C   0  0  0  0  0  0  0  0  0  0  0  0
    3.6123   10.2081   -3.4925 O   0  0  0  0  0  0  0  0  0  0  0  0
    1.6879   11.3371   -3.0515 N   0  0  0  0  0  0  0  0  0  0  0  0
    0.9644   12.2938   -2.3557 C   0  0  0  0  0  0  0  0  0  0  0  0
   -0.3543   12.3639   -2.5700 N   0  0  0  0  0  0  0  0  0  0  0  0
    1.5208   13.1351   -1.4689 N   0  0  0  0  0  0  0  0  0  0  0  0
    2.8499   12.9205   -1.2691 C   0  0  0  0  0  0  0  0  0  0  0  0
  1  2  2  0  0  0  0
  1  4  1  0  0  0  0
  1  3  1  0  0  0  0
  5  1  1  0  0  0  0
  6  7  2  6  0  0  0
  6  9  1  0  0  0  0
  6  5  1  0  0  0  0
  6  8  1  0  0  0  0
 10 11  2  6  0  0  0
 10 12  1  0  0  0  0
 10 13  1  0  0  0  0
 10  9  1  0  0  0  0
 13 14  1  0  0  0  0
 15 14  1  6  0  0  0
 15 16  1  0  0  0  0
 17 19  1  0  0  0  0
 17 15  1  0  0  0  0
 17 18  1  1  0  0  0
 19 21  1  0  0  0  0
 19 20  1  1  0  0  0
 21 16  1  0  0  0  0
 21 22  1  6  0  0  0
 22 32  1  0  0  0  0
 23 22  1  0  0  0  0
 23 24  2  0  0  0  0
 24 25  1  0  0  0  0
 25 26  1  0  0  0  0
 26 27  2  0  0  0  0
 26 28  1  0  0  0  0
 29 28  1  0  0  0  0
 29 30  1  0  0  0  0
 31 29  2  0  0  0  0
 32 25  2  0  0  0  0
 32 31  1  0  0  0  0
M  END
>  <CHROM.1>
130.30457092,177.35510852,62.23668884,173.53033075,-56.41448324,-155.98982574
58.27808175,-62.72201500,-176.17156706,-124.55300307,0.93304823,13.21323224
1.89367516,-2.69134457,1.05172022,-0.34673806

>  <Name>
lig.pdb

>  <RI>
2.0892e+07

>  <Rbt.Current_Directory>
/home/itssahil/PROJECTS/Mol_Feturizer/New_Systems/rnas/5lwj

>  <Rbt.Executable>
rbdock ($Id: //depot/dev/client3/rdock/2013.1/src/exe/rbdock.cxx#4 $)

>  <Rbt.Library>
libRbt.so (2013.1, Build901 2013/11/27)

>  <Rbt.Parameter_File>
/export/apps/rDock/src/rDock_2013.1_src/data/scripts/dock_solv.prm

>  <Rbt.Receptor>
prm/pocket_docking_8.prm

>  <SCORE>
-37.6915

>  <SCORE.INTER>
-32.5051

>  <SCORE.INTER.CONST>
1

>  <SCORE.INTER.POLAR>
-2.95925

>  <SCORE.INTER.ROT>
8

>  <SCORE.INTER.SOLV>
21.8985

>  <SCORE.INTER.VDW>
-28.0388

>  <SCORE.INTER.norm>
-1.01579

>  <SCORE.INTRA>
-5.18678

>  <SCORE.INTRA.DIHEDRAL>
-3.07381

>  <SCORE.INTRA.DIHEDRAL.0>
10.9248

>  <SCORE.INTRA.POLAR>
0

>  <SCORE.INTRA.POLAR.0>
0

>  <SCORE.INTRA.REPUL>
0

>  <SCORE.INTRA.REPUL.0>
0

>  <SCORE.INTRA.SOLV>
0.119415

>  <SCORE.INTRA.SOLV.lig_0>
-51.4104

>  <SCORE.INTRA.VDW>
-3.70959

>  <SCORE.INTRA.VDW.0>
0.110327

>  <SCORE.INTRA.norm>
-0.162087

>  <SCORE.RESTR>
0.000475724

>  <SCORE.RESTR.CAVITY>
0.000475724

>  <SCORE.RESTR.norm>
1.48664e-05

>  <SCORE.SYSTEM>
0

>  <SCORE.SYSTEM.CONST>
0

>  <SCORE.SYSTEM.DIHEDRAL>
0

>  <SCORE.SYSTEM.SOLV>
0

>  <SCORE.SYSTEM.norm>
0

>  <SCORE.heavy>
32

>  <SCORE.norm>
-1.17786

>  <RMSD>
8.555

$$$$
lig.pdb
 OpenBabel11021811523D
libRbt.so/2013.1/901 2013/11/27
 32 34  0  0  0  0  0  0  0  0999 V2000
    0.8841   11.5162    5.5018 P   0  0  0  0  0  0  0  0  0  0  0  0
    1.8981   10.6073    4.8509 O   0  0  0  0  0  0  0  0  0  0  0  0
   -0.5176   10.7335    5.2665 O   0  0  0  0  0  0  0  0  0  0  0  0
    0.9335   11.6933    6.9989 O   0  0  0  0  0  0  0  0  0  0  0  0
    1.1011   12.8326    4.9339 O   0  0  0  0  0  0  0  0  0  0  0  0
    0.3364   12.9586    3.6710 P   0  0  1  0  0  0  0  0  0  0  0  0
    0.6317   11.7731    2.8324 O   0  0  0  0  0  0  0  0  0  0  0  0
   -1.1163   12.9970    3.9588 O   0  0  0  0  0  0  0  0  0  0  0  0
    0.7430   14.2021    2.9695 O   0  0  0  0  0  0  0  0  0  0  0  0
   -0.0874   14.8307    1.9149 P   0  0  1  0  0  0  0  0  0  0  0  0
   -1.5411   14.6115    2.0575 O   0  0  0  0  0  0  0  0  0  0  0  0
    0.3006   16.2114    1.5499 O   0  0  0  0  0  0  0  0  0  0  0  0
    0.2684   13.9471    0.6066 O   0  0  0  0  0  0  0  0  0  0  0  0
    0.7699   14.5240   -0.5843 C   0  0  0  0  0  0  0  0  0  0  0  0
    2.2657   14.8568   -0.4942 C   0  0  1  0  0  0  0  0  0  0  0  0
    2.4466   16.2287   -0.2090 O   0  0  0  0  0  0  0  0  0  0  0  0
    2.9760   14.2010    0.7030 C   0  0  1  0  0  0  0  0  0  0  0  0
    3.2824   12.8251    0.5511 O   0  0  0  0  0  0  0  0  0  0  0  0
    4.2217   15.0665    0.8912 C   0  0  1  0  0  0  0  0  0  0  0  0
    5.3311   14.5728    0.1615 O   0  0  0  0  0  0  0  0  0  0  0  0
    3.7718   16.3856    0.2660 C   0  0  2  0  0  0  0  0  0  0  0  0
    3.8933   17.5742    1.1370 N   0  0  0  0  0  0  0  0  0  0  0  0
    2.9396   18.2657    1.8403 C   0  0  0  0  0  0  0  0  0  0  0  0
    3.3904   19.3401    2.4348 N   0  0  0  0  0  0  0  0  0  0  0  0
    4.7475   19.3540    2.1271 C   0  0  0  0  0  0  0  0  0  0  0  0
    5.7710   20.3003    2.4544 C   0  0  0  0  0  0  0  0  0  0  0  0
    5.6482   21.3585    3.0679 O   0  0  0  0  0  0  0  0  0  0  0  0
    7.0325   19.9225    1.9751 N   0  0  0  0  0  0  0  0  0  0  0  0
    7.2740   18.7419    1.2890 C   0  0  0  0  0  0  0  0  0  0  0  0
    8.5402   18.4437    0.9767 N   0  0  0  0  0  0  0  0  0  0  0  0
    6.3029   17.8812    0.9425 N   0  0  0  0  0  0  0  0  0  0  0  0
    5.0667   18.2437    1.3819 C   0  0  0  0  0  0  0  0  0  0  0  0
  1  2  2  0  0  0  0
  1  4  1  0  0  0  0
  1  3  1  0  0  0  0
  5  1  1  0  0  0  0
  6  7  2  6  0  0  0
  6  9  1  0  0  0  0
  6  5  1  0  0  0  0
  6  8  1  0  0  0  0
 10 11  2  1  0  0  0
 10 12  1  0  0  0  0
 10 13  1  0  0  0  0
 10  9  1  0  0  0  0
 13 14  1  0  0  0  0
 15 14  1  1  0  0  0
 15 16  1  0  0  0  0
 17 19  1  0  0  0  0
 17 15  1  0  0  0  0
 17 18  1  6  0  0  0
 19 21  1  0  0  0  0
 19 20  1  6  0  0  0
 21 16  1  0  0  0  0
 21 22  1  1  0  0  0
 22 32  1  0  0  0  0
 23 22  1  0  0  0  0
 23 24  2  0  0  0  0
 24 25  1  0  0  0  0
 25 26  1  0  0  0  0
 26 27  2  0  0  0  0
 26 28  1  0  0  0  0
 29 28  1  0  0  0  0
 29 30  1  0  0  0  0
 31 29  2  0  0  0  0
 32 25  2  0  0  0  0
 32 31  1  0  0  0  0
M  END
>  <CHROM.1>
86.06181619,-161.23566062,-49.74979864,-123.53528781,29.58467062,78.34790689
-99.16695697,64.97489897,-65.32541681,21.45620934,2.47633659,15.15907346
2.32392553,-2.48926649,-0.69109970,-1.08051645

>  <Name>
lig.pdb

>  <RI>
3.03081e+07

>  <Rbt.Current_Directory>
/home/itssahil/PROJECTS/Mol_Feturizer/New_Systems/rnas/5lwj

>  <Rbt.Executable>
rbdock ($Id: //depot/dev/client3/rdock/2013.1/src/exe/rbdock.cxx#4 $)

>  <Rbt.Library>
libRbt.so (2013.1, Build901 2013/11/27)

>  <Rbt.Parameter_File>
/export/apps/rDock/src/rDock_2013.1_src/data/scripts/dock_solv.prm

>  <Rbt.Receptor>
prm/pocket_docking_2.prm

>  <SCORE>
-27.8925

>  <SCORE.INTER>
-28.9134

>  <SCORE.INTER.CONST>
1

>  <SCORE.INTER.POLAR>
-3.26307

>  <SCORE.INTER.ROT>
8

>  <SCORE.INTER.SOLV>
19.096

>  <SCORE.INTER.VDW>
-23.6974

>  <SCORE.INTER.norm>
-0.903545

>  <SCORE.INTRA>
-0.84003

>  <SCORE.INTRA.DIHEDRAL>
2.20101

>  <SCORE.INTRA.DIHEDRAL.0>
10.9248

>  <SCORE.INTRA.POLAR>
0

>  <SCORE.INTRA.POLAR.0>
0

>  <SCORE.INTRA.REPUL>
0

>  <SCORE.INTRA.REPUL.0>
0

>  <SCORE.INTRA.SOLV>
1.88619

>  <SCORE.INTRA.SOLV.lig_0>
-51.4104

>  <SCORE.INTRA.VDW>
-2.88363

>  <SCORE.INTRA.VDW.0>
0.110327

>  <SCORE.INTRA.norm>
-0.0262509

>  <SCORE.RESTR>
1.86098

>  <SCORE.RESTR.CAVITY>
1.86098

>  <SCORE.RESTR.norm>
0.0581555

>  <SCORE.SYSTEM>
0

>  <SCORE.SYSTEM.CONST>
0

>  <SCORE.SYSTEM.DIHEDRAL>
0

>  <SCORE.SYSTEM.SOLV>
0

>  <SCORE.SYSTEM.norm>
0

>  <SCORE.heavy>
32

>  <SCORE.norm>
-0.87164

>  <RMSD>
8.574

$$$$
lig.pdb
 OpenBabel11021811523D
libRbt.so/2013.1/901 2013/11/27
 32 34  0  0  0  0  0  0  0  0999 V2000
    1.4629   10.9941    5.8641 P   0  0  0  0  0  0  0  0  0  0  0  0
    1.2072   11.7749    7.1302 O   0  0  0  0  0  0  0  0  0  0  0  0
    2.2167   12.0706    4.9126 O   0  0  0  0  0  0  0  0  0  0  0  0
    2.4322    9.8395    5.9145 O   0  0  0  0  0  0  0  0  0  0  0  0
    0.1851   10.4295    5.4750 O   0  0  0  0  0  0  0  0  0  0  0  0
   -0.7905   11.5220    5.2507 P   0  0  1  0  0  0  0  0  0  0  0  0
   -1.9504   10.9619    4.5180 O   0  0  0  0  0  0  0  0  0  0  0  0
   -1.2548   12.0627    6.5495 O   0  0  0  0  0  0  0  0  0  0  0  0
   -0.1499   12.6008    4.4573 O   0  0  0  0  0  0  0  0  0  0  0  0
   -0.9311   13.6551    3.7679 P   0  0  1  0  0  0  0  0  0  0  0  0
   -1.3202   13.3311    2.3803 O   0  0  0  0  0  0  0  0  0  0  0  0
   -1.9963   14.2812    4.5826 O   0  0  0  0  0  0  0  0  0  0  0  0
    0.1630   14.8282    3.5549 O   0  0  0  0  0  0  0  0  0  0  0  0
    0.5321   15.2967    2.2716 C   0  0  0  0  0  0  0  0  0  0  0  0
    1.3730   14.2772    1.4907 C   0  0  1  0  0  0  0  0  0  0  0  0
    0.5919   13.6647    0.4853 O   0  0  0  0  0  0  0  0  0  0  0  0
    2.4997   14.9115    0.6564 C   0  0  1  0  0  0  0  0  0  0  0  0
    3.6472   15.3121    1.3863 O   0  0  0  0  0  0  0  0  0  0  0  0
    2.8088   13.8414   -0.3902 C   0  0  1  0  0  0  0  0  0  0  0  0
    3.8318   12.9581    0.0342 O   0  0  0  0  0  0  0  0  0  0  0  0
    1.4885   13.0747   -0.4391 C   0  0  2  0  0  0  0  0  0  0  0  0
    0.8756   12.9522   -1.7790 N   0  0  0  0  0  0  0  0  0  0  0  0
    0.0966   13.8320   -2.4872 C   0  0  0  0  0  0  0  0  0  0  0  0
   -0.3598   13.3513   -3.6147 N   0  0  0  0  0  0  0  0  0  0  0  0
    0.1723   12.0669   -3.6762 C   0  0  0  0  0  0  0  0  0  0  0  0
    0.0028   11.0299   -4.6488 C   0  0  0  0  0  0  0  0  0  0  0  0
   -0.7077   11.0487   -5.6519 O   0  0  0  0  0  0  0  0  0  0  0  0
    0.7493    9.8814   -4.3530 N   0  0  0  0  0  0  0  0  0  0  0  0
    1.5913    9.7711   -3.2568 C   0  0  0  0  0  0  0  0  0  0  0  0
    2.3319    8.6630   -3.1415 N   0  0  0  0  0  0  0  0  0  0  0  0
    1.7098   10.7279   -2.3217 N   0  0  0  0  0  0  0  0  0  0  0  0
    0.9744   11.8431   -2.5823 C   0  0  0  0  0  0  0  0  0  0  0  0
  1  2  2  0  0  0  0
  1  4  1  0  0  0  0
  1  3  1  0  0  0  0
  5  1  1  0  0  0  0
  6  7  2  6  0  0  0
  6  9  1  0  0  0  0
  6  5  1  0  0  0  0
  6  8  1  0  0  0  0
 10 11  2  6  0  0  0
 10 12  1  0  0  0  0
 10 13  1  0  0  0  0
 10  9  1  0  0  0  0
 13 14  1  0  0  0  0
 15 14  1  6  0  0  0
 15 16  1  0  0  0  0
 17 19  1  0  0  0  0
 17 15  1  0  0  0  0
 17 18  1  1  0  0  0
 19 21  1  0  0  0  0
 19 20  1  1  0  0  0
 21 16  1  0  0  0  0
 21 22  1  6  0  0  0
 22 32  1  0  0  0  0
 23 22  1  0  0  0  0
 23 24  2  0  0  0  0
 24 25  1  0  0  0  0
 25 26  1  0  0  0  0
 26 27  2  0  0  0  0
 26 28  1  0  0  0  0
 29 28  1  0  0  0  0
 29 30  1  0  0  0  0
 31 29  2  0  0  0  0
 32 25  2  0  0  0  0
 32 31  1  0  0  0  0
M  END
>  <CHROM.1>
59.59012537,163.67683619,165.07852622,119.18354400,-90.24556546,-71.29254162
105.01164835,-55.76848745,-171.42977527,42.02588315,0.65123103,12.36199898
1.57215882,-2.90087047,1.48094062,-0.29522493

>  <Name>
lig.pdb

>  <RI>
2.92062e+07

>  <Rbt.Current_Directory>
/home/itssahil/PROJECTS/Mol_Feturizer/New_Systems/rnas/5lwj

>  <Rbt.Executable>
rbdock ($Id: //depot/dev/client3/rdock/2013.1/src/exe/rbdock.cxx#4 $)

>  <Rbt.Library>
libRbt.so (2013.1, Build901 2013/11/27)

>  <Rbt.Parameter_File>
/export/apps/rDock/src/rDock_2013.1_src/data/scripts/dock_solv.prm

>  <Rbt.Receptor>
prm/pocket_docking_7.prm

>  <SCORE>
-41.3135

>  <SCORE.INTER>
-40.6658

>  <SCORE.INTER.CONST>
1

>  <SCORE.INTER.POLAR>
-3.32451

>  <SCORE.INTER.ROT>
8

>  <SCORE.INTER.SOLV>
25.8236

>  <SCORE.INTER.VDW>
-33.57

>  <SCORE.INTER.norm>
-1.27081

>  <SCORE.INTRA>
-0.699572

>  <SCORE.INTRA.DIHEDRAL>
1.03235

>  <SCORE.INTRA.DIHEDRAL.0>
10.9248

>  <SCORE.INTRA.POLAR>
0

>  <SCORE.INTRA.POLAR.0>
0

>  <SCORE.INTRA.REPUL>
0

>  <SCORE.INTRA.REPUL.0>
0

>  <SCORE.INTRA.SOLV>
0.647185

>  <SCORE.INTRA.SOLV.lig_0>
-51.4104

>  <SCORE.INTRA.VDW>
-1.53934

>  <SCORE.INTRA.VDW.0>
0.110327

>  <SCORE.INTRA.norm>
-0.0218616

>  <SCORE.RESTR>
0.0518538

>  <SCORE.RESTR.CAVITY>
0.0518538

>  <SCORE.RESTR.norm>
0.00162043

>  <SCORE.SYSTEM>
0

>  <SCORE.SYSTEM.CONST>
0

>  <SCORE.SYSTEM.DIHEDRAL>
0

>  <SCORE.SYSTEM.SOLV>
0

>  <SCORE.SYSTEM.norm>
0

>  <SCORE.heavy>
32

>  <SCORE.norm>
-1.29105

>  <RMSD>
8.576

$$$$
lig.pdb
 OpenBabel11021811523D
libRbt.so/2013.1/901 2013/11/27
 32 34  0  0  0  0  0  0  0  0999 V2000
   -1.0723   13.0307    3.8819 P   0  0  0  0  0  0  0  0  0  0  0  0
   -1.8607   13.7564    4.9449 O   0  0  0  0  0  0  0  0  0  0  0  0
    0.0439   14.1225    3.4406 O   0  0  0  0  0  0  0  0  0  0  0  0
   -0.2453   11.8368    4.2892 O   0  0  0  0  0  0  0  0  0  0  0  0
   -2.0450   12.5387    2.9256 O   0  0  0  0  0  0  0  0  0  0  0  0
   -2.3480   13.6007    1.9376 P   0  0  1  0  0  0  0  0  0  0  0  0
   -3.5547   13.1949    1.1793 O   0  0  0  0  0  0  0  0  0  0  0  0
   -2.6224   14.8789    2.6343 O   0  0  0  0  0  0  0  0  0  0  0  0
   -1.1926   13.7660    1.0204 O   0  0  0  0  0  0  0  0  0  0  0  0
   -0.9244   15.0307    0.2954 P   0  0  1  0  0  0  0  0  0  0  0  0
   -2.0974   15.6153   -0.3859 O   0  0  0  0  0  0  0  0  0  0  0  0
   -0.0781   16.0035    1.0217 O   0  0  0  0  0  0  0  0  0  0  0  0
   -0.0107   14.5425   -0.9478 O   0  0  0  0  0  0  0  0  0  0  0  0
    0.8986   13.4633   -0.8425 C   0  0  0  0  0  0  0  0  0  0  0  0
    2.0357   13.5474   -1.8703 C   0  0  1  0  0  0  0  0  0  0  0  0
    2.6341   14.8269   -1.8358 O   0  0  0  0  0  0  0  0  0  0  0  0
    3.2357   12.6415   -1.5432 C   0  0  1  0  0  0  0  0  0  0  0  0
    3.0593   11.2659   -1.8381 O   0  0  0  0  0  0  0  0  0  0  0  0
    4.3806   13.2734   -2.3345 C   0  0  1  0  0  0  0  0  0  0  0  0
    4.5088   12.7129   -3.6294 O   0  0  0  0  0  0  0  0  0  0  0  0
    3.8955   14.7154   -2.4706 C   0  0  2  0  0  0  0  0  0  0  0  0
    4.8347   15.7489   -1.9849 N   0  0  0  0  0  0  0  0  0  0  0  0
    6.0293   16.1822   -2.5020 C   0  0  0  0  0  0  0  0  0  0  0  0
    6.6504   17.0541   -1.7505 N   0  0  0  0  0  0  0  0  0  0  0  0
    5.7981   17.2350   -0.6653 C   0  0  0  0  0  0  0  0  0  0  0  0
    5.9415   18.0351    0.5133 C   0  0  0  0  0  0  0  0  0  0  0  0
    6.9042   18.7262    0.8404 O   0  0  0  0  0  0  0  0  0  0  0  0
    4.8249   17.9633    1.3570 N   0  0  0  0  0  0  0  0  0  0  0  0
    3.6864   17.2265    1.0670 C   0  0  0  0  0  0  0  0  0  0  0  0
    2.6451   17.3235    1.9012 N   0  0  0  0  0  0  0  0  0  0  0  0
    3.5761   16.4398   -0.0159 N   0  0  0  0  0  0  0  0  0  0  0  0
    4.6614   16.4809   -0.8362 C   0  0  0  0  0  0  0  0  0  0  0  0
  1  2  2  0  0  0  0
  1  4  1  0  0  0  0
  1  3  1  0  0  0  0
  5  1  1  0  0  0  0
  6  7  2  6  0  0  0
  6  9  1  0  0  0  0
  6  5  1  0  0  0  0
  6  8  1  0  0  0  0
 10 11  2  6  0  0  0
 10 12  1  0  0  0  0
 10 13  1  0  0  0  0
 10  9  1  0  0  0  0
 13 14  1  0  0  0  0
 15 14  1  1  0  0  0
 15 16  1  0  0  0  0
 17 19  1  0  0  0  0
 17 15  1  0  0  0  0
 17 18  1  6  0  0  0
 19 21  1  0  0  0  0
 19 20  1  6  0  0  0
 21 16  1  0  0  0  0
 21 22  1  1  0  0  0
 22 32  1  0  0  0  0
 23 22  1  0  0  0  0
 23 24  2  0  0  0  0
 24 25  1  0  0  0  0
 25 26  1  0  0  0  0
 26 27  2  0  0  0  0
 26 28  1  0  0  0  0
 29 28  1  0  0  0  0
 29 30  1  0  0  0  0
 31 29  2  0  0  0  0
 32 25  2  0  0  0  0
 32 31  1  0  0  0  0
M  END
>  <CHROM.1>
85.29343501,-155.21091986,-166.96416477,-33.22065572,-47.70847556,-155.65043419
50.55988792,-63.62291291,178.30961710,-164.80691098,1.46766144,14.73589134
0.48515944,-2.98700862,-0.55680363,-2.25611815

>  <Name>
lig.pdb

>  <RI>
1.82117e+07

>  <Rbt.Current_Directory>
/home/itssahil/PROJECTS/Mol_Feturizer/New_Systems/rnas/5lwj

>  <Rbt.Executable>
rbdock ($Id: //depot/dev/client3/rdock/2013.1/src/exe/rbdock.cxx#4 $)

>  <Rbt.Library>
libRbt.so (2013.1, Build901 2013/11/27)

>  <Rbt.Parameter_File>
/export/apps/rDock/src/rDock_2013.1_src/data/scripts/dock_solv.prm

>  <Rbt.Receptor>
prm/pocket_docking_5.prm

>  <SCORE>
-20.5965

>  <SCORE.INTER>
-14.0504

>  <SCORE.INTER.CONST>
1

>  <SCORE.INTER.POLAR>
-1.71791

>  <SCORE.INTER.ROT>
8

>  <SCORE.INTER.SOLV>
12.6105

>  <SCORE.INTER.VDW>
-16.7774

>  <SCORE.INTER.norm>
-0.439075

>  <SCORE.INTRA>
-6.54613

>  <SCORE.INTRA.DIHEDRAL>
-1.17677

>  <SCORE.INTRA.DIHEDRAL.0>
10.9248

>  <SCORE.INTRA.POLAR>
-1

>  <SCORE.INTRA.POLAR.0>
0

>  <SCORE.INTRA.REPUL>
0.226734

>  <SCORE.INTRA.REPUL.0>
0

>  <SCORE.INTRA.SOLV>
0.136974

>  <SCORE.INTRA.SOLV.lig_0>
-51.4104

>  <SCORE.INTRA.VDW>
-3.7599

>  <SCORE.INTRA.VDW.0>
0.110327

>  <SCORE.INTRA.norm>
-0.204566

>  <SCORE.RESTR>
0

>  <SCORE.RESTR.CAVITY>
0

>  <SCORE.RESTR.norm>
0

>  <SCORE.SYSTEM>
0

>  <SCORE.SYSTEM.CONST>
0

>  <SCORE.SYSTEM.DIHEDRAL>
0

>  <SCORE.SYSTEM.SOLV>
0

>  <SCORE.SYSTEM.norm>
0

>  <SCORE.heavy>
32

>  <SCORE.norm>
-0.643641

>  <RMSD>
8.580

$$$$
lig.pdb
 OpenBabel11021811523D
libRbt.so/2013.1/901 2013/11/27
 32 34  0  0  0  0  0  0  0  0999 V2000
    0.6858   11.2686    5.7522 P   0  0  0  0  0  0  0  0  0  0  0  0
    0.8545    9.8332    6.1870 O   0  0  0  0  0  0  0  0  0  0  0  0
   -0.7027   11.7096    6.4664 O   0  0  0  0  0  0  0  0  0  0  0  0
    1.6728   12.2928    6.2543 O   0  0  0  0  0  0  0  0  0  0  0  0
    0.8072   11.2679    4.3073 O   0  0  0  0  0  0  0  0  0  0  0  0
    0.5073   12.6218    3.7852 P   0  0  1  0  0  0  0  0  0  0  0  0
   -0.5939   13.1951    4.5942 O   0  0  0  0  0  0  0  0  0  0  0  0
    1.7012   13.4900    3.9101 O   0  0  0  0  0  0  0  0  0  0  0  0
    0.1043   12.5233    2.3599 O   0  0  0  0  0  0  0  0  0  0  0  0
   -0.1664   13.7166    1.5233 P   0  0  1  0  0  0  0  0  0  0  0  0
   -1.0917   13.4859    0.3953 O   0  0  0  0  0  0  0  0  0  0  0  0
   -0.4015   14.9698    2.2745 O   0  0  0  0  0  0  0  0  0  0  0  0
    1.2459   13.9514    0.7690 O   0  0  0  0  0  0  0  0  0  0  0  0
    1.7014   13.1036   -0.2685 C   0  0  0  0  0  0  0  0  0  0  0  0
    2.6021   13.8337   -1.2745 C   0  0  1  0  0  0  0  0  0  0  0  0
    1.8412   14.7411   -2.0454 O   0  0  0  0  0  0  0  0  0  0  0  0
    3.6270   14.7762   -0.6194 C   0  0  1  0  0  0  0  0  0  0  0  0
    4.7608   14.1430   -0.0506 O   0  0  0  0  0  0  0  0  0  0  0  0
    3.9924   15.7395   -1.7484 C   0  0  1  0  0  0  0  0  0  0  0  0
    5.1119   15.2916   -2.4921 O   0  0  0  0  0  0  0  0  0  0  0  0
    2.7503   15.6544   -2.6335 C   0  0  2  0  0  0  0  0  0  0  0  0
    2.0960   16.9458   -2.9338 N   0  0  0  0  0  0  0  0  0  0  0  0
    2.1672   17.7440   -4.0474 C   0  0  0  0  0  0  0  0  0  0  0  0
    1.5271   18.8787   -3.9315 N   0  0  0  0  0  0  0  0  0  0  0  0
    0.9675   18.8242   -2.6585 C   0  0  0  0  0  0  0  0  0  0  0  0
    0.1882   19.7849   -1.9376 C   0  0  0  0  0  0  0  0  0  0  0  0
   -0.1278   20.9177   -2.2955 O   0  0  0  0  0  0  0  0  0  0  0  0
   -0.2149   19.3213   -0.6780 N   0  0  0  0  0  0  0  0  0  0  0  0
    0.0769   18.0551   -0.1937 C   0  0  0  0  0  0  0  0  0  0  0  0
   -0.4547   17.6925    0.9792 N   0  0  0  0  0  0  0  0  0  0  0  0
    0.8486   17.1757   -0.8531 N   0  0  0  0  0  0  0  0  0  0  0  0
    1.2669   17.6183   -2.0703 C   0  0  0  0  0  0  0  0  0  0  0  0
  1  2  2  0  0  0  0
  1  4  1  0  0  0  0
  1  3  1  0  0  0  0
  5  1  1  0  0  0  0
  6  7  2  1  0  0  0
  6  9  1  0  0  0  0
  6  5  1  0  0  0  0
  6  8  1  0  0  0  0
 10 11  2  6  0  0  0
 10 12  1  0  0  0  0
 10 13  1  0  0  0  0
 10  9  1  0  0  0  0
 13 14  1  0  0  0  0
 15 14  1  1  0  0  0
 15 16  1  0  0  0  0
 17 19  1  0  0  0  0
 17 15  1  0  0  0  0
 17 18  1  6  0  0  0
 19 21  1  0  0  0  0
 19 20  1  6  0  0  0
 21 16  1  0  0  0  0
 21 22  1  1  0  0  0
 22 32  1  0  0  0  0
 23 22  1  0  0  0  0
 23 24  2  0  0  0  0
 24 25  1  0  0  0  0
 25 26  1  0  0  0  0
 26 27  2  0  0  0  0
 26 28  1  0  0  0  0
 29 28  1  0  0  0  0
 29 30  1  0  0  0  0
 31 29  2  0  0  0  0
 32 25  2  0  0  0  0
 32 31  1  0  0  0  0
M  END
>  <CHROM.1>
173.91350510,-175.49062365,-37.52777873,72.66234206,-154.03119044,150.83083215
-70.33237261,-176.01928407,-172.96420283,-135.99115665,1.13184139,14.77267601
0.97902437,1.71969420,-0.68475389,2.35551594

>  <Name>
lig.pdb

>  <RI>
0

>  <Rbt.Current_Directory>
/home/itssahil/PROJECTS/Mol_Feturizer/New_Systems/rnas/5lwj

>  <Rbt.Executable>
rbdock ($Id: //depot/dev/client3/rdock/2013.1/src/exe/rbdock.cxx#4 $)

>  <Rbt.Library>
libRbt.so (2013.1, Build901 2013/11/27)

>  <Rbt.Parameter_File>
/export/apps/rDock/src/rDock_2013.1_src/data/scripts/dock_solv.prm

>  <Rbt.Receptor>
prm/pocket_docking_6.prm

>  <SCORE>
-23.1039

>  <SCORE.INTER>
-17.7222

>  <SCORE.INTER.CONST>
1

>  <SCORE.INTER.POLAR>
-1.63171

>  <SCORE.INTER.ROT>
8

>  <SCORE.INTER.SOLV>
17.2008

>  <SCORE.INTER.VDW>
-21.0427

>  <SCORE.INTER.norm>
-0.553818

>  <SCORE.INTRA>
-5.38169

>  <SCORE.INTRA.DIHEDRAL>
-1.48128

>  <SCORE.INTRA.DIHEDRAL.0>
10.9248

>  <SCORE.INTRA.POLAR>
-0.99431

>  <SCORE.INTRA.POLAR.0>
0

>  <SCORE.INTRA.REPUL>
0

>  <SCORE.INTRA.REPUL.0>
0

>  <SCORE.INTRA.SOLV>
0.156352

>  <SCORE.INTRA.SOLV.lig_0>
-51.4104

>  <SCORE.INTRA.VDW>
-1.33858

>  <SCORE.INTRA.VDW.0>
0.110327

>  <SCORE.INTRA.norm>
-0.168178

>  <SCORE.RESTR>
0

>  <SCORE.RESTR.CAVITY>
0

>  <SCORE.RESTR.norm>
0

>  <SCORE.SYSTEM>
0

>  <SCORE.SYSTEM.CONST>
0

>  <SCORE.SYSTEM.DIHEDRAL>
0

>  <SCORE.SYSTEM.SOLV>
0

>  <SCORE.SYSTEM.norm>
0

>  <SCORE.heavy>
32

>  <SCORE.norm>
-0.721996

>  <RMSD>
8.584

$$$$
lig.pdb
 OpenBabel11021811523D
libRbt.so/2013.1/901 2013/11/27
 32 34  0  0  0  0  0  0  0  0999 V2000
   -3.0156   13.0637    5.1430 P   0  0  0  0  0  0  0  0  0  0  0  0
   -2.6032   14.4821    5.4529 O   0  0  0  0  0  0  0  0  0  0  0  0
   -2.5111   12.2397    6.4465 O   0  0  0  0  0  0  0  0  0  0  0  0
   -4.4875   12.7405    5.0786 O   0  0  0  0  0  0  0  0  0  0  0  0
   -2.4812   12.7679    3.8279 O   0  0  0  0  0  0  0  0  0  0  0  0
   -1.0562   12.3799    3.9490 P   0  0  1  0  0  0  0  0  0  0  0  0
   -0.3745   13.3855    4.7976 O   0  0  0  0  0  0  0  0  0  0  0  0
   -0.9451   11.0499    4.5921 O   0  0  0  0  0  0  0  0  0  0  0  0
   -0.4393   12.3388    2.5995 O   0  0  0  0  0  0  0  0  0  0  0  0
    0.1766   13.5298    1.9676 P   0  0  1  0  0  0  0  0  0  0  0  0
    0.8748   14.4360    2.9019 O   0  0  0  0  0  0  0  0  0  0  0  0
    0.8960   13.2673    0.7012 O   0  0  0  0  0  0  0  0  0  0  0  0
   -1.1106   14.4082    1.5314 O   0  0  0  0  0  0  0  0  0  0  0  0
   -2.1521   13.8813    0.7313 C   0  0  0  0  0  0  0  0  0  0  0  0
   -3.0964   14.9690    0.2007 C   0  0  1  0  0  0  0  0  0  0  0  0
   -3.4796   15.8385    1.2464 O   0  0  0  0  0  0  0  0  0  0  0  0
   -2.4262   15.9483   -0.7789 C   0  0  1  0  0  0  0  0  0  0  0  0
   -2.2361   15.4588   -2.0958 O   0  0  0  0  0  0  0  0  0  0  0  0
   -3.3372   17.1747   -0.7301 C   0  0  1  0  0  0  0  0  0  0  0  0
   -4.3527   17.1260   -1.7167 O   0  0  0  0  0  0  0  0  0  0  0  0
   -3.9825   17.0185    0.6456 C   0  0  2  0  0  0  0  0  0  0  0  0
   -3.8432   18.1820    1.5472 N   0  0  0  0  0  0  0  0  0  0  0  0
   -4.7040   19.2189    1.8046 C   0  0  0  0  0  0  0  0  0  0  0  0
   -4.2104   20.1377    2.5939 N   0  0  0  0  0  0  0  0  0  0  0  0
   -2.9377   19.6692    2.9059 C   0  0  0  0  0  0  0  0  0  0  0  0
   -1.8947   20.2507    3.6958 C   0  0  0  0  0  0  0  0  0  0  0  0
   -1.8954   21.3466    4.2528 O   0  0  0  0  0  0  0  0  0  0  0  0
   -0.7635   19.4290    3.7904 N   0  0  0  0  0  0  0  0  0  0  0  0
   -0.6744   18.1714    3.2129 C   0  0  0  0  0  0  0  0  0  0  0  0
    0.4170   17.4398    3.4642 N   0  0  0  0  0  0  0  0  0  0  0  0
   -1.6361   17.6509    2.4331 N   0  0  0  0  0  0  0  0  0  0  0  0
   -2.7344   18.4458    2.3128 C   0  0  0  0  0  0  0  0  0  0  0  0
  1  2  2  0  0  0  0
  1  4  1  0  0  0  0
  1  3  1  0  0  0  0
  5  1  1  0  0  0  0
  6  7  2  1  0  0  0
  6  9  1  0  0  0  0
  6  5  1  0  0  0  0
  6  8  1  0  0  0  0
 10 11  2  1  0  0  0
 10 12  1  0  0  0  0
 10 13  1  0  0  0  0
 10  9  1  0  0  0  0
 13 14  1  0  0  0  0
 15 14  1  1  0  0  0
 15 16  1  0  0  0  0
 17 19  1  0  0  0  0
 17 15  1  0  0  0  0
 17 18  1  6  0  0  0
 19 21  1  0  0  0  0
 19 20  1  6  0  0  0
 21 16  1  0  0  0  0
 21 22  1  1  0  0  0
 22 32  1  0  0  0  0
 23 22  1  0  0  0  0
 23 24  2  0  0  0  0
 24 25  1  0  0  0  0
 25 26  1  0  0  0  0
 26 27  2  0  0  0  0
 26 28  1  0  0  0  0
 29 28  1  0  0  0  0
 29 30  1  0  0  0  0
 31 29  2  0  0  0  0
 32 25  2  0  0  0  0
 32 31  1  0  0  0  0
M  END
>  <CHROM.1>
82.00347724,88.22415502,-48.61874760,-54.17595914,35.68754209,-167.54905516
-47.81881948,-58.23206065,-49.33089059,-139.27326672,-1.97468028,15.44795711
2.59609731,-0.01990146,-1.34412385,1.18668045

>  <Name>
lig.pdb

>  <RI>
2.0892e+07

>  <Rbt.Current_Directory>
/home/itssahil/PROJECTS/Mol_Feturizer/New_Systems/rnas/5lwj

>  <Rbt.Executable>
rbdock ($Id: //depot/dev/client3/rdock/2013.1/src/exe/rbdock.cxx#4 $)

>  <Rbt.Library>
libRbt.so (2013.1, Build901 2013/11/27)

>  <Rbt.Parameter_File>
/export/apps/rDock/src/rDock_2013.1_src/data/scripts/dock_solv.prm

>  <Rbt.Receptor>
prm/pocket_docking_8.prm

>  <SCORE>
-20.2909

>  <SCORE.INTER>
-17.7459

>  <SCORE.INTER.CONST>
1

>  <SCORE.INTER.POLAR>
-2.04299

>  <SCORE.INTER.ROT>
8

>  <SCORE.INTER.SOLV>
14.96

>  <SCORE.INTER.VDW>
-18.9407

>  <SCORE.INTER.norm>
-0.55456

>  <SCORE.INTRA>
-2.54494

>  <SCORE.INTRA.DIHEDRAL>
-3.57719

>  <SCORE.INTRA.DIHEDRAL.0>
10.9248

>  <SCORE.INTRA.POLAR>
-1.07148

>  <SCORE.INTRA.POLAR.0>
0

>  <SCORE.INTRA.REPUL>
1.09921

>  <SCORE.INTRA.REPUL.0>
0

>  <SCORE.INTRA.SOLV>
2.18983

>  <SCORE.INTRA.SOLV.lig_0>
-51.4104

>  <SCORE.INTRA.VDW>
-3.70426

>  <SCORE.INTRA.VDW.0>
0.110327

>  <SCORE.INTRA.norm>
-0.0795293

>  <SCORE.RESTR>
0

>  <SCORE.RESTR.CAVITY>
0

>  <SCORE.RESTR.norm>
0

>  <SCORE.SYSTEM>
0

>  <SCORE.SYSTEM.CONST>
0

>  <SCORE.SYSTEM.DIHEDRAL>
0

>  <SCORE.SYSTEM.SOLV>
0

>  <SCORE.SYSTEM.norm>
0

>  <SCORE.heavy>
32

>  <SCORE.norm>
-0.63409

>  <RMSD>
8.587

$$$$
lig.pdb
 OpenBabel11021811523D
libRbt.so/2013.1/901 2013/11/27
 32 34  0  0  0  0  0  0  0  0999 V2000
   -1.8667   12.3128    4.9333 P   0  0  0  0  0  0  0  0  0  0  0  0
   -2.0958   12.3995    6.4226 O   0  0  0  0  0  0  0  0  0  0  0  0
   -0.4743   13.1196    4.7266 O   0  0  0  0  0  0  0  0  0  0  0  0
   -1.5764   10.9622    4.3278 O   0  0  0  0  0  0  0  0  0  0  0  0
   -3.0910   12.7777    4.3106 O   0  0  0  0  0  0  0  0  0  0  0  0
   -3.0085   14.2405    4.0892 P   0  0  1  0  0  0  0  0  0  0  0  0
   -4.3329   14.7118    3.6204 O   0  0  0  0  0  0  0  0  0  0  0  0
   -2.6724   14.9279    5.3577 O   0  0  0  0  0  0  0  0  0  0  0  0
   -1.9675   14.5278    3.0706 O   0  0  0  0  0  0  0  0  0  0  0  0
   -1.3955   15.8811    2.8746 P   0  0  1  0  0  0  0  0  0  0  0  0
   -2.3918   16.9497    2.6573 O   0  0  0  0  0  0  0  0  0  0  0  0
   -0.2932   16.2363    3.7960 O   0  0  0  0  0  0  0  0  0  0  0  0
   -0.6919   15.7642    1.4220 O   0  0  0  0  0  0  0  0  0  0  0  0
   -1.4158   15.9116    0.2150 C   0  0  0  0  0  0  0  0  0  0  0  0
   -0.5540   15.6426   -1.0264 C   0  0  1  0  0  0  0  0  0  0  0  0
   -0.1155   14.2995   -1.0373 O   0  0  0  0  0  0  0  0  0  0  0  0
   -1.3333   15.7189   -2.3510 C   0  0  1  0  0  0  0  0  0  0  0  0
   -1.6139   17.0276   -2.8187 O   0  0  0  0  0  0  0  0  0  0  0  0
   -0.4620   14.9195   -3.3195 C   0  0  1  0  0  0  0  0  0  0  0  0
    0.4709   15.7395   -4.0009 O   0  0  0  0  0  0  0  0  0  0  0  0
    0.2980   14.0057   -2.3599 C   0  0  2  0  0  0  0  0  0  0  0  0
    0.1946   12.5589   -2.6464 N   0  0  0  0  0  0  0  0  0  0  0  0
   -0.9041   11.7745   -2.8915 C   0  0  0  0  0  0  0  0  0  0  0  0
   -0.6335   10.5003   -3.0098 N   0  0  0  0  0  0  0  0  0  0  0  0
    0.7481   10.4312   -2.8573 C   0  0  0  0  0  0  0  0  0  0  0  0
    1.6324    9.3052   -2.8449 C   0  0  0  0  0  0  0  0  0  0  0  0
    1.3360    8.1154   -2.9323 O   0  0  0  0  0  0  0  0  0  0  0  0
    2.9766    9.6727   -2.6963 N   0  0  0  0  0  0  0  0  0  0  0  0
    3.4106   10.9867   -2.6075 C   0  0  0  0  0  0  0  0  0  0  0  0
    4.7288   11.2128   -2.5755 N   0  0  0  0  0  0  0  0  0  0  0  0
    2.5736   12.0364   -2.5710 N   0  0  0  0  0  0  0  0  0  0  0  0
    1.2615   11.6958   -2.6926 C   0  0  0  0  0  0  0  0  0  0  0  0
  1  2  2  0  0  0  0
  1  4  1  0  0  0  0
  1  3  1  0  0  0  0
  5  1  1  0  0  0  0
  6  7  2  6  0  0  0
  6  9  1  0  0  0  0
  6  5  1  0  0  0  0
  6  8  1  0  0  0  0
 10 11  2  1  0  0  0
 10 12  1  0  0  0  0
 10 13  1  0  0  0  0
 10  9  1  0  0  0  0
 13 14  1  0  0  0  0
 15 14  1  1  0  0  0
 15 16  1  0  0  0  0
 17 19  1  0  0  0  0
 17 15  1  0  0  0  0
 17 18  1  6  0  0  0
 19 21  1  0  0  0  0
 19 20  1  1  0  0  0
 21 16  1  0  0  0  0
 21 22  1  6  0  0  0
 22 32  1  0  0  0  0
 23 22  1  0  0  0  0
 23 24  2  0  0  0  0
 24 25  1  0  0  0  0
 25 26  1  0  0  0  0
 26 27  2  0  0  0  0
 26 28  1  0  0  0  0
 29 28  1  0  0  0  0
 29 30  1  0  0  0  0
 31 29  2  0  0  0  0
 32 25  2  0  0  0  0
 32 31  1  0  0  0  0
M  END
>  <CHROM.1>
90.42256556,-163.86216466,-172.65690754,82.48997925,-53.24382977,-175.21103290
63.63013786,-173.95357791,-58.62452516,74.88350589,-0.63601288,13.47494046
0.65778153,-2.71889910,1.07466773,-0.80710293

>  <Name>
lig.pdb

>  <RI>
2.0892e+07

>  <Rbt.Current_Directory>
/home/itssahil/PROJECTS/Mol_Feturizer/New_Systems/rnas/5lwj

>  <Rbt.Executable>
rbdock ($Id: //depot/dev/client3/rdock/2013.1/src/exe/rbdock.cxx#4 $)

>  <Rbt.Library>
libRbt.so (2013.1, Build901 2013/11/27)

>  <Rbt.Parameter_File>
/export/apps/rDock/src/rDock_2013.1_src/data/scripts/dock_solv.prm

>  <Rbt.Receptor>
prm/pocket_docking_8.prm

>  <SCORE>
-31.5215

>  <SCORE.INTER>
-25.657

>  <SCORE.INTER.CONST>
1

>  <SCORE.INTER.POLAR>
-3.63328

>  <SCORE.INTER.ROT>
8

>  <SCORE.INTER.SOLV>
16.7591

>  <SCORE.INTER.VDW>
-19.5135

>  <SCORE.INTER.norm>
-0.801782

>  <SCORE.INTRA>
-5.86451

>  <SCORE.INTRA.DIHEDRAL>
-4.59993

>  <SCORE.INTRA.DIHEDRAL.0>
10.9248

>  <SCORE.INTRA.POLAR>
0

>  <SCORE.INTRA.POLAR.0>
0

>  <SCORE.INTRA.REPUL>
0

>  <SCORE.INTRA.REPUL.0>
0

>  <SCORE.INTRA.SOLV>
-0.522085

>  <SCORE.INTRA.SOLV.lig_0>
-51.4104

>  <SCORE.INTRA.VDW>
-3.3035

>  <SCORE.INTRA.VDW.0>
0.110327

>  <SCORE.INTRA.norm>
-0.183266

>  <SCORE.RESTR>
0

>  <SCORE.RESTR.CAVITY>
0

>  <SCORE.RESTR.norm>
0

>  <SCORE.SYSTEM>
0

>  <SCORE.SYSTEM.CONST>
0

>  <SCORE.SYSTEM.DIHEDRAL>
0

>  <SCORE.SYSTEM.SOLV>
0

>  <SCORE.SYSTEM.norm>
0

>  <SCORE.heavy>
32

>  <SCORE.norm>
-0.985048

>  <RMSD>
8.588

$$$$
lig.pdb
 OpenBabel11021811523D
libRbt.so/2013.1/901 2013/11/27
 32 34  0  0  0  0  0  0  0  0999 V2000
    0.4037   11.4468    4.7398 P   0  0  0  0  0  0  0  0  0  0  0  0
   -0.6684   10.4580    5.1285 O   0  0  0  0  0  0  0  0  0  0  0  0
    0.4759   12.4363    6.0236 O   0  0  0  0  0  0  0  0  0  0  0  0
    1.8225   10.9529    4.6042 O   0  0  0  0  0  0  0  0  0  0  0  0
    0.0282   11.9542    3.4343 O   0  0  0  0  0  0  0  0  0  0  0  0
   -1.1193   12.8809    3.5753 P   0  0  1  0  0  0  0  0  0  0  0  0
   -2.0976   12.2664    4.5034 O   0  0  0  0  0  0  0  0  0  0  0  0
   -0.6628   14.1722    4.1402 O   0  0  0  0  0  0  0  0  0  0  0  0
   -1.7392   13.1052    2.2453 O   0  0  0  0  0  0  0  0  0  0  0  0
   -2.8094   14.1063    2.0227 P   0  0  1  0  0  0  0  0  0  0  0  0
   -3.8022   13.7342    0.9943 O   0  0  0  0  0  0  0  0  0  0  0  0
   -3.3801   14.6992    3.2527 O   0  0  0  0  0  0  0  0  0  0  0  0
   -2.0161   15.3247    1.3121 O   0  0  0  0  0  0  0  0  0  0  0  0
   -0.8219   15.8652    1.8455 C   0  0  0  0  0  0  0  0  0  0  0  0
    0.4275   15.4009    1.0840 C   0  0  1  0  0  0  0  0  0  0  0  0
    0.1544   14.2108    0.3731 O   0  0  0  0  0  0  0  0  0  0  0  0
    0.8465   16.3465   -0.0554 C   0  0  1  0  0  0  0  0  0  0  0  0
    1.5205   17.5266    0.3486 O   0  0  0  0  0  0  0  0  0  0  0  0
    1.7022   15.4560   -0.9560 C   0  0  1  0  0  0  0  0  0  0  0  0
    3.0757   15.5118   -0.6136 O   0  0  0  0  0  0  0  0  0  0  0  0
    1.1663   14.0685   -0.6079 C   0  0  2  0  0  0  0  0  0  0  0  0
    0.6932   13.2652   -1.7554 N   0  0  0  0  0  0  0  0  0  0  0  0
   -0.5656   12.8241   -2.0768 C   0  0  0  0  0  0  0  0  0  0  0  0
   -0.6053   12.0447   -3.1264 N   0  0  0  0  0  0  0  0  0  0  0  0
    0.7182   11.9803   -3.5516 C   0  0  0  0  0  0  0  0  0  0  0  0
    1.3208   11.2511   -4.6264 C   0  0  0  0  0  0  0  0  0  0  0  0
    0.7758   10.4697   -5.4034 O   0  0  0  0  0  0  0  0  0  0  0  0
    2.6972   11.4894   -4.7391 N   0  0  0  0  0  0  0  0  0  0  0  0
    3.3968   12.3649   -3.9224 C   0  0  0  0  0  0  0  0  0  0  0  0
    4.6869   12.5873   -4.1981 N   0  0  0  0  0  0  0  0  0  0  0  0
    2.8369   13.0094   -2.8856 N   0  0  0  0  0  0  0  0  0  0  0  0
    1.5037   12.7725   -2.7482 C   0  0  0  0  0  0  0  0  0  0  0  0
  1  2  2  0  0  0  0
  1  4  1  0  0  0  0
  1  3  1  0  0  0  0
  5  1  1  0  0  0  0
  6  7  2  1  0  0  0
  6  9  1  0  0  0  0
  6  5  1  0  0  0  0
  6  8  1  0  0  0  0
 10 11  2  6  0  0  0
 10 12  1  0  0  0  0
 10 13  1  0  0  0  0
 10  9  1  0  0  0  0
 13 14  1  0  0  0  0
 15 14  1  6  0  0  0
 15 16  1  0  0  0  0
 17 19  1  0  0  0  0
 17 15  1  0  0  0  0
 17 18  1  1  0  0  0
 19 21  1  0  0  0  0
 19 20  1  1  0  0  0
 21 16  1  0  0  0  0
 21 22  1  6  0  0  0
 22 32  1  0  0  0  0
 23 22  1  0  0  0  0
 23 24  2  0  0  0  0
 24 25  1  0  0  0  0
 25 26  1  0  0  0  0
 26 27  2  0  0  0  0
 26 28  1  0  0  0  0
 29 28  1  0  0  0  0
 29 30  1  0  0  0  0
 31 29  2  0  0  0  0
 32 25  2  0  0  0  0
 32 31  1  0  0  0  0
M  END
>  <CHROM.1>
73.48891598,-172.61087557,-44.21673526,-50.30828839,-146.86095103,103.59736305
-21.09483349,55.60835906,179.91398098,9.97407301,0.13272145,13.27299445,0.71407696
-2.31929329,0.97827350,-0.95001501

>  <Name>
lig.pdb

>  <RI>
2.0892e+07

>  <Rbt.Current_Directory>
/home/itssahil/PROJECTS/Mol_Feturizer/New_Systems/rnas/5lwj

>  <Rbt.Executable>
rbdock ($Id: //depot/dev/client3/rdock/2013.1/src/exe/rbdock.cxx#4 $)

>  <Rbt.Library>
libRbt.so (2013.1, Build901 2013/11/27)

>  <Rbt.Parameter_File>
/export/apps/rDock/src/rDock_2013.1_src/data/scripts/dock_solv.prm

>  <Rbt.Receptor>
prm/pocket_docking_8.prm

>  <SCORE>
-20.6703

>  <SCORE.INTER>
-20.9999

>  <SCORE.INTER.CONST>
1

>  <SCORE.INTER.POLAR>
-2.42084

>  <SCORE.INTER.ROT>
8

>  <SCORE.INTER.SOLV>
17.8288

>  <SCORE.INTER.VDW>
-20.8067

>  <SCORE.INTER.norm>
-0.656246

>  <SCORE.INTRA>
0.329549

>  <SCORE.INTRA.DIHEDRAL>
4.48682

>  <SCORE.INTRA.DIHEDRAL.0>
10.9248

>  <SCORE.INTRA.POLAR>
0

>  <SCORE.INTRA.POLAR.0>
0

>  <SCORE.INTRA.REPUL>
0.0105798

>  <SCORE.INTRA.REPUL.0>
0

>  <SCORE.INTRA.SOLV>
0.710719

>  <SCORE.INTRA.SOLV.lig_0>
-51.4104

>  <SCORE.INTRA.VDW>
-2.32212

>  <SCORE.INTRA.VDW.0>
0.110327

>  <SCORE.INTRA.norm>
0.0102984

>  <SCORE.RESTR>
0

>  <SCORE.RESTR.CAVITY>
0

>  <SCORE.RESTR.norm>
0

>  <SCORE.SYSTEM>
0

>  <SCORE.SYSTEM.CONST>
0

>  <SCORE.SYSTEM.DIHEDRAL>
0

>  <SCORE.SYSTEM.SOLV>
0

>  <SCORE.SYSTEM.norm>
0

>  <SCORE.heavy>
32

>  <SCORE.norm>
-0.645947

>  <RMSD>
8.592

$$$$
lig.pdb
 OpenBabel11021811523D
libRbt.so/2013.1/901 2013/11/27
 32 34  0  0  0  0  0  0  0  0999 V2000
    0.1288   11.5222    4.9079 P   0  0  0  0  0  0  0  0  0  0  0  0
   -1.2544   10.9218    4.8439 O   0  0  0  0  0  0  0  0  0  0  0  0
    0.8474   10.6684    6.0857 O   0  0  0  0  0  0  0  0  0  0  0  0
    1.0514   11.3301    3.7301 O   0  0  0  0  0  0  0  0  0  0  0  0
   -0.0601   12.9537    5.0413 O   0  0  0  0  0  0  0  0  0  0  0  0
   -0.8807   13.4515    3.9124 P   0  0  1  0  0  0  0  0  0  0  0  0
   -2.2603   12.9380    4.0829 O   0  0  0  0  0  0  0  0  0  0  0  0
   -0.9119   14.9326    3.9217 O   0  0  0  0  0  0  0  0  0  0  0  0
   -0.3042   12.9689    2.6324 O   0  0  0  0  0  0  0  0  0  0  0  0
    0.7244   13.7297    1.8839 P   0  0  1  0  0  0  0  0  0  0  0  0
    1.2311   13.0581    0.6698 O   0  0  0  0  0  0  0  0  0  0  0  0
    0.4449   15.1743    1.7249 O   0  0  0  0  0  0  0  0  0  0  0  0
    2.0040   13.6676    2.8725 O   0  0  0  0  0  0  0  0  0  0  0  0
    3.1069   14.5446    2.7409 C   0  0  0  0  0  0  0  0  0  0  0  0
    3.9588   14.2393    1.5010 C   0  0  1  0  0  0  0  0  0  0  0  0
    3.2582   14.5920    0.3258 O   0  0  0  0  0  0  0  0  0  0  0  0
    5.2163   15.1178    1.3807 C   0  0  1  0  0  0  0  0  0  0  0  0
    6.2969   14.7541    2.2234 O   0  0  0  0  0  0  0  0  0  0  0  0
    5.5685   15.0281   -0.1039 C   0  0  1  0  0  0  0  0  0  0  0  0
    6.4708   13.9704   -0.3764 O   0  0  0  0  0  0  0  0  0  0  0  0
    4.2121   14.6854   -0.7172 C   0  0  2  0  0  0  0  0  0  0  0  0
    3.7515   15.5963   -1.7868 N   0  0  0  0  0  0  0  0  0  0  0  0
    4.2071   15.7682   -3.0694 C   0  0  0  0  0  0  0  0  0  0  0  0
    3.6222   16.7429   -3.7166 N   0  0  0  0  0  0  0  0  0  0  0  0
    2.6919   17.2420   -2.8100 C   0  0  0  0  0  0  0  0  0  0  0  0
    1.7775   18.3386   -2.9165 C   0  0  0  0  0  0  0  0  0  0  0  0
    1.6476   19.1208   -3.8560 O   0  0  0  0  0  0  0  0  0  0  0  0
    0.9788   18.4918   -1.7752 N   0  0  0  0  0  0  0  0  0  0  0  0
    1.0393   17.6511   -0.6741 C   0  0  0  0  0  0  0  0  0  0  0  0
    0.1508   17.8368    0.3086 N   0  0  0  0  0  0  0  0  0  0  0  0
    1.9316   16.6539   -0.5589 N   0  0  0  0  0  0  0  0  0  0  0  0
    2.7305   16.5043   -1.6506 C   0  0  0  0  0  0  0  0  0  0  0  0
  1  2  2  0  0  0  0
  1  4  1  0  0  0  0
  1  3  1  0  0  0  0
  5  1  1  0  0  0  0
  6  7  2  1  0  0  0
  6  9  1  0  0  0  0
  6  5  1  0  0  0  0
  6  8  1  0  0  0  0
 10 11  2  6  0  0  0
 10 12  1  0  0  0  0
 10 13  1  0  0  0  0
 10  9  1  0  0  0  0
 13 14  1  0  0  0  0
 15 14  1  1  0  0  0
 15 16  1  0  0  0  0
 17 19  1  0  0  0  0
 17 15  1  0  0  0  0
 17 18  1  1  0  0  0
 19 21  1  0  0  0  0
 19 20  1  1  0  0  0
 21 16  1  0  0  0  0
 21 22  1  6  0  0  0
 22 32  1  0  0  0  0
 23 22  1  0  0  0  0
 23 24  2  0  0  0  0
 24 25  1  0  0  0  0
 25 26  1  0  0  0  0
 26 27  2  0  0  0  0
 26 28  1  0  0  0  0
 29 28  1  0  0  0  0
 29 30  1  0  0  0  0
 31 29  2  0  0  0  0
 32 25  2  0  0  0  0
 32 31  1  0  0  0  0
M  END
>  <CHROM.1>
-56.58812304,-89.56104093,69.46982898,-163.00986216,176.87197698,-71.07231828
70.59019301,172.17854167,44.66079600,-165.06287473,1.72988849,14.54428587
1.34662821,-1.98906949,0.24497240,-0.83955397

>  <Name>
lig.pdb

>  <RI>
1.82117e+07

>  <Rbt.Current_Directory>
/home/itssahil/PROJECTS/Mol_Feturizer/New_Systems/rnas/5lwj

>  <Rbt.Executable>
rbdock ($Id: //depot/dev/client3/rdock/2013.1/src/exe/rbdock.cxx#4 $)

>  <Rbt.Library>
libRbt.so (2013.1, Build901 2013/11/27)

>  <Rbt.Parameter_File>
/export/apps/rDock/src/rDock_2013.1_src/data/scripts/dock_solv.prm

>  <Rbt.Receptor>
prm/pocket_docking_5.prm

>  <SCORE>
-31.0338

>  <SCORE.INTER>
-27.7637

>  <SCORE.INTER.CONST>
1

>  <SCORE.INTER.POLAR>
-2.42253

>  <SCORE.INTER.ROT>
8

>  <SCORE.INTER.SOLV>
17.8738

>  <SCORE.INTER.VDW>
-25.3253

>  <SCORE.INTER.norm>
-0.867615

>  <SCORE.INTRA>
-3.27011

>  <SCORE.INTRA.DIHEDRAL>
-3.84536

>  <SCORE.INTRA.DIHEDRAL.0>
10.9248

>  <SCORE.INTRA.POLAR>
-0.924927

>  <SCORE.INTRA.POLAR.0>
0

>  <SCORE.INTRA.REPUL>
0.231308

>  <SCORE.INTRA.REPUL.0>
0

>  <SCORE.INTRA.SOLV>
3.15575

>  <SCORE.INTRA.SOLV.lig_0>
-51.4104

>  <SCORE.INTRA.VDW>
-0.937089

>  <SCORE.INTRA.VDW.0>
0.110327

>  <SCORE.INTRA.norm>
-0.102191

>  <SCORE.RESTR>
0

>  <SCORE.RESTR.CAVITY>
0

>  <SCORE.RESTR.norm>
0

>  <SCORE.SYSTEM>
0

>  <SCORE.SYSTEM.CONST>
0

>  <SCORE.SYSTEM.DIHEDRAL>
0

>  <SCORE.SYSTEM.SOLV>
0

>  <SCORE.SYSTEM.norm>
0

>  <SCORE.heavy>
32

>  <SCORE.norm>
-0.969806

>  <RMSD>
8.593

$$$$
lig.pdb
 OpenBabel11021811523D
libRbt.so/2013.1/901 2013/11/27
 32 34  0  0  0  0  0  0  0  0999 V2000
    4.7667   14.7845    1.8793 P   0  0  0  0  0  0  0  0  0  0  0  0
    5.8262   15.4599    1.0431 O   0  0  0  0  0  0  0  0  0  0  0  0
    4.2966   13.5429    0.9466 O   0  0  0  0  0  0  0  0  0  0  0  0
    5.1842   14.1129    3.1637 O   0  0  0  0  0  0  0  0  0  0  0  0
    3.8285   15.8241    2.2558 O   0  0  0  0  0  0  0  0  0  0  0  0
    2.5073   15.2176    2.5426 P   0  0  1  0  0  0  0  0  0  0  0  0
    1.9710   14.6603    1.2786 O   0  0  0  0  0  0  0  0  0  0  0  0
    2.6548   14.1224    3.5292 O   0  0  0  0  0  0  0  0  0  0  0  0
    1.5928   16.2570    3.0783 O   0  0  0  0  0  0  0  0  0  0  0  0
    1.3608   17.5478    2.3878 P   0  0  1  0  0  0  0  0  0  0  0  0
    2.1594   17.7471    1.1613 O   0  0  0  0  0  0  0  0  0  0  0  0
   -0.0576   17.9561    2.2797 O   0  0  0  0  0  0  0  0  0  0  0  0
    2.0180   18.6203    3.4059 O   0  0  0  0  0  0  0  0  0  0  0  0
    2.0023   20.0128    3.1541 C   0  0  0  0  0  0  0  0  0  0  0  0
    3.1919   20.7416    3.7946 C   0  0  1  0  0  0  0  0  0  0  0  0
    4.3527   19.9389    3.7273 O   0  0  0  0  0  0  0  0  0  0  0  0
    3.6422   21.9931    3.0208 C   0  0  1  0  0  0  0  0  0  0  0  0
    2.8318   23.1431    3.1968 O   0  0  0  0  0  0  0  0  0  0  0  0
    5.0791   22.2042    3.4972 C   0  0  1  0  0  0  0  0  0  0  0  0
    5.1489   23.0642    4.6210 O   0  0  0  0  0  0  0  0  0  0  0  0
    5.4637   20.7925    3.9359 C   0  0  2  0  0  0  0  0  0  0  0  0
    6.6867   20.2453    3.3107 N   0  0  0  0  0  0  0  0  0  0  0  0
    8.0066   20.3917    3.6554 C   0  0  0  0  0  0  0  0  0  0  0  0
    8.8416   19.8416    2.8123 N   0  0  0  0  0  0  0  0  0  0  0  0
    8.0202   19.2650    1.8483 C   0  0  0  0  0  0  0  0  0  0  0  0
    8.3432   18.5557    0.6473 C   0  0  0  0  0  0  0  0  0  0  0  0
    9.4593   18.3339    0.1821 O   0  0  0  0  0  0  0  0  0  0  0  0
    7.2074   18.1031   -0.0377 N   0  0  0  0  0  0  0  0  0  0  0  0
    5.9099   18.2887    0.4151 C   0  0  0  0  0  0  0  0  0  0  0  0
    4.9157   17.7170   -0.2735 N   0  0  0  0  0  0  0  0  0  0  0  0
    5.6100   18.9963    1.5166 N   0  0  0  0  0  0  0  0  0  0  0  0
    6.7014   19.4619    2.1832 C   0  0  0  0  0  0  0  0  0  0  0  0
  1  2  2  0  0  0  0
  1  4  1  0  0  0  0
  1  3  1  0  0  0  0
  5  1  1  0  0  0  0
  6  7  2  6  0  0  0
  6  9  1  0  0  0  0
  6  5  1  0  0  0  0
  6  8  1  0  0  0  0
 10 11  2  6  0  0  0
 10 12  1  0  0  0  0
 10 13  1  0  0  0  0
 10  9  1  0  0  0  0
 13 14  1  0  0  0  0
 15 14  1  6  0  0  0
 15 16  1  0  0  0  0
 17 19  1  0  0  0  0
 17 15  1  0  0  0  0
 17 18  1  1  0  0  0
 19 21  1  0  0  0  0
 19 20  1  1  0  0  0
 21 16  1  0  0  0  0
 21 22  1  6  0  0  0
 22 32  1  0  0  0  0
 23 22  1  0  0  0  0
 23 24  2  0  0  0  0
 24 25  1  0  0  0  0
 25 26  1  0  0  0  0
 26 27  2  0  0  0  0
 26 28  1  0  0  0  0
 29 28  1  0  0  0  0
 29 30  1  0  0  0  0
 31 29  2  0  0  0  0
 32 25  2  0  0  0  0
 32 31  1  0  0  0  0
M  END
>  <CHROM.1>
155.44454287,52.30249618,-66.24366066,-178.79047818,-2.85292766,-151.63576823
36.82940372,58.33950556,55.40872603,-151.07227507,4.39981509,18.02158590
2.31439765,-2.05978061,0.24073867,0.27295164

>  <Name>
lig.pdb

>  <RI>
2.92062e+07

>  <Rbt.Current_Directory>
/home/itssahil/PROJECTS/Mol_Feturizer/New_Systems/rnas/5lwj

>  <Rbt.Executable>
rbdock ($Id: //depot/dev/client3/rdock/2013.1/src/exe/rbdock.cxx#4 $)

>  <Rbt.Library>
libRbt.so (2013.1, Build901 2013/11/27)

>  <Rbt.Parameter_File>
/export/apps/rDock/src/rDock_2013.1_src/data/scripts/dock_solv.prm

>  <Rbt.Receptor>
prm/pocket_docking_7.prm

>  <SCORE>
-25.918

>  <SCORE.INTER>
-20.0657

>  <SCORE.INTER.CONST>
1

>  <SCORE.INTER.POLAR>
-1.71707

>  <SCORE.INTER.ROT>
8

>  <SCORE.INTER.SOLV>
13.0146

>  <SCORE.INTER.VDW>
-20.9251

>  <SCORE.INTER.norm>
-0.627054

>  <SCORE.INTRA>
-5.87142

>  <SCORE.INTRA.DIHEDRAL>
0.0200704

>  <SCORE.INTRA.DIHEDRAL.0>
10.9248

>  <SCORE.INTRA.POLAR>
-1

>  <SCORE.INTRA.POLAR.0>
0

>  <SCORE.INTRA.REPUL>
0

>  <SCORE.INTRA.REPUL.0>
0

>  <SCORE.INTRA.SOLV>
3.81785

>  <SCORE.INTRA.SOLV.lig_0>
-51.4104

>  <SCORE.INTRA.VDW>
-4.39038

>  <SCORE.INTRA.VDW.0>
0.110327

>  <SCORE.INTRA.norm>
-0.183482

>  <SCORE.RESTR>
0.0191486

>  <SCORE.RESTR.CAVITY>
0.0191486

>  <SCORE.RESTR.norm>
0.000598393

>  <SCORE.SYSTEM>
0

>  <SCORE.SYSTEM.CONST>
0

>  <SCORE.SYSTEM.DIHEDRAL>
0

>  <SCORE.SYSTEM.SOLV>
0

>  <SCORE.SYSTEM.norm>
0

>  <SCORE.heavy>
32

>  <SCORE.norm>
-0.809937

>  <RMSD>
8.597

$$$$
lig.pdb
 OpenBabel11021811523D
libRbt.so/2013.1/901 2013/11/27
 32 34  0  0  0  0  0  0  0  0999 V2000
    0.2118   11.6866    5.9694 P   0  0  0  0  0  0  0  0  0  0  0  0
    1.4349   11.7776    6.8490 O   0  0  0  0  0  0  0  0  0  0  0  0
    0.1661   10.1166    5.5623 O   0  0  0  0  0  0  0  0  0  0  0  0
   -1.1414   11.9212    6.5930 O   0  0  0  0  0  0  0  0  0  0  0  0
    0.3695   12.7101    4.9544 O   0  0  0  0  0  0  0  0  0  0  0  0
   -0.8696   12.8011    4.1471 P   0  0  1  0  0  0  0  0  0  0  0  0
   -0.5299   13.4308    2.8494 O   0  0  0  0  0  0  0  0  0  0  0  0
   -1.4143   11.4460    3.8986 O   0  0  0  0  0  0  0  0  0  0  0  0
   -1.8724   13.6207    4.8724 O   0  0  0  0  0  0  0  0  0  0  0  0
   -3.1073   14.1257    4.2267 P   0  0  1  0  0  0  0  0  0  0  0  0
   -3.5899   13.3135    3.0913 O   0  0  0  0  0  0  0  0  0  0  0  0
   -4.1627   14.5804    5.1592 O   0  0  0  0  0  0  0  0  0  0  0  0
   -2.6001   15.4766    3.4940 O   0  0  0  0  0  0  0  0  0  0  0  0
   -3.4096   16.1935    2.5811 C   0  0  0  0  0  0  0  0  0  0  0  0
   -3.0343   15.9187    1.1182 C   0  0  1  0  0  0  0  0  0  0  0  0
   -1.6334   15.7889    0.9874 O   0  0  0  0  0  0  0  0  0  0  0  0
   -3.5161   14.5522    0.6003 C   0  0  1  0  0  0  0  0  0  0  0  0
   -4.8929   14.4762    0.2705 O   0  0  0  0  0  0  0  0  0  0  0  0
   -2.6057   14.2885   -0.5988 C   0  0  1  0  0  0  0  0  0  0  0  0
   -3.1630   14.7694   -1.8093 O   0  0  0  0  0  0  0  0  0  0  0  0
   -1.3874   15.1405   -0.2477 C   0  0  2  0  0  0  0  0  0  0  0  0
   -0.0952   14.4221   -0.2296 N   0  0  0  0  0  0  0  0  0  0  0  0
    0.9704   14.5251    0.6284 C   0  0  0  0  0  0  0  0  0  0  0  0
    2.0027   13.7988    0.2855 N   0  0  0  0  0  0  0  0  0  0  0  0
    1.5884   13.1447   -0.8709 C   0  0  0  0  0  0  0  0  0  0  0  0
    2.2872   12.2441   -1.7373 C   0  0  0  0  0  0  0  0  0  0  0  0
    3.4579   11.8780   -1.6552 O   0  0  0  0  0  0  0  0  0  0  0  0
    1.4897   11.7759   -2.7903 N   0  0  0  0  0  0  0  0  0  0  0  0
    0.1560   12.1172   -2.9572 C   0  0  0  0  0  0  0  0  0  0  0  0
   -0.5274   11.5208   -3.9405 N   0  0  0  0  0  0  0  0  0  0  0  0
   -0.4809   12.9996   -2.1701 N   0  0  0  0  0  0  0  0  0  0  0  0
    0.2859   13.4812   -1.1540 C   0  0  0  0  0  0  0  0  0  0  0  0
  1  2  2  0  0  0  0
  1  4  1  0  0  0  0
  1  3  1  0  0  0  0
  5  1  1  0  0  0  0
  6  7  2  6  0  0  0
  6  9  1  0  0  0  0
  6  5  1  0  0  0  0
  6  8  1  0  0  0  0
 10 11  2  6  0  0  0
 10 12  1  0  0  0  0
 10 13  1  0  0  0  0
 10  9  1  0  0  0  0
 13 14  1  0  0  0  0
 15 14  1  1  0  0  0
 15 16  1  0  0  0  0
 17 19  1  0  0  0  0
 17 15  1  0  0  0  0
 17 18  1  6  0  0  0
 19 21  1  0  0  0  0
 19 20  1  6  0  0  0
 21 16  1  0  0  0  0
 21 22  1  1  0  0  0
 22 32  1  0  0  0  0
 23 22  1  0  0  0  0
 23 24  2  0  0  0  0
 24 25  1  0  0  0  0
 25 26  1  0  0  0  0
 26 27  2  0  0  0  0
 26 28  1  0  0  0  0
 29 28  1  0  0  0  0
 29 30  1  0  0  0  0
 31 29  2  0  0  0  0
 32 25  2  0  0  0  0
 32 31  1  0  0  0  0
M  END
>  <CHROM.1>
-173.03037465,167.49445533,-158.58025901,170.38854389,26.55497315,-101.30510742
-37.45497824,-78.32998012,62.93956949,-15.85023592,-1.01174368,13.36275845
1.93477697,-1.78591223,0.55792211,-1.40326229

>  <Name>
lig.pdb

>  <RI>
0

>  <Rbt.Current_Directory>
/home/itssahil/PROJECTS/Mol_Feturizer/New_Systems/rnas/5lwj

>  <Rbt.Executable>
rbdock ($Id: //depot/dev/client3/rdock/2013.1/src/exe/rbdock.cxx#4 $)

>  <Rbt.Library>
libRbt.so (2013.1, Build901 2013/11/27)

>  <Rbt.Parameter_File>
/export/apps/rDock/src/rDock_2013.1_src/data/scripts/dock_solv.prm

>  <Rbt.Receptor>
prm/pocket_docking_6.prm

>  <SCORE>
-26.9671

>  <SCORE.INTER>
-27.6838

>  <SCORE.INTER.CONST>
1

>  <SCORE.INTER.POLAR>
-2.35539

>  <SCORE.INTER.ROT>
8

>  <SCORE.INTER.SOLV>
21.124

>  <SCORE.INTER.VDW>
-26.5793

>  <SCORE.INTER.norm>
-0.86512

>  <SCORE.INTRA>
0.716728

>  <SCORE.INTRA.DIHEDRAL>
2.76719

>  <SCORE.INTRA.DIHEDRAL.0>
10.9248

>  <SCORE.INTRA.POLAR>
0

>  <SCORE.INTRA.POLAR.0>
0

>  <SCORE.INTRA.REPUL>
0

>  <SCORE.INTRA.REPUL.0>
0

>  <SCORE.INTRA.SOLV>
2.39443

>  <SCORE.INTRA.SOLV.lig_0>
-51.4104

>  <SCORE.INTRA.VDW>
-1.86408

>  <SCORE.INTRA.VDW.0>
0.110327

>  <SCORE.INTRA.norm>
0.0223977

>  <SCORE.RESTR>
0

>  <SCORE.RESTR.CAVITY>
0

>  <SCORE.RESTR.norm>
0

>  <SCORE.SYSTEM>
0

>  <SCORE.SYSTEM.CONST>
0

>  <SCORE.SYSTEM.DIHEDRAL>
0

>  <SCORE.SYSTEM.SOLV>
0

>  <SCORE.SYSTEM.norm>
0

>  <SCORE.heavy>
32

>  <SCORE.norm>
-0.842722

>  <RMSD>
8.603

$$$$
lig.pdb
 OpenBabel11021811523D
libRbt.so/2013.1/901 2013/11/27
 32 34  0  0  0  0  0  0  0  0999 V2000
   -0.3680   11.8933    5.0780 P   0  0  0  0  0  0  0  0  0  0  0  0
    0.9237   11.3943    4.4776 O   0  0  0  0  0  0  0  0  0  0  0  0
   -1.4759   10.8789    4.4647 O   0  0  0  0  0  0  0  0  0  0  0  0
   -0.5667   11.7622    6.5674 O   0  0  0  0  0  0  0  0  0  0  0  0
   -0.4238   13.3131    4.7885 O   0  0  0  0  0  0  0  0  0  0  0  0
   -1.0523   13.5232    3.4631 P   0  0  1  0  0  0  0  0  0  0  0  0
   -0.2280   12.8288    2.4461 O   0  0  0  0  0  0  0  0  0  0  0  0
   -2.4180   12.9492    3.4521 O   0  0  0  0  0  0  0  0  0  0  0  0
   -1.1157   14.9774    3.1717 O   0  0  0  0  0  0  0  0  0  0  0  0
   -1.3240   15.5083    1.8036 P   0  0  1  0  0  0  0  0  0  0  0  0
   -1.0194   14.5562    0.7162 O   0  0  0  0  0  0  0  0  0  0  0  0
   -2.5664   16.2902    1.6159 O   0  0  0  0  0  0  0  0  0  0  0  0
   -0.1325   16.5933    1.6566 O   0  0  0  0  0  0  0  0  0  0  0  0
    0.3337   17.3602    2.7508 C   0  0  0  0  0  0  0  0  0  0  0  0
    1.8622   17.5017    2.7633 C   0  0  1  0  0  0  0  0  0  0  0  0
    2.4673   16.3297    2.2567 O   0  0  0  0  0  0  0  0  0  0  0  0
    2.3947   18.5653    1.7872 C   0  0  1  0  0  0  0  0  0  0  0  0
    2.2580   19.9097    2.2164 O   0  0  0  0  0  0  0  0  0  0  0  0
    3.8529   18.1562    1.5809 C   0  0  1  0  0  0  0  0  0  0  0  0
    4.7218   18.7909    2.5025 O   0  0  0  0  0  0  0  0  0  0  0  0
    3.7983   16.6647    1.9063 C   0  0  2  0  0  0  0  0  0  0  0  0
    4.3191   15.7666    0.8536 N   0  0  0  0  0  0  0  0  0  0  0  0
    5.2165   14.7315    0.9280 C   0  0  0  0  0  0  0  0  0  0  0  0
    5.5263   14.2104   -0.2310 N   0  0  0  0  0  0  0  0  0  0  0  0
    4.7625   14.9326   -1.1429 C   0  0  0  0  0  0  0  0  0  0  0  0
    4.6940   14.8589   -2.5711 C   0  0  0  0  0  0  0  0  0  0  0  0
    5.3514   14.1381   -3.3192 O   0  0  0  0  0  0  0  0  0  0  0  0
    3.7605   15.7507   -3.1163 N   0  0  0  0  0  0  0  0  0  0  0  0
    2.9610   16.5898   -2.3548 C   0  0  0  0  0  0  0  0  0  0  0  0
    2.0331   17.3178   -2.9861 N   0  0  0  0  0  0  0  0  0  0  0  0
    3.0631   16.6900   -1.0194 N   0  0  0  0  0  0  0  0  0  0  0  0
    3.9811   15.8454   -0.4749 C   0  0  0  0  0  0  0  0  0  0  0  0
  1  2  2  0  0  0  0
  1  4  1  0  0  0  0
  1  3  1  0  0  0  0
  5  1  1  0  0  0  0
  6  7  2  6  0  0  0
  6  9  1  0  0  0  0
  6  5  1  0  0  0  0
  6  8  1  0  0  0  0
 10 11  2  6  0  0  0
 10 12  1  0  0  0  0
 10 13  1  0  0  0  0
 10  9  1  0  0  0  0
 13 14  1  0  0  0  0
 15 14  1  6  0  0  0
 15 16  1  0  0  0  0
 17 19  1  0  0  0  0
 17 15  1  0  0  0  0
 17 18  1  1  0  0  0
 19 21  1  0  0  0  0
 19 20  1  1  0  0  0
 21 16  1  0  0  0  0
 21 22  1  6  0  0  0
 22 32  1  0  0  0  0
 23 22  1  0  0  0  0
 23 24  2  0  0  0  0
 24 25  1  0  0  0  0
 25 26  1  0  0  0  0
 26 27  2  0  0  0  0
 26 28  1  0  0  0  0
 29 28  1  0  0  0  0
 29 30  1  0  0  0  0
 31 29  2  0  0  0  0
 32 25  2  0  0  0  0
 32 31  1  0  0  0  0
M  END
>  <CHROM.1>
87.56702154,162.23304957,-60.05260788,-33.85311347,-19.42058517,139.00077651
-33.85642586,87.01901336,166.06160280,-105.27456569,1.36706064,15.13122521
1.71993350,-2.62438480,0.76466030,-0.06762197

>  <Name>
lig.pdb

>  <RI>
0

>  <Rbt.Current_Directory>
/home/itssahil/PROJECTS/Mol_Feturizer/New_Systems/rnas/5lwj

>  <Rbt.Executable>
rbdock ($Id: //depot/dev/client3/rdock/2013.1/src/exe/rbdock.cxx#4 $)

>  <Rbt.Library>
libRbt.so (2013.1, Build901 2013/11/27)

>  <Rbt.Parameter_File>
/export/apps/rDock/src/rDock_2013.1_src/data/scripts/dock_solv.prm

>  <Rbt.Receptor>
prm/pocket_docking_3.prm

>  <SCORE>
-19.6671

>  <SCORE.INTER>
-23.7147

>  <SCORE.INTER.CONST>
1

>  <SCORE.INTER.POLAR>
-3.02849

>  <SCORE.INTER.ROT>
8

>  <SCORE.INTER.SOLV>
13.6388

>  <SCORE.INTER.VDW>
-19.1944

>  <SCORE.INTER.norm>
-0.741085

>  <SCORE.INTRA>
2.1363

>  <SCORE.INTRA.DIHEDRAL>
8.14345

>  <SCORE.INTRA.DIHEDRAL.0>
10.9248

>  <SCORE.INTRA.POLAR>
-0.260091

>  <SCORE.INTRA.POLAR.0>
0

>  <SCORE.INTRA.REPUL>
0.206491

>  <SCORE.INTRA.REPUL.0>
0

>  <SCORE.INTRA.SOLV>
0.101007

>  <SCORE.INTRA.SOLV.lig_0>
-51.4104

>  <SCORE.INTRA.VDW>
-2.13407

>  <SCORE.INTRA.VDW.0>
0.110327

>  <SCORE.INTRA.norm>
0.0667593

>  <SCORE.RESTR>
1.91131

>  <SCORE.RESTR.CAVITY>
1.91131

>  <SCORE.RESTR.norm>
0.0597284

>  <SCORE.SYSTEM>
0

>  <SCORE.SYSTEM.CONST>
0

>  <SCORE.SYSTEM.DIHEDRAL>
0

>  <SCORE.SYSTEM.SOLV>
0

>  <SCORE.SYSTEM.norm>
0

>  <SCORE.heavy>
32

>  <SCORE.norm>
-0.614597

>  <RMSD>
8.604

$$$$
lig.pdb
 OpenBabel11021811523D
libRbt.so/2013.1/901 2013/11/27
 32 34  0  0  0  0  0  0  0  0999 V2000
   -2.0181   14.2437    3.7427 P   0  0  0  0  0  0  0  0  0  0  0  0
   -3.4459   14.0034    4.1687 O   0  0  0  0  0  0  0  0  0  0  0  0
   -2.1778   14.8758    2.2569 O   0  0  0  0  0  0  0  0  0  0  0  0
   -1.2144   15.2875    4.4774 O   0  0  0  0  0  0  0  0  0  0  0  0
   -1.3223   12.9871    3.9415 O   0  0  0  0  0  0  0  0  0  0  0  0
   -0.1192   12.9459    3.0776 P   0  0  1  0  0  0  0  0  0  0  0  0
    0.6897   11.7674    3.4686 O   0  0  0  0  0  0  0  0  0  0  0  0
   -0.5184   12.8082    1.6576 O   0  0  0  0  0  0  0  0  0  0  0  0
    0.6634   14.1938    3.2610 O   0  0  0  0  0  0  0  0  0  0  0  0
    1.9322   14.4528    2.5399 P   0  0  1  0  0  0  0  0  0  0  0  0
    3.1103   14.6490    3.4089 O   0  0  0  0  0  0  0  0  0  0  0  0
    2.1679   13.5960    1.3565 O   0  0  0  0  0  0  0  0  0  0  0  0
    1.7010   15.9346    1.9318 O   0  0  0  0  0  0  0  0  0  0  0  0
    1.1961   17.0031    2.7101 C   0  0  0  0  0  0  0  0  0  0  0  0
    1.7467   18.3663    2.2685 C   0  0  1  0  0  0  0  0  0  0  0  0
    3.1340   18.4415    2.5257 O   0  0  0  0  0  0  0  0  0  0  0  0
    1.7072   18.5875    0.7462 C   0  0  1  0  0  0  0  0  0  0  0  0
    0.4365   18.9176    0.2109 O   0  0  0  0  0  0  0  0  0  0  0  0
    2.7462   19.6860    0.5224 C   0  0  1  0  0  0  0  0  0  0  0  0
    2.1736   20.9811    0.5691 O   0  0  0  0  0  0  0  0  0  0  0  0
    3.6471   19.5044    1.7425 C   0  0  2  0  0  0  0  0  0  0  0  0
    5.0828   19.3099    1.4473 N   0  0  0  0  0  0  0  0  0  0  0  0
    6.0751   20.2253    1.2031 C   0  0  0  0  0  0  0  0  0  0  0  0
    7.2242   19.6917    0.8783 N   0  0  0  0  0  0  0  0  0  0  0  0
    6.9896   18.3211    0.9335 C   0  0  0  0  0  0  0  0  0  0  0  0
    7.8483   17.2128    0.6427 C   0  0  0  0  0  0  0  0  0  0  0  0
    9.0060   17.2465    0.2307 O   0  0  0  0  0  0  0  0  0  0  0  0
    7.2281   15.9748    0.8587 N   0  0  0  0  0  0  0  0  0  0  0  0
    5.9343   15.8344    1.3376 C   0  0  0  0  0  0  0  0  0  0  0  0
    5.4925   14.6000    1.6032 N   0  0  0  0  0  0  0  0  0  0  0  0
    5.1169   16.8760    1.5628 N   0  0  0  0  0  0  0  0  0  0  0  0
    5.6966   18.0866    1.3374 C   0  0  0  0  0  0  0  0  0  0  0  0
  1  2  2  0  0  0  0
  1  4  1  0  0  0  0
  1  3  1  0  0  0  0
  5  1  1  0  0  0  0
  6  7  2  1  0  0  0
  6  9  1  0  0  0  0
  6  5  1  0  0  0  0
  6  8  1  0  0  0  0
 10 11  2  1  0  0  0
 10 12  1  0  0  0  0
 10 13  1  0  0  0  0
 10  9  1  0  0  0  0
 13 14  1  0  0  0  0
 15 14  1  6  0  0  0
 15 16  1  0  0  0  0
 17 19  1  0  0  0  0
 17 15  1  0  0  0  0
 17 18  1  1  0  0  0
 19 21  1  0  0  0  0
 19 20  1  1  0  0  0
 21 16  1  0  0  0  0
 21 22  1  6  0  0  0
 22 32  1  0  0  0  0
 23 22  1  0  0  0  0
 23 24  2  0  0  0  0
 24 25  1  0  0  0  0
 25 26  1  0  0  0  0
 26 27  2  0  0  0  0
 26 28  1  0  0  0  0
 29 28  1  0  0  0  0
 29 30  1  0  0  0  0
 31 29  2  0  0  0  0
 32 25  2  0  0  0  0
 32 31  1  0  0  0  0
M  END
>  <CHROM.1>
157.33175078,179.55445892,170.42152167,47.23599156,-119.69792077,148.41849079
-66.63647842,-60.75392980,179.84818088,-151.96487536,2.32996858,16.10877850
2.10477262,2.53728294,-0.18488438,2.92867899

>  <Name>
lig.pdb

>  <RI>
0

>  <Rbt.Current_Directory>
/home/itssahil/PROJECTS/Mol_Feturizer/New_Systems/rnas/5lwj

>  <Rbt.Executable>
rbdock ($Id: //depot/dev/client3/rdock/2013.1/src/exe/rbdock.cxx#4 $)

>  <Rbt.Library>
libRbt.so (2013.1, Build901 2013/11/27)

>  <Rbt.Parameter_File>
/export/apps/rDock/src/rDock_2013.1_src/data/scripts/dock_solv.prm

>  <Rbt.Receptor>
prm/pocket_docking_4.prm

>  <SCORE>
-36.2997

>  <SCORE.INTER>
-30.5911

>  <SCORE.INTER.CONST>
1

>  <SCORE.INTER.POLAR>
-3.51136

>  <SCORE.INTER.ROT>
8

>  <SCORE.INTER.SOLV>
16.8865

>  <SCORE.INTER.VDW>
-23.2517

>  <SCORE.INTER.norm>
-0.955971

>  <SCORE.INTRA>
-5.70859

>  <SCORE.INTRA.DIHEDRAL>
-0.875209

>  <SCORE.INTRA.DIHEDRAL.0>
10.9248

>  <SCORE.INTRA.POLAR>
-0.485588

>  <SCORE.INTRA.POLAR.0>
0

>  <SCORE.INTRA.REPUL>
0.00184973

>  <SCORE.INTRA.REPUL.0>
0

>  <SCORE.INTRA.SOLV>
1.79969

>  <SCORE.INTRA.SOLV.lig_0>
-51.4104

>  <SCORE.INTRA.VDW>
-4.52908

>  <SCORE.INTRA.VDW.0>
0.110327

>  <SCORE.INTRA.norm>
-0.178393

>  <SCORE.RESTR>
0

>  <SCORE.RESTR.CAVITY>
0

>  <SCORE.RESTR.norm>
0

>  <SCORE.SYSTEM>
0

>  <SCORE.SYSTEM.CONST>
0

>  <SCORE.SYSTEM.DIHEDRAL>
0

>  <SCORE.SYSTEM.SOLV>
0

>  <SCORE.SYSTEM.norm>
0

>  <SCORE.heavy>
32

>  <SCORE.norm>
-1.13436

>  <RMSD>
8.604

$$$$
lig.pdb
 OpenBabel11021811523D
libRbt.so/2013.1/901 2013/11/27
 32 34  0  0  0  0  0  0  0  0999 V2000
   -0.0572   11.6930    6.0333 P   0  0  0  0  0  0  0  0  0  0  0  0
    1.0140   11.9346    7.0688 O   0  0  0  0  0  0  0  0  0  0  0  0
    0.2576   10.1858    5.5215 O   0  0  0  0  0  0  0  0  0  0  0  0
   -1.4926   11.6100    6.4893 O   0  0  0  0  0  0  0  0  0  0  0  0
    0.0093   12.8148    5.1168 O   0  0  0  0  0  0  0  0  0  0  0  0
   -0.3659   12.3645    3.7560 P   0  0  1  0  0  0  0  0  0  0  0  0
    0.7026   11.4678    3.2555 O   0  0  0  0  0  0  0  0  0  0  0  0
   -1.6428   11.6149    3.8032 O   0  0  0  0  0  0  0  0  0  0  0  0
   -0.5085   13.5448    2.8671 O   0  0  0  0  0  0  0  0  0  0  0  0
   -1.4277   14.6667    3.1725 P   0  0  1  0  0  0  0  0  0  0  0  0
   -2.8543   14.2935    3.2581 O   0  0  0  0  0  0  0  0  0  0  0  0
   -0.9616   15.5900    4.2309 O   0  0  0  0  0  0  0  0  0  0  0  0
   -1.3816   15.5456    1.8145 O   0  0  0  0  0  0  0  0  0  0  0  0
   -2.0883   15.1735    0.6462 C   0  0  0  0  0  0  0  0  0  0  0  0
   -1.4391   15.7171   -0.6342 C   0  0  1  0  0  0  0  0  0  0  0  0
   -1.0506   17.0635   -0.4535 O   0  0  0  0  0  0  0  0  0  0  0  0
   -0.0927   15.0553   -0.9762 C   0  0  1  0  0  0  0  0  0  0  0  0
   -0.1779   13.7647   -1.5569 O   0  0  0  0  0  0  0  0  0  0  0  0
    0.5774   16.0746   -1.8971 C   0  0  1  0  0  0  0  0  0  0  0  0
    0.2884   15.8325   -3.2628 O   0  0  0  0  0  0  0  0  0  0  0  0
   -0.1143   17.3684   -1.4717 C   0  0  2  0  0  0  0  0  0  0  0  0
    0.7886   18.4647   -1.0607 N   0  0  0  0  0  0  0  0  0  0  0  0
    1.4529   19.4018   -1.8110 C   0  0  0  0  0  0  0  0  0  0  0  0
    2.2534   20.1696   -1.1178 N   0  0  0  0  0  0  0  0  0  0  0  0
    2.0940   19.7304    0.1930 C   0  0  0  0  0  0  0  0  0  0  0  0
    2.7325   20.1498    1.4040 C   0  0  0  0  0  0  0  0  0  0  0  0
    3.6171   20.9935    1.5344 O   0  0  0  0  0  0  0  0  0  0  0  0
    2.2580   19.4670    2.5321 N   0  0  0  0  0  0  0  0  0  0  0  0
    1.2524   18.5131    2.4887 C   0  0  0  0  0  0  0  0  0  0  0  0
    0.8130   18.0094    3.6475 N   0  0  0  0  0  0  0  0  0  0  0  0
    0.6908   18.0886    1.3450 N   0  0  0  0  0  0  0  0  0  0  0  0
    1.1556   18.7266    0.2362 C   0  0  0  0  0  0  0  0  0  0  0  0
  1  2  2  0  0  0  0
  1  4  1  0  0  0  0
  1  3  1  0  0  0  0
  5  1  1  0  0  0  0
  6  7  2  6  0  0  0
  6  9  1  0  0  0  0
  6  5  1  0  0  0  0
  6  8  1  0  0  0  0
 10 11  2  1  0  0  0
 10 12  1  0  0  0  0
 10 13  1  0  0  0  0
 10  9  1  0  0  0  0
 13 14  1  0  0  0  0
 15 14  1  1  0  0  0
 15 16  1  0  0  0  0
 17 19  1  0  0  0  0
 17 15  1  0  0  0  0
 17 18  1  6  0  0  0
 19 21  1  0  0  0  0
 19 20  1  6  0  0  0
 21 16  1  0  0  0  0
 21 22  1  1  0  0  0
 22 32  1  0  0  0  0
 23 22  1  0  0  0  0
 23 24  2  0  0  0  0
 24 25  1  0  0  0  0
 25 26  1  0  0  0  0
 26 27  2  0  0  0  0
 26 28  1  0  0  0  0
 29 28  1  0  0  0  0
 29 30  1  0  0  0  0
 31 29  2  0  0  0  0
 32 25  2  0  0  0  0
 32 31  1  0  0  0  0
M  END
>  <CHROM.1>
147.74402865,-56.28890543,-68.69012824,77.55140628,-61.19191852,-153.63685338
-43.61820622,56.49481993,-177.21465964,-151.80347366,0.07269398,15.35753456
2.09837670,-2.01165268,-1.07891161,-1.07943410

>  <Name>
lig.pdb

>  <RI>
0

>  <Rbt.Current_Directory>
/home/itssahil/PROJECTS/Mol_Feturizer/New_Systems/rnas/5lwj

>  <Rbt.Executable>
rbdock ($Id: //depot/dev/client3/rdock/2013.1/src/exe/rbdock.cxx#4 $)

>  <Rbt.Library>
libRbt.so (2013.1, Build901 2013/11/27)

>  <Rbt.Parameter_File>
/export/apps/rDock/src/rDock_2013.1_src/data/scripts/dock_solv.prm

>  <Rbt.Receptor>
prm/pocket_docking_4.prm

>  <SCORE>
-28.456

>  <SCORE.INTER>
-25.1248

>  <SCORE.INTER.CONST>
1

>  <SCORE.INTER.POLAR>
-3.19004

>  <SCORE.INTER.ROT>
8

>  <SCORE.INTER.SOLV>
17.5079

>  <SCORE.INTER.VDW>
-20.8857

>  <SCORE.INTER.norm>
-0.785149

>  <SCORE.INTRA>
-3.38475

>  <SCORE.INTRA.DIHEDRAL>
-2.2079

>  <SCORE.INTRA.DIHEDRAL.0>
10.9248

>  <SCORE.INTRA.POLAR>
-0.952996

>  <SCORE.INTRA.POLAR.0>
0

>  <SCORE.INTRA.REPUL>
1

>  <SCORE.INTRA.REPUL.0>
0

>  <SCORE.INTRA.SOLV>
0.29427

>  <SCORE.INTRA.SOLV.lig_0>
-51.4104

>  <SCORE.INTRA.VDW>
-4.18774

>  <SCORE.INTRA.VDW.0>
0.110327

>  <SCORE.INTRA.norm>
-0.105773

>  <SCORE.RESTR>
0.0534769

>  <SCORE.RESTR.CAVITY>
0.0534769

>  <SCORE.RESTR.norm>
0.00167115

>  <SCORE.SYSTEM>
0

>  <SCORE.SYSTEM.CONST>
0

>  <SCORE.SYSTEM.DIHEDRAL>
0

>  <SCORE.SYSTEM.SOLV>
0

>  <SCORE.SYSTEM.norm>
0

>  <SCORE.heavy>
32

>  <SCORE.norm>
-0.889251

>  <RMSD>
8.613

$$$$
lig.pdb
 OpenBabel11021811523D
libRbt.so/2013.1/901 2013/11/27
 32 34  0  0  0  0  0  0  0  0999 V2000
    0.5777   11.1924    5.7153 P   0  0  0  0  0  0  0  0  0  0  0  0
    0.6459    9.7630    6.1948 O   0  0  0  0  0  0  0  0  0  0  0  0
   -0.8459   11.7093    6.2974 O   0  0  0  0  0  0  0  0  0  0  0  0
    1.5623   12.1873    6.2775 O   0  0  0  0  0  0  0  0  0  0  0  0
    0.8214   11.1492    4.2865 O   0  0  0  0  0  0  0  0  0  0  0  0
    0.1535   12.3009    3.6359 P   0  0  1  0  0  0  0  0  0  0  0  0
    0.3157   13.4843    4.5129 O   0  0  0  0  0  0  0  0  0  0  0  0
    0.7856   12.5804    2.3256 O   0  0  0  0  0  0  0  0  0  0  0  0
   -1.2860   11.9931    3.4442 O   0  0  0  0  0  0  0  0  0  0  0  0
   -2.3401   13.0327    3.5148 P   0  0  1  0  0  0  0  0  0  0  0  0
   -3.1971   13.1291    2.3156 O   0  0  0  0  0  0  0  0  0  0  0  0
   -3.0633   13.1070    4.8038 O   0  0  0  0  0  0  0  0  0  0  0  0
   -1.4903   14.4080    3.4434 O   0  0  0  0  0  0  0  0  0  0  0  0
   -2.0898   15.6791    3.6097 C   0  0  0  0  0  0  0  0  0  0  0  0
   -1.0972   16.7390    4.1074 C   0  0  1  0  0  0  0  0  0  0  0  0
    0.1161   16.6503    3.3888 O   0  0  0  0  0  0  0  0  0  0  0  0
   -1.5274   18.1842    3.8007 C   0  0  1  0  0  0  0  0  0  0  0  0
   -2.5321   18.7143    4.6490 O   0  0  0  0  0  0  0  0  0  0  0  0
   -0.2164   18.9662    3.8772 C   0  0  1  0  0  0  0  0  0  0  0  0
    0.0256   19.4786    5.1756 O   0  0  0  0  0  0  0  0  0  0  0  0
    0.8074   17.8712    3.5838 C   0  0  2  0  0  0  0  0  0  0  0  0
    1.7313   18.1504    2.4638 N   0  0  0  0  0  0  0  0  0  0  0  0
    1.8414   19.2507    1.6516 C   0  0  0  0  0  0  0  0  0  0  0  0
    2.7156   19.1164    0.6880 N   0  0  0  0  0  0  0  0  0  0  0  0
    3.2454   17.8448    0.8852 C   0  0  0  0  0  0  0  0  0  0  0  0
    4.2151   17.1085    0.1318 C   0  0  0  0  0  0  0  0  0  0  0  0
    4.7742   17.4478   -0.9091 O   0  0  0  0  0  0  0  0  0  0  0  0
    4.5021   15.8569    0.6933 N   0  0  0  0  0  0  0  0  0  0  0  0
    3.9369   15.3934    1.8717 C   0  0  0  0  0  0  0  0  0  0  0  0
    4.3718   14.2270    2.3616 N   0  0  0  0  0  0  0  0  0  0  0  0
    2.9923   16.0669    2.5485 N   0  0  0  0  0  0  0  0  0  0  0  0
    2.6856   17.2764    2.0048 C   0  0  0  0  0  0  0  0  0  0  0  0
  1  2  2  0  0  0  0
  1  4  1  0  0  0  0
  1  3  1  0  0  0  0
  5  1  1  0  0  0  0
  6  7  2  1  0  0  0
  6  9  1  0  0  0  0
  6  5  1  0  0  0  0
  6  8  1  0  0  0  0
 10 11  2  6  0  0  0
 10 12  1  0  0  0  0
 10 13  1  0  0  0  0
 10  9  1  0  0  0  0
 13 14  1  0  0  0  0
 15 14  1  6  0  0  0
 15 16  1  0  0  0  0
 17 19  1  0  0  0  0
 17 15  1  0  0  0  0
 17 18  1  1  0  0  0
 19 21  1  0  0  0  0
 19 20  1  1  0  0  0
 21 16  1  0  0  0  0
 21 22  1  6  0  0  0
 22 32  1  0  0  0  0
 23 22  1  0  0  0  0
 23 24  2  0  0  0  0
 24 25  1  0  0  0  0
 25 26  1  0  0  0  0
 26 27  2  0  0  0  0
 26 28  1  0  0  0  0
 29 28  1  0  0  0  0
 29 30  1  0  0  0  0
 31 29  2  0  0  0  0
 32 25  2  0  0  0  0
 32 31  1  0  0  0  0
M  END
>  <CHROM.1>
152.51177805,146.88424888,39.36496439,-173.74579518,124.02624360,154.94668604
44.89940300,71.19874879,-169.74760085,125.63977710,0.52984285,14.89344147
3.40452324,-2.06049913,0.45056533,-0.24517119

>  <Name>
lig.pdb

>  <RI>
2.92062e+07

>  <Rbt.Current_Directory>
/home/itssahil/PROJECTS/Mol_Feturizer/New_Systems/rnas/5lwj

>  <Rbt.Executable>
rbdock ($Id: //depot/dev/client3/rdock/2013.1/src/exe/rbdock.cxx#4 $)

>  <Rbt.Library>
libRbt.so (2013.1, Build901 2013/11/27)

>  <Rbt.Parameter_File>
/export/apps/rDock/src/rDock_2013.1_src/data/scripts/dock_solv.prm

>  <Rbt.Receptor>
prm/pocket_docking_7.prm

>  <SCORE>
-34.8944

>  <SCORE.INTER>
-36.5791

>  <SCORE.INTER.CONST>
1

>  <SCORE.INTER.POLAR>
-3.04795

>  <SCORE.INTER.ROT>
8

>  <SCORE.INTER.SOLV>
23.8866

>  <SCORE.INTER.VDW>
-31.1218

>  <SCORE.INTER.norm>
-1.1431

>  <SCORE.INTRA>
1.68474

>  <SCORE.INTRA.DIHEDRAL>
1.27875

>  <SCORE.INTRA.DIHEDRAL.0>
10.9248

>  <SCORE.INTRA.POLAR>
-0.0825671

>  <SCORE.INTRA.POLAR.0>
0

>  <SCORE.INTRA.REPUL>
0.0472153

>  <SCORE.INTRA.REPUL.0>
0

>  <SCORE.INTRA.SOLV>
0.644743

>  <SCORE.INTRA.SOLV.lig_0>
-51.4104

>  <SCORE.INTRA.VDW>
0.767643

>  <SCORE.INTRA.VDW.0>
0.110327

>  <SCORE.INTRA.norm>
0.0526481

>  <SCORE.RESTR>
0

>  <SCORE.RESTR.CAVITY>
0

>  <SCORE.RESTR.norm>
0

>  <SCORE.SYSTEM>
0

>  <SCORE.SYSTEM.CONST>
0

>  <SCORE.SYSTEM.DIHEDRAL>
0

>  <SCORE.SYSTEM.SOLV>
0

>  <SCORE.SYSTEM.norm>
0

>  <SCORE.heavy>
32

>  <SCORE.norm>
-1.09045

>  <RMSD>
8.614

$$$$
lig.pdb
 OpenBabel11021811523D
libRbt.so/2013.1/901 2013/11/27
 32 34  0  0  0  0  0  0  0  0999 V2000
   -0.6632   11.5026    5.4270 P   0  0  0  0  0  0  0  0  0  0  0  0
   -1.7660   11.8092    6.4107 O   0  0  0  0  0  0  0  0  0  0  0  0
    0.5739   12.4028    5.9673 O   0  0  0  0  0  0  0  0  0  0  0  0
   -0.0898   10.1077    5.4013 O   0  0  0  0  0  0  0  0  0  0  0  0
   -1.2246   11.7308    4.1097 O   0  0  0  0  0  0  0  0  0  0  0  0
   -0.2828   12.5436    3.3048 P   0  0  1  0  0  0  0  0  0  0  0  0
   -0.1278   13.8606    3.9662 O   0  0  0  0  0  0  0  0  0  0  0  0
    1.0383   11.8762    3.2419 O   0  0  0  0  0  0  0  0  0  0  0  0
   -0.8253   12.7146    1.9336 O   0  0  0  0  0  0  0  0  0  0  0  0
   -1.1389   14.0450    1.3602 P   0  0  1  0  0  0  0  0  0  0  0  0
   -1.8474   14.0102    0.0646 O   0  0  0  0  0  0  0  0  0  0  0  0
   -1.6578   15.0387    2.3264 O   0  0  0  0  0  0  0  0  0  0  0  0
    0.3200   14.6059    0.9412 O   0  0  0  0  0  0  0  0  0  0  0  0
    1.2324   15.1276    1.8888 C   0  0  0  0  0  0  0  0  0  0  0  0
    2.6752   15.1556    1.3653 C   0  0  1  0  0  0  0  0  0  0  0  0
    3.0780   13.8607    0.9687 O   0  0  0  0  0  0  0  0  0  0  0  0
    2.8439   15.9418    0.0533 C   0  0  1  0  0  0  0  0  0  0  0  0
    2.8554   17.3533    0.1857 O   0  0  0  0  0  0  0  0  0  0  0  0
    4.1485   15.3916   -0.5223 C   0  0  1  0  0  0  0  0  0  0  0  0
    5.2751   16.1441   -0.1080 O   0  0  0  0  0  0  0  0  0  0  0  0
    4.2118   14.0133    0.1334 C   0  0  2  0  0  0  0  0  0  0  0  0
    4.3503   12.8737   -0.7983 N   0  0  0  0  0  0  0  0  0  0  0  0
    5.1491   11.7601   -0.7328 C   0  0  0  0  0  0  0  0  0  0  0  0
    5.0858   10.9959   -1.7924 N   0  0  0  0  0  0  0  0  0  0  0  0
    4.1598   11.6312   -2.6143 C   0  0  0  0  0  0  0  0  0  0  0  0
    3.6952   11.3028   -3.9282 C   0  0  0  0  0  0  0  0  0  0  0  0
    4.0624   10.3743   -4.6453 O   0  0  0  0  0  0  0  0  0  0  0  0
    2.7210   12.1941   -4.3977 N   0  0  0  0  0  0  0  0  0  0  0  0
    2.2307   13.2593   -3.6574 C   0  0  0  0  0  0  0  0  0  0  0  0
    1.2252   13.9744   -4.1744 N   0  0  0  0  0  0  0  0  0  0  0  0
    2.7040   13.5917   -2.4453 N   0  0  0  0  0  0  0  0  0  0  0  0
    3.6669   12.7483   -1.9826 C   0  0  0  0  0  0  0  0  0  0  0  0
  1  2  2  0  0  0  0
  1  4  1  0  0  0  0
  1  3  1  0  0  0  0
  5  1  1  0  0  0  0
  6  7  2  1  0  0  0
  6  9  1  0  0  0  0
  6  5  1  0  0  0  0
  6  8  1  0  0  0  0
 10 11  2  6  0  0  0
 10 12  1  0  0  0  0
 10 13  1  0  0  0  0
 10  9  1  0  0  0  0
 13 14  1  0  0  0  0
 15 14  1  6  0  0  0
 15 16  1  0  0  0  0
 17 19  1  0  0  0  0
 17 15  1  0  0  0  0
 17 18  1  1  0  0  0
 19 21  1  0  0  0  0
 19 20  1  1  0  0  0
 21 16  1  0  0  0  0
 21 22  1  6  0  0  0
 22 32  1  0  0  0  0
 23 22  1  0  0  0  0
 23 24  2  0  0  0  0
 24 25  1  0  0  0  0
 25 26  1  0  0  0  0
 26 27  2  0  0  0  0
 26 28  1  0  0  0  0
 29 28  1  0  0  0  0
 29 30  1  0  0  0  0
 31 29  2  0  0  0  0
 32 25  2  0  0  0  0
 32 31  1  0  0  0  0
M  END
>  <CHROM.1>
132.72704754,119.30132157,-62.75397043,-77.18275599,-171.64765394,160.77230825
-56.69755639,-65.75216068,178.59147492,-99.27826697,1.45962823,13.21474594
0.93241253,-3.01050905,1.01112353,-0.06422949

>  <Name>
lig.pdb

>  <RI>
2.0892e+07

>  <Rbt.Current_Directory>
/home/itssahil/PROJECTS/Mol_Feturizer/New_Systems/rnas/5lwj

>  <Rbt.Executable>
rbdock ($Id: //depot/dev/client3/rdock/2013.1/src/exe/rbdock.cxx#4 $)

>  <Rbt.Library>
libRbt.so (2013.1, Build901 2013/11/27)

>  <Rbt.Parameter_File>
/export/apps/rDock/src/rDock_2013.1_src/data/scripts/dock_solv.prm

>  <Rbt.Receptor>
prm/pocket_docking_8.prm

>  <SCORE>
-29.3473

>  <SCORE.INTER>
-27.1924

>  <SCORE.INTER.CONST>
1

>  <SCORE.INTER.POLAR>
-3.35153

>  <SCORE.INTER.ROT>
8

>  <SCORE.INTER.SOLV>
20.039

>  <SCORE.INTER.VDW>
-22.5695

>  <SCORE.INTER.norm>
-0.849762

>  <SCORE.INTRA>
-2.17379

>  <SCORE.INTRA.DIHEDRAL>
-1.00679

>  <SCORE.INTRA.DIHEDRAL.0>
10.9248

>  <SCORE.INTRA.POLAR>
0

>  <SCORE.INTRA.POLAR.0>
0

>  <SCORE.INTRA.REPUL>
0.153381

>  <SCORE.INTRA.REPUL.0>
0

>  <SCORE.INTRA.SOLV>
-0.307778

>  <SCORE.INTRA.SOLV.lig_0>
-51.4104

>  <SCORE.INTRA.VDW>
-2.2834

>  <SCORE.INTRA.VDW.0>
0.110327

>  <SCORE.INTRA.norm>
-0.0679308

>  <SCORE.RESTR>
0.0188716

>  <SCORE.RESTR.CAVITY>
0.0188716

>  <SCORE.RESTR.norm>
0.000589736

>  <SCORE.SYSTEM>
0

>  <SCORE.SYSTEM.CONST>
0

>  <SCORE.SYSTEM.DIHEDRAL>
0

>  <SCORE.SYSTEM.SOLV>
0

>  <SCORE.SYSTEM.norm>
0

>  <SCORE.heavy>
32

>  <SCORE.norm>
-0.917103

>  <RMSD>
8.617

$$$$
lig.pdb
 OpenBabel11021811523D
libRbt.so/2013.1/901 2013/11/27
 32 34  0  0  0  0  0  0  0  0999 V2000
   -1.9333   13.0488    3.4577 P   0  0  0  0  0  0  0  0  0  0  0  0
   -3.3313   13.3037    2.9490 O   0  0  0  0  0  0  0  0  0  0  0  0
   -1.6741   14.2946    4.4643 O   0  0  0  0  0  0  0  0  0  0  0  0
   -1.6948   11.8430    4.3319 O   0  0  0  0  0  0  0  0  0  0  0  0
   -1.1054   12.8628    2.2818 O   0  0  0  0  0  0  0  0  0  0  0  0
    0.3002   13.1993    2.6084 P   0  0  1  0  0  0  0  0  0  0  0  0
    0.7830   12.2315    3.6215 O   0  0  0  0  0  0  0  0  0  0  0  0
    1.1435   13.0898    1.3953 O   0  0  0  0  0  0  0  0  0  0  0  0
    0.3654   14.5826    3.1428 O   0  0  0  0  0  0  0  0  0  0  0  0
    0.5713   15.7648    2.2728 P   0  0  1  0  0  0  0  0  0  0  0  0
    0.0015   17.0243    2.7931 O   0  0  0  0  0  0  0  0  0  0  0  0
    1.9268   15.8886    1.6920 O   0  0  0  0  0  0  0  0  0  0  0  0
   -0.3876   15.4485    1.0081 O   0  0  0  0  0  0  0  0  0  0  0  0
   -0.7276   16.4327    0.0497 C   0  0  0  0  0  0  0  0  0  0  0  0
    0.4869   16.9185   -0.7534 C   0  0  1  0  0  0  0  0  0  0  0  0
    1.2822   17.7812    0.0338 O   0  0  0  0  0  0  0  0  0  0  0  0
    1.4920   15.8040   -1.0933 C   0  0  1  0  0  0  0  0  0  0  0  0
    1.1169   14.9497   -2.1608 O   0  0  0  0  0  0  0  0  0  0  0  0
    2.7850   16.5690   -1.3750 C   0  0  1  0  0  0  0  0  0  0  0  0
    2.9236   16.8984   -2.7459 O   0  0  0  0  0  0  0  0  0  0  0  0
    2.5553   17.8548   -0.5829 C   0  0  2  0  0  0  0  0  0  0  0  0
    3.6089   18.1920    0.3981 N   0  0  0  0  0  0  0  0  0  0  0  0
    3.5141   18.5817    1.7101 C   0  0  0  0  0  0  0  0  0  0  0  0
    4.6599   18.8975    2.2563 N   0  0  0  0  0  0  0  0  0  0  0  0
    5.5898   18.6796    1.2442 C   0  0  0  0  0  0  0  0  0  0  0  0
    7.0066   18.8845    1.2159 C   0  0  0  0  0  0  0  0  0  0  0  0
    7.7168   19.3503    2.1047 O   0  0  0  0  0  0  0  0  0  0  0  0
    7.5856   18.5040   -0.0023 N   0  0  0  0  0  0  0  0  0  0  0  0
    6.8715   17.9536   -1.0559 C   0  0  0  0  0  0  0  0  0  0  0  0
    7.5544   17.5325   -2.1264 N   0  0  0  0  0  0  0  0  0  0  0  0
    5.5364   17.8084   -1.0426 N   0  0  0  0  0  0  0  0  0  0  0  0
    4.9547   18.1933    0.1261 C   0  0  0  0  0  0  0  0  0  0  0  0
  1  2  2  0  0  0  0
  1  4  1  0  0  0  0
  1  3  1  0  0  0  0
  5  1  1  0  0  0  0
  6  7  2  1  0  0  0
  6  9  1  0  0  0  0
  6  5  1  0  0  0  0
  6  8  1  0  0  0  0
 10 11  2  1  0  0  0
 10 12  1  0  0  0  0
 10 13  1  0  0  0  0
 10  9  1  0  0  0  0
 13 14  1  0  0  0  0
 15 14  1  1  0  0  0
 15 16  1  0  0  0  0
 17 19  1  0  0  0  0
 17 15  1  0  0  0  0
 17 18  1  6  0  0  0
 19 21  1  0  0  0  0
 19 20  1  6  0  0  0
 21 16  1  0  0  0  0
 21 22  1  1  0  0  0
 22 32  1  0  0  0  0
 23 22  1  0  0  0  0
 23 24  2  0  0  0  0
 24 25  1  0  0  0  0
 25 26  1  0  0  0  0
 26 27  2  0  0  0  0
 26 28  1  0  0  0  0
 29 28  1  0  0  0  0
 29 30  1  0  0  0  0
 31 29  2  0  0  0  0
 32 25  2  0  0  0  0
 32 31  1  0  0  0  0
M  END
>  <CHROM.1>
155.17923140,-90.32227327,64.29207046,166.44417758,152.50887415,65.14587188
-75.18593319,-176.41052939,60.16904986,-8.61767960,1.86872248,15.88234336
1.21536404,-2.68738445,-0.54069691,-1.39220771

>  <Name>
lig.pdb

>  <RI>
0

>  <Rbt.Current_Directory>
/home/itssahil/PROJECTS/Mol_Feturizer/New_Systems/rnas/5lwj

>  <Rbt.Executable>
rbdock ($Id: //depot/dev/client3/rdock/2013.1/src/exe/rbdock.cxx#4 $)

>  <Rbt.Library>
libRbt.so (2013.1, Build901 2013/11/27)

>  <Rbt.Parameter_File>
/export/apps/rDock/src/rDock_2013.1_src/data/scripts/dock_solv.prm

>  <Rbt.Receptor>
prm/pocket_docking_4.prm

>  <SCORE>
-24.7904

>  <SCORE.INTER>
-20.2577

>  <SCORE.INTER.CONST>
1

>  <SCORE.INTER.POLAR>
-2.7716

>  <SCORE.INTER.ROT>
8

>  <SCORE.INTER.SOLV>
11.1975

>  <SCORE.INTER.VDW>
-16.9323

>  <SCORE.INTER.norm>
-0.633052

>  <SCORE.INTRA>
-4.53276

>  <SCORE.INTRA.DIHEDRAL>
-4.47911

>  <SCORE.INTRA.DIHEDRAL.0>
10.9248

>  <SCORE.INTRA.POLAR>
0

>  <SCORE.INTRA.POLAR.0>
0

>  <SCORE.INTRA.REPUL>
0

>  <SCORE.INTRA.REPUL.0>
0

>  <SCORE.INTRA.SOLV>
2.53436

>  <SCORE.INTRA.SOLV.lig_0>
-51.4104

>  <SCORE.INTRA.VDW>
-3.56039

>  <SCORE.INTRA.VDW.0>
0.110327

>  <SCORE.INTRA.norm>
-0.141649

>  <SCORE.RESTR>
0

>  <SCORE.RESTR.CAVITY>
0

>  <SCORE.RESTR.norm>
0

>  <SCORE.SYSTEM>
0

>  <SCORE.SYSTEM.CONST>
0

>  <SCORE.SYSTEM.DIHEDRAL>
0

>  <SCORE.SYSTEM.SOLV>
0

>  <SCORE.SYSTEM.norm>
0

>  <SCORE.heavy>
32

>  <SCORE.norm>
-0.774701

>  <RMSD>
8.631

$$$$
lig.pdb
 OpenBabel11021811523D
libRbt.so/2013.1/901 2013/11/27
 32 34  0  0  0  0  0  0  0  0999 V2000
   -5.0495   16.4550    1.7686 P   0  0  0  0  0  0  0  0  0  0  0  0
   -6.1583   17.0462    0.9326 O   0  0  0  0  0  0  0  0  0  0  0  0
   -3.8109   17.4708    1.5100 O   0  0  0  0  0  0  0  0  0  0  0  0
   -5.1969   16.4653    3.2697 O   0  0  0  0  0  0  0  0  0  0  0  0
   -4.9556   15.0602    1.3834 O   0  0  0  0  0  0  0  0  0  0  0  0
   -3.5605   14.5921    1.5571 P   0  0  1  0  0  0  0  0  0  0  0  0
   -3.5241   13.1367    1.2804 O   0  0  0  0  0  0  0  0  0  0  0  0
   -2.6686   15.2881    0.6006 O   0  0  0  0  0  0  0  0  0  0  0  0
   -3.1175   14.8651    2.9473 O   0  0  0  0  0  0  0  0  0  0  0  0
   -1.9015   14.2514    3.5319 P   0  0  1  0  0  0  0  0  0  0  0  0
   -1.1714   15.1102    4.4865 O   0  0  0  0  0  0  0  0  0  0  0  0
   -2.0505   12.8405    3.9528 O   0  0  0  0  0  0  0  0  0  0  0  0
   -0.8881   14.1968    2.2715 O   0  0  0  0  0  0  0  0  0  0  0  0
    0.4852   13.8869    2.4157 C   0  0  0  0  0  0  0  0  0  0  0  0
    1.2128   13.7898    1.0676 C   0  0  1  0  0  0  0  0  0  0  0  0
    0.6216   12.7908    0.2621 O   0  0  0  0  0  0  0  0  0  0  0  0
    1.0437   15.0355    0.1803 C   0  0  1  0  0  0  0  0  0  0  0  0
    1.8398   16.1524    0.5393 O   0  0  0  0  0  0  0  0  0  0  0  0
    1.3552   14.5143   -1.2224 C   0  0  1  0  0  0  0  0  0  0  0  0
    2.7254   14.6558   -1.5534 O   0  0  0  0  0  0  0  0  0  0  0  0
    1.0387   13.0276   -1.0707 C   0  0  2  0  0  0  0  0  0  0  0  0
    0.0663   12.4839   -2.0427 N   0  0  0  0  0  0  0  0  0  0  0  0
   -1.1435   12.9752   -2.4639 C   0  0  0  0  0  0  0  0  0  0  0  0
   -1.7918   12.1753   -3.2705 N   0  0  0  0  0  0  0  0  0  0  0  0
   -0.9436   11.0821   -3.4186 C   0  0  0  0  0  0  0  0  0  0  0  0
   -1.1111    9.8600   -4.1456 C   0  0  0  0  0  0  0  0  0  0  0  0
   -2.0958    9.4940   -4.7841 O   0  0  0  0  0  0  0  0  0  0  0  0
    0.0093    9.0223   -4.0640 N   0  0  0  0  0  0  0  0  0  0  0  0
    1.1713    9.3539   -3.3837 C   0  0  0  0  0  0  0  0  0  0  0  0
    2.2107    8.5160   -3.4686 N   0  0  0  0  0  0  0  0  0  0  0  0
    1.3055   10.4796   -2.6636 N   0  0  0  0  0  0  0  0  0  0  0  0
    0.2175   11.2958   -2.7142 C   0  0  0  0  0  0  0  0  0  0  0  0
  1  2  2  0  0  0  0
  1  4  1  0  0  0  0
  1  3  1  0  0  0  0
  5  1  1  0  0  0  0
  6  7  2  6  0  0  0
  6  9  1  0  0  0  0
  6  5  1  0  0  0  0
  6  8  1  0  0  0  0
 10 11  2  1  0  0  0
 10 12  1  0  0  0  0
 10 13  1  0  0  0  0
 10  9  1  0  0  0  0
 13 14  1  0  0  0  0
 15 14  1  1  0  0  0
 15 16  1  0  0  0  0
 17 19  1  0  0  0  0
 17 15  1  0  0  0  0
 17 18  1  1  0  0  0
 19 21  1  0  0  0  0
 19 20  1  1  0  0  0
 21 16  1  0  0  0  0
 21 22  1  6  0  0  0
 22 32  1  0  0  0  0
 23 22  1  0  0  0  0
 23 24  2  0  0  0  0
 24 25  1  0  0  0  0
 25 26  1  0  0  0  0
 26 27  2  0  0  0  0
 26 28  1  0  0  0  0
 29 28  1  0  0  0  0
 29 30  1  0  0  0  0
 31 29  2  0  0  0  0
 32 25  2  0  0  0  0
 32 31  1  0  0  0  0
M  END
>  <CHROM.1>
150.44404916,165.75248767,174.68619100,169.12206778,145.94112922,175.50835963
-59.24744315,58.31865360,-67.61561538,77.99879634,-1.41034274,13.61363426
0.15424603,2.08475297,-0.11688644,0.90360572

>  <Name>
lig.pdb

>  <RI>
2.0892e+07

>  <Rbt.Current_Directory>
/home/itssahil/PROJECTS/Mol_Feturizer/New_Systems/rnas/5lwj

>  <Rbt.Executable>
rbdock ($Id: //depot/dev/client3/rdock/2013.1/src/exe/rbdock.cxx#4 $)

>  <Rbt.Library>
libRbt.so (2013.1, Build901 2013/11/27)

>  <Rbt.Parameter_File>
/export/apps/rDock/src/rDock_2013.1_src/data/scripts/dock_solv.prm

>  <Rbt.Receptor>
prm/pocket_docking_8.prm

>  <SCORE>
-22.6732

>  <SCORE.INTER>
-16.1896

>  <SCORE.INTER.CONST>
1

>  <SCORE.INTER.POLAR>
-1.13927

>  <SCORE.INTER.ROT>
8

>  <SCORE.INTER.SOLV>
15.0284

>  <SCORE.INTER.VDW>
-20.9383

>  <SCORE.INTER.norm>
-0.505926

>  <SCORE.INTRA>
-6.48357

>  <SCORE.INTRA.DIHEDRAL>
-5.31098

>  <SCORE.INTRA.DIHEDRAL.0>
10.9248

>  <SCORE.INTRA.POLAR>
0

>  <SCORE.INTRA.POLAR.0>
0

>  <SCORE.INTRA.REPUL>
0

>  <SCORE.INTRA.REPUL.0>
0

>  <SCORE.INTRA.SOLV>
-0.880332

>  <SCORE.INTRA.SOLV.lig_0>
-51.4104

>  <SCORE.INTRA.VDW>
-3.38791

>  <SCORE.INTRA.VDW.0>
0.110327

>  <SCORE.INTRA.norm>
-0.202611

>  <SCORE.RESTR>
0

>  <SCORE.RESTR.CAVITY>
0

>  <SCORE.RESTR.norm>
0

>  <SCORE.SYSTEM>
0

>  <SCORE.SYSTEM.CONST>
0

>  <SCORE.SYSTEM.DIHEDRAL>
0

>  <SCORE.SYSTEM.SOLV>
0

>  <SCORE.SYSTEM.norm>
0

>  <SCORE.heavy>
32

>  <SCORE.norm>
-0.708538

>  <RMSD>
8.635

$$$$
lig.pdb
 OpenBabel11021811523D
libRbt.so/2013.1/901 2013/11/27
 32 34  0  0  0  0  0  0  0  0999 V2000
   -1.7831   13.0598    3.8897 P   0  0  0  0  0  0  0  0  0  0  0  0
   -1.5746   11.6133    4.2667 O   0  0  0  0  0  0  0  0  0  0  0  0
   -3.0583   13.0000    2.8883 O   0  0  0  0  0  0  0  0  0  0  0  0
   -2.2293   14.0247    4.9597 O   0  0  0  0  0  0  0  0  0  0  0  0
   -0.4978   13.5429    3.4233 O   0  0  0  0  0  0  0  0  0  0  0  0
   -0.6952   14.4035    2.2334 P   0  0  1  0  0  0  0  0  0  0  0  0
   -1.0966   13.5381    1.0993 O   0  0  0  0  0  0  0  0  0  0  0  0
   -1.7699   15.3896    2.4925 O   0  0  0  0  0  0  0  0  0  0  0  0
    0.5716   15.1111    1.9202 O   0  0  0  0  0  0  0  0  0  0  0  0
    1.8625   14.4011    1.7571 P   0  0  1  0  0  0  0  0  0  0  0  0
    2.8266   14.6070    2.8570 O   0  0  0  0  0  0  0  0  0  0  0  0
    1.7551   13.0053    1.2772 O   0  0  0  0  0  0  0  0  0  0  0  0
    2.5577   15.2011    0.5342 O   0  0  0  0  0  0  0  0  0  0  0  0
    3.9456   15.1231    0.2690 C   0  0  0  0  0  0  0  0  0  0  0  0
    4.4018   13.6977   -0.0724 C   0  0  1  0  0  0  0  0  0  0  0  0
    3.3595   12.9889   -0.7107 O   0  0  0  0  0  0  0  0  0  0  0  0
    5.5078   13.6396   -1.1406 C   0  0  1  0  0  0  0  0  0  0  0  0
    6.8124   13.9574   -0.6854 O   0  0  0  0  0  0  0  0  0  0  0  0
    5.4015   12.2138   -1.6811 C   0  0  1  0  0  0  0  0  0  0  0  0
    6.2436   11.3133   -0.9832 O   0  0  0  0  0  0  0  0  0  0  0  0
    3.9474   11.8749   -1.3586 C   0  0  2  0  0  0  0  0  0  0  0  0
    3.1305   11.4286   -2.5073 N   0  0  0  0  0  0  0  0  0  0  0  0
    2.7412   10.1696   -2.8893 C   0  0  0  0  0  0  0  0  0  0  0  0
    2.0969   10.1333   -4.0269 N   0  0  0  0  0  0  0  0  0  0  0  0
    2.0292   11.4662   -4.4214 C   0  0  0  0  0  0  0  0  0  0  0  0
    1.4824   12.0658   -5.6010 C   0  0  0  0  0  0  0  0  0  0  0  0
    0.9730   11.4990   -6.5656 O   0  0  0  0  0  0  0  0  0  0  0  0
    1.5879   13.4632   -5.5980 N   0  0  0  0  0  0  0  0  0  0  0  0
    2.1298   14.1926   -4.5504 C   0  0  0  0  0  0  0  0  0  0  0  0
    2.0768   15.5275   -4.6200 N   0  0  0  0  0  0  0  0  0  0  0  0
    2.6848   13.6232   -3.4681 N   0  0  0  0  0  0  0  0  0  0  0  0
    2.6102   12.2642   -3.4645 C   0  0  0  0  0  0  0  0  0  0  0  0
  1  2  2  0  0  0  0
  1  4  1  0  0  0  0
  1  3  1  0  0  0  0
  5  1  1  0  0  0  0
  6  7  2  6  0  0  0
  6  9  1  0  0  0  0
  6  5  1  0  0  0  0
  6  8  1  0  0  0  0
 10 11  2  1  0  0  0
 10 12  1  0  0  0  0
 10 13  1  0  0  0  0
 10  9  1  0  0  0  0
 13 14  1  0  0  0  0
 15 14  1  6  0  0  0
 15 16  1  0  0  0  0
 17 19  1  0  0  0  0
 17 15  1  0  0  0  0
 17 18  1  1  0  0  0
 19 21  1  0  0  0  0
 19 20  1  1  0  0  0
 21 16  1  0  0  0  0
 21 22  1  6  0  0  0
 22 32  1  0  0  0  0
 23 22  1  0  0  0  0
 23 24  2  0  0  0  0
 24 25  1  0  0  0  0
 25 26  1  0  0  0  0
 26 27  2  0  0  0  0
 26 28  1  0  0  0  0
 29 28  1  0  0  0  0
 29 30  1  0  0  0  0
 31 29  2  0  0  0  0
 32 25  2  0  0  0  0
 32 31  1  0  0  0  0
M  END
>  <CHROM.1>
138.95493657,52.42223556,-70.94111021,161.92810035,-108.32510252,61.73999253
30.68245972,51.34581218,-64.81794553,-134.35680847,1.62102859,13.29506184
-0.18010502,2.12665515,0.08609870,1.33614277

>  <Name>
lig.pdb

>  <RI>
2.92062e+07

>  <Rbt.Current_Directory>
/home/itssahil/PROJECTS/Mol_Feturizer/New_Systems/rnas/5lwj

>  <Rbt.Executable>
rbdock ($Id: //depot/dev/client3/rdock/2013.1/src/exe/rbdock.cxx#4 $)

>  <Rbt.Library>
libRbt.so (2013.1, Build901 2013/11/27)

>  <Rbt.Parameter_File>
/export/apps/rDock/src/rDock_2013.1_src/data/scripts/dock_solv.prm

>  <Rbt.Receptor>
prm/pocket_docking_7.prm

>  <SCORE>
-21.4036

>  <SCORE.INTER>
-17.9138

>  <SCORE.INTER.CONST>
1

>  <SCORE.INTER.POLAR>
-1.62352

>  <SCORE.INTER.ROT>
8

>  <SCORE.INTER.SOLV>
14.8459

>  <SCORE.INTER.VDW>
-20.4128

>  <SCORE.INTER.norm>
-0.559806

>  <SCORE.INTRA>
-3.48981

>  <SCORE.INTRA.DIHEDRAL>
-1.07317

>  <SCORE.INTRA.DIHEDRAL.0>
10.9248

>  <SCORE.INTRA.POLAR>
0

>  <SCORE.INTRA.POLAR.0>
0

>  <SCORE.INTRA.REPUL>
0

>  <SCORE.INTRA.REPUL.0>
0

>  <SCORE.INTRA.SOLV>
0.352885

>  <SCORE.INTRA.SOLV.lig_0>
-51.4104

>  <SCORE.INTRA.VDW>
-3.12967

>  <SCORE.INTRA.VDW.0>
0.110327

>  <SCORE.INTRA.norm>
-0.109057

>  <SCORE.RESTR>
0

>  <SCORE.RESTR.CAVITY>
0

>  <SCORE.RESTR.norm>
0

>  <SCORE.SYSTEM>
0

>  <SCORE.SYSTEM.CONST>
0

>  <SCORE.SYSTEM.DIHEDRAL>
0

>  <SCORE.SYSTEM.SOLV>
0

>  <SCORE.SYSTEM.norm>
0

>  <SCORE.heavy>
32

>  <SCORE.norm>
-0.668863

>  <RMSD>
8.645

$$$$
lig.pdb
 OpenBabel11021811523D
libRbt.so/2013.1/901 2013/11/27
 32 34  0  0  0  0  0  0  0  0999 V2000
    1.9750   11.6496    6.1855 P   0  0  0  0  0  0  0  0  0  0  0  0
    2.2320   12.3376    4.8670 O   0  0  0  0  0  0  0  0  0  0  0  0
    2.3064   10.0947    5.8611 O   0  0  0  0  0  0  0  0  0  0  0  0
    2.8838   11.9610    7.3483 O   0  0  0  0  0  0  0  0  0  0  0  0
    0.6440   12.0525    6.5964 O   0  0  0  0  0  0  0  0  0  0  0  0
   -0.3570   11.4650    5.6753 P   0  0  1  0  0  0  0  0  0  0  0  0
   -0.0986   10.0089    5.5806 O   0  0  0  0  0  0  0  0  0  0  0  0
   -1.7232   11.6797    6.2063 O   0  0  0  0  0  0  0  0  0  0  0  0
   -0.2313   12.1001    4.3394 O   0  0  0  0  0  0  0  0  0  0  0  0
   -1.1925   13.1142    3.8449 P   0  0  1  0  0  0  0  0  0  0  0  0
   -2.6148   12.7423    3.9885 O   0  0  0  0  0  0  0  0  0  0  0  0
   -0.8750   14.5122    4.2125 O   0  0  0  0  0  0  0  0  0  0  0  0
   -0.9803   13.0552    2.2417 O   0  0  0  0  0  0  0  0  0  0  0  0
   -1.0798   14.2039    1.4211 C   0  0  0  0  0  0  0  0  0  0  0  0
    0.2204   15.0190    1.3870 C   0  0  1  0  0  0  0  0  0  0  0  0
    0.0079   16.3043    1.9340 O   0  0  0  0  0  0  0  0  0  0  0  0
    1.3200   14.4720    2.3140 C   0  0  1  0  0  0  0  0  0  0  0  0
    2.0119   13.3320    1.8325 O   0  0  0  0  0  0  0  0  0  0  0  0
    2.2379   15.6764    2.5215 C   0  0  1  0  0  0  0  0  0  0  0  0
    3.2831   15.7229    1.5662 O   0  0  0  0  0  0  0  0  0  0  0  0
    1.2802   16.8367    2.2569 C   0  0  2  0  0  0  0  0  0  0  0  0
    1.1843   17.8392    3.3394 N   0  0  0  0  0  0  0  0  0  0  0  0
    0.3261   17.9198    4.4068 C   0  0  0  0  0  0  0  0  0  0  0  0
    0.4640   19.0073    5.1204 N   0  0  0  0  0  0  0  0  0  0  0  0
    1.5055   19.6907    4.4999 C   0  0  0  0  0  0  0  0  0  0  0  0
    2.0920   20.9643    4.7895 C   0  0  0  0  0  0  0  0  0  0  0  0
    1.7568   21.7662    5.6588 O   0  0  0  0  0  0  0  0  0  0  0  0
    3.1566   21.2784    3.9340 N   0  0  0  0  0  0  0  0  0  0  0  0
    3.6186   20.4330    2.9366 C   0  0  0  0  0  0  0  0  0  0  0  0
    4.7102   20.8006    2.2562 N   0  0  0  0  0  0  0  0  0  0  0  0
    3.0346   19.2611    2.6375 N   0  0  0  0  0  0  0  0  0  0  0  0
    1.9846   18.9498    3.4456 C   0  0  0  0  0  0  0  0  0  0  0  0
  1  2  2  0  0  0  0
  1  4  1  0  0  0  0
  1  3  1  0  0  0  0
  5  1  1  0  0  0  0
  6  7  2  6  0  0  0
  6  9  1  0  0  0  0
  6  5  1  0  0  0  0
  6  8  1  0  0  0  0
 10 11  2  1  0  0  0
 10 12  1  0  0  0  0
 10 13  1  0  0  0  0
 10  9  1  0  0  0  0
 13 14  1  0  0  0  0
 15 14  1  1  0  0  0
 15 16  1  0  0  0  0
 17 19  1  0  0  0  0
 17 15  1  0  0  0  0
 17 18  1  6  0  0  0
 19 21  1  0  0  0  0
 19 20  1  6  0  0  0
 21 16  1  0  0  0  0
 21 22  1  1  0  0  0
 22 32  1  0  0  0  0
 23 22  1  0  0  0  0
 23 24  2  0  0  0  0
 24 25  1  0  0  0  0
 25 26  1  0  0  0  0
 26 27  2  0  0  0  0
 26 28  1  0  0  0  0
 29 28  1  0  0  0  0
 29 30  1  0  0  0  0
 31 29  2  0  0  0  0
 32 25  2  0  0  0  0
 32 31  1  0  0  0  0
M  END
>  <CHROM.1>
67.96341455,-104.22008843,51.70198946,-145.19391221,-48.93702717,83.21160435
-116.84649068,68.79465386,-173.46665582,32.25519412,0.98716755,15.01665334
4.06680649,-1.98255891,-0.86356962,-0.52587291

>  <Name>
lig.pdb

>  <RI>
2.0892e+07

>  <Rbt.Current_Directory>
/home/itssahil/PROJECTS/Mol_Feturizer/New_Systems/rnas/5lwj

>  <Rbt.Executable>
rbdock ($Id: //depot/dev/client3/rdock/2013.1/src/exe/rbdock.cxx#4 $)

>  <Rbt.Library>
libRbt.so (2013.1, Build901 2013/11/27)

>  <Rbt.Parameter_File>
/export/apps/rDock/src/rDock_2013.1_src/data/scripts/dock_solv.prm

>  <Rbt.Receptor>
prm/pocket_docking_8.prm

>  <SCORE>
-37.2929

>  <SCORE.INTER>
-38.3857

>  <SCORE.INTER.CONST>
1

>  <SCORE.INTER.POLAR>
-2.29702

>  <SCORE.INTER.ROT>
8

>  <SCORE.INTER.SOLV>
24.2687

>  <SCORE.INTER.VDW>
-34.9566

>  <SCORE.INTER.norm>
-1.19955

>  <SCORE.INTRA>
1.09281

>  <SCORE.INTRA.DIHEDRAL>
4.1634

>  <SCORE.INTRA.DIHEDRAL.0>
10.9248

>  <SCORE.INTRA.POLAR>
-0.0600908

>  <SCORE.INTRA.POLAR.0>
0

>  <SCORE.INTRA.REPUL>
0

>  <SCORE.INTRA.REPUL.0>
0

>  <SCORE.INTRA.SOLV>
2.29667

>  <SCORE.INTRA.SOLV.lig_0>
-51.4104

>  <SCORE.INTRA.VDW>
-1.93291

>  <SCORE.INTRA.VDW.0>
0.110327

>  <SCORE.INTRA.norm>
0.0341503

>  <SCORE.RESTR>
0

>  <SCORE.RESTR.CAVITY>
0

>  <SCORE.RESTR.norm>
0

>  <SCORE.SYSTEM>
0

>  <SCORE.SYSTEM.CONST>
0

>  <SCORE.SYSTEM.DIHEDRAL>
0

>  <SCORE.SYSTEM.SOLV>
0

>  <SCORE.SYSTEM.norm>
0

>  <SCORE.heavy>
32

>  <SCORE.norm>
-1.1654

>  <RMSD>
8.649

$$$$
lig.pdb
 OpenBabel11021811523D
libRbt.so/2013.1/901 2013/11/27
 32 34  0  0  0  0  0  0  0  0999 V2000
   -0.3219   12.1449    4.7342 P   0  0  0  0  0  0  0  0  0  0  0  0
    0.6415   11.8644    3.6068 O   0  0  0  0  0  0  0  0  0  0  0  0
   -1.3152   10.8625    4.6984 O   0  0  0  0  0  0  0  0  0  0  0  0
    0.2033   12.1355    6.1481 O   0  0  0  0  0  0  0  0  0  0  0  0
   -0.8319   13.4827    4.5038 O   0  0  0  0  0  0  0  0  0  0  0  0
   -2.1621   13.4001    3.8563 P   0  0  1  0  0  0  0  0  0  0  0  0
   -2.0686   12.4419    2.7298 O   0  0  0  0  0  0  0  0  0  0  0  0
   -3.1690   12.9092    4.8258 O   0  0  0  0  0  0  0  0  0  0  0  0
   -2.5544   14.7434    3.3610 O   0  0  0  0  0  0  0  0  0  0  0  0
   -1.8974   15.9880    3.8258 P   0  0  1  0  0  0  0  0  0  0  0  0
   -2.3295   17.2154    3.1269 O   0  0  0  0  0  0  0  0  0  0  0  0
   -1.7705   16.1203    5.2943 O   0  0  0  0  0  0  0  0  0  0  0  0
   -0.3779   15.8076    3.2993 O   0  0  0  0  0  0  0  0  0  0  0  0
   -0.0624   15.6711    1.9265 C   0  0  0  0  0  0  0  0  0  0  0  0
    1.4447   15.5151    1.6801 C   0  0  1  0  0  0  0  0  0  0  0  0
    1.6761   14.9059    0.4264 O   0  0  0  0  0  0  0  0  0  0  0  0
    2.1871   16.8522    1.5102 C   0  0  1  0  0  0  0  0  0  0  0  0
    2.4478   17.5614    2.7099 O   0  0  0  0  0  0  0  0  0  0  0  0
    3.4636   16.4551    0.7692 C   0  0  1  0  0  0  0  0  0  0  0  0
    4.5262   16.1560    1.6570 O   0  0  0  0  0  0  0  0  0  0  0  0
    3.0244   15.1654    0.0783 C   0  0  2  0  0  0  0  0  0  0  0  0
    3.2167   15.1340   -1.3873 N   0  0  0  0  0  0  0  0  0  0  0  0
    3.6013   16.1223   -2.2577 C   0  0  0  0  0  0  0  0  0  0  0  0
    3.5725   15.7653   -3.5157 N   0  0  0  0  0  0  0  0  0  0  0  0
    3.1630   14.4357   -3.4819 C   0  0  0  0  0  0  0  0  0  0  0  0
    2.9041   13.5097   -4.5427 C   0  0  0  0  0  0  0  0  0  0  0  0
    2.9558   13.7191   -5.7530 O   0  0  0  0  0  0  0  0  0  0  0  0
    2.5378   12.2397   -4.0769 N   0  0  0  0  0  0  0  0  0  0  0  0
    2.4684   11.9024   -2.7336 C   0  0  0  0  0  0  0  0  0  0  0  0
    2.2108   10.6283   -2.4176 N   0  0  0  0  0  0  0  0  0  0  0  0
    2.6651   12.7871   -1.7425 N   0  0  0  0  0  0  0  0  0  0  0  0
    3.0010   14.0322   -2.1777 C   0  0  0  0  0  0  0  0  0  0  0  0
  1  2  2  0  0  0  0
  1  4  1  0  0  0  0
  1  3  1  0  0  0  0
  5  1  1  0  0  0  0
  6  7  2  6  0  0  0
  6  9  1  0  0  0  0
  6  5  1  0  0  0  0
  6  8  1  0  0  0  0
 10 11  2  6  0  0  0
 10 12  1  0  0  0  0
 10 13  1  0  0  0  0
 10  9  1  0  0  0  0
 13 14  1  0  0  0  0
 15 14  1  6  0  0  0
 15 16  1  0  0  0  0
 17 19  1  0  0  0  0
 17 15  1  0  0  0  0
 17 18  1  1  0  0  0
 19 21  1  0  0  0  0
 19 20  1  1  0  0  0
 21 16  1  0  0  0  0
 21 22  1  6  0  0  0
 22 32  1  0  0  0  0
 23 22  1  0  0  0  0
 23 24  2  0  0  0  0
 24 25  1  0  0  0  0
 25 26  1  0  0  0  0
 26 27  2  0  0  0  0
 26 28  1  0  0  0  0
 29 28  1  0  0  0  0
 29 30  1  0  0  0  0
 31 29  2  0  0  0  0
 32 25  2  0  0  0  0
 32 31  1  0  0  0  0
M  END
>  <CHROM.1>
99.13439204,-16.85783255,-47.78314051,60.58065328,174.32094736,179.94506453
158.47557138,-59.05974198,-64.19966346,116.73339048,0.69559236,14.24309452
1.42803021,2.75913699,0.96094472,0.48237797

>  <Name>
lig.pdb

>  <RI>
2.0892e+07

>  <Rbt.Current_Directory>
/home/itssahil/PROJECTS/Mol_Feturizer/New_Systems/rnas/5lwj

>  <Rbt.Executable>
rbdock ($Id: //depot/dev/client3/rdock/2013.1/src/exe/rbdock.cxx#4 $)

>  <Rbt.Library>
libRbt.so (2013.1, Build901 2013/11/27)

>  <Rbt.Parameter_File>
/export/apps/rDock/src/rDock_2013.1_src/data/scripts/dock_solv.prm

>  <Rbt.Receptor>
prm/pocket_docking_8.prm

>  <SCORE>
-31.8016

>  <SCORE.INTER>
-27.9372

>  <SCORE.INTER.CONST>
1

>  <SCORE.INTER.POLAR>
-3.53203

>  <SCORE.INTER.ROT>
8

>  <SCORE.INTER.SOLV>
14.5797

>  <SCORE.INTER.VDW>
-20.6446

>  <SCORE.INTER.norm>
-0.873039

>  <SCORE.INTRA>
-3.86434

>  <SCORE.INTRA.DIHEDRAL>
-2.42678

>  <SCORE.INTRA.DIHEDRAL.0>
10.9248

>  <SCORE.INTRA.POLAR>
0

>  <SCORE.INTRA.POLAR.0>
0

>  <SCORE.INTRA.REPUL>
0.00046334

>  <SCORE.INTRA.REPUL.0>
0

>  <SCORE.INTRA.SOLV>
0.262101

>  <SCORE.INTRA.SOLV.lig_0>
-51.4104

>  <SCORE.INTRA.VDW>
-2.78432

>  <SCORE.INTRA.VDW.0>
0.110327

>  <SCORE.INTRA.norm>
-0.120761

>  <SCORE.RESTR>
0

>  <SCORE.RESTR.CAVITY>
0

>  <SCORE.RESTR.norm>
0

>  <SCORE.SYSTEM>
0

>  <SCORE.SYSTEM.CONST>
0

>  <SCORE.SYSTEM.DIHEDRAL>
0

>  <SCORE.SYSTEM.SOLV>
0

>  <SCORE.SYSTEM.norm>
0

>  <SCORE.heavy>
32

>  <SCORE.norm>
-0.993799

>  <RMSD>
8.654

$$$$
lig.pdb
 OpenBabel11021811523D
libRbt.so/2013.1/901 2013/11/27
 32 34  0  0  0  0  0  0  0  0999 V2000
    0.6258   11.6233    5.3396 P   0  0  0  0  0  0  0  0  0  0  0  0
    1.7213   10.8876    4.6071 O   0  0  0  0  0  0  0  0  0  0  0  0
   -0.6690   10.6703    5.1204 O   0  0  0  0  0  0  0  0  0  0  0  0
    0.7177   11.7412    6.8405 O   0  0  0  0  0  0  0  0  0  0  0  0
    0.6411   12.9801    4.8281 O   0  0  0  0  0  0  0  0  0  0  0  0
    0.0412   13.0047    3.4735 P   0  0  1  0  0  0  0  0  0  0  0  0
    0.1320   14.3894    2.9535 O   0  0  0  0  0  0  0  0  0  0  0  0
    0.7893   12.0995    2.5703 O   0  0  0  0  0  0  0  0  0  0  0  0
   -1.3774   12.5749    3.5538 O   0  0  0  0  0  0  0  0  0  0  0  0
   -2.4402   13.4352    4.1259 P   0  0  1  0  0  0  0  0  0  0  0  0
   -3.5484   12.7039    4.7731 O   0  0  0  0  0  0  0  0  0  0  0  0
   -1.9567   14.6186    4.8714 O   0  0  0  0  0  0  0  0  0  0  0  0
   -3.1529   14.0461    2.8077 O   0  0  0  0  0  0  0  0  0  0  0  0
   -4.2908   14.8843    2.8807 C   0  0  0  0  0  0  0  0  0  0  0  0
   -3.9233   16.3728    2.9561 C   0  0  1  0  0  0  0  0  0  0  0  0
   -2.7156   16.5442    3.6691 O   0  0  0  0  0  0  0  0  0  0  0  0
   -3.5631   16.9925    1.5944 C   0  0  1  0  0  0  0  0  0  0  0  0
   -4.6630   17.2977    0.7535 O   0  0  0  0  0  0  0  0  0  0  0  0
   -2.7485   18.2288    1.9740 C   0  0  1  0  0  0  0  0  0  0  0  0
   -3.5594   19.3825    2.1096 O   0  0  0  0  0  0  0  0  0  0  0  0
   -2.2231   17.8342    3.3530 C   0  0  2  0  0  0  0  0  0  0  0  0
   -0.7553   17.9040    3.5162 N   0  0  0  0  0  0  0  0  0  0  0  0
    0.0154   17.9359    4.6509 C   0  0  0  0  0  0  0  0  0  0  0  0
    1.2929   18.0991    4.4228 N   0  0  0  0  0  0  0  0  0  0  0  0
    1.3856   18.1555    3.0354 C   0  0  0  0  0  0  0  0  0  0  0  0
    2.5158   18.3627    2.1813 C   0  0  0  0  0  0  0  0  0  0  0  0
    3.6793   18.5802    2.5133 O   0  0  0  0  0  0  0  0  0  0  0  0
    2.1835   18.3158    0.8207 N   0  0  0  0  0  0  0  0  0  0  0  0
    0.9050   18.0599    0.3484 C   0  0  0  0  0  0  0  0  0  0  0  0
    0.7359   17.9351   -0.9727 N   0  0  0  0  0  0  0  0  0  0  0  0
   -0.1604   17.9143    1.1531 N   0  0  0  0  0  0  0  0  0  0  0  0
    0.1411   17.9784    2.4788 C   0  0  0  0  0  0  0  0  0  0  0  0
  1  2  2  0  0  0  0
  1  4  1  0  0  0  0
  1  3  1  0  0  0  0
  5  1  1  0  0  0  0
  6  7  2  6  0  0  0
  6  9  1  0  0  0  0
  6  5  1  0  0  0  0
  6  8  1  0  0  0  0
 10 11  2  1  0  0  0
 10 12  1  0  0  0  0
 10 13  1  0  0  0  0
 10  9  1  0  0  0  0
 13 14  1  0  0  0  0
 15 14  1  6  0  0  0
 15 16  1  0  0  0  0
 17 19  1  0  0  0  0
 17 15  1  0  0  0  0
 17 18  1  1  0  0  0
 19 21  1  0  0  0  0
 19 20  1  1  0  0  0
 21 16  1  0  0  0  0
 21 22  1  6  0  0  0
 22 32  1  0  0  0  0
 23 22  1  0  0  0  0
 23 24  2  0  0  0  0
 24 25  1  0  0  0  0
 25 26  1  0  0  0  0
 26 27  2  0  0  0  0
 26 28  1  0  0  0  0
 29 28  1  0  0  0  0
 29 30  1  0  0  0  0
 31 29  2  0  0  0  0
 32 25  2  0  0  0  0
 32 31  1  0  0  0  0
M  END
>  <CHROM.1>
75.01543669,73.04389943,-177.27682977,176.52447921,-149.35310781,91.08627586
-33.40575498,-59.14713345,-179.76976814,-73.22271553,-0.76812265,15.26967394
3.24344127,-1.52956647,-0.03844892,-0.44664776

>  <Name>
lig.pdb

>  <RI>
2.92062e+07

>  <Rbt.Current_Directory>
/home/itssahil/PROJECTS/Mol_Feturizer/New_Systems/rnas/5lwj

>  <Rbt.Executable>
rbdock ($Id: //depot/dev/client3/rdock/2013.1/src/exe/rbdock.cxx#4 $)

>  <Rbt.Library>
libRbt.so (2013.1, Build901 2013/11/27)

>  <Rbt.Parameter_File>
/export/apps/rDock/src/rDock_2013.1_src/data/scripts/dock_solv.prm

>  <Rbt.Receptor>
prm/pocket_docking_7.prm

>  <SCORE>
-34.7524

>  <SCORE.INTER>
-32.4576

>  <SCORE.INTER.CONST>
1

>  <SCORE.INTER.POLAR>
-3.42093

>  <SCORE.INTER.ROT>
8

>  <SCORE.INTER.SOLV>
17.6118

>  <SCORE.INTER.VDW>
-25.0393

>  <SCORE.INTER.norm>
-1.0143

>  <SCORE.INTRA>
-2.2948

>  <SCORE.INTRA.DIHEDRAL>
0.297535

>  <SCORE.INTRA.DIHEDRAL.0>
10.9248

>  <SCORE.INTRA.POLAR>
0

>  <SCORE.INTRA.POLAR.0>
0

>  <SCORE.INTRA.REPUL>
0

>  <SCORE.INTRA.REPUL.0>
0

>  <SCORE.INTRA.SOLV>
1.80627

>  <SCORE.INTRA.SOLV.lig_0>
-51.4104

>  <SCORE.INTRA.VDW>
-3.3467

>  <SCORE.INTRA.VDW.0>
0.110327

>  <SCORE.INTRA.norm>
-0.0717126

>  <SCORE.RESTR>
0

>  <SCORE.RESTR.CAVITY>
0

>  <SCORE.RESTR.norm>
0

>  <SCORE.SYSTEM>
0

>  <SCORE.SYSTEM.CONST>
0

>  <SCORE.SYSTEM.DIHEDRAL>
0

>  <SCORE.SYSTEM.SOLV>
0

>  <SCORE.SYSTEM.norm>
0

>  <SCORE.heavy>
32

>  <SCORE.norm>
-1.08601

>  <RMSD>
8.655

$$$$
lig.pdb
 OpenBabel11021811523D
libRbt.so/2013.1/901 2013/11/27
 32 34  0  0  0  0  0  0  0  0999 V2000
   -1.4557   12.7828    4.2185 P   0  0  0  0  0  0  0  0  0  0  0  0
   -0.8329   11.4449    4.5345 O   0  0  0  0  0  0  0  0  0  0  0  0
   -2.3151   12.4817    2.8756 O   0  0  0  0  0  0  0  0  0  0  0  0
   -2.4853   13.3395    5.1699 O   0  0  0  0  0  0  0  0  0  0  0  0
   -0.3660   13.7394    4.2008 O   0  0  0  0  0  0  0  0  0  0  0  0
    0.3338   13.6677    2.8967 P   0  0  1  0  0  0  0  0  0  0  0  0
    1.4720   14.6161    2.9308 O   0  0  0  0  0  0  0  0  0  0  0  0
    0.8527   12.2982    2.6735 O   0  0  0  0  0  0  0  0  0  0  0  0
   -0.6094   14.0313    1.8096 O   0  0  0  0  0  0  0  0  0  0  0  0
   -0.3319   13.7411    0.3828 P   0  0  1  0  0  0  0  0  0  0  0  0
    0.7337   12.7454    0.1485 O   0  0  0  0  0  0  0  0  0  0  0  0
   -1.5307   13.5816   -0.4701 O   0  0  0  0  0  0  0  0  0  0  0  0
    0.3567   15.1117   -0.1328 O   0  0  0  0  0  0  0  0  0  0  0  0
    1.1983   15.1563   -1.2697 C   0  0  0  0  0  0  0  0  0  0  0  0
    2.6798   15.3166   -0.9011 C   0  0  1  0  0  0  0  0  0  0  0  0
    2.9492   16.6508   -0.5221 O   0  0  0  0  0  0  0  0  0  0  0  0
    3.0893   14.5508    0.3692 C   0  0  1  0  0  0  0  0  0  0  0  0
    3.2718   13.1542    0.2069 O   0  0  0  0  0  0  0  0  0  0  0  0
    4.3644   15.2654    0.8161 C   0  0  1  0  0  0  0  0  0  0  0  0
    5.5293   14.6719    0.2702 O   0  0  0  0  0  0  0  0  0  0  0  0
    4.1758   16.6443    0.1863 C   0  0  2  0  0  0  0  0  0  0  0  0
    4.2622   17.7859    1.1219 N   0  0  0  0  0  0  0  0  0  0  0  0
    3.2878   18.4117    1.8576 C   0  0  0  0  0  0  0  0  0  0  0  0
    3.7073   19.4634    2.5123 N   0  0  0  0  0  0  0  0  0  0  0  0
    5.0646   19.5309    2.2123 C   0  0  0  0  0  0  0  0  0  0  0  0
    6.0609   20.4849    2.5959 C   0  0  0  0  0  0  0  0  0  0  0  0
    5.9074   21.5041    3.2661 O   0  0  0  0  0  0  0  0  0  0  0  0
    7.3337   20.1683    2.1025 N   0  0  0  0  0  0  0  0  0  0  0  0
    7.6094   19.0341    1.3537 C   0  0  0  0  0  0  0  0  0  0  0  0
    8.8842   18.7878    1.0314 N   0  0  0  0  0  0  0  0  0  0  0  0
    6.6631   18.1681    0.9558 N   0  0  0  0  0  0  0  0  0  0  0  0
    5.4162   18.4723    1.4087 C   0  0  0  0  0  0  0  0  0  0  0  0
  1  2  2  0  0  0  0
  1  4  1  0  0  0  0
  1  3  1  0  0  0  0
  5  1  1  0  0  0  0
  6  7  2  1  0  0  0
  6  9  1  0  0  0  0
  6  5  1  0  0  0  0
  6  8  1  0  0  0  0
 10 11  2  6  0  0  0
 10 12  1  0  0  0  0
 10 13  1  0  0  0  0
 10  9  1  0  0  0  0
 13 14  1  0  0  0  0
 15 14  1  1  0  0  0
 15 16  1  0  0  0  0
 17 19  1  0  0  0  0
 17 15  1  0  0  0  0
 17 18  1  6  0  0  0
 19 21  1  0  0  0  0
 19 20  1  6  0  0  0
 21 16  1  0  0  0  0
 21 22  1  1  0  0  0
 22 32  1  0  0  0  0
 23 22  1  0  0  0  0
 23 24  2  0  0  0  0
 24 25  1  0  0  0  0
 25 26  1  0  0  0  0
 26 27  2  0  0  0  0
 26 28  1  0  0  0  0
 29 28  1  0  0  0  0
 29 30  1  0  0  0  0
 31 29  2  0  0  0  0
 32 25  2  0  0  0  0
 32 31  1  0  0  0  0
M  END
>  <CHROM.1>
80.72406994,-164.53331634,-177.77607813,157.39349652,16.61336776,-106.14439211
-76.25026789,-65.98628842,-69.37968969,34.24056704,2.24430311,15.46694020
1.69524809,2.93712625,-0.68748183,-2.07123176

>  <Name>
lig.pdb

>  <RI>
3.03081e+07

>  <Rbt.Current_Directory>
/home/itssahil/PROJECTS/Mol_Feturizer/New_Systems/rnas/5lwj

>  <Rbt.Executable>
rbdock ($Id: //depot/dev/client3/rdock/2013.1/src/exe/rbdock.cxx#4 $)

>  <Rbt.Library>
libRbt.so (2013.1, Build901 2013/11/27)

>  <Rbt.Parameter_File>
/export/apps/rDock/src/rDock_2013.1_src/data/scripts/dock_solv.prm

>  <Rbt.Receptor>
prm/pocket_docking_2.prm

>  <SCORE>
-25.9914

>  <SCORE.INTER>
-24.8202

>  <SCORE.INTER.CONST>
1

>  <SCORE.INTER.POLAR>
-2.7404

>  <SCORE.INTER.ROT>
8

>  <SCORE.INTER.SOLV>
14.909

>  <SCORE.INTER.VDW>
-21.3152

>  <SCORE.INTER.norm>
-0.775631

>  <SCORE.INTRA>
-4.2945

>  <SCORE.INTRA.DIHEDRAL>
2.89

>  <SCORE.INTRA.DIHEDRAL.0>
10.9248

>  <SCORE.INTRA.POLAR>
-0.994965

>  <SCORE.INTRA.POLAR.0>
0

>  <SCORE.INTRA.REPUL>
0

>  <SCORE.INTRA.REPUL.0>
0

>  <SCORE.INTRA.SOLV>
3.60518

>  <SCORE.INTRA.SOLV.lig_0>
-51.4104

>  <SCORE.INTRA.VDW>
-4.15921

>  <SCORE.INTRA.VDW.0>
0.110327

>  <SCORE.INTRA.norm>
-0.134203

>  <SCORE.RESTR>
3.12326

>  <SCORE.RESTR.CAVITY>
3.12326

>  <SCORE.RESTR.norm>
0.097602

>  <SCORE.SYSTEM>
0

>  <SCORE.SYSTEM.CONST>
0

>  <SCORE.SYSTEM.DIHEDRAL>
0

>  <SCORE.SYSTEM.SOLV>
0

>  <SCORE.SYSTEM.norm>
0

>  <SCORE.heavy>
32

>  <SCORE.norm>
-0.812232

>  <RMSD>
8.660

$$$$
lig.pdb
 OpenBabel11021811523D
libRbt.so/2013.1/901 2013/11/27
 32 34  0  0  0  0  0  0  0  0999 V2000
   -0.7294   11.7780    5.2936 P   0  0  0  0  0  0  0  0  0  0  0  0
   -1.5769   10.8152    4.4981 O   0  0  0  0  0  0  0  0  0  0  0  0
   -1.8076   12.5012    6.2668 O   0  0  0  0  0  0  0  0  0  0  0  0
    0.2842   11.2157    6.2586 O   0  0  0  0  0  0  0  0  0  0  0  0
    0.0238   12.5475    4.3224 O   0  0  0  0  0  0  0  0  0  0  0  0
   -0.8997   13.4177    3.5572 P   0  0  1  0  0  0  0  0  0  0  0  0
   -0.1230   14.0873    2.4874 O   0  0  0  0  0  0  0  0  0  0  0  0
   -1.9703   12.6019    2.9385 O   0  0  0  0  0  0  0  0  0  0  0  0
   -1.4983   14.4248    4.4688 O   0  0  0  0  0  0  0  0  0  0  0  0
   -2.5612   15.3620    4.0341 P   0  0  1  0  0  0  0  0  0  0  0  0
   -3.6469   14.7452    3.2451 O   0  0  0  0  0  0  0  0  0  0  0  0
   -3.0107   16.3235    5.0654 O   0  0  0  0  0  0  0  0  0  0  0  0
   -1.8052   16.2715    2.9296 O   0  0  0  0  0  0  0  0  0  0  0  0
   -0.6077   16.9700    3.2137 C   0  0  0  0  0  0  0  0  0  0  0  0
   -0.1459   17.8496    2.0435 C   0  0  1  0  0  0  0  0  0  0  0  0
    1.1278   18.3976    2.3147 O   0  0  0  0  0  0  0  0  0  0  0  0
    0.1300   17.0649    0.7489 C   0  0  1  0  0  0  0  0  0  0  0  0
   -1.0191   16.6764    0.0148 O   0  0  0  0  0  0  0  0  0  0  0  0
    1.0478   17.9981   -0.0404 C   0  0  1  0  0  0  0  0  0  0  0  0
    0.3229   18.8592   -0.9007 O   0  0  0  0  0  0  0  0  0  0  0  0
    1.6674   18.8323    1.0793 C   0  0  2  0  0  0  0  0  0  0  0  0
    3.1454   18.8485    1.1144 N   0  0  0  0  0  0  0  0  0  0  0  0
    4.0282   19.8949    1.0243 C   0  0  0  0  0  0  0  0  0  0  0  0
    5.2842   19.5312    0.9932 N   0  0  0  0  0  0  0  0  0  0  0  0
    5.2385   18.1440    1.0947 C   0  0  0  0  0  0  0  0  0  0  0  0
    6.2876   17.1699    1.0755 C   0  0  0  0  0  0  0  0  0  0  0  0
    7.4916   17.3644    0.9207 O   0  0  0  0  0  0  0  0  0  0  0  0
    5.8155   15.8608    1.2412 N   0  0  0  0  0  0  0  0  0  0  0  0
    4.4804   15.5428    1.4395 C   0  0  0  0  0  0  0  0  0  0  0  0
    4.1687   14.2665    1.6916 N   0  0  0  0  0  0  0  0  0  0  0  0
    3.4950   16.4549    1.4085 N   0  0  0  0  0  0  0  0  0  0  0  0
    3.9342   17.7303    1.2269 C   0  0  0  0  0  0  0  0  0  0  0  0
  1  2  2  0  0  0  0
  1  4  1  0  0  0  0
  1  3  1  0  0  0  0
  5  1  1  0  0  0  0
  6  7  2  6  0  0  0
  6  9  1  0  0  0  0
  6  5  1  0  0  0  0
  6  8  1  0  0  0  0
 10 11  2  6  0  0  0
 10 12  1  0  0  0  0
 10 13  1  0  0  0  0
 10  9  1  0  0  0  0
 13 14  1  0  0  0  0
 15 14  1  1  0  0  0
 15 16  1  0  0  0  0
 17 19  1  0  0  0  0
 17 15  1  0  0  0  0
 17 18  1  6  0  0  0
 19 21  1  0  0  0  0
 19 20  1  6  0  0  0
 21 16  1  0  0  0  0
 21 22  1  1  0  0  0
 22 32  1  0  0  0  0
 23 22  1  0  0  0  0
 23 24  2  0  0  0  0
 24 25  1  0  0  0  0
 25 26  1  0  0  0  0
 26 27  2  0  0  0  0
 26 28  1  0  0  0  0
 29 28  1  0  0  0  0
 29 30  1  0  0  0  0
 31 29  2  0  0  0  0
 32 25  2  0  0  0  0
 32 31  1  0  0  0  0
M  END
>  <CHROM.1>
67.94802593,-174.10720483,-174.44706941,-55.05857906,45.02449416,-175.39144249
-173.05342241,-50.88411741,-51.72726347,-115.08946437,0.75727184,15.57964478
2.65255344,-2.35098218,0.13430445,-0.51910377

>  <Name>
lig.pdb

>  <RI>
1.82117e+07

>  <Rbt.Current_Directory>
/home/itssahil/PROJECTS/Mol_Feturizer/New_Systems/rnas/5lwj

>  <Rbt.Executable>
rbdock ($Id: //depot/dev/client3/rdock/2013.1/src/exe/rbdock.cxx#4 $)

>  <Rbt.Library>
libRbt.so (2013.1, Build901 2013/11/27)

>  <Rbt.Parameter_File>
/export/apps/rDock/src/rDock_2013.1_src/data/scripts/dock_solv.prm

>  <Rbt.Receptor>
prm/pocket_docking_5.prm

>  <SCORE>
-33.5666

>  <SCORE.INTER>
-26.3466

>  <SCORE.INTER.CONST>
1

>  <SCORE.INTER.POLAR>
-2.69278

>  <SCORE.INTER.ROT>
8

>  <SCORE.INTER.SOLV>
15.836

>  <SCORE.INTER.VDW>
-22.8005

>  <SCORE.INTER.norm>
-0.823331

>  <SCORE.INTRA>
-7.22293

>  <SCORE.INTRA.DIHEDRAL>
-6.67837

>  <SCORE.INTRA.DIHEDRAL.0>
10.9248

>  <SCORE.INTRA.POLAR>
-0.362128

>  <SCORE.INTRA.POLAR.0>
0

>  <SCORE.INTRA.REPUL>
0

>  <SCORE.INTRA.REPUL.0>
0

>  <SCORE.INTRA.SOLV>
1.42775

>  <SCORE.INTRA.SOLV.lig_0>
-51.4104

>  <SCORE.INTRA.VDW>
-3.36639

>  <SCORE.INTRA.VDW.0>
0.110327

>  <SCORE.INTRA.norm>
-0.225717

>  <SCORE.RESTR>
0.00289133

>  <SCORE.RESTR.CAVITY>
0.00289133

>  <SCORE.RESTR.norm>
9.03542e-05

>  <SCORE.SYSTEM>
0

>  <SCORE.SYSTEM.CONST>
0

>  <SCORE.SYSTEM.DIHEDRAL>
0

>  <SCORE.SYSTEM.SOLV>
0

>  <SCORE.SYSTEM.norm>
0

>  <SCORE.heavy>
32

>  <SCORE.norm>
-1.04896

>  <RMSD>
8.675

$$$$
lig.pdb
 OpenBabel11021811523D
libRbt.so/2013.1/901 2013/11/27
 32 34  0  0  0  0  0  0  0  0999 V2000
   -2.5077   15.0348    4.0988 P   0  0  0  0  0  0  0  0  0  0  0  0
   -2.2514   16.1066    5.1301 O   0  0  0  0  0  0  0  0  0  0  0  0
   -4.0704   14.6652    4.3314 O   0  0  0  0  0  0  0  0  0  0  0  0
   -2.4559   15.4136    2.6397 O   0  0  0  0  0  0  0  0  0  0  0  0
   -1.4743   14.0360    4.2917 O   0  0  0  0  0  0  0  0  0  0  0  0
   -2.0226   12.6927    3.9911 P   0  0  1  0  0  0  0  0  0  0  0  0
   -3.0005   12.3458    5.0491 O   0  0  0  0  0  0  0  0  0  0  0  0
   -2.7138   12.7080    2.6808 O   0  0  0  0  0  0  0  0  0  0  0  0
   -0.9169   11.7026    3.9646 O   0  0  0  0  0  0  0  0  0  0  0  0
    0.3259   11.8737    4.7541 P   0  0  1  0  0  0  0  0  0  0  0  0
    0.1153   12.1456    6.1906 O   0  0  0  0  0  0  0  0  0  0  0  0
    1.3982   10.8983    4.4562 O   0  0  0  0  0  0  0  0  0  0  0  0
    0.8991   13.2879    4.2153 O   0  0  0  0  0  0  0  0  0  0  0  0
    1.2591   13.4940    2.8623 C   0  0  0  0  0  0  0  0  0  0  0  0
    0.8162   14.8665    2.3365 C   0  0  1  0  0  0  0  0  0  0  0  0
    1.6798   15.8770    2.8152 O   0  0  0  0  0  0  0  0  0  0  0  0
    0.9736   15.0278    0.8143 C   0  0  1  0  0  0  0  0  0  0  0  0
   -0.0224   14.3955    0.0280 O   0  0  0  0  0  0  0  0  0  0  0  0
    1.0044   16.5438    0.6217 C   0  0  1  0  0  0  0  0  0  0  0  0
   -0.2862   17.0795    0.3886 O   0  0  0  0  0  0  0  0  0  0  0  0
    1.4899   17.0138    1.9917 C   0  0  2  0  0  0  0  0  0  0  0  0
    2.6923   17.8741    1.9775 N   0  0  0  0  0  0  0  0  0  0  0  0
    2.8255   19.2240    2.1831 C   0  0  0  0  0  0  0  0  0  0  0  0
    4.0394   19.6742    1.9968 N   0  0  0  0  0  0  0  0  0  0  0  0
    4.7752   18.5398    1.6673 C   0  0  0  0  0  0  0  0  0  0  0  0
    6.1539   18.3902    1.3114 C   0  0  0  0  0  0  0  0  0  0  0  0
    6.9972   19.2752    1.1815 O   0  0  0  0  0  0  0  0  0  0  0  0
    6.5132   17.0552    1.0821 N   0  0  0  0  0  0  0  0  0  0  0  0
    5.6390   15.9876    1.2201 C   0  0  0  0  0  0  0  0  0  0  0  0
    6.1291   14.7510    1.0773 N   0  0  0  0  0  0  0  0  0  0  0  0
    4.3355   16.1373    1.5068 N   0  0  0  0  0  0  0  0  0  0  0  0
    3.9643   17.4306    1.7118 C   0  0  0  0  0  0  0  0  0  0  0  0
  1  2  2  0  0  0  0
  1  4  1  0  0  0  0
  1  3  1  0  0  0  0
  5  1  1  0  0  0  0
  6  7  2  1  0  0  0
  6  9  1  0  0  0  0
  6  5  1  0  0  0  0
  6  8  1  0  0  0  0
 10 11  2  1  0  0  0
 10 12  1  0  0  0  0
 10 13  1  0  0  0  0
 10  9  1  0  0  0  0
 13 14  1  0  0  0  0
 15 14  1  1  0  0  0
 15 16  1  0  0  0  0
 17 19  1  0  0  0  0
 17 15  1  0  0  0  0
 17 18  1  6  0  0  0
 19 21  1  0  0  0  0
 19 20  1  1  0  0  0
 21 16  1  0  0  0  0
 21 22  1  6  0  0  0
 22 32  1  0  0  0  0
 23 22  1  0  0  0  0
 23 24  2  0  0  0  0
 24 25  1  0  0  0  0
 25 26  1  0  0  0  0
 26 27  2  0  0  0  0
 26 28  1  0  0  0  0
 29 28  1  0  0  0  0
 29 30  1  0  0  0  0
 31 29  2  0  0  0  0
 32 25  2  0  0  0  0
 32 31  1  0  0  0  0
M  END
>  <CHROM.1>
146.21543567,27.98382431,-69.20838692,-61.16445734,51.89771870,138.88617811
76.80219863,-178.65917124,-68.07943228,-129.80464790,0.92633774,15.04549413
2.84837834,2.47898170,-0.13887113,2.74713557

>  <Name>
lig.pdb

>  <RI>
0

>  <Rbt.Current_Directory>
/home/itssahil/PROJECTS/Mol_Feturizer/New_Systems/rnas/5lwj

>  <Rbt.Executable>
rbdock ($Id: //depot/dev/client3/rdock/2013.1/src/exe/rbdock.cxx#4 $)

>  <Rbt.Library>
libRbt.so (2013.1, Build901 2013/11/27)

>  <Rbt.Parameter_File>
/export/apps/rDock/src/rDock_2013.1_src/data/scripts/dock_solv.prm

>  <Rbt.Receptor>
prm/pocket_docking_4.prm

>  <SCORE>
-31.8519

>  <SCORE.INTER>
-28.5205

>  <SCORE.INTER.CONST>
1

>  <SCORE.INTER.POLAR>
-2.25577

>  <SCORE.INTER.ROT>
8

>  <SCORE.INTER.SOLV>
18.7538

>  <SCORE.INTER.VDW>
-26.679

>  <SCORE.INTER.norm>
-0.891267

>  <SCORE.INTRA>
-3.33138

>  <SCORE.INTRA.DIHEDRAL>
1.4427

>  <SCORE.INTRA.DIHEDRAL.0>
10.9248

>  <SCORE.INTRA.POLAR>
0

>  <SCORE.INTRA.POLAR.0>
0

>  <SCORE.INTRA.REPUL>
0

>  <SCORE.INTRA.REPUL.0>
0

>  <SCORE.INTRA.SOLV>
1.51766

>  <SCORE.INTRA.SOLV.lig_0>
-51.4104

>  <SCORE.INTRA.VDW>
-4.81156

>  <SCORE.INTRA.VDW.0>
0.110327

>  <SCORE.INTRA.norm>
-0.104106

>  <SCORE.RESTR>
0

>  <SCORE.RESTR.CAVITY>
0

>  <SCORE.RESTR.norm>
0

>  <SCORE.SYSTEM>
0

>  <SCORE.SYSTEM.CONST>
0

>  <SCORE.SYSTEM.DIHEDRAL>
0

>  <SCORE.SYSTEM.SOLV>
0

>  <SCORE.SYSTEM.norm>
0

>  <SCORE.heavy>
32

>  <SCORE.norm>
-0.995372

>  <RMSD>
8.690

$$$$
lig.pdb
 OpenBabel11021811523D
libRbt.so/2013.1/901 2013/11/27
 32 34  0  0  0  0  0  0  0  0999 V2000
   -2.5197   13.0557    4.6758 P   0  0  0  0  0  0  0  0  0  0  0  0
   -3.7906   13.2435    3.8837 O   0  0  0  0  0  0  0  0  0  0  0  0
   -2.0724   14.5765    5.0217 O   0  0  0  0  0  0  0  0  0  0  0  0
   -2.6081   12.4044    6.0334 O   0  0  0  0  0  0  0  0  0  0  0  0
   -1.6689   12.1983    3.8733 O   0  0  0  0  0  0  0  0  0  0  0  0
   -0.2478   12.5164    4.1467 P   0  0  1  0  0  0  0  0  0  0  0  0
    0.0079   12.2859    5.5880 O   0  0  0  0  0  0  0  0  0  0  0  0
    0.6330   11.6291    3.3519 O   0  0  0  0  0  0  0  0  0  0  0  0
    0.0174   13.9340    3.7950 O   0  0  0  0  0  0  0  0  0  0  0  0
   -0.0813   14.4431    2.4065 P   0  0  1  0  0  0  0  0  0  0  0  0
   -0.9151   13.6238    1.5036 O   0  0  0  0  0  0  0  0  0  0  0  0
   -0.2850   15.9040    2.2864 O   0  0  0  0  0  0  0  0  0  0  0  0
    1.4080   14.1894    1.8265 O   0  0  0  0  0  0  0  0  0  0  0  0
    1.6951   13.1598    0.8992 C   0  0  0  0  0  0  0  0  0  0  0  0
    2.2545   13.6978   -0.4252 C   0  0  1  0  0  0  0  0  0  0  0  0
    1.4392   14.7434   -0.9132 O   0  0  0  0  0  0  0  0  0  0  0  0
    3.6104   14.4110   -0.2817 C   0  0  1  0  0  0  0  0  0  0  0  0
    4.7355   13.5595   -0.1424 O   0  0  0  0  0  0  0  0  0  0  0  0
    3.6828   15.2860   -1.5329 C   0  0  1  0  0  0  0  0  0  0  0  0
    4.3204   14.6248   -2.6115 O   0  0  0  0  0  0  0  0  0  0  0  0
    2.2027   15.4572   -1.8692 C   0  0  2  0  0  0  0  0  0  0  0  0
    1.7381   16.8554   -1.9926 N   0  0  0  0  0  0  0  0  0  0  0  0
    0.8591   17.4285   -2.8765 C   0  0  0  0  0  0  0  0  0  0  0  0
    0.7539   18.7268   -2.7573 N   0  0  0  0  0  0  0  0  0  0  0  0
    1.6049   19.0408   -1.7019 C   0  0  0  0  0  0  0  0  0  0  0  0
    1.9516   20.3041   -1.1241 C   0  0  0  0  0  0  0  0  0  0  0  0
    1.5823   21.4209   -1.4813 O   0  0  0  0  0  0  0  0  0  0  0  0
    2.8305   20.1817   -0.0395 N   0  0  0  0  0  0  0  0  0  0  0  0
    3.2884   18.9668    0.4476 C   0  0  0  0  0  0  0  0  0  0  0  0
    4.0391   18.9758    1.5549 N   0  0  0  0  0  0  0  0  0  0  0  0
    2.9990   17.7881   -0.1275 N   0  0  0  0  0  0  0  0  0  0  0  0
    2.1627   17.8904   -1.1965 C   0  0  0  0  0  0  0  0  0  0  0  0
  1  2  2  0  0  0  0
  1  4  1  0  0  0  0
  1  3  1  0  0  0  0
  5  1  1  0  0  0  0
  6  7  2  1  0  0  0
  6  9  1  0  0  0  0
  6  5  1  0  0  0  0
  6  8  1  0  0  0  0
 10 11  2  6  0  0  0
 10 12  1  0  0  0  0
 10 13  1  0  0  0  0
 10  9  1  0  0  0  0
 13 14  1  0  0  0  0
 15 14  1  1  0  0  0
 15 16  1  0  0  0  0
 17 19  1  0  0  0  0
 17 15  1  0  0  0  0
 17 18  1  6  0  0  0
 19 21  1  0  0  0  0
 19 20  1  6  0  0  0
 21 16  1  0  0  0  0
 21 22  1  1  0  0  0
 22 32  1  0  0  0  0
 23 22  1  0  0  0  0
 23 24  2  0  0  0  0
 24 25  1  0  0  0  0
 25 26  1  0  0  0  0
 26 27  2  0  0  0  0
 26 28  1  0  0  0  0
 29 28  1  0  0  0  0
 29 30  1  0  0  0  0
 31 29  2  0  0  0  0
 32 25  2  0  0  0  0
 32 31  1  0  0  0  0
M  END
>  <CHROM.1>
150.10671137,-64.52057917,59.91460919,106.38153395,21.55023996,119.48913276
-49.47196756,-71.17779733,-176.36768028,-95.16550359,0.86081080,15.19736297
1.33565843,2.25896806,-0.75311335,2.82220969

>  <Name>
lig.pdb

>  <RI>
1.82117e+07

>  <Rbt.Current_Directory>
/home/itssahil/PROJECTS/Mol_Feturizer/New_Systems/rnas/5lwj

>  <Rbt.Executable>
rbdock ($Id: //depot/dev/client3/rdock/2013.1/src/exe/rbdock.cxx#4 $)

>  <Rbt.Library>
libRbt.so (2013.1, Build901 2013/11/27)

>  <Rbt.Parameter_File>
/export/apps/rDock/src/rDock_2013.1_src/data/scripts/dock_solv.prm

>  <Rbt.Receptor>
prm/pocket_docking_5.prm

>  <SCORE>
-25.6104

>  <SCORE.INTER>
-25.1173

>  <SCORE.INTER.CONST>
1

>  <SCORE.INTER.POLAR>
-3.2128

>  <SCORE.INTER.ROT>
8

>  <SCORE.INTER.SOLV>
13.3668

>  <SCORE.INTER.VDW>
-19.4245

>  <SCORE.INTER.norm>
-0.784916

>  <SCORE.INTRA>
-0.493059

>  <SCORE.INTRA.DIHEDRAL>
4.31569

>  <SCORE.INTRA.DIHEDRAL.0>
10.9248

>  <SCORE.INTRA.POLAR>
0

>  <SCORE.INTRA.POLAR.0>
0

>  <SCORE.INTRA.REPUL>
0.0103724

>  <SCORE.INTRA.REPUL.0>
0

>  <SCORE.INTRA.SOLV>
2.24539

>  <SCORE.INTRA.SOLV.lig_0>
-51.4104

>  <SCORE.INTRA.VDW>
-3.82546

>  <SCORE.INTRA.VDW.0>
0.110327

>  <SCORE.INTRA.norm>
-0.0154081

>  <SCORE.RESTR>
0

>  <SCORE.RESTR.CAVITY>
0

>  <SCORE.RESTR.norm>
0

>  <SCORE.SYSTEM>
0

>  <SCORE.SYSTEM.CONST>
0

>  <SCORE.SYSTEM.DIHEDRAL>
0

>  <SCORE.SYSTEM.SOLV>
0

>  <SCORE.SYSTEM.norm>
0

>  <SCORE.heavy>
32

>  <SCORE.norm>
-0.800324

>  <RMSD>
8.704

$$$$
lig.pdb
 OpenBabel11021811523D
libRbt.so/2013.1/901 2013/11/27
 32 34  0  0  0  0  0  0  0  0999 V2000
    1.0696   11.4322    5.8369 P   0  0  0  0  0  0  0  0  0  0  0  0
    1.8617   10.5320    4.9202 O   0  0  0  0  0  0  0  0  0  0  0  0
   -0.3191   10.6189    6.0430 O   0  0  0  0  0  0  0  0  0  0  0  0
    1.5632   11.6357    7.2476 O   0  0  0  0  0  0  0  0  0  0  0  0
    1.0747   12.7427    5.2162 O   0  0  0  0  0  0  0  0  0  0  0  0
    0.1479   12.7459    4.0601 P   0  0  1  0  0  0  0  0  0  0  0  0
    0.5516   11.6553    3.1417 O   0  0  0  0  0  0  0  0  0  0  0  0
   -1.2388   12.5013    4.5205 O   0  0  0  0  0  0  0  0  0  0  0  0
    0.2243   14.0578    3.3697 O   0  0  0  0  0  0  0  0  0  0  0  0
    1.2561   14.3639    2.3506 P   0  0  1  0  0  0  0  0  0  0  0  0
    2.6434   14.0738    2.7666 O   0  0  0  0  0  0  0  0  0  0  0  0
    0.9199   13.9457    0.9714 O   0  0  0  0  0  0  0  0  0  0  0  0
    1.2412   15.9813    2.3021 O   0  0  0  0  0  0  0  0  0  0  0  0
    0.3145   16.7077    1.5171 C   0  0  0  0  0  0  0  0  0  0  0  0
    0.9556   17.3214    0.2646 C   0  0  1  0  0  0  0  0  0  0  0  0
    1.8943   18.3123    0.6297 O   0  0  0  0  0  0  0  0  0  0  0  0
    1.8406   16.3398   -0.5236 C   0  0  1  0  0  0  0  0  0  0  0  0
    1.1445   15.4028   -1.3284 O   0  0  0  0  0  0  0  0  0  0  0  0
    2.7483   17.2602   -1.3391 C   0  0  1  0  0  0  0  0  0  0  0  0
    2.2059   17.5528   -2.6147 O   0  0  0  0  0  0  0  0  0  0  0  0
    2.7277   18.5327   -0.4943 C   0  0  2  0  0  0  0  0  0  0  0  0
    4.0536   19.0455   -0.0878 N   0  0  0  0  0  0  0  0  0  0  0  0
    4.5357   20.3289   -0.0356 C   0  0  0  0  0  0  0  0  0  0  0  0
    5.8021   20.4098    0.2816 N   0  0  0  0  0  0  0  0  0  0  0  0
    6.1876   19.0874    0.4795 C   0  0  0  0  0  0  0  0  0  0  0  0
    7.4630   18.5238    0.8048 C   0  0  0  0  0  0  0  0  0  0  0  0
    8.5323   19.1139    0.9445 O   0  0  0  0  0  0  0  0  0  0  0  0
    7.4192   17.1306    0.9504 N   0  0  0  0  0  0  0  0  0  0  0  0
    6.2598   16.3795    0.8295 C   0  0  0  0  0  0  0  0  0  0  0  0
    6.3278   15.0704    1.0964 N   0  0  0  0  0  0  0  0  0  0  0  0
    5.0759   16.9067    0.4769 N   0  0  0  0  0  0  0  0  0  0  0  0
    5.1050   18.2572    0.3103 C   0  0  0  0  0  0  0  0  0  0  0  0
  1  2  2  0  0  0  0
  1  4  1  0  0  0  0
  1  3  1  0  0  0  0
  5  1  1  0  0  0  0
  6  7  2  6  0  0  0
  6  9  1  0  0  0  0
  6  5  1  0  0  0  0
  6  8  1  0  0  0  0
 10 11  2  1  0  0  0
 10 12  1  0  0  0  0
 10 13  1  0  0  0  0
 10  9  1  0  0  0  0
 13 14  1  0  0  0  0
 15 14  1  1  0  0  0
 15 16  1  0  0  0  0
 17 19  1  0  0  0  0
 17 15  1  0  0  0  0
 17 18  1  6  0  0  0
 19 21  1  0  0  0  0
 19 20  1  6  0  0  0
 21 16  1  0  0  0  0
 21 22  1  1  0  0  0
 22 32  1  0  0  0  0
 23 22  1  0  0  0  0
 23 24  2  0  0  0  0
 24 25  1  0  0  0  0
 25 26  1  0  0  0  0
 26 27  2  0  0  0  0
 26 28  1  0  0  0  0
 29 28  1  0  0  0  0
 29 30  1  0  0  0  0
 31 29  2  0  0  0  0
 32 25  2  0  0  0  0
 32 31  1  0  0  0  0
M  END
>  <CHROM.1>
74.84337184,84.39933040,-55.85129621,-83.96128650,-50.94459762,-105.95688890
-66.02843498,-69.69808542,-48.63746649,-96.96330835,2.56284395,15.31947341
2.02246815,-2.10867178,-0.28163057,-0.81500781

>  <Name>
lig.pdb

>  <RI>
0

>  <Rbt.Current_Directory>
/home/itssahil/PROJECTS/Mol_Feturizer/New_Systems/rnas/5lwj

>  <Rbt.Executable>
rbdock ($Id: //depot/dev/client3/rdock/2013.1/src/exe/rbdock.cxx#4 $)

>  <Rbt.Library>
libRbt.so (2013.1, Build901 2013/11/27)

>  <Rbt.Parameter_File>
/export/apps/rDock/src/rDock_2013.1_src/data/scripts/dock_solv.prm

>  <Rbt.Receptor>
prm/pocket_docking_3.prm

>  <SCORE>
-25.1678

>  <SCORE.INTER>
-20.5761

>  <SCORE.INTER.CONST>
1

>  <SCORE.INTER.POLAR>
-1.72172

>  <SCORE.INTER.ROT>
8

>  <SCORE.INTER.SOLV>
19.011

>  <SCORE.INTER.VDW>
-23.2487

>  <SCORE.INTER.norm>
-0.643002

>  <SCORE.INTRA>
-4.59168

>  <SCORE.INTRA.DIHEDRAL>
1.94168

>  <SCORE.INTRA.DIHEDRAL.0>
10.9248

>  <SCORE.INTRA.POLAR>
-0.875733

>  <SCORE.INTRA.POLAR.0>
0

>  <SCORE.INTRA.REPUL>
0

>  <SCORE.INTRA.REPUL.0>
0

>  <SCORE.INTRA.SOLV>
1.39738

>  <SCORE.INTRA.SOLV.lig_0>
-51.4104

>  <SCORE.INTRA.VDW>
-3.28372

>  <SCORE.INTRA.VDW.0>
0.110327

>  <SCORE.INTRA.norm>
-0.14349

>  <SCORE.RESTR>
0

>  <SCORE.RESTR.CAVITY>
0

>  <SCORE.RESTR.norm>
0

>  <SCORE.SYSTEM>
0

>  <SCORE.SYSTEM.CONST>
0

>  <SCORE.SYSTEM.DIHEDRAL>
0

>  <SCORE.SYSTEM.SOLV>
0

>  <SCORE.SYSTEM.norm>
0

>  <SCORE.heavy>
32

>  <SCORE.norm>
-0.786492

>  <RMSD>
8.705

$$$$
lig.pdb
 OpenBabel11021811523D
libRbt.so/2013.1/901 2013/11/27
 32 34  0  0  0  0  0  0  0  0999 V2000
   -1.8417   13.8550    3.4518 P   0  0  0  0  0  0  0  0  0  0  0  0
   -2.3720   14.5604    2.2273 O   0  0  0  0  0  0  0  0  0  0  0  0
   -1.1412   15.0525    4.2931 O   0  0  0  0  0  0  0  0  0  0  0  0
   -2.8304   13.2762    4.4329 O   0  0  0  0  0  0  0  0  0  0  0  0
   -1.0581   12.7367    2.9637 O   0  0  0  0  0  0  0  0  0  0  0  0
    0.2575   12.7200    3.6451 P   0  0  1  0  0  0  0  0  0  0  0  0
    0.0209   12.7755    5.1070 O   0  0  0  0  0  0  0  0  0  0  0  0
    0.9818   11.4692    3.3201 O   0  0  0  0  0  0  0  0  0  0  0  0
    1.0560   13.8918    3.2060 O   0  0  0  0  0  0  0  0  0  0  0  0
    1.3637   14.1584    1.7808 P   0  0  1  0  0  0  0  0  0  0  0  0
    2.1368   13.0969    1.1045 O   0  0  0  0  0  0  0  0  0  0  0  0
    0.2424   14.7117    0.9892 O   0  0  0  0  0  0  0  0  0  0  0  0
    2.4375   15.3659    1.8673 O   0  0  0  0  0  0  0  0  0  0  0  0
    3.7178   15.2017    2.4475 C   0  0  0  0  0  0  0  0  0  0  0  0
    4.8139   15.9549    1.6809 C   0  0  1  0  0  0  0  0  0  0  0  0
    4.9863   15.3948    0.3952 O   0  0  0  0  0  0  0  0  0  0  0  0
    4.4414   17.4067    1.3327 C   0  0  1  0  0  0  0  0  0  0  0  0
    4.5391   18.3341    2.4007 O   0  0  0  0  0  0  0  0  0  0  0  0
    5.3770   17.7421    0.1715 C   0  0  1  0  0  0  0  0  0  0  0  0
    6.5909   18.3236    0.6136 O   0  0  0  0  0  0  0  0  0  0  0  0
    5.6749   16.3526   -0.3889 C   0  0  2  0  0  0  0  0  0  0  0  0
    5.3885   16.1747   -1.8285 N   0  0  0  0  0  0  0  0  0  0  0  0
    6.2362   16.1129   -2.9055 C   0  0  0  0  0  0  0  0  0  0  0  0
    5.6262   16.0461   -4.0606 N   0  0  0  0  0  0  0  0  0  0  0  0
    4.2743   16.0378   -3.7305 C   0  0  0  0  0  0  0  0  0  0  0  0
    3.1087   16.0181   -4.5618 C   0  0  0  0  0  0  0  0  0  0  0  0
    3.0606   16.0437   -5.7900 O   0  0  0  0  0  0  0  0  0  0  0  0
    1.9173   15.9820   -3.8249 N   0  0  0  0  0  0  0  0  0  0  0  0
    1.8694   15.9335   -2.4398 C   0  0  0  0  0  0  0  0  0  0  0  0
    0.6736   15.7942   -1.8564 N   0  0  0  0  0  0  0  0  0  0  0  0
    2.9634   16.0010   -1.6637 N   0  0  0  0  0  0  0  0  0  0  0  0
    4.1294   16.0582   -2.3636 C   0  0  0  0  0  0  0  0  0  0  0  0
  1  2  2  0  0  0  0
  1  4  1  0  0  0  0
  1  3  1  0  0  0  0
  5  1  1  0  0  0  0
  6  7  2  1  0  0  0
  6  9  1  0  0  0  0
  6  5  1  0  0  0  0
  6  8  1  0  0  0  0
 10 11  2  6  0  0  0
 10 12  1  0  0  0  0
 10 13  1  0  0  0  0
 10  9  1  0  0  0  0
 13 14  1  0  0  0  0
 15 14  1  6  0  0  0
 15 16  1  0  0  0  0
 17 19  1  0  0  0  0
 17 15  1  0  0  0  0
 17 18  1  1  0  0  0
 19 21  1  0  0  0  0
 19 20  1  1  0  0  0
 21 16  1  0  0  0  0
 21 22  1  6  0  0  0
 22 32  1  0  0  0  0
 23 22  1  0  0  0  0
 23 24  2  0  0  0  0
 24 25  1  0  0  0  0
 25 26  1  0  0  0  0
 26 27  2  0  0  0  0
 26 28  1  0  0  0  0
 29 28  1  0  0  0  0
 29 30  1  0  0  0  0
 31 29  2  0  0  0  0
 32 25  2  0  0  0  0
 32 31  1  0  0  0  0
M  END
>  <CHROM.1>
131.30081175,-56.48885576,52.02961228,65.20752799,-60.54965233,141.17850014
-66.15370259,-179.35126127,-179.75908258,-131.40270635,2.10941778,15.06094107
0.75806556,2.33909436,0.44822607,1.65348306

>  <Name>
lig.pdb

>  <RI>
0

>  <Rbt.Current_Directory>
/home/itssahil/PROJECTS/Mol_Feturizer/New_Systems/rnas/5lwj

>  <Rbt.Executable>
rbdock ($Id: //depot/dev/client3/rdock/2013.1/src/exe/rbdock.cxx#4 $)

>  <Rbt.Library>
libRbt.so (2013.1, Build901 2013/11/27)

>  <Rbt.Parameter_File>
/export/apps/rDock/src/rDock_2013.1_src/data/scripts/dock_solv.prm

>  <Rbt.Receptor>
prm/pocket_docking_6.prm

>  <SCORE>
-30.9504

>  <SCORE.INTER>
-23.6216

>  <SCORE.INTER.CONST>
1

>  <SCORE.INTER.POLAR>
-3.00502

>  <SCORE.INTER.ROT>
8

>  <SCORE.INTER.SOLV>
12.4023

>  <SCORE.INTER.VDW>
-18.7984

>  <SCORE.INTER.norm>
-0.738174

>  <SCORE.INTRA>
-7.32882

>  <SCORE.INTRA.DIHEDRAL>
-0.367714

>  <SCORE.INTRA.DIHEDRAL.0>
10.9248

>  <SCORE.INTRA.POLAR>
-0.999663

>  <SCORE.INTRA.POLAR.0>
0

>  <SCORE.INTRA.REPUL>
0

>  <SCORE.INTRA.REPUL.0>
0

>  <SCORE.INTRA.SOLV>
2.79055

>  <SCORE.INTRA.SOLV.lig_0>
-51.4104

>  <SCORE.INTRA.VDW>
-5.14139

>  <SCORE.INTRA.VDW.0>
0.110327

>  <SCORE.INTRA.norm>
-0.229026

>  <SCORE.RESTR>
0

>  <SCORE.RESTR.CAVITY>
0

>  <SCORE.RESTR.norm>
0

>  <SCORE.SYSTEM>
0

>  <SCORE.SYSTEM.CONST>
0

>  <SCORE.SYSTEM.DIHEDRAL>
0

>  <SCORE.SYSTEM.SOLV>
0

>  <SCORE.SYSTEM.norm>
0

>  <SCORE.heavy>
32

>  <SCORE.norm>
-0.9672

>  <RMSD>
8.715

$$$$
lig.pdb
 OpenBabel11021811523D
libRbt.so/2013.1/901 2013/11/27
 32 34  0  0  0  0  0  0  0  0999 V2000
    1.0704   11.2655    5.9626 P   0  0  0  0  0  0  0  0  0  0  0  0
    1.9674   11.7009    7.0956 O   0  0  0  0  0  0  0  0  0  0  0  0
    2.0803   10.4596    4.9812 O   0  0  0  0  0  0  0  0  0  0  0  0
   -0.0118   10.2548    6.2498 O   0  0  0  0  0  0  0  0  0  0  0  0
    0.3915   12.4623    5.5047 O   0  0  0  0  0  0  0  0  0  0  0  0
   -0.2280   12.2046    4.1836 P   0  0  1  0  0  0  0  0  0  0  0  0
    0.7861   11.5606    3.3159 O   0  0  0  0  0  0  0  0  0  0  0  0
   -1.3846   11.2913    4.3346 O   0  0  0  0  0  0  0  0  0  0  0  0
   -0.6760   13.4890    3.5893 O   0  0  0  0  0  0  0  0  0  0  0  0
   -2.0653   13.9879    3.7227 P   0  0  1  0  0  0  0  0  0  0  0  0
   -3.0930   13.1371    3.0889 O   0  0  0  0  0  0  0  0  0  0  0  0
   -2.4226   14.4997    5.0645 O   0  0  0  0  0  0  0  0  0  0  0  0
   -2.0670   15.2976    2.7723 O   0  0  0  0  0  0  0  0  0  0  0  0
   -1.0264   16.2563    2.8008 C   0  0  0  0  0  0  0  0  0  0  0  0
   -0.0892   16.1459    1.5901 C   0  0  1  0  0  0  0  0  0  0  0  0
    0.6869   17.3197    1.4621 O   0  0  0  0  0  0  0  0  0  0  0  0
    1.0038   15.0743    1.7475 C   0  0  1  0  0  0  0  0  0  0  0  0
    0.5783   13.7362    1.5511 O   0  0  0  0  0  0  0  0  0  0  0  0
    2.0708   15.5086    0.7429 C   0  0  1  0  0  0  0  0  0  0  0  0
    1.8845   14.9098   -0.5274 O   0  0  0  0  0  0  0  0  0  0  0  0
    1.7859   17.0048    0.6259 C   0  0  2  0  0  0  0  0  0  0  0  0
    2.9374   17.8924    0.8947 N   0  0  0  0  0  0  0  0  0  0  0  0
    2.9911   19.2495    1.0890 C   0  0  0  0  0  0  0  0  0  0  0  0
    4.2045   19.7235    1.2062 N   0  0  0  0  0  0  0  0  0  0  0  0
    5.0189   18.5993    1.1078 C   0  0  0  0  0  0  0  0  0  0  0  0
    6.4451   18.4738    1.1202 C   0  0  0  0  0  0  0  0  0  0  0  0
    7.2787   19.3750    1.1848 O   0  0  0  0  0  0  0  0  0  0  0  0
    6.8734   17.1426    1.0283 N   0  0  0  0  0  0  0  0  0  0  0  0
    6.0109   16.0583    0.9688 C   0  0  0  0  0  0  0  0  0  0  0  0
    6.5417   14.8305    0.9911 N   0  0  0  0  0  0  0  0  0  0  0  0
    4.6751   16.1841    0.9088 N   0  0  0  0  0  0  0  0  0  0  0  0
    4.2423   17.4728    0.9753 C   0  0  0  0  0  0  0  0  0  0  0  0
  1  2  2  0  0  0  0
  1  4  1  0  0  0  0
  1  3  1  0  0  0  0
  5  1  1  0  0  0  0
  6  7  2  6  0  0  0
  6  9  1  0  0  0  0
  6  5  1  0  0  0  0
  6  8  1  0  0  0  0
 10 11  2  6  0  0  0
 10 12  1  0  0  0  0
 10 13  1  0  0  0  0
 10  9  1  0  0  0  0
 13 14  1  0  0  0  0
 15 14  1  1  0  0  0
 15 16  1  0  0  0  0
 17 19  1  0  0  0  0
 17 15  1  0  0  0  0
 17 18  1  6  0  0  0
 19 21  1  0  0  0  0
 19 20  1  6  0  0  0
 21 16  1  0  0  0  0
 21 22  1  1  0  0  0
 22 32  1  0  0  0  0
 23 22  1  0  0  0  0
 23 24  2  0  0  0  0
 24 25  1  0  0  0  0
 25 26  1  0  0  0  0
 26 27  2  0  0  0  0
 26 28  1  0  0  0  0
 29 28  1  0  0  0  0
 29 30  1  0  0  0  0
 31 29  2  0  0  0  0
 32 25  2  0  0  0  0
 32 31  1  0  0  0  0
M  END
>  <CHROM.1>
165.14523576,-95.35215860,-48.10660238,-45.47506957,-63.40730154,104.75106716
163.79875302,-174.67704849,-175.41561461,-43.98052675,1.51111447,14.68633558
2.81849597,-2.25169856,0.01218803,-0.59530593

>  <Name>
lig.pdb

>  <RI>
0

>  <Rbt.Current_Directory>
/home/itssahil/PROJECTS/Mol_Feturizer/New_Systems/rnas/5lwj

>  <Rbt.Executable>
rbdock ($Id: //depot/dev/client3/rdock/2013.1/src/exe/rbdock.cxx#4 $)

>  <Rbt.Library>
libRbt.so (2013.1, Build901 2013/11/27)

>  <Rbt.Parameter_File>
/export/apps/rDock/src/rDock_2013.1_src/data/scripts/dock_solv.prm

>  <Rbt.Receptor>
prm/pocket_docking_3.prm

>  <SCORE>
-31.961

>  <SCORE.INTER>
-33.1423

>  <SCORE.INTER.CONST>
1

>  <SCORE.INTER.POLAR>
-2.7348

>  <SCORE.INTER.ROT>
8

>  <SCORE.INTER.SOLV>
19.8898

>  <SCORE.INTER.VDW>
-28.5421

>  <SCORE.INTER.norm>
-1.0357

>  <SCORE.INTRA>
0.924869

>  <SCORE.INTRA.DIHEDRAL>
1.46449

>  <SCORE.INTRA.DIHEDRAL.0>
10.9248

>  <SCORE.INTRA.POLAR>
-0.0972438

>  <SCORE.INTRA.POLAR.0>
0

>  <SCORE.INTRA.REPUL>
0

>  <SCORE.INTRA.REPUL.0>
0

>  <SCORE.INTRA.SOLV>
2.34358

>  <SCORE.INTRA.SOLV.lig_0>
-51.4104

>  <SCORE.INTRA.VDW>
-0.64854

>  <SCORE.INTRA.VDW.0>
0.110327

>  <SCORE.INTRA.norm>
0.0289022

>  <SCORE.RESTR>
0.256357

>  <SCORE.RESTR.CAVITY>
0.256357

>  <SCORE.RESTR.norm>
0.00801115

>  <SCORE.SYSTEM>
0

>  <SCORE.SYSTEM.CONST>
0

>  <SCORE.SYSTEM.DIHEDRAL>
0

>  <SCORE.SYSTEM.SOLV>
0

>  <SCORE.SYSTEM.norm>
0

>  <SCORE.heavy>
32

>  <SCORE.norm>
-0.998783

>  <RMSD>
8.721

$$$$
lig.pdb
 OpenBabel11021811523D
libRbt.so/2013.1/901 2013/11/27
 32 34  0  0  0  0  0  0  0  0999 V2000
   -1.8807   16.2338    3.7182 P   0  0  0  0  0  0  0  0  0  0  0  0
   -0.3880   16.2749    3.4986 O   0  0  0  0  0  0  0  0  0  0  0  0
   -2.0220   16.4056    5.3254 O   0  0  0  0  0  0  0  0  0  0  0  0
   -2.7188   17.3642    3.1750 O   0  0  0  0  0  0  0  0  0  0  0  0
   -2.3511   15.0314    3.0581 O   0  0  0  0  0  0  0  0  0  0  0  0
   -1.9897   13.8470    3.8718 P   0  0  1  0  0  0  0  0  0  0  0  0
   -2.6824   13.9551    5.1774 O   0  0  0  0  0  0  0  0  0  0  0  0
   -2.4334   12.6085    3.1907 O   0  0  0  0  0  0  0  0  0  0  0  0
   -0.5188   13.8132    4.0685 O   0  0  0  0  0  0  0  0  0  0  0  0
    0.3984   13.1461    3.1142 P   0  0  1  0  0  0  0  0  0  0  0  0
    0.8095   11.7811    3.5008 O   0  0  0  0  0  0  0  0  0  0  0  0
    0.0453   13.3084    1.6863 O   0  0  0  0  0  0  0  0  0  0  0  0
    1.7711   13.9841    3.2933 O   0  0  0  0  0  0  0  0  0  0  0  0
    2.6027   14.3198    2.1986 C   0  0  0  0  0  0  0  0  0  0  0  0
    2.4116   15.7708    1.7358 C   0  0  1  0  0  0  0  0  0  0  0  0
    3.4708   16.5791    2.2061 O   0  0  0  0  0  0  0  0  0  0  0  0
    2.5385   15.9583    0.2138 C   0  0  1  0  0  0  0  0  0  0  0  0
    1.4103   15.5583   -0.5459 O   0  0  0  0  0  0  0  0  0  0  0  0
    2.8523   17.4470    0.0668 C   0  0  1  0  0  0  0  0  0  0  0  0
    1.6805   18.2274   -0.0913 O   0  0  0  0  0  0  0  0  0  0  0  0
    3.4711   17.7623    1.4273 C   0  0  2  0  0  0  0  0  0  0  0  0
    4.8148   18.3778    1.3855 N   0  0  0  0  0  0  0  0  0  0  0  0
    5.2019   19.6853    1.5367 C   0  0  0  0  0  0  0  0  0  0  0  0
    6.4788   19.8891    1.3397 N   0  0  0  0  0  0  0  0  0  0  0  0
    6.9856   18.6233    1.0611 C   0  0  0  0  0  0  0  0  0  0  0  0
    8.3103   18.2006    0.7200 C   0  0  0  0  0  0  0  0  0  0  0  0
    9.3059   18.9036    0.5593 O   0  0  0  0  0  0  0  0  0  0  0  0
    8.4095   16.8134    0.5474 N   0  0  0  0  0  0  0  0  0  0  0  0
    7.3490   15.9374    0.7234 C   0  0  0  0  0  0  0  0  0  0  0  0
    7.5954   14.6256    0.6340 N   0  0  0  0  0  0  0  0  0  0  0  0
    6.0980   16.3431    0.9958 N   0  0  0  0  0  0  0  0  0  0  0  0
    5.9791   17.6907    1.1457 C   0  0  0  0  0  0  0  0  0  0  0  0
  1  2  2  0  0  0  0
  1  4  1  0  0  0  0
  1  3  1  0  0  0  0
  5  1  1  0  0  0  0
  6  7  2  1  0  0  0
  6  9  1  0  0  0  0
  6  5  1  0  0  0  0
  6  8  1  0  0  0  0
 10 11  2  1  0  0  0
 10 12  1  0  0  0  0
 10 13  1  0  0  0  0
 10  9  1  0  0  0  0
 13 14  1  0  0  0  0
 15 14  1  6  0  0  0
 15 16  1  0  0  0  0
 17 19  1  0  0  0  0
 17 15  1  0  0  0  0
 17 18  1  6  0  0  0
 19 21  1  0  0  0  0
 19 20  1  1  0  0  0
 21 16  1  0  0  0  0
 21 22  1  6  0  0  0
 22 32  1  0  0  0  0
 23 22  1  0  0  0  0
 23 24  2  0  0  0  0
 24 25  1  0  0  0  0
 25 26  1  0  0  0  0
 26 27  2  0  0  0  0
 26 28  1  0  0  0  0
 29 28  1  0  0  0  0
 29 30  1  0  0  0  0
 31 29  2  0  0  0  0
 32 25  2  0  0  0  0
 32 31  1  0  0  0  0
M  END
>  <CHROM.1>
75.15466215,-88.42399698,62.48688719,-140.63283059,-97.94314259,100.69281864
102.36271675,60.04665499,56.35272193,-134.84686292,2.05671100,15.83168688
2.21758808,2.75730972,-0.29219297,3.03722289

>  <Name>
lig.pdb

>  <RI>
1.82117e+07

>  <Rbt.Current_Directory>
/home/itssahil/PROJECTS/Mol_Feturizer/New_Systems/rnas/5lwj

>  <Rbt.Executable>
rbdock ($Id: //depot/dev/client3/rdock/2013.1/src/exe/rbdock.cxx#4 $)

>  <Rbt.Library>
libRbt.so (2013.1, Build901 2013/11/27)

>  <Rbt.Parameter_File>
/export/apps/rDock/src/rDock_2013.1_src/data/scripts/dock_solv.prm

>  <Rbt.Receptor>
prm/pocket_docking_5.prm

>  <SCORE>
-26.3027

>  <SCORE.INTER>
-26.4735

>  <SCORE.INTER.CONST>
1

>  <SCORE.INTER.POLAR>
-3.198

>  <SCORE.INTER.ROT>
8

>  <SCORE.INTER.SOLV>
13.9059

>  <SCORE.INTER.VDW>
-20.5577

>  <SCORE.INTER.norm>
-0.827298

>  <SCORE.INTRA>
0.170838

>  <SCORE.INTRA.DIHEDRAL>
6.08364

>  <SCORE.INTRA.DIHEDRAL.0>
10.9248

>  <SCORE.INTRA.POLAR>
0

>  <SCORE.INTRA.POLAR.0>
0

>  <SCORE.INTRA.REPUL>
0

>  <SCORE.INTRA.REPUL.0>
0

>  <SCORE.INTRA.SOLV>
1.4886

>  <SCORE.INTRA.SOLV.lig_0>
-51.4104

>  <SCORE.INTRA.VDW>
-3.61528

>  <SCORE.INTRA.VDW.0>
0.110327

>  <SCORE.INTRA.norm>
0.0053387

>  <SCORE.RESTR>
0

>  <SCORE.RESTR.CAVITY>
0

>  <SCORE.RESTR.norm>
0

>  <SCORE.SYSTEM>
0

>  <SCORE.SYSTEM.CONST>
0

>  <SCORE.SYSTEM.DIHEDRAL>
0

>  <SCORE.SYSTEM.SOLV>
0

>  <SCORE.SYSTEM.norm>
0

>  <SCORE.heavy>
32

>  <SCORE.norm>
-0.821959

>  <RMSD>
8.736

$$$$
lig.pdb
 OpenBabel11021811523D
libRbt.so/2013.1/901 2013/11/27
 32 34  0  0  0  0  0  0  0  0999 V2000
    0.0893   11.1511    5.8434 P   0  0  0  0  0  0  0  0  0  0  0  0
   -1.1961   11.6054    6.4910 O   0  0  0  0  0  0  0  0  0  0  0  0
    1.1955   12.1571    6.4733 O   0  0  0  0  0  0  0  0  0  0  0  0
    0.6265    9.7854    6.1917 O   0  0  0  0  0  0  0  0  0  0  0  0
   -0.1651   11.1309    4.4159 O   0  0  0  0  0  0  0  0  0  0  0  0
    0.1373   12.4626    3.8409 P   0  0  1  0  0  0  0  0  0  0  0  0
   -0.6789   13.4709    4.5572 O   0  0  0  0  0  0  0  0  0  0  0  0
    1.5719   12.7820    4.0266 O   0  0  0  0  0  0  0  0  0  0  0  0
   -0.1945   12.4626    2.3940 O   0  0  0  0  0  0  0  0  0  0  0  0
   -0.4089   13.7113    1.6248 P   0  0  1  0  0  0  0  0  0  0  0  0
   -1.0901   13.5307    0.3268 O   0  0  0  0  0  0  0  0  0  0  0  0
   -0.8828   14.8654    2.4208 O   0  0  0  0  0  0  0  0  0  0  0  0
    1.0920   14.1150    1.1740 O   0  0  0  0  0  0  0  0  0  0  0  0
    2.0226   14.6939    2.0692 C   0  0  0  0  0  0  0  0  0  0  0  0
    3.0565   15.5766    1.3563 C   0  0  1  0  0  0  0  0  0  0  0  0
    4.3347   14.9771    1.4119 O   0  0  0  0  0  0  0  0  0  0  0  0
    2.8372   15.6850   -0.1629 C   0  0  1  0  0  0  0  0  0  0  0  0
    1.7979   16.5602   -0.5680 O   0  0  0  0  0  0  0  0  0  0  0  0
    4.2077   16.1125   -0.6875 C   0  0  1  0  0  0  0  0  0  0  0  0
    4.3360   17.5215   -0.7622 O   0  0  0  0  0  0  0  0  0  0  0  0
    5.1295   15.5944    0.4150 C   0  0  2  0  0  0  0  0  0  0  0  0
    6.2167   14.6996   -0.0359 N   0  0  0  0  0  0  0  0  0  0  0  0
    7.5790   14.8384    0.0488 C   0  0  0  0  0  0  0  0  0  0  0  0
    8.2497   13.8875   -0.5483 N   0  0  0  0  0  0  0  0  0  0  0  0
    7.2654   13.0393   -1.0466 C   0  0  0  0  0  0  0  0  0  0  0  0
    7.3687   11.8447   -1.8291 C   0  0  0  0  0  0  0  0  0  0  0  0
    8.3893   11.3220   -2.2721 O   0  0  0  0  0  0  0  0  0  0  0  0
    6.1224   11.2636   -2.0992 N   0  0  0  0  0  0  0  0  0  0  0  0
    4.9191   11.7683   -1.6296 C   0  0  0  0  0  0  0  0  0  0  0  0
    3.8066   11.0639   -1.8659 N   0  0  0  0  0  0  0  0  0  0  0  0
    4.8232   12.9151   -0.9371 N   0  0  0  0  0  0  0  0  0  0  0  0
    6.0236   13.5046   -0.6841 C   0  0  0  0  0  0  0  0  0  0  0  0
  1  2  2  0  0  0  0
  1  4  1  0  0  0  0
  1  3  1  0  0  0  0
  5  1  1  0  0  0  0
  6  7  2  1  0  0  0
  6  9  1  0  0  0  0
  6  5  1  0  0  0  0
  6  8  1  0  0  0  0
 10 11  2  6  0  0  0
 10 12  1  0  0  0  0
 10 13  1  0  0  0  0
 10  9  1  0  0  0  0
 13 14  1  0  0  0  0
 15 14  1  6  0  0  0
 15 16  1  0  0  0  0
 17 19  1  0  0  0  0
 17 15  1  0  0  0  0
 17 18  1  1  0  0  0
 19 21  1  0  0  0  0
 19 20  1  1  0  0  0
 21 16  1  0  0  0  0
 21 22  1  6  0  0  0
 22 32  1  0  0  0  0
 23 22  1  0  0  0  0
 23 24  2  0  0  0  0
 24 25  1  0  0  0  0
 25 26  1  0  0  0  0
 26 27  2  0  0  0  0
 26 28  1  0  0  0  0
 29 28  1  0  0  0  0
 29 30  1  0  0  0  0
 31 29  2  0  0  0  0
 32 25  2  0  0  0  0
 32 31  1  0  0  0  0
M  END
>  <CHROM.1>
88.56057236,160.66720909,-56.63193354,-76.17385690,-163.57271692,-152.51781244
-111.18214670,57.34493565,176.65204412,-117.00700111,2.62464270,13.32911934
1.58980129,-2.60309290,0.54818540,-0.59980162

>  <Name>
lig.pdb

>  <RI>
2.0892e+07

>  <Rbt.Current_Directory>
/home/itssahil/PROJECTS/Mol_Feturizer/New_Systems/rnas/5lwj

>  <Rbt.Executable>
rbdock ($Id: //depot/dev/client3/rdock/2013.1/src/exe/rbdock.cxx#4 $)

>  <Rbt.Library>
libRbt.so (2013.1, Build901 2013/11/27)

>  <Rbt.Parameter_File>
/export/apps/rDock/src/rDock_2013.1_src/data/scripts/dock_solv.prm

>  <Rbt.Receptor>
prm/pocket_docking_8.prm

>  <SCORE>
-33.4187

>  <SCORE.INTER>
-32.9476

>  <SCORE.INTER.CONST>
1

>  <SCORE.INTER.POLAR>
-2.32658

>  <SCORE.INTER.ROT>
8

>  <SCORE.INTER.SOLV>
22.025

>  <SCORE.INTER.VDW>
-30.4848

>  <SCORE.INTER.norm>
-1.02961

>  <SCORE.INTRA>
-0.474631

>  <SCORE.INTRA.DIHEDRAL>
2.98382

>  <SCORE.INTRA.DIHEDRAL.0>
10.9248

>  <SCORE.INTRA.POLAR>
0

>  <SCORE.INTRA.POLAR.0>
0

>  <SCORE.INTRA.REPUL>
0.00038607

>  <SCORE.INTRA.REPUL.0>
0

>  <SCORE.INTRA.SOLV>
-0.00028092

>  <SCORE.INTRA.SOLV.lig_0>
-51.4104

>  <SCORE.INTRA.VDW>
-1.96833

>  <SCORE.INTRA.VDW.0>
0.110327

>  <SCORE.INTRA.norm>
-0.0148322

>  <SCORE.RESTR>
0.00353208

>  <SCORE.RESTR.CAVITY>
0.00353208

>  <SCORE.RESTR.norm>
0.000110378

>  <SCORE.SYSTEM>
0

>  <SCORE.SYSTEM.CONST>
0

>  <SCORE.SYSTEM.DIHEDRAL>
0

>  <SCORE.SYSTEM.SOLV>
0

>  <SCORE.SYSTEM.norm>
0

>  <SCORE.heavy>
32

>  <SCORE.norm>
-1.04433

>  <RMSD>
8.743

$$$$
lig.pdb
 OpenBabel11021811523D
libRbt.so/2013.1/901 2013/11/27
 32 34  0  0  0  0  0  0  0  0999 V2000
    1.1115   11.3659    5.7617 P   0  0  0  0  0  0  0  0  0  0  0  0
    1.8395   10.7947    4.5694 O   0  0  0  0  0  0  0  0  0  0  0  0
    0.2403   10.1073    6.2997 O   0  0  0  0  0  0  0  0  0  0  0  0
    1.9177   11.7698    6.9708 O   0  0  0  0  0  0  0  0  0  0  0  0
    0.4575   12.5724    5.2932 O   0  0  0  0  0  0  0  0  0  0  0  0
   -0.9930   12.3173    5.1305 P   0  0  1  0  0  0  0  0  0  0  0  0
   -1.1575   11.0983    4.3041 O   0  0  0  0  0  0  0  0  0  0  0  0
   -1.6205   12.0923    6.4535 O   0  0  0  0  0  0  0  0  0  0  0  0
   -1.6276   13.4825    4.4648 O   0  0  0  0  0  0  0  0  0  0  0  0
   -3.0975   13.6643    4.4058 P   0  0  1  0  0  0  0  0  0  0  0  0
   -3.8753   12.6856    5.1925 O   0  0  0  0  0  0  0  0  0  0  0  0
   -3.5621   15.0647    4.5206 O   0  0  0  0  0  0  0  0  0  0  0  0
   -3.4485   13.2411    2.8838 O   0  0  0  0  0  0  0  0  0  0  0  0
   -3.3867   14.1588    1.8083 C   0  0  0  0  0  0  0  0  0  0  0  0
   -2.0136   14.8341    1.6872 C   0  0  1  0  0  0  0  0  0  0  0  0
   -1.0136   13.8694    1.4308 O   0  0  0  0  0  0  0  0  0  0  0  0
   -1.8779   15.7474    0.4562 C   0  0  1  0  0  0  0  0  0  0  0  0
   -2.5017   17.0158    0.5665 O   0  0  0  0  0  0  0  0  0  0  0  0
   -0.3659   15.8478    0.2565 C   0  0  1  0  0  0  0  0  0  0  0  0
    0.1921   16.9533    0.9447 O   0  0  0  0  0  0  0  0  0  0  0  0
    0.1144   14.5611    0.9252 C   0  0  2  0  0  0  0  0  0  0  0  0
    0.9501   13.6813    0.0805 N   0  0  0  0  0  0  0  0  0  0  0  0
    2.2695   13.3235    0.1974 C   0  0  0  0  0  0  0  0  0  0  0  0
    2.7146   12.5971   -0.7952 N   0  0  0  0  0  0  0  0  0  0  0  0
    1.6069   12.4374   -1.6223 C   0  0  0  0  0  0  0  0  0  0  0  0
    1.4698   11.7753   -2.8844 C   0  0  0  0  0  0  0  0  0  0  0  0
    2.3483   11.2213   -3.5421 O   0  0  0  0  0  0  0  0  0  0  0  0
    0.1590   11.8152   -3.3784 N   0  0  0  0  0  0  0  0  0  0  0  0
   -0.9014   12.4002   -2.7028 C   0  0  0  0  0  0  0  0  0  0  0  0
   -2.1255   12.2797   -3.2288 N   0  0  0  0  0  0  0  0  0  0  0  0
   -0.7586   13.0618   -1.5427 N   0  0  0  0  0  0  0  0  0  0  0  0
    0.5135   13.0514   -1.0588 C   0  0  0  0  0  0  0  0  0  0  0  0
  1  2  2  0  0  0  0
  1  4  1  0  0  0  0
  1  3  1  0  0  0  0
  5  1  1  0  0  0  0
  6  7  2  6  0  0  0
  6  9  1  0  0  0  0
  6  5  1  0  0  0  0
  6  8  1  0  0  0  0
 10 11  2  1  0  0  0
 10 12  1  0  0  0  0
 10 13  1  0  0  0  0
 10  9  1  0  0  0  0
 13 14  1  0  0  0  0
 15 14  1  6  0  0  0
 15 16  1  0  0  0  0
 17 19  1  0  0  0  0
 17 15  1  0  0  0  0
 17 18  1  1  0  0  0
 19 21  1  0  0  0  0
 19 20  1  1  0  0  0
 21 16  1  0  0  0  0
 21 22  1  6  0  0  0
 22 32  1  0  0  0  0
 23 22  1  0  0  0  0
 23 24  2  0  0  0  0
 24 25  1  0  0  0  0
 25 26  1  0  0  0  0
 26 27  2  0  0  0  0
 26 28  1  0  0  0  0
 29 28  1  0  0  0  0
 29 30  1  0  0  0  0
 31 29  2  0  0  0  0
 32 25  2  0  0  0  0
 32 31  1  0  0  0  0
M  END
>  <CHROM.1>
104.56770980,-167.16935049,-51.45956413,-86.40625010,6.81916375,55.56786718
61.93689318,67.57592313,-178.70605450,-121.67487688,-0.60444398,13.07943433
2.15351677,-1.77346166,0.65871289,-1.33535848

>  <Name>
lig.pdb

>  <RI>
0

>  <Rbt.Current_Directory>
/home/itssahil/PROJECTS/Mol_Feturizer/New_Systems/rnas/5lwj

>  <Rbt.Executable>
rbdock ($Id: //depot/dev/client3/rdock/2013.1/src/exe/rbdock.cxx#4 $)

>  <Rbt.Library>
libRbt.so (2013.1, Build901 2013/11/27)

>  <Rbt.Parameter_File>
/export/apps/rDock/src/rDock_2013.1_src/data/scripts/dock_solv.prm

>  <Rbt.Receptor>
prm/pocket_docking_6.prm

>  <SCORE>
-35.1478

>  <SCORE.INTER>
-31.1416

>  <SCORE.INTER.CONST>
1

>  <SCORE.INTER.POLAR>
-2.64608

>  <SCORE.INTER.ROT>
8

>  <SCORE.INTER.SOLV>
23.3233

>  <SCORE.INTER.VDW>
-28.6485

>  <SCORE.INTER.norm>
-0.973174

>  <SCORE.INTRA>
-4.08302

>  <SCORE.INTRA.DIHEDRAL>
-2.28606

>  <SCORE.INTRA.DIHEDRAL.0>
10.9248

>  <SCORE.INTRA.POLAR>
-0.0487098

>  <SCORE.INTRA.POLAR.0>
0

>  <SCORE.INTRA.REPUL>
0

>  <SCORE.INTRA.REPUL.0>
0

>  <SCORE.INTRA.SOLV>
0.697891

>  <SCORE.INTRA.SOLV.lig_0>
-51.4104

>  <SCORE.INTRA.VDW>
-3.12332

>  <SCORE.INTRA.VDW.0>
0.110327

>  <SCORE.INTRA.norm>
-0.127594

>  <SCORE.RESTR>
0.076819

>  <SCORE.RESTR.CAVITY>
0.076819

>  <SCORE.RESTR.norm>
0.00240059

>  <SCORE.SYSTEM>
0

>  <SCORE.SYSTEM.CONST>
0

>  <SCORE.SYSTEM.DIHEDRAL>
0

>  <SCORE.SYSTEM.SOLV>
0

>  <SCORE.SYSTEM.norm>
0

>  <SCORE.heavy>
32

>  <SCORE.norm>
-1.09837

>  <RMSD>
8.746

$$$$
lig.pdb
 OpenBabel11021811523D
libRbt.so/2013.1/901 2013/11/27
 32 34  0  0  0  0  0  0  0  0999 V2000
   -1.7360   17.1132    4.3473 P   0  0  0  0  0  0  0  0  0  0  0  0
   -1.9153   18.5622    3.9648 O   0  0  0  0  0  0  0  0  0  0  0  0
   -0.2299   16.7822    3.8425 O   0  0  0  0  0  0  0  0  0  0  0  0
   -1.6957   16.7558    5.8121 O   0  0  0  0  0  0  0  0  0  0  0  0
   -2.8745   16.4072    3.7924 O   0  0  0  0  0  0  0  0  0  0  0  0
   -2.6917   14.9489    3.9807 P   0  0  1  0  0  0  0  0  0  0  0  0
   -2.8580   14.6450    5.4215 O   0  0  0  0  0  0  0  0  0  0  0  0
   -3.7145   14.2051    3.2090 O   0  0  0  0  0  0  0  0  0  0  0  0
   -1.3346   14.5583    3.5234 O   0  0  0  0  0  0  0  0  0  0  0  0
   -0.8427   13.1615    3.5872 P   0  0  1  0  0  0  0  0  0  0  0  0
   -0.5820   12.6577    4.9511 O   0  0  0  0  0  0  0  0  0  0  0  0
   -1.5403   12.2088    2.6950 O   0  0  0  0  0  0  0  0  0  0  0  0
    0.6492   13.2800    2.9717 O   0  0  0  0  0  0  0  0  0  0  0  0
    0.8923   13.7449    1.6574 C   0  0  0  0  0  0  0  0  0  0  0  0
    2.3722   14.0697    1.4108 C   0  0  1  0  0  0  0  0  0  0  0  0
    2.5127   14.8682    0.2537 O   0  0  0  0  0  0  0  0  0  0  0  0
    2.9950   14.9786    2.4850 C   0  0  1  0  0  0  0  0  0  0  0  0
    3.3298   14.3390    3.7053 O   0  0  0  0  0  0  0  0  0  0  0  0
    4.2111   15.5772    1.7786 C   0  0  1  0  0  0  0  0  0  0  0  0
    5.3803   14.8024    1.9778 O   0  0  0  0  0  0  0  0  0  0  0  0
    3.7947   15.4679    0.3130 C   0  0  2  0  0  0  0  0  0  0  0  0
    3.8326   16.7320   -0.4530 N   0  0  0  0  0  0  0  0  0  0  0  0
    3.2335   17.0746   -1.6387 C   0  0  0  0  0  0  0  0  0  0  0  0
    3.5664   18.2596   -2.0811 N   0  0  0  0  0  0  0  0  0  0  0  0
    4.4306   18.7543   -1.1090 C   0  0  0  0  0  0  0  0  0  0  0  0
    5.1586   19.9855   -1.0439 C   0  0  0  0  0  0  0  0  0  0  0  0
    5.2009   20.8794   -1.8867 O   0  0  0  0  0  0  0  0  0  0  0  0
    5.9013   20.1148    0.1375 N   0  0  0  0  0  0  0  0  0  0  0  0
    5.9042   19.1703    1.1528 C   0  0  0  0  0  0  0  0  0  0  0  0
    6.5695   19.4579    2.2773 N   0  0  0  0  0  0  0  0  0  0  0  0
    5.2584   17.9959    1.0661 N   0  0  0  0  0  0  0  0  0  0  0  0
    4.5485   17.8444   -0.0852 C   0  0  0  0  0  0  0  0  0  0  0  0
  1  2  2  0  0  0  0
  1  4  1  0  0  0  0
  1  3  1  0  0  0  0
  5  1  1  0  0  0  0
  6  7  2  1  0  0  0
  6  9  1  0  0  0  0
  6  5  1  0  0  0  0
  6  8  1  0  0  0  0
 10 11  2  1  0  0  0
 10 12  1  0  0  0  0
 10 13  1  0  0  0  0
 10  9  1  0  0  0  0
 13 14  1  0  0  0  0
 15 14  1  1  0  0  0
 15 16  1  0  0  0  0
 17 19  1  0  0  0  0
 17 15  1  0  0  0  0
 17 18  1  1  0  0  0
 19 21  1  0  0  0  0
 19 20  1  6  0  0  0
 21 16  1  0  0  0  0
 21 22  1  1  0  0  0
 22 32  1  0  0  0  0
 23 22  1  0  0  0  0
 23 24  2  0  0  0  0
 24 25  1  0  0  0  0
 25 26  1  0  0  0  0
 26 27  2  0  0  0  0
 26 28  1  0  0  0  0
 29 28  1  0  0  0  0
 29 30  1  0  0  0  0
 31 29  2  0  0  0  0
 32 25  2  0  0  0  0
 32 31  1  0  0  0  0
M  END
>  <CHROM.1>
173.12235839,179.73066384,71.23936225,-60.08891433,-70.20289157,166.97712748
-163.45834659,-45.02239561,-175.52936422,-37.45830740,1.33375547,16.05207726
2.25005622,2.66457614,-0.50335696,3.05043696

>  <Name>
lig.pdb

>  <RI>
0

>  <Rbt.Current_Directory>
/home/itssahil/PROJECTS/Mol_Feturizer/New_Systems/rnas/5lwj

>  <Rbt.Executable>
rbdock ($Id: //depot/dev/client3/rdock/2013.1/src/exe/rbdock.cxx#4 $)

>  <Rbt.Library>
libRbt.so (2013.1, Build901 2013/11/27)

>  <Rbt.Parameter_File>
/export/apps/rDock/src/rDock_2013.1_src/data/scripts/dock_solv.prm

>  <Rbt.Receptor>
prm/pocket_docking_6.prm

>  <SCORE>
-27.7854

>  <SCORE.INTER>
-22.0835

>  <SCORE.INTER.CONST>
1

>  <SCORE.INTER.POLAR>
-2.40862

>  <SCORE.INTER.ROT>
8

>  <SCORE.INTER.SOLV>
15.0024

>  <SCORE.INTER.VDW>
-20.6278

>  <SCORE.INTER.norm>
-0.69011

>  <SCORE.INTRA>
-5.70188

>  <SCORE.INTRA.DIHEDRAL>
-4.91662

>  <SCORE.INTRA.DIHEDRAL.0>
10.9248

>  <SCORE.INTRA.POLAR>
-0.475998

>  <SCORE.INTRA.POLAR.0>
0

>  <SCORE.INTRA.REPUL>
0

>  <SCORE.INTRA.REPUL.0>
0

>  <SCORE.INTRA.SOLV>
0.263519

>  <SCORE.INTRA.SOLV.lig_0>
-51.4104

>  <SCORE.INTRA.VDW>
-1.75694

>  <SCORE.INTRA.VDW.0>
0.110327

>  <SCORE.INTRA.norm>
-0.178184

>  <SCORE.RESTR>
0

>  <SCORE.RESTR.CAVITY>
0

>  <SCORE.RESTR.norm>
0

>  <SCORE.SYSTEM>
0

>  <SCORE.SYSTEM.CONST>
0

>  <SCORE.SYSTEM.DIHEDRAL>
0

>  <SCORE.SYSTEM.SOLV>
0

>  <SCORE.SYSTEM.norm>
0

>  <SCORE.heavy>
32

>  <SCORE.norm>
-0.868293

>  <RMSD>
8.755

$$$$
lig.pdb
 OpenBabel11021811523D
libRbt.so/2013.1/901 2013/11/27
 32 34  0  0  0  0  0  0  0  0999 V2000
   -0.0339   11.3128    5.7045 P   0  0  0  0  0  0  0  0  0  0  0  0
   -1.1190   11.8942    6.5779 O   0  0  0  0  0  0  0  0  0  0  0  0
    1.2521   12.2411    6.0468 O   0  0  0  0  0  0  0  0  0  0  0  0
    0.4581    9.9182    6.0013 O   0  0  0  0  0  0  0  0  0  0  0  0
   -0.5790   11.2695    4.3615 O   0  0  0  0  0  0  0  0  0  0  0  0
   -0.5664   12.6317    3.7785 P   0  0  1  0  0  0  0  0  0  0  0  0
   -1.1081   12.5496    2.4016 O   0  0  0  0  0  0  0  0  0  0  0  0
   -1.4226   13.5356    4.5814 O   0  0  0  0  0  0  0  0  0  0  0  0
    0.8258   13.1463    3.7562 O   0  0  0  0  0  0  0  0  0  0  0  0
    1.3290   14.0392    2.6854 P   0  0  1  0  0  0  0  0  0  0  0  0
    1.3308   13.4453    1.3330 O   0  0  0  0  0  0  0  0  0  0  0  0
    0.8418   15.4350    2.7512 O   0  0  0  0  0  0  0  0  0  0  0  0
    2.9090   14.1420    3.0196 O   0  0  0  0  0  0  0  0  0  0  0  0
    3.7661   15.0531    2.3578 C   0  0  0  0  0  0  0  0  0  0  0  0
    4.1758   14.5688    0.9600 C   0  0  1  0  0  0  0  0  0  0  0  0
    3.1713   14.8844    0.0178 O   0  0  0  0  0  0  0  0  0  0  0  0
    5.3872   15.3158    0.3750 C   0  0  1  0  0  0  0  0  0  0  0  0
    6.6498   14.9268    0.8893 O   0  0  0  0  0  0  0  0  0  0  0  0
    5.2604   15.0706   -1.1284 C   0  0  1  0  0  0  0  0  0  0  0  0
    5.9687   13.9159   -1.5434 O   0  0  0  0  0  0  0  0  0  0  0  0
    3.7628   14.8029   -1.2667 C   0  0  2  0  0  0  0  0  0  0  0  0
    3.0529   15.6595   -2.2406 N   0  0  0  0  0  0  0  0  0  0  0  0
    2.7755   15.4585   -3.5691 C   0  0  0  0  0  0  0  0  0  0  0  0
    2.2087   16.4809   -4.1557 N   0  0  0  0  0  0  0  0  0  0  0  0
    2.0753   17.4235   -3.1407 C   0  0  0  0  0  0  0  0  0  0  0  0
    1.5648   18.7610   -3.1675 C   0  0  0  0  0  0  0  0  0  0  0  0
    1.1576   19.3909   -4.1415 O   0  0  0  0  0  0  0  0  0  0  0  0
    1.5742   19.3707   -1.9058 N   0  0  0  0  0  0  0  0  0  0  0  0
    1.9974   18.7370   -0.7471 C   0  0  0  0  0  0  0  0  0  0  0  0
    1.8580   19.3886    0.4129 N   0  0  0  0  0  0  0  0  0  0  0  0
    2.5203   17.5000   -0.7349 N   0  0  0  0  0  0  0  0  0  0  0  0
    2.5386   16.9005   -1.9567 C   0  0  0  0  0  0  0  0  0  0  0  0
  1  2  2  0  0  0  0
  1  4  1  0  0  0  0
  1  3  1  0  0  0  0
  5  1  1  0  0  0  0
  6  7  2  6  0  0  0
  6  9  1  0  0  0  0
  6  5  1  0  0  0  0
  6  8  1  0  0  0  0
 10 11  2  6  0  0  0
 10 12  1  0  0  0  0
 10 13  1  0  0  0  0
 10  9  1  0  0  0  0
 13 14  1  0  0  0  0
 15 14  1  1  0  0  0
 15 16  1  0  0  0  0
 17 19  1  0  0  0  0
 17 15  1  0  0  0  0
 17 18  1  1  0  0  0
 19 21  1  0  0  0  0
 19 20  1  1  0  0  0
 21 16  1  0  0  0  0
 21 22  1  6  0  0  0
 22 32  1  0  0  0  0
 23 22  1  0  0  0  0
 23 24  2  0  0  0  0
 24 25  1  0  0  0  0
 25 26  1  0  0  0  0
 26 27  2  0  0  0  0
 26 28  1  0  0  0  0
 29 28  1  0  0  0  0
 29 30  1  0  0  0  0
 31 29  2  0  0  0  0
 32 25  2  0  0  0  0
 32 31  1  0  0  0  0
M  END
>  <CHROM.1>
76.41194864,146.37713267,179.11093880,-170.83441531,-62.74867519,-78.65056059
82.81592062,52.51731237,-177.26969694,-143.05746426,1.83327958,14.65238777
1.33992607,-1.91100544,0.32944703,-0.82674766

>  <Name>
lig.pdb

>  <RI>
2.0892e+07

>  <Rbt.Current_Directory>
/home/itssahil/PROJECTS/Mol_Feturizer/New_Systems/rnas/5lwj

>  <Rbt.Executable>
rbdock ($Id: //depot/dev/client3/rdock/2013.1/src/exe/rbdock.cxx#4 $)

>  <Rbt.Library>
libRbt.so (2013.1, Build901 2013/11/27)

>  <Rbt.Parameter_File>
/export/apps/rDock/src/rDock_2013.1_src/data/scripts/dock_solv.prm

>  <Rbt.Receptor>
prm/pocket_docking_8.prm

>  <SCORE>
-31.693

>  <SCORE.INTER>
-27.955

>  <SCORE.INTER.CONST>
1

>  <SCORE.INTER.POLAR>
-2.46689

>  <SCORE.INTER.ROT>
8

>  <SCORE.INTER.SOLV>
18.7256

>  <SCORE.INTER.VDW>
-25.5889

>  <SCORE.INTER.norm>
-0.873593

>  <SCORE.INTRA>
-4.06806

>  <SCORE.INTRA.DIHEDRAL>
-2.28837

>  <SCORE.INTRA.DIHEDRAL.0>
10.9248

>  <SCORE.INTRA.POLAR>
0

>  <SCORE.INTRA.POLAR.0>
0

>  <SCORE.INTRA.REPUL>
0

>  <SCORE.INTRA.REPUL.0>
0

>  <SCORE.INTRA.SOLV>
1.06327

>  <SCORE.INTRA.SOLV.lig_0>
-51.4104

>  <SCORE.INTRA.VDW>
-3.4555

>  <SCORE.INTRA.VDW.0>
0.110327

>  <SCORE.INTRA.norm>
-0.127127

>  <SCORE.RESTR>
0.330029

>  <SCORE.RESTR.CAVITY>
0.330029

>  <SCORE.RESTR.norm>
0.0103134

>  <SCORE.SYSTEM>
0

>  <SCORE.SYSTEM.CONST>
0

>  <SCORE.SYSTEM.DIHEDRAL>
0

>  <SCORE.SYSTEM.SOLV>
0

>  <SCORE.SYSTEM.norm>
0

>  <SCORE.heavy>
32

>  <SCORE.norm>
-0.990406

>  <RMSD>
8.756

$$$$
lig.pdb
 OpenBabel11021811523D
libRbt.so/2013.1/901 2013/11/27
 32 34  0  0  0  0  0  0  0  0999 V2000
    1.0865   11.4279    5.7716 P   0  0  0  0  0  0  0  0  0  0  0  0
    1.7348   10.9049    4.5130 O   0  0  0  0  0  0  0  0  0  0  0  0
    0.2522   10.1474    6.3164 O   0  0  0  0  0  0  0  0  0  0  0  0
    1.9703   11.7867    6.9401 O   0  0  0  0  0  0  0  0  0  0  0  0
    0.4035   12.6501    5.3940 O   0  0  0  0  0  0  0  0  0  0  0  0
   -1.0044   12.3433    5.0486 P   0  0  1  0  0  0  0  0  0  0  0  0
   -1.0043   11.4029    3.9033 O   0  0  0  0  0  0  0  0  0  0  0  0
   -1.6815   11.7023    6.1998 O   0  0  0  0  0  0  0  0  0  0  0  0
   -1.7088   13.5988    4.6864 O   0  0  0  0  0  0  0  0  0  0  0  0
   -3.0690   13.6087    4.0976 P   0  0  1  0  0  0  0  0  0  0  0  0
   -3.1308   13.2225    2.6733 O   0  0  0  0  0  0  0  0  0  0  0  0
   -4.1259   13.0183    4.9487 O   0  0  0  0  0  0  0  0  0  0  0  0
   -3.4227   15.1869    4.0432 O   0  0  0  0  0  0  0  0  0  0  0  0
   -4.4210   15.7110    3.1878 C   0  0  0  0  0  0  0  0  0  0  0  0
   -3.9151   15.9293    1.7551 C   0  0  1  0  0  0  0  0  0  0  0  0
   -2.5177   15.7297    1.6927 O   0  0  0  0  0  0  0  0  0  0  0  0
   -4.4178   14.8758    0.7525 C   0  0  1  0  0  0  0  0  0  0  0  0
   -5.7560   15.0409    0.3144 O   0  0  0  0  0  0  0  0  0  0  0  0
   -3.4066   14.9656   -0.3901 C   0  0  1  0  0  0  0  0  0  0  0  0
   -3.8102   15.8841   -1.3904 O   0  0  0  0  0  0  0  0  0  0  0  0
   -2.1843   15.5315    0.3304 C   0  0  2  0  0  0  0  0  0  0  0  0
   -0.9431   14.7404    0.1905 N   0  0  0  0  0  0  0  0  0  0  0  0
    0.2204   14.7706    0.9170 C   0  0  0  0  0  0  0  0  0  0  0  0
    1.1611   13.9914    0.4492 N   0  0  0  0  0  0  0  0  0  0  0  0
    0.5760   13.3780   -0.6545 C   0  0  0  0  0  0  0  0  0  0  0  0
    1.1142   12.4510   -1.6037 C   0  0  0  0  0  0  0  0  0  0  0  0
    2.2631   12.0177   -1.6633 O   0  0  0  0  0  0  0  0  0  0  0  0
    0.1723   12.0435   -2.5581 N   0  0  0  0  0  0  0  0  0  0  0  0
   -1.1495   12.4627   -2.5636 C   0  0  0  0  0  0  0  0  0  0  0  0
   -1.9776   11.9198   -3.4632 N   0  0  0  0  0  0  0  0  0  0  0  0
   -1.6369   13.3690   -1.7006 N   0  0  0  0  0  0  0  0  0  0  0  0
   -0.7289   13.7921   -0.7790 C   0  0  0  0  0  0  0  0  0  0  0  0
  1  2  2  0  0  0  0
  1  4  1  0  0  0  0
  1  3  1  0  0  0  0
  5  1  1  0  0  0  0
  6  7  2  6  0  0  0
  6  9  1  0  0  0  0
  6  5  1  0  0  0  0
  6  8  1  0  0  0  0
 10 11  2  6  0  0  0
 10 12  1  0  0  0  0
 10 13  1  0  0  0  0
 10  9  1  0  0  0  0
 13 14  1  0  0  0  0
 15 14  1  1  0  0  0
 15 16  1  0  0  0  0
 17 19  1  0  0  0  0
 17 15  1  0  0  0  0
 17 18  1  6  0  0  0
 19 21  1  0  0  0  0
 19 20  1  6  0  0  0
 21 16  1  0  0  0  0
 21 22  1  1  0  0  0
 22 32  1  0  0  0  0
 23 22  1  0  0  0  0
 23 24  2  0  0  0  0
 24 25  1  0  0  0  0
 25 26  1  0  0  0  0
 26 27  2  0  0  0  0
 26 28  1  0  0  0  0
 29 28  1  0  0  0  0
 29 30  1  0  0  0  0
 31 29  2  0  0  0  0
 32 25  2  0  0  0  0
 32 31  1  0  0  0  0
M  END
>  <CHROM.1>
93.13025793,170.57781518,-60.76115343,159.55899950,-75.47623972,-82.05103918
-8.36115609,-76.15424521,-173.92730342,-39.14396579,-1.39189285,13.29473686
2.21358141,-1.28173307,0.54099575,-1.41946168

>  <Name>
lig.pdb

>  <RI>
2.0892e+07

>  <Rbt.Current_Directory>
/home/itssahil/PROJECTS/Mol_Feturizer/New_Systems/rnas/5lwj

>  <Rbt.Executable>
rbdock ($Id: //depot/dev/client3/rdock/2013.1/src/exe/rbdock.cxx#4 $)

>  <Rbt.Library>
libRbt.so (2013.1, Build901 2013/11/27)

>  <Rbt.Parameter_File>
/export/apps/rDock/src/rDock_2013.1_src/data/scripts/dock_solv.prm

>  <Rbt.Receptor>
prm/pocket_docking_8.prm

>  <SCORE>
-37.3659

>  <SCORE.INTER>
-36.8095

>  <SCORE.INTER.CONST>
1

>  <SCORE.INTER.POLAR>
-3.63918

>  <SCORE.INTER.ROT>
8

>  <SCORE.INTER.SOLV>
25.292

>  <SCORE.INTER.VDW>
-29.7731

>  <SCORE.INTER.norm>
-1.1503

>  <SCORE.INTRA>
-0.556408

>  <SCORE.INTRA.DIHEDRAL>
2.7403

>  <SCORE.INTRA.DIHEDRAL.0>
10.9248

>  <SCORE.INTRA.POLAR>
0

>  <SCORE.INTRA.POLAR.0>
0

>  <SCORE.INTRA.REPUL>
0

>  <SCORE.INTRA.REPUL.0>
0

>  <SCORE.INTRA.SOLV>
1.75182

>  <SCORE.INTRA.SOLV.lig_0>
-51.4104

>  <SCORE.INTRA.VDW>
-2.80247

>  <SCORE.INTRA.VDW.0>
0.110327

>  <SCORE.INTRA.norm>
-0.0173877

>  <SCORE.RESTR>
0

>  <SCORE.RESTR.CAVITY>
0

>  <SCORE.RESTR.norm>
0

>  <SCORE.SYSTEM>
0

>  <SCORE.SYSTEM.CONST>
0

>  <SCORE.SYSTEM.DIHEDRAL>
0

>  <SCORE.SYSTEM.SOLV>
0

>  <SCORE.SYSTEM.norm>
0

>  <SCORE.heavy>
32

>  <SCORE.norm>
-1.16768

>  <RMSD>
8.756

$$$$
lig.pdb
 OpenBabel11021811523D
libRbt.so/2013.1/901 2013/11/27
 32 34  0  0  0  0  0  0  0  0999 V2000
   -0.2533   12.9564    3.1061 P   0  0  0  0  0  0  0  0  0  0  0  0
   -1.6237   12.4510    2.7260 O   0  0  0  0  0  0  0  0  0  0  0  0
   -0.5682   14.0252    4.2855 O   0  0  0  0  0  0  0  0  0  0  0  0
    0.7117   11.9976    3.7576 O   0  0  0  0  0  0  0  0  0  0  0  0
    0.3753   13.3817    1.8704 O   0  0  0  0  0  0  0  0  0  0  0  0
    1.4106   14.3994    2.1670 P   0  0  1  0  0  0  0  0  0  0  0  0
    0.7429   15.5728    2.7778 O   0  0  0  0  0  0  0  0  0  0  0  0
    2.3996   13.8532    3.1252 O   0  0  0  0  0  0  0  0  0  0  0  0
    2.0933   14.7905    0.9082 O   0  0  0  0  0  0  0  0  0  0  0  0
    2.6034   13.7956   -0.0649 P   0  0  1  0  0  0  0  0  0  0  0  0
    3.7750   13.0227    0.3953 O   0  0  0  0  0  0  0  0  0  0  0  0
    1.5627   12.9982   -0.7515 O   0  0  0  0  0  0  0  0  0  0  0  0
    3.2381   14.7258   -1.2270 O   0  0  0  0  0  0  0  0  0  0  0  0
    4.2308   15.6989   -0.9616 C   0  0  0  0  0  0  0  0  0  0  0  0
    3.6553   16.9687   -0.3191 C   0  0  1  0  0  0  0  0  0  0  0  0
    4.3888   17.3074    0.8400 O   0  0  0  0  0  0  0  0  0  0  0  0
    3.8378   18.2343   -1.1751 C   0  0  1  0  0  0  0  0  0  0  0  0
    2.9402   18.3682   -2.2644 O   0  0  0  0  0  0  0  0  0  0  0  0
    3.7077   19.3689   -0.1593 C   0  0  1  0  0  0  0  0  0  0  0  0
    2.3733   19.8299   -0.0405 O   0  0  0  0  0  0  0  0  0  0  0  0
    4.0991   18.6618    1.1369 C   0  0  2  0  0  0  0  0  0  0  0  0
    5.1998   19.2929    1.8961 N   0  0  0  0  0  0  0  0  0  0  0  0
    5.1716   20.2525    2.8762 C   0  0  0  0  0  0  0  0  0  0  0  0
    6.3548   20.6534    3.2636 N   0  0  0  0  0  0  0  0  0  0  0  0
    7.2371   19.8893    2.5057 C   0  0  0  0  0  0  0  0  0  0  0  0
    8.6676   19.8967    2.4462 C   0  0  0  0  0  0  0  0  0  0  0  0
    9.4414   20.6370    3.0499 O   0  0  0  0  0  0  0  0  0  0  0  0
    9.1790   18.9340    1.5655 N   0  0  0  0  0  0  0  0  0  0  0  0
    8.3888   18.0436    0.8543 C   0  0  0  0  0  0  0  0  0  0  0  0
    9.0007   17.1016    0.1277 N   0  0  0  0  0  0  0  0  0  0  0  0
    7.0463   18.0725    0.8765 N   0  0  0  0  0  0  0  0  0  0  0  0
    6.5320   19.0166    1.7112 C   0  0  0  0  0  0  0  0  0  0  0  0
  1  2  2  0  0  0  0
  1  4  1  0  0  0  0
  1  3  1  0  0  0  0
  5  1  1  0  0  0  0
  6  7  2  1  0  0  0
  6  9  1  0  0  0  0
  6  5  1  0  0  0  0
  6  8  1  0  0  0  0
 10 11  2  1  0  0  0
 10 12  1  0  0  0  0
 10 13  1  0  0  0  0
 10  9  1  0  0  0  0
 13 14  1  0  0  0  0
 15 14  1  6  0  0  0
 15 16  1  0  0  0  0
 17 19  1  0  0  0  0
 17 15  1  0  0  0  0
 17 18  1  6  0  0  0
 19 21  1  0  0  0  0
 19 20  1  1  0  0  0
 21 16  1  0  0  0  0
 21 22  1  6  0  0  0
 22 32  1  0  0  0  0
 23 22  1  0  0  0  0
 23 24  2  0  0  0  0
 24 25  1  0  0  0  0
 25 26  1  0  0  0  0
 26 27  2  0  0  0  0
 26 28  1  0  0  0  0
 29 28  1  0  0  0  0
 29 30  1  0  0  0  0
 31 29  2  0  0  0  0
 32 25  2  0  0  0  0
 32 31  1  0  0  0  0
M  END
>  <CHROM.1>
155.21878828,-48.09239996,-62.15852950,55.92882763,-69.88650790,-76.80793195
129.39150226,-58.82289511,-49.51915325,-145.93646321,3.60458004,16.27705307
1.32088081,3.09267149,-0.73482132,-1.75689376

>  <Name>
lig.pdb

>  <RI>
0

>  <Rbt.Current_Directory>
/home/itssahil/PROJECTS/Mol_Feturizer/New_Systems/rnas/5lwj

>  <Rbt.Executable>
rbdock ($Id: //depot/dev/client3/rdock/2013.1/src/exe/rbdock.cxx#4 $)

>  <Rbt.Library>
libRbt.so (2013.1, Build901 2013/11/27)

>  <Rbt.Parameter_File>
/export/apps/rDock/src/rDock_2013.1_src/data/scripts/dock_solv.prm

>  <Rbt.Receptor>
prm/pocket_docking_3.prm

>  <SCORE>
-25.8815

>  <SCORE.INTER>
-21.9129

>  <SCORE.INTER.CONST>
1

>  <SCORE.INTER.POLAR>
-2.88784

>  <SCORE.INTER.ROT>
8

>  <SCORE.INTER.SOLV>
12.5148

>  <SCORE.INTER.VDW>
-18.0874

>  <SCORE.INTER.norm>
-0.684778

>  <SCORE.INTRA>
-3.96864

>  <SCORE.INTRA.DIHEDRAL>
-0.500319

>  <SCORE.INTRA.DIHEDRAL.0>
10.9248

>  <SCORE.INTRA.POLAR>
-0.0695219

>  <SCORE.INTRA.POLAR.0>
0

>  <SCORE.INTRA.REPUL>
0

>  <SCORE.INTRA.REPUL.0>
0

>  <SCORE.INTRA.SOLV>
0.294462

>  <SCORE.INTRA.SOLV.lig_0>
-51.4104

>  <SCORE.INTRA.VDW>
-3.62934

>  <SCORE.INTRA.VDW.0>
0.110327

>  <SCORE.INTRA.norm>
-0.12402

>  <SCORE.RESTR>
0

>  <SCORE.RESTR.CAVITY>
0

>  <SCORE.RESTR.norm>
0

>  <SCORE.SYSTEM>
0

>  <SCORE.SYSTEM.CONST>
0

>  <SCORE.SYSTEM.DIHEDRAL>
0

>  <SCORE.SYSTEM.SOLV>
0

>  <SCORE.SYSTEM.norm>
0

>  <SCORE.heavy>
32

>  <SCORE.norm>
-0.808798

>  <RMSD>
8.769

$$$$
lig.pdb
 OpenBabel11021811523D
libRbt.so/2013.1/901 2013/11/27
 32 34  0  0  0  0  0  0  0  0999 V2000
   -1.1721   12.2031    5.2670 P   0  0  0  0  0  0  0  0  0  0  0  0
    0.2513   11.9053    5.6712 O   0  0  0  0  0  0  0  0  0  0  0  0
   -1.6072   10.8749    4.4430 O   0  0  0  0  0  0  0  0  0  0  0  0
   -2.2211   12.2988    6.3466 O   0  0  0  0  0  0  0  0  0  0  0  0
   -1.1430   13.4999    4.6187 O   0  0  0  0  0  0  0  0  0  0  0  0
   -2.2873   13.6113    3.6840 P   0  0  1  0  0  0  0  0  0  0  0  0
   -2.0893   12.6284    2.5928 O   0  0  0  0  0  0  0  0  0  0  0  0
   -3.5519   13.3007    4.3904 O   0  0  0  0  0  0  0  0  0  0  0  0
   -2.3437   14.9891    3.1346 O   0  0  0  0  0  0  0  0  0  0  0  0
   -2.5870   16.1779    3.9858 P   0  0  1  0  0  0  0  0  0  0  0  0
   -4.0022   16.5887    4.0871 O   0  0  0  0  0  0  0  0  0  0  0  0
   -1.8402   16.1987    5.2634 O   0  0  0  0  0  0  0  0  0  0  0  0
   -1.9402   17.3788    3.1151 O   0  0  0  0  0  0  0  0  0  0  0  0
   -1.2540   17.1490    1.8989 C   0  0  0  0  0  0  0  0  0  0  0  0
    0.0057   16.2918    2.0852 C   0  0  1  0  0  0  0  0  0  0  0  0
    0.5630   15.9599    0.8299 O   0  0  0  0  0  0  0  0  0  0  0  0
    1.1742   17.0422    2.7480 C   0  0  1  0  0  0  0  0  0  0  0  0
    1.0716   17.2120    4.1518 O   0  0  0  0  0  0  0  0  0  0  0  0
    2.3973   16.2214    2.3398 C   0  0  1  0  0  0  0  0  0  0  0  0
    2.7080   15.2167    3.2890 O   0  0  0  0  0  0  0  0  0  0  0  0
    1.8991   15.5504    1.0611 C   0  0  2  0  0  0  0  0  0  0  0  0
    2.7410   15.7625   -0.1357 N   0  0  0  0  0  0  0  0  0  0  0  0
    2.4036   16.1634   -1.4037 C   0  0  0  0  0  0  0  0  0  0  0  0
    3.4010   16.1503   -2.2498 N   0  0  0  0  0  0  0  0  0  0  0  0
    4.4879   15.7345   -1.4867 C   0  0  0  0  0  0  0  0  0  0  0  0
    5.8490   15.4860   -1.8552 C   0  0  0  0  0  0  0  0  0  0  0  0
    6.3491   15.5553   -2.9761 O   0  0  0  0  0  0  0  0  0  0  0  0
    6.6456   15.1078   -0.7660 N   0  0  0  0  0  0  0  0  0  0  0  0
    6.1776   15.0185    0.5363 C   0  0  0  0  0  0  0  0  0  0  0  0
    7.0607   14.7509    1.5049 N   0  0  0  0  0  0  0  0  0  0  0  0
    4.8899   15.2055    0.8691 N   0  0  0  0  0  0  0  0  0  0  0  0
    4.0971   15.5529   -0.1812 C   0  0  0  0  0  0  0  0  0  0  0  0
  1  2  2  0  0  0  0
  1  4  1  0  0  0  0
  1  3  1  0  0  0  0
  5  1  1  0  0  0  0
  6  7  2  6  0  0  0
  6  9  1  0  0  0  0
  6  5  1  0  0  0  0
  6  8  1  0  0  0  0
 10 11  2  1  0  0  0
 10 12  1  0  0  0  0
 10 13  1  0  0  0  0
 10  9  1  0  0  0  0
 13 14  1  0  0  0  0
 15 14  1  6  0  0  0
 15 16  1  0  0  0  0
 17 19  1  0  0  0  0
 17 15  1  0  0  0  0
 17 18  1  1  0  0  0
 19 21  1  0  0  0  0
 19 20  1  1  0  0  0
 21 16  1  0  0  0  0
 21 22  1  6  0  0  0
 22 32  1  0  0  0  0
 23 22  1  0  0  0  0
 23 24  2  0  0  0  0
 24 25  1  0  0  0  0
 25 26  1  0  0  0  0
 26 27  2  0  0  0  0
 26 28  1  0  0  0  0
 29 28  1  0  0  0  0
 29 30  1  0  0  0  0
 31 29  2  0  0  0  0
 32 25  2  0  0  0  0
 32 31  1  0  0  0  0
M  END
>  <CHROM.1>
154.80189614,-63.53676691,-65.94176813,-4.08695797,-93.24870662,-62.69773804
173.06501270,-61.63240815,177.10509683,-6.38904654,0.69611950,14.93682357
2.43270368,-2.66154356,0.43767484,-0.59067068

>  <Name>
lig.pdb

>  <RI>
2.92062e+07

>  <Rbt.Current_Directory>
/home/itssahil/PROJECTS/Mol_Feturizer/New_Systems/rnas/5lwj

>  <Rbt.Executable>
rbdock ($Id: //depot/dev/client3/rdock/2013.1/src/exe/rbdock.cxx#4 $)

>  <Rbt.Library>
libRbt.so (2013.1, Build901 2013/11/27)

>  <Rbt.Parameter_File>
/export/apps/rDock/src/rDock_2013.1_src/data/scripts/dock_solv.prm

>  <Rbt.Receptor>
prm/pocket_docking_7.prm

>  <SCORE>
-30.0798

>  <SCORE.INTER>
-25.1204

>  <SCORE.INTER.CONST>
1

>  <SCORE.INTER.POLAR>
-2.97938

>  <SCORE.INTER.ROT>
8

>  <SCORE.INTER.SOLV>
17.4273

>  <SCORE.INTER.VDW>
-21.5581

>  <SCORE.INTER.norm>
-0.785011

>  <SCORE.INTRA>
-4.97964

>  <SCORE.INTRA.DIHEDRAL>
-3.86474

>  <SCORE.INTRA.DIHEDRAL.0>
10.9248

>  <SCORE.INTRA.POLAR>
0

>  <SCORE.INTRA.POLAR.0>
0

>  <SCORE.INTRA.REPUL>
0

>  <SCORE.INTRA.REPUL.0>
0

>  <SCORE.INTRA.SOLV>
0.777952

>  <SCORE.INTRA.SOLV.lig_0>
-51.4104

>  <SCORE.INTRA.VDW>
-3.43624

>  <SCORE.INTRA.VDW.0>
0.110327

>  <SCORE.INTRA.norm>
-0.155614

>  <SCORE.RESTR>
0.0201949

>  <SCORE.RESTR.CAVITY>
0.0201949

>  <SCORE.RESTR.norm>
0.000631091

>  <SCORE.SYSTEM>
0

>  <SCORE.SYSTEM.CONST>
0

>  <SCORE.SYSTEM.DIHEDRAL>
0

>  <SCORE.SYSTEM.SOLV>
0

>  <SCORE.SYSTEM.norm>
0

>  <SCORE.heavy>
32

>  <SCORE.norm>
-0.939994

>  <RMSD>
8.778

$$$$
lig.pdb
 OpenBabel11021811523D
libRbt.so/2013.1/901 2013/11/27
 32 34  0  0  0  0  0  0  0  0999 V2000
   -3.1978   13.4665    4.1730 P   0  0  0  0  0  0  0  0  0  0  0  0
   -3.9334   13.9516    2.9475 O   0  0  0  0  0  0  0  0  0  0  0  0
   -2.4710   14.8091    4.7224 O   0  0  0  0  0  0  0  0  0  0  0  0
   -4.0051   13.0009    5.3590 O   0  0  0  0  0  0  0  0  0  0  0  0
   -2.4150   12.3232    3.7456 O   0  0  0  0  0  0  0  0  0  0  0  0
   -1.0553   12.4092    4.3282 P   0  0  1  0  0  0  0  0  0  0  0  0
   -1.1913   12.6232    5.7882 O   0  0  0  0  0  0  0  0  0  0  0  0
   -0.3207   11.1447    4.0917 O   0  0  0  0  0  0  0  0  0  0  0  0
   -0.3223   13.5403    3.7061 O   0  0  0  0  0  0  0  0  0  0  0  0
    1.1199   13.4684    3.3716 P   0  0  1  0  0  0  0  0  0  0  0  0
    1.7430   14.7640    3.0326 O   0  0  0  0  0  0  0  0  0  0  0  0
    1.9280   12.6029    4.2593 O   0  0  0  0  0  0  0  0  0  0  0  0
    1.1178   12.7026    1.9460 O   0  0  0  0  0  0  0  0  0  0  0  0
    0.6883   13.3269    0.7508 C   0  0  0  0  0  0  0  0  0  0  0  0
    1.7750   14.2112    0.1236 C   0  0  1  0  0  0  0  0  0  0  0  0
    1.5941   15.5583    0.5094 O   0  0  0  0  0  0  0  0  0  0  0  0
    3.1898   13.9289    0.6588 C   0  0  1  0  0  0  0  0  0  0  0  0
    3.8190   12.7705    0.1369 O   0  0  0  0  0  0  0  0  0  0  0  0
    3.9525   15.2129    0.3337 C   0  0  1  0  0  0  0  0  0  0  0  0
    4.5873   15.1521   -0.9314 O   0  0  0  0  0  0  0  0  0  0  0  0
    2.8160   16.2312    0.2633 C   0  0  2  0  0  0  0  0  0  0  0  0
    2.9663   17.4109    1.1417 N   0  0  0  0  0  0  0  0  0  0  0  0
    2.0473   18.0629    1.9244 C   0  0  0  0  0  0  0  0  0  0  0  0
    2.5087   19.1425    2.5009 N   0  0  0  0  0  0  0  0  0  0  0  0
    3.8382   19.2028    2.0941 C   0  0  0  0  0  0  0  0  0  0  0  0
    4.8544   20.1758    2.3598 C   0  0  0  0  0  0  0  0  0  0  0  0
    4.7460   21.2212    2.9974 O   0  0  0  0  0  0  0  0  0  0  0  0
    6.0875   19.8439    1.7826 N   0  0  0  0  0  0  0  0  0  0  0  0
    6.3125   18.6807    1.0618 C   0  0  0  0  0  0  0  0  0  0  0  0
    7.5603   18.4262    0.6521 N   0  0  0  0  0  0  0  0  0  0  0  0
    5.3445   17.7952    0.7745 N   0  0  0  0  0  0  0  0  0  0  0  0
    4.1342   18.1131    1.3098 C   0  0  0  0  0  0  0  0  0  0  0  0
  1  2  2  0  0  0  0
  1  4  1  0  0  0  0
  1  3  1  0  0  0  0
  5  1  1  0  0  0  0
  6  7  2  1  0  0  0
  6  9  1  0  0  0  0
  6  5  1  0  0  0  0
  6  8  1  0  0  0  0
 10 11  2  6  0  0  0
 10 12  1  0  0  0  0
 10 13  1  0  0  0  0
 10  9  1  0  0  0  0
 13 14  1  0  0  0  0
 15 14  1  1  0  0  0
 15 16  1  0  0  0  0
 17 19  1  0  0  0  0
 17 15  1  0  0  0  0
 17 18  1  6  0  0  0
 19 21  1  0  0  0  0
 19 20  1  6  0  0  0
 21 16  1  0  0  0  0
 21 22  1  1  0  0  0
 22 32  1  0  0  0  0
 23 22  1  0  0  0  0
 23 24  2  0  0  0  0
 24 25  1  0  0  0  0
 25 26  1  0  0  0  0
 26 27  2  0  0  0  0
 26 28  1  0  0  0  0
 29 28  1  0  0  0  0
 29 30  1  0  0  0  0
 31 29  2  0  0  0  0
 32 25  2  0  0  0  0
 32 31  1  0  0  0  0
M  END
>  <CHROM.1>
136.34254103,-141.52555769,51.49001295,72.74998176,-167.52062750,81.18643607
-96.32543043,171.53657589,-57.63942168,-13.78863559,1.49414085,15.12494385
2.46291380,2.66193979,-0.57544895,-2.82698803

>  <Name>
lig.pdb

>  <RI>
3.03081e+07

>  <Rbt.Current_Directory>
/home/itssahil/PROJECTS/Mol_Feturizer/New_Systems/rnas/5lwj

>  <Rbt.Executable>
rbdock ($Id: //depot/dev/client3/rdock/2013.1/src/exe/rbdock.cxx#4 $)

>  <Rbt.Library>
libRbt.so (2013.1, Build901 2013/11/27)

>  <Rbt.Parameter_File>
/export/apps/rDock/src/rDock_2013.1_src/data/scripts/dock_solv.prm

>  <Rbt.Receptor>
prm/pocket_docking_2.prm

>  <SCORE>
-17.3355

>  <SCORE.INTER>
-18.6786

>  <SCORE.INTER.CONST>
1

>  <SCORE.INTER.POLAR>
-2.13458

>  <SCORE.INTER.ROT>
8

>  <SCORE.INTER.SOLV>
18.9962

>  <SCORE.INTER.VDW>
-20.6025

>  <SCORE.INTER.norm>
-0.583705

>  <SCORE.INTRA>
-0.558255

>  <SCORE.INTRA.DIHEDRAL>
2.23604

>  <SCORE.INTRA.DIHEDRAL.0>
10.9248

>  <SCORE.INTRA.POLAR>
0

>  <SCORE.INTRA.POLAR.0>
0

>  <SCORE.INTRA.REPUL>
0

>  <SCORE.INTRA.REPUL.0>
0

>  <SCORE.INTRA.SOLV>
2.4584

>  <SCORE.INTRA.SOLV.lig_0>
-51.4104

>  <SCORE.INTRA.VDW>
-2.90547

>  <SCORE.INTRA.VDW.0>
0.110327

>  <SCORE.INTRA.norm>
-0.0174455

>  <SCORE.RESTR>
1.90129

>  <SCORE.RESTR.CAVITY>
1.90129

>  <SCORE.RESTR.norm>
0.0594152

>  <SCORE.SYSTEM>
0

>  <SCORE.SYSTEM.CONST>
0

>  <SCORE.SYSTEM.DIHEDRAL>
0

>  <SCORE.SYSTEM.SOLV>
0

>  <SCORE.SYSTEM.norm>
0

>  <SCORE.heavy>
32

>  <SCORE.norm>
-0.541735

>  <RMSD>
8.797

$$$$
lig.pdb
 OpenBabel11021811523D
libRbt.so/2013.1/901 2013/11/27
 32 34  0  0  0  0  0  0  0  0999 V2000
    1.3784   11.0087    5.8249 P   0  0  0  0  0  0  0  0  0  0  0  0
    2.0971    9.7389    6.2107 O   0  0  0  0  0  0  0  0  0  0  0  0
    1.3183   11.8368    7.2189 O   0  0  0  0  0  0  0  0  0  0  0  0
    2.0655   11.9664    4.8837 O   0  0  0  0  0  0  0  0  0  0  0  0
    0.1597   10.5939    5.1573 O   0  0  0  0  0  0  0  0  0  0  0  0
   -0.8441   11.6807    5.2404 P   0  0  1  0  0  0  0  0  0  0  0  0
   -2.0427   11.2612    4.4766 O   0  0  0  0  0  0  0  0  0  0  0  0
   -1.2274   11.9109    6.6527 O   0  0  0  0  0  0  0  0  0  0  0  0
   -0.2738   12.9246    4.6650 O   0  0  0  0  0  0  0  0  0  0  0  0
   -0.1517   13.1448    3.2044 P   0  0  1  0  0  0  0  0  0  0  0  0
    1.1249   12.6935    2.6141 O   0  0  0  0  0  0  0  0  0  0  0  0
   -1.3565   12.8047    2.4152 O   0  0  0  0  0  0  0  0  0  0  0  0
   -0.0328   14.7549    3.0948 O   0  0  0  0  0  0  0  0  0  0  0  0
   -1.1687   15.5981    3.0571 C   0  0  0  0  0  0  0  0  0  0  0  0
   -0.8939   16.9263    2.3383 C   0  0  1  0  0  0  0  0  0  0  0  0
    0.2260   17.5707    2.9101 O   0  0  0  0  0  0  0  0  0  0  0  0
   -0.4359   16.7586    0.8788 C   0  0  1  0  0  0  0  0  0  0  0  0
   -1.4626   16.4575   -0.0515 O   0  0  0  0  0  0  0  0  0  0  0  0
    0.2671   18.0815    0.5756 C   0  0  1  0  0  0  0  0  0  0  0  0
   -0.6162   19.0424    0.0248 O   0  0  0  0  0  0  0  0  0  0  0  0
    0.6747   18.5362    1.9757 C   0  0  2  0  0  0  0  0  0  0  0  0
    2.1130   18.8287    2.1539 N   0  0  0  0  0  0  0  0  0  0  0  0
    2.7420   19.7773    2.9199 C   0  0  0  0  0  0  0  0  0  0  0  0
    4.0397   19.8162    2.7605 N   0  0  0  0  0  0  0  0  0  0  0  0
    4.2991   18.8046    1.8407 C   0  0  0  0  0  0  0  0  0  0  0  0
    5.5264   18.3830    1.2357 C   0  0  0  0  0  0  0  0  0  0  0  0
    6.6441   18.8733    1.3819 O   0  0  0  0  0  0  0  0  0  0  0  0
    5.3594   17.2896    0.3751 N   0  0  0  0  0  0  0  0  0  0  0  0
    4.1438   16.6582    0.1588 C   0  0  0  0  0  0  0  0  0  0  0  0
    4.1332   15.5584   -0.6028 N   0  0  0  0  0  0  0  0  0  0  0  0
    2.9877   17.0872    0.6908 N   0  0  0  0  0  0  0  0  0  0  0  0
    3.1284   18.1626    1.5132 C   0  0  0  0  0  0  0  0  0  0  0  0
  1  2  2  0  0  0  0
  1  4  1  0  0  0  0
  1  3  1  0  0  0  0
  5  1  1  0  0  0  0
  6  7  2  6  0  0  0
  6  9  1  0  0  0  0
  6  5  1  0  0  0  0
  6  8  1  0  0  0  0
 10 11  2  6  0  0  0
 10 12  1  0  0  0  0
 10 13  1  0  0  0  0
 10  9  1  0  0  0  0
 13 14  1  0  0  0  0
 15 14  1  1  0  0  0
 15 16  1  0  0  0  0
 17 19  1  0  0  0  0
 17 15  1  0  0  0  0
 17 18  1  6  0  0  0
 19 21  1  0  0  0  0
 19 20  1  1  0  0  0
 21 16  1  0  0  0  0
 21 22  1  6  0  0  0
 22 32  1  0  0  0  0
 23 22  1  0  0  0  0
 23 24  2  0  0  0  0
 24 25  1  0  0  0  0
 25 26  1  0  0  0  0
 26 27  2  0  0  0  0
 26 28  1  0  0  0  0
 29 28  1  0  0  0  0
 29 30  1  0  0  0  0
 31 29  2  0  0  0  0
 32 25  2  0  0  0  0
 32 31  1  0  0  0  0
M  END
>  <CHROM.1>
156.85584130,76.82914243,176.42586928,-85.15896667,-90.37884599,-153.87102877
-54.02622134,56.82468467,62.52570471,-90.96966168,1.17409178,14.96693831
2.99638167,-1.93141862,-0.10208902,-0.58209020

>  <Name>
lig.pdb

>  <RI>
0

>  <Rbt.Current_Directory>
/home/itssahil/PROJECTS/Mol_Feturizer/New_Systems/rnas/5lwj

>  <Rbt.Executable>
rbdock ($Id: //depot/dev/client3/rdock/2013.1/src/exe/rbdock.cxx#4 $)

>  <Rbt.Library>
libRbt.so (2013.1, Build901 2013/11/27)

>  <Rbt.Parameter_File>
/export/apps/rDock/src/rDock_2013.1_src/data/scripts/dock_solv.prm

>  <Rbt.Receptor>
prm/pocket_docking_6.prm

>  <SCORE>
-36.2216

>  <SCORE.INTER>
-32.6713

>  <SCORE.INTER.CONST>
1

>  <SCORE.INTER.POLAR>
-2.55998

>  <SCORE.INTER.ROT>
8

>  <SCORE.INTER.SOLV>
20.3072

>  <SCORE.INTER.VDW>
-28.95

>  <SCORE.INTER.norm>
-1.02098

>  <SCORE.INTRA>
-3.60303

>  <SCORE.INTRA.DIHEDRAL>
-2.4792

>  <SCORE.INTRA.DIHEDRAL.0>
10.9248

>  <SCORE.INTRA.POLAR>
0

>  <SCORE.INTRA.POLAR.0>
0

>  <SCORE.INTRA.REPUL>
0

>  <SCORE.INTRA.REPUL.0>
0

>  <SCORE.INTRA.SOLV>
0.766034

>  <SCORE.INTRA.SOLV.lig_0>
-51.4104

>  <SCORE.INTRA.VDW>
-2.74645

>  <SCORE.INTRA.VDW.0>
0.110327

>  <SCORE.INTRA.norm>
-0.112595

>  <SCORE.RESTR>
0.052736

>  <SCORE.RESTR.CAVITY>
0.052736

>  <SCORE.RESTR.norm>
0.001648

>  <SCORE.SYSTEM>
0

>  <SCORE.SYSTEM.CONST>
0

>  <SCORE.SYSTEM.DIHEDRAL>
0

>  <SCORE.SYSTEM.SOLV>
0

>  <SCORE.SYSTEM.norm>
0

>  <SCORE.heavy>
32

>  <SCORE.norm>
-1.13192

>  <RMSD>
8.797

$$$$
lig.pdb
 OpenBabel11021811523D
libRbt.so/2013.1/901 2013/11/27
 32 34  0  0  0  0  0  0  0  0999 V2000
   -3.1730   15.7118    3.8679 P   0  0  0  0  0  0  0  0  0  0  0  0
   -2.7856   15.4384    5.3008 O   0  0  0  0  0  0  0  0  0  0  0  0
   -4.7284   15.2534    3.8124 O   0  0  0  0  0  0  0  0  0  0  0  0
   -3.2179   17.1436    3.3958 O   0  0  0  0  0  0  0  0  0  0  0  0
   -2.1765   15.0494    3.0488 O   0  0  0  0  0  0  0  0  0  0  0  0
   -2.5710   13.6372    2.8354 P   0  0  1  0  0  0  0  0  0  0  0  0
   -3.1395   13.1202    4.1025 O   0  0  0  0  0  0  0  0  0  0  0  0
   -3.6008   13.5525    1.7738 O   0  0  0  0  0  0  0  0  0  0  0  0
   -1.3783   12.8452    2.4431 O   0  0  0  0  0  0  0  0  0  0  0  0
   -0.1130   12.8737    3.2146 P   0  0  1  0  0  0  0  0  0  0  0  0
   -0.1736   13.6385    4.4768 O   0  0  0  0  0  0  0  0  0  0  0  0
    0.5960   11.5779    3.3059 O   0  0  0  0  0  0  0  0  0  0  0  0
    0.8447   13.7994    2.2955 O   0  0  0  0  0  0  0  0  0  0  0  0
    0.9728   13.6059    0.8995 C   0  0  0  0  0  0  0  0  0  0  0  0
    2.0550   14.4991    0.2771 C   0  0  1  0  0  0  0  0  0  0  0  0
    1.8447   15.8487    0.6387 O   0  0  0  0  0  0  0  0  0  0  0  0
    3.4650   14.2495    0.8405 C   0  0  1  0  0  0  0  0  0  0  0  0
    4.1227   13.0943    0.3475 O   0  0  0  0  0  0  0  0  0  0  0  0
    4.2113   15.5414    0.5084 C   0  0  1  0  0  0  0  0  0  0  0  0
    4.8687   15.4721   -0.7447 O   0  0  0  0  0  0  0  0  0  0  0  0
    3.0591   16.5387    0.4029 C   0  0  2  0  0  0  0  0  0  0  0  0
    3.1742   17.7342    1.2652 N   0  0  0  0  0  0  0  0  0  0  0  0
    2.2228   18.4052    1.9910 C   0  0  0  0  0  0  0  0  0  0  0  0
    2.6624   19.4934    2.5685 N   0  0  0  0  0  0  0  0  0  0  0  0
    4.0100   19.5396    2.2241 C   0  0  0  0  0  0  0  0  0  0  0  0
    5.0179   20.5127    2.5195 C   0  0  0  0  0  0  0  0  0  0  0  0
    4.8853   21.5706    3.1316 O   0  0  0  0  0  0  0  0  0  0  0  0
    6.2751   20.1642    2.0077 N   0  0  0  0  0  0  0  0  0  0  0  0
    6.5275   18.9865    1.3204 C   0  0  0  0  0  0  0  0  0  0  0  0
    7.7918   18.7184    0.9752 N   0  0  0  0  0  0  0  0  0  0  0  0
    5.5692   18.1003    1.0041 N   0  0  0  0  0  0  0  0  0  0  0  0
    4.3367   18.4340    1.4753 C   0  0  0  0  0  0  0  0  0  0  0  0
  1  2  2  0  0  0  0
  1  4  1  0  0  0  0
  1  3  1  0  0  0  0
  5  1  1  0  0  0  0
  6  7  2  1  0  0  0
  6  9  1  0  0  0  0
  6  5  1  0  0  0  0
  6  8  1  0  0  0  0
 10 11  2  1  0  0  0
 10 12  1  0  0  0  0
 10 13  1  0  0  0  0
 10  9  1  0  0  0  0
 13 14  1  0  0  0  0
 15 14  1  1  0  0  0
 15 16  1  0  0  0  0
 17 19  1  0  0  0  0
 17 15  1  0  0  0  0
 17 18  1  6  0  0  0
 19 21  1  0  0  0  0
 19 20  1  6  0  0  0
 21 16  1  0  0  0  0
 21 22  1  1  0  0  0
 22 32  1  0  0  0  0
 23 22  1  0  0  0  0
 23 24  2  0  0  0  0
 24 25  1  0  0  0  0
 25 26  1  0  0  0  0
 26 27  2  0  0  0  0
 26 28  1  0  0  0  0
 29 28  1  0  0  0  0
 29 30  1  0  0  0  0
 31 29  2  0  0  0  0
 32 25  2  0  0  0  0
 32 31  1  0  0  0  0
M  END
>  <CHROM.1>
86.19505599,51.06982734,-39.49023820,-47.45586891,6.01751336,-173.44609754
-52.26336200,178.62068581,-64.84728319,-15.95284489,1.14254554,15.76649896
2.26029579,2.71630435,-0.38553717,-2.86551841

>  <Name>
lig.pdb

>  <RI>
1.82117e+07

>  <Rbt.Current_Directory>
/home/itssahil/PROJECTS/Mol_Feturizer/New_Systems/rnas/5lwj

>  <Rbt.Executable>
rbdock ($Id: //depot/dev/client3/rdock/2013.1/src/exe/rbdock.cxx#4 $)

>  <Rbt.Library>
libRbt.so (2013.1, Build901 2013/11/27)

>  <Rbt.Parameter_File>
/export/apps/rDock/src/rDock_2013.1_src/data/scripts/dock_solv.prm

>  <Rbt.Receptor>
prm/pocket_docking_5.prm

>  <SCORE>
-29.918

>  <SCORE.INTER>
-26.8754

>  <SCORE.INTER.CONST>
1

>  <SCORE.INTER.POLAR>
-3.05904

>  <SCORE.INTER.ROT>
8

>  <SCORE.INTER.SOLV>
14.1794

>  <SCORE.INTER.VDW>
-21.3799

>  <SCORE.INTER.norm>
-0.839856

>  <SCORE.INTRA>
-3.04265

>  <SCORE.INTRA.DIHEDRAL>
-3.39508

>  <SCORE.INTRA.DIHEDRAL.0>
10.9248

>  <SCORE.INTRA.POLAR>
0

>  <SCORE.INTRA.POLAR.0>
0

>  <SCORE.INTRA.REPUL>
0

>  <SCORE.INTRA.REPUL.0>
0

>  <SCORE.INTRA.SOLV>
1.70954

>  <SCORE.INTRA.SOLV.lig_0>
-51.4104

>  <SCORE.INTRA.VDW>
-2.19988

>  <SCORE.INTRA.VDW.0>
0.110327

>  <SCORE.INTRA.norm>
-0.0950828

>  <SCORE.RESTR>
0

>  <SCORE.RESTR.CAVITY>
0

>  <SCORE.RESTR.norm>
0

>  <SCORE.SYSTEM>
0

>  <SCORE.SYSTEM.CONST>
0

>  <SCORE.SYSTEM.DIHEDRAL>
0

>  <SCORE.SYSTEM.SOLV>
0

>  <SCORE.SYSTEM.norm>
0

>  <SCORE.heavy>
32

>  <SCORE.norm>
-0.934939

>  <RMSD>
8.814

$$$$
lig.pdb
 OpenBabel11021811523D
libRbt.so/2013.1/901 2013/11/27
 32 34  0  0  0  0  0  0  0  0999 V2000
    1.2286   11.1420    6.0536 P   0  0  0  0  0  0  0  0  0  0  0  0
    2.3300   11.5289    7.0103 O   0  0  0  0  0  0  0  0  0  0  0  0
    2.0345   10.4731    4.8144 O   0  0  0  0  0  0  0  0  0  0  0  0
    0.2663   10.0562    6.4660 O   0  0  0  0  0  0  0  0  0  0  0  0
    0.4284   12.3354    5.8581 O   0  0  0  0  0  0  0  0  0  0  0  0
   -0.3213   12.2249    4.5848 P   0  0  1  0  0  0  0  0  0  0  0  0
    0.6541   11.9949    3.4932 O   0  0  0  0  0  0  0  0  0  0  0  0
   -1.2581   11.0788    4.6450 O   0  0  0  0  0  0  0  0  0  0  0  0
   -1.0773   13.4800    4.3465 O   0  0  0  0  0  0  0  0  0  0  0  0
   -1.6197   13.8439    3.0159 P   0  0  1  0  0  0  0  0  0  0  0  0
   -0.6098   14.2954    2.0372 O   0  0  0  0  0  0  0  0  0  0  0  0
   -2.6364   12.9136    2.4765 O   0  0  0  0  0  0  0  0  0  0  0  0
   -2.4358   15.2070    3.3238 O   0  0  0  0  0  0  0  0  0  0  0  0
   -3.3014   15.8028    2.3760 C   0  0  0  0  0  0  0  0  0  0  0  0
   -2.5437   16.5941    1.3007 C   0  0  1  0  0  0  0  0  0  0  0  0
   -1.3642   17.1522    1.8425 O   0  0  0  0  0  0  0  0  0  0  0  0
   -1.9746   15.7176    0.1713 C   0  0  1  0  0  0  0  0  0  0  0  0
   -2.9151   15.2849   -0.7974 O   0  0  0  0  0  0  0  0  0  0  0  0
   -0.8682   16.5866   -0.4262 C   0  0  1  0  0  0  0  0  0  0  0  0
   -1.3371   17.3887   -1.4957 O   0  0  0  0  0  0  0  0  0  0  0  0
   -0.5255   17.4946    0.7535 C   0  0  2  0  0  0  0  0  0  0  0  0
    0.8978   17.5042    1.1537 N   0  0  0  0  0  0  0  0  0  0  0  0
    1.6971   16.4961    1.6304 C   0  0  0  0  0  0  0  0  0  0  0  0
    2.8955   16.8864    1.9799 N   0  0  0  0  0  0  0  0  0  0  0  0
    2.9062   18.2481    1.6931 C   0  0  0  0  0  0  0  0  0  0  0  0
    3.9211   19.2380    1.8931 C   0  0  0  0  0  0  0  0  0  0  0  0
    5.0237   19.0894    2.4159 O   0  0  0  0  0  0  0  0  0  0  0  0
    3.5413   20.5054    1.4310 N   0  0  0  0  0  0  0  0  0  0  0  0
    2.3282   20.7682    0.8127 C   0  0  0  0  0  0  0  0  0  0  0  0
    2.1264   21.9953    0.3197 N   0  0  0  0  0  0  0  0  0  0  0  0
    1.3607   19.8475    0.6710 N   0  0  0  0  0  0  0  0  0  0  0  0
    1.7049   18.6149    1.1343 C   0  0  0  0  0  0  0  0  0  0  0  0
  1  2  2  0  0  0  0
  1  4  1  0  0  0  0
  1  3  1  0  0  0  0
  5  1  1  0  0  0  0
  6  7  2  6  0  0  0
  6  9  1  0  0  0  0
  6  5  1  0  0  0  0
  6  8  1  0  0  0  0
 10 11  2  6  0  0  0
 10 12  1  0  0  0  0
 10 13  1  0  0  0  0
 10  9  1  0  0  0  0
 13 14  1  0  0  0  0
 15 14  1  1  0  0  0
 15 16  1  0  0  0  0
 17 19  1  0  0  0  0
 17 15  1  0  0  0  0
 17 18  1  6  0  0  0
 19 21  1  0  0  0  0
 19 20  1  6  0  0  0
 21 16  1  0  0  0  0
 21 22  1  1  0  0  0
 22 32  1  0  0  0  0
 23 22  1  0  0  0  0
 23 24  2  0  0  0  0
 24 25  1  0  0  0  0
 25 26  1  0  0  0  0
 26 27  2  0  0  0  0
 26 28  1  0  0  0  0
 29 28  1  0  0  0  0
 29 30  1  0  0  0  0
 31 29  2  0  0  0  0
 32 25  2  0  0  0  0
 32 31  1  0  0  0  0
M  END
>  <CHROM.1>
158.12830322,162.77493324,-56.40899454,-169.67456544,-74.13126232,-78.61472369
-31.96977420,-60.23819188,-176.77101786,61.65480844,0.22458718,15.23161182
2.67307858,-1.75071364,-0.43493423,-0.59883440

>  <Name>
lig.pdb

>  <RI>
0

>  <Rbt.Current_Directory>
/home/itssahil/PROJECTS/Mol_Feturizer/New_Systems/rnas/5lwj

>  <Rbt.Executable>
rbdock ($Id: //depot/dev/client3/rdock/2013.1/src/exe/rbdock.cxx#4 $)

>  <Rbt.Library>
libRbt.so (2013.1, Build901 2013/11/27)

>  <Rbt.Parameter_File>
/export/apps/rDock/src/rDock_2013.1_src/data/scripts/dock_solv.prm

>  <Rbt.Receptor>
prm/pocket_docking_6.prm

>  <SCORE>
-27.2876

>  <SCORE.INTER>
-23.4383

>  <SCORE.INTER.CONST>
1

>  <SCORE.INTER.POLAR>
-1.87573

>  <SCORE.INTER.ROT>
8

>  <SCORE.INTER.SOLV>
16.0365

>  <SCORE.INTER.VDW>
-23.6519

>  <SCORE.INTER.norm>
-0.732446

>  <SCORE.INTRA>
-3.96191

>  <SCORE.INTRA.DIHEDRAL>
-2.94912

>  <SCORE.INTRA.DIHEDRAL.0>
10.9248

>  <SCORE.INTRA.POLAR>
0

>  <SCORE.INTRA.POLAR.0>
0

>  <SCORE.INTRA.REPUL>
0

>  <SCORE.INTRA.REPUL.0>
0

>  <SCORE.INTRA.SOLV>
1.10408

>  <SCORE.INTRA.SOLV.lig_0>
-51.4104

>  <SCORE.INTRA.VDW>
-3.03939

>  <SCORE.INTRA.VDW.0>
0.110327

>  <SCORE.INTRA.norm>
-0.12381

>  <SCORE.RESTR>
0.112643

>  <SCORE.RESTR.CAVITY>
0.112643

>  <SCORE.RESTR.norm>
0.00352008

>  <SCORE.SYSTEM>
0

>  <SCORE.SYSTEM.CONST>
0

>  <SCORE.SYSTEM.DIHEDRAL>
0

>  <SCORE.SYSTEM.SOLV>
0

>  <SCORE.SYSTEM.norm>
0

>  <SCORE.heavy>
32

>  <SCORE.norm>
-0.852736

>  <RMSD>
8.818

$$$$
lig.pdb
 OpenBabel11021811523D
libRbt.so/2013.1/901 2013/11/27
 32 34  0  0  0  0  0  0  0  0999 V2000
    0.2619   11.5561    5.4087 P   0  0  0  0  0  0  0  0  0  0  0  0
    0.2467   10.0650    5.6419 O   0  0  0  0  0  0  0  0  0  0  0  0
   -0.7519   12.1175    6.5444 O   0  0  0  0  0  0  0  0  0  0  0  0
    1.5378   12.3135    5.6799 O   0  0  0  0  0  0  0  0  0  0  0  0
   -0.0264   11.7457    4.0003 O   0  0  0  0  0  0  0  0  0  0  0  0
   -1.1975   12.6412    3.8514 P   0  0  1  0  0  0  0  0  0  0  0  0
   -2.3131   12.0787    4.6483 O   0  0  0  0  0  0  0  0  0  0  0  0
   -0.8716   13.9926    4.3633 O   0  0  0  0  0  0  0  0  0  0  0  0
   -1.5765   12.7243    2.4185 O   0  0  0  0  0  0  0  0  0  0  0  0
   -1.4486   13.9734    1.6309 P   0  0  1  0  0  0  0  0  0  0  0  0
   -1.6108   13.8059    0.1723 O   0  0  0  0  0  0  0  0  0  0  0  0
   -2.1406   15.1499    2.2027 O   0  0  0  0  0  0  0  0  0  0  0  0
    0.1263   14.3205    1.7656 O   0  0  0  0  0  0  0  0  0  0  0  0
    0.6305   15.6322    1.5980 C   0  0  0  0  0  0  0  0  0  0  0  0
    2.1606   15.6653    1.4795 C   0  0  1  0  0  0  0  0  0  0  0  0
    2.5820   14.9154    0.3586 O   0  0  0  0  0  0  0  0  0  0  0  0
    2.7268   17.0565    1.1450 C   0  0  1  0  0  0  0  0  0  0  0  0
    2.7823   17.9688    2.2289 O   0  0  0  0  0  0  0  0  0  0  0  0
    4.1056   16.7455    0.5632 C   0  0  1  0  0  0  0  0  0  0  0  0
    5.1167   16.7437    1.5555 O   0  0  0  0  0  0  0  0  0  0  0  0
    3.9079   15.3160    0.0624 C   0  0  2  0  0  0  0  0  0  0  0  0
    4.2309   15.0931   -1.3632 N   0  0  0  0  0  0  0  0  0  0  0  0
    4.0439   15.9003   -2.4567 C   0  0  0  0  0  0  0  0  0  0  0  0
    4.3611   15.3382   -3.5944 N   0  0  0  0  0  0  0  0  0  0  0  0
    4.8159   14.0736   -3.2330 C   0  0  0  0  0  0  0  0  0  0  0  0
    5.2650   12.9765   -4.0359 C   0  0  0  0  0  0  0  0  0  0  0  0
    5.3070   12.9104   -5.2627 O   0  0  0  0  0  0  0  0  0  0  0  0
    5.6747   11.8762   -3.2708 N   0  0  0  0  0  0  0  0  0  0  0  0
    5.6805   11.8615   -1.8841 C   0  0  0  0  0  0  0  0  0  0  0  0
    6.1949   10.7909   -1.2687 N   0  0  0  0  0  0  0  0  0  0  0  0
    5.2131   12.8746   -1.1364 N   0  0  0  0  0  0  0  0  0  0  0  0
    4.7908   13.9441   -1.8646 C   0  0  0  0  0  0  0  0  0  0  0  0
  1  2  2  0  0  0  0
  1  4  1  0  0  0  0
  1  3  1  0  0  0  0
  5  1  1  0  0  0  0
  6  7  2  1  0  0  0
  6  9  1  0  0  0  0
  6  5  1  0  0  0  0
  6  8  1  0  0  0  0
 10 11  2  6  0  0  0
 10 12  1  0  0  0  0
 10 13  1  0  0  0  0
 10  9  1  0  0  0  0
 13 14  1  0  0  0  0
 15 14  1  6  0  0  0
 15 16  1  0  0  0  0
 17 19  1  0  0  0  0
 17 15  1  0  0  0  0
 17 18  1  1  0  0  0
 19 21  1  0  0  0  0
 19 20  1  1  0  0  0
 21 16  1  0  0  0  0
 21 22  1  6  0  0  0
 22 32  1  0  0  0  0
 23 22  1  0  0  0  0
 23 24  2  0  0  0  0
 24 25  1  0  0  0  0
 25 26  1  0  0  0  0
 26 27  2  0  0  0  0
 26 28  1  0  0  0  0
 29 28  1  0  0  0  0
 29 30  1  0  0  0  0
 31 29  2  0  0  0  0
 32 25  2  0  0  0  0
 32 31  1  0  0  0  0
M  END
>  <CHROM.1>
124.43533421,-113.38486720,-54.02243135,-156.72933518,168.23477935,-167.94195431
60.59753980,-54.76765279,-47.05750267,87.50754513,1.77688292,13.73850416
1.28808579,-2.77881100,0.81417176,-0.28131985

>  <Name>
lig.pdb

>  <RI>
2.92062e+07

>  <Rbt.Current_Directory>
/home/itssahil/PROJECTS/Mol_Feturizer/New_Systems/rnas/5lwj

>  <Rbt.Executable>
rbdock ($Id: //depot/dev/client3/rdock/2013.1/src/exe/rbdock.cxx#4 $)

>  <Rbt.Library>
libRbt.so (2013.1, Build901 2013/11/27)

>  <Rbt.Parameter_File>
/export/apps/rDock/src/rDock_2013.1_src/data/scripts/dock_solv.prm

>  <Rbt.Receptor>
prm/pocket_docking_7.prm

>  <SCORE>
-31.1911

>  <SCORE.INTER>
-27.9769

>  <SCORE.INTER.CONST>
1

>  <SCORE.INTER.POLAR>
-2.77461

>  <SCORE.INTER.ROT>
8

>  <SCORE.INTER.SOLV>
21.247

>  <SCORE.INTER.VDW>
-25.4182

>  <SCORE.INTER.norm>
-0.874279

>  <SCORE.INTRA>
-3.21416

>  <SCORE.INTRA.DIHEDRAL>
-0.954626

>  <SCORE.INTRA.DIHEDRAL.0>
10.9248

>  <SCORE.INTRA.POLAR>
-0.0952267

>  <SCORE.INTRA.POLAR.0>
0

>  <SCORE.INTRA.REPUL>
0

>  <SCORE.INTRA.REPUL.0>
0

>  <SCORE.INTRA.SOLV>
-1.89289

>  <SCORE.INTRA.SOLV.lig_0>
-51.4104

>  <SCORE.INTRA.VDW>
-1.46663

>  <SCORE.INTRA.VDW.0>
0.110327

>  <SCORE.INTRA.norm>
-0.100443

>  <SCORE.RESTR>
0

>  <SCORE.RESTR.CAVITY>
0

>  <SCORE.RESTR.norm>
0

>  <SCORE.SYSTEM>
0

>  <SCORE.SYSTEM.CONST>
0

>  <SCORE.SYSTEM.DIHEDRAL>
0

>  <SCORE.SYSTEM.SOLV>
0

>  <SCORE.SYSTEM.norm>
0

>  <SCORE.heavy>
32

>  <SCORE.norm>
-0.974721

>  <RMSD>
8.819

$$$$
lig.pdb
 OpenBabel11021811523D
libRbt.so/2013.1/901 2013/11/27
 32 34  0  0  0  0  0  0  0  0999 V2000
   -0.2505   12.9343    3.0156 P   0  0  0  0  0  0  0  0  0  0  0  0
   -0.5101   11.8755    4.0595 O   0  0  0  0  0  0  0  0  0  0  0  0
   -1.5629   12.8454    2.0658 O   0  0  0  0  0  0  0  0  0  0  0  0
   -0.2332   14.3798    3.4463 O   0  0  0  0  0  0  0  0  0  0  0  0
    1.0692   12.6579    2.4822 O   0  0  0  0  0  0  0  0  0  0  0  0
    1.2230   13.3294    1.1703 P   0  0  1  0  0  0  0  0  0  0  0  0
    2.5610   12.9895    0.6318 O   0  0  0  0  0  0  0  0  0  0  0  0
    0.1863   12.8469    0.2284 O   0  0  0  0  0  0  0  0  0  0  0  0
    1.0955   14.7975    1.3492 O   0  0  0  0  0  0  0  0  0  0  0  0
    2.0979   15.6009    2.0887 P   0  0  1  0  0  0  0  0  0  0  0  0
    1.5483   16.4151    3.1917 O   0  0  0  0  0  0  0  0  0  0  0  0
    3.3588   14.8941    2.4057 O   0  0  0  0  0  0  0  0  0  0  0  0
    2.5218   16.7267    1.0063 O   0  0  0  0  0  0  0  0  0  0  0  0
    3.0327   16.3958   -0.2713 C   0  0  0  0  0  0  0  0  0  0  0  0
    3.9202   17.5030   -0.8567 C   0  0  1  0  0  0  0  0  0  0  0  0
    4.4553   18.3014    0.1790 O   0  0  0  0  0  0  0  0  0  0  0  0
    5.2010   16.9801   -1.5303 C   0  0  1  0  0  0  0  0  0  0  0  0
    5.0267   16.4244   -2.8230 O   0  0  0  0  0  0  0  0  0  0  0  0
    6.1224   18.1996   -1.5307 C   0  0  1  0  0  0  0  0  0  0  0  0
    5.9968   18.9644   -2.7167 O   0  0  0  0  0  0  0  0  0  0  0  0
    5.5565   19.0076   -0.3644 C   0  0  2  0  0  0  0  0  0  0  0  0
    6.5311   19.3737    0.6855 N   0  0  0  0  0  0  0  0  0  0  0  0
    7.9014   19.3072    0.6925 C   0  0  0  0  0  0  0  0  0  0  0  0
    8.4444   19.6250    1.8392 N   0  0  0  0  0  0  0  0  0  0  0  0
    7.3608   19.9509    2.6492 C   0  0  0  0  0  0  0  0  0  0  0  0
    7.3057   20.3381    4.0265 C   0  0  0  0  0  0  0  0  0  0  0  0
    8.2404   20.4293    4.8199 O   0  0  0  0  0  0  0  0  0  0  0  0
    6.0024   20.6154    4.4605 N   0  0  0  0  0  0  0  0  0  0  0  0
    4.8878   20.5575    3.6374 C   0  0  0  0  0  0  0  0  0  0  0  0
    3.7122   20.9483    4.1423 N   0  0  0  0  0  0  0  0  0  0  0  0
    4.9382   20.1472    2.3595 N   0  0  0  0  0  0  0  0  0  0  0  0
    6.1948   19.8530    1.9274 C   0  0  0  0  0  0  0  0  0  0  0  0
  1  2  2  0  0  0  0
  1  4  1  0  0  0  0
  1  3  1  0  0  0  0
  5  1  1  0  0  0  0
  6  7  2  6  0  0  0
  6  9  1  0  0  0  0
  6  5  1  0  0  0  0
  6  8  1  0  0  0  0
 10 11  2  1  0  0  0
 10 12  1  0  0  0  0
 10 13  1  0  0  0  0
 10  9  1  0  0  0  0
 13 14  1  0  0  0  0
 15 14  1  1  0  0  0
 15 16  1  0  0  0  0
 17 19  1  0  0  0  0
 17 15  1  0  0  0  0
 17 18  1  6  0  0  0
 19 21  1  0  0  0  0
 19 20  1  6  0  0  0
 21 16  1  0  0  0  0
 21 22  1  1  0  0  0
 22 32  1  0  0  0  0
 23 22  1  0  0  0  0
 23 24  2  0  0  0  0
 24 25  1  0  0  0  0
 25 26  1  0  0  0  0
 26 27  2  0  0  0  0
 26 28  1  0  0  0  0
 29 28  1  0  0  0  0
 29 30  1  0  0  0  0
 31 29  2  0  0  0  0
 32 25  2  0  0  0  0
 32 31  1  0  0  0  0
M  END
>  <CHROM.1>
160.83935008,67.44304114,-178.06357390,-56.78519844,-125.22327608,-154.30506367
24.07415663,67.23183624,-179.98115428,136.56745442,3.46643456,16.61288473
1.56604323,2.93474347,-0.78860490,-1.92476304

>  <Name>
lig.pdb

>  <RI>
0

>  <Rbt.Current_Directory>
/home/itssahil/PROJECTS/Mol_Feturizer/New_Systems/rnas/5lwj

>  <Rbt.Executable>
rbdock ($Id: //depot/dev/client3/rdock/2013.1/src/exe/rbdock.cxx#4 $)

>  <Rbt.Library>
libRbt.so (2013.1, Build901 2013/11/27)

>  <Rbt.Parameter_File>
/export/apps/rDock/src/rDock_2013.1_src/data/scripts/dock_solv.prm

>  <Rbt.Receptor>
prm/pocket_docking_3.prm

>  <SCORE>
-21.1952

>  <SCORE.INTER>
-19.8577

>  <SCORE.INTER.CONST>
1

>  <SCORE.INTER.POLAR>
-2.24872

>  <SCORE.INTER.ROT>
8

>  <SCORE.INTER.SOLV>
16.9239

>  <SCORE.INTER.VDW>
-20.3173

>  <SCORE.INTER.norm>
-0.620552

>  <SCORE.INTRA>
-1.3375

>  <SCORE.INTRA.DIHEDRAL>
0.90747

>  <SCORE.INTRA.DIHEDRAL.0>
10.9248

>  <SCORE.INTRA.POLAR>
-0.0456285

>  <SCORE.INTRA.POLAR.0>
0

>  <SCORE.INTRA.REPUL>
0.137938

>  <SCORE.INTRA.REPUL.0>
0

>  <SCORE.INTRA.SOLV>
0.679081

>  <SCORE.INTRA.SOLV.lig_0>
-51.4104

>  <SCORE.INTRA.VDW>
-2.66533

>  <SCORE.INTRA.VDW.0>
0.110327

>  <SCORE.INTRA.norm>
-0.0417968

>  <SCORE.RESTR>
0

>  <SCORE.RESTR.CAVITY>
0

>  <SCORE.RESTR.norm>
0

>  <SCORE.SYSTEM>
0

>  <SCORE.SYSTEM.CONST>
0

>  <SCORE.SYSTEM.DIHEDRAL>
0

>  <SCORE.SYSTEM.SOLV>
0

>  <SCORE.SYSTEM.norm>
0

>  <SCORE.heavy>
32

>  <SCORE.norm>
-0.662349

>  <RMSD>
8.826

$$$$
lig.pdb
 OpenBabel11021811523D
libRbt.so/2013.1/901 2013/11/27
 32 34  0  0  0  0  0  0  0  0999 V2000
   -0.5041   16.2610    2.5336 P   0  0  0  0  0  0  0  0  0  0  0  0
   -1.8393   15.6163    2.8157 O   0  0  0  0  0  0  0  0  0  0  0  0
   -0.9139   17.7233    1.9622 O   0  0  0  0  0  0  0  0  0  0  0  0
    0.3980   16.5858    3.6980 O   0  0  0  0  0  0  0  0  0  0  0  0
    0.2290   15.3221    1.7068 O   0  0  0  0  0  0  0  0  0  0  0  0
    1.1788   16.0612    0.8424 P   0  0  1  0  0  0  0  0  0  0  0  0
    0.3952   16.8273   -0.1551 O   0  0  0  0  0  0  0  0  0  0  0  0
    1.9779   17.0056    1.6575 O   0  0  0  0  0  0  0  0  0  0  0  0
    2.0799   15.0975    0.1620 O   0  0  0  0  0  0  0  0  0  0  0  0
    3.2078   14.4328    0.8571 P   0  0  1  0  0  0  0  0  0  0  0  0
    3.2868   14.7012    2.3075 O   0  0  0  0  0  0  0  0  0  0  0  0
    3.4394   13.0229    0.4719 O   0  0  0  0  0  0  0  0  0  0  0  0
    4.4966   15.2288    0.2879 O   0  0  0  0  0  0  0  0  0  0  0  0
    5.7765   15.1225    0.8822 C   0  0  0  0  0  0  0  0  0  0  0  0
    6.8702   15.8127    0.0552 C   0  0  1  0  0  0  0  0  0  0  0  0
    6.4791   17.1303   -0.2725 O   0  0  0  0  0  0  0  0  0  0  0  0
    8.1712   16.0671    0.8365 C   0  0  1  0  0  0  0  0  0  0  0  0
    9.0070   14.9356    1.0135 O   0  0  0  0  0  0  0  0  0  0  0  0
    8.8479   17.1830    0.0409 C   0  0  1  0  0  0  0  0  0  0  0  0
    9.7249   16.6771   -0.9500 O   0  0  0  0  0  0  0  0  0  0  0  0
    7.6501   17.8321   -0.6500 C   0  0  2  0  0  0  0  0  0  0  0  0
    7.5007   19.2861   -0.4270 N   0  0  0  0  0  0  0  0  0  0  0  0
    8.2536   20.3398   -0.8799 C   0  0  0  0  0  0  0  0  0  0  0  0
    7.8873   21.5008   -0.4016 N   0  0  0  0  0  0  0  0  0  0  0  0
    6.7961   21.2047    0.4096 C   0  0  0  0  0  0  0  0  0  0  0  0
    5.9889   22.0500    1.2366 C   0  0  0  0  0  0  0  0  0  0  0  0
    6.1234   23.2553    1.4377 O   0  0  0  0  0  0  0  0  0  0  0  0
    4.9527   21.3551    1.8749 N   0  0  0  0  0  0  0  0  0  0  0  0
    4.7099   20.0013    1.6980 C   0  0  0  0  0  0  0  0  0  0  0  0
    3.6256   19.4757    2.2791 N   0  0  0  0  0  0  0  0  0  0  0  0
    5.4986   19.2034    0.9597 N   0  0  0  0  0  0  0  0  0  0  0  0
    6.5235   19.8586    0.3491 C   0  0  0  0  0  0  0  0  0  0  0  0
  1  2  2  0  0  0  0
  1  4  1  0  0  0  0
  1  3  1  0  0  0  0
  5  1  1  0  0  0  0
  6  7  2  6  0  0  0
  6  9  1  0  0  0  0
  6  5  1  0  0  0  0
  6  8  1  0  0  0  0
 10 11  2  1  0  0  0
 10 12  1  0  0  0  0
 10 13  1  0  0  0  0
 10  9  1  0  0  0  0
 13 14  1  0  0  0  0
 15 14  1  1  0  0  0
 15 16  1  0  0  0  0
 17 19  1  0  0  0  0
 17 15  1  0  0  0  0
 17 18  1  6  0  0  0
 19 21  1  0  0  0  0
 19 20  1  6  0  0  0
 21 16  1  0  0  0  0
 21 22  1  1  0  0  0
 22 32  1  0  0  0  0
 23 22  1  0  0  0  0
 23 24  2  0  0  0  0
 24 25  1  0  0  0  0
 25 26  1  0  0  0  0
 26 27  2  0  0  0  0
 26 28  1  0  0  0  0
 29 28  1  0  0  0  0
 29 30  1  0  0  0  0
 31 29  2  0  0  0  0
 32 25  2  0  0  0  0
 32 31  1  0  0  0  0
M  END
>  <CHROM.1>
151.59341270,-76.28788159,-68.91582175,166.44488575,5.66027941,172.12671487
50.46333936,-173.88921514,-176.02473082,-165.67328491,4.17909640,17.27083930
0.97490804,2.74497879,-0.26487624,-3.04375664

>  <Name>
lig.pdb

>  <RI>
1.82117e+07

>  <Rbt.Current_Directory>
/home/itssahil/PROJECTS/Mol_Feturizer/New_Systems/rnas/5lwj

>  <Rbt.Executable>
rbdock ($Id: //depot/dev/client3/rdock/2013.1/src/exe/rbdock.cxx#4 $)

>  <Rbt.Library>
libRbt.so (2013.1, Build901 2013/11/27)

>  <Rbt.Parameter_File>
/export/apps/rDock/src/rDock_2013.1_src/data/scripts/dock_solv.prm

>  <Rbt.Receptor>
prm/pocket_docking_5.prm

>  <SCORE>
-18.2444

>  <SCORE.INTER>
-11.3694

>  <SCORE.INTER.CONST>
1

>  <SCORE.INTER.POLAR>
-2.68573

>  <SCORE.INTER.ROT>
8

>  <SCORE.INTER.SOLV>
6.51226

>  <SCORE.INTER.VDW>
-9.73123

>  <SCORE.INTER.norm>
-0.355293

>  <SCORE.INTRA>
-6.875

>  <SCORE.INTRA.DIHEDRAL>
-3.55919

>  <SCORE.INTRA.DIHEDRAL.0>
10.9248

>  <SCORE.INTRA.POLAR>
-1

>  <SCORE.INTRA.POLAR.0>
0

>  <SCORE.INTRA.REPUL>
0.282662

>  <SCORE.INTRA.REPUL.0>
0

>  <SCORE.INTRA.SOLV>
-0.322811

>  <SCORE.INTRA.SOLV.lig_0>
-51.4104

>  <SCORE.INTRA.VDW>
-2.94731

>  <SCORE.INTRA.VDW.0>
0.110327

>  <SCORE.INTRA.norm>
-0.214844

>  <SCORE.RESTR>
0

>  <SCORE.RESTR.CAVITY>
0

>  <SCORE.RESTR.norm>
0

>  <SCORE.SYSTEM>
0

>  <SCORE.SYSTEM.CONST>
0

>  <SCORE.SYSTEM.DIHEDRAL>
0

>  <SCORE.SYSTEM.SOLV>
0

>  <SCORE.SYSTEM.norm>
0

>  <SCORE.heavy>
32

>  <SCORE.norm>
-0.570137

>  <RMSD>
8.828

$$$$
lig.pdb
 OpenBabel11021811523D
libRbt.so/2013.1/901 2013/11/27
 32 34  0  0  0  0  0  0  0  0999 V2000
   -3.0077   14.5288    3.9072 P   0  0  0  0  0  0  0  0  0  0  0  0
   -4.1339   14.8883    4.8456 O   0  0  0  0  0  0  0  0  0  0  0  0
   -3.7599   13.7128    2.7237 O   0  0  0  0  0  0  0  0  0  0  0  0
   -2.3053   15.6402    3.1679 O   0  0  0  0  0  0  0  0  0  0  0  0
   -1.9953   13.8854    4.7220 O   0  0  0  0  0  0  0  0  0  0  0  0
   -0.9412   13.3212    3.8468 P   0  0  1  0  0  0  0  0  0  0  0  0
   -0.1126   12.3985    4.6581 O   0  0  0  0  0  0  0  0  0  0  0  0
   -1.5578   12.5639    2.7328 O   0  0  0  0  0  0  0  0  0  0  0  0
   -0.1074   14.4233    3.3047 O   0  0  0  0  0  0  0  0  0  0  0  0
    1.0432   14.1828    2.4018 P   0  0  1  0  0  0  0  0  0  0  0  0
    1.3794   12.7600    2.1914 O   0  0  0  0  0  0  0  0  0  0  0  0
    1.0656   15.0148    1.1781 O   0  0  0  0  0  0  0  0  0  0  0  0
    2.2991   14.7088    3.2763 O   0  0  0  0  0  0  0  0  0  0  0  0
    3.5856   14.8979    2.7178 C   0  0  0  0  0  0  0  0  0  0  0  0
    3.6149   16.0193    1.6700 C   0  0  1  0  0  0  0  0  0  0  0  0
    2.8135   17.1043    2.0904 O   0  0  0  0  0  0  0  0  0  0  0  0
    4.9894   16.6953    1.5233 C   0  0  1  0  0  0  0  0  0  0  0  0
    5.9519   15.9651    0.7814 O   0  0  0  0  0  0  0  0  0  0  0  0
    4.6529   18.0443    0.8883 C   0  0  1  0  0  0  0  0  0  0  0  0
    4.6992   17.9956   -0.5268 O   0  0  0  0  0  0  0  0  0  0  0  0
    3.2011   18.2314    1.3250 C   0  0  2  0  0  0  0  0  0  0  0  0
    2.9117   19.4923    2.0407 N   0  0  0  0  0  0  0  0  0  0  0  0
    1.8092   20.3079    2.0003 C   0  0  0  0  0  0  0  0  0  0  0  0
    1.9340   21.4076    2.6974 N   0  0  0  0  0  0  0  0  0  0  0  0
    3.2011   21.3082    3.2642 C   0  0  0  0  0  0  0  0  0  0  0  0
    3.9273   22.2190    4.0966 C   0  0  0  0  0  0  0  0  0  0  0  0
    3.5812   23.3393    4.4660 O   0  0  0  0  0  0  0  0  0  0  0  0
    5.1771   21.7191    4.4864 N   0  0  0  0  0  0  0  0  0  0  0  0
    5.6477   20.4626    4.1357 C   0  0  0  0  0  0  0  0  0  0  0  0
    6.8109   20.0583    4.6582 N   0  0  0  0  0  0  0  0  0  0  0  0
    4.9839   19.6318    3.3154 N   0  0  0  0  0  0  0  0  0  0  0  0
    3.7763   20.1109    2.9096 C   0  0  0  0  0  0  0  0  0  0  0  0
  1  2  2  0  0  0  0
  1  4  1  0  0  0  0
  1  3  1  0  0  0  0
  5  1  1  0  0  0  0
  6  7  2  1  0  0  0
  6  9  1  0  0  0  0
  6  5  1  0  0  0  0
  6  8  1  0  0  0  0
 10 11  2  6  0  0  0
 10 12  1  0  0  0  0
 10 13  1  0  0  0  0
 10  9  1  0  0  0  0
 13 14  1  0  0  0  0
 15 14  1  1  0  0  0
 15 16  1  0  0  0  0
 17 19  1  0  0  0  0
 17 15  1  0  0  0  0
 17 18  1  6  0  0  0
 19 21  1  0  0  0  0
 19 20  1  6  0  0  0
 21 16  1  0  0  0  0
 21 22  1  1  0  0  0
 22 32  1  0  0  0  0
 23 22  1  0  0  0  0
 23 24  2  0  0  0  0
 24 25  1  0  0  0  0
 25 26  1  0  0  0  0
 26 27  2  0  0  0  0
 26 28  1  0  0  0  0
 29 28  1  0  0  0  0
 29 30  1  0  0  0  0
 31 29  2  0  0  0  0
 32 25  2  0  0  0  0
 32 31  1  0  0  0  0
M  END
>  <CHROM.1>
171.69485017,179.42284998,-166.29622055,-168.22185995,-5.84074733,65.56686849
39.93334463,-179.18716863,64.69023514,-92.64687896,1.65432635,16.64953434
2.91172445,2.40175090,-0.36771004,-2.85021596

>  <Name>
lig.pdb

>  <RI>
0

>  <Rbt.Current_Directory>
/home/itssahil/PROJECTS/Mol_Feturizer/New_Systems/rnas/5lwj

>  <Rbt.Executable>
rbdock ($Id: //depot/dev/client3/rdock/2013.1/src/exe/rbdock.cxx#4 $)

>  <Rbt.Library>
libRbt.so (2013.1, Build901 2013/11/27)

>  <Rbt.Parameter_File>
/export/apps/rDock/src/rDock_2013.1_src/data/scripts/dock_solv.prm

>  <Rbt.Receptor>
prm/pocket_docking_4.prm

>  <SCORE>
-32.6038

>  <SCORE.INTER>
-29.1017

>  <SCORE.INTER.CONST>
1

>  <SCORE.INTER.POLAR>
-2.8669

>  <SCORE.INTER.ROT>
8

>  <SCORE.INTER.SOLV>
16.7813

>  <SCORE.INTER.VDW>
-24.3719

>  <SCORE.INTER.norm>
-0.909428

>  <SCORE.INTRA>
-3.50208

>  <SCORE.INTRA.DIHEDRAL>
-3.87896

>  <SCORE.INTRA.DIHEDRAL.0>
10.9248

>  <SCORE.INTRA.POLAR>
0

>  <SCORE.INTRA.POLAR.0>
0

>  <SCORE.INTRA.REPUL>
0

>  <SCORE.INTRA.REPUL.0>
0

>  <SCORE.INTRA.SOLV>
-0.0259263

>  <SCORE.INTRA.SOLV.lig_0>
-51.4104

>  <SCORE.INTRA.VDW>
-1.54963

>  <SCORE.INTRA.VDW.0>
0.110327

>  <SCORE.INTRA.norm>
-0.10944

>  <SCORE.RESTR>
0

>  <SCORE.RESTR.CAVITY>
0

>  <SCORE.RESTR.norm>
0

>  <SCORE.SYSTEM>
0

>  <SCORE.SYSTEM.CONST>
0

>  <SCORE.SYSTEM.DIHEDRAL>
0

>  <SCORE.SYSTEM.SOLV>
0

>  <SCORE.SYSTEM.norm>
0

>  <SCORE.heavy>
32

>  <SCORE.norm>
-1.01887

>  <RMSD>
8.830

$$$$
lig.pdb
 OpenBabel11021811523D
libRbt.so/2013.1/901 2013/11/27
 32 34  0  0  0  0  0  0  0  0999 V2000
   -0.2282   11.7205    5.0745 P   0  0  0  0  0  0  0  0  0  0  0  0
   -0.2229   10.2189    5.2273 O   0  0  0  0  0  0  0  0  0  0  0  0
   -1.3959   12.1913    6.0978 O   0  0  0  0  0  0  0  0  0  0  0  0
    0.9770   12.4955    5.5457 O   0  0  0  0  0  0  0  0  0  0  0  0
   -0.3418   11.9794    3.6523 O   0  0  0  0  0  0  0  0  0  0  0  0
   -1.1651   13.1920    3.4346 P   0  0  1  0  0  0  0  0  0  0  0  0
   -2.5922   12.7954    3.4806 O   0  0  0  0  0  0  0  0  0  0  0  0
   -0.9040   14.1819    4.5055 O   0  0  0  0  0  0  0  0  0  0  0  0
   -0.8350   13.7822    2.1131 O   0  0  0  0  0  0  0  0  0  0  0  0
   -0.2334   15.1291    1.9691 P   0  0  1  0  0  0  0  0  0  0  0  0
   -1.2055   16.2400    1.9162 O   0  0  0  0  0  0  0  0  0  0  0  0
    0.9531   15.3808    2.8170 O   0  0  0  0  0  0  0  0  0  0  0  0
    0.3433   15.1026    0.4573 O   0  0  0  0  0  0  0  0  0  0  0  0
    1.3805   15.9635    0.0264 C   0  0  0  0  0  0  0  0  0  0  0  0
    2.7686   15.4853    0.4746 C   0  0  1  0  0  0  0  0  0  0  0  0
    3.2770   14.5327   -0.4368 O   0  0  0  0  0  0  0  0  0  0  0  0
    3.8515   16.5765    0.4097 C   0  0  1  0  0  0  0  0  0  0  0  0
    3.8272   17.5230    1.4650 O   0  0  0  0  0  0  0  0  0  0  0  0
    5.1541   15.7783    0.3616 C   0  0  1  0  0  0  0  0  0  0  0  0
    5.6864   15.5452    1.6536 O   0  0  0  0  0  0  0  0  0  0  0  0
    4.6739   14.4490   -0.2178 C   0  0  2  0  0  0  0  0  0  0  0  0
    5.3822   13.9942   -1.4334 N   0  0  0  0  0  0  0  0  0  0  0  0
    6.5113   14.4808   -2.0423 C   0  0  0  0  0  0  0  0  0  0  0  0
    6.8055   13.8884   -3.1707 N   0  0  0  0  0  0  0  0  0  0  0  0
    5.8161   12.9202   -3.3138 C   0  0  0  0  0  0  0  0  0  0  0  0
    5.5726   11.9803   -4.3660 C   0  0  0  0  0  0  0  0  0  0  0  0
    6.1912   11.8559   -5.4211 O   0  0  0  0  0  0  0  0  0  0  0  0
    4.4769   11.1463   -4.1057 N   0  0  0  0  0  0  0  0  0  0  0  0
    3.7292   11.1984   -2.9390 C   0  0  0  0  0  0  0  0  0  0  0  0
    2.7743   10.2783   -2.7624 N   0  0  0  0  0  0  0  0  0  0  0  0
    3.9312   12.1134   -1.9768 N   0  0  0  0  0  0  0  0  0  0  0  0
    4.9792   12.9461   -2.2235 C   0  0  0  0  0  0  0  0  0  0  0  0
  1  2  2  0  0  0  0
  1  4  1  0  0  0  0
  1  3  1  0  0  0  0
  5  1  1  0  0  0  0
  6  7  2  1  0  0  0
  6  9  1  0  0  0  0
  6  5  1  0  0  0  0
  6  8  1  0  0  0  0
 10 11  2  1  0  0  0
 10 12  1  0  0  0  0
 10 13  1  0  0  0  0
 10  9  1  0  0  0  0
 13 14  1  0  0  0  0
 15 14  1  6  0  0  0
 15 16  1  0  0  0  0
 17 19  1  0  0  0  0
 17 15  1  0  0  0  0
 17 18  1  1  0  0  0
 19 21  1  0  0  0  0
 19 20  1  1  0  0  0
 21 16  1  0  0  0  0
 21 22  1  6  0  0  0
 22 32  1  0  0  0  0
 23 22  1  0  0  0  0
 23 24  2  0  0  0  0
 24 25  1  0  0  0  0
 25 26  1  0  0  0  0
 26 27  2  0  0  0  0
 26 28  1  0  0  0  0
 29 28  1  0  0  0  0
 29 30  1  0  0  0  0
 31 29  2  0  0  0  0
 32 25  2  0  0  0  0
 32 31  1  0  0  0  0
M  END
>  <CHROM.1>
144.61760390,-116.39900628,-83.15572824,-157.65511488,-86.90736421,78.80744874
84.47605976,-61.53873359,-64.60874238,133.32722194,2.07043748,13.63630480
0.94667923,2.84797127,0.81568261,0.40194834

>  <Name>
lig.pdb

>  <RI>
2.0892e+07

>  <Rbt.Current_Directory>
/home/itssahil/PROJECTS/Mol_Feturizer/New_Systems/rnas/5lwj

>  <Rbt.Executable>
rbdock ($Id: //depot/dev/client3/rdock/2013.1/src/exe/rbdock.cxx#4 $)

>  <Rbt.Library>
libRbt.so (2013.1, Build901 2013/11/27)

>  <Rbt.Parameter_File>
/export/apps/rDock/src/rDock_2013.1_src/data/scripts/dock_solv.prm

>  <Rbt.Receptor>
prm/pocket_docking_8.prm

>  <SCORE>
-30.0716

>  <SCORE.INTER>
-28.733

>  <SCORE.INTER.CONST>
1

>  <SCORE.INTER.POLAR>
-3.93896

>  <SCORE.INTER.ROT>
8

>  <SCORE.INTER.SOLV>
19.8583

>  <SCORE.INTER.VDW>
-21.5782

>  <SCORE.INTER.norm>
-0.897906

>  <SCORE.INTRA>
-1.33858

>  <SCORE.INTRA.DIHEDRAL>
1.13707

>  <SCORE.INTRA.DIHEDRAL.0>
10.9248

>  <SCORE.INTRA.POLAR>
0

>  <SCORE.INTRA.POLAR.0>
0

>  <SCORE.INTRA.REPUL>
0.0874208

>  <SCORE.INTRA.REPUL.0>
0

>  <SCORE.INTRA.SOLV>
-1.54834

>  <SCORE.INTRA.SOLV.lig_0>
-51.4104

>  <SCORE.INTRA.VDW>
-1.57005

>  <SCORE.INTRA.VDW.0>
0.110327

>  <SCORE.INTRA.norm>
-0.0418306

>  <SCORE.RESTR>
0

>  <SCORE.RESTR.CAVITY>
0

>  <SCORE.RESTR.norm>
0

>  <SCORE.SYSTEM>
0

>  <SCORE.SYSTEM.CONST>
0

>  <SCORE.SYSTEM.DIHEDRAL>
0

>  <SCORE.SYSTEM.SOLV>
0

>  <SCORE.SYSTEM.norm>
0

>  <SCORE.heavy>
32

>  <SCORE.norm>
-0.939737

>  <RMSD>
8.832

$$$$
lig.pdb
 OpenBabel11021811523D
libRbt.so/2013.1/901 2013/11/27
 32 34  0  0  0  0  0  0  0  0999 V2000
    0.3920   11.3176    5.7117 P   0  0  0  0  0  0  0  0  0  0  0  0
   -0.7725   11.8957    6.4783 O   0  0  0  0  0  0  0  0  0  0  0  0
    1.6354   12.2553    6.1671 O   0  0  0  0  0  0  0  0  0  0  0  0
    0.8627    9.9274    6.0592 O   0  0  0  0  0  0  0  0  0  0  0  0
   -0.0263   11.2654    4.3243 O   0  0  0  0  0  0  0  0  0  0  0  0
    0.0677   12.6188    3.7282 P   0  0  1  0  0  0  0  0  0  0  0  0
   -0.4673   12.5534    2.3478 O   0  0  0  0  0  0  0  0  0  0  0  0
   -0.7423   13.5775    4.5153 O   0  0  0  0  0  0  0  0  0  0  0  0
    1.4868   13.0539    3.7124 O   0  0  0  0  0  0  0  0  0  0  0  0
    2.0127   14.0235    2.7223 P   0  0  1  0  0  0  0  0  0  0  0  0
    3.2786   14.6792    3.1088 O   0  0  0  0  0  0  0  0  0  0  0  0
    1.9476   13.5789    1.3123 O   0  0  0  0  0  0  0  0  0  0  0  0
    0.9506   15.2408    2.8161 O   0  0  0  0  0  0  0  0  0  0  0  0
    0.3310   15.7961    1.6714 C   0  0  0  0  0  0  0  0  0  0  0  0
    1.2103   16.8435    0.9742 C   0  0  1  0  0  0  0  0  0  0  0  0
    1.3231   18.0013    1.7761 O   0  0  0  0  0  0  0  0  0  0  0  0
    2.6843   16.4238    0.8370 C   0  0  1  0  0  0  0  0  0  0  0  0
    2.9594   15.4925   -0.1961 O   0  0  0  0  0  0  0  0  0  0  0  0
    3.4131   17.7533    0.6435 C   0  0  1  0  0  0  0  0  0  0  0  0
    3.5451   18.0966   -0.7247 O   0  0  0  0  0  0  0  0  0  0  0  0
    2.4413   18.7305    1.3023 C   0  0  2  0  0  0  0  0  0  0  0  0
    3.0192   19.5794    2.3660 N   0  0  0  0  0  0  0  0  0  0  0  0
    2.4123   20.2698    3.3845 C   0  0  0  0  0  0  0  0  0  0  0  0
    3.2307   21.0054    4.0913 N   0  0  0  0  0  0  0  0  0  0  0  0
    4.4777   20.7707    3.5199 C   0  0  0  0  0  0  0  0  0  0  0  0
    5.7647   21.3187    3.8255 C   0  0  0  0  0  0  0  0  0  0  0  0
    6.0376   22.1735    4.6658 O   0  0  0  0  0  0  0  0  0  0  0  0
    6.7847   20.7871    3.0250 N   0  0  0  0  0  0  0  0  0  0  0  0
    6.5790   19.8085    2.0642 C   0  0  0  0  0  0  0  0  0  0  0  0
    7.6497   19.3058    1.4394 N   0  0  0  0  0  0  0  0  0  0  0  0
    5.3635   19.3328    1.7480 N   0  0  0  0  0  0  0  0  0  0  0  0
    4.3575   19.8546    2.5019 C   0  0  0  0  0  0  0  0  0  0  0  0
  1  2  2  0  0  0  0
  1  4  1  0  0  0  0
  1  3  1  0  0  0  0
  5  1  1  0  0  0  0
  6  7  2  6  0  0  0
  6  9  1  0  0  0  0
  6  5  1  0  0  0  0
  6  8  1  0  0  0  0
 10 11  2  1  0  0  0
 10 12  1  0  0  0  0
 10 13  1  0  0  0  0
 10  9  1  0  0  0  0
 13 14  1  0  0  0  0
 15 14  1  1  0  0  0
 15 16  1  0  0  0  0
 17 19  1  0  0  0  0
 17 15  1  0  0  0  0
 17 18  1  6  0  0  0
 19 21  1  0  0  0  0
 19 20  1  6  0  0  0
 21 16  1  0  0  0  0
 21 22  1  1  0  0  0
 22 32  1  0  0  0  0
 23 22  1  0  0  0  0
 23 24  2  0  0  0  0
 24 25  1  0  0  0  0
 25 26  1  0  0  0  0
 26 27  2  0  0  0  0
 26 28  1  0  0  0  0
 29 28  1  0  0  0  0
 29 30  1  0  0  0  0
 31 29  2  0  0  0  0
 32 25  2  0  0  0  0
 32 31  1  0  0  0  0
M  END
>  <CHROM.1>
77.94954271,153.22768246,-175.54228117,-129.46728064,160.42136658,-83.00719130
-69.30996340,-65.39998979,-173.83163678,-35.72019613,2.39183407,15.93802504
3.00548963,-2.72832206,-1.01250619,-1.35301635

>  <Name>
lig.pdb

>  <RI>
0

>  <Rbt.Current_Directory>
/home/itssahil/PROJECTS/Mol_Feturizer/New_Systems/rnas/5lwj

>  <Rbt.Executable>
rbdock ($Id: //depot/dev/client3/rdock/2013.1/src/exe/rbdock.cxx#4 $)

>  <Rbt.Library>
libRbt.so (2013.1, Build901 2013/11/27)

>  <Rbt.Parameter_File>
/export/apps/rDock/src/rDock_2013.1_src/data/scripts/dock_solv.prm

>  <Rbt.Receptor>
prm/pocket_docking_4.prm

>  <SCORE>
-33.63

>  <SCORE.INTER>
-28.7147

>  <SCORE.INTER.CONST>
1

>  <SCORE.INTER.POLAR>
-1.94027

>  <SCORE.INTER.ROT>
8

>  <SCORE.INTER.SOLV>
19.9262

>  <SCORE.INTER.VDW>
-28.251

>  <SCORE.INTER.norm>
-0.897335

>  <SCORE.INTRA>
-5.02156

>  <SCORE.INTRA.DIHEDRAL>
-0.995728

>  <SCORE.INTRA.DIHEDRAL.0>
10.9248

>  <SCORE.INTRA.POLAR>
-0.916652

>  <SCORE.INTRA.POLAR.0>
0

>  <SCORE.INTRA.REPUL>
0

>  <SCORE.INTRA.REPUL.0>
0

>  <SCORE.INTRA.SOLV>
2.66431

>  <SCORE.INTRA.SOLV.lig_0>
-51.4104

>  <SCORE.INTRA.VDW>
-2.73924

>  <SCORE.INTRA.VDW.0>
0.110327

>  <SCORE.INTRA.norm>
-0.156924

>  <SCORE.RESTR>
0.106329

>  <SCORE.RESTR.CAVITY>
0.106329

>  <SCORE.RESTR.norm>
0.00332277

>  <SCORE.SYSTEM>
0

>  <SCORE.SYSTEM.CONST>
0

>  <SCORE.SYSTEM.DIHEDRAL>
0

>  <SCORE.SYSTEM.SOLV>
0

>  <SCORE.SYSTEM.norm>
0

>  <SCORE.heavy>
32

>  <SCORE.norm>
-1.05094

>  <RMSD>
8.833

$$$$
lig.pdb
 OpenBabel11021811523D
libRbt.so/2013.1/901 2013/11/27
 32 34  0  0  0  0  0  0  0  0999 V2000
    0.5251   11.7076    5.7520 P   0  0  0  0  0  0  0  0  0  0  0  0
   -0.8230   11.2264    6.2306 O   0  0  0  0  0  0  0  0  0  0  0  0
    1.4230   11.6931    7.1033 O   0  0  0  0  0  0  0  0  0  0  0  0
    1.3082   10.8301    4.8076 O   0  0  0  0  0  0  0  0  0  0  0  0
    0.2799   12.9466    5.0396 O   0  0  0  0  0  0  0  0  0  0  0  0
   -0.3210   12.6469    3.7187 P   0  0  1  0  0  0  0  0  0  0  0  0
    0.7228   12.0318    2.8655 O   0  0  0  0  0  0  0  0  0  0  0  0
   -1.4418   11.6909    3.8760 O   0  0  0  0  0  0  0  0  0  0  0  0
   -0.8156   13.9046    3.1045 O   0  0  0  0  0  0  0  0  0  0  0  0
   -0.4390   14.3246    1.7338 P   0  0  1  0  0  0  0  0  0  0  0  0
   -0.5039   13.2545    0.7177 O   0  0  0  0  0  0  0  0  0  0  0  0
   -0.9930   15.6271    1.3018 O   0  0  0  0  0  0  0  0  0  0  0  0
    1.1535   14.5811    1.8640 O   0  0  0  0  0  0  0  0  0  0  0  0
    1.7119   15.8811    1.8952 C   0  0  0  0  0  0  0  0  0  0  0  0
    1.5887   16.6085    0.5491 C   0  0  1  0  0  0  0  0  0  0  0  0
    0.8837   17.8223    0.7103 O   0  0  0  0  0  0  0  0  0  0  0  0
    2.9318   17.1089   -0.0107 C   0  0  1  0  0  0  0  0  0  0  0  0
    3.7492   16.1181   -0.6111 O   0  0  0  0  0  0  0  0  0  0  0  0
    2.5185   18.2071   -0.9903 C   0  0  1  0  0  0  0  0  0  0  0  0
    2.3335   17.7099   -2.3039 O   0  0  0  0  0  0  0  0  0  0  0  0
    1.1601   18.6203   -0.4269 C   0  0  2  0  0  0  0  0  0  0  0  0
    1.0110   20.0595   -0.1227 N   0  0  0  0  0  0  0  0  0  0  0  0
    0.5473   21.0917   -0.8985 C   0  0  0  0  0  0  0  0  0  0  0  0
    0.6468   22.2680   -0.3353 N   0  0  0  0  0  0  0  0  0  0  0  0
    1.1934   21.9999    0.9162 C   0  0  0  0  0  0  0  0  0  0  0  0
    1.5766   22.8812    1.9775 C   0  0  0  0  0  0  0  0  0  0  0  0
    1.5350   24.1098    1.9867 O   0  0  0  0  0  0  0  0  0  0  0  0
    2.0625   22.1985    3.1008 N   0  0  0  0  0  0  0  0  0  0  0  0
    2.1317   20.8165    3.1919 C   0  0  0  0  0  0  0  0  0  0  0  0
    2.5141   20.2814    4.3569 N   0  0  0  0  0  0  0  0  0  0  0  0
    1.8166   19.9961    2.1763 N   0  0  0  0  0  0  0  0  0  0  0  0
    1.3626   20.6442    1.0688 C   0  0  0  0  0  0  0  0  0  0  0  0
  1  2  2  0  0  0  0
  1  4  1  0  0  0  0
  1  3  1  0  0  0  0
  5  1  1  0  0  0  0
  6  7  2  6  0  0  0
  6  9  1  0  0  0  0
  6  5  1  0  0  0  0
  6  8  1  0  0  0  0
 10 11  2  6  0  0  0
 10 12  1  0  0  0  0
 10 13  1  0  0  0  0
 10  9  1  0  0  0  0
 13 14  1  0  0  0  0
 15 14  1  1  0  0  0
 15 16  1  0  0  0  0
 17 19  1  0  0  0  0
 17 15  1  0  0  0  0
 17 18  1  6  0  0  0
 19 21  1  0  0  0  0
 19 20  1  6  0  0  0
 21 16  1  0  0  0  0
 21 22  1  1  0  0  0
 22 32  1  0  0  0  0
 23 22  1  0  0  0  0
 23 24  2  0  0  0  0
 24 25  1  0  0  0  0
 25 26  1  0  0  0  0
 26 27  2  0  0  0  0
 26 28  1  0  0  0  0
 29 28  1  0  0  0  0
 29 30  1  0  0  0  0
 31 29  2  0  0  0  0
 32 25  2  0  0  0  0
 32 31  1  0  0  0  0
M  END
>  <CHROM.1>
-74.85565601,127.59981222,-70.78084510,-105.63817887,45.06820645,-68.93044708
122.20175206,-61.49370719,176.79751868,-144.39686804,0.91181093,16.32088777
2.23971659,-3.04110370,-1.41309099,-1.85545411

>  <Name>
lig.pdb

>  <RI>
2.92062e+07

>  <Rbt.Current_Directory>
/home/itssahil/PROJECTS/Mol_Feturizer/New_Systems/rnas/5lwj

>  <Rbt.Executable>
rbdock ($Id: //depot/dev/client3/rdock/2013.1/src/exe/rbdock.cxx#4 $)

>  <Rbt.Library>
libRbt.so (2013.1, Build901 2013/11/27)

>  <Rbt.Parameter_File>
/export/apps/rDock/src/rDock_2013.1_src/data/scripts/dock_solv.prm

>  <Rbt.Receptor>
prm/pocket_docking_7.prm

>  <SCORE>
-19.6338

>  <SCORE.INTER>
-21.5117

>  <SCORE.INTER.CONST>
1

>  <SCORE.INTER.POLAR>
-2.23248

>  <SCORE.INTER.ROT>
8

>  <SCORE.INTER.SOLV>
16.3462

>  <SCORE.INTER.VDW>
-21.2816

>  <SCORE.INTER.norm>
-0.672241

>  <SCORE.INTRA>
1.87792

>  <SCORE.INTRA.DIHEDRAL>
2.29117

>  <SCORE.INTRA.DIHEDRAL.0>
10.9248

>  <SCORE.INTRA.POLAR>
0

>  <SCORE.INTRA.POLAR.0>
0

>  <SCORE.INTRA.REPUL>
0

>  <SCORE.INTRA.REPUL.0>
0

>  <SCORE.INTRA.SOLV>
0.465357

>  <SCORE.INTRA.SOLV.lig_0>
-51.4104

>  <SCORE.INTRA.VDW>
0.499655

>  <SCORE.INTRA.VDW.0>
0.110327

>  <SCORE.INTRA.norm>
0.058685

>  <SCORE.RESTR>
0

>  <SCORE.RESTR.CAVITY>
0

>  <SCORE.RESTR.norm>
0

>  <SCORE.SYSTEM>
0

>  <SCORE.SYSTEM.CONST>
0

>  <SCORE.SYSTEM.DIHEDRAL>
0

>  <SCORE.SYSTEM.SOLV>
0

>  <SCORE.SYSTEM.norm>
0

>  <SCORE.heavy>
32

>  <SCORE.norm>
-0.613556

>  <RMSD>
8.838

$$$$
lig.pdb
 OpenBabel11021811523D
libRbt.so/2013.1/901 2013/11/27
 32 34  0  0  0  0  0  0  0  0999 V2000
   -0.5140   12.6444    3.9899 P   0  0  0  0  0  0  0  0  0  0  0  0
    0.1787   13.9416    3.6506 O   0  0  0  0  0  0  0  0  0  0  0  0
    0.6191   11.5272    3.6729 O   0  0  0  0  0  0  0  0  0  0  0  0
   -0.8709   12.3751    5.4305 O   0  0  0  0  0  0  0  0  0  0  0  0
   -1.7672   12.6551    3.2606 O   0  0  0  0  0  0  0  0  0  0  0  0
   -2.4766   13.9308    3.5152 P   0  0  1  0  0  0  0  0  0  0  0  0
   -3.8796   13.7770    3.0636 O   0  0  0  0  0  0  0  0  0  0  0  0
   -2.4665   14.2369    4.9646 O   0  0  0  0  0  0  0  0  0  0  0  0
   -1.8095   15.0249    2.7657 O   0  0  0  0  0  0  0  0  0  0  0  0
   -2.1261   16.4551    2.9920 P   0  0  1  0  0  0  0  0  0  0  0  0
   -3.2450   16.9781    2.1817 O   0  0  0  0  0  0  0  0  0  0  0  0
   -2.1328   16.8800    4.4095 O   0  0  0  0  0  0  0  0  0  0  0  0
   -0.8491   17.2099    2.3454 O   0  0  0  0  0  0  0  0  0  0  0  0
    0.4633   17.0459    2.8488 C   0  0  0  0  0  0  0  0  0  0  0  0
    1.5386   17.5008    1.8521 C   0  0  1  0  0  0  0  0  0  0  0  0
    2.8199   17.1087    2.3003 O   0  0  0  0  0  0  0  0  0  0  0  0
    1.4621   16.7896    0.4897 C   0  0  1  0  0  0  0  0  0  0  0  0
    0.4451   17.2521   -0.3832 O   0  0  0  0  0  0  0  0  0  0  0  0
    2.8655   16.9782   -0.0858 C   0  0  1  0  0  0  0  0  0  0  0  0
    2.9661   18.1488   -0.8773 O   0  0  0  0  0  0  0  0  0  0  0  0
    3.6906   17.1734    1.1849 C   0  0  2  0  0  0  0  0  0  0  0  0
    4.8371   16.2535    1.3441 N   0  0  0  0  0  0  0  0  0  0  0  0
    4.9928   15.1534    2.1490 C   0  0  0  0  0  0  0  0  0  0  0  0
    6.1893   14.6267    2.1059 N   0  0  0  0  0  0  0  0  0  0  0  0
    6.8750   15.4164    1.1879 C   0  0  0  0  0  0  0  0  0  0  0  0
    8.2354   15.3677    0.7444 C   0  0  0  0  0  0  0  0  0  0  0  0
    9.1246   14.6103    1.1279 O   0  0  0  0  0  0  0  0  0  0  0  0
    8.5238   16.3341   -0.2286 N   0  0  0  0  0  0  0  0  0  0  0  0
    7.5855   17.2199   -0.7364 C   0  0  0  0  0  0  0  0  0  0  0  0
    7.9575   18.0238   -1.7389 N   0  0  0  0  0  0  0  0  0  0  0  0
    6.3235   17.2938   -0.2828 N   0  0  0  0  0  0  0  0  0  0  0  0
    6.0320   16.3756    0.6787 C   0  0  0  0  0  0  0  0  0  0  0  0
  1  2  2  0  0  0  0
  1  4  1  0  0  0  0
  1  3  1  0  0  0  0
  5  1  1  0  0  0  0
  6  7  2  6  0  0  0
  6  9  1  0  0  0  0
  6  5  1  0  0  0  0
  6  8  1  0  0  0  0
 10 11  2  6  0  0  0
 10 12  1  0  0  0  0
 10 13  1  0  0  0  0
 10  9  1  0  0  0  0
 13 14  1  0  0  0  0
 15 14  1  1  0  0  0
 15 16  1  0  0  0  0
 17 19  1  0  0  0  0
 17 15  1  0  0  0  0
 17 18  1  6  0  0  0
 19 21  1  0  0  0  0
 19 20  1  6  0  0  0
 21 16  1  0  0  0  0
 21 22  1  1  0  0  0
 22 32  1  0  0  0  0
 23 22  1  0  0  0  0
 23 24  2  0  0  0  0
 24 25  1  0  0  0  0
 25 26  1  0  0  0  0
 26 27  2  0  0  0  0
 26 28  1  0  0  0  0
 29 28  1  0  0  0  0
 29 30  1  0  0  0  0
 31 29  2  0  0  0  0
 32 25  2  0  0  0  0
 32 31  1  0  0  0  0
M  END
>  <CHROM.1>
-50.66015525,-168.99379441,-165.38917099,-63.01291694,-87.87775712,162.75965490
-169.98083364,179.97208091,-58.54356417,20.03272132,1.67806069,15.53594119
2.07284972,-2.77426555,0.20145272,-0.55865141

>  <Name>
lig.pdb

>  <RI>
2.92062e+07

>  <Rbt.Current_Directory>
/home/itssahil/PROJECTS/Mol_Feturizer/New_Systems/rnas/5lwj

>  <Rbt.Executable>
rbdock ($Id: //depot/dev/client3/rdock/2013.1/src/exe/rbdock.cxx#4 $)

>  <Rbt.Library>
libRbt.so (2013.1, Build901 2013/11/27)

>  <Rbt.Parameter_File>
/export/apps/rDock/src/rDock_2013.1_src/data/scripts/dock_solv.prm

>  <Rbt.Receptor>
prm/pocket_docking_7.prm

>  <SCORE>
-27.2755

>  <SCORE.INTER>
-23.9569

>  <SCORE.INTER.CONST>
1

>  <SCORE.INTER.POLAR>
-1.89693

>  <SCORE.INTER.ROT>
8

>  <SCORE.INTER.SOLV>
12.1984

>  <SCORE.INTER.VDW>
-22.6476

>  <SCORE.INTER.norm>
-0.748653

>  <SCORE.INTRA>
-3.31856

>  <SCORE.INTRA.DIHEDRAL>
-5.09328

>  <SCORE.INTRA.DIHEDRAL.0>
10.9248

>  <SCORE.INTRA.POLAR>
0

>  <SCORE.INTRA.POLAR.0>
0

>  <SCORE.INTRA.REPUL>
0

>  <SCORE.INTRA.REPUL.0>
0

>  <SCORE.INTRA.SOLV>
0.833663

>  <SCORE.INTRA.SOLV.lig_0>
-51.4104

>  <SCORE.INTRA.VDW>
-1.18875

>  <SCORE.INTRA.VDW.0>
0.110327

>  <SCORE.INTRA.norm>
-0.103705

>  <SCORE.RESTR>
0

>  <SCORE.RESTR.CAVITY>
0

>  <SCORE.RESTR.norm>
0

>  <SCORE.SYSTEM>
0

>  <SCORE.SYSTEM.CONST>
0

>  <SCORE.SYSTEM.DIHEDRAL>
0

>  <SCORE.SYSTEM.SOLV>
0

>  <SCORE.SYSTEM.norm>
0

>  <SCORE.heavy>
32

>  <SCORE.norm>
-0.852358

>  <RMSD>
8.841

$$$$
lig.pdb
 OpenBabel11021811523D
libRbt.so/2013.1/901 2013/11/27
 32 34  0  0  0  0  0  0  0  0999 V2000
    0.6173   11.4212    6.0808 P   0  0  0  0  0  0  0  0  0  0  0  0
    1.6633   11.9067    7.0546 O   0  0  0  0  0  0  0  0  0  0  0  0
    1.2117   11.8793    4.6422 O   0  0  0  0  0  0  0  0  0  0  0  0
    0.4228    9.9345    5.9164 O   0  0  0  0  0  0  0  0  0  0  0  0
   -0.6490   11.9420    6.5582 O   0  0  0  0  0  0  0  0  0  0  0  0
   -1.5642   12.1453    5.4107 P   0  0  1  0  0  0  0  0  0  0  0  0
   -1.5754   10.9027    4.6033 O   0  0  0  0  0  0  0  0  0  0  0  0
   -2.9366   12.4172    5.8979 O   0  0  0  0  0  0  0  0  0  0  0  0
   -1.0852   13.2883    4.5936 O   0  0  0  0  0  0  0  0  0  0  0  0
   -1.1204   13.2795    3.1118 P   0  0  1  0  0  0  0  0  0  0  0  0
   -0.0782   12.4512    2.4718 O   0  0  0  0  0  0  0  0  0  0  0  0
   -2.4693   13.1514    2.5166 O   0  0  0  0  0  0  0  0  0  0  0  0
   -0.6485   14.7807    2.7346 O   0  0  0  0  0  0  0  0  0  0  0  0
   -1.5126   15.8963    2.8411 C   0  0  0  0  0  0  0  0  0  0  0  0
   -1.2187   16.9729    1.7871 C   0  0  1  0  0  0  0  0  0  0  0  0
   -0.3872   17.9775    2.3310 O   0  0  0  0  0  0  0  0  0  0  0  0
   -0.3616   16.4723    0.6113 C   0  0  1  0  0  0  0  0  0  0  0  0
   -1.0487   15.6987   -0.3579 O   0  0  0  0  0  0  0  0  0  0  0  0
    0.2276   17.7581    0.0318 C   0  0  1  0  0  0  0  0  0  0  0  0
   -0.5834   18.3030   -0.9940 O   0  0  0  0  0  0  0  0  0  0  0  0
    0.1766   18.6878    1.2428 C   0  0  2  0  0  0  0  0  0  0  0  0
    1.4633   19.3123    1.6175 N   0  0  0  0  0  0  0  0  0  0  0  0
    1.7712   20.6187    1.9019 C   0  0  0  0  0  0  0  0  0  0  0  0
    3.0458   20.8345    2.1010 N   0  0  0  0  0  0  0  0  0  0  0  0
    3.6282   19.5780    1.9643 C   0  0  0  0  0  0  0  0  0  0  0  0
    4.9993   19.1708    2.0288 C   0  0  0  0  0  0  0  0  0  0  0  0
    5.9886   19.8831    2.1873 O   0  0  0  0  0  0  0  0  0  0  0  0
    5.1627   17.7882    1.8686 N   0  0  0  0  0  0  0  0  0  0  0  0
    4.1090   16.9022    1.7021 C   0  0  0  0  0  0  0  0  0  0  0  0
    4.3869   15.5940    1.6668 N   0  0  0  0  0  0  0  0  0  0  0  0
    2.8291   17.2943    1.5938 N   0  0  0  0  0  0  0  0  0  0  0  0
    2.6542   18.6376    1.7258 C   0  0  0  0  0  0  0  0  0  0  0  0
  1  2  2  0  0  0  0
  1  4  1  0  0  0  0
  1  3  1  0  0  0  0
  5  1  1  0  0  0  0
  6  7  2  6  0  0  0
  6  9  1  0  0  0  0
  6  5  1  0  0  0  0
  6  8  1  0  0  0  0
 10 11  2  6  0  0  0
 10 12  1  0  0  0  0
 10 13  1  0  0  0  0
 10  9  1  0  0  0  0
 13 14  1  0  0  0  0
 15 14  1  1  0  0  0
 15 16  1  0  0  0  0
 17 19  1  0  0  0  0
 17 15  1  0  0  0  0
 17 18  1  6  0  0  0
 19 21  1  0  0  0  0
 19 20  1  6  0  0  0
 21 16  1  0  0  0  0
 21 22  1  1  0  0  0
 22 32  1  0  0  0  0
 23 22  1  0  0  0  0
 23 24  2  0  0  0  0
 24 25  1  0  0  0  0
 25 26  1  0  0  0  0
 26 27  2  0  0  0  0
 26 28  1  0  0  0  0
 29 28  1  0  0  0  0
 29 30  1  0  0  0  0
 31 29  2  0  0  0  0
 32 25  2  0  0  0  0
 32 31  1  0  0  0  0
M  END
>  <CHROM.1>
150.84951293,140.01316992,49.82360235,-77.12599735,-75.51465738,-147.93648570
-96.41217728,-59.56454909,67.91191532,-103.99857033,0.61920852,15.21900214
3.05304862,-1.99957447,-0.32597832,-0.64239011

>  <Name>
lig.pdb

>  <RI>
0

>  <Rbt.Current_Directory>
/home/itssahil/PROJECTS/Mol_Feturizer/New_Systems/rnas/5lwj

>  <Rbt.Executable>
rbdock ($Id: //depot/dev/client3/rdock/2013.1/src/exe/rbdock.cxx#4 $)

>  <Rbt.Library>
libRbt.so (2013.1, Build901 2013/11/27)

>  <Rbt.Parameter_File>
/export/apps/rDock/src/rDock_2013.1_src/data/scripts/dock_solv.prm

>  <Rbt.Receptor>
prm/pocket_docking_4.prm

>  <SCORE>
-30.9974

>  <SCORE.INTER>
-30.5744

>  <SCORE.INTER.CONST>
1

>  <SCORE.INTER.POLAR>
-2.3288

>  <SCORE.INTER.ROT>
8

>  <SCORE.INTER.SOLV>
21.6345

>  <SCORE.INTER.VDW>
-28.7651

>  <SCORE.INTER.norm>
-0.955451

>  <SCORE.INTRA>
-0.503927

>  <SCORE.INTRA.DIHEDRAL>
2.81859

>  <SCORE.INTRA.DIHEDRAL.0>
10.9248

>  <SCORE.INTRA.POLAR>
0

>  <SCORE.INTRA.POLAR.0>
0

>  <SCORE.INTRA.REPUL>
0.0119033

>  <SCORE.INTRA.REPUL.0>
0

>  <SCORE.INTRA.SOLV>
1.43407

>  <SCORE.INTRA.SOLV.lig_0>
-51.4104

>  <SCORE.INTRA.VDW>
-2.68977

>  <SCORE.INTRA.VDW.0>
0.110327

>  <SCORE.INTRA.norm>
-0.0157477

>  <SCORE.RESTR>
0.0809008

>  <SCORE.RESTR.CAVITY>
0.0809008

>  <SCORE.RESTR.norm>
0.00252815

>  <SCORE.SYSTEM>
0

>  <SCORE.SYSTEM.CONST>
0

>  <SCORE.SYSTEM.DIHEDRAL>
0

>  <SCORE.SYSTEM.SOLV>
0

>  <SCORE.SYSTEM.norm>
0

>  <SCORE.heavy>
32

>  <SCORE.norm>
-0.96867

>  <RMSD>
8.842

$$$$
lig.pdb
 OpenBabel11021811523D
libRbt.so/2013.1/901 2013/11/27
 32 34  0  0  0  0  0  0  0  0999 V2000
    1.2694   10.9120    5.8757 P   0  0  0  0  0  0  0  0  0  0  0  0
    1.5866   11.7891    7.0622 O   0  0  0  0  0  0  0  0  0  0  0  0
    2.5775    9.9589    5.7612 O   0  0  0  0  0  0  0  0  0  0  0  0
    0.1334    9.9266    5.9930 O   0  0  0  0  0  0  0  0  0  0  0  0
    0.9117   11.8109    4.7955 O   0  0  0  0  0  0  0  0  0  0  0  0
   -0.5082   12.2108    4.9346 P   0  0  1  0  0  0  0  0  0  0  0  0
   -1.3311   11.2807    4.1261 O   0  0  0  0  0  0  0  0  0  0  0  0
   -0.9255   12.1169    6.3529 O   0  0  0  0  0  0  0  0  0  0  0  0
   -0.6782   13.6043    4.4518 O   0  0  0  0  0  0  0  0  0  0  0  0
   -1.9607   14.1082    3.9057 P   0  0  1  0  0  0  0  0  0  0  0  0
   -3.0484   13.1100    3.8564 O   0  0  0  0  0  0  0  0  0  0  0  0
   -2.3663   15.4468    4.3891 O   0  0  0  0  0  0  0  0  0  0  0  0
   -1.6203   14.3257    2.3386 O   0  0  0  0  0  0  0  0  0  0  0  0
   -1.3755   15.6056    1.7867 C   0  0  0  0  0  0  0  0  0  0  0  0
   -0.2195   16.3371    2.4831 C   0  0  1  0  0  0  0  0  0  0  0  0
    0.9387   15.5279    2.4913 O   0  0  0  0  0  0  0  0  0  0  0  0
    0.2803   17.5759    1.7194 C   0  0  1  0  0  0  0  0  0  0  0  0
   -0.5322   18.7320    1.8346 O   0  0  0  0  0  0  0  0  0  0  0  0
    1.6895   17.7865    2.2727 C   0  0  1  0  0  0  0  0  0  0  0  0
    1.7013   18.6610    3.3871 O   0  0  0  0  0  0  0  0  0  0  0  0
    2.0411   16.3789    2.7506 C   0  0  2  0  0  0  0  0  0  0  0  0
    3.2940   15.8174    2.2022 N   0  0  0  0  0  0  0  0  0  0  0  0
    3.6708   14.5150    1.9918 C   0  0  0  0  0  0  0  0  0  0  0  0
    4.9038   14.3772    1.5779 N   0  0  0  0  0  0  0  0  0  0  0  0
    5.3772   15.6823    1.4811 C   0  0  0  0  0  0  0  0  0  0  0  0
    6.6687   16.1843    1.1206 C   0  0  0  0  0  0  0  0  0  0  0  0
    7.6777   15.5371    0.8479 O   0  0  0  0  0  0  0  0  0  0  0  0
    6.7239   17.5846    1.1135 N   0  0  0  0  0  0  0  0  0  0  0  0
    5.6365   18.3997    1.3895 C   0  0  0  0  0  0  0  0  0  0  0  0
    5.7885   19.7211    1.2458 N   0  0  0  0  0  0  0  0  0  0  0  0
    4.4406   17.9246    1.7740 N   0  0  0  0  0  0  0  0  0  0  0  0
    4.3755   16.5655    1.8072 C   0  0  0  0  0  0  0  0  0  0  0  0
  1  2  2  0  0  0  0
  1  4  1  0  0  0  0
  1  3  1  0  0  0  0
  5  1  1  0  0  0  0
  6  7  2  6  0  0  0
  6  9  1  0  0  0  0
  6  5  1  0  0  0  0
  6  8  1  0  0  0  0
 10 11  2  1  0  0  0
 10 12  1  0  0  0  0
 10 13  1  0  0  0  0
 10  9  1  0  0  0  0
 13 14  1  0  0  0  0
 15 14  1  6  0  0  0
 15 16  1  0  0  0  0
 17 19  1  0  0  0  0
 17 15  1  0  0  0  0
 17 18  1  1  0  0  0
 19 21  1  0  0  0  0
 19 20  1  1  0  0  0
 21 16  1  0  0  0  0
 21 22  1  6  0  0  0
 22 32  1  0  0  0  0
 23 22  1  0  0  0  0
 23 24  2  0  0  0  0
 24 25  1  0  0  0  0
 25 26  1  0  0  0  0
 26 27  2  0  0  0  0
 26 28  1  0  0  0  0
 29 28  1  0  0  0  0
 29 30  1  0  0  0  0
 31 29  2  0  0  0  0
 32 25  2  0  0  0  0
 32 31  1  0  0  0  0
M  END
>  <CHROM.1>
-82.27217756,152.85394410,-93.21998703,-102.86133510,-1.05793472,57.16127836
53.76817944,-61.86793137,60.84896520,-28.70895745,1.45916659,14.66183168
3.35017027,-2.28196398,0.12947059,-0.48375794

>  <Name>
lig.pdb

>  <RI>
0

>  <Rbt.Current_Directory>
/home/itssahil/PROJECTS/Mol_Feturizer/New_Systems/rnas/5lwj

>  <Rbt.Executable>
rbdock ($Id: //depot/dev/client3/rdock/2013.1/src/exe/rbdock.cxx#4 $)

>  <Rbt.Library>
libRbt.so (2013.1, Build901 2013/11/27)

>  <Rbt.Parameter_File>
/export/apps/rDock/src/rDock_2013.1_src/data/scripts/dock_solv.prm

>  <Rbt.Receptor>
prm/pocket_docking_6.prm

>  <SCORE>
-26.2687

>  <SCORE.INTER>
-28.7989

>  <SCORE.INTER.CONST>
1

>  <SCORE.INTER.POLAR>
-1.42066

>  <SCORE.INTER.ROT>
8

>  <SCORE.INTER.SOLV>
23.0269

>  <SCORE.INTER.VDW>
-31.0727

>  <SCORE.INTER.norm>
-0.899965

>  <SCORE.INTRA>
2.53015

>  <SCORE.INTRA.DIHEDRAL>
-0.786998

>  <SCORE.INTRA.DIHEDRAL.0>
10.9248

>  <SCORE.INTRA.POLAR>
0

>  <SCORE.INTRA.POLAR.0>
0

>  <SCORE.INTRA.REPUL>
0.00636372

>  <SCORE.INTRA.REPUL.0>
0

>  <SCORE.INTRA.SOLV>
0.300067

>  <SCORE.INTRA.SOLV.lig_0>
-51.4104

>  <SCORE.INTRA.VDW>
2.7418

>  <SCORE.INTRA.VDW.0>
0.110327

>  <SCORE.INTRA.norm>
0.0790672

>  <SCORE.RESTR>
0

>  <SCORE.RESTR.CAVITY>
0

>  <SCORE.RESTR.norm>
0

>  <SCORE.SYSTEM>
0

>  <SCORE.SYSTEM.CONST>
0

>  <SCORE.SYSTEM.DIHEDRAL>
0

>  <SCORE.SYSTEM.SOLV>
0

>  <SCORE.SYSTEM.norm>
0

>  <SCORE.heavy>
32

>  <SCORE.norm>
-0.820898

>  <RMSD>
8.842

$$$$
lig.pdb
 OpenBabel11021811523D
libRbt.so/2013.1/901 2013/11/27
 32 34  0  0  0  0  0  0  0  0999 V2000
    0.5932   11.5826    5.4307 P   0  0  0  0  0  0  0  0  0  0  0  0
    1.9607   11.5084    4.7964 O   0  0  0  0  0  0  0  0  0  0  0  0
    0.1823   10.0227    5.6051 O   0  0  0  0  0  0  0  0  0  0  0  0
    0.4791   12.1284    6.8322 O   0  0  0  0  0  0  0  0  0  0  0  0
   -0.1924   12.4654    4.5903 O   0  0  0  0  0  0  0  0  0  0  0  0
   -1.6333   12.1790    4.7831 P   0  0  1  0  0  0  0  0  0  0  0  0
   -1.8483   10.7285    4.5695 O   0  0  0  0  0  0  0  0  0  0  0  0
   -2.0403   12.5295    6.1638 O   0  0  0  0  0  0  0  0  0  0  0  0
   -2.4283   12.9683    3.8091 O   0  0  0  0  0  0  0  0  0  0  0  0
   -2.3196   14.4424    3.6994 P   0  0  1  0  0  0  0  0  0  0  0  0
   -3.5918   15.1725    3.8731 O   0  0  0  0  0  0  0  0  0  0  0  0
   -1.1592   15.0400    4.3968 O   0  0  0  0  0  0  0  0  0  0  0  0
   -2.0078   14.6612    2.1266 O   0  0  0  0  0  0  0  0  0  0  0  0
   -1.8987   15.9477    1.5472 C   0  0  0  0  0  0  0  0  0  0  0  0
   -1.2028   15.9216    0.1793 C   0  0  1  0  0  0  0  0  0  0  0  0
    0.1369   15.4948    0.3187 O   0  0  0  0  0  0  0  0  0  0  0  0
   -1.7625   14.8576   -0.7812 C   0  0  1  0  0  0  0  0  0  0  0  0
   -2.9933   15.1856   -1.4039 O   0  0  0  0  0  0  0  0  0  0  0  0
   -0.6275   14.6566   -1.7850 C   0  0  1  0  0  0  0  0  0  0  0  0
   -0.7496   15.5111   -2.9084 O   0  0  0  0  0  0  0  0  0  0  0  0
    0.5840   15.0956   -0.9647 C   0  0  2  0  0  0  0  0  0  0  0  0
    1.6775   14.1051   -0.8688 N   0  0  0  0  0  0  0  0  0  0  0  0
    2.0180   13.2481    0.1470 C   0  0  0  0  0  0  0  0  0  0  0  0
    3.1164   12.5724   -0.0715 N   0  0  0  0  0  0  0  0  0  0  0  0
    3.5259   12.9894   -1.3345 C   0  0  0  0  0  0  0  0  0  0  0  0
    4.6810   12.6413   -2.1054 C   0  0  0  0  0  0  0  0  0  0  0  0
    5.6065   11.9003   -1.7805 O   0  0  0  0  0  0  0  0  0  0  0  0
    4.7047   13.2660   -3.3597 N   0  0  0  0  0  0  0  0  0  0  0  0
    3.7006   14.1032   -3.8223 C   0  0  0  0  0  0  0  0  0  0  0  0
    3.7867   14.5536   -5.0790 N   0  0  0  0  0  0  0  0  0  0  0  0
    2.6434   14.4647   -3.0770 N   0  0  0  0  0  0  0  0  0  0  0  0
    2.6157   13.8834   -1.8466 C   0  0  0  0  0  0  0  0  0  0  0  0
  1  2  2  0  0  0  0
  1  4  1  0  0  0  0
  1  3  1  0  0  0  0
  5  1  1  0  0  0  0
  6  7  2  6  0  0  0
  6  9  1  0  0  0  0
  6  5  1  0  0  0  0
  6  8  1  0  0  0  0
 10 11  2  1  0  0  0
 10 12  1  0  0  0  0
 10 13  1  0  0  0  0
 10  9  1  0  0  0  0
 13 14  1  0  0  0  0
 15 14  1  1  0  0  0
 15 16  1  0  0  0  0
 17 19  1  0  0  0  0
 17 15  1  0  0  0  0
 17 18  1  6  0  0  0
 19 21  1  0  0  0  0
 19 20  1  6  0  0  0
 21 16  1  0  0  0  0
 21 22  1  1  0  0  0
 22 32  1  0  0  0  0
 23 22  1  0  0  0  0
 23 24  2  0  0  0  0
 24 25  1  0  0  0  0
 25 26  1  0  0  0  0
 26 27  2  0  0  0  0
 26 28  1  0  0  0  0
 29 28  1  0  0  0  0
 29 30  1  0  0  0  0
 31 29  2  0  0  0  0
 32 25  2  0  0  0  0
 32 31  1  0  0  0  0
M  END
>  <CHROM.1>
157.01574423,-55.33310525,-53.10953412,176.34821503,-123.38834254,162.94828589
-64.31652125,-172.79815802,59.59583917,22.76712169,0.24037032,13.51504402
1.47004910,-2.11654024,0.48636992,-1.11410157

>  <Name>
lig.pdb

>  <RI>
1.82117e+07

>  <Rbt.Current_Directory>
/home/itssahil/PROJECTS/Mol_Feturizer/New_Systems/rnas/5lwj

>  <Rbt.Executable>
rbdock ($Id: //depot/dev/client3/rdock/2013.1/src/exe/rbdock.cxx#4 $)

>  <Rbt.Library>
libRbt.so (2013.1, Build901 2013/11/27)

>  <Rbt.Parameter_File>
/export/apps/rDock/src/rDock_2013.1_src/data/scripts/dock_solv.prm

>  <Rbt.Receptor>
prm/pocket_docking_5.prm

>  <SCORE>
-34.8736

>  <SCORE.INTER>
-31.2811

>  <SCORE.INTER.CONST>
1

>  <SCORE.INTER.POLAR>
-4.46761

>  <SCORE.INTER.ROT>
8

>  <SCORE.INTER.SOLV>
17.3853

>  <SCORE.INTER.VDW>
-20.6904

>  <SCORE.INTER.norm>
-0.977533

>  <SCORE.INTRA>
-3.86739

>  <SCORE.INTRA.DIHEDRAL>
-3.59865

>  <SCORE.INTRA.DIHEDRAL.0>
10.9248

>  <SCORE.INTRA.POLAR>
0

>  <SCORE.INTRA.POLAR.0>
0

>  <SCORE.INTRA.REPUL>
0

>  <SCORE.INTRA.REPUL.0>
0

>  <SCORE.INTRA.SOLV>
-1.10715

>  <SCORE.INTRA.SOLV.lig_0>
-51.4104

>  <SCORE.INTRA.VDW>
-1.51449

>  <SCORE.INTRA.VDW.0>
0.110327

>  <SCORE.INTRA.norm>
-0.120856

>  <SCORE.RESTR>
0.274796

>  <SCORE.RESTR.CAVITY>
0.274796

>  <SCORE.RESTR.norm>
0.00858739

>  <SCORE.SYSTEM>
0

>  <SCORE.SYSTEM.CONST>
0

>  <SCORE.SYSTEM.DIHEDRAL>
0

>  <SCORE.SYSTEM.SOLV>
0

>  <SCORE.SYSTEM.norm>
0

>  <SCORE.heavy>
32

>  <SCORE.norm>
-1.0898

>  <RMSD>
8.868

$$$$
lig.pdb
 OpenBabel11021811523D
libRbt.so/2013.1/901 2013/11/27
 32 34  0  0  0  0  0  0  0  0999 V2000
   -0.0766   12.0745    4.5264 P   0  0  0  0  0  0  0  0  0  0  0  0
   -1.1456   11.0125    4.6128 O   0  0  0  0  0  0  0  0  0  0  0  0
   -0.9045   13.4509    4.7565 O   0  0  0  0  0  0  0  0  0  0  0  0
    0.9785   12.1221    5.6032 O   0  0  0  0  0  0  0  0  0  0  0  0
    0.6290   11.8344    3.2825 O   0  0  0  0  0  0  0  0  0  0  0  0
    0.9382   13.1291    2.6315 P   0  0  1  0  0  0  0  0  0  0  0  0
    1.8995   13.8598    3.4906 O   0  0  0  0  0  0  0  0  0  0  0  0
    1.5559   12.8958    1.3054 O   0  0  0  0  0  0  0  0  0  0  0  0
   -0.3124   13.9130    2.4726 O   0  0  0  0  0  0  0  0  0  0  0  0
   -0.6359   14.6555    1.2313 P   0  0  1  0  0  0  0  0  0  0  0  0
    0.3094   14.4415    0.1167 O   0  0  0  0  0  0  0  0  0  0  0  0
   -2.0648   14.6427    0.8463 O   0  0  0  0  0  0  0  0  0  0  0  0
   -0.3386   16.1911    1.6463 O   0  0  0  0  0  0  0  0  0  0  0  0
    0.8981   16.6013    2.1987 C   0  0  0  0  0  0  0  0  0  0  0  0
    1.5938   17.6774    1.3535 C   0  0  1  0  0  0  0  0  0  0  0  0
    2.2434   18.6134    2.1892 O   0  0  0  0  0  0  0  0  0  0  0  0
    2.7722   17.1453    0.5193 C   0  0  1  0  0  0  0  0  0  0  0  0
    2.4163   16.4389   -0.6574 O   0  0  0  0  0  0  0  0  0  0  0  0
    3.5942   18.4008    0.2289 C   0  0  1  0  0  0  0  0  0  0  0  0
    3.2142   19.0192   -0.9877 O   0  0  0  0  0  0  0  0  0  0  0  0
    3.1836   19.3068    1.3882 C   0  0  2  0  0  0  0  0  0  0  0  0
    4.2970   19.8369    2.2038 N   0  0  0  0  0  0  0  0  0  0  0  0
    4.2965   20.7500    3.2278 C   0  0  0  0  0  0  0  0  0  0  0  0
    5.4895   21.0631    3.6632 N   0  0  0  0  0  0  0  0  0  0  0  0
    6.3474   20.2850    2.8917 C   0  0  0  0  0  0  0  0  0  0  0  0
    7.7771   20.2121    2.8681 C   0  0  0  0  0  0  0  0  0  0  0  0
    8.5748   20.8773    3.5257 O   0  0  0  0  0  0  0  0  0  0  0  0
    8.2570   19.2632    1.9553 N   0  0  0  0  0  0  0  0  0  0  0  0
    7.4373   18.4542    1.1828 C   0  0  0  0  0  0  0  0  0  0  0  0
    8.0144   17.5130    0.4272 N   0  0  0  0  0  0  0  0  0  0  0  0
    6.0985   18.5600    1.1731 N   0  0  0  0  0  0  0  0  0  0  0  0
    5.6160   19.4926    2.0390 C   0  0  0  0  0  0  0  0  0  0  0  0
  1  2  2  0  0  0  0
  1  4  1  0  0  0  0
  1  3  1  0  0  0  0
  5  1  1  0  0  0  0
  6  7  2  1  0  0  0
  6  9  1  0  0  0  0
  6  5  1  0  0  0  0
  6  8  1  0  0  0  0
 10 11  2  6  0  0  0
 10 12  1  0  0  0  0
 10 13  1  0  0  0  0
 10  9  1  0  0  0  0
 13 14  1  0  0  0  0
 15 14  1  1  0  0  0
 15 16  1  0  0  0  0
 17 19  1  0  0  0  0
 17 15  1  0  0  0  0
 17 18  1  6  0  0  0
 19 21  1  0  0  0  0
 19 20  1  6  0  0  0
 21 16  1  0  0  0  0
 21 22  1  1  0  0  0
 22 32  1  0  0  0  0
 23 22  1  0  0  0  0
 23 24  2  0  0  0  0
 24 25  1  0  0  0  0
 25 26  1  0  0  0  0
 26 27  2  0  0  0  0
 26 28  1  0  0  0  0
 29 28  1  0  0  0  0
 29 30  1  0  0  0  0
 31 29  2  0  0  0  0
 32 25  2  0  0  0  0
 32 31  1  0  0  0  0
M  END
>  <CHROM.1>
140.13821313,-136.98086904,65.79837849,53.44709121,6.12594057,120.99351926
142.97215681,-64.73003069,-63.31848530,-61.96414238,2.50719126,16.19780154
2.18297899,-2.51043791,-0.54119177,-0.78691091

>  <Name>
lig.pdb

>  <RI>
3.03081e+07

>  <Rbt.Current_Directory>
/home/itssahil/PROJECTS/Mol_Feturizer/New_Systems/rnas/5lwj

>  <Rbt.Executable>
rbdock ($Id: //depot/dev/client3/rdock/2013.1/src/exe/rbdock.cxx#4 $)

>  <Rbt.Library>
libRbt.so (2013.1, Build901 2013/11/27)

>  <Rbt.Parameter_File>
/export/apps/rDock/src/rDock_2013.1_src/data/scripts/dock_solv.prm

>  <Rbt.Receptor>
prm/pocket_docking_2.prm

>  <SCORE>
-12.8643

>  <SCORE.INTER>
-16.5471

>  <SCORE.INTER.CONST>
1

>  <SCORE.INTER.POLAR>
-1.15852

>  <SCORE.INTER.ROT>
8

>  <SCORE.INTER.SOLV>
15.3052

>  <SCORE.INTER.VDW>
-21.2047

>  <SCORE.INTER.norm>
-0.517097

>  <SCORE.INTRA>
1.65115

>  <SCORE.INTRA.DIHEDRAL>
8.2659

>  <SCORE.INTRA.DIHEDRAL.0>
10.9248

>  <SCORE.INTRA.POLAR>
-1

>  <SCORE.INTRA.POLAR.0>
0

>  <SCORE.INTRA.REPUL>
0

>  <SCORE.INTRA.REPUL.0>
0

>  <SCORE.INTRA.SOLV>
2.19373

>  <SCORE.INTRA.SOLV.lig_0>
-51.4104

>  <SCORE.INTRA.VDW>
-0.178662

>  <SCORE.INTRA.VDW.0>
0.110327

>  <SCORE.INTRA.norm>
0.0515986

>  <SCORE.RESTR>
2.03161

>  <SCORE.RESTR.CAVITY>
2.03161

>  <SCORE.RESTR.norm>
0.0634878

>  <SCORE.SYSTEM>
0

>  <SCORE.SYSTEM.CONST>
0

>  <SCORE.SYSTEM.DIHEDRAL>
0

>  <SCORE.SYSTEM.SOLV>
0

>  <SCORE.SYSTEM.norm>
0

>  <SCORE.heavy>
32

>  <SCORE.norm>
-0.40201

>  <RMSD>
8.874

$$$$
lig.pdb
 OpenBabel11021811523D
libRbt.so/2013.1/901 2013/11/27
 32 34  0  0  0  0  0  0  0  0999 V2000
   -3.7906   15.0693    2.3160 P   0  0  0  0  0  0  0  0  0  0  0  0
   -3.9267   16.3119    1.4701 O   0  0  0  0  0  0  0  0  0  0  0  0
   -4.8856   15.3009    3.4906 O   0  0  0  0  0  0  0  0  0  0  0  0
   -4.1986   13.7452    1.7198 O   0  0  0  0  0  0  0  0  0  0  0  0
   -2.3803   14.9505    2.6318 O   0  0  0  0  0  0  0  0  0  0  0  0
   -2.2227   14.3015    3.9544 P   0  0  1  0  0  0  0  0  0  0  0  0
   -2.6821   15.2531    4.9933 O   0  0  0  0  0  0  0  0  0  0  0  0
   -3.0527   13.0761    4.0208 O   0  0  0  0  0  0  0  0  0  0  0  0
   -0.7953   13.9538    4.1669 O   0  0  0  0  0  0  0  0  0  0  0  0
   -0.0314   13.1065    3.2207 P   0  0  1  0  0  0  0  0  0  0  0  0
    0.8016   12.0646    3.8550 O   0  0  0  0  0  0  0  0  0  0  0  0
   -0.7858   12.6594    2.0286 O   0  0  0  0  0  0  0  0  0  0  0  0
    1.0790   14.1308    2.6407 O   0  0  0  0  0  0  0  0  0  0  0  0
    1.7712   13.8925    1.4296 C   0  0  0  0  0  0  0  0  0  0  0  0
    2.8177   14.9735    1.1255 C   0  0  1  0  0  0  0  0  0  0  0  0
    2.1934   16.2324    0.9775 O   0  0  0  0  0  0  0  0  0  0  0  0
    3.7829   15.2480    2.2921 C   0  0  1  0  0  0  0  0  0  0  0  0
    4.8123   14.2894    2.4700 O   0  0  0  0  0  0  0  0  0  0  0  0
    4.3227   16.6441    1.9822 C   0  0  1  0  0  0  0  0  0  0  0  0
    5.5116   16.5991    1.2131 O   0  0  0  0  0  0  0  0  0  0  0  0
    3.2014   17.2177    1.1179 C   0  0  2  0  0  0  0  0  0  0  0  0
    2.6361   18.5023    1.5831 N   0  0  0  0  0  0  0  0  0  0  0  0
    1.4032   19.0644    1.3675 C   0  0  0  0  0  0  0  0  0  0  0  0
    1.2757   20.2718    1.8539 N   0  0  0  0  0  0  0  0  0  0  0  0
    2.5028   20.5251    2.4595 C   0  0  0  0  0  0  0  0  0  0  0  0
    2.9924   21.6928    3.1279 C   0  0  0  0  0  0  0  0  0  0  0  0
    2.4189   22.7698    3.2772 O   0  0  0  0  0  0  0  0  0  0  0  0
    4.2891   21.5254    3.6326 N   0  0  0  0  0  0  0  0  0  0  0  0
    5.0093   20.3448    3.5295 C   0  0  0  0  0  0  0  0  0  0  0  0
    6.1951   20.2758    4.1450 N   0  0  0  0  0  0  0  0  0  0  0  0
    4.5650   19.2688    2.8598 N   0  0  0  0  0  0  0  0  0  0  0  0
    3.3146   19.4217    2.3443 C   0  0  0  0  0  0  0  0  0  0  0  0
  1  2  2  0  0  0  0
  1  4  1  0  0  0  0
  1  3  1  0  0  0  0
  5  1  1  0  0  0  0
  6  7  2  1  0  0  0
  6  9  1  0  0  0  0
  6  5  1  0  0  0  0
  6  8  1  0  0  0  0
 10 11  2  1  0  0  0
 10 12  1  0  0  0  0
 10 13  1  0  0  0  0
 10  9  1  0  0  0  0
 13 14  1  0  0  0  0
 15 14  1  1  0  0  0
 15 16  1  0  0  0  0
 17 19  1  0  0  0  0
 17 15  1  0  0  0  0
 17 18  1  6  0  0  0
 19 21  1  0  0  0  0
 19 20  1  6  0  0  0
 21 16  1  0  0  0  0
 21 22  1  1  0  0  0
 22 32  1  0  0  0  0
 23 22  1  0  0  0  0
 23 24  2  0  0  0  0
 24 25  1  0  0  0  0
 25 26  1  0  0  0  0
 26 27  2  0  0  0  0
 26 28  1  0  0  0  0
 29 28  1  0  0  0  0
 29 30  1  0  0  0  0
 31 29  2  0  0  0  0
 32 25  2  0  0  0  0
 32 31  1  0  0  0  0
M  END
>  <CHROM.1>
149.19936631,-56.07827493,-70.06638475,-160.53973060,-135.22482863,-177.34524062
-61.74804448,-174.44960241,-75.05748189,-31.08504086,0.78362341,16.28022932
2.68284085,2.45079476,-0.09119459,-3.10037342

>  <Name>
lig.pdb

>  <RI>
2.92062e+07

>  <Rbt.Current_Directory>
/home/itssahil/PROJECTS/Mol_Feturizer/New_Systems/rnas/5lwj

>  <Rbt.Executable>
rbdock ($Id: //depot/dev/client3/rdock/2013.1/src/exe/rbdock.cxx#4 $)

>  <Rbt.Library>
libRbt.so (2013.1, Build901 2013/11/27)

>  <Rbt.Parameter_File>
/export/apps/rDock/src/rDock_2013.1_src/data/scripts/dock_solv.prm

>  <Rbt.Receptor>
prm/pocket_docking_7.prm

>  <SCORE>
-34.0082

>  <SCORE.INTER>
-29.6177

>  <SCORE.INTER.CONST>
1

>  <SCORE.INTER.POLAR>
-3.29313

>  <SCORE.INTER.ROT>
8

>  <SCORE.INTER.SOLV>
18.1655

>  <SCORE.INTER.VDW>
-23.7565

>  <SCORE.INTER.norm>
-0.925553

>  <SCORE.INTRA>
-4.39055

>  <SCORE.INTRA.DIHEDRAL>
-2.79243

>  <SCORE.INTRA.DIHEDRAL.0>
10.9248

>  <SCORE.INTRA.POLAR>
0

>  <SCORE.INTRA.POLAR.0>
0

>  <SCORE.INTRA.REPUL>
0

>  <SCORE.INTRA.REPUL.0>
0

>  <SCORE.INTRA.SOLV>
-0.866643

>  <SCORE.INTRA.SOLV.lig_0>
-51.4104

>  <SCORE.INTRA.VDW>
-2.56101

>  <SCORE.INTRA.VDW.0>
0.110327

>  <SCORE.INTRA.norm>
-0.137205

>  <SCORE.RESTR>
0

>  <SCORE.RESTR.CAVITY>
0

>  <SCORE.RESTR.norm>
0

>  <SCORE.SYSTEM>
0

>  <SCORE.SYSTEM.CONST>
0

>  <SCORE.SYSTEM.DIHEDRAL>
0

>  <SCORE.SYSTEM.SOLV>
0

>  <SCORE.SYSTEM.norm>
0

>  <SCORE.heavy>
32

>  <SCORE.norm>
-1.06276

>  <RMSD>
8.882

$$$$
lig.pdb
 OpenBabel11021811523D
libRbt.so/2013.1/901 2013/11/27
 32 34  0  0  0  0  0  0  0  0999 V2000
   -3.2495   14.4301    0.2896 P   0  0  0  0  0  0  0  0  0  0  0  0
   -3.2384   14.8434   -1.1619 O   0  0  0  0  0  0  0  0  0  0  0  0
   -3.5411   15.8237    1.0677 O   0  0  0  0  0  0  0  0  0  0  0  0
   -4.3572   13.5270    0.7718 O   0  0  0  0  0  0  0  0  0  0  0  0
   -2.0140   13.7038    0.5103 O   0  0  0  0  0  0  0  0  0  0  0  0
   -1.7302   13.6406    1.9632 P   0  0  1  0  0  0  0  0  0  0  0  0
   -1.6244   15.0277    2.4737 O   0  0  0  0  0  0  0  0  0  0  0  0
   -2.8359   12.9499    2.6669 O   0  0  0  0  0  0  0  0  0  0  0  0
   -0.4579   12.9092    2.1865 O   0  0  0  0  0  0  0  0  0  0  0  0
    0.1793   12.8062    3.5207 P   0  0  1  0  0  0  0  0  0  0  0  0
   -0.6261   13.3448    4.6356 O   0  0  0  0  0  0  0  0  0  0  0  0
    0.8440   11.5140    3.8011 O   0  0  0  0  0  0  0  0  0  0  0  0
    1.3902   13.8752    3.4215 O   0  0  0  0  0  0  0  0  0  0  0  0
    1.5282   14.7651    2.3298 C   0  0  0  0  0  0  0  0  0  0  0  0
    2.7843   15.6409    2.4378 C   0  0  1  0  0  0  0  0  0  0  0  0
    3.9444   14.8625    2.2264 O   0  0  0  0  0  0  0  0  0  0  0  0
    2.9103   16.6857    1.3152 C   0  0  1  0  0  0  0  0  0  0  0  0
    2.0883   17.8324    1.4546 O   0  0  0  0  0  0  0  0  0  0  0  0
    4.4009   17.0238    1.3137 C   0  0  1  0  0  0  0  0  0  0  0  0
    4.7010   18.1218    2.1572 O   0  0  0  0  0  0  0  0  0  0  0  0
    4.9995   15.7583    1.9251 C   0  0  2  0  0  0  0  0  0  0  0  0
    6.0496   15.1001    1.1189 N   0  0  0  0  0  0  0  0  0  0  0  0
    7.4123   15.0780    1.2764 C   0  0  0  0  0  0  0  0  0  0  0  0
    8.0507   14.4710    0.3096 N   0  0  0  0  0  0  0  0  0  0  0  0
    7.0407   14.0347   -0.5425 C   0  0  0  0  0  0  0  0  0  0  0  0
    7.1072   13.3440   -1.7950 C   0  0  0  0  0  0  0  0  0  0  0  0
    8.1135   13.0144   -2.4194 O   0  0  0  0  0  0  0  0  0  0  0  0
    5.8416   13.0554   -2.3231 N   0  0  0  0  0  0  0  0  0  0  0  0
    4.6509   13.3707   -1.6862 C   0  0  0  0  0  0  0  0  0  0  0  0
    3.5095   12.9474   -2.2411 N   0  0  0  0  0  0  0  0  0  0  0  0
    4.5931   14.0610   -0.5356 N   0  0  0  0  0  0  0  0  0  0  0  0
    5.8142   14.3686   -0.0190 C   0  0  0  0  0  0  0  0  0  0  0  0
  1  2  2  0  0  0  0
  1  4  1  0  0  0  0
  1  3  1  0  0  0  0
  5  1  1  0  0  0  0
  6  7  2  1  0  0  0
  6  9  1  0  0  0  0
  6  5  1  0  0  0  0
  6  8  1  0  0  0  0
 10 11  2  1  0  0  0
 10 12  1  0  0  0  0
 10 13  1  0  0  0  0
 10  9  1  0  0  0  0
 13 14  1  0  0  0  0
 15 14  1  6  0  0  0
 15 16  1  0  0  0  0
 17 19  1  0  0  0  0
 17 15  1  0  0  0  0
 17 18  1  1  0  0  0
 19 21  1  0  0  0  0
 19 20  1  1  0  0  0
 21 16  1  0  0  0  0
 21 22  1  6  0  0  0
 22 32  1  0  0  0  0
 23 22  1  0  0  0  0
 23 24  2  0  0  0  0
 24 25  1  0  0  0  0
 25 26  1  0  0  0  0
 26 27  2  0  0  0  0
 26 28  1  0  0  0  0
 29 28  1  0  0  0  0
 29 30  1  0  0  0  0
 31 29  2  0  0  0  0
 32 25  2  0  0  0  0
 32 31  1  0  0  0  0
M  END
>  <CHROM.1>
161.88594708,173.02548898,-59.13617210,8.61800091,7.00113366,-177.72109991
70.82877695,64.14490483,156.65246445,-131.49127617,1.75770792,14.35253238
1.14870591,2.96588092,0.14512813,1.17961678

>  <Name>
lig.pdb

>  <RI>
0

>  <Rbt.Current_Directory>
/home/itssahil/PROJECTS/Mol_Feturizer/New_Systems/rnas/5lwj

>  <Rbt.Executable>
rbdock ($Id: //depot/dev/client3/rdock/2013.1/src/exe/rbdock.cxx#4 $)

>  <Rbt.Library>
libRbt.so (2013.1, Build901 2013/11/27)

>  <Rbt.Parameter_File>
/export/apps/rDock/src/rDock_2013.1_src/data/scripts/dock_solv.prm

>  <Rbt.Receptor>
prm/pocket_docking_6.prm

>  <SCORE>
-31.5034

>  <SCORE.INTER>
-29.3067

>  <SCORE.INTER.CONST>
1

>  <SCORE.INTER.POLAR>
-2.2599

>  <SCORE.INTER.ROT>
8

>  <SCORE.INTER.SOLV>
16.316

>  <SCORE.INTER.VDW>
-26.3768

>  <SCORE.INTER.norm>
-0.915833

>  <SCORE.INTRA>
-2.19676

>  <SCORE.INTRA.DIHEDRAL>
-0.738655

>  <SCORE.INTRA.DIHEDRAL.0>
10.9248

>  <SCORE.INTRA.POLAR>
-0.0209385

>  <SCORE.INTRA.POLAR.0>
0

>  <SCORE.INTRA.REPUL>
0

>  <SCORE.INTRA.REPUL.0>
0

>  <SCORE.INTRA.SOLV>
-0.114394

>  <SCORE.INTRA.SOLV.lig_0>
-51.4104

>  <SCORE.INTRA.VDW>
-1.69904

>  <SCORE.INTRA.VDW.0>
0.110327

>  <SCORE.INTRA.norm>
-0.0686486

>  <SCORE.RESTR>
0

>  <SCORE.RESTR.CAVITY>
0

>  <SCORE.RESTR.norm>
0

>  <SCORE.SYSTEM>
0

>  <SCORE.SYSTEM.CONST>
0

>  <SCORE.SYSTEM.DIHEDRAL>
0

>  <SCORE.SYSTEM.SOLV>
0

>  <SCORE.SYSTEM.norm>
0

>  <SCORE.heavy>
32

>  <SCORE.norm>
-0.984482

>  <RMSD>
8.886

$$$$
lig.pdb
 OpenBabel11021811523D
libRbt.so/2013.1/901 2013/11/27
 32 34  0  0  0  0  0  0  0  0999 V2000
    0.0780   11.1801    5.8125 P   0  0  0  0  0  0  0  0  0  0  0  0
   -1.1888   11.6038    6.5152 O   0  0  0  0  0  0  0  0  0  0  0  0
    1.1929   12.1893    6.4215 O   0  0  0  0  0  0  0  0  0  0  0  0
    0.6458    9.8157    6.1141 O   0  0  0  0  0  0  0  0  0  0  0  0
   -0.2281   11.1838    4.3951 O   0  0  0  0  0  0  0  0  0  0  0  0
    0.0821   12.5161    3.8256 P   0  0  1  0  0  0  0  0  0  0  0  0
   -0.7733   13.5184    4.5036 O   0  0  0  0  0  0  0  0  0  0  0  0
    1.5045   12.8526    4.0667 O   0  0  0  0  0  0  0  0  0  0  0  0
   -0.1917   12.5054    2.3666 O   0  0  0  0  0  0  0  0  0  0  0  0
   -0.3607   13.7488    1.5778 P   0  0  1  0  0  0  0  0  0  0  0  0
    0.2269   13.7082    0.2232 O   0  0  0  0  0  0  0  0  0  0  0  0
   -1.7047   14.3633    1.6546 O   0  0  0  0  0  0  0  0  0  0  0  0
    0.6100   14.7924    2.3442 O   0  0  0  0  0  0  0  0  0  0  0  0
    1.5115   15.6367    1.6534 C   0  0  0  0  0  0  0  0  0  0  0  0
    2.9503   15.1022    1.6692 C   0  0  1  0  0  0  0  0  0  0  0  0
    3.0707   13.9924    0.8030 O   0  0  0  0  0  0  0  0  0  0  0  0
    3.9794   16.0731    1.0641 C   0  0  1  0  0  0  0  0  0  0  0  0
    4.3623   17.1534    1.8987 O   0  0  0  0  0  0  0  0  0  0  0  0
    5.1521   15.1627    0.7007 C   0  0  1  0  0  0  0  0  0  0  0  0
    6.0966   15.0619    1.7518 O   0  0  0  0  0  0  0  0  0  0  0  0
    4.4513   13.8148    0.5407 C   0  0  2  0  0  0  0  0  0  0  0  0
    4.6693   13.1367   -0.7549 N   0  0  0  0  0  0  0  0  0  0  0  0
    5.0423   11.8463   -1.0345 C   0  0  0  0  0  0  0  0  0  0  0  0
    5.2380   11.6119   -2.3064 N   0  0  0  0  0  0  0  0  0  0  0  0
    4.9514   12.8259   -2.9233 C   0  0  0  0  0  0  0  0  0  0  0  0
    5.0215   13.2153   -4.2993 C   0  0  0  0  0  0  0  0  0  0  0  0
    5.4017   12.5397   -5.2534 O   0  0  0  0  0  0  0  0  0  0  0  0
    4.6102   14.5382   -4.5105 N   0  0  0  0  0  0  0  0  0  0  0  0
    4.1492   15.3717   -3.5027 C   0  0  0  0  0  0  0  0  0  0  0  0
    3.6849   16.5780   -3.8474 N   0  0  0  0  0  0  0  0  0  0  0  0
    4.1309   15.0180   -2.2071 N   0  0  0  0  0  0  0  0  0  0  0  0
    4.5479   13.7423   -1.9812 C   0  0  0  0  0  0  0  0  0  0  0  0
  1  2  2  0  0  0  0
  1  4  1  0  0  0  0
  1  3  1  0  0  0  0
  5  1  1  0  0  0  0
  6  7  2  1  0  0  0
  6  9  1  0  0  0  0
  6  5  1  0  0  0  0
  6  8  1  0  0  0  0
 10 11  2  6  0  0  0
 10 12  1  0  0  0  0
 10 13  1  0  0  0  0
 10  9  1  0  0  0  0
 13 14  1  0  0  0  0
 15 14  1  6  0  0  0
 15 16  1  0  0  0  0
 17 19  1  0  0  0  0
 17 15  1  0  0  0  0
 17 18  1  1  0  0  0
 19 21  1  0  0  0  0
 19 20  1  1  0  0  0
 21 16  1  0  0  0  0
 21 22  1  6  0  0  0
 22 32  1  0  0  0  0
 23 22  1  0  0  0  0
 23 24  2  0  0  0  0
 24 25  1  0  0  0  0
 25 26  1  0  0  0  0
 26 27  2  0  0  0  0
 26 28  1  0  0  0  0
 29 28  1  0  0  0  0
 29 30  1  0  0  0  0
 31 29  2  0  0  0  0
 32 25  2  0  0  0  0
 32 31  1  0  0  0  0
M  END
>  <CHROM.1>
90.61421745,161.99866999,-61.48318056,133.75020574,141.93138969,-100.09909736
73.31760072,-69.87921933,59.09001130,-105.09133338,2.23136281,13.51861666
1.27375715,-2.63590176,0.93223908,-0.33310144

>  <Name>
lig.pdb

>  <RI>
2.0892e+07

>  <Rbt.Current_Directory>
/home/itssahil/PROJECTS/Mol_Feturizer/New_Systems/rnas/5lwj

>  <Rbt.Executable>
rbdock ($Id: //depot/dev/client3/rdock/2013.1/src/exe/rbdock.cxx#4 $)

>  <Rbt.Library>
libRbt.so (2013.1, Build901 2013/11/27)

>  <Rbt.Parameter_File>
/export/apps/rDock/src/rDock_2013.1_src/data/scripts/dock_solv.prm

>  <Rbt.Receptor>
prm/pocket_docking_8.prm

>  <SCORE>
-26.87

>  <SCORE.INTER>
-26.5647

>  <SCORE.INTER.CONST>
1

>  <SCORE.INTER.POLAR>
-1.41309

>  <SCORE.INTER.ROT>
8

>  <SCORE.INTER.SOLV>
22.0711

>  <SCORE.INTER.VDW>
-29.2898

>  <SCORE.INTER.norm>
-0.830146

>  <SCORE.INTRA>
-0.32192

>  <SCORE.INTRA.DIHEDRAL>
3.44017

>  <SCORE.INTRA.DIHEDRAL.0>
10.9248

>  <SCORE.INTRA.POLAR>
0

>  <SCORE.INTRA.POLAR.0>
0

>  <SCORE.INTRA.REPUL>
0

>  <SCORE.INTRA.REPUL.0>
0

>  <SCORE.INTRA.SOLV>
0.530742

>  <SCORE.INTRA.SOLV.lig_0>
-51.4104

>  <SCORE.INTRA.VDW>
-2.30738

>  <SCORE.INTRA.VDW.0>
0.110327

>  <SCORE.INTRA.norm>
-0.01006

>  <SCORE.RESTR>
0.0166255

>  <SCORE.RESTR.CAVITY>
0.0166255

>  <SCORE.RESTR.norm>
0.000519548

>  <SCORE.SYSTEM>
0

>  <SCORE.SYSTEM.CONST>
0

>  <SCORE.SYSTEM.DIHEDRAL>
0

>  <SCORE.SYSTEM.SOLV>
0

>  <SCORE.SYSTEM.norm>
0

>  <SCORE.heavy>
32

>  <SCORE.norm>
-0.839686

>  <RMSD>
8.892

$$$$
lig.pdb
 OpenBabel11021811523D
libRbt.so/2013.1/901 2013/11/27
 32 34  0  0  0  0  0  0  0  0999 V2000
   -1.6954   12.3033    4.9246 P   0  0  0  0  0  0  0  0  0  0  0  0
   -2.2476   12.5479    6.3078 O   0  0  0  0  0  0  0  0  0  0  0  0
   -0.2282   12.9931    4.9859 O   0  0  0  0  0  0  0  0  0  0  0  0
   -1.3929   10.8845    4.5116 O   0  0  0  0  0  0  0  0  0  0  0  0
   -2.7020   12.7855    3.9989 O   0  0  0  0  0  0  0  0  0  0  0  0
   -2.6779   14.2668    3.9698 P   0  0  1  0  0  0  0  0  0  0  0  0
   -3.7859   14.7295    3.1013 O   0  0  0  0  0  0  0  0  0  0  0  0
   -2.8775   14.8048    5.3355 O   0  0  0  0  0  0  0  0  0  0  0  0
   -1.3732   14.7289    3.4332 O   0  0  0  0  0  0  0  0  0  0  0  0
   -1.0027   14.5866    2.0051 P   0  0  1  0  0  0  0  0  0  0  0  0
   -0.0236   13.5175    1.7222 O   0  0  0  0  0  0  0  0  0  0  0  0
   -2.1327   14.6631    1.0526 O   0  0  0  0  0  0  0  0  0  0  0  0
   -0.1408   15.9272    1.7247 O   0  0  0  0  0  0  0  0  0  0  0  0
    0.2547   16.8050    2.7620 C   0  0  0  0  0  0  0  0  0  0  0  0
    1.7700   17.0493    2.7824 C   0  0  1  0  0  0  0  0  0  0  0  0
    2.4503   15.9602    2.1929 O   0  0  0  0  0  0  0  0  0  0  0  0
    2.2228   18.2133    1.8836 C   0  0  1  0  0  0  0  0  0  0  0  0
    1.9978   19.5113    2.4075 O   0  0  0  0  0  0  0  0  0  0  0  0
    3.7042   17.9203    1.6467 C   0  0  1  0  0  0  0  0  0  0  0  0
    4.5336   18.5459    2.6098 O   0  0  0  0  0  0  0  0  0  0  0  0
    3.7531   16.4092    1.8653 C   0  0  2  0  0  0  0  0  0  0  0  0
    4.3272   15.6256    0.7507 N   0  0  0  0  0  0  0  0  0  0  0  0
    3.7569   14.6750   -0.0577 C   0  0  0  0  0  0  0  0  0  0  0  0
    4.5947   14.1092   -0.8877 N   0  0  0  0  0  0  0  0  0  0  0  0
    5.8062   14.7446   -0.6329 C   0  0  0  0  0  0  0  0  0  0  0  0
    7.1077   14.5355   -1.1919 C   0  0  0  0  0  0  0  0  0  0  0  0
    7.4438   13.6906   -2.0192 O   0  0  0  0  0  0  0  0  0  0  0  0
    8.0664   15.4204   -0.6804 N   0  0  0  0  0  0  0  0  0  0  0  0
    7.7812   16.4168    0.2410 C   0  0  0  0  0  0  0  0  0  0  0  0
    8.7602   17.2663    0.5719 N   0  0  0  0  0  0  0  0  0  0  0  0
    6.5698   16.5777    0.7982 N   0  0  0  0  0  0  0  0  0  0  0  0
    5.6308   15.7118    0.3282 C   0  0  0  0  0  0  0  0  0  0  0  0
  1  2  2  0  0  0  0
  1  4  1  0  0  0  0
  1  3  1  0  0  0  0
  5  1  1  0  0  0  0
  6  7  2  6  0  0  0
  6  9  1  0  0  0  0
  6  5  1  0  0  0  0
  6  8  1  0  0  0  0
 10 11  2  6  0  0  0
 10 12  1  0  0  0  0
 10 13  1  0  0  0  0
 10  9  1  0  0  0  0
 13 14  1  0  0  0  0
 15 14  1  6  0  0  0
 15 16  1  0  0  0  0
 17 19  1  0  0  0  0
 17 15  1  0  0  0  0
 17 18  1  1  0  0  0
 19 21  1  0  0  0  0
 19 20  1  1  0  0  0
 21 16  1  0  0  0  0
 21 22  1  6  0  0  0
 22 32  1  0  0  0  0
 23 22  1  0  0  0  0
 23 24  2  0  0  0  0
 24 25  1  0  0  0  0
 25 26  1  0  0  0  0
 26 27  2  0  0  0  0
 26 28  1  0  0  0  0
 29 28  1  0  0  0  0
 29 30  1  0  0  0  0
 31 29  2  0  0  0  0
 32 25  2  0  0  0  0
 32 31  1  0  0  0  0
M  END
>  <CHROM.1>
75.25274137,71.52317890,-175.51845439,8.76620094,-105.20374847,125.20510167
-25.30616356,-58.97803149,171.46517197,7.45518741,1.59924600,15.07306270
2.19974883,-2.94581973,0.46707548,0.12892084

>  <Name>
lig.pdb

>  <RI>
0

>  <Rbt.Current_Directory>
/home/itssahil/PROJECTS/Mol_Feturizer/New_Systems/rnas/5lwj

>  <Rbt.Executable>
rbdock ($Id: //depot/dev/client3/rdock/2013.1/src/exe/rbdock.cxx#4 $)

>  <Rbt.Library>
libRbt.so (2013.1, Build901 2013/11/27)

>  <Rbt.Parameter_File>
/export/apps/rDock/src/rDock_2013.1_src/data/scripts/dock_solv.prm

>  <Rbt.Receptor>
prm/pocket_docking_4.prm

>  <SCORE>
-19.4216

>  <SCORE.INTER>
-21.3931

>  <SCORE.INTER.CONST>
1

>  <SCORE.INTER.POLAR>
-2.92176

>  <SCORE.INTER.ROT>
8

>  <SCORE.INTER.SOLV>
14.4171

>  <SCORE.INTER.VDW>
-18.2619

>  <SCORE.INTER.norm>
-0.668534

>  <SCORE.INTRA>
1.11452

>  <SCORE.INTRA.DIHEDRAL>
7.01801

>  <SCORE.INTRA.DIHEDRAL.0>
10.9248

>  <SCORE.INTRA.POLAR>
0

>  <SCORE.INTRA.POLAR.0>
0

>  <SCORE.INTRA.REPUL>
0.00244676

>  <SCORE.INTRA.REPUL.0>
0

>  <SCORE.INTRA.SOLV>
1.34835

>  <SCORE.INTRA.SOLV.lig_0>
-51.4104

>  <SCORE.INTRA.VDW>
-3.0809

>  <SCORE.INTRA.VDW.0>
0.110327

>  <SCORE.INTRA.norm>
0.0348286

>  <SCORE.RESTR>
0.856949

>  <SCORE.RESTR.CAVITY>
0.856949

>  <SCORE.RESTR.norm>
0.0267796

>  <SCORE.SYSTEM>
0

>  <SCORE.SYSTEM.CONST>
0

>  <SCORE.SYSTEM.DIHEDRAL>
0

>  <SCORE.SYSTEM.SOLV>
0

>  <SCORE.SYSTEM.norm>
0

>  <SCORE.heavy>
32

>  <SCORE.norm>
-0.606926

>  <RMSD>
8.923

$$$$
lig.pdb
 OpenBabel11021811523D
libRbt.so/2013.1/901 2013/11/27
 32 34  0  0  0  0  0  0  0  0999 V2000
    1.9243   11.6582    5.8445 P   0  0  0  0  0  0  0  0  0  0  0  0
    2.2265   10.1960    5.6241 O   0  0  0  0  0  0  0  0  0  0  0  0
    1.5207   11.7189    7.4149 O   0  0  0  0  0  0  0  0  0  0  0  0
    3.0558   12.6501    5.7403 O   0  0  0  0  0  0  0  0  0  0  0  0
    0.9681   12.0300    4.8197 O   0  0  0  0  0  0  0  0  0  0  0  0
   -0.3703   11.5051    5.1784 P   0  0  1  0  0  0  0  0  0  0  0  0
   -0.2454   10.0484    5.4202 O   0  0  0  0  0  0  0  0  0  0  0  0
   -0.8579   12.1599    6.4146 O   0  0  0  0  0  0  0  0  0  0  0  0
   -1.3172   11.7648    4.0650 O   0  0  0  0  0  0  0  0  0  0  0  0
   -1.6044   13.1301    3.5644 P   0  0  1  0  0  0  0  0  0  0  0  0
   -2.2762   13.1798    2.2499 O   0  0  0  0  0  0  0  0  0  0  0  0
   -2.1428   14.0687    4.5740 O   0  0  0  0  0  0  0  0  0  0  0  0
   -0.1300   13.7016    3.2206 O   0  0  0  0  0  0  0  0  0  0  0  0
    0.5823   13.3131    2.0611 C   0  0  0  0  0  0  0  0  0  0  0  0
    0.6801   14.4401    1.0235 C   0  0  1  0  0  0  0  0  0  0  0  0
    1.0405   15.6539    1.6504 O   0  0  0  0  0  0  0  0  0  0  0  0
    1.8334   14.2615    0.0206 C   0  0  1  0  0  0  0  0  0  0  0  0
    1.6024   13.3185   -1.0125 O   0  0  0  0  0  0  0  0  0  0  0  0
    2.0609   15.6765   -0.5108 C   0  0  1  0  0  0  0  0  0  0  0  0
    1.2966   15.9400   -1.6742 O   0  0  0  0  0  0  0  0  0  0  0  0
    1.5140   16.5231    0.6370 C   0  0  2  0  0  0  0  0  0  0  0  0
    2.4493   17.5284    1.1851 N   0  0  0  0  0  0  0  0  0  0  0  0
    2.4618   18.1662    2.3998 C   0  0  0  0  0  0  0  0  0  0  0  0
    3.3914   19.0794    2.5126 N   0  0  0  0  0  0  0  0  0  0  0  0
    4.0640   19.0312    1.2953 C   0  0  0  0  0  0  0  0  0  0  0  0
    5.1525   19.8164    0.7965 C   0  0  0  0  0  0  0  0  0  0  0  0
    5.7150   20.7591    1.3498 O   0  0  0  0  0  0  0  0  0  0  0  0
    5.5643   19.4216   -0.4835 N   0  0  0  0  0  0  0  0  0  0  0  0
    5.0044   18.3613   -1.1800 C   0  0  0  0  0  0  0  0  0  0  0  0
    5.5558   18.0153   -2.3487 N   0  0  0  0  0  0  0  0  0  0  0  0
    3.9523   17.6590   -0.7286 N   0  0  0  0  0  0  0  0  0  0  0  0
    3.5253   18.0435    0.5053 C   0  0  0  0  0  0  0  0  0  0  0  0
  1  2  2  0  0  0  0
  1  4  1  0  0  0  0
  1  3  1  0  0  0  0
  5  1  1  0  0  0  0
  6  7  2  1  0  0  0
  6  9  1  0  0  0  0
  6  5  1  0  0  0  0
  6  8  1  0  0  0  0
 10 11  2  6  0  0  0
 10 12  1  0  0  0  0
 10 13  1  0  0  0  0
 10  9  1  0  0  0  0
 13 14  1  0  0  0  0
 15 14  1  1  0  0  0
 15 16  1  0  0  0  0
 17 19  1  0  0  0  0
 17 15  1  0  0  0  0
 17 18  1  6  0  0  0
 19 21  1  0  0  0  0
 19 20  1  6  0  0  0
 21 16  1  0  0  0  0
 21 22  1  1  0  0  0
 22 32  1  0  0  0  0
 23 22  1  0  0  0  0
 23 24  2  0  0  0  0
 24 25  1  0  0  0  0
 25 26  1  0  0  0  0
 26 27  2  0  0  0  0
 26 28  1  0  0  0  0
 29 28  1  0  0  0  0
 29 30  1  0  0  0  0
 31 29  2  0  0  0  0
 32 25  2  0  0  0  0
 32 31  1  0  0  0  0
M  END
>  <CHROM.1>
75.97867203,-58.78716190,-53.97134496,76.52924007,164.61564507,109.10087739
45.72868450,-178.80454217,179.14586614,-34.79715001,1.56632125,14.65854068
2.56914973,-2.15858516,-0.65696384,-1.05716298

>  <Name>
lig.pdb

>  <RI>
3.03081e+07

>  <Rbt.Current_Directory>
/home/itssahil/PROJECTS/Mol_Feturizer/New_Systems/rnas/5lwj

>  <Rbt.Executable>
rbdock ($Id: //depot/dev/client3/rdock/2013.1/src/exe/rbdock.cxx#4 $)

>  <Rbt.Library>
libRbt.so (2013.1, Build901 2013/11/27)

>  <Rbt.Parameter_File>
/export/apps/rDock/src/rDock_2013.1_src/data/scripts/dock_solv.prm

>  <Rbt.Receptor>
prm/pocket_docking_2.prm

>  <SCORE>
-24.6399

>  <SCORE.INTER>
-25.3743

>  <SCORE.INTER.CONST>
1

>  <SCORE.INTER.POLAR>
-2.26376

>  <SCORE.INTER.ROT>
8

>  <SCORE.INTER.SOLV>
19.5173

>  <SCORE.INTER.VDW>
-24.8094

>  <SCORE.INTER.norm>
-0.792947

>  <SCORE.INTRA>
-1.26473

>  <SCORE.INTRA.DIHEDRAL>
0.42047

>  <SCORE.INTRA.DIHEDRAL.0>
10.9248

>  <SCORE.INTRA.POLAR>
0

>  <SCORE.INTRA.POLAR.0>
0

>  <SCORE.INTRA.REPUL>
0

>  <SCORE.INTRA.REPUL.0>
0

>  <SCORE.INTRA.SOLV>
0.796446

>  <SCORE.INTRA.SOLV.lig_0>
-51.4104

>  <SCORE.INTRA.VDW>
-1.87319

>  <SCORE.INTRA.VDW.0>
0.110327

>  <SCORE.INTRA.norm>
-0.0395229

>  <SCORE.RESTR>
1.99917

>  <SCORE.RESTR.CAVITY>
1.99917

>  <SCORE.RESTR.norm>
0.062474

>  <SCORE.SYSTEM>
0

>  <SCORE.SYSTEM.CONST>
0

>  <SCORE.SYSTEM.DIHEDRAL>
0

>  <SCORE.SYSTEM.SOLV>
0

>  <SCORE.SYSTEM.norm>
0

>  <SCORE.heavy>
32

>  <SCORE.norm>
-0.769996

>  <RMSD>
8.931

$$$$
lig.pdb
 OpenBabel11021811523D
libRbt.so/2013.1/901 2013/11/27
 32 34  0  0  0  0  0  0  0  0999 V2000
   -2.6088   13.6755    3.6638 P   0  0  0  0  0  0  0  0  0  0  0  0
   -4.1165   13.7275    3.6173 O   0  0  0  0  0  0  0  0  0  0  0  0
   -2.2813   13.8725    5.2407 O   0  0  0  0  0  0  0  0  0  0  0  0
   -1.9235   12.3743    3.3287 O   0  0  0  0  0  0  0  0  0  0  0  0
   -2.1430   14.6389    2.6852 O   0  0  0  0  0  0  0  0  0  0  0  0
   -1.9858   15.9632    3.3310 P   0  0  1  0  0  0  0  0  0  0  0  0
   -3.2786   16.3280    3.9567 O   0  0  0  0  0  0  0  0  0  0  0  0
   -0.9430   15.8955    4.3810 O   0  0  0  0  0  0  0  0  0  0  0  0
   -1.6047   16.9692    2.3081 O   0  0  0  0  0  0  0  0  0  0  0  0
   -0.4748   16.7649    1.3707 P   0  0  1  0  0  0  0  0  0  0  0  0
    0.1578   15.4321    1.4435 O   0  0  0  0  0  0  0  0  0  0  0  0
   -0.6970   17.2739   -0.0010 O   0  0  0  0  0  0  0  0  0  0  0  0
    0.6743   17.7264    1.9820 O   0  0  0  0  0  0  0  0  0  0  0  0
    0.7263   19.1140    1.7086 C   0  0  0  0  0  0  0  0  0  0  0  0
    1.9799   19.7831    2.2892 C   0  0  1  0  0  0  0  0  0  0  0  0
    3.1183   18.9801    2.0531 O   0  0  0  0  0  0  0  0  0  0  0  0
    2.3742   21.0875    1.5744 C   0  0  1  0  0  0  0  0  0  0  0  0
    1.5996   22.2259    1.9121 O   0  0  0  0  0  0  0  0  0  0  0  0
    3.8518   21.2515    1.9296 C   0  0  1  0  0  0  0  0  0  0  0  0
    4.0370   22.0218    3.1041 O   0  0  0  0  0  0  0  0  0  0  0  0
    4.2555   19.8076    2.2218 C   0  0  2  0  0  0  0  0  0  0  0  0
    5.4079   19.3019    1.4456 N   0  0  0  0  0  0  0  0  0  0  0  0
    6.3694   19.9754    0.7356 C   0  0  0  0  0  0  0  0  0  0  0  0
    7.1925   19.1968    0.0820 N   0  0  0  0  0  0  0  0  0  0  0  0
    6.7657   17.9104    0.3978 C   0  0  0  0  0  0  0  0  0  0  0  0
    7.2399   16.6333   -0.0426 C   0  0  0  0  0  0  0  0  0  0  0  0
    8.1346   16.4021   -0.8533 O   0  0  0  0  0  0  0  0  0  0  0  0
    6.5490   15.5656    0.5461 N   0  0  0  0  0  0  0  0  0  0  0  0
    5.5387   15.7246    1.4826 C   0  0  0  0  0  0  0  0  0  0  0  0
    5.0291   14.6258    2.0506 N   0  0  0  0  0  0  0  0  0  0  0  0
    5.0648   16.9245    1.8560 N   0  0  0  0  0  0  0  0  0  0  0  0
    5.7108   17.9734    1.2771 C   0  0  0  0  0  0  0  0  0  0  0  0
  1  2  2  0  0  0  0
  1  4  1  0  0  0  0
  1  3  1  0  0  0  0
  5  1  1  0  0  0  0
  6  7  2  1  0  0  0
  6  9  1  0  0  0  0
  6  5  1  0  0  0  0
  6  8  1  0  0  0  0
 10 11  2  6  0  0  0
 10 12  1  0  0  0  0
 10 13  1  0  0  0  0
 10  9  1  0  0  0  0
 13 14  1  0  0  0  0
 15 14  1  6  0  0  0
 15 16  1  0  0  0  0
 17 19  1  0  0  0  0
 17 15  1  0  0  0  0
 17 18  1  1  0  0  0
 19 21  1  0  0  0  0
 19 20  1  1  0  0  0
 21 16  1  0  0  0  0
 21 22  1  6  0  0  0
 22 32  1  0  0  0  0
 23 22  1  0  0  0  0
 23 24  2  0  0  0  0
 24 25  1  0  0  0  0
 25 26  1  0  0  0  0
 26 27  2  0  0  0  0
 26 28  1  0  0  0  0
 29 28  1  0  0  0  0
 29 30  1  0  0  0  0
 31 29  2  0  0  0  0
 32 25  2  0  0  0  0
 32 31  1  0  0  0  0
M  END
>  <CHROM.1>
89.75163926,-51.30972407,-55.63431243,-82.80607175,5.70599014,-174.45831768
43.43365682,-60.54647810,-54.51368746,141.17498746,1.62562747,17.10744520
2.10001826,-2.71263530,0.28976060,0.00823231

>  <Name>
lig.pdb

>  <RI>
1.82117e+07

>  <Rbt.Current_Directory>
/home/itssahil/PROJECTS/Mol_Feturizer/New_Systems/rnas/5lwj

>  <Rbt.Executable>
rbdock ($Id: //depot/dev/client3/rdock/2013.1/src/exe/rbdock.cxx#4 $)

>  <Rbt.Library>
libRbt.so (2013.1, Build901 2013/11/27)

>  <Rbt.Parameter_File>
/export/apps/rDock/src/rDock_2013.1_src/data/scripts/dock_solv.prm

>  <Rbt.Receptor>
prm/pocket_docking_5.prm

>  <SCORE>
-20.7115

>  <SCORE.INTER>
-17.7482

>  <SCORE.INTER.CONST>
1

>  <SCORE.INTER.POLAR>
-2.65538

>  <SCORE.INTER.ROT>
8

>  <SCORE.INTER.SOLV>
9.92725

>  <SCORE.INTER.VDW>
-15.2233

>  <SCORE.INTER.norm>
-0.55463

>  <SCORE.INTRA>
-2.96336

>  <SCORE.INTRA.DIHEDRAL>
-2.7768

>  <SCORE.INTRA.DIHEDRAL.0>
10.9248

>  <SCORE.INTRA.POLAR>
-0.0243634

>  <SCORE.INTRA.POLAR.0>
0

>  <SCORE.INTRA.REPUL>
0.172996

>  <SCORE.INTRA.REPUL.0>
0

>  <SCORE.INTRA.SOLV>
-0.144391

>  <SCORE.INTRA.SOLV.lig_0>
-51.4104

>  <SCORE.INTRA.VDW>
-2.28491

>  <SCORE.INTRA.VDW.0>
0.110327

>  <SCORE.INTRA.norm>
-0.0926051

>  <SCORE.RESTR>
0

>  <SCORE.RESTR.CAVITY>
0

>  <SCORE.RESTR.norm>
0

>  <SCORE.SYSTEM>
0

>  <SCORE.SYSTEM.CONST>
0

>  <SCORE.SYSTEM.DIHEDRAL>
0

>  <SCORE.SYSTEM.SOLV>
0

>  <SCORE.SYSTEM.norm>
0

>  <SCORE.heavy>
32

>  <SCORE.norm>
-0.647235

>  <RMSD>
8.935

$$$$
lig.pdb
 OpenBabel11021811523D
libRbt.so/2013.1/901 2013/11/27
 32 34  0  0  0  0  0  0  0  0999 V2000
    1.1405   11.2765    6.0971 P   0  0  0  0  0  0  0  0  0  0  0  0
    2.2635   11.8515    6.9255 O   0  0  0  0  0  0  0  0  0  0  0  0
    1.8074   11.1257    4.6257 O   0  0  0  0  0  0  0  0  0  0  0  0
    0.6627    9.8792    6.4045 O   0  0  0  0  0  0  0  0  0  0  0  0
   -0.0002   12.1467    6.3070 O   0  0  0  0  0  0  0  0  0  0  0  0
   -0.7928   12.2331    5.0580 P   0  0  1  0  0  0  0  0  0  0  0  0
   -1.3240   10.8835    4.7542 O   0  0  0  0  0  0  0  0  0  0  0  0
   -1.9267   13.1689    5.2400 O   0  0  0  0  0  0  0  0  0  0  0  0
    0.0776   12.7068    3.9527 O   0  0  0  0  0  0  0  0  0  0  0  0
   -0.3379   13.7741    3.0119 P   0  0  1  0  0  0  0  0  0  0  0  0
   -1.4149   13.3912    2.0764 O   0  0  0  0  0  0  0  0  0  0  0  0
   -0.4849   15.1186    3.6128 O   0  0  0  0  0  0  0  0  0  0  0  0
    0.9423   13.9031    2.0306 O   0  0  0  0  0  0  0  0  0  0  0  0
    2.2195   14.2944    2.4981 C   0  0  0  0  0  0  0  0  0  0  0  0
    2.7146   15.5924    1.8451 C   0  0  1  0  0  0  0  0  0  0  0  0
    3.1213   15.3477    0.5143 O   0  0  0  0  0  0  0  0  0  0  0  0
    1.6095   16.6428    1.6372 C   0  0  1  0  0  0  0  0  0  0  0  0
    1.2263   17.3623    2.7972 O   0  0  0  0  0  0  0  0  0  0  0  0
    2.1819   17.5452    0.5443 C   0  0  1  0  0  0  0  0  0  0  0  0
    2.9058   18.6393    1.0790 O   0  0  0  0  0  0  0  0  0  0  0  0
    3.1625   16.5997   -0.1470 C   0  0  2  0  0  0  0  0  0  0  0  0
    2.9723   16.4439   -1.6049 N   0  0  0  0  0  0  0  0  0  0  0  0
    3.8847   16.2170   -2.6041 C   0  0  0  0  0  0  0  0  0  0  0  0
    3.3719   16.2315   -3.8073 N   0  0  0  0  0  0  0  0  0  0  0  0
    2.0156   16.4600   -3.5955 C   0  0  0  0  0  0  0  0  0  0  0  0
    0.9382   16.6219   -4.5245 C   0  0  0  0  0  0  0  0  0  0  0  0
    0.9990   16.6305   -5.7523 O   0  0  0  0  0  0  0  0  0  0  0  0
   -0.2997   16.8040   -3.8933 N   0  0  0  0  0  0  0  0  0  0  0  0
   -0.4718   16.7924   -2.5173 C   0  0  0  0  0  0  0  0  0  0  0  0
   -1.7187   16.8703   -2.0388 N   0  0  0  0  0  0  0  0  0  0  0  0
    0.5482   16.6886   -1.6498 N   0  0  0  0  0  0  0  0  0  0  0  0
    1.7615   16.5324   -2.2463 C   0  0  0  0  0  0  0  0  0  0  0  0
  1  2  2  0  0  0  0
  1  4  1  0  0  0  0
  1  3  1  0  0  0  0
  5  1  1  0  0  0  0
  6  7  2  6  0  0  0
  6  9  1  0  0  0  0
  6  5  1  0  0  0  0
  6  8  1  0  0  0  0
 10 11  2  6  0  0  0
 10 12  1  0  0  0  0
 10 13  1  0  0  0  0
 10  9  1  0  0  0  0
 13 14  1  0  0  0  0
 15 14  1  6  0  0  0
 15 16  1  0  0  0  0
 17 19  1  0  0  0  0
 17 15  1  0  0  0  0
 17 18  1  1  0  0  0
 19 21  1  0  0  0  0
 19 20  1  1  0  0  0
 21 16  1  0  0  0  0
 21 22  1  6  0  0  0
 22 32  1  0  0  0  0
 23 22  1  0  0  0  0
 23 24  2  0  0  0  0
 24 25  1  0  0  0  0
 25 26  1  0  0  0  0
 26 27  2  0  0  0  0
 26 28  1  0  0  0  0
 29 28  1  0  0  0  0
 29 30  1  0  0  0  0
 31 29  2  0  0  0  0
 32 25  2  0  0  0  0
 32 31  1  0  0  0  0
M  END
>  <CHROM.1>
145.44254754,-133.57825329,63.60427563,-62.38853938,-69.77713380,-118.72419000
-74.41209701,-72.77430770,-58.46476592,-88.12683491,0.89829040,14.54883602
1.66336133,-1.71815786,-0.36906434,-1.08087367

>  <Name>
lig.pdb

>  <RI>
0

>  <Rbt.Current_Directory>
/home/itssahil/PROJECTS/Mol_Feturizer/New_Systems/rnas/5lwj

>  <Rbt.Executable>
rbdock ($Id: //depot/dev/client3/rdock/2013.1/src/exe/rbdock.cxx#4 $)

>  <Rbt.Library>
libRbt.so (2013.1, Build901 2013/11/27)

>  <Rbt.Parameter_File>
/export/apps/rDock/src/rDock_2013.1_src/data/scripts/dock_solv.prm

>  <Rbt.Receptor>
prm/pocket_docking_6.prm

>  <SCORE>
-28.6099

>  <SCORE.INTER>
-24.2479

>  <SCORE.INTER.CONST>
1

>  <SCORE.INTER.POLAR>
-1.76998

>  <SCORE.INTER.ROT>
8

>  <SCORE.INTER.SOLV>
17.7852

>  <SCORE.INTER.VDW>
-25.1271

>  <SCORE.INTER.norm>
-0.757747

>  <SCORE.INTRA>
-4.36199

>  <SCORE.INTRA.DIHEDRAL>
3.89413

>  <SCORE.INTRA.DIHEDRAL.0>
10.9248

>  <SCORE.INTRA.POLAR>
-1.00015

>  <SCORE.INTRA.POLAR.0>
0

>  <SCORE.INTRA.REPUL>
0

>  <SCORE.INTRA.REPUL.0>
0

>  <SCORE.INTRA.SOLV>
0.586552

>  <SCORE.INTRA.SOLV.lig_0>
-51.4104

>  <SCORE.INTRA.VDW>
-3.20184

>  <SCORE.INTRA.VDW.0>
0.110327

>  <SCORE.INTRA.norm>
-0.136312

>  <SCORE.RESTR>
0

>  <SCORE.RESTR.CAVITY>
0

>  <SCORE.RESTR.norm>
0

>  <SCORE.SYSTEM>
0

>  <SCORE.SYSTEM.CONST>
0

>  <SCORE.SYSTEM.DIHEDRAL>
0

>  <SCORE.SYSTEM.SOLV>
0

>  <SCORE.SYSTEM.norm>
0

>  <SCORE.heavy>
32

>  <SCORE.norm>
-0.894059

>  <RMSD>
8.940

$$$$
lig.pdb
 OpenBabel11021811523D
libRbt.so/2013.1/901 2013/11/27
 32 34  0  0  0  0  0  0  0  0999 V2000
   -2.5065   13.0409    5.1231 P   0  0  0  0  0  0  0  0  0  0  0  0
   -3.2788   12.3752    6.2359 O   0  0  0  0  0  0  0  0  0  0  0  0
   -3.5201   12.9420    3.8601 O   0  0  0  0  0  0  0  0  0  0  0  0
   -2.2268   14.5195    5.2264 O   0  0  0  0  0  0  0  0  0  0  0  0
   -1.2120   12.3886    5.0861 O   0  0  0  0  0  0  0  0  0  0  0  0
   -0.5700   12.6378    3.7741 P   0  0  1  0  0  0  0  0  0  0  0  0
    0.6445   11.7932    3.6866 O   0  0  0  0  0  0  0  0  0  0  0  0
   -1.4953   12.2682    2.6777 O   0  0  0  0  0  0  0  0  0  0  0  0
   -0.2099   14.0738    3.6654 O   0  0  0  0  0  0  0  0  0  0  0  0
   -0.1372   14.7815    2.3651 P   0  0  1  0  0  0  0  0  0  0  0  0
   -1.4339   15.2658    1.8495 O   0  0  0  0  0  0  0  0  0  0  0  0
    0.9818   15.7412    2.2343 O   0  0  0  0  0  0  0  0  0  0  0  0
    0.2230   13.5907    1.3302 O   0  0  0  0  0  0  0  0  0  0  0  0
    0.0721   13.7316   -0.0698 C   0  0  0  0  0  0  0  0  0  0  0  0
    1.3012   14.3669   -0.7347 C   0  0  1  0  0  0  0  0  0  0  0  0
    2.4530   13.5888   -0.4812 O   0  0  0  0  0  0  0  0  0  0  0  0
    1.2537   14.3480   -2.2726 C   0  0  1  0  0  0  0  0  0  0  0  0
    0.4158   15.3241   -2.8687 O   0  0  0  0  0  0  0  0  0  0  0  0
    2.7206   14.5045   -2.6727 C   0  0  1  0  0  0  0  0  0  0  0  0
    3.0831   15.8618   -2.8554 O   0  0  0  0  0  0  0  0  0  0  0  0
    3.4322   13.9701   -1.4311 C   0  0  2  0  0  0  0  0  0  0  0  0
    4.3984   12.8779   -1.6748 N   0  0  0  0  0  0  0  0  0  0  0  0
    4.1927   11.5631   -2.0083 C   0  0  0  0  0  0  0  0  0  0  0  0
    5.2863   10.8468   -2.0509 N   0  0  0  0  0  0  0  0  0  0  0  0
    6.2979   11.7534   -1.7484 C   0  0  0  0  0  0  0  0  0  0  0  0
    7.7094   11.5646   -1.6006 C   0  0  0  0  0  0  0  0  0  0  0  0
    8.3392   10.5116   -1.6764 O   0  0  0  0  0  0  0  0  0  0  0  0
    8.3900   12.7575   -1.3217 N   0  0  0  0  0  0  0  0  0  0  0  0
    7.7709   13.9952   -1.2340 C   0  0  0  0  0  0  0  0  0  0  0  0
    8.5436   15.0747   -1.0687 N   0  0  0  0  0  0  0  0  0  0  0  0
    6.4411   14.1600   -1.3254 N   0  0  0  0  0  0  0  0  0  0  0  0
    5.7617   13.0073   -1.5751 C   0  0  0  0  0  0  0  0  0  0  0  0
  1  2  2  0  0  0  0
  1  4  1  0  0  0  0
  1  3  1  0  0  0  0
  5  1  1  0  0  0  0
  6  7  2  6  0  0  0
  6  9  1  0  0  0  0
  6  5  1  0  0  0  0
  6  8  1  0  0  0  0
 10 11  2  6  0  0  0
 10 12  1  0  0  0  0
 10 13  1  0  0  0  0
 10  9  1  0  0  0  0
 13 14  1  0  0  0  0
 15 14  1  1  0  0  0
 15 16  1  0  0  0  0
 17 19  1  0  0  0  0
 17 15  1  0  0  0  0
 17 18  1  6  0  0  0
 19 21  1  0  0  0  0
 19 20  1  1  0  0  0
 21 16  1  0  0  0  0
 21 22  1  6  0  0  0
 22 32  1  0  0  0  0
 23 22  1  0  0  0  0
 23 24  2  0  0  0  0
 24 25  1  0  0  0  0
 25 26  1  0  0  0  0
 26 27  2  0  0  0  0
 26 28  1  0  0  0  0
 29 28  1  0  0  0  0
 29 30  1  0  0  0  0
 31 29  2  0  0  0  0
 32 25  2  0  0  0  0
 32 31  1  0  0  0  0
M  END
>  <CHROM.1>
160.96181380,-151.61682264,-171.36149557,164.07825404,82.78485387,85.93427456
58.48443508,-171.05961463,61.10216242,52.09785628,1.80691240,13.45517495
0.94256751,-2.62990814,0.39619552,-1.01529130

>  <Name>
lig.pdb

>  <RI>
2.0892e+07

>  <Rbt.Current_Directory>
/home/itssahil/PROJECTS/Mol_Feturizer/New_Systems/rnas/5lwj

>  <Rbt.Executable>
rbdock ($Id: //depot/dev/client3/rdock/2013.1/src/exe/rbdock.cxx#4 $)

>  <Rbt.Library>
libRbt.so (2013.1, Build901 2013/11/27)

>  <Rbt.Parameter_File>
/export/apps/rDock/src/rDock_2013.1_src/data/scripts/dock_solv.prm

>  <Rbt.Receptor>
prm/pocket_docking_8.prm

>  <SCORE>
-33.1884

>  <SCORE.INTER>
-30.7666

>  <SCORE.INTER.CONST>
1

>  <SCORE.INTER.POLAR>
-3.83883

>  <SCORE.INTER.ROT>
8

>  <SCORE.INTER.SOLV>
15.9184

>  <SCORE.INTER.VDW>
-21.9544

>  <SCORE.INTER.norm>
-0.961455

>  <SCORE.INTRA>
-2.44662

>  <SCORE.INTRA.DIHEDRAL>
-1.64893

>  <SCORE.INTRA.DIHEDRAL.0>
10.9248

>  <SCORE.INTRA.POLAR>
0

>  <SCORE.INTRA.POLAR.0>
0

>  <SCORE.INTRA.REPUL>
0

>  <SCORE.INTRA.REPUL.0>
0

>  <SCORE.INTRA.SOLV>
0.0878088

>  <SCORE.INTRA.SOLV.lig_0>
-51.4104

>  <SCORE.INTRA.VDW>
-1.66606

>  <SCORE.INTRA.VDW.0>
0.110327

>  <SCORE.INTRA.norm>
-0.0764569

>  <SCORE.RESTR>
0.0248021

>  <SCORE.RESTR.CAVITY>
0.0248021

>  <SCORE.RESTR.norm>
0.000775067

>  <SCORE.SYSTEM>
0

>  <SCORE.SYSTEM.CONST>
0

>  <SCORE.SYSTEM.DIHEDRAL>
0

>  <SCORE.SYSTEM.SOLV>
0

>  <SCORE.SYSTEM.norm>
0

>  <SCORE.heavy>
32

>  <SCORE.norm>
-1.03714

>  <RMSD>
8.950

$$$$
lig.pdb
 OpenBabel11021811523D
libRbt.so/2013.1/901 2013/11/27
 32 34  0  0  0  0  0  0  0  0999 V2000
   -3.0238   14.2208    3.5932 P   0  0  0  0  0  0  0  0  0  0  0  0
   -2.7403   14.5871    5.0297 O   0  0  0  0  0  0  0  0  0  0  0  0
   -2.3610   12.7467    3.4507 O   0  0  0  0  0  0  0  0  0  0  0  0
   -4.4563   13.9970    3.1774 O   0  0  0  0  0  0  0  0  0  0  0  0
   -2.5415   15.3297    2.7930 O   0  0  0  0  0  0  0  0  0  0  0  0
   -1.0597   15.3290    2.7890 P   0  0  1  0  0  0  0  0  0  0  0  0
   -0.5995   16.5242    2.0436 O   0  0  0  0  0  0  0  0  0  0  0  0
   -0.5482   15.3990    4.1776 O   0  0  0  0  0  0  0  0  0  0  0  0
   -0.5684   14.0907    2.1341 O   0  0  0  0  0  0  0  0  0  0  0  0
    0.7307   14.0260    1.4233 P   0  0  1  0  0  0  0  0  0  0  0  0
    1.1139   12.6791    0.9535 O   0  0  0  0  0  0  0  0  0  0  0  0
    0.9689   15.1153    0.4503 O   0  0  0  0  0  0  0  0  0  0  0  0
    1.7996   14.2957    2.6080 O   0  0  0  0  0  0  0  0  0  0  0  0
    2.5482   15.4934    2.6954 C   0  0  0  0  0  0  0  0  0  0  0  0
    3.3842   15.7598    1.4358 C   0  0  1  0  0  0  0  0  0  0  0  0
    4.0680   16.9908    1.5525 O   0  0  0  0  0  0  0  0  0  0  0  0
    4.5545   14.7783    1.2490 C   0  0  1  0  0  0  0  0  0  0  0  0
    4.2024   13.4969    0.7548 O   0  0  0  0  0  0  0  0  0  0  0  0
    5.5013   15.5321    0.3154 C   0  0  1  0  0  0  0  0  0  0  0  0
    5.2471   15.2461   -1.0487 O   0  0  0  0  0  0  0  0  0  0  0  0
    5.1102   16.9823    0.5931 C   0  0  2  0  0  0  0  0  0  0  0  0
    6.2197   17.8721    0.9972 N   0  0  0  0  0  0  0  0  0  0  0  0
    7.5403   17.8761    0.6254 C   0  0  0  0  0  0  0  0  0  0  0  0
    8.2703   18.7555    1.2614 N   0  0  0  0  0  0  0  0  0  0  0  0
    7.3681   19.4023    2.1006 C   0  0  0  0  0  0  0  0  0  0  0  0
    7.5695   20.4337    3.0731 C   0  0  0  0  0  0  0  0  0  0  0  0
    8.6315   20.9549    3.4073 O   0  0  0  0  0  0  0  0  0  0  0  0
    6.3779   20.8381    3.6897 N   0  0  0  0  0  0  0  0  0  0  0  0
    5.1310   20.3228    3.3688 C   0  0  0  0  0  0  0  0  0  0  0  0
    4.0568   20.8664    3.9521 N   0  0  0  0  0  0  0  0  0  0  0  0
    4.9530   19.3221    2.4910 N   0  0  0  0  0  0  0  0  0  0  0  0
    6.1038   18.9020    1.8978 C   0  0  0  0  0  0  0  0  0  0  0  0
  1  2  2  0  0  0  0
  1  4  1  0  0  0  0
  1  3  1  0  0  0  0
  5  1  1  0  0  0  0
  6  7  2  6  0  0  0
  6  9  1  0  0  0  0
  6  5  1  0  0  0  0
  6  8  1  0  0  0  0
 10 11  2  6  0  0  0
 10 12  1  0  0  0  0
 10 13  1  0  0  0  0
 10  9  1  0  0  0  0
 13 14  1  0  0  0  0
 15 14  1  1  0  0  0
 15 16  1  0  0  0  0
 17 19  1  0  0  0  0
 17 15  1  0  0  0  0
 17 18  1  6  0  0  0
 19 21  1  0  0  0  0
 19 20  1  6  0  0  0
 21 16  1  0  0  0  0
 21 22  1  1  0  0  0
 22 32  1  0  0  0  0
 23 22  1  0  0  0  0
 23 24  2  0  0  0  0
 24 25  1  0  0  0  0
 25 26  1  0  0  0  0
 26 27  2  0  0  0  0
 26 28  1  0  0  0  0
 29 28  1  0  0  0  0
 29 30  1  0  0  0  0
 31 29  2  0  0  0  0
 32 25  2  0  0  0  0
 32 31  1  0  0  0  0
M  END
>  <CHROM.1>
72.14849284,151.52833373,-176.13244535,-109.79772895,174.09741729,-57.57805589
177.63323756,64.98170544,-177.43640497,157.80064785,2.35685386,16.20897588
2.21183364,2.78196386,-0.37994805,-2.55231479

>  <Name>
lig.pdb

>  <RI>
0

>  <Rbt.Current_Directory>
/home/itssahil/PROJECTS/Mol_Feturizer/New_Systems/rnas/5lwj

>  <Rbt.Executable>
rbdock ($Id: //depot/dev/client3/rdock/2013.1/src/exe/rbdock.cxx#4 $)

>  <Rbt.Library>
libRbt.so (2013.1, Build901 2013/11/27)

>  <Rbt.Parameter_File>
/export/apps/rDock/src/rDock_2013.1_src/data/scripts/dock_solv.prm

>  <Rbt.Receptor>
prm/pocket_docking_3.prm

>  <SCORE>
-23.4348

>  <SCORE.INTER>
-21.9206

>  <SCORE.INTER.CONST>
1

>  <SCORE.INTER.POLAR>
-3.01188

>  <SCORE.INTER.ROT>
8

>  <SCORE.INTER.SOLV>
13.8756

>  <SCORE.INTER.VDW>
-18.1326

>  <SCORE.INTER.norm>
-0.685017

>  <SCORE.INTRA>
-1.53092

>  <SCORE.INTRA.DIHEDRAL>
-4.26406

>  <SCORE.INTRA.DIHEDRAL.0>
10.9248

>  <SCORE.INTRA.POLAR>
-0.0270721

>  <SCORE.INTRA.POLAR.0>
0

>  <SCORE.INTRA.REPUL>
0.392726

>  <SCORE.INTRA.REPUL.0>
0

>  <SCORE.INTRA.SOLV>
1.88654

>  <SCORE.INTRA.SOLV.lig_0>
-51.4104

>  <SCORE.INTRA.VDW>
-2.21375

>  <SCORE.INTRA.VDW.0>
0.110327

>  <SCORE.INTRA.norm>
-0.0478413

>  <SCORE.RESTR>
0.0166796

>  <SCORE.RESTR.CAVITY>
0.0166796

>  <SCORE.RESTR.norm>
0.000521236

>  <SCORE.SYSTEM>
0

>  <SCORE.SYSTEM.CONST>
0

>  <SCORE.SYSTEM.DIHEDRAL>
0

>  <SCORE.SYSTEM.SOLV>
0

>  <SCORE.SYSTEM.norm>
0

>  <SCORE.heavy>
32

>  <SCORE.norm>
-0.732337

>  <RMSD>
8.951

$$$$
lig.pdb
 OpenBabel11021811523D
libRbt.so/2013.1/901 2013/11/27
 32 34  0  0  0  0  0  0  0  0999 V2000
   -1.4615   12.8743    3.2283 P   0  0  0  0  0  0  0  0  0  0  0  0
   -2.7568   12.9001    2.4540 O   0  0  0  0  0  0  0  0  0  0  0  0
   -1.6767   14.0306    4.3460 O   0  0  0  0  0  0  0  0  0  0  0  0
   -1.1406   11.6526    4.0527 O   0  0  0  0  0  0  0  0  0  0  0  0
   -0.4025   12.9845    2.2438 O   0  0  0  0  0  0  0  0  0  0  0  0
    0.7941   13.5933    2.8707 P   0  0  1  0  0  0  0  0  0  0  0  0
    0.4108   14.9222    3.4028 O   0  0  0  0  0  0  0  0  0  0  0  0
    1.2694   12.7445    3.9880 O   0  0  0  0  0  0  0  0  0  0  0  0
    1.8668   13.7334    1.8542 O   0  0  0  0  0  0  0  0  0  0  0  0
    3.0688   14.5725    2.0736 P   0  0  1  0  0  0  0  0  0  0  0  0
    2.8088   16.0254    2.1297 O   0  0  0  0  0  0  0  0  0  0  0  0
    4.0074   14.0684    3.1008 O   0  0  0  0  0  0  0  0  0  0  0  0
    3.8711   14.4188    0.6767 O   0  0  0  0  0  0  0  0  0  0  0  0
    5.2536   14.6986    0.5618 C   0  0  0  0  0  0  0  0  0  0  0  0
    5.6620   15.0769   -0.8688 C   0  0  1  0  0  0  0  0  0  0  0  0
    4.7002   15.9390   -1.4416 O   0  0  0  0  0  0  0  0  0  0  0  0
    6.9306   15.9446   -0.9427 C   0  0  1  0  0  0  0  0  0  0  0  0
    8.1547   15.2510   -0.7674 O   0  0  0  0  0  0  0  0  0  0  0  0
    6.8212   16.6132   -2.3129 C   0  0  1  0  0  0  0  0  0  0  0  0
    7.4639   15.8616   -3.3274 O   0  0  0  0  0  0  0  0  0  0  0  0
    5.3131   16.5699   -2.5518 C   0  0  2  0  0  0  0  0  0  0  0  0
    4.6801   17.8732   -2.8463 N   0  0  0  0  0  0  0  0  0  0  0  0
    4.6119   18.5877   -4.0155 C   0  0  0  0  0  0  0  0  0  0  0  0
    4.0512   19.7627   -3.8901 N   0  0  0  0  0  0  0  0  0  0  0  0
    3.6971   19.8280   -2.5458 C   0  0  0  0  0  0  0  0  0  0  0  0
    3.0863   20.8792   -1.7896 C   0  0  0  0  0  0  0  0  0  0  0  0
    2.7706   22.0012   -2.1806 O   0  0  0  0  0  0  0  0  0  0  0  0
    2.8656   20.5272   -0.4513 N   0  0  0  0  0  0  0  0  0  0  0  0
    3.1710   19.2824    0.0782 C   0  0  0  0  0  0  0  0  0  0  0  0
    2.8145   19.0324    1.3431 N   0  0  0  0  0  0  0  0  0  0  0  0
    3.7878   18.3168   -0.6225 N   0  0  0  0  0  0  0  0  0  0  0  0
    4.0293   18.6500   -1.9198 C   0  0  0  0  0  0  0  0  0  0  0  0
  1  2  2  0  0  0  0
  1  4  1  0  0  0  0
  1  3  1  0  0  0  0
  5  1  1  0  0  0  0
  6  7  2  1  0  0  0
  6  9  1  0  0  0  0
  6  5  1  0  0  0  0
  6  8  1  0  0  0  0
 10 11  2  1  0  0  0
 10 12  1  0  0  0  0
 10 13  1  0  0  0  0
 10  9  1  0  0  0  0
 13 14  1  0  0  0  0
 15 14  1  1  0  0  0
 15 16  1  0  0  0  0
 17 19  1  0  0  0  0
 17 15  1  0  0  0  0
 17 18  1  6  0  0  0
 19 21  1  0  0  0  0
 19 20  1  6  0  0  0
 21 16  1  0  0  0  0
 21 22  1  1  0  0  0
 22 32  1  0  0  0  0
 23 22  1  0  0  0  0
 23 24  2  0  0  0  0
 24 25  1  0  0  0  0
 25 26  1  0  0  0  0
 26 27  2  0  0  0  0
 26 28  1  0  0  0  0
 29 28  1  0  0  0  0
 29 30  1  0  0  0  0
 31 29  2  0  0  0  0
 32 25  2  0  0  0  0
 32 31  1  0  0  0  0
M  END
>  <CHROM.1>
153.50233497,165.95740973,-58.46711541,-160.00253365,-68.03425611,-155.09942297
41.86363605,-64.45971735,176.59070610,-155.11772913,2.84678648,15.85854766
0.54948646,2.25964187,-0.43150777,2.65720716

>  <Name>
lig.pdb

>  <RI>
0

>  <Rbt.Current_Directory>
/home/itssahil/PROJECTS/Mol_Feturizer/New_Systems/rnas/5lwj

>  <Rbt.Executable>
rbdock ($Id: //depot/dev/client3/rdock/2013.1/src/exe/rbdock.cxx#4 $)

>  <Rbt.Library>
libRbt.so (2013.1, Build901 2013/11/27)

>  <Rbt.Parameter_File>
/export/apps/rDock/src/rDock_2013.1_src/data/scripts/dock_solv.prm

>  <Rbt.Receptor>
prm/pocket_docking_6.prm

>  <SCORE>
-24.2776

>  <SCORE.INTER>
-17.1108

>  <SCORE.INTER.CONST>
1

>  <SCORE.INTER.POLAR>
-1.62843

>  <SCORE.INTER.ROT>
8

>  <SCORE.INTER.SOLV>
12.6191

>  <SCORE.INTER.VDW>
-19.1188

>  <SCORE.INTER.norm>
-0.534712

>  <SCORE.INTRA>
-7.16768

>  <SCORE.INTRA.DIHEDRAL>
-2.49517

>  <SCORE.INTRA.DIHEDRAL.0>
10.9248

>  <SCORE.INTRA.POLAR>
-1

>  <SCORE.INTRA.POLAR.0>
0

>  <SCORE.INTRA.REPUL>
0.0975287

>  <SCORE.INTRA.REPUL.0>
0

>  <SCORE.INTRA.SOLV>
-0.233958

>  <SCORE.INTRA.SOLV.lig_0>
-51.4104

>  <SCORE.INTRA.VDW>
-2.89075

>  <SCORE.INTRA.VDW.0>
0.110327

>  <SCORE.INTRA.norm>
-0.22399

>  <SCORE.RESTR>
0.000826416

>  <SCORE.RESTR.CAVITY>
0.000826416

>  <SCORE.RESTR.norm>
2.58255e-05

>  <SCORE.SYSTEM>
0

>  <SCORE.SYSTEM.CONST>
0

>  <SCORE.SYSTEM.DIHEDRAL>
0

>  <SCORE.SYSTEM.SOLV>
0

>  <SCORE.SYSTEM.norm>
0

>  <SCORE.heavy>
32

>  <SCORE.norm>
-0.758676

>  <RMSD>
8.952

$$$$
lig.pdb
 OpenBabel11021811523D
libRbt.so/2013.1/901 2013/11/27
 32 34  0  0  0  0  0  0  0  0999 V2000
   -0.8670   11.6634    5.4024 P   0  0  0  0  0  0  0  0  0  0  0  0
   -1.7480   10.8833    4.4572 O   0  0  0  0  0  0  0  0  0  0  0  0
   -1.9305   12.3426    6.4223 O   0  0  0  0  0  0  0  0  0  0  0  0
    0.0542   10.9008    6.3215 O   0  0  0  0  0  0  0  0  0  0  0  0
   -0.0122   12.4861    4.5685 O   0  0  0  0  0  0  0  0  0  0  0  0
   -0.8376   13.4801    3.8431 P   0  0  1  0  0  0  0  0  0  0  0  0
   -1.7554   12.7469    2.9398 O   0  0  0  0  0  0  0  0  0  0  0  0
   -1.6379   14.2739    4.8044 O   0  0  0  0  0  0  0  0  0  0  0  0
    0.0470   14.3802    3.0615 O   0  0  0  0  0  0  0  0  0  0  0  0
    1.0532   13.8713    2.0995 P   0  0  1  0  0  0  0  0  0  0  0  0
    1.2218   12.4039    2.0969 O   0  0  0  0  0  0  0  0  0  0  0  0
    1.0109   14.4949    0.7580 O   0  0  0  0  0  0  0  0  0  0  0  0
    2.4494   14.3783    2.7417 O   0  0  0  0  0  0  0  0  0  0  0  0
    3.2721   15.3381    2.1056 C   0  0  0  0  0  0  0  0  0  0  0  0
    2.4990   16.5997    1.6970 C   0  0  1  0  0  0  0  0  0  0  0  0
    1.9122   17.2042    2.8313 O   0  0  0  0  0  0  0  0  0  0  0  0
    3.3968   17.7361    1.1770 C   0  0  1  0  0  0  0  0  0  0  0  0
    3.8660   17.5827   -0.1521 O   0  0  0  0  0  0  0  0  0  0  0  0
    2.5292   18.9816    1.3573 C   0  0  1  0  0  0  0  0  0  0  0  0
    1.7608   19.2697    0.2025 O   0  0  0  0  0  0  0  0  0  0  0  0
    1.5871   18.5358    2.4741 C   0  0  2  0  0  0  0  0  0  0  0  0
    1.5492   19.4166    3.6610 N   0  0  0  0  0  0  0  0  0  0  0  0
    0.8572   19.2958    4.8395 C   0  0  0  0  0  0  0  0  0  0  0  0
    0.9846   20.3224    5.6399 N   0  0  0  0  0  0  0  0  0  0  0  0
    1.8429   21.1799    4.9581 C   0  0  0  0  0  0  0  0  0  0  0  0
    2.3280   22.4831    5.2990 C   0  0  0  0  0  0  0  0  0  0  0  0
    2.0441   23.1563    6.2876 O   0  0  0  0  0  0  0  0  0  0  0  0
    3.2128   22.9999    4.3429 N   0  0  0  0  0  0  0  0  0  0  0  0
    3.6068   22.3106    3.2059 C   0  0  0  0  0  0  0  0  0  0  0  0
    4.5388   22.8675    2.4242 N   0  0  0  0  0  0  0  0  0  0  0  0
    3.1120   21.1090    2.8663 N   0  0  0  0  0  0  0  0  0  0  0  0
    2.2341   20.6013    3.7740 C   0  0  0  0  0  0  0  0  0  0  0  0
  1  2  2  0  0  0  0
  1  4  1  0  0  0  0
  1  3  1  0  0  0  0
  5  1  1  0  0  0  0
  6  7  2  6  0  0  0
  6  9  1  0  0  0  0
  6  5  1  0  0  0  0
  6  8  1  0  0  0  0
 10 11  2  6  0  0  0
 10 12  1  0  0  0  0
 10 13  1  0  0  0  0
 10  9  1  0  0  0  0
 13 14  1  0  0  0  0
 15 14  1  1  0  0  0
 15 16  1  0  0  0  0
 17 19  1  0  0  0  0
 17 15  1  0  0  0  0
 17 18  1  6  0  0  0
 19 21  1  0  0  0  0
 19 20  1  6  0  0  0
 21 16  1  0  0  0  0
 21 22  1  1  0  0  0
 22 32  1  0  0  0  0
 23 22  1  0  0  0  0
 23 24  2  0  0  0  0
 24 25  1  0  0  0  0
 25 26  1  0  0  0  0
 26 27  2  0  0  0  0
 26 28  1  0  0  0  0
 29 28  1  0  0  0  0
 29 30  1  0  0  0  0
 31 29  2  0  0  0  0
 32 25  2  0  0  0  0
 32 31  1  0  0  0  0
M  END
>  <CHROM.1>
65.36785701,53.78175811,-63.53368113,-114.02613651,-7.03173990,51.19446655
59.03659129,-58.28817148,62.25630979,-53.61139357,1.17628295,16.47872242
3.40864107,2.28302596,-1.00498857,-2.59904386

>  <Name>
lig.pdb

>  <RI>
2.0892e+07

>  <Rbt.Current_Directory>
/home/itssahil/PROJECTS/Mol_Feturizer/New_Systems/rnas/5lwj

>  <Rbt.Executable>
rbdock ($Id: //depot/dev/client3/rdock/2013.1/src/exe/rbdock.cxx#4 $)

>  <Rbt.Library>
libRbt.so (2013.1, Build901 2013/11/27)

>  <Rbt.Parameter_File>
/export/apps/rDock/src/rDock_2013.1_src/data/scripts/dock_solv.prm

>  <Rbt.Receptor>
prm/pocket_docking_8.prm

>  <SCORE>
-28.7052

>  <SCORE.INTER>
-28.0885

>  <SCORE.INTER.CONST>
1

>  <SCORE.INTER.POLAR>
-2.76912

>  <SCORE.INTER.ROT>
8

>  <SCORE.INTER.SOLV>
17.7772

>  <SCORE.INTER.VDW>
-24.3543

>  <SCORE.INTER.norm>
-0.877764

>  <SCORE.INTRA>
-0.616776

>  <SCORE.INTRA.DIHEDRAL>
-2.851

>  <SCORE.INTRA.DIHEDRAL.0>
10.9248

>  <SCORE.INTRA.POLAR>
0

>  <SCORE.INTRA.POLAR.0>
0

>  <SCORE.INTRA.REPUL>
0.00923073

>  <SCORE.INTRA.REPUL.0>
0

>  <SCORE.INTRA.SOLV>
1.23866

>  <SCORE.INTRA.SOLV.lig_0>
-51.4104

>  <SCORE.INTRA.VDW>
0.143239

>  <SCORE.INTRA.VDW.0>
0.110327

>  <SCORE.INTRA.norm>
-0.0192742

>  <SCORE.RESTR>
0

>  <SCORE.RESTR.CAVITY>
0

>  <SCORE.RESTR.norm>
0

>  <SCORE.SYSTEM>
0

>  <SCORE.SYSTEM.CONST>
0

>  <SCORE.SYSTEM.DIHEDRAL>
0

>  <SCORE.SYSTEM.SOLV>
0

>  <SCORE.SYSTEM.norm>
0

>  <SCORE.heavy>
32

>  <SCORE.norm>
-0.897039

>  <RMSD>
8.958

$$$$
lig.pdb
 OpenBabel11021811523D
libRbt.so/2013.1/901 2013/11/27
 32 34  0  0  0  0  0  0  0  0999 V2000
    0.5272   11.3986    5.7168 P   0  0  0  0  0  0  0  0  0  0  0  0
    0.4113    9.8938    5.7167 O   0  0  0  0  0  0  0  0  0  0  0  0
   -0.8919   11.8779    6.3406 O   0  0  0  0  0  0  0  0  0  0  0  0
    1.5407   12.0418    6.6302 O   0  0  0  0  0  0  0  0  0  0  0  0
    0.9069   11.7727    4.3683 O   0  0  0  0  0  0  0  0  0  0  0  0
   -0.1871   12.5539    3.7451 P   0  0  1  0  0  0  0  0  0  0  0  0
   -1.3934   11.6949    3.6884 O   0  0  0  0  0  0  0  0  0  0  0  0
   -0.4854   13.7521    4.5637 O   0  0  0  0  0  0  0  0  0  0  0  0
    0.2178   12.9671    2.3781 O   0  0  0  0  0  0  0  0  0  0  0  0
    0.1676   14.3770    1.9234 P   0  0  1  0  0  0  0  0  0  0  0  0
   -1.1627   14.8369    1.4754 O   0  0  0  0  0  0  0  0  0  0  0  0
    0.9038   15.3379    2.7747 O   0  0  0  0  0  0  0  0  0  0  0  0
    1.0031   14.3351    0.5381 O   0  0  0  0  0  0  0  0  0  0  0  0
    2.1539   13.5286    0.3709 C   0  0  0  0  0  0  0  0  0  0  0  0
    3.4460   14.3535    0.2911 C   0  0  1  0  0  0  0  0  0  0  0  0
    3.4232   15.1915   -0.8462 O   0  0  0  0  0  0  0  0  0  0  0  0
    3.5955   15.3832    1.4247 C   0  0  1  0  0  0  0  0  0  0  0  0
    3.9990   14.8563    2.6776 O   0  0  0  0  0  0  0  0  0  0  0  0
    4.5959   16.3898    0.8571 C   0  0  1  0  0  0  0  0  0  0  0  0
    5.9330   16.0605    1.1900 O   0  0  0  0  0  0  0  0  0  0  0  0
    4.4028   16.1949   -0.6456 C   0  0  2  0  0  0  0  0  0  0  0  0
    4.0808   17.4202   -1.4077 N   0  0  0  0  0  0  0  0  0  0  0  0
    4.3397   17.7522   -2.7135 C   0  0  0  0  0  0  0  0  0  0  0  0
    3.9951   18.9733   -3.0313 N   0  0  0  0  0  0  0  0  0  0  0  0
    3.4438   19.4858   -1.8608 C   0  0  0  0  0  0  0  0  0  0  0  0
    2.9241   20.7864   -1.5632 C   0  0  0  0  0  0  0  0  0  0  0  0
    2.8916   21.7698   -2.3002 O   0  0  0  0  0  0  0  0  0  0  0  0
    2.4252   20.8855   -0.2574 N   0  0  0  0  0  0  0  0  0  0  0  0
    2.4022   19.8290    0.6407 C   0  0  0  0  0  0  0  0  0  0  0  0
    1.8028   20.0202    1.8213 N   0  0  0  0  0  0  0  0  0  0  0  0
    2.9345   18.6253    0.3733 N   0  0  0  0  0  0  0  0  0  0  0  0
    3.4433   18.5180   -0.8845 C   0  0  0  0  0  0  0  0  0  0  0  0
  1  2  2  0  0  0  0
  1  4  1  0  0  0  0
  1  3  1  0  0  0  0
  5  1  1  0  0  0  0
  6  7  2  6  0  0  0
  6  9  1  0  0  0  0
  6  5  1  0  0  0  0
  6  8  1  0  0  0  0
 10 11  2  6  0  0  0
 10 12  1  0  0  0  0
 10 13  1  0  0  0  0
 10  9  1  0  0  0  0
 13 14  1  0  0  0  0
 15 14  1  1  0  0  0
 15 16  1  0  0  0  0
 17 19  1  0  0  0  0
 17 15  1  0  0  0  0
 17 18  1  1  0  0  0
 19 21  1  0  0  0  0
 19 20  1  1  0  0  0
 21 16  1  0  0  0  0
 21 22  1  1  0  0  0
 22 32  1  0  0  0  0
 23 22  1  0  0  0  0
 23 24  2  0  0  0  0
 24 25  1  0  0  0  0
 25 26  1  0  0  0  0
 26 27  2  0  0  0  0
 26 28  1  0  0  0  0
 29 28  1  0  0  0  0
 29 30  1  0  0  0  0
 31 29  2  0  0  0  0
 32 25  2  0  0  0  0
 32 31  1  0  0  0  0
M  END
>  <CHROM.1>
114.55878224,-126.83486749,-61.23973091,-37.71173338,-82.07006045,-109.43153853
-63.27119515,-58.17684866,-71.00058562,-84.38932964,1.85471667,15.29905036
1.74384924,-1.97209485,0.51658050,-0.48328152

>  <Name>
lig.pdb

>  <RI>
0

>  <Rbt.Current_Directory>
/home/itssahil/PROJECTS/Mol_Feturizer/New_Systems/rnas/5lwj

>  <Rbt.Executable>
rbdock ($Id: //depot/dev/client3/rdock/2013.1/src/exe/rbdock.cxx#4 $)

>  <Rbt.Library>
libRbt.so (2013.1, Build901 2013/11/27)

>  <Rbt.Parameter_File>
/export/apps/rDock/src/rDock_2013.1_src/data/scripts/dock_solv.prm

>  <Rbt.Receptor>
prm/pocket_docking_4.prm

>  <SCORE>
-29.3094

>  <SCORE.INTER>
-28.8098

>  <SCORE.INTER.CONST>
1

>  <SCORE.INTER.POLAR>
-3.17028

>  <SCORE.INTER.ROT>
8

>  <SCORE.INTER.SOLV>
18.3951

>  <SCORE.INTER.VDW>
-23.704

>  <SCORE.INTER.norm>
-0.900307

>  <SCORE.INTRA>
-0.609686

>  <SCORE.INTRA.DIHEDRAL>
4.81922

>  <SCORE.INTRA.DIHEDRAL.0>
10.9248

>  <SCORE.INTRA.POLAR>
0

>  <SCORE.INTRA.POLAR.0>
0

>  <SCORE.INTRA.REPUL>
0

>  <SCORE.INTRA.REPUL.0>
0

>  <SCORE.INTRA.SOLV>
0.00113983

>  <SCORE.INTRA.SOLV.lig_0>
-51.4104

>  <SCORE.INTRA.VDW>
-3.01987

>  <SCORE.INTRA.VDW.0>
0.110327

>  <SCORE.INTRA.norm>
-0.0190527

>  <SCORE.RESTR>
0.110148

>  <SCORE.RESTR.CAVITY>
0.110148

>  <SCORE.RESTR.norm>
0.00344212

>  <SCORE.SYSTEM>
0

>  <SCORE.SYSTEM.CONST>
0

>  <SCORE.SYSTEM.DIHEDRAL>
0

>  <SCORE.SYSTEM.SOLV>
0

>  <SCORE.SYSTEM.norm>
0

>  <SCORE.heavy>
32

>  <SCORE.norm>
-0.915917

>  <RMSD>
8.960

$$$$
lig.pdb
 OpenBabel11021811523D
libRbt.so/2013.1/901 2013/11/27
 32 34  0  0  0  0  0  0  0  0999 V2000
   -2.0195   12.3698    5.0562 P   0  0  0  0  0  0  0  0  0  0  0  0
   -0.6317   12.9237    5.2691 O   0  0  0  0  0  0  0  0  0  0  0  0
   -1.7430   10.9655    4.2919 O   0  0  0  0  0  0  0  0  0  0  0  0
   -2.8208   11.9534    6.2644 O   0  0  0  0  0  0  0  0  0  0  0  0
   -2.7793   13.4249    4.4141 O   0  0  0  0  0  0  0  0  0  0  0  0
   -1.9200   14.1245    3.4304 P   0  0  1  0  0  0  0  0  0  0  0  0
   -2.7988   14.8569    2.4884 O   0  0  0  0  0  0  0  0  0  0  0  0
   -1.0404   15.0943    4.1236 O   0  0  0  0  0  0  0  0  0  0  0  0
   -1.0947   13.1300    2.7001 O   0  0  0  0  0  0  0  0  0  0  0  0
    0.2988   13.4064    2.2773 P   0  0  1  0  0  0  0  0  0  0  0  0
    1.2664   13.5464    3.3845 O   0  0  0  0  0  0  0  0  0  0  0  0
    0.7779   12.6033    1.1303 O   0  0  0  0  0  0  0  0  0  0  0  0
    0.2054   14.9179    1.7069 O   0  0  0  0  0  0  0  0  0  0  0  0
    0.9941   15.9732    2.2237 C   0  0  0  0  0  0  0  0  0  0  0  0
    1.2871   17.0577    1.1775 C   0  0  1  0  0  0  0  0  0  0  0  0
    2.2834   17.9401    1.6517 O   0  0  0  0  0  0  0  0  0  0  0  0
    1.9431   16.5199   -0.1064 C   0  0  1  0  0  0  0  0  0  0  0  0
    1.0672   15.8702   -1.0124 O   0  0  0  0  0  0  0  0  0  0  0  0
    2.6050   17.7586   -0.7096 C   0  0  1  0  0  0  0  0  0  0  0  0
    1.7501   18.4343   -1.6150 O   0  0  0  0  0  0  0  0  0  0  0  0
    2.7973   18.6329    0.5281 C   0  0  2  0  0  0  0  0  0  0  0  0
    4.1807   19.0958    0.7687 N   0  0  0  0  0  0  0  0  0  0  0  0
    4.6841   20.3638    0.9147 C   0  0  0  0  0  0  0  0  0  0  0  0
    5.9871   20.4110    1.0186 N   0  0  0  0  0  0  0  0  0  0  0  0
    6.3806   19.0773    0.9630 C   0  0  0  0  0  0  0  0  0  0  0  0
    7.6840   18.4852    0.9842 C   0  0  0  0  0  0  0  0  0  0  0  0
    8.7703   19.0596    1.0192 O   0  0  0  0  0  0  0  0  0  0  0  0
    7.6446   17.0850    0.9412 N   0  0  0  0  0  0  0  0  0  0  0  0
    6.4702   16.3478    0.9176 C   0  0  0  0  0  0  0  0  0  0  0  0
    6.5629   15.0150    0.9854 N   0  0  0  0  0  0  0  0  0  0  0  0
    5.2517   16.9085    0.8491 N   0  0  0  0  0  0  0  0  0  0  0  0
    5.2725   18.2692    0.8682 C   0  0  0  0  0  0  0  0  0  0  0  0
  1  2  2  0  0  0  0
  1  4  1  0  0  0  0
  1  3  1  0  0  0  0
  5  1  1  0  0  0  0
  6  7  2  6  0  0  0
  6  9  1  0  0  0  0
  6  5  1  0  0  0  0
  6  8  1  0  0  0  0
 10 11  2  1  0  0  0
 10 12  1  0  0  0  0
 10 13  1  0  0  0  0
 10  9  1  0  0  0  0
 13 14  1  0  0  0  0
 15 14  1  1  0  0  0
 15 16  1  0  0  0  0
 17 19  1  0  0  0  0
 17 15  1  0  0  0  0
 17 18  1  6  0  0  0
 19 21  1  0  0  0  0
 19 20  1  6  0  0  0
 21 16  1  0  0  0  0
 21 22  1  1  0  0  0
 22 32  1  0  0  0  0
 23 22  1  0  0  0  0
 23 24  2  0  0  0  0
 24 25  1  0  0  0  0
 25 26  1  0  0  0  0
 26 27  2  0  0  0  0
 26 28  1  0  0  0  0
 29 28  1  0  0  0  0
 29 30  1  0  0  0  0
 31 29  2  0  0  0  0
 32 25  2  0  0  0  0
 32 31  1  0  0  0  0
M  END
>  <CHROM.1>
38.85394687,-144.06969056,161.17009289,122.34807215,67.41284672,151.20908188
-168.32579179,-57.53583929,-45.13000064,-111.93298290,1.68499582,15.59720509
2.06125853,-2.43878393,-0.07785979,-0.66331300

>  <Name>
lig.pdb

>  <RI>
0

>  <Rbt.Current_Directory>
/home/itssahil/PROJECTS/Mol_Feturizer/New_Systems/rnas/5lwj

>  <Rbt.Executable>
rbdock ($Id: //depot/dev/client3/rdock/2013.1/src/exe/rbdock.cxx#4 $)

>  <Rbt.Library>
libRbt.so (2013.1, Build901 2013/11/27)

>  <Rbt.Parameter_File>
/export/apps/rDock/src/rDock_2013.1_src/data/scripts/dock_solv.prm

>  <Rbt.Receptor>
prm/pocket_docking_3.prm

>  <SCORE>
-17.286

>  <SCORE.INTER>
-19.0835

>  <SCORE.INTER.CONST>
1

>  <SCORE.INTER.POLAR>
-2.14033

>  <SCORE.INTER.ROT>
8

>  <SCORE.INTER.SOLV>
13.4058

>  <SCORE.INTER.VDW>
-18.9898

>  <SCORE.INTER.norm>
-0.596359

>  <SCORE.INTRA>
1.79746

>  <SCORE.INTRA.DIHEDRAL>
2.15275

>  <SCORE.INTRA.DIHEDRAL.0>
10.9248

>  <SCORE.INTRA.POLAR>
-0.422652

>  <SCORE.INTRA.POLAR.0>
0

>  <SCORE.INTRA.REPUL>
0

>  <SCORE.INTRA.REPUL.0>
0

>  <SCORE.INTRA.SOLV>
3.11262

>  <SCORE.INTRA.SOLV.lig_0>
-51.4104

>  <SCORE.INTRA.VDW>
0.601794

>  <SCORE.INTRA.VDW.0>
0.110327

>  <SCORE.INTRA.norm>
0.0561707

>  <SCORE.RESTR>
0

>  <SCORE.RESTR.CAVITY>
0

>  <SCORE.RESTR.norm>
0

>  <SCORE.SYSTEM>
0

>  <SCORE.SYSTEM.CONST>
0

>  <SCORE.SYSTEM.DIHEDRAL>
0

>  <SCORE.SYSTEM.SOLV>
0

>  <SCORE.SYSTEM.norm>
0

>  <SCORE.heavy>
32

>  <SCORE.norm>
-0.540188

>  <RMSD>
8.988

$$$$
lig.pdb
 OpenBabel11021811523D
libRbt.so/2013.1/901 2013/11/27
 32 34  0  0  0  0  0  0  0  0999 V2000
   -1.5399   13.3319    3.5372 P   0  0  0  0  0  0  0  0  0  0  0  0
   -2.6695   13.8288    2.6682 O   0  0  0  0  0  0  0  0  0  0  0  0
   -0.9960   14.6865    4.2455 O   0  0  0  0  0  0  0  0  0  0  0  0
   -1.8716   12.4397    4.7073 O   0  0  0  0  0  0  0  0  0  0  0  0
   -0.6778   12.5530    2.6695 O   0  0  0  0  0  0  0  0  0  0  0  0
    0.5613   13.3157    2.3896 P   0  0  1  0  0  0  0  0  0  0  0  0
    1.3393   13.4101    3.6473 O   0  0  0  0  0  0  0  0  0  0  0  0
    1.3731   12.6094    1.3713 O   0  0  0  0  0  0  0  0  0  0  0  0
    0.2067   14.6709    1.8983 O   0  0  0  0  0  0  0  0  0  0  0  0
    1.1732   15.5384    1.1839 P   0  0  1  0  0  0  0  0  0  0  0  0
    2.0092   14.8430    0.1843 O   0  0  0  0  0  0  0  0  0  0  0  0
    0.6377   16.8464    0.7452 O   0  0  0  0  0  0  0  0  0  0  0  0
    2.2467   15.9030    2.3386 O   0  0  0  0  0  0  0  0  0  0  0  0
    3.6201   15.5805    2.2260 C   0  0  0  0  0  0  0  0  0  0  0  0
    4.2876   16.2555    1.0197 C   0  0  1  0  0  0  0  0  0  0  0  0
    3.8419   17.5906    0.8961 O   0  0  0  0  0  0  0  0  0  0  0  0
    5.8047   16.4552    1.1816 C   0  0  1  0  0  0  0  0  0  0  0  0
    6.5968   15.2962    0.9824 O   0  0  0  0  0  0  0  0  0  0  0  0
    6.1228   17.5672    0.1824 C   0  0  1  0  0  0  0  0  0  0  0  0
    6.4826   17.0566   -1.0892 O   0  0  0  0  0  0  0  0  0  0  0  0
    4.7693   18.2655    0.0649 C   0  0  2  0  0  0  0  0  0  0  0  0
    4.7793   19.7182    0.3398 N   0  0  0  0  0  0  0  0  0  0  0  0
    4.2868   20.7681   -0.3935 C   0  0  0  0  0  0  0  0  0  0  0  0
    4.5600   21.9440    0.1097 N   0  0  0  0  0  0  0  0  0  0  0  0
    5.2642   21.6590    1.2757 C   0  0  0  0  0  0  0  0  0  0  0  0
    5.8683   22.5285    2.2396 C   0  0  0  0  0  0  0  0  0  0  0  0
    5.9240   23.7563    2.2140 O   0  0  0  0  0  0  0  0  0  0  0  0
    6.4614   21.8325    3.3016 N   0  0  0  0  0  0  0  0  0  0  0  0
    6.4359   20.4517    3.4274 C   0  0  0  0  0  0  0  0  0  0  0  0
    6.9446   19.9122    4.5409 N   0  0  0  0  0  0  0  0  0  0  0  0
    5.9105   19.6384    2.4967 N   0  0  0  0  0  0  0  0  0  0  0  0
    5.3485   20.2976    1.4468 C   0  0  0  0  0  0  0  0  0  0  0  0
  1  2  2  0  0  0  0
  1  4  1  0  0  0  0
  1  3  1  0  0  0  0
  5  1  1  0  0  0  0
  6  7  2  1  0  0  0
  6  9  1  0  0  0  0
  6  5  1  0  0  0  0
  6  8  1  0  0  0  0
 10 11  2  6  0  0  0
 10 12  1  0  0  0  0
 10 13  1  0  0  0  0
 10  9  1  0  0  0  0
 13 14  1  0  0  0  0
 15 14  1  1  0  0  0
 15 16  1  0  0  0  0
 17 19  1  0  0  0  0
 17 15  1  0  0  0  0
 17 18  1  6  0  0  0
 19 21  1  0  0  0  0
 19 20  1  6  0  0  0
 21 16  1  0  0  0  0
 21 22  1  1  0  0  0
 22 32  1  0  0  0  0
 23 22  1  0  0  0  0
 23 24  2  0  0  0  0
 24 25  1  0  0  0  0
 25 26  1  0  0  0  0
 26 27  2  0  0  0  0
 26 28  1  0  0  0  0
 29 28  1  0  0  0  0
 29 30  1  0  0  0  0
 31 29  2  0  0  0  0
 32 25  2  0  0  0  0
 32 31  1  0  0  0  0
M  END
>  <CHROM.1>
106.36478216,-162.61706812,68.10858225,120.62546072,42.18831864,60.91188143
41.55835435,-57.90805687,-173.47381287,-106.99584351,2.86629642,16.74680394
1.89491665,2.45382571,-0.54520973,-2.75087687

>  <Name>
lig.pdb

>  <RI>
0

>  <Rbt.Current_Directory>
/home/itssahil/PROJECTS/Mol_Feturizer/New_Systems/rnas/5lwj

>  <Rbt.Executable>
rbdock ($Id: //depot/dev/client3/rdock/2013.1/src/exe/rbdock.cxx#4 $)

>  <Rbt.Library>
libRbt.so (2013.1, Build901 2013/11/27)

>  <Rbt.Parameter_File>
/export/apps/rDock/src/rDock_2013.1_src/data/scripts/dock_solv.prm

>  <Rbt.Receptor>
prm/pocket_docking_3.prm

>  <SCORE>
-21.7723

>  <SCORE.INTER>
-19.0134

>  <SCORE.INTER.CONST>
1

>  <SCORE.INTER.POLAR>
-1.8043

>  <SCORE.INTER.ROT>
8

>  <SCORE.INTER.SOLV>
12.8198

>  <SCORE.INTER.VDW>
-19.8679

>  <SCORE.INTER.norm>
-0.59417

>  <SCORE.INTRA>
-2.75889

>  <SCORE.INTRA.DIHEDRAL>
-1.53241

>  <SCORE.INTRA.DIHEDRAL.0>
10.9248

>  <SCORE.INTRA.POLAR>
0

>  <SCORE.INTRA.POLAR.0>
0

>  <SCORE.INTRA.REPUL>
0

>  <SCORE.INTRA.REPUL.0>
0

>  <SCORE.INTRA.SOLV>
1.81522

>  <SCORE.INTRA.SOLV.lig_0>
-51.4104

>  <SCORE.INTRA.VDW>
-2.9003

>  <SCORE.INTRA.VDW.0>
0.110327

>  <SCORE.INTRA.norm>
-0.0862154

>  <SCORE.RESTR>
0

>  <SCORE.RESTR.CAVITY>
0

>  <SCORE.RESTR.norm>
0

>  <SCORE.SYSTEM>
0

>  <SCORE.SYSTEM.CONST>
0

>  <SCORE.SYSTEM.DIHEDRAL>
0

>  <SCORE.SYSTEM.SOLV>
0

>  <SCORE.SYSTEM.norm>
0

>  <SCORE.heavy>
32

>  <SCORE.norm>
-0.680385

>  <RMSD>
8.992

$$$$
lig.pdb
 OpenBabel11021811523D
libRbt.so/2013.1/901 2013/11/27
 32 34  0  0  0  0  0  0  0  0999 V2000
   -0.5084   12.0520    5.0055 P   0  0  0  0  0  0  0  0  0  0  0  0
    0.7866   11.5666    4.4011 O   0  0  0  0  0  0  0  0  0  0  0  0
   -1.6162   11.0697    4.3418 O   0  0  0  0  0  0  0  0  0  0  0  0
   -0.7251   11.8660    6.4866 O   0  0  0  0  0  0  0  0  0  0  0  0
   -0.5511   13.4821    4.7694 O   0  0  0  0  0  0  0  0  0  0  0  0
   -1.1816   13.7478    3.4551 P   0  0  1  0  0  0  0  0  0  0  0  0
   -2.5523   13.1852    3.4785 O   0  0  0  0  0  0  0  0  0  0  0  0
   -1.2626   15.2076    3.2167 O   0  0  0  0  0  0  0  0  0  0  0  0
   -0.3783   13.1072    2.3836 O   0  0  0  0  0  0  0  0  0  0  0  0
    1.0332   13.4733    2.1181 P   0  0  1  0  0  0  0  0  0  0  0  0
    1.7986   13.8958    3.3086 O   0  0  0  0  0  0  0  0  0  0  0  0
    1.7572   12.5614    1.2046 O   0  0  0  0  0  0  0  0  0  0  0  0
    0.8934   14.8558    1.2887 O   0  0  0  0  0  0  0  0  0  0  0  0
    1.8517   15.8933    1.3775 C   0  0  0  0  0  0  0  0  0  0  0  0
    3.2908   15.3631    1.4427 C   0  0  1  0  0  0  0  0  0  0  0  0
    3.4388   14.2410    0.5969 O   0  0  0  0  0  0  0  0  0  0  0  0
    4.3346   16.3280    0.8533 C   0  0  1  0  0  0  0  0  0  0  0  0
    4.6907   17.4215    1.6825 O   0  0  0  0  0  0  0  0  0  0  0  0
    5.5195   15.4156    0.5373 C   0  0  1  0  0  0  0  0  0  0  0  0
    6.4335   15.3329    1.6166 O   0  0  0  0  0  0  0  0  0  0  0  0
    4.8268   14.0636    0.3771 C   0  0  2  0  0  0  0  0  0  0  0  0
    5.0837   13.3670   -0.9015 N   0  0  0  0  0  0  0  0  0  0  0  0
    5.2582   12.0331   -1.1711 C   0  0  0  0  0  0  0  0  0  0  0  0
    5.5678   11.7771   -2.4158 N   0  0  0  0  0  0  0  0  0  0  0  0
    5.5766   13.0271   -3.0274 C   0  0  0  0  0  0  0  0  0  0  0  0
    5.8852   13.4080   -4.3727 C   0  0  0  0  0  0  0  0  0  0  0  0
    6.2582   12.6828   -5.2926 O   0  0  0  0  0  0  0  0  0  0  0  0
    5.7403   14.7842   -4.5937 N   0  0  0  0  0  0  0  0  0  0  0  0
    5.3092   15.6787   -3.6257 C   0  0  0  0  0  0  0  0  0  0  0  0
    5.1089   16.9505   -3.9891 N   0  0  0  0  0  0  0  0  0  0  0  0
    5.0675   15.3244   -2.3529 N   0  0  0  0  0  0  0  0  0  0  0  0
    5.2242   13.9934   -2.1152 C   0  0  0  0  0  0  0  0  0  0  0  0
  1  2  2  0  0  0  0
  1  4  1  0  0  0  0
  1  3  1  0  0  0  0
  5  1  1  0  0  0  0
  6  7  2  6  0  0  0
  6  9  1  0  0  0  0
  6  5  1  0  0  0  0
  6  8  1  0  0  0  0
 10 11  2  1  0  0  0
 10 12  1  0  0  0  0
 10 13  1  0  0  0  0
 10  9  1  0  0  0  0
 13 14  1  0  0  0  0
 15 14  1  6  0  0  0
 15 16  1  0  0  0  0
 17 19  1  0  0  0  0
 17 15  1  0  0  0  0
 17 18  1  1  0  0  0
 19 21  1  0  0  0  0
 19 20  1  1  0  0  0
 21 16  1  0  0  0  0
 21 22  1  6  0  0  0
 22 32  1  0  0  0  0
 23 22  1  0  0  0  0
 23 24  2  0  0  0  0
 24 25  1  0  0  0  0
 25 26  1  0  0  0  0
 26 27  2  0  0  0  0
 26 28  1  0  0  0  0
 29 28  1  0  0  0  0
 29 30  1  0  0  0  0
 31 29  2  0  0  0  0
 32 25  2  0  0  0  0
 32 31  1  0  0  0  0
M  END
>  <CHROM.1>
88.42335247,-61.36213506,59.56724512,147.75257211,31.73878960,39.24820168
38.00358752,72.03117505,-62.85367976,-93.29078869,2.45817633,13.88621359
1.04420989,2.89934564,0.82038825,0.54843422

>  <Name>
lig.pdb

>  <RI>
2.92062e+07

>  <Rbt.Current_Directory>
/home/itssahil/PROJECTS/Mol_Feturizer/New_Systems/rnas/5lwj

>  <Rbt.Executable>
rbdock ($Id: //depot/dev/client3/rdock/2013.1/src/exe/rbdock.cxx#4 $)

>  <Rbt.Library>
libRbt.so (2013.1, Build901 2013/11/27)

>  <Rbt.Parameter_File>
/export/apps/rDock/src/rDock_2013.1_src/data/scripts/dock_solv.prm

>  <Rbt.Receptor>
prm/pocket_docking_7.prm

>  <SCORE>
-28.3998

>  <SCORE.INTER>
-28.324

>  <SCORE.INTER.CONST>
1

>  <SCORE.INTER.POLAR>
-2.81576

>  <SCORE.INTER.ROT>
8

>  <SCORE.INTER.SOLV>
16.7409

>  <SCORE.INTER.VDW>
-24.0104

>  <SCORE.INTER.norm>
-0.885124

>  <SCORE.INTRA>
-0.112031

>  <SCORE.INTRA.DIHEDRAL>
-0.892931

>  <SCORE.INTRA.DIHEDRAL.0>
10.9248

>  <SCORE.INTRA.POLAR>
0

>  <SCORE.INTRA.POLAR.0>
0

>  <SCORE.INTRA.REPUL>
0

>  <SCORE.INTRA.REPUL.0>
0

>  <SCORE.INTRA.SOLV>
4.22789

>  <SCORE.INTRA.SOLV.lig_0>
-51.4104

>  <SCORE.INTRA.VDW>
-1.77951

>  <SCORE.INTRA.VDW.0>
0.110327

>  <SCORE.INTRA.norm>
-0.00350096

>  <SCORE.RESTR>
0.0361635

>  <SCORE.RESTR.CAVITY>
0.0361635

>  <SCORE.RESTR.norm>
0.00113011

>  <SCORE.SYSTEM>
0

>  <SCORE.SYSTEM.CONST>
0

>  <SCORE.SYSTEM.DIHEDRAL>
0

>  <SCORE.SYSTEM.SOLV>
0

>  <SCORE.SYSTEM.norm>
0

>  <SCORE.heavy>
32

>  <SCORE.norm>
-0.887495

>  <RMSD>
9.022

$$$$
lig.pdb
 OpenBabel11021811523D
libRbt.so/2013.1/901 2013/11/27
 32 34  0  0  0  0  0  0  0  0999 V2000
   -1.7998   12.3063    5.0188 P   0  0  0  0  0  0  0  0  0  0  0  0
   -1.5278   10.8814    4.6021 O   0  0  0  0  0  0  0  0  0  0  0  0
   -2.9906   12.7630    4.0158 O   0  0  0  0  0  0  0  0  0  0  0  0
   -2.3852   12.5564    6.3863 O   0  0  0  0  0  0  0  0  0  0  0  0
   -0.5170   12.9823    5.0009 O   0  0  0  0  0  0  0  0  0  0  0  0
    0.1568   12.7300    3.7056 P   0  0  1  0  0  0  0  0  0  0  0  0
    1.0990   13.8450    3.4505 O   0  0  0  0  0  0  0  0  0  0  0  0
    0.9168   11.4599    3.7674 O   0  0  0  0  0  0  0  0  0  0  0  0
   -0.8598   12.6554    2.6264 O   0  0  0  0  0  0  0  0  0  0  0  0
   -1.3481   13.8555    1.9064 P   0  0  1  0  0  0  0  0  0  0  0  0
   -2.3642   13.5852    0.8689 O   0  0  0  0  0  0  0  0  0  0  0  0
   -1.6298   15.0297    2.7619 O   0  0  0  0  0  0  0  0  0  0  0  0
   -0.0624   14.2909    1.0256 O   0  0  0  0  0  0  0  0  0  0  0  0
    0.7880   13.3444    0.4062 C   0  0  0  0  0  0  0  0  0  0  0  0
    1.7382   13.9845   -0.6154 C   0  0  1  0  0  0  0  0  0  0  0  0
    2.4657   15.0370   -0.0161 O   0  0  0  0  0  0  0  0  0  0  0  0
    2.8736   13.0531   -1.0750 C   0  0  1  0  0  0  0  0  0  0  0  0
    2.5057   12.0653   -2.0232 O   0  0  0  0  0  0  0  0  0  0  0  0
    3.9292   14.0209   -1.6092 C   0  0  1  0  0  0  0  0  0  0  0  0
    3.7776   14.2649   -2.9965 O   0  0  0  0  0  0  0  0  0  0  0  0
    3.5833   15.2983   -0.8463 C   0  0  2  0  0  0  0  0  0  0  0  0
    4.6947   15.8987   -0.0781 N   0  0  0  0  0  0  0  0  0  0  0  0
    5.5509   15.3397    0.8367 C   0  0  0  0  0  0  0  0  0  0  0  0
    6.3616   16.1970    1.4011 N   0  0  0  0  0  0  0  0  0  0  0  0
    6.0411   17.4118    0.8027 C   0  0  0  0  0  0  0  0  0  0  0  0
    6.5528   18.7297    1.0292 C   0  0  0  0  0  0  0  0  0  0  0  0
    7.3885   19.0793    1.8602 O   0  0  0  0  0  0  0  0  0  0  0  0
    5.9793   19.6874    0.1819 N   0  0  0  0  0  0  0  0  0  0  0  0
    5.0435   19.3884   -0.7968 C   0  0  0  0  0  0  0  0  0  0  0  0
    4.6505   20.3728   -1.6129 N   0  0  0  0  0  0  0  0  0  0  0  0
    4.5312   18.1594   -0.9729 N   0  0  0  0  0  0  0  0  0  0  0  0
    5.0619   17.2202   -0.1431 C   0  0  0  0  0  0  0  0  0  0  0  0
  1  2  2  0  0  0  0
  1  4  1  0  0  0  0
  1  3  1  0  0  0  0
  5  1  1  0  0  0  0
  6  7  2  6  0  0  0
  6  9  1  0  0  0  0
  6  5  1  0  0  0  0
  6  8  1  0  0  0  0
 10 11  2  6  0  0  0
 10 12  1  0  0  0  0
 10 13  1  0  0  0  0
 10  9  1  0  0  0  0
 13 14  1  0  0  0  0
 15 14  1  1  0  0  0
 15 16  1  0  0  0  0
 17 19  1  0  0  0  0
 17 15  1  0  0  0  0
 17 18  1  6  0  0  0
 19 21  1  0  0  0  0
 19 20  1  6  0  0  0
 21 16  1  0  0  0  0
 21 22  1  1  0  0  0
 22 32  1  0  0  0  0
 23 22  1  0  0  0  0
 23 24  2  0  0  0  0
 24 25  1  0  0  0  0
 25 26  1  0  0  0  0
 26 27  2  0  0  0  0
 26 28  1  0  0  0  0
 29 28  1  0  0  0  0
 29 30  1  0  0  0  0
 31 29  2  0  0  0  0
 32 25  2  0  0  0  0
 32 31  1  0  0  0  0
M  END
>  <CHROM.1>
50.46501485,86.97582027,154.92643431,38.45248402,-179.73900681,167.27979710
54.08240387,-82.56974340,-175.13326973,72.75646993,1.74041837,14.64082563
1.50301113,-2.94949176,-0.75077194,-1.98986098

>  <Name>
lig.pdb

>  <RI>
0

>  <Rbt.Current_Directory>
/home/itssahil/PROJECTS/Mol_Feturizer/New_Systems/rnas/5lwj

>  <Rbt.Executable>
rbdock ($Id: //depot/dev/client3/rdock/2013.1/src/exe/rbdock.cxx#4 $)

>  <Rbt.Library>
libRbt.so (2013.1, Build901 2013/11/27)

>  <Rbt.Parameter_File>
/export/apps/rDock/src/rDock_2013.1_src/data/scripts/dock_solv.prm

>  <Rbt.Receptor>
prm/pocket_docking_4.prm

>  <SCORE>
-27.1935

>  <SCORE.INTER>
-26.2693

>  <SCORE.INTER.CONST>
1

>  <SCORE.INTER.POLAR>
-3.01928

>  <SCORE.INTER.ROT>
8

>  <SCORE.INTER.SOLV>
15.4814

>  <SCORE.INTER.VDW>
-21.5424

>  <SCORE.INTER.norm>
-0.820915

>  <SCORE.INTRA>
-0.953764

>  <SCORE.INTRA.DIHEDRAL>
-1.98373

>  <SCORE.INTRA.DIHEDRAL.0>
10.9248

>  <SCORE.INTRA.POLAR>
0

>  <SCORE.INTRA.POLAR.0>
0

>  <SCORE.INTRA.REPUL>
0.0627094

>  <SCORE.INTRA.REPUL.0>
0

>  <SCORE.INTRA.SOLV>
1.70707

>  <SCORE.INTRA.SOLV.lig_0>
-51.4104

>  <SCORE.INTRA.VDW>
-1.12898

>  <SCORE.INTRA.VDW.0>
0.110327

>  <SCORE.INTRA.norm>
-0.0298051

>  <SCORE.RESTR>
0.0296024

>  <SCORE.RESTR.CAVITY>
0.0296024

>  <SCORE.RESTR.norm>
0.000925075

>  <SCORE.SYSTEM>
0

>  <SCORE.SYSTEM.CONST>
0

>  <SCORE.SYSTEM.DIHEDRAL>
0

>  <SCORE.SYSTEM.SOLV>
0

>  <SCORE.SYSTEM.norm>
0

>  <SCORE.heavy>
32

>  <SCORE.norm>
-0.849795

>  <RMSD>
9.049

$$$$
lig.pdb
 OpenBabel11021811523D
libRbt.so/2013.1/901 2013/11/27
 32 34  0  0  0  0  0  0  0  0999 V2000
   -3.0557   14.2563    3.7089 P   0  0  0  0  0  0  0  0  0  0  0  0
   -3.1365   13.2889    2.5532 O   0  0  0  0  0  0  0  0  0  0  0  0
   -1.9080   15.3010    3.2358 O   0  0  0  0  0  0  0  0  0  0  0  0
   -4.2410   15.1472    3.9852 O   0  0  0  0  0  0  0  0  0  0  0  0
   -2.8750   13.4471    4.8985 O   0  0  0  0  0  0  0  0  0  0  0  0
   -1.6199   12.6683    4.7810 P   0  0  1  0  0  0  0  0  0  0  0  0
   -1.3084   12.0915    6.1099 O   0  0  0  0  0  0  0  0  0  0  0  0
   -1.7951   11.5673    3.8054 O   0  0  0  0  0  0  0  0  0  0  0  0
   -0.5228   13.5641    4.3364 O   0  0  0  0  0  0  0  0  0  0  0  0
    0.5894   13.0963    3.4754 P   0  0  1  0  0  0  0  0  0  0  0  0
    1.5846   12.2439    4.1571 O   0  0  0  0  0  0  0  0  0  0  0  0
    0.1880   12.6295    2.1297 O   0  0  0  0  0  0  0  0  0  0  0  0
    1.4261   14.4546    3.2039 O   0  0  0  0  0  0  0  0  0  0  0  0
    2.8247   14.4530    2.9881 C   0  0  0  0  0  0  0  0  0  0  0  0
    3.2445   15.3738    1.8338 C   0  0  1  0  0  0  0  0  0  0  0  0
    2.4940   16.5705    1.8634 O   0  0  0  0  0  0  0  0  0  0  0  0
    4.6805   15.9121    1.9606 C   0  0  1  0  0  0  0  0  0  0  0  0
    5.7072   14.9972    1.6157 O   0  0  0  0  0  0  0  0  0  0  0  0
    4.6716   17.1539    1.0695 C   0  0  1  0  0  0  0  0  0  0  0  0
    5.0646   16.8609   -0.2598 O   0  0  0  0  0  0  0  0  0  0  0  0
    3.1883   17.5188    1.0727 C   0  0  2  0  0  0  0  0  0  0  0  0
    2.8763   18.9013    1.4940 N   0  0  0  0  0  0  0  0  0  0  0  0
    1.8205   19.7154    1.1704 C   0  0  0  0  0  0  0  0  0  0  0  0
    1.9151   20.9277    1.6525 N   0  0  0  0  0  0  0  0  0  0  0  0
    3.1074   20.9155    2.3701 C   0  0  0  0  0  0  0  0  0  0  0  0
    3.7765   21.9568    3.0897 C   0  0  0  0  0  0  0  0  0  0  0  0
    3.4401   23.1346    3.1941 O   0  0  0  0  0  0  0  0  0  0  0  0
    4.9539   21.5176    3.7100 N   0  0  0  0  0  0  0  0  0  0  0  0
    5.4060   20.2074    3.6643 C   0  0  0  0  0  0  0  0  0  0  0  0
    6.4870   19.8897    4.3856 N   0  0  0  0  0  0  0  0  0  0  0  0
    4.8010   19.2455    2.9483 N   0  0  0  0  0  0  0  0  0  0  0  0
    3.6664   19.6604    2.3214 C   0  0  0  0  0  0  0  0  0  0  0  0
  1  2  2  0  0  0  0
  1  4  1  0  0  0  0
  1  3  1  0  0  0  0
  5  1  1  0  0  0  0
  6  7  2  1  0  0  0
  6  9  1  0  0  0  0
  6  5  1  0  0  0  0
  6  8  1  0  0  0  0
 10 11  2  1  0  0  0
 10 12  1  0  0  0  0
 10 13  1  0  0  0  0
 10  9  1  0  0  0  0
 13 14  1  0  0  0  0
 15 14  1  1  0  0  0
 15 16  1  0  0  0  0
 17 19  1  0  0  0  0
 17 15  1  0  0  0  0
 17 18  1  6  0  0  0
 19 21  1  0  0  0  0
 19 20  1  6  0  0  0
 21 16  1  0  0  0  0
 21 22  1  1  0  0  0
 22 32  1  0  0  0  0
 23 22  1  0  0  0  0
 23 24  2  0  0  0  0
 24 25  1  0  0  0  0
 25 26  1  0  0  0  0
 26 27  2  0  0  0  0
 26 28  1  0  0  0  0
 29 28  1  0  0  0  0
 29 30  1  0  0  0  0
 31 29  2  0  0  0  0
 32 25  2  0  0  0  0
 32 31  1  0  0  0  0
M  END
>  <CHROM.1>
60.59022443,-147.25231568,167.70481005,149.87089944,-73.73357386,136.46914425
40.08251540,-47.46179467,61.22661710,-83.14099871,1.39429130,16.05780413
3.03107375,2.32276317,-0.26377419,-3.13215873

>  <Name>
lig.pdb

>  <RI>
0

>  <Rbt.Current_Directory>
/home/itssahil/PROJECTS/Mol_Feturizer/New_Systems/rnas/5lwj

>  <Rbt.Executable>
rbdock ($Id: //depot/dev/client3/rdock/2013.1/src/exe/rbdock.cxx#4 $)

>  <Rbt.Library>
libRbt.so (2013.1, Build901 2013/11/27)

>  <Rbt.Parameter_File>
/export/apps/rDock/src/rDock_2013.1_src/data/scripts/dock_solv.prm

>  <Rbt.Receptor>
prm/pocket_docking_4.prm

>  <SCORE>
-36.8518

>  <SCORE.INTER>
-37.4245

>  <SCORE.INTER.CONST>
1

>  <SCORE.INTER.POLAR>
-3.91213

>  <SCORE.INTER.ROT>
8

>  <SCORE.INTER.SOLV>
21.2197

>  <SCORE.INTER.VDW>
-27.9158

>  <SCORE.INTER.norm>
-1.16952

>  <SCORE.INTRA>
0.562796

>  <SCORE.INTRA.DIHEDRAL>
2.67721

>  <SCORE.INTRA.DIHEDRAL.0>
10.9248

>  <SCORE.INTRA.POLAR>
0

>  <SCORE.INTRA.POLAR.0>
0

>  <SCORE.INTRA.REPUL>
0.0147047

>  <SCORE.INTRA.REPUL.0>
0

>  <SCORE.INTRA.SOLV>
0.689541

>  <SCORE.INTRA.SOLV.lig_0>
-51.4104

>  <SCORE.INTRA.VDW>
-1.1941

>  <SCORE.INTRA.VDW.0>
0.110327

>  <SCORE.INTRA.norm>
0.0175874

>  <SCORE.RESTR>
0.00993857

>  <SCORE.RESTR.CAVITY>
0.00993857

>  <SCORE.RESTR.norm>
0.00031058

>  <SCORE.SYSTEM>
0

>  <SCORE.SYSTEM.CONST>
0

>  <SCORE.SYSTEM.DIHEDRAL>
0

>  <SCORE.SYSTEM.SOLV>
0

>  <SCORE.SYSTEM.norm>
0

>  <SCORE.heavy>
32

>  <SCORE.norm>
-1.15162

>  <RMSD>
9.052

$$$$
lig.pdb
 OpenBabel11021811523D
libRbt.so/2013.1/901 2013/11/27
 32 34  0  0  0  0  0  0  0  0999 V2000
   -4.1346   15.5349    4.3896 P   0  0  0  0  0  0  0  0  0  0  0  0
   -4.0501   14.5691    5.5463 O   0  0  0  0  0  0  0  0  0  0  0  0
   -4.3342   14.5596    3.1084 O   0  0  0  0  0  0  0  0  0  0  0  0
   -5.3245   16.4584    4.3093 O   0  0  0  0  0  0  0  0  0  0  0  0
   -2.9683   16.3902    4.4941 O   0  0  0  0  0  0  0  0  0  0  0  0
   -1.8303   15.7640    3.7810 P   0  0  1  0  0  0  0  0  0  0  0  0
   -2.1258   15.7882    2.3291 O   0  0  0  0  0  0  0  0  0  0  0  0
   -0.5884   16.5310    4.0341 O   0  0  0  0  0  0  0  0  0  0  0  0
   -1.6623   14.3659    4.2509 O   0  0  0  0  0  0  0  0  0  0  0  0
   -0.8472   13.3700    3.5157 P   0  0  1  0  0  0  0  0  0  0  0  0
   -0.3324   12.2589    4.3418 O   0  0  0  0  0  0  0  0  0  0  0  0
   -1.3863   12.9672    2.1977 O   0  0  0  0  0  0  0  0  0  0  0  0
    0.5004   14.1967    3.1704 O   0  0  0  0  0  0  0  0  0  0  0  0
    1.5372   13.6573    2.3724 C   0  0  0  0  0  0  0  0  0  0  0  0
    2.7635   14.5776    2.2973 C   0  0  1  0  0  0  0  0  0  0  0  0
    3.7277   14.0388    1.4162 O   0  0  0  0  0  0  0  0  0  0  0  0
    2.4779   15.9392    1.6400 C   0  0  1  0  0  0  0  0  0  0  0  0
    1.8087   16.8833    2.4592 O   0  0  0  0  0  0  0  0  0  0  0  0
    3.8618   16.4152    1.1991 C   0  0  1  0  0  0  0  0  0  0  0  0
    4.4976   17.2023    2.1908 O   0  0  0  0  0  0  0  0  0  0  0  0
    4.6113   15.0905    1.0700 C   0  0  2  0  0  0  0  0  0  0  0  0
    5.2480   14.8474   -0.2421 N   0  0  0  0  0  0  0  0  0  0  0  0
    4.7136   14.8434   -1.5057 C   0  0  0  0  0  0  0  0  0  0  0  0
    5.5575   14.4890   -2.4400 N   0  0  0  0  0  0  0  0  0  0  0  0
    6.7477   14.2639   -1.7548 C   0  0  0  0  0  0  0  0  0  0  0  0
    8.0246   13.8145   -2.2210 C   0  0  0  0  0  0  0  0  0  0  0  0
    8.3344   13.4851   -3.3642 O   0  0  0  0  0  0  0  0  0  0  0  0
    8.9829   13.7501   -1.2005 N   0  0  0  0  0  0  0  0  0  0  0  0
    8.7344   14.1165    0.1137 C   0  0  0  0  0  0  0  0  0  0  0  0
    9.7601   14.1117    0.9726 N   0  0  0  0  0  0  0  0  0  0  0  0
    7.5228   14.4911    0.5558 N   0  0  0  0  0  0  0  0  0  0  0  0
    6.5741   14.5387   -0.4190 C   0  0  0  0  0  0  0  0  0  0  0  0
  1  2  2  0  0  0  0
  1  4  1  0  0  0  0
  1  3  1  0  0  0  0
  5  1  1  0  0  0  0
  6  7  2  6  0  0  0
  6  9  1  0  0  0  0
  6  5  1  0  0  0  0
  6  8  1  0  0  0  0
 10 11  2  1  0  0  0
 10 12  1  0  0  0  0
 10 13  1  0  0  0  0
 10  9  1  0  0  0  0
 13 14  1  0  0  0  0
 15 14  1  6  0  0  0
 15 16  1  0  0  0  0
 17 19  1  0  0  0  0
 17 15  1  0  0  0  0
 17 18  1  1  0  0  0
 19 21  1  0  0  0  0
 19 20  1  1  0  0  0
 21 16  1  0  0  0  0
 21 22  1  6  0  0  0
 22 32  1  0  0  0  0
 23 22  1  0  0  0  0
 23 24  2  0  0  0  0
 24 25  1  0  0  0  0
 25 26  1  0  0  0  0
 26 27  2  0  0  0  0
 26 28  1  0  0  0  0
 29 28  1  0  0  0  0
 29 30  1  0  0  0  0
 31 29  2  0  0  0  0
 32 25  2  0  0  0  0
 32 31  1  0  0  0  0
M  END
>  <CHROM.1>
87.65004027,164.52257323,68.70872576,-175.08419040,156.02768421,-174.59096434
-175.87419381,-53.17891164,171.28244243,68.77176421,1.74411596,14.81739487
1.97565868,-2.93420442,-0.39498514,-2.80099906

>  <Name>
lig.pdb

>  <RI>
2.92062e+07

>  <Rbt.Current_Directory>
/home/itssahil/PROJECTS/Mol_Feturizer/New_Systems/rnas/5lwj

>  <Rbt.Executable>
rbdock ($Id: //depot/dev/client3/rdock/2013.1/src/exe/rbdock.cxx#4 $)

>  <Rbt.Library>
libRbt.so (2013.1, Build901 2013/11/27)

>  <Rbt.Parameter_File>
/export/apps/rDock/src/rDock_2013.1_src/data/scripts/dock_solv.prm

>  <Rbt.Receptor>
prm/pocket_docking_7.prm

>  <SCORE>
-40.3268

>  <SCORE.INTER>
-30.057

>  <SCORE.INTER.CONST>
1

>  <SCORE.INTER.POLAR>
-3.49981

>  <SCORE.INTER.ROT>
8

>  <SCORE.INTER.SOLV>
19.3992

>  <SCORE.INTER.VDW>
-23.7717

>  <SCORE.INTER.norm>
-0.93928

>  <SCORE.INTRA>
-10.2698

>  <SCORE.INTRA.DIHEDRAL>
-5.16096

>  <SCORE.INTRA.DIHEDRAL.0>
10.9248

>  <SCORE.INTRA.POLAR>
-1.23534

>  <SCORE.INTRA.POLAR.0>
0

>  <SCORE.INTRA.REPUL>
0

>  <SCORE.INTRA.REPUL.0>
0

>  <SCORE.INTRA.SOLV>
0.833577

>  <SCORE.INTRA.SOLV.lig_0>
-51.4104

>  <SCORE.INTRA.VDW>
-3.90599

>  <SCORE.INTRA.VDW.0>
0.110327

>  <SCORE.INTRA.norm>
-0.320933

>  <SCORE.RESTR>
0

>  <SCORE.RESTR.CAVITY>
0

>  <SCORE.RESTR.norm>
0

>  <SCORE.SYSTEM>
0

>  <SCORE.SYSTEM.CONST>
0

>  <SCORE.SYSTEM.DIHEDRAL>
0

>  <SCORE.SYSTEM.SOLV>
0

>  <SCORE.SYSTEM.norm>
0

>  <SCORE.heavy>
32

>  <SCORE.norm>
-1.26021

>  <RMSD>
9.056

$$$$
lig.pdb
 OpenBabel11021811523D
libRbt.so/2013.1/901 2013/11/27
 32 34  0  0  0  0  0  0  0  0999 V2000
    1.2993   11.2071    5.7806 P   0  0  0  0  0  0  0  0  0  0  0  0
    2.2810   12.2943    6.1444 O   0  0  0  0  0  0  0  0  0  0  0  0
    1.3240   11.2157    4.1582 O   0  0  0  0  0  0  0  0  0  0  0  0
    1.6470    9.7800    6.1237 O   0  0  0  0  0  0  0  0  0  0  0  0
    0.0792   11.5087    6.5038 O   0  0  0  0  0  0  0  0  0  0  0  0
   -0.9628   11.9571    5.5505 P   0  0  1  0  0  0  0  0  0  0  0  0
   -1.2123   10.8577    4.5886 O   0  0  0  0  0  0  0  0  0  0  0  0
   -2.2187   12.2586    6.2759 O   0  0  0  0  0  0  0  0  0  0  0  0
   -0.4904   13.1703    4.8373 O   0  0  0  0  0  0  0  0  0  0  0  0
   -1.1038   13.6419    3.5731 P   0  0  1  0  0  0  0  0  0  0  0  0
   -0.8977   12.7502    2.4137 O   0  0  0  0  0  0  0  0  0  0  0  0
   -2.4742   14.1848    3.7044 O   0  0  0  0  0  0  0  0  0  0  0  0
   -0.1921   14.9228    3.1901 O   0  0  0  0  0  0  0  0  0  0  0  0
   -0.0881   15.4105    1.8657 C   0  0  0  0  0  0  0  0  0  0  0  0
    1.0367   16.4424    1.7036 C   0  0  1  0  0  0  0  0  0  0  0  0
    2.2393   15.9479    2.2564 O   0  0  0  0  0  0  0  0  0  0  0  0
    1.4509   16.6841    0.2415 C   0  0  1  0  0  0  0  0  0  0  0  0
    0.5758   17.5067   -0.5120 O   0  0  0  0  0  0  0  0  0  0  0  0
    2.8556   17.2736    0.3657 C   0  0  1  0  0  0  0  0  0  0  0  0
    2.8378   18.6886    0.4316 O   0  0  0  0  0  0  0  0  0  0  0  0
    3.2958   16.7253    1.7218 C   0  0  2  0  0  0  0  0  0  0  0  0
    4.5685   15.9729    1.7188 N   0  0  0  0  0  0  0  0  0  0  0  0
    4.9331   14.8345    2.3921 C   0  0  0  0  0  0  0  0  0  0  0  0
    6.1858   14.4962    2.2275 N   0  0  0  0  0  0  0  0  0  0  0  0
    6.6879   15.4638    1.3626 C   0  0  0  0  0  0  0  0  0  0  0  0
    8.0074   15.6591    0.8423 C   0  0  0  0  0  0  0  0  0  0  0  0
    9.0188   15.0069    1.0934 O   0  0  0  0  0  0  0  0  0  0  0  0
    8.0885   16.7477   -0.0366 N   0  0  0  0  0  0  0  0  0  0  0  0
    7.0018   17.5311   -0.3947 C   0  0  0  0  0  0  0  0  0  0  0  0
    7.1862   18.4749   -1.3248 N   0  0  0  0  0  0  0  0  0  0  0  0
    5.7767   17.3741    0.1329 N   0  0  0  0  0  0  0  0  0  0  0  0
    5.6849   16.3337    1.0056 C   0  0  0  0  0  0  0  0  0  0  0  0
  1  2  2  0  0  0  0
  1  4  1  0  0  0  0
  1  3  1  0  0  0  0
  5  1  1  0  0  0  0
  6  7  2  6  0  0  0
  6  9  1  0  0  0  0
  6  5  1  0  0  0  0
  6  8  1  0  0  0  0
 10 11  2  6  0  0  0
 10 12  1  0  0  0  0
 10 13  1  0  0  0  0
 10  9  1  0  0  0  0
 13 14  1  0  0  0  0
 15 14  1  6  0  0  0
 15 16  1  0  0  0  0
 17 19  1  0  0  0  0
 17 15  1  0  0  0  0
 17 18  1  1  0  0  0
 19 21  1  0  0  0  0
 19 20  1  1  0  0  0
 21 16  1  0  0  0  0
 21 22  1  6  0  0  0
 22 32  1  0  0  0  0
 23 22  1  0  0  0  0
 23 24  2  0  0  0  0
 24 25  1  0  0  0  0
 25 26  1  0  0  0  0
 26 27  2  0  0  0  0
 26 28  1  0  0  0  0
 29 28  1  0  0  0  0
 29 30  1  0  0  0  0
 31 29  2  0  0  0  0
 32 25  2  0  0  0  0
 32 31  1  0  0  0  0
M  END
>  <CHROM.1>
109.47561867,162.25561865,60.56193168,157.21155305,-67.09938137,-168.55854922
49.90473884,-59.59591290,-174.86860864,-16.50667822,2.22191469,14.44672917
2.80990030,-2.34584798,0.08254736,-0.70175787

>  <Name>
lig.pdb

>  <RI>
2.92062e+07

>  <Rbt.Current_Directory>
/home/itssahil/PROJECTS/Mol_Feturizer/New_Systems/rnas/5lwj

>  <Rbt.Executable>
rbdock ($Id: //depot/dev/client3/rdock/2013.1/src/exe/rbdock.cxx#4 $)

>  <Rbt.Library>
libRbt.so (2013.1, Build901 2013/11/27)

>  <Rbt.Parameter_File>
/export/apps/rDock/src/rDock_2013.1_src/data/scripts/dock_solv.prm

>  <Rbt.Receptor>
prm/pocket_docking_7.prm

>  <SCORE>
-42.7362

>  <SCORE.INTER>
-38.2894

>  <SCORE.INTER.CONST>
1

>  <SCORE.INTER.POLAR>
-2.78196

>  <SCORE.INTER.ROT>
8

>  <SCORE.INTER.SOLV>
22.4307

>  <SCORE.INTER.VDW>
-32.6633

>  <SCORE.INTER.norm>
-1.19654

>  <SCORE.INTRA>
-4.44672

>  <SCORE.INTRA.DIHEDRAL>
-3.45768

>  <SCORE.INTRA.DIHEDRAL.0>
10.9248

>  <SCORE.INTRA.POLAR>
0

>  <SCORE.INTRA.POLAR.0>
0

>  <SCORE.INTRA.REPUL>
0

>  <SCORE.INTRA.REPUL.0>
0

>  <SCORE.INTRA.SOLV>
0.632345

>  <SCORE.INTRA.SOLV.lig_0>
-51.4104

>  <SCORE.INTRA.VDW>
-3.03406

>  <SCORE.INTRA.VDW.0>
0.110327

>  <SCORE.INTRA.norm>
-0.13896

>  <SCORE.RESTR>
0

>  <SCORE.RESTR.CAVITY>
0

>  <SCORE.RESTR.norm>
0

>  <SCORE.SYSTEM>
0

>  <SCORE.SYSTEM.CONST>
0

>  <SCORE.SYSTEM.DIHEDRAL>
0

>  <SCORE.SYSTEM.SOLV>
0

>  <SCORE.SYSTEM.norm>
0

>  <SCORE.heavy>
32

>  <SCORE.norm>
-1.3355

>  <RMSD>
9.060

$$$$
lig.pdb
 OpenBabel11021811523D
libRbt.so/2013.1/901 2013/11/27
 32 34  0  0  0  0  0  0  0  0999 V2000
   -2.6968   13.8618    3.7814 P   0  0  0  0  0  0  0  0  0  0  0  0
   -2.3947   14.3635    5.1724 O   0  0  0  0  0  0  0  0  0  0  0  0
   -2.1153   12.3472    3.8010 O   0  0  0  0  0  0  0  0  0  0  0  0
   -4.1391   13.6728    3.3826 O   0  0  0  0  0  0  0  0  0  0  0  0
   -2.1542   14.8512    2.8706 O   0  0  0  0  0  0  0  0  0  0  0  0
   -0.8443   14.3856    2.3579 P   0  0  1  0  0  0  0  0  0  0  0  0
    0.0135   14.0512    3.5192 O   0  0  0  0  0  0  0  0  0  0  0  0
   -1.0262   13.1730    1.5266 O   0  0  0  0  0  0  0  0  0  0  0  0
   -0.2205   15.4617    1.5476 O   0  0  0  0  0  0  0  0  0  0  0  0
    0.2721   16.7258    2.1445 P   0  0  1  0  0  0  0  0  0  0  0  0
   -0.1644   17.9523    1.4466 O   0  0  0  0  0  0  0  0  0  0  0  0
    0.2020   16.7921    3.6212 O   0  0  0  0  0  0  0  0  0  0  0  0
    1.8553   16.6843    1.8122 O   0  0  0  0  0  0  0  0  0  0  0  0
    2.3629   16.9098    0.5106 C   0  0  0  0  0  0  0  0  0  0  0  0
    3.8416   16.5194    0.3782 C   0  0  1  0  0  0  0  0  0  0  0  0
    4.6535   17.6754    0.3519 O   0  0  0  0  0  0  0  0  0  0  0  0
    4.4011   15.7827    1.6079 C   0  0  1  0  0  0  0  0  0  0  0  0
    4.0408   14.4156    1.7157 O   0  0  0  0  0  0  0  0  0  0  0  0
    5.9107   15.9880    1.4853 C   0  0  1  0  0  0  0  0  0  0  0  0
    6.5363   14.9398    0.7663 O   0  0  0  0  0  0  0  0  0  0  0  0
    5.9762   17.2638    0.6478 C   0  0  2  0  0  0  0  0  0  0  0  0
    6.7640   18.3684    1.2355 N   0  0  0  0  0  0  0  0  0  0  0  0
    8.0795   18.7167    1.0613 C   0  0  0  0  0  0  0  0  0  0  0  0
    8.4746   19.7042    1.8226 N   0  0  0  0  0  0  0  0  0  0  0  0
    7.3350   20.0574    2.5390 C   0  0  0  0  0  0  0  0  0  0  0  0
    7.1400   21.0421    3.5599 C   0  0  0  0  0  0  0  0  0  0  0  0
    7.9834   21.7830    4.0609 O   0  0  0  0  0  0  0  0  0  0  0  0
    5.8133   21.1048    4.0068 N   0  0  0  0  0  0  0  0  0  0  0  0
    4.7893   20.3241    3.4920 C   0  0  0  0  0  0  0  0  0  0  0  0
    3.5450   20.5520    3.9272 N   0  0  0  0  0  0  0  0  0  0  0  0
    4.9864   19.3686    2.5690 N   0  0  0  0  0  0  0  0  0  0  0  0
    6.2746   19.2793    2.1389 C   0  0  0  0  0  0  0  0  0  0  0  0
  1  2  2  0  0  0  0
  1  4  1  0  0  0  0
  1  3  1  0  0  0  0
  5  1  1  0  0  0  0
  6  7  2  1  0  0  0
  6  9  1  0  0  0  0
  6  5  1  0  0  0  0
  6  8  1  0  0  0  0
 10 11  2  6  0  0  0
 10 12  1  0  0  0  0
 10 13  1  0  0  0  0
 10  9  1  0  0  0  0
 13 14  1  0  0  0  0
 15 14  1  1  0  0  0
 15 16  1  0  0  0  0
 17 19  1  0  0  0  0
 17 15  1  0  0  0  0
 17 18  1  6  0  0  0
 19 21  1  0  0  0  0
 19 20  1  6  0  0  0
 21 16  1  0  0  0  0
 21 22  1  1  0  0  0
 22 32  1  0  0  0  0
 23 22  1  0  0  0  0
 23 24  2  0  0  0  0
 24 25  1  0  0  0  0
 25 26  1  0  0  0  0
 26 27  2  0  0  0  0
 26 28  1  0  0  0  0
 29 28  1  0  0  0  0
 29 30  1  0  0  0  0
 31 29  2  0  0  0  0
 32 25  2  0  0  0  0
 32 31  1  0  0  0  0
M  END
>  <CHROM.1>
99.77687048,68.41192667,-53.44000459,73.53940046,-131.78382239,-167.39483107
-104.74033449,-63.34597534,-48.57502578,-142.12851773,2.40898158,16.69524952
2.40295563,2.71288299,-0.36246191,-2.63579652

>  <Name>
lig.pdb

>  <RI>
0

>  <Rbt.Current_Directory>
/home/itssahil/PROJECTS/Mol_Feturizer/New_Systems/rnas/5lwj

>  <Rbt.Executable>
rbdock ($Id: //depot/dev/client3/rdock/2013.1/src/exe/rbdock.cxx#4 $)

>  <Rbt.Library>
libRbt.so (2013.1, Build901 2013/11/27)

>  <Rbt.Parameter_File>
/export/apps/rDock/src/rDock_2013.1_src/data/scripts/dock_solv.prm

>  <Rbt.Receptor>
prm/pocket_docking_4.prm

>  <SCORE>
-25.9755

>  <SCORE.INTER>
-24.4059

>  <SCORE.INTER.CONST>
1

>  <SCORE.INTER.POLAR>
-3.39425

>  <SCORE.INTER.ROT>
8

>  <SCORE.INTER.SOLV>
12.1534

>  <SCORE.INTER.VDW>
-17.9409

>  <SCORE.INTER.norm>
-0.762685

>  <SCORE.INTRA>
-1.5696

>  <SCORE.INTRA.DIHEDRAL>
2.33463

>  <SCORE.INTRA.DIHEDRAL.0>
10.9248

>  <SCORE.INTRA.POLAR>
-0.0794915

>  <SCORE.INTRA.POLAR.0>
0

>  <SCORE.INTRA.REPUL>
0.0326838

>  <SCORE.INTRA.REPUL.0>
0

>  <SCORE.INTRA.SOLV>
0.368762

>  <SCORE.INTRA.SOLV.lig_0>
-51.4104

>  <SCORE.INTRA.VDW>
-2.81444

>  <SCORE.INTRA.VDW.0>
0.110327

>  <SCORE.INTRA.norm>
-0.0490498

>  <SCORE.RESTR>
0

>  <SCORE.RESTR.CAVITY>
0

>  <SCORE.RESTR.norm>
0

>  <SCORE.SYSTEM>
0

>  <SCORE.SYSTEM.CONST>
0

>  <SCORE.SYSTEM.DIHEDRAL>
0

>  <SCORE.SYSTEM.SOLV>
0

>  <SCORE.SYSTEM.norm>
0

>  <SCORE.heavy>
32

>  <SCORE.norm>
-0.811735

>  <RMSD>
9.064

$$$$
lig.pdb
 OpenBabel11021811523D
libRbt.so/2013.1/901 2013/11/27
 32 34  0  0  0  0  0  0  0  0999 V2000
    0.6511   11.5830    5.3419 P   0  0  0  0  0  0  0  0  0  0  0  0
    1.8801   12.2583    5.9001 O   0  0  0  0  0  0  0  0  0  0  0  0
    1.0303   11.3591    3.7803 O   0  0  0  0  0  0  0  0  0  0  0  0
    0.3156   10.1919    5.8188 O   0  0  0  0  0  0  0  0  0  0  0  0
   -0.4726   12.4188    5.7181 O   0  0  0  0  0  0  0  0  0  0  0  0
   -1.5547   12.2728    4.7165 P   0  0  1  0  0  0  0  0  0  0  0  0
   -1.8554   10.8293    4.5689 O   0  0  0  0  0  0  0  0  0  0  0  0
   -2.7738   12.9753    5.1800 O   0  0  0  0  0  0  0  0  0  0  0  0
   -1.1082   12.8428    3.4206 O   0  0  0  0  0  0  0  0  0  0  0  0
   -1.3069   14.2680    3.0653 P   0  0  1  0  0  0  0  0  0  0  0  0
   -2.5026   14.5408    2.2422 O   0  0  0  0  0  0  0  0  0  0  0  0
   -1.0790   15.2277    4.1686 O   0  0  0  0  0  0  0  0  0  0  0  0
   -0.0998   14.5480    2.0246 O   0  0  0  0  0  0  0  0  0  0  0  0
    0.8108   13.5390    1.6305 C   0  0  0  0  0  0  0  0  0  0  0  0
    2.2094   14.0930    1.3251 C   0  0  1  0  0  0  0  0  0  0  0  0
    2.1439   15.0402    0.2787 O   0  0  0  0  0  0  0  0  0  0  0  0
    2.8038   14.9392    2.4646 C   0  0  1  0  0  0  0  0  0  0  0  0
    3.3242   14.2060    3.5608 O   0  0  0  0  0  0  0  0  0  0  0  0
    3.8662   15.7828    1.7602 C   0  0  1  0  0  0  0  0  0  0  0  0
    5.1378   15.1582    1.7698 O   0  0  0  0  0  0  0  0  0  0  0  0
    3.3390   15.7991    0.3266 C   0  0  2  0  0  0  0  0  0  0  0  0
    3.1474   17.1413   -0.2632 N   0  0  0  0  0  0  0  0  0  0  0  0
    2.3016   17.5665   -1.2563 C   0  0  0  0  0  0  0  0  0  0  0  0
    2.4684   18.8178   -1.5987 N   0  0  0  0  0  0  0  0  0  0  0  0
    3.4812   19.2679   -0.7571 C   0  0  0  0  0  0  0  0  0  0  0  0
    4.1343   20.5395   -0.6766 C   0  0  0  0  0  0  0  0  0  0  0  0
    3.9529   21.5244   -1.3896 O   0  0  0  0  0  0  0  0  0  0  0  0
    5.0919   20.5939    0.3451 N   0  0  0  0  0  0  0  0  0  0  0  0
    5.3553   19.5430    1.2107 C   0  0  0  0  0  0  0  0  0  0  0  0
    6.2165   19.7541    2.2124 N   0  0  0  0  0  0  0  0  0  0  0  0
    4.7750   18.3368    1.1005 N   0  0  0  0  0  0  0  0  0  0  0  0
    3.8568   18.2597    0.0988 C   0  0  0  0  0  0  0  0  0  0  0  0
  1  2  2  0  0  0  0
  1  4  1  0  0  0  0
  1  3  1  0  0  0  0
  5  1  1  0  0  0  0
  6  7  2  6  0  0  0
  6  9  1  0  0  0  0
  6  5  1  0  0  0  0
  6  8  1  0  0  0  0
 10 11  2  6  0  0  0
 10 12  1  0  0  0  0
 10 13  1  0  0  0  0
 10  9  1  0  0  0  0
 13 14  1  0  0  0  0
 15 14  1  1  0  0  0
 15 16  1  0  0  0  0
 17 19  1  0  0  0  0
 17 15  1  0  0  0  0
 17 18  1  1  0  0  0
 19 21  1  0  0  0  0
 19 20  1  6  0  0  0
 21 16  1  0  0  0  0
 21 22  1  1  0  0  0
 22 32  1  0  0  0  0
 23 22  1  0  0  0  0
 23 24  2  0  0  0  0
 24 25  1  0  0  0  0
 25 26  1  0  0  0  0
 26 27  2  0  0  0  0
 26 28  1  0  0  0  0
 29 28  1  0  0  0  0
 29 30  1  0  0  0  0
 31 29  2  0  0  0  0
 32 25  2  0  0  0  0
 32 31  1  0  0  0  0
M  END
>  <CHROM.1>
151.53737913,-89.00354281,53.40786463,1.66298680,-96.61266893,-148.42757763
-59.84194104,64.32404451,-61.77471945,-29.72476067,1.52682877,15.07612812
2.46068929,-2.11736513,-0.16836904,-0.69312244

>  <Name>
lig.pdb

>  <RI>
0

>  <Rbt.Current_Directory>
/home/itssahil/PROJECTS/Mol_Feturizer/New_Systems/rnas/5lwj

>  <Rbt.Executable>
rbdock ($Id: //depot/dev/client3/rdock/2013.1/src/exe/rbdock.cxx#4 $)

>  <Rbt.Library>
libRbt.so (2013.1, Build901 2013/11/27)

>  <Rbt.Parameter_File>
/export/apps/rDock/src/rDock_2013.1_src/data/scripts/dock_solv.prm

>  <Rbt.Receptor>
prm/pocket_docking_3.prm

>  <SCORE>
-35.6856

>  <SCORE.INTER>
-34.7778

>  <SCORE.INTER.CONST>
1

>  <SCORE.INTER.POLAR>
-3.16117

>  <SCORE.INTER.ROT>
8

>  <SCORE.INTER.SOLV>
20.8439

>  <SCORE.INTER.VDW>
-28.5292

>  <SCORE.INTER.norm>
-1.08681

>  <SCORE.INTRA>
-1.37662

>  <SCORE.INTRA.DIHEDRAL>
1.45519

>  <SCORE.INTRA.DIHEDRAL.0>
10.9248

>  <SCORE.INTRA.POLAR>
0

>  <SCORE.INTRA.POLAR.0>
0

>  <SCORE.INTRA.REPUL>
0

>  <SCORE.INTRA.REPUL.0>
0

>  <SCORE.INTRA.SOLV>
1.13408

>  <SCORE.INTRA.SOLV.lig_0>
-51.4104

>  <SCORE.INTRA.VDW>
-2.67125

>  <SCORE.INTRA.VDW.0>
0.110327

>  <SCORE.INTRA.norm>
-0.0430193

>  <SCORE.RESTR>
0.4688

>  <SCORE.RESTR.CAVITY>
0.4688

>  <SCORE.RESTR.norm>
0.01465

>  <SCORE.SYSTEM>
0

>  <SCORE.SYSTEM.CONST>
0

>  <SCORE.SYSTEM.DIHEDRAL>
0

>  <SCORE.SYSTEM.SOLV>
0

>  <SCORE.SYSTEM.norm>
0

>  <SCORE.heavy>
32

>  <SCORE.norm>
-1.11517

>  <RMSD>
9.080

$$$$
lig.pdb
 OpenBabel11021811523D
libRbt.so/2013.1/901 2013/11/27
 32 34  0  0  0  0  0  0  0  0999 V2000
   -3.5412   14.3000    2.2337 P   0  0  0  0  0  0  0  0  0  0  0  0
   -4.4033   13.8131    1.0945 O   0  0  0  0  0  0  0  0  0  0  0  0
   -2.2363   14.8997    1.4787 O   0  0  0  0  0  0  0  0  0  0  0  0
   -4.0293   15.4653    3.0578 O   0  0  0  0  0  0  0  0  0  0  0  0
   -3.4179   13.1831    3.1503 O   0  0  0  0  0  0  0  0  0  0  0  0
   -2.0454   13.1501    3.7077 P   0  0  1  0  0  0  0  0  0  0  0  0
   -1.7953   14.4386    4.3955 O   0  0  0  0  0  0  0  0  0  0  0  0
   -1.9222   12.0469    4.6888 O   0  0  0  0  0  0  0  0  0  0  0  0
   -1.0697   12.9544    2.6061 O   0  0  0  0  0  0  0  0  0  0  0  0
    0.3935   13.0833    2.8045 P   0  0  1  0  0  0  0  0  0  0  0  0
    0.8626   14.4555    3.0850 O   0  0  0  0  0  0  0  0  0  0  0  0
    1.0082   12.0318    3.6450 O   0  0  0  0  0  0  0  0  0  0  0  0
    0.9798   12.8145    1.3203 O   0  0  0  0  0  0  0  0  0  0  0  0
    0.4546   13.4513    0.1709 C   0  0  0  0  0  0  0  0  0  0  0  0
    1.5374   14.1503   -0.6629 C   0  0  1  0  0  0  0  0  0  0  0  0
    1.8675   15.3991   -0.0901 O   0  0  0  0  0  0  0  0  0  0  0  0
    2.8992   13.4343   -0.6368 C   0  0  1  0  0  0  0  0  0  0  0  0
    2.9982   12.2827   -1.4579 O   0  0  0  0  0  0  0  0  0  0  0  0
    3.8830   14.5329   -1.0386 C   0  0  1  0  0  0  0  0  0  0  0  0
    4.1032   14.5680   -2.4377 O   0  0  0  0  0  0  0  0  0  0  0  0
    3.1167   15.7900   -0.6314 C   0  0  2  0  0  0  0  0  0  0  0  0
    3.8361   16.7032    0.2821 N   0  0  0  0  0  0  0  0  0  0  0  0
    4.2893   16.5093    1.5625 C   0  0  0  0  0  0  0  0  0  0  0  0
    4.8033   17.5784    2.1135 N   0  0  0  0  0  0  0  0  0  0  0  0
    4.7093   18.5500    1.1216 C   0  0  0  0  0  0  0  0  0  0  0  0
    5.0661   19.9365    1.1338 C   0  0  0  0  0  0  0  0  0  0  0  0
    5.5124   20.5898    2.0748 O   0  0  0  0  0  0  0  0  0  0  0  0
    4.8395   20.5660   -0.0976 N   0  0  0  0  0  0  0  0  0  0  0  0
    4.3561   19.9108   -1.2202 C   0  0  0  0  0  0  0  0  0  0  0  0
    4.2836   20.5969   -2.3663 N   0  0  0  0  0  0  0  0  0  0  0  0
    3.9775   18.6222   -1.2131 N   0  0  0  0  0  0  0  0  0  0  0  0
    4.1710   18.0006   -0.0178 C   0  0  0  0  0  0  0  0  0  0  0  0
  1  2  2  0  0  0  0
  1  4  1  0  0  0  0
  1  3  1  0  0  0  0
  5  1  1  0  0  0  0
  6  7  2  1  0  0  0
  6  9  1  0  0  0  0
  6  5  1  0  0  0  0
  6  8  1  0  0  0  0
 10 11  2  1  0  0  0
 10 12  1  0  0  0  0
 10 13  1  0  0  0  0
 10  9  1  0  0  0  0
 13 14  1  0  0  0  0
 15 14  1  1  0  0  0
 15 16  1  0  0  0  0
 17 19  1  0  0  0  0
 17 15  1  0  0  0  0
 17 18  1  6  0  0  0
 19 21  1  0  0  0  0
 19 20  1  6  0  0  0
 21 16  1  0  0  0  0
 21 22  1  1  0  0  0
 22 32  1  0  0  0  0
 23 22  1  0  0  0  0
 23 24  2  0  0  0  0
 24 25  1  0  0  0  0
 25 26  1  0  0  0  0
 26 27  2  0  0  0  0
 26 28  1  0  0  0  0
 29 28  1  0  0  0  0
 29 30  1  0  0  0  0
 31 29  2  0  0  0  0
 32 25  2  0  0  0  0
 32 31  1  0  0  0  0
M  END
>  <CHROM.1>
141.95066387,170.42788213,58.65867708,47.72064822,-68.49413111,127.28287475
-79.91150358,-66.32807934,-178.41753945,61.24122307,1.09950806,15.25939314
1.28182271,2.67924649,-0.57905880,-2.87073756

>  <Name>
lig.pdb

>  <RI>
1.82117e+07

>  <Rbt.Current_Directory>
/home/itssahil/PROJECTS/Mol_Feturizer/New_Systems/rnas/5lwj

>  <Rbt.Executable>
rbdock ($Id: //depot/dev/client3/rdock/2013.1/src/exe/rbdock.cxx#4 $)

>  <Rbt.Library>
libRbt.so (2013.1, Build901 2013/11/27)

>  <Rbt.Parameter_File>
/export/apps/rDock/src/rDock_2013.1_src/data/scripts/dock_solv.prm

>  <Rbt.Receptor>
prm/pocket_docking_5.prm

>  <SCORE>
-30.2023

>  <SCORE.INTER>
-27.5541

>  <SCORE.INTER.CONST>
1

>  <SCORE.INTER.POLAR>
-3.08708

>  <SCORE.INTER.ROT>
8

>  <SCORE.INTER.SOLV>
14.6841

>  <SCORE.INTER.VDW>
-21.9072

>  <SCORE.INTER.norm>
-0.861066

>  <SCORE.INTRA>
-2.64819

>  <SCORE.INTRA.DIHEDRAL>
2.12953

>  <SCORE.INTRA.DIHEDRAL.0>
10.9248

>  <SCORE.INTRA.POLAR>
0

>  <SCORE.INTRA.POLAR.0>
0

>  <SCORE.INTRA.REPUL>
0

>  <SCORE.INTRA.REPUL.0>
0

>  <SCORE.INTRA.SOLV>
0.495111

>  <SCORE.INTRA.SOLV.lig_0>
-51.4104

>  <SCORE.INTRA.VDW>
-3.96051

>  <SCORE.INTRA.VDW.0>
0.110327

>  <SCORE.INTRA.norm>
-0.0827559

>  <SCORE.RESTR>
0

>  <SCORE.RESTR.CAVITY>
0

>  <SCORE.RESTR.norm>
0

>  <SCORE.SYSTEM>
0

>  <SCORE.SYSTEM.CONST>
0

>  <SCORE.SYSTEM.DIHEDRAL>
0

>  <SCORE.SYSTEM.SOLV>
0

>  <SCORE.SYSTEM.norm>
0

>  <SCORE.heavy>
32

>  <SCORE.norm>
-0.943822

>  <RMSD>
9.084

$$$$
lig.pdb
 OpenBabel11021811523D
libRbt.so/2013.1/901 2013/11/27
 32 34  0  0  0  0  0  0  0  0999 V2000
   -1.5740   11.9162    5.3014 P   0  0  0  0  0  0  0  0  0  0  0  0
   -1.5199   11.4554    3.8651 O   0  0  0  0  0  0  0  0  0  0  0  0
   -1.8886   13.5023    5.1683 O   0  0  0  0  0  0  0  0  0  0  0  0
   -2.6955   11.4139    6.1760 O   0  0  0  0  0  0  0  0  0  0  0  0
   -0.3455   11.4545    5.9181 O   0  0  0  0  0  0  0  0  0  0  0  0
    0.8156   11.9996    5.1762 P   0  0  1  0  0  0  0  0  0  0  0  0
    1.9155   12.2274    6.1429 O   0  0  0  0  0  0  0  0  0  0  0  0
    1.2656   11.0279    4.1525 O   0  0  0  0  0  0  0  0  0  0  0  0
    0.4293   13.2754    4.5229 O   0  0  0  0  0  0  0  0  0  0  0  0
    0.7226   13.5629    3.0988 P   0  0  1  0  0  0  0  0  0  0  0  0
    2.1574   13.7051    2.7778 O   0  0  0  0  0  0  0  0  0  0  0  0
   -0.0570   12.7677    2.1242 O   0  0  0  0  0  0  0  0  0  0  0  0
    0.1773   15.0760    2.9205 O   0  0  0  0  0  0  0  0  0  0  0  0
   -0.7604   15.4312    1.9218 C   0  0  0  0  0  0  0  0  0  0  0  0
   -0.1926   16.4366    0.9103 C   0  0  1  0  0  0  0  0  0  0  0  0
    0.5739   17.4204    1.5743 O   0  0  0  0  0  0  0  0  0  0  0  0
    0.8506   15.8325   -0.0460 C   0  0  1  0  0  0  0  0  0  0  0  0
    0.3255   15.0501   -1.1054 O   0  0  0  0  0  0  0  0  0  0  0  0
    1.6245   17.0541   -0.5410 C   0  0  1  0  0  0  0  0  0  0  0  0
    1.0729   17.5906   -1.7305 O   0  0  0  0  0  0  0  0  0  0  0  0
    1.3892   18.0441    0.5982 C   0  0  2  0  0  0  0  0  0  0  0  0
    2.6108   18.6158    1.2040 N   0  0  0  0  0  0  0  0  0  0  0  0
    2.8522   19.0523    2.4821 C   0  0  0  0  0  0  0  0  0  0  0  0
    4.0305   19.5959    2.6459 N   0  0  0  0  0  0  0  0  0  0  0  0
    4.6288   19.4931    1.3936 C   0  0  0  0  0  0  0  0  0  0  0  0
    5.9045   19.9453    0.9266 C   0  0  0  0  0  0  0  0  0  0  0  0
    6.7534   20.5772    1.5522 O   0  0  0  0  0  0  0  0  0  0  0  0
    6.1421   19.6093   -0.4130 N   0  0  0  0  0  0  0  0  0  0  0  0
    5.2548   18.8848   -1.1945 C   0  0  0  0  0  0  0  0  0  0  0  0
    5.6423   18.5352   -2.4263 N   0  0  0  0  0  0  0  0  0  0  0  0
    4.0396   18.5049   -0.7669 N   0  0  0  0  0  0  0  0  0  0  0  0
    3.7835   18.8422    0.5266 C   0  0  0  0  0  0  0  0  0  0  0  0
  1  2  2  0  0  0  0
  1  4  1  0  0  0  0
  1  3  1  0  0  0  0
  5  1  1  0  0  0  0
  6  7  2  1  0  0  0
  6  9  1  0  0  0  0
  6  5  1  0  0  0  0
  6  8  1  0  0  0  0
 10 11  2  6  0  0  0
 10 12  1  0  0  0  0
 10 13  1  0  0  0  0
 10  9  1  0  0  0  0
 13 14  1  0  0  0  0
 15 14  1  1  0  0  0
 15 16  1  0  0  0  0
 17 19  1  0  0  0  0
 17 15  1  0  0  0  0
 17 18  1  6  0  0  0
 19 21  1  0  0  0  0
 19 20  1  6  0  0  0
 21 16  1  0  0  0  0
 21 22  1  1  0  0  0
 22 32  1  0  0  0  0
 23 22  1  0  0  0  0
 23 24  2  0  0  0  0
 24 25  1  0  0  0  0
 25 26  1  0  0  0  0
 26 27  2  0  0  0  0
 26 28  1  0  0  0  0
 29 28  1  0  0  0  0
 29 30  1  0  0  0  0
 31 29  2  0  0  0  0
 32 25  2  0  0  0  0
 32 31  1  0  0  0  0
M  END
>  <CHROM.1>
57.64410108,-131.67804193,147.24808902,-125.43053518,-66.89250048,-117.04953507
-41.36903923,60.68996743,-61.76956604,-25.88962921,1.48926676,15.39522202
2.32927035,-2.22196747,-0.59233011,-1.01588302

>  <Name>
lig.pdb

>  <RI>
0

>  <Rbt.Current_Directory>
/home/itssahil/PROJECTS/Mol_Feturizer/New_Systems/rnas/5lwj

>  <Rbt.Executable>
rbdock ($Id: //depot/dev/client3/rdock/2013.1/src/exe/rbdock.cxx#4 $)

>  <Rbt.Library>
libRbt.so (2013.1, Build901 2013/11/27)

>  <Rbt.Parameter_File>
/export/apps/rDock/src/rDock_2013.1_src/data/scripts/dock_solv.prm

>  <Rbt.Receptor>
prm/pocket_docking_3.prm

>  <SCORE>
-23.0438

>  <SCORE.INTER>
-27.2363

>  <SCORE.INTER.CONST>
1

>  <SCORE.INTER.POLAR>
-3.30963

>  <SCORE.INTER.ROT>
8

>  <SCORE.INTER.SOLV>
17.4592

>  <SCORE.INTER.VDW>
-21.8785

>  <SCORE.INTER.norm>
-0.851135

>  <SCORE.INTRA>
4.18529

>  <SCORE.INTRA.DIHEDRAL>
6.29675

>  <SCORE.INTRA.DIHEDRAL.0>
10.9248

>  <SCORE.INTRA.POLAR>
0

>  <SCORE.INTRA.POLAR.0>
0

>  <SCORE.INTRA.REPUL>
0

>  <SCORE.INTRA.REPUL.0>
0

>  <SCORE.INTRA.SOLV>
2.24357

>  <SCORE.INTRA.SOLV.lig_0>
-51.4104

>  <SCORE.INTRA.VDW>
-0.084869

>  <SCORE.INTRA.VDW.0>
0.110327

>  <SCORE.INTRA.norm>
0.13079

>  <SCORE.RESTR>
0.00721461

>  <SCORE.RESTR.CAVITY>
0.00721461

>  <SCORE.RESTR.norm>
0.000225457

>  <SCORE.SYSTEM>
0

>  <SCORE.SYSTEM.CONST>
0

>  <SCORE.SYSTEM.DIHEDRAL>
0

>  <SCORE.SYSTEM.SOLV>
0

>  <SCORE.SYSTEM.norm>
0

>  <SCORE.heavy>
32

>  <SCORE.norm>
-0.720119

>  <RMSD>
9.087

$$$$
lig.pdb
 OpenBabel11021811523D
libRbt.so/2013.1/901 2013/11/27
 32 34  0  0  0  0  0  0  0  0999 V2000
   -3.2685   13.4147    5.4166 P   0  0  0  0  0  0  0  0  0  0  0  0
   -3.7207   14.5802    6.2623 O   0  0  0  0  0  0  0  0  0  0  0  0
   -3.5958   12.1306    6.3529 O   0  0  0  0  0  0  0  0  0  0  0  0
   -4.0208   13.1149    4.1441 O   0  0  0  0  0  0  0  0  0  0  0  0
   -1.9064   13.7120    5.0178 O   0  0  0  0  0  0  0  0  0  0  0  0
   -1.1455   12.4484    4.8767 P   0  0  1  0  0  0  0  0  0  0  0  0
   -1.0050   11.8415    6.2213 O   0  0  0  0  0  0  0  0  0  0  0  0
   -1.8796   11.5091    3.9972 O   0  0  0  0  0  0  0  0  0  0  0  0
    0.1905   12.7385    4.2984 O   0  0  0  0  0  0  0  0  0  0  0  0
    0.3678   13.5291    3.0573 P   0  0  1  0  0  0  0  0  0  0  0  0
   -0.2082   12.9152    1.8436 O   0  0  0  0  0  0  0  0  0  0  0  0
    0.1201   14.9814    3.1973 O   0  0  0  0  0  0  0  0  0  0  0  0
    1.9582   13.4107    2.7828 O   0  0  0  0  0  0  0  0  0  0  0  0
    2.8579   14.4640    3.0719 C   0  0  0  0  0  0  0  0  0  0  0  0
    2.7486   15.6242    2.0726 C   0  0  1  0  0  0  0  0  0  0  0  0
    1.9654   16.6672    2.6160 O   0  0  0  0  0  0  0  0  0  0  0  0
    4.0817   16.3479    1.8141 C   0  0  1  0  0  0  0  0  0  0  0  0
    4.9822   15.6763    0.9491 O   0  0  0  0  0  0  0  0  0  0  0  0
    3.6450   17.7085    1.2717 C   0  0  1  0  0  0  0  0  0  0  0  0
    3.5465   17.7142   -0.1416 O   0  0  0  0  0  0  0  0  0  0  0  0
    2.2413   17.8336    1.8612 C   0  0  2  0  0  0  0  0  0  0  0  0
    1.9928   19.0573    2.6530 N   0  0  0  0  0  0  0  0  0  0  0  0
    0.8186   19.6945    2.9651 C   0  0  0  0  0  0  0  0  0  0  0  0
    0.9787   20.8211    3.6100 N   0  0  0  0  0  0  0  0  0  0  0  0
    2.3576   20.9325    3.7613 C   0  0  0  0  0  0  0  0  0  0  0  0
    3.1534   21.9680    4.3483 C   0  0  0  0  0  0  0  0  0  0  0  0
    2.7680   23.0335    4.8251 O   0  0  0  0  0  0  0  0  0  0  0  0
    4.5239   21.6756    4.3294 N   0  0  0  0  0  0  0  0  0  0  0  0
    5.0528   20.4951    3.8299 C   0  0  0  0  0  0  0  0  0  0  0  0
    6.3675   20.2881    3.9655 N   0  0  0  0  0  0  0  0  0  0  0  0
    4.3072   19.5484    3.2369 N   0  0  0  0  0  0  0  0  0  0  0  0
    2.9748   19.8262    3.2273 C   0  0  0  0  0  0  0  0  0  0  0  0
  1  2  2  0  0  0  0
  1  4  1  0  0  0  0
  1  3  1  0  0  0  0
  5  1  1  0  0  0  0
  6  7  2  1  0  0  0
  6  9  1  0  0  0  0
  6  5  1  0  0  0  0
  6  8  1  0  0  0  0
 10 11  2  6  0  0  0
 10 12  1  0  0  0  0
 10 13  1  0  0  0  0
 10  9  1  0  0  0  0
 13 14  1  0  0  0  0
 15 14  1  1  0  0  0
 15 16  1  0  0  0  0
 17 19  1  0  0  0  0
 17 15  1  0  0  0  0
 17 18  1  6  0  0  0
 19 21  1  0  0  0  0
 19 20  1  6  0  0  0
 21 16  1  0  0  0  0
 21 22  1  1  0  0  0
 22 32  1  0  0  0  0
 23 22  1  0  0  0  0
 23 24  2  0  0  0  0
 24 25  1  0  0  0  0
 25 26  1  0  0  0  0
 26 27  2  0  0  0  0
 26 28  1  0  0  0  0
 29 28  1  0  0  0  0
 29 30  1  0  0  0  0
 31 29  2  0  0  0  0
 32 25  2  0  0  0  0
 32 31  1  0  0  0  0
M  END
>  <CHROM.1>
148.61395063,-51.69538499,-67.11502672,-102.90084816,-63.78634704,-73.55040549
99.45400627,-62.20910778,59.12277200,-78.44729594,1.00625008,16.06043297
3.60136865,2.39093202,-0.58015581,-2.83374411

>  <Name>
lig.pdb

>  <RI>
1.82117e+07

>  <Rbt.Current_Directory>
/home/itssahil/PROJECTS/Mol_Feturizer/New_Systems/rnas/5lwj

>  <Rbt.Executable>
rbdock ($Id: //depot/dev/client3/rdock/2013.1/src/exe/rbdock.cxx#4 $)

>  <Rbt.Library>
libRbt.so (2013.1, Build901 2013/11/27)

>  <Rbt.Parameter_File>
/export/apps/rDock/src/rDock_2013.1_src/data/scripts/dock_solv.prm

>  <Rbt.Receptor>
prm/pocket_docking_5.prm

>  <SCORE>
-39.3763

>  <SCORE.INTER>
-36.8176

>  <SCORE.INTER.CONST>
1

>  <SCORE.INTER.POLAR>
-4.10785

>  <SCORE.INTER.ROT>
8

>  <SCORE.INTER.SOLV>
20.8685

>  <SCORE.INTER.VDW>
-26.7417

>  <SCORE.INTER.norm>
-1.15055

>  <SCORE.INTRA>
-2.60988

>  <SCORE.INTRA.DIHEDRAL>
-0.229838

>  <SCORE.INTRA.DIHEDRAL.0>
10.9248

>  <SCORE.INTRA.POLAR>
0

>  <SCORE.INTRA.POLAR.0>
0

>  <SCORE.INTRA.REPUL>
0.00268936

>  <SCORE.INTRA.REPUL.0>
0

>  <SCORE.INTRA.SOLV>
-0.498979

>  <SCORE.INTRA.SOLV.lig_0>
-51.4104

>  <SCORE.INTRA.VDW>
-2.25892

>  <SCORE.INTRA.VDW.0>
0.110327

>  <SCORE.INTRA.norm>
-0.0815587

>  <SCORE.RESTR>
0.05118

>  <SCORE.RESTR.CAVITY>
0.05118

>  <SCORE.RESTR.norm>
0.00159937

>  <SCORE.SYSTEM>
0

>  <SCORE.SYSTEM.CONST>
0

>  <SCORE.SYSTEM.DIHEDRAL>
0

>  <SCORE.SYSTEM.SOLV>
0

>  <SCORE.SYSTEM.norm>
0

>  <SCORE.heavy>
32

>  <SCORE.norm>
-1.23051

>  <RMSD>
9.099

$$$$
lig.pdb
 OpenBabel11021811523D
libRbt.so/2013.1/901 2013/11/27
 32 34  0  0  0  0  0  0  0  0999 V2000
   -0.5311   11.5169    5.4482 P   0  0  0  0  0  0  0  0  0  0  0  0
   -1.6338   11.9357    6.3898 O   0  0  0  0  0  0  0  0  0  0  0  0
    0.7634   12.3106    6.0199 O   0  0  0  0  0  0  0  0  0  0  0  0
   -0.0851   10.0760    5.4588 O   0  0  0  0  0  0  0  0  0  0  0  0
   -1.0257   11.7747    4.1098 O   0  0  0  0  0  0  0  0  0  0  0  0
   -0.1868   12.8112    3.4637 P   0  0  1  0  0  0  0  0  0  0  0  0
   -0.4424   14.1024    4.1444 O   0  0  0  0  0  0  0  0  0  0  0  0
    1.2467   12.4655    3.6060 O   0  0  0  0  0  0  0  0  0  0  0  0
   -0.5404   12.9066    2.0251 O   0  0  0  0  0  0  0  0  0  0  0  0
   -1.6042   13.8086    1.5234 P   0  0  1  0  0  0  0  0  0  0  0  0
   -2.9671   13.2404    1.5602 O   0  0  0  0  0  0  0  0  0  0  0  0
   -1.5032   15.2129    1.9792 O   0  0  0  0  0  0  0  0  0  0  0  0
   -1.2991   13.8717   -0.0645 O   0  0  0  0  0  0  0  0  0  0  0  0
   -2.0235   14.7123   -0.9429 C   0  0  0  0  0  0  0  0  0  0  0  0
   -1.3644   14.8300   -2.3242 C   0  0  1  0  0  0  0  0  0  0  0  0
   -0.0345   15.2894   -2.1955 O   0  0  0  0  0  0  0  0  0  0  0  0
   -1.1524   13.4779   -3.0276 C   0  0  1  0  0  0  0  0  0  0  0  0
   -2.3094   12.9100   -3.6184 O   0  0  0  0  0  0  0  0  0  0  0  0
   -0.0552   13.7795   -4.0481 C   0  0  1  0  0  0  0  0  0  0  0  0
   -0.5846   14.1727   -5.3020 O   0  0  0  0  0  0  0  0  0  0  0  0
    0.6323   14.9837   -3.4072 C   0  0  2  0  0  0  0  0  0  0  0  0
    2.0895   14.8450   -3.1986 N   0  0  0  0  0  0  0  0  0  0  0  0
    3.0119   15.7430   -2.7240 C   0  0  0  0  0  0  0  0  0  0  0  0
    4.2458   15.3110   -2.7646 N   0  0  0  0  0  0  0  0  0  0  0  0
    4.1377   14.0229   -3.2802 C   0  0  0  0  0  0  0  0  0  0  0  0
    5.1441   13.0555   -3.5986 C   0  0  0  0  0  0  0  0  0  0  0  0
    6.3638   13.1837   -3.5139 O   0  0  0  0  0  0  0  0  0  0  0  0
    4.6077   11.8505   -4.0720 N   0  0  0  0  0  0  0  0  0  0  0  0
    3.2477   11.6049   -4.1863 C   0  0  0  0  0  0  0  0  0  0  0  0
    2.8587   10.3776   -4.5499 N   0  0  0  0  0  0  0  0  0  0  0  0
    2.3095   12.5317   -3.9324 N   0  0  0  0  0  0  0  0  0  0  0  0
    2.8144   13.7163   -3.4915 C   0  0  0  0  0  0  0  0  0  0  0  0
  1  2  2  0  0  0  0
  1  4  1  0  0  0  0
  1  3  1  0  0  0  0
  5  1  1  0  0  0  0
  6  7  2  1  0  0  0
  6  9  1  0  0  0  0
  6  5  1  0  0  0  0
  6  8  1  0  0  0  0
 10 11  2  1  0  0  0
 10 12  1  0  0  0  0
 10 13  1  0  0  0  0
 10  9  1  0  0  0  0
 13 14  1  0  0  0  0
 15 14  1  1  0  0  0
 15 16  1  0  0  0  0
 17 19  1  0  0  0  0
 17 15  1  0  0  0  0
 17 18  1  6  0  0  0
 19 21  1  0  0  0  0
 19 20  1  6  0  0  0
 21 16  1  0  0  0  0
 21 22  1  1  0  0  0
 22 32  1  0  0  0  0
 23 22  1  0  0  0  0
 23 24  2  0  0  0  0
 24 25  1  0  0  0  0
 25 26  1  0  0  0  0
 26 27  2  0  0  0  0
 26 28  1  0  0  0  0
 29 28  1  0  0  0  0
 29 30  1  0  0  0  0
 31 29  2  0  0  0  0
 32 25  2  0  0  0  0
 32 31  1  0  0  0  0
M  END
>  <CHROM.1>
116.14193481,89.13119175,-69.46544619,-175.21749047,-85.88759136,167.51110973
-56.44243085,67.28450989,-177.35167538,-59.72507501,0.51453069,13.23029746
-0.04041779,-1.95779965,0.29402087,-1.31921514

>  <Name>
lig.pdb

>  <RI>
0

>  <Rbt.Current_Directory>
/home/itssahil/PROJECTS/Mol_Feturizer/New_Systems/rnas/5lwj

>  <Rbt.Executable>
rbdock ($Id: //depot/dev/client3/rdock/2013.1/src/exe/rbdock.cxx#4 $)

>  <Rbt.Library>
libRbt.so (2013.1, Build901 2013/11/27)

>  <Rbt.Parameter_File>
/export/apps/rDock/src/rDock_2013.1_src/data/scripts/dock_solv.prm

>  <Rbt.Receptor>
prm/pocket_docking_6.prm

>  <SCORE>
-27.8636

>  <SCORE.INTER>
-25.0038

>  <SCORE.INTER.CONST>
1

>  <SCORE.INTER.POLAR>
-3.0451

>  <SCORE.INTER.ROT>
8

>  <SCORE.INTER.SOLV>
20.8424

>  <SCORE.INTER.VDW>
-22.3997

>  <SCORE.INTER.norm>
-0.78137

>  <SCORE.INTRA>
-2.85976

>  <SCORE.INTRA.DIHEDRAL>
-2.80417

>  <SCORE.INTRA.DIHEDRAL.0>
10.9248

>  <SCORE.INTRA.POLAR>
-0.0460963

>  <SCORE.INTRA.POLAR.0>
0

>  <SCORE.INTRA.REPUL>
0

>  <SCORE.INTRA.REPUL.0>
0

>  <SCORE.INTRA.SOLV>
-0.575024

>  <SCORE.INTRA.SOLV.lig_0>
-51.4104

>  <SCORE.INTRA.VDW>
-1.01344

>  <SCORE.INTRA.VDW.0>
0.110327

>  <SCORE.INTRA.norm>
-0.0893676

>  <SCORE.RESTR>
0

>  <SCORE.RESTR.CAVITY>
0

>  <SCORE.RESTR.norm>
0

>  <SCORE.SYSTEM>
0

>  <SCORE.SYSTEM.CONST>
0

>  <SCORE.SYSTEM.DIHEDRAL>
0

>  <SCORE.SYSTEM.SOLV>
0

>  <SCORE.SYSTEM.norm>
0

>  <SCORE.heavy>
32

>  <SCORE.norm>
-0.870737

>  <RMSD>
9.119

$$$$
lig.pdb
 OpenBabel11021811523D
libRbt.so/2013.1/901 2013/11/27
 32 34  0  0  0  0  0  0  0  0999 V2000
    1.0414   11.2920    5.8514 P   0  0  0  0  0  0  0  0  0  0  0  0
    2.2785   11.9093    6.4569 O   0  0  0  0  0  0  0  0  0  0  0  0
    1.4718   11.0424    4.3070 O   0  0  0  0  0  0  0  0  0  0  0  0
    0.6195    9.9212    6.3182 O   0  0  0  0  0  0  0  0  0  0  0  0
   -0.0543   12.1833    6.1795 O   0  0  0  0  0  0  0  0  0  0  0  0
   -1.0078   12.2329    5.0464 P   0  0  1  0  0  0  0  0  0  0  0  0
   -1.5468   10.8685    4.8367 O   0  0  0  0  0  0  0  0  0  0  0  0
   -2.1265   13.1507    5.3639 O   0  0  0  0  0  0  0  0  0  0  0  0
   -0.3024   12.7028    3.8277 O   0  0  0  0  0  0  0  0  0  0  0  0
   -0.8423   13.7737    2.9567 P   0  0  1  0  0  0  0  0  0  0  0  0
   -2.2806   13.6518    2.6435 O   0  0  0  0  0  0  0  0  0  0  0  0
   -0.3928   15.1429    3.2930 O   0  0  0  0  0  0  0  0  0  0  0  0
   -0.1498   13.4556    1.5291 O   0  0  0  0  0  0  0  0  0  0  0  0
    1.2535   13.3646    1.3708 C   0  0  0  0  0  0  0  0  0  0  0  0
    1.6665   13.0829   -0.0806 C   0  0  1  0  0  0  0  0  0  0  0  0
    1.1838   14.1003   -0.9340 O   0  0  0  0  0  0  0  0  0  0  0  0
    3.1831   13.1764   -0.3233 C   0  0  1  0  0  0  0  0  0  0  0  0
    3.9408   12.0622    0.1177 O   0  0  0  0  0  0  0  0  0  0  0  0
    3.2857   13.4011   -1.8317 C   0  0  1  0  0  0  0  0  0  0  0  0
    3.4033   12.1839   -2.5469 O   0  0  0  0  0  0  0  0  0  0  0  0
    1.9236   14.0206   -2.1393 C   0  0  2  0  0  0  0  0  0  0  0  0
    1.9627   15.3256   -2.8332 N   0  0  0  0  0  0  0  0  0  0  0  0
    1.2104   15.8040   -3.8760 C   0  0  0  0  0  0  0  0  0  0  0  0
    1.5851   16.9805   -4.3076 N   0  0  0  0  0  0  0  0  0  0  0  0
    2.6482   17.3237   -3.4778 C   0  0  0  0  0  0  0  0  0  0  0  0
    3.5009   18.4739   -3.4775 C   0  0  0  0  0  0  0  0  0  0  0  0
    3.4927   19.4161   -4.2670 O   0  0  0  0  0  0  0  0  0  0  0  0
    4.4423   18.4510   -2.4396 N   0  0  0  0  0  0  0  0  0  0  0  0
    4.5188   17.4424   -1.4911 C   0  0  0  0  0  0  0  0  0  0  0  0
    5.3911   17.5879   -0.4873 N   0  0  0  0  0  0  0  0  0  0  0  0
    3.7489   16.3424   -1.5241 N   0  0  0  0  0  0  0  0  0  0  0  0
    2.8424   16.3380   -2.5394 C   0  0  0  0  0  0  0  0  0  0  0  0
  1  2  2  0  0  0  0
  1  4  1  0  0  0  0
  1  3  1  0  0  0  0
  5  1  1  0  0  0  0
  6  7  2  6  0  0  0
  6  9  1  0  0  0  0
  6  5  1  0  0  0  0
  6  8  1  0  0  0  0
 10 11  2  6  0  0  0
 10 12  1  0  0  0  0
 10 13  1  0  0  0  0
 10  9  1  0  0  0  0
 13 14  1  0  0  0  0
 15 14  1  1  0  0  0
 15 16  1  0  0  0  0
 17 19  1  0  0  0  0
 17 15  1  0  0  0  0
 17 18  1  6  0  0  0
 19 21  1  0  0  0  0
 19 20  1  6  0  0  0
 21 16  1  0  0  0  0
 21 22  1  1  0  0  0
 22 32  1  0  0  0  0
 23 22  1  0  0  0  0
 23 24  2  0  0  0  0
 24 25  1  0  0  0  0
 25 26  1  0  0  0  0
 26 27  2  0  0  0  0
 26 28  1  0  0  0  0
 29 28  1  0  0  0  0
 29 30  1  0  0  0  0
 31 29  2  0  0  0  0
 32 25  2  0  0  0  0
 32 31  1  0  0  0  0
M  END
>  <CHROM.1>
143.49709205,-131.71748336,61.52774178,-56.04226692,-45.04060514,-178.83424368
58.62122202,-167.24500516,179.50907567,-98.48157345,1.38509917,13.97979327
1.22230410,-1.96080598,0.44405231,-0.85212396

>  <Name>
lig.pdb

>  <RI>
0

>  <Rbt.Current_Directory>
/home/itssahil/PROJECTS/Mol_Feturizer/New_Systems/rnas/5lwj

>  <Rbt.Executable>
rbdock ($Id: //depot/dev/client3/rdock/2013.1/src/exe/rbdock.cxx#4 $)

>  <Rbt.Library>
libRbt.so (2013.1, Build901 2013/11/27)

>  <Rbt.Parameter_File>
/export/apps/rDock/src/rDock_2013.1_src/data/scripts/dock_solv.prm

>  <Rbt.Receptor>
prm/pocket_docking_6.prm

>  <SCORE>
-37.6598

>  <SCORE.INTER>
-33.114

>  <SCORE.INTER.CONST>
1

>  <SCORE.INTER.POLAR>
-3.28006

>  <SCORE.INTER.ROT>
8

>  <SCORE.INTER.SOLV>
19.8813

>  <SCORE.INTER.VDW>
-26.7029

>  <SCORE.INTER.norm>
-1.03481

>  <SCORE.INTRA>
-4.54572

>  <SCORE.INTRA.DIHEDRAL>
-2.98577

>  <SCORE.INTRA.DIHEDRAL.0>
10.9248

>  <SCORE.INTRA.POLAR>
0

>  <SCORE.INTRA.POLAR.0>
0

>  <SCORE.INTRA.REPUL>
0

>  <SCORE.INTRA.REPUL.0>
0

>  <SCORE.INTRA.SOLV>
-0.426061

>  <SCORE.INTRA.SOLV.lig_0>
-51.4104

>  <SCORE.INTRA.VDW>
-2.83981

>  <SCORE.INTRA.VDW.0>
0.110327

>  <SCORE.INTRA.norm>
-0.142054

>  <SCORE.RESTR>
0

>  <SCORE.RESTR.CAVITY>
0

>  <SCORE.RESTR.norm>
0

>  <SCORE.SYSTEM>
0

>  <SCORE.SYSTEM.CONST>
0

>  <SCORE.SYSTEM.DIHEDRAL>
0

>  <SCORE.SYSTEM.SOLV>
0

>  <SCORE.SYSTEM.norm>
0

>  <SCORE.heavy>
32

>  <SCORE.norm>
-1.17687

>  <RMSD>
9.122

$$$$
lig.pdb
 OpenBabel11021811523D
libRbt.so/2013.1/901 2013/11/27
 32 34  0  0  0  0  0  0  0  0999 V2000
   -1.1463   12.1264    5.3558 P   0  0  0  0  0  0  0  0  0  0  0  0
   -1.4831   10.9602    4.4588 O   0  0  0  0  0  0  0  0  0  0  0  0
   -2.4163   12.1957    6.3632 O   0  0  0  0  0  0  0  0  0  0  0  0
    0.0299   11.9978    6.2913 O   0  0  0  0  0  0  0  0  0  0  0  0
   -0.8394   13.2361    4.4743 O   0  0  0  0  0  0  0  0  0  0  0  0
   -2.0416   13.5850    3.6815 P   0  0  1  0  0  0  0  0  0  0  0  0
   -2.3140   12.4718    2.7420 O   0  0  0  0  0  0  0  0  0  0  0  0
   -3.2085   13.7571    4.5779 O   0  0  0  0  0  0  0  0  0  0  0  0
   -1.7921   14.8429    2.9339 O   0  0  0  0  0  0  0  0  0  0  0  0
   -1.7317   16.1667    3.5979 P   0  0  1  0  0  0  0  0  0  0  0  0
   -3.0448   16.7944    3.8498 O   0  0  0  0  0  0  0  0  0  0  0  0
   -0.7707   16.2634    4.7191 O   0  0  0  0  0  0  0  0  0  0  0  0
   -1.1104   17.1165    2.4444 O   0  0  0  0  0  0  0  0  0  0  0  0
   -1.8961   17.6445    1.3924 C   0  0  0  0  0  0  0  0  0  0  0  0
   -1.0546   18.3760    0.3374 C   0  0  1  0  0  0  0  0  0  0  0  0
   -0.3890   19.4783    0.9192 O   0  0  0  0  0  0  0  0  0  0  0  0
    0.1307   17.5501   -0.1924 C   0  0  1  0  0  0  0  0  0  0  0  0
   -0.1997   16.5473   -1.1387 O   0  0  0  0  0  0  0  0  0  0  0  0
    1.0738   18.6105   -0.7601 C   0  0  1  0  0  0  0  0  0  0  0  0
    0.8338   18.8592   -2.1340 O   0  0  0  0  0  0  0  0  0  0  0  0
    0.6603   19.8439    0.0407 C   0  0  2  0  0  0  0  0  0  0  0  0
    1.7542   20.5260    0.7647 N   0  0  0  0  0  0  0  0  0  0  0  0
    1.9301   21.8516    1.0713 C   0  0  0  0  0  0  0  0  0  0  0  0
    3.0758   22.1188    1.6430 N   0  0  0  0  0  0  0  0  0  0  0  0
    3.6998   20.8794    1.7483 C   0  0  0  0  0  0  0  0  0  0  0  0
    4.9927   20.5228    2.2495 C   0  0  0  0  0  0  0  0  0  0  0  0
    5.8687   21.2745    2.6726 O   0  0  0  0  0  0  0  0  0  0  0  0
    5.2283   19.1420    2.2093 N   0  0  0  0  0  0  0  0  0  0  0  0
    4.2975   18.2143    1.7665 C   0  0  0  0  0  0  0  0  0  0  0  0
    4.6017   16.9163    1.8769 N   0  0  0  0  0  0  0  0  0  0  0  0
    3.1051   18.5574    1.2524 N   0  0  0  0  0  0  0  0  0  0  0  0
    2.8682   19.8976    1.2640 C   0  0  0  0  0  0  0  0  0  0  0  0
  1  2  2  0  0  0  0
  1  4  1  0  0  0  0
  1  3  1  0  0  0  0
  5  1  1  0  0  0  0
  6  7  2  6  0  0  0
  6  9  1  0  0  0  0
  6  5  1  0  0  0  0
  6  8  1  0  0  0  0
 10 11  2  1  0  0  0
 10 12  1  0  0  0  0
 10 13  1  0  0  0  0
 10  9  1  0  0  0  0
 13 14  1  0  0  0  0
 15 14  1  1  0  0  0
 15 16  1  0  0  0  0
 17 19  1  0  0  0  0
 17 15  1  0  0  0  0
 17 18  1  6  0  0  0
 19 21  1  0  0  0  0
 19 20  1  6  0  0  0
 21 16  1  0  0  0  0
 21 22  1  1  0  0  0
 22 32  1  0  0  0  0
 23 22  1  0  0  0  0
 23 24  2  0  0  0  0
 24 25  1  0  0  0  0
 25 26  1  0  0  0  0
 26 27  2  0  0  0  0
 26 28  1  0  0  0  0
 29 28  1  0  0  0  0
 29 30  1  0  0  0  0
 31 29  2  0  0  0  0
 32 25  2  0  0  0  0
 32 31  1  0  0  0  0
M  END
>  <CHROM.1>
63.10871769,-72.31552545,-68.22286582,80.17295654,-82.41417514,-173.28196487
-61.74245028,-63.73253392,58.47525444,-87.53304538,0.26478466,16.67107011
2.51275446,-2.16662230,-0.39199296,-0.72540229

>  <Name>
lig.pdb

>  <RI>
0

>  <Rbt.Current_Directory>
/home/itssahil/PROJECTS/Mol_Feturizer/New_Systems/rnas/5lwj

>  <Rbt.Executable>
rbdock ($Id: //depot/dev/client3/rdock/2013.1/src/exe/rbdock.cxx#4 $)

>  <Rbt.Library>
libRbt.so (2013.1, Build901 2013/11/27)

>  <Rbt.Parameter_File>
/export/apps/rDock/src/rDock_2013.1_src/data/scripts/dock_solv.prm

>  <Rbt.Receptor>
prm/pocket_docking_6.prm

>  <SCORE>
-26.4588

>  <SCORE.INTER>
-21.7958

>  <SCORE.INTER.CONST>
1

>  <SCORE.INTER.POLAR>
-3.1977

>  <SCORE.INTER.ROT>
8

>  <SCORE.INTER.SOLV>
14.7524

>  <SCORE.INTER.VDW>
-17.7223

>  <SCORE.INTER.norm>
-0.681118

>  <SCORE.INTRA>
-4.66304

>  <SCORE.INTRA.DIHEDRAL>
-6.53883

>  <SCORE.INTRA.DIHEDRAL.0>
10.9248

>  <SCORE.INTRA.POLAR>
0

>  <SCORE.INTRA.POLAR.0>
0

>  <SCORE.INTRA.REPUL>
0

>  <SCORE.INTRA.REPUL.0>
0

>  <SCORE.INTRA.SOLV>
-0.273769

>  <SCORE.INTRA.SOLV.lig_0>
-51.4104

>  <SCORE.INTRA.VDW>
-1.25674

>  <SCORE.INTRA.VDW.0>
0.110327

>  <SCORE.INTRA.norm>
-0.14572

>  <SCORE.RESTR>
0

>  <SCORE.RESTR.CAVITY>
0

>  <SCORE.RESTR.norm>
0

>  <SCORE.SYSTEM>
0

>  <SCORE.SYSTEM.CONST>
0

>  <SCORE.SYSTEM.DIHEDRAL>
0

>  <SCORE.SYSTEM.SOLV>
0

>  <SCORE.SYSTEM.norm>
0

>  <SCORE.heavy>
32

>  <SCORE.norm>
-0.826838

>  <RMSD>
9.126

$$$$
lig.pdb
 OpenBabel11021811523D
libRbt.so/2013.1/901 2013/11/27
 32 34  0  0  0  0  0  0  0  0999 V2000
   -1.3046   13.8453    3.3158 P   0  0  0  0  0  0  0  0  0  0  0  0
   -2.0159   14.3041    4.5654 O   0  0  0  0  0  0  0  0  0  0  0  0
   -1.5891   12.2481    3.2946 O   0  0  0  0  0  0  0  0  0  0  0  0
   -1.8292   14.3072    1.9791 O   0  0  0  0  0  0  0  0  0  0  0  0
    0.0495   14.3547    3.4140 O   0  0  0  0  0  0  0  0  0  0  0  0
    0.9862   13.3935    2.7861 P   0  0  1  0  0  0  0  0  0  0  0  0
    0.8684   12.1005    3.5005 O   0  0  0  0  0  0  0  0  0  0  0  0
    0.6292   13.1930    1.3624 O   0  0  0  0  0  0  0  0  0  0  0  0
    2.3719   13.9160    2.8882 O   0  0  0  0  0  0  0  0  0  0  0  0
    2.9166   14.9213    1.9451 P   0  0  1  0  0  0  0  0  0  0  0  0
    3.0137   14.4673    0.5429 O   0  0  0  0  0  0  0  0  0  0  0  0
    2.3929   16.2944    2.1195 O   0  0  0  0  0  0  0  0  0  0  0  0
    4.4709   15.0181    2.3851 O   0  0  0  0  0  0  0  0  0  0  0  0
    5.4670   15.5564    1.5362 C   0  0  0  0  0  0  0  0  0  0  0  0
    5.1025   16.9515    1.0096 C   0  0  1  0  0  0  0  0  0  0  0  0
    4.7534   17.8042    2.0808 O   0  0  0  0  0  0  0  0  0  0  0  0
    6.2894   17.7106    0.3909 C   0  0  1  0  0  0  0  0  0  0  0  0
    6.6583   17.3040   -0.9163 O   0  0  0  0  0  0  0  0  0  0  0  0
    5.8440   19.1715    0.4518 C   0  0  1  0  0  0  0  0  0  0  0  0
    5.1714   19.5750   -0.7280 O   0  0  0  0  0  0  0  0  0  0  0  0
    4.8381   19.1342    1.6008 C   0  0  2  0  0  0  0  0  0  0  0  0
    5.0968   20.0872    2.7012 N   0  0  0  0  0  0  0  0  0  0  0  0
    4.2490   20.9431    3.3576 C   0  0  0  0  0  0  0  0  0  0  0  0
    4.8436   21.7219    4.2239 N   0  0  0  0  0  0  0  0  0  0  0  0
    6.1809   21.3423    4.1597 C   0  0  0  0  0  0  0  0  0  0  0  0
    7.3322   21.8547    4.8394 C   0  0  0  0  0  0  0  0  0  0  0  0
    7.3836   22.7999    5.6237 O   0  0  0  0  0  0  0  0  0  0  0  0
    8.5068   21.1627    4.5143 N   0  0  0  0  0  0  0  0  0  0  0  0
    8.5472   20.0748    3.6553 C   0  0  0  0  0  0  0  0  0  0  0  0
    9.7115   19.4326    3.5083 N   0  0  0  0  0  0  0  0  0  0  0  0
    7.4735   19.6286    2.9833 N   0  0  0  0  0  0  0  0  0  0  0  0
    6.3272   20.3036    3.2710 C   0  0  0  0  0  0  0  0  0  0  0  0
  1  2  2  0  0  0  0
  1  4  1  0  0  0  0
  1  3  1  0  0  0  0
  5  1  1  0  0  0  0
  6  7  2  1  0  0  0
  6  9  1  0  0  0  0
  6  5  1  0  0  0  0
  6  8  1  0  0  0  0
 10 11  2  6  0  0  0
 10 12  1  0  0  0  0
 10 13  1  0  0  0  0
 10  9  1  0  0  0  0
 13 14  1  0  0  0  0
 15 14  1  1  0  0  0
 15 16  1  0  0  0  0
 17 19  1  0  0  0  0
 17 15  1  0  0  0  0
 17 18  1  6  0  0  0
 19 21  1  0  0  0  0
 19 20  1  6  0  0  0
 21 16  1  0  0  0  0
 21 22  1  1  0  0  0
 22 32  1  0  0  0  0
 23 22  1  0  0  0  0
 23 24  2  0  0  0  0
 24 25  1  0  0  0  0
 25 26  1  0  0  0  0
 26 27  2  0  0  0  0
 26 28  1  0  0  0  0
 29 28  1  0  0  0  0
 29 30  1  0  0  0  0
 31 29  2  0  0  0  0
 32 25  2  0  0  0  0
 32 31  1  0  0  0  0
M  END
>  <CHROM.1>
146.28539654,-81.53435466,-59.69472663,161.32455425,-63.78337227,52.65372637
52.04821920,179.24107765,57.48956317,-102.26713174,3.65776518,16.87364667
2.55327844,2.58480462,-0.56032741,-2.38506677

>  <Name>
lig.pdb

>  <RI>
0

>  <Rbt.Current_Directory>
/home/itssahil/PROJECTS/Mol_Feturizer/New_Systems/rnas/5lwj

>  <Rbt.Executable>
rbdock ($Id: //depot/dev/client3/rdock/2013.1/src/exe/rbdock.cxx#4 $)

>  <Rbt.Library>
libRbt.so (2013.1, Build901 2013/11/27)

>  <Rbt.Parameter_File>
/export/apps/rDock/src/rDock_2013.1_src/data/scripts/dock_solv.prm

>  <Rbt.Receptor>
prm/pocket_docking_4.prm

>  <SCORE>
-35.1456

>  <SCORE.INTER>
-29.8247

>  <SCORE.INTER.CONST>
1

>  <SCORE.INTER.POLAR>
-2.69817

>  <SCORE.INTER.ROT>
8

>  <SCORE.INTER.SOLV>
18.2765

>  <SCORE.INTER.VDW>
-25.9147

>  <SCORE.INTER.norm>
-0.932021

>  <SCORE.INTRA>
-5.3331

>  <SCORE.INTRA.DIHEDRAL>
-5.24763

>  <SCORE.INTRA.DIHEDRAL.0>
10.9248

>  <SCORE.INTRA.POLAR>
0

>  <SCORE.INTRA.POLAR.0>
0

>  <SCORE.INTRA.REPUL>
0

>  <SCORE.INTRA.REPUL.0>
0

>  <SCORE.INTRA.SOLV>
-0.188407

>  <SCORE.INTRA.SOLV.lig_0>
-51.4104

>  <SCORE.INTRA.VDW>
-2.61508

>  <SCORE.INTRA.VDW.0>
0.110327

>  <SCORE.INTRA.norm>
-0.166659

>  <SCORE.RESTR>
0.0122062

>  <SCORE.RESTR.CAVITY>
0.0122062

>  <SCORE.RESTR.norm>
0.000381443

>  <SCORE.SYSTEM>
0

>  <SCORE.SYSTEM.CONST>
0

>  <SCORE.SYSTEM.DIHEDRAL>
0

>  <SCORE.SYSTEM.SOLV>
0

>  <SCORE.SYSTEM.norm>
0

>  <SCORE.heavy>
32

>  <SCORE.norm>
-1.0983

>  <RMSD>
9.130

$$$$
lig.pdb
 OpenBabel11021811523D
libRbt.so/2013.1/901 2013/11/27
 32 34  0  0  0  0  0  0  0  0999 V2000
   -3.1379   15.3802    4.5451 P   0  0  0  0  0  0  0  0  0  0  0  0
   -4.4121   16.1438    4.8123 O   0  0  0  0  0  0  0  0  0  0  0  0
   -2.9595   15.5111    2.9378 O   0  0  0  0  0  0  0  0  0  0  0  0
   -1.8417   15.9335    5.0826 O   0  0  0  0  0  0  0  0  0  0  0  0
   -3.3095   14.0817    5.1674 O   0  0  0  0  0  0  0  0  0  0  0  0
   -2.4614   13.0846    4.4731 P   0  0  1  0  0  0  0  0  0  0  0  0
   -2.6265   11.7810    5.1582 O   0  0  0  0  0  0  0  0  0  0  0  0
   -2.8915   12.9467    3.0622 O   0  0  0  0  0  0  0  0  0  0  0  0
   -1.0433   13.5203    4.5260 O   0  0  0  0  0  0  0  0  0  0  0  0
   -0.0010   12.9528    3.6380 P   0  0  1  0  0  0  0  0  0  0  0  0
    0.9976   12.1031    4.3182 O   0  0  0  0  0  0  0  0  0  0  0  0
   -0.4962   12.4203    2.3490 O   0  0  0  0  0  0  0  0  0  0  0  0
    0.8711   14.2547    3.2339 O   0  0  0  0  0  0  0  0  0  0  0  0
    0.4424   15.1795    2.2523 C   0  0  0  0  0  0  0  0  0  0  0  0
    1.3227   15.1559    0.9950 C   0  0  1  0  0  0  0  0  0  0  0  0
    2.5848   15.7288    1.2693 O   0  0  0  0  0  0  0  0  0  0  0  0
    1.7228   13.7400    0.5445 C   0  0  1  0  0  0  0  0  0  0  0  0
    0.7161   13.0096   -0.1360 O   0  0  0  0  0  0  0  0  0  0  0  0
    2.9624   13.9810   -0.3167 C   0  0  1  0  0  0  0  0  0  0  0  0
    2.6374   14.1562   -1.6844 O   0  0  0  0  0  0  0  0  0  0  0  0
    3.4656   15.3109    0.2416 C   0  0  2  0  0  0  0  0  0  0  0  0
    4.8701   15.3139    0.7035 N   0  0  0  0  0  0  0  0  0  0  0  0
    5.4539   14.7080    1.7872 C   0  0  0  0  0  0  0  0  0  0  0  0
    6.7169   15.0073    1.9488 N   0  0  0  0  0  0  0  0  0  0  0  0
    7.0041   15.8543    0.8826 C   0  0  0  0  0  0  0  0  0  0  0  0
    8.2088   16.5459    0.5359 C   0  0  0  0  0  0  0  0  0  0  0  0
    9.2703   16.5643    1.1558 O   0  0  0  0  0  0  0  0  0  0  0  0
    8.0897   17.2815   -0.6510 N   0  0  0  0  0  0  0  0  0  0  0  0
    6.9415   17.3094   -1.4281 C   0  0  0  0  0  0  0  0  0  0  0  0
    6.9871   17.9631   -2.5943 N   0  0  0  0  0  0  0  0  0  0  0  0
    5.7992   16.6983   -1.0737 N   0  0  0  0  0  0  0  0  0  0  0  0
    5.8908   15.9961    0.0886 C   0  0  0  0  0  0  0  0  0  0  0  0
  1  2  2  0  0  0  0
  1  4  1  0  0  0  0
  1  3  1  0  0  0  0
  5  1  1  0  0  0  0
  6  7  2  1  0  0  0
  6  9  1  0  0  0  0
  6  5  1  0  0  0  0
  6  8  1  0  0  0  0
 10 11  2  1  0  0  0
 10 12  1  0  0  0  0
 10 13  1  0  0  0  0
 10  9  1  0  0  0  0
 13 14  1  0  0  0  0
 15 14  1  1  0  0  0
 15 16  1  0  0  0  0
 17 19  1  0  0  0  0
 17 15  1  0  0  0  0
 17 18  1  6  0  0  0
 19 21  1  0  0  0  0
 19 20  1  6  0  0  0
 21 16  1  0  0  0  0
 21 22  1  1  0  0  0
 22 32  1  0  0  0  0
 23 22  1  0  0  0  0
 23 24  2  0  0  0  0
 24 25  1  0  0  0  0
 25 26  1  0  0  0  0
 26 27  2  0  0  0  0
 26 28  1  0  0  0  0
 29 28  1  0  0  0  0
 29 30  1  0  0  0  0
 31 29  2  0  0  0  0
 32 25  2  0  0  0  0
 32 31  1  0  0  0  0
M  END
>  <CHROM.1>
154.00558292,-163.42794240,178.23974277,-78.38527733,-110.47328115,-112.25794766
-71.57821869,66.22369002,179.13110015,54.16537473,1.55195253,14.71482604
2.10598793,2.65502922,-0.15714170,2.33584588

>  <Name>
lig.pdb

>  <RI>
1.82117e+07

>  <Rbt.Current_Directory>
/home/itssahil/PROJECTS/Mol_Feturizer/New_Systems/rnas/5lwj

>  <Rbt.Executable>
rbdock ($Id: //depot/dev/client3/rdock/2013.1/src/exe/rbdock.cxx#4 $)

>  <Rbt.Library>
libRbt.so (2013.1, Build901 2013/11/27)

>  <Rbt.Parameter_File>
/export/apps/rDock/src/rDock_2013.1_src/data/scripts/dock_solv.prm

>  <Rbt.Receptor>
prm/pocket_docking_5.prm

>  <SCORE>
-26.9141

>  <SCORE.INTER>
-24.481

>  <SCORE.INTER.CONST>
1

>  <SCORE.INTER.POLAR>
-2.05816

>  <SCORE.INTER.ROT>
8

>  <SCORE.INTER.SOLV>
15.205

>  <SCORE.INTER.VDW>
-23.4618

>  <SCORE.INTER.norm>
-0.765032

>  <SCORE.INTRA>
-2.43308

>  <SCORE.INTRA.DIHEDRAL>
2.89071

>  <SCORE.INTRA.DIHEDRAL.0>
10.9248

>  <SCORE.INTRA.POLAR>
-0.0369606

>  <SCORE.INTRA.POLAR.0>
0

>  <SCORE.INTRA.REPUL>
0.00278257

>  <SCORE.INTRA.REPUL.0>
0

>  <SCORE.INTRA.SOLV>
0.139549

>  <SCORE.INTRA.SOLV.lig_0>
-51.4104

>  <SCORE.INTRA.VDW>
-3.83646

>  <SCORE.INTRA.VDW.0>
0.110327

>  <SCORE.INTRA.norm>
-0.0760338

>  <SCORE.RESTR>
0

>  <SCORE.RESTR.CAVITY>
0

>  <SCORE.RESTR.norm>
0

>  <SCORE.SYSTEM>
0

>  <SCORE.SYSTEM.CONST>
0

>  <SCORE.SYSTEM.DIHEDRAL>
0

>  <SCORE.SYSTEM.SOLV>
0

>  <SCORE.SYSTEM.norm>
0

>  <SCORE.heavy>
32

>  <SCORE.norm>
-0.841065

>  <RMSD>
9.132

$$$$
lig.pdb
 OpenBabel11021811523D
libRbt.so/2013.1/901 2013/11/27
 32 34  0  0  0  0  0  0  0  0999 V2000
    2.0576    9.8565   -3.5748 P   0  0  0  0  0  0  0  0  0  0  0  0
    0.7773    9.0971   -3.8242 O   0  0  0  0  0  0  0  0  0  0  0  0
    2.4701    9.4012   -2.0731 O   0  0  0  0  0  0  0  0  0  0  0  0
    3.2754    9.5004   -4.3904 O   0  0  0  0  0  0  0  0  0  0  0  0
    1.7658   11.2452   -3.8733 O   0  0  0  0  0  0  0  0  0  0  0  0
    2.8408   12.1052   -3.3252 P   0  0  1  0  0  0  0  0  0  0  0  0
    2.4745   13.5189   -3.5770 O   0  0  0  0  0  0  0  0  0  0  0  0
    2.9669   11.8916   -1.8647 O   0  0  0  0  0  0  0  0  0  0  0  0
    4.1248   11.7771   -3.9940 O   0  0  0  0  0  0  0  0  0  0  0  0
    5.4116   11.7108   -3.2613 P   0  0  1  0  0  0  0  0  0  0  0  0
    5.4811   10.6612   -2.2244 O   0  0  0  0  0  0  0  0  0  0  0  0
    6.6214   11.8331   -4.1047 O   0  0  0  0  0  0  0  0  0  0  0  0
    5.3900   13.0671   -2.3789 O   0  0  0  0  0  0  0  0  0  0  0  0
    6.4434   13.4172   -1.5011 C   0  0  0  0  0  0  0  0  0  0  0  0
    5.9449   14.1284   -0.2354 C   0  0  1  0  0  0  0  0  0  0  0  0
    6.0836   15.5279   -0.3724 O   0  0  0  0  0  0  0  0  0  0  0  0
    4.4295   13.9941   -0.0045 C   0  0  1  0  0  0  0  0  0  0  0  0
    4.0004   12.7474    0.5166 O   0  0  0  0  0  0  0  0  0  0  0  0
    4.1092   15.1647    0.9247 C   0  0  1  0  0  0  0  0  0  0  0  0
    4.1925   14.8009    2.2913 O   0  0  0  0  0  0  0  0  0  0  0  0
    5.2505   16.1279    0.6035 C   0  0  2  0  0  0  0  0  0  0  0  0
    4.8371   17.4873    0.1948 N   0  0  0  0  0  0  0  0  0  0  0  0
    5.2426   18.7170    0.6484 C   0  0  0  0  0  0  0  0  0  0  0  0
    4.5880   19.7207    0.1242 N   0  0  0  0  0  0  0  0  0  0  0  0
    3.6982   19.1202   -0.7614 C   0  0  0  0  0  0  0  0  0  0  0  0
    2.6872   19.6888   -1.6007 C   0  0  0  0  0  0  0  0  0  0  0  0
    2.3582   20.8702   -1.6868 O   0  0  0  0  0  0  0  0  0  0  0  0
    2.0226   18.7290   -2.3759 N   0  0  0  0  0  0  0  0  0  0  0  0
    2.3331   17.3775   -2.3613 C   0  0  0  0  0  0  0  0  0  0  0  0
    1.6989   16.5772   -3.2255 N   0  0  0  0  0  0  0  0  0  0  0  0
    3.2489   16.8426   -1.5373 N   0  0  0  0  0  0  0  0  0  0  0  0
    3.8896   17.7589   -0.7611 C   0  0  0  0  0  0  0  0  0  0  0  0
  1  2  2  0  0  0  0
  1  4  1  0  0  0  0
  1  3  1  0  0  0  0
  5  1  1  0  0  0  0
  6  7  2  6  0  0  0
  6  9  1  0  0  0  0
  6  5  1  0  0  0  0
  6  8  1  0  0  0  0
 10 11  2  1  0  0  0
 10 12  1  0  0  0  0
 10 13  1  0  0  0  0
 10  9  1  0  0  0  0
 13 14  1  0  0  0  0
 15 14  1  6  0  0  0
 15 16  1  0  0  0  0
 17 19  1  0  0  0  0
 17 15  1  0  0  0  0
 17 18  1  1  0  0  0
 19 21  1  0  0  0  0
 19 20  1  1  0  0  0
 21 16  1  0  0  0  0
 21 22  1  6  0  0  0
 22 32  1  0  0  0  0
 23 22  1  0  0  0  0
 23 24  2  0  0  0  0
 24 25  1  0  0  0  0
 25 26  1  0  0  0  0
 26 27  2  0  0  0  0
 26 28  1  0  0  0  0
 29 28  1  0  0  0  0
 29 30  1  0  0  0  0
 31 29  2  0  0  0  0
 32 25  2  0  0  0  0
 32 31  1  0  0  0  0
M  END
>  <CHROM.1>
165.28695309,-139.86553787,-176.75633506,179.60770140,63.25633481,-144.71816979
-98.27197614,-80.73549258,57.08807234,-106.18087658,3.77731221,14.02644310
-1.89682977,1.66162275,0.68512016,-2.85890269

>  <Name>
lig.pdb

>  <RI>
2.92062e+07

>  <Rbt.Current_Directory>
/home/itssahil/PROJECTS/Mol_Feturizer/New_Systems/rnas/5lwj

>  <Rbt.Executable>
rbdock ($Id: //depot/dev/client3/rdock/2013.1/src/exe/rbdock.cxx#4 $)

>  <Rbt.Library>
libRbt.so (2013.1, Build901 2013/11/27)

>  <Rbt.Parameter_File>
/export/apps/rDock/src/rDock_2013.1_src/data/scripts/dock_solv.prm

>  <Rbt.Receptor>
prm/pocket_docking_7.prm

>  <SCORE>
-18.2502

>  <SCORE.INTER>
-13.0769

>  <SCORE.INTER.CONST>
1

>  <SCORE.INTER.POLAR>
-2.20463

>  <SCORE.INTER.ROT>
8

>  <SCORE.INTER.SOLV>
11.1519

>  <SCORE.INTER.VDW>
-14.0198

>  <SCORE.INTER.norm>
-0.408653

>  <SCORE.INTRA>
-5.17328

>  <SCORE.INTRA.DIHEDRAL>
4.23166

>  <SCORE.INTRA.DIHEDRAL.0>
10.9248

>  <SCORE.INTRA.POLAR>
-1.71149

>  <SCORE.INTRA.POLAR.0>
0

>  <SCORE.INTRA.REPUL>
0.177327

>  <SCORE.INTRA.REPUL.0>
0

>  <SCORE.INTRA.SOLV>
2.78188

>  <SCORE.INTRA.SOLV.lig_0>
-51.4104

>  <SCORE.INTRA.VDW>
-3.7476

>  <SCORE.INTRA.VDW.0>
0.110327

>  <SCORE.INTRA.norm>
-0.161665

>  <SCORE.RESTR>
0

>  <SCORE.RESTR.CAVITY>
0

>  <SCORE.RESTR.norm>
0

>  <SCORE.SYSTEM>
0

>  <SCORE.SYSTEM.CONST>
0

>  <SCORE.SYSTEM.DIHEDRAL>
0

>  <SCORE.SYSTEM.SOLV>
0

>  <SCORE.SYSTEM.norm>
0

>  <SCORE.heavy>
32

>  <SCORE.norm>
-0.570318

>  <RMSD>
9.132

$$$$
lig.pdb
 OpenBabel11021811523D
libRbt.so/2013.1/901 2013/11/27
 32 34  0  0  0  0  0  0  0  0999 V2000
   -1.5595   12.5076    4.8889 P   0  0  0  0  0  0  0  0  0  0  0  0
   -0.0665   12.6623    5.0473 O   0  0  0  0  0  0  0  0  0  0  0  0
   -1.7029   11.7587    3.4567 O   0  0  0  0  0  0  0  0  0  0  0  0
   -2.2916   11.5881    5.8342 O   0  0  0  0  0  0  0  0  0  0  0  0
   -2.1243   13.8274    5.0937 O   0  0  0  0  0  0  0  0  0  0  0  0
   -2.0336   14.6048    3.8356 P   0  0  1  0  0  0  0  0  0  0  0  0
   -2.6485   15.9329    4.0682 O   0  0  0  0  0  0  0  0  0  0  0  0
   -0.6141   14.7898    3.4542 O   0  0  0  0  0  0  0  0  0  0  0  0
   -2.7542   13.8836    2.7565 O   0  0  0  0  0  0  0  0  0  0  0  0
   -2.6384   14.2632    1.3284 P   0  0  1  0  0  0  0  0  0  0  0  0
   -3.3967   13.4050    0.3955 O   0  0  0  0  0  0  0  0  0  0  0  0
   -2.7326   15.7145    1.0548 O   0  0  0  0  0  0  0  0  0  0  0  0
   -1.1049   13.8807    0.9807 O   0  0  0  0  0  0  0  0  0  0  0  0
   -0.4860   14.2595   -0.2343 C   0  0  0  0  0  0  0  0  0  0  0  0
    0.9534   13.7389   -0.3505 C   0  0  1  0  0  0  0  0  0  0  0  0
    1.5919   14.3092   -1.4745 O   0  0  0  0  0  0  0  0  0  0  0  0
    1.8750   14.2031    0.7909 C   0  0  1  0  0  0  0  0  0  0  0  0
    1.7163   13.5154    2.0206 O   0  0  0  0  0  0  0  0  0  0  0  0
    3.2757   14.0427    0.2006 C   0  0  1  0  0  0  0  0  0  0  0  0
    3.8307   12.7693    0.4791 O   0  0  0  0  0  0  0  0  0  0  0  0
    2.9862   14.1344   -1.2965 C   0  0  2  0  0  0  0  0  0  0  0  0
    3.7547   15.1632   -2.0291 N   0  0  0  0  0  0  0  0  0  0  0  0
    4.8636   15.0472   -2.8286 C   0  0  0  0  0  0  0  0  0  0  0  0
    5.3448   16.1911   -3.2417 N   0  0  0  0  0  0  0  0  0  0  0  0
    4.4812   17.1382   -2.6997 C   0  0  0  0  0  0  0  0  0  0  0  0
    4.5044   18.5685   -2.7605 C   0  0  0  0  0  0  0  0  0  0  0  0
    5.3488   19.2847   -3.2947 O   0  0  0  0  0  0  0  0  0  0  0  0
    3.4178   19.1574   -2.0999 N   0  0  0  0  0  0  0  0  0  0  0  0
    2.4072   18.4347   -1.4840 C   0  0  0  0  0  0  0  0  0  0  0  0
    1.3685   19.1104   -0.9797 N   0  0  0  0  0  0  0  0  0  0  0  0
    2.4151   17.0951   -1.3878 N   0  0  0  0  0  0  0  0  0  0  0  0
    3.4757   16.5074   -2.0061 C   0  0  0  0  0  0  0  0  0  0  0  0
  1  2  2  0  0  0  0
  1  4  1  0  0  0  0
  1  3  1  0  0  0  0
  5  1  1  0  0  0  0
  6  7  2  1  0  0  0
  6  9  1  0  0  0  0
  6  5  1  0  0  0  0
  6  8  1  0  0  0  0
 10 11  2  6  0  0  0
 10 12  1  0  0  0  0
 10 13  1  0  0  0  0
 10  9  1  0  0  0  0
 13 14  1  0  0  0  0
 15 14  1  1  0  0  0
 15 16  1  0  0  0  0
 17 19  1  0  0  0  0
 17 15  1  0  0  0  0
 17 18  1  1  0  0  0
 19 21  1  0  0  0  0
 19 20  1  6  0  0  0
 21 16  1  0  0  0  0
 21 22  1  1  0  0  0
 22 32  1  0  0  0  0
 23 22  1  0  0  0  0
 23 24  2  0  0  0  0
 24 25  1  0  0  0  0
 25 26  1  0  0  0  0
 26 27  2  0  0  0  0
 26 28  1  0  0  0  0
 29 28  1  0  0  0  0
 29 30  1  0  0  0  0
 31 29  2  0  0  0  0
 32 25  2  0  0  0  0
 32 31  1  0  0  0  0
M  END
>  <CHROM.1>
82.53654949,-168.25493329,178.59760670,-170.25701421,178.24825496,-178.02091705
-171.05238455,35.41531248,-158.45555201,-134.53746666,0.55725429,14.85747935
0.95407555,-2.38180673,0.48243106,-0.57539391

>  <Name>
lig.pdb

>  <RI>
2.92062e+07

>  <Rbt.Current_Directory>
/home/itssahil/PROJECTS/Mol_Feturizer/New_Systems/rnas/5lwj

>  <Rbt.Executable>
rbdock ($Id: //depot/dev/client3/rdock/2013.1/src/exe/rbdock.cxx#4 $)

>  <Rbt.Library>
libRbt.so (2013.1, Build901 2013/11/27)

>  <Rbt.Parameter_File>
/export/apps/rDock/src/rDock_2013.1_src/data/scripts/dock_solv.prm

>  <Rbt.Receptor>
prm/pocket_docking_7.prm

>  <SCORE>
-28.2095

>  <SCORE.INTER>
-23.2535

>  <SCORE.INTER.CONST>
1

>  <SCORE.INTER.POLAR>
-3.53653

>  <SCORE.INTER.ROT>
8

>  <SCORE.INTER.SOLV>
13.7773

>  <SCORE.INTER.VDW>
-17.2397

>  <SCORE.INTER.norm>
-0.726672

>  <SCORE.INTRA>
-4.95595

>  <SCORE.INTRA.DIHEDRAL>
-1.76726

>  <SCORE.INTRA.DIHEDRAL.0>
10.9248

>  <SCORE.INTRA.POLAR>
0

>  <SCORE.INTRA.POLAR.0>
0

>  <SCORE.INTRA.REPUL>
0.0228363

>  <SCORE.INTRA.REPUL.0>
0

>  <SCORE.INTRA.SOLV>
0.416805

>  <SCORE.INTRA.SOLV.lig_0>
-51.4104

>  <SCORE.INTRA.VDW>
-4.3949

>  <SCORE.INTRA.VDW.0>
0.110327

>  <SCORE.INTRA.norm>
-0.154873

>  <SCORE.RESTR>
0

>  <SCORE.RESTR.CAVITY>
0

>  <SCORE.RESTR.norm>
0

>  <SCORE.SYSTEM>
0

>  <SCORE.SYSTEM.CONST>
0

>  <SCORE.SYSTEM.DIHEDRAL>
0

>  <SCORE.SYSTEM.SOLV>
0

>  <SCORE.SYSTEM.norm>
0

>  <SCORE.heavy>
32

>  <SCORE.norm>
-0.881545

>  <RMSD>
9.139

$$$$
lig.pdb
 OpenBabel11021811523D
libRbt.so/2013.1/901 2013/11/27
 32 34  0  0  0  0  0  0  0  0999 V2000
    0.6278   11.6127    5.4027 P   0  0  0  0  0  0  0  0  0  0  0  0
    0.8995   11.6147    3.9181 O   0  0  0  0  0  0  0  0  0  0  0  0
    0.3643   10.0450    5.7275 O   0  0  0  0  0  0  0  0  0  0  0  0
    1.7526   11.9752    6.3401 O   0  0  0  0  0  0  0  0  0  0  0  0
   -0.4122   12.5991    5.6224 O   0  0  0  0  0  0  0  0  0  0  0  0
   -1.5619   12.3119    4.7328 P   0  0  1  0  0  0  0  0  0  0  0  0
   -1.7486   10.8428    4.6795 O   0  0  0  0  0  0  0  0  0  0  0  0
   -2.7914   12.9358    5.2747 O   0  0  0  0  0  0  0  0  0  0  0  0
   -1.2825   12.8468    3.3765 O   0  0  0  0  0  0  0  0  0  0  0  0
   -2.1204   13.8928    2.7436 P   0  0  1  0  0  0  0  0  0  0  0  0
   -3.2304   13.3805    1.9146 O   0  0  0  0  0  0  0  0  0  0  0  0
   -2.4734   15.0308    3.6213 O   0  0  0  0  0  0  0  0  0  0  0  0
   -1.1250   14.5253    1.6354 O   0  0  0  0  0  0  0  0  0  0  0  0
    0.1774   14.9765    1.9558 C   0  0  0  0  0  0  0  0  0  0  0  0
    1.2666   14.2550    1.1500 C   0  0  1  0  0  0  0  0  0  0  0  0
    1.0993   14.5017   -0.2312 O   0  0  0  0  0  0  0  0  0  0  0  0
    2.6829   14.8073    1.3882 C   0  0  1  0  0  0  0  0  0  0  0  0
    3.2991   14.4032    2.5994 O   0  0  0  0  0  0  0  0  0  0  0  0
    3.4536   14.3474    0.1509 C   0  0  1  0  0  0  0  0  0  0  0  0
    4.0787   13.0912    0.3467 O   0  0  0  0  0  0  0  0  0  0  0  0
    2.3248   14.1800   -0.8646 C   0  0  2  0  0  0  0  0  0  0  0  0
    2.4908   14.9317   -2.1269 N   0  0  0  0  0  0  0  0  0  0  0  0
    2.7992   14.4956   -3.3906 C   0  0  0  0  0  0  0  0  0  0  0  0
    2.9640   15.4580   -4.2610 N   0  0  0  0  0  0  0  0  0  0  0  0
    2.7244   16.6192   -3.5325 C   0  0  0  0  0  0  0  0  0  0  0  0
    2.7910   17.9962   -3.9190 C   0  0  0  0  0  0  0  0  0  0  0  0
    3.1245   18.4558   -5.0093 O   0  0  0  0  0  0  0  0  0  0  0  0
    2.4381   18.8688   -2.8808 N   0  0  0  0  0  0  0  0  0  0  0  0
    2.0321   18.4463   -1.6239 C   0  0  0  0  0  0  0  0  0  0  0  0
    1.6188   19.3730   -0.7520 N   0  0  0  0  0  0  0  0  0  0  0  0
    2.0177   17.1561   -1.2513 N   0  0  0  0  0  0  0  0  0  0  0  0
    2.3785   16.2953   -2.2419 C   0  0  0  0  0  0  0  0  0  0  0  0
  1  2  2  0  0  0  0
  1  4  1  0  0  0  0
  1  3  1  0  0  0  0
  5  1  1  0  0  0  0
  6  7  2  6  0  0  0
  6  9  1  0  0  0  0
  6  5  1  0  0  0  0
  6  8  1  0  0  0  0
 10 11  2  6  0  0  0
 10 12  1  0  0  0  0
 10 13  1  0  0  0  0
 10  9  1  0  0  0  0
 13 14  1  0  0  0  0
 15 14  1  1  0  0  0
 15 16  1  0  0  0  0
 17 19  1  0  0  0  0
 17 15  1  0  0  0  0
 17 18  1  1  0  0  0
 19 21  1  0  0  0  0
 19 20  1  1  0  0  0
 21 16  1  0  0  0  0
 21 22  1  6  0  0  0
 22 32  1  0  0  0  0
 23 22  1  0  0  0  0
 23 24  2  0  0  0  0
 24 25  1  0  0  0  0
 25 26  1  0  0  0  0
 26 27  2  0  0  0  0
 26 28  1  0  0  0  0
 29 28  1  0  0  0  0
 29 30  1  0  0  0  0
 31 29  2  0  0  0  0
 32 25  2  0  0  0  0
 32 31  1  0  0  0  0
M  END
>  <CHROM.1>
53.15317349,-118.49574675,39.28545579,-51.73497606,-91.53639081,121.41563784
61.88638509,15.61973347,-76.44736333,-128.66071835,0.75070617,14.29495443
1.44288075,-1.96399310,0.34852651,-0.86081597

>  <Name>
lig.pdb

>  <RI>
0

>  <Rbt.Current_Directory>
/home/itssahil/PROJECTS/Mol_Feturizer/New_Systems/rnas/5lwj

>  <Rbt.Executable>
rbdock ($Id: //depot/dev/client3/rdock/2013.1/src/exe/rbdock.cxx#4 $)

>  <Rbt.Library>
libRbt.so (2013.1, Build901 2013/11/27)

>  <Rbt.Parameter_File>
/export/apps/rDock/src/rDock_2013.1_src/data/scripts/dock_solv.prm

>  <Rbt.Receptor>
prm/pocket_docking_4.prm

>  <SCORE>
-22.2567

>  <SCORE.INTER>
-26.958

>  <SCORE.INTER.CONST>
1

>  <SCORE.INTER.POLAR>
-2.62037

>  <SCORE.INTER.ROT>
8

>  <SCORE.INTER.SOLV>
19.5379

>  <SCORE.INTER.VDW>
-24.6834

>  <SCORE.INTER.norm>
-0.842439

>  <SCORE.INTRA>
4.70136

>  <SCORE.INTRA.DIHEDRAL>
10.2855

>  <SCORE.INTRA.DIHEDRAL.0>
10.9248

>  <SCORE.INTRA.POLAR>
0

>  <SCORE.INTRA.POLAR.0>
0

>  <SCORE.INTRA.REPUL>
0

>  <SCORE.INTRA.REPUL.0>
0

>  <SCORE.INTRA.SOLV>
0.758113

>  <SCORE.INTRA.SOLV.lig_0>
-51.4104

>  <SCORE.INTRA.VDW>
-0.820437

>  <SCORE.INTRA.VDW.0>
0.110327

>  <SCORE.INTRA.norm>
0.146918

>  <SCORE.RESTR>
0

>  <SCORE.RESTR.CAVITY>
0

>  <SCORE.RESTR.norm>
0

>  <SCORE.SYSTEM>
0

>  <SCORE.SYSTEM.CONST>
0

>  <SCORE.SYSTEM.DIHEDRAL>
0

>  <SCORE.SYSTEM.SOLV>
0

>  <SCORE.SYSTEM.norm>
0

>  <SCORE.heavy>
32

>  <SCORE.norm>
-0.695521

>  <RMSD>
9.153

$$$$
lig.pdb
 OpenBabel11021811523D
libRbt.so/2013.1/901 2013/11/27
 32 34  0  0  0  0  0  0  0  0999 V2000
   -0.1161   12.0236    4.8718 P   0  0  0  0  0  0  0  0  0  0  0  0
    0.4625   12.0492    6.2655 O   0  0  0  0  0  0  0  0  0  0  0  0
    1.1407   11.5543    3.9592 O   0  0  0  0  0  0  0  0  0  0  0  0
   -1.1764   10.9997    4.5519 O   0  0  0  0  0  0  0  0  0  0  0  0
   -0.7346   13.3195    4.6694 O   0  0  0  0  0  0  0  0  0  0  0  0
   -0.4808   13.7775    3.2833 P   0  0  1  0  0  0  0  0  0  0  0  0
   -0.8163   12.6669    2.3614 O   0  0  0  0  0  0  0  0  0  0  0  0
   -1.3396   14.9429    2.9684 O   0  0  0  0  0  0  0  0  0  0  0  0
    0.9483   14.1533    3.1413 O   0  0  0  0  0  0  0  0  0  0  0  0
    1.5600   14.4826    1.8320 P   0  0  1  0  0  0  0  0  0  0  0  0
    2.7677   13.7006    1.4977 O   0  0  0  0  0  0  0  0  0  0  0  0
    0.6022   14.6549    0.7170 O   0  0  0  0  0  0  0  0  0  0  0  0
    2.1652   15.9623    2.0828 O   0  0  0  0  0  0  0  0  0  0  0  0
    1.3589   17.0523    2.4886 C   0  0  0  0  0  0  0  0  0  0  0  0
    1.8961   18.4011    1.9900 C   0  0  1  0  0  0  0  0  0  0  0  0
    2.8626   18.9063    2.8883 O   0  0  0  0  0  0  0  0  0  0  0  0
    2.7124   18.3012    0.6895 C   0  0  1  0  0  0  0  0  0  0  0  0
    1.9518   18.1553   -0.4981 O   0  0  0  0  0  0  0  0  0  0  0  0
    3.5514   19.5788    0.7007 C   0  0  1  0  0  0  0  0  0  0  0  0
    2.9066   20.6478    0.0308 O   0  0  0  0  0  0  0  0  0  0  0  0
    3.6014   19.8956    2.1942 C   0  0  2  0  0  0  0  0  0  0  0  0
    4.9567   20.0527    2.7640 N   0  0  0  0  0  0  0  0  0  0  0  0
    5.3839   20.7377    3.8733 C   0  0  0  0  0  0  0  0  0  0  0  0
    6.6826   20.7440    4.0283 N   0  0  0  0  0  0  0  0  0  0  0  0
    7.1556   19.9883    2.9597 C   0  0  0  0  0  0  0  0  0  0  0  0
    8.4927   19.6679    2.5602 C   0  0  0  0  0  0  0  0  0  0  0  0
    9.5425   20.0419    3.0791 O   0  0  0  0  0  0  0  0  0  0  0  0
    8.5377   18.8417    1.4291 N   0  0  0  0  0  0  0  0  0  0  0  0
    7.4100   18.3549    0.7854 C   0  0  0  0  0  0  0  0  0  0  0  0
    7.5840   17.4887   -0.2190 N   0  0  0  0  0  0  0  0  0  0  0  0
    6.1591   18.6972    1.1346 N   0  0  0  0  0  0  0  0  0  0  0  0
    6.0976   19.5172    2.2191 C   0  0  0  0  0  0  0  0  0  0  0  0
  1  2  2  0  0  0  0
  1  4  1  0  0  0  0
  1  3  1  0  0  0  0
  5  1  1  0  0  0  0
  6  7  2  6  0  0  0
  6  9  1  0  0  0  0
  6  5  1  0  0  0  0
  6  8  1  0  0  0  0
 10 11  2  6  0  0  0
 10 12  1  0  0  0  0
 10 13  1  0  0  0  0
 10  9  1  0  0  0  0
 13 14  1  0  0  0  0
 15 14  1  1  0  0  0
 15 16  1  0  0  0  0
 17 19  1  0  0  0  0
 17 15  1  0  0  0  0
 17 18  1  6  0  0  0
 19 21  1  0  0  0  0
 19 20  1  6  0  0  0
 21 16  1  0  0  0  0
 21 22  1  1  0  0  0
 22 32  1  0  0  0  0
 23 22  1  0  0  0  0
 23 24  2  0  0  0  0
 24 25  1  0  0  0  0
 25 26  1  0  0  0  0
 26 27  2  0  0  0  0
 26 28  1  0  0  0  0
 29 28  1  0  0  0  0
 29 30  1  0  0  0  0
 31 29  2  0  0  0  0
 32 25  2  0  0  0  0
 32 31  1  0  0  0  0
M  END
>  <CHROM.1>
140.65870162,171.77825882,48.77120687,-58.08573689,-125.92933973,-150.43861988
-85.66964544,-177.11684040,-60.08389452,-80.13199031,2.82811514,16.37682555
2.50176918,-2.38905288,-0.34447733,-0.61019781

>  <Name>
lig.pdb

>  <RI>
0

>  <Rbt.Current_Directory>
/home/itssahil/PROJECTS/Mol_Feturizer/New_Systems/rnas/5lwj

>  <Rbt.Executable>
rbdock ($Id: //depot/dev/client3/rdock/2013.1/src/exe/rbdock.cxx#4 $)

>  <Rbt.Library>
libRbt.so (2013.1, Build901 2013/11/27)

>  <Rbt.Parameter_File>
/export/apps/rDock/src/rDock_2013.1_src/data/scripts/dock_solv.prm

>  <Rbt.Receptor>
prm/pocket_docking_3.prm

>  <SCORE>
-24.747

>  <SCORE.INTER>
-22.7597

>  <SCORE.INTER.CONST>
1

>  <SCORE.INTER.POLAR>
-1.90899

>  <SCORE.INTER.ROT>
8

>  <SCORE.INTER.SOLV>
15.9764

>  <SCORE.INTER.VDW>
-23.0686

>  <SCORE.INTER.norm>
-0.71124

>  <SCORE.INTRA>
-1.98734

>  <SCORE.INTRA.DIHEDRAL>
1.4322

>  <SCORE.INTRA.DIHEDRAL.0>
10.9248

>  <SCORE.INTRA.POLAR>
0

>  <SCORE.INTRA.POLAR.0>
0

>  <SCORE.INTRA.REPUL>
0

>  <SCORE.INTRA.REPUL.0>
0

>  <SCORE.INTRA.SOLV>
0.45252

>  <SCORE.INTRA.SOLV.lig_0>
-51.4104

>  <SCORE.INTRA.VDW>
-2.9297

>  <SCORE.INTRA.VDW.0>
0.110327

>  <SCORE.INTRA.norm>
-0.0621045

>  <SCORE.RESTR>
0

>  <SCORE.RESTR.CAVITY>
0

>  <SCORE.RESTR.norm>
0

>  <SCORE.SYSTEM>
0

>  <SCORE.SYSTEM.CONST>
0

>  <SCORE.SYSTEM.DIHEDRAL>
0

>  <SCORE.SYSTEM.SOLV>
0

>  <SCORE.SYSTEM.norm>
0

>  <SCORE.heavy>
32

>  <SCORE.norm>
-0.773345

>  <RMSD>
9.154

$$$$
lig.pdb
 OpenBabel11021811523D
libRbt.so/2013.1/901 2013/11/27
 32 34  0  0  0  0  0  0  0  0999 V2000
    1.2663   11.2442    5.9357 P   0  0  0  0  0  0  0  0  0  0  0  0
    2.3668   12.1706    6.3926 O   0  0  0  0  0  0  0  0  0  0  0  0
    1.4157   11.2624    4.3201 O   0  0  0  0  0  0  0  0  0  0  0  0
    1.3725    9.7786    6.2758 O   0  0  0  0  0  0  0  0  0  0  0  0
    0.0523   11.7176    6.5720 O   0  0  0  0  0  0  0  0  0  0  0  0
   -0.9645   12.0168    5.5365 P   0  0  1  0  0  0  0  0  0  0  0  0
   -0.4595   13.1328    4.7025 O   0  0  0  0  0  0  0  0  0  0  0  0
   -1.1781   10.8295    4.6767 O   0  0  0  0  0  0  0  0  0  0  0  0
   -2.2402   12.3983    6.1928 O   0  0  0  0  0  0  0  0  0  0  0  0
   -3.3486   13.0554    5.4603 P   0  0  1  0  0  0  0  0  0  0  0  0
   -3.2936   12.9092    3.9915 O   0  0  0  0  0  0  0  0  0  0  0  0
   -4.6912   12.8689    6.0542 O   0  0  0  0  0  0  0  0  0  0  0  0
   -3.0272   14.6284    5.6631 O   0  0  0  0  0  0  0  0  0  0  0  0
   -4.0349   15.5754    5.9638 C   0  0  0  0  0  0  0  0  0  0  0  0
   -3.7029   16.9780    5.4357 C   0  0  1  0  0  0  0  0  0  0  0  0
   -2.3396   17.2754    5.6574 O   0  0  0  0  0  0  0  0  0  0  0  0
   -3.7963   17.1025    3.9048 C   0  0  1  0  0  0  0  0  0  0  0  0
   -5.1095   17.2065    3.3806 O   0  0  0  0  0  0  0  0  0  0  0  0
   -2.9386   18.3298    3.5978 C   0  0  1  0  0  0  0  0  0  0  0  0
   -3.6997   19.5247    3.5859 O   0  0  0  0  0  0  0  0  0  0  0  0
   -2.0038   18.3563    4.8057 C   0  0  2  0  0  0  0  0  0  0  0  0
   -0.5595   18.3629    4.4897 N   0  0  0  0  0  0  0  0  0  0  0  0
    0.4957   18.9376    5.1520 C   0  0  0  0  0  0  0  0  0  0  0  0
    1.6404   18.8256    4.5293 N   0  0  0  0  0  0  0  0  0  0  0  0
    1.3326   18.1029    3.3805 C   0  0  0  0  0  0  0  0  0  0  0  0
    2.1561   17.6983    2.2814 C   0  0  0  0  0  0  0  0  0  0  0  0
    3.3459   17.9494    2.1010 O   0  0  0  0  0  0  0  0  0  0  0  0
    1.4573   16.9452    1.3283 N   0  0  0  0  0  0  0  0  0  0  0  0
    0.1208   16.5964    1.4513 C   0  0  0  0  0  0  0  0  0  0  0  0
   -0.4049   15.7846    0.5269 N   0  0  0  0  0  0  0  0  0  0  0  0
   -0.6594   17.0188    2.4596 N   0  0  0  0  0  0  0  0  0  0  0  0
   -0.0013   17.7700    3.3842 C   0  0  0  0  0  0  0  0  0  0  0  0
  1  2  2  0  0  0  0
  1  4  1  0  0  0  0
  1  3  1  0  0  0  0
  5  1  1  0  0  0  0
  6  7  2  6  0  0  0
  6  9  1  0  0  0  0
  6  5  1  0  0  0  0
  6  8  1  0  0  0  0
 10 11  2  6  0  0  0
 10 12  1  0  0  0  0
 10 13  1  0  0  0  0
 10  9  1  0  0  0  0
 13 14  1  0  0  0  0
 15 14  1  6  0  0  0
 15 16  1  0  0  0  0
 17 19  1  0  0  0  0
 17 15  1  0  0  0  0
 17 18  1  1  0  0  0
 19 21  1  0  0  0  0
 19 20  1  1  0  0  0
 21 16  1  0  0  0  0
 21 22  1  6  0  0  0
 22 32  1  0  0  0  0
 23 22  1  0  0  0  0
 23 24  2  0  0  0  0
 24 25  1  0  0  0  0
 25 26  1  0  0  0  0
 26 27  2  0  0  0  0
 26 28  1  0  0  0  0
 29 28  1  0  0  0  0
 29 30  1  0  0  0  0
 31 29  2  0  0  0  0
 32 25  2  0  0  0  0
 32 31  1  0  0  0  0
M  END
>  <CHROM.1>
123.16195353,165.34504624,-64.16553534,-137.37681205,19.11409508,-151.04480755
-41.72052701,56.28762819,63.34385566,-88.00808847,-1.02311482,14.93953246
4.50984188,-1.47631140,0.23150107,-0.36416410

>  <Name>
lig.pdb

>  <RI>
2.92062e+07

>  <Rbt.Current_Directory>
/home/itssahil/PROJECTS/Mol_Feturizer/New_Systems/rnas/5lwj

>  <Rbt.Executable>
rbdock ($Id: //depot/dev/client3/rdock/2013.1/src/exe/rbdock.cxx#4 $)

>  <Rbt.Library>
libRbt.so (2013.1, Build901 2013/11/27)

>  <Rbt.Parameter_File>
/export/apps/rDock/src/rDock_2013.1_src/data/scripts/dock_solv.prm

>  <Rbt.Receptor>
prm/pocket_docking_7.prm

>  <SCORE>
-36.7102

>  <SCORE.INTER>
-35.5883

>  <SCORE.INTER.CONST>
1

>  <SCORE.INTER.POLAR>
-2.99506

>  <SCORE.INTER.ROT>
8

>  <SCORE.INTER.SOLV>
22.765

>  <SCORE.INTER.VDW>
-30.2637

>  <SCORE.INTER.norm>
-1.11214

>  <SCORE.INTRA>
-1.12186

>  <SCORE.INTRA.DIHEDRAL>
2.31827

>  <SCORE.INTRA.DIHEDRAL.0>
10.9248

>  <SCORE.INTRA.POLAR>
0

>  <SCORE.INTRA.POLAR.0>
0

>  <SCORE.INTRA.REPUL>
0

>  <SCORE.INTRA.REPUL.0>
0

>  <SCORE.INTRA.SOLV>
-0.305834

>  <SCORE.INTRA.SOLV.lig_0>
-51.4104

>  <SCORE.INTRA.VDW>
-2.12808

>  <SCORE.INTRA.VDW.0>
0.110327

>  <SCORE.INTRA.norm>
-0.0350581

>  <SCORE.RESTR>
0

>  <SCORE.RESTR.CAVITY>
0

>  <SCORE.RESTR.norm>
0

>  <SCORE.SYSTEM>
0

>  <SCORE.SYSTEM.CONST>
0

>  <SCORE.SYSTEM.DIHEDRAL>
0

>  <SCORE.SYSTEM.SOLV>
0

>  <SCORE.SYSTEM.norm>
0

>  <SCORE.heavy>
32

>  <SCORE.norm>
-1.14719

>  <RMSD>
9.158

$$$$
lig.pdb
 OpenBabel11021811523D
libRbt.so/2013.1/901 2013/11/27
 32 34  0  0  0  0  0  0  0  0999 V2000
   -0.7649   11.5945    5.3870 P   0  0  0  0  0  0  0  0  0  0  0  0
    0.0762   10.4814    5.9629 O   0  0  0  0  0  0  0  0  0  0  0  0
   -1.8076   10.8084    4.4239 O   0  0  0  0  0  0  0  0  0  0  0  0
   -1.6679   12.3676    6.3154 O   0  0  0  0  0  0  0  0  0  0  0  0
    0.1673   12.5594    4.8370 O   0  0  0  0  0  0  0  0  0  0  0  0
   -0.5065   13.3522    3.7820 P   0  0  1  0  0  0  0  0  0  0  0  0
   -0.9487   12.4217    2.7168 O   0  0  0  0  0  0  0  0  0  0  0  0
   -1.6915   14.0415    4.3437 O   0  0  0  0  0  0  0  0  0  0  0  0
    0.4435   14.3522    3.2332 O   0  0  0  0  0  0  0  0  0  0  0  0
    0.4431   14.7532    1.8062 P   0  0  1  0  0  0  0  0  0  0  0  0
    0.5717   13.6363    0.8483 O   0  0  0  0  0  0  0  0  0  0  0  0
   -0.5652   15.7731    1.4409 O   0  0  0  0  0  0  0  0  0  0  0  0
    1.8649   15.5096    1.6478 O   0  0  0  0  0  0  0  0  0  0  0  0
    3.0955   14.8833    1.9580 C   0  0  0  0  0  0  0  0  0  0  0  0
    4.2975   15.8196    1.7714 C   0  0  1  0  0  0  0  0  0  0  0  0
    5.4947   15.0725    1.7006 O   0  0  0  0  0  0  0  0  0  0  0  0
    4.3124   16.5472    0.4156 C   0  0  1  0  0  0  0  0  0  0  0  0
    3.4264   17.6485    0.3050 O   0  0  0  0  0  0  0  0  0  0  0  0
    5.7776   16.9483    0.2467 C   0  0  1  0  0  0  0  0  0  0  0  0
    6.0420   18.2393    0.7668 O   0  0  0  0  0  0  0  0  0  0  0  0
    6.4785   15.9133    1.1248 C   0  0  2  0  0  0  0  0  0  0  0  0
    7.5345   15.1244    0.4551 N   0  0  0  0  0  0  0  0  0  0  0  0
    8.8991   15.2655    0.4717 C   0  0  0  0  0  0  0  0  0  0  0  0
    9.5299   14.4407   -0.3236 N   0  0  0  0  0  0  0  0  0  0  0  0
    8.5158   13.6770   -0.8940 C   0  0  0  0  0  0  0  0  0  0  0  0
    8.5684   12.6361   -1.8757 C   0  0  0  0  0  0  0  0  0  0  0  0
    9.5577   12.2115   -2.4690 O   0  0  0  0  0  0  0  0  0  0  0  0
    7.3079   12.0928   -2.1583 N   0  0  0  0  0  0  0  0  0  0  0  0
    6.1382   12.4926   -1.5298 C   0  0  0  0  0  0  0  0  0  0  0  0
    5.0138   11.8238   -1.8093 N   0  0  0  0  0  0  0  0  0  0  0  0
    6.0871   13.5020   -0.6453 N   0  0  0  0  0  0  0  0  0  0  0  0
    7.3005   14.0559   -0.3749 C   0  0  0  0  0  0  0  0  0  0  0  0
  1  2  2  0  0  0  0
  1  4  1  0  0  0  0
  1  3  1  0  0  0  0
  5  1  1  0  0  0  0
  6  7  2  6  0  0  0
  6  9  1  0  0  0  0
  6  5  1  0  0  0  0
  6  8  1  0  0  0  0
 10 11  2  6  0  0  0
 10 12  1  0  0  0  0
 10 13  1  0  0  0  0
 10  9  1  0  0  0  0
 13 14  1  0  0  0  0
 15 14  1  6  0  0  0
 15 16  1  0  0  0  0
 17 19  1  0  0  0  0
 17 15  1  0  0  0  0
 17 18  1  1  0  0  0
 19 21  1  0  0  0  0
 19 20  1  1  0  0  0
 21 16  1  0  0  0  0
 21 22  1  6  0  0  0
 22 32  1  0  0  0  0
 23 22  1  0  0  0  0
 23 24  2  0  0  0  0
 24 25  1  0  0  0  0
 25 26  1  0  0  0  0
 26 27  2  0  0  0  0
 26 28  1  0  0  0  0
 29 28  1  0  0  0  0
 29 30  1  0  0  0  0
 31 29  2  0  0  0  0
 32 25  2  0  0  0  0
 32 31  1  0  0  0  0
M  END
>  <CHROM.1>
155.96085449,145.02189585,-60.50720736,56.95548118,-54.91963771,-178.05479928
-162.64261295,-53.38741132,-56.70072641,-136.17147379,3.13743600,13.97019873
1.68019887,-2.93769634,0.53021029,-0.08303525

>  <Name>
lig.pdb

>  <RI>
2.0892e+07

>  <Rbt.Current_Directory>
/home/itssahil/PROJECTS/Mol_Feturizer/New_Systems/rnas/5lwj

>  <Rbt.Executable>
rbdock ($Id: //depot/dev/client3/rdock/2013.1/src/exe/rbdock.cxx#4 $)

>  <Rbt.Library>
libRbt.so (2013.1, Build901 2013/11/27)

>  <Rbt.Parameter_File>
/export/apps/rDock/src/rDock_2013.1_src/data/scripts/dock_solv.prm

>  <Rbt.Receptor>
prm/pocket_docking_8.prm

>  <SCORE>
-34.198

>  <SCORE.INTER>
-27.998

>  <SCORE.INTER.CONST>
1

>  <SCORE.INTER.POLAR>
-1.79872

>  <SCORE.INTER.ROT>
8

>  <SCORE.INTER.SOLV>
20.3033

>  <SCORE.INTER.VDW>
-28.3707

>  <SCORE.INTER.norm>
-0.874938

>  <SCORE.INTRA>
-6.30937

>  <SCORE.INTRA.DIHEDRAL>
-4.32929

>  <SCORE.INTRA.DIHEDRAL.0>
10.9248

>  <SCORE.INTRA.POLAR>
-0.436579

>  <SCORE.INTRA.POLAR.0>
0

>  <SCORE.INTRA.REPUL>
0

>  <SCORE.INTRA.REPUL.0>
0

>  <SCORE.INTRA.SOLV>
-0.274559

>  <SCORE.INTRA.SOLV.lig_0>
-51.4104

>  <SCORE.INTRA.VDW>
-2.52307

>  <SCORE.INTRA.VDW.0>
0.110327

>  <SCORE.INTRA.norm>
-0.197168

>  <SCORE.RESTR>
0.109429

>  <SCORE.RESTR.CAVITY>
0.109429

>  <SCORE.RESTR.norm>
0.00341965

>  <SCORE.SYSTEM>
0

>  <SCORE.SYSTEM.CONST>
0

>  <SCORE.SYSTEM.DIHEDRAL>
0

>  <SCORE.SYSTEM.SOLV>
0

>  <SCORE.SYSTEM.norm>
0

>  <SCORE.heavy>
32

>  <SCORE.norm>
-1.06869

>  <RMSD>
9.167

$$$$
lig.pdb
 OpenBabel11021811523D
libRbt.so/2013.1/901 2013/11/27
 32 34  0  0  0  0  0  0  0  0999 V2000
   -0.7687   11.9783    5.1902 P   0  0  0  0  0  0  0  0  0  0  0  0
    0.6383   11.4763    4.9747 O   0  0  0  0  0  0  0  0  0  0  0  0
   -1.6815   10.8158    4.5209 O   0  0  0  0  0  0  0  0  0  0  0  0
   -1.2946   12.0607    6.6015 O   0  0  0  0  0  0  0  0  0  0  0  0
   -0.7964   13.3320    4.6711 O   0  0  0  0  0  0  0  0  0  0  0  0
   -0.9144   13.2931    3.1946 P   0  0  1  0  0  0  0  0  0  0  0  0
    0.2032   12.4776    2.6635 O   0  0  0  0  0  0  0  0  0  0  0  0
   -2.1983   12.6655    2.8042 O   0  0  0  0  0  0  0  0  0  0  0  0
   -0.8465   14.6752    2.6572 O   0  0  0  0  0  0  0  0  0  0  0  0
    0.2900   15.1570    1.8368 P   0  0  1  0  0  0  0  0  0  0  0  0
    0.7482   14.2130    0.7972 O   0  0  0  0  0  0  0  0  0  0  0  0
    0.1943   16.5671    1.3980 O   0  0  0  0  0  0  0  0  0  0  0  0
    1.5212   15.1386    2.8868 O   0  0  0  0  0  0  0  0  0  0  0  0
    2.8493   14.8496    2.4928 C   0  0  0  0  0  0  0  0  0  0  0  0
    3.3026   15.6862    1.2883 C   0  0  1  0  0  0  0  0  0  0  0  0
    4.0159   16.8257    1.7233 O   0  0  0  0  0  0  0  0  0  0  0  0
    4.3535   14.9874    0.4079 C   0  0  1  0  0  0  0  0  0  0  0  0
    3.8514   13.9884   -0.4640 O   0  0  0  0  0  0  0  0  0  0  0  0
    5.0145   16.1456   -0.3390 C   0  0  1  0  0  0  0  0  0  0  0  0
    4.3816   16.4137   -1.5778 O   0  0  0  0  0  0  0  0  0  0  0  0
    4.7460   17.3115    0.6109 C   0  0  2  0  0  0  0  0  0  0  0  0
    5.9418   18.0670    1.0413 N   0  0  0  0  0  0  0  0  0  0  0  0
    7.2684   17.8818    0.7444 C   0  0  0  0  0  0  0  0  0  0  0  0
    8.0754   18.6872    1.3854 N   0  0  0  0  0  0  0  0  0  0  0  0
    7.2256   19.4841    2.1465 C   0  0  0  0  0  0  0  0  0  0  0  0
    7.5125   20.5244    3.0875 C   0  0  0  0  0  0  0  0  0  0  0  0
    8.6160   20.9179    3.4602 O   0  0  0  0  0  0  0  0  0  0  0  0
    6.3553   21.1087    3.6199 N   0  0  0  0  0  0  0  0  0  0  0  0
    5.0690   20.7458    3.2499 C   0  0  0  0  0  0  0  0  0  0  0  0
    4.0482   21.4510    3.7502 N   0  0  0  0  0  0  0  0  0  0  0  0
    4.8046   19.7371    2.4035 N   0  0  0  0  0  0  0  0  0  0  0  0
    5.9180   19.1438    1.8929 C   0  0  0  0  0  0  0  0  0  0  0  0
  1  2  2  0  0  0  0
  1  4  1  0  0  0  0
  1  3  1  0  0  0  0
  5  1  1  0  0  0  0
  6  7  2  6  0  0  0
  6  9  1  0  0  0  0
  6  5  1  0  0  0  0
  6  8  1  0  0  0  0
 10 11  2  6  0  0  0
 10 12  1  0  0  0  0
 10 13  1  0  0  0  0
 10  9  1  0  0  0  0
 13 14  1  0  0  0  0
 15 14  1  1  0  0  0
 15 16  1  0  0  0  0
 17 19  1  0  0  0  0
 17 15  1  0  0  0  0
 17 18  1  6  0  0  0
 19 21  1  0  0  0  0
 19 20  1  6  0  0  0
 21 16  1  0  0  0  0
 21 22  1  1  0  0  0
 22 32  1  0  0  0  0
 23 22  1  0  0  0  0
 23 24  2  0  0  0  0
 24 25  1  0  0  0  0
 25 26  1  0  0  0  0
 26 27  2  0  0  0  0
 26 28  1  0  0  0  0
 29 28  1  0  0  0  0
 29 30  1  0  0  0  0
 31 29  2  0  0  0  0
 32 25  2  0  0  0  0
 32 31  1  0  0  0  0
M  END
>  <CHROM.1>
79.23042393,112.40750922,-55.77589710,146.80266974,43.83253094,50.43847751
95.96348867,-55.93420031,-52.42192415,123.02360660,2.57315377,15.78567938
2.47804752,2.94234305,-0.75405221,-2.12720644

>  <Name>
lig.pdb

>  <RI>
3.03081e+07

>  <Rbt.Current_Directory>
/home/itssahil/PROJECTS/Mol_Feturizer/New_Systems/rnas/5lwj

>  <Rbt.Executable>
rbdock ($Id: //depot/dev/client3/rdock/2013.1/src/exe/rbdock.cxx#4 $)

>  <Rbt.Library>
libRbt.so (2013.1, Build901 2013/11/27)

>  <Rbt.Parameter_File>
/export/apps/rDock/src/rDock_2013.1_src/data/scripts/dock_solv.prm

>  <Rbt.Receptor>
prm/pocket_docking_2.prm

>  <SCORE>
-21.7183

>  <SCORE.INTER>
-22.8695

>  <SCORE.INTER.CONST>
1

>  <SCORE.INTER.POLAR>
-1.66787

>  <SCORE.INTER.ROT>
8

>  <SCORE.INTER.SOLV>
14.9243

>  <SCORE.INTER.VDW>
-23.5948

>  <SCORE.INTER.norm>
-0.714671

>  <SCORE.INTRA>
-0.894231

>  <SCORE.INTRA.DIHEDRAL>
0.580374

>  <SCORE.INTRA.DIHEDRAL.0>
10.9248

>  <SCORE.INTRA.POLAR>
-0.0415503

>  <SCORE.INTRA.POLAR.0>
0

>  <SCORE.INTRA.REPUL>
0.017705

>  <SCORE.INTRA.REPUL.0>
0

>  <SCORE.INTRA.SOLV>
1.40212

>  <SCORE.INTRA.SOLV.lig_0>
-51.4104

>  <SCORE.INTRA.VDW>
-1.83273

>  <SCORE.INTRA.VDW.0>
0.110327

>  <SCORE.INTRA.norm>
-0.0279447

>  <SCORE.RESTR>
2.04534

>  <SCORE.RESTR.CAVITY>
2.04534

>  <SCORE.RESTR.norm>
0.063917

>  <SCORE.SYSTEM>
0

>  <SCORE.SYSTEM.CONST>
0

>  <SCORE.SYSTEM.DIHEDRAL>
0

>  <SCORE.SYSTEM.SOLV>
0

>  <SCORE.SYSTEM.norm>
0

>  <SCORE.heavy>
32

>  <SCORE.norm>
-0.678698

>  <RMSD>
9.169

$$$$
lig.pdb
 OpenBabel11021811523D
libRbt.so/2013.1/901 2013/11/27
 32 34  0  0  0  0  0  0  0  0999 V2000
    0.9925   11.2912    5.8277 P   0  0  0  0  0  0  0  0  0  0  0  0
    2.0820   11.7373    6.7722 O   0  0  0  0  0  0  0  0  0  0  0  0
    1.8189   10.7506    4.5403 O   0  0  0  0  0  0  0  0  0  0  0  0
    0.1447   10.1058    6.2165 O   0  0  0  0  0  0  0  0  0  0  0  0
    0.0824   12.4134    5.7051 O   0  0  0  0  0  0  0  0  0  0  0  0
   -0.0020   12.8287    4.2852 P   0  0  1  0  0  0  0  0  0  0  0  0
   -0.6903   11.7552    3.5304 O   0  0  0  0  0  0  0  0  0  0  0  0
   -0.7857   14.0804    4.1681 O   0  0  0  0  0  0  0  0  0  0  0  0
    1.3665   13.0406    3.7506 O   0  0  0  0  0  0  0  0  0  0  0  0
    1.6553   13.9943    2.6534 P   0  0  1  0  0  0  0  0  0  0  0  0
    1.4776   13.4467    1.2931 O   0  0  0  0  0  0  0  0  0  0  0  0
    1.1173   15.3589    2.8498 O   0  0  0  0  0  0  0  0  0  0  0  0
    3.2611   14.1710    2.7474 O   0  0  0  0  0  0  0  0  0  0  0  0
    3.9168   15.3629    2.3575 C   0  0  0  0  0  0  0  0  0  0  0  0
    3.7461   15.6683    0.8629 C   0  0  1  0  0  0  0  0  0  0  0  0
    3.3709   17.0179    0.6779 O   0  0  0  0  0  0  0  0  0  0  0  0
    5.0592   15.6053    0.0630 C   0  0  1  0  0  0  0  0  0  0  0  0
    5.5220   14.3016   -0.2473 O   0  0  0  0  0  0  0  0  0  0  0  0
    4.7533   16.4360   -1.1830 C   0  0  1  0  0  0  0  0  0  0  0  0
    4.2503   15.6432   -2.2440 O   0  0  0  0  0  0  0  0  0  0  0  0
    3.6337   17.3429   -0.6756 C   0  0  2  0  0  0  0  0  0  0  0  0
    3.8667   18.7931   -0.8446 N   0  0  0  0  0  0  0  0  0  0  0  0
    3.4021   19.6662   -1.7955 C   0  0  0  0  0  0  0  0  0  0  0  0
    3.8937   20.8741   -1.6954 N   0  0  0  0  0  0  0  0  0  0  0  0
    4.7275   20.8102   -0.5831 C   0  0  0  0  0  0  0  0  0  0  0  0
    5.5760   21.8005    0.0079 C   0  0  0  0  0  0  0  0  0  0  0  0
    5.7796   22.9475   -0.3849 O   0  0  0  0  0  0  0  0  0  0  0  0
    6.2338   21.3367    1.1551 N   0  0  0  0  0  0  0  0  0  0  0  0
    6.0562   20.0675    1.6848 C   0  0  0  0  0  0  0  0  0  0  0  0
    6.6586   19.7799    2.8441 N   0  0  0  0  0  0  0  0  0  0  0  0
    5.2969   19.1266    1.1001 N   0  0  0  0  0  0  0  0  0  0  0  0
    4.6669   19.5538   -0.0283 C   0  0  0  0  0  0  0  0  0  0  0  0
  1  2  2  0  0  0  0
  1  4  1  0  0  0  0
  1  3  1  0  0  0  0
  5  1  1  0  0  0  0
  6  7  2  6  0  0  0
  6  9  1  0  0  0  0
  6  5  1  0  0  0  0
  6  8  1  0  0  0  0
 10 11  2  6  0  0  0
 10 12  1  0  0  0  0
 10 13  1  0  0  0  0
 10  9  1  0  0  0  0
 13 14  1  0  0  0  0
 15 14  1  1  0  0  0
 15 16  1  0  0  0  0
 17 19  1  0  0  0  0
 17 15  1  0  0  0  0
 17 18  1  6  0  0  0
 19 21  1  0  0  0  0
 19 20  1  6  0  0  0
 21 16  1  0  0  0  0
 21 22  1  1  0  0  0
 22 32  1  0  0  0  0
 23 22  1  0  0  0  0
 23 24  2  0  0  0  0
 24 25  1  0  0  0  0
 25 26  1  0  0  0  0
 26 27  2  0  0  0  0
 26 28  1  0  0  0  0
 29 28  1  0  0  0  0
 29 30  1  0  0  0  0
 31 29  2  0  0  0  0
 32 25  2  0  0  0  0
 32 31  1  0  0  0  0
M  END
>  <CHROM.1>
120.91831588,-151.65800195,68.38532583,-150.67329334,-85.65277246,-63.23256731
132.42992797,-179.74618009,-61.22866153,-135.98940776,2.91610846,15.65190151
2.07410546,-2.90274317,-1.11807440,-1.86995111

>  <Name>
lig.pdb

>  <RI>
0

>  <Rbt.Current_Directory>
/home/itssahil/PROJECTS/Mol_Feturizer/New_Systems/rnas/5lwj

>  <Rbt.Executable>
rbdock ($Id: //depot/dev/client3/rdock/2013.1/src/exe/rbdock.cxx#4 $)

>  <Rbt.Library>
libRbt.so (2013.1, Build901 2013/11/27)

>  <Rbt.Parameter_File>
/export/apps/rDock/src/rDock_2013.1_src/data/scripts/dock_solv.prm

>  <Rbt.Receptor>
prm/pocket_docking_3.prm

>  <SCORE>
-29.811

>  <SCORE.INTER>
-28.2578

>  <SCORE.INTER.CONST>
1

>  <SCORE.INTER.POLAR>
-2.67872

>  <SCORE.INTER.ROT>
8

>  <SCORE.INTER.SOLV>
18.9639

>  <SCORE.INTER.VDW>
-25.1641

>  <SCORE.INTER.norm>
-0.883057

>  <SCORE.INTRA>
-1.60202

>  <SCORE.INTRA.DIHEDRAL>
1.7298

>  <SCORE.INTRA.DIHEDRAL.0>
10.9248

>  <SCORE.INTRA.POLAR>
0

>  <SCORE.INTRA.POLAR.0>
0

>  <SCORE.INTRA.REPUL>
0

>  <SCORE.INTRA.REPUL.0>
0

>  <SCORE.INTRA.SOLV>
0.595698

>  <SCORE.INTRA.SOLV.lig_0>
-51.4104

>  <SCORE.INTRA.VDW>
-2.76477

>  <SCORE.INTRA.VDW.0>
0.110327

>  <SCORE.INTRA.norm>
-0.0500631

>  <SCORE.RESTR>
0.0488005

>  <SCORE.RESTR.CAVITY>
0.0488005

>  <SCORE.RESTR.norm>
0.00152502

>  <SCORE.SYSTEM>
0

>  <SCORE.SYSTEM.CONST>
0

>  <SCORE.SYSTEM.DIHEDRAL>
0

>  <SCORE.SYSTEM.SOLV>
0

>  <SCORE.SYSTEM.norm>
0

>  <SCORE.heavy>
32

>  <SCORE.norm>
-0.931595

>  <RMSD>
9.173

$$$$
lig.pdb
 OpenBabel11021811523D
libRbt.so/2013.1/901 2013/11/27
 32 34  0  0  0  0  0  0  0  0999 V2000
   -2.3150   12.8591    4.8675 P   0  0  0  0  0  0  0  0  0  0  0  0
   -3.0080   12.8623    3.5267 O   0  0  0  0  0  0  0  0  0  0  0  0
   -2.3865   14.4146    5.3235 O   0  0  0  0  0  0  0  0  0  0  0  0
   -2.9717   12.1325    6.0147 O   0  0  0  0  0  0  0  0  0  0  0  0
   -1.0367   12.2073    4.6578 O   0  0  0  0  0  0  0  0  0  0  0  0
   -0.2868   12.9193    3.5967 P   0  0  1  0  0  0  0  0  0  0  0  0
    1.1286   12.4851    3.6610 O   0  0  0  0  0  0  0  0  0  0  0  0
   -0.8382   12.5734    2.2659 O   0  0  0  0  0  0  0  0  0  0  0  0
   -0.3886   14.3837    3.8178 O   0  0  0  0  0  0  0  0  0  0  0  0
   -0.5188   15.3515    2.7028 P   0  0  1  0  0  0  0  0  0  0  0  0
   -1.4890   14.9664    1.6577 O   0  0  0  0  0  0  0  0  0  0  0  0
   -0.5737   16.7736    3.1089 O   0  0  0  0  0  0  0  0  0  0  0  0
    0.8964   15.2011    1.9326 O   0  0  0  0  0  0  0  0  0  0  0  0
    2.0771   15.8366    2.3852 C   0  0  0  0  0  0  0  0  0  0  0  0
    3.1320   15.9783    1.2790 C   0  0  1  0  0  0  0  0  0  0  0  0
    3.7896   17.2243    1.3853 O   0  0  0  0  0  0  0  0  0  0  0  0
    4.3110   14.9993    1.4172 C   0  0  1  0  0  0  0  0  0  0  0  0
    4.0486   13.6674    1.0083 O   0  0  0  0  0  0  0  0  0  0  0  0
    5.4177   15.6620    0.5972 C   0  0  1  0  0  0  0  0  0  0  0  0
    5.4171   15.2277   -0.7513 O   0  0  0  0  0  0  0  0  0  0  0  0
    4.9904   17.1279    0.6401 C   0  0  2  0  0  0  0  0  0  0  0  0
    6.0117   18.0717    1.1422 N   0  0  0  0  0  0  0  0  0  0  0  0
    7.3554   18.1553    0.8780 C   0  0  0  0  0  0  0  0  0  0  0  0
    7.9812   19.0639    1.5807 N   0  0  0  0  0  0  0  0  0  0  0  0
    6.9795   19.6460    2.3517 C   0  0  0  0  0  0  0  0  0  0  0  0
    7.0437   20.6715    3.3488 C   0  0  0  0  0  0  0  0  0  0  0  0
    8.0443   21.2459    3.7733 O   0  0  0  0  0  0  0  0  0  0  0  0
    5.7855   20.9991    3.8719 N   0  0  0  0  0  0  0  0  0  0  0  0
    4.5996   20.4202    3.4458 C   0  0  0  0  0  0  0  0  0  0  0  0
    3.4531   20.8937    3.9468 N   0  0  0  0  0  0  0  0  0  0  0  0
    4.5495   19.4250    2.5453 N   0  0  0  0  0  0  0  0  0  0  0  0
    5.7659   19.0792    2.0421 C   0  0  0  0  0  0  0  0  0  0  0  0
  1  2  2  0  0  0  0
  1  4  1  0  0  0  0
  1  3  1  0  0  0  0
  5  1  1  0  0  0  0
  6  7  2  1  0  0  0
  6  9  1  0  0  0  0
  6  5  1  0  0  0  0
  6  8  1  0  0  0  0
 10 11  2  6  0  0  0
 10 12  1  0  0  0  0
 10 13  1  0  0  0  0
 10  9  1  0  0  0  0
 13 14  1  0  0  0  0
 15 14  1  1  0  0  0
 15 16  1  0  0  0  0
 17 19  1  0  0  0  0
 17 15  1  0  0  0  0
 17 18  1  6  0  0  0
 19 21  1  0  0  0  0
 19 20  1  6  0  0  0
 21 16  1  0  0  0  0
 21 22  1  1  0  0  0
 22 32  1  0  0  0  0
 23 22  1  0  0  0  0
 23 24  2  0  0  0  0
 24 25  1  0  0  0  0
 25 26  1  0  0  0  0
 26 27  2  0  0  0  0
 26 28  1  0  0  0  0
 29 28  1  0  0  0  0
 29 30  1  0  0  0  0
 31 29  2  0  0  0  0
 32 25  2  0  0  0  0
 32 31  1  0  0  0  0
M  END
>  <CHROM.1>
56.69358149,-142.32076387,164.55319855,-80.30300662,44.74775066,-159.34991231
141.22999310,59.52592334,59.22199578,167.48602787,2.18265873,15.94860298
2.76154379,2.70807966,-0.53597470,-2.59768636

>  <Name>
lig.pdb

>  <RI>
1.82117e+07

>  <Rbt.Current_Directory>
/home/itssahil/PROJECTS/Mol_Feturizer/New_Systems/rnas/5lwj

>  <Rbt.Executable>
rbdock ($Id: //depot/dev/client3/rdock/2013.1/src/exe/rbdock.cxx#4 $)

>  <Rbt.Library>
libRbt.so (2013.1, Build901 2013/11/27)

>  <Rbt.Parameter_File>
/export/apps/rDock/src/rDock_2013.1_src/data/scripts/dock_solv.prm

>  <Rbt.Receptor>
prm/pocket_docking_5.prm

>  <SCORE>
-28.6875

>  <SCORE.INTER>
-30.9727

>  <SCORE.INTER.CONST>
1

>  <SCORE.INTER.POLAR>
-3.39661

>  <SCORE.INTER.ROT>
8

>  <SCORE.INTER.SOLV>
17.1512

>  <SCORE.INTER.VDW>
-23.9768

>  <SCORE.INTER.norm>
-0.967897

>  <SCORE.INTRA>
2.28519

>  <SCORE.INTRA.DIHEDRAL>
0.151768

>  <SCORE.INTRA.DIHEDRAL.0>
10.9248

>  <SCORE.INTRA.POLAR>
0

>  <SCORE.INTRA.POLAR.0>
0

>  <SCORE.INTRA.REPUL>
0.475171

>  <SCORE.INTRA.REPUL.0>
0

>  <SCORE.INTRA.SOLV>
1.91314

>  <SCORE.INTRA.SOLV.lig_0>
-51.4104

>  <SCORE.INTRA.VDW>
-1.12312

>  <SCORE.INTRA.VDW.0>
0.110327

>  <SCORE.INTRA.norm>
0.0714123

>  <SCORE.RESTR>
0

>  <SCORE.RESTR.CAVITY>
0

>  <SCORE.RESTR.norm>
0

>  <SCORE.SYSTEM>
0

>  <SCORE.SYSTEM.CONST>
0

>  <SCORE.SYSTEM.DIHEDRAL>
0

>  <SCORE.SYSTEM.SOLV>
0

>  <SCORE.SYSTEM.norm>
0

>  <SCORE.heavy>
32

>  <SCORE.norm>
-0.896485

>  <RMSD>
9.177

$$$$
lig.pdb
 OpenBabel11021811523D
libRbt.so/2013.1/901 2013/11/27
 32 34  0  0  0  0  0  0  0  0999 V2000
   -0.8461   11.8253    4.9826 P   0  0  0  0  0  0  0  0  0  0  0  0
   -1.7315   12.3576    6.0829 O   0  0  0  0  0  0  0  0  0  0  0  0
    0.4002   12.8642    4.9766 O   0  0  0  0  0  0  0  0  0  0  0  0
   -0.1790   10.4870    5.1804 O   0  0  0  0  0  0  0  0  0  0  0  0
   -1.6960   11.6823    3.8164 O   0  0  0  0  0  0  0  0  0  0  0  0
   -2.2197   13.0106    3.4204 P   0  0  1  0  0  0  0  0  0  0  0  0
   -2.9116   12.8645    2.1181 O   0  0  0  0  0  0  0  0  0  0  0  0
   -3.1887   13.4961    4.4304 O   0  0  0  0  0  0  0  0  0  0  0  0
   -1.0934   13.9703    3.3024 O   0  0  0  0  0  0  0  0  0  0  0  0
   -1.2939   15.4389    3.2991 P   0  0  1  0  0  0  0  0  0  0  0  0
   -2.6583   15.8791    3.6548 O   0  0  0  0  0  0  0  0  0  0  0  0
   -0.2049   16.2227    3.9234 O   0  0  0  0  0  0  0  0  0  0  0  0
   -1.2115   15.8068    1.7254 O   0  0  0  0  0  0  0  0  0  0  0  0
   -2.2521   15.4948    0.8184 C   0  0  0  0  0  0  0  0  0  0  0  0
   -2.0136   16.0846   -0.5786 C   0  0  1  0  0  0  0  0  0  0  0  0
   -0.8499   15.5272   -1.1541 O   0  0  0  0  0  0  0  0  0  0  0  0
   -3.0836   15.6872   -1.6106 C   0  0  1  0  0  0  0  0  0  0  0  0
   -4.3126   16.3877   -1.5151 O   0  0  0  0  0  0  0  0  0  0  0  0
   -2.3807   15.9070   -2.9499 C   0  0  1  0  0  0  0  0  0  0  0  0
   -2.5963   17.2113   -3.4593 O   0  0  0  0  0  0  0  0  0  0  0  0
   -0.9130   15.7746   -2.5474 C   0  0  2  0  0  0  0  0  0  0  0  0
   -0.1351   14.7727   -3.3070 N   0  0  0  0  0  0  0  0  0  0  0  0
   -0.5416   13.6388   -3.9636 C   0  0  0  0  0  0  0  0  0  0  0  0
    0.4396   12.9250   -4.4518 N   0  0  0  0  0  0  0  0  0  0  0  0
    1.5823   13.6462   -4.1190 C   0  0  0  0  0  0  0  0  0  0  0  0
    2.9672   13.3594   -4.3418 C   0  0  0  0  0  0  0  0  0  0  0  0
    3.4534   12.3567   -4.8611 O   0  0  0  0  0  0  0  0  0  0  0  0
    3.8134   14.3741   -3.8746 N   0  0  0  0  0  0  0  0  0  0  0  0
    3.3599   15.5478   -3.2917 C   0  0  0  0  0  0  0  0  0  0  0  0
    4.2620   16.4864   -2.9836 N   0  0  0  0  0  0  0  0  0  0  0  0
    2.0630   15.7907   -3.0411 N   0  0  0  0  0  0  0  0  0  0  0  0
    1.2279   14.8049   -3.4696 C   0  0  0  0  0  0  0  0  0  0  0  0
  1  2  2  0  0  0  0
  1  4  1  0  0  0  0
  1  3  1  0  0  0  0
  5  1  1  0  0  0  0
  6  7  2  6  0  0  0
  6  9  1  0  0  0  0
  6  5  1  0  0  0  0
  6  8  1  0  0  0  0
 10 11  2  1  0  0  0
 10 12  1  0  0  0  0
 10 13  1  0  0  0  0
 10  9  1  0  0  0  0
 13 14  1  0  0  0  0
 15 14  1  1  0  0  0
 15 16  1  0  0  0  0
 17 19  1  0  0  0  0
 17 15  1  0  0  0  0
 17 18  1  6  0  0  0
 19 21  1  0  0  0  0
 19 20  1  1  0  0  0
 21 16  1  0  0  0  0
 21 22  1  6  0  0  0
 22 32  1  0  0  0  0
 23 22  1  0  0  0  0
 23 24  2  0  0  0  0
 24 25  1  0  0  0  0
 25 26  1  0  0  0  0
 26 27  2  0  0  0  0
 26 28  1  0  0  0  0
 29 28  1  0  0  0  0
 29 30  1  0  0  0  0
 31 29  2  0  0  0  0
 32 25  2  0  0  0  0
 32 31  1  0  0  0  0
M  END
>  <CHROM.1>
62.28622720,-162.38937948,171.59502071,73.37060161,10.11483863,173.41319173
63.15687748,-58.83390967,55.74936264,98.39316545,-0.61699291,14.32165361
0.44371188,-1.96258482,0.52592997,-1.16136085

>  <Name>
lig.pdb

>  <RI>
2.92062e+07

>  <Rbt.Current_Directory>
/home/itssahil/PROJECTS/Mol_Feturizer/New_Systems/rnas/5lwj

>  <Rbt.Executable>
rbdock ($Id: //depot/dev/client3/rdock/2013.1/src/exe/rbdock.cxx#4 $)

>  <Rbt.Library>
libRbt.so (2013.1, Build901 2013/11/27)

>  <Rbt.Parameter_File>
/export/apps/rDock/src/rDock_2013.1_src/data/scripts/dock_solv.prm

>  <Rbt.Receptor>
prm/pocket_docking_7.prm

>  <SCORE>
-18.0939

>  <SCORE.INTER>
-14.6232

>  <SCORE.INTER.CONST>
1

>  <SCORE.INTER.POLAR>
-1.92827

>  <SCORE.INTER.ROT>
8

>  <SCORE.INTER.SOLV>
13.2272

>  <SCORE.INTER.VDW>
-16.6637

>  <SCORE.INTER.norm>
-0.456976

>  <SCORE.INTRA>
-3.47064

>  <SCORE.INTRA.DIHEDRAL>
-4.93175

>  <SCORE.INTRA.DIHEDRAL.0>
10.9248

>  <SCORE.INTRA.POLAR>
0

>  <SCORE.INTRA.POLAR.0>
0

>  <SCORE.INTRA.REPUL>
0

>  <SCORE.INTRA.REPUL.0>
0

>  <SCORE.INTRA.SOLV>
0.765291

>  <SCORE.INTRA.SOLV.lig_0>
-51.4104

>  <SCORE.INTRA.VDW>
-1.38741

>  <SCORE.INTRA.VDW.0>
0.110327

>  <SCORE.INTRA.norm>
-0.108458

>  <SCORE.RESTR>
0

>  <SCORE.RESTR.CAVITY>
0

>  <SCORE.RESTR.norm>
0

>  <SCORE.SYSTEM>
0

>  <SCORE.SYSTEM.CONST>
0

>  <SCORE.SYSTEM.DIHEDRAL>
0

>  <SCORE.SYSTEM.SOLV>
0

>  <SCORE.SYSTEM.norm>
0

>  <SCORE.heavy>
32

>  <SCORE.norm>
-0.565434

>  <RMSD>
9.180

$$$$
lig.pdb
 OpenBabel11021811523D
libRbt.so/2013.1/901 2013/11/27
 32 34  0  0  0  0  0  0  0  0999 V2000
   -1.2105   13.0214    3.7461 P   0  0  0  0  0  0  0  0  0  0  0  0
   -0.6582   11.8372    4.5015 O   0  0  0  0  0  0  0  0  0  0  0  0
   -2.7955   12.9714    4.0892 O   0  0  0  0  0  0  0  0  0  0  0  0
   -0.8058   14.4066    4.1850 O   0  0  0  0  0  0  0  0  0  0  0  0
   -0.7441   12.8801    2.3804 O   0  0  0  0  0  0  0  0  0  0  0  0
   -1.5932   13.6959    1.4809 P   0  0  1  0  0  0  0  0  0  0  0  0
   -2.9924   13.2270    1.6160 O   0  0  0  0  0  0  0  0  0  0  0  0
   -1.5221   15.1231    1.8719 O   0  0  0  0  0  0  0  0  0  0  0  0
   -1.1269   13.5345    0.0809 O   0  0  0  0  0  0  0  0  0  0  0  0
    0.1449   14.1177   -0.4084 P   0  0  1  0  0  0  0  0  0  0  0  0
    0.4735   13.7985   -1.8127 O   0  0  0  0  0  0  0  0  0  0  0  0
    0.3806   15.5259   -0.0191 O   0  0  0  0  0  0  0  0  0  0  0  0
    1.2606   13.2761    0.4073 O   0  0  0  0  0  0  0  0  0  0  0  0
    2.5741   13.7606    0.6145 C   0  0  0  0  0  0  0  0  0  0  0  0
    3.4031   13.7886   -0.6771 C   0  0  1  0  0  0  0  0  0  0  0  0
    4.6074   14.4985   -0.4715 O   0  0  0  0  0  0  0  0  0  0  0  0
    3.9327   12.4085   -1.1043 C   0  0  1  0  0  0  0  0  0  0  0  0
    2.9833   11.5557   -1.7220 O   0  0  0  0  0  0  0  0  0  0  0  0
    5.1060   12.7497   -2.0226 C   0  0  1  0  0  0  0  0  0  0  0  0
    4.7122   12.8463   -3.3800 O   0  0  0  0  0  0  0  0  0  0  0  0
    5.4872   14.1420   -1.5228 C   0  0  2  0  0  0  0  0  0  0  0  0
    6.9003   14.3061   -1.1199 N   0  0  0  0  0  0  0  0  0  0  0  0
    7.9565   13.4337   -1.1957 C   0  0  0  0  0  0  0  0  0  0  0  0
    9.0577   13.8815   -0.6502 N   0  0  0  0  0  0  0  0  0  0  0  0
    8.7201   15.1540   -0.1994 C   0  0  0  0  0  0  0  0  0  0  0  0
    9.4883   16.1266    0.5175 C   0  0  0  0  0  0  0  0  0  0  0  0
   10.6403   16.0176    0.9326 O   0  0  0  0  0  0  0  0  0  0  0  0
    8.7783   17.3113    0.7547 N   0  0  0  0  0  0  0  0  0  0  0  0
    7.4834   17.5351    0.3119 C   0  0  0  0  0  0  0  0  0  0  0  0
    6.9520   18.7469    0.5088 N   0  0  0  0  0  0  0  0  0  0  0  0
    6.7503   16.6023   -0.3177 N   0  0  0  0  0  0  0  0  0  0  0  0
    7.4179   15.4367   -0.5374 C   0  0  0  0  0  0  0  0  0  0  0  0
  1  2  2  0  0  0  0
  1  4  1  0  0  0  0
  1  3  1  0  0  0  0
  5  1  1  0  0  0  0
  6  7  2  1  0  0  0
  6  9  1  0  0  0  0
  6  5  1  0  0  0  0
  6  8  1  0  0  0  0
 10 11  2  6  0  0  0
 10 12  1  0  0  0  0
 10 13  1  0  0  0  0
 10  9  1  0  0  0  0
 13 14  1  0  0  0  0
 15 14  1  1  0  0  0
 15 16  1  0  0  0  0
 17 19  1  0  0  0  0
 17 15  1  0  0  0  0
 17 18  1  6  0  0  0
 19 21  1  0  0  0  0
 19 20  1  6  0  0  0
 21 16  1  0  0  0  0
 21 22  1  1  0  0  0
 22 32  1  0  0  0  0
 23 22  1  0  0  0  0
 23 24  2  0  0  0  0
 24 25  1  0  0  0  0
 25 26  1  0  0  0  0
 26 27  2  0  0  0  0
 26 28  1  0  0  0  0
 29 28  1  0  0  0  0
 29 30  1  0  0  0  0
 31 29  2  0  0  0  0
 32 25  2  0  0  0  0
 32 31  1  0  0  0  0
M  END
>  <CHROM.1>
160.34703035,-71.39578687,-58.90192799,-158.16828790,177.24212955,-69.95998639
169.36277648,-70.18770836,-57.88714974,128.73713075,2.86447212,14.20054069
0.50616599,-3.02092543,-0.32058413,-2.09699236

>  <Name>
lig.pdb

>  <RI>
2.0892e+07

>  <Rbt.Current_Directory>
/home/itssahil/PROJECTS/Mol_Feturizer/New_Systems/rnas/5lwj

>  <Rbt.Executable>
rbdock ($Id: //depot/dev/client3/rdock/2013.1/src/exe/rbdock.cxx#4 $)

>  <Rbt.Library>
libRbt.so (2013.1, Build901 2013/11/27)

>  <Rbt.Parameter_File>
/export/apps/rDock/src/rDock_2013.1_src/data/scripts/dock_solv.prm

>  <Rbt.Receptor>
prm/pocket_docking_8.prm

>  <SCORE>
-23.98

>  <SCORE.INTER>
-18.7488

>  <SCORE.INTER.CONST>
1

>  <SCORE.INTER.POLAR>
-1.69516

>  <SCORE.INTER.ROT>
8

>  <SCORE.INTER.SOLV>
14.1026

>  <SCORE.INTER.VDW>
-20.4829

>  <SCORE.INTER.norm>
-0.5859

>  <SCORE.INTRA>
-5.23122

>  <SCORE.INTRA.DIHEDRAL>
-5.38351

>  <SCORE.INTRA.DIHEDRAL.0>
10.9248

>  <SCORE.INTRA.POLAR>
-0.00294601

>  <SCORE.INTRA.POLAR.0>
0

>  <SCORE.INTRA.REPUL>
0.0561727

>  <SCORE.INTRA.REPUL.0>
0

>  <SCORE.INTRA.SOLV>
0.0313321

>  <SCORE.INTRA.SOLV.lig_0>
-51.4104

>  <SCORE.INTRA.VDW>
-2.82598

>  <SCORE.INTRA.VDW.0>
0.110327

>  <SCORE.INTRA.norm>
-0.163476

>  <SCORE.RESTR>
0

>  <SCORE.RESTR.CAVITY>
0

>  <SCORE.RESTR.norm>
0

>  <SCORE.SYSTEM>
0

>  <SCORE.SYSTEM.CONST>
0

>  <SCORE.SYSTEM.DIHEDRAL>
0

>  <SCORE.SYSTEM.SOLV>
0

>  <SCORE.SYSTEM.norm>
0

>  <SCORE.heavy>
32

>  <SCORE.norm>
-0.749375

>  <RMSD>
9.180

$$$$
lig.pdb
 OpenBabel11021811523D
libRbt.so/2013.1/901 2013/11/27
 32 34  0  0  0  0  0  0  0  0999 V2000
    2.0341   11.7183    6.2226 P   0  0  0  0  0  0  0  0  0  0  0  0
    2.3464   12.3220    4.8750 O   0  0  0  0  0  0  0  0  0  0  0  0
    2.4031   10.1515    6.0194 O   0  0  0  0  0  0  0  0  0  0  0  0
    2.8796   12.1218    7.4048 O   0  0  0  0  0  0  0  0  0  0  0  0
    0.6787   12.1243    6.5405 O   0  0  0  0  0  0  0  0  0  0  0  0
   -0.2771   11.3363    5.7274 P   0  0  1  0  0  0  0  0  0  0  0  0
    0.0100    9.8984    5.9421 O   0  0  0  0  0  0  0  0  0  0  0  0
   -1.6656   11.6213    6.1582 O   0  0  0  0  0  0  0  0  0  0  0  0
   -0.1132   11.6877    4.2945 O   0  0  0  0  0  0  0  0  0  0  0  0
   -0.7351   12.8908    3.6922 P   0  0  1  0  0  0  0  0  0  0  0  0
   -1.5721   12.6270    2.5041 O   0  0  0  0  0  0  0  0  0  0  0  0
   -1.3129   13.8500    4.6597 O   0  0  0  0  0  0  0  0  0  0  0  0
    0.5337   13.6675    3.0552 O   0  0  0  0  0  0  0  0  0  0  0  0
    0.6930   13.8426    1.6600 C   0  0  0  0  0  0  0  0  0  0  0  0
    2.1081   14.3005    1.2806 C   0  0  1  0  0  0  0  0  0  0  0  0
    2.0505   15.2807    0.2647 O   0  0  0  0  0  0  0  0  0  0  0  0
    2.8336   15.0660    2.4011 C   0  0  1  0  0  0  0  0  0  0  0  0
    3.3632   14.2640    3.4434 O   0  0  0  0  0  0  0  0  0  0  0  0
    3.9116   15.8493    1.6523 C   0  0  1  0  0  0  0  0  0  0  0  0
    5.1304   15.1324    1.5656 O   0  0  0  0  0  0  0  0  0  0  0  0
    3.3003   15.9474    0.2559 C   0  0  2  0  0  0  0  0  0  0  0  0
    3.1750   17.3170   -0.2867 N   0  0  0  0  0  0  0  0  0  0  0  0
    2.2355   17.8616   -1.1253 C   0  0  0  0  0  0  0  0  0  0  0  0
    2.4908   19.0935   -1.4830 N   0  0  0  0  0  0  0  0  0  0  0  0
    3.6725   19.4027   -0.8162 C   0  0  0  0  0  0  0  0  0  0  0  0
    4.4751   20.5882   -0.8364 C   0  0  0  0  0  0  0  0  0  0  0  0
    4.2978   21.6049   -1.5043 O   0  0  0  0  0  0  0  0  0  0  0  0
    5.5853   20.5062    0.0148 N   0  0  0  0  0  0  0  0  0  0  0  0
    5.8599   19.4106    0.8194 C   0  0  0  0  0  0  0  0  0  0  0  0
    6.8909   19.4959    1.6676 N   0  0  0  0  0  0  0  0  0  0  0  0
    5.1314   18.2825    0.7988 N   0  0  0  0  0  0  0  0  0  0  0  0
    4.0604   18.3369   -0.0394 C   0  0  0  0  0  0  0  0  0  0  0  0
  1  2  2  0  0  0  0
  1  4  1  0  0  0  0
  1  3  1  0  0  0  0
  5  1  1  0  0  0  0
  6  7  2  1  0  0  0
  6  9  1  0  0  0  0
  6  5  1  0  0  0  0
  6  8  1  0  0  0  0
 10 11  2  6  0  0  0
 10 12  1  0  0  0  0
 10 13  1  0  0  0  0
 10  9  1  0  0  0  0
 13 14  1  0  0  0  0
 15 14  1  1  0  0  0
 15 16  1  0  0  0  0
 17 19  1  0  0  0  0
 17 15  1  0  0  0  0
 17 18  1  1  0  0  0
 19 21  1  0  0  0  0
 19 20  1  6  0  0  0
 21 16  1  0  0  0  0
 21 22  1  1  0  0  0
 22 32  1  0  0  0  0
 23 22  1  0  0  0  0
 23 24  2  0  0  0  0
 24 25  1  0  0  0  0
 25 26  1  0  0  0  0
 26 27  2  0  0  0  0
 26 28  1  0  0  0  0
 29 28  1  0  0  0  0
 29 30  1  0  0  0  0
 31 29  2  0  0  0  0
 32 25  2  0  0  0  0
 32 31  1  0  0  0  0
M  END
>  <CHROM.1>
74.87780623,-81.54101518,54.12917060,114.05473317,-125.63619065,-166.30274487
-139.33940367,-54.24282754,59.10912780,-23.37684220,2.12798693,14.76843328
2.80826282,-2.01266575,-0.36994563,-0.82094310

>  <Name>
lig.pdb

>  <RI>
0

>  <Rbt.Current_Directory>
/home/itssahil/PROJECTS/Mol_Feturizer/New_Systems/rnas/5lwj

>  <Rbt.Executable>
rbdock ($Id: //depot/dev/client3/rdock/2013.1/src/exe/rbdock.cxx#4 $)

>  <Rbt.Library>
libRbt.so (2013.1, Build901 2013/11/27)

>  <Rbt.Parameter_File>
/export/apps/rDock/src/rDock_2013.1_src/data/scripts/dock_solv.prm

>  <Rbt.Receptor>
prm/pocket_docking_3.prm

>  <SCORE>
-37.2027

>  <SCORE.INTER>
-35.4764

>  <SCORE.INTER.CONST>
1

>  <SCORE.INTER.POLAR>
-2.60463

>  <SCORE.INTER.ROT>
8

>  <SCORE.INTER.SOLV>
24.75

>  <SCORE.INTER.VDW>
-32.1521

>  <SCORE.INTER.norm>
-1.10864

>  <SCORE.INTRA>
-2.07665

>  <SCORE.INTRA.DIHEDRAL>
2.75732

>  <SCORE.INTRA.DIHEDRAL.0>
10.9248

>  <SCORE.INTRA.POLAR>
-1.21919

>  <SCORE.INTRA.POLAR.0>
0

>  <SCORE.INTRA.REPUL>
0.0646085

>  <SCORE.INTRA.REPUL.0>
0

>  <SCORE.INTRA.SOLV>
2.81112

>  <SCORE.INTRA.SOLV.lig_0>
-51.4104

>  <SCORE.INTRA.VDW>
-1.03868

>  <SCORE.INTRA.VDW.0>
0.110327

>  <SCORE.INTRA.norm>
-0.0648953

>  <SCORE.RESTR>
0.350273

>  <SCORE.RESTR.CAVITY>
0.350273

>  <SCORE.RESTR.norm>
0.010946

>  <SCORE.SYSTEM>
0

>  <SCORE.SYSTEM.CONST>
0

>  <SCORE.SYSTEM.DIHEDRAL>
0

>  <SCORE.SYSTEM.SOLV>
0

>  <SCORE.SYSTEM.norm>
0

>  <SCORE.heavy>
32

>  <SCORE.norm>
-1.16259

>  <RMSD>
9.187

$$$$
lig.pdb
 OpenBabel11021811523D
libRbt.so/2013.1/901 2013/11/27
 32 34  0  0  0  0  0  0  0  0999 V2000
   -1.2921   11.9755    5.3554 P   0  0  0  0  0  0  0  0  0  0  0  0
   -2.2342   12.3121    6.4855 O   0  0  0  0  0  0  0  0  0  0  0  0
   -0.1538   11.0746    6.0801 O   0  0  0  0  0  0  0  0  0  0  0  0
   -1.7883   11.0796    4.2481 O   0  0  0  0  0  0  0  0  0  0  0  0
   -0.9492   13.2373    4.7285 O   0  0  0  0  0  0  0  0  0  0  0  0
   -0.1482   12.9817    3.5084 P   0  0  1  0  0  0  0  0  0  0  0  0
    0.6459   14.1979    3.2144 O   0  0  0  0  0  0  0  0  0  0  0  0
    0.7748   11.8454    3.7358 O   0  0  0  0  0  0  0  0  0  0  0  0
   -1.0574   12.6721    2.3766 O   0  0  0  0  0  0  0  0  0  0  0  0
   -1.8324   13.7176    1.6672 P   0  0  1  0  0  0  0  0  0  0  0  0
   -3.1148   13.2582    1.0959 O   0  0  0  0  0  0  0  0  0  0  0  0
   -1.8902   15.0288    2.3509 O   0  0  0  0  0  0  0  0  0  0  0  0
   -0.9411   13.9861    0.3435 O   0  0  0  0  0  0  0  0  0  0  0  0
    0.1568   14.8790    0.3371 C   0  0  0  0  0  0  0  0  0  0  0  0
    1.0445   14.7136   -0.9042 C   0  0  1  0  0  0  0  0  0  0  0  0
    2.1125   15.6381   -0.8700 O   0  0  0  0  0  0  0  0  0  0  0  0
    1.8022   13.3751   -0.9510 C   0  0  1  0  0  0  0  0  0  0  0  0
    1.0312   12.2515   -1.3421 O   0  0  0  0  0  0  0  0  0  0  0  0
    2.9604   13.6588   -1.9073 C   0  0  1  0  0  0  0  0  0  0  0  0
    2.6350   13.3436   -3.2496 O   0  0  0  0  0  0  0  0  0  0  0  0
    3.0953   15.1749   -1.7788 C   0  0  2  0  0  0  0  0  0  0  0  0
    4.4413   15.6628   -1.4095 N   0  0  0  0  0  0  0  0  0  0  0  0
    5.5851   14.9728   -1.0966 C   0  0  0  0  0  0  0  0  0  0  0  0
    6.5798   15.7336   -0.7188 N   0  0  0  0  0  0  0  0  0  0  0  0
    6.0720   17.0261   -0.8095 C   0  0  0  0  0  0  0  0  0  0  0  0
    6.6666   18.2890   -0.4909 C   0  0  0  0  0  0  0  0  0  0  0  0
    7.7814   18.4968   -0.0162 O   0  0  0  0  0  0  0  0  0  0  0  0
    5.8185   19.3714   -0.7607 N   0  0  0  0  0  0  0  0  0  0  0  0
    4.5526   19.2396   -1.3114 C   0  0  0  0  0  0  0  0  0  0  0  0
    3.8822   20.3551   -1.6211 N   0  0  0  0  0  0  0  0  0  0  0  0
    3.9808   18.0507   -1.5633 N   0  0  0  0  0  0  0  0  0  0  0  0
    4.7833   16.9868   -1.2867 C   0  0  0  0  0  0  0  0  0  0  0  0
  1  2  2  0  0  0  0
  1  4  1  0  0  0  0
  1  3  1  0  0  0  0
  5  1  1  0  0  0  0
  6  7  2  6  0  0  0
  6  9  1  0  0  0  0
  6  5  1  0  0  0  0
  6  8  1  0  0  0  0
 10 11  2  6  0  0  0
 10 12  1  0  0  0  0
 10 13  1  0  0  0  0
 10  9  1  0  0  0  0
 13 14  1  0  0  0  0
 15 14  1  1  0  0  0
 15 16  1  0  0  0  0
 17 19  1  0  0  0  0
 17 15  1  0  0  0  0
 17 18  1  6  0  0  0
 19 21  1  0  0  0  0
 19 20  1  6  0  0  0
 21 16  1  0  0  0  0
 21 22  1  1  0  0  0
 22 32  1  0  0  0  0
 23 22  1  0  0  0  0
 23 24  2  0  0  0  0
 24 25  1  0  0  0  0
 25 26  1  0  0  0  0
 26 27  2  0  0  0  0
 26 28  1  0  0  0  0
 29 28  1  0  0  0  0
 29 30  1  0  0  0  0
 31 29  2  0  0  0  0
 32 25  2  0  0  0  0
 32 31  1  0  0  0  0
M  END
>  <CHROM.1>
-173.51319777,76.22900897,-156.68597883,-84.66688802,-150.46841956,165.95249313
179.21547938,-165.46660566,61.99781326,120.59407369,1.47008597,14.54957443
1.09940229,-2.55615755,-0.64785233,-1.55660199

>  <Name>
lig.pdb

>  <RI>
1.82117e+07

>  <Rbt.Current_Directory>
/home/itssahil/PROJECTS/Mol_Feturizer/New_Systems/rnas/5lwj

>  <Rbt.Executable>
rbdock ($Id: //depot/dev/client3/rdock/2013.1/src/exe/rbdock.cxx#4 $)

>  <Rbt.Library>
libRbt.so (2013.1, Build901 2013/11/27)

>  <Rbt.Parameter_File>
/export/apps/rDock/src/rDock_2013.1_src/data/scripts/dock_solv.prm

>  <Rbt.Receptor>
prm/pocket_docking_5.prm

>  <SCORE>
-27.1405

>  <SCORE.INTER>
-25.4531

>  <SCORE.INTER.CONST>
1

>  <SCORE.INTER.POLAR>
-3.18952

>  <SCORE.INTER.ROT>
8

>  <SCORE.INTER.SOLV>
16.1106

>  <SCORE.INTER.VDW>
-20.6405

>  <SCORE.INTER.norm>
-0.795409

>  <SCORE.INTRA>
-1.68736

>  <SCORE.INTRA.DIHEDRAL>
-2.33137

>  <SCORE.INTRA.DIHEDRAL.0>
10.9248

>  <SCORE.INTRA.POLAR>
0

>  <SCORE.INTRA.POLAR.0>
0

>  <SCORE.INTRA.REPUL>
0.0088201

>  <SCORE.INTRA.REPUL.0>
0

>  <SCORE.INTRA.SOLV>
-0.172169

>  <SCORE.INTRA.SOLV.lig_0>
-51.4104

>  <SCORE.INTRA.VDW>
-0.479696

>  <SCORE.INTRA.VDW.0>
0.110327

>  <SCORE.INTRA.norm>
-0.0527301

>  <SCORE.RESTR>
0

>  <SCORE.RESTR.CAVITY>
0

>  <SCORE.RESTR.norm>
0

>  <SCORE.SYSTEM>
0

>  <SCORE.SYSTEM.CONST>
0

>  <SCORE.SYSTEM.DIHEDRAL>
0

>  <SCORE.SYSTEM.SOLV>
0

>  <SCORE.SYSTEM.norm>
0

>  <SCORE.heavy>
32

>  <SCORE.norm>
-0.848139

>  <RMSD>
9.195

$$$$
lig.pdb
 OpenBabel11021811523D
libRbt.so/2013.1/901 2013/11/27
 32 34  0  0  0  0  0  0  0  0999 V2000
   -1.7192   12.0039    5.3964 P   0  0  0  0  0  0  0  0  0  0  0  0
   -2.8827   11.0885    5.6901 O   0  0  0  0  0  0  0  0  0  0  0  0
   -2.3169   13.4765    5.7232 O   0  0  0  0  0  0  0  0  0  0  0  0
   -0.4993   11.9225    6.2797 O   0  0  0  0  0  0  0  0  0  0  0  0
   -1.2705   11.6673    4.0592 O   0  0  0  0  0  0  0  0  0  0  0  0
   -0.1048   12.5095    3.7021 P   0  0  1  0  0  0  0  0  0  0  0  0
   -0.3824   13.8951    4.1482 O   0  0  0  0  0  0  0  0  0  0  0  0
    1.1094   12.0143    4.3913 O   0  0  0  0  0  0  0  0  0  0  0  0
    0.1004   12.4711    2.2324 O   0  0  0  0  0  0  0  0  0  0  0  0
   -0.1083   13.6560    1.3668 P   0  0  1  0  0  0  0  0  0  0  0  0
    0.0067   13.3932   -0.0822 O   0  0  0  0  0  0  0  0  0  0  0  0
   -1.2428   14.5241    1.7534 O   0  0  0  0  0  0  0  0  0  0  0  0
    1.2084   14.5495    1.6613 O   0  0  0  0  0  0  0  0  0  0  0  0
    1.1408   15.9419    1.9048 C   0  0  0  0  0  0  0  0  0  0  0  0
    2.5274   16.5812    2.0627 C   0  0  1  0  0  0  0  0  0  0  0  0
    3.4082   16.0931    1.0715 O   0  0  0  0  0  0  0  0  0  0  0  0
    2.5505   18.0922    1.7727 C   0  0  1  0  0  0  0  0  0  0  0  0
    2.0420   18.9191    2.8061 O   0  0  0  0  0  0  0  0  0  0  0  0
    4.0215   18.3696    1.4638 C   0  0  1  0  0  0  0  0  0  0  0  0
    4.7506   18.7382    2.6212 O   0  0  0  0  0  0  0  0  0  0  0  0
    4.4988   16.9942    1.0013 C   0  0  2  0  0  0  0  0  0  0  0  0
    5.1391   16.9602   -0.3310 N   0  0  0  0  0  0  0  0  0  0  0  0
    4.7628   17.5395   -1.5164 C   0  0  0  0  0  0  0  0  0  0  0  0
    5.5212   17.2162   -2.5318 N   0  0  0  0  0  0  0  0  0  0  0  0
    6.4881   16.3806   -1.9808 C   0  0  0  0  0  0  0  0  0  0  0  0
    7.5723   15.6739   -2.5932 C   0  0  0  0  0  0  0  0  0  0  0  0
    7.8609   15.6279   -3.7873 O   0  0  0  0  0  0  0  0  0  0  0  0
    8.3448   14.9585   -1.6683 N   0  0  0  0  0  0  0  0  0  0  0  0
    8.1094   14.9621   -0.3017 C   0  0  0  0  0  0  0  0  0  0  0  0
    8.9813   14.3255    0.4883 N   0  0  0  0  0  0  0  0  0  0  0  0
    7.0629   15.5872    0.2622 N   0  0  0  0  0  0  0  0  0  0  0  0
    6.2890   16.2700   -0.6251 C   0  0  0  0  0  0  0  0  0  0  0  0
  1  2  2  0  0  0  0
  1  4  1  0  0  0  0
  1  3  1  0  0  0  0
  5  1  1  0  0  0  0
  6  7  2  1  0  0  0
  6  9  1  0  0  0  0
  6  5  1  0  0  0  0
  6  8  1  0  0  0  0
 10 11  2  6  0  0  0
 10 12  1  0  0  0  0
 10 13  1  0  0  0  0
 10  9  1  0  0  0  0
 13 14  1  0  0  0  0
 15 14  1  6  0  0  0
 15 16  1  0  0  0  0
 17 19  1  0  0  0  0
 17 15  1  0  0  0  0
 17 18  1  1  0  0  0
 19 21  1  0  0  0  0
 19 20  1  1  0  0  0
 21 16  1  0  0  0  0
 21 22  1  6  0  0  0
 22 32  1  0  0  0  0
 23 22  1  0  0  0  0
 23 24  2  0  0  0  0
 24 25  1  0  0  0  0
 25 26  1  0  0  0  0
 26 27  2  0  0  0  0
 26 28  1  0  0  0  0
 29 28  1  0  0  0  0
 29 30  1  0  0  0  0
 31 29  2  0  0  0  0
 32 25  2  0  0  0  0
 32 31  1  0  0  0  0
M  END
>  <CHROM.1>
-178.89713725,112.59171402,-42.86560845,-134.24924729,-173.90899667,-176.11410476
43.91307046,70.75070546,152.96883379,78.92537850,2.41651637,14.77017756,1.76596260
-2.77812416,0.61306558,0.02546957

>  <Name>
lig.pdb

>  <RI>
1.82117e+07

>  <Rbt.Current_Directory>
/home/itssahil/PROJECTS/Mol_Feturizer/New_Systems/rnas/5lwj

>  <Rbt.Executable>
rbdock ($Id: //depot/dev/client3/rdock/2013.1/src/exe/rbdock.cxx#4 $)

>  <Rbt.Library>
libRbt.so (2013.1, Build901 2013/11/27)

>  <Rbt.Parameter_File>
/export/apps/rDock/src/rDock_2013.1_src/data/scripts/dock_solv.prm

>  <Rbt.Receptor>
prm/pocket_docking_5.prm

>  <SCORE>
-32.0784

>  <SCORE.INTER>
-33.2969

>  <SCORE.INTER.CONST>
1

>  <SCORE.INTER.POLAR>
-3.65727

>  <SCORE.INTER.ROT>
8

>  <SCORE.INTER.SOLV>
21.34

>  <SCORE.INTER.VDW>
-26.0537

>  <SCORE.INTER.norm>
-1.04053

>  <SCORE.INTRA>
0.759618

>  <SCORE.INTRA.DIHEDRAL>
1.4948

>  <SCORE.INTRA.DIHEDRAL.0>
10.9248

>  <SCORE.INTRA.POLAR>
-0.0797145

>  <SCORE.INTRA.POLAR.0>
0

>  <SCORE.INTRA.REPUL>
0

>  <SCORE.INTRA.REPUL.0>
0

>  <SCORE.INTRA.SOLV>
-1.09198

>  <SCORE.INTRA.SOLV.lig_0>
-51.4104

>  <SCORE.INTRA.VDW>
0.829239

>  <SCORE.INTRA.VDW.0>
0.110327

>  <SCORE.INTRA.norm>
0.0237381

>  <SCORE.RESTR>
0.458792

>  <SCORE.RESTR.CAVITY>
0.458792

>  <SCORE.RESTR.norm>
0.0143373

>  <SCORE.SYSTEM>
0

>  <SCORE.SYSTEM.CONST>
0

>  <SCORE.SYSTEM.DIHEDRAL>
0

>  <SCORE.SYSTEM.SOLV>
0

>  <SCORE.SYSTEM.norm>
0

>  <SCORE.heavy>
32

>  <SCORE.norm>
-1.00245

>  <RMSD>
9.209

$$$$
lig.pdb
 OpenBabel11021811523D
libRbt.so/2013.1/901 2013/11/27
 32 34  0  0  0  0  0  0  0  0999 V2000
   -3.4001   15.7864    4.9696 P   0  0  0  0  0  0  0  0  0  0  0  0
   -4.6765   15.7831    4.1641 O   0  0  0  0  0  0  0  0  0  0  0  0
   -2.2535   15.5572    3.8447 O   0  0  0  0  0  0  0  0  0  0  0  0
   -2.9754   17.0697    5.6389 O   0  0  0  0  0  0  0  0  0  0  0  0
   -3.5947   14.8224    6.0352 O   0  0  0  0  0  0  0  0  0  0  0  0
   -3.3578   13.4555    5.5148 P   0  0  1  0  0  0  0  0  0  0  0  0
   -3.6374   12.4915    6.6050 O   0  0  0  0  0  0  0  0  0  0  0  0
   -4.2693   13.1791    4.3801 O   0  0  0  0  0  0  0  0  0  0  0  0
   -1.9474   13.3349    5.0675 O   0  0  0  0  0  0  0  0  0  0  0  0
   -1.1902   12.0635    5.1511 P   0  0  1  0  0  0  0  0  0  0  0  0
   -0.6737   11.7368    6.4958 O   0  0  0  0  0  0  0  0  0  0  0  0
   -1.7925   10.9249    4.4225 O   0  0  0  0  0  0  0  0  0  0  0  0
    0.1649   12.4008    4.3333 O   0  0  0  0  0  0  0  0  0  0  0  0
    0.1575   12.7310    2.9572 C   0  0  0  0  0  0  0  0  0  0  0  0
    1.3329   13.6353    2.5612 C   0  0  1  0  0  0  0  0  0  0  0  0
    2.0147   13.0941    1.4482 O   0  0  0  0  0  0  0  0  0  0  0  0
    0.9028   15.0085    2.0160 C   0  0  1  0  0  0  0  0  0  0  0  0
    0.4950   15.9517    2.9929 O   0  0  0  0  0  0  0  0  0  0  0  0
    2.1241   15.4709    1.2218 C   0  0  1  0  0  0  0  0  0  0  0  0
    3.0166   16.2373    2.0112 O   0  0  0  0  0  0  0  0  0  0  0  0
    2.7892   14.1377    0.8847 C   0  0  2  0  0  0  0  0  0  0  0  0
    3.0444   13.9018   -0.5524 N   0  0  0  0  0  0  0  0  0  0  0  0
    4.0319   13.1823   -1.1765 C   0  0  0  0  0  0  0  0  0  0  0  0
    4.0108   13.2691   -2.4814 N   0  0  0  0  0  0  0  0  0  0  0  0
    2.9159   14.0851   -2.7496 C   0  0  0  0  0  0  0  0  0  0  0  0
    2.4007   14.5812   -3.9900 C   0  0  0  0  0  0  0  0  0  0  0  0
    2.8616   14.4119   -5.1170 O   0  0  0  0  0  0  0  0  0  0  0  0
    1.2446   15.3560   -3.8262 N   0  0  0  0  0  0  0  0  0  0  0  0
    0.6407   15.5889   -2.5997 C   0  0  0  0  0  0  0  0  0  0  0  0
   -0.5189   16.2558   -2.5863 N   0  0  0  0  0  0  0  0  0  0  0  0
    1.1545   15.1620   -1.4346 N   0  0  0  0  0  0  0  0  0  0  0  0
    2.2903   14.4251   -1.5736 C   0  0  0  0  0  0  0  0  0  0  0  0
  1  2  2  0  0  0  0
  1  4  1  0  0  0  0
  1  3  1  0  0  0  0
  5  1  1  0  0  0  0
  6  7  2  1  0  0  0
  6  9  1  0  0  0  0
  6  5  1  0  0  0  0
  6  8  1  0  0  0  0
 10 11  2  1  0  0  0
 10 12  1  0  0  0  0
 10 13  1  0  0  0  0
 10  9  1  0  0  0  0
 13 14  1  0  0  0  0
 15 14  1  6  0  0  0
 15 16  1  0  0  0  0
 17 19  1  0  0  0  0
 17 15  1  0  0  0  0
 17 18  1  1  0  0  0
 19 21  1  0  0  0  0
 19 20  1  1  0  0  0
 21 16  1  0  0  0  0
 21 22  1  6  0  0  0
 22 32  1  0  0  0  0
 23 22  1  0  0  0  0
 23 24  2  0  0  0  0
 24 25  1  0  0  0  0
 25 26  1  0  0  0  0
 26 27  2  0  0  0  0
 26 28  1  0  0  0  0
 29 28  1  0  0  0  0
 29 30  1  0  0  0  0
 31 29  2  0  0  0  0
 32 25  2  0  0  0  0
 32 31  1  0  0  0  0
M  END
>  <CHROM.1>
80.67513915,148.01680744,-176.89820194,-62.85434165,-78.69500899,152.02589718
128.64052086,-77.18235011,174.88224564,-86.10291729,-0.28529239,14.18053189
2.20748833,2.34374553,-0.62587453,2.18927405

>  <Name>
lig.pdb

>  <RI>
0

>  <Rbt.Current_Directory>
/home/itssahil/PROJECTS/Mol_Feturizer/New_Systems/rnas/5lwj

>  <Rbt.Executable>
rbdock ($Id: //depot/dev/client3/rdock/2013.1/src/exe/rbdock.cxx#4 $)

>  <Rbt.Library>
libRbt.so (2013.1, Build901 2013/11/27)

>  <Rbt.Parameter_File>
/export/apps/rDock/src/rDock_2013.1_src/data/scripts/dock_solv.prm

>  <Rbt.Receptor>
prm/pocket_docking_6.prm

>  <SCORE>
-27.0991

>  <SCORE.INTER>
-21.561

>  <SCORE.INTER.CONST>
1

>  <SCORE.INTER.POLAR>
-2.16474

>  <SCORE.INTER.ROT>
8

>  <SCORE.INTER.SOLV>
18.3865

>  <SCORE.INTER.VDW>
-22.2204

>  <SCORE.INTER.norm>
-0.673781

>  <SCORE.INTRA>
-5.53809

>  <SCORE.INTRA.DIHEDRAL>
3.60004

>  <SCORE.INTRA.DIHEDRAL.0>
10.9248

>  <SCORE.INTRA.POLAR>
-1

>  <SCORE.INTRA.POLAR.0>
0

>  <SCORE.INTRA.REPUL>
0

>  <SCORE.INTRA.REPUL.0>
0

>  <SCORE.INTRA.SOLV>
-0.314078

>  <SCORE.INTRA.SOLV.lig_0>
-51.4104

>  <SCORE.INTRA.VDW>
-3.78107

>  <SCORE.INTRA.VDW.0>
0.110327

>  <SCORE.INTRA.norm>
-0.173065

>  <SCORE.RESTR>
0

>  <SCORE.RESTR.CAVITY>
0

>  <SCORE.RESTR.norm>
0

>  <SCORE.SYSTEM>
0

>  <SCORE.SYSTEM.CONST>
0

>  <SCORE.SYSTEM.DIHEDRAL>
0

>  <SCORE.SYSTEM.SOLV>
0

>  <SCORE.SYSTEM.norm>
0

>  <SCORE.heavy>
32

>  <SCORE.norm>
-0.846846

>  <RMSD>
9.212

$$$$
lig.pdb
 OpenBabel11021811523D
libRbt.so/2013.1/901 2013/11/27
 32 34  0  0  0  0  0  0  0  0999 V2000
   -1.9980   13.0473    3.7514 P   0  0  0  0  0  0  0  0  0  0  0  0
   -3.4464   13.3296    3.4345 O   0  0  0  0  0  0  0  0  0  0  0  0
   -1.5716   14.3068    4.6811 O   0  0  0  0  0  0  0  0  0  0  0  0
   -1.6700   11.8544    4.6143 O   0  0  0  0  0  0  0  0  0  0  0  0
   -1.3460   12.8135    2.4775 O   0  0  0  0  0  0  0  0  0  0  0  0
    0.1113   13.0414    2.6187 P   0  0  1  0  0  0  0  0  0  0  0  0
    0.3146   14.4029    3.1673 O   0  0  0  0  0  0  0  0  0  0  0  0
    0.6916   12.0514    3.5557 O   0  0  0  0  0  0  0  0  0  0  0  0
    0.7615   12.9171    1.2900 O   0  0  0  0  0  0  0  0  0  0  0  0
    1.3778   14.0708    0.5927 P   0  0  1  0  0  0  0  0  0  0  0  0
    1.8390   13.7899   -0.7821 O   0  0  0  0  0  0  0  0  0  0  0  0
    0.6670   15.3580    0.7595 O   0  0  0  0  0  0  0  0  0  0  0  0
    2.7715   14.2674    1.3912 O   0  0  0  0  0  0  0  0  0  0  0  0
    3.0328   15.4050    2.1914 C   0  0  0  0  0  0  0  0  0  0  0  0
    3.1595   16.6918    1.3640 C   0  0  1  0  0  0  0  0  0  0  0  0
    3.7347   17.7209    2.1429 O   0  0  0  0  0  0  0  0  0  0  0  0
    4.1671   16.5877    0.2057 C   0  0  1  0  0  0  0  0  0  0  0  0
    3.7100   15.8866   -0.9387 O   0  0  0  0  0  0  0  0  0  0  0  0
    4.5122   18.0463   -0.0936 C   0  0  1  0  0  0  0  0  0  0  0  0
    3.6668   18.6033   -1.0846 O   0  0  0  0  0  0  0  0  0  0  0  0
    4.2022   18.7123    1.2457 C   0  0  2  0  0  0  0  0  0  0  0  0
    5.3098   19.4930    1.8371 N   0  0  0  0  0  0  0  0  0  0  0  0
    5.2899   20.6396    2.5903 C   0  0  0  0  0  0  0  0  0  0  0  0
    6.4762   21.1163    2.8664 N   0  0  0  0  0  0  0  0  0  0  0  0
    7.3520   20.2099    2.2765 C   0  0  0  0  0  0  0  0  0  0  0  0
    8.7816   20.2074    2.1966 C   0  0  0  0  0  0  0  0  0  0  0  0
    9.5597   21.0610    2.6175 O   0  0  0  0  0  0  0  0  0  0  0  0
    9.2859   19.0800    1.5344 N   0  0  0  0  0  0  0  0  0  0  0  0
    8.4908   18.0567    1.0407 C   0  0  0  0  0  0  0  0  0  0  0  0
    9.0975   16.9826    0.5232 N   0  0  0  0  0  0  0  0  0  0  0  0
    7.1485   18.0869    1.0753 N   0  0  0  0  0  0  0  0  0  0  0  0
    6.6407   19.1864    1.6966 C   0  0  0  0  0  0  0  0  0  0  0  0
  1  2  2  0  0  0  0
  1  4  1  0  0  0  0
  1  3  1  0  0  0  0
  5  1  1  0  0  0  0
  6  7  2  1  0  0  0
  6  9  1  0  0  0  0
  6  5  1  0  0  0  0
  6  8  1  0  0  0  0
 10 11  2  6  0  0  0
 10 12  1  0  0  0  0
 10 13  1  0  0  0  0
 10  9  1  0  0  0  0
 13 14  1  0  0  0  0
 15 14  1  1  0  0  0
 15 16  1  0  0  0  0
 17 19  1  0  0  0  0
 17 15  1  0  0  0  0
 17 18  1  6  0  0  0
 19 21  1  0  0  0  0
 19 20  1  6  0  0  0
 21 16  1  0  0  0  0
 21 22  1  1  0  0  0
 22 32  1  0  0  0  0
 23 22  1  0  0  0  0
 23 24  2  0  0  0  0
 24 25  1  0  0  0  0
 25 26  1  0  0  0  0
 26 27  2  0  0  0  0
 26 28  1  0  0  0  0
 29 28  1  0  0  0  0
 29 30  1  0  0  0  0
 31 29  2  0  0  0  0
 32 25  2  0  0  0  0
 32 31  1  0  0  0  0
M  END
>  <CHROM.1>
158.47331326,112.54716958,-54.85728722,-112.73120410,-173.37143505,-67.45981890
-165.68213850,-60.90537615,55.19541455,-89.69301015,2.99158126,16.02722325
1.82941691,2.89093262,-0.61153904,-2.21223906

>  <Name>
lig.pdb

>  <RI>
0

>  <Rbt.Current_Directory>
/home/itssahil/PROJECTS/Mol_Feturizer/New_Systems/rnas/5lwj

>  <Rbt.Executable>
rbdock ($Id: //depot/dev/client3/rdock/2013.1/src/exe/rbdock.cxx#4 $)

>  <Rbt.Library>
libRbt.so (2013.1, Build901 2013/11/27)

>  <Rbt.Parameter_File>
/export/apps/rDock/src/rDock_2013.1_src/data/scripts/dock_solv.prm

>  <Rbt.Receptor>
prm/pocket_docking_3.prm

>  <SCORE>
-26.1346

>  <SCORE.INTER>
-23.577

>  <SCORE.INTER.CONST>
1

>  <SCORE.INTER.POLAR>
-2.14219

>  <SCORE.INTER.ROT>
8

>  <SCORE.INTER.SOLV>
13.2376

>  <SCORE.INTER.VDW>
-21.9232

>  <SCORE.INTER.norm>
-0.73678

>  <SCORE.INTRA>
-2.5705

>  <SCORE.INTRA.DIHEDRAL>
-1.56107

>  <SCORE.INTRA.DIHEDRAL.0>
10.9248

>  <SCORE.INTRA.POLAR>
-0.36461

>  <SCORE.INTRA.POLAR.0>
0

>  <SCORE.INTRA.REPUL>
0

>  <SCORE.INTRA.REPUL.0>
0

>  <SCORE.INTRA.SOLV>
1.75653

>  <SCORE.INTRA.SOLV.lig_0>
-51.4104

>  <SCORE.INTRA.VDW>
-1.42855

>  <SCORE.INTRA.VDW.0>
0.110327

>  <SCORE.INTRA.norm>
-0.0803281

>  <SCORE.RESTR>
0.0128968

>  <SCORE.RESTR.CAVITY>
0.0128968

>  <SCORE.RESTR.norm>
0.000403024

>  <SCORE.SYSTEM>
0

>  <SCORE.SYSTEM.CONST>
0

>  <SCORE.SYSTEM.DIHEDRAL>
0

>  <SCORE.SYSTEM.SOLV>
0

>  <SCORE.SYSTEM.norm>
0

>  <SCORE.heavy>
32

>  <SCORE.norm>
-0.816705

>  <RMSD>
9.220

$$$$
lig.pdb
 OpenBabel11021811523D
libRbt.so/2013.1/901 2013/11/27
 32 34  0  0  0  0  0  0  0  0999 V2000
   -3.8327   15.6619    5.5770 P   0  0  0  0  0  0  0  0  0  0  0  0
   -4.9431   16.4156    6.2676 O   0  0  0  0  0  0  0  0  0  0  0  0
   -4.2205   15.7906    4.0067 O   0  0  0  0  0  0  0  0  0  0  0  0
   -2.4355   16.2273    5.6350 O   0  0  0  0  0  0  0  0  0  0  0  0
   -3.7680   14.3635    6.2193 O   0  0  0  0  0  0  0  0  0  0  0  0
   -3.1632   13.3813    5.2893 P   0  0  1  0  0  0  0  0  0  0  0  0
   -2.9832   12.1044    6.0195 O   0  0  0  0  0  0  0  0  0  0  0  0
   -4.0631   13.1547    4.1345 O   0  0  0  0  0  0  0  0  0  0  0  0
   -1.8538   13.8934    4.8133 O   0  0  0  0  0  0  0  0  0  0  0  0
   -0.8734   13.0383    4.1029 P   0  0  1  0  0  0  0  0  0  0  0  0
    0.0638   12.3087    4.9811 O   0  0  0  0  0  0  0  0  0  0  0  0
   -1.4286   12.2409    2.9866 O   0  0  0  0  0  0  0  0  0  0  0  0
    0.0941   14.1215    3.3894 O   0  0  0  0  0  0  0  0  0  0  0  0
   -0.0667   14.5070    2.0372 C   0  0  0  0  0  0  0  0  0  0  0  0
    0.8304   15.6911    1.6506 C   0  0  1  0  0  0  0  0  0  0  0  0
    0.4374   16.8533    2.3515 O   0  0  0  0  0  0  0  0  0  0  0  0
    2.2911   15.5384    2.1096 C   0  0  1  0  0  0  0  0  0  0  0  0
    3.0886   14.6670    1.3254 O   0  0  0  0  0  0  0  0  0  0  0  0
    2.8123   16.9753    2.1113 C   0  0  1  0  0  0  0  0  0  0  0  0
    3.4015   17.3318    0.8733 O   0  0  0  0  0  0  0  0  0  0  0  0
    1.5175   17.7672    2.2839 C   0  0  2  0  0  0  0  0  0  0  0  0
    1.4971   18.7086    3.4238 N   0  0  0  0  0  0  0  0  0  0  0  0
    0.6898   18.7494    4.5324 C   0  0  0  0  0  0  0  0  0  0  0  0
    0.8887   19.7909    5.2983 N   0  0  0  0  0  0  0  0  0  0  0  0
    1.9196   20.4827    4.6696 C   0  0  0  0  0  0  0  0  0  0  0  0
    2.5527   21.7230    5.0024 C   0  0  0  0  0  0  0  0  0  0  0  0
    2.2784   22.4821    5.9296 O   0  0  0  0  0  0  0  0  0  0  0  0
    3.5862   22.0591    4.1177 N   0  0  0  0  0  0  0  0  0  0  0  0
    3.9803   21.2607    3.0546 C   0  0  0  0  0  0  0  0  0  0  0  0
    5.0501   21.6396    2.3462 N   0  0  0  0  0  0  0  0  0  0  0  0
    3.3521   20.1223    2.7178 N   0  0  0  0  0  0  0  0  0  0  0  0
    2.3311   19.7915    3.5547 C   0  0  0  0  0  0  0  0  0  0  0  0
  1  2  2  0  0  0  0
  1  4  1  0  0  0  0
  1  3  1  0  0  0  0
  5  1  1  0  0  0  0
  6  7  2  1  0  0  0
  6  9  1  0  0  0  0
  6  5  1  0  0  0  0
  6  8  1  0  0  0  0
 10 11  2  1  0  0  0
 10 12  1  0  0  0  0
 10 13  1  0  0  0  0
 10  9  1  0  0  0  0
 13 14  1  0  0  0  0
 15 14  1  1  0  0  0
 15 16  1  0  0  0  0
 17 19  1  0  0  0  0
 17 15  1  0  0  0  0
 17 18  1  6  0  0  0
 19 21  1  0  0  0  0
 19 20  1  6  0  0  0
 21 16  1  0  0  0  0
 21 22  1  1  0  0  0
 22 32  1  0  0  0  0
 23 22  1  0  0  0  0
 23 24  2  0  0  0  0
 24 25  1  0  0  0  0
 25 26  1  0  0  0  0
 26 27  2  0  0  0  0
 26 28  1  0  0  0  0
 29 28  1  0  0  0  0
 29 30  1  0  0  0  0
 31 29  2  0  0  0  0
 32 25  2  0  0  0  0
 32 31  1  0  0  0  0
M  END
>  <CHROM.1>
155.77836909,166.91045207,174.26210994,-97.49845107,-87.96360981,171.47672799
-66.02981669,60.31057187,58.58633043,5.78511810,-0.09275235,16.43781681,3.95986749
2.47525771,-0.57429827,-2.76754132

>  <Name>
lig.pdb

>  <RI>
2.92062e+07

>  <Rbt.Current_Directory>
/home/itssahil/PROJECTS/Mol_Feturizer/New_Systems/rnas/5lwj

>  <Rbt.Executable>
rbdock ($Id: //depot/dev/client3/rdock/2013.1/src/exe/rbdock.cxx#4 $)

>  <Rbt.Library>
libRbt.so (2013.1, Build901 2013/11/27)

>  <Rbt.Parameter_File>
/export/apps/rDock/src/rDock_2013.1_src/data/scripts/dock_solv.prm

>  <Rbt.Receptor>
prm/pocket_docking_7.prm

>  <SCORE>
-31.754

>  <SCORE.INTER>
-26.2467

>  <SCORE.INTER.CONST>
1

>  <SCORE.INTER.POLAR>
-2.75737

>  <SCORE.INTER.ROT>
8

>  <SCORE.INTER.SOLV>
16.298

>  <SCORE.INTER.VDW>
-22.6726

>  <SCORE.INTER.norm>
-0.82021

>  <SCORE.INTRA>
-5.50727

>  <SCORE.INTRA.DIHEDRAL>
-4.53135

>  <SCORE.INTRA.DIHEDRAL.0>
10.9248

>  <SCORE.INTRA.POLAR>
0

>  <SCORE.INTRA.POLAR.0>
0

>  <SCORE.INTRA.REPUL>
0

>  <SCORE.INTRA.REPUL.0>
0

>  <SCORE.INTRA.SOLV>
-0.769789

>  <SCORE.INTRA.SOLV.lig_0>
-51.4104

>  <SCORE.INTRA.VDW>
-2.85671

>  <SCORE.INTRA.VDW.0>
0.110327

>  <SCORE.INTRA.norm>
-0.172102

>  <SCORE.RESTR>
0

>  <SCORE.RESTR.CAVITY>
0

>  <SCORE.RESTR.norm>
0

>  <SCORE.SYSTEM>
0

>  <SCORE.SYSTEM.CONST>
0

>  <SCORE.SYSTEM.DIHEDRAL>
0

>  <SCORE.SYSTEM.SOLV>
0

>  <SCORE.SYSTEM.norm>
0

>  <SCORE.heavy>
32

>  <SCORE.norm>
-0.992313

>  <RMSD>
9.222

$$$$
lig.pdb
 OpenBabel11021811523D
libRbt.so/2013.1/901 2013/11/27
 32 34  0  0  0  0  0  0  0  0999 V2000
   -1.0652   12.0221    5.3551 P   0  0  0  0  0  0  0  0  0  0  0  0
    0.1800   11.3884    5.9260 O   0  0  0  0  0  0  0  0  0  0  0  0
   -1.6682   10.8565    4.4011 O   0  0  0  0  0  0  0  0  0  0  0  0
   -2.2087   12.3295    6.2895 O   0  0  0  0  0  0  0  0  0  0  0  0
   -0.6491   13.2941    4.7968 O   0  0  0  0  0  0  0  0  0  0  0  0
    0.0700   13.0630    3.5220 P   0  0  1  0  0  0  0  0  0  0  0  0
    1.1476   12.0770    3.7720 O   0  0  0  0  0  0  0  0  0  0  0  0
   -0.8596   12.5156    2.5067 O   0  0  0  0  0  0  0  0  0  0  0  0
    0.6436   14.3443    3.0395 O   0  0  0  0  0  0  0  0  0  0  0  0
    1.7481   14.4022    2.0528 P   0  0  1  0  0  0  0  0  0  0  0  0
    2.0344   13.1256    1.3670 O   0  0  0  0  0  0  0  0  0  0  0  0
    1.7433   15.5929    1.1740 O   0  0  0  0  0  0  0  0  0  0  0  0
    3.0540   14.5913    2.9896 O   0  0  0  0  0  0  0  0  0  0  0  0
    4.3715   14.4748    2.4862 C   0  0  0  0  0  0  0  0  0  0  0  0
    4.6727   15.4955    1.3800 C   0  0  1  0  0  0  0  0  0  0  0  0
    4.8778   16.7773    1.9380 O   0  0  0  0  0  0  0  0  0  0  0  0
    6.0140   15.2571    0.6645 C   0  0  1  0  0  0  0  0  0  0  0  0
    6.0180   14.2086   -0.2898 O   0  0  0  0  0  0  0  0  0  0  0  0
    6.3316   16.6190    0.0475 C   0  0  1  0  0  0  0  0  0  0  0  0
    5.8273   16.7393   -1.2709 O   0  0  0  0  0  0  0  0  0  0  0  0
    5.5442   17.5567    0.9608 C   0  0  2  0  0  0  0  0  0  0  0  0
    6.3304   18.6427    1.5842 N   0  0  0  0  0  0  0  0  0  0  0  0
    7.6624   18.9539    1.4774 C   0  0  0  0  0  0  0  0  0  0  0  0
    8.0443   19.9346    2.2541 N   0  0  0  0  0  0  0  0  0  0  0  0
    6.8792   20.3228    2.9085 C   0  0  0  0  0  0  0  0  0  0  0  0
    6.6584   21.3183    3.9136 C   0  0  0  0  0  0  0  0  0  0  0  0
    7.4947   22.0386    4.4549 O   0  0  0  0  0  0  0  0  0  0  0  0
    5.3125   21.4197    4.2904 N   0  0  0  0  0  0  0  0  0  0  0  0
    4.2956   20.6643    3.7262 C   0  0  0  0  0  0  0  0  0  0  0  0
    3.0370   20.9286    4.0949 N   0  0  0  0  0  0  0  0  0  0  0  0
    4.5141   19.6985    2.8188 N   0  0  0  0  0  0  0  0  0  0  0  0
    5.8200   19.5717    2.4569 C   0  0  0  0  0  0  0  0  0  0  0  0
  1  2  2  0  0  0  0
  1  4  1  0  0  0  0
  1  3  1  0  0  0  0
  5  1  1  0  0  0  0
  6  7  2  1  0  0  0
  6  9  1  0  0  0  0
  6  5  1  0  0  0  0
  6  8  1  0  0  0  0
 10 11  2  6  0  0  0
 10 12  1  0  0  0  0
 10 13  1  0  0  0  0
 10  9  1  0  0  0  0
 13 14  1  0  0  0  0
 15 14  1  1  0  0  0
 15 16  1  0  0  0  0
 17 19  1  0  0  0  0
 17 15  1  0  0  0  0
 17 18  1  6  0  0  0
 19 21  1  0  0  0  0
 19 20  1  6  0  0  0
 21 16  1  0  0  0  0
 21 22  1  1  0  0  0
 22 32  1  0  0  0  0
 23 22  1  0  0  0  0
 23 24  2  0  0  0  0
 24 25  1  0  0  0  0
 25 26  1  0  0  0  0
 26 27  2  0  0  0  0
 26 28  1  0  0  0  0
 29 28  1  0  0  0  0
 29 30  1  0  0  0  0
 31 29  2  0  0  0  0
 32 25  2  0  0  0  0
 32 31  1  0  0  0  0
M  END
>  <CHROM.1>
75.09529853,160.49603153,-52.61405425,169.26263315,12.82240076,60.23572317
75.72935854,-63.82961264,56.95312489,124.30192169,3.09546506,15.80232492
2.83012197,2.64116388,-0.70497012,-2.52126181

>  <Name>
lig.pdb

>  <RI>
0

>  <Rbt.Current_Directory>
/home/itssahil/PROJECTS/Mol_Feturizer/New_Systems/rnas/5lwj

>  <Rbt.Executable>
rbdock ($Id: //depot/dev/client3/rdock/2013.1/src/exe/rbdock.cxx#4 $)

>  <Rbt.Library>
libRbt.so (2013.1, Build901 2013/11/27)

>  <Rbt.Parameter_File>
/export/apps/rDock/src/rDock_2013.1_src/data/scripts/dock_solv.prm

>  <Rbt.Receptor>
prm/pocket_docking_4.prm

>  <SCORE>
-43.4098

>  <SCORE.INTER>
-39.8794

>  <SCORE.INTER.CONST>
1

>  <SCORE.INTER.POLAR>
-4.12054

>  <SCORE.INTER.ROT>
8

>  <SCORE.INTER.SOLV>
20.9373

>  <SCORE.INTER.VDW>
-28.7636

>  <SCORE.INTER.norm>
-1.24623

>  <SCORE.INTRA>
-3.53039

>  <SCORE.INTRA.DIHEDRAL>
-4.23605

>  <SCORE.INTRA.DIHEDRAL.0>
10.9248

>  <SCORE.INTRA.POLAR>
0

>  <SCORE.INTRA.POLAR.0>
0

>  <SCORE.INTRA.REPUL>
0.0235312

>  <SCORE.INTRA.REPUL.0>
0

>  <SCORE.INTRA.SOLV>
0.325389

>  <SCORE.INTRA.SOLV.lig_0>
-51.4104

>  <SCORE.INTRA.VDW>
-1.69271

>  <SCORE.INTRA.VDW.0>
0.110327

>  <SCORE.INTRA.norm>
-0.110325

>  <SCORE.RESTR>
0

>  <SCORE.RESTR.CAVITY>
0

>  <SCORE.RESTR.norm>
0

>  <SCORE.SYSTEM>
0

>  <SCORE.SYSTEM.CONST>
0

>  <SCORE.SYSTEM.DIHEDRAL>
0

>  <SCORE.SYSTEM.SOLV>
0

>  <SCORE.SYSTEM.norm>
0

>  <SCORE.heavy>
32

>  <SCORE.norm>
-1.35656

>  <RMSD>
9.232

$$$$
lig.pdb
 OpenBabel11021811523D
libRbt.so/2013.1/901 2013/11/27
 32 34  0  0  0  0  0  0  0  0999 V2000
   -0.4476   12.0661    3.9118 P   0  0  0  0  0  0  0  0  0  0  0  0
   -1.5226   11.1754    4.4855 O   0  0  0  0  0  0  0  0  0  0  0  0
    0.0067   12.9631    5.1853 O   0  0  0  0  0  0  0  0  0  0  0  0
    0.8438   11.4332    3.4570 O   0  0  0  0  0  0  0  0  0  0  0  0
   -1.0260   12.6885    2.7367 O   0  0  0  0  0  0  0  0  0  0  0  0
   -0.2299   13.8824    2.3671 P   0  0  1  0  0  0  0  0  0  0  0  0
   -0.8488   14.4971    1.1692 O   0  0  0  0  0  0  0  0  0  0  0  0
   -0.2435   14.8649    3.4758 O   0  0  0  0  0  0  0  0  0  0  0  0
    1.1668   13.4734    2.0749 O   0  0  0  0  0  0  0  0  0  0  0  0
    1.7503   13.5436    0.7142 P   0  0  1  0  0  0  0  0  0  0  0  0
    3.0760   12.9073    0.5745 O   0  0  0  0  0  0  0  0  0  0  0  0
    0.8055   13.2615   -0.3894 O   0  0  0  0  0  0  0  0  0  0  0  0
    2.1034   15.1151    0.5579 O   0  0  0  0  0  0  0  0  0  0  0  0
    3.0630   15.7612    1.3730 C   0  0  0  0  0  0  0  0  0  0  0  0
    3.1480   17.2697    1.1015 C   0  0  1  0  0  0  0  0  0  0  0  0
    3.9856   17.8928    2.0536 O   0  0  0  0  0  0  0  0  0  0  0  0
    3.8654   17.6239   -0.2129 C   0  0  1  0  0  0  0  0  0  0  0  0
    3.0994   17.4460   -1.3926 O   0  0  0  0  0  0  0  0  0  0  0  0
    4.2946   19.0754   -0.0003 C   0  0  1  0  0  0  0  0  0  0  0  0
    3.3215   19.9943   -0.4650 O   0  0  0  0  0  0  0  0  0  0  0  0
    4.3542   19.1539    1.5241 C   0  0  2  0  0  0  0  0  0  0  0  0
    5.6412   19.6171    2.0854 N   0  0  0  0  0  0  0  0  0  0  0  0
    6.9299   19.2747    1.7622 C   0  0  0  0  0  0  0  0  0  0  0  0
    7.8347   19.8121    2.5389 N   0  0  0  0  0  0  0  0  0  0  0  0
    7.0996   20.5887    3.4295 C   0  0  0  0  0  0  0  0  0  0  0  0
    7.5194   21.3854    4.5427 C   0  0  0  0  0  0  0  0  0  0  0  0
    8.6594   21.5224    4.9818 O   0  0  0  0  0  0  0  0  0  0  0  0
    6.4541   22.0459    5.1694 N   0  0  0  0  0  0  0  0  0  0  0  0
    5.1385   21.9678    4.7381 C   0  0  0  0  0  0  0  0  0  0  0  0
    4.2281   22.7294    5.3552 N   0  0  0  0  0  0  0  0  0  0  0  0
    4.7430   21.1815    3.7237 N   0  0  0  0  0  0  0  0  0  0  0  0
    5.7629   20.5154    3.1166 C   0  0  0  0  0  0  0  0  0  0  0  0
  1  2  2  0  0  0  0
  1  4  1  0  0  0  0
  1  3  1  0  0  0  0
  5  1  1  0  0  0  0
  6  7  2  6  0  0  0
  6  9  1  0  0  0  0
  6  5  1  0  0  0  0
  6  8  1  0  0  0  0
 10 11  2  6  0  0  0
 10 12  1  0  0  0  0
 10 13  1  0  0  0  0
 10  9  1  0  0  0  0
 13 14  1  0  0  0  0
 15 14  1  1  0  0  0
 15 16  1  0  0  0  0
 17 19  1  0  0  0  0
 17 15  1  0  0  0  0
 17 18  1  6  0  0  0
 19 21  1  0  0  0  0
 19 20  1  1  0  0  0
 21 16  1  0  0  0  0
 21 22  1  6  0  0  0
 22 32  1  0  0  0  0
 23 22  1  0  0  0  0
 23 24  2  0  0  0  0
 24 25  1  0  0  0  0
 25 26  1  0  0  0  0
 26 27  2  0  0  0  0
 26 28  1  0  0  0  0
 29 28  1  0  0  0  0
 29 30  1  0  0  0  0
 31 29  2  0  0  0  0
 32 25  2  0  0  0  0
 32 31  1  0  0  0  0
M  END
>  <CHROM.1>
161.79808910,112.14900125,-179.76665182,64.21286042,-171.13930937,-175.91179698
172.32804479,178.70289632,61.23330098,79.75033369,2.84547897,16.55089959
2.34200736,2.90428855,-0.90530699,-1.77341917

>  <Name>
lig.pdb

>  <RI>
0

>  <Rbt.Current_Directory>
/home/itssahil/PROJECTS/Mol_Feturizer/New_Systems/rnas/5lwj

>  <Rbt.Executable>
rbdock ($Id: //depot/dev/client3/rdock/2013.1/src/exe/rbdock.cxx#4 $)

>  <Rbt.Library>
libRbt.so (2013.1, Build901 2013/11/27)

>  <Rbt.Parameter_File>
/export/apps/rDock/src/rDock_2013.1_src/data/scripts/dock_solv.prm

>  <Rbt.Receptor>
prm/pocket_docking_6.prm

>  <SCORE>
-27.0556

>  <SCORE.INTER>
-22.4482

>  <SCORE.INTER.CONST>
1

>  <SCORE.INTER.POLAR>
-2.76968

>  <SCORE.INTER.ROT>
8

>  <SCORE.INTER.SOLV>
17.4839

>  <SCORE.INTER.VDW>
-20.4945

>  <SCORE.INTER.norm>
-0.701506

>  <SCORE.INTRA>
-4.60738

>  <SCORE.INTRA.DIHEDRAL>
-4.57909

>  <SCORE.INTRA.DIHEDRAL.0>
10.9248

>  <SCORE.INTRA.POLAR>
0

>  <SCORE.INTRA.POLAR.0>
0

>  <SCORE.INTRA.REPUL>
0

>  <SCORE.INTRA.REPUL.0>
0

>  <SCORE.INTRA.SOLV>
-0.583681

>  <SCORE.INTRA.SOLV.lig_0>
-51.4104

>  <SCORE.INTRA.VDW>
-2.02599

>  <SCORE.INTRA.VDW.0>
0.110327

>  <SCORE.INTRA.norm>
-0.143981

>  <SCORE.RESTR>
0

>  <SCORE.RESTR.CAVITY>
0

>  <SCORE.RESTR.norm>
0

>  <SCORE.SYSTEM>
0

>  <SCORE.SYSTEM.CONST>
0

>  <SCORE.SYSTEM.DIHEDRAL>
0

>  <SCORE.SYSTEM.SOLV>
0

>  <SCORE.SYSTEM.norm>
0

>  <SCORE.heavy>
32

>  <SCORE.norm>
-0.845487

>  <RMSD>
9.235

$$$$
lig.pdb
 OpenBabel11021811523D
libRbt.so/2013.1/901 2013/11/27
 32 34  0  0  0  0  0  0  0  0999 V2000
   -3.3440   13.2969    5.3297 P   0  0  0  0  0  0  0  0  0  0  0  0
   -2.6560   14.6346    5.4523 O   0  0  0  0  0  0  0  0  0  0  0  0
   -2.2399   12.2596    5.9108 O   0  0  0  0  0  0  0  0  0  0  0  0
   -4.5547   13.0295    6.1886 O   0  0  0  0  0  0  0  0  0  0  0  0
   -3.7972   13.2024    3.9555 O   0  0  0  0  0  0  0  0  0  0  0  0
   -2.6389   13.3428    3.0421 P   0  0  1  0  0  0  0  0  0  0  0  0
   -3.1183   13.1414    1.6544 O   0  0  0  0  0  0  0  0  0  0  0  0
   -2.0604   14.7015    3.1608 O   0  0  0  0  0  0  0  0  0  0  0  0
   -1.6123   12.3275    3.3867 O   0  0  0  0  0  0  0  0  0  0  0  0
   -0.1678   12.6494    3.4674 P   0  0  1  0  0  0  0  0  0  0  0  0
    0.1396   13.9889    4.0088 O   0  0  0  0  0  0  0  0  0  0  0  0
    0.6908   11.5589    3.9809 O   0  0  0  0  0  0  0  0  0  0  0  0
    0.2515   12.8012    1.9118 O   0  0  0  0  0  0  0  0  0  0  0  0
    0.1361   14.0255    1.2115 C   0  0  0  0  0  0  0  0  0  0  0  0
    0.8173   13.9852   -0.1635 C   0  0  1  0  0  0  0  0  0  0  0  0
    0.6513   15.2202   -0.8294 O   0  0  0  0  0  0  0  0  0  0  0  0
    2.3509   13.8813   -0.0932 C   0  0  1  0  0  0  0  0  0  0  0  0
    2.8615   12.5932    0.2072 O   0  0  0  0  0  0  0  0  0  0  0  0
    2.8021   14.3914   -1.4616 C   0  0  1  0  0  0  0  0  0  0  0  0
    2.9298   13.3442   -2.4072 O   0  0  0  0  0  0  0  0  0  0  0  0
    1.6196   15.2717   -1.8620 C   0  0  2  0  0  0  0  0  0  0  0  0
    1.9583   16.6677   -2.2120 N   0  0  0  0  0  0  0  0  0  0  0  0
    1.3563   17.5398   -3.0835 C   0  0  0  0  0  0  0  0  0  0  0  0
    1.9875   18.6772   -3.2202 N   0  0  0  0  0  0  0  0  0  0  0  0
    3.0758   18.5669   -2.3600 C   0  0  0  0  0  0  0  0  0  0  0  0
    4.1557   19.4697   -2.0976 C   0  0  0  0  0  0  0  0  0  0  0  0
    4.3728   20.5569   -2.6288 O   0  0  0  0  0  0  0  0  0  0  0  0
    5.0405   18.9885   -1.1232 N   0  0  0  0  0  0  0  0  0  0  0  0
    4.8713   17.7845   -0.4562 C   0  0  0  0  0  0  0  0  0  0  0  0
    5.7259   17.4856    0.5287 N   0  0  0  0  0  0  0  0  0  0  0  0
    3.8839   16.9195   -0.7400 N   0  0  0  0  0  0  0  0  0  0  0  0
    3.0267   17.3618   -1.7002 C   0  0  0  0  0  0  0  0  0  0  0  0
  1  2  2  0  0  0  0
  1  4  1  0  0  0  0
  1  3  1  0  0  0  0
  5  1  1  0  0  0  0
  6  7  2  6  0  0  0
  6  9  1  0  0  0  0
  6  5  1  0  0  0  0
  6  8  1  0  0  0  0
 10 11  2  1  0  0  0
 10 12  1  0  0  0  0
 10 13  1  0  0  0  0
 10  9  1  0  0  0  0
 13 14  1  0  0  0  0
 15 14  1  1  0  0  0
 15 16  1  0  0  0  0
 17 19  1  0  0  0  0
 17 15  1  0  0  0  0
 17 18  1  6  0  0  0
 19 21  1  0  0  0  0
 19 20  1  6  0  0  0
 21 16  1  0  0  0  0
 21 22  1  1  0  0  0
 22 32  1  0  0  0  0
 23 22  1  0  0  0  0
 23 24  2  0  0  0  0
 24 25  1  0  0  0  0
 25 26  1  0  0  0  0
 26 27  2  0  0  0  0
 26 28  1  0  0  0  0
 29 28  1  0  0  0  0
 29 30  1  0  0  0  0
 31 29  2  0  0  0  0
 32 25  2  0  0  0  0
 32 31  1  0  0  0  0
M  END
>  <CHROM.1>
57.79123548,-135.80143258,175.84465927,87.45436049,36.23746399,169.99598215
178.89133535,54.51330247,-168.03357122,-85.93786730,0.50811797,14.80718775
1.27748658,2.48708314,-0.68016185,2.89282251

>  <Name>
lig.pdb

>  <RI>
0

>  <Rbt.Current_Directory>
/home/itssahil/PROJECTS/Mol_Feturizer/New_Systems/rnas/5lwj

>  <Rbt.Executable>
rbdock ($Id: //depot/dev/client3/rdock/2013.1/src/exe/rbdock.cxx#4 $)

>  <Rbt.Library>
libRbt.so (2013.1, Build901 2013/11/27)

>  <Rbt.Parameter_File>
/export/apps/rDock/src/rDock_2013.1_src/data/scripts/dock_solv.prm

>  <Rbt.Receptor>
prm/pocket_docking_4.prm

>  <SCORE>
-31.6499

>  <SCORE.INTER>
-30.2519

>  <SCORE.INTER.CONST>
1

>  <SCORE.INTER.POLAR>
-3.78221

>  <SCORE.INTER.ROT>
8

>  <SCORE.INTER.SOLV>
17.1994

>  <SCORE.INTER.VDW>
-22.227

>  <SCORE.INTER.norm>
-0.945371

>  <SCORE.INTRA>
-1.39805

>  <SCORE.INTRA.DIHEDRAL>
-3.41442

>  <SCORE.INTRA.DIHEDRAL.0>
10.9248

>  <SCORE.INTRA.POLAR>
0

>  <SCORE.INTRA.POLAR.0>
0

>  <SCORE.INTRA.REPUL>
0

>  <SCORE.INTRA.REPUL.0>
0

>  <SCORE.INTRA.SOLV>
2.56447

>  <SCORE.INTRA.SOLV.lig_0>
-51.4104

>  <SCORE.INTRA.VDW>
-0.973075

>  <SCORE.INTRA.VDW.0>
0.110327

>  <SCORE.INTRA.norm>
-0.0436892

>  <SCORE.RESTR>
0

>  <SCORE.RESTR.CAVITY>
0

>  <SCORE.RESTR.norm>
0

>  <SCORE.SYSTEM>
0

>  <SCORE.SYSTEM.CONST>
0

>  <SCORE.SYSTEM.DIHEDRAL>
0

>  <SCORE.SYSTEM.SOLV>
0

>  <SCORE.SYSTEM.norm>
0

>  <SCORE.heavy>
32

>  <SCORE.norm>
-0.98906

>  <RMSD>
9.236

$$$$
lig.pdb
 OpenBabel11021811523D
libRbt.so/2013.1/901 2013/11/27
 32 34  0  0  0  0  0  0  0  0999 V2000
    0.3920   11.5973    5.9579 P   0  0  0  0  0  0  0  0  0  0  0  0
    1.6324   11.3844    6.7910 O   0  0  0  0  0  0  0  0  0  0  0  0
    0.1144   10.1282    5.3276 O   0  0  0  0  0  0  0  0  0  0  0  0
   -0.9014   11.9204    6.6634 O   0  0  0  0  0  0  0  0  0  0  0  0
    0.6749   12.7301    5.0981 O   0  0  0  0  0  0  0  0  0  0  0  0
   -0.4907   12.9878    4.2202 P   0  0  1  0  0  0  0  0  0  0  0  0
   -0.8280   11.7268    3.5188 O   0  0  0  0  0  0  0  0  0  0  0  0
   -1.6537   13.4147    5.0326 O   0  0  0  0  0  0  0  0  0  0  0  0
   -0.1459   14.0481    3.2401 O   0  0  0  0  0  0  0  0  0  0  0  0
   -0.0369   13.7847    1.7856 P   0  0  1  0  0  0  0  0  0  0  0  0
    1.2243   13.1411    1.3649 O   0  0  0  0  0  0  0  0  0  0  0  0
   -1.2569   13.2344    1.1540 O   0  0  0  0  0  0  0  0  0  0  0  0
    0.1098   15.2714    1.1637 O   0  0  0  0  0  0  0  0  0  0  0  0
    0.9085   16.2708    1.7687 C   0  0  0  0  0  0  0  0  0  0  0  0
    1.9181   16.8903    0.7923 C   0  0  1  0  0  0  0  0  0  0  0  0
    2.3442   18.1526    1.2629 O   0  0  0  0  0  0  0  0  0  0  0  0
    3.2528   16.1286    0.7140 C   0  0  1  0  0  0  0  0  0  0  0  0
    3.2301   14.9361   -0.0526 O   0  0  0  0  0  0  0  0  0  0  0  0
    4.2217   17.1711    0.1565 C   0  0  1  0  0  0  0  0  0  0  0  0
    4.2943   17.1312   -1.2578 O   0  0  0  0  0  0  0  0  0  0  0  0
    3.5408   18.4726    0.5757 C   0  0  2  0  0  0  0  0  0  0  0  0
    4.3796   19.4025    1.3616 N   0  0  0  0  0  0  0  0  0  0  0  0
    4.0400   20.5246    2.0743 C   0  0  0  0  0  0  0  0  0  0  0  0
    5.0631   21.1693    2.5727 N   0  0  0  0  0  0  0  0  0  0  0  0
    6.1636   20.4101    2.1863 C   0  0  0  0  0  0  0  0  0  0  0  0
    7.5645   20.6212    2.3932 C   0  0  0  0  0  0  0  0  0  0  0  0
    8.1075   21.5762    2.9450 O   0  0  0  0  0  0  0  0  0  0  0  0
    8.3524   19.5892    1.8660 N   0  0  0  0  0  0  0  0  0  0  0  0
    7.8325   18.4648    1.2427 C   0  0  0  0  0  0  0  0  0  0  0  0
    8.6827   17.4990    0.8766 N   0  0  0  0  0  0  0  0  0  0  0  0
    6.5210   18.2946    1.0082 N   0  0  0  0  0  0  0  0  0  0  0  0
    5.7422   19.2990    1.4952 C   0  0  0  0  0  0  0  0  0  0  0  0
  1  2  2  0  0  0  0
  1  4  1  0  0  0  0
  1  3  1  0  0  0  0
  5  1  1  0  0  0  0
  6  7  2  6  0  0  0
  6  9  1  0  0  0  0
  6  5  1  0  0  0  0
  6  8  1  0  0  0  0
 10 11  2  6  0  0  0
 10 12  1  0  0  0  0
 10 13  1  0  0  0  0
 10  9  1  0  0  0  0
 13 14  1  0  0  0  0
 15 14  1  1  0  0  0
 15 16  1  0  0  0  0
 17 19  1  0  0  0  0
 17 15  1  0  0  0  0
 17 18  1  6  0  0  0
 19 21  1  0  0  0  0
 19 20  1  6  0  0  0
 21 16  1  0  0  0  0
 21 22  1  1  0  0  0
 22 32  1  0  0  0  0
 23 22  1  0  0  0  0
 23 24  2  0  0  0  0
 24 25  1  0  0  0  0
 25 26  1  0  0  0  0
 26 27  2  0  0  0  0
 26 28  1  0  0  0  0
 29 28  1  0  0  0  0
 29 30  1  0  0  0  0
 31 29  2  0  0  0  0
 32 25  2  0  0  0  0
 32 31  1  0  0  0  0
M  END
>  <CHROM.1>
178.74835764,113.24287664,-53.52643290,40.99413834,-78.64678725,126.98188894
159.33206681,-63.67446468,-175.34020402,-43.60444739,2.55417569,15.67083754
2.55291699,-2.49720143,-0.62734891,-1.06485193

>  <Name>
lig.pdb

>  <RI>
3.03081e+07

>  <Rbt.Current_Directory>
/home/itssahil/PROJECTS/Mol_Feturizer/New_Systems/rnas/5lwj

>  <Rbt.Executable>
rbdock ($Id: //depot/dev/client3/rdock/2013.1/src/exe/rbdock.cxx#4 $)

>  <Rbt.Library>
libRbt.so (2013.1, Build901 2013/11/27)

>  <Rbt.Parameter_File>
/export/apps/rDock/src/rDock_2013.1_src/data/scripts/dock_solv.prm

>  <Rbt.Receptor>
prm/pocket_docking_2.prm

>  <SCORE>
-17.3466

>  <SCORE.INTER>
-17.6634

>  <SCORE.INTER.CONST>
1

>  <SCORE.INTER.POLAR>
-1.44849

>  <SCORE.INTER.ROT>
8

>  <SCORE.INTER.SOLV>
17.1581

>  <SCORE.INTER.VDW>
-21.6

>  <SCORE.INTER.norm>
-0.551982

>  <SCORE.INTRA>
-0.800253

>  <SCORE.INTRA.DIHEDRAL>
3.49944

>  <SCORE.INTRA.DIHEDRAL.0>
10.9248

>  <SCORE.INTRA.POLAR>
-0.9457

>  <SCORE.INTRA.POLAR.0>
0

>  <SCORE.INTRA.REPUL>
0

>  <SCORE.INTRA.REPUL.0>
0

>  <SCORE.INTRA.SOLV>
0.905822

>  <SCORE.INTRA.SOLV.lig_0>
-51.4104

>  <SCORE.INTRA.VDW>
0.212494

>  <SCORE.INTRA.VDW.0>
0.110327

>  <SCORE.INTRA.norm>
-0.0250079

>  <SCORE.RESTR>
1.11706

>  <SCORE.RESTR.CAVITY>
1.11706

>  <SCORE.RESTR.norm>
0.0349081

>  <SCORE.SYSTEM>
0

>  <SCORE.SYSTEM.CONST>
0

>  <SCORE.SYSTEM.DIHEDRAL>
0

>  <SCORE.SYSTEM.SOLV>
0

>  <SCORE.SYSTEM.norm>
0

>  <SCORE.heavy>
32

>  <SCORE.norm>
-0.542082

>  <RMSD>
9.237

$$$$
lig.pdb
 OpenBabel11021811523D
libRbt.so/2013.1/901 2013/11/27
 32 34  0  0  0  0  0  0  0  0999 V2000
   -1.6377   17.3807    3.8800 P   0  0  0  0  0  0  0  0  0  0  0  0
   -2.8749   17.5768    4.7220 O   0  0  0  0  0  0  0  0  0  0  0  0
   -1.0335   15.9799    4.4327 O   0  0  0  0  0  0  0  0  0  0  0  0
   -1.8060   17.1253    2.4030 O   0  0  0  0  0  0  0  0  0  0  0  0
   -0.8767   18.6101    3.9913 O   0  0  0  0  0  0  0  0  0  0  0  0
    0.1386   18.4681    5.0611 P   0  0  1  0  0  0  0  0  0  0  0  0
   -0.5502   18.0219    6.2950 O   0  0  0  0  0  0  0  0  0  0  0  0
    1.1444   17.4513    4.6748 O   0  0  0  0  0  0  0  0  0  0  0  0
    0.8057   19.7751    5.2854 O   0  0  0  0  0  0  0  0  0  0  0  0
    1.6935   20.4008    4.2768 P   0  0  1  0  0  0  0  0  0  0  0  0
    1.9674   21.8355    4.4969 O   0  0  0  0  0  0  0  0  0  0  0  0
    2.8731   19.5942    3.8921 O   0  0  0  0  0  0  0  0  0  0  0  0
    0.7658   20.4257    2.9511 O   0  0  0  0  0  0  0  0  0  0  0  0
    0.2131   21.6219    2.4350 C   0  0  0  0  0  0  0  0  0  0  0  0
    1.0374   22.2009    1.2766 C   0  0  1  0  0  0  0  0  0  0  0  0
    1.0104   21.3237    0.1692 O   0  0  0  0  0  0  0  0  0  0  0  0
    0.4369   23.4795    0.6664 C   0  0  1  0  0  0  0  0  0  0  0  0
    0.6402   24.6660    1.4155 O   0  0  0  0  0  0  0  0  0  0  0  0
    1.0738   23.5406   -0.7217 C   0  0  1  0  0  0  0  0  0  0  0  0
    2.2763   24.2896   -0.7257 O   0  0  0  0  0  0  0  0  0  0  0  0
    1.4111   22.0709   -0.9655 C   0  0  2  0  0  0  0  0  0  0  0  0
    0.8627   21.4925   -2.2108 N   0  0  0  0  0  0  0  0  0  0  0  0
   -0.0863   21.9754   -3.0760 C   0  0  0  0  0  0  0  0  0  0  0  0
   -0.4036   21.1457   -4.0361 N   0  0  0  0  0  0  0  0  0  0  0  0
    0.4094   20.0390   -3.8107 C   0  0  0  0  0  0  0  0  0  0  0  0
    0.4964   18.7868   -4.4994 C   0  0  0  0  0  0  0  0  0  0  0  0
   -0.1843   18.4013   -5.4476 O   0  0  0  0  0  0  0  0  0  0  0  0
    1.4817   17.9431   -3.9688 N   0  0  0  0  0  0  0  0  0  0  0  0
    2.3101   18.2946   -2.9137 C   0  0  0  0  0  0  0  0  0  0  0  0
    3.2829   17.4440   -2.5676 N   0  0  0  0  0  0  0  0  0  0  0  0
    2.1923   19.4506   -2.2402 N   0  0  0  0  0  0  0  0  0  0  0  0
    1.2249   20.2738   -2.7291 C   0  0  0  0  0  0  0  0  0  0  0  0
  1  2  2  0  0  0  0
  1  4  1  0  0  0  0
  1  3  1  0  0  0  0
  5  1  1  0  0  0  0
  6  7  2  1  0  0  0
  6  9  1  0  0  0  0
  6  5  1  0  0  0  0
  6  8  1  0  0  0  0
 10 11  2  1  0  0  0
 10 12  1  0  0  0  0
 10 13  1  0  0  0  0
 10  9  1  0  0  0  0
 13 14  1  0  0  0  0
 15 14  1  1  0  0  0
 15 16  1  0  0  0  0
 17 19  1  0  0  0  0
 17 15  1  0  0  0  0
 17 18  1  1  0  0  0
 19 21  1  0  0  0  0
 19 20  1  1  0  0  0
 21 16  1  0  0  0  0
 21 22  1  6  0  0  0
 22 32  1  0  0  0  0
 23 22  1  0  0  0  0
 23 24  2  0  0  0  0
 24 25  1  0  0  0  0
 25 26  1  0  0  0  0
 26 27  2  0  0  0  0
 26 28  1  0  0  0  0
 29 28  1  0  0  0  0
 29 30  1  0  0  0  0
 31 29  2  0  0  0  0
 32 25  2  0  0  0  0
 32 31  1  0  0  0  0
M  END
>  <CHROM.1>
94.99809382,-67.80820080,-52.99008444,107.88476126,163.94037154,98.13565562
65.07894668,65.38547810,-177.21571826,111.44931643,0.57080421,19.87359196
1.22536075,2.10436116,1.26915948,1.30631921

>  <Name>
lig.pdb

>  <RI>
2.92062e+07

>  <Rbt.Current_Directory>
/home/itssahil/PROJECTS/Mol_Feturizer/New_Systems/rnas/5lwj

>  <Rbt.Executable>
rbdock ($Id: //depot/dev/client3/rdock/2013.1/src/exe/rbdock.cxx#4 $)

>  <Rbt.Library>
libRbt.so (2013.1, Build901 2013/11/27)

>  <Rbt.Parameter_File>
/export/apps/rDock/src/rDock_2013.1_src/data/scripts/dock_solv.prm

>  <Rbt.Receptor>
prm/pocket_docking_7.prm

>  <SCORE>
-11.3283

>  <SCORE.INTER>
-9.47228

>  <SCORE.INTER.CONST>
1

>  <SCORE.INTER.POLAR>
-2.83904

>  <SCORE.INTER.ROT>
8

>  <SCORE.INTER.SOLV>
6.82848

>  <SCORE.INTER.VDW>
-8.06087

>  <SCORE.INTER.norm>
-0.296009

>  <SCORE.INTRA>
-1.85607

>  <SCORE.INTRA.DIHEDRAL>
1.43527

>  <SCORE.INTRA.DIHEDRAL.0>
10.9248

>  <SCORE.INTRA.POLAR>
-0.0301869

>  <SCORE.INTRA.POLAR.0>
0

>  <SCORE.INTRA.REPUL>
0

>  <SCORE.INTRA.REPUL.0>
0

>  <SCORE.INTRA.SOLV>
-0.42257

>  <SCORE.INTRA.SOLV.lig_0>
-51.4104

>  <SCORE.INTRA.VDW>
-2.25978

>  <SCORE.INTRA.VDW.0>
0.110327

>  <SCORE.INTRA.norm>
-0.0580021

>  <SCORE.RESTR>
0

>  <SCORE.RESTR.CAVITY>
0

>  <SCORE.RESTR.norm>
0

>  <SCORE.SYSTEM>
0

>  <SCORE.SYSTEM.CONST>
0

>  <SCORE.SYSTEM.DIHEDRAL>
0

>  <SCORE.SYSTEM.SOLV>
0

>  <SCORE.SYSTEM.norm>
0

>  <SCORE.heavy>
32

>  <SCORE.norm>
-0.354011

>  <RMSD>
9.247

$$$$
lig.pdb
 OpenBabel11021811523D
libRbt.so/2013.1/901 2013/11/27
 32 34  0  0  0  0  0  0  0  0999 V2000
    0.4823   11.3206    5.2960 P   0  0  0  0  0  0  0  0  0  0  0  0
    0.3004    9.8894    5.7393 O   0  0  0  0  0  0  0  0  0  0  0  0
    0.3065   12.1588    6.6741 O   0  0  0  0  0  0  0  0  0  0  0  0
    1.8395   11.7528    4.7998 O   0  0  0  0  0  0  0  0  0  0  0  0
   -0.4323   11.5176    4.1881 O   0  0  0  0  0  0  0  0  0  0  0  0
   -1.4696   12.5034    4.5725 P   0  0  1  0  0  0  0  0  0  0  0  0
   -2.0374   12.0909    5.8777 O   0  0  0  0  0  0  0  0  0  0  0  0
   -0.8648   13.8485    4.7123 O   0  0  0  0  0  0  0  0  0  0  0  0
   -2.5301   12.5344    3.5343 O   0  0  0  0  0  0  0  0  0  0  0  0
   -2.4965   13.4732    2.3877 P   0  0  1  0  0  0  0  0  0  0  0  0
   -3.4988   13.2042    1.3367 O   0  0  0  0  0  0  0  0  0  0  0  0
   -2.3415   14.9000    2.7488 O   0  0  0  0  0  0  0  0  0  0  0  0
   -1.1095   13.0856    1.6497 O   0  0  0  0  0  0  0  0  0  0  0  0
   -0.6477   13.7662    0.4981 C   0  0  0  0  0  0  0  0  0  0  0  0
    0.7631   13.3286    0.0803 C   0  0  1  0  0  0  0  0  0  0  0  0
    1.0501   13.7818   -1.2269 O   0  0  0  0  0  0  0  0  0  0  0  0
    1.8861   14.0014    0.8889 C   0  0  1  0  0  0  0  0  0  0  0  0
    2.0992   13.4774    2.1890 O   0  0  0  0  0  0  0  0  0  0  0  0
    3.1093   13.8535   -0.0156 C   0  0  1  0  0  0  0  0  0  0  0  0
    3.8355   12.6679    0.2567 O   0  0  0  0  0  0  0  0  0  0  0  0
    2.4559   13.7230   -1.3902 C   0  0  2  0  0  0  0  0  0  0  0  0
    2.9197   14.6908   -2.4072 N   0  0  0  0  0  0  0  0  0  0  0  0
    3.8041   14.5389   -3.4451 C   0  0  0  0  0  0  0  0  0  0  0  0
    4.0582   15.6453   -4.0948 N   0  0  0  0  0  0  0  0  0  0  0  0
    3.2684   16.6000   -3.4614 C   0  0  0  0  0  0  0  0  0  0  0  0
    3.1402   18.0078   -3.6885 C   0  0  0  0  0  0  0  0  0  0  0  0
    3.7556   18.6978   -4.4987 O   0  0  0  0  0  0  0  0  0  0  0  0
    2.1983   18.6101   -2.8435 N   0  0  0  0  0  0  0  0  0  0  0  0
    1.4432   17.9142   -1.9115 C   0  0  0  0  0  0  0  0  0  0  0  0
    0.5010   18.5844   -1.2387 N   0  0  0  0  0  0  0  0  0  0  0  0
    1.6016   16.6028   -1.6688 N   0  0  0  0  0  0  0  0  0  0  0  0
    2.5286   16.0056   -2.4667 C   0  0  0  0  0  0  0  0  0  0  0  0
  1  2  2  0  0  0  0
  1  4  1  0  0  0  0
  1  3  1  0  0  0  0
  5  1  1  0  0  0  0
  6  7  2  1  0  0  0
  6  9  1  0  0  0  0
  6  5  1  0  0  0  0
  6  8  1  0  0  0  0
 10 11  2  6  0  0  0
 10 12  1  0  0  0  0
 10 13  1  0  0  0  0
 10  9  1  0  0  0  0
 13 14  1  0  0  0  0
 15 14  1  1  0  0  0
 15 16  1  0  0  0  0
 17 19  1  0  0  0  0
 17 15  1  0  0  0  0
 17 18  1  1  0  0  0
 19 21  1  0  0  0  0
 19 20  1  1  0  0  0
 21 16  1  0  0  0  0
 21 22  1  6  0  0  0
 22 32  1  0  0  0  0
 23 22  1  0  0  0  0
 23 24  2  0  0  0  0
 24 25  1  0  0  0  0
 25 26  1  0  0  0  0
 26 27  2  0  0  0  0
 26 28  1  0  0  0  0
 29 28  1  0  0  0  0
 29 30  1  0  0  0  0
 31 29  2  0  0  0  0
 32 25  2  0  0  0  0
 32 31  1  0  0  0  0
M  END
>  <CHROM.1>
114.65174209,-91.86240802,-50.22569638,-178.44072992,169.74175289,173.30729110
165.97427879,179.68454007,-116.40160002,-134.39829316,0.65117823,14.01588418
1.21715978,-1.99196296,0.36445522,-0.86826984

>  <Name>
lig.pdb

>  <RI>
2.92062e+07

>  <Rbt.Current_Directory>
/home/itssahil/PROJECTS/Mol_Feturizer/New_Systems/rnas/5lwj

>  <Rbt.Executable>
rbdock ($Id: //depot/dev/client3/rdock/2013.1/src/exe/rbdock.cxx#4 $)

>  <Rbt.Library>
libRbt.so (2013.1, Build901 2013/11/27)

>  <Rbt.Parameter_File>
/export/apps/rDock/src/rDock_2013.1_src/data/scripts/dock_solv.prm

>  <Rbt.Receptor>
prm/pocket_docking_7.prm

>  <SCORE>
-32.1804

>  <SCORE.INTER>
-30.6576

>  <SCORE.INTER.CONST>
1

>  <SCORE.INTER.POLAR>
-3.73928

>  <SCORE.INTER.ROT>
8

>  <SCORE.INTER.SOLV>
22.3394

>  <SCORE.INTER.VDW>
-24.3539

>  <SCORE.INTER.norm>
-0.958049

>  <SCORE.INTRA>
-1.66037

>  <SCORE.INTRA.DIHEDRAL>
3.27775

>  <SCORE.INTRA.DIHEDRAL.0>
10.9248

>  <SCORE.INTRA.POLAR>
0

>  <SCORE.INTRA.POLAR.0>
0

>  <SCORE.INTRA.REPUL>
0.0118589

>  <SCORE.INTRA.REPUL.0>
0

>  <SCORE.INTRA.SOLV>
-0.386857

>  <SCORE.INTRA.SOLV.lig_0>
-51.4104

>  <SCORE.INTRA.VDW>
-3.16511

>  <SCORE.INTRA.VDW.0>
0.110327

>  <SCORE.INTRA.norm>
-0.0518864

>  <SCORE.RESTR>
0.13755

>  <SCORE.RESTR.CAVITY>
0.13755

>  <SCORE.RESTR.norm>
0.00429845

>  <SCORE.SYSTEM>
0

>  <SCORE.SYSTEM.CONST>
0

>  <SCORE.SYSTEM.DIHEDRAL>
0

>  <SCORE.SYSTEM.SOLV>
0

>  <SCORE.SYSTEM.norm>
0

>  <SCORE.heavy>
32

>  <SCORE.norm>
-1.00564

>  <RMSD>
9.248

$$$$
lig.pdb
 OpenBabel11021811523D
libRbt.so/2013.1/901 2013/11/27
 32 34  0  0  0  0  0  0  0  0999 V2000
    0.5339   11.4322    5.8369 P   0  0  0  0  0  0  0  0  0  0  0  0
    0.3168    9.9445    5.7044 O   0  0  0  0  0  0  0  0  0  0  0  0
   -0.9047   11.9697    6.3605 O   0  0  0  0  0  0  0  0  0  0  0  0
    1.4923   11.9280    6.8908 O   0  0  0  0  0  0  0  0  0  0  0  0
    1.0710   11.8749    4.5648 O   0  0  0  0  0  0  0  0  0  0  0  0
   -0.0020   12.5204    3.7727 P   0  0  1  0  0  0  0  0  0  0  0  0
   -1.1815   11.6233    3.7759 O   0  0  0  0  0  0  0  0  0  0  0  0
   -0.3780   13.8149    4.3872 O   0  0  0  0  0  0  0  0  0  0  0  0
    0.4746   12.7425    2.3845 O   0  0  0  0  0  0  0  0  0  0  0  0
    0.7558   14.0939    1.8444 P   0  0  1  0  0  0  0  0  0  0  0  0
    1.5661   14.1117    0.6096 O   0  0  0  0  0  0  0  0  0  0  0  0
   -0.3962   15.0229    1.8459 O   0  0  0  0  0  0  0  0  0  0  0  0
    1.7782   14.7094    2.9374 O   0  0  0  0  0  0  0  0  0  0  0  0
    3.1834   14.6328    2.7885 C   0  0  0  0  0  0  0  0  0  0  0  0
    3.7143   15.5807    1.7040 C   0  0  1  0  0  0  0  0  0  0  0  0
    3.3807   16.9179    2.0155 O   0  0  0  0  0  0  0  0  0  0  0  0
    5.2500   15.6564    1.6440 C   0  0  1  0  0  0  0  0  0  0  0  0
    5.8902   14.5607    1.0118 O   0  0  0  0  0  0  0  0  0  0  0  0
    5.5101   16.9837    0.9321 C   0  0  1  0  0  0  0  0  0  0  0  0
    5.6182   16.8254   -0.4716 O   0  0  0  0  0  0  0  0  0  0  0  0
    4.2256   17.7505    1.2413 C   0  0  2  0  0  0  0  0  0  0  0  0
    4.4133   19.0698    1.8818 N   0  0  0  0  0  0  0  0  0  0  0  0
    3.4934   19.9639    2.3685 C   0  0  0  0  0  0  0  0  0  0  0  0
    4.0131   21.0897    2.7846 N   0  0  0  0  0  0  0  0  0  0  0  0
    5.3806   20.9268    2.5846 C   0  0  0  0  0  0  0  0  0  0  0  0
    6.4720   21.8264    2.8068 C   0  0  0  0  0  0  0  0  0  0  0  0
    6.4192   22.9898    3.2007 O   0  0  0  0  0  0  0  0  0  0  0  0
    7.7157   21.2557    2.5044 N   0  0  0  0  0  0  0  0  0  0  0  0
    7.8785   19.9484    2.0714 C   0  0  0  0  0  0  0  0  0  0  0  0
    9.1249   19.4874    1.9181 N   0  0  0  0  0  0  0  0  0  0  0  0
    6.8487   19.1243    1.8184 N   0  0  0  0  0  0  0  0  0  0  0  0
    5.6310   19.6701    2.0865 C   0  0  0  0  0  0  0  0  0  0  0  0
  1  2  2  0  0  0  0
  1  4  1  0  0  0  0
  1  3  1  0  0  0  0
  5  1  1  0  0  0  0
  6  7  2  6  0  0  0
  6  9  1  0  0  0  0
  6  5  1  0  0  0  0
  6  8  1  0  0  0  0
 10 11  2  6  0  0  0
 10 12  1  0  0  0  0
 10 13  1  0  0  0  0
 10  9  1  0  0  0  0
 13 14  1  0  0  0  0
 15 14  1  1  0  0  0
 15 16  1  0  0  0  0
 17 19  1  0  0  0  0
 17 15  1  0  0  0  0
 17 18  1  6  0  0  0
 19 21  1  0  0  0  0
 19 20  1  6  0  0  0
 21 16  1  0  0  0  0
 21 22  1  1  0  0  0
 22 32  1  0  0  0  0
 23 22  1  0  0  0  0
 23 24  2  0  0  0  0
 24 25  1  0  0  0  0
 25 26  1  0  0  0  0
 26 27  2  0  0  0  0
 26 28  1  0  0  0  0
 29 28  1  0  0  0  0
 29 30  1  0  0  0  0
 31 29  2  0  0  0  0
 32 25  2  0  0  0  0
 32 31  1  0  0  0  0
M  END
>  <CHROM.1>
101.83806431,-110.28756185,-49.18197558,94.12333958,163.58921235,72.86840747
59.28218311,63.73039754,-177.20365028,-50.84136715,3.02363032,15.73868755
2.87616427,2.82408047,-0.89145335,-2.26912295

>  <Name>
lig.pdb

>  <RI>
0

>  <Rbt.Current_Directory>
/home/itssahil/PROJECTS/Mol_Feturizer/New_Systems/rnas/5lwj

>  <Rbt.Executable>
rbdock ($Id: //depot/dev/client3/rdock/2013.1/src/exe/rbdock.cxx#4 $)

>  <Rbt.Library>
libRbt.so (2013.1, Build901 2013/11/27)

>  <Rbt.Parameter_File>
/export/apps/rDock/src/rDock_2013.1_src/data/scripts/dock_solv.prm

>  <Rbt.Receptor>
prm/pocket_docking_3.prm

>  <SCORE>
-33.9262

>  <SCORE.INTER>
-32.6333

>  <SCORE.INTER.CONST>
1

>  <SCORE.INTER.POLAR>
-2.38668

>  <SCORE.INTER.ROT>
8

>  <SCORE.INTER.SOLV>
21.0628

>  <SCORE.INTER.VDW>
-29.7542

>  <SCORE.INTER.norm>
-1.01979

>  <SCORE.INTRA>
-1.47218

>  <SCORE.INTRA.DIHEDRAL>
-1.13206

>  <SCORE.INTRA.DIHEDRAL.0>
10.9248

>  <SCORE.INTRA.POLAR>
-0.0180667

>  <SCORE.INTRA.POLAR.0>
0

>  <SCORE.INTRA.REPUL>
0

>  <SCORE.INTRA.REPUL.0>
0

>  <SCORE.INTRA.SOLV>
0.0829316

>  <SCORE.INTRA.SOLV.lig_0>
-51.4104

>  <SCORE.INTRA.VDW>
-0.886186

>  <SCORE.INTRA.VDW.0>
0.110327

>  <SCORE.INTRA.norm>
-0.0460055

>  <SCORE.RESTR>
0.179287

>  <SCORE.RESTR.CAVITY>
0.179287

>  <SCORE.RESTR.norm>
0.00560273

>  <SCORE.SYSTEM>
0

>  <SCORE.SYSTEM.CONST>
0

>  <SCORE.SYSTEM.DIHEDRAL>
0

>  <SCORE.SYSTEM.SOLV>
0

>  <SCORE.SYSTEM.norm>
0

>  <SCORE.heavy>
32

>  <SCORE.norm>
-1.06019

>  <RMSD>
9.258

$$$$
lig.pdb
 OpenBabel11021811523D
libRbt.so/2013.1/901 2013/11/27
 32 34  0  0  0  0  0  0  0  0999 V2000
   -0.0306   11.9629    4.3496 P   0  0  0  0  0  0  0  0  0  0  0  0
    1.4555   11.9918    4.6115 O   0  0  0  0  0  0  0  0  0  0  0  0
   -0.5259   10.6590    5.1785 O   0  0  0  0  0  0  0  0  0  0  0  0
   -0.8818   13.0736    4.9124 O   0  0  0  0  0  0  0  0  0  0  0  0
   -0.1863   12.0274    2.9093 O   0  0  0  0  0  0  0  0  0  0  0  0
    0.0713   13.4109    2.4456 P   0  0  1  0  0  0  0  0  0  0  0  0
   -1.1821   14.1878    2.5921 O   0  0  0  0  0  0  0  0  0  0  0  0
    1.1271   14.0363    3.2756 O   0  0  0  0  0  0  0  0  0  0  0  0
    0.4993   13.3837    1.0245 O   0  0  0  0  0  0  0  0  0  0  0  0
    1.2341   14.5045    0.3912 P   0  0  1  0  0  0  0  0  0  0  0  0
    1.6970   14.2423   -0.9867 O   0  0  0  0  0  0  0  0  0  0  0  0
    0.6413   15.8437    0.6041 O   0  0  0  0  0  0  0  0  0  0  0  0
    2.6225   14.5356    1.2220 O   0  0  0  0  0  0  0  0  0  0  0  0
    3.7781   15.1969    0.7425 C   0  0  0  0  0  0  0  0  0  0  0  0
    3.6119   16.7224    0.7044 C   0  0  1  0  0  0  0  0  0  0  0  0
    4.7494   17.3535    1.2560 O   0  0  0  0  0  0  0  0  0  0  0  0
    3.5980   17.3096   -0.7178 C   0  0  1  0  0  0  0  0  0  0  0  0
    2.3830   17.1507   -1.4310 O   0  0  0  0  0  0  0  0  0  0  0  0
    3.9664   18.7765   -0.4974 C   0  0  1  0  0  0  0  0  0  0  0  0
    2.8232   19.5935   -0.3163 O   0  0  0  0  0  0  0  0  0  0  0  0
    4.7298   18.7022    0.8236 C   0  0  2  0  0  0  0  0  0  0  0  0
    6.0907   19.2798    0.8029 N   0  0  0  0  0  0  0  0  0  0  0  0
    6.9471   19.5072   -0.2445 C   0  0  0  0  0  0  0  0  0  0  0  0
    8.1251   19.9467    0.1161 N   0  0  0  0  0  0  0  0  0  0  0  0
    8.0417   20.0433    1.5019 C   0  0  0  0  0  0  0  0  0  0  0  0
    9.0214   20.4258    2.4733 C   0  0  0  0  0  0  0  0  0  0  0  0
   10.1980   20.7234    2.2777 O   0  0  0  0  0  0  0  0  0  0  0  0
    8.5182   20.4237    3.7813 N   0  0  0  0  0  0  0  0  0  0  0  0
    7.2032   20.1200    4.1002 C   0  0  0  0  0  0  0  0  0  0  0  0
    6.8173   20.2569    5.3737 N   0  0  0  0  0  0  0  0  0  0  0  0
    6.3011   19.7151    3.1913 N   0  0  0  0  0  0  0  0  0  0  0  0
    6.7795   19.6908    1.9173 C   0  0  0  0  0  0  0  0  0  0  0  0
  1  2  2  0  0  0  0
  1  4  1  0  0  0  0
  1  3  1  0  0  0  0
  5  1  1  0  0  0  0
  6  7  2  1  0  0  0
  6  9  1  0  0  0  0
  6  5  1  0  0  0  0
  6  8  1  0  0  0  0
 10 11  2  6  0  0  0
 10 12  1  0  0  0  0
 10 13  1  0  0  0  0
 10  9  1  0  0  0  0
 13 14  1  0  0  0  0
 15 14  1  6  0  0  0
 15 16  1  0  0  0  0
 17 19  1  0  0  0  0
 17 15  1  0  0  0  0
 17 18  1  1  0  0  0
 19 21  1  0  0  0  0
 19 20  1  1  0  0  0
 21 16  1  0  0  0  0
 21 22  1  6  0  0  0
 22 32  1  0  0  0  0
 23 22  1  0  0  0  0
 23 24  2  0  0  0  0
 24 25  1  0  0  0  0
 25 26  1  0  0  0  0
 26 27  2  0  0  0  0
 26 28  1  0  0  0  0
 29 28  1  0  0  0  0
 29 30  1  0  0  0  0
 31 29  2  0  0  0  0
 32 25  2  0  0  0  0
 32 31  1  0  0  0  0
M  END
>  <CHROM.1>
-75.46546218,-159.99371481,-84.35988479,162.31915203,174.00955022,67.97615441
133.91082843,-178.64427341,-51.72741985,101.89711353,3.27304429,16.24314422
1.90067930,-2.78979294,-0.71170130,-1.21421274

>  <Name>
lig.pdb

>  <RI>
1.82117e+07

>  <Rbt.Current_Directory>
/home/itssahil/PROJECTS/Mol_Feturizer/New_Systems/rnas/5lwj

>  <Rbt.Executable>
rbdock ($Id: //depot/dev/client3/rdock/2013.1/src/exe/rbdock.cxx#4 $)

>  <Rbt.Library>
libRbt.so (2013.1, Build901 2013/11/27)

>  <Rbt.Parameter_File>
/export/apps/rDock/src/rDock_2013.1_src/data/scripts/dock_solv.prm

>  <Rbt.Receptor>
prm/pocket_docking_5.prm

>  <SCORE>
-30.1044

>  <SCORE.INTER>
-29.7332

>  <SCORE.INTER.CONST>
1

>  <SCORE.INTER.POLAR>
-3.46882

>  <SCORE.INTER.ROT>
8

>  <SCORE.INTER.SOLV>
17.3641

>  <SCORE.INTER.VDW>
-22.9807

>  <SCORE.INTER.norm>
-0.929162

>  <SCORE.INTRA>
-0.371221

>  <SCORE.INTRA.DIHEDRAL>
-0.78414

>  <SCORE.INTRA.DIHEDRAL.0>
10.9248

>  <SCORE.INTRA.POLAR>
0

>  <SCORE.INTRA.POLAR.0>
0

>  <SCORE.INTRA.REPUL>
0

>  <SCORE.INTRA.REPUL.0>
0

>  <SCORE.INTRA.SOLV>
0.620132

>  <SCORE.INTRA.SOLV.lig_0>
-51.4104

>  <SCORE.INTRA.VDW>
-0.289217

>  <SCORE.INTRA.VDW.0>
0.110327

>  <SCORE.INTRA.norm>
-0.0116007

>  <SCORE.RESTR>
0

>  <SCORE.RESTR.CAVITY>
0

>  <SCORE.RESTR.norm>
0

>  <SCORE.SYSTEM>
0

>  <SCORE.SYSTEM.CONST>
0

>  <SCORE.SYSTEM.DIHEDRAL>
0

>  <SCORE.SYSTEM.SOLV>
0

>  <SCORE.SYSTEM.norm>
0

>  <SCORE.heavy>
32

>  <SCORE.norm>
-0.940763

>  <RMSD>
9.259

$$$$
lig.pdb
 OpenBabel11021811523D
libRbt.so/2013.1/901 2013/11/27
 32 34  0  0  0  0  0  0  0  0999 V2000
    0.8338   11.4576    5.5791 P   0  0  0  0  0  0  0  0  0  0  0  0
    2.0718   12.1089    6.1459 O   0  0  0  0  0  0  0  0  0  0  0  0
    1.2133   11.2411    4.0165 O   0  0  0  0  0  0  0  0  0  0  0  0
    0.4758   10.0678    6.0432 O   0  0  0  0  0  0  0  0  0  0  0  0
   -0.2777   12.3074    5.9599 O   0  0  0  0  0  0  0  0  0  0  0  0
   -1.2755   12.3369    4.8649 P   0  0  1  0  0  0  0  0  0  0  0  0
   -1.7324   10.9488    4.6191 O   0  0  0  0  0  0  0  0  0  0  0  0
   -2.4383   13.1655    5.2597 O   0  0  0  0  0  0  0  0  0  0  0  0
   -0.6497   12.8991    3.6418 O   0  0  0  0  0  0  0  0  0  0  0  0
   -1.4394   13.2935    2.4511 P   0  0  1  0  0  0  0  0  0  0  0  0
   -0.7790   13.0342    1.1555 O   0  0  0  0  0  0  0  0  0  0  0  0
   -2.8738   12.9329    2.5014 O   0  0  0  0  0  0  0  0  0  0  0  0
   -1.4216   14.9097    2.5304 O   0  0  0  0  0  0  0  0  0  0  0  0
   -0.2270   15.6468    2.7099 C   0  0  0  0  0  0  0  0  0  0  0  0
    0.7762   15.4317    1.5681 C   0  0  1  0  0  0  0  0  0  0  0  0
    1.4695   16.6314    1.2919 O   0  0  0  0  0  0  0  0  0  0  0  0
    1.9355   14.4871    1.9307 C   0  0  1  0  0  0  0  0  0  0  0  0
    1.6200   13.1048    1.9256 O   0  0  0  0  0  0  0  0  0  0  0  0
    3.0174   14.8500    0.9139 C   0  0  1  0  0  0  0  0  0  0  0  0
    2.9404   14.0544   -0.2558 O   0  0  0  0  0  0  0  0  0  0  0  0
    2.6299   16.2840    0.5575 C   0  0  2  0  0  0  0  0  0  0  0  0
    3.6979   17.2914    0.7318 N   0  0  0  0  0  0  0  0  0  0  0  0
    4.7844   17.3035    1.5693 C   0  0  0  0  0  0  0  0  0  0  0  0
    5.4766   18.4126    1.5283 N   0  0  0  0  0  0  0  0  0  0  0  0
    4.8198   19.1876    0.5771 C   0  0  0  0  0  0  0  0  0  0  0  0
    5.0742   20.5199    0.1187 C   0  0  0  0  0  0  0  0  0  0  0  0
    5.9383   21.2993    0.5150 O   0  0  0  0  0  0  0  0  0  0  0  0
    4.1879   20.9256   -0.8882 N   0  0  0  0  0  0  0  0  0  0  0  0
    3.1935   20.1135   -1.4123 C   0  0  0  0  0  0  0  0  0  0  0  0
    2.4807   20.5786   -2.4445 N   0  0  0  0  0  0  0  0  0  0  0  0
    2.9279   18.8825   -0.9457 N   0  0  0  0  0  0  0  0  0  0  0  0
    3.7663   18.4802    0.0481 C   0  0  0  0  0  0  0  0  0  0  0  0
  1  2  2  0  0  0  0
  1  4  1  0  0  0  0
  1  3  1  0  0  0  0
  5  1  1  0  0  0  0
  6  7  2  6  0  0  0
  6  9  1  0  0  0  0
  6  5  1  0  0  0  0
  6  8  1  0  0  0  0
 10 11  2  6  0  0  0
 10 12  1  0  0  0  0
 10 13  1  0  0  0  0
 10  9  1  0  0  0  0
 13 14  1  0  0  0  0
 15 14  1  1  0  0  0
 15 16  1  0  0  0  0
 17 19  1  0  0  0  0
 17 15  1  0  0  0  0
 17 18  1  6  0  0  0
 19 21  1  0  0  0  0
 19 20  1  6  0  0  0
 21 16  1  0  0  0  0
 21 22  1  1  0  0  0
 22 32  1  0  0  0  0
 23 22  1  0  0  0  0
 23 24  2  0  0  0  0
 24 25  1  0  0  0  0
 25 26  1  0  0  0  0
 26 27  2  0  0  0  0
 26 28  1  0  0  0  0
 29 28  1  0  0  0  0
 29 30  1  0  0  0  0
 31 29  2  0  0  0  0
 32 25  2  0  0  0  0
 32 31  1  0  0  0  0
M  END
>  <CHROM.1>
143.56703859,-168.43996172,59.09287697,49.83803729,-143.97934660,61.23590585
143.75915650,-73.58245951,-56.16576756,97.61468145,1.30373466,14.99372595
2.32609848,-2.08286180,-0.30528617,-0.74698389

>  <Name>
lig.pdb

>  <RI>
0

>  <Rbt.Current_Directory>
/home/itssahil/PROJECTS/Mol_Feturizer/New_Systems/rnas/5lwj

>  <Rbt.Executable>
rbdock ($Id: //depot/dev/client3/rdock/2013.1/src/exe/rbdock.cxx#4 $)

>  <Rbt.Library>
libRbt.so (2013.1, Build901 2013/11/27)

>  <Rbt.Parameter_File>
/export/apps/rDock/src/rDock_2013.1_src/data/scripts/dock_solv.prm

>  <Rbt.Receptor>
prm/pocket_docking_3.prm

>  <SCORE>
-29.4848

>  <SCORE.INTER>
-22.0941

>  <SCORE.INTER.CONST>
1

>  <SCORE.INTER.POLAR>
-1.01827

>  <SCORE.INTER.ROT>
8

>  <SCORE.INTER.SOLV>
18.7662

>  <SCORE.INTER.VDW>
-26.5239

>  <SCORE.INTER.norm>
-0.69044

>  <SCORE.INTRA>
-7.39066

>  <SCORE.INTRA.DIHEDRAL>
-0.0747165

>  <SCORE.INTRA.DIHEDRAL.0>
10.9248

>  <SCORE.INTRA.POLAR>
-1.56189

>  <SCORE.INTRA.POLAR.0>
0

>  <SCORE.INTRA.REPUL>
0

>  <SCORE.INTRA.REPUL.0>
0

>  <SCORE.INTRA.SOLV>
3.27908

>  <SCORE.INTRA.SOLV.lig_0>
-51.4104

>  <SCORE.INTRA.VDW>
-3.6824

>  <SCORE.INTRA.VDW.0>
0.110327

>  <SCORE.INTRA.norm>
-0.230958

>  <SCORE.RESTR>
0

>  <SCORE.RESTR.CAVITY>
0

>  <SCORE.RESTR.norm>
0

>  <SCORE.SYSTEM>
0

>  <SCORE.SYSTEM.CONST>
0

>  <SCORE.SYSTEM.DIHEDRAL>
0

>  <SCORE.SYSTEM.SOLV>
0

>  <SCORE.SYSTEM.norm>
0

>  <SCORE.heavy>
32

>  <SCORE.norm>
-0.921399

>  <RMSD>
9.264

$$$$
lig.pdb
 OpenBabel11021811523D
libRbt.so/2013.1/901 2013/11/27
 32 34  0  0  0  0  0  0  0  0999 V2000
    1.3393   11.0885    5.9428 P   0  0  0  0  0  0  0  0  0  0  0  0
    2.4381   12.0377    6.3546 O   0  0  0  0  0  0  0  0  0  0  0  0
    1.4908   11.0269    4.3286 O   0  0  0  0  0  0  0  0  0  0  0  0
    1.4469    9.6416    6.3552 O   0  0  0  0  0  0  0  0  0  0  0  0
    0.1240   11.5912    6.5535 O   0  0  0  0  0  0  0  0  0  0  0  0
   -0.8538   11.9386    5.4957 P   0  0  1  0  0  0  0  0  0  0  0  0
   -1.2081   10.6969    4.7687 O   0  0  0  0  0  0  0  0  0  0  0  0
   -2.0786   12.5086    6.1038 O   0  0  0  0  0  0  0  0  0  0  0  0
   -0.2472   12.9257    4.5676 O   0  0  0  0  0  0  0  0  0  0  0  0
   -1.0587   13.7647    3.6540 P   0  0  1  0  0  0  0  0  0  0  0  0
   -2.4423   13.2925    3.4435 O   0  0  0  0  0  0  0  0  0  0  0  0
   -0.9235   15.2245    3.8560 O   0  0  0  0  0  0  0  0  0  0  0  0
   -0.3760   13.4868    2.2134 O   0  0  0  0  0  0  0  0  0  0  0  0
    1.0201   13.5862    2.0043 C   0  0  0  0  0  0  0  0  0  0  0  0
    1.5790   14.9610    2.3965 C   0  0  1  0  0  0  0  0  0  0  0  0
    2.9784   14.9945    2.2043 O   0  0  0  0  0  0  0  0  0  0  0  0
    1.1180   16.1039    1.4750 C   0  0  1  0  0  0  0  0  0  0  0  0
   -0.2033   16.5687    1.6946 O   0  0  0  0  0  0  0  0  0  0  0  0
    2.1713   17.1877    1.7034 C   0  0  1  0  0  0  0  0  0  0  0  0
    1.8027   18.0820    2.7385 O   0  0  0  0  0  0  0  0  0  0  0  0
    3.3636   16.3573    2.1747 C   0  0  2  0  0  0  0  0  0  0  0  0
    4.6119   16.5463    1.4052 N   0  0  0  0  0  0  0  0  0  0  0  0
    5.2176   15.7390    0.4759 C   0  0  0  0  0  0  0  0  0  0  0  0
    6.3778   16.1796    0.0627 N   0  0  0  0  0  0  0  0  0  0  0  0
    6.5483   17.3796    0.7464 C   0  0  0  0  0  0  0  0  0  0  0  0
    7.6389   18.3072    0.7500 C   0  0  0  0  0  0  0  0  0  0  0  0
    8.7097   18.2110    0.1539 O   0  0  0  0  0  0  0  0  0  0  0  0
    7.3983   19.4245    1.5609 N   0  0  0  0  0  0  0  0  0  0  0  0
    6.2170   19.6307    2.2575 C   0  0  0  0  0  0  0  0  0  0  0  0
    6.0665   20.7878    2.9117 N   0  0  0  0  0  0  0  0  0  0  0  0
    5.2167   18.7351    2.2895 N   0  0  0  0  0  0  0  0  0  0  0  0
    5.4429   17.6329    1.5237 C   0  0  0  0  0  0  0  0  0  0  0  0
  1  2  2  0  0  0  0
  1  4  1  0  0  0  0
  1  3  1  0  0  0  0
  5  1  1  0  0  0  0
  6  7  2  6  0  0  0
  6  9  1  0  0  0  0
  6  5  1  0  0  0  0
  6  8  1  0  0  0  0
 10 11  2  1  0  0  0
 10 12  1  0  0  0  0
 10 13  1  0  0  0  0
 10  9  1  0  0  0  0
 13 14  1  0  0  0  0
 15 14  1  6  0  0  0
 15 16  1  0  0  0  0
 17 19  1  0  0  0  0
 17 15  1  0  0  0  0
 17 18  1  1  0  0  0
 19 21  1  0  0  0  0
 19 20  1  1  0  0  0
 21 16  1  0  0  0  0
 21 22  1  6  0  0  0
 22 32  1  0  0  0  0
 23 22  1  0  0  0  0
 23 24  2  0  0  0  0
 24 25  1  0  0  0  0
 25 26  1  0  0  0  0
 26 27  2  0  0  0  0
 26 28  1  0  0  0  0
 29 28  1  0  0  0  0
 29 30  1  0  0  0  0
 31 29  2  0  0  0  0
 32 25  2  0  0  0  0
 32 31  1  0  0  0  0
M  END
>  <CHROM.1>
118.71708479,-161.76160302,63.43015411,-50.18569454,-16.90067075,-56.21058066
178.35282982,178.10122368,-59.70491941,19.28497566,2.12420877,14.79351982
3.23275402,-2.28992336,-0.00115635,-0.53849492

>  <Name>
lig.pdb

>  <RI>
0

>  <Rbt.Current_Directory>
/home/itssahil/PROJECTS/Mol_Feturizer/New_Systems/rnas/5lwj

>  <Rbt.Executable>
rbdock ($Id: //depot/dev/client3/rdock/2013.1/src/exe/rbdock.cxx#4 $)

>  <Rbt.Library>
libRbt.so (2013.1, Build901 2013/11/27)

>  <Rbt.Parameter_File>
/export/apps/rDock/src/rDock_2013.1_src/data/scripts/dock_solv.prm

>  <Rbt.Receptor>
prm/pocket_docking_3.prm

>  <SCORE>
-41.0791

>  <SCORE.INTER>
-36.9054

>  <SCORE.INTER.CONST>
1

>  <SCORE.INTER.POLAR>
-3.05282

>  <SCORE.INTER.ROT>
8

>  <SCORE.INTER.SOLV>
22.4454

>  <SCORE.INTER.VDW>
-30.8426

>  <SCORE.INTER.norm>
-1.15329

>  <SCORE.INTRA>
-4.1737

>  <SCORE.INTRA.DIHEDRAL>
-2.81016

>  <SCORE.INTRA.DIHEDRAL.0>
10.9248

>  <SCORE.INTRA.POLAR>
0

>  <SCORE.INTRA.POLAR.0>
0

>  <SCORE.INTRA.REPUL>
0

>  <SCORE.INTRA.REPUL.0>
0

>  <SCORE.INTRA.SOLV>
1.58172

>  <SCORE.INTRA.SOLV.lig_0>
-51.4104

>  <SCORE.INTRA.VDW>
-3.55948

>  <SCORE.INTRA.VDW.0>
0.110327

>  <SCORE.INTRA.norm>
-0.130428

>  <SCORE.RESTR>
0

>  <SCORE.RESTR.CAVITY>
0

>  <SCORE.RESTR.norm>
0

>  <SCORE.SYSTEM>
0

>  <SCORE.SYSTEM.CONST>
0

>  <SCORE.SYSTEM.DIHEDRAL>
0

>  <SCORE.SYSTEM.SOLV>
0

>  <SCORE.SYSTEM.norm>
0

>  <SCORE.heavy>
32

>  <SCORE.norm>
-1.28372

>  <RMSD>
9.272

$$$$
lig.pdb
 OpenBabel11021811523D
libRbt.so/2013.1/901 2013/11/27
 32 34  0  0  0  0  0  0  0  0999 V2000
   -2.7872   13.0658    4.9017 P   0  0  0  0  0  0  0  0  0  0  0  0
   -4.2942   13.1494    4.9006 O   0  0  0  0  0  0  0  0  0  0  0  0
   -2.3351   14.5620    5.3373 O   0  0  0  0  0  0  0  0  0  0  0  0
   -2.1164   12.1893    5.9297 O   0  0  0  0  0  0  0  0  0  0  0  0
   -2.4136   12.5269    3.6084 O   0  0  0  0  0  0  0  0  0  0  0  0
   -1.9829   13.6305    2.7184 P   0  0  1  0  0  0  0  0  0  0  0  0
   -2.1742   13.1936    1.3154 O   0  0  0  0  0  0  0  0  0  0  0  0
   -2.8095   14.8347    2.9664 O   0  0  0  0  0  0  0  0  0  0  0  0
   -0.5537   13.9408    2.9728 O   0  0  0  0  0  0  0  0  0  0  0  0
    0.5485   13.0756    2.4894 P   0  0  1  0  0  0  0  0  0  0  0  0
    0.6969   11.7975    3.2147 O   0  0  0  0  0  0  0  0  0  0  0  0
    0.6671   12.9732    1.0179 O   0  0  0  0  0  0  0  0  0  0  0  0
    1.8692   13.8895    2.9500 O   0  0  0  0  0  0  0  0  0  0  0  0
    2.1542   15.1961    2.4873 C   0  0  0  0  0  0  0  0  0  0  0  0
    2.5662   15.2217    1.0088 C   0  0  1  0  0  0  0  0  0  0  0  0
    3.1485   16.4673    0.6835 O   0  0  0  0  0  0  0  0  0  0  0  0
    3.7113   14.2523    0.6672 C   0  0  1  0  0  0  0  0  0  0  0  0
    3.3410   12.8888    0.5493 O   0  0  0  0  0  0  0  0  0  0  0  0
    4.2820   14.8239   -0.6305 C   0  0  1  0  0  0  0  0  0  0  0  0
    3.6705   14.2603   -1.7775 O   0  0  0  0  0  0  0  0  0  0  0  0
    3.8668   16.2901   -0.5244 C   0  0  2  0  0  0  0  0  0  0  0  0
    4.9667   17.2708   -0.6444 N   0  0  0  0  0  0  0  0  0  0  0  0
    4.9904   18.5191   -1.2131 C   0  0  0  0  0  0  0  0  0  0  0  0
    6.1739   19.0759   -1.2272 N   0  0  0  0  0  0  0  0  0  0  0  0
    6.9952   18.1433   -0.6008 C   0  0  0  0  0  0  0  0  0  0  0  0
    8.4050   18.1570   -0.3510 C   0  0  0  0  0  0  0  0  0  0  0  0
    9.2197   19.0144   -0.6864 O   0  0  0  0  0  0  0  0  0  0  0  0
    8.8434   17.0235    0.3467 N   0  0  0  0  0  0  0  0  0  0  0  0
    7.9996   16.0128    0.7822 C   0  0  0  0  0  0  0  0  0  0  0  0
    8.5230   15.0356    1.5310 N   0  0  0  0  0  0  0  0  0  0  0  0
    6.6861   15.9808    0.5035 N   0  0  0  0  0  0  0  0  0  0  0  0
    6.2469   17.0646   -0.1928 C   0  0  0  0  0  0  0  0  0  0  0  0
  1  2  2  0  0  0  0
  1  4  1  0  0  0  0
  1  3  1  0  0  0  0
  5  1  1  0  0  0  0
  6  7  2  6  0  0  0
  6  9  1  0  0  0  0
  6  5  1  0  0  0  0
  6  8  1  0  0  0  0
 10 11  2  1  0  0  0
 10 12  1  0  0  0  0
 10 13  1  0  0  0  0
 10  9  1  0  0  0  0
 13 14  1  0  0  0  0
 15 14  1  1  0  0  0
 15 16  1  0  0  0  0
 17 19  1  0  0  0  0
 17 15  1  0  0  0  0
 17 18  1  6  0  0  0
 19 21  1  0  0  0  0
 19 20  1  6  0  0  0
 21 16  1  0  0  0  0
 21 22  1  1  0  0  0
 22 32  1  0  0  0  0
 23 22  1  0  0  0  0
 23 24  2  0  0  0  0
 24 25  1  0  0  0  0
 25 26  1  0  0  0  0
 26 27  2  0  0  0  0
 26 28  1  0  0  0  0
 29 28  1  0  0  0  0
 29 30  1  0  0  0  0
 31 29  2  0  0  0  0
 32 25  2  0  0  0  0
 32 31  1  0  0  0  0
M  END
>  <CHROM.1>
99.91981575,75.29924949,-155.75983006,-60.88753459,-72.83295830,-71.09691630
-165.67142453,36.99305704,-62.82076568,-90.98315194,2.17620579,14.82059112
1.67973359,-2.59446620,0.11146792,-0.63097168

>  <Name>
lig.pdb

>  <RI>
1.82117e+07

>  <Rbt.Current_Directory>
/home/itssahil/PROJECTS/Mol_Feturizer/New_Systems/rnas/5lwj

>  <Rbt.Executable>
rbdock ($Id: //depot/dev/client3/rdock/2013.1/src/exe/rbdock.cxx#4 $)

>  <Rbt.Library>
libRbt.so (2013.1, Build901 2013/11/27)

>  <Rbt.Parameter_File>
/export/apps/rDock/src/rDock_2013.1_src/data/scripts/dock_solv.prm

>  <Rbt.Receptor>
prm/pocket_docking_5.prm

>  <SCORE>
-36.8251

>  <SCORE.INTER>
-32.3918

>  <SCORE.INTER.CONST>
1

>  <SCORE.INTER.POLAR>
-4.06817

>  <SCORE.INTER.ROT>
8

>  <SCORE.INTER.SOLV>
19.4484

>  <SCORE.INTER.VDW>
-23.4501

>  <SCORE.INTER.norm>
-1.01224

>  <SCORE.INTRA>
-4.43328

>  <SCORE.INTRA.DIHEDRAL>
-1.32632

>  <SCORE.INTRA.DIHEDRAL.0>
10.9248

>  <SCORE.INTRA.POLAR>
-0.568912

>  <SCORE.INTRA.POLAR.0>
0

>  <SCORE.INTRA.REPUL>
0

>  <SCORE.INTRA.REPUL.0>
0

>  <SCORE.INTRA.SOLV>
1.63321

>  <SCORE.INTRA.SOLV.lig_0>
-51.4104

>  <SCORE.INTRA.VDW>
-2.65243

>  <SCORE.INTRA.VDW.0>
0.110327

>  <SCORE.INTRA.norm>
-0.13854

>  <SCORE.RESTR>
0

>  <SCORE.RESTR.CAVITY>
0

>  <SCORE.RESTR.norm>
0

>  <SCORE.SYSTEM>
0

>  <SCORE.SYSTEM.CONST>
0

>  <SCORE.SYSTEM.DIHEDRAL>
0

>  <SCORE.SYSTEM.SOLV>
0

>  <SCORE.SYSTEM.norm>
0

>  <SCORE.heavy>
32

>  <SCORE.norm>
-1.15078

>  <RMSD>
9.274

$$$$
lig.pdb
 OpenBabel11021811523D
libRbt.so/2013.1/901 2013/11/27
 32 34  0  0  0  0  0  0  0  0999 V2000
   -3.1101   14.4113    3.9171 P   0  0  0  0  0  0  0  0  0  0  0  0
   -2.1782   14.8795    2.8260 O   0  0  0  0  0  0  0  0  0  0  0  0
   -2.6197   15.2597    5.2103 O   0  0  0  0  0  0  0  0  0  0  0  0
   -4.5740   14.7591    3.8108 O   0  0  0  0  0  0  0  0  0  0  0  0
   -3.0396   12.9630    3.9119 O   0  0  0  0  0  0  0  0  0  0  0  0
   -1.9461   12.5179    4.8074 P   0  0  1  0  0  0  0  0  0  0  0  0
   -2.3722   12.7514    6.2074 O   0  0  0  0  0  0  0  0  0  0  0  0
   -1.6895   11.0716    4.6154 O   0  0  0  0  0  0  0  0  0  0  0  0
   -0.7154   13.2912    4.5059 O   0  0  0  0  0  0  0  0  0  0  0  0
    0.2496   12.8783    3.4594 P   0  0  1  0  0  0  0  0  0  0  0  0
    1.2787   11.9188    3.9088 O   0  0  0  0  0  0  0  0  0  0  0  0
   -0.3468   12.5777    2.1388 O   0  0  0  0  0  0  0  0  0  0  0  0
    1.1143   14.2251    3.2199 O   0  0  0  0  0  0  0  0  0  0  0  0
    2.4851   14.1936    2.8698 C   0  0  0  0  0  0  0  0  0  0  0  0
    2.8564   15.2717    1.8421 C   0  0  1  0  0  0  0  0  0  0  0  0
    2.4048   16.5385    2.2753 O   0  0  0  0  0  0  0  0  0  0  0  0
    4.3707   15.5148    1.7177 C   0  0  1  0  0  0  0  0  0  0  0  0
    5.0846   14.5442    0.9704 O   0  0  0  0  0  0  0  0  0  0  0  0
    4.4544   16.9121    1.1039 C   0  0  1  0  0  0  0  0  0  0  0  0
    4.5018   16.8725   -0.3114 O   0  0  0  0  0  0  0  0  0  0  0  0
    3.1167   17.5123    1.5328 C   0  0  2  0  0  0  0  0  0  0  0  0
    3.2025   18.7920    2.2682 N   0  0  0  0  0  0  0  0  0  0  0  0
    2.2517   19.4751    2.9835 C   0  0  0  0  0  0  0  0  0  0  0  0
    2.6520   20.6389    3.4263 N   0  0  0  0  0  0  0  0  0  0  0  0
    3.9728   20.7293    2.9973 C   0  0  0  0  0  0  0  0  0  0  0  0
    4.9311   21.7840    3.1361 C   0  0  0  0  0  0  0  0  0  0  0  0
    4.7651   22.8878    3.6513 O   0  0  0  0  0  0  0  0  0  0  0  0
    6.1778   21.4603    2.5841 N   0  0  0  0  0  0  0  0  0  0  0  0
    6.4667   20.2370    1.9983 C   0  0  0  0  0  0  0  0  0  0  0  0
    7.7247   20.0102    1.6036 N   0  0  0  0  0  0  0  0  0  0  0  0
    5.5511   19.2694    1.8273 N   0  0  0  0  0  0  0  0  0  0  0  0
    4.3277   19.5758    2.3390 C   0  0  0  0  0  0  0  0  0  0  0  0
  1  2  2  0  0  0  0
  1  4  1  0  0  0  0
  1  3  1  0  0  0  0
  5  1  1  0  0  0  0
  6  7  2  1  0  0  0
  6  9  1  0  0  0  0
  6  5  1  0  0  0  0
  6  8  1  0  0  0  0
 10 11  2  1  0  0  0
 10 12  1  0  0  0  0
 10 13  1  0  0  0  0
 10  9  1  0  0  0  0
 13 14  1  0  0  0  0
 15 14  1  1  0  0  0
 15 16  1  0  0  0  0
 17 19  1  0  0  0  0
 17 15  1  0  0  0  0
 17 18  1  6  0  0  0
 19 21  1  0  0  0  0
 19 20  1  6  0  0  0
 21 16  1  0  0  0  0
 21 22  1  1  0  0  0
 22 32  1  0  0  0  0
 23 22  1  0  0  0  0
 23 24  2  0  0  0  0
 24 25  1  0  0  0  0
 25 26  1  0  0  0  0
 26 27  2  0  0  0  0
 26 28  1  0  0  0  0
 29 28  1  0  0  0  0
 29 30  1  0  0  0  0
 31 29  2  0  0  0  0
 32 25  2  0  0  0  0
 32 31  1  0  0  0  0
M  END
>  <CHROM.1>
88.85687205,-86.99968375,71.87257357,147.33642074,-86.37230050,141.12774111
51.51949733,-71.57577860,61.83476225,-43.25433660,1.45852379,15.97212266
3.05192274,2.45789560,-0.41358981,-2.97515240

>  <Name>
lig.pdb

>  <RI>
1.82117e+07

>  <Rbt.Current_Directory>
/home/itssahil/PROJECTS/Mol_Feturizer/New_Systems/rnas/5lwj

>  <Rbt.Executable>
rbdock ($Id: //depot/dev/client3/rdock/2013.1/src/exe/rbdock.cxx#4 $)

>  <Rbt.Library>
libRbt.so (2013.1, Build901 2013/11/27)

>  <Rbt.Parameter_File>
/export/apps/rDock/src/rDock_2013.1_src/data/scripts/dock_solv.prm

>  <Rbt.Receptor>
prm/pocket_docking_5.prm

>  <SCORE>
-35.1836

>  <SCORE.INTER>
-34.8508

>  <SCORE.INTER.CONST>
1

>  <SCORE.INTER.POLAR>
-3.67915

>  <SCORE.INTER.ROT>
8

>  <SCORE.INTER.SOLV>
18.0558

>  <SCORE.INTER.VDW>
-25.922

>  <SCORE.INTER.norm>
-1.08909

>  <SCORE.INTRA>
-0.33278

>  <SCORE.INTRA.DIHEDRAL>
2.38062

>  <SCORE.INTRA.DIHEDRAL.0>
10.9248

>  <SCORE.INTRA.POLAR>
0

>  <SCORE.INTRA.POLAR.0>
0

>  <SCORE.INTRA.REPUL>
0

>  <SCORE.INTRA.REPUL.0>
0

>  <SCORE.INTRA.SOLV>
1.37545

>  <SCORE.INTRA.SOLV.lig_0>
-51.4104

>  <SCORE.INTRA.VDW>
-2.21081

>  <SCORE.INTRA.VDW.0>
0.110327

>  <SCORE.INTRA.norm>
-0.0103994

>  <SCORE.RESTR>
0

>  <SCORE.RESTR.CAVITY>
0

>  <SCORE.RESTR.norm>
0

>  <SCORE.SYSTEM>
0

>  <SCORE.SYSTEM.CONST>
0

>  <SCORE.SYSTEM.DIHEDRAL>
0

>  <SCORE.SYSTEM.SOLV>
0

>  <SCORE.SYSTEM.norm>
0

>  <SCORE.heavy>
32

>  <SCORE.norm>
-1.09949

>  <RMSD>
9.278

$$$$
lig.pdb
 OpenBabel11021811523D
libRbt.so/2013.1/901 2013/11/27
 32 34  0  0  0  0  0  0  0  0999 V2000
   -1.6050   12.3574    4.6593 P   0  0  0  0  0  0  0  0  0  0  0  0
   -2.6049   12.5941    3.5538 O   0  0  0  0  0  0  0  0  0  0  0  0
   -2.5407   12.1984    5.9753 O   0  0  0  0  0  0  0  0  0  0  0  0
   -0.8077   11.0770    4.6458 O   0  0  0  0  0  0  0  0  0  0  0  0
   -0.6382   13.4340    4.5642 O   0  0  0  0  0  0  0  0  0  0  0  0
    0.2057   13.2361    3.3624 P   0  0  1  0  0  0  0  0  0  0  0  0
    1.1146   12.0942    3.6195 O   0  0  0  0  0  0  0  0  0  0  0  0
   -0.6449   12.9222    2.1908 O   0  0  0  0  0  0  0  0  0  0  0  0
    0.9878   14.4701    3.0996 O   0  0  0  0  0  0  0  0  0  0  0  0
    1.9893   14.5629    2.0110 P   0  0  1  0  0  0  0  0  0  0  0  0
    2.2335   13.3005    1.2840 O   0  0  0  0  0  0  0  0  0  0  0  0
    1.8742   15.7628    1.1525 O   0  0  0  0  0  0  0  0  0  0  0  0
    3.3762   14.7701    2.8186 O   0  0  0  0  0  0  0  0  0  0  0  0
    4.6234   14.9004    2.1626 C   0  0  0  0  0  0  0  0  0  0  0  0
    4.6905   16.1434    1.2643 C   0  0  1  0  0  0  0  0  0  0  0  0
    4.1756   17.2690    1.9456 O   0  0  0  0  0  0  0  0  0  0  0  0
    6.1243   16.6064    0.9521 C   0  0  1  0  0  0  0  0  0  0  0  0
    6.8093   15.8483   -0.0309 O   0  0  0  0  0  0  0  0  0  0  0  0
    5.9426   18.0696    0.5495 C   0  0  1  0  0  0  0  0  0  0  0  0
    5.7559   18.2208   -0.8467 O   0  0  0  0  0  0  0  0  0  0  0  0
    4.6361   18.4195    1.2594 C   0  0  2  0  0  0  0  0  0  0  0  0
    4.6966   19.5925    2.1573 N   0  0  0  0  0  0  0  0  0  0  0  0
    3.7117   20.4576    2.5620 C   0  0  0  0  0  0  0  0  0  0  0  0
    4.1440   21.4537    3.2912 N   0  0  0  0  0  0  0  0  0  0  0  0
    5.5121   21.2243    3.4023 C   0  0  0  0  0  0  0  0  0  0  0  0
    6.5394   21.9880    4.0438 C   0  0  0  0  0  0  0  0  0  0  0  0
    6.4248   23.0679    4.6199 O   0  0  0  0  0  0  0  0  0  0  0  0
    7.8010   21.3848    3.9524 N   0  0  0  0  0  0  0  0  0  0  0  0
    8.0275   20.1618    3.3393 C   0  0  0  0  0  0  0  0  0  0  0  0
    9.2575   19.6406    3.4108 N   0  0  0  0  0  0  0  0  0  0  0  0
    7.0699   19.4729    2.6973 N   0  0  0  0  0  0  0  0  0  0  0  0
    5.8414   20.0555    2.7577 C   0  0  0  0  0  0  0  0  0  0  0  0
  1  2  2  0  0  0  0
  1  4  1  0  0  0  0
  1  3  1  0  0  0  0
  5  1  1  0  0  0  0
  6  7  2  1  0  0  0
  6  9  1  0  0  0  0
  6  5  1  0  0  0  0
  6  8  1  0  0  0  0
 10 11  2  6  0  0  0
 10 12  1  0  0  0  0
 10 13  1  0  0  0  0
 10  9  1  0  0  0  0
 13 14  1  0  0  0  0
 15 14  1  1  0  0  0
 15 16  1  0  0  0  0
 17 19  1  0  0  0  0
 17 15  1  0  0  0  0
 17 18  1  6  0  0  0
 19 21  1  0  0  0  0
 19 20  1  6  0  0  0
 21 16  1  0  0  0  0
 21 22  1  1  0  0  0
 22 32  1  0  0  0  0
 23 22  1  0  0  0  0
 23 24  2  0  0  0  0
 24 25  1  0  0  0  0
 25 26  1  0  0  0  0
 26 27  2  0  0  0  0
 26 28  1  0  0  0  0
 29 28  1  0  0  0  0
 29 30  1  0  0  0  0
 31 29  2  0  0  0  0
 32 25  2  0  0  0  0
 32 31  1  0  0  0  0
M  END
>  <CHROM.1>
-71.43836196,176.27132135,-71.88353645,179.57012500,-5.05076308,62.76470109
45.70039113,-179.03963731,-62.72004100,-81.84103022,3.14723942,16.28216942
2.76237826,2.59200948,-0.62861387,-2.52725750

>  <Name>
lig.pdb

>  <RI>
0

>  <Rbt.Current_Directory>
/home/itssahil/PROJECTS/Mol_Feturizer/New_Systems/rnas/5lwj

>  <Rbt.Executable>
rbdock ($Id: //depot/dev/client3/rdock/2013.1/src/exe/rbdock.cxx#4 $)

>  <Rbt.Library>
libRbt.so (2013.1, Build901 2013/11/27)

>  <Rbt.Parameter_File>
/export/apps/rDock/src/rDock_2013.1_src/data/scripts/dock_solv.prm

>  <Rbt.Receptor>
prm/pocket_docking_3.prm

>  <SCORE>
-35.1204

>  <SCORE.INTER>
-33.3412

>  <SCORE.INTER.CONST>
1

>  <SCORE.INTER.POLAR>
-3.06216

>  <SCORE.INTER.ROT>
8

>  <SCORE.INTER.SOLV>
19.2864

>  <SCORE.INTER.VDW>
-27.3824

>  <SCORE.INTER.norm>
-1.04191

>  <SCORE.INTRA>
-1.80783

>  <SCORE.INTRA.DIHEDRAL>
-4.84024

>  <SCORE.INTRA.DIHEDRAL.0>
10.9248

>  <SCORE.INTRA.POLAR>
0

>  <SCORE.INTRA.POLAR.0>
0

>  <SCORE.INTRA.REPUL>
0

>  <SCORE.INTRA.REPUL.0>
0

>  <SCORE.INTRA.SOLV>
0.486609

>  <SCORE.INTRA.SOLV.lig_0>
-51.4104

>  <SCORE.INTRA.VDW>
0.368986

>  <SCORE.INTRA.VDW.0>
0.110327

>  <SCORE.INTRA.norm>
-0.0564946

>  <SCORE.RESTR>
0.0286436

>  <SCORE.RESTR.CAVITY>
0.0286436

>  <SCORE.RESTR.norm>
0.000895111

>  <SCORE.SYSTEM>
0

>  <SCORE.SYSTEM.CONST>
0

>  <SCORE.SYSTEM.DIHEDRAL>
0

>  <SCORE.SYSTEM.SOLV>
0

>  <SCORE.SYSTEM.norm>
0

>  <SCORE.heavy>
32

>  <SCORE.norm>
-1.09751

>  <RMSD>
9.280

$$$$
lig.pdb
 OpenBabel11021811523D
libRbt.so/2013.1/901 2013/11/27
 32 34  0  0  0  0  0  0  0  0999 V2000
   -2.9728   13.7097    3.9770 P   0  0  0  0  0  0  0  0  0  0  0  0
   -3.3166   15.1786    3.9307 O   0  0  0  0  0  0  0  0  0  0  0  0
   -4.2939   13.0423    4.6417 O   0  0  0  0  0  0  0  0  0  0  0  0
   -2.8274   12.9637    2.6741 O   0  0  0  0  0  0  0  0  0  0  0  0
   -1.6853   13.6188    4.6380 O   0  0  0  0  0  0  0  0  0  0  0  0
   -1.5604   12.2982    5.2982 P   0  0  1  0  0  0  0  0  0  0  0  0
   -2.4972   12.2654    6.4460 O   0  0  0  0  0  0  0  0  0  0  0  0
   -1.9218   11.2198    4.3488 O   0  0  0  0  0  0  0  0  0  0  0  0
   -0.1640   12.1096    5.7652 O   0  0  0  0  0  0  0  0  0  0  0  0
    0.9728   11.9345    4.8303 P   0  0  1  0  0  0  0  0  0  0  0  0
    2.0004   12.9933    4.8987 O   0  0  0  0  0  0  0  0  0  0  0  0
    1.5046   10.5564    4.7397 O   0  0  0  0  0  0  0  0  0  0  0  0
    0.2930   12.2057    3.3870 O   0  0  0  0  0  0  0  0  0  0  0  0
    1.0110   12.7667    2.3043 C   0  0  0  0  0  0  0  0  0  0  0  0
    1.2453   14.2747    2.4699 C   0  0  1  0  0  0  0  0  0  0  0  0
    2.6177   14.5768    2.3227 O   0  0  0  0  0  0  0  0  0  0  0  0
    0.6245   15.1257    1.3483 C   0  0  1  0  0  0  0  0  0  0  0  0
   -0.7764   15.3247    1.4383 O   0  0  0  0  0  0  0  0  0  0  0  0
    1.4129   16.4332    1.4202 C   0  0  1  0  0  0  0  0  0  0  0  0
    0.7958   17.3836    2.2705 O   0  0  0  0  0  0  0  0  0  0  0  0
    2.7147   15.9670    2.0694 C   0  0  2  0  0  0  0  0  0  0  0  0
    3.9481   16.2923    1.3218 N   0  0  0  0  0  0  0  0  0  0  0  0
    4.6579   15.5549    0.4082 C   0  0  0  0  0  0  0  0  0  0  0  0
    5.7689   16.1214    0.0139 N   0  0  0  0  0  0  0  0  0  0  0  0
    5.7907   17.3354    0.6938 C   0  0  0  0  0  0  0  0  0  0  0  0
    6.7702   18.3796    0.7120 C   0  0  0  0  0  0  0  0  0  0  0  0
    7.8560   18.4022    0.1361 O   0  0  0  0  0  0  0  0  0  0  0  0
    6.3904   19.4657    1.5121 N   0  0  0  0  0  0  0  0  0  0  0  0
    5.1806   19.5404    2.1858 C   0  0  0  0  0  0  0  0  0  0  0  0
    4.8890   20.6756    2.8307 N   0  0  0  0  0  0  0  0  0  0  0  0
    4.2867   18.5383    2.2046 N   0  0  0  0  0  0  0  0  0  0  0  0
    4.6495   17.4658    1.4492 C   0  0  0  0  0  0  0  0  0  0  0  0
  1  2  2  0  0  0  0
  1  4  1  0  0  0  0
  1  3  1  0  0  0  0
  5  1  1  0  0  0  0
  6  7  2  1  0  0  0
  6  9  1  0  0  0  0
  6  5  1  0  0  0  0
  6  8  1  0  0  0  0
 10 11  2  1  0  0  0
 10 12  1  0  0  0  0
 10 13  1  0  0  0  0
 10  9  1  0  0  0  0
 13 14  1  0  0  0  0
 15 14  1  6  0  0  0
 15 16  1  0  0  0  0
 17 19  1  0  0  0  0
 17 15  1  0  0  0  0
 17 18  1  1  0  0  0
 19 21  1  0  0  0  0
 19 20  1  1  0  0  0
 21 16  1  0  0  0  0
 21 22  1  6  0  0  0
 22 32  1  0  0  0  0
 23 22  1  0  0  0  0
 23 24  2  0  0  0  0
 24 25  1  0  0  0  0
 25 26  1  0  0  0  0
 26 27  2  0  0  0  0
 26 28  1  0  0  0  0
 29 28  1  0  0  0  0
 29 30  1  0  0  0  0
 31 29  2  0  0  0  0
 32 25  2  0  0  0  0
 32 31  1  0  0  0  0
M  END
>  <CHROM.1>
153.10842670,-68.60301038,-69.70496312,149.10129598,117.40629984,-75.01078446
127.23836209,-171.90187556,63.25066821,30.59386046,1.23949967,14.78576293
3.04037090,2.42926789,-0.16652786,2.78320903

>  <Name>
lig.pdb

>  <RI>
3.03081e+07

>  <Rbt.Current_Directory>
/home/itssahil/PROJECTS/Mol_Feturizer/New_Systems/rnas/5lwj

>  <Rbt.Executable>
rbdock ($Id: //depot/dev/client3/rdock/2013.1/src/exe/rbdock.cxx#4 $)

>  <Rbt.Library>
libRbt.so (2013.1, Build901 2013/11/27)

>  <Rbt.Parameter_File>
/export/apps/rDock/src/rDock_2013.1_src/data/scripts/dock_solv.prm

>  <Rbt.Receptor>
prm/pocket_docking_2.prm

>  <SCORE>
-20.5174

>  <SCORE.INTER>
-22.991

>  <SCORE.INTER.CONST>
1

>  <SCORE.INTER.POLAR>
-2.10406

>  <SCORE.INTER.ROT>
8

>  <SCORE.INTER.SOLV>
20.2262

>  <SCORE.INTER.VDW>
-23.9892

>  <SCORE.INTER.norm>
-0.718467

>  <SCORE.INTRA>
-0.23541

>  <SCORE.INTRA.DIHEDRAL>
2.59647

>  <SCORE.INTRA.DIHEDRAL.0>
10.9248

>  <SCORE.INTRA.POLAR>
0

>  <SCORE.INTRA.POLAR.0>
0

>  <SCORE.INTRA.REPUL>
0

>  <SCORE.INTRA.REPUL.0>
0

>  <SCORE.INTRA.SOLV>
1.55735

>  <SCORE.INTRA.SOLV.lig_0>
-51.4104

>  <SCORE.INTRA.VDW>
-2.31232

>  <SCORE.INTRA.VDW.0>
0.110327

>  <SCORE.INTRA.norm>
-0.00735657

>  <SCORE.RESTR>
2.709

>  <SCORE.RESTR.CAVITY>
2.709

>  <SCORE.RESTR.norm>
0.0846562

>  <SCORE.SYSTEM>
0

>  <SCORE.SYSTEM.CONST>
0

>  <SCORE.SYSTEM.DIHEDRAL>
0

>  <SCORE.SYSTEM.SOLV>
0

>  <SCORE.SYSTEM.norm>
0

>  <SCORE.heavy>
32

>  <SCORE.norm>
-0.641168

>  <RMSD>
9.281

$$$$
lig.pdb
 OpenBabel11021811523D
libRbt.so/2013.1/901 2013/11/27
 32 34  0  0  0  0  0  0  0  0999 V2000
   -0.3050   12.0383    4.7785 P   0  0  0  0  0  0  0  0  0  0  0  0
   -1.3144   10.9309    4.5974 O   0  0  0  0  0  0  0  0  0  0  0  0
   -1.2288   13.3696    4.8614 O   0  0  0  0  0  0  0  0  0  0  0  0
    0.4867   12.0869    6.0615 O   0  0  0  0  0  0  0  0  0  0  0  0
    0.6654   11.8759    3.7132 O   0  0  0  0  0  0  0  0  0  0  0  0
    0.4129   12.8835    2.6566 P   0  0  1  0  0  0  0  0  0  0  0  0
   -0.9589   12.6736    2.1368 O   0  0  0  0  0  0  0  0  0  0  0  0
    0.5112   14.2489    3.2230 O   0  0  0  0  0  0  0  0  0  0  0  0
    1.4088   12.7179    1.5683 O   0  0  0  0  0  0  0  0  0  0  0  0
    1.5992   13.7285    0.5009 P   0  0  1  0  0  0  0  0  0  0  0  0
    1.6441   13.1810   -0.8703 O   0  0  0  0  0  0  0  0  0  0  0  0
    0.7943   14.9611    0.6524 O   0  0  0  0  0  0  0  0  0  0  0  0
    3.1275   14.2077    0.7316 O   0  0  0  0  0  0  0  0  0  0  0  0
    3.6441   15.3950    0.1606 C   0  0  0  0  0  0  0  0  0  0  0  0
    3.0256   16.6606    0.7706 C   0  0  1  0  0  0  0  0  0  0  0  0
    3.9691   17.3226    1.5879 O   0  0  0  0  0  0  0  0  0  0  0  0
    2.7001   17.7524   -0.2637 C   0  0  1  0  0  0  0  0  0  0  0  0
    1.5260   17.5369   -1.0287 O   0  0  0  0  0  0  0  0  0  0  0  0
    2.6314   19.0264    0.5780 C   0  0  1  0  0  0  0  0  0  0  0  0
    1.3188   19.2915    1.0406 O   0  0  0  0  0  0  0  0  0  0  0  0
    3.5049   18.6480    1.7727 C   0  0  2  0  0  0  0  0  0  0  0  0
    4.6216   19.5734    2.0600 N   0  0  0  0  0  0  0  0  0  0  0  0
    4.7999   20.4640    3.0883 C   0  0  0  0  0  0  0  0  0  0  0  0
    5.8745   21.2009    2.9748 N   0  0  0  0  0  0  0  0  0  0  0  0
    6.4700   20.7538    1.7991 C   0  0  0  0  0  0  0  0  0  0  0  0
    7.6499   21.1983    1.1208 C   0  0  0  0  0  0  0  0  0  0  0  0
    8.3894   22.1302    1.4305 O   0  0  0  0  0  0  0  0  0  0  0  0
    7.9272   20.4507   -0.0317 N   0  0  0  0  0  0  0  0  0  0  0  0
    7.1637   19.3724   -0.4527 C   0  0  0  0  0  0  0  0  0  0  0  0
    7.5920   18.6730   -1.5096 N   0  0  0  0  0  0  0  0  0  0  0  0
    6.0312   18.9900    0.1597 N   0  0  0  0  0  0  0  0  0  0  0  0
    5.7350   19.7196    1.2699 C   0  0  0  0  0  0  0  0  0  0  0  0
  1  2  2  0  0  0  0
  1  4  1  0  0  0  0
  1  3  1  0  0  0  0
  5  1  1  0  0  0  0
  6  7  2  6  0  0  0
  6  9  1  0  0  0  0
  6  5  1  0  0  0  0
  6  8  1  0  0  0  0
 10 11  2  6  0  0  0
 10 12  1  0  0  0  0
 10 13  1  0  0  0  0
 10  9  1  0  0  0  0
 13 14  1  0  0  0  0
 15 14  1  6  0  0  0
 15 16  1  0  0  0  0
 17 19  1  0  0  0  0
 17 15  1  0  0  0  0
 17 18  1  1  0  0  0
 19 21  1  0  0  0  0
 19 20  1  1  0  0  0
 21 16  1  0  0  0  0
 21 22  1  6  0  0  0
 22 32  1  0  0  0  0
 23 22  1  0  0  0  0
 23 24  2  0  0  0  0
 24 25  1  0  0  0  0
 25 26  1  0  0  0  0
 26 27  2  0  0  0  0
 26 28  1  0  0  0  0
 29 28  1  0  0  0  0
 29 30  1  0  0  0  0
 31 29  2  0  0  0  0
 32 25  2  0  0  0  0
 32 31  1  0  0  0  0
M  END
>  <CHROM.1>
103.20195486,-167.59332115,-59.85039425,-163.91392055,-132.45720343,68.50962078
108.17340330,55.38935483,-63.62681701,-127.02561954,2.78473688,16.13422050
1.71866220,-3.13585353,-0.90854725,-1.88474082

>  <Name>
lig.pdb

>  <RI>
3.03081e+07

>  <Rbt.Current_Directory>
/home/itssahil/PROJECTS/Mol_Feturizer/New_Systems/rnas/5lwj

>  <Rbt.Executable>
rbdock ($Id: //depot/dev/client3/rdock/2013.1/src/exe/rbdock.cxx#4 $)

>  <Rbt.Library>
libRbt.so (2013.1, Build901 2013/11/27)

>  <Rbt.Parameter_File>
/export/apps/rDock/src/rDock_2013.1_src/data/scripts/dock_solv.prm

>  <Rbt.Receptor>
prm/pocket_docking_2.prm

>  <SCORE>
-20.1512

>  <SCORE.INTER>
-18.8618

>  <SCORE.INTER.CONST>
1

>  <SCORE.INTER.POLAR>
-1.77322

>  <SCORE.INTER.ROT>
8

>  <SCORE.INTER.SOLV>
15.78

>  <SCORE.INTER.VDW>
-20.8572

>  <SCORE.INTER.norm>
-0.589433

>  <SCORE.INTRA>
-2.14804

>  <SCORE.INTRA.DIHEDRAL>
2.09231

>  <SCORE.INTRA.DIHEDRAL.0>
10.9248

>  <SCORE.INTRA.POLAR>
0

>  <SCORE.INTRA.POLAR.0>
0

>  <SCORE.INTRA.REPUL>
0

>  <SCORE.INTRA.REPUL.0>
0

>  <SCORE.INTRA.SOLV>
-0.309815

>  <SCORE.INTRA.SOLV.lig_0>
-51.4104

>  <SCORE.INTRA.VDW>
-3.03928

>  <SCORE.INTRA.VDW.0>
0.110327

>  <SCORE.INTRA.norm>
-0.0671261

>  <SCORE.RESTR>
0.858723

>  <SCORE.RESTR.CAVITY>
0.858723

>  <SCORE.RESTR.norm>
0.0268351

>  <SCORE.SYSTEM>
0

>  <SCORE.SYSTEM.CONST>
0

>  <SCORE.SYSTEM.DIHEDRAL>
0

>  <SCORE.SYSTEM.SOLV>
0

>  <SCORE.SYSTEM.norm>
0

>  <SCORE.heavy>
32

>  <SCORE.norm>
-0.629724

>  <RMSD>
9.286

$$$$
lig.pdb
 OpenBabel11021811523D
libRbt.so/2013.1/901 2013/11/27
 32 34  0  0  0  0  0  0  0  0999 V2000
    1.3963   10.9784    5.8560 P   0  0  0  0  0  0  0  0  0  0  0  0
    1.1594   11.8279    7.0808 O   0  0  0  0  0  0  0  0  0  0  0  0
    2.1014   12.0107    4.8218 O   0  0  0  0  0  0  0  0  0  0  0  0
    2.3902    9.8474    5.9465 O   0  0  0  0  0  0  0  0  0  0  0  0
    0.1203   10.3676    5.5375 O   0  0  0  0  0  0  0  0  0  0  0  0
   -0.8579   11.4224    5.1824 P   0  0  1  0  0  0  0  0  0  0  0  0
   -2.0958   10.7623    4.7050 O   0  0  0  0  0  0  0  0  0  0  0  0
   -1.1764   12.2417    6.3749 O   0  0  0  0  0  0  0  0  0  0  0  0
   -0.2886   12.2854    4.1171 O   0  0  0  0  0  0  0  0  0  0  0  0
   -1.0667   13.3652    3.4647 P   0  0  1  0  0  0  0  0  0  0  0  0
   -2.4829   13.0375    3.2028 O   0  0  0  0  0  0  0  0  0  0  0  0
   -0.8320   14.7227    4.0053 O   0  0  0  0  0  0  0  0  0  0  0  0
   -0.4400   13.4055    1.9733 O   0  0  0  0  0  0  0  0  0  0  0  0
    0.9528   13.4932    1.7384 C   0  0  0  0  0  0  0  0  0  0  0  0
    1.5621   14.7931    2.2818 C   0  0  1  0  0  0  0  0  0  0  0  0
    2.9577   14.8100    2.0617 O   0  0  0  0  0  0  0  0  0  0  0  0
    1.1185   16.0529    1.5178 C   0  0  1  0  0  0  0  0  0  0  0  0
   -0.1830   16.5248    1.8239 O   0  0  0  0  0  0  0  0  0  0  0  0
    2.2095   17.0701    1.8513 C   0  0  1  0  0  0  0  0  0  0  0  0
    1.8899   17.8409    2.9962 O   0  0  0  0  0  0  0  0  0  0  0  0
    3.3846   16.1546    2.1893 C   0  0  2  0  0  0  0  0  0  0  0  0
    4.6223   16.4008    1.4190 N   0  0  0  0  0  0  0  0  0  0  0  0
    5.2892   15.6032    0.5237 C   0  0  0  0  0  0  0  0  0  0  0  0
    6.4191   16.1075    0.0996 N   0  0  0  0  0  0  0  0  0  0  0  0
    6.5011   17.3412    0.7381 C   0  0  0  0  0  0  0  0  0  0  0  0
    7.5249   18.3417    0.7115 C   0  0  0  0  0  0  0  0  0  0  0  0
    8.6041   18.2978    0.1245 O   0  0  0  0  0  0  0  0  0  0  0  0
    7.2017   19.4693    1.4785 N   0  0  0  0  0  0  0  0  0  0  0  0
    6.0040   19.6189    2.1612 C   0  0  0  0  0  0  0  0  0  0  0  0
    5.7690   20.7865    2.7705 N   0  0  0  0  0  0  0  0  0  0  0  0
    5.0678   18.6578    2.2225 N   0  0  0  0  0  0  0  0  0  0  0  0
    5.3753   17.5461    1.5000 C   0  0  0  0  0  0  0  0  0  0  0  0
  1  2  2  0  0  0  0
  1  4  1  0  0  0  0
  1  3  1  0  0  0  0
  5  1  1  0  0  0  0
  6  7  2  6  0  0  0
  6  9  1  0  0  0  0
  6  5  1  0  0  0  0
  6  8  1  0  0  0  0
 10 11  2  6  0  0  0
 10 12  1  0  0  0  0
 10 13  1  0  0  0  0
 10  9  1  0  0  0  0
 13 14  1  0  0  0  0
 15 14  1  6  0  0  0
 15 16  1  0  0  0  0
 17 19  1  0  0  0  0
 17 15  1  0  0  0  0
 17 18  1  1  0  0  0
 19 21  1  0  0  0  0
 19 20  1  1  0  0  0
 21 16  1  0  0  0  0
 21 22  1  6  0  0  0
 22 32  1  0  0  0  0
 23 22  1  0  0  0  0
 23 24  2  0  0  0  0
 24 25  1  0  0  0  0
 25 26  1  0  0  0  0
 26 27  2  0  0  0  0
 26 28  1  0  0  0  0
 29 28  1  0  0  0  0
 29 30  1  0  0  0  0
 31 29  2  0  0  0  0
 32 25  2  0  0  0  0
 32 31  1  0  0  0  0
M  END
>  <CHROM.1>
63.62578085,174.79981293,173.21829777,-51.15641428,-38.91712486,-62.71875259
178.04284141,-176.17428859,-171.90249925,8.36397966,2.10960079,14.63287071
3.16676606,-2.27587808,-0.04613652,-0.54949248

>  <Name>
lig.pdb

>  <RI>
0

>  <Rbt.Current_Directory>
/home/itssahil/PROJECTS/Mol_Feturizer/New_Systems/rnas/5lwj

>  <Rbt.Executable>
rbdock ($Id: //depot/dev/client3/rdock/2013.1/src/exe/rbdock.cxx#4 $)

>  <Rbt.Library>
libRbt.so (2013.1, Build901 2013/11/27)

>  <Rbt.Parameter_File>
/export/apps/rDock/src/rDock_2013.1_src/data/scripts/dock_solv.prm

>  <Rbt.Receptor>
prm/pocket_docking_3.prm

>  <SCORE>
-44.2407

>  <SCORE.INTER>
-38.8292

>  <SCORE.INTER.CONST>
1

>  <SCORE.INTER.POLAR>
-3.24415

>  <SCORE.INTER.ROT>
8

>  <SCORE.INTER.SOLV>
23.9757

>  <SCORE.INTER.VDW>
-31.9975

>  <SCORE.INTER.norm>
-1.21341

>  <SCORE.INTRA>
-5.68645

>  <SCORE.INTRA.DIHEDRAL>
-6.23828

>  <SCORE.INTRA.DIHEDRAL.0>
10.9248

>  <SCORE.INTRA.POLAR>
0

>  <SCORE.INTRA.POLAR.0>
0

>  <SCORE.INTRA.REPUL>
0.0114114

>  <SCORE.INTRA.REPUL.0>
0

>  <SCORE.INTRA.SOLV>
1.29231

>  <SCORE.INTRA.SOLV.lig_0>
-51.4104

>  <SCORE.INTRA.VDW>
-3.27052

>  <SCORE.INTRA.VDW.0>
0.110327

>  <SCORE.INTRA.norm>
-0.177701

>  <SCORE.RESTR>
0.274918

>  <SCORE.RESTR.CAVITY>
0.274918

>  <SCORE.RESTR.norm>
0.00859118

>  <SCORE.SYSTEM>
0

>  <SCORE.SYSTEM.CONST>
0

>  <SCORE.SYSTEM.DIHEDRAL>
0

>  <SCORE.SYSTEM.SOLV>
0

>  <SCORE.SYSTEM.norm>
0

>  <SCORE.heavy>
32

>  <SCORE.norm>
-1.38252

>  <RMSD>
9.287

$$$$
lig.pdb
 OpenBabel11021811523D
libRbt.so/2013.1/901 2013/11/27
 32 34  0  0  0  0  0  0  0  0999 V2000
   -0.6281   12.1906    4.1529 P   0  0  0  0  0  0  0  0  0  0  0  0
   -0.9391   13.4869    4.8605 O   0  0  0  0  0  0  0  0  0  0  0  0
    0.9824   12.0647    4.3045 O   0  0  0  0  0  0  0  0  0  0  0  0
   -1.1333   10.9033    4.7553 O   0  0  0  0  0  0  0  0  0  0  0  0
   -1.2427   12.2900    2.8433 O   0  0  0  0  0  0  0  0  0  0  0  0
   -0.5461   13.3278    2.0476 P   0  0  1  0  0  0  0  0  0  0  0  0
   -1.2540   13.4699    0.7535 O   0  0  0  0  0  0  0  0  0  0  0  0
   -0.5816   14.6248    2.7627 O   0  0  0  0  0  0  0  0  0  0  0  0
    0.8624   12.9157    1.8236 O   0  0  0  0  0  0  0  0  0  0  0  0
    1.8149   13.7291    1.0312 P   0  0  1  0  0  0  0  0  0  0  0  0
    3.0595   13.0305    0.6508 O   0  0  0  0  0  0  0  0  0  0  0  0
    1.2037   14.5412   -0.0444 O   0  0  0  0  0  0  0  0  0  0  0  0
    2.3432   14.8126    2.1109 O   0  0  0  0  0  0  0  0  0  0  0  0
    2.4904   16.1849    1.7981 C   0  0  0  0  0  0  0  0  0  0  0  0
    3.6510   16.4477    0.8284 C   0  0  1  0  0  0  0  0  0  0  0  0
    3.6307   17.7915    0.3921 O   0  0  0  0  0  0  0  0  0  0  0  0
    5.0397   16.3623    1.4855 C   0  0  1  0  0  0  0  0  0  0  0  0
    5.5227   15.0504    1.7217 O   0  0  0  0  0  0  0  0  0  0  0  0
    5.9308   17.1573    0.5315 C   0  0  1  0  0  0  0  0  0  0  0  0
    6.5207   16.3347   -0.4597 O   0  0  0  0  0  0  0  0  0  0  0  0
    4.9125   18.0780   -0.1383 C   0  0  2  0  0  0  0  0  0  0  0  0
    5.2159   19.5229   -0.0596 N   0  0  0  0  0  0  0  0  0  0  0  0
    4.9781   20.5343   -0.9556 C   0  0  0  0  0  0  0  0  0  0  0  0
    5.4734   21.6907   -0.5977 N   0  0  0  0  0  0  0  0  0  0  0  0
    6.0631   21.4397    0.6375 C   0  0  0  0  0  0  0  0  0  0  0  0
    6.8025   22.2985    1.5126 C   0  0  0  0  0  0  0  0  0  0  0  0
    7.1138   23.4732    1.3270 O   0  0  0  0  0  0  0  0  0  0  0  0
    7.2015   21.6568    2.6929 N   0  0  0  0  0  0  0  0  0  0  0  0
    6.8844   20.3422    3.0000 C   0  0  0  0  0  0  0  0  0  0  0  0
    7.2318   19.8765    4.2050 N   0  0  0  0  0  0  0  0  0  0  0  0
    6.2326   19.5267    2.1551 N   0  0  0  0  0  0  0  0  0  0  0  0
    5.8559   20.1282    0.9937 C   0  0  0  0  0  0  0  0  0  0  0  0
  1  2  2  0  0  0  0
  1  4  1  0  0  0  0
  1  3  1  0  0  0  0
  5  1  1  0  0  0  0
  6  7  2  6  0  0  0
  6  9  1  0  0  0  0
  6  5  1  0  0  0  0
  6  8  1  0  0  0  0
 10 11  2  6  0  0  0
 10 12  1  0  0  0  0
 10 13  1  0  0  0  0
 10  9  1  0  0  0  0
 13 14  1  0  0  0  0
 15 14  1  1  0  0  0
 15 16  1  0  0  0  0
 17 19  1  0  0  0  0
 17 15  1  0  0  0  0
 17 18  1  6  0  0  0
 19 21  1  0  0  0  0
 19 20  1  6  0  0  0
 21 16  1  0  0  0  0
 21 22  1  1  0  0  0
 22 32  1  0  0  0  0
 23 22  1  0  0  0  0
 23 24  2  0  0  0  0
 24 25  1  0  0  0  0
 25 26  1  0  0  0  0
 26 27  2  0  0  0  0
 26 28  1  0  0  0  0
 29 28  1  0  0  0  0
 29 30  1  0  0  0  0
 31 29  2  0  0  0  0
 32 25  2  0  0  0  0
 32 31  1  0  0  0  0
M  END
>  <CHROM.1>
67.57501218,178.50985035,-176.17327228,-136.65927075,-166.44722702,-70.06186733
171.18690936,54.34686423,-61.47363993,-90.04202640,3.03059094,16.19740965
1.77570675,3.14033814,-0.88709954,-1.78798128

>  <Name>
lig.pdb

>  <RI>
3.03081e+07

>  <Rbt.Current_Directory>
/home/itssahil/PROJECTS/Mol_Feturizer/New_Systems/rnas/5lwj

>  <Rbt.Executable>
rbdock ($Id: //depot/dev/client3/rdock/2013.1/src/exe/rbdock.cxx#4 $)

>  <Rbt.Library>
libRbt.so (2013.1, Build901 2013/11/27)

>  <Rbt.Parameter_File>
/export/apps/rDock/src/rDock_2013.1_src/data/scripts/dock_solv.prm

>  <Rbt.Receptor>
prm/pocket_docking_2.prm

>  <SCORE>
-27.9711

>  <SCORE.INTER>
-25.4628

>  <SCORE.INTER.CONST>
1

>  <SCORE.INTER.POLAR>
-2.72301

>  <SCORE.INTER.ROT>
8

>  <SCORE.INTER.SOLV>
17.3672

>  <SCORE.INTER.VDW>
-22.6209

>  <SCORE.INTER.norm>
-0.795711

>  <SCORE.INTRA>
-4.48514

>  <SCORE.INTRA.DIHEDRAL>
-4.36334

>  <SCORE.INTRA.DIHEDRAL.0>
10.9248

>  <SCORE.INTRA.POLAR>
0

>  <SCORE.INTRA.POLAR.0>
0

>  <SCORE.INTRA.REPUL>
0

>  <SCORE.INTRA.REPUL.0>
0

>  <SCORE.INTRA.SOLV>
1.09984

>  <SCORE.INTRA.SOLV.lig_0>
-51.4104

>  <SCORE.INTRA.VDW>
-2.85339

>  <SCORE.INTRA.VDW.0>
0.110327

>  <SCORE.INTRA.norm>
-0.140161

>  <SCORE.RESTR>
1.9768

>  <SCORE.RESTR.CAVITY>
1.9768

>  <SCORE.RESTR.norm>
0.0617749

>  <SCORE.SYSTEM>
0

>  <SCORE.SYSTEM.CONST>
0

>  <SCORE.SYSTEM.DIHEDRAL>
0

>  <SCORE.SYSTEM.SOLV>
0

>  <SCORE.SYSTEM.norm>
0

>  <SCORE.heavy>
32

>  <SCORE.norm>
-0.874097

>  <RMSD>
9.308

$$$$
lig.pdb
 OpenBabel11021811523D
libRbt.so/2013.1/901 2013/11/27
 32 34  0  0  0  0  0  0  0  0999 V2000
   -1.3386   13.5073    3.3481 P   0  0  0  0  0  0  0  0  0  0  0  0
   -0.9454   14.7698    4.0757 O   0  0  0  0  0  0  0  0  0  0  0  0
   -1.0088   12.3416    4.4274 O   0  0  0  0  0  0  0  0  0  0  0  0
   -2.7965   13.2834    3.0327 O   0  0  0  0  0  0  0  0  0  0  0  0
   -0.6529   13.5491    2.0711 O   0  0  0  0  0  0  0  0  0  0  0  0
    0.8002   13.3513    2.2833 P   0  0  1  0  0  0  0  0  0  0  0  0
    1.3117   14.4967    3.0722 O   0  0  0  0  0  0  0  0  0  0  0  0
    1.0370   12.0997    3.0397 O   0  0  0  0  0  0  0  0  0  0  0  0
    1.4863   13.2817    0.9688 O   0  0  0  0  0  0  0  0  0  0  0  0
    2.6677   14.1145    0.6407 P   0  0  1  0  0  0  0  0  0  0  0  0
    2.3558   15.4990    0.2313 O   0  0  0  0  0  0  0  0  0  0  0  0
    3.8071   13.9841    1.5760 O   0  0  0  0  0  0  0  0  0  0  0  0
    3.1957   13.4566   -0.7403 O   0  0  0  0  0  0  0  0  0  0  0  0
    3.5490   12.0901   -0.8426 C   0  0  0  0  0  0  0  0  0  0  0  0
    4.3714   11.7860   -2.1025 C   0  0  1  0  0  0  0  0  0  0  0  0
    3.7293   12.3120   -3.2460 O   0  0  0  0  0  0  0  0  0  0  0  0
    5.7250   12.5162   -2.1509 C   0  0  1  0  0  0  0  0  0  0  0  0
    6.7466   11.9609   -1.3396 O   0  0  0  0  0  0  0  0  0  0  0  0
    6.0792   12.5043   -3.6377 C   0  0  1  0  0  0  0  0  0  0  0  0
    6.8531   11.3723   -3.9940 O   0  0  0  0  0  0  0  0  0  0  0  0
    4.6982   12.3748   -4.2774 C   0  0  2  0  0  0  0  0  0  0  0  0
    4.3591   13.4164   -5.2705 N   0  0  0  0  0  0  0  0  0  0  0  0
    4.5071   13.4302   -6.6344 C   0  0  0  0  0  0  0  0  0  0  0  0
    4.1875   14.5686   -7.1936 N   0  0  0  0  0  0  0  0  0  0  0  0
    3.7728   15.3646   -6.1300 C   0  0  0  0  0  0  0  0  0  0  0  0
    3.3410   16.7293   -6.0960 C   0  0  0  0  0  0  0  0  0  0  0  0
    3.2816   17.5227   -7.0331 O   0  0  0  0  0  0  0  0  0  0  0  0
    2.9732   17.1500   -4.8108 N   0  0  0  0  0  0  0  0  0  0  0  0
    2.9895   16.3253   -3.6961 C   0  0  0  0  0  0  0  0  0  0  0  0
    2.5139   16.8140   -2.5452 N   0  0  0  0  0  0  0  0  0  0  0  0
    3.4409   15.0607   -3.7240 N   0  0  0  0  0  0  0  0  0  0  0  0
    3.8228   14.6420   -4.9615 C   0  0  0  0  0  0  0  0  0  0  0  0
  1  2  2  0  0  0  0
  1  4  1  0  0  0  0
  1  3  1  0  0  0  0
  5  1  1  0  0  0  0
  6  7  2  1  0  0  0
  6  9  1  0  0  0  0
  6  5  1  0  0  0  0
  6  8  1  0  0  0  0
 10 11  2  6  0  0  0
 10 12  1  0  0  0  0
 10 13  1  0  0  0  0
 10  9  1  0  0  0  0
 13 14  1  0  0  0  0
 15 14  1  1  0  0  0
 15 16  1  0  0  0  0
 17 19  1  0  0  0  0
 17 15  1  0  0  0  0
 17 18  1  1  0  0  0
 19 21  1  0  0  0  0
 19 20  1  1  0  0  0
 21 16  1  0  0  0  0
 21 22  1  6  0  0  0
 22 32  1  0  0  0  0
 23 22  1  0  0  0  0
 23 24  2  0  0  0  0
 24 25  1  0  0  0  0
 25 26  1  0  0  0  0
 26 27  2  0  0  0  0
 26 28  1  0  0  0  0
 29 28  1  0  0  0  0
 29 30  1  0  0  0  0
 31 29  2  0  0  0  0
 32 25  2  0  0  0  0
 32 31  1  0  0  0  0
M  END
>  <CHROM.1>
70.29708646,128.59974774,-64.38562130,-57.23825357,-80.83177486,-164.14795496
-50.74601249,-50.83745278,53.18743657,-142.52579747,2.56740790,13.87603156
-1.07459854,2.26085215,-0.67893492,2.16235406

>  <Name>
lig.pdb

>  <RI>
2.92062e+07

>  <Rbt.Current_Directory>
/home/itssahil/PROJECTS/Mol_Feturizer/New_Systems/rnas/5lwj

>  <Rbt.Executable>
rbdock ($Id: //depot/dev/client3/rdock/2013.1/src/exe/rbdock.cxx#4 $)

>  <Rbt.Library>
libRbt.so (2013.1, Build901 2013/11/27)

>  <Rbt.Parameter_File>
/export/apps/rDock/src/rDock_2013.1_src/data/scripts/dock_solv.prm

>  <Rbt.Receptor>
prm/pocket_docking_7.prm

>  <SCORE>
-23.8563

>  <SCORE.INTER>
-21.8907

>  <SCORE.INTER.CONST>
1

>  <SCORE.INTER.POLAR>
-3.2938

>  <SCORE.INTER.ROT>
8

>  <SCORE.INTER.SOLV>
11.7656

>  <SCORE.INTER.VDW>
-16.4697

>  <SCORE.INTER.norm>
-0.684085

>  <SCORE.INTRA>
-1.97001

>  <SCORE.INTRA.DIHEDRAL>
-3.07501

>  <SCORE.INTRA.DIHEDRAL.0>
10.9248

>  <SCORE.INTRA.POLAR>
-1

>  <SCORE.INTRA.POLAR.0>
0

>  <SCORE.INTRA.REPUL>
1

>  <SCORE.INTRA.REPUL.0>
0

>  <SCORE.INTRA.SOLV>
0.939332

>  <SCORE.INTRA.SOLV.lig_0>
-51.4104

>  <SCORE.INTRA.VDW>
-2.50217

>  <SCORE.INTRA.VDW.0>
0.110327

>  <SCORE.INTRA.norm>
-0.0615628

>  <SCORE.RESTR>
0.00438547

>  <SCORE.RESTR.CAVITY>
0.00438547

>  <SCORE.RESTR.norm>
0.000137046

>  <SCORE.SYSTEM>
0

>  <SCORE.SYSTEM.CONST>
0

>  <SCORE.SYSTEM.DIHEDRAL>
0

>  <SCORE.SYSTEM.SOLV>
0

>  <SCORE.SYSTEM.norm>
0

>  <SCORE.heavy>
32

>  <SCORE.norm>
-0.74551

>  <RMSD>
9.308

$$$$
lig.pdb
 OpenBabel11021811523D
libRbt.so/2013.1/901 2013/11/27
 32 34  0  0  0  0  0  0  0  0999 V2000
   -1.9205   12.1404    5.3049 P   0  0  0  0  0  0  0  0  0  0  0  0
   -2.0310   10.7927    4.6346 O   0  0  0  0  0  0  0  0  0  0  0  0
   -2.6529   13.1363    4.2540 O   0  0  0  0  0  0  0  0  0  0  0  0
   -2.6815   12.3706    6.5867 O   0  0  0  0  0  0  0  0  0  0  0  0
   -0.5186   12.3123    5.6333 O   0  0  0  0  0  0  0  0  0  0  0  0
    0.2564   12.5380    4.3907 P   0  0  1  0  0  0  0  0  0  0  0  0
    1.6978   12.5029    4.7329 O   0  0  0  0  0  0  0  0  0  0  0  0
   -0.0335   11.4663    3.4099 O   0  0  0  0  0  0  0  0  0  0  0  0
   -0.1063   13.8575    3.8155 O   0  0  0  0  0  0  0  0  0  0  0  0
    0.3575   14.2994    2.4788 P   0  0  1  0  0  0  0  0  0  0  0  0
    1.0592   13.2644    1.6926 O   0  0  0  0  0  0  0  0  0  0  0  0
   -0.6157   15.1093    1.7127 O   0  0  0  0  0  0  0  0  0  0  0  0
    1.5527   15.3295    2.8384 O   0  0  0  0  0  0  0  0  0  0  0  0
    1.7941   16.5031    2.0854 C   0  0  0  0  0  0  0  0  0  0  0  0
    2.8857   16.3088    1.0238 C   0  0  1  0  0  0  0  0  0  0  0  0
    3.7289   17.4415    0.9745 O   0  0  0  0  0  0  0  0  0  0  0  0
    3.8916   15.1954    1.3650 C   0  0  1  0  0  0  0  0  0  0  0  0
    3.4325   13.8717    1.1478 O   0  0  0  0  0  0  0  0  0  0  0  0
    5.1093   15.5463    0.5104 C   0  0  1  0  0  0  0  0  0  0  0  0
    5.0742   14.9126   -0.7562 O   0  0  0  0  0  0  0  0  0  0  0  0
    4.9178   17.0488    0.3121 C   0  0  2  0  0  0  0  0  0  0  0  0
    6.0623   17.8928    0.7169 N   0  0  0  0  0  0  0  0  0  0  0  0
    7.3746   17.8671    0.3174 C   0  0  0  0  0  0  0  0  0  0  0  0
    8.1443   18.7057    0.9618 N   0  0  0  0  0  0  0  0  0  0  0  0
    7.2797   19.3558    1.8373 C   0  0  0  0  0  0  0  0  0  0  0  0
    7.5327   20.3528    2.8333 C   0  0  0  0  0  0  0  0  0  0  0  0
    8.6169   20.8320    3.1592 O   0  0  0  0  0  0  0  0  0  0  0  0
    6.3669   20.7757    3.4859 N   0  0  0  0  0  0  0  0  0  0  0  0
    5.0984   20.3078    3.1774 C   0  0  0  0  0  0  0  0  0  0  0  0
    4.0536   20.8671    3.7981 N   0  0  0  0  0  0  0  0  0  0  0  0
    4.8718   19.3379    2.2764 N   0  0  0  0  0  0  0  0  0  0  0  0
    5.9967   18.9000    1.6477 C   0  0  0  0  0  0  0  0  0  0  0  0
  1  2  2  0  0  0  0
  1  4  1  0  0  0  0
  1  3  1  0  0  0  0
  5  1  1  0  0  0  0
  6  7  2  1  0  0  0
  6  9  1  0  0  0  0
  6  5  1  0  0  0  0
  6  8  1  0  0  0  0
 10 11  2  6  0  0  0
 10 12  1  0  0  0  0
 10 13  1  0  0  0  0
 10  9  1  0  0  0  0
 13 14  1  0  0  0  0
 15 14  1  1  0  0  0
 15 16  1  0  0  0  0
 17 19  1  0  0  0  0
 17 15  1  0  0  0  0
 17 18  1  6  0  0  0
 19 21  1  0  0  0  0
 19 20  1  6  0  0  0
 21 16  1  0  0  0  0
 21 22  1  1  0  0  0
 22 32  1  0  0  0  0
 23 22  1  0  0  0  0
 23 24  2  0  0  0  0
 24 25  1  0  0  0  0
 25 26  1  0  0  0  0
 26 27  2  0  0  0  0
 26 28  1  0  0  0  0
 29 28  1  0  0  0  0
 29 30  1  0  0  0  0
 31 29  2  0  0  0  0
 32 25  2  0  0  0  0
 32 31  1  0  0  0  0
M  END
>  <CHROM.1>
71.28180509,-171.57413925,-171.49265204,-143.53005279,7.53061456,-96.26657291
-138.83749694,-60.60500673,60.62926849,-179.33571616,2.52162035,15.54243559
2.76980486,2.82925219,-0.70920708,-2.40489170

>  <Name>
lig.pdb

>  <RI>
3.03081e+07

>  <Rbt.Current_Directory>
/home/itssahil/PROJECTS/Mol_Feturizer/New_Systems/rnas/5lwj

>  <Rbt.Executable>
rbdock ($Id: //depot/dev/client3/rdock/2013.1/src/exe/rbdock.cxx#4 $)

>  <Rbt.Library>
libRbt.so (2013.1, Build901 2013/11/27)

>  <Rbt.Parameter_File>
/export/apps/rDock/src/rDock_2013.1_src/data/scripts/dock_solv.prm

>  <Rbt.Receptor>
prm/pocket_docking_2.prm

>  <SCORE>
-19.6067

>  <SCORE.INTER>
-24.2523

>  <SCORE.INTER.CONST>
1

>  <SCORE.INTER.POLAR>
-2.46187

>  <SCORE.INTER.ROT>
8

>  <SCORE.INTER.SOLV>
20.0584

>  <SCORE.INTER.VDW>
-23.5814

>  <SCORE.INTER.norm>
-0.757885

>  <SCORE.INTRA>
2.27998

>  <SCORE.INTRA.DIHEDRAL>
4.70796

>  <SCORE.INTRA.DIHEDRAL.0>
10.9248

>  <SCORE.INTRA.POLAR>
-0.646278

>  <SCORE.INTRA.POLAR.0>
0

>  <SCORE.INTRA.REPUL>
0.440117

>  <SCORE.INTRA.REPUL.0>
0

>  <SCORE.INTRA.SOLV>
2.4433

>  <SCORE.INTRA.SOLV.lig_0>
-51.4104

>  <SCORE.INTRA.VDW>
-1.29889

>  <SCORE.INTRA.VDW.0>
0.110327

>  <SCORE.INTRA.norm>
0.0712494

>  <SCORE.RESTR>
2.36559

>  <SCORE.RESTR.CAVITY>
2.36559

>  <SCORE.RESTR.norm>
0.0739248

>  <SCORE.SYSTEM>
0

>  <SCORE.SYSTEM.CONST>
0

>  <SCORE.SYSTEM.DIHEDRAL>
0

>  <SCORE.SYSTEM.SOLV>
0

>  <SCORE.SYSTEM.norm>
0

>  <SCORE.heavy>
32

>  <SCORE.norm>
-0.61271

>  <RMSD>
9.311

$$$$
lig.pdb
 OpenBabel11021811523D
libRbt.so/2013.1/901 2013/11/27
 32 34  0  0  0  0  0  0  0  0999 V2000
   -2.6194   13.4444    2.4374 P   0  0  0  0  0  0  0  0  0  0  0  0
   -3.5089   13.0500    1.2837 O   0  0  0  0  0  0  0  0  0  0  0  0
   -2.6014   15.0646    2.3522 O   0  0  0  0  0  0  0  0  0  0  0  0
   -3.1020   13.1778    3.8414 O   0  0  0  0  0  0  0  0  0  0  0  0
   -1.3962   12.6815    2.2811 O   0  0  0  0  0  0  0  0  0  0  0  0
   -0.2362   13.5252    2.6528 P   0  0  1  0  0  0  0  0  0  0  0  0
   -0.3905   13.9229    4.0719 O   0  0  0  0  0  0  0  0  0  0  0  0
    1.0207   12.7559    2.5006 O   0  0  0  0  0  0  0  0  0  0  0  0
   -0.1994   14.7259    1.7807 O   0  0  0  0  0  0  0  0  0  0  0  0
    0.6429   15.9070    2.0848 P   0  0  1  0  0  0  0  0  0  0  0  0
    0.9674   16.7538    0.9189 O   0  0  0  0  0  0  0  0  0  0  0  0
    0.2642   16.6502    3.3072 O   0  0  0  0  0  0  0  0  0  0  0  0
    2.0754   15.2423    2.4383 O   0  0  0  0  0  0  0  0  0  0  0  0
    3.2991   15.9196    2.2233 C   0  0  0  0  0  0  0  0  0  0  0  0
    3.9474   15.5547    0.8805 C   0  0  1  0  0  0  0  0  0  0  0  0
    5.2295   16.1399    0.7799 O   0  0  0  0  0  0  0  0  0  0  0  0
    4.2836   14.0597    0.7400 C   0  0  1  0  0  0  0  0  0  0  0  0
    3.1846   13.2124    0.4496 O   0  0  0  0  0  0  0  0  0  0  0  0
    5.3507   14.0395   -0.3541 C   0  0  1  0  0  0  0  0  0  0  0  0
    4.7901   13.8754   -1.6448 O   0  0  0  0  0  0  0  0  0  0  0  0
    5.9240   15.4512   -0.2447 C   0  0  2  0  0  0  0  0  0  0  0  0
    7.3873   15.5278   -0.0473 N   0  0  0  0  0  0  0  0  0  0  0  0
    8.3665   14.5913   -0.2628 C   0  0  0  0  0  0  0  0  0  0  0  0
    9.5593   14.9705    0.1169 N   0  0  0  0  0  0  0  0  0  0  0  0
    9.3677   16.2622    0.5979 C   0  0  0  0  0  0  0  0  0  0  0  0
   10.2880   17.1861    1.1890 C   0  0  0  0  0  0  0  0  0  0  0  0
   11.4783   17.0063    1.4381 O   0  0  0  0  0  0  0  0  0  0  0  0
    9.6928   18.4130    1.5121 N   0  0  0  0  0  0  0  0  0  0  0  0
    8.3643   18.7162    1.2546 C   0  0  0  0  0  0  0  0  0  0  0  0
    7.9415   19.9590    1.5123 N   0  0  0  0  0  0  0  0  0  0  0  0
    7.4936   17.8299    0.7446 N   0  0  0  0  0  0  0  0  0  0  0  0
    8.0505   16.6248    0.4445 C   0  0  0  0  0  0  0  0  0  0  0  0
  1  2  2  0  0  0  0
  1  4  1  0  0  0  0
  1  3  1  0  0  0  0
  5  1  1  0  0  0  0
  6  7  2  1  0  0  0
  6  9  1  0  0  0  0
  6  5  1  0  0  0  0
  6  8  1  0  0  0  0
 10 11  2  6  0  0  0
 10 12  1  0  0  0  0
 10 13  1  0  0  0  0
 10  9  1  0  0  0  0
 13 14  1  0  0  0  0
 15 14  1  1  0  0  0
 15 16  1  0  0  0  0
 17 19  1  0  0  0  0
 17 15  1  0  0  0  0
 17 18  1  6  0  0  0
 19 21  1  0  0  0  0
 19 20  1  6  0  0  0
 21 16  1  0  0  0  0
 21 22  1  1  0  0  0
 22 32  1  0  0  0  0
 23 22  1  0  0  0  0
 23 24  2  0  0  0  0
 24 25  1  0  0  0  0
 25 26  1  0  0  0  0
 26 27  2  0  0  0  0
 26 28  1  0  0  0  0
 29 28  1  0  0  0  0
 29 30  1  0  0  0  0
 31 29  2  0  0  0  0
 32 25  2  0  0  0  0
 32 31  1  0  0  0  0
M  END
>  <CHROM.1>
141.56104368,165.94261343,60.85512554,151.45541320,157.54524539,-95.48750168
-173.57229974,-51.05560573,-178.32230370,142.17619118,3.24041079,15.23122071
1.49415309,-2.96664062,0.27688526,0.44901905

>  <Name>
lig.pdb

>  <RI>
1.82117e+07

>  <Rbt.Current_Directory>
/home/itssahil/PROJECTS/Mol_Feturizer/New_Systems/rnas/5lwj

>  <Rbt.Executable>
rbdock ($Id: //depot/dev/client3/rdock/2013.1/src/exe/rbdock.cxx#4 $)

>  <Rbt.Library>
libRbt.so (2013.1, Build901 2013/11/27)

>  <Rbt.Parameter_File>
/export/apps/rDock/src/rDock_2013.1_src/data/scripts/dock_solv.prm

>  <Rbt.Receptor>
prm/pocket_docking_5.prm

>  <SCORE>
-24.1582

>  <SCORE.INTER>
-18.0782

>  <SCORE.INTER.CONST>
1

>  <SCORE.INTER.POLAR>
-1.19274

>  <SCORE.INTER.ROT>
8

>  <SCORE.INTER.SOLV>
15.0374

>  <SCORE.INTER.VDW>
-22.0221

>  <SCORE.INTER.norm>
-0.564943

>  <SCORE.INTRA>
-6.16395

>  <SCORE.INTRA.DIHEDRAL>
0.158589

>  <SCORE.INTRA.DIHEDRAL.0>
10.9248

>  <SCORE.INTRA.POLAR>
-1.29661

>  <SCORE.INTRA.POLAR.0>
0

>  <SCORE.INTRA.REPUL>
0.185544

>  <SCORE.INTRA.REPUL.0>
0

>  <SCORE.INTRA.SOLV>
1.37995

>  <SCORE.INTRA.SOLV.lig_0>
-51.4104

>  <SCORE.INTRA.VDW>
-3.45247

>  <SCORE.INTRA.VDW.0>
0.110327

>  <SCORE.INTRA.norm>
-0.192623

>  <SCORE.RESTR>
0.083976

>  <SCORE.RESTR.CAVITY>
0.083976

>  <SCORE.RESTR.norm>
0.00262425

>  <SCORE.SYSTEM>
0

>  <SCORE.SYSTEM.CONST>
0

>  <SCORE.SYSTEM.DIHEDRAL>
0

>  <SCORE.SYSTEM.SOLV>
0

>  <SCORE.SYSTEM.norm>
0

>  <SCORE.heavy>
32

>  <SCORE.norm>
-0.754943

>  <RMSD>
9.322

$$$$
lig.pdb
 OpenBabel11021811523D
libRbt.so/2013.1/901 2013/11/27
 32 34  0  0  0  0  0  0  0  0999 V2000
    0.6985   11.5598    5.4875 P   0  0  0  0  0  0  0  0  0  0  0  0
    1.7117   10.7200    4.7485 O   0  0  0  0  0  0  0  0  0  0  0  0
   -0.6825   10.7317    5.2886 O   0  0  0  0  0  0  0  0  0  0  0  0
    0.8180   11.6772    6.9865 O   0  0  0  0  0  0  0  0  0  0  0  0
    0.8358   12.9061    4.9667 O   0  0  0  0  0  0  0  0  0  0  0  0
    0.1723   12.9950    3.6448 P   0  0  1  0  0  0  0  0  0  0  0  0
    0.7694   11.9683    2.7586 O   0  0  0  0  0  0  0  0  0  0  0  0
   -1.2779   12.7273    3.7856 O   0  0  0  0  0  0  0  0  0  0  0  0
    0.3804   14.3511    3.0780 O   0  0  0  0  0  0  0  0  0  0  0  0
   -0.0557   14.7193    1.7101 P   0  0  1  0  0  0  0  0  0  0  0  0
    0.8415   14.2624    0.6293 O   0  0  0  0  0  0  0  0  0  0  0  0
   -1.4990   14.5347    1.4402 O   0  0  0  0  0  0  0  0  0  0  0  0
    0.1625   16.3226    1.6854 O   0  0  0  0  0  0  0  0  0  0  0  0
    0.7757   16.9876    0.5970 C   0  0  0  0  0  0  0  0  0  0  0  0
    2.2984   16.7954    0.5704 C   0  0  1  0  0  0  0  0  0  0  0  0
    2.9120   17.8412   -0.1549 O   0  0  0  0  0  0  0  0  0  0  0  0
    2.9670   16.9476    1.9479 C   0  0  1  0  0  0  0  0  0  0  0  0
    2.8331   15.8352    2.8167 O   0  0  0  0  0  0  0  0  0  0  0  0
    4.4236   17.2545    1.6010 C   0  0  1  0  0  0  0  0  0  0  0  0
    5.2129   16.0807    1.5205 O   0  0  0  0  0  0  0  0  0  0  0  0
    4.2832   17.8476    0.2003 C   0  0  2  0  0  0  0  0  0  0  0  0
    4.8798   19.1879    0.0166 N   0  0  0  0  0  0  0  0  0  0  0  0
    4.8105   20.0574   -1.0424 C   0  0  0  0  0  0  0  0  0  0  0  0
    5.5492   21.1277   -0.9024 N   0  0  0  0  0  0  0  0  0  0  0  0
    6.1349   20.9743    0.3506 C   0  0  0  0  0  0  0  0  0  0  0  0
    7.0766   21.7955    1.0496 C   0  0  0  0  0  0  0  0  0  0  0  0
    7.6125   22.8287    0.6539 O   0  0  0  0  0  0  0  0  0  0  0  0
    7.3932   21.2967    2.3204 N   0  0  0  0  0  0  0  0  0  0  0  0
    6.8290   20.1509    2.8607 C   0  0  0  0  0  0  0  0  0  0  0  0
    7.1323   19.8367    4.1252 N   0  0  0  0  0  0  0  0  0  0  0  0
    5.9831   19.3581    2.1826 N   0  0  0  0  0  0  0  0  0  0  0  0
    5.6811   19.8167    0.9373 C   0  0  0  0  0  0  0  0  0  0  0  0
  1  2  2  0  0  0  0
  1  4  1  0  0  0  0
  1  3  1  0  0  0  0
  5  1  1  0  0  0  0
  6  7  2  6  0  0  0
  6  9  1  0  0  0  0
  6  5  1  0  0  0  0
  6  8  1  0  0  0  0
 10 11  2  6  0  0  0
 10 12  1  0  0  0  0
 10 13  1  0  0  0  0
 10  9  1  0  0  0  0
 13 14  1  0  0  0  0
 15 14  1  1  0  0  0
 15 16  1  0  0  0  0
 17 19  1  0  0  0  0
 17 15  1  0  0  0  0
 17 18  1  1  0  0  0
 19 21  1  0  0  0  0
 19 20  1  6  0  0  0
 21 16  1  0  0  0  0
 21 22  1  1  0  0  0
 22 32  1  0  0  0  0
 23 22  1  0  0  0  0
 23 24  2  0  0  0  0
 24 25  1  0  0  0  0
 25 26  1  0  0  0  0
 26 27  2  0  0  0  0
 26 28  1  0  0  0  0
 29 28  1  0  0  0  0
 29 30  1  0  0  0  0
 31 29  2  0  0  0  0
 32 25  2  0  0  0  0
 32 31  1  0  0  0  0
M  END
>  <CHROM.1>
77.54183709,174.31976195,-56.50833100,134.85205940,-79.15742891,-75.44927720
-157.06558071,-57.25947824,55.14092657,-47.75829326,2.66296647,16.09454423
2.34419155,-2.33295903,-0.60550875,-0.87262972

>  <Name>
lig.pdb

>  <RI>
3.03081e+07

>  <Rbt.Current_Directory>
/home/itssahil/PROJECTS/Mol_Feturizer/New_Systems/rnas/5lwj

>  <Rbt.Executable>
rbdock ($Id: //depot/dev/client3/rdock/2013.1/src/exe/rbdock.cxx#4 $)

>  <Rbt.Library>
libRbt.so (2013.1, Build901 2013/11/27)

>  <Rbt.Parameter_File>
/export/apps/rDock/src/rDock_2013.1_src/data/scripts/dock_solv.prm

>  <Rbt.Receptor>
prm/pocket_docking_2.prm

>  <SCORE>
-26.1927

>  <SCORE.INTER>
-22.2884

>  <SCORE.INTER.CONST>
1

>  <SCORE.INTER.POLAR>
-2.3591

>  <SCORE.INTER.ROT>
8

>  <SCORE.INTER.SOLV>
19.4208

>  <SCORE.INTER.VDW>
-22.4022

>  <SCORE.INTER.norm>
-0.696512

>  <SCORE.INTRA>
-4.89574

>  <SCORE.INTRA.DIHEDRAL>
-2.20802

>  <SCORE.INTRA.DIHEDRAL.0>
10.9248

>  <SCORE.INTRA.POLAR>
-1.10977

>  <SCORE.INTRA.POLAR.0>
0

>  <SCORE.INTRA.REPUL>
0

>  <SCORE.INTRA.REPUL.0>
0

>  <SCORE.INTRA.SOLV>
2.55674

>  <SCORE.INTRA.SOLV.lig_0>
-51.4104

>  <SCORE.INTRA.VDW>
-1.29689

>  <SCORE.INTRA.VDW.0>
0.110327

>  <SCORE.INTRA.norm>
-0.152992

>  <SCORE.RESTR>
0.991427

>  <SCORE.RESTR.CAVITY>
0.991427

>  <SCORE.RESTR.norm>
0.0309821

>  <SCORE.SYSTEM>
0

>  <SCORE.SYSTEM.CONST>
0

>  <SCORE.SYSTEM.DIHEDRAL>
0

>  <SCORE.SYSTEM.SOLV>
0

>  <SCORE.SYSTEM.norm>
0

>  <SCORE.heavy>
32

>  <SCORE.norm>
-0.818522

>  <RMSD>
9.324

$$$$
lig.pdb
 OpenBabel11021811523D
libRbt.so/2013.1/901 2013/11/27
 32 34  0  0  0  0  0  0  0  0999 V2000
    1.3254   10.9594    5.8385 P   0  0  0  0  0  0  0  0  0  0  0  0
    2.0311   12.2485    6.1825 O   0  0  0  0  0  0  0  0  0  0  0  0
    1.4385   10.8972    4.2211 O   0  0  0  0  0  0  0  0  0  0  0  0
    1.9492    9.6585    6.2785 O   0  0  0  0  0  0  0  0  0  0  0  0
    0.0305   11.0243    6.4880 O   0  0  0  0  0  0  0  0  0  0  0  0
   -0.9181   11.7683    5.6265 P   0  0  1  0  0  0  0  0  0  0  0  0
   -1.4129   10.8440    4.5792 O   0  0  0  0  0  0  0  0  0  0  0  0
   -2.0666   12.2464    6.4307 O   0  0  0  0  0  0  0  0  0  0  0  0
   -0.2214   12.9242    5.0083 O   0  0  0  0  0  0  0  0  0  0  0  0
   -0.6440   13.5113    3.7146 P   0  0  1  0  0  0  0  0  0  0  0  0
   -1.8784   12.9334    3.1453 O   0  0  0  0  0  0  0  0  0  0  0  0
   -0.5534   14.9862    3.6350 O   0  0  0  0  0  0  0  0  0  0  0  0
    0.4910   12.9766    2.6924 O   0  0  0  0  0  0  0  0  0  0  0  0
    0.7241   13.5818    1.4346 C   0  0  0  0  0  0  0  0  0  0  0  0
    1.4305   14.9394    1.5549 C   0  0  1  0  0  0  0  0  0  0  0  0
    2.6100   14.9490    0.7771 O   0  0  0  0  0  0  0  0  0  0  0  0
    0.6445   16.1052    0.9299 C   0  0  1  0  0  0  0  0  0  0  0  0
   -0.4408   16.5918    1.7016 O   0  0  0  0  0  0  0  0  0  0  0  0
    1.7189   17.1649    0.6871 C   0  0  1  0  0  0  0  0  0  0  0  0
    1.8551   18.0497    1.7851 O   0  0  0  0  0  0  0  0  0  0  0  0
    2.9774   16.3045    0.5921 C   0  0  2  0  0  0  0  0  0  0  0  0
    3.7751   16.4816   -0.6401 N   0  0  0  0  0  0  0  0  0  0  0  0
    3.4468   16.2632   -1.9542 C   0  0  0  0  0  0  0  0  0  0  0  0
    4.4408   16.4332   -2.7872 N   0  0  0  0  0  0  0  0  0  0  0  0
    5.5031   16.8167   -1.9741 C   0  0  0  0  0  0  0  0  0  0  0  0
    6.8687   17.1051   -2.2936 C   0  0  0  0  0  0  0  0  0  0  0  0
    7.4151   17.0332   -3.3925 O   0  0  0  0  0  0  0  0  0  0  0  0
    7.6176   17.4925   -1.1743 N   0  0  0  0  0  0  0  0  0  0  0  0
    7.0875   17.6195    0.1008 C   0  0  0  0  0  0  0  0  0  0  0  0
    7.8794   18.1001    1.0661 N   0  0  0  0  0  0  0  0  0  0  0  0
    5.8184   17.3016    0.4043 N   0  0  0  0  0  0  0  0  0  0  0  0
    5.0818   16.9024   -0.6683 C   0  0  0  0  0  0  0  0  0  0  0  0
  1  2  2  0  0  0  0
  1  4  1  0  0  0  0
  1  3  1  0  0  0  0
  5  1  1  0  0  0  0
  6  7  2  6  0  0  0
  6  9  1  0  0  0  0
  6  5  1  0  0  0  0
  6  8  1  0  0  0  0
 10 11  2  6  0  0  0
 10 12  1  0  0  0  0
 10 13  1  0  0  0  0
 10  9  1  0  0  0  0
 13 14  1  0  0  0  0
 15 14  1  6  0  0  0
 15 16  1  0  0  0  0
 17 19  1  0  0  0  0
 17 15  1  0  0  0  0
 17 18  1  1  0  0  0
 19 21  1  0  0  0  0
 19 20  1  1  0  0  0
 21 16  1  0  0  0  0
 21 22  1  6  0  0  0
 22 32  1  0  0  0  0
 23 22  1  0  0  0  0
 23 24  2  0  0  0  0
 24 25  1  0  0  0  0
 25 26  1  0  0  0  0
 26 27  2  0  0  0  0
 26 28  1  0  0  0  0
 29 28  1  0  0  0  0
 29 30  1  0  0  0  0
 31 29  2  0  0  0  0
 32 25  2  0  0  0  0
 32 31  1  0  0  0  0
M  END
>  <CHROM.1>
84.32871819,153.26130086,80.34791320,-161.27863654,4.96860978,73.23797465
124.97976121,-27.14293581,178.73220581,62.62061215,2.02472666,14.40001463
2.33035961,-2.19058640,0.09623234,-0.80045267

>  <Name>
lig.pdb

>  <RI>
2.0892e+07

>  <Rbt.Current_Directory>
/home/itssahil/PROJECTS/Mol_Feturizer/New_Systems/rnas/5lwj

>  <Rbt.Executable>
rbdock ($Id: //depot/dev/client3/rdock/2013.1/src/exe/rbdock.cxx#4 $)

>  <Rbt.Library>
libRbt.so (2013.1, Build901 2013/11/27)

>  <Rbt.Parameter_File>
/export/apps/rDock/src/rDock_2013.1_src/data/scripts/dock_solv.prm

>  <Rbt.Receptor>
prm/pocket_docking_8.prm

>  <SCORE>
-30.5915

>  <SCORE.INTER>
-29.602

>  <SCORE.INTER.CONST>
1

>  <SCORE.INTER.POLAR>
-3.19991

>  <SCORE.INTER.ROT>
8

>  <SCORE.INTER.SOLV>
19.2549

>  <SCORE.INTER.VDW>
-24.42

>  <SCORE.INTER.norm>
-0.925063

>  <SCORE.INTRA>
-0.98949

>  <SCORE.INTRA.DIHEDRAL>
6.98239

>  <SCORE.INTRA.DIHEDRAL.0>
10.9248

>  <SCORE.INTRA.POLAR>
-0.938829

>  <SCORE.INTRA.POLAR.0>
0

>  <SCORE.INTRA.REPUL>
0.0028134

>  <SCORE.INTRA.REPUL.0>
0

>  <SCORE.INTRA.SOLV>
2.16555

>  <SCORE.INTRA.SOLV.lig_0>
-51.4104

>  <SCORE.INTRA.VDW>
-2.38551

>  <SCORE.INTRA.VDW.0>
0.110327

>  <SCORE.INTRA.norm>
-0.0309216

>  <SCORE.RESTR>
0

>  <SCORE.RESTR.CAVITY>
0

>  <SCORE.RESTR.norm>
0

>  <SCORE.SYSTEM>
0

>  <SCORE.SYSTEM.CONST>
0

>  <SCORE.SYSTEM.DIHEDRAL>
0

>  <SCORE.SYSTEM.SOLV>
0

>  <SCORE.SYSTEM.norm>
0

>  <SCORE.heavy>
32

>  <SCORE.norm>
-0.955985

>  <RMSD>
9.328

$$$$
lig.pdb
 OpenBabel11021811523D
libRbt.so/2013.1/901 2013/11/27
 32 34  0  0  0  0  0  0  0  0999 V2000
   -3.2234   13.0592    5.2657 P   0  0  0  0  0  0  0  0  0  0  0  0
   -2.9567   14.5170    5.5517 O   0  0  0  0  0  0  0  0  0  0  0  0
   -2.3882   12.2962    6.4288 O   0  0  0  0  0  0  0  0  0  0  0  0
   -4.6262   12.5356    5.4478 O   0  0  0  0  0  0  0  0  0  0  0  0
   -2.8976   12.8578    3.8671 O   0  0  0  0  0  0  0  0  0  0  0  0
   -1.4356   12.6641    3.7229 P   0  0  1  0  0  0  0  0  0  0  0  0
   -0.7551   13.8607    4.2716 O   0  0  0  0  0  0  0  0  0  0  0  0
   -1.0039   11.4702    4.4863 O   0  0  0  0  0  0  0  0  0  0  0  0
   -1.0997   12.4914    2.2873 O   0  0  0  0  0  0  0  0  0  0  0  0
   -0.5834   13.6001    1.4500 P   0  0  1  0  0  0  0  0  0  0  0  0
   -0.8076   13.4376   -0.0009 O   0  0  0  0  0  0  0  0  0  0  0  0
   -0.8509   14.9586    1.9725 O   0  0  0  0  0  0  0  0  0  0  0  0
    1.0205   13.4236    1.5735 O   0  0  0  0  0  0  0  0  0  0  0  0
    1.8732   13.4321    0.4442 C   0  0  0  0  0  0  0  0  0  0  0  0
    1.8158   14.7573   -0.3285 C   0  0  1  0  0  0  0  0  0  0  0  0
    1.8826   15.8494    0.5654 O   0  0  0  0  0  0  0  0  0  0  0  0
    3.0480   15.0130   -1.2138 C   0  0  1  0  0  0  0  0  0  0  0  0
    3.0817   14.2927   -2.4346 O   0  0  0  0  0  0  0  0  0  0  0  0
    3.0249   16.5272   -1.4216 C   0  0  1  0  0  0  0  0  0  0  0  0
    2.3057   16.8964   -2.5850 O   0  0  0  0  0  0  0  0  0  0  0  0
    2.2421   16.9897   -0.1941 C   0  0  2  0  0  0  0  0  0  0  0  0
    2.9181   18.0027    0.6443 N   0  0  0  0  0  0  0  0  0  0  0  0
    3.0854   18.0669    2.0046 C   0  0  0  0  0  0  0  0  0  0  0  0
    3.6558   19.1682    2.4199 N   0  0  0  0  0  0  0  0  0  0  0  0
    3.9102   19.8802    1.2516 C   0  0  0  0  0  0  0  0  0  0  0  0
    4.4815   21.1779    1.0528 C   0  0  0  0  0  0  0  0  0  0  0  0
    4.8450   21.9789    1.9115 O   0  0  0  0  0  0  0  0  0  0  0  0
    4.5959   21.5186   -0.3017 N   0  0  0  0  0  0  0  0  0  0  0  0
    4.2302   20.6769   -1.3413 C   0  0  0  0  0  0  0  0  0  0  0  0
    4.4873   21.0744   -2.5925 N   0  0  0  0  0  0  0  0  0  0  0  0
    3.6503   19.4808   -1.1494 N   0  0  0  0  0  0  0  0  0  0  0  0
    3.5118   19.1428    0.1618 C   0  0  0  0  0  0  0  0  0  0  0  0
  1  2  2  0  0  0  0
  1  4  1  0  0  0  0
  1  3  1  0  0  0  0
  5  1  1  0  0  0  0
  6  7  2  1  0  0  0
  6  9  1  0  0  0  0
  6  5  1  0  0  0  0
  6  8  1  0  0  0  0
 10 11  2  6  0  0  0
 10 12  1  0  0  0  0
 10 13  1  0  0  0  0
 10  9  1  0  0  0  0
 13 14  1  0  0  0  0
 15 14  1  1  0  0  0
 15 16  1  0  0  0  0
 17 19  1  0  0  0  0
 17 15  1  0  0  0  0
 17 18  1  6  0  0  0
 19 21  1  0  0  0  0
 19 20  1  6  0  0  0
 21 16  1  0  0  0  0
 21 22  1  1  0  0  0
 22 32  1  0  0  0  0
 23 22  1  0  0  0  0
 23 24  2  0  0  0  0
 24 25  1  0  0  0  0
 25 26  1  0  0  0  0
 26 27  2  0  0  0  0
 26 28  1  0  0  0  0
 29 28  1  0  0  0  0
 29 30  1  0  0  0  0
 31 29  2  0  0  0  0
 32 25  2  0  0  0  0
 32 31  1  0  0  0  0
M  END
>  <CHROM.1>
82.24791728,98.82132492,-58.34940012,131.62201296,-156.67465192,61.20068996
45.66313336,-176.02761331,59.44331378,-8.95124559,0.87024677,15.67456520
1.60976523,3.00014681,-0.91769242,-2.36399346

>  <Name>
lig.pdb

>  <RI>
0

>  <Rbt.Current_Directory>
/home/itssahil/PROJECTS/Mol_Feturizer/New_Systems/rnas/5lwj

>  <Rbt.Executable>
rbdock ($Id: //depot/dev/client3/rdock/2013.1/src/exe/rbdock.cxx#4 $)

>  <Rbt.Library>
libRbt.so (2013.1, Build901 2013/11/27)

>  <Rbt.Parameter_File>
/export/apps/rDock/src/rDock_2013.1_src/data/scripts/dock_solv.prm

>  <Rbt.Receptor>
prm/pocket_docking_3.prm

>  <SCORE>
-21.279

>  <SCORE.INTER>
-19.9698

>  <SCORE.INTER.CONST>
1

>  <SCORE.INTER.POLAR>
-2.41782

>  <SCORE.INTER.ROT>
8

>  <SCORE.INTER.SOLV>
13.9606

>  <SCORE.INTER.VDW>
-18.8406

>  <SCORE.INTER.norm>
-0.624055

>  <SCORE.INTRA>
-1.37116

>  <SCORE.INTRA.DIHEDRAL>
-1.18405

>  <SCORE.INTRA.DIHEDRAL.0>
10.9248

>  <SCORE.INTRA.POLAR>
0

>  <SCORE.INTRA.POLAR.0>
0

>  <SCORE.INTRA.REPUL>
0

>  <SCORE.INTRA.REPUL.0>
0

>  <SCORE.INTRA.SOLV>
0.718823

>  <SCORE.INTRA.SOLV.lig_0>
-51.4104

>  <SCORE.INTRA.VDW>
-1.13854

>  <SCORE.INTRA.VDW.0>
0.110327

>  <SCORE.INTRA.norm>
-0.0428487

>  <SCORE.RESTR>
0.061919

>  <SCORE.RESTR.CAVITY>
0.061919

>  <SCORE.RESTR.norm>
0.00193497

>  <SCORE.SYSTEM>
0

>  <SCORE.SYSTEM.CONST>
0

>  <SCORE.SYSTEM.DIHEDRAL>
0

>  <SCORE.SYSTEM.SOLV>
0

>  <SCORE.SYSTEM.norm>
0

>  <SCORE.heavy>
32

>  <SCORE.norm>
-0.664969

>  <RMSD>
9.334

$$$$
lig.pdb
 OpenBabel11021811523D
libRbt.so/2013.1/901 2013/11/27
 32 34  0  0  0  0  0  0  0  0999 V2000
   -0.2287   12.7550    3.6393 P   0  0  0  0  0  0  0  0  0  0  0  0
    0.9639   12.0796    4.2714 O   0  0  0  0  0  0  0  0  0  0  0  0
   -1.4663   11.7990    4.0721 O   0  0  0  0  0  0  0  0  0  0  0  0
   -0.6436   14.1109    4.1535 O   0  0  0  0  0  0  0  0  0  0  0  0
    0.1089   12.9412    2.2414 O   0  0  0  0  0  0  0  0  0  0  0  0
    0.9786   14.1321    2.0971 P   0  0  1  0  0  0  0  0  0  0  0  0
    1.9444   14.1373    3.2210 O   0  0  0  0  0  0  0  0  0  0  0  0
    1.7248   14.0641    0.8192 O   0  0  0  0  0  0  0  0  0  0  0  0
    0.1441   15.3595    2.1272 O   0  0  0  0  0  0  0  0  0  0  0  0
    0.7038   16.6971    2.4348 P   0  0  1  0  0  0  0  0  0  0  0  0
   -0.1780   17.8316    2.0929 O   0  0  0  0  0  0  0  0  0  0  0  0
    1.3802   16.8082    3.7464 O   0  0  0  0  0  0  0  0  0  0  0  0
    1.8936   16.8446    1.3479 O   0  0  0  0  0  0  0  0  0  0  0  0
    3.2555   16.6588    1.6848 C   0  0  0  0  0  0  0  0  0  0  0  0
    4.2029   17.0213    0.5327 C   0  0  1  0  0  0  0  0  0  0  0  0
    5.4922   17.3132    1.0315 O   0  0  0  0  0  0  0  0  0  0  0  0
    4.5025   15.8478   -0.4165 C   0  0  1  0  0  0  0  0  0  0  0  0
    3.4773   15.5382   -1.3456 O   0  0  0  0  0  0  0  0  0  0  0  0
    5.8072   16.2664   -1.0940 C   0  0  1  0  0  0  0  0  0  0  0  0
    5.5802   16.9789   -2.2973 O   0  0  0  0  0  0  0  0  0  0  0  0
    6.3919   17.2260   -0.0592 C   0  0  2  0  0  0  0  0  0  0  0  0
    7.7615   16.9079    0.3980 N   0  0  0  0  0  0  0  0  0  0  0  0
    8.4096   15.7031    0.5024 C   0  0  0  0  0  0  0  0  0  0  0  0
    9.5975   15.7823    1.0441 N   0  0  0  0  0  0  0  0  0  0  0  0
    9.7653   17.1404    1.2971 C   0  0  0  0  0  0  0  0  0  0  0  0
   10.8430   17.8499    1.9177 C   0  0  0  0  0  0  0  0  0  0  0  0
   11.8677   17.3810    2.4091 O   0  0  0  0  0  0  0  0  0  0  0  0
   10.6332   19.2352    1.9500 N   0  0  0  0  0  0  0  0  0  0  0  0
    9.5196   19.8585    1.4073 C   0  0  0  0  0  0  0  0  0  0  0  0
    9.4855   21.1958    1.4064 N   0  0  0  0  0  0  0  0  0  0  0  0
    8.4894   19.1851    0.8698 N   0  0  0  0  0  0  0  0  0  0  0  0
    8.6671   17.8359    0.8496 C   0  0  0  0  0  0  0  0  0  0  0  0
  1  2  2  0  0  0  0
  1  4  1  0  0  0  0
  1  3  1  0  0  0  0
  5  1  1  0  0  0  0
  6  7  2  1  0  0  0
  6  9  1  0  0  0  0
  6  5  1  0  0  0  0
  6  8  1  0  0  0  0
 10 11  2  6  0  0  0
 10 12  1  0  0  0  0
 10 13  1  0  0  0  0
 10  9  1  0  0  0  0
 13 14  1  0  0  0  0
 15 14  1  1  0  0  0
 15 16  1  0  0  0  0
 17 19  1  0  0  0  0
 17 15  1  0  0  0  0
 17 18  1  6  0  0  0
 19 21  1  0  0  0  0
 19 20  1  6  0  0  0
 21 16  1  0  0  0  0
 21 22  1  1  0  0  0
 22 32  1  0  0  0  0
 23 22  1  0  0  0  0
 23 24  2  0  0  0  0
 24 25  1  0  0  0  0
 25 26  1  0  0  0  0
 26 27  2  0  0  0  0
 26 28  1  0  0  0  0
 29 28  1  0  0  0  0
 29 30  1  0  0  0  0
 31 29  2  0  0  0  0
 32 25  2  0  0  0  0
 32 31  1  0  0  0  0
M  END
>  <CHROM.1>
-80.08656263,160.17056503,40.32807373,-102.35035818,165.33800247,-172.87788381
157.80832940,-175.18544246,-62.11392187,94.79313392,4.11865637,16.03364859
1.65958108,-2.68393348,-0.07199189,-0.58312562

>  <Name>
lig.pdb

>  <RI>
2.92062e+07

>  <Rbt.Current_Directory>
/home/itssahil/PROJECTS/Mol_Feturizer/New_Systems/rnas/5lwj

>  <Rbt.Executable>
rbdock ($Id: //depot/dev/client3/rdock/2013.1/src/exe/rbdock.cxx#4 $)

>  <Rbt.Library>
libRbt.so (2013.1, Build901 2013/11/27)

>  <Rbt.Parameter_File>
/export/apps/rDock/src/rDock_2013.1_src/data/scripts/dock_solv.prm

>  <Rbt.Receptor>
prm/pocket_docking_7.prm

>  <SCORE>
-21.1692

>  <SCORE.INTER>
-20.0932

>  <SCORE.INTER.CONST>
1

>  <SCORE.INTER.POLAR>
-2.22627

>  <SCORE.INTER.ROT>
8

>  <SCORE.INTER.SOLV>
12.2402

>  <SCORE.INTER.VDW>
-18.988

>  <SCORE.INTER.norm>
-0.627913

>  <SCORE.INTRA>
-1.07599

>  <SCORE.INTRA.DIHEDRAL>
-2.59067

>  <SCORE.INTRA.DIHEDRAL.0>
10.9248

>  <SCORE.INTRA.POLAR>
0

>  <SCORE.INTRA.POLAR.0>
0

>  <SCORE.INTRA.REPUL>
0

>  <SCORE.INTRA.REPUL.0>
0

>  <SCORE.INTRA.SOLV>
0.614779

>  <SCORE.INTRA.SOLV.lig_0>
-51.4104

>  <SCORE.INTRA.VDW>
-0.0880418

>  <SCORE.INTRA.VDW.0>
0.110327

>  <SCORE.INTRA.norm>
-0.0336245

>  <SCORE.RESTR>
0

>  <SCORE.RESTR.CAVITY>
0

>  <SCORE.RESTR.norm>
0

>  <SCORE.SYSTEM>
0

>  <SCORE.SYSTEM.CONST>
0

>  <SCORE.SYSTEM.DIHEDRAL>
0

>  <SCORE.SYSTEM.SOLV>
0

>  <SCORE.SYSTEM.norm>
0

>  <SCORE.heavy>
32

>  <SCORE.norm>
-0.661538

>  <RMSD>
9.334

$$$$
lig.pdb
 OpenBabel11021811523D
libRbt.so/2013.1/901 2013/11/27
 32 34  0  0  0  0  0  0  0  0999 V2000
    0.7028   11.1773    5.8618 P   0  0  0  0  0  0  0  0  0  0  0  0
    0.7925    9.7399    6.3132 O   0  0  0  0  0  0  0  0  0  0  0  0
   -0.7237   11.6642    6.4623 O   0  0  0  0  0  0  0  0  0  0  0  0
    1.6779   12.1739    6.4372 O   0  0  0  0  0  0  0  0  0  0  0  0
    0.9380   11.1648    4.4310 O   0  0  0  0  0  0  0  0  0  0  0  0
    0.0578   12.1610    3.7764 P   0  0  1  0  0  0  0  0  0  0  0  0
   -1.3385   11.6731    3.8665 O   0  0  0  0  0  0  0  0  0  0  0  0
    0.1600   13.4643    4.4732 O   0  0  0  0  0  0  0  0  0  0  0  0
    0.4599   12.3174    2.3561 O   0  0  0  0  0  0  0  0  0  0  0  0
    0.3361   13.6031    1.6291 P   0  0  1  0  0  0  0  0  0  0  0  0
    0.4577   13.4993    0.1607 O   0  0  0  0  0  0  0  0  0  0  0  0
   -0.7503   14.4898    2.1021 O   0  0  0  0  0  0  0  0  0  0  0  0
    1.6992   14.3752    2.0348 O   0  0  0  0  0  0  0  0  0  0  0  0
    1.9744   15.6985    1.6156 C   0  0  0  0  0  0  0  0  0  0  0  0
    3.4731   16.0288    1.6504 C   0  0  1  0  0  0  0  0  0  0  0  0
    4.2290   14.9258    1.1939 O   0  0  0  0  0  0  0  0  0  0  0  0
    3.8914   17.1196    0.6489 C   0  0  1  0  0  0  0  0  0  0  0  0
    3.5807   18.4492    1.0306 O   0  0  0  0  0  0  0  0  0  0  0  0
    5.3930   16.8882    0.4822 C   0  0  1  0  0  0  0  0  0  0  0  0
    6.1569   17.6538    1.3973 O   0  0  0  0  0  0  0  0  0  0  0  0
    5.5158   15.4122    0.8560 C   0  0  2  0  0  0  0  0  0  0  0  0
    6.1660   14.5535   -0.1568 N   0  0  0  0  0  0  0  0  0  0  0  0
    5.6917   13.4599   -0.8361 C   0  0  0  0  0  0  0  0  0  0  0  0
    6.5826   12.8768   -1.5957 N   0  0  0  0  0  0  0  0  0  0  0  0
    7.7275   13.6506   -1.4313 C   0  0  0  0  0  0  0  0  0  0  0  0
    9.0452   13.4974   -1.9701 C   0  0  0  0  0  0  0  0  0  0  0  0
    9.4631   12.5915   -2.6884 O   0  0  0  0  0  0  0  0  0  0  0  0
    9.9137   14.5258   -1.5802 N   0  0  0  0  0  0  0  0  0  0  0  0
    9.5316   15.5978   -0.7879 C   0  0  0  0  0  0  0  0  0  0  0  0
   10.4243   16.5706   -0.5729 N   0  0  0  0  0  0  0  0  0  0  0  0
    8.3082   15.7117   -0.2455 N   0  0  0  0  0  0  0  0  0  0  0  0
    7.4573   14.7092   -0.5968 C   0  0  0  0  0  0  0  0  0  0  0  0
  1  2  2  0  0  0  0
  1  4  1  0  0  0  0
  1  3  1  0  0  0  0
  5  1  1  0  0  0  0
  6  7  2  1  0  0  0
  6  9  1  0  0  0  0
  6  5  1  0  0  0  0
  6  8  1  0  0  0  0
 10 11  2  6  0  0  0
 10 12  1  0  0  0  0
 10 13  1  0  0  0  0
 10  9  1  0  0  0  0
 13 14  1  0  0  0  0
 15 14  1  6  0  0  0
 15 16  1  0  0  0  0
 17 19  1  0  0  0  0
 17 15  1  0  0  0  0
 17 18  1  1  0  0  0
 19 21  1  0  0  0  0
 19 20  1  1  0  0  0
 21 16  1  0  0  0  0
 21 22  1  6  0  0  0
 22 32  1  0  0  0  0
 23 22  1  0  0  0  0
 23 24  2  0  0  0  0
 24 25  1  0  0  0  0
 25 26  1  0  0  0  0
 26 27  2  0  0  0  0
 26 28  1  0  0  0  0
 29 28  1  0  0  0  0
 29 30  1  0  0  0  0
 31 29  2  0  0  0  0
 32 25  2  0  0  0  0
 32 31  1  0  0  0  0
M  END
>  <CHROM.1>
142.15152888,-147.51230750,-69.48314012,-176.47540250,-165.37191912,-158.40211348
39.96689173,-58.93610860,-54.23796090,4.28109636,3.52310883,13.90452975,1.78205130
-2.64145195,0.44714747,-0.38724163

>  <Name>
lig.pdb

>  <RI>
2.92062e+07

>  <Rbt.Current_Directory>
/home/itssahil/PROJECTS/Mol_Feturizer/New_Systems/rnas/5lwj

>  <Rbt.Executable>
rbdock ($Id: //depot/dev/client3/rdock/2013.1/src/exe/rbdock.cxx#4 $)

>  <Rbt.Library>
libRbt.so (2013.1, Build901 2013/11/27)

>  <Rbt.Parameter_File>
/export/apps/rDock/src/rDock_2013.1_src/data/scripts/dock_solv.prm

>  <Rbt.Receptor>
prm/pocket_docking_7.prm

>  <SCORE>
-33.5672

>  <SCORE.INTER>
-29.8231

>  <SCORE.INTER.CONST>
1

>  <SCORE.INTER.POLAR>
-2.17864

>  <SCORE.INTER.ROT>
8

>  <SCORE.INTER.SOLV>
24.6982

>  <SCORE.INTER.VDW>
-29.786

>  <SCORE.INTER.norm>
-0.931972

>  <SCORE.INTRA>
-3.74413

>  <SCORE.INTRA.DIHEDRAL>
-0.853098

>  <SCORE.INTRA.DIHEDRAL.0>
10.9248

>  <SCORE.INTRA.POLAR>
-0.0264698

>  <SCORE.INTRA.POLAR.0>
0

>  <SCORE.INTRA.REPUL>
0

>  <SCORE.INTRA.REPUL.0>
0

>  <SCORE.INTRA.SOLV>
-1.52458

>  <SCORE.INTRA.SOLV.lig_0>
-51.4104

>  <SCORE.INTRA.VDW>
-2.46529

>  <SCORE.INTRA.VDW.0>
0.110327

>  <SCORE.INTRA.norm>
-0.117004

>  <SCORE.RESTR>
0

>  <SCORE.RESTR.CAVITY>
0

>  <SCORE.RESTR.norm>
0

>  <SCORE.SYSTEM>
0

>  <SCORE.SYSTEM.CONST>
0

>  <SCORE.SYSTEM.DIHEDRAL>
0

>  <SCORE.SYSTEM.SOLV>
0

>  <SCORE.SYSTEM.norm>
0

>  <SCORE.heavy>
32

>  <SCORE.norm>
-1.04898

>  <RMSD>
9.334

$$$$
lig.pdb
 OpenBabel11021811523D
libRbt.so/2013.1/901 2013/11/27
 32 34  0  0  0  0  0  0  0  0999 V2000
   -0.3859   11.9810    5.0401 P   0  0  0  0  0  0  0  0  0  0  0  0
    0.9203   11.4738    4.4792 O   0  0  0  0  0  0  0  0  0  0  0  0
   -1.4579   10.8699    4.5412 O   0  0  0  0  0  0  0  0  0  0  0  0
   -0.5702   11.9907    6.5372 O   0  0  0  0  0  0  0  0  0  0  0  0
   -0.4979   13.3620    4.6123 O   0  0  0  0  0  0  0  0  0  0  0  0
   -0.9836   13.4084    3.2132 P   0  0  1  0  0  0  0  0  0  0  0  0
    0.0127   12.7243    2.3557 O   0  0  0  0  0  0  0  0  0  0  0  0
   -2.2816   12.7030    3.1027 O   0  0  0  0  0  0  0  0  0  0  0  0
   -1.1429   14.8231    2.7925 O   0  0  0  0  0  0  0  0  0  0  0  0
    0.0010   15.6594    2.3575 P   0  0  1  0  0  0  0  0  0  0  0  0
    1.3080   14.9713    2.3591 O   0  0  0  0  0  0  0  0  0  0  0  0
   -0.2553   16.5052    1.1704 O   0  0  0  0  0  0  0  0  0  0  0  0
    0.1613   16.7082    3.5793 O   0  0  0  0  0  0  0  0  0  0  0  0
    0.9445   17.8821    3.4729 C   0  0  0  0  0  0  0  0  0  0  0  0
    0.1883   19.0368    2.8011 C   0  0  1  0  0  0  0  0  0  0  0  0
    0.2539   18.9136    1.3951 O   0  0  0  0  0  0  0  0  0  0  0  0
   -1.3316   19.0044    3.0388 C   0  0  1  0  0  0  0  0  0  0  0  0
   -1.7591   19.4546    4.3135 O   0  0  0  0  0  0  0  0  0  0  0  0
   -1.8855   19.8544    1.8956 C   0  0  1  0  0  0  0  0  0  0  0  0
   -2.0148   21.2181    2.2572 O   0  0  0  0  0  0  0  0  0  0  0  0
   -0.7735   19.7263    0.8561 C   0  0  2  0  0  0  0  0  0  0  0  0
   -1.2011   19.2407   -0.4733 N   0  0  0  0  0  0  0  0  0  0  0  0
   -2.2111   18.3821   -0.8267 C   0  0  0  0  0  0  0  0  0  0  0  0
   -2.2435   18.0936   -2.1021 N   0  0  0  0  0  0  0  0  0  0  0  0
   -1.1952   18.8315   -2.6437 C   0  0  0  0  0  0  0  0  0  0  0  0
   -0.6979   18.9049   -3.9843 C   0  0  0  0  0  0  0  0  0  0  0  0
   -1.0872   18.2758   -4.9661 O   0  0  0  0  0  0  0  0  0  0  0  0
    0.3672   19.8056   -4.1193 N   0  0  0  0  0  0  0  0  0  0  0  0
    0.8646   20.5723   -3.0764 C   0  0  0  0  0  0  0  0  0  0  0  0
    1.8130   21.4737   -3.3551 N   0  0  0  0  0  0  0  0  0  0  0  0
    0.4270   20.4645   -1.8112 N   0  0  0  0  0  0  0  0  0  0  0  0
   -0.5940   19.5776   -1.6579 C   0  0  0  0  0  0  0  0  0  0  0  0
  1  2  2  0  0  0  0
  1  4  1  0  0  0  0
  1  3  1  0  0  0  0
  5  1  1  0  0  0  0
  6  7  2  6  0  0  0
  6  9  1  0  0  0  0
  6  5  1  0  0  0  0
  6  8  1  0  0  0  0
 10 11  2  6  0  0  0
 10 12  1  0  0  0  0
 10 13  1  0  0  0  0
 10  9  1  0  0  0  0
 13 14  1  0  0  0  0
 15 14  1  1  0  0  0
 15 16  1  0  0  0  0
 17 19  1  0  0  0  0
 17 15  1  0  0  0  0
 17 18  1  1  0  0  0
 19 21  1  0  0  0  0
 19 20  1  1  0  0  0
 21 16  1  0  0  0  0
 21 22  1  6  0  0  0
 22 32  1  0  0  0  0
 23 22  1  0  0  0  0
 23 24  2  0  0  0  0
 24 25  1  0  0  0  0
 25 26  1  0  0  0  0
 26 27  2  0  0  0  0
 26 28  1  0  0  0  0
 29 28  1  0  0  0  0
 29 30  1  0  0  0  0
 31 29  2  0  0  0  0
 32 25  2  0  0  0  0
 32 31  1  0  0  0  0
M  END
>  <CHROM.1>
80.51538936,80.06791048,-61.68571120,-165.95733346,0.72396124,82.81077494
-83.02109253,60.71843898,-68.95586827,92.96950257,-0.52452839,16.61395457
1.51716635,-1.76906769,1.48816196,-0.53441595

>  <Name>
lig.pdb

>  <RI>
2.0892e+07

>  <Rbt.Current_Directory>
/home/itssahil/PROJECTS/Mol_Feturizer/New_Systems/rnas/5lwj

>  <Rbt.Executable>
rbdock ($Id: //depot/dev/client3/rdock/2013.1/src/exe/rbdock.cxx#4 $)

>  <Rbt.Library>
libRbt.so (2013.1, Build901 2013/11/27)

>  <Rbt.Parameter_File>
/export/apps/rDock/src/rDock_2013.1_src/data/scripts/dock_solv.prm

>  <Rbt.Receptor>
prm/pocket_docking_8.prm

>  <SCORE>
-19.3998

>  <SCORE.INTER>
-17.6393

>  <SCORE.INTER.CONST>
1

>  <SCORE.INTER.POLAR>
-2.46147

>  <SCORE.INTER.ROT>
8

>  <SCORE.INTER.SOLV>
10.7502

>  <SCORE.INTER.VDW>
-16.0714

>  <SCORE.INTER.norm>
-0.551228

>  <SCORE.INTRA>
-1.76352

>  <SCORE.INTRA.DIHEDRAL>
0.137192

>  <SCORE.INTRA.DIHEDRAL.0>
10.9248

>  <SCORE.INTRA.POLAR>
0

>  <SCORE.INTRA.POLAR.0>
0

>  <SCORE.INTRA.REPUL>
0

>  <SCORE.INTRA.REPUL.0>
0

>  <SCORE.INTRA.SOLV>
0.906715

>  <SCORE.INTRA.SOLV.lig_0>
-51.4104

>  <SCORE.INTRA.VDW>
-2.28547

>  <SCORE.INTRA.VDW.0>
0.110327

>  <SCORE.INTRA.norm>
-0.05511

>  <SCORE.RESTR>
0.00301892

>  <SCORE.RESTR.CAVITY>
0.00301892

>  <SCORE.RESTR.norm>
9.43413e-05

>  <SCORE.SYSTEM>
0

>  <SCORE.SYSTEM.CONST>
0

>  <SCORE.SYSTEM.DIHEDRAL>
0

>  <SCORE.SYSTEM.SOLV>
0

>  <SCORE.SYSTEM.norm>
0

>  <SCORE.heavy>
32

>  <SCORE.norm>
-0.606244

>  <RMSD>
9.335

$$$$
lig.pdb
 OpenBabel11021811523D
libRbt.so/2013.1/901 2013/11/27
 32 34  0  0  0  0  0  0  0  0999 V2000
   -0.4562   11.8951    4.8468 P   0  0  0  0  0  0  0  0  0  0  0  0
   -1.6627   11.4844    4.0383 O   0  0  0  0  0  0  0  0  0  0  0  0
   -0.7731   11.2869    6.3172 O   0  0  0  0  0  0  0  0  0  0  0  0
    0.8808   11.2877    4.5026 O   0  0  0  0  0  0  0  0  0  0  0  0
   -0.3101   13.3248    4.6529 O   0  0  0  0  0  0  0  0  0  0  0  0
    0.0129   13.6009    3.2334 P   0  0  1  0  0  0  0  0  0  0  0  0
    1.3396   13.0102    2.9385 O   0  0  0  0  0  0  0  0  0  0  0  0
   -1.0006   12.9766    2.3514 O   0  0  0  0  0  0  0  0  0  0  0  0
    0.0390   15.0681    3.0093 O   0  0  0  0  0  0  0  0  0  0  0  0
   -1.1416   15.9323    3.2467 P   0  0  1  0  0  0  0  0  0  0  0  0
   -1.9831   16.1729    2.0569 O   0  0  0  0  0  0  0  0  0  0  0  0
   -1.8905   15.6445    4.4903 O   0  0  0  0  0  0  0  0  0  0  0  0
   -0.4754   17.3854    3.4982 O   0  0  0  0  0  0  0  0  0  0  0  0
    0.8834   17.6565    3.2103 C   0  0  0  0  0  0  0  0  0  0  0  0
    1.2582   19.1238    3.4610 C   0  0  1  0  0  0  0  0  0  0  0  0
    2.6442   19.2403    3.7095 O   0  0  0  0  0  0  0  0  0  0  0  0
    1.0939   20.0259    2.2252 C   0  0  1  0  0  0  0  0  0  0  0  0
   -0.2372   20.4086    1.9225 O   0  0  0  0  0  0  0  0  0  0  0  0
    1.9955   21.2199    2.5378 C   0  0  1  0  0  0  0  0  0  0  0  0
    1.2957   22.2601    3.1974 O   0  0  0  0  0  0  0  0  0  0  0  0
    2.9903   20.6004    3.5176 C   0  0  2  0  0  0  0  0  0  0  0  0
    4.4153   20.7458    3.1514 N   0  0  0  0  0  0  0  0  0  0  0  0
    5.2894   21.7820    3.3631 C   0  0  0  0  0  0  0  0  0  0  0  0
    6.4631   21.6101    2.8121 N   0  0  0  0  0  0  0  0  0  0  0  0
    6.3753   20.3586    2.2098 C   0  0  0  0  0  0  0  0  0  0  0  0
    7.3222   19.6335    1.4177 C   0  0  0  0  0  0  0  0  0  0  0  0
    8.4401   19.9992    1.0602 O   0  0  0  0  0  0  0  0  0  0  0  0
    6.8489   18.3746    1.0237 N   0  0  0  0  0  0  0  0  0  0  0  0
    5.6115   17.8675    1.3906 C   0  0  0  0  0  0  0  0  0  0  0  0
    5.3181   16.6102    1.0401 N   0  0  0  0  0  0  0  0  0  0  0  0
    4.7079   18.5705    2.0929 N   0  0  0  0  0  0  0  0  0  0  0  0
    5.1433   19.8049    2.4659 C   0  0  0  0  0  0  0  0  0  0  0  0
  1  2  2  0  0  0  0
  1  4  1  0  0  0  0
  1  3  1  0  0  0  0
  5  1  1  0  0  0  0
  6  7  2  6  0  0  0
  6  9  1  0  0  0  0
  6  5  1  0  0  0  0
  6  8  1  0  0  0  0
 10 11  2  6  0  0  0
 10 12  1  0  0  0  0
 10 13  1  0  0  0  0
 10  9  1  0  0  0  0
 13 14  1  0  0  0  0
 15 14  1  6  0  0  0
 15 16  1  0  0  0  0
 17 19  1  0  0  0  0
 17 15  1  0  0  0  0
 17 18  1  1  0  0  0
 19 21  1  0  0  0  0
 19 20  1  1  0  0  0
 21 16  1  0  0  0  0
 21 22  1  6  0  0  0
 22 32  1  0  0  0  0
 23 22  1  0  0  0  0
 23 24  2  0  0  0  0
 24 25  1  0  0  0  0
 25 26  1  0  0  0  0
 26 27  2  0  0  0  0
 26 28  1  0  0  0  0
 29 28  1  0  0  0  0
 29 30  1  0  0  0  0
 31 29  2  0  0  0  0
 32 25  2  0  0  0  0
 32 31  1  0  0  0  0
M  END
>  <CHROM.1>
-65.14150446,-60.00518262,-64.89235039,12.59387394,-93.50288739,176.84850425
155.60221590,174.61234640,-63.91049626,-151.75092623,1.79033941,16.85813909
3.07072335,-2.24199260,0.19283308,-0.09600577

>  <Name>
lig.pdb

>  <RI>
2.92062e+07

>  <Rbt.Current_Directory>
/home/itssahil/PROJECTS/Mol_Feturizer/New_Systems/rnas/5lwj

>  <Rbt.Executable>
rbdock ($Id: //depot/dev/client3/rdock/2013.1/src/exe/rbdock.cxx#4 $)

>  <Rbt.Library>
libRbt.so (2013.1, Build901 2013/11/27)

>  <Rbt.Parameter_File>
/export/apps/rDock/src/rDock_2013.1_src/data/scripts/dock_solv.prm

>  <Rbt.Receptor>
prm/pocket_docking_7.prm

>  <SCORE>
-29.5812

>  <SCORE.INTER>
-28.7413

>  <SCORE.INTER.CONST>
1

>  <SCORE.INTER.POLAR>
-3.24052

>  <SCORE.INTER.ROT>
8

>  <SCORE.INTER.SOLV>
15.6719

>  <SCORE.INTER.VDW>
-22.5164

>  <SCORE.INTER.norm>
-0.898165

>  <SCORE.INTRA>
-0.839936

>  <SCORE.INTRA.DIHEDRAL>
-2.97626

>  <SCORE.INTRA.DIHEDRAL.0>
10.9248

>  <SCORE.INTRA.POLAR>
0

>  <SCORE.INTRA.POLAR.0>
0

>  <SCORE.INTRA.REPUL>
0

>  <SCORE.INTRA.REPUL.0>
0

>  <SCORE.INTRA.SOLV>
0.0964214

>  <SCORE.INTRA.SOLV.lig_0>
-51.4104

>  <SCORE.INTRA.VDW>
0.599984

>  <SCORE.INTRA.VDW.0>
0.110327

>  <SCORE.INTRA.norm>
-0.026248

>  <SCORE.RESTR>
0

>  <SCORE.RESTR.CAVITY>
0

>  <SCORE.RESTR.norm>
0

>  <SCORE.SYSTEM>
0

>  <SCORE.SYSTEM.CONST>
0

>  <SCORE.SYSTEM.DIHEDRAL>
0

>  <SCORE.SYSTEM.SOLV>
0

>  <SCORE.SYSTEM.norm>
0

>  <SCORE.heavy>
32

>  <SCORE.norm>
-0.924413

>  <RMSD>
9.339

$$$$
lig.pdb
 OpenBabel11021811523D
libRbt.so/2013.1/901 2013/11/27
 32 34  0  0  0  0  0  0  0  0999 V2000
    1.3700   11.0564    5.9749 P   0  0  0  0  0  0  0  0  0  0  0  0
    2.4674   12.0039    6.3945 O   0  0  0  0  0  0  0  0  0  0  0  0
    1.5419   10.9836    4.3631 O   0  0  0  0  0  0  0  0  0  0  0  0
    1.4663    9.6118    6.3980 O   0  0  0  0  0  0  0  0  0  0  0  0
    0.1490   11.5681    6.5666 O   0  0  0  0  0  0  0  0  0  0  0  0
   -0.8042   11.9360    5.4934 P   0  0  1  0  0  0  0  0  0  0  0  0
   -1.1903   10.6988    4.7749 O   0  0  0  0  0  0  0  0  0  0  0  0
   -2.0168   12.5520    6.0806 O   0  0  0  0  0  0  0  0  0  0  0  0
   -0.1546   12.8928    4.5627 O   0  0  0  0  0  0  0  0  0  0  0  0
   -0.9291   13.7969    3.6797 P   0  0  1  0  0  0  0  0  0  0  0  0
   -2.0813   13.1664    3.0040 O   0  0  0  0  0  0  0  0  0  0  0  0
   -1.1942   15.1424    4.2360 O   0  0  0  0  0  0  0  0  0  0  0  0
    0.0919   14.0568    2.4513 O   0  0  0  0  0  0  0  0  0  0  0  0
    0.0033   15.1991    1.6207 C   0  0  0  0  0  0  0  0  0  0  0  0
    0.6304   16.4449    2.2618 C   0  0  1  0  0  0  0  0  0  0  0  0
    2.0095   16.5096    1.9610 O   0  0  0  0  0  0  0  0  0  0  0  0
    0.1263   17.7704    1.6646 C   0  0  1  0  0  0  0  0  0  0  0  0
   -1.1589   18.1841    2.0972 O   0  0  0  0  0  0  0  0  0  0  0  0
    1.2244   18.7658    2.0381 C   0  0  1  0  0  0  0  0  0  0  0  0
    0.9677   19.4055    3.2759 O   0  0  0  0  0  0  0  0  0  0  0  0
    2.4284   17.8405    2.2051 C   0  0  2  0  0  0  0  0  0  0  0  0
    3.6132   18.1887    1.3922 N   0  0  0  0  0  0  0  0  0  0  0  0
    3.8941   17.9392    0.0726 C   0  0  0  0  0  0  0  0  0  0  0  0
    5.0932   18.3091   -0.2961 N   0  0  0  0  0  0  0  0  0  0  0  0
    5.6443   18.8683    0.8529 C   0  0  0  0  0  0  0  0  0  0  0  0
    6.9456   19.4135    1.0961 C   0  0  0  0  0  0  0  0  0  0  0  0
    7.8958   19.4674    0.3179 O   0  0  0  0  0  0  0  0  0  0  0  0
    7.0905   19.9117    2.3980 N   0  0  0  0  0  0  0  0  0  0  0  0
    6.0733   19.9115    3.3404 C   0  0  0  0  0  0  0  0  0  0  0  0
    6.3028   20.5123    4.5135 N   0  0  0  0  0  0  0  0  0  0  0  0
    4.8702   19.3555    3.1233 N   0  0  0  0  0  0  0  0  0  0  0  0
    4.7194   18.8472    1.8698 C   0  0  0  0  0  0  0  0  0  0  0  0
  1  2  2  0  0  0  0
  1  4  1  0  0  0  0
  1  3  1  0  0  0  0
  5  1  1  0  0  0  0
  6  7  2  6  0  0  0
  6  9  1  0  0  0  0
  6  5  1  0  0  0  0
  6  8  1  0  0  0  0
 10 11  2  6  0  0  0
 10 12  1  0  0  0  0
 10 13  1  0  0  0  0
 10  9  1  0  0  0  0
 13 14  1  0  0  0  0
 15 14  1  6  0  0  0
 15 16  1  0  0  0  0
 17 19  1  0  0  0  0
 17 15  1  0  0  0  0
 17 18  1  1  0  0  0
 19 21  1  0  0  0  0
 19 20  1  1  0  0  0
 21 16  1  0  0  0  0
 21 22  1  6  0  0  0
 22 32  1  0  0  0  0
 23 22  1  0  0  0  0
 23 24  2  0  0  0  0
 24 25  1  0  0  0  0
 25 26  1  0  0  0  0
 26 27  2  0  0  0  0
 26 28  1  0  0  0  0
 29 28  1  0  0  0  0
 29 30  1  0  0  0  0
 31 29  2  0  0  0  0
 32 25  2  0  0  0  0
 32 31  1  0  0  0  0
M  END
>  <CHROM.1>
117.68156192,-158.58655082,65.10784695,-156.73292852,-43.44428383,80.04032621
87.84691902,-175.85500411,65.10979958,43.62958661,1.76579231,15.45249602
3.39612266,-2.16341363,-0.16594858,-0.54611519

>  <Name>
lig.pdb

>  <RI>
2.0892e+07

>  <Rbt.Current_Directory>
/home/itssahil/PROJECTS/Mol_Feturizer/New_Systems/rnas/5lwj

>  <Rbt.Executable>
rbdock ($Id: //depot/dev/client3/rdock/2013.1/src/exe/rbdock.cxx#4 $)

>  <Rbt.Library>
libRbt.so (2013.1, Build901 2013/11/27)

>  <Rbt.Parameter_File>
/export/apps/rDock/src/rDock_2013.1_src/data/scripts/dock_solv.prm

>  <Rbt.Receptor>
prm/pocket_docking_8.prm

>  <SCORE>
-39.6881

>  <SCORE.INTER>
-37.412

>  <SCORE.INTER.CONST>
1

>  <SCORE.INTER.POLAR>
-3.89498

>  <SCORE.INTER.ROT>
8

>  <SCORE.INTER.SOLV>
22.5025

>  <SCORE.INTER.VDW>
-28.3923

>  <SCORE.INTER.norm>
-1.16913

>  <SCORE.INTRA>
-2.2761

>  <SCORE.INTRA.DIHEDRAL>
0.951123

>  <SCORE.INTRA.DIHEDRAL.0>
10.9248

>  <SCORE.INTRA.POLAR>
0

>  <SCORE.INTRA.POLAR.0>
0

>  <SCORE.INTRA.REPUL>
0.00931972

>  <SCORE.INTRA.REPUL.0>
0

>  <SCORE.INTRA.SOLV>
-0.138979

>  <SCORE.INTRA.SOLV.lig_0>
-51.4104

>  <SCORE.INTRA.VDW>
-2.72877

>  <SCORE.INTRA.VDW.0>
0.110327

>  <SCORE.INTRA.norm>
-0.0711281

>  <SCORE.RESTR>
0

>  <SCORE.RESTR.CAVITY>
0

>  <SCORE.RESTR.norm>
0

>  <SCORE.SYSTEM>
0

>  <SCORE.SYSTEM.CONST>
0

>  <SCORE.SYSTEM.DIHEDRAL>
0

>  <SCORE.SYSTEM.SOLV>
0

>  <SCORE.SYSTEM.norm>
0

>  <SCORE.heavy>
32

>  <SCORE.norm>
-1.24025

>  <RMSD>
9.339

$$$$
lig.pdb
 OpenBabel11021811523D
libRbt.so/2013.1/901 2013/11/27
 32 34  0  0  0  0  0  0  0  0999 V2000
   -1.0129   11.7905    5.4684 P   0  0  0  0  0  0  0  0  0  0  0  0
    0.0835   10.8667    5.9400 O   0  0  0  0  0  0  0  0  0  0  0  0
   -1.8186   10.8858    4.3890 O   0  0  0  0  0  0  0  0  0  0  0  0
   -2.0851   12.1939    6.4496 O   0  0  0  0  0  0  0  0  0  0  0  0
   -0.3570   13.0183    5.0622 O   0  0  0  0  0  0  0  0  0  0  0  0
    0.0537   12.9133    3.6424 P   0  0  1  0  0  0  0  0  0  0  0  0
    0.9127   11.7145    3.4978 O   0  0  0  0  0  0  0  0  0  0  0  0
   -1.1400   12.7592    2.7786 O   0  0  0  0  0  0  0  0  0  0  0  0
    0.8016   14.1350    3.2531 O   0  0  0  0  0  0  0  0  0  0  0  0
    1.1506   14.4419    1.8456 P   0  0  1  0  0  0  0  0  0  0  0  0
    2.1092   13.5043    1.2261 O   0  0  0  0  0  0  0  0  0  0  0  0
    0.0092   14.8238    0.9846 O   0  0  0  0  0  0  0  0  0  0  0  0
    2.0292   15.7939    1.9825 O   0  0  0  0  0  0  0  0  0  0  0  0
    2.4764   16.5247    0.8561 C   0  0  0  0  0  0  0  0  0  0  0  0
    3.9473   16.2449    0.5174 C   0  0  1  0  0  0  0  0  0  0  0  0
    4.6619   17.4578    0.3967 O   0  0  0  0  0  0  0  0  0  0  0  0
    4.7223   15.5465    1.6485 C   0  0  1  0  0  0  0  0  0  0  0  0
    4.4803   14.1562    1.7851 O   0  0  0  0  0  0  0  0  0  0  0  0
    6.1819   15.8632    1.3237 C   0  0  1  0  0  0  0  0  0  0  0  0
    6.7772   14.8669    0.5112 O   0  0  0  0  0  0  0  0  0  0  0  0
    6.0391   17.1438    0.5032 C   0  0  2  0  0  0  0  0  0  0  0  0
    6.8178   18.3010    0.9933 N   0  0  0  0  0  0  0  0  0  0  0  0
    8.0884   18.7163    0.6844 C   0  0  0  0  0  0  0  0  0  0  0  0
    8.5006   19.7390    1.3878 N   0  0  0  0  0  0  0  0  0  0  0  0
    7.4189   20.0447    2.2083 C   0  0  0  0  0  0  0  0  0  0  0  0
    7.2704   21.0381    3.2286 C   0  0  0  0  0  0  0  0  0  0  0  0
    8.1163   21.8335    3.6325 O   0  0  0  0  0  0  0  0  0  0  0  0
    5.9925   21.0381    3.8039 N   0  0  0  0  0  0  0  0  0  0  0  0
    4.9681   20.1928    3.4049 C   0  0  0  0  0  0  0  0  0  0  0  0
    3.7618   20.3621    3.9578 N   0  0  0  0  0  0  0  0  0  0  0  0
    5.1267   19.2307    2.4813 N   0  0  0  0  0  0  0  0  0  0  0  0
    6.3694   19.2025    1.9270 C   0  0  0  0  0  0  0  0  0  0  0  0
  1  2  2  0  0  0  0
  1  4  1  0  0  0  0
  1  3  1  0  0  0  0
  5  1  1  0  0  0  0
  6  7  2  6  0  0  0
  6  9  1  0  0  0  0
  6  5  1  0  0  0  0
  6  8  1  0  0  0  0
 10 11  2  6  0  0  0
 10 12  1  0  0  0  0
 10 13  1  0  0  0  0
 10  9  1  0  0  0  0
 13 14  1  0  0  0  0
 15 14  1  1  0  0  0
 15 16  1  0  0  0  0
 17 19  1  0  0  0  0
 17 15  1  0  0  0  0
 17 18  1  6  0  0  0
 19 21  1  0  0  0  0
 19 20  1  6  0  0  0
 21 16  1  0  0  0  0
 21 22  1  1  0  0  0
 22 32  1  0  0  0  0
 23 22  1  0  0  0  0
 23 24  2  0  0  0  0
 24 25  1  0  0  0  0
 25 26  1  0  0  0  0
 26 27  2  0  0  0  0
 26 28  1  0  0  0  0
 29 28  1  0  0  0  0
 29 30  1  0  0  0  0
 31 29  2  0  0  0  0
 32 25  2  0  0  0  0
 32 31  1  0  0  0  0
M  END
>  <CHROM.1>
87.60882389,-169.46560330,-56.11597475,-173.90974396,-65.99372351,-100.60305073
-128.39027900,-179.04057813,-57.08392276,-145.02591551,3.02637586,15.67825409
2.70655250,2.75262120,-0.71891672,-2.42565748

>  <Name>
lig.pdb

>  <RI>
1.82117e+07

>  <Rbt.Current_Directory>
/home/itssahil/PROJECTS/Mol_Feturizer/New_Systems/rnas/5lwj

>  <Rbt.Executable>
rbdock ($Id: //depot/dev/client3/rdock/2013.1/src/exe/rbdock.cxx#4 $)

>  <Rbt.Library>
libRbt.so (2013.1, Build901 2013/11/27)

>  <Rbt.Parameter_File>
/export/apps/rDock/src/rDock_2013.1_src/data/scripts/dock_solv.prm

>  <Rbt.Receptor>
prm/pocket_docking_5.prm

>  <SCORE>
-35.8599

>  <SCORE.INTER>
-35.7329

>  <SCORE.INTER.CONST>
1

>  <SCORE.INTER.POLAR>
-4.04637

>  <SCORE.INTER.ROT>
8

>  <SCORE.INTER.SOLV>
21.3517

>  <SCORE.INTER.VDW>
-26.3846

>  <SCORE.INTER.norm>
-1.11665

>  <SCORE.INTRA>
-0.127016

>  <SCORE.INTRA.DIHEDRAL>
3.93263

>  <SCORE.INTRA.DIHEDRAL.0>
10.9248

>  <SCORE.INTRA.POLAR>
0

>  <SCORE.INTRA.POLAR.0>
0

>  <SCORE.INTRA.REPUL>
0

>  <SCORE.INTRA.REPUL.0>
0

>  <SCORE.INTRA.SOLV>
1.69773

>  <SCORE.INTRA.SOLV.lig_0>
-51.4104

>  <SCORE.INTRA.VDW>
-2.94219

>  <SCORE.INTRA.VDW.0>
0.110327

>  <SCORE.INTRA.norm>
-0.00396926

>  <SCORE.RESTR>
0

>  <SCORE.RESTR.CAVITY>
0

>  <SCORE.RESTR.norm>
0

>  <SCORE.SYSTEM>
0

>  <SCORE.SYSTEM.CONST>
0

>  <SCORE.SYSTEM.DIHEDRAL>
0

>  <SCORE.SYSTEM.SOLV>
0

>  <SCORE.SYSTEM.norm>
0

>  <SCORE.heavy>
32

>  <SCORE.norm>
-1.12062

>  <RMSD>
9.340

$$$$
lig.pdb
 OpenBabel11021811523D
libRbt.so/2013.1/901 2013/11/27
 32 34  0  0  0  0  0  0  0  0999 V2000
   -1.8450   12.8934    4.3247 P   0  0  0  0  0  0  0  0  0  0  0  0
   -2.5471   13.1662    5.6326 O   0  0  0  0  0  0  0  0  0  0  0  0
   -1.3755   11.3475    4.4734 O   0  0  0  0  0  0  0  0  0  0  0  0
   -2.6630   12.8855    3.0574 O   0  0  0  0  0  0  0  0  0  0  0  0
   -0.8669   13.9520    4.1652 O   0  0  0  0  0  0  0  0  0  0  0  0
    0.1810   13.5174    3.2119 P   0  0  1  0  0  0  0  0  0  0  0  0
    0.8860   12.3540    3.7996 O   0  0  0  0  0  0  0  0  0  0  0  0
   -0.4374   13.1099    1.9288 O   0  0  0  0  0  0  0  0  0  0  0  0
    1.1311   14.6341    2.9797 O   0  0  0  0  0  0  0  0  0  0  0  0
    2.5548   14.4109    2.6331 P   0  0  1  0  0  0  0  0  0  0  0  0
    3.4240   14.0638    3.7758 O   0  0  0  0  0  0  0  0  0  0  0  0
    2.7851   13.6096    1.4104 O   0  0  0  0  0  0  0  0  0  0  0  0
    3.0660   15.8976    2.2494 O   0  0  0  0  0  0  0  0  0  0  0  0
    2.7032   16.5351    1.0392 C   0  0  0  0  0  0  0  0  0  0  0  0
    3.6398   17.6973    0.6808 C   0  0  1  0  0  0  0  0  0  0  0  0
    3.4803   18.7574    1.6012 O   0  0  0  0  0  0  0  0  0  0  0  0
    5.1327   17.3667    0.8534 C   0  0  1  0  0  0  0  0  0  0  0  0
    5.7051   16.5767   -0.1754 O   0  0  0  0  0  0  0  0  0  0  0  0
    5.7869   18.7427    0.9752 C   0  0  1  0  0  0  0  0  0  0  0  0
    6.2038   19.2495   -0.2804 O   0  0  0  0  0  0  0  0  0  0  0  0
    4.6208   19.5890    1.4825 C   0  0  2  0  0  0  0  0  0  0  0  0
    4.8753   20.3340    2.7340 N   0  0  0  0  0  0  0  0  0  0  0  0
    4.0280   21.0738    3.5196 C   0  0  0  0  0  0  0  0  0  0  0  0
    4.6196   21.6836    4.5140 N   0  0  0  0  0  0  0  0  0  0  0  0
    5.9536   21.3044    4.3993 C   0  0  0  0  0  0  0  0  0  0  0  0
    7.1014   21.6773    5.1698 C   0  0  0  0  0  0  0  0  0  0  0  0
    7.1525   22.4718    6.1065 O   0  0  0  0  0  0  0  0  0  0  0  0
    8.2728   21.0376    4.7425 N   0  0  0  0  0  0  0  0  0  0  0  0
    8.3130   20.1143    3.7086 C   0  0  0  0  0  0  0  0  0  0  0  0
    9.4724   19.4930    3.4650 N   0  0  0  0  0  0  0  0  0  0  0  0
    7.2433   19.8044    2.9579 N   0  0  0  0  0  0  0  0  0  0  0  0
    6.1004   20.4335    3.3459 C   0  0  0  0  0  0  0  0  0  0  0  0
  1  2  2  0  0  0  0
  1  4  1  0  0  0  0
  1  3  1  0  0  0  0
  5  1  1  0  0  0  0
  6  7  2  1  0  0  0
  6  9  1  0  0  0  0
  6  5  1  0  0  0  0
  6  8  1  0  0  0  0
 10 11  2  1  0  0  0
 10 12  1  0  0  0  0
 10 13  1  0  0  0  0
 10  9  1  0  0  0  0
 13 14  1  0  0  0  0
 15 14  1  1  0  0  0
 15 16  1  0  0  0  0
 17 19  1  0  0  0  0
 17 15  1  0  0  0  0
 17 18  1  6  0  0  0
 19 21  1  0  0  0  0
 19 20  1  6  0  0  0
 21 16  1  0  0  0  0
 21 22  1  1  0  0  0
 22 32  1  0  0  0  0
 23 22  1  0  0  0  0
 23 24  2  0  0  0  0
 24 25  1  0  0  0  0
 25 26  1  0  0  0  0
 26 27  2  0  0  0  0
 26 28  1  0  0  0  0
 29 28  1  0  0  0  0
 29 30  1  0  0  0  0
 31 29  2  0  0  0  0
 32 25  2  0  0  0  0
 32 31  1  0  0  0  0
M  END
>  <CHROM.1>
159.24654694,150.95035975,-63.49303745,-73.62262519,-78.92586739,-161.15320677
-68.05980418,56.75573280,-176.92087608,-48.94800391,3.15346990,16.66925076
2.98068131,2.72875381,-0.68973767,-2.21713229

>  <Name>
lig.pdb

>  <RI>
0

>  <Rbt.Current_Directory>
/home/itssahil/PROJECTS/Mol_Feturizer/New_Systems/rnas/5lwj

>  <Rbt.Executable>
rbdock ($Id: //depot/dev/client3/rdock/2013.1/src/exe/rbdock.cxx#4 $)

>  <Rbt.Library>
libRbt.so (2013.1, Build901 2013/11/27)

>  <Rbt.Parameter_File>
/export/apps/rDock/src/rDock_2013.1_src/data/scripts/dock_solv.prm

>  <Rbt.Receptor>
prm/pocket_docking_6.prm

>  <SCORE>
-34.9808

>  <SCORE.INTER>
-30.9711

>  <SCORE.INTER.CONST>
1

>  <SCORE.INTER.POLAR>
-2.68664

>  <SCORE.INTER.ROT>
8

>  <SCORE.INTER.SOLV>
22.4502

>  <SCORE.INTER.VDW>
-28.1087

>  <SCORE.INTER.norm>
-0.967847

>  <SCORE.INTRA>
-4.00969

>  <SCORE.INTRA.DIHEDRAL>
-4.10207

>  <SCORE.INTRA.DIHEDRAL.0>
10.9248

>  <SCORE.INTRA.POLAR>
0

>  <SCORE.INTRA.POLAR.0>
0

>  <SCORE.INTRA.REPUL>
0

>  <SCORE.INTRA.REPUL.0>
0

>  <SCORE.INTRA.SOLV>
-0.839772

>  <SCORE.INTRA.SOLV.lig_0>
-51.4104

>  <SCORE.INTRA.VDW>
-1.53877

>  <SCORE.INTRA.VDW.0>
0.110327

>  <SCORE.INTRA.norm>
-0.125303

>  <SCORE.RESTR>
0

>  <SCORE.RESTR.CAVITY>
0

>  <SCORE.RESTR.norm>
0

>  <SCORE.SYSTEM>
0

>  <SCORE.SYSTEM.CONST>
0

>  <SCORE.SYSTEM.DIHEDRAL>
0

>  <SCORE.SYSTEM.SOLV>
0

>  <SCORE.SYSTEM.norm>
0

>  <SCORE.heavy>
32

>  <SCORE.norm>
-1.09315

>  <RMSD>
9.341

$$$$
lig.pdb
 OpenBabel11021811523D
libRbt.so/2013.1/901 2013/11/27
 32 34  0  0  0  0  0  0  0  0999 V2000
   -0.8536   11.7652    5.4075 P   0  0  0  0  0  0  0  0  0  0  0  0
    0.1570   10.7690    5.9216 O   0  0  0  0  0  0  0  0  0  0  0  0
   -1.7727   10.8763    4.4088 O   0  0  0  0  0  0  0  0  0  0  0  0
   -1.8547   12.3401    6.3782 O   0  0  0  0  0  0  0  0  0  0  0  0
   -0.0892   12.8903    4.9049 O   0  0  0  0  0  0  0  0  0  0  0  0
   -0.7899   13.4845    3.7424 P   0  0  1  0  0  0  0  0  0  0  0  0
   -0.8263   12.4737    2.6594 O   0  0  0  0  0  0  0  0  0  0  0  0
   -2.1781   13.8431    4.1153 O   0  0  0  0  0  0  0  0  0  0  0  0
   -0.0609   14.6971    3.2933 O   0  0  0  0  0  0  0  0  0  0  0  0
   -0.4100   15.4225    2.0488 P   0  0  1  0  0  0  0  0  0  0  0  0
   -0.4566   14.5831    0.8343 O   0  0  0  0  0  0  0  0  0  0  0  0
   -1.5206   16.3921    2.1778 O   0  0  0  0  0  0  0  0  0  0  0  0
    0.9006   16.3350    1.7879 O   0  0  0  0  0  0  0  0  0  0  0  0
    1.1450   17.5324    2.5016 C   0  0  0  0  0  0  0  0  0  0  0  0
    2.3401   18.3180    1.9441 C   0  0  1  0  0  0  0  0  0  0  0  0
    3.5464   17.6347    2.2168 O   0  0  0  0  0  0  0  0  0  0  0  0
    2.3723   18.3906    0.4074 C   0  0  1  0  0  0  0  0  0  0  0  0
    1.4767   19.3208   -0.1779 O   0  0  0  0  0  0  0  0  0  0  0  0
    3.8360   18.7056    0.0998 C   0  0  1  0  0  0  0  0  0  0  0  0
    4.0768   20.0992    0.0157 O   0  0  0  0  0  0  0  0  0  0  0  0
    4.5316   18.1626    1.3467 C   0  0  2  0  0  0  0  0  0  0  0  0
    5.6083   17.1810    1.0954 N   0  0  0  0  0  0  0  0  0  0  0  0
    5.5722   15.8103    1.0478 C   0  0  0  0  0  0  0  0  0  0  0  0
    6.7451   15.2513    0.8971 N   0  0  0  0  0  0  0  0  0  0  0  0
    7.6251   16.3261    0.8132 C   0  0  0  0  0  0  0  0  0  0  0  0
    9.0507   16.3597    0.6856 C   0  0  0  0  0  0  0  0  0  0  0  0
    9.8262   15.4061    0.6609 O   0  0  0  0  0  0  0  0  0  0  0  0
    9.5572   17.6636    0.6002 N   0  0  0  0  0  0  0  0  0  0  0  0
    8.7627   18.8002    0.6018 C   0  0  0  0  0  0  0  0  0  0  0  0
    9.3567   19.9830    0.4072 N   0  0  0  0  0  0  0  0  0  0  0  0
    7.4307   18.7657    0.7703 N   0  0  0  0  0  0  0  0  0  0  0  0
    6.9240   17.5069    0.8765 C   0  0  0  0  0  0  0  0  0  0  0  0
  1  2  2  0  0  0  0
  1  4  1  0  0  0  0
  1  3  1  0  0  0  0
  5  1  1  0  0  0  0
  6  7  2  6  0  0  0
  6  9  1  0  0  0  0
  6  5  1  0  0  0  0
  6  8  1  0  0  0  0
 10 11  2  6  0  0  0
 10 12  1  0  0  0  0
 10 13  1  0  0  0  0
 10  9  1  0  0  0  0
 13 14  1  0  0  0  0
 15 14  1  6  0  0  0
 15 16  1  0  0  0  0
 17 19  1  0  0  0  0
 17 15  1  0  0  0  0
 17 18  1  1  0  0  0
 19 21  1  0  0  0  0
 19 20  1  1  0  0  0
 21 16  1  0  0  0  0
 21 22  1  6  0  0  0
 22 32  1  0  0  0  0
 23 22  1  0  0  0  0
 23 24  2  0  0  0  0
 24 25  1  0  0  0  0
 25 26  1  0  0  0  0
 26 27  2  0  0  0  0
 26 28  1  0  0  0  0
 29 28  1  0  0  0  0
 29 30  1  0  0  0  0
 31 29  2  0  0  0  0
 32 25  2  0  0  0  0
 32 31  1  0  0  0  0
M  END
>  <CHROM.1>
146.59022994,172.13874649,-63.98867674,-78.21536336,-53.34444940,-171.94975015
-69.88001953,-60.15105423,-65.50336930,31.19121325,2.58067131,15.72537543
2.23683778,-2.50934934,0.08510928,-0.50973579

>  <Name>
lig.pdb

>  <RI>
1.82117e+07

>  <Rbt.Current_Directory>
/home/itssahil/PROJECTS/Mol_Feturizer/New_Systems/rnas/5lwj

>  <Rbt.Executable>
rbdock ($Id: //depot/dev/client3/rdock/2013.1/src/exe/rbdock.cxx#4 $)

>  <Rbt.Library>
libRbt.so (2013.1, Build901 2013/11/27)

>  <Rbt.Parameter_File>
/export/apps/rDock/src/rDock_2013.1_src/data/scripts/dock_solv.prm

>  <Rbt.Receptor>
prm/pocket_docking_5.prm

>  <SCORE>
-26.1869

>  <SCORE.INTER>
-20.0962

>  <SCORE.INTER.CONST>
1

>  <SCORE.INTER.POLAR>
-1.77868

>  <SCORE.INTER.ROT>
8

>  <SCORE.INTER.SOLV>
15.7832

>  <SCORE.INTER.VDW>
-21.6629

>  <SCORE.INTER.norm>
-0.628007

>  <SCORE.INTRA>
-6.10062

>  <SCORE.INTRA.DIHEDRAL>
-5.25515

>  <SCORE.INTRA.DIHEDRAL.0>
10.9248

>  <SCORE.INTRA.POLAR>
0

>  <SCORE.INTRA.POLAR.0>
0

>  <SCORE.INTRA.REPUL>
0

>  <SCORE.INTRA.REPUL.0>
0

>  <SCORE.INTRA.SOLV>
-1.26652

>  <SCORE.INTRA.SOLV.lig_0>
-51.4104

>  <SCORE.INTRA.VDW>
-2.83978

>  <SCORE.INTRA.VDW.0>
0.110327

>  <SCORE.INTRA.norm>
-0.190644

>  <SCORE.RESTR>
0.00988847

>  <SCORE.RESTR.CAVITY>
0.00988847

>  <SCORE.RESTR.norm>
0.000309015

>  <SCORE.SYSTEM>
0

>  <SCORE.SYSTEM.CONST>
0

>  <SCORE.SYSTEM.DIHEDRAL>
0

>  <SCORE.SYSTEM.SOLV>
0

>  <SCORE.SYSTEM.norm>
0

>  <SCORE.heavy>
32

>  <SCORE.norm>
-0.818342

>  <RMSD>
9.346

$$$$
lig.pdb
 OpenBabel11021811523D
libRbt.so/2013.1/901 2013/11/27
 32 34  0  0  0  0  0  0  0  0999 V2000
    0.6799   11.6507    5.1702 P   0  0  0  0  0  0  0  0  0  0  0  0
    1.0937   11.4813    3.7287 O   0  0  0  0  0  0  0  0  0  0  0  0
    0.1465   10.1733    5.5770 O   0  0  0  0  0  0  0  0  0  0  0  0
    1.7492   11.9267    6.1976 O   0  0  0  0  0  0  0  0  0  0  0  0
   -0.2117   12.7938    5.2009 O   0  0  0  0  0  0  0  0  0  0  0  0
   -1.6029   12.3424    4.9637 P   0  0  1  0  0  0  0  0  0  0  0  0
   -1.6299   11.5774    3.6948 O   0  0  0  0  0  0  0  0  0  0  0  0
   -2.0461   11.4609    6.0688 O   0  0  0  0  0  0  0  0  0  0  0  0
   -2.4969   13.5240    4.8738 O   0  0  0  0  0  0  0  0  0  0  0  0
   -2.2780   14.6173    3.8972 P   0  0  1  0  0  0  0  0  0  0  0  0
   -1.0919   15.4569    4.1620 O   0  0  0  0  0  0  0  0  0  0  0  0
   -2.4689   14.2398    2.4790 O   0  0  0  0  0  0  0  0  0  0  0  0
   -3.4976   15.6315    4.2175 O   0  0  0  0  0  0  0  0  0  0  0  0
   -4.0331   16.5053    3.2416 C   0  0  0  0  0  0  0  0  0  0  0  0
   -3.0618   17.6316    2.8615 C   0  0  1  0  0  0  0  0  0  0  0  0
   -1.9563   17.1078    2.1546 O   0  0  0  0  0  0  0  0  0  0  0  0
   -3.6352   18.6255    1.8363 C   0  0  1  0  0  0  0  0  0  0  0  0
   -4.5493   19.5771    2.3551 O   0  0  0  0  0  0  0  0  0  0  0  0
   -2.3872   19.2715    1.2353 C   0  0  1  0  0  0  0  0  0  0  0  0
   -2.0064   20.4465    1.9291 O   0  0  0  0  0  0  0  0  0  0  0  0
   -1.3361   18.1919    1.4862 C   0  0  2  0  0  0  0  0  0  0  0  0
   -0.5989   17.7342    0.2891 N   0  0  0  0  0  0  0  0  0  0  0  0
   -0.7486   16.6026   -0.4720 C   0  0  0  0  0  0  0  0  0  0  0  0
    0.1511   16.4697   -1.4120 N   0  0  0  0  0  0  0  0  0  0  0  0
    0.9442   17.6063   -1.2859 C   0  0  0  0  0  0  0  0  0  0  0  0
    2.1149   18.0140   -2.0022 C   0  0  0  0  0  0  0  0  0  0  0  0
    2.7067   17.3997   -2.8875 O   0  0  0  0  0  0  0  0  0  0  0  0
    2.6001   19.2604   -1.5841 N   0  0  0  0  0  0  0  0  0  0  0  0
    1.9930   20.0352   -0.6073 C   0  0  0  0  0  0  0  0  0  0  0  0
    2.4912   21.2542   -0.3717 N   0  0  0  0  0  0  0  0  0  0  0  0
    0.9236   19.6270    0.0952 N   0  0  0  0  0  0  0  0  0  0  0  0
    0.4516   18.4079   -0.2836 C   0  0  0  0  0  0  0  0  0  0  0  0
  1  2  2  0  0  0  0
  1  4  1  0  0  0  0
  1  3  1  0  0  0  0
  5  1  1  0  0  0  0
  6  7  2  6  0  0  0
  6  9  1  0  0  0  0
  6  5  1  0  0  0  0
  6  8  1  0  0  0  0
 10 11  2  1  0  0  0
 10 12  1  0  0  0  0
 10 13  1  0  0  0  0
 10  9  1  0  0  0  0
 13 14  1  0  0  0  0
 15 14  1  6  0  0  0
 15 16  1  0  0  0  0
 17 19  1  0  0  0  0
 17 15  1  0  0  0  0
 17 18  1  1  0  0  0
 19 21  1  0  0  0  0
 19 20  1  1  0  0  0
 21 16  1  0  0  0  0
 21 22  1  6  0  0  0
 22 32  1  0  0  0  0
 23 22  1  0  0  0  0
 23 24  2  0  0  0  0
 24 25  1  0  0  0  0
 25 26  1  0  0  0  0
 26 27  2  0  0  0  0
 26 28  1  0  0  0  0
 29 28  1  0  0  0  0
 29 30  1  0  0  0  0
 31 29  2  0  0  0  0
 32 25  2  0  0  0  0
 32 31  1  0  0  0  0
M  END
>  <CHROM.1>
88.59256395,56.66378454,-54.68327425,-153.29605834,-69.51021038,-69.58509534
68.78260245,179.29462265,-61.82619516,22.60910733,-0.80119441,15.72580252
2.45673344,-1.72240841,0.48779751,-0.59170130

>  <Name>
lig.pdb

>  <RI>
2.0892e+07

>  <Rbt.Current_Directory>
/home/itssahil/PROJECTS/Mol_Feturizer/New_Systems/rnas/5lwj

>  <Rbt.Executable>
rbdock ($Id: //depot/dev/client3/rdock/2013.1/src/exe/rbdock.cxx#4 $)

>  <Rbt.Library>
libRbt.so (2013.1, Build901 2013/11/27)

>  <Rbt.Parameter_File>
/export/apps/rDock/src/rDock_2013.1_src/data/scripts/dock_solv.prm

>  <Rbt.Receptor>
prm/pocket_docking_8.prm

>  <SCORE>
-28.2643

>  <SCORE.INTER>
-22.6998

>  <SCORE.INTER.CONST>
1

>  <SCORE.INTER.POLAR>
-2.89477

>  <SCORE.INTER.ROT>
8

>  <SCORE.INTER.SOLV>
15.3605

>  <SCORE.INTER.VDW>
-19.5375

>  <SCORE.INTER.norm>
-0.709368

>  <SCORE.INTRA>
-5.58255

>  <SCORE.INTRA.DIHEDRAL>
-5.02355

>  <SCORE.INTRA.DIHEDRAL.0>
10.9248

>  <SCORE.INTRA.POLAR>
0

>  <SCORE.INTRA.POLAR.0>
0

>  <SCORE.INTRA.REPUL>
0

>  <SCORE.INTRA.REPUL.0>
0

>  <SCORE.INTRA.SOLV>
1.23737

>  <SCORE.INTRA.SOLV.lig_0>
-51.4104

>  <SCORE.INTRA.VDW>
-3.68946

>  <SCORE.INTRA.VDW.0>
0.110327

>  <SCORE.INTRA.norm>
-0.174455

>  <SCORE.RESTR>
0.0180706

>  <SCORE.RESTR.CAVITY>
0.0180706

>  <SCORE.RESTR.norm>
0.000564706

>  <SCORE.SYSTEM>
0

>  <SCORE.SYSTEM.CONST>
0

>  <SCORE.SYSTEM.DIHEDRAL>
0

>  <SCORE.SYSTEM.SOLV>
0

>  <SCORE.SYSTEM.norm>
0

>  <SCORE.heavy>
32

>  <SCORE.norm>
-0.883258

>  <RMSD>
9.350

$$$$
lig.pdb
 OpenBabel11021811523D
libRbt.so/2013.1/901 2013/11/27
 32 34  0  0  0  0  0  0  0  0999 V2000
    0.5759   11.4600    5.9489 P   0  0  0  0  0  0  0  0  0  0  0  0
    0.3450    9.9707    5.8673 O   0  0  0  0  0  0  0  0  0  0  0  0
   -0.8813   12.0368    6.3689 O   0  0  0  0  0  0  0  0  0  0  0  0
    1.4821   11.9890    7.0325 O   0  0  0  0  0  0  0  0  0  0  0  0
    1.1884   11.8414    4.6910 O   0  0  0  0  0  0  0  0  0  0  0  0
    0.1532   12.3881    3.7827 P   0  0  1  0  0  0  0  0  0  0  0  0
    0.6752   12.3258    2.3972 O   0  0  0  0  0  0  0  0  0  0  0  0
   -1.0812   11.5737    3.8709 O   0  0  0  0  0  0  0  0  0  0  0  0
   -0.1432   13.7927    4.1605 O   0  0  0  0  0  0  0  0  0  0  0  0
   -1.2053   14.5889    3.5009 P   0  0  1  0  0  0  0  0  0  0  0  0
   -1.4040   14.2908    2.0680 O   0  0  0  0  0  0  0  0  0  0  0  0
   -2.4522   14.7424    4.2831 O   0  0  0  0  0  0  0  0  0  0  0  0
   -0.5641   16.0741    3.4591 O   0  0  0  0  0  0  0  0  0  0  0  0
    0.4678   16.4292    2.5581 C   0  0  0  0  0  0  0  0  0  0  0  0
    0.9041   17.8932    2.7081 C   0  0  1  0  0  0  0  0  0  0  0  0
    2.3117   17.9949    2.6395 O   0  0  0  0  0  0  0  0  0  0  0  0
    0.4767   18.7913    1.5340 C   0  0  1  0  0  0  0  0  0  0  0  0
   -0.8845   19.1879    1.5340 O   0  0  0  0  0  0  0  0  0  0  0  0
    1.4374   19.9763    1.6284 C   0  0  1  0  0  0  0  0  0  0  0  0
    0.9136   21.0276    2.4205 O   0  0  0  0  0  0  0  0  0  0  0  0
    2.6199   19.3500    2.3654 C   0  0  2  0  0  0  0  0  0  0  0  0
    3.9282   19.4773    1.6886 N   0  0  0  0  0  0  0  0  0  0  0  0
    4.2543   19.4090    0.3577 C   0  0  0  0  0  0  0  0  0  0  0  0
    5.5392   19.4687    0.1201 N   0  0  0  0  0  0  0  0  0  0  0  0
    6.1111   19.6121    1.3807 C   0  0  0  0  0  0  0  0  0  0  0  0
    7.4834   19.6903    1.7816 C   0  0  0  0  0  0  0  0  0  0  0  0
    8.4811   19.6052    1.0684 O   0  0  0  0  0  0  0  0  0  0  0  0
    7.6356   19.8683    3.1633 N   0  0  0  0  0  0  0  0  0  0  0  0
    6.5730   19.9926    4.0456 C   0  0  0  0  0  0  0  0  0  0  0  0
    6.8475   20.2658    5.3261 N   0  0  0  0  0  0  0  0  0  0  0  0
    5.2889   19.8702    3.6717 N   0  0  0  0  0  0  0  0  0  0  0  0
    5.1234   19.6754    2.3348 C   0  0  0  0  0  0  0  0  0  0  0  0
  1  2  2  0  0  0  0
  1  4  1  0  0  0  0
  1  3  1  0  0  0  0
  5  1  1  0  0  0  0
  6  7  2  6  0  0  0
  6  9  1  0  0  0  0
  6  5  1  0  0  0  0
  6  8  1  0  0  0  0
 10 11  2  6  0  0  0
 10 12  1  0  0  0  0
 10 13  1  0  0  0  0
 10  9  1  0  0  0  0
 13 14  1  0  0  0  0
 15 14  1  6  0  0  0
 15 16  1  0  0  0  0
 17 19  1  0  0  0  0
 17 15  1  0  0  0  0
 17 18  1  1  0  0  0
 19 21  1  0  0  0  0
 19 20  1  1  0  0  0
 21 16  1  0  0  0  0
 21 22  1  6  0  0  0
 22 32  1  0  0  0  0
 23 22  1  0  0  0  0
 23 24  2  0  0  0  0
 24 25  1  0  0  0  0
 25 26  1  0  0  0  0
 26 27  2  0  0  0  0
 26 28  1  0  0  0  0
 29 28  1  0  0  0  0
 29 30  1  0  0  0  0
 31 29  2  0  0  0  0
 32 25  2  0  0  0  0
 32 31  1  0  0  0  0
M  END
>  <CHROM.1>
98.35464518,-175.64899516,-160.57691961,74.32484862,-33.65125460,179.80143385
137.85961132,-175.88788168,-58.60335120,86.39763183,1.88916610,16.18663779
3.30476681,-2.20897675,-0.21440337,-0.47724961

>  <Name>
lig.pdb

>  <RI>
1.82117e+07

>  <Rbt.Current_Directory>
/home/itssahil/PROJECTS/Mol_Feturizer/New_Systems/rnas/5lwj

>  <Rbt.Executable>
rbdock ($Id: //depot/dev/client3/rdock/2013.1/src/exe/rbdock.cxx#4 $)

>  <Rbt.Library>
libRbt.so (2013.1, Build901 2013/11/27)

>  <Rbt.Parameter_File>
/export/apps/rDock/src/rDock_2013.1_src/data/scripts/dock_solv.prm

>  <Rbt.Receptor>
prm/pocket_docking_5.prm

>  <SCORE>
-43.0825

>  <SCORE.INTER>
-40.7638

>  <SCORE.INTER.CONST>
1

>  <SCORE.INTER.POLAR>
-4.5928

>  <SCORE.INTER.ROT>
8

>  <SCORE.INTER.SOLV>
23.6143

>  <SCORE.INTER.VDW>
-28.6713

>  <SCORE.INTER.norm>
-1.27387

>  <SCORE.INTRA>
-2.50646

>  <SCORE.INTRA.DIHEDRAL>
0.323066

>  <SCORE.INTRA.DIHEDRAL.0>
10.9248

>  <SCORE.INTRA.POLAR>
0

>  <SCORE.INTRA.POLAR.0>
0

>  <SCORE.INTRA.REPUL>
0

>  <SCORE.INTRA.REPUL.0>
0

>  <SCORE.INTRA.SOLV>
-0.562991

>  <SCORE.INTRA.SOLV.lig_0>
-51.4104

>  <SCORE.INTRA.VDW>
-2.38649

>  <SCORE.INTRA.VDW.0>
0.110327

>  <SCORE.INTRA.norm>
-0.0783268

>  <SCORE.RESTR>
0.187751

>  <SCORE.RESTR.CAVITY>
0.187751

>  <SCORE.RESTR.norm>
0.00586723

>  <SCORE.SYSTEM>
0

>  <SCORE.SYSTEM.CONST>
0

>  <SCORE.SYSTEM.DIHEDRAL>
0

>  <SCORE.SYSTEM.SOLV>
0

>  <SCORE.SYSTEM.norm>
0

>  <SCORE.heavy>
32

>  <SCORE.norm>
-1.34633

>  <RMSD>
9.356

$$$$
lig.pdb
 OpenBabel11021811523D
libRbt.so/2013.1/901 2013/11/27
 32 34  0  0  0  0  0  0  0  0999 V2000
   -0.8607   12.0388    5.1621 P   0  0  0  0  0  0  0  0  0  0  0  0
   -1.6232   10.9105    4.5113 O   0  0  0  0  0  0  0  0  0  0  0  0
   -2.0379   13.0030    5.7251 O   0  0  0  0  0  0  0  0  0  0  0  0
   -0.0426   11.7378    6.3931 O   0  0  0  0  0  0  0  0  0  0  0  0
    0.0757   12.5190    4.1646 O   0  0  0  0  0  0  0  0  0  0  0  0
   -0.5568   13.5995    3.3721 P   0  0  1  0  0  0  0  0  0  0  0  0
   -1.7335   13.0311    2.6732 O   0  0  0  0  0  0  0  0  0  0  0  0
   -1.0075   14.6895    4.2686 O   0  0  0  0  0  0  0  0  0  0  0  0
    0.4219   14.1290    2.3896 O   0  0  0  0  0  0  0  0  0  0  0  0
    0.4983   15.5662    2.0353 P   0  0  1  0  0  0  0  0  0  0  0  0
   -0.3349   15.9657    0.8829 O   0  0  0  0  0  0  0  0  0  0  0  0
    0.4600   16.4989    3.1836 O   0  0  0  0  0  0  0  0  0  0  0  0
    1.9976   15.7086    1.4433 O   0  0  0  0  0  0  0  0  0  0  0  0
    2.3055   15.4450    0.0874 C   0  0  0  0  0  0  0  0  0  0  0  0
    3.7605   15.7853   -0.2641 C   0  0  1  0  0  0  0  0  0  0  0  0
    4.0540   17.1185    0.1003 O   0  0  0  0  0  0  0  0  0  0  0  0
    4.7972   15.0080    0.5658 C   0  0  1  0  0  0  0  0  0  0  0  0
    5.0078   13.6622    0.1725 O   0  0  0  0  0  0  0  0  0  0  0  0
    6.0583   15.8631    0.4454 C   0  0  1  0  0  0  0  0  0  0  0  0
    6.8686   15.4699   -0.6482 O   0  0  0  0  0  0  0  0  0  0  0  0
    5.4647   17.2384    0.1458 C   0  0  2  0  0  0  0  0  0  0  0  0
    5.8827   18.3223    1.0603 N   0  0  0  0  0  0  0  0  0  0  0  0
    5.1367   19.2420    1.7532 C   0  0  0  0  0  0  0  0  0  0  0  0
    5.8493   20.1285    2.3990 N   0  0  0  0  0  0  0  0  0  0  0  0
    7.1659   19.7601    2.1392 C   0  0  0  0  0  0  0  0  0  0  0  0
    8.4018   20.3661    2.5336 C   0  0  0  0  0  0  0  0  0  0  0  0
    8.5598   21.4010    3.1780 O   0  0  0  0  0  0  0  0  0  0  0  0
    9.5225   19.6538    2.0856 N   0  0  0  0  0  0  0  0  0  0  0  0
    9.4463   18.4692    1.3687 C   0  0  0  0  0  0  0  0  0  0  0  0
   10.5870   17.8281    1.0905 N   0  0  0  0  0  0  0  0  0  0  0  0
    8.2858   17.9308    0.9598 N   0  0  0  0  0  0  0  0  0  0  0  0
    7.1868   18.6221    1.3683 C   0  0  0  0  0  0  0  0  0  0  0  0
  1  2  2  0  0  0  0
  1  4  1  0  0  0  0
  1  3  1  0  0  0  0
  5  1  1  0  0  0  0
  6  7  2  6  0  0  0
  6  9  1  0  0  0  0
  6  5  1  0  0  0  0
  6  8  1  0  0  0  0
 10 11  2  6  0  0  0
 10 12  1  0  0  0  0
 10 13  1  0  0  0  0
 10  9  1  0  0  0  0
 13 14  1  0  0  0  0
 15 14  1  1  0  0  0
 15 16  1  0  0  0  0
 17 19  1  0  0  0  0
 17 15  1  0  0  0  0
 17 18  1  6  0  0  0
 19 21  1  0  0  0  0
 19 20  1  6  0  0  0
 21 16  1  0  0  0  0
 21 22  1  1  0  0  0
 22 32  1  0  0  0  0
 23 22  1  0  0  0  0
 23 24  2  0  0  0  0
 24 25  1  0  0  0  0
 25 26  1  0  0  0  0
 26 27  2  0  0  0  0
 26 28  1  0  0  0  0
 29 28  1  0  0  0  0
 29 30  1  0  0  0  0
 31 29  2  0  0  0  0
 32 25  2  0  0  0  0
 32 31  1  0  0  0  0
M  END
>  <CHROM.1>
90.39732389,-142.89018057,-62.08746816,85.92637100,-91.13415251,174.21742511
-53.82892746,52.67730212,-59.18098765,-5.33077345,3.19124465,15.78515888
2.26610837,2.99912629,-0.60894698,-2.25797642

>  <Name>
lig.pdb

>  <RI>
0

>  <Rbt.Current_Directory>
/home/itssahil/PROJECTS/Mol_Feturizer/New_Systems/rnas/5lwj

>  <Rbt.Executable>
rbdock ($Id: //depot/dev/client3/rdock/2013.1/src/exe/rbdock.cxx#4 $)

>  <Rbt.Library>
libRbt.so (2013.1, Build901 2013/11/27)

>  <Rbt.Parameter_File>
/export/apps/rDock/src/rDock_2013.1_src/data/scripts/dock_solv.prm

>  <Rbt.Receptor>
prm/pocket_docking_4.prm

>  <SCORE>
-21.1262

>  <SCORE.INTER>
-18.1254

>  <SCORE.INTER.CONST>
1

>  <SCORE.INTER.POLAR>
-1.48357

>  <SCORE.INTER.ROT>
8

>  <SCORE.INTER.SOLV>
15.1453

>  <SCORE.INTER.VDW>
-21.1201

>  <SCORE.INTER.norm>
-0.566418

>  <SCORE.INTRA>
-3.00086

>  <SCORE.INTRA.DIHEDRAL>
-2.71896

>  <SCORE.INTRA.DIHEDRAL.0>
10.9248

>  <SCORE.INTRA.POLAR>
0

>  <SCORE.INTRA.POLAR.0>
0

>  <SCORE.INTRA.REPUL>
0

>  <SCORE.INTRA.REPUL.0>
0

>  <SCORE.INTRA.SOLV>
-0.720826

>  <SCORE.INTRA.SOLV.lig_0>
-51.4104

>  <SCORE.INTRA.VDW>
-1.28097

>  <SCORE.INTRA.VDW.0>
0.110327

>  <SCORE.INTRA.norm>
-0.0937769

>  <SCORE.RESTR>
0

>  <SCORE.RESTR.CAVITY>
0

>  <SCORE.RESTR.norm>
0

>  <SCORE.SYSTEM>
0

>  <SCORE.SYSTEM.CONST>
0

>  <SCORE.SYSTEM.DIHEDRAL>
0

>  <SCORE.SYSTEM.SOLV>
0

>  <SCORE.SYSTEM.norm>
0

>  <SCORE.heavy>
32

>  <SCORE.norm>
-0.660194

>  <RMSD>
9.358

$$$$
lig.pdb
 OpenBabel11021811523D
libRbt.so/2013.1/901 2013/11/27
 32 34  0  0  0  0  0  0  0  0999 V2000
   -3.8299   14.3511    3.3040 P   0  0  0  0  0  0  0  0  0  0  0  0
   -3.9468   13.7605    1.9200 O   0  0  0  0  0  0  0  0  0  0  0  0
   -2.4043   15.1243    3.2559 O   0  0  0  0  0  0  0  0  0  0  0  0
   -4.7975   15.4356    3.7072 O   0  0  0  0  0  0  0  0  0  0  0  0
   -4.0465   13.2550    4.2284 O   0  0  0  0  0  0  0  0  0  0  0  0
   -3.1993   13.4459    5.4290 P   0  0  1  0  0  0  0  0  0  0  0  0
   -3.4410   14.8111    5.9522 O   0  0  0  0  0  0  0  0  0  0  0  0
   -3.5646   12.4577    6.4705 O   0  0  0  0  0  0  0  0  0  0  0  0
   -1.7717   13.2801    5.0573 O   0  0  0  0  0  0  0  0  0  0  0  0
   -1.0603   11.9858    5.1820 P   0  0  1  0  0  0  0  0  0  0  0  0
   -0.6510   11.6332    6.5567 O   0  0  0  0  0  0  0  0  0  0  0  0
   -1.6425   10.8716    4.4012 O   0  0  0  0  0  0  0  0  0  0  0  0
    0.3590   12.2883    4.4659 O   0  0  0  0  0  0  0  0  0  0  0  0
    0.4654   12.5723    3.0836 C   0  0  0  0  0  0  0  0  0  0  0  0
    0.8435   14.0345    2.8091 C   0  0  1  0  0  0  0  0  0  0  0  0
    2.2476   14.1907    2.8329 O   0  0  0  0  0  0  0  0  0  0  0  0
    0.5093   14.5043    1.3824 C   0  0  1  0  0  0  0  0  0  0  0  0
   -0.8558   14.8032    1.1431 O   0  0  0  0  0  0  0  0  0  0  0  0
    1.4224   15.7143    1.1866 C   0  0  1  0  0  0  0  0  0  0  0  0
    0.7934   16.9257    1.5660 O   0  0  0  0  0  0  0  0  0  0  0  0
    2.5432   15.4123    2.1796 C   0  0  2  0  0  0  0  0  0  0  0  0
    3.9080   15.4011    1.6112 N   0  0  0  0  0  0  0  0  0  0  0  0
    4.6413   14.3744    1.0723 C   0  0  0  0  0  0  0  0  0  0  0  0
    5.8655   14.7049    0.7517 N   0  0  0  0  0  0  0  0  0  0  0  0
    5.9486   16.0555    1.0767 C   0  0  0  0  0  0  0  0  0  0  0  0
    7.0464   16.9711    0.9957 C   0  0  0  0  0  0  0  0  0  0  0  0
    8.1997   16.7329    0.6433 O   0  0  0  0  0  0  0  0  0  0  0  0
    6.7007   18.2692    1.3950 N   0  0  0  0  0  0  0  0  0  0  0  0
    5.4244   18.6390    1.7916 C   0  0  0  0  0  0  0  0  0  0  0  0
    5.1951   19.9320    2.0470 N   0  0  0  0  0  0  0  0  0  0  0  0
    4.4104   17.7666    1.9120 N   0  0  0  0  0  0  0  0  0  0  0  0
    4.7346   16.4957    1.5484 C   0  0  0  0  0  0  0  0  0  0  0  0
  1  2  2  0  0  0  0
  1  4  1  0  0  0  0
  1  3  1  0  0  0  0
  5  1  1  0  0  0  0
  6  7  2  1  0  0  0
  6  9  1  0  0  0  0
  6  5  1  0  0  0  0
  6  8  1  0  0  0  0
 10 11  2  1  0  0  0
 10 12  1  0  0  0  0
 10 13  1  0  0  0  0
 10  9  1  0  0  0  0
 13 14  1  0  0  0  0
 15 14  1  6  0  0  0
 15 16  1  0  0  0  0
 17 19  1  0  0  0  0
 17 15  1  0  0  0  0
 17 18  1  1  0  0  0
 19 21  1  0  0  0  0
 19 20  1  1  0  0  0
 21 16  1  0  0  0  0
 21 22  1  6  0  0  0
 22 32  1  0  0  0  0
 23 22  1  0  0  0  0
 23 24  2  0  0  0  0
 24 25  1  0  0  0  0
 25 26  1  0  0  0  0
 26 27  2  0  0  0  0
 26 28  1  0  0  0  0
 29 28  1  0  0  0  0
 29 30  1  0  0  0  0
 31 29  2  0  0  0  0
 32 25  2  0  0  0  0
 32 31  1  0  0  0  0
M  END
>  <CHROM.1>
145.35965640,-93.68599839,52.05199526,-65.66295379,-77.49263831,110.05331251
86.49593314,44.23731468,-61.00507530,33.70059726,0.57264335,14.67522543,3.08869763
2.63391045,-0.13823370,2.64857265

>  <Name>
lig.pdb

>  <RI>
1.82117e+07

>  <Rbt.Current_Directory>
/home/itssahil/PROJECTS/Mol_Feturizer/New_Systems/rnas/5lwj

>  <Rbt.Executable>
rbdock ($Id: //depot/dev/client3/rdock/2013.1/src/exe/rbdock.cxx#4 $)

>  <Rbt.Library>
libRbt.so (2013.1, Build901 2013/11/27)

>  <Rbt.Parameter_File>
/export/apps/rDock/src/rDock_2013.1_src/data/scripts/dock_solv.prm

>  <Rbt.Receptor>
prm/pocket_docking_5.prm

>  <SCORE>
-33.0057

>  <SCORE.INTER>
-28.9232

>  <SCORE.INTER.CONST>
1

>  <SCORE.INTER.POLAR>
-1.87708

>  <SCORE.INTER.ROT>
8

>  <SCORE.INTER.SOLV>
23.0817

>  <SCORE.INTER.VDW>
-29.6525

>  <SCORE.INTER.norm>
-0.903851

>  <SCORE.INTRA>
-4.08251

>  <SCORE.INTRA.DIHEDRAL>
4.75722

>  <SCORE.INTRA.DIHEDRAL.0>
10.9248

>  <SCORE.INTRA.POLAR>
-0.770391

>  <SCORE.INTRA.POLAR.0>
0

>  <SCORE.INTRA.REPUL>
0

>  <SCORE.INTRA.REPUL.0>
0

>  <SCORE.INTRA.SOLV>
0.811701

>  <SCORE.INTRA.SOLV.lig_0>
-51.4104

>  <SCORE.INTRA.VDW>
-4.24764

>  <SCORE.INTRA.VDW.0>
0.110327

>  <SCORE.INTRA.norm>
-0.127579

>  <SCORE.RESTR>
0

>  <SCORE.RESTR.CAVITY>
0

>  <SCORE.RESTR.norm>
0

>  <SCORE.SYSTEM>
0

>  <SCORE.SYSTEM.CONST>
0

>  <SCORE.SYSTEM.DIHEDRAL>
0

>  <SCORE.SYSTEM.SOLV>
0

>  <SCORE.SYSTEM.norm>
0

>  <SCORE.heavy>
32

>  <SCORE.norm>
-1.03143

>  <RMSD>
9.381

$$$$
lig.pdb
 OpenBabel11021811523D
libRbt.so/2013.1/901 2013/11/27
 32 34  0  0  0  0  0  0  0  0999 V2000
   -2.2480   12.5998    4.9829 P   0  0  0  0  0  0  0  0  0  0  0  0
   -2.2962   12.4298    6.4818 O   0  0  0  0  0  0  0  0  0  0  0  0
   -1.8077   11.1288    4.4588 O   0  0  0  0  0  0  0  0  0  0  0  0
   -3.5390   12.8567    4.2464 O   0  0  0  0  0  0  0  0  0  0  0  0
   -1.4076   13.7556    4.7363 O   0  0  0  0  0  0  0  0  0  0  0  0
   -0.6250   13.5423    3.4963 P   0  0  1  0  0  0  0  0  0  0  0  0
    0.3858   12.4921    3.7633 O   0  0  0  0  0  0  0  0  0  0  0  0
   -1.5173   13.0876    2.4046 O   0  0  0  0  0  0  0  0  0  0  0  0
    0.0390   14.8117    3.1071 O   0  0  0  0  0  0  0  0  0  0  0  0
    0.6806   15.0032    1.7847 P   0  0  1  0  0  0  0  0  0  0  0  0
    1.5662   13.9001    1.3598 O   0  0  0  0  0  0  0  0  0  0  0  0
   -0.2087   15.5301    0.7257 O   0  0  0  0  0  0  0  0  0  0  0  0
    1.7319   16.2004    2.0682 O   0  0  0  0  0  0  0  0  0  0  0  0
    2.3079   16.9659    1.0267 C   0  0  0  0  0  0  0  0  0  0  0  0
    3.7342   16.5149    0.6825 C   0  0  1  0  0  0  0  0  0  0  0  0
    4.5787   17.6367    0.5250 O   0  0  0  0  0  0  0  0  0  0  0  0
    4.4391   15.7615    1.8241 C   0  0  1  0  0  0  0  0  0  0  0  0
    4.0447   14.4108    1.9980 O   0  0  0  0  0  0  0  0  0  0  0  0
    5.9212   15.9045    1.4788 C   0  0  1  0  0  0  0  0  0  0  0  0
    6.3919   14.8284    0.6866 O   0  0  0  0  0  0  0  0  0  0  0  0
    5.9132   17.1729    0.6275 C   0  0  2  0  0  0  0  0  0  0  0  0
    6.8221   18.2470    1.0815 N   0  0  0  0  0  0  0  0  0  0  0  0
    8.1191   18.5251    0.7312 C   0  0  0  0  0  0  0  0  0  0  0  0
    8.6560   19.5054    1.4105 N   0  0  0  0  0  0  0  0  0  0  0  0
    7.6369   19.9290    2.2582 C   0  0  0  0  0  0  0  0  0  0  0  0
    7.6228   20.9412    3.2707 C   0  0  0  0  0  0  0  0  0  0  0  0
    8.5583   21.6477    3.6407 O   0  0  0  0  0  0  0  0  0  0  0  0
    6.3695   21.0791    3.8826 N   0  0  0  0  0  0  0  0  0  0  0  0
    5.2515   20.3416    3.5231 C   0  0  0  0  0  0  0  0  0  0  0  0
    4.0863   20.6402    4.1086 N   0  0  0  0  0  0  0  0  0  0  0  0
    5.2818   19.3603    2.6066 N   0  0  0  0  0  0  0  0  0  0  0  0
    6.4977   19.1982    2.0171 C   0  0  0  0  0  0  0  0  0  0  0  0
  1  2  2  0  0  0  0
  1  4  1  0  0  0  0
  1  3  1  0  0  0  0
  5  1  1  0  0  0  0
  6  7  2  1  0  0  0
  6  9  1  0  0  0  0
  6  5  1  0  0  0  0
  6  8  1  0  0  0  0
 10 11  2  6  0  0  0
 10 12  1  0  0  0  0
 10 13  1  0  0  0  0
 10  9  1  0  0  0  0
 13 14  1  0  0  0  0
 15 14  1  1  0  0  0
 15 16  1  0  0  0  0
 17 19  1  0  0  0  0
 17 15  1  0  0  0  0
 17 18  1  6  0  0  0
 19 21  1  0  0  0  0
 19 20  1  6  0  0  0
 21 16  1  0  0  0  0
 21 22  1  1  0  0  0
 22 32  1  0  0  0  0
 23 22  1  0  0  0  0
 23 24  2  0  0  0  0
 24 25  1  0  0  0  0
 25 26  1  0  0  0  0
 26 27  2  0  0  0  0
 26 28  1  0  0  0  0
 29 28  1  0  0  0  0
 29 30  1  0  0  0  0
 31 29  2  0  0  0  0
 32 25  2  0  0  0  0
 32 31  1  0  0  0  0
M  END
>  <CHROM.1>
144.70514848,-168.04143951,-70.15236874,-162.28640998,-47.09689292,-100.42685115
-135.86833664,-52.72924282,-52.97045800,-143.56057152,2.65745070,16.03049784
2.65433047,2.78929167,-0.58586152,-2.42864479

>  <Name>
lig.pdb

>  <RI>
0

>  <Rbt.Current_Directory>
/home/itssahil/PROJECTS/Mol_Feturizer/New_Systems/rnas/5lwj

>  <Rbt.Executable>
rbdock ($Id: //depot/dev/client3/rdock/2013.1/src/exe/rbdock.cxx#4 $)

>  <Rbt.Library>
libRbt.so (2013.1, Build901 2013/11/27)

>  <Rbt.Parameter_File>
/export/apps/rDock/src/rDock_2013.1_src/data/scripts/dock_solv.prm

>  <Rbt.Receptor>
prm/pocket_docking_3.prm

>  <SCORE>
-31.3854

>  <SCORE.INTER>
-29.6763

>  <SCORE.INTER.CONST>
1

>  <SCORE.INTER.POLAR>
-3.78634

>  <SCORE.INTER.ROT>
8

>  <SCORE.INTER.SOLV>
17.876

>  <SCORE.INTER.VDW>
-22.0551

>  <SCORE.INTER.norm>
-0.927384

>  <SCORE.INTRA>
-1.74714

>  <SCORE.INTRA.DIHEDRAL>
5.10586

>  <SCORE.INTRA.DIHEDRAL.0>
10.9248

>  <SCORE.INTRA.POLAR>
-0.609943

>  <SCORE.INTRA.POLAR.0>
0

>  <SCORE.INTRA.REPUL>
0

>  <SCORE.INTRA.REPUL.0>
0

>  <SCORE.INTRA.SOLV>
1.33344

>  <SCORE.INTRA.SOLV.lig_0>
-51.4104

>  <SCORE.INTRA.VDW>
-2.89299

>  <SCORE.INTRA.VDW.0>
0.110327

>  <SCORE.INTRA.norm>
-0.0545983

>  <SCORE.RESTR>
0.03808

>  <SCORE.RESTR.CAVITY>
0.03808

>  <SCORE.RESTR.norm>
0.00119

>  <SCORE.SYSTEM>
0

>  <SCORE.SYSTEM.CONST>
0

>  <SCORE.SYSTEM.DIHEDRAL>
0

>  <SCORE.SYSTEM.SOLV>
0

>  <SCORE.SYSTEM.norm>
0

>  <SCORE.heavy>
32

>  <SCORE.norm>
-0.980792

>  <RMSD>
9.388

$$$$
lig.pdb
 OpenBabel11021811523D
libRbt.so/2013.1/901 2013/11/27
 32 34  0  0  0  0  0  0  0  0999 V2000
   -1.6769   14.6276    2.9844 P   0  0  0  0  0  0  0  0  0  0  0  0
   -1.4858   15.5599    1.8129 O   0  0  0  0  0  0  0  0  0  0  0  0
   -1.1023   15.4853    4.2361 O   0  0  0  0  0  0  0  0  0  0  0  0
   -3.0832   14.2905    3.4132 O   0  0  0  0  0  0  0  0  0  0  0  0
   -1.0609   13.3714    2.6030 O   0  0  0  0  0  0  0  0  0  0  0  0
    0.2522   13.2400    3.2767 P   0  0  1  0  0  0  0  0  0  0  0  0
    0.0134   13.1220    4.7344 O   0  0  0  0  0  0  0  0  0  0  0  0
    0.9472   12.0213    2.8009 O   0  0  0  0  0  0  0  0  0  0  0  0
    1.0795   14.4372    2.9838 O   0  0  0  0  0  0  0  0  0  0  0  0
    2.5289   14.3516    2.6854 P   0  0  1  0  0  0  0  0  0  0  0  0
    3.3857   14.0584    3.8523 O   0  0  0  0  0  0  0  0  0  0  0  0
    2.8738   13.6025    1.4566 O   0  0  0  0  0  0  0  0  0  0  0  0
    2.9155   15.8867    2.3500 O   0  0  0  0  0  0  0  0  0  0  0  0
    4.1461   16.2448    1.7499 C   0  0  0  0  0  0  0  0  0  0  0  0
    4.2366   17.7454    1.4396 C   0  0  1  0  0  0  0  0  0  0  0  0
    4.6701   18.4568    2.5808 O   0  0  0  0  0  0  0  0  0  0  0  0
    5.3346   18.1035    0.4227 C   0  0  1  0  0  0  0  0  0  0  0  0
    5.0212   17.8332   -0.9333 O   0  0  0  0  0  0  0  0  0  0  0  0
    5.5887   19.5875    0.6860 C   0  0  1  0  0  0  0  0  0  0  0  0
    4.7811   20.4207   -0.1267 O   0  0  0  0  0  0  0  0  0  0  0  0
    5.1273   19.7216    2.1361 C   0  0  2  0  0  0  0  0  0  0  0  0
    6.1234   20.2912    3.0684 N   0  0  0  0  0  0  0  0  0  0  0  0
    7.4617   20.0265    3.2147 C   0  0  0  0  0  0  0  0  0  0  0  0
    8.0220   20.6516    4.2176 N   0  0  0  0  0  0  0  0  0  0  0  0
    6.9900   21.4073    4.7658 C   0  0  0  0  0  0  0  0  0  0  0  0
    6.9674   22.2697    5.9085 C   0  0  0  0  0  0  0  0  0  0  0  0
    7.8836   22.4997    6.6951 O   0  0  0  0  0  0  0  0  0  0  0  0
    5.7201   22.8778    6.1047 N   0  0  0  0  0  0  0  0  0  0  0  0
    4.6331   22.6948    5.2633 C   0  0  0  0  0  0  0  0  0  0  0  0
    3.5293   23.4137    5.4965 N   0  0  0  0  0  0  0  0  0  0  0  0
    4.6447   21.8478    4.2210 N   0  0  0  0  0  0  0  0  0  0  0  0
    5.8430   21.2318    4.0286 C   0  0  0  0  0  0  0  0  0  0  0  0
  1  2  2  0  0  0  0
  1  4  1  0  0  0  0
  1  3  1  0  0  0  0
  5  1  1  0  0  0  0
  6  7  2  1  0  0  0
  6  9  1  0  0  0  0
  6  5  1  0  0  0  0
  6  8  1  0  0  0  0
 10 11  2  1  0  0  0
 10 12  1  0  0  0  0
 10 13  1  0  0  0  0
 10  9  1  0  0  0  0
 13 14  1  0  0  0  0
 15 14  1  1  0  0  0
 15 16  1  0  0  0  0
 17 19  1  0  0  0  0
 17 15  1  0  0  0  0
 17 18  1  6  0  0  0
 19 21  1  0  0  0  0
 19 20  1  6  0  0  0
 21 16  1  0  0  0  0
 21 22  1  1  0  0  0
 22 32  1  0  0  0  0
 23 22  1  0  0  0  0
 23 24  2  0  0  0  0
 24 25  1  0  0  0  0
 25 26  1  0  0  0  0
 26 27  2  0  0  0  0
 26 28  1  0  0  0  0
 29 28  1  0  0  0  0
 29 30  1  0  0  0  0
 31 29  2  0  0  0  0
 32 25  2  0  0  0  0
 32 31  1  0  0  0  0
M  END
>  <CHROM.1>
102.95031619,-139.14263861,66.15064423,-167.11309078,-73.40537942,175.82584056
84.58351368,-178.31819805,58.75000499,79.64810577,3.06444912,17.33873209
3.08208178,2.43462572,-0.58287855,-2.41682953

>  <Name>
lig.pdb

>  <RI>
0

>  <Rbt.Current_Directory>
/home/itssahil/PROJECTS/Mol_Feturizer/New_Systems/rnas/5lwj

>  <Rbt.Executable>
rbdock ($Id: //depot/dev/client3/rdock/2013.1/src/exe/rbdock.cxx#4 $)

>  <Rbt.Library>
libRbt.so (2013.1, Build901 2013/11/27)

>  <Rbt.Parameter_File>
/export/apps/rDock/src/rDock_2013.1_src/data/scripts/dock_solv.prm

>  <Rbt.Receptor>
prm/pocket_docking_6.prm

>  <SCORE>
-31.0552

>  <SCORE.INTER>
-27.4664

>  <SCORE.INTER.CONST>
1

>  <SCORE.INTER.POLAR>
-3.12118

>  <SCORE.INTER.ROT>
8

>  <SCORE.INTER.SOLV>
16.9046

>  <SCORE.INTER.VDW>
-22.4752

>  <SCORE.INTER.norm>
-0.858326

>  <SCORE.INTRA>
-3.58883

>  <SCORE.INTRA.DIHEDRAL>
-1.70284

>  <SCORE.INTRA.DIHEDRAL.0>
10.9248

>  <SCORE.INTRA.POLAR>
0

>  <SCORE.INTRA.POLAR.0>
0

>  <SCORE.INTRA.REPUL>
0

>  <SCORE.INTRA.REPUL.0>
0

>  <SCORE.INTRA.SOLV>
-0.726921

>  <SCORE.INTRA.SOLV.lig_0>
-51.4104

>  <SCORE.INTRA.VDW>
-2.37394

>  <SCORE.INTRA.VDW.0>
0.110327

>  <SCORE.INTRA.norm>
-0.112151

>  <SCORE.RESTR>
0

>  <SCORE.RESTR.CAVITY>
0

>  <SCORE.RESTR.norm>
0

>  <SCORE.SYSTEM>
0

>  <SCORE.SYSTEM.CONST>
0

>  <SCORE.SYSTEM.DIHEDRAL>
0

>  <SCORE.SYSTEM.SOLV>
0

>  <SCORE.SYSTEM.norm>
0

>  <SCORE.heavy>
32

>  <SCORE.norm>
-0.970476

>  <RMSD>
9.419

$$$$
lig.pdb
 OpenBabel11021811523D
libRbt.so/2013.1/901 2013/11/27
 32 34  0  0  0  0  0  0  0  0999 V2000
   -1.1652   12.3776    4.4373 P   0  0  0  0  0  0  0  0  0  0  0  0
   -1.9334   13.4712    5.1386 O   0  0  0  0  0  0  0  0  0  0  0  0
    0.3042   12.4628    5.1200 O   0  0  0  0  0  0  0  0  0  0  0  0
   -1.5740   10.9453    4.6753 O   0  0  0  0  0  0  0  0  0  0  0  0
   -1.3361   12.6137    3.0168 O   0  0  0  0  0  0  0  0  0  0  0  0
   -0.1890   13.3994    2.5045 P   0  0  1  0  0  0  0  0  0  0  0  0
    1.0524   12.6400    2.7845 O   0  0  0  0  0  0  0  0  0  0  0  0
   -0.3181   13.5914    1.0413 O   0  0  0  0  0  0  0  0  0  0  0  0
   -0.1519   14.7190    3.1834 O   0  0  0  0  0  0  0  0  0  0  0  0
   -1.3322   15.6126    3.2548 P   0  0  1  0  0  0  0  0  0  0  0  0
   -2.4391   15.2515    2.3458 O   0  0  0  0  0  0  0  0  0  0  0  0
   -1.7496   15.9933    4.6226 O   0  0  0  0  0  0  0  0  0  0  0  0
   -0.7807   16.9854    2.5991 O   0  0  0  0  0  0  0  0  0  0  0  0
   -1.6218   18.0941    2.3421 C   0  0  0  0  0  0  0  0  0  0  0  0
   -0.8730   19.2635    1.6877 C   0  0  1  0  0  0  0  0  0  0  0  0
    0.2273   19.6492    2.4858 O   0  0  0  0  0  0  0  0  0  0  0  0
   -0.1756   18.8923    0.3672 C   0  0  1  0  0  0  0  0  0  0  0  0
   -1.0250   18.7921   -0.7635 O   0  0  0  0  0  0  0  0  0  0  0  0
    0.8883   19.9787    0.2127 C   0  0  1  0  0  0  0  0  0  0  0  0
    0.4152   21.0888   -0.5296 O   0  0  0  0  0  0  0  0  0  0  0  0
    1.0934   20.4108    1.6634 C   0  0  2  0  0  0  0  0  0  0  0  0
    2.4878   20.3517    2.1516 N   0  0  0  0  0  0  0  0  0  0  0  0
    3.3919   19.3198    2.1455 C   0  0  0  0  0  0  0  0  0  0  0  0
    4.5163   19.5929    2.7553 N   0  0  0  0  0  0  0  0  0  0  0  0
    4.3622   20.9099    3.1776 C   0  0  0  0  0  0  0  0  0  0  0  0
    5.2331   21.7571    3.9352 C   0  0  0  0  0  0  0  0  0  0  0  0
    6.3255   21.4706    4.4209 O   0  0  0  0  0  0  0  0  0  0  0  0
    4.7108   23.0440    4.1218 N   0  0  0  0  0  0  0  0  0  0  0  0
    3.4977   23.4663    3.5991 C   0  0  0  0  0  0  0  0  0  0  0  0
    3.1581   24.7507    3.7564 N   0  0  0  0  0  0  0  0  0  0  0  0
    2.6627   22.6541    2.9307 N   0  0  0  0  0  0  0  0  0  0  0  0
    3.1453   21.3931    2.7587 C   0  0  0  0  0  0  0  0  0  0  0  0
  1  2  2  0  0  0  0
  1  4  1  0  0  0  0
  1  3  1  0  0  0  0
  5  1  1  0  0  0  0
  6  7  2  1  0  0  0
  6  9  1  0  0  0  0
  6  5  1  0  0  0  0
  6  8  1  0  0  0  0
 10 11  2  6  0  0  0
 10 12  1  0  0  0  0
 10 13  1  0  0  0  0
 10  9  1  0  0  0  0
 13 14  1  0  0  0  0
 15 14  1  1  0  0  0
 15 16  1  0  0  0  0
 17 19  1  0  0  0  0
 17 15  1  0  0  0  0
 17 18  1  6  0  0  0
 19 21  1  0  0  0  0
 19 20  1  6  0  0  0
 21 16  1  0  0  0  0
 21 22  1  1  0  0  0
 22 32  1  0  0  0  0
 23 22  1  0  0  0  0
 23 24  2  0  0  0  0
 24 25  1  0  0  0  0
 25 26  1  0  0  0  0
 26 27  2  0  0  0  0
 26 28  1  0  0  0  0
 29 28  1  0  0  0  0
 29 30  1  0  0  0  0
 31 29  2  0  0  0  0
 32 25  2  0  0  0  0
 32 31  1  0  0  0  0
M  END
>  <CHROM.1>
94.93852127,-51.71831930,58.25937749,173.75629316,-13.69146486,-178.64451106
-55.93690734,72.42270531,179.47654811,70.59511947,0.68288456,17.41022052
2.81749677,-2.15659506,-0.63665988,-0.46092133

>  <Name>
lig.pdb

>  <RI>
2.92062e+07

>  <Rbt.Current_Directory>
/home/itssahil/PROJECTS/Mol_Feturizer/New_Systems/rnas/5lwj

>  <Rbt.Executable>
rbdock ($Id: //depot/dev/client3/rdock/2013.1/src/exe/rbdock.cxx#4 $)

>  <Rbt.Library>
libRbt.so (2013.1, Build901 2013/11/27)

>  <Rbt.Parameter_File>
/export/apps/rDock/src/rDock_2013.1_src/data/scripts/dock_solv.prm

>  <Rbt.Receptor>
prm/pocket_docking_7.prm

>  <SCORE>
-24.5622

>  <SCORE.INTER>
-21.1511

>  <SCORE.INTER.CONST>
1

>  <SCORE.INTER.POLAR>
-2.86471

>  <SCORE.INTER.ROT>
8

>  <SCORE.INTER.SOLV>
10.5066

>  <SCORE.INTER.VDW>
-16.9872

>  <SCORE.INTER.norm>
-0.66097

>  <SCORE.INTRA>
-3.41112

>  <SCORE.INTRA.DIHEDRAL>
-3.11999

>  <SCORE.INTRA.DIHEDRAL.0>
10.9248

>  <SCORE.INTRA.POLAR>
-0.0975842

>  <SCORE.INTRA.POLAR.0>
0

>  <SCORE.INTRA.REPUL>
0

>  <SCORE.INTRA.REPUL.0>
0

>  <SCORE.INTRA.SOLV>
2.25622

>  <SCORE.INTRA.SOLV.lig_0>
-51.4104

>  <SCORE.INTRA.VDW>
-2.64745

>  <SCORE.INTRA.VDW.0>
0.110327

>  <SCORE.INTRA.norm>
-0.106598

>  <SCORE.RESTR>
0

>  <SCORE.RESTR.CAVITY>
0

>  <SCORE.RESTR.norm>
0

>  <SCORE.SYSTEM>
0

>  <SCORE.SYSTEM.CONST>
0

>  <SCORE.SYSTEM.DIHEDRAL>
0

>  <SCORE.SYSTEM.SOLV>
0

>  <SCORE.SYSTEM.norm>
0

>  <SCORE.heavy>
32

>  <SCORE.norm>
-0.767568

>  <RMSD>
9.422

$$$$
lig.pdb
 OpenBabel11021811523D
libRbt.so/2013.1/901 2013/11/27
 32 34  0  0  0  0  0  0  0  0999 V2000
   -2.6602   13.0719    4.8062 P   0  0  0  0  0  0  0  0  0  0  0  0
   -4.0965   13.1577    4.3507 O   0  0  0  0  0  0  0  0  0  0  0  0
   -2.3695   14.5568    5.3917 O   0  0  0  0  0  0  0  0  0  0  0  0
   -2.3272   12.1708    5.9691 O   0  0  0  0  0  0  0  0  0  0  0  0
   -1.9095   12.5623    3.6750 O   0  0  0  0  0  0  0  0  0  0  0  0
   -1.8544   13.5940    2.6129 P   0  0  1  0  0  0  0  0  0  0  0  0
   -3.2219   13.7712    2.0701 O   0  0  0  0  0  0  0  0  0  0  0  0
   -1.3890   14.8814    3.1792 O   0  0  0  0  0  0  0  0  0  0  0  0
   -0.9267   13.1512    1.5420 O   0  0  0  0  0  0  0  0  0  0  0  0
    0.5463   13.1672    1.7060 P   0  0  1  0  0  0  0  0  0  0  0  0
    1.0294   12.6870    3.0166 O   0  0  0  0  0  0  0  0  0  0  0  0
    1.3132   12.6723    0.5410 O   0  0  0  0  0  0  0  0  0  0  0  0
    0.8808   14.7491    1.7730 O   0  0  0  0  0  0  0  0  0  0  0  0
    2.1785   15.2382    2.0548 C   0  0  0  0  0  0  0  0  0  0  0  0
    2.2654   16.7680    1.9617 C   0  0  1  0  0  0  0  0  0  0  0  0
    3.5805   17.2023    2.2414 O   0  0  0  0  0  0  0  0  0  0  0  0
    2.0605   17.3155    0.5383 C   0  0  1  0  0  0  0  0  0  0  0  0
    0.7167   17.3558    0.0882 O   0  0  0  0  0  0  0  0  0  0  0  0
    2.7060   18.6998    0.5966 C   0  0  1  0  0  0  0  0  0  0  0  0
    1.7766   19.7086    0.9511 O   0  0  0  0  0  0  0  0  0  0  0  0
    3.6990   18.5233    1.7439 C   0  0  2  0  0  0  0  0  0  0  0  0
    5.1041   18.8525    1.4227 N   0  0  0  0  0  0  0  0  0  0  0  0
    5.7920   18.7667    0.2387 C   0  0  0  0  0  0  0  0  0  0  0  0
    7.0645   19.0517    0.3399 N   0  0  0  0  0  0  0  0  0  0  0  0
    7.2342   19.3750    1.6827 C   0  0  0  0  0  0  0  0  0  0  0  0
    8.4100   19.7328    2.4172 C   0  0  0  0  0  0  0  0  0  0  0  0
    9.5659   19.7934    2.0029 O   0  0  0  0  0  0  0  0  0  0  0  0
    8.1431   20.0188    3.7629 N   0  0  0  0  0  0  0  0  0  0  0  0
    6.8726   19.9946    4.3182 C   0  0  0  0  0  0  0  0  0  0  0  0
    6.7338   20.3907    5.5884 N   0  0  0  0  0  0  0  0  0  0  0  0
    5.7800   19.6116    3.6374 N   0  0  0  0  0  0  0  0  0  0  0  0
    6.0248   19.3093    2.3331 C   0  0  0  0  0  0  0  0  0  0  0  0
  1  2  2  0  0  0  0
  1  4  1  0  0  0  0
  1  3  1  0  0  0  0
  5  1  1  0  0  0  0
  6  7  2  6  0  0  0
  6  9  1  0  0  0  0
  6  5  1  0  0  0  0
  6  8  1  0  0  0  0
 10 11  2  1  0  0  0
 10 12  1  0  0  0  0
 10 13  1  0  0  0  0
 10  9  1  0  0  0  0
 13 14  1  0  0  0  0
 15 14  1  6  0  0  0
 15 16  1  0  0  0  0
 17 19  1  0  0  0  0
 17 15  1  0  0  0  0
 17 18  1  1  0  0  0
 19 21  1  0  0  0  0
 19 20  1  1  0  0  0
 21 16  1  0  0  0  0
 21 22  1  6  0  0  0
 22 32  1  0  0  0  0
 23 22  1  0  0  0  0
 23 24  2  0  0  0  0
 24 25  1  0  0  0  0
 25 26  1  0  0  0  0
 26 27  2  0  0  0  0
 26 28  1  0  0  0  0
 29 28  1  0  0  0  0
 29 30  1  0  0  0  0
 31 29  2  0  0  0  0
 32 25  2  0  0  0  0
 32 31  1  0  0  0  0
M  END
>  <CHROM.1>
69.77726505,-74.39479384,-67.83589904,173.87067061,42.44383097,175.80528081
-179.56154443,-48.34694352,-178.29601073,94.08699763,1.91145452,16.11739413
2.54221869,-3.08046700,-0.63178061,-1.63787798

>  <Name>
lig.pdb

>  <RI>
0

>  <Rbt.Current_Directory>
/home/itssahil/PROJECTS/Mol_Feturizer/New_Systems/rnas/5lwj

>  <Rbt.Executable>
rbdock ($Id: //depot/dev/client3/rdock/2013.1/src/exe/rbdock.cxx#4 $)

>  <Rbt.Library>
libRbt.so (2013.1, Build901 2013/11/27)

>  <Rbt.Parameter_File>
/export/apps/rDock/src/rDock_2013.1_src/data/scripts/dock_solv.prm

>  <Rbt.Receptor>
prm/pocket_docking_4.prm

>  <SCORE>
-41.4639

>  <SCORE.INTER>
-35.3278

>  <SCORE.INTER.CONST>
1

>  <SCORE.INTER.POLAR>
-4.41091

>  <SCORE.INTER.ROT>
8

>  <SCORE.INTER.SOLV>
22.3839

>  <SCORE.INTER.VDW>
-25.2435

>  <SCORE.INTER.norm>
-1.10399

>  <SCORE.INTRA>
-6.13609

>  <SCORE.INTRA.DIHEDRAL>
-6.39272

>  <SCORE.INTRA.DIHEDRAL.0>
10.9248

>  <SCORE.INTRA.POLAR>
-0.215651

>  <SCORE.INTRA.POLAR.0>
0

>  <SCORE.INTRA.REPUL>
0

>  <SCORE.INTRA.REPUL.0>
0

>  <SCORE.INTRA.SOLV>
-0.332097

>  <SCORE.INTRA.SOLV.lig_0>
-51.4104

>  <SCORE.INTRA.VDW>
-2.04047

>  <SCORE.INTRA.VDW.0>
0.110327

>  <SCORE.INTRA.norm>
-0.191753

>  <SCORE.RESTR>
0

>  <SCORE.RESTR.CAVITY>
0

>  <SCORE.RESTR.norm>
0

>  <SCORE.SYSTEM>
0

>  <SCORE.SYSTEM.CONST>
0

>  <SCORE.SYSTEM.DIHEDRAL>
0

>  <SCORE.SYSTEM.SOLV>
0

>  <SCORE.SYSTEM.norm>
0

>  <SCORE.heavy>
32

>  <SCORE.norm>
-1.29575

>  <RMSD>
9.424

$$$$
lig.pdb
 OpenBabel11021811523D
libRbt.so/2013.1/901 2013/11/27
 32 34  0  0  0  0  0  0  0  0999 V2000
    0.5257   11.1083    5.5626 P   0  0  0  0  0  0  0  0  0  0  0  0
    0.7374    9.7563    6.1994 O   0  0  0  0  0  0  0  0  0  0  0  0
    0.4295   12.1060    6.8385 O   0  0  0  0  0  0  0  0  0  0  0  0
    1.6456   11.7011    4.7444 O   0  0  0  0  0  0  0  0  0  0  0  0
   -0.5962   10.9548    4.6569 O   0  0  0  0  0  0  0  0  0  0  0  0
   -0.8412   12.2347    3.9517 P   0  0  1  0  0  0  0  0  0  0  0  0
   -2.1284   12.1229    3.2260 O   0  0  0  0  0  0  0  0  0  0  0  0
   -0.9328   13.3438    4.9296 O   0  0  0  0  0  0  0  0  0  0  0  0
    0.2679   12.4942    2.9998 O   0  0  0  0  0  0  0  0  0  0  0  0
    0.2251   13.5926    2.0056 P   0  0  1  0  0  0  0  0  0  0  0  0
    1.1950   13.4653    0.8989 O   0  0  0  0  0  0  0  0  0  0  0  0
   -1.1324   14.0173    1.5972 O   0  0  0  0  0  0  0  0  0  0  0  0
    0.8134   14.8499    2.8374 O   0  0  0  0  0  0  0  0  0  0  0  0
    2.1305   15.3329    2.6508 C   0  0  0  0  0  0  0  0  0  0  0  0
    2.1794   16.5863    1.7660 C   0  0  1  0  0  0  0  0  0  0  0  0
    2.8160   17.6455    2.4509 O   0  0  0  0  0  0  0  0  0  0  0  0
    3.0827   16.4375    0.5291 C   0  0  1  0  0  0  0  0  0  0  0  0
    2.5305   15.6918   -0.5428 O   0  0  0  0  0  0  0  0  0  0  0  0
    3.3945   17.8835    0.1442 C   0  0  1  0  0  0  0  0  0  0  0  0
    2.4637   18.4006   -0.7903 O   0  0  0  0  0  0  0  0  0  0  0  0
    3.1996   18.6013    1.4784 C   0  0  2  0  0  0  0  0  0  0  0  0
    4.3513   19.4053    1.9401 N   0  0  0  0  0  0  0  0  0  0  0  0
    4.4498   20.3194    2.9584 C   0  0  0  0  0  0  0  0  0  0  0  0
    5.6092   20.9215    3.0237 N   0  0  0  0  0  0  0  0  0  0  0  0
    6.3465   20.3510    1.9904 C   0  0  0  0  0  0  0  0  0  0  0  0
    7.6741   20.6227    1.5282 C   0  0  0  0  0  0  0  0  0  0  0  0
    8.4543   21.4777    1.9424 O   0  0  0  0  0  0  0  0  0  0  0  0
    8.0600   19.7919    0.4676 N   0  0  0  0  0  0  0  0  0  0  0  0
    7.2583   18.7889   -0.0562 C   0  0  0  0  0  0  0  0  0  0  0  0
    7.7803   17.9932   -0.9964 N   0  0  0  0  0  0  0  0  0  0  0  0
    5.9964   18.5700    0.3482 N   0  0  0  0  0  0  0  0  0  0  0  0
    5.5976   19.3831    1.3642 C   0  0  0  0  0  0  0  0  0  0  0  0
  1  2  2  0  0  0  0
  1  4  1  0  0  0  0
  1  3  1  0  0  0  0
  5  1  1  0  0  0  0
  6  7  2  6  0  0  0
  6  9  1  0  0  0  0
  6  5  1  0  0  0  0
  6  8  1  0  0  0  0
 10 11  2  6  0  0  0
 10 12  1  0  0  0  0
 10 13  1  0  0  0  0
 10  9  1  0  0  0  0
 13 14  1  0  0  0  0
 15 14  1  1  0  0  0
 15 16  1  0  0  0  0
 17 19  1  0  0  0  0
 17 15  1  0  0  0  0
 17 18  1  6  0  0  0
 19 21  1  0  0  0  0
 19 20  1  6  0  0  0
 21 16  1  0  0  0  0
 21 22  1  1  0  0  0
 22 32  1  0  0  0  0
 23 22  1  0  0  0  0
 23 24  2  0  0  0  0
 24 25  1  0  0  0  0
 25 26  1  0  0  0  0
 26 27  2  0  0  0  0
 26 28  1  0  0  0  0
 29 28  1  0  0  0  0
 29 30  1  0  0  0  0
 31 29  2  0  0  0  0
 32 25  2  0  0  0  0
 32 31  1  0  0  0  0
M  END
>  <CHROM.1>
-178.05534544,171.04006438,-169.93630464,103.78996131,-162.62905830,100.63377710
123.49813251,-55.40053002,-51.68183026,-66.98111522,2.50871372,15.58377394
2.45766466,-2.46887600,-0.68263234,-1.07981230

>  <Name>
lig.pdb

>  <RI>
3.03081e+07

>  <Rbt.Current_Directory>
/home/itssahil/PROJECTS/Mol_Feturizer/New_Systems/rnas/5lwj

>  <Rbt.Executable>
rbdock ($Id: //depot/dev/client3/rdock/2013.1/src/exe/rbdock.cxx#4 $)

>  <Rbt.Library>
libRbt.so (2013.1, Build901 2013/11/27)

>  <Rbt.Parameter_File>
/export/apps/rDock/src/rDock_2013.1_src/data/scripts/dock_solv.prm

>  <Rbt.Receptor>
prm/pocket_docking_2.prm

>  <SCORE>
-21.1697

>  <SCORE.INTER>
-20.9909

>  <SCORE.INTER.CONST>
1

>  <SCORE.INTER.POLAR>
-1.68859

>  <SCORE.INTER.ROT>
8

>  <SCORE.INTER.SOLV>
19.3359

>  <SCORE.INTER.VDW>
-23.7439

>  <SCORE.INTER.norm>
-0.655964

>  <SCORE.INTRA>
-0.37884

>  <SCORE.INTRA.DIHEDRAL>
6.04607

>  <SCORE.INTRA.DIHEDRAL.0>
10.9248

>  <SCORE.INTRA.POLAR>
-1.04813

>  <SCORE.INTRA.POLAR.0>
0

>  <SCORE.INTRA.REPUL>
0

>  <SCORE.INTRA.REPUL.0>
0

>  <SCORE.INTRA.SOLV>
0.5199

>  <SCORE.INTRA.SOLV.lig_0>
-51.4104

>  <SCORE.INTRA.VDW>
-0.0981672

>  <SCORE.INTRA.VDW.0>
0.110327

>  <SCORE.INTRA.norm>
-0.0118388

>  <SCORE.RESTR>
0.200038

>  <SCORE.RESTR.CAVITY>
0.200038

>  <SCORE.RESTR.norm>
0.00625119

>  <SCORE.SYSTEM>
0

>  <SCORE.SYSTEM.CONST>
0

>  <SCORE.SYSTEM.DIHEDRAL>
0

>  <SCORE.SYSTEM.SOLV>
0

>  <SCORE.SYSTEM.norm>
0

>  <SCORE.heavy>
32

>  <SCORE.norm>
-0.661552

>  <RMSD>
9.432

$$$$
lig.pdb
 OpenBabel11021811523D
libRbt.so/2013.1/901 2013/11/27
 32 34  0  0  0  0  0  0  0  0999 V2000
    1.3710   10.6840    5.8828 P   0  0  0  0  0  0  0  0  0  0  0  0
    2.0717    9.4332    6.3545 O   0  0  0  0  0  0  0  0  0  0  0  0
    1.5789   11.7123    7.1204 O   0  0  0  0  0  0  0  0  0  0  0  0
    1.9508   11.4341    4.7095 O   0  0  0  0  0  0  0  0  0  0  0  0
    0.0409   10.2715    5.4786 O   0  0  0  0  0  0  0  0  0  0  0  0
   -0.6672   11.4187    4.8638 P   0  0  1  0  0  0  0  0  0  0  0  0
   -2.1044   11.0726    4.7606 O   0  0  0  0  0  0  0  0  0  0  0  0
   -0.5200   12.6218    5.7156 O   0  0  0  0  0  0  0  0  0  0  0  0
   -0.1015   11.6839    3.5172 O   0  0  0  0  0  0  0  0  0  0  0  0
   -0.3652   12.9392    2.7744 P   0  0  1  0  0  0  0  0  0  0  0  0
   -1.6409   12.9628    2.0301 O   0  0  0  0  0  0  0  0  0  0  0  0
   -0.0528   14.1831    3.5128 O   0  0  0  0  0  0  0  0  0  0  0  0
    0.7288   12.8856    1.5832 O   0  0  0  0  0  0  0  0  0  0  0  0
    0.9372   13.9683    0.6961 C   0  0  0  0  0  0  0  0  0  0  0  0
    1.6081   15.1689    1.3779 C   0  0  1  0  0  0  0  0  0  0  0  0
    2.8771   15.4115    0.8060 O   0  0  0  0  0  0  0  0  0  0  0  0
    0.8961   16.5079    1.1174 C   0  0  1  0  0  0  0  0  0  0  0  0
   -0.2839   16.7277    1.8720 O   0  0  0  0  0  0  0  0  0  0  0  0
    1.9815   17.5457    1.4020 C   0  0  1  0  0  0  0  0  0  0  0  0
    1.9671   17.9783    2.7510 O   0  0  0  0  0  0  0  0  0  0  0  0
    3.2509   16.7305    1.1624 C   0  0  2  0  0  0  0  0  0  0  0  0
    4.1974   17.3043    0.1822 N   0  0  0  0  0  0  0  0  0  0  0  0
    4.3241   17.0890   -1.1668 C   0  0  0  0  0  0  0  0  0  0  0  0
    5.3464   17.6978   -1.7099 N   0  0  0  0  0  0  0  0  0  0  0  0
    5.9304   18.3893   -0.6529 C   0  0  0  0  0  0  0  0  0  0  0  0
    7.1055   19.2059   -0.6051 C   0  0  0  0  0  0  0  0  0  0  0  0
    7.8940   19.4429   -1.5180 O   0  0  0  0  0  0  0  0  0  0  0  0
    7.3336   19.7546    0.6641 N   0  0  0  0  0  0  0  0  0  0  0  0
    6.4934   19.5596    1.7499 C   0  0  0  0  0  0  0  0  0  0  0  0
    6.7618   20.2236    2.8799 N   0  0  0  0  0  0  0  0  0  0  0  0
    5.4194   18.7542    1.7129 N   0  0  0  0  0  0  0  0  0  0  0  0
    5.1950   18.1954    0.4923 C   0  0  0  0  0  0  0  0  0  0  0  0
  1  2  2  0  0  0  0
  1  4  1  0  0  0  0
  1  3  1  0  0  0  0
  5  1  1  0  0  0  0
  6  7  2  6  0  0  0
  6  9  1  0  0  0  0
  6  5  1  0  0  0  0
  6  8  1  0  0  0  0
 10 11  2  6  0  0  0
 10 12  1  0  0  0  0
 10 13  1  0  0  0  0
 10  9  1  0  0  0  0
 13 14  1  0  0  0  0
 15 14  1  6  0  0  0
 15 16  1  0  0  0  0
 17 19  1  0  0  0  0
 17 15  1  0  0  0  0
 17 18  1  1  0  0  0
 19 21  1  0  0  0  0
 19 20  1  1  0  0  0
 21 16  1  0  0  0  0
 21 22  1  6  0  0  0
 22 32  1  0  0  0  0
 23 22  1  0  0  0  0
 23 24  2  0  0  0  0
 24 25  1  0  0  0  0
 25 26  1  0  0  0  0
 26 27  2  0  0  0  0
 26 28  1  0  0  0  0
 29 28  1  0  0  0  0
 29 30  1  0  0  0  0
 31 29  2  0  0  0  0
 32 25  2  0  0  0  0
 32 31  1  0  0  0  0
M  END
>  <CHROM.1>
-173.94263557,-165.53284459,-166.63658445,-173.13142542,-82.86871965,70.26237403
116.33214863,-62.02169061,-56.55750501,31.20266019,2.19074965,14.79684062
2.57039136,-2.21235065,-0.40597069,-0.84726844

>  <Name>
lig.pdb

>  <RI>
3.03081e+07

>  <Rbt.Current_Directory>
/home/itssahil/PROJECTS/Mol_Feturizer/New_Systems/rnas/5lwj

>  <Rbt.Executable>
rbdock ($Id: //depot/dev/client3/rdock/2013.1/src/exe/rbdock.cxx#4 $)

>  <Rbt.Library>
libRbt.so (2013.1, Build901 2013/11/27)

>  <Rbt.Parameter_File>
/export/apps/rDock/src/rDock_2013.1_src/data/scripts/dock_solv.prm

>  <Rbt.Receptor>
prm/pocket_docking_2.prm

>  <SCORE>
-22.6093

>  <SCORE.INTER>
-22.2021

>  <SCORE.INTER.CONST>
1

>  <SCORE.INTER.POLAR>
-1.40715

>  <SCORE.INTER.ROT>
8

>  <SCORE.INTER.SOLV>
22.8645

>  <SCORE.INTER.VDW>
-26.6658

>  <SCORE.INTER.norm>
-0.693816

>  <SCORE.INTRA>
-2.13307

>  <SCORE.INTRA.DIHEDRAL>
-1.41976

>  <SCORE.INTRA.DIHEDRAL.0>
10.9248

>  <SCORE.INTRA.POLAR>
-0.0103868

>  <SCORE.INTRA.POLAR.0>
0

>  <SCORE.INTRA.REPUL>
0

>  <SCORE.INTRA.REPUL.0>
0

>  <SCORE.INTRA.SOLV>
-0.134957

>  <SCORE.INTRA.SOLV.lig_0>
-51.4104

>  <SCORE.INTRA.VDW>
-1.3204

>  <SCORE.INTRA.VDW.0>
0.110327

>  <SCORE.INTRA.norm>
-0.0666586

>  <SCORE.RESTR>
1.72592

>  <SCORE.RESTR.CAVITY>
1.72592

>  <SCORE.RESTR.norm>
0.053935

>  <SCORE.SYSTEM>
0

>  <SCORE.SYSTEM.CONST>
0

>  <SCORE.SYSTEM.DIHEDRAL>
0

>  <SCORE.SYSTEM.SOLV>
0

>  <SCORE.SYSTEM.norm>
0

>  <SCORE.heavy>
32

>  <SCORE.norm>
-0.70654

>  <RMSD>
9.437

$$$$
lig.pdb
 OpenBabel11021811523D
libRbt.so/2013.1/901 2013/11/27
 32 34  0  0  0  0  0  0  0  0999 V2000
   -0.0148   11.4890    5.4707 P   0  0  0  0  0  0  0  0  0  0  0  0
    0.0912   10.0063    5.7318 O   0  0  0  0  0  0  0  0  0  0  0  0
   -1.1254   11.9751    6.5491 O   0  0  0  0  0  0  0  0  0  0  0  0
    1.1753   12.3612    5.7838 O   0  0  0  0  0  0  0  0  0  0  0  0
   -0.2536   11.6305    4.0475 O   0  0  0  0  0  0  0  0  0  0  0  0
   -1.1624   12.7764    3.8100 P   0  0  1  0  0  0  0  0  0  0  0  0
   -2.5419   12.3477    4.1405 O   0  0  0  0  0  0  0  0  0  0  0  0
   -0.7870   13.9119    4.6843 O   0  0  0  0  0  0  0  0  0  0  0  0
   -1.0763   13.1882    2.3864 O   0  0  0  0  0  0  0  0  0  0  0  0
    0.1568   13.7593    1.7946 P   0  0  1  0  0  0  0  0  0  0  0  0
    1.3418   12.8803    1.8628 O   0  0  0  0  0  0  0  0  0  0  0  0
   -0.0305   14.4517    0.5001 O   0  0  0  0  0  0  0  0  0  0  0  0
    0.5400   14.9372    2.8360 O   0  0  0  0  0  0  0  0  0  0  0  0
    0.6251   16.2951    2.4468 C   0  0  0  0  0  0  0  0  0  0  0  0
    1.8043   16.5652    1.5018 C   0  0  1  0  0  0  0  0  0  0  0  0
    2.1219   17.9420    1.4950 O   0  0  0  0  0  0  0  0  0  0  0  0
    3.1324   15.9491    1.9753 C   0  0  1  0  0  0  0  0  0  0  0  0
    3.2683   14.5543    1.7603 O   0  0  0  0  0  0  0  0  0  0  0  0
    4.1864   16.7673    1.2299 C   0  0  1  0  0  0  0  0  0  0  0  0
    4.5373   16.1828   -0.0120 O   0  0  0  0  0  0  0  0  0  0  0  0
    3.4288   18.0667    0.9632 C   0  0  2  0  0  0  0  0  0  0  0  0
    4.0906   19.2973    1.4468 N   0  0  0  0  0  0  0  0  0  0  0  0
    3.6025   20.3356    2.1991 C   0  0  0  0  0  0  0  0  0  0  0  0
    4.4486   21.3199    2.3612 N   0  0  0  0  0  0  0  0  0  0  0  0
    5.5923   20.8983    1.6898 C   0  0  0  0  0  0  0  0  0  0  0  0
    6.8458   21.5558    1.4738 C   0  0  0  0  0  0  0  0  0  0  0  0
    7.1689   22.6905    1.8191 O   0  0  0  0  0  0  0  0  0  0  0  0
    7.7592   20.7632    0.7658 N   0  0  0  0  0  0  0  0  0  0  0  0
    7.4940   19.4673    0.3496 C   0  0  0  0  0  0  0  0  0  0  0  0
    8.4850   18.7758   -0.2242 N   0  0  0  0  0  0  0  0  0  0  0  0
    6.3006   18.8728    0.5121 N   0  0  0  0  0  0  0  0  0  0  0  0
    5.3937   19.6373    1.1797 C   0  0  0  0  0  0  0  0  0  0  0  0
  1  2  2  0  0  0  0
  1  4  1  0  0  0  0
  1  3  1  0  0  0  0
  5  1  1  0  0  0  0
  6  7  2  1  0  0  0
  6  9  1  0  0  0  0
  6  5  1  0  0  0  0
  6  8  1  0  0  0  0
 10 11  2  6  0  0  0
 10 12  1  0  0  0  0
 10 13  1  0  0  0  0
 10  9  1  0  0  0  0
 13 14  1  0  0  0  0
 15 14  1  1  0  0  0
 15 16  1  0  0  0  0
 17 19  1  0  0  0  0
 17 15  1  0  0  0  0
 17 18  1  6  0  0  0
 19 21  1  0  0  0  0
 19 20  1  6  0  0  0
 21 16  1  0  0  0  0
 21 22  1  1  0  0  0
 22 32  1  0  0  0  0
 23 22  1  0  0  0  0
 23 24  2  0  0  0  0
 24 25  1  0  0  0  0
 25 26  1  0  0  0  0
 26 27  2  0  0  0  0
 26 28  1  0  0  0  0
 29 28  1  0  0  0  0
 29 30  1  0  0  0  0
 31 29  2  0  0  0  0
 32 25  2  0  0  0  0
 32 31  1  0  0  0  0
M  END
>  <CHROM.1>
144.57197096,-65.68527632,-77.24294131,-119.96859780,59.46737988,-67.99928828
-160.55984452,178.76778670,-57.44494766,-6.27881643,2.29904156,15.77162628
2.51093201,2.53051167,-0.71267347,-2.78446402

>  <Name>
lig.pdb

>  <RI>
3.03081e+07

>  <Rbt.Current_Directory>
/home/itssahil/PROJECTS/Mol_Feturizer/New_Systems/rnas/5lwj

>  <Rbt.Executable>
rbdock ($Id: //depot/dev/client3/rdock/2013.1/src/exe/rbdock.cxx#4 $)

>  <Rbt.Library>
libRbt.so (2013.1, Build901 2013/11/27)

>  <Rbt.Parameter_File>
/export/apps/rDock/src/rDock_2013.1_src/data/scripts/dock_solv.prm

>  <Rbt.Receptor>
prm/pocket_docking_2.prm

>  <SCORE>
-22.4301

>  <SCORE.INTER>
-21.9775

>  <SCORE.INTER.CONST>
1

>  <SCORE.INTER.POLAR>
-1.98927

>  <SCORE.INTER.ROT>
8

>  <SCORE.INTER.SOLV>
17.3972

>  <SCORE.INTER.VDW>
-22.7532

>  <SCORE.INTER.norm>
-0.686796

>  <SCORE.INTRA>
-2.2408

>  <SCORE.INTRA.DIHEDRAL>
-2.13034

>  <SCORE.INTRA.DIHEDRAL.0>
10.9248

>  <SCORE.INTRA.POLAR>
0

>  <SCORE.INTRA.POLAR.0>
0

>  <SCORE.INTRA.REPUL>
0

>  <SCORE.INTRA.REPUL.0>
0

>  <SCORE.INTRA.SOLV>
1.91995

>  <SCORE.INTRA.SOLV.lig_0>
-51.4104

>  <SCORE.INTRA.VDW>
-2.13561

>  <SCORE.INTRA.VDW.0>
0.110327

>  <SCORE.INTRA.norm>
-0.070025

>  <SCORE.RESTR>
1.78822

>  <SCORE.RESTR.CAVITY>
1.78822

>  <SCORE.RESTR.norm>
0.0558817

>  <SCORE.SYSTEM>
0

>  <SCORE.SYSTEM.CONST>
0

>  <SCORE.SYSTEM.DIHEDRAL>
0

>  <SCORE.SYSTEM.SOLV>
0

>  <SCORE.SYSTEM.norm>
0

>  <SCORE.heavy>
32

>  <SCORE.norm>
-0.70094

>  <RMSD>
9.437

$$$$
lig.pdb
 OpenBabel11021811523D
libRbt.so/2013.1/901 2013/11/27
 32 34  0  0  0  0  0  0  0  0999 V2000
    1.4405   10.9353    6.0207 P   0  0  0  0  0  0  0  0  0  0  0  0
    1.2097   11.8151    7.2252 O   0  0  0  0  0  0  0  0  0  0  0  0
    2.2148   11.9189    4.9885 O   0  0  0  0  0  0  0  0  0  0  0  0
    2.3825    9.7650    6.1549 O   0  0  0  0  0  0  0  0  0  0  0  0
    0.1478   10.3739    5.6794 O   0  0  0  0  0  0  0  0  0  0  0  0
   -0.7347   11.4447    5.1597 P   0  0  1  0  0  0  0  0  0  0  0  0
   -1.9175   10.8059    4.5360 O   0  0  0  0  0  0  0  0  0  0  0  0
   -1.1854   12.3150    6.2706 O   0  0  0  0  0  0  0  0  0  0  0  0
    0.0055   12.2516    4.1574 O   0  0  0  0  0  0  0  0  0  0  0  0
   -0.6356   13.3348    3.3748 P   0  0  1  0  0  0  0  0  0  0  0  0
   -1.8494   12.9311    2.6362 O   0  0  0  0  0  0  0  0  0  0  0  0
   -0.7350   14.6374    4.0702 O   0  0  0  0  0  0  0  0  0  0  0  0
    0.4267   13.5893    2.1809 O   0  0  0  0  0  0  0  0  0  0  0  0
    0.0874   14.2947    1.0019 C   0  0  0  0  0  0  0  0  0  0  0  0
    0.4331   13.5133   -0.2733 C   0  0  1  0  0  0  0  0  0  0  0  0
   -0.1800   14.1120   -1.3967 O   0  0  0  0  0  0  0  0  0  0  0  0
    1.9200   13.5878   -0.6626 C   0  0  1  0  0  0  0  0  0  0  0  0
    2.7897   12.7597    0.0910 O   0  0  0  0  0  0  0  0  0  0  0  0
    1.9129   13.2381   -2.1505 C   0  0  1  0  0  0  0  0  0  0  0  0
    2.0841   11.8496   -2.3742 O   0  0  0  0  0  0  0  0  0  0  0  0
    0.4896   13.6264   -2.5466 C   0  0  2  0  0  0  0  0  0  0  0  0
    0.3822   14.5780   -3.6730 N   0  0  0  0  0  0  0  0  0  0  0  0
    1.3570   15.1858   -4.4231 C   0  0  0  0  0  0  0  0  0  0  0  0
    0.9002   16.0559   -5.2863 N   0  0  0  0  0  0  0  0  0  0  0  0
   -0.4804   16.0082   -5.1181 C   0  0  0  0  0  0  0  0  0  0  0  0
   -1.5255   16.7583   -5.7466 C   0  0  0  0  0  0  0  0  0  0  0  0
   -1.4106   17.6630   -6.5710 O   0  0  0  0  0  0  0  0  0  0  0  0
   -2.8027   16.3770   -5.3138 N   0  0  0  0  0  0  0  0  0  0  0  0
   -3.0348   15.3580   -4.4022 C   0  0  0  0  0  0  0  0  0  0  0  0
   -4.3035   15.0169   -4.1499 N   0  0  0  0  0  0  0  0  0  0  0  0
   -2.0497   14.6904   -3.7795 N   0  0  0  0  0  0  0  0  0  0  0  0
   -0.8011   15.0632   -4.1726 C   0  0  0  0  0  0  0  0  0  0  0  0
  1  2  2  0  0  0  0
  1  4  1  0  0  0  0
  1  3  1  0  0  0  0
  5  1  1  0  0  0  0
  6  7  2  6  0  0  0
  6  9  1  0  0  0  0
  6  5  1  0  0  0  0
  6  8  1  0  0  0  0
 10 11  2  6  0  0  0
 10 12  1  0  0  0  0
 10 13  1  0  0  0  0
 10  9  1  0  0  0  0
 13 14  1  0  0  0  0
 15 14  1  1  0  0  0
 15 16  1  0  0  0  0
 17 19  1  0  0  0  0
 17 15  1  0  0  0  0
 17 18  1  1  0  0  0
 19 21  1  0  0  0  0
 19 20  1  1  0  0  0
 21 16  1  0  0  0  0
 21 22  1  6  0  0  0
 22 32  1  0  0  0  0
 23 22  1  0  0  0  0
 23 24  2  0  0  0  0
 24 25  1  0  0  0  0
 25 26  1  0  0  0  0
 26 27  2  0  0  0  0
 26 28  1  0  0  0  0
 29 28  1  0  0  0  0
 29 30  1  0  0  0  0
 31 29  2  0  0  0  0
 32 25  2  0  0  0  0
 32 31  1  0  0  0  0
M  END
>  <CHROM.1>
68.97992615,175.09038522,167.20184746,163.50678788,-54.29271603,-127.52659619
167.18019762,177.55122145,-63.68343264,123.58601816,-0.07760963,13.36929150
0.72347328,-1.43826495,0.29933773,-1.22995630

>  <Name>
lig.pdb

>  <RI>
2.0892e+07

>  <Rbt.Current_Directory>
/home/itssahil/PROJECTS/Mol_Feturizer/New_Systems/rnas/5lwj

>  <Rbt.Executable>
rbdock ($Id: //depot/dev/client3/rdock/2013.1/src/exe/rbdock.cxx#4 $)

>  <Rbt.Library>
libRbt.so (2013.1, Build901 2013/11/27)

>  <Rbt.Parameter_File>
/export/apps/rDock/src/rDock_2013.1_src/data/scripts/dock_solv.prm

>  <Rbt.Receptor>
prm/pocket_docking_8.prm

>  <SCORE>
-35.8161

>  <SCORE.INTER>
-34.7249

>  <SCORE.INTER.CONST>
1

>  <SCORE.INTER.POLAR>
-3.8717

>  <SCORE.INTER.ROT>
8

>  <SCORE.INTER.SOLV>
22.7562

>  <SCORE.INTER.VDW>
-26.763

>  <SCORE.INTER.norm>
-1.08515

>  <SCORE.INTRA>
-1.2618

>  <SCORE.INTRA.DIHEDRAL>
0.707548

>  <SCORE.INTRA.DIHEDRAL.0>
10.9248

>  <SCORE.INTRA.POLAR>
0

>  <SCORE.INTRA.POLAR.0>
0

>  <SCORE.INTRA.REPUL>
0.0279735

>  <SCORE.INTRA.REPUL.0>
0

>  <SCORE.INTRA.SOLV>
0.0164387

>  <SCORE.INTRA.SOLV.lig_0>
-51.4104

>  <SCORE.INTRA.VDW>
-1.76366

>  <SCORE.INTRA.VDW.0>
0.110327

>  <SCORE.INTRA.norm>
-0.0394311

>  <SCORE.RESTR>
0.170588

>  <SCORE.RESTR.CAVITY>
0.170588

>  <SCORE.RESTR.norm>
0.00533089

>  <SCORE.SYSTEM>
0

>  <SCORE.SYSTEM.CONST>
0

>  <SCORE.SYSTEM.DIHEDRAL>
0

>  <SCORE.SYSTEM.SOLV>
0

>  <SCORE.SYSTEM.norm>
0

>  <SCORE.heavy>
32

>  <SCORE.norm>
-1.11925

>  <RMSD>
9.446

$$$$
lig.pdb
 OpenBabel11021811523D
libRbt.so/2013.1/901 2013/11/27
 32 34  0  0  0  0  0  0  0  0999 V2000
   -2.3208   12.0498    5.2971 P   0  0  0  0  0  0  0  0  0  0  0  0
   -1.1814   12.1918    6.2767 O   0  0  0  0  0  0  0  0  0  0  0  0
   -3.3516   11.0640    6.0705 O   0  0  0  0  0  0  0  0  0  0  0  0
   -3.1644   13.2630    4.9945 O   0  0  0  0  0  0  0  0  0  0  0  0
   -1.7211   11.6529    4.0379 O   0  0  0  0  0  0  0  0  0  0  0  0
   -1.1716   12.8469    3.3538 P   0  0  1  0  0  0  0  0  0  0  0  0
   -2.2817   13.5229    2.6420 O   0  0  0  0  0  0  0  0  0  0  0  0
   -0.5953   13.7815    4.3482 O   0  0  0  0  0  0  0  0  0  0  0  0
   -0.1218   12.4257    2.3924 O   0  0  0  0  0  0  0  0  0  0  0  0
    0.9672   13.3304    1.9538 P   0  0  1  0  0  0  0  0  0  0  0  0
    1.7102   13.9835    3.0507 O   0  0  0  0  0  0  0  0  0  0  0  0
    1.8106   12.8108    0.8543 O   0  0  0  0  0  0  0  0  0  0  0  0
    0.1593   14.5697    1.2980 O   0  0  0  0  0  0  0  0  0  0  0  0
    0.7795   15.8065    1.0005 C   0  0  0  0  0  0  0  0  0  0  0  0
    1.2658   16.5401    2.2582 C   0  0  1  0  0  0  0  0  0  0  0  0
    2.0796   17.6387    1.9012 O   0  0  0  0  0  0  0  0  0  0  0  0
    0.1411   17.2373    3.0435 C   0  0  1  0  0  0  0  0  0  0  0  0
   -0.6639   16.3854    3.8412 O   0  0  0  0  0  0  0  0  0  0  0  0
    0.8851   18.2886    3.8667 C   0  0  1  0  0  0  0  0  0  0  0  0
    1.2617   17.8007    5.1423 O   0  0  0  0  0  0  0  0  0  0  0  0
    2.1457   18.4935    3.0287 C   0  0  2  0  0  0  0  0  0  0  0  0
    2.4212   19.8900    2.6288 N   0  0  0  0  0  0  0  0  0  0  0  0
    1.5821   20.8608    2.1433 C   0  0  0  0  0  0  0  0  0  0  0  0
    2.1898   21.9662    1.7974 N   0  0  0  0  0  0  0  0  0  0  0  0
    3.5275   21.7259    2.0963 C   0  0  0  0  0  0  0  0  0  0  0  0
    4.6894   22.5405    1.9054 C   0  0  0  0  0  0  0  0  0  0  0  0
    4.7514   23.6508    1.3813 O   0  0  0  0  0  0  0  0  0  0  0  0
    5.8609   21.9341    2.3787 N   0  0  0  0  0  0  0  0  0  0  0  0
    5.8900   20.6943    2.9991 C   0  0  0  0  0  0  0  0  0  0  0  0
    7.0544   20.2704    3.5030 N   0  0  0  0  0  0  0  0  0  0  0  0
    4.8054   19.9134    3.1324 N   0  0  0  0  0  0  0  0  0  0  0  0
    3.6615   20.4784    2.6582 C   0  0  0  0  0  0  0  0  0  0  0  0
  1  2  2  0  0  0  0
  1  4  1  0  0  0  0
  1  3  1  0  0  0  0
  5  1  1  0  0  0  0
  6  7  2  6  0  0  0
  6  9  1  0  0  0  0
  6  5  1  0  0  0  0
  6  8  1  0  0  0  0
 10 11  2  1  0  0  0
 10 12  1  0  0  0  0
 10 13  1  0  0  0  0
 10  9  1  0  0  0  0
 13 14  1  0  0  0  0
 15 14  1  6  0  0  0
 15 16  1  0  0  0  0
 17 19  1  0  0  0  0
 17 15  1  0  0  0  0
 17 18  1  1  0  0  0
 19 21  1  0  0  0  0
 19 20  1  1  0  0  0
 21 16  1  0  0  0  0
 21 22  1  6  0  0  0
 22 32  1  0  0  0  0
 23 22  1  0  0  0  0
 23 24  2  0  0  0  0
 24 25  1  0  0  0  0
 25 26  1  0  0  0  0
 26 27  2  0  0  0  0
 26 28  1  0  0  0  0
 29 28  1  0  0  0  0
 29 30  1  0  0  0  0
 31 29  2  0  0  0  0
 32 25  2  0  0  0  0
 32 31  1  0  0  0  0
M  END
>  <CHROM.1>
-80.55601830,-155.26470683,-82.20259217,166.09439823,51.47570219,-64.95392316
169.59703850,-178.21108197,-53.95866920,80.28045088,1.03505154,16.28050848
3.12968012,2.37203304,-0.70243447,-2.74877645

>  <Name>
lig.pdb

>  <RI>
0

>  <Rbt.Current_Directory>
/home/itssahil/PROJECTS/Mol_Feturizer/New_Systems/rnas/5lwj

>  <Rbt.Executable>
rbdock ($Id: //depot/dev/client3/rdock/2013.1/src/exe/rbdock.cxx#4 $)

>  <Rbt.Library>
libRbt.so (2013.1, Build901 2013/11/27)

>  <Rbt.Parameter_File>
/export/apps/rDock/src/rDock_2013.1_src/data/scripts/dock_solv.prm

>  <Rbt.Receptor>
prm/pocket_docking_6.prm

>  <SCORE>
-38.152

>  <SCORE.INTER>
-36.4728

>  <SCORE.INTER.CONST>
1

>  <SCORE.INTER.POLAR>
-4.61876

>  <SCORE.INTER.ROT>
8

>  <SCORE.INTER.SOLV>
21.979

>  <SCORE.INTER.VDW>
-25.179

>  <SCORE.INTER.norm>
-1.13977

>  <SCORE.INTRA>
-1.67927

>  <SCORE.INTRA.DIHEDRAL>
-4.95735

>  <SCORE.INTRA.DIHEDRAL.0>
10.9248

>  <SCORE.INTRA.POLAR>
0

>  <SCORE.INTRA.POLAR.0>
0

>  <SCORE.INTRA.REPUL>
0

>  <SCORE.INTRA.REPUL.0>
0

>  <SCORE.INTRA.SOLV>
1.77982

>  <SCORE.INTRA.SOLV.lig_0>
-51.4104

>  <SCORE.INTRA.VDW>
-0.0905077

>  <SCORE.INTRA.VDW.0>
0.110327

>  <SCORE.INTRA.norm>
-0.0524773

>  <SCORE.RESTR>
0

>  <SCORE.RESTR.CAVITY>
0

>  <SCORE.RESTR.norm>
0

>  <SCORE.SYSTEM>
0

>  <SCORE.SYSTEM.CONST>
0

>  <SCORE.SYSTEM.DIHEDRAL>
0

>  <SCORE.SYSTEM.SOLV>
0

>  <SCORE.SYSTEM.norm>
0

>  <SCORE.heavy>
32

>  <SCORE.norm>
-1.19225

>  <RMSD>
9.447

$$$$
lig.pdb
 OpenBabel11021811523D
libRbt.so/2013.1/901 2013/11/27
 32 34  0  0  0  0  0  0  0  0999 V2000
   -1.3006   17.7524    4.6695 P   0  0  0  0  0  0  0  0  0  0  0  0
   -0.9205   18.2276    6.0507 O   0  0  0  0  0  0  0  0  0  0  0  0
   -1.1033   16.1448    4.7652 O   0  0  0  0  0  0  0  0  0  0  0  0
   -2.7355   17.8985    4.2282 O   0  0  0  0  0  0  0  0  0  0  0  0
   -0.5125   18.5409    3.7421 O   0  0  0  0  0  0  0  0  0  0  0  0
    0.8244   17.9230    3.5796 P   0  0  1  0  0  0  0  0  0  0  0  0
    1.4970   17.9240    4.9000 O   0  0  0  0  0  0  0  0  0  0  0  0
    0.6839   16.5249    3.1101 O   0  0  0  0  0  0  0  0  0  0  0  0
    1.6142   18.7063    2.5967 O   0  0  0  0  0  0  0  0  0  0  0  0
    2.3118   19.9640    2.9551 P   0  0  1  0  0  0  0  0  0  0  0  0
    1.4333   21.0368    3.4643 O   0  0  0  0  0  0  0  0  0  0  0  0
    3.5772   19.7891    3.7023 O   0  0  0  0  0  0  0  0  0  0  0  0
    2.7653   20.5438    1.5140 O   0  0  0  0  0  0  0  0  0  0  0  0
    3.5297   19.7835    0.5974 C   0  0  0  0  0  0  0  0  0  0  0  0
    4.9603   19.5276    1.0918 C   0  0  1  0  0  0  0  0  0  0  0  0
    5.6704   18.7444    0.1544 O   0  0  0  0  0  0  0  0  0  0  0  0
    5.8317   20.7944    1.1519 C   0  0  1  0  0  0  0  0  0  0  0  0
    5.5922   21.6470    2.2591 O   0  0  0  0  0  0  0  0  0  0  0  0
    7.2572   20.2434    1.1278 C   0  0  1  0  0  0  0  0  0  0  0  0
    7.7660   20.0195    2.4309 O   0  0  0  0  0  0  0  0  0  0  0  0
    7.0488   18.8932    0.4444 C   0  0  2  0  0  0  0  0  0  0  0  0
    7.8793   18.6549   -0.7554 N   0  0  0  0  0  0  0  0  0  0  0  0
    7.9416   19.3338   -1.9461 C   0  0  0  0  0  0  0  0  0  0  0  0
    8.7276   18.7815   -2.8338 N   0  0  0  0  0  0  0  0  0  0  0  0
    9.2468   17.6675   -2.1811 C   0  0  0  0  0  0  0  0  0  0  0  0
   10.1338   16.6425   -2.6422 C   0  0  0  0  0  0  0  0  0  0  0  0
   10.6088   16.5098   -3.7683 O   0  0  0  0  0  0  0  0  0  0  0  0
   10.4425   15.7045   -1.6479 N   0  0  0  0  0  0  0  0  0  0  0  0
    9.9707   15.7784   -0.3460 C   0  0  0  0  0  0  0  0  0  0  0  0
   10.4224   14.8822    0.5385 N   0  0  0  0  0  0  0  0  0  0  0  0
    9.1009   16.7141    0.0686 N   0  0  0  0  0  0  0  0  0  0  0  0
    8.7732   17.6217   -0.8913 C   0  0  0  0  0  0  0  0  0  0  0  0
  1  2  2  0  0  0  0
  1  4  1  0  0  0  0
  1  3  1  0  0  0  0
  5  1  1  0  0  0  0
  6  7  2  1  0  0  0
  6  9  1  0  0  0  0
  6  5  1  0  0  0  0
  6  8  1  0  0  0  0
 10 11  2  1  0  0  0
 10 12  1  0  0  0  0
 10 13  1  0  0  0  0
 10  9  1  0  0  0  0
 13 14  1  0  0  0  0
 15 14  1  6  0  0  0
 15 16  1  0  0  0  0
 17 19  1  0  0  0  0
 17 15  1  0  0  0  0
 17 18  1  1  0  0  0
 19 21  1  0  0  0  0
 19 20  1  1  0  0  0
 21 16  1  0  0  0  0
 21 22  1  6  0  0  0
 22 32  1  0  0  0  0
 23 22  1  0  0  0  0
 23 24  2  0  0  0  0
 24 25  1  0  0  0  0
 25 26  1  0  0  0  0
 26 27  2  0  0  0  0
 26 28  1  0  0  0  0
 29 28  1  0  0  0  0
 29 30  1  0  0  0  0
 31 29  2  0  0  0  0
 32 25  2  0  0  0  0
 32 31  1  0  0  0  0
M  END
>  <CHROM.1>
84.42240862,80.24539562,-61.54671331,-54.65472001,-59.59289199,-68.06022330
178.85420617,-55.42881365,-53.99125261,63.32469964,4.36603038,18.43508545
1.68265461,3.05155914,0.52120650,0.02736098

>  <Name>
lig.pdb

>  <RI>
2.92062e+07

>  <Rbt.Current_Directory>
/home/itssahil/PROJECTS/Mol_Feturizer/New_Systems/rnas/5lwj

>  <Rbt.Executable>
rbdock ($Id: //depot/dev/client3/rdock/2013.1/src/exe/rbdock.cxx#4 $)

>  <Rbt.Library>
libRbt.so (2013.1, Build901 2013/11/27)

>  <Rbt.Parameter_File>
/export/apps/rDock/src/rDock_2013.1_src/data/scripts/dock_solv.prm

>  <Rbt.Receptor>
prm/pocket_docking_7.prm

>  <SCORE>
-28.9863

>  <SCORE.INTER>
-22.9205

>  <SCORE.INTER.CONST>
1

>  <SCORE.INTER.POLAR>
-4.89053

>  <SCORE.INTER.ROT>
8

>  <SCORE.INTER.SOLV>
12.184

>  <SCORE.INTER.VDW>
-11.9733

>  <SCORE.INTER.norm>
-0.716266

>  <SCORE.INTRA>
-6.06577

>  <SCORE.INTRA.DIHEDRAL>
-5.57481

>  <SCORE.INTRA.DIHEDRAL.0>
10.9248

>  <SCORE.INTRA.POLAR>
-0.0847412

>  <SCORE.INTRA.POLAR.0>
0

>  <SCORE.INTRA.REPUL>
0

>  <SCORE.INTRA.REPUL.0>
0

>  <SCORE.INTRA.SOLV>
0.654403

>  <SCORE.INTRA.SOLV.lig_0>
-51.4104

>  <SCORE.INTRA.VDW>
-3.31745

>  <SCORE.INTRA.VDW.0>
0.110327

>  <SCORE.INTRA.norm>
-0.189555

>  <SCORE.RESTR>
0

>  <SCORE.RESTR.CAVITY>
0

>  <SCORE.RESTR.norm>
0

>  <SCORE.SYSTEM>
0

>  <SCORE.SYSTEM.CONST>
0

>  <SCORE.SYSTEM.DIHEDRAL>
0

>  <SCORE.SYSTEM.SOLV>
0

>  <SCORE.SYSTEM.norm>
0

>  <SCORE.heavy>
32

>  <SCORE.norm>
-0.905822

>  <RMSD>
9.448

$$$$
lig.pdb
 OpenBabel11021811523D
libRbt.so/2013.1/901 2013/11/27
 32 34  0  0  0  0  0  0  0  0999 V2000
   -0.3926   12.1842    4.8315 P   0  0  0  0  0  0  0  0  0  0  0  0
   -1.4955   11.4554    4.1031 O   0  0  0  0  0  0  0  0  0  0  0  0
   -0.5788   11.6949    6.3672 O   0  0  0  0  0  0  0  0  0  0  0  0
    1.0376   11.8173    4.5232 O   0  0  0  0  0  0  0  0  0  0  0  0
   -0.5338   13.5835    4.4782 O   0  0  0  0  0  0  0  0  0  0  0  0
   -0.0327   13.7986    3.1004 P   0  0  1  0  0  0  0  0  0  0  0  0
   -0.3841   12.6086    2.2903 O   0  0  0  0  0  0  0  0  0  0  0  0
   -0.6758   14.9941    2.5071 O   0  0  0  0  0  0  0  0  0  0  0  0
    1.4397   13.9845    3.1340 O   0  0  0  0  0  0  0  0  0  0  0  0
    2.2206   14.3841    1.9393 P   0  0  1  0  0  0  0  0  0  0  0  0
    2.5151   13.2867    0.9955 O   0  0  0  0  0  0  0  0  0  0  0  0
    1.7941   15.6517    1.3057 O   0  0  0  0  0  0  0  0  0  0  0  0
    3.6801   14.7080    2.5587 O   0  0  0  0  0  0  0  0  0  0  0  0
    4.7737   15.1067    1.7539 C   0  0  0  0  0  0  0  0  0  0  0  0
    4.6078   16.5264    1.1944 C   0  0  1  0  0  0  0  0  0  0  0  0
    4.7371   17.4796    2.2294 O   0  0  0  0  0  0  0  0  0  0  0  0
    5.7393   16.9546    0.2435 C   0  0  1  0  0  0  0  0  0  0  0  0
    5.6686   16.4202   -1.0678 O   0  0  0  0  0  0  0  0  0  0  0  0
    5.6593   18.4808    0.2648 C   0  0  1  0  0  0  0  0  0  0  0  0
    4.8192   18.9865   -0.7577 O   0  0  0  0  0  0  0  0  0  0  0  0
    4.9918   18.7307    1.6158 C   0  0  2  0  0  0  0  0  0  0  0  0
    5.7233   19.6369    2.5267 N   0  0  0  0  0  0  0  0  0  0  0  0
    5.2586   20.5396    3.4495 C   0  0  0  0  0  0  0  0  0  0  0  0
    6.1971   21.2521    4.0173 N   0  0  0  0  0  0  0  0  0  0  0  0
    7.3753   20.7742    3.4515 C   0  0  0  0  0  0  0  0  0  0  0  0
    8.7348   21.1831    3.6370 C   0  0  0  0  0  0  0  0  0  0  0  0
    9.1545   22.1042    4.3347 O   0  0  0  0  0  0  0  0  0  0  0  0
    9.6394   20.4119    2.8947 N   0  0  0  0  0  0  0  0  0  0  0  0
    9.2649   19.3433    2.0942 C   0  0  0  0  0  0  0  0  0  0  0  0
   10.2316   18.6185    1.5200 N   0  0  0  0  0  0  0  0  0  0  0  0
    7.9848   18.9943    1.8857 N   0  0  0  0  0  0  0  0  0  0  0  0
    7.0908   19.7473    2.5829 C   0  0  0  0  0  0  0  0  0  0  0  0
  1  2  2  0  0  0  0
  1  4  1  0  0  0  0
  1  3  1  0  0  0  0
  5  1  1  0  0  0  0
  6  7  2  6  0  0  0
  6  9  1  0  0  0  0
  6  5  1  0  0  0  0
  6  8  1  0  0  0  0
 10 11  2  6  0  0  0
 10 12  1  0  0  0  0
 10 13  1  0  0  0  0
 10  9  1  0  0  0  0
 13 14  1  0  0  0  0
 15 14  1  1  0  0  0
 15 16  1  0  0  0  0
 17 19  1  0  0  0  0
 17 15  1  0  0  0  0
 17 18  1  6  0  0  0
 19 21  1  0  0  0  0
 19 20  1  6  0  0  0
 21 16  1  0  0  0  0
 21 22  1  1  0  0  0
 22 32  1  0  0  0  0
 23 22  1  0  0  0  0
 23 24  2  0  0  0  0
 24 25  1  0  0  0  0
 25 26  1  0  0  0  0
 26 27  2  0  0  0  0
 26 28  1  0  0  0  0
 29 28  1  0  0  0  0
 29 30  1  0  0  0  0
 31 29  2  0  0  0  0
 32 25  2  0  0  0  0
 32 31  1  0  0  0  0
M  END
>  <CHROM.1>
-75.68217841,-172.35696297,36.23144155,178.52700744,-79.79841849,70.69086322
70.48960150,69.63512597,-176.75073316,-89.40395354,3.76037457,16.26503623
2.57161354,3.05853366,-0.74367848,-1.88413725

>  <Name>
lig.pdb

>  <RI>
0

>  <Rbt.Current_Directory>
/home/itssahil/PROJECTS/Mol_Feturizer/New_Systems/rnas/5lwj

>  <Rbt.Executable>
rbdock ($Id: //depot/dev/client3/rdock/2013.1/src/exe/rbdock.cxx#4 $)

>  <Rbt.Library>
libRbt.so (2013.1, Build901 2013/11/27)

>  <Rbt.Parameter_File>
/export/apps/rDock/src/rDock_2013.1_src/data/scripts/dock_solv.prm

>  <Rbt.Receptor>
prm/pocket_docking_4.prm

>  <SCORE>
-30.1976

>  <SCORE.INTER>
-27.82

>  <SCORE.INTER.CONST>
1

>  <SCORE.INTER.POLAR>
-2.12704

>  <SCORE.INTER.ROT>
8

>  <SCORE.INTER.SOLV>
18.0402

>  <SCORE.INTER.VDW>
-26.4032

>  <SCORE.INTER.norm>
-0.869374

>  <SCORE.INTRA>
-2.37762

>  <SCORE.INTRA.DIHEDRAL>
-5.34843

>  <SCORE.INTRA.DIHEDRAL.0>
10.9248

>  <SCORE.INTRA.POLAR>
-0.0683326

>  <SCORE.INTRA.POLAR.0>
0

>  <SCORE.INTRA.REPUL>
0

>  <SCORE.INTRA.REPUL.0>
0

>  <SCORE.INTRA.SOLV>
0.56009

>  <SCORE.INTRA.SOLV.lig_0>
-51.4104

>  <SCORE.INTRA.VDW>
0.24888

>  <SCORE.INTRA.VDW.0>
0.110327

>  <SCORE.INTRA.norm>
-0.0743006

>  <SCORE.RESTR>
0

>  <SCORE.RESTR.CAVITY>
0

>  <SCORE.RESTR.norm>
0

>  <SCORE.SYSTEM>
0

>  <SCORE.SYSTEM.CONST>
0

>  <SCORE.SYSTEM.DIHEDRAL>
0

>  <SCORE.SYSTEM.SOLV>
0

>  <SCORE.SYSTEM.norm>
0

>  <SCORE.heavy>
32

>  <SCORE.norm>
-0.943675

>  <RMSD>
9.462

$$$$
lig.pdb
 OpenBabel11021811523D
libRbt.so/2013.1/901 2013/11/27
 32 34  0  0  0  0  0  0  0  0999 V2000
   -0.9972   11.9764    5.3995 P   0  0  0  0  0  0  0  0  0  0  0  0
    0.2006   11.2481    5.9587 O   0  0  0  0  0  0  0  0  0  0  0  0
   -1.7040   10.8577    4.4606 O   0  0  0  0  0  0  0  0  0  0  0  0
   -2.1001   12.3796    6.3461 O   0  0  0  0  0  0  0  0  0  0  0  0
   -0.4880   13.2079    4.8277 O   0  0  0  0  0  0  0  0  0  0  0  0
    0.0346   12.9423    3.4669 P   0  0  1  0  0  0  0  0  0  0  0  0
    0.9046   11.7444    3.5321 O   0  0  0  0  0  0  0  0  0  0  0  0
   -1.0862   12.6752    2.5357 O   0  0  0  0  0  0  0  0  0  0  0  0
    0.8090   14.1184    2.9971 O   0  0  0  0  0  0  0  0  0  0  0  0
    1.3586   14.2147    1.6239 P   0  0  1  0  0  0  0  0  0  0  0  0
    0.9430   13.1293    0.7123 O   0  0  0  0  0  0  0  0  0  0  0  0
    1.3315   15.5700    1.0303 O   0  0  0  0  0  0  0  0  0  0  0  0
    2.9298   13.8971    1.8453 O   0  0  0  0  0  0  0  0  0  0  0  0
    3.8111   14.8206    2.4562 C   0  0  0  0  0  0  0  0  0  0  0  0
    4.3366   15.8746    1.4716 C   0  0  1  0  0  0  0  0  0  0  0  0
    4.0335   17.1740    1.9364 O   0  0  0  0  0  0  0  0  0  0  0  0
    5.8718   15.9325    1.3859 C   0  0  1  0  0  0  0  0  0  0  0  0
    6.4790   14.9039    0.6222 O   0  0  0  0  0  0  0  0  0  0  0  0
    6.1410   17.3264    0.8195 C   0  0  1  0  0  0  0  0  0  0  0  0
    6.2173   17.3232   -0.5952 O   0  0  0  0  0  0  0  0  0  0  0  0
    4.8772   18.0741    1.2404 C   0  0  2  0  0  0  0  0  0  0  0  0
    5.1017   19.3111    2.0185 N   0  0  0  0  0  0  0  0  0  0  0  0
    4.2080   20.2199    2.5262 C   0  0  0  0  0  0  0  0  0  0  0  0
    4.7672   21.2618    3.0854 N   0  0  0  0  0  0  0  0  0  0  0  0
    6.1323   21.0201    2.9646 C   0  0  0  0  0  0  0  0  0  0  0  0
    7.2602   21.8142    3.3482 C   0  0  0  0  0  0  0  0  0  0  0  0
    7.2538   22.9366    3.8497 O   0  0  0  0  0  0  0  0  0  0  0  0
    8.4833   21.1861    3.0773 N   0  0  0  0  0  0  0  0  0  0  0  0
    8.5927   19.9165    2.5304 C   0  0  0  0  0  0  0  0  0  0  0  0
    9.8145   19.3831    2.4185 N   0  0  0  0  0  0  0  0  0  0  0  0
    7.5334   19.1957    2.1278 N   0  0  0  0  0  0  0  0  0  0  0  0
    6.3372   19.8005    2.3640 C   0  0  0  0  0  0  0  0  0  0  0  0
  1  2  2  0  0  0  0
  1  4  1  0  0  0  0
  1  3  1  0  0  0  0
  5  1  1  0  0  0  0
  6  7  2  1  0  0  0
  6  9  1  0  0  0  0
  6  5  1  0  0  0  0
  6  8  1  0  0  0  0
 10 11  2  6  0  0  0
 10 12  1  0  0  0  0
 10 13  1  0  0  0  0
 10  9  1  0  0  0  0
 13 14  1  0  0  0  0
 15 14  1  1  0  0  0
 15 16  1  0  0  0  0
 17 19  1  0  0  0  0
 17 15  1  0  0  0  0
 17 18  1  6  0  0  0
 19 21  1  0  0  0  0
 19 20  1  6  0  0  0
 21 16  1  0  0  0  0
 21 22  1  1  0  0  0
 22 32  1  0  0  0  0
 23 22  1  0  0  0  0
 23 24  2  0  0  0  0
 24 25  1  0  0  0  0
 25 26  1  0  0  0  0
 26 27  2  0  0  0  0
 26 28  1  0  0  0  0
 29 28  1  0  0  0  0
 29 30  1  0  0  0  0
 31 29  2  0  0  0  0
 32 25  2  0  0  0  0
 32 31  1  0  0  0  0
M  END
>  <CHROM.1>
82.47240446,-174.32988412,-47.80409613,-72.70938587,6.92380519,-82.92543352
123.28831246,-62.96019248,-52.90839494,-57.03492397,3.25912036,15.92051218
2.73215689,2.70268516,-0.70293172,-2.42235542

>  <Name>
lig.pdb

>  <RI>
0

>  <Rbt.Current_Directory>
/home/itssahil/PROJECTS/Mol_Feturizer/New_Systems/rnas/5lwj

>  <Rbt.Executable>
rbdock ($Id: //depot/dev/client3/rdock/2013.1/src/exe/rbdock.cxx#4 $)

>  <Rbt.Library>
libRbt.so (2013.1, Build901 2013/11/27)

>  <Rbt.Parameter_File>
/export/apps/rDock/src/rDock_2013.1_src/data/scripts/dock_solv.prm

>  <Rbt.Receptor>
prm/pocket_docking_3.prm

>  <SCORE>
-35.0551

>  <SCORE.INTER>
-34.8896

>  <SCORE.INTER.CONST>
1

>  <SCORE.INTER.POLAR>
-3.24946

>  <SCORE.INTER.ROT>
8

>  <SCORE.INTER.SOLV>
19.8567

>  <SCORE.INTER.VDW>
-27.9804

>  <SCORE.INTER.norm>
-1.0903

>  <SCORE.INTRA>
-0.204494

>  <SCORE.INTRA.DIHEDRAL>
2.86611

>  <SCORE.INTRA.DIHEDRAL.0>
10.9248

>  <SCORE.INTRA.POLAR>
-0.0373123

>  <SCORE.INTRA.POLAR.0>
0

>  <SCORE.INTRA.REPUL>
0

>  <SCORE.INTRA.REPUL.0>
0

>  <SCORE.INTRA.SOLV>
0.299146

>  <SCORE.INTRA.SOLV.lig_0>
-51.4104

>  <SCORE.INTRA.VDW>
-1.66026

>  <SCORE.INTRA.VDW.0>
0.110327

>  <SCORE.INTRA.norm>
-0.00639045

>  <SCORE.RESTR>
0.0389868

>  <SCORE.RESTR.CAVITY>
0.0389868

>  <SCORE.RESTR.norm>
0.00121834

>  <SCORE.SYSTEM>
0

>  <SCORE.SYSTEM.CONST>
0

>  <SCORE.SYSTEM.DIHEDRAL>
0

>  <SCORE.SYSTEM.SOLV>
0

>  <SCORE.SYSTEM.norm>
0

>  <SCORE.heavy>
32

>  <SCORE.norm>
-1.09547

>  <RMSD>
9.472

$$$$
lig.pdb
 OpenBabel11021811523D
libRbt.so/2013.1/901 2013/11/27
 32 34  0  0  0  0  0  0  0  0999 V2000
   -0.8470   12.0892    5.0804 P   0  0  0  0  0  0  0  0  0  0  0  0
   -0.0015   11.4742    6.1690 O   0  0  0  0  0  0  0  0  0  0  0  0
   -1.7675   10.8490    4.5833 O   0  0  0  0  0  0  0  0  0  0  0  0
   -1.8598   13.1393    5.4632 O   0  0  0  0  0  0  0  0  0  0  0  0
    0.0781   12.7358    4.1700 O   0  0  0  0  0  0  0  0  0  0  0  0
   -0.6782   13.3733    3.0667 P   0  0  1  0  0  0  0  0  0  0  0  0
   -1.7056   12.4143    2.5969 O   0  0  0  0  0  0  0  0  0  0  0  0
   -1.3498   14.6004    3.5543 O   0  0  0  0  0  0  0  0  0  0  0  0
    0.2532   13.7150    1.9625 O   0  0  0  0  0  0  0  0  0  0  0  0
    1.3417   14.7092    2.1161 P   0  0  1  0  0  0  0  0  0  0  0  0
    1.0088   15.8656    2.9727 O   0  0  0  0  0  0  0  0  0  0  0  0
    2.6880   14.1367    2.3396 O   0  0  0  0  0  0  0  0  0  0  0  0
    1.4222   15.3803    0.6458 O   0  0  0  0  0  0  0  0  0  0  0  0
    1.5956   14.6119   -0.5298 C   0  0  0  0  0  0  0  0  0  0  0  0
    3.0187   14.7130   -1.0963 C   0  0  1  0  0  0  0  0  0  0  0  0
    3.3317   16.0572   -1.3988 O   0  0  0  0  0  0  0  0  0  0  0  0
    4.1181   14.3668   -0.0768 C   0  0  1  0  0  0  0  0  0  0  0  0
    4.3058   12.9835    0.1711 O   0  0  0  0  0  0  0  0  0  0  0  0
    5.3624   15.0370   -0.6588 C   0  0  1  0  0  0  0  0  0  0  0  0
    6.0912   14.1669   -1.5067 O   0  0  0  0  0  0  0  0  0  0  0  0
    4.7412   16.1434   -1.5094 C   0  0  2  0  0  0  0  0  0  0  0  0
    5.2204   17.5115   -1.2186 N   0  0  0  0  0  0  0  0  0  0  0  0
    6.1347   17.9596   -0.2989 C   0  0  0  0  0  0  0  0  0  0  0  0
    6.2453   19.2619   -0.2485 N   0  0  0  0  0  0  0  0  0  0  0  0
    5.3597   19.7157   -1.2213 C   0  0  0  0  0  0  0  0  0  0  0  0
    5.0022   21.0455   -1.6134 C   0  0  0  0  0  0  0  0  0  0  0  0
    5.3924   22.1040   -1.1249 O   0  0  0  0  0  0  0  0  0  0  0  0
    4.0843   21.0708   -2.6720 N   0  0  0  0  0  0  0  0  0  0  0  0
    3.6001   19.9326   -3.2991 C   0  0  0  0  0  0  0  0  0  0  0  0
    2.8106   20.0908   -4.3674 N   0  0  0  0  0  0  0  0  0  0  0  0
    3.9010   18.6872   -2.8964 N   0  0  0  0  0  0  0  0  0  0  0  0
    4.7755   18.6442   -1.8544 C   0  0  0  0  0  0  0  0  0  0  0  0
  1  2  2  0  0  0  0
  1  4  1  0  0  0  0
  1  3  1  0  0  0  0
  5  1  1  0  0  0  0
  6  7  2  6  0  0  0
  6  9  1  0  0  0  0
  6  5  1  0  0  0  0
  6  8  1  0  0  0  0
 10 11  2  1  0  0  0
 10 12  1  0  0  0  0
 10 13  1  0  0  0  0
 10  9  1  0  0  0  0
 13 14  1  0  0  0  0
 15 14  1  1  0  0  0
 15 16  1  0  0  0  0
 17 19  1  0  0  0  0
 17 15  1  0  0  0  0
 17 18  1  6  0  0  0
 19 21  1  0  0  0  0
 19 20  1  6  0  0  0
 21 16  1  0  0  0  0
 21 22  1  1  0  0  0
 22 32  1  0  0  0  0
 23 22  1  0  0  0  0
 23 24  2  0  0  0  0
 24 25  1  0  0  0  0
 25 26  1  0  0  0  0
 26 27  2  0  0  0  0
 26 28  1  0  0  0  0
 29 28  1  0  0  0  0
 29 30  1  0  0  0  0
 31 29  2  0  0  0  0
 32 25  2  0  0  0  0
 32 31  1  0  0  0  0
M  END
>  <CHROM.1>
-179.78781850,-64.48578400,-44.78629398,-54.47863078,-36.06340447,-105.08004229
-59.07588763,171.94097245,179.72971429,123.85293048,2.24402984,15.52185206
0.93074691,2.24364059,-0.57895329,2.79462803

>  <Name>
lig.pdb

>  <RI>
0

>  <Rbt.Current_Directory>
/home/itssahil/PROJECTS/Mol_Feturizer/New_Systems/rnas/5lwj

>  <Rbt.Executable>
rbdock ($Id: //depot/dev/client3/rdock/2013.1/src/exe/rbdock.cxx#4 $)

>  <Rbt.Library>
libRbt.so (2013.1, Build901 2013/11/27)

>  <Rbt.Parameter_File>
/export/apps/rDock/src/rDock_2013.1_src/data/scripts/dock_solv.prm

>  <Rbt.Receptor>
prm/pocket_docking_4.prm

>  <SCORE>
-20.7575

>  <SCORE.INTER>
-19.9682

>  <SCORE.INTER.CONST>
1

>  <SCORE.INTER.POLAR>
-2.61951

>  <SCORE.INTER.ROT>
8

>  <SCORE.INTER.SOLV>
14.51

>  <SCORE.INTER.VDW>
-18.3504

>  <SCORE.INTER.norm>
-0.624005

>  <SCORE.INTRA>
-0.789337

>  <SCORE.INTRA.DIHEDRAL>
0.118219

>  <SCORE.INTRA.DIHEDRAL.0>
10.9248

>  <SCORE.INTRA.POLAR>
0

>  <SCORE.INTRA.POLAR.0>
0

>  <SCORE.INTRA.REPUL>
0.0213937

>  <SCORE.INTRA.REPUL.0>
0

>  <SCORE.INTRA.SOLV>
-0.128439

>  <SCORE.INTRA.SOLV.lig_0>
-51.4104

>  <SCORE.INTRA.VDW>
-0.891195

>  <SCORE.INTRA.VDW.0>
0.110327

>  <SCORE.INTRA.norm>
-0.0246668

>  <SCORE.RESTR>
0

>  <SCORE.RESTR.CAVITY>
0

>  <SCORE.RESTR.norm>
0

>  <SCORE.SYSTEM>
0

>  <SCORE.SYSTEM.CONST>
0

>  <SCORE.SYSTEM.DIHEDRAL>
0

>  <SCORE.SYSTEM.SOLV>
0

>  <SCORE.SYSTEM.norm>
0

>  <SCORE.heavy>
32

>  <SCORE.norm>
-0.648672

>  <RMSD>
9.482

$$$$
lig.pdb
 OpenBabel11021811523D
libRbt.so/2013.1/901 2013/11/27
 32 34  0  0  0  0  0  0  0  0999 V2000
   -2.4438   13.1936    3.8180 P   0  0  0  0  0  0  0  0  0  0  0  0
   -2.8289   13.4937    2.3899 O   0  0  0  0  0  0  0  0  0  0  0  0
   -2.0230   14.6485    4.4002 O   0  0  0  0  0  0  0  0  0  0  0  0
   -3.5194   12.7379    4.7723 O   0  0  0  0  0  0  0  0  0  0  0  0
   -1.4780   12.1138    3.7556 O   0  0  0  0  0  0  0  0  0  0  0  0
   -0.1843   12.6358    3.2560 P   0  0  1  0  0  0  0  0  0  0  0  0
    0.2047   13.7900    4.1001 O   0  0  0  0  0  0  0  0  0  0  0  0
    0.8590   11.5891    3.3583 O   0  0  0  0  0  0  0  0  0  0  0  0
   -0.3356   13.0582    1.8410 O   0  0  0  0  0  0  0  0  0  0  0  0
    0.7716   13.6700    1.0686 P   0  0  1  0  0  0  0  0  0  0  0  0
    1.9817   12.8314    0.9495 O   0  0  0  0  0  0  0  0  0  0  0  0
    0.3639   14.3544   -0.1786 O   0  0  0  0  0  0  0  0  0  0  0  0
    1.2713   14.8610    2.0434 O   0  0  0  0  0  0  0  0  0  0  0  0
    1.8504   16.0535    1.5481 C   0  0  0  0  0  0  0  0  0  0  0  0
    3.2595   15.8335    0.9804 C   0  0  1  0  0  0  0  0  0  0  0  0
    3.7730   17.0428    0.4603 O   0  0  0  0  0  0  0  0  0  0  0  0
    4.3123   15.4908    2.0490 C   0  0  1  0  0  0  0  0  0  0  0  0
    4.2859   14.1553    2.5244 O   0  0  0  0  0  0  0  0  0  0  0  0
    5.6338   15.8505    1.3705 C   0  0  1  0  0  0  0  0  0  0  0  0
    6.1991   14.7484    0.6828 O   0  0  0  0  0  0  0  0  0  0  0  0
    5.1759   16.8856    0.3446 C   0  0  2  0  0  0  0  0  0  0  0  0
    5.8698   18.1897    0.4066 N   0  0  0  0  0  0  0  0  0  0  0  0
    5.3958   19.4623    0.2113 C   0  0  0  0  0  0  0  0  0  0  0  0
    6.3203   20.3868    0.2480 N   0  0  0  0  0  0  0  0  0  0  0  0
    7.4924   19.6843    0.5112 C   0  0  0  0  0  0  0  0  0  0  0  0
    8.8466   20.1347    0.6274 C   0  0  0  0  0  0  0  0  0  0  0  0
    9.2749   21.2768    0.4745 O   0  0  0  0  0  0  0  0  0  0  0  0
    9.7382   19.0987    0.9367 N   0  0  0  0  0  0  0  0  0  0  0  0
    9.3492   17.7840    1.1449 C   0  0  0  0  0  0  0  0  0  0  0  0
   10.2799   16.9077    1.5393 N   0  0  0  0  0  0  0  0  0  0  0  0
    8.0854   17.3577    0.9873 N   0  0  0  0  0  0  0  0  0  0  0  0
    7.2089   18.3480    0.6655 C   0  0  0  0  0  0  0  0  0  0  0  0
  1  2  2  0  0  0  0
  1  4  1  0  0  0  0
  1  3  1  0  0  0  0
  5  1  1  0  0  0  0
  6  7  2  1  0  0  0
  6  9  1  0  0  0  0
  6  5  1  0  0  0  0
  6  8  1  0  0  0  0
 10 11  2  6  0  0  0
 10 12  1  0  0  0  0
 10 13  1  0  0  0  0
 10  9  1  0  0  0  0
 13 14  1  0  0  0  0
 15 14  1  1  0  0  0
 15 16  1  0  0  0  0
 17 19  1  0  0  0  0
 17 15  1  0  0  0  0
 17 18  1  6  0  0  0
 19 21  1  0  0  0  0
 19 20  1  6  0  0  0
 21 16  1  0  0  0  0
 21 22  1  1  0  0  0
 22 32  1  0  0  0  0
 23 22  1  0  0  0  0
 23 24  2  0  0  0  0
 24 25  1  0  0  0  0
 25 26  1  0  0  0  0
 26 27  2  0  0  0  0
 26 28  1  0  0  0  0
 29 28  1  0  0  0  0
 29 30  1  0  0  0  0
 31 29  2  0  0  0  0
 32 25  2  0  0  0  0
 32 31  1  0  0  0  0
M  END
>  <CHROM.1>
73.39450742,177.81315992,53.43532442,-150.62736570,59.00299901,-71.24441166
178.05956727,-179.97233578,-50.67510273,-18.88825935,3.02311770,15.46432458
1.82149881,2.57101327,-0.11483596,2.90463294

>  <Name>
lig.pdb

>  <RI>
0

>  <Rbt.Current_Directory>
/home/itssahil/PROJECTS/Mol_Feturizer/New_Systems/rnas/5lwj

>  <Rbt.Executable>
rbdock ($Id: //depot/dev/client3/rdock/2013.1/src/exe/rbdock.cxx#4 $)

>  <Rbt.Library>
libRbt.so (2013.1, Build901 2013/11/27)

>  <Rbt.Parameter_File>
/export/apps/rDock/src/rDock_2013.1_src/data/scripts/dock_solv.prm

>  <Rbt.Receptor>
prm/pocket_docking_4.prm

>  <SCORE>
-36.4242

>  <SCORE.INTER>
-33.1717

>  <SCORE.INTER.CONST>
1

>  <SCORE.INTER.POLAR>
-3.52365

>  <SCORE.INTER.ROT>
8

>  <SCORE.INTER.SOLV>
18.4724

>  <SCORE.INTER.VDW>
-25.4598

>  <SCORE.INTER.norm>
-1.03662

>  <SCORE.INTRA>
-3.29843

>  <SCORE.INTRA.DIHEDRAL>
-5.20066

>  <SCORE.INTRA.DIHEDRAL.0>
10.9248

>  <SCORE.INTRA.POLAR>
0

>  <SCORE.INTRA.POLAR.0>
0

>  <SCORE.INTRA.REPUL>
0

>  <SCORE.INTRA.REPUL.0>
0

>  <SCORE.INTRA.SOLV>
2.81519

>  <SCORE.INTRA.SOLV.lig_0>
-51.4104

>  <SCORE.INTRA.VDW>
-2.10569

>  <SCORE.INTRA.VDW.0>
0.110327

>  <SCORE.INTRA.norm>
-0.103076

>  <SCORE.RESTR>
0.0460272

>  <SCORE.RESTR.CAVITY>
0.0460272

>  <SCORE.RESTR.norm>
0.00143835

>  <SCORE.SYSTEM>
0

>  <SCORE.SYSTEM.CONST>
0

>  <SCORE.SYSTEM.DIHEDRAL>
0

>  <SCORE.SYSTEM.SOLV>
0

>  <SCORE.SYSTEM.norm>
0

>  <SCORE.heavy>
32

>  <SCORE.norm>
-1.13825

>  <RMSD>
9.489

$$$$
lig.pdb
 OpenBabel11021811523D
libRbt.so/2013.1/901 2013/11/27
 32 34  0  0  0  0  0  0  0  0999 V2000
   -1.6905   12.2221    5.1515 P   0  0  0  0  0  0  0  0  0  0  0  0
   -2.6837   11.1825    5.6107 O   0  0  0  0  0  0  0  0  0  0  0  0
   -2.3423   13.6121    5.6765 O   0  0  0  0  0  0  0  0  0  0  0  0
   -0.3165   12.2283    5.7738 O   0  0  0  0  0  0  0  0  0  0  0  0
   -1.4892   11.9876    3.7348 O   0  0  0  0  0  0  0  0  0  0  0  0
   -1.3847   13.2860    3.0286 P   0  0  1  0  0  0  0  0  0  0  0  0
   -2.6963   13.9693    3.1223 O   0  0  0  0  0  0  0  0  0  0  0  0
   -0.3522   14.1319    3.6714 O   0  0  0  0  0  0  0  0  0  0  0  0
   -1.0263   13.0479    1.6079 O   0  0  0  0  0  0  0  0  0  0  0  0
   -0.7449   14.1525    0.6604 P   0  0  1  0  0  0  0  0  0  0  0  0
   -0.8106   13.7771   -0.7666 O   0  0  0  0  0  0  0  0  0  0  0  0
   -1.3855   15.4442    0.9939 O   0  0  0  0  0  0  0  0  0  0  0  0
    0.8374   14.4136    0.8764 O   0  0  0  0  0  0  0  0  0  0  0  0
    1.8212   13.4755    0.4828 C   0  0  0  0  0  0  0  0  0  0  0  0
    3.2498   13.9816    0.7261 C   0  0  1  0  0  0  0  0  0  0  0  0
    3.6016   14.9437   -0.2471 O   0  0  0  0  0  0  0  0  0  0  0  0
    3.4084   14.7910    2.0252 C   0  0  1  0  0  0  0  0  0  0  0  0
    3.4674   14.0254    3.2170 O   0  0  0  0  0  0  0  0  0  0  0  0
    4.6797   15.6038    1.7814 C   0  0  1  0  0  0  0  0  0  0  0  0
    5.8397   14.9329    2.2411 O   0  0  0  0  0  0  0  0  0  0  0  0
    4.7172   15.6576    0.2552 C   0  0  2  0  0  0  0  0  0  0  0  0
    4.7955   17.0132   -0.3298 N   0  0  0  0  0  0  0  0  0  0  0  0
    3.9988   18.1139   -0.1397 C   0  0  0  0  0  0  0  0  0  0  0  0
    4.3047   19.1312   -0.9028 N   0  0  0  0  0  0  0  0  0  0  0  0
    5.3997   18.6870   -1.6379 C   0  0  0  0  0  0  0  0  0  0  0  0
    6.1570   19.3300   -2.6689 C   0  0  0  0  0  0  0  0  0  0  0  0
    5.9636   20.4386   -3.1637 O   0  0  0  0  0  0  0  0  0  0  0  0
    7.2177   18.5415   -3.1349 N   0  0  0  0  0  0  0  0  0  0  0  0
    7.5259   17.2878   -2.6287 C   0  0  0  0  0  0  0  0  0  0  0  0
    8.6274   16.6795   -3.0830 N   0  0  0  0  0  0  0  0  0  0  0  0
    6.7839   16.6691   -1.6957 N   0  0  0  0  0  0  0  0  0  0  0  0
    5.7361   17.4127   -1.2468 C   0  0  0  0  0  0  0  0  0  0  0  0
  1  2  2  0  0  0  0
  1  4  1  0  0  0  0
  1  3  1  0  0  0  0
  5  1  1  0  0  0  0
  6  7  2  1  0  0  0
  6  9  1  0  0  0  0
  6  5  1  0  0  0  0
  6  8  1  0  0  0  0
 10 11  2  6  0  0  0
 10 12  1  0  0  0  0
 10 13  1  0  0  0  0
 10  9  1  0  0  0  0
 13 14  1  0  0  0  0
 15 14  1  6  0  0  0
 15 16  1  0  0  0  0
 17 19  1  0  0  0  0
 17 15  1  0  0  0  0
 17 18  1  1  0  0  0
 19 21  1  0  0  0  0
 19 20  1  6  0  0  0
 21 16  1  0  0  0  0
 21 22  1  1  0  0  0
 22 32  1  0  0  0  0
 23 22  1  0  0  0  0
 23 24  2  0  0  0  0
 24 25  1  0  0  0  0
 25 26  1  0  0  0  0
 26 27  2  0  0  0  0
 26 28  1  0  0  0  0
 29 28  1  0  0  0  0
 29 30  1  0  0  0  0
 31 29  2  0  0  0  0
 32 25  2  0  0  0  0
 32 31  1  0  0  0  0
M  END
>  <CHROM.1>
140.85929369,-175.18481045,-66.08043315,68.46049452,-162.30628553,177.03185823
-75.27045816,-179.09357484,57.07963366,70.16862320,2.02658352,15.01019837
1.20897168,-2.37479999,-0.09408122,-0.95678074

>  <Name>
lig.pdb

>  <RI>
1.82117e+07

>  <Rbt.Current_Directory>
/home/itssahil/PROJECTS/Mol_Feturizer/New_Systems/rnas/5lwj

>  <Rbt.Executable>
rbdock ($Id: //depot/dev/client3/rdock/2013.1/src/exe/rbdock.cxx#4 $)

>  <Rbt.Library>
libRbt.so (2013.1, Build901 2013/11/27)

>  <Rbt.Parameter_File>
/export/apps/rDock/src/rDock_2013.1_src/data/scripts/dock_solv.prm

>  <Rbt.Receptor>
prm/pocket_docking_5.prm

>  <SCORE>
-26.6304

>  <SCORE.INTER>
-20.807

>  <SCORE.INTER.CONST>
1

>  <SCORE.INTER.POLAR>
-1.98327

>  <SCORE.INTER.ROT>
8

>  <SCORE.INTER.SOLV>
18.4855

>  <SCORE.INTER.VDW>
-22.3556

>  <SCORE.INTER.norm>
-0.650218

>  <SCORE.INTRA>
-5.82343

>  <SCORE.INTRA.DIHEDRAL>
-4.50206

>  <SCORE.INTRA.DIHEDRAL.0>
10.9248

>  <SCORE.INTRA.POLAR>
0

>  <SCORE.INTRA.POLAR.0>
0

>  <SCORE.INTRA.REPUL>
0

>  <SCORE.INTRA.REPUL.0>
0

>  <SCORE.INTRA.SOLV>
-1.47523

>  <SCORE.INTRA.SOLV.lig_0>
-51.4104

>  <SCORE.INTRA.VDW>
-2.83478

>  <SCORE.INTRA.VDW.0>
0.110327

>  <SCORE.INTRA.norm>
-0.181982

>  <SCORE.RESTR>
0

>  <SCORE.RESTR.CAVITY>
0

>  <SCORE.RESTR.norm>
0

>  <SCORE.SYSTEM>
0

>  <SCORE.SYSTEM.CONST>
0

>  <SCORE.SYSTEM.DIHEDRAL>
0

>  <SCORE.SYSTEM.SOLV>
0

>  <SCORE.SYSTEM.norm>
0

>  <SCORE.heavy>
32

>  <SCORE.norm>
-0.8322

>  <RMSD>
9.490

$$$$
lig.pdb
 OpenBabel11021811523D
libRbt.so/2013.1/901 2013/11/27
 32 34  0  0  0  0  0  0  0  0999 V2000
    0.1270   11.4461    5.4718 P   0  0  0  0  0  0  0  0  0  0  0  0
   -0.7866   12.0818    6.4911 O   0  0  0  0  0  0  0  0  0  0  0  0
    1.4679   12.3554    5.5603 O   0  0  0  0  0  0  0  0  0  0  0  0
    0.6377   10.0513    5.7345 O   0  0  0  0  0  0  0  0  0  0  0  0
   -0.6355   11.3697    4.2407 O   0  0  0  0  0  0  0  0  0  0  0  0
   -0.3994   12.5914    3.4362 P   0  0  1  0  0  0  0  0  0  0  0  0
   -1.4681   12.6846    2.4139 O   0  0  0  0  0  0  0  0  0  0  0  0
   -0.4560   13.7902    4.3049 O   0  0  0  0  0  0  0  0  0  0  0  0
    0.9321   12.5045    2.7856 O   0  0  0  0  0  0  0  0  0  0  0  0
    1.2221   13.1342    1.4755 P   0  0  1  0  0  0  0  0  0  0  0  0
    2.4771   12.6874    0.8373 O   0  0  0  0  0  0  0  0  0  0  0  0
    0.0637   13.2432    0.5610 O   0  0  0  0  0  0  0  0  0  0  0  0
    1.5665   14.6621    1.8823 O   0  0  0  0  0  0  0  0  0  0  0  0
    2.8921   15.1561    1.9206 C   0  0  0  0  0  0  0  0  0  0  0  0
    2.9612   16.6764    1.7203 C   0  0  1  0  0  0  0  0  0  0  0  0
    4.1951   17.1776    2.1921 O   0  0  0  0  0  0  0  0  0  0  0  0
    3.0030   17.1062    0.2434 C   0  0  1  0  0  0  0  0  0  0  0  0
    1.7610   17.0640   -0.4392 O   0  0  0  0  0  0  0  0  0  0  0  0
    3.5974   18.5131    0.3022 C   0  0  1  0  0  0  0  0  0  0  0  0
    2.5980   19.5121    0.4034 O   0  0  0  0  0  0  0  0  0  0  0  0
    4.3723   18.4602    1.6176 C   0  0  2  0  0  0  0  0  0  0  0  0
    5.8048   18.8141    1.5244 N   0  0  0  0  0  0  0  0  0  0  0  0
    6.7693   18.4028    0.6397 C   0  0  0  0  0  0  0  0  0  0  0  0
    7.9687   18.8463    0.9147 N   0  0  0  0  0  0  0  0  0  0  0  0
    7.7886   19.6302    2.0503 C   0  0  0  0  0  0  0  0  0  0  0  0
    8.7338   20.3493    2.8499 C   0  0  0  0  0  0  0  0  0  0  0  0
    9.9548   20.3928    2.7137 O   0  0  0  0  0  0  0  0  0  0  0  0
    8.1313   21.0503    3.9032 N   0  0  0  0  0  0  0  0  0  0  0  0
    6.7631   21.0766    4.1280 C   0  0  0  0  0  0  0  0  0  0  0  0
    6.3009   21.8686    5.1020 N   0  0  0  0  0  0  0  0  0  0  0  0
    5.8856   20.3619    3.4048 N   0  0  0  0  0  0  0  0  0  0  0  0
    6.4567   19.6575    2.3898 C   0  0  0  0  0  0  0  0  0  0  0  0
  1  2  2  0  0  0  0
  1  4  1  0  0  0  0
  1  3  1  0  0  0  0
  5  1  1  0  0  0  0
  6  7  2  6  0  0  0
  6  9  1  0  0  0  0
  6  5  1  0  0  0  0
  6  8  1  0  0  0  0
 10 11  2  6  0  0  0
 10 12  1  0  0  0  0
 10 13  1  0  0  0  0
 10  9  1  0  0  0  0
 13 14  1  0  0  0  0
 15 14  1  6  0  0  0
 15 16  1  0  0  0  0
 17 19  1  0  0  0  0
 17 15  1  0  0  0  0
 17 18  1  1  0  0  0
 19 21  1  0  0  0  0
 19 20  1  1  0  0  0
 21 16  1  0  0  0  0
 21 22  1  6  0  0  0
 22 32  1  0  0  0  0
 23 22  1  0  0  0  0
 23 24  2  0  0  0  0
 24 25  1  0  0  0  0
 25 26  1  0  0  0  0
 26 27  2  0  0  0  0
 26 28  1  0  0  0  0
 29 28  1  0  0  0  0
 29 30  1  0  0  0  0
 31 29  2  0  0  0  0
 32 25  2  0  0  0  0
 32 31  1  0  0  0  0
M  END
>  <CHROM.1>
91.47789274,149.13882823,-163.22494860,103.30342462,-166.29377384,154.92019598
160.77349272,54.82301230,59.05838657,77.08098482,2.99636567,15.80414005,2.70495649
-2.74955450,-0.78575913,-1.21796121

>  <Name>
lig.pdb

>  <RI>
0

>  <Rbt.Current_Directory>
/home/itssahil/PROJECTS/Mol_Feturizer/New_Systems/rnas/5lwj

>  <Rbt.Executable>
rbdock ($Id: //depot/dev/client3/rdock/2013.1/src/exe/rbdock.cxx#4 $)

>  <Rbt.Library>
libRbt.so (2013.1, Build901 2013/11/27)

>  <Rbt.Parameter_File>
/export/apps/rDock/src/rDock_2013.1_src/data/scripts/dock_solv.prm

>  <Rbt.Receptor>
prm/pocket_docking_3.prm

>  <SCORE>
-29.8998

>  <SCORE.INTER>
-29.333

>  <SCORE.INTER.CONST>
1

>  <SCORE.INTER.POLAR>
-2.14105

>  <SCORE.INTER.ROT>
8

>  <SCORE.INTER.SOLV>
23.5034

>  <SCORE.INTER.VDW>
-29.1863

>  <SCORE.INTER.norm>
-0.916657

>  <SCORE.INTRA>
-0.784585

>  <SCORE.INTRA.DIHEDRAL>
1.75552

>  <SCORE.INTRA.DIHEDRAL.0>
10.9248

>  <SCORE.INTRA.POLAR>
0

>  <SCORE.INTRA.POLAR.0>
0

>  <SCORE.INTRA.REPUL>
0

>  <SCORE.INTRA.REPUL.0>
0

>  <SCORE.INTRA.SOLV>
-0.91064

>  <SCORE.INTRA.SOLV.lig_0>
-51.4104

>  <SCORE.INTRA.VDW>
-1.20702

>  <SCORE.INTRA.VDW.0>
0.110327

>  <SCORE.INTRA.norm>
-0.0245183

>  <SCORE.RESTR>
0.217827

>  <SCORE.RESTR.CAVITY>
0.217827

>  <SCORE.RESTR.norm>
0.00680711

>  <SCORE.SYSTEM>
0

>  <SCORE.SYSTEM.CONST>
0

>  <SCORE.SYSTEM.DIHEDRAL>
0

>  <SCORE.SYSTEM.SOLV>
0

>  <SCORE.SYSTEM.norm>
0

>  <SCORE.heavy>
32

>  <SCORE.norm>
-0.934368

>  <RMSD>
9.495

$$$$
lig.pdb
 OpenBabel11021811523D
libRbt.so/2013.1/901 2013/11/27
 32 34  0  0  0  0  0  0  0  0999 V2000
   -0.6071   11.8812    4.8488 P   0  0  0  0  0  0  0  0  0  0  0  0
   -0.1974   10.4503    5.0992 O   0  0  0  0  0  0  0  0  0  0  0  0
   -1.2533   12.3334    6.2667 O   0  0  0  0  0  0  0  0  0  0  0  0
    0.4728   12.9086    4.6181 O   0  0  0  0  0  0  0  0  0  0  0  0
   -1.4101   11.8640    3.6415 O   0  0  0  0  0  0  0  0  0  0  0  0
   -1.8574   13.2408    3.3254 P   0  0  1  0  0  0  0  0  0  0  0  0
   -3.1181   13.1505    2.5518 O   0  0  0  0  0  0  0  0  0  0  0  0
   -2.1113   13.9920    4.5767 O   0  0  0  0  0  0  0  0  0  0  0  0
   -0.8107   13.9294    2.5292 O   0  0  0  0  0  0  0  0  0  0  0  0
   -0.8305   15.3904    2.2798 P   0  0  1  0  0  0  0  0  0  0  0  0
   -0.6962   15.7789    0.8610 O   0  0  0  0  0  0  0  0  0  0  0  0
   -1.8561   16.1426    3.0363 O   0  0  0  0  0  0  0  0  0  0  0  0
    0.5792   15.8786    2.9066 O   0  0  0  0  0  0  0  0  0  0  0  0
    1.8232   15.3735    2.4593 C   0  0  0  0  0  0  0  0  0  0  0  0
    2.7964   16.4855    2.0437 C   0  0  1  0  0  0  0  0  0  0  0  0
    4.1319   16.0630    2.2293 O   0  0  0  0  0  0  0  0  0  0  0  0
    2.7811   16.7917    0.5358 C   0  0  1  0  0  0  0  0  0  0  0  0
    1.6855   17.5693    0.0828 O   0  0  0  0  0  0  0  0  0  0  0  0
    4.1279   17.4750    0.3009 C   0  0  1  0  0  0  0  0  0  0  0  0
    4.0427   18.8833    0.4298 O   0  0  0  0  0  0  0  0  0  0  0  0
    4.9534   16.9256    1.4629 C   0  0  2  0  0  0  0  0  0  0  0  0
    6.2205   16.2647    1.0839 N   0  0  0  0  0  0  0  0  0  0  0  0
    6.6421   14.9722    1.2684 C   0  0  0  0  0  0  0  0  0  0  0  0
    7.8753   14.7549    0.8903 N   0  0  0  0  0  0  0  0  0  0  0  0
    8.3000   15.9841    0.3950 C   0  0  0  0  0  0  0  0  0  0  0  0
    9.5689   16.3944   -0.1262 C   0  0  0  0  0  0  0  0  0  0  0  0
   10.5980   15.7273   -0.2116 O   0  0  0  0  0  0  0  0  0  0  0  0
    9.5731   17.7281   -0.5563 N   0  0  0  0  0  0  0  0  0  0  0  0
    8.4596   18.5538   -0.5169 C   0  0  0  0  0  0  0  0  0  0  0  0
    8.5621   19.7741   -1.0553 N   0  0  0  0  0  0  0  0  0  0  0  0
    7.2855   18.1794    0.0172 N   0  0  0  0  0  0  0  0  0  0  0  0
    7.2702   16.8924    0.4599 C   0  0  0  0  0  0  0  0  0  0  0  0
  1  2  2  0  0  0  0
  1  4  1  0  0  0  0
  1  3  1  0  0  0  0
  5  1  1  0  0  0  0
  6  7  2  6  0  0  0
  6  9  1  0  0  0  0
  6  5  1  0  0  0  0
  6  8  1  0  0  0  0
 10 11  2  6  0  0  0
 10 12  1  0  0  0  0
 10 13  1  0  0  0  0
 10  9  1  0  0  0  0
 13 14  1  0  0  0  0
 15 14  1  6  0  0  0
 15 16  1  0  0  0  0
 17 19  1  0  0  0  0
 17 15  1  0  0  0  0
 17 18  1  1  0  0  0
 19 21  1  0  0  0  0
 19 20  1  1  0  0  0
 21 16  1  0  0  0  0
 21 22  1  6  0  0  0
 22 32  1  0  0  0  0
 23 22  1  0  0  0  0
 23 24  2  0  0  0  0
 24 25  1  0  0  0  0
 25 26  1  0  0  0  0
 26 27  2  0  0  0  0
 26 28  1  0  0  0  0
 29 28  1  0  0  0  0
 29 30  1  0  0  0  0
 31 29  2  0  0  0  0
 32 25  2  0  0  0  0
 32 31  1  0  0  0  0
M  END
>  <CHROM.1>
179.90346014,-167.75138369,-153.62404091,58.65034562,-128.42520052,126.17413726
151.74820284,-61.61509477,-47.13335278,5.62352949,2.60198420,15.30515349
2.02985142,-2.61136678,0.12226179,-0.54950207

>  <Name>
lig.pdb

>  <RI>
1.82117e+07

>  <Rbt.Current_Directory>
/home/itssahil/PROJECTS/Mol_Feturizer/New_Systems/rnas/5lwj

>  <Rbt.Executable>
rbdock ($Id: //depot/dev/client3/rdock/2013.1/src/exe/rbdock.cxx#4 $)

>  <Rbt.Library>
libRbt.so (2013.1, Build901 2013/11/27)

>  <Rbt.Parameter_File>
/export/apps/rDock/src/rDock_2013.1_src/data/scripts/dock_solv.prm

>  <Rbt.Receptor>
prm/pocket_docking_5.prm

>  <SCORE>
-28.5687

>  <SCORE.INTER>
-26.4216

>  <SCORE.INTER.CONST>
1

>  <SCORE.INTER.POLAR>
-2.6474

>  <SCORE.INTER.ROT>
8

>  <SCORE.INTER.SOLV>
15.6474

>  <SCORE.INTER.VDW>
-22.9389

>  <SCORE.INTER.norm>
-0.825676

>  <SCORE.INTRA>
-2.31384

>  <SCORE.INTRA.DIHEDRAL>
5.392

>  <SCORE.INTRA.DIHEDRAL.0>
10.9248

>  <SCORE.INTRA.POLAR>
-1.0954

>  <SCORE.INTRA.POLAR.0>
0

>  <SCORE.INTRA.REPUL>
0

>  <SCORE.INTRA.REPUL.0>
0

>  <SCORE.INTRA.SOLV>
0.212088

>  <SCORE.INTRA.SOLV.lig_0>
-51.4104

>  <SCORE.INTRA.VDW>
-1.39154

>  <SCORE.INTRA.VDW.0>
0.110327

>  <SCORE.INTRA.norm>
-0.0723076

>  <SCORE.RESTR>
0.166724

>  <SCORE.RESTR.CAVITY>
0.166724

>  <SCORE.RESTR.norm>
0.00521012

>  <SCORE.SYSTEM>
0

>  <SCORE.SYSTEM.CONST>
0

>  <SCORE.SYSTEM.DIHEDRAL>
0

>  <SCORE.SYSTEM.SOLV>
0

>  <SCORE.SYSTEM.norm>
0

>  <SCORE.heavy>
32

>  <SCORE.norm>
-0.892773

>  <RMSD>
9.498

$$$$
lig.pdb
 OpenBabel11021811523D
libRbt.so/2013.1/901 2013/11/27
 32 34  0  0  0  0  0  0  0  0999 V2000
    0.5490   13.1735    2.2980 P   0  0  0  0  0  0  0  0  0  0  0  0
   -0.7336   13.0895    1.5070 O   0  0  0  0  0  0  0  0  0  0  0  0
    0.3964   14.5753    3.1006 O   0  0  0  0  0  0  0  0  0  0  0  0
    0.7821   12.1690    3.3988 O   0  0  0  0  0  0  0  0  0  0  0  0
    1.6234   12.9803    1.3435 O   0  0  0  0  0  0  0  0  0  0  0  0
    2.1427   14.2986    0.9100 P   0  0  1  0  0  0  0  0  0  0  0  0
    1.0081   15.0892    0.3772 O   0  0  0  0  0  0  0  0  0  0  0  0
    2.7320   15.0167    2.0640 O   0  0  0  0  0  0  0  0  0  0  0  0
    3.1738   14.1023   -0.1397 O   0  0  0  0  0  0  0  0  0  0  0  0
    3.3751   12.8046   -0.8270 P   0  0  1  0  0  0  0  0  0  0  0  0
    3.9523   11.7389    0.0173 O   0  0  0  0  0  0  0  0  0  0  0  0
    2.2565   12.3735   -1.6947 O   0  0  0  0  0  0  0  0  0  0  0  0
    4.5856   13.1273   -1.8514 O   0  0  0  0  0  0  0  0  0  0  0  0
    5.3823   12.1098   -2.4281 C   0  0  0  0  0  0  0  0  0  0  0  0
    6.1537   12.5937   -3.6639 C   0  0  1  0  0  0  0  0  0  0  0  0
    5.2698   12.7872   -4.7491 O   0  0  0  0  0  0  0  0  0  0  0  0
    6.7558   14.0011   -3.5074 C   0  0  1  0  0  0  0  0  0  0  0  0
    7.9387   14.0751   -2.7292 O   0  0  0  0  0  0  0  0  0  0  0  0
    6.9687   14.4562   -4.9509 C   0  0  1  0  0  0  0  0  0  0  0  0
    8.2602   14.1262   -5.4307 O   0  0  0  0  0  0  0  0  0  0  0  0
    5.9386   13.6057   -5.6920 C   0  0  2  0  0  0  0  0  0  0  0  0
    4.9784   14.3579   -6.5275 N   0  0  0  0  0  0  0  0  0  0  0  0
    5.1236   14.9112   -7.7745 C   0  0  0  0  0  0  0  0  0  0  0  0
    4.0860   15.5985   -8.1767 N   0  0  0  0  0  0  0  0  0  0  0  0
    3.1723   15.4751   -7.1343 C   0  0  0  0  0  0  0  0  0  0  0  0
    1.8666   16.0371   -6.9636 C   0  0  0  0  0  0  0  0  0  0  0  0
    1.2750   16.8071   -7.7176 O   0  0  0  0  0  0  0  0  0  0  0  0
    1.2545   15.6344   -5.7690 N   0  0  0  0  0  0  0  0  0  0  0  0
    1.8333   14.7569   -4.8646 C   0  0  0  0  0  0  0  0  0  0  0  0
    1.1044   14.3660   -3.8131 N   0  0  0  0  0  0  0  0  0  0  0  0
    3.0773   14.2706   -5.0055 N   0  0  0  0  0  0  0  0  0  0  0  0
    3.6951   14.6690   -6.1509 C   0  0  0  0  0  0  0  0  0  0  0  0
  1  2  2  0  0  0  0
  1  4  1  0  0  0  0
  1  3  1  0  0  0  0
  5  1  1  0  0  0  0
  6  7  2  6  0  0  0
  6  9  1  0  0  0  0
  6  5  1  0  0  0  0
  6  8  1  0  0  0  0
 10 11  2  1  0  0  0
 10 12  1  0  0  0  0
 10 13  1  0  0  0  0
 10  9  1  0  0  0  0
 13 14  1  0  0  0  0
 15 14  1  1  0  0  0
 15 16  1  0  0  0  0
 17 19  1  0  0  0  0
 17 15  1  0  0  0  0
 17 18  1  1  0  0  0
 19 21  1  0  0  0  0
 19 20  1  6  0  0  0
 21 16  1  0  0  0  0
 21 22  1  1  0  0  0
 22 32  1  0  0  0  0
 23 22  1  0  0  0  0
 23 24  2  0  0  0  0
 24 25  1  0  0  0  0
 25 26  1  0  0  0  0
 26 27  2  0  0  0  0
 26 28  1  0  0  0  0
 29 28  1  0  0  0  0
 29 30  1  0  0  0  0
 31 29  2  0  0  0  0
 32 25  2  0  0  0  0
 32 31  1  0  0  0  0
M  END
>  <CHROM.1>
96.43411779,12.96224981,-55.63932496,160.59033648,-69.88142319,162.26086800
-71.75780364,-61.96342486,-57.66334264,-157.03584319,3.26559343,13.94743338
-2.35901956,1.99096717,-0.28735912,1.85365573

>  <Name>
lig.pdb

>  <RI>
2.0892e+07

>  <Rbt.Current_Directory>
/home/itssahil/PROJECTS/Mol_Feturizer/New_Systems/rnas/5lwj

>  <Rbt.Executable>
rbdock ($Id: //depot/dev/client3/rdock/2013.1/src/exe/rbdock.cxx#4 $)

>  <Rbt.Library>
libRbt.so (2013.1, Build901 2013/11/27)

>  <Rbt.Parameter_File>
/export/apps/rDock/src/rDock_2013.1_src/data/scripts/dock_solv.prm

>  <Rbt.Receptor>
prm/pocket_docking_8.prm

>  <SCORE>
-18.6685

>  <SCORE.INTER>
-11.9696

>  <SCORE.INTER.CONST>
1

>  <SCORE.INTER.POLAR>
-2.04726

>  <SCORE.INTER.ROT>
8

>  <SCORE.INTER.SOLV>
10.0664

>  <SCORE.INTER.VDW>
-13.4443

>  <SCORE.INTER.norm>
-0.374049

>  <SCORE.INTRA>
-6.70349

>  <SCORE.INTRA.DIHEDRAL>
-1.61069

>  <SCORE.INTRA.DIHEDRAL.0>
10.9248

>  <SCORE.INTRA.POLAR>
-1.0041

>  <SCORE.INTRA.POLAR.0>
0

>  <SCORE.INTRA.REPUL>
0.0870518

>  <SCORE.INTRA.REPUL.0>
0

>  <SCORE.INTRA.SOLV>
0.830631

>  <SCORE.INTRA.SOLV.lig_0>
-51.4104

>  <SCORE.INTRA.VDW>
-3.33477

>  <SCORE.INTRA.VDW.0>
0.110327

>  <SCORE.INTRA.norm>
-0.209484

>  <SCORE.RESTR>
0.00456142

>  <SCORE.RESTR.CAVITY>
0.00456142

>  <SCORE.RESTR.norm>
0.000142544

>  <SCORE.SYSTEM>
0

>  <SCORE.SYSTEM.CONST>
0

>  <SCORE.SYSTEM.DIHEDRAL>
0

>  <SCORE.SYSTEM.SOLV>
0

>  <SCORE.SYSTEM.norm>
0

>  <SCORE.heavy>
32

>  <SCORE.norm>
-0.58339

>  <RMSD>
9.524

$$$$
lig.pdb
 OpenBabel11021811523D
libRbt.so/2013.1/901 2013/11/27
 32 34  0  0  0  0  0  0  0  0999 V2000
   -3.2010   14.2885    2.2495 P   0  0  0  0  0  0  0  0  0  0  0  0
   -4.0347   15.4923    1.8837 O   0  0  0  0  0  0  0  0  0  0  0  0
   -3.8846   13.7712    3.6271 O   0  0  0  0  0  0  0  0  0  0  0  0
   -3.2609   13.0740    1.3570 O   0  0  0  0  0  0  0  0  0  0  0  0
   -1.8212   14.7341    2.2298 O   0  0  0  0  0  0  0  0  0  0  0  0
   -1.0486   13.9964    3.2567 P   0  0  1  0  0  0  0  0  0  0  0  0
   -1.5350   14.4177    4.5915 O   0  0  0  0  0  0  0  0  0  0  0  0
   -1.2623   12.5385    3.1027 O   0  0  0  0  0  0  0  0  0  0  0  0
    0.3946   14.3112    3.1095 O   0  0  0  0  0  0  0  0  0  0  0  0
    1.1146   14.1690    1.8217 P   0  0  1  0  0  0  0  0  0  0  0  0
    0.8330   12.9178    1.0889 O   0  0  0  0  0  0  0  0  0  0  0  0
    1.1471   15.3875    0.9826 O   0  0  0  0  0  0  0  0  0  0  0  0
    2.6483   13.9561    2.2920 O   0  0  0  0  0  0  0  0  0  0  0  0
    3.4531   15.0224    2.7588 C   0  0  0  0  0  0  0  0  0  0  0  0
    3.9162   15.9510    1.6276 C   0  0  1  0  0  0  0  0  0  0  0  0
    4.0705   17.2706    2.1085 O   0  0  0  0  0  0  0  0  0  0  0  0
    5.3350   15.6459    1.1162 C   0  0  1  0  0  0  0  0  0  0  0  0
    5.4444   14.5261    0.2534 O   0  0  0  0  0  0  0  0  0  0  0  0
    5.7565   16.9526    0.4446 C   0  0  1  0  0  0  0  0  0  0  0  0
    5.4320   16.9741   -0.9343 O   0  0  0  0  0  0  0  0  0  0  0  0
    4.8740   17.9656    1.1716 C   0  0  2  0  0  0  0  0  0  0  0  0
    5.5920   19.0900    1.8089 N   0  0  0  0  0  0  0  0  0  0  0  0
    5.1150   20.1809    2.4906 C   0  0  0  0  0  0  0  0  0  0  0  0
    6.0397   21.0380    2.8384 N   0  0  0  0  0  0  0  0  0  0  0  0
    7.2223   20.4670    2.3779 C   0  0  0  0  0  0  0  0  0  0  0  0
    8.5707   20.9466    2.4197 C   0  0  0  0  0  0  0  0  0  0  0  0
    8.9725   22.0237    2.8553 O   0  0  0  0  0  0  0  0  0  0  0  0
    9.4863   20.0401    1.8685 N   0  0  0  0  0  0  0  0  0  0  0  0
    9.1325   18.7958    1.3688 C   0  0  0  0  0  0  0  0  0  0  0  0
   10.1119   17.9778    0.9671 N   0  0  0  0  0  0  0  0  0  0  0  0
    7.8611   18.3706    1.2877 N   0  0  0  0  0  0  0  0  0  0  0  0
    6.9558   19.2486    1.7995 C   0  0  0  0  0  0  0  0  0  0  0  0
  1  2  2  0  0  0  0
  1  4  1  0  0  0  0
  1  3  1  0  0  0  0
  5  1  1  0  0  0  0
  6  7  2  1  0  0  0
  6  9  1  0  0  0  0
  6  5  1  0  0  0  0
  6  8  1  0  0  0  0
 10 11  2  6  0  0  0
 10 12  1  0  0  0  0
 10 13  1  0  0  0  0
 10  9  1  0  0  0  0
 13 14  1  0  0  0  0
 15 14  1  1  0  0  0
 15 16  1  0  0  0  0
 17 19  1  0  0  0  0
 17 15  1  0  0  0  0
 17 18  1  6  0  0  0
 19 21  1  0  0  0  0
 19 20  1  6  0  0  0
 21 16  1  0  0  0  0
 21 22  1  1  0  0  0
 22 32  1  0  0  0  0
 23 22  1  0  0  0  0
 23 24  2  0  0  0  0
 24 25  1  0  0  0  0
 25 26  1  0  0  0  0
 26 27  2  0  0  0  0
 26 28  1  0  0  0  0
 29 28  1  0  0  0  0
 29 30  1  0  0  0  0
 31 29  2  0  0  0  0
 32 25  2  0  0  0  0
 32 31  1  0  0  0  0
M  END
>  <CHROM.1>
147.11432976,-52.85805407,-67.61500955,-75.89241230,-44.92892247,-74.08764380
149.33234809,-77.00919981,177.23048453,-58.30036502,2.81294322,16.23941985
1.99006389,2.70763485,-0.27860741,-2.76252099

>  <Name>
lig.pdb

>  <RI>
1.82117e+07

>  <Rbt.Current_Directory>
/home/itssahil/PROJECTS/Mol_Feturizer/New_Systems/rnas/5lwj

>  <Rbt.Executable>
rbdock ($Id: //depot/dev/client3/rdock/2013.1/src/exe/rbdock.cxx#4 $)

>  <Rbt.Library>
libRbt.so (2013.1, Build901 2013/11/27)

>  <Rbt.Parameter_File>
/export/apps/rDock/src/rDock_2013.1_src/data/scripts/dock_solv.prm

>  <Rbt.Receptor>
prm/pocket_docking_5.prm

>  <SCORE>
-25.5746

>  <SCORE.INTER>
-22.382

>  <SCORE.INTER.CONST>
1

>  <SCORE.INTER.POLAR>
-2.11548

>  <SCORE.INTER.ROT>
8

>  <SCORE.INTER.SOLV>
12.9648

>  <SCORE.INTER.VDW>
-21.1247

>  <SCORE.INTER.norm>
-0.699437

>  <SCORE.INTRA>
-3.19266

>  <SCORE.INTRA.DIHEDRAL>
-0.684

>  <SCORE.INTRA.DIHEDRAL.0>
10.9248

>  <SCORE.INTRA.POLAR>
0

>  <SCORE.INTRA.POLAR.0>
0

>  <SCORE.INTRA.REPUL>
0

>  <SCORE.INTRA.REPUL.0>
0

>  <SCORE.INTRA.SOLV>
-0.49951

>  <SCORE.INTRA.SOLV.lig_0>
-51.4104

>  <SCORE.INTRA.VDW>
-2.6009

>  <SCORE.INTRA.VDW.0>
0.110327

>  <SCORE.INTRA.norm>
-0.0997705

>  <SCORE.RESTR>
0

>  <SCORE.RESTR.CAVITY>
0

>  <SCORE.RESTR.norm>
0

>  <SCORE.SYSTEM>
0

>  <SCORE.SYSTEM.CONST>
0

>  <SCORE.SYSTEM.DIHEDRAL>
0

>  <SCORE.SYSTEM.SOLV>
0

>  <SCORE.SYSTEM.norm>
0

>  <SCORE.heavy>
32

>  <SCORE.norm>
-0.799207

>  <RMSD>
9.532

$$$$
lig.pdb
 OpenBabel11021811523D
libRbt.so/2013.1/901 2013/11/27
 32 34  0  0  0  0  0  0  0  0999 V2000
    1.0913   11.3148    5.8707 P   0  0  0  0  0  0  0  0  0  0  0  0
    2.2766   11.8299    6.6503 O   0  0  0  0  0  0  0  0  0  0  0  0
    1.7594   10.7869    4.4896 O   0  0  0  0  0  0  0  0  0  0  0  0
    0.3631   10.0996    6.3886 O   0  0  0  0  0  0  0  0  0  0  0  0
    0.1195   12.3910    5.8588 O   0  0  0  0  0  0  0  0  0  0  0  0
   -0.7517   12.2574    4.6677 P   0  0  1  0  0  0  0  0  0  0  0  0
   -1.4182   10.9353    4.7293 O   0  0  0  0  0  0  0  0  0  0  0  0
   -1.7843   13.3197    4.6723 O   0  0  0  0  0  0  0  0  0  0  0  0
    0.0732   12.3635    3.4382 O   0  0  0  0  0  0  0  0  0  0  0  0
    0.4609   13.6667    2.8479 P   0  0  1  0  0  0  0  0  0  0  0  0
    0.3688   13.7321    1.3751 O   0  0  0  0  0  0  0  0  0  0  0  0
   -0.0593   14.8568    3.5571 O   0  0  0  0  0  0  0  0  0  0  0  0
    2.0594   13.7096    3.0962 O   0  0  0  0  0  0  0  0  0  0  0  0
    2.9497   14.3423    2.1964 C   0  0  0  0  0  0  0  0  0  0  0  0
    2.9027   15.8733    2.2987 C   0  0  1  0  0  0  0  0  0  0  0  0
    4.1448   16.4285    1.9174 O   0  0  0  0  0  0  0  0  0  0  0  0
    1.9506   16.5337    1.2863 C   0  0  1  0  0  0  0  0  0  0  0  0
    0.5719   16.4612    1.6091 O   0  0  0  0  0  0  0  0  0  0  0  0
    2.4638   17.9712    1.2054 C   0  0  1  0  0  0  0  0  0  0  0  0
    1.8168   18.8230    2.1343 O   0  0  0  0  0  0  0  0  0  0  0  0
    3.9203   17.7976    1.6317 C   0  0  2  0  0  0  0  0  0  0  0  0
    4.9256   18.3202    0.6818 N   0  0  0  0  0  0  0  0  0  0  0  0
    5.0102   18.2012   -0.6824 C   0  0  0  0  0  0  0  0  0  0  0  0
    6.0992   18.7126   -1.1954 N   0  0  0  0  0  0  0  0  0  0  0  0
    6.7795   19.2325   -0.0983 C   0  0  0  0  0  0  0  0  0  0  0  0
    8.0530   19.8808   -0.0089 C   0  0  0  0  0  0  0  0  0  0  0  0
    8.8576   20.0860   -0.9155 O   0  0  0  0  0  0  0  0  0  0  0  0
    8.3635   20.2891    1.2952 N   0  0  0  0  0  0  0  0  0  0  0  0
    7.5149   20.1181    2.3786 C   0  0  0  0  0  0  0  0  0  0  0  0
    7.8793   20.6463    3.5524 N   0  0  0  0  0  0  0  0  0  0  0  0
    6.3431   19.4667    2.2988 N   0  0  0  0  0  0  0  0  0  0  0  0
    6.0354   19.0440    1.0421 C   0  0  0  0  0  0  0  0  0  0  0  0
  1  2  2  0  0  0  0
  1  4  1  0  0  0  0
  1  3  1  0  0  0  0
  5  1  1  0  0  0  0
  6  7  2  1  0  0  0
  6  9  1  0  0  0  0
  6  5  1  0  0  0  0
  6  8  1  0  0  0  0
 10 11  2  6  0  0  0
 10 12  1  0  0  0  0
 10 13  1  0  0  0  0
 10  9  1  0  0  0  0
 13 14  1  0  0  0  0
 15 14  1  6  0  0  0
 15 16  1  0  0  0  0
 17 19  1  0  0  0  0
 17 15  1  0  0  0  0
 17 18  1  1  0  0  0
 19 21  1  0  0  0  0
 19 20  1  1  0  0  0
 21 16  1  0  0  0  0
 21 22  1  6  0  0  0
 22 32  1  0  0  0  0
 23 22  1  0  0  0  0
 23 24  2  0  0  0  0
 24 25  1  0  0  0  0
 25 26  1  0  0  0  0
 26 27  2  0  0  0  0
 26 28  1  0  0  0  0
 29 28  1  0  0  0  0
 29 30  1  0  0  0  0
 31 29  2  0  0  0  0
 32 25  2  0  0  0  0
 32 31  1  0  0  0  0
M  END
>  <CHROM.1>
154.16679019,-83.36103744,58.72369730,147.25722766,-138.00220319,75.17963646
152.35425432,-174.82149425,62.44333368,79.46974665,2.74163780,15.43988600
2.79350868,-2.29410332,-0.38173256,-0.80941618

>  <Name>
lig.pdb

>  <RI>
0

>  <Rbt.Current_Directory>
/home/itssahil/PROJECTS/Mol_Feturizer/New_Systems/rnas/5lwj

>  <Rbt.Executable>
rbdock ($Id: //depot/dev/client3/rdock/2013.1/src/exe/rbdock.cxx#4 $)

>  <Rbt.Library>
libRbt.so (2013.1, Build901 2013/11/27)

>  <Rbt.Parameter_File>
/export/apps/rDock/src/rDock_2013.1_src/data/scripts/dock_solv.prm

>  <Rbt.Receptor>
prm/pocket_docking_3.prm

>  <SCORE>
-30.0934

>  <SCORE.INTER>
-28.7538

>  <SCORE.INTER.CONST>
1

>  <SCORE.INTER.POLAR>
-1.7996

>  <SCORE.INTER.ROT>
8

>  <SCORE.INTER.SOLV>
19.5548

>  <SCORE.INTER.VDW>
-28.6221

>  <SCORE.INTER.norm>
-0.898555

>  <SCORE.INTRA>
-1.35235

>  <SCORE.INTRA.DIHEDRAL>
0.362368

>  <SCORE.INTRA.DIHEDRAL.0>
10.9248

>  <SCORE.INTRA.POLAR>
0

>  <SCORE.INTRA.POLAR.0>
0

>  <SCORE.INTRA.REPUL>
0

>  <SCORE.INTRA.REPUL.0>
0

>  <SCORE.INTRA.SOLV>
1.96051

>  <SCORE.INTRA.SOLV.lig_0>
-51.4104

>  <SCORE.INTRA.VDW>
-2.51379

>  <SCORE.INTRA.VDW.0>
0.110327

>  <SCORE.INTRA.norm>
-0.0422611

>  <SCORE.RESTR>
0.012669

>  <SCORE.RESTR.CAVITY>
0.012669

>  <SCORE.RESTR.norm>
0.000395905

>  <SCORE.SYSTEM>
0

>  <SCORE.SYSTEM.CONST>
0

>  <SCORE.SYSTEM.DIHEDRAL>
0

>  <SCORE.SYSTEM.SOLV>
0

>  <SCORE.SYSTEM.norm>
0

>  <SCORE.heavy>
32

>  <SCORE.norm>
-0.94042

>  <RMSD>
9.535

$$$$
lig.pdb
 OpenBabel11021811523D
libRbt.so/2013.1/901 2013/11/27
 32 34  0  0  0  0  0  0  0  0999 V2000
   -1.5757   12.2570    5.1606 P   0  0  0  0  0  0  0  0  0  0  0  0
   -1.3286   11.7164    6.5479 O   0  0  0  0  0  0  0  0  0  0  0  0
   -1.7444   10.9140    4.2659 O   0  0  0  0  0  0  0  0  0  0  0  0
   -2.8570   13.0090    4.8995 O   0  0  0  0  0  0  0  0  0  0  0  0
   -0.4996   13.1923    4.8960 O   0  0  0  0  0  0  0  0  0  0  0  0
   -0.0776   13.0730    3.4806 P   0  0  1  0  0  0  0  0  0  0  0  0
    0.6033   11.7679    3.3104 O   0  0  0  0  0  0  0  0  0  0  0  0
   -1.2620   13.1194    2.5920 O   0  0  0  0  0  0  0  0  0  0  0  0
    0.8463   14.1855    3.1454 O   0  0  0  0  0  0  0  0  0  0  0  0
    1.1175   14.6039    1.7496 P   0  0  1  0  0  0  0  0  0  0  0  0
    0.7124   13.6259    0.7195 O   0  0  0  0  0  0  0  0  0  0  0  0
    0.7793   16.0107    1.4388 O   0  0  0  0  0  0  0  0  0  0  0  0
    2.7325   14.5441    1.6665 O   0  0  0  0  0  0  0  0  0  0  0  0
    3.5588   15.5317    2.2535 C   0  0  0  0  0  0  0  0  0  0  0  0
    3.4710   16.8817    1.5282 C   0  0  1  0  0  0  0  0  0  0  0  0
    4.5242   17.7289    1.9398 O   0  0  0  0  0  0  0  0  0  0  0  0
    3.7285   16.7901    0.0139 C   0  0  1  0  0  0  0  0  0  0  0  0
    2.6482   16.2947   -0.7592 O   0  0  0  0  0  0  0  0  0  0  0  0
    4.1197   18.2185   -0.3643 C   0  0  1  0  0  0  0  0  0  0  0  0
    3.0006   18.9927   -0.7586 O   0  0  0  0  0  0  0  0  0  0  0  0
    4.6405   18.7532    0.9684 C   0  0  2  0  0  0  0  0  0  0  0  0
    6.0094   19.3108    0.9365 N   0  0  0  0  0  0  0  0  0  0  0  0
    6.8656   19.5134   -0.1163 C   0  0  0  0  0  0  0  0  0  0  0  0
    8.0509   19.9401    0.2354 N   0  0  0  0  0  0  0  0  0  0  0  0
    7.9735   20.0543    1.6202 C   0  0  0  0  0  0  0  0  0  0  0  0
    8.9619   20.4341    2.5839 C   0  0  0  0  0  0  0  0  0  0  0  0
   10.1420   20.7124    2.3811 O   0  0  0  0  0  0  0  0  0  0  0  0
    8.4630   20.4548    3.8934 N   0  0  0  0  0  0  0  0  0  0  0  0
    7.1449   20.1739    4.2200 C   0  0  0  0  0  0  0  0  0  0  0  0
    6.7652   20.3314    5.4931 N   0  0  0  0  0  0  0  0  0  0  0  0
    6.2340   19.7714    3.3188 N   0  0  0  0  0  0  0  0  0  0  0  0
    6.7078   19.7250    2.0437 C   0  0  0  0  0  0  0  0  0  0  0  0
  1  2  2  0  0  0  0
  1  4  1  0  0  0  0
  1  3  1  0  0  0  0
  5  1  1  0  0  0  0
  6  7  2  6  0  0  0
  6  9  1  0  0  0  0
  6  5  1  0  0  0  0
  6  8  1  0  0  0  0
 10 11  2  6  0  0  0
 10 12  1  0  0  0  0
 10 13  1  0  0  0  0
 10  9  1  0  0  0  0
 13 14  1  0  0  0  0
 15 14  1  1  0  0  0
 15 16  1  0  0  0  0
 17 19  1  0  0  0  0
 17 15  1  0  0  0  0
 17 18  1  6  0  0  0
 19 21  1  0  0  0  0
 19 20  1  1  0  0  0
 21 16  1  0  0  0  0
 21 22  1  6  0  0  0
 22 32  1  0  0  0  0
 23 22  1  0  0  0  0
 23 24  2  0  0  0  0
 24 25  1  0  0  0  0
 25 26  1  0  0  0  0
 26 27  2  0  0  0  0
 26 28  1  0  0  0  0
 29 28  1  0  0  0  0
 29 30  1  0  0  0  0
 31 29  2  0  0  0  0
 32 25  2  0  0  0  0
 32 31  1  0  0  0  0
M  END
>  <CHROM.1>
141.61824404,-160.63775750,-69.74984223,-75.59036181,-16.04991381,-69.64484441
-166.28467911,-55.86990844,-60.83745267,129.25411500,2.92429193,16.14399532
2.49493358,-2.86263881,-0.69856930,-1.42119649

>  <Name>
lig.pdb

>  <RI>
0

>  <Rbt.Current_Directory>
/home/itssahil/PROJECTS/Mol_Feturizer/New_Systems/rnas/5lwj

>  <Rbt.Executable>
rbdock ($Id: //depot/dev/client3/rdock/2013.1/src/exe/rbdock.cxx#4 $)

>  <Rbt.Library>
libRbt.so (2013.1, Build901 2013/11/27)

>  <Rbt.Parameter_File>
/export/apps/rDock/src/rDock_2013.1_src/data/scripts/dock_solv.prm

>  <Rbt.Receptor>
prm/pocket_docking_3.prm

>  <SCORE>
-38.7518

>  <SCORE.INTER>
-35.9272

>  <SCORE.INTER.CONST>
1

>  <SCORE.INTER.POLAR>
-4.70669

>  <SCORE.INTER.ROT>
8

>  <SCORE.INTER.SOLV>
22.1284

>  <SCORE.INTER.VDW>
-24.572

>  <SCORE.INTER.norm>
-1.12273

>  <SCORE.INTRA>
-3.63058

>  <SCORE.INTRA.DIHEDRAL>
-2.13985

>  <SCORE.INTRA.DIHEDRAL.0>
10.9248

>  <SCORE.INTRA.POLAR>
-0.118791

>  <SCORE.INTRA.POLAR.0>
0

>  <SCORE.INTRA.REPUL>
0.0536838

>  <SCORE.INTRA.REPUL.0>
0

>  <SCORE.INTRA.SOLV>
0.631259

>  <SCORE.INTRA.SOLV.lig_0>
-51.4104

>  <SCORE.INTRA.VDW>
-2.74082

>  <SCORE.INTRA.VDW.0>
0.110327

>  <SCORE.INTRA.norm>
-0.113456

>  <SCORE.RESTR>
0.806025

>  <SCORE.RESTR.CAVITY>
0.806025

>  <SCORE.RESTR.norm>
0.0251883

>  <SCORE.SYSTEM>
0

>  <SCORE.SYSTEM.CONST>
0

>  <SCORE.SYSTEM.DIHEDRAL>
0

>  <SCORE.SYSTEM.SOLV>
0

>  <SCORE.SYSTEM.norm>
0

>  <SCORE.heavy>
32

>  <SCORE.norm>
-1.21099

>  <RMSD>
9.545

$$$$
lig.pdb
 OpenBabel11021811523D
libRbt.so/2013.1/901 2013/11/27
 32 34  0  0  0  0  0  0  0  0999 V2000
   -0.8994   11.8325    5.4744 P   0  0  0  0  0  0  0  0  0  0  0  0
    0.2315   10.9713    5.9817 O   0  0  0  0  0  0  0  0  0  0  0  0
   -1.7178   10.8287    4.4972 O   0  0  0  0  0  0  0  0  0  0  0  0
   -1.9493   12.2919    6.4551 O   0  0  0  0  0  0  0  0  0  0  0  0
   -0.2839   13.0367    4.9509 O   0  0  0  0  0  0  0  0  0  0  0  0
    0.1469   12.8040    3.5524 P   0  0  1  0  0  0  0  0  0  0  0  0
    1.0040   11.5954    3.5284 O   0  0  0  0  0  0  0  0  0  0  0  0
   -1.0347   12.5754    2.6885 O   0  0  0  0  0  0  0  0  0  0  0  0
    0.9043   13.9845    3.0662 O   0  0  0  0  0  0  0  0  0  0  0  0
    1.2743   14.1634    1.6421 P   0  0  1  0  0  0  0  0  0  0  0  0
    2.3857   13.3082    1.1782 O   0  0  0  0  0  0  0  0  0  0  0  0
    0.1335   14.2635    0.7048 O   0  0  0  0  0  0  0  0  0  0  0  0
    1.9436   15.6367    1.6296 O   0  0  0  0  0  0  0  0  0  0  0  0
    3.1351   15.9220    0.9214 C   0  0  0  0  0  0  0  0  0  0  0  0
    3.1196   17.3157    0.2781 C   0  0  1  0  0  0  0  0  0  0  0  0
    3.4176   18.3043    1.2426 O   0  0  0  0  0  0  0  0  0  0  0  0
    4.2471   17.5392   -0.7449 C   0  0  1  0  0  0  0  0  0  0  0  0
    4.0456   16.9414   -2.0146 O   0  0  0  0  0  0  0  0  0  0  0  0
    4.3588   19.0618   -0.8196 C   0  0  1  0  0  0  0  0  0  0  0  0
    3.5385   19.6088   -1.8370 O   0  0  0  0  0  0  0  0  0  0  0  0
    3.7952   19.4742    0.5389 C   0  0  2  0  0  0  0  0  0  0  0  0
    4.6779   20.3324    1.3576 N   0  0  0  0  0  0  0  0  0  0  0  0
    4.4047   21.4770    2.0630 C   0  0  0  0  0  0  0  0  0  0  0  0
    5.4582   22.0365    2.5995 N   0  0  0  0  0  0  0  0  0  0  0  0
    6.5071   21.1920    2.2483 C   0  0  0  0  0  0  0  0  0  0  0  0
    7.9123   21.2895    2.5046 C   0  0  0  0  0  0  0  0  0  0  0  0
    8.5106   22.1967    3.0792 O   0  0  0  0  0  0  0  0  0  0  0  0
    8.6327   20.1982    2.0005 N   0  0  0  0  0  0  0  0  0  0  0  0
    8.0464   19.1203    1.3545 C   0  0  0  0  0  0  0  0  0  0  0  0
    8.8286   18.0899    1.0140 N   0  0  0  0  0  0  0  0  0  0  0  0
    6.7345   19.0565    1.0739 N   0  0  0  0  0  0  0  0  0  0  0  0
    6.0223   20.1194    1.5380 C   0  0  0  0  0  0  0  0  0  0  0  0
  1  2  2  0  0  0  0
  1  4  1  0  0  0  0
  1  3  1  0  0  0  0
  5  1  1  0  0  0  0
  6  7  2  6  0  0  0
  6  9  1  0  0  0  0
  6  5  1  0  0  0  0
  6  8  1  0  0  0  0
 10 11  2  6  0  0  0
 10 12  1  0  0  0  0
 10 13  1  0  0  0  0
 10  9  1  0  0  0  0
 13 14  1  0  0  0  0
 15 14  1  1  0  0  0
 15 16  1  0  0  0  0
 17 19  1  0  0  0  0
 17 15  1  0  0  0  0
 17 18  1  6  0  0  0
 19 21  1  0  0  0  0
 19 20  1  6  0  0  0
 21 16  1  0  0  0  0
 21 22  1  1  0  0  0
 22 32  1  0  0  0  0
 23 22  1  0  0  0  0
 23 24  2  0  0  0  0
 24 25  1  0  0  0  0
 25 26  1  0  0  0  0
 26 27  2  0  0  0  0
 26 28  1  0  0  0  0
 29 28  1  0  0  0  0
 29 30  1  0  0  0  0
 31 29  2  0  0  0  0
 32 25  2  0  0  0  0
 32 31  1  0  0  0  0
M  END
>  <CHROM.1>
84.76076701,-169.45154042,-53.73540916,136.47919107,-74.89039418,142.65396095
79.59488229,-174.00239805,-178.31919994,-101.76027360,2.92267773,16.22060805
2.17075344,-2.72346287,-0.81473408,-1.38172000

>  <Name>
lig.pdb

>  <RI>
3.03081e+07

>  <Rbt.Current_Directory>
/home/itssahil/PROJECTS/Mol_Feturizer/New_Systems/rnas/5lwj

>  <Rbt.Executable>
rbdock ($Id: //depot/dev/client3/rdock/2013.1/src/exe/rbdock.cxx#4 $)

>  <Rbt.Library>
libRbt.so (2013.1, Build901 2013/11/27)

>  <Rbt.Parameter_File>
/export/apps/rDock/src/rDock_2013.1_src/data/scripts/dock_solv.prm

>  <Rbt.Receptor>
prm/pocket_docking_2.prm

>  <SCORE>
-22.5768

>  <SCORE.INTER>
-21.5882

>  <SCORE.INTER.CONST>
1

>  <SCORE.INTER.POLAR>
-2.41197

>  <SCORE.INTER.ROT>
8

>  <SCORE.INTER.SOLV>
16.5551

>  <SCORE.INTER.VDW>
-20.804

>  <SCORE.INTER.norm>
-0.674632

>  <SCORE.INTRA>
-1.9386

>  <SCORE.INTRA.DIHEDRAL>
1.59788

>  <SCORE.INTRA.DIHEDRAL.0>
10.9248

>  <SCORE.INTRA.POLAR>
0

>  <SCORE.INTRA.POLAR.0>
0

>  <SCORE.INTRA.REPUL>
0

>  <SCORE.INTRA.REPUL.0>
0

>  <SCORE.INTRA.SOLV>
-0.792594

>  <SCORE.INTRA.SOLV.lig_0>
-51.4104

>  <SCORE.INTRA.VDW>
-2.34125

>  <SCORE.INTRA.VDW.0>
0.110327

>  <SCORE.INTRA.norm>
-0.0605813

>  <SCORE.RESTR>
0.950024

>  <SCORE.RESTR.CAVITY>
0.950024

>  <SCORE.RESTR.norm>
0.0296882

>  <SCORE.SYSTEM>
0

>  <SCORE.SYSTEM.CONST>
0

>  <SCORE.SYSTEM.DIHEDRAL>
0

>  <SCORE.SYSTEM.SOLV>
0

>  <SCORE.SYSTEM.norm>
0

>  <SCORE.heavy>
32

>  <SCORE.norm>
-0.705525

>  <RMSD>
9.550

$$$$
lig.pdb
 OpenBabel11021811523D
libRbt.so/2013.1/901 2013/11/27
 32 34  0  0  0  0  0  0  0  0999 V2000
    0.8569   11.4760    5.5807 P   0  0  0  0  0  0  0  0  0  0  0  0
    1.6977   10.5874    4.6966 O   0  0  0  0  0  0  0  0  0  0  0  0
   -0.1597   10.4316    6.2936 O   0  0  0  0  0  0  0  0  0  0  0  0
    1.5201   12.1637    6.7479 O   0  0  0  0  0  0  0  0  0  0  0  0
    0.3526   12.5327    4.7252 O   0  0  0  0  0  0  0  0  0  0  0  0
   -1.1128   12.3825    4.5653 P   0  0  1  0  0  0  0  0  0  0  0  0
   -1.4150   10.9398    4.4128 O   0  0  0  0  0  0  0  0  0  0  0  0
   -1.8100   12.8978    5.7665 O   0  0  0  0  0  0  0  0  0  0  0  0
   -1.5580   13.1335    3.3647 O   0  0  0  0  0  0  0  0  0  0  0  0
   -1.6140   14.6141    3.3256 P   0  0  1  0  0  0  0  0  0  0  0  0
   -2.8373   15.1723    2.7142 O   0  0  0  0  0  0  0  0  0  0  0  0
   -1.1730   15.2921    4.5649 O   0  0  0  0  0  0  0  0  0  0  0  0
   -0.4808   14.9853    2.2316 O   0  0  0  0  0  0  0  0  0  0  0  0
    0.3800   16.0988    2.3797 C   0  0  0  0  0  0  0  0  0  0  0  0
    1.1102   16.4572    1.0779 C   0  0  1  0  0  0  0  0  0  0  0  0
    1.8274   17.6645    1.2343 O   0  0  0  0  0  0  0  0  0  0  0  0
    2.2392   15.4783    0.7103 C   0  0  1  0  0  0  0  0  0  0  0  0
    1.8190   14.2474    0.1459 O   0  0  0  0  0  0  0  0  0  0  0  0
    3.1181   16.2936   -0.2378 C   0  0  1  0  0  0  0  0  0  0  0  0
    2.7419   16.1254   -1.5932 O   0  0  0  0  0  0  0  0  0  0  0  0
    2.7830   17.7211    0.1903 C   0  0  2  0  0  0  0  0  0  0  0  0
    3.9417   18.5587    0.5672 N   0  0  0  0  0  0  0  0  0  0  0  0
    4.2337   19.1992    1.7448 C   0  0  0  0  0  0  0  0  0  0  0  0
    5.3093   19.9418    1.6950 N   0  0  0  0  0  0  0  0  0  0  0  0
    5.7837   19.7655    0.3987 C   0  0  0  0  0  0  0  0  0  0  0  0
    6.9056   20.3478   -0.2739 C   0  0  0  0  0  0  0  0  0  0  0  0
    7.6908   21.1872    0.1621 O   0  0  0  0  0  0  0  0  0  0  0  0
    7.0587   19.8737   -1.5837 N   0  0  0  0  0  0  0  0  0  0  0  0
    6.2359   18.9162   -2.1576 C   0  0  0  0  0  0  0  0  0  0  0  0
    6.5493   18.4677   -3.3784 N   0  0  0  0  0  0  0  0  0  0  0  0
    5.1567   18.4089   -1.5399 N   0  0  0  0  0  0  0  0  0  0  0  0
    4.9804   18.8749   -0.2733 C   0  0  0  0  0  0  0  0  0  0  0  0
  1  2  2  0  0  0  0
  1  4  1  0  0  0  0
  1  3  1  0  0  0  0
  5  1  1  0  0  0  0
  6  7  2  6  0  0  0
  6  9  1  0  0  0  0
  6  5  1  0  0  0  0
  6  8  1  0  0  0  0
 10 11  2  6  0  0  0
 10 12  1  0  0  0  0
 10 13  1  0  0  0  0
 10  9  1  0  0  0  0
 13 14  1  0  0  0  0
 15 14  1  1  0  0  0
 15 16  1  0  0  0  0
 17 19  1  0  0  0  0
 17 15  1  0  0  0  0
 17 18  1  6  0  0  0
 19 21  1  0  0  0  0
 19 20  1  6  0  0  0
 21 16  1  0  0  0  0
 21 22  1  1  0  0  0
 22 32  1  0  0  0  0
 23 22  1  0  0  0  0
 23 24  2  0  0  0  0
 24 25  1  0  0  0  0
 25 26  1  0  0  0  0
 26 27  2  0  0  0  0
 26 28  1  0  0  0  0
 29 28  1  0  0  0  0
 29 30  1  0  0  0  0
 31 29  2  0  0  0  0
 32 25  2  0  0  0  0
 32 31  1  0  0  0  0
M  END
>  <CHROM.1>
111.74078677,-72.42485746,-40.44187522,-141.22314102,-135.80317516,-165.32072526
172.93352578,66.50706388,62.95927450,3.41722987,1.84641313,15.49055440,2.16526326
-2.19569364,-0.13742265,-0.78287961

>  <Name>
lig.pdb

>  <RI>
0

>  <Rbt.Current_Directory>
/home/itssahil/PROJECTS/Mol_Feturizer/New_Systems/rnas/5lwj

>  <Rbt.Executable>
rbdock ($Id: //depot/dev/client3/rdock/2013.1/src/exe/rbdock.cxx#4 $)

>  <Rbt.Library>
libRbt.so (2013.1, Build901 2013/11/27)

>  <Rbt.Parameter_File>
/export/apps/rDock/src/rDock_2013.1_src/data/scripts/dock_solv.prm

>  <Rbt.Receptor>
prm/pocket_docking_3.prm

>  <SCORE>
-18.2651

>  <SCORE.INTER>
-18.5525

>  <SCORE.INTER.CONST>
1

>  <SCORE.INTER.POLAR>
-2.2908

>  <SCORE.INTER.ROT>
8

>  <SCORE.INTER.SOLV>
15.3567

>  <SCORE.INTER.VDW>
-18.7846

>  <SCORE.INTER.norm>
-0.579765

>  <SCORE.INTRA>
0.287418

>  <SCORE.INTRA.DIHEDRAL>
0.364768

>  <SCORE.INTRA.DIHEDRAL.0>
10.9248

>  <SCORE.INTRA.POLAR>
0

>  <SCORE.INTRA.POLAR.0>
0

>  <SCORE.INTRA.REPUL>
0

>  <SCORE.INTRA.REPUL.0>
0

>  <SCORE.INTRA.SOLV>
-1.07194

>  <SCORE.INTRA.SOLV.lig_0>
-51.4104

>  <SCORE.INTRA.VDW>
0.641004

>  <SCORE.INTRA.VDW.0>
0.110327

>  <SCORE.INTRA.norm>
0.00898182

>  <SCORE.RESTR>
0

>  <SCORE.RESTR.CAVITY>
0

>  <SCORE.RESTR.norm>
0

>  <SCORE.SYSTEM>
0

>  <SCORE.SYSTEM.CONST>
0

>  <SCORE.SYSTEM.DIHEDRAL>
0

>  <SCORE.SYSTEM.SOLV>
0

>  <SCORE.SYSTEM.norm>
0

>  <SCORE.heavy>
32

>  <SCORE.norm>
-0.570783

>  <RMSD>
9.552

$$$$
lig.pdb
 OpenBabel11021811523D
libRbt.so/2013.1/901 2013/11/27
 32 34  0  0  0  0  0  0  0  0999 V2000
   -2.4553   12.8709    4.7699 P   0  0  0  0  0  0  0  0  0  0  0  0
   -3.3957   13.0236    3.5993 O   0  0  0  0  0  0  0  0  0  0  0  0
   -2.2558   14.3967    5.2844 O   0  0  0  0  0  0  0  0  0  0  0  0
   -2.9500   12.1533    6.0010 O   0  0  0  0  0  0  0  0  0  0  0  0
   -1.3275   12.1011    4.2818 O   0  0  0  0  0  0  0  0  0  0  0  0
   -0.4777   12.9590    3.4231 P   0  0  1  0  0  0  0  0  0  0  0  0
   -0.2083   14.2201    4.1532 O   0  0  0  0  0  0  0  0  0  0  0  0
    0.8083   12.2798    3.1412 O   0  0  0  0  0  0  0  0  0  0  0  0
   -1.1873   13.2403    2.1500 O   0  0  0  0  0  0  0  0  0  0  0  0
   -0.5048   13.8160    0.9669 P   0  0  1  0  0  0  0  0  0  0  0  0
    0.3222   12.8603    0.2023 O   0  0  0  0  0  0  0  0  0  0  0  0
   -1.3359   14.7194    0.1404 O   0  0  0  0  0  0  0  0  0  0  0  0
    0.6100   14.7817    1.6328 O   0  0  0  0  0  0  0  0  0  0  0  0
    1.9766   14.7249    1.2696 C   0  0  0  0  0  0  0  0  0  0  0  0
    2.7819   15.9125    1.8150 C   0  0  1  0  0  0  0  0  0  0  0  0
    4.1657   15.6895    1.6375 O   0  0  0  0  0  0  0  0  0  0  0  0
    2.5796   17.2156    1.0220 C   0  0  1  0  0  0  0  0  0  0  0  0
    1.3688   17.9058    1.2822 O   0  0  0  0  0  0  0  0  0  0  0  0
    3.8173   18.0395    1.3759 C   0  0  1  0  0  0  0  0  0  0  0  0
    3.6011   18.8732    2.5007 O   0  0  0  0  0  0  0  0  0  0  0  0
    4.8105   16.9447    1.7611 C   0  0  2  0  0  0  0  0  0  0  0  0
    6.0931   16.9648    1.0260 N   0  0  0  0  0  0  0  0  0  0  0  0
    6.6507   16.0398    0.1799 C   0  0  0  0  0  0  0  0  0  0  0  0
    7.8578   16.3441   -0.2214 N   0  0  0  0  0  0  0  0  0  0  0  0
    8.1158   17.5724    0.3798 C   0  0  0  0  0  0  0  0  0  0  0  0
    9.2853   18.3979    0.3562 C   0  0  0  0  0  0  0  0  0  0  0  0
   10.3603   18.1633   -0.1921 O   0  0  0  0  0  0  0  0  0  0  0  0
    9.1228   19.5898    1.0752 N   0  0  0  0  0  0  0  0  0  0  0  0
    7.9448   19.9509    1.7116 C   0  0  0  0  0  0  0  0  0  0  0  0
    7.8802   21.1626    2.2749 N   0  0  0  0  0  0  0  0  0  0  0  0
    6.8670   19.1518    1.7716 N   0  0  0  0  0  0  0  0  0  0  0  0
    7.0152   17.9797    1.0960 C   0  0  0  0  0  0  0  0  0  0  0  0
  1  2  2  0  0  0  0
  1  4  1  0  0  0  0
  1  3  1  0  0  0  0
  5  1  1  0  0  0  0
  6  7  2  1  0  0  0
  6  9  1  0  0  0  0
  6  5  1  0  0  0  0
  6  8  1  0  0  0  0
 10 11  2  6  0  0  0
 10 12  1  0  0  0  0
 10 13  1  0  0  0  0
 10  9  1  0  0  0  0
 13 14  1  0  0  0  0
 15 14  1  6  0  0  0
 15 16  1  0  0  0  0
 17 19  1  0  0  0  0
 17 15  1  0  0  0  0
 17 18  1  1  0  0  0
 19 21  1  0  0  0  0
 19 20  1  1  0  0  0
 21 16  1  0  0  0  0
 21 22  1  6  0  0  0
 22 32  1  0  0  0  0
 23 22  1  0  0  0  0
 23 24  2  0  0  0  0
 24 25  1  0  0  0  0
 25 26  1  0  0  0  0
 26 27  2  0  0  0  0
 26 28  1  0  0  0  0
 29 28  1  0  0  0  0
 29 30  1  0  0  0  0
 31 29  2  0  0  0  0
 32 25  2  0  0  0  0
 32 31  1  0  0  0  0
M  END
>  <CHROM.1>
74.42268012,-166.38194598,49.63156054,128.77573570,76.99745452,168.30993734
169.39116380,57.00240877,-57.58210118,7.06225233,2.45715463,15.59374015,2.10134651
2.95144105,-0.54267819,-2.37650630

>  <Name>
lig.pdb

>  <RI>
0

>  <Rbt.Current_Directory>
/home/itssahil/PROJECTS/Mol_Feturizer/New_Systems/rnas/5lwj

>  <Rbt.Executable>
rbdock ($Id: //depot/dev/client3/rdock/2013.1/src/exe/rbdock.cxx#4 $)

>  <Rbt.Library>
libRbt.so (2013.1, Build901 2013/11/27)

>  <Rbt.Parameter_File>
/export/apps/rDock/src/rDock_2013.1_src/data/scripts/dock_solv.prm

>  <Rbt.Receptor>
prm/pocket_docking_4.prm

>  <SCORE>
-27.5241

>  <SCORE.INTER>
-26.2574

>  <SCORE.INTER.CONST>
1

>  <SCORE.INTER.POLAR>
-3.20631

>  <SCORE.INTER.ROT>
8

>  <SCORE.INTER.SOLV>
16.1166

>  <SCORE.INTER.VDW>
-21.1228

>  <SCORE.INTER.norm>
-0.820545

>  <SCORE.INTRA>
-1.26671

>  <SCORE.INTRA.DIHEDRAL>
-2.88818

>  <SCORE.INTRA.DIHEDRAL.0>
10.9248

>  <SCORE.INTRA.POLAR>
0

>  <SCORE.INTRA.POLAR.0>
0

>  <SCORE.INTRA.REPUL>
0

>  <SCORE.INTRA.REPUL.0>
0

>  <SCORE.INTRA.SOLV>
1.20201

>  <SCORE.INTRA.SOLV.lig_0>
-51.4104

>  <SCORE.INTRA.VDW>
-0.423624

>  <SCORE.INTRA.VDW.0>
0.110327

>  <SCORE.INTRA.norm>
-0.0395847

>  <SCORE.RESTR>
0

>  <SCORE.RESTR.CAVITY>
0

>  <SCORE.RESTR.norm>
0

>  <SCORE.SYSTEM>
0

>  <SCORE.SYSTEM.CONST>
0

>  <SCORE.SYSTEM.DIHEDRAL>
0

>  <SCORE.SYSTEM.SOLV>
0

>  <SCORE.SYSTEM.norm>
0

>  <SCORE.heavy>
32

>  <SCORE.norm>
-0.86013

>  <RMSD>
9.560

$$$$
lig.pdb
 OpenBabel11021811523D
libRbt.so/2013.1/901 2013/11/27
 32 34  0  0  0  0  0  0  0  0999 V2000
   -1.7132   12.5154    4.8643 P   0  0  0  0  0  0  0  0  0  0  0  0
   -2.0525   12.3525    6.3259 O   0  0  0  0  0  0  0  0  0  0  0  0
   -0.1572   12.9742    4.8957 O   0  0  0  0  0  0  0  0  0  0  0  0
   -1.6934   11.2869    3.9894 O   0  0  0  0  0  0  0  0  0  0  0  0
   -2.7309   13.3872    4.3102 O   0  0  0  0  0  0  0  0  0  0  0  0
   -2.0886   14.4267    3.4721 P   0  0  1  0  0  0  0  0  0  0  0  0
   -3.1485   15.3274    2.9608 O   0  0  0  0  0  0  0  0  0  0  0  0
   -1.1343   15.2163    4.2849 O   0  0  0  0  0  0  0  0  0  0  0  0
   -1.3726   13.7790    2.3445 O   0  0  0  0  0  0  0  0  0  0  0  0
   -1.1590   14.4541    1.0423 P   0  0  1  0  0  0  0  0  0  0  0  0
   -1.3192   13.5841   -0.1406 O   0  0  0  0  0  0  0  0  0  0  0  0
   -1.7800   15.7917    0.9193 O   0  0  0  0  0  0  0  0  0  0  0  0
    0.4334   14.7419    1.0464 O   0  0  0  0  0  0  0  0  0  0  0  0
    0.9671   16.0519    1.0069 C   0  0  0  0  0  0  0  0  0  0  0  0
    2.4929   16.0626    0.8387 C   0  0  1  0  0  0  0  0  0  0  0  0
    2.9502   17.3771    0.5952 O   0  0  0  0  0  0  0  0  0  0  0  0
    3.2610   15.7063    2.1235 C   0  0  1  0  0  0  0  0  0  0  0  0
    3.2979   14.3269    2.4491 O   0  0  0  0  0  0  0  0  0  0  0  0
    4.6509   16.2927    1.8774 C   0  0  1  0  0  0  0  0  0  0  0  0
    5.5283   15.3555    1.2783 O   0  0  0  0  0  0  0  0  0  0  0  0
    4.3411   17.3919    0.8629 C   0  0  2  0  0  0  0  0  0  0  0  0
    4.8024   18.7465    1.2349 N   0  0  0  0  0  0  0  0  0  0  0  0
    4.2570   19.6711    2.0893 C   0  0  0  0  0  0  0  0  0  0  0  0
    4.8855   20.8180    2.1050 N   0  0  0  0  0  0  0  0  0  0  0  0
    5.9410   20.6388    1.2159 C   0  0  0  0  0  0  0  0  0  0  0  0
    6.9567   21.5465    0.7749 C   0  0  0  0  0  0  0  0  0  0  0  0
    7.0879   22.7315    1.0749 O   0  0  0  0  0  0  0  0  0  0  0  0
    7.8648   20.9547   -0.1133 N   0  0  0  0  0  0  0  0  0  0  0  0
    7.8101   19.6233   -0.4975 C   0  0  0  0  0  0  0  0  0  0  0  0
    8.7966   19.1497   -1.2669 N   0  0  0  0  0  0  0  0  0  0  0  0
    6.8279   18.7889   -0.1193 N   0  0  0  0  0  0  0  0  0  0  0  0
    5.9244   19.3539    0.7274 C   0  0  0  0  0  0  0  0  0  0  0  0
  1  2  2  0  0  0  0
  1  4  1  0  0  0  0
  1  3  1  0  0  0  0
  5  1  1  0  0  0  0
  6  7  2  6  0  0  0
  6  9  1  0  0  0  0
  6  5  1  0  0  0  0
  6  8  1  0  0  0  0
 10 11  2  6  0  0  0
 10 12  1  0  0  0  0
 10 13  1  0  0  0  0
 10  9  1  0  0  0  0
 13 14  1  0  0  0  0
 15 14  1  1  0  0  0
 15 16  1  0  0  0  0
 17 19  1  0  0  0  0
 17 15  1  0  0  0  0
 17 18  1  6  0  0  0
 19 21  1  0  0  0  0
 19 20  1  6  0  0  0
 21 16  1  0  0  0  0
 21 22  1  1  0  0  0
 22 32  1  0  0  0  0
 23 22  1  0  0  0  0
 23 24  2  0  0  0  0
 24 25  1  0  0  0  0
 25 26  1  0  0  0  0
 26 27  2  0  0  0  0
 26 28  1  0  0  0  0
 29 28  1  0  0  0  0
 29 30  1  0  0  0  0
 31 29  2  0  0  0  0
 32 25  2  0  0  0  0
 32 31  1  0  0  0  0
M  END
>  <CHROM.1>
133.93507992,151.70235589,-178.03698943,-117.65961973,-140.12931105,-172.66483806
170.83361109,70.06323238,179.89333232,44.85061673,1.91058945,16.16280117
2.00175847,-2.44151564,0.06405999,-0.37144251

>  <Name>
lig.pdb

>  <RI>
0

>  <Rbt.Current_Directory>
/home/itssahil/PROJECTS/Mol_Feturizer/New_Systems/rnas/5lwj

>  <Rbt.Executable>
rbdock ($Id: //depot/dev/client3/rdock/2013.1/src/exe/rbdock.cxx#4 $)

>  <Rbt.Library>
libRbt.so (2013.1, Build901 2013/11/27)

>  <Rbt.Parameter_File>
/export/apps/rDock/src/rDock_2013.1_src/data/scripts/dock_solv.prm

>  <Rbt.Receptor>
prm/pocket_docking_3.prm

>  <SCORE>
-18.5423

>  <SCORE.INTER>
-15.977

>  <SCORE.INTER.CONST>
1

>  <SCORE.INTER.POLAR>
-2.14103

>  <SCORE.INTER.ROT>
8

>  <SCORE.INTER.SOLV>
13.1644

>  <SCORE.INTER.VDW>
-16.8361

>  <SCORE.INTER.norm>
-0.499282

>  <SCORE.INTRA>
-2.56532

>  <SCORE.INTRA.DIHEDRAL>
0.302331

>  <SCORE.INTRA.DIHEDRAL.0>
10.9248

>  <SCORE.INTRA.POLAR>
-0.0726437

>  <SCORE.INTRA.POLAR.0>
0

>  <SCORE.INTRA.REPUL>
0

>  <SCORE.INTRA.REPUL.0>
0

>  <SCORE.INTRA.SOLV>
-1.27211

>  <SCORE.INTRA.SOLV.lig_0>
-51.4104

>  <SCORE.INTRA.VDW>
-1.83344

>  <SCORE.INTRA.VDW.0>
0.110327

>  <SCORE.INTRA.norm>
-0.0801662

>  <SCORE.RESTR>
0

>  <SCORE.RESTR.CAVITY>
0

>  <SCORE.RESTR.norm>
0

>  <SCORE.SYSTEM>
0

>  <SCORE.SYSTEM.CONST>
0

>  <SCORE.SYSTEM.DIHEDRAL>
0

>  <SCORE.SYSTEM.SOLV>
0

>  <SCORE.SYSTEM.norm>
0

>  <SCORE.heavy>
32

>  <SCORE.norm>
-0.579448

>  <RMSD>
9.572

$$$$
lig.pdb
 OpenBabel11021811523D
libRbt.so/2013.1/901 2013/11/27
 32 34  0  0  0  0  0  0  0  0999 V2000
    0.5859   11.7432    5.0522 P   0  0  0  0  0  0  0  0  0  0  0  0
    1.0052   11.5617    3.6137 O   0  0  0  0  0  0  0  0  0  0  0  0
   -0.0266   10.2926    5.4437 O   0  0  0  0  0  0  0  0  0  0  0  0
    1.6573   11.9576    6.0920 O   0  0  0  0  0  0  0  0  0  0  0  0
   -0.2463   12.9304    5.0817 O   0  0  0  0  0  0  0  0  0  0  0  0
   -1.6493   12.5583    4.7837 P   0  0  1  0  0  0  0  0  0  0  0  0
   -1.6799   11.8971    3.4580 O   0  0  0  0  0  0  0  0  0  0  0  0
   -2.1520   11.6125    5.8071 O   0  0  0  0  0  0  0  0  0  0  0  0
   -2.4921   13.7803    4.7714 O   0  0  0  0  0  0  0  0  0  0  0  0
   -2.1261   14.9938    4.0032 P   0  0  1  0  0  0  0  0  0  0  0  0
   -0.7452   15.0026    3.4788 O   0  0  0  0  0  0  0  0  0  0  0  0
   -3.1556   15.4692    3.0522 O   0  0  0  0  0  0  0  0  0  0  0  0
   -2.0683   16.1367    5.1474 O   0  0  0  0  0  0  0  0  0  0  0  0
   -3.2069   16.8853    5.5294 C   0  0  0  0  0  0  0  0  0  0  0  0
   -4.3675   15.9964    5.9975 C   0  0  1  0  0  0  0  0  0  0  0  0
   -3.9345   15.1225    7.0198 O   0  0  0  0  0  0  0  0  0  0  0  0
   -5.4905   16.7681    6.7125 C   0  0  1  0  0  0  0  0  0  0  0  0
   -6.3712   17.4869    5.8653 O   0  0  0  0  0  0  0  0  0  0  0  0
   -6.2024   15.6849    7.5224 C   0  0  1  0  0  0  0  0  0  0  0  0
   -7.2742   15.0984    6.8052 O   0  0  0  0  0  0  0  0  0  0  0  0
   -5.0931   14.6469    7.6815 C   0  0  2  0  0  0  0  0  0  0  0  0
   -4.7919   14.2489    9.0732 N   0  0  0  0  0  0  0  0  0  0  0  0
   -4.0406   14.8732   10.0366 C   0  0  0  0  0  0  0  0  0  0  0  0
   -3.9055   14.1813   11.1384 N   0  0  0  0  0  0  0  0  0  0  0  0
   -4.6395   13.0226   10.9037 C   0  0  0  0  0  0  0  0  0  0  0  0
   -4.8401   11.8617   11.7174 C   0  0  0  0  0  0  0  0  0  0  0  0
   -4.3537   11.6239   12.8211 O   0  0  0  0  0  0  0  0  0  0  0  0
   -5.6870   10.9192   11.1187 N   0  0  0  0  0  0  0  0  0  0  0  0
   -6.2963   11.1039    9.8868 C   0  0  0  0  0  0  0  0  0  0  0  0
   -7.1674   10.1777    9.4709 N   0  0  0  0  0  0  0  0  0  0  0  0
   -6.0670   12.1725    9.1062 N   0  0  0  0  0  0  0  0  0  0  0  0
   -5.2291   13.0889    9.6636 C   0  0  0  0  0  0  0  0  0  0  0  0
  1  2  2  0  0  0  0
  1  4  1  0  0  0  0
  1  3  1  0  0  0  0
  5  1  1  0  0  0  0
  6  7  2  6  0  0  0
  6  9  1  0  0  0  0
  6  5  1  0  0  0  0
  6  8  1  0  0  0  0
 10 11  2  6  0  0  0
 10 12  1  0  0  0  0
 10 13  1  0  0  0  0
 10  9  1  0  0  0  0
 13 14  1  0  0  0  0
 15 14  1  1  0  0  0
 15 16  1  0  0  0  0
 17 19  1  0  0  0  0
 17 15  1  0  0  0  0
 17 18  1  6  0  0  0
 19 21  1  0  0  0  0
 19 20  1  6  0  0  0
 21 16  1  0  0  0  0
 21 22  1  1  0  0  0
 22 32  1  0  0  0  0
 23 22  1  0  0  0  0
 23 24  2  0  0  0  0
 24 25  1  0  0  0  0
 25 26  1  0  0  0  0
 26 27  2  0  0  0  0
 26 28  1  0  0  0  0
 29 28  1  0  0  0  0
 29 30  1  0  0  0  0
 31 29  2  0  0  0  0
 32 25  2  0  0  0  0
 32 31  1  0  0  0  0
M  END
>  <CHROM.1>
86.75414851,49.69897278,-57.93030756,-88.36006623,-11.84536977,56.86025304
53.75781087,-52.78129818,66.69665388,44.03440941,-3.18626074,13.53182500
6.74766779,-0.58431517,-0.66557957,2.34914183

>  <Name>
lig.pdb

>  <RI>
2.0892e+07

>  <Rbt.Current_Directory>
/home/itssahil/PROJECTS/Mol_Feturizer/New_Systems/rnas/5lwj

>  <Rbt.Executable>
rbdock ($Id: //depot/dev/client3/rdock/2013.1/src/exe/rbdock.cxx#4 $)

>  <Rbt.Library>
libRbt.so (2013.1, Build901 2013/11/27)

>  <Rbt.Parameter_File>
/export/apps/rDock/src/rDock_2013.1_src/data/scripts/dock_solv.prm

>  <Rbt.Receptor>
prm/pocket_docking_8.prm

>  <SCORE>
-39.0865

>  <SCORE.INTER>
-35.4878

>  <SCORE.INTER.CONST>
1

>  <SCORE.INTER.POLAR>
-5.08264

>  <SCORE.INTER.ROT>
8

>  <SCORE.INTER.SOLV>
24.183

>  <SCORE.INTER.VDW>
-23.7107

>  <SCORE.INTER.norm>
-1.10899

>  <SCORE.INTRA>
-3.59869

>  <SCORE.INTRA.DIHEDRAL>
-2.84661

>  <SCORE.INTRA.DIHEDRAL.0>
10.9248

>  <SCORE.INTRA.POLAR>
0

>  <SCORE.INTRA.POLAR.0>
0

>  <SCORE.INTRA.REPUL>
0

>  <SCORE.INTRA.REPUL.0>
0

>  <SCORE.INTRA.SOLV>
1.09058

>  <SCORE.INTRA.SOLV.lig_0>
-51.4104

>  <SCORE.INTRA.VDW>
-2.72068

>  <SCORE.INTRA.VDW.0>
0.110327

>  <SCORE.INTRA.norm>
-0.112459

>  <SCORE.RESTR>
0

>  <SCORE.RESTR.CAVITY>
0

>  <SCORE.RESTR.norm>
0

>  <SCORE.SYSTEM>
0

>  <SCORE.SYSTEM.CONST>
0

>  <SCORE.SYSTEM.DIHEDRAL>
0

>  <SCORE.SYSTEM.SOLV>
0

>  <SCORE.SYSTEM.norm>
0

>  <SCORE.heavy>
32

>  <SCORE.norm>
-1.22145

>  <RMSD>
9.575

$$$$
lig.pdb
 OpenBabel11021811523D
libRbt.so/2013.1/901 2013/11/27
 32 34  0  0  0  0  0  0  0  0999 V2000
    0.5776   11.5318    5.4415 P   0  0  0  0  0  0  0  0  0  0  0  0
    1.0583   11.5605    6.8719 O   0  0  0  0  0  0  0  0  0  0  0  0
    1.7569   10.7258    4.6720 O   0  0  0  0  0  0  0  0  0  0  0  0
   -0.6582   10.7313    5.1141 O   0  0  0  0  0  0  0  0  0  0  0  0
    0.2708   12.9055    5.0929 O   0  0  0  0  0  0  0  0  0  0  0  0
   -0.1335   12.9759    3.6692 P   0  0  1  0  0  0  0  0  0  0  0  0
    0.7930   12.1270    2.8837 O   0  0  0  0  0  0  0  0  0  0  0  0
   -1.5137   12.4627    3.5073 O   0  0  0  0  0  0  0  0  0  0  0  0
   -0.0631   14.3842    3.2050 O   0  0  0  0  0  0  0  0  0  0  0  0
   -0.7860   14.8650    2.0037 P   0  0  1  0  0  0  0  0  0  0  0  0
   -1.1220   13.8150    1.0207 O   0  0  0  0  0  0  0  0  0  0  0  0
   -1.8693   15.8374    2.2701 O   0  0  0  0  0  0  0  0  0  0  0  0
    0.3462   15.7186    1.2237 O   0  0  0  0  0  0  0  0  0  0  0  0
    1.4242   16.3411    1.8969 C   0  0  0  0  0  0  0  0  0  0  0  0
    2.3283   17.1416    0.9491 C   0  0  1  0  0  0  0  0  0  0  0  0
    1.6750   18.3216    0.5283 O   0  0  0  0  0  0  0  0  0  0  0  0
    3.5849   17.7149    1.6274 C   0  0  1  0  0  0  0  0  0  0  0  0
    4.6317   16.7864    1.8559 O   0  0  0  0  0  0  0  0  0  0  0  0
    3.9987   18.8550    0.6972 C   0  0  1  0  0  0  0  0  0  0  0  0
    4.9173   18.4297   -0.2940 O   0  0  0  0  0  0  0  0  0  0  0  0
    2.6707   19.1926    0.0220 C   0  0  2  0  0  0  0  0  0  0  0  0
    2.2497   20.6063    0.1225 N   0  0  0  0  0  0  0  0  0  0  0  0
    2.5402   21.5585    1.0666 C   0  0  0  0  0  0  0  0  0  0  0  0
    1.9105   22.6915    0.8922 N   0  0  0  0  0  0  0  0  0  0  0  0
    1.1645   22.4905   -0.2654 C   0  0  0  0  0  0  0  0  0  0  0  0
    0.2400   23.3484   -0.9429 C   0  0  0  0  0  0  0  0  0  0  0  0
   -0.1289   24.4717   -0.6061 O   0  0  0  0  0  0  0  0  0  0  0  0
   -0.2799   22.7720   -2.1097 N   0  0  0  0  0  0  0  0  0  0  0  0
    0.0872   21.5203   -2.5802 C   0  0  0  0  0  0  0  0  0  0  0  0
   -0.3989   21.1252   -3.7622 N   0  0  0  0  0  0  0  0  0  0  0  0
    0.9178   20.7000   -1.9160 N   0  0  0  0  0  0  0  0  0  0  0  0
    1.4159   21.2360   -0.7684 C   0  0  0  0  0  0  0  0  0  0  0  0
  1  2  2  0  0  0  0
  1  4  1  0  0  0  0
  1  3  1  0  0  0  0
  5  1  1  0  0  0  0
  6  7  2  6  0  0  0
  6  9  1  0  0  0  0
  6  5  1  0  0  0  0
  6  8  1  0  0  0  0
 10 11  2  6  0  0  0
 10 12  1  0  0  0  0
 10 13  1  0  0  0  0
 10  9  1  0  0  0  0
 13 14  1  0  0  0  0
 15 14  1  1  0  0  0
 15 16  1  0  0  0  0
 17 19  1  0  0  0  0
 17 15  1  0  0  0  0
 17 18  1  6  0  0  0
 19 21  1  0  0  0  0
 19 20  1  6  0  0  0
 21 16  1  0  0  0  0
 21 22  1  1  0  0  0
 22 32  1  0  0  0  0
 23 22  1  0  0  0  0
 23 24  2  0  0  0  0
 24 25  1  0  0  0  0
 25 26  1  0  0  0  0
 26 27  2  0  0  0  0
 26 28  1  0  0  0  0
 29 28  1  0  0  0  0
 29 30  1  0  0  0  0
 31 29  2  0  0  0  0
 32 25  2  0  0  0  0
 32 31  1  0  0  0  0
M  END
>  <CHROM.1>
176.61388749,-160.28371282,-43.33211203,-27.21029415,-23.24867717,-177.48002905
72.53391072,-177.82490202,-62.10344937,97.57876088,0.91175111,16.73432885
1.66987182,-1.66634014,-0.22426501,-0.53407665

>  <Name>
lig.pdb

>  <RI>
2.0892e+07

>  <Rbt.Current_Directory>
/home/itssahil/PROJECTS/Mol_Feturizer/New_Systems/rnas/5lwj

>  <Rbt.Executable>
rbdock ($Id: //depot/dev/client3/rdock/2013.1/src/exe/rbdock.cxx#4 $)

>  <Rbt.Library>
libRbt.so (2013.1, Build901 2013/11/27)

>  <Rbt.Parameter_File>
/export/apps/rDock/src/rDock_2013.1_src/data/scripts/dock_solv.prm

>  <Rbt.Receptor>
prm/pocket_docking_8.prm

>  <SCORE>
-26.3636

>  <SCORE.INTER>
-24.3138

>  <SCORE.INTER.CONST>
1

>  <SCORE.INTER.POLAR>
-3.02873

>  <SCORE.INTER.ROT>
8

>  <SCORE.INTER.SOLV>
15.1604

>  <SCORE.INTER.VDW>
-20.1003

>  <SCORE.INTER.norm>
-0.759806

>  <SCORE.INTRA>
-2.04977

>  <SCORE.INTRA.DIHEDRAL>
-2.99841

>  <SCORE.INTRA.DIHEDRAL.0>
10.9248

>  <SCORE.INTRA.POLAR>
0

>  <SCORE.INTRA.POLAR.0>
0

>  <SCORE.INTRA.REPUL>
0

>  <SCORE.INTRA.REPUL.0>
0

>  <SCORE.INTRA.SOLV>
-1.1467

>  <SCORE.INTRA.SOLV.lig_0>
-51.4104

>  <SCORE.INTRA.VDW>
0.022781

>  <SCORE.INTRA.VDW.0>
0.110327

>  <SCORE.INTRA.norm>
-0.0640554

>  <SCORE.RESTR>
0

>  <SCORE.RESTR.CAVITY>
0

>  <SCORE.RESTR.norm>
0

>  <SCORE.SYSTEM>
0

>  <SCORE.SYSTEM.CONST>
0

>  <SCORE.SYSTEM.DIHEDRAL>
0

>  <SCORE.SYSTEM.SOLV>
0

>  <SCORE.SYSTEM.norm>
0

>  <SCORE.heavy>
32

>  <SCORE.norm>
-0.823862

>  <RMSD>
9.585

$$$$
lig.pdb
 OpenBabel11021811523D
libRbt.so/2013.1/901 2013/11/27
 32 34  0  0  0  0  0  0  0  0999 V2000
    1.8726   11.3779    6.3432 P   0  0  0  0  0  0  0  0  0  0  0  0
    1.7090    9.8883    6.1639 O   0  0  0  0  0  0  0  0  0  0  0  0
    3.1497   11.4917    7.3376 O   0  0  0  0  0  0  0  0  0  0  0  0
    2.2881   12.2044    5.1518 O   0  0  0  0  0  0  0  0  0  0  0  0
    0.5733   11.8794    6.7469 O   0  0  0  0  0  0  0  0  0  0  0  0
   -0.3257   11.9274    5.5700 P   0  0  1  0  0  0  0  0  0  0  0  0
   -0.2984   10.5990    4.9138 O   0  0  0  0  0  0  0  0  0  0  0  0
   -1.7114   12.2248    6.0013 O   0  0  0  0  0  0  0  0  0  0  0  0
    0.1450   12.9770    4.6317 O   0  0  0  0  0  0  0  0  0  0  0  0
   -0.6830   13.4691    3.5050 P   0  0  1  0  0  0  0  0  0  0  0  0
   -0.6639   12.6130    2.3015 O   0  0  0  0  0  0  0  0  0  0  0  0
   -2.0194   13.9795    3.8841 O   0  0  0  0  0  0  0  0  0  0  0  0
    0.1291   14.7785    3.0105 O   0  0  0  0  0  0  0  0  0  0  0  0
    1.4190   14.6976    2.4339 C   0  0  0  0  0  0  0  0  0  0  0  0
    2.1232   16.0601    2.3701 C   0  0  1  0  0  0  0  0  0  0  0  0
    3.5097   15.8861    2.1610 O   0  0  0  0  0  0  0  0  0  0  0  0
    1.7338   16.9026    1.1428 C   0  0  1  0  0  0  0  0  0  0  0  0
    0.4738   17.5478    1.2211 O   0  0  0  0  0  0  0  0  0  0  0  0
    2.8948   17.8877    1.0086 C   0  0  1  0  0  0  0  0  0  0  0  0
    2.6586   19.0921    1.7163 O   0  0  0  0  0  0  0  0  0  0  0  0
    4.0217   17.1246    1.7023 C   0  0  2  0  0  0  0  0  0  0  0  0
    5.2476   16.9346    0.8980 N   0  0  0  0  0  0  0  0  0  0  0  0
    6.0616   15.8390    0.7581 C   0  0  0  0  0  0  0  0  0  0  0  0
    7.1282   16.0567    0.0331 N   0  0  0  0  0  0  0  0  0  0  0  0
    7.0059   17.3860   -0.3600 C   0  0  0  0  0  0  0  0  0  0  0  0
    7.8791   18.2170   -1.1327 C   0  0  0  0  0  0  0  0  0  0  0  0
    8.9804   17.9255   -1.5948 O   0  0  0  0  0  0  0  0  0  0  0  0
    7.3648   19.5049   -1.3343 N   0  0  0  0  0  0  0  0  0  0  0  0
    6.1270   19.9217   -0.8683 C   0  0  0  0  0  0  0  0  0  0  0  0
    5.7018   21.1412   -1.2170 N   0  0  0  0  0  0  0  0  0  0  0  0
    5.3332   19.1545   -0.1033 N   0  0  0  0  0  0  0  0  0  0  0  0
    5.8276   17.9064    0.1206 C   0  0  0  0  0  0  0  0  0  0  0  0
  1  2  2  0  0  0  0
  1  4  1  0  0  0  0
  1  3  1  0  0  0  0
  5  1  1  0  0  0  0
  6  7  2  6  0  0  0
  6  9  1  0  0  0  0
  6  5  1  0  0  0  0
  6  8  1  0  0  0  0
 10 11  2  6  0  0  0
 10 12  1  0  0  0  0
 10 13  1  0  0  0  0
 10  9  1  0  0  0  0
 13 14  1  0  0  0  0
 15 14  1  6  0  0  0
 15 16  1  0  0  0  0
 17 19  1  0  0  0  0
 17 15  1  0  0  0  0
 17 18  1  1  0  0  0
 19 21  1  0  0  0  0
 19 20  1  1  0  0  0
 21 16  1  0  0  0  0
 21 22  1  6  0  0  0
 22 32  1  0  0  0  0
 23 22  1  0  0  0  0
 23 24  2  0  0  0  0
 24 25  1  0  0  0  0
 25 26  1  0  0  0  0
 26 27  2  0  0  0  0
 26 28  1  0  0  0  0
 29 28  1  0  0  0  0
 29 30  1  0  0  0  0
 31 29  2  0  0  0  0
 32 25  2  0  0  0  0
 32 31  1  0  0  0  0
M  END
>  <CHROM.1>
-75.89698798,-166.96225793,51.82136144,65.87784932,-81.24357902,-165.65723003
163.08407123,-61.64062744,59.81165137,-13.96059652,2.58797917,15.03838314
2.71451769,-2.16769327,0.10661756,-0.64924733

>  <Name>
lig.pdb

>  <RI>
0

>  <Rbt.Current_Directory>
/home/itssahil/PROJECTS/Mol_Feturizer/New_Systems/rnas/5lwj

>  <Rbt.Executable>
rbdock ($Id: //depot/dev/client3/rdock/2013.1/src/exe/rbdock.cxx#4 $)

>  <Rbt.Library>
libRbt.so (2013.1, Build901 2013/11/27)

>  <Rbt.Parameter_File>
/export/apps/rDock/src/rDock_2013.1_src/data/scripts/dock_solv.prm

>  <Rbt.Receptor>
prm/pocket_docking_3.prm

>  <SCORE>
-31.369

>  <SCORE.INTER>
-29.5998

>  <SCORE.INTER.CONST>
1

>  <SCORE.INTER.POLAR>
-2.01212

>  <SCORE.INTER.ROT>
8

>  <SCORE.INTER.SOLV>
20.7128

>  <SCORE.INTER.VDW>
-28.8637

>  <SCORE.INTER.norm>
-0.924993

>  <SCORE.INTRA>
-1.93424

>  <SCORE.INTRA.DIHEDRAL>
-5.19083

>  <SCORE.INTRA.DIHEDRAL.0>
10.9248

>  <SCORE.INTRA.POLAR>
0

>  <SCORE.INTRA.POLAR.0>
0

>  <SCORE.INTRA.REPUL>
0

>  <SCORE.INTRA.REPUL.0>
0

>  <SCORE.INTRA.SOLV>
0.239792

>  <SCORE.INTRA.SOLV.lig_0>
-51.4104

>  <SCORE.INTRA.VDW>
0.541276

>  <SCORE.INTRA.VDW.0>
0.110327

>  <SCORE.INTRA.norm>
-0.0604451

>  <SCORE.RESTR>
0.164983

>  <SCORE.RESTR.CAVITY>
0.164983

>  <SCORE.RESTR.norm>
0.00515572

>  <SCORE.SYSTEM>
0

>  <SCORE.SYSTEM.CONST>
0

>  <SCORE.SYSTEM.DIHEDRAL>
0

>  <SCORE.SYSTEM.SOLV>
0

>  <SCORE.SYSTEM.norm>
0

>  <SCORE.heavy>
32

>  <SCORE.norm>
-0.980283

>  <RMSD>
9.589

$$$$
lig.pdb
 OpenBabel11021811523D
libRbt.so/2013.1/901 2013/11/27
 32 34  0  0  0  0  0  0  0  0999 V2000
   -0.2580   11.7726    4.8216 P   0  0  0  0  0  0  0  0  0  0  0  0
    0.4124   11.0160    5.9425 O   0  0  0  0  0  0  0  0  0  0  0  0
   -1.5879   10.8915    4.5256 O   0  0  0  0  0  0  0  0  0  0  0  0
   -0.8108   13.1458    5.1109 O   0  0  0  0  0  0  0  0  0  0  0  0
    0.7529   11.9536    3.7979 O   0  0  0  0  0  0  0  0  0  0  0  0
    0.2409   12.8724    2.7543 P   0  0  1  0  0  0  0  0  0  0  0  0
   -1.1534   12.4820    2.4392 O   0  0  0  0  0  0  0  0  0  0  0  0
    0.2505   14.2663    3.2560 O   0  0  0  0  0  0  0  0  0  0  0  0
    1.0931   12.7681    1.5433 O   0  0  0  0  0  0  0  0  0  0  0  0
    0.9771   13.7081    0.4031 P   0  0  1  0  0  0  0  0  0  0  0  0
   -0.2716   13.5859   -0.3765 O   0  0  0  0  0  0  0  0  0  0  0  0
    1.3981   15.0976    0.6896 O   0  0  0  0  0  0  0  0  0  0  0  0
    2.0875   13.1504   -0.6335 O   0  0  0  0  0  0  0  0  0  0  0  0
    2.1376   13.5643   -1.9859 C   0  0  0  0  0  0  0  0  0  0  0  0
    3.3289   12.9618   -2.7435 C   0  0  1  0  0  0  0  0  0  0  0  0
    4.4766   13.7682   -2.5736 O   0  0  0  0  0  0  0  0  0  0  0  0
    3.8134   11.6185   -2.1701 C   0  0  1  0  0  0  0  0  0  0  0  0
    3.0203   10.4917   -2.5038 O   0  0  0  0  0  0  0  0  0  0  0  0
    5.2458   11.5083   -2.6921 C   0  0  1  0  0  0  0  0  0  0  0  0
    5.3121   10.8258   -3.9318 O   0  0  0  0  0  0  0  0  0  0  0  0
    5.5987   12.9767   -2.9217 C   0  0  2  0  0  0  0  0  0  0  0  0
    6.8221   13.4491   -2.2389 N   0  0  0  0  0  0  0  0  0  0  0  0
    7.7377   12.7682   -1.4771 C   0  0  0  0  0  0  0  0  0  0  0  0
    8.6560   13.5296   -0.9407 N   0  0  0  0  0  0  0  0  0  0  0  0
    8.3464   14.8074   -1.3967 C   0  0  0  0  0  0  0  0  0  0  0  0
    8.9592   16.0721   -1.1229 C   0  0  0  0  0  0  0  0  0  0  0  0
    9.9007   16.3035   -0.3670 O   0  0  0  0  0  0  0  0  0  0  0  0
    8.3558   17.1291   -1.8175 N   0  0  0  0  0  0  0  0  0  0  0  0
    7.3019   16.9661   -2.7040 C   0  0  0  0  0  0  0  0  0  0  0  0
    6.8826   18.0377   -3.3863 N   0  0  0  0  0  0  0  0  0  0  0  0
    6.6995   15.7854   -2.9207 N   0  0  0  0  0  0  0  0  0  0  0  0
    7.2597   14.7505   -2.2369 C   0  0  0  0  0  0  0  0  0  0  0  0
  1  2  2  0  0  0  0
  1  4  1  0  0  0  0
  1  3  1  0  0  0  0
  5  1  1  0  0  0  0
  6  7  2  6  0  0  0
  6  9  1  0  0  0  0
  6  5  1  0  0  0  0
  6  8  1  0  0  0  0
 10 11  2  6  0  0  0
 10 12  1  0  0  0  0
 10 13  1  0  0  0  0
 10  9  1  0  0  0  0
 13 14  1  0  0  0  0
 15 14  1  1  0  0  0
 15 16  1  0  0  0  0
 17 19  1  0  0  0  0
 17 15  1  0  0  0  0
 17 18  1  6  0  0  0
 19 21  1  0  0  0  0
 19 20  1  6  0  0  0
 21 16  1  0  0  0  0
 21 22  1  1  0  0  0
 22 32  1  0  0  0  0
 23 22  1  0  0  0  0
 23 24  2  0  0  0  0
 24 25  1  0  0  0  0
 25 26  1  0  0  0  0
 26 27  2  0  0  0  0
 26 28  1  0  0  0  0
 29 28  1  0  0  0  0
 29 30  1  0  0  0  0
 31 29  2  0  0  0  0
 32 25  2  0  0  0  0
 32 31  1  0  0  0  0
M  END
>  <CHROM.1>
-171.10289038,-170.11086637,-44.15660020,166.14427307,-68.95688291,176.50902751
-86.51683810,-86.05395261,173.55369463,127.72646657,3.33328466,13.44359565
0.13594343,-2.73429742,-0.58804176,-2.06570929

>  <Name>
lig.pdb

>  <RI>
2.0892e+07

>  <Rbt.Current_Directory>
/home/itssahil/PROJECTS/Mol_Feturizer/New_Systems/rnas/5lwj

>  <Rbt.Executable>
rbdock ($Id: //depot/dev/client3/rdock/2013.1/src/exe/rbdock.cxx#4 $)

>  <Rbt.Library>
libRbt.so (2013.1, Build901 2013/11/27)

>  <Rbt.Parameter_File>
/export/apps/rDock/src/rDock_2013.1_src/data/scripts/dock_solv.prm

>  <Rbt.Receptor>
prm/pocket_docking_8.prm

>  <SCORE>
-26.8339

>  <SCORE.INTER>
-26.1954

>  <SCORE.INTER.CONST>
1

>  <SCORE.INTER.POLAR>
-2.77632

>  <SCORE.INTER.ROT>
8

>  <SCORE.INTER.SOLV>
19.7084

>  <SCORE.INTER.VDW>
-23.712

>  <SCORE.INTER.norm>
-0.818605

>  <SCORE.INTRA>
-0.638558

>  <SCORE.INTRA.DIHEDRAL>
-1.90347

>  <SCORE.INTRA.DIHEDRAL.0>
10.9248

>  <SCORE.INTRA.POLAR>
0

>  <SCORE.INTRA.POLAR.0>
0

>  <SCORE.INTRA.REPUL>
0.0430961

>  <SCORE.INTRA.REPUL.0>
0

>  <SCORE.INTRA.SOLV>
-1.44319

>  <SCORE.INTRA.SOLV.lig_0>
-51.4104

>  <SCORE.INTRA.VDW>
0.819293

>  <SCORE.INTRA.VDW.0>
0.110327

>  <SCORE.INTRA.norm>
-0.0199549

>  <SCORE.RESTR>
0

>  <SCORE.RESTR.CAVITY>
0

>  <SCORE.RESTR.norm>
0

>  <SCORE.SYSTEM>
0

>  <SCORE.SYSTEM.CONST>
0

>  <SCORE.SYSTEM.DIHEDRAL>
0

>  <SCORE.SYSTEM.SOLV>
0

>  <SCORE.SYSTEM.norm>
0

>  <SCORE.heavy>
32

>  <SCORE.norm>
-0.83856

>  <RMSD>
9.609

$$$$
lig.pdb
 OpenBabel11021811523D
libRbt.so/2013.1/901 2013/11/27
 32 34  0  0  0  0  0  0  0  0999 V2000
   -1.6093   12.2500    5.1417 P   0  0  0  0  0  0  0  0  0  0  0  0
   -1.0769   11.8449    6.4946 O   0  0  0  0  0  0  0  0  0  0  0  0
   -1.7578   10.8335    4.3645 O   0  0  0  0  0  0  0  0  0  0  0  0
   -2.9971   12.8353    5.0608 O   0  0  0  0  0  0  0  0  0  0  0  0
   -0.7112   13.2752    4.6468 O   0  0  0  0  0  0  0  0  0  0  0  0
   -0.2364   12.9051    3.2928 P   0  0  1  0  0  0  0  0  0  0  0  0
    0.6082   11.6936    3.4150 O   0  0  0  0  0  0  0  0  0  0  0  0
   -1.3909   12.6026    2.4151 O   0  0  0  0  0  0  0  0  0  0  0  0
    0.5493   14.0274    2.7212 O   0  0  0  0  0  0  0  0  0  0  0  0
   -0.0406   15.3616    2.4589 P   0  0  1  0  0  0  0  0  0  0  0  0
   -1.2131   15.3554    1.5607 O   0  0  0  0  0  0  0  0  0  0  0  0
   -0.1715   16.2347    3.6467 O   0  0  0  0  0  0  0  0  0  0  0  0
    1.0887   16.0782    1.5479 O   0  0  0  0  0  0  0  0  0  0  0  0
    2.2991   16.5719    2.0899 C   0  0  0  0  0  0  0  0  0  0  0  0
    2.6043   18.0077    1.6408 C   0  0  1  0  0  0  0  0  0  0  0  0
    3.9115   18.3761    2.0308 O   0  0  0  0  0  0  0  0  0  0  0  0
    2.6837   18.1762    0.1134 C   0  0  1  0  0  0  0  0  0  0  0  0
    1.4372   18.2212   -0.5606 O   0  0  0  0  0  0  0  0  0  0  0  0
    3.4948   19.4603   -0.0581 C   0  0  1  0  0  0  0  0  0  0  0  0
    2.6687   20.6090   -0.1302 O   0  0  0  0  0  0  0  0  0  0  0  0
    4.2781   19.5016    1.2528 C   0  0  2  0  0  0  0  0  0  0  0  0
    5.7464   19.6018    1.1112 N   0  0  0  0  0  0  0  0  0  0  0  0
    6.5447   19.4946    0.0006 C   0  0  0  0  0  0  0  0  0  0  0  0
    7.8261   19.5396    0.2591 N   0  0  0  0  0  0  0  0  0  0  0  0
    7.8882   19.7142    1.6383 C   0  0  0  0  0  0  0  0  0  0  0  0
    9.0125   19.7949    2.5211 C   0  0  0  0  0  0  0  0  0  0  0  0
   10.2029   19.6838    2.2346 O   0  0  0  0  0  0  0  0  0  0  0  0
    8.6407   20.0101    3.8550 N   0  0  0  0  0  0  0  0  0  0  0  0
    7.3276   20.1655    4.2732 C   0  0  0  0  0  0  0  0  0  0  0  0
    7.1085   20.4723    5.5567 N   0  0  0  0  0  0  0  0  0  0  0  0
    6.2742   20.0409    3.4494 N   0  0  0  0  0  0  0  0  0  0  0  0
    6.6168   19.8102    2.1525 C   0  0  0  0  0  0  0  0  0  0  0  0
  1  2  2  0  0  0  0
  1  4  1  0  0  0  0
  1  3  1  0  0  0  0
  5  1  1  0  0  0  0
  6  7  2  1  0  0  0
  6  9  1  0  0  0  0
  6  5  1  0  0  0  0
  6  8  1  0  0  0  0
 10 11  2  6  0  0  0
 10 12  1  0  0  0  0
 10 13  1  0  0  0  0
 10  9  1  0  0  0  0
 13 14  1  0  0  0  0
 15 14  1  6  0  0  0
 15 16  1  0  0  0  0
 17 19  1  0  0  0  0
 17 15  1  0  0  0  0
 17 18  1  1  0  0  0
 19 21  1  0  0  0  0
 19 20  1  1  0  0  0
 21 16  1  0  0  0  0
 21 22  1  6  0  0  0
 22 32  1  0  0  0  0
 23 22  1  0  0  0  0
 23 24  2  0  0  0  0
 24 25  1  0  0  0  0
 25 26  1  0  0  0  0
 26 27  2  0  0  0  0
 26 28  1  0  0  0  0
 29 28  1  0  0  0  0
 29 30  1  0  0  0  0
 31 29  2  0  0  0  0
 32 25  2  0  0  0  0
 32 31  1  0  0  0  0
M  END
>  <CHROM.1>
127.11418774,-62.28837686,-66.51003643,-75.06760968,-57.15147459,-131.03323145
-170.75222314,72.47480428,-172.30436897,114.79193448,2.51252552,16.48702106
2.65573959,-2.57782913,-0.49733552,-0.91884070

>  <Name>
lig.pdb

>  <RI>
1.82117e+07

>  <Rbt.Current_Directory>
/home/itssahil/PROJECTS/Mol_Feturizer/New_Systems/rnas/5lwj

>  <Rbt.Executable>
rbdock ($Id: //depot/dev/client3/rdock/2013.1/src/exe/rbdock.cxx#4 $)

>  <Rbt.Library>
libRbt.so (2013.1, Build901 2013/11/27)

>  <Rbt.Parameter_File>
/export/apps/rDock/src/rDock_2013.1_src/data/scripts/dock_solv.prm

>  <Rbt.Receptor>
prm/pocket_docking_5.prm

>  <SCORE>
-38.9544

>  <SCORE.INTER>
-36.901

>  <SCORE.INTER.CONST>
1

>  <SCORE.INTER.POLAR>
-5.01316

>  <SCORE.INTER.ROT>
8

>  <SCORE.INTER.SOLV>
21.9533

>  <SCORE.INTER.VDW>
-24.1413

>  <SCORE.INTER.norm>
-1.15316

>  <SCORE.INTRA>
-2.2945

>  <SCORE.INTRA.DIHEDRAL>
2.70287

>  <SCORE.INTRA.DIHEDRAL.0>
10.9248

>  <SCORE.INTRA.POLAR>
-0.0974137

>  <SCORE.INTRA.POLAR.0>
0

>  <SCORE.INTRA.REPUL>
0

>  <SCORE.INTRA.REPUL.0>
0

>  <SCORE.INTRA.SOLV>
-1.00831

>  <SCORE.INTRA.SOLV.lig_0>
-51.4104

>  <SCORE.INTRA.VDW>
-2.81058

>  <SCORE.INTRA.VDW.0>
0.110327

>  <SCORE.INTRA.norm>
-0.0717032

>  <SCORE.RESTR>
0.241178

>  <SCORE.RESTR.CAVITY>
0.241178

>  <SCORE.RESTR.norm>
0.00753683

>  <SCORE.SYSTEM>
0

>  <SCORE.SYSTEM.CONST>
0

>  <SCORE.SYSTEM.DIHEDRAL>
0

>  <SCORE.SYSTEM.SOLV>
0

>  <SCORE.SYSTEM.norm>
0

>  <SCORE.heavy>
32

>  <SCORE.norm>
-1.21732

>  <RMSD>
9.625

$$$$
lig.pdb
 OpenBabel11021811523D
libRbt.so/2013.1/901 2013/11/27
 32 34  0  0  0  0  0  0  0  0999 V2000
   -0.3887   11.9790    4.1238 P   0  0  0  0  0  0  0  0  0  0  0  0
   -1.2414   10.9049    4.7541 O   0  0  0  0  0  0  0  0  0  0  0  0
    0.2566   12.7369    5.4051 O   0  0  0  0  0  0  0  0  0  0  0  0
    0.8204   11.5608    3.3249 O   0  0  0  0  0  0  0  0  0  0  0  0
   -1.2536   12.6894    3.2019 O   0  0  0  0  0  0  0  0  0  0  0  0
   -1.9527   13.7804    3.9207 P   0  0  1  0  0  0  0  0  0  0  0  0
   -3.1082   14.2091    3.0979 O   0  0  0  0  0  0  0  0  0  0  0  0
   -2.4462   13.2917    5.2292 O   0  0  0  0  0  0  0  0  0  0  0  0
   -1.0169   14.9140    4.1280 O   0  0  0  0  0  0  0  0  0  0  0  0
   -1.1294   16.1882    3.3792 P   0  0  1  0  0  0  0  0  0  0  0  0
   -0.9427   16.0676    1.9189 O   0  0  0  0  0  0  0  0  0  0  0  0
   -2.2491   17.0629    3.7930 O   0  0  0  0  0  0  0  0  0  0  0  0
    0.2025   16.9876    3.8328 O   0  0  0  0  0  0  0  0  0  0  0  0
    0.9455   17.7926    2.9370 C   0  0  0  0  0  0  0  0  0  0  0  0
    1.2469   19.1857    3.5068 C   0  0  1  0  0  0  0  0  0  0  0  0
    2.6039   19.2758    3.8898 O   0  0  0  0  0  0  0  0  0  0  0  0
    1.1486   20.3158    2.4671 C   0  0  1  0  0  0  0  0  0  0  0  0
   -0.1673   20.7264    2.1357 O   0  0  0  0  0  0  0  0  0  0  0  0
    1.9796   21.4388    3.0871 C   0  0  1  0  0  0  0  0  0  0  0  0
    1.1933   22.3106    3.8800 O   0  0  0  0  0  0  0  0  0  0  0  0
    2.9154   20.6529    4.0037 C   0  0  2  0  0  0  0  0  0  0  0  0
    4.3588   20.8965    3.7957 N   0  0  0  0  0  0  0  0  0  0  0  0
    5.1767   21.8825    4.2866 C   0  0  0  0  0  0  0  0  0  0  0  0
    6.3953   21.8491    3.8126 N   0  0  0  0  0  0  0  0  0  0  0  0
    6.3989   20.7470    2.9629 C   0  0  0  0  0  0  0  0  0  0  0  0
    7.4298   20.2177    2.1220 C   0  0  0  0  0  0  0  0  0  0  0  0
    8.5588   20.6694    1.9416 O   0  0  0  0  0  0  0  0  0  0  0  0
    7.0331   19.0586    1.4416 N   0  0  0  0  0  0  0  0  0  0  0  0
    5.7892   18.4644    1.5923 C   0  0  0  0  0  0  0  0  0  0  0  0
    5.5683   17.3011    0.9698 N   0  0  0  0  0  0  0  0  0  0  0  0
    4.8093   18.9913    2.3447 N   0  0  0  0  0  0  0  0  0  0  0  0
    5.1707   20.1301    2.9965 C   0  0  0  0  0  0  0  0  0  0  0  0
  1  2  2  0  0  0  0
  1  4  1  0  0  0  0
  1  3  1  0  0  0  0
  5  1  1  0  0  0  0
  6  7  2  6  0  0  0
  6  9  1  0  0  0  0
  6  5  1  0  0  0  0
  6  8  1  0  0  0  0
 10 11  2  6  0  0  0
 10 12  1  0  0  0  0
 10 13  1  0  0  0  0
 10  9  1  0  0  0  0
 13 14  1  0  0  0  0
 15 14  1  6  0  0  0
 15 16  1  0  0  0  0
 17 19  1  0  0  0  0
 17 15  1  0  0  0  0
 17 18  1  1  0  0  0
 19 21  1  0  0  0  0
 19 20  1  1  0  0  0
 21 16  1  0  0  0  0
 21 22  1  6  0  0  0
 22 32  1  0  0  0  0
 23 22  1  0  0  0  0
 23 24  2  0  0  0  0
 24 25  1  0  0  0  0
 25 26  1  0  0  0  0
 26 27  2  0  0  0  0
 26 28  1  0  0  0  0
 29 28  1  0  0  0  0
 29 30  1  0  0  0  0
 31 29  2  0  0  0  0
 32 25  2  0  0  0  0
 32 31  1  0  0  0  0
M  END
>  <CHROM.1>
87.61792463,107.92924429,-162.83500155,142.20325147,-63.06757321,130.67300869
105.79125046,65.74208570,-176.67565081,-151.53255226,1.54037209,17.13805227
3.32905836,-2.31549521,0.16210374,-0.01801125

>  <Name>
lig.pdb

>  <RI>
0

>  <Rbt.Current_Directory>
/home/itssahil/PROJECTS/Mol_Feturizer/New_Systems/rnas/5lwj

>  <Rbt.Executable>
rbdock ($Id: //depot/dev/client3/rdock/2013.1/src/exe/rbdock.cxx#4 $)

>  <Rbt.Library>
libRbt.so (2013.1, Build901 2013/11/27)

>  <Rbt.Parameter_File>
/export/apps/rDock/src/rDock_2013.1_src/data/scripts/dock_solv.prm

>  <Rbt.Receptor>
prm/pocket_docking_6.prm

>  <SCORE>
-24.78

>  <SCORE.INTER>
-26.6149

>  <SCORE.INTER.CONST>
1

>  <SCORE.INTER.POLAR>
-3.76539

>  <SCORE.INTER.ROT>
8

>  <SCORE.INTER.SOLV>
15.7035

>  <SCORE.INTER.VDW>
-19.3598

>  <SCORE.INTER.norm>
-0.831715

>  <SCORE.INTRA>
1.83491

>  <SCORE.INTRA.DIHEDRAL>
8.86893

>  <SCORE.INTRA.DIHEDRAL.0>
10.9248

>  <SCORE.INTRA.POLAR>
-0.0330188

>  <SCORE.INTRA.POLAR.0>
0

>  <SCORE.INTRA.REPUL>
0

>  <SCORE.INTRA.REPUL.0>
0

>  <SCORE.INTRA.SOLV>
-0.194306

>  <SCORE.INTRA.SOLV.lig_0>
-51.4104

>  <SCORE.INTRA.VDW>
-2.39014

>  <SCORE.INTRA.VDW.0>
0.110327

>  <SCORE.INTRA.norm>
0.0573408

>  <SCORE.RESTR>
0

>  <SCORE.RESTR.CAVITY>
0

>  <SCORE.RESTR.norm>
0

>  <SCORE.SYSTEM>
0

>  <SCORE.SYSTEM.CONST>
0

>  <SCORE.SYSTEM.DIHEDRAL>
0

>  <SCORE.SYSTEM.SOLV>
0

>  <SCORE.SYSTEM.norm>
0

>  <SCORE.heavy>
32

>  <SCORE.norm>
-0.774374

>  <RMSD>
9.635

$$$$
lig.pdb
 OpenBabel11021811523D
libRbt.so/2013.1/901 2013/11/27
 32 34  0  0  0  0  0  0  0  0999 V2000
   -1.9284   12.4851    4.7628 P   0  0  0  0  0  0  0  0  0  0  0  0
   -2.3899   12.5598    6.1979 O   0  0  0  0  0  0  0  0  0  0  0  0
   -1.6785   10.8978    4.5378 O   0  0  0  0  0  0  0  0  0  0  0  0
   -2.9093   12.8381    3.6727 O   0  0  0  0  0  0  0  0  0  0  0  0
   -0.8358   13.4308    4.6421 O   0  0  0  0  0  0  0  0  0  0  0  0
    0.0429   13.0303    3.5183 P   0  0  1  0  0  0  0  0  0  0  0  0
    0.6746   11.7354    3.8649 O   0  0  0  0  0  0  0  0  0  0  0  0
   -0.7574   12.8621    2.2830 O   0  0  0  0  0  0  0  0  0  0  0  0
    1.0801   14.0712    3.3074 O   0  0  0  0  0  0  0  0  0  0  0  0
    1.7364   14.2890    1.9964 P   0  0  1  0  0  0  0  0  0  0  0  0
    3.1378   14.7495    2.0735 O   0  0  0  0  0  0  0  0  0  0  0  0
    1.4812   13.2397    0.9844 O   0  0  0  0  0  0  0  0  0  0  0  0
    0.9734   15.5983    1.4285 O   0  0  0  0  0  0  0  0  0  0  0  0
    1.5226   16.4138    0.4106 C   0  0  0  0  0  0  0  0  0  0  0  0
    2.4930   17.4690    0.9595 C   0  0  1  0  0  0  0  0  0  0  0  0
    3.7592   16.8913    1.2030 O   0  0  0  0  0  0  0  0  0  0  0  0
    2.8508   18.5697   -0.0545 C   0  0  1  0  0  0  0  0  0  0  0  0
    1.8613   19.5669   -0.2463 O   0  0  0  0  0  0  0  0  0  0  0  0
    4.1629   19.1359    0.4879 C   0  0  1  0  0  0  0  0  0  0  0  0
    3.9520   20.2285    1.3647 O   0  0  0  0  0  0  0  0  0  0  0  0
    4.6919   17.9532    1.2971 C   0  0  2  0  0  0  0  0  0  0  0  0
    6.0557   17.5034    0.9453 N   0  0  0  0  0  0  0  0  0  0  0  0
    6.5665   16.2391    0.7934 C   0  0  0  0  0  0  0  0  0  0  0  0
    7.8552   16.2081    0.5720 N   0  0  0  0  0  0  0  0  0  0  0  0
    8.2281   17.5486    0.5497 C   0  0  0  0  0  0  0  0  0  0  0  0
    9.5133   18.1593    0.3907 C   0  0  0  0  0  0  0  0  0  0  0  0
   10.6021   17.6005    0.2742 O   0  0  0  0  0  0  0  0  0  0  0  0
    9.4528   19.5594    0.3935 N   0  0  0  0  0  0  0  0  0  0  0  0
    8.2725   20.2792    0.5015 C   0  0  0  0  0  0  0  0  0  0  0  0
    8.3346   21.6104    0.3841 N   0  0  0  0  0  0  0  0  0  0  0  0
    7.0755   19.7029    0.6990 N   0  0  0  0  0  0  0  0  0  0  0  0
    7.1189   18.3427    0.7204 C   0  0  0  0  0  0  0  0  0  0  0  0
  1  2  2  0  0  0  0
  1  4  1  0  0  0  0
  1  3  1  0  0  0  0
  5  1  1  0  0  0  0
  6  7  2  1  0  0  0
  6  9  1  0  0  0  0
  6  5  1  0  0  0  0
  6  8  1  0  0  0  0
 10 11  2  1  0  0  0
 10 12  1  0  0  0  0
 10 13  1  0  0  0  0
 10  9  1  0  0  0  0
 13 14  1  0  0  0  0
 15 14  1  6  0  0  0
 15 16  1  0  0  0  0
 17 19  1  0  0  0  0
 17 15  1  0  0  0  0
 17 18  1  1  0  0  0
 19 21  1  0  0  0  0
 19 20  1  1  0  0  0
 21 16  1  0  0  0  0
 21 22  1  6  0  0  0
 22 32  1  0  0  0  0
 23 22  1  0  0  0  0
 23 24  2  0  0  0  0
 24 25  1  0  0  0  0
 25 26  1  0  0  0  0
 26 27  2  0  0  0  0
 26 28  1  0  0  0  0
 29 28  1  0  0  0  0
 29 30  1  0  0  0  0
 31 29  2  0  0  0  0
 32 25  2  0  0  0  0
 32 31  1  0  0  0  0
M  END
>  <CHROM.1>
155.37583443,-154.05175184,-65.45335880,160.11776759,-147.91360758,-84.60778578
80.34762423,-64.56700419,-173.51690329,-13.15155279,3.01362223,15.88979193
1.94294271,-2.45652940,0.10989895,-0.37347794

>  <Name>
lig.pdb

>  <RI>
0

>  <Rbt.Current_Directory>
/home/itssahil/PROJECTS/Mol_Feturizer/New_Systems/rnas/5lwj

>  <Rbt.Executable>
rbdock ($Id: //depot/dev/client3/rdock/2013.1/src/exe/rbdock.cxx#4 $)

>  <Rbt.Library>
libRbt.so (2013.1, Build901 2013/11/27)

>  <Rbt.Parameter_File>
/export/apps/rDock/src/rDock_2013.1_src/data/scripts/dock_solv.prm

>  <Rbt.Receptor>
prm/pocket_docking_4.prm

>  <SCORE>
-24.4301

>  <SCORE.INTER>
-23.0923

>  <SCORE.INTER.CONST>
1

>  <SCORE.INTER.POLAR>
-2.39011

>  <SCORE.INTER.ROT>
8

>  <SCORE.INTER.SOLV>
14.7743

>  <SCORE.INTER.VDW>
-21.2859

>  <SCORE.INTER.norm>
-0.721635

>  <SCORE.INTRA>
-1.33982

>  <SCORE.INTRA.DIHEDRAL>
0.216311

>  <SCORE.INTRA.DIHEDRAL.0>
10.9248

>  <SCORE.INTRA.POLAR>
0

>  <SCORE.INTRA.POLAR.0>
0

>  <SCORE.INTRA.REPUL>
0.0130529

>  <SCORE.INTRA.REPUL.0>
0

>  <SCORE.INTRA.SOLV>
-0.304208

>  <SCORE.INTRA.SOLV.lig_0>
-51.4104

>  <SCORE.INTRA.VDW>
-1.36114

>  <SCORE.INTRA.VDW.0>
0.110327

>  <SCORE.INTRA.norm>
-0.0418694

>  <SCORE.RESTR>
0.0020858

>  <SCORE.RESTR.CAVITY>
0.0020858

>  <SCORE.RESTR.norm>
6.51811e-05

>  <SCORE.SYSTEM>
0

>  <SCORE.SYSTEM.CONST>
0

>  <SCORE.SYSTEM.DIHEDRAL>
0

>  <SCORE.SYSTEM.SOLV>
0

>  <SCORE.SYSTEM.norm>
0

>  <SCORE.heavy>
32

>  <SCORE.norm>
-0.763439

>  <RMSD>
9.637

$$$$
lig.pdb
 OpenBabel11021811523D
libRbt.so/2013.1/901 2013/11/27
 32 34  0  0  0  0  0  0  0  0999 V2000
   -0.9608   13.1658    3.9829 P   0  0  0  0  0  0  0  0  0  0  0  0
   -0.2442   11.9853    4.5918 O   0  0  0  0  0  0  0  0  0  0  0  0
   -1.9279   12.4793    2.8756 O   0  0  0  0  0  0  0  0  0  0  0  0
   -1.9219   13.9462    4.8445 O   0  0  0  0  0  0  0  0  0  0  0  0
    0.0728   14.1016    3.5845 O   0  0  0  0  0  0  0  0  0  0  0  0
    0.6595   13.6705    2.2940 P   0  0  1  0  0  0  0  0  0  0  0  0
    1.0857   12.2577    2.4297 O   0  0  0  0  0  0  0  0  0  0  0  0
   -0.3538   13.7681    1.2177 O   0  0  0  0  0  0  0  0  0  0  0  0
    1.8234   14.5324    1.9683 O   0  0  0  0  0  0  0  0  0  0  0  0
    1.7556   16.0125    2.0078 P   0  0  1  0  0  0  0  0  0  0  0  0
    0.7471   16.6111    1.1098 O   0  0  0  0  0  0  0  0  0  0  0  0
    1.8147   16.6078    3.3614 O   0  0  0  0  0  0  0  0  0  0  0  0
    3.1464   16.4524    1.3071 O   0  0  0  0  0  0  0  0  0  0  0  0
    4.4084   16.0767    1.8256 C   0  0  0  0  0  0  0  0  0  0  0  0
    5.5753   16.6192    0.9886 C   0  0  1  0  0  0  0  0  0  0  0  0
    5.4401   16.2178   -0.3593 O   0  0  0  0  0  0  0  0  0  0  0  0
    5.5797   18.1518    0.8506 C   0  0  1  0  0  0  0  0  0  0  0  0
    6.0492   18.8645    1.9828 O   0  0  0  0  0  0  0  0  0  0  0  0
    6.4337   18.3913   -0.3942 C   0  0  1  0  0  0  0  0  0  0  0  0
    7.8027   18.5712   -0.0770 O   0  0  0  0  0  0  0  0  0  0  0  0
    6.2722   17.0639   -1.1327 C   0  0  2  0  0  0  0  0  0  0  0  0
    5.7868   17.1680   -2.5254 N   0  0  0  0  0  0  0  0  0  0  0  0
    5.7211   16.2251   -3.5198 C   0  0  0  0  0  0  0  0  0  0  0  0
    5.3226   16.6945   -4.6738 N   0  0  0  0  0  0  0  0  0  0  0  0
    5.0809   18.0425   -4.4267 C   0  0  0  0  0  0  0  0  0  0  0  0
    4.6645   19.0943   -5.3044 C   0  0  0  0  0  0  0  0  0  0  0  0
    4.4631   19.0275   -6.5153 O   0  0  0  0  0  0  0  0  0  0  0  0
    4.5023   20.3197   -4.6441 N   0  0  0  0  0  0  0  0  0  0  0  0
    4.6886   20.4906   -3.2806 C   0  0  0  0  0  0  0  0  0  0  0  0
    4.3993   21.6845   -2.7511 N   0  0  0  0  0  0  0  0  0  0  0  0
    5.1258   19.5128   -2.4702 N   0  0  0  0  0  0  0  0  0  0  0  0
    5.3093   18.3201   -3.0997 C   0  0  0  0  0  0  0  0  0  0  0  0
  1  2  2  0  0  0  0
  1  4  1  0  0  0  0
  1  3  1  0  0  0  0
  5  1  1  0  0  0  0
  6  7  2  1  0  0  0
  6  9  1  0  0  0  0
  6  5  1  0  0  0  0
  6  8  1  0  0  0  0
 10 11  2  6  0  0  0
 10 12  1  0  0  0  0
 10 13  1  0  0  0  0
 10  9  1  0  0  0  0
 13 14  1  0  0  0  0
 15 14  1  1  0  0  0
 15 16  1  0  0  0  0
 17 19  1  0  0  0  0
 17 15  1  0  0  0  0
 17 18  1  1  0  0  0
 19 21  1  0  0  0  0
 19 20  1  1  0  0  0
 21 16  1  0  0  0  0
 21 22  1  6  0  0  0
 22 32  1  0  0  0  0
 23 22  1  0  0  0  0
 23 24  2  0  0  0  0
 24 25  1  0  0  0  0
 25 26  1  0  0  0  0
 26 27  2  0  0  0  0
 26 28  1  0  0  0  0
 29 28  1  0  0  0  0
 29 30  1  0  0  0  0
 31 29  2  0  0  0  0
 32 25  2  0  0  0  0
 32 31  1  0  0  0  0
M  END
>  <CHROM.1>
80.03460693,-50.00746887,-52.97415288,-59.80723993,-59.13614083,-179.78979161
-55.30620829,-16.31111999,-56.72152408,-66.77934575,2.99737936,16.32806572
0.30428285,2.29473391,0.56575956,1.81422547

>  <Name>
lig.pdb

>  <RI>
1.82117e+07

>  <Rbt.Current_Directory>
/home/itssahil/PROJECTS/Mol_Feturizer/New_Systems/rnas/5lwj

>  <Rbt.Executable>
rbdock ($Id: //depot/dev/client3/rdock/2013.1/src/exe/rbdock.cxx#4 $)

>  <Rbt.Library>
libRbt.so (2013.1, Build901 2013/11/27)

>  <Rbt.Parameter_File>
/export/apps/rDock/src/rDock_2013.1_src/data/scripts/dock_solv.prm

>  <Rbt.Receptor>
prm/pocket_docking_5.prm

>  <SCORE>
-19.4863

>  <SCORE.INTER>
-17.1345

>  <SCORE.INTER.CONST>
1

>  <SCORE.INTER.POLAR>
-2.31683

>  <SCORE.INTER.ROT>
8

>  <SCORE.INTER.SOLV>
11.5701

>  <SCORE.INTER.VDW>
-16.4903

>  <SCORE.INTER.norm>
-0.535453

>  <SCORE.INTRA>
-2.35181

>  <SCORE.INTRA.DIHEDRAL>
-0.824796

>  <SCORE.INTRA.DIHEDRAL.0>
10.9248

>  <SCORE.INTRA.POLAR>
-0.00590462

>  <SCORE.INTRA.POLAR.0>
0

>  <SCORE.INTRA.REPUL>
0

>  <SCORE.INTRA.REPUL.0>
0

>  <SCORE.INTRA.SOLV>
-0.159368

>  <SCORE.INTRA.SOLV.lig_0>
-51.4104

>  <SCORE.INTRA.VDW>
-1.83965

>  <SCORE.INTRA.VDW.0>
0.110327

>  <SCORE.INTRA.norm>
-0.073494

>  <SCORE.RESTR>
0

>  <SCORE.RESTR.CAVITY>
0

>  <SCORE.RESTR.norm>
0

>  <SCORE.SYSTEM>
0

>  <SCORE.SYSTEM.CONST>
0

>  <SCORE.SYSTEM.DIHEDRAL>
0

>  <SCORE.SYSTEM.SOLV>
0

>  <SCORE.SYSTEM.norm>
0

>  <SCORE.heavy>
32

>  <SCORE.norm>
-0.608947

>  <RMSD>
9.644

$$$$
lig.pdb
 OpenBabel11021811523D
libRbt.so/2013.1/901 2013/11/27
 32 34  0  0  0  0  0  0  0  0999 V2000
   -3.1894   14.7571    4.4652 P   0  0  0  0  0  0  0  0  0  0  0  0
   -4.5667   15.0677    4.9985 O   0  0  0  0  0  0  0  0  0  0  0  0
   -3.2751   15.2398    2.9185 O   0  0  0  0  0  0  0  0  0  0  0  0
   -2.0164   15.5363    5.0056 O   0  0  0  0  0  0  0  0  0  0  0  0
   -2.9349   13.3679    4.7939 O   0  0  0  0  0  0  0  0  0  0  0  0
   -2.0115   12.7840    3.7929 P   0  0  1  0  0  0  0  0  0  0  0  0
   -1.6265   11.4296    4.2548 O   0  0  0  0  0  0  0  0  0  0  0  0
   -2.6900   12.6721    2.4807 O   0  0  0  0  0  0  0  0  0  0  0  0
   -0.8108   13.6475    3.6660 O   0  0  0  0  0  0  0  0  0  0  0  0
    0.3998   13.2257    2.9220 P   0  0  1  0  0  0  0  0  0  0  0  0
    1.0935   12.0485    3.4831 O   0  0  0  0  0  0  0  0  0  0  0  0
    0.2621   13.2227    1.4486 O   0  0  0  0  0  0  0  0  0  0  0  0
    1.4442   14.4223    3.2321 O   0  0  0  0  0  0  0  0  0  0  0  0
    2.8117   14.3463    2.8759 C   0  0  0  0  0  0  0  0  0  0  0  0
    3.0736   14.8142    1.4376 C   0  0  1  0  0  0  0  0  0  0  0  0
    3.3324   16.2030    1.4132 O   0  0  0  0  0  0  0  0  0  0  0  0
    4.3705   14.2525    0.8290 C   0  0  1  0  0  0  0  0  0  0  0  0
    4.3040   12.9066    0.3882 O   0  0  0  0  0  0  0  0  0  0  0  0
    4.6810   15.2306   -0.3037 C   0  0  1  0  0  0  0  0  0  0  0  0
    4.1102   14.8222   -1.5344 O   0  0  0  0  0  0  0  0  0  0  0  0
    3.9610   16.4893    0.1766 C   0  0  2  0  0  0  0  0  0  0  0  0
    4.7997   17.7035    0.2685 N   0  0  0  0  0  0  0  0  0  0  0  0
    5.2479   18.3970    1.3641 C   0  0  0  0  0  0  0  0  0  0  0  0
    5.8951   19.4953    1.0714 N   0  0  0  0  0  0  0  0  0  0  0  0
    5.9012   19.5251   -0.3199 C   0  0  0  0  0  0  0  0  0  0  0  0
    6.4213   20.4984   -1.2322 C   0  0  0  0  0  0  0  0  0  0  0  0
    6.9582   21.5708   -0.9621 O   0  0  0  0  0  0  0  0  0  0  0  0
    6.2508   20.1302   -2.5736 N   0  0  0  0  0  0  0  0  0  0  0  0
    5.6738   18.9355   -2.9771 C   0  0  0  0  0  0  0  0  0  0  0  0
    5.6645   18.6516   -4.2844 N   0  0  0  0  0  0  0  0  0  0  0  0
    5.1441   18.0483   -2.1192 N   0  0  0  0  0  0  0  0  0  0  0  0
    5.2820   18.4005   -0.8117 C   0  0  0  0  0  0  0  0  0  0  0  0
  1  2  2  0  0  0  0
  1  4  1  0  0  0  0
  1  3  1  0  0  0  0
  5  1  1  0  0  0  0
  6  7  2  1  0  0  0
  6  9  1  0  0  0  0
  6  5  1  0  0  0  0
  6  8  1  0  0  0  0
 10 11  2  1  0  0  0
 10 12  1  0  0  0  0
 10 13  1  0  0  0  0
 10  9  1  0  0  0  0
 13 14  1  0  0  0  0
 15 14  1  1  0  0  0
 15 16  1  0  0  0  0
 17 19  1  0  0  0  0
 17 15  1  0  0  0  0
 17 18  1  6  0  0  0
 19 21  1  0  0  0  0
 19 20  1  6  0  0  0
 21 16  1  0  0  0  0
 21 22  1  1  0  0  0
 22 32  1  0  0  0  0
 23 22  1  0  0  0  0
 23 24  2  0  0  0  0
 24 25  1  0  0  0  0
 25 26  1  0  0  0  0
 26 27  2  0  0  0  0
 26 28  1  0  0  0  0
 29 28  1  0  0  0  0
 29 30  1  0  0  0  0
 31 29  2  0  0  0  0
 32 25  2  0  0  0  0
 32 31  1  0  0  0  0
M  END
>  <CHROM.1>
151.50046343,169.35093296,172.40090229,170.67030386,-63.44493951,86.33023553
89.67585189,-157.53943860,-58.42009100,14.19567309,1.77585153,15.52618284
1.57215644,2.61683476,-0.56824808,3.09490915

>  <Name>
lig.pdb

>  <RI>
0

>  <Rbt.Current_Directory>
/home/itssahil/PROJECTS/Mol_Feturizer/New_Systems/rnas/5lwj

>  <Rbt.Executable>
rbdock ($Id: //depot/dev/client3/rdock/2013.1/src/exe/rbdock.cxx#4 $)

>  <Rbt.Library>
libRbt.so (2013.1, Build901 2013/11/27)

>  <Rbt.Parameter_File>
/export/apps/rDock/src/rDock_2013.1_src/data/scripts/dock_solv.prm

>  <Rbt.Receptor>
prm/pocket_docking_4.prm

>  <SCORE>
-30.164

>  <SCORE.INTER>
-26.713

>  <SCORE.INTER.CONST>
1

>  <SCORE.INTER.POLAR>
-3.1119

>  <SCORE.INTER.ROT>
8

>  <SCORE.INTER.SOLV>
16.3949

>  <SCORE.INTER.VDW>
-21.8339

>  <SCORE.INTER.norm>
-0.83478

>  <SCORE.INTRA>
-3.47994

>  <SCORE.INTRA.DIHEDRAL>
0.850047

>  <SCORE.INTRA.DIHEDRAL.0>
10.9248

>  <SCORE.INTRA.POLAR>
-4.6454e-05

>  <SCORE.INTRA.POLAR.0>
0

>  <SCORE.INTRA.REPUL>
0

>  <SCORE.INTRA.REPUL.0>
0

>  <SCORE.INTRA.SOLV>
-0.419382

>  <SCORE.INTRA.SOLV.lig_0>
-51.4104

>  <SCORE.INTRA.VDW>
-3.69512

>  <SCORE.INTRA.VDW.0>
0.110327

>  <SCORE.INTRA.norm>
-0.108748

>  <SCORE.RESTR>
0.0289453

>  <SCORE.RESTR.CAVITY>
0.0289453

>  <SCORE.RESTR.norm>
0.000904542

>  <SCORE.SYSTEM>
0

>  <SCORE.SYSTEM.CONST>
0

>  <SCORE.SYSTEM.DIHEDRAL>
0

>  <SCORE.SYSTEM.SOLV>
0

>  <SCORE.SYSTEM.norm>
0

>  <SCORE.heavy>
32

>  <SCORE.norm>
-0.942624

>  <RMSD>
9.648

$$$$
lig.pdb
 OpenBabel11021811523D
libRbt.so/2013.1/901 2013/11/27
 32 34  0  0  0  0  0  0  0  0999 V2000
    1.3871   10.9701    5.8179 P   0  0  0  0  0  0  0  0  0  0  0  0
    2.0722    9.6825    6.2061 O   0  0  0  0  0  0  0  0  0  0  0  0
    1.3488   11.8021    7.2103 O   0  0  0  0  0  0  0  0  0  0  0  0
    2.0992   11.9076    4.8750 O   0  0  0  0  0  0  0  0  0  0  0  0
    0.1580   10.5863    5.1510 O   0  0  0  0  0  0  0  0  0  0  0  0
   -0.8114   11.7049    5.2185 P   0  0  1  0  0  0  0  0  0  0  0  0
   -2.0163   11.3188    4.4471 O   0  0  0  0  0  0  0  0  0  0  0  0
   -1.1991   11.9566    6.6260 O   0  0  0  0  0  0  0  0  0  0  0  0
   -0.1970   12.9263    4.6402 O   0  0  0  0  0  0  0  0  0  0  0  0
   -0.0314   13.1210    3.1802 P   0  0  1  0  0  0  0  0  0  0  0  0
    0.8511   12.1378    2.5198 O   0  0  0  0  0  0  0  0  0  0  0  0
   -1.2762   13.4333    2.4433 O   0  0  0  0  0  0  0  0  0  0  0  0
    0.8434   14.4800    3.0984 O   0  0  0  0  0  0  0  0  0  0  0  0
    2.2319   14.4724    2.8249 C   0  0  0  0  0  0  0  0  0  0  0  0
    2.5599   15.0056    1.4233 C   0  0  1  0  0  0  0  0  0  0  0  0
    3.6530   15.8990    1.4819 O   0  0  0  0  0  0  0  0  0  0  0  0
    3.0964   13.9314    0.4609 C   0  0  1  0  0  0  0  0  0  0  0  0
    2.1198   13.0627   -0.0886 O   0  0  0  0  0  0  0  0  0  0  0  0
    3.8288   14.7465   -0.6046 C   0  0  1  0  0  0  0  0  0  0  0  0
    2.9874   15.0809   -1.6943 O   0  0  0  0  0  0  0  0  0  0  0  0
    4.1628   16.0224    0.1661 C   0  0  2  0  0  0  0  0  0  0  0  0
    5.5919   16.4011    0.1768 N   0  0  0  0  0  0  0  0  0  0  0  0
    6.6794   15.7637    0.7186 C   0  0  0  0  0  0  0  0  0  0  0  0
    7.7949   16.4401    0.6247 N   0  0  0  0  0  0  0  0  0  0  0  0
    7.4317   17.6017   -0.0501 C   0  0  0  0  0  0  0  0  0  0  0  0
    8.2034   18.7510   -0.4157 C   0  0  0  0  0  0  0  0  0  0  0  0
    9.3861   18.9735   -0.1646 O   0  0  0  0  0  0  0  0  0  0  0  0
    7.4579   19.7013   -1.1263 N   0  0  0  0  0  0  0  0  0  0  0  0
    6.1255   19.5336   -1.4720 C   0  0  0  0  0  0  0  0  0  0  0  0
    5.5538   20.4651   -2.2434 N   0  0  0  0  0  0  0  0  0  0  0  0
    5.3933   18.4761   -1.0853 N   0  0  0  0  0  0  0  0  0  0  0  0
    6.0968   17.5525   -0.3751 C   0  0  0  0  0  0  0  0  0  0  0  0
  1  2  2  0  0  0  0
  1  4  1  0  0  0  0
  1  3  1  0  0  0  0
  5  1  1  0  0  0  0
  6  7  2  6  0  0  0
  6  9  1  0  0  0  0
  6  5  1  0  0  0  0
  6  8  1  0  0  0  0
 10 11  2  6  0  0  0
 10 12  1  0  0  0  0
 10 13  1  0  0  0  0
 10  9  1  0  0  0  0
 13 14  1  0  0  0  0
 15 14  1  1  0  0  0
 15 16  1  0  0  0  0
 17 19  1  0  0  0  0
 17 15  1  0  0  0  0
 17 18  1  6  0  0  0
 19 21  1  0  0  0  0
 19 20  1  6  0  0  0
 21 16  1  0  0  0  0
 21 22  1  1  0  0  0
 22 32  1  0  0  0  0
 23 22  1  0  0  0  0
 23 24  2  0  0  0  0
 24 25  1  0  0  0  0
 25 26  1  0  0  0  0
 26 27  2  0  0  0  0
 26 28  1  0  0  0  0
 29 28  1  0  0  0  0
 29 30  1  0  0  0  0
 31 29  2  0  0  0  0
 32 25  2  0  0  0  0
 32 31  1  0  0  0  0
M  END
>  <CHROM.1>
157.49704786,75.59799538,176.01001036,102.70648043,-62.60254249,108.50872717
135.18771230,-65.76231001,-53.73944855,59.58755253,2.79131038,14.40667198
2.25224026,-2.24684553,-0.29322781,-0.95708992

>  <Name>
lig.pdb

>  <RI>
0

>  <Rbt.Current_Directory>
/home/itssahil/PROJECTS/Mol_Feturizer/New_Systems/rnas/5lwj

>  <Rbt.Executable>
rbdock ($Id: //depot/dev/client3/rdock/2013.1/src/exe/rbdock.cxx#4 $)

>  <Rbt.Library>
libRbt.so (2013.1, Build901 2013/11/27)

>  <Rbt.Parameter_File>
/export/apps/rDock/src/rDock_2013.1_src/data/scripts/dock_solv.prm

>  <Rbt.Receptor>
prm/pocket_docking_3.prm

>  <SCORE>
-36.0554

>  <SCORE.INTER>
-33.4459

>  <SCORE.INTER.CONST>
1

>  <SCORE.INTER.POLAR>
-2.42176

>  <SCORE.INTER.ROT>
8

>  <SCORE.INTER.SOLV>
21.2383

>  <SCORE.INTER.VDW>
-30.2375

>  <SCORE.INTER.norm>
-1.04518

>  <SCORE.INTRA>
-3.02475

>  <SCORE.INTRA.DIHEDRAL>
6.10694

>  <SCORE.INTRA.DIHEDRAL.0>
10.9248

>  <SCORE.INTRA.POLAR>
-1.0304

>  <SCORE.INTRA.POLAR.0>
0

>  <SCORE.INTRA.REPUL>
0

>  <SCORE.INTRA.REPUL.0>
0

>  <SCORE.INTRA.SOLV>
1.8945

>  <SCORE.INTRA.SOLV.lig_0>
-51.4104

>  <SCORE.INTRA.VDW>
-3.5221

>  <SCORE.INTRA.VDW.0>
0.110327

>  <SCORE.INTRA.norm>
-0.0945234

>  <SCORE.RESTR>
0.415279

>  <SCORE.RESTR.CAVITY>
0.415279

>  <SCORE.RESTR.norm>
0.0129775

>  <SCORE.SYSTEM>
0

>  <SCORE.SYSTEM.CONST>
0

>  <SCORE.SYSTEM.DIHEDRAL>
0

>  <SCORE.SYSTEM.SOLV>
0

>  <SCORE.SYSTEM.norm>
0

>  <SCORE.heavy>
32

>  <SCORE.norm>
-1.12673

>  <RMSD>
9.656

$$$$
lig.pdb
 OpenBabel11021811523D
libRbt.so/2013.1/901 2013/11/27
 32 34  0  0  0  0  0  0  0  0999 V2000
    0.5650   11.5516    5.4155 P   0  0  0  0  0  0  0  0  0  0  0  0
    0.9188   11.6278    6.8808 O   0  0  0  0  0  0  0  0  0  0  0  0
    1.7785   10.6762    4.7881 O   0  0  0  0  0  0  0  0  0  0  0  0
   -0.6644   10.7765    5.0120 O   0  0  0  0  0  0  0  0  0  0  0  0
    0.3383   12.9176    4.9852 O   0  0  0  0  0  0  0  0  0  0  0  0
    0.1132   12.9439    3.5209 P   0  0  1  0  0  0  0  0  0  0  0  0
    0.8797   11.8292    2.9159 O   0  0  0  0  0  0  0  0  0  0  0  0
   -1.3263   12.7567    3.2250 O   0  0  0  0  0  0  0  0  0  0  0  0
    0.5738   14.2447    2.9737 O   0  0  0  0  0  0  0  0  0  0  0  0
    1.9252   14.4326    2.3946 P   0  0  1  0  0  0  0  0  0  0  0  0
    3.0410   14.1669    3.3253 O   0  0  0  0  0  0  0  0  0  0  0  0
    2.1067   13.8826    1.0327 O   0  0  0  0  0  0  0  0  0  0  0  0
    2.0109   16.0371    2.2018 O   0  0  0  0  0  0  0  0  0  0  0  0
    3.2257   16.7018    1.9103 C   0  0  0  0  0  0  0  0  0  0  0  0
    3.0741   18.2293    1.8976 C   0  0  1  0  0  0  0  0  0  0  0  0
    4.2541   18.8431    2.3742 O   0  0  0  0  0  0  0  0  0  0  0  0
    2.9677   18.8303    0.4851 C   0  0  1  0  0  0  0  0  0  0  0  0
    1.7043   18.6911   -0.1431 O   0  0  0  0  0  0  0  0  0  0  0  0
    3.3667   20.2912    0.6925 C   0  0  1  0  0  0  0  0  0  0  0  0
    2.2480   21.1182    0.9601 O   0  0  0  0  0  0  0  0  0  0  0  0
    4.2194   20.1961    1.9564 C   0  0  2  0  0  0  0  0  0  0  0  0
    5.5818   20.7597    1.8460 N   0  0  0  0  0  0  0  0  0  0  0  0
    6.0321   22.0443    2.0171 C   0  0  0  0  0  0  0  0  0  0  0  0
    7.3006   22.2054    1.7419 N   0  0  0  0  0  0  0  0  0  0  0  0
    7.7349   20.9323    1.3851 C   0  0  0  0  0  0  0  0  0  0  0  0
    9.0155   20.4713    0.9408 C   0  0  0  0  0  0  0  0  0  0  0  0
   10.0268   21.1404    0.7384 O   0  0  0  0  0  0  0  0  0  0  0  0
    9.0454   19.0889    0.7129 N   0  0  0  0  0  0  0  0  0  0  0  0
    7.9632   18.2490    0.9287 C   0  0  0  0  0  0  0  0  0  0  0  0
    8.1484   16.9329    0.7766 N   0  0  0  0  0  0  0  0  0  0  0  0
    6.7508   18.6927    1.2990 N   0  0  0  0  0  0  0  0  0  0  0  0
    6.6982   20.0372    1.5042 C   0  0  0  0  0  0  0  0  0  0  0  0
  1  2  2  0  0  0  0
  1  4  1  0  0  0  0
  1  3  1  0  0  0  0
  5  1  1  0  0  0  0
  6  7  2  6  0  0  0
  6  9  1  0  0  0  0
  6  5  1  0  0  0  0
  6  8  1  0  0  0  0
 10 11  2  1  0  0  0
 10 12  1  0  0  0  0
 10 13  1  0  0  0  0
 10  9  1  0  0  0  0
 13 14  1  0  0  0  0
 15 14  1  6  0  0  0
 15 16  1  0  0  0  0
 17 19  1  0  0  0  0
 17 15  1  0  0  0  0
 17 18  1  1  0  0  0
 19 21  1  0  0  0  0
 19 20  1  1  0  0  0
 21 16  1  0  0  0  0
 21 22  1  6  0  0  0
 22 32  1  0  0  0  0
 23 22  1  0  0  0  0
 23 24  2  0  0  0  0
 24 25  1  0  0  0  0
 25 26  1  0  0  0  0
 26 27  2  0  0  0  0
 26 28  1  0  0  0  0
 29 28  1  0  0  0  0
 29 30  1  0  0  0  0
 31 29  2  0  0  0  0
 32 25  2  0  0  0  0
 32 31  1  0  0  0  0
M  END
>  <CHROM.1>
174.53451199,95.11669611,-30.44113748,167.65769967,-60.10747807,-174.88991925
146.04140252,-60.52367065,179.70507790,-150.02992062,3.37440066,16.35976737
2.46363897,-2.20654660,-0.03434160,-0.39370813

>  <Name>
lig.pdb

>  <RI>
0

>  <Rbt.Current_Directory>
/home/itssahil/PROJECTS/Mol_Feturizer/New_Systems/rnas/5lwj

>  <Rbt.Executable>
rbdock ($Id: //depot/dev/client3/rdock/2013.1/src/exe/rbdock.cxx#4 $)

>  <Rbt.Library>
libRbt.so (2013.1, Build901 2013/11/27)

>  <Rbt.Parameter_File>
/export/apps/rDock/src/rDock_2013.1_src/data/scripts/dock_solv.prm

>  <Rbt.Receptor>
prm/pocket_docking_4.prm

>  <SCORE>
-27.6831

>  <SCORE.INTER>
-27.1525

>  <SCORE.INTER.CONST>
1

>  <SCORE.INTER.POLAR>
-2.68462

>  <SCORE.INTER.ROT>
8

>  <SCORE.INTER.SOLV>
19.422

>  <SCORE.INTER.VDW>
-24.5603

>  <SCORE.INTER.norm>
-0.848515

>  <SCORE.INTRA>
-0.530571

>  <SCORE.INTRA.DIHEDRAL>
-1.80262

>  <SCORE.INTRA.DIHEDRAL.0>
10.9248

>  <SCORE.INTRA.POLAR>
0

>  <SCORE.INTRA.POLAR.0>
0

>  <SCORE.INTRA.REPUL>
0

>  <SCORE.INTRA.REPUL.0>
0

>  <SCORE.INTRA.SOLV>
-0.105675

>  <SCORE.INTRA.SOLV.lig_0>
-51.4104

>  <SCORE.INTRA.VDW>
0.423576

>  <SCORE.INTRA.VDW.0>
0.110327

>  <SCORE.INTRA.norm>
-0.0165803

>  <SCORE.RESTR>
0

>  <SCORE.RESTR.CAVITY>
0

>  <SCORE.RESTR.norm>
0

>  <SCORE.SYSTEM>
0

>  <SCORE.SYSTEM.CONST>
0

>  <SCORE.SYSTEM.DIHEDRAL>
0

>  <SCORE.SYSTEM.SOLV>
0

>  <SCORE.SYSTEM.norm>
0

>  <SCORE.heavy>
32

>  <SCORE.norm>
-0.865096

>  <RMSD>
9.660

$$$$
lig.pdb
 OpenBabel11021811523D
libRbt.so/2013.1/901 2013/11/27
 32 34  0  0  0  0  0  0  0  0999 V2000
   -3.4770   14.7469    4.2896 P   0  0  0  0  0  0  0  0  0  0  0  0
   -2.8456   15.2902    5.5483 O   0  0  0  0  0  0  0  0  0  0  0  0
   -3.8964   13.2368    4.7094 O   0  0  0  0  0  0  0  0  0  0  0  0
   -4.7780   15.3487    3.8201 O   0  0  0  0  0  0  0  0  0  0  0  0
   -2.5191   14.9804    3.2263 O   0  0  0  0  0  0  0  0  0  0  0  0
   -1.5759   13.8401    3.1511 P   0  0  1  0  0  0  0  0  0  0  0  0
   -1.0388   13.5949    4.5103 O   0  0  0  0  0  0  0  0  0  0  0  0
   -2.2842   12.6253    2.6852 O   0  0  0  0  0  0  0  0  0  0  0  0
   -0.4748   14.1712    2.2122 O   0  0  0  0  0  0  0  0  0  0  0  0
    0.7046   13.2933    2.0249 P   0  0  1  0  0  0  0  0  0  0  0  0
    0.9683   12.3627    3.1413 O   0  0  0  0  0  0  0  0  0  0  0  0
    0.8376   12.6998    0.6758 O   0  0  0  0  0  0  0  0  0  0  0  0
    1.9425   14.3293    2.1391 O   0  0  0  0  0  0  0  0  0  0  0  0
    1.8135   15.7025    1.8220 C   0  0  0  0  0  0  0  0  0  0  0  0
    3.1484   16.4556    1.9074 C   0  0  1  0  0  0  0  0  0  0  0  0
    3.9960   16.0733    0.8437 O   0  0  0  0  0  0  0  0  0  0  0  0
    3.0225   17.9702    1.6668 C   0  0  1  0  0  0  0  0  0  0  0  0
    2.5190   18.7212    2.7589 O   0  0  0  0  0  0  0  0  0  0  0  0
    4.4394   18.3830    1.2691 C   0  0  1  0  0  0  0  0  0  0  0  0
    5.2136   18.7821    2.3864 O   0  0  0  0  0  0  0  0  0  0  0  0
    4.9985   17.0676    0.7302 C   0  0  2  0  0  0  0  0  0  0  0  0
    5.5448   17.1258   -0.6425 N   0  0  0  0  0  0  0  0  0  0  0  0
    4.9093   17.0846   -1.8578 C   0  0  0  0  0  0  0  0  0  0  0  0
    5.7211   17.0604   -2.8830 N   0  0  0  0  0  0  0  0  0  0  0  0
    6.9895   17.1143   -2.3130 C   0  0  0  0  0  0  0  0  0  0  0  0
    8.2878   17.0781   -2.9155 C   0  0  0  0  0  0  0  0  0  0  0  0
    8.5604   16.9484   -4.1072 O   0  0  0  0  0  0  0  0  0  0  0  0
    9.3239   17.1922   -1.9788 N   0  0  0  0  0  0  0  0  0  0  0  0
    9.1170   17.3592   -0.6178 C   0  0  0  0  0  0  0  0  0  0  0  0
   10.1858   17.5632    0.1605 N   0  0  0  0  0  0  0  0  0  0  0  0
    7.8989   17.3441   -0.0522 N   0  0  0  0  0  0  0  0  0  0  0  0
    6.8810   17.2124   -0.9461 C   0  0  0  0  0  0  0  0  0  0  0  0
  1  2  2  0  0  0  0
  1  4  1  0  0  0  0
  1  3  1  0  0  0  0
  5  1  1  0  0  0  0
  6  7  2  1  0  0  0
  6  9  1  0  0  0  0
  6  5  1  0  0  0  0
  6  8  1  0  0  0  0
 10 11  2  1  0  0  0
 10 12  1  0  0  0  0
 10 13  1  0  0  0  0
 10  9  1  0  0  0  0
 13 14  1  0  0  0  0
 15 14  1  6  0  0  0
 15 16  1  0  0  0  0
 17 19  1  0  0  0  0
 17 15  1  0  0  0  0
 17 18  1  1  0  0  0
 19 21  1  0  0  0  0
 19 20  1  1  0  0  0
 21 16  1  0  0  0  0
 21 22  1  6  0  0  0
 22 32  1  0  0  0  0
 23 22  1  0  0  0  0
 23 24  2  0  0  0  0
 24 25  1  0  0  0  0
 25 26  1  0  0  0  0
 26 27  2  0  0  0  0
 26 28  1  0  0  0  0
 29 28  1  0  0  0  0
 29 30  1  0  0  0  0
 31 29  2  0  0  0  0
 32 25  2  0  0  0  0
 32 31  1  0  0  0  0
M  END
>  <CHROM.1>
87.50364250,173.49306306,-50.99853934,-26.50344069,-21.47784279,-175.67340147
71.00054709,-61.32847316,97.20089027,43.42185116,2.33754954,15.64125437,1.47732043
-3.13443874,-0.53926357,-2.54702916

>  <Name>
lig.pdb

>  <RI>
1.82117e+07

>  <Rbt.Current_Directory>
/home/itssahil/PROJECTS/Mol_Feturizer/New_Systems/rnas/5lwj

>  <Rbt.Executable>
rbdock ($Id: //depot/dev/client3/rdock/2013.1/src/exe/rbdock.cxx#4 $)

>  <Rbt.Library>
libRbt.so (2013.1, Build901 2013/11/27)

>  <Rbt.Parameter_File>
/export/apps/rDock/src/rDock_2013.1_src/data/scripts/dock_solv.prm

>  <Rbt.Receptor>
prm/pocket_docking_5.prm

>  <SCORE>
-21.8304

>  <SCORE.INTER>
-21.1762

>  <SCORE.INTER.CONST>
1

>  <SCORE.INTER.POLAR>
-2.82852

>  <SCORE.INTER.ROT>
8

>  <SCORE.INTER.SOLV>
14.9758

>  <SCORE.INTER.VDW>
-18.6143

>  <SCORE.INTER.norm>
-0.661757

>  <SCORE.INTRA>
-0.660473

>  <SCORE.INTRA.DIHEDRAL>
1.8687

>  <SCORE.INTRA.DIHEDRAL.0>
10.9248

>  <SCORE.INTRA.POLAR>
0

>  <SCORE.INTRA.POLAR.0>
0

>  <SCORE.INTRA.REPUL>
0

>  <SCORE.INTRA.REPUL.0>
0

>  <SCORE.INTRA.SOLV>
-0.668527

>  <SCORE.INTRA.SOLV.lig_0>
-51.4104

>  <SCORE.INTRA.VDW>
-1.26056

>  <SCORE.INTRA.VDW.0>
0.110327

>  <SCORE.INTRA.norm>
-0.0206398

>  <SCORE.RESTR>
0.00633162

>  <SCORE.RESTR.CAVITY>
0.00633162

>  <SCORE.RESTR.norm>
0.000197863

>  <SCORE.SYSTEM>
0

>  <SCORE.SYSTEM.CONST>
0

>  <SCORE.SYSTEM.DIHEDRAL>
0

>  <SCORE.SYSTEM.SOLV>
0

>  <SCORE.SYSTEM.norm>
0

>  <SCORE.heavy>
32

>  <SCORE.norm>
-0.682199

>  <RMSD>
9.661

$$$$
lig.pdb
 OpenBabel11021811523D
libRbt.so/2013.1/901 2013/11/27
 32 34  0  0  0  0  0  0  0  0999 V2000
   -0.7054   11.5659    5.2815 P   0  0  0  0  0  0  0  0  0  0  0  0
   -1.5827   12.0463    6.4118 O   0  0  0  0  0  0  0  0  0  0  0  0
    0.5554   12.5859    5.3339 O   0  0  0  0  0  0  0  0  0  0  0  0
   -0.0571   10.2092    5.4011 O   0  0  0  0  0  0  0  0  0  0  0  0
   -1.5577   11.5023    4.1101 O   0  0  0  0  0  0  0  0  0  0  0  0
   -1.6114   12.8350    3.4647 P   0  0  1  0  0  0  0  0  0  0  0  0
   -2.7390   12.8373    2.5033 O   0  0  0  0  0  0  0  0  0  0  0  0
   -1.8440   13.8841    4.4845 O   0  0  0  0  0  0  0  0  0  0  0  0
   -0.3309   13.0942    2.7599 O   0  0  0  0  0  0  0  0  0  0  0  0
   -0.0503   14.3697    2.0589 P   0  0  1  0  0  0  0  0  0  0  0  0
   -0.9391   14.6567    0.9146 O   0  0  0  0  0  0  0  0  0  0  0  0
    0.2190   15.5258    2.9426 O   0  0  0  0  0  0  0  0  0  0  0  0
    1.3646   14.0734    1.3315 O   0  0  0  0  0  0  0  0  0  0  0  0
    2.5898   14.5868    1.8192 C   0  0  0  0  0  0  0  0  0  0  0  0
    3.7656   14.3053    0.8733 C   0  0  1  0  0  0  0  0  0  0  0  0
    3.3420   14.3833   -0.4723 O   0  0  0  0  0  0  0  0  0  0  0  0
    4.8629   15.3835    0.9097 C   0  0  1  0  0  0  0  0  0  0  0  0
    5.7358   15.3275    2.0256 O   0  0  0  0  0  0  0  0  0  0  0  0
    5.5909   15.1908   -0.4203 C   0  0  1  0  0  0  0  0  0  0  0  0
    6.6834   14.2960   -0.3072 O   0  0  0  0  0  0  0  0  0  0  0  0
    4.5042   14.5325   -1.2683 C   0  0  2  0  0  0  0  0  0  0  0  0
    4.1974   15.2121   -2.5451 N   0  0  0  0  0  0  0  0  0  0  0  0
    2.9964   15.4405   -3.1677 C   0  0  0  0  0  0  0  0  0  0  0  0
    3.1049   15.9920   -4.3488 N   0  0  0  0  0  0  0  0  0  0  0  0
    4.4752   16.1672   -4.5170 C   0  0  0  0  0  0  0  0  0  0  0  0
    5.2231   16.6843   -5.6230 C   0  0  0  0  0  0  0  0  0  0  0  0
    4.7929   17.0601   -6.7116 O   0  0  0  0  0  0  0  0  0  0  0  0
    6.6017   16.7237   -5.3746 N   0  0  0  0  0  0  0  0  0  0  0  0
    7.1795   16.3386   -4.1742 C   0  0  0  0  0  0  0  0  0  0  0  0
    8.4957   16.5234   -4.0218 N   0  0  0  0  0  0  0  0  0  0  0  0
    6.4791   15.8093   -3.1578 N   0  0  0  0  0  0  0  0  0  0  0  0
    5.1397   15.7436   -3.3905 C   0  0  0  0  0  0  0  0  0  0  0  0
  1  2  2  0  0  0  0
  1  4  1  0  0  0  0
  1  3  1  0  0  0  0
  5  1  1  0  0  0  0
  6  7  2  6  0  0  0
  6  9  1  0  0  0  0
  6  5  1  0  0  0  0
  6  8  1  0  0  0  0
 10 11  2  6  0  0  0
 10 12  1  0  0  0  0
 10 13  1  0  0  0  0
 10  9  1  0  0  0  0
 13 14  1  0  0  0  0
 15 14  1  1  0  0  0
 15 16  1  0  0  0  0
 17 19  1  0  0  0  0
 17 15  1  0  0  0  0
 17 18  1  1  0  0  0
 19 21  1  0  0  0  0
 19 20  1  1  0  0  0
 21 16  1  0  0  0  0
 21 22  1  6  0  0  0
 22 32  1  0  0  0  0
 23 22  1  0  0  0  0
 23 24  2  0  0  0  0
 24 25  1  0  0  0  0
 25 26  1  0  0  0  0
 26 27  2  0  0  0  0
 26 28  1  0  0  0  0
 29 28  1  0  0  0  0
 29 30  1  0  0  0  0
 31 29  2  0  0  0  0
 32 25  2  0  0  0  0
 32 31  1  0  0  0  0
M  END
>  <CHROM.1>
85.33675497,-177.50311971,-165.53651732,-103.68995800,-63.35314632,-173.37743743
35.92155762,-170.90519549,55.17945495,-15.58090002,2.25579153,14.30826240
0.60618501,-2.22435489,-0.06142266,-1.20425532

>  <Name>
lig.pdb

>  <RI>
2.0892e+07

>  <Rbt.Current_Directory>
/home/itssahil/PROJECTS/Mol_Feturizer/New_Systems/rnas/5lwj

>  <Rbt.Executable>
rbdock ($Id: //depot/dev/client3/rdock/2013.1/src/exe/rbdock.cxx#4 $)

>  <Rbt.Library>
libRbt.so (2013.1, Build901 2013/11/27)

>  <Rbt.Parameter_File>
/export/apps/rDock/src/rDock_2013.1_src/data/scripts/dock_solv.prm

>  <Rbt.Receptor>
prm/pocket_docking_8.prm

>  <SCORE>
-33.3355

>  <SCORE.INTER>
-29.7591

>  <SCORE.INTER.CONST>
1

>  <SCORE.INTER.POLAR>
-3.56006

>  <SCORE.INTER.ROT>
8

>  <SCORE.INTER.SOLV>
16.5317

>  <SCORE.INTER.VDW>
-22.4165

>  <SCORE.INTER.norm>
-0.929972

>  <SCORE.INTRA>
-3.82004

>  <SCORE.INTRA.DIHEDRAL>
-2.12516

>  <SCORE.INTRA.DIHEDRAL.0>
10.9248

>  <SCORE.INTRA.POLAR>
0

>  <SCORE.INTRA.POLAR.0>
0

>  <SCORE.INTRA.REPUL>
0

>  <SCORE.INTRA.REPUL.0>
0

>  <SCORE.INTRA.SOLV>
-0.503763

>  <SCORE.INTRA.SOLV.lig_0>
-51.4104

>  <SCORE.INTRA.VDW>
-2.50558

>  <SCORE.INTRA.VDW.0>
0.110327

>  <SCORE.INTRA.norm>
-0.119376

>  <SCORE.RESTR>
0.243704

>  <SCORE.RESTR.CAVITY>
0.243704

>  <SCORE.RESTR.norm>
0.00761574

>  <SCORE.SYSTEM>
0

>  <SCORE.SYSTEM.CONST>
0

>  <SCORE.SYSTEM.DIHEDRAL>
0

>  <SCORE.SYSTEM.SOLV>
0

>  <SCORE.SYSTEM.norm>
0

>  <SCORE.heavy>
32

>  <SCORE.norm>
-1.04173

>  <RMSD>
9.674

$$$$
lig.pdb
 OpenBabel11021811523D
libRbt.so/2013.1/901 2013/11/27
 32 34  0  0  0  0  0  0  0  0999 V2000
   -2.2659   12.8778    4.6153 P   0  0  0  0  0  0  0  0  0  0  0  0
   -2.4853   12.1217    5.9030 O   0  0  0  0  0  0  0  0  0  0  0  0
   -3.7750   13.1432    4.0817 O   0  0  0  0  0  0  0  0  0  0  0  0
   -1.6761   14.2642    4.6869 O   0  0  0  0  0  0  0  0  0  0  0  0
   -1.3345   12.0844    3.8370 O   0  0  0  0  0  0  0  0  0  0  0  0
    0.0443   12.3193    4.3262 P   0  0  1  0  0  0  0  0  0  0  0  0
    0.0164   12.3097    5.8078 O   0  0  0  0  0  0  0  0  0  0  0  0
    0.9418   11.2399    3.8530 O   0  0  0  0  0  0  0  0  0  0  0  0
    0.5286   13.6307    3.8269 O   0  0  0  0  0  0  0  0  0  0  0  0
    0.7183   13.9143    2.3845 P   0  0  1  0  0  0  0  0  0  0  0  0
    1.4311   12.8605    1.6340 O   0  0  0  0  0  0  0  0  0  0  0  0
   -0.4634   14.4781    1.6947 O   0  0  0  0  0  0  0  0  0  0  0  0
    1.7977   15.1198    2.3967 O   0  0  0  0  0  0  0  0  0  0  0  0
    3.1921   14.8897    2.3224 C   0  0  0  0  0  0  0  0  0  0  0  0
    3.8879   15.8058    1.3061 C   0  0  1  0  0  0  0  0  0  0  0  0
    3.6185   17.1608    1.6024 O   0  0  0  0  0  0  0  0  0  0  0  0
    5.4239   15.7751    1.3931 C   0  0  1  0  0  0  0  0  0  0  0  0
    6.0450   14.6418    0.8098 O   0  0  0  0  0  0  0  0  0  0  0  0
    5.8412   17.0859    0.7270 C   0  0  1  0  0  0  0  0  0  0  0  0
    6.0718   16.9301   -0.6621 O   0  0  0  0  0  0  0  0  0  0  0  0
    4.5886   17.9380    0.9232 C   0  0  2  0  0  0  0  0  0  0  0  0
    4.8041   19.2367    1.5962 N   0  0  0  0  0  0  0  0  0  0  0  0
    3.9969   19.9423    2.4523 C   0  0  0  0  0  0  0  0  0  0  0  0
    4.4692   21.1160    2.7841 N   0  0  0  0  0  0  0  0  0  0  0  0
    5.6910   21.1898    2.1220 C   0  0  0  0  0  0  0  0  0  0  0  0
    6.6575   22.2442    2.0573 C   0  0  0  0  0  0  0  0  0  0  0  0
    6.5857   23.3620    2.5639 O   0  0  0  0  0  0  0  0  0  0  0  0
    7.7847   21.9011    1.2988 N   0  0  0  0  0  0  0  0  0  0  0  0
    7.9647   20.6614    0.7039 C   0  0  0  0  0  0  0  0  0  0  0  0
    9.1312   20.4193    0.0954 N   0  0  0  0  0  0  0  0  0  0  0  0
    7.0343   19.6931    0.7268 N   0  0  0  0  0  0  0  0  0  0  0  0
    5.9228   20.0177    1.4420 C   0  0  0  0  0  0  0  0  0  0  0  0
  1  2  2  0  0  0  0
  1  4  1  0  0  0  0
  1  3  1  0  0  0  0
  5  1  1  0  0  0  0
  6  7  2  1  0  0  0
  6  9  1  0  0  0  0
  6  5  1  0  0  0  0
  6  8  1  0  0  0  0
 10 11  2  6  0  0  0
 10 12  1  0  0  0  0
 10 13  1  0  0  0  0
 10  9  1  0  0  0  0
 13 14  1  0  0  0  0
 15 14  1  1  0  0  0
 15 16  1  0  0  0  0
 17 19  1  0  0  0  0
 17 15  1  0  0  0  0
 17 18  1  6  0  0  0
 19 21  1  0  0  0  0
 19 20  1  6  0  0  0
 21 16  1  0  0  0  0
 21 22  1  1  0  0  0
 22 32  1  0  0  0  0
 23 22  1  0  0  0  0
 23 24  2  0  0  0  0
 24 25  1  0  0  0  0
 25 26  1  0  0  0  0
 26 27  2  0  0  0  0
 26 28  1  0  0  0  0
 29 28  1  0  0  0  0
 29 30  1  0  0  0  0
 31 29  2  0  0  0  0
 32 25  2  0  0  0  0
 32 31  1  0  0  0  0
M  END
>  <CHROM.1>
-79.85748116,-63.81157563,43.55755149,91.94498980,-46.38168797,133.44673012
55.67309853,-65.81472980,179.00685918,-22.03486592,2.70558817,16.06508874
2.52867487,2.50627078,-0.54526855,-2.89605776

>  <Name>
lig.pdb

>  <RI>
0

>  <Rbt.Current_Directory>
/home/itssahil/PROJECTS/Mol_Feturizer/New_Systems/rnas/5lwj

>  <Rbt.Executable>
rbdock ($Id: //depot/dev/client3/rdock/2013.1/src/exe/rbdock.cxx#4 $)

>  <Rbt.Library>
libRbt.so (2013.1, Build901 2013/11/27)

>  <Rbt.Parameter_File>
/export/apps/rDock/src/rDock_2013.1_src/data/scripts/dock_solv.prm

>  <Rbt.Receptor>
prm/pocket_docking_3.prm

>  <SCORE>
-31.5322

>  <SCORE.INTER>
-33.2068

>  <SCORE.INTER.CONST>
1

>  <SCORE.INTER.POLAR>
-3.40572

>  <SCORE.INTER.ROT>
8

>  <SCORE.INTER.SOLV>
17.2892

>  <SCORE.INTER.VDW>
-25.4818

>  <SCORE.INTER.norm>
-1.03771

>  <SCORE.INTRA>
1.59121

>  <SCORE.INTRA.DIHEDRAL>
1.47881

>  <SCORE.INTRA.DIHEDRAL.0>
10.9248

>  <SCORE.INTRA.POLAR>
0

>  <SCORE.INTRA.POLAR.0>
0

>  <SCORE.INTRA.REPUL>
0

>  <SCORE.INTRA.REPUL.0>
0

>  <SCORE.INTRA.SOLV>
1.21267

>  <SCORE.INTRA.SOLV.lig_0>
-51.4104

>  <SCORE.INTRA.VDW>
0.245469

>  <SCORE.INTRA.VDW.0>
0.110327

>  <SCORE.INTRA.norm>
0.0497253

>  <SCORE.RESTR>
0.0833575

>  <SCORE.RESTR.CAVITY>
0.0833575

>  <SCORE.RESTR.norm>
0.00260492

>  <SCORE.SYSTEM>
0

>  <SCORE.SYSTEM.CONST>
0

>  <SCORE.SYSTEM.DIHEDRAL>
0

>  <SCORE.SYSTEM.SOLV>
0

>  <SCORE.SYSTEM.norm>
0

>  <SCORE.heavy>
32

>  <SCORE.norm>
-0.985381

>  <RMSD>
9.696

$$$$
lig.pdb
 OpenBabel11021811523D
libRbt.so/2013.1/901 2013/11/27
 32 34  0  0  0  0  0  0  0  0999 V2000
   -2.3584   13.1481    3.7959 P   0  0  0  0  0  0  0  0  0  0  0  0
   -3.2944   13.4988    2.6651 O   0  0  0  0  0  0  0  0  0  0  0  0
   -1.9287   14.5986    4.3825 O   0  0  0  0  0  0  0  0  0  0  0  0
   -2.9221   12.4407    5.0029 O   0  0  0  0  0  0  0  0  0  0  0  0
   -1.3654   12.2536    3.2331 O   0  0  0  0  0  0  0  0  0  0  0  0
   -0.0552   12.4993    3.8800 P   0  0  1  0  0  0  0  0  0  0  0  0
   -0.2323   12.3690    5.3455 O   0  0  0  0  0  0  0  0  0  0  0  0
    0.9334   11.4957    3.4218 O   0  0  0  0  0  0  0  0  0  0  0  0
    0.4172   13.8639    3.5359 O   0  0  0  0  0  0  0  0  0  0  0  0
    1.6154   14.1052    2.6975 P   0  0  1  0  0  0  0  0  0  0  0  0
    2.9055   13.9401    3.3977 O   0  0  0  0  0  0  0  0  0  0  0  0
    1.5630   13.5131    1.3422 O   0  0  0  0  0  0  0  0  0  0  0  0
    1.5602   15.7031    2.4475 O   0  0  0  0  0  0  0  0  0  0  0  0
    2.6980   16.4494    2.0589 C   0  0  0  0  0  0  0  0  0  0  0  0
    2.4240   17.9589    2.0069 C   0  0  1  0  0  0  0  0  0  0  0  0
    3.6177   18.6819    2.2276 O   0  0  0  0  0  0  0  0  0  0  0  0
    2.0137   18.4672    0.6137 C   0  0  1  0  0  0  0  0  0  0  0  0
    0.6724   18.2019    0.2386 O   0  0  0  0  0  0  0  0  0  0  0  0
    2.3247   19.9623    0.6780 C   0  0  1  0  0  0  0  0  0  0  0  0
    1.2105   20.7219    1.1124 O   0  0  0  0  0  0  0  0  0  0  0  0
    3.3983   20.0022    1.7639 C   0  0  2  0  0  0  0  0  0  0  0  0
    4.6678   20.6538    1.3768 N   0  0  0  0  0  0  0  0  0  0  0  0
    5.0758   21.1663    0.1714 C   0  0  0  0  0  0  0  0  0  0  0  0
    6.3147   21.5856    0.1626 N   0  0  0  0  0  0  0  0  0  0  0  0
    6.7587   21.3598    1.4620 C   0  0  0  0  0  0  0  0  0  0  0  0
    8.0410   21.5727    2.0625 C   0  0  0  0  0  0  0  0  0  0  0  0
    9.0665   21.9803    1.5208 O   0  0  0  0  0  0  0  0  0  0  0  0
    8.0640   21.2423    3.4241 N   0  0  0  0  0  0  0  0  0  0  0  0
    6.9562   20.7921    4.1264 C   0  0  0  0  0  0  0  0  0  0  0  0
    7.0788   20.6119    5.4463 N   0  0  0  0  0  0  0  0  0  0  0  0
    5.7687   20.5482    3.5483 N   0  0  0  0  0  0  0  0  0  0  0  0
    5.7346   20.8436    2.2201 C   0  0  0  0  0  0  0  0  0  0  0  0
  1  2  2  0  0  0  0
  1  4  1  0  0  0  0
  1  3  1  0  0  0  0
  5  1  1  0  0  0  0
  6  7  2  1  0  0  0
  6  9  1  0  0  0  0
  6  5  1  0  0  0  0
  6  8  1  0  0  0  0
 10 11  2  1  0  0  0
 10 12  1  0  0  0  0
 10 13  1  0  0  0  0
 10  9  1  0  0  0  0
 13 14  1  0  0  0  0
 15 14  1  6  0  0  0
 15 16  1  0  0  0  0
 17 19  1  0  0  0  0
 17 15  1  0  0  0  0
 17 18  1  1  0  0  0
 19 21  1  0  0  0  0
 19 20  1  1  0  0  0
 21 16  1  0  0  0  0
 21 22  1  6  0  0  0
 22 32  1  0  0  0  0
 23 22  1  0  0  0  0
 23 24  2  0  0  0  0
 24 25  1  0  0  0  0
 25 26  1  0  0  0  0
 26 27  2  0  0  0  0
 26 28  1  0  0  0  0
 29 28  1  0  0  0  0
 29 30  1  0  0  0  0
 31 29  2  0  0  0  0
 32 25  2  0  0  0  0
 32 31  1  0  0  0  0
M  END
>  <CHROM.1>
145.28199652,-113.41449398,54.87479485,159.81447156,-77.88794485,-174.84911804
153.20833525,-178.59808120,64.95766578,119.95504384,2.32797919,16.81182096
2.67287564,2.37584556,0.40494033,2.56127065

>  <Name>
lig.pdb

>  <RI>
0

>  <Rbt.Current_Directory>
/home/itssahil/PROJECTS/Mol_Feturizer/New_Systems/rnas/5lwj

>  <Rbt.Executable>
rbdock ($Id: //depot/dev/client3/rdock/2013.1/src/exe/rbdock.cxx#4 $)

>  <Rbt.Library>
libRbt.so (2013.1, Build901 2013/11/27)

>  <Rbt.Parameter_File>
/export/apps/rDock/src/rDock_2013.1_src/data/scripts/dock_solv.prm

>  <Rbt.Receptor>
prm/pocket_docking_4.prm

>  <SCORE>
-35.9287

>  <SCORE.INTER>
-32.9394

>  <SCORE.INTER.CONST>
1

>  <SCORE.INTER.POLAR>
-3.70444

>  <SCORE.INTER.ROT>
8

>  <SCORE.INTER.SOLV>
18.8499

>  <SCORE.INTER.VDW>
-24.8281

>  <SCORE.INTER.norm>
-1.02936

>  <SCORE.INTRA>
-2.98924

>  <SCORE.INTRA.DIHEDRAL>
-1.41932

>  <SCORE.INTRA.DIHEDRAL.0>
10.9248

>  <SCORE.INTRA.POLAR>
0

>  <SCORE.INTRA.POLAR.0>
0

>  <SCORE.INTRA.REPUL>
0.00695392

>  <SCORE.INTRA.REPUL.0>
0

>  <SCORE.INTRA.SOLV>
-0.799964

>  <SCORE.INTRA.SOLV.lig_0>
-51.4104

>  <SCORE.INTRA.VDW>
-1.91437

>  <SCORE.INTRA.VDW.0>
0.110327

>  <SCORE.INTRA.norm>
-0.0934137

>  <SCORE.RESTR>
0

>  <SCORE.RESTR.CAVITY>
0

>  <SCORE.RESTR.norm>
0

>  <SCORE.SYSTEM>
0

>  <SCORE.SYSTEM.CONST>
0

>  <SCORE.SYSTEM.DIHEDRAL>
0

>  <SCORE.SYSTEM.SOLV>
0

>  <SCORE.SYSTEM.norm>
0

>  <SCORE.heavy>
32

>  <SCORE.norm>
-1.12277

>  <RMSD>
9.705

$$$$
lig.pdb
 OpenBabel11021811523D
libRbt.so/2013.1/901 2013/11/27
 32 34  0  0  0  0  0  0  0  0999 V2000
   -1.5509   12.8953    4.3358 P   0  0  0  0  0  0  0  0  0  0  0  0
   -1.1336   11.5467    4.8698 O   0  0  0  0  0  0  0  0  0  0  0  0
   -2.3461   12.5219    2.9717 O   0  0  0  0  0  0  0  0  0  0  0  0
   -2.5624   13.6964    5.1169 O   0  0  0  0  0  0  0  0  0  0  0  0
   -0.3461   13.7011    4.2932 O   0  0  0  0  0  0  0  0  0  0  0  0
    0.5132   13.2471    3.1746 P   0  0  1  0  0  0  0  0  0  0  0  0
    1.7519   14.0604    3.1846 O   0  0  0  0  0  0  0  0  0  0  0  0
    0.8703   11.8208    3.3553 O   0  0  0  0  0  0  0  0  0  0  0  0
   -0.2117   13.4252    1.8915 O   0  0  0  0  0  0  0  0  0  0  0  0
   -0.6676   14.7510    1.4104 P   0  0  1  0  0  0  0  0  0  0  0  0
   -2.0624   15.0906    1.7580 O   0  0  0  0  0  0  0  0  0  0  0  0
    0.3042   15.8525    1.5905 O   0  0  0  0  0  0  0  0  0  0  0  0
   -0.7527   14.5394   -0.1917 O   0  0  0  0  0  0  0  0  0  0  0  0
   -1.7881   13.7940   -0.8040 C   0  0  0  0  0  0  0  0  0  0  0  0
   -1.5937   13.6490   -2.3197 C   0  0  1  0  0  0  0  0  0  0  0  0
   -1.5696   14.9208   -2.9349 O   0  0  0  0  0  0  0  0  0  0  0  0
   -0.2156   13.0923   -2.7179 C   0  0  1  0  0  0  0  0  0  0  0  0
   -0.0528   11.6934   -2.5545 O   0  0  0  0  0  0  0  0  0  0  0  0
   -0.0611   13.5393   -4.1714 C   0  0  1  0  0  0  0  0  0  0  0  0
   -0.5440   12.5688   -5.0835 O   0  0  0  0  0  0  0  0  0  0  0  0
   -0.9852   14.7549   -4.2146 C   0  0  2  0  0  0  0  0  0  0  0  0
   -0.3613   16.0093   -4.6871 N   0  0  0  0  0  0  0  0  0  0  0  0
   -0.7363   17.3162   -4.5034 C   0  0  0  0  0  0  0  0  0  0  0  0
    0.0019   18.1787   -5.1530 N   0  0  0  0  0  0  0  0  0  0  0  0
    0.9535   17.3937   -5.7972 C   0  0  0  0  0  0  0  0  0  0  0  0
    2.0123   17.7532   -6.6915 C   0  0  0  0  0  0  0  0  0  0  0  0
    2.2859   18.8718   -7.1218 O   0  0  0  0  0  0  0  0  0  0  0  0
    2.7768   16.6513   -7.0979 N   0  0  0  0  0  0  0  0  0  0  0  0
    2.5572   15.3558   -6.6545 C   0  0  0  0  0  0  0  0  0  0  0  0
    3.4216   14.4070   -7.0318 N   0  0  0  0  0  0  0  0  0  0  0  0
    1.5336   15.0164   -5.8541 N   0  0  0  0  0  0  0  0  0  0  0  0
    0.7672   16.0724   -5.4666 C   0  0  0  0  0  0  0  0  0  0  0  0
  1  2  2  0  0  0  0
  1  4  1  0  0  0  0
  1  3  1  0  0  0  0
  5  1  1  0  0  0  0
  6  7  2  6  0  0  0
  6  9  1  0  0  0  0
  6  5  1  0  0  0  0
  6  8  1  0  0  0  0
 10 11  2  1  0  0  0
 10 12  1  0  0  0  0
 10 13  1  0  0  0  0
 10  9  1  0  0  0  0
 13 14  1  0  0  0  0
 15 14  1  1  0  0  0
 15 16  1  0  0  0  0
 17 19  1  0  0  0  0
 17 15  1  0  0  0  0
 17 18  1  6  0  0  0
 19 21  1  0  0  0  0
 19 20  1  6  0  0  0
 21 16  1  0  0  0  0
 21 22  1  1  0  0  0
 22 32  1  0  0  0  0
 23 22  1  0  0  0  0
 23 24  2  0  0  0  0
 24 25  1  0  0  0  0
 25 26  1  0  0  0  0
 26 27  2  0  0  0  0
 26 28  1  0  0  0  0
 29 28  1  0  0  0  0
 29 30  1  0  0  0  0
 31 29  2  0  0  0  0
 32 25  2  0  0  0  0
 32 31  1  0  0  0  0
M  END
>  <CHROM.1>
73.35141861,60.92270129,-178.26200539,74.23315244,-94.45534501,-175.73246356
-60.09780715,65.32135449,-177.60502236,-34.77404814,-0.07257889,14.45505601
-1.03017631,-2.72408483,-1.34403201,-2.41753429

>  <Name>
lig.pdb

>  <RI>
2.92062e+07

>  <Rbt.Current_Directory>
/home/itssahil/PROJECTS/Mol_Feturizer/New_Systems/rnas/5lwj

>  <Rbt.Executable>
rbdock ($Id: //depot/dev/client3/rdock/2013.1/src/exe/rbdock.cxx#4 $)

>  <Rbt.Library>
libRbt.so (2013.1, Build901 2013/11/27)

>  <Rbt.Parameter_File>
/export/apps/rDock/src/rDock_2013.1_src/data/scripts/dock_solv.prm

>  <Rbt.Receptor>
prm/pocket_docking_7.prm

>  <SCORE>
-16.1719

>  <SCORE.INTER>
-10.9498

>  <SCORE.INTER.CONST>
1

>  <SCORE.INTER.POLAR>
-1.18094

>  <SCORE.INTER.ROT>
8

>  <SCORE.INTER.SOLV>
11.0882

>  <SCORE.INTER.VDW>
-15.9928

>  <SCORE.INTER.norm>
-0.342181

>  <SCORE.INTRA>
-5.22215

>  <SCORE.INTRA.DIHEDRAL>
-6.09653

>  <SCORE.INTRA.DIHEDRAL.0>
10.9248

>  <SCORE.INTRA.POLAR>
-0.0296856

>  <SCORE.INTRA.POLAR.0>
0

>  <SCORE.INTRA.REPUL>
0

>  <SCORE.INTRA.REPUL.0>
0

>  <SCORE.INTRA.SOLV>
1.70746

>  <SCORE.INTRA.SOLV.lig_0>
-51.4104

>  <SCORE.INTRA.VDW>
-2.92669

>  <SCORE.INTRA.VDW.0>
0.110327

>  <SCORE.INTRA.norm>
-0.163192

>  <SCORE.RESTR>
0

>  <SCORE.RESTR.CAVITY>
0

>  <SCORE.RESTR.norm>
0

>  <SCORE.SYSTEM>
0

>  <SCORE.SYSTEM.CONST>
0

>  <SCORE.SYSTEM.DIHEDRAL>
0

>  <SCORE.SYSTEM.SOLV>
0

>  <SCORE.SYSTEM.norm>
0

>  <SCORE.heavy>
32

>  <SCORE.norm>
-0.505373

>  <RMSD>
9.719

$$$$
lig.pdb
 OpenBabel11021811523D
libRbt.so/2013.1/901 2013/11/27
 32 34  0  0  0  0  0  0  0  0999 V2000
   -0.3324   11.2661    5.5353 P   0  0  0  0  0  0  0  0  0  0  0  0
   -1.7178   11.6025    6.0309 O   0  0  0  0  0  0  0  0  0  0  0  0
    0.6301   12.1249    6.5196 O   0  0  0  0  0  0  0  0  0  0  0  0
    0.1697    9.8542    5.7070 O   0  0  0  0  0  0  0  0  0  0  0  0
   -0.3442   11.5177    4.1073 O   0  0  0  0  0  0  0  0  0  0  0  0
    0.2170   12.8622    3.8374 P   0  0  1  0  0  0  0  0  0  0  0  0
   -0.5889   13.8572    4.5835 O   0  0  0  0  0  0  0  0  0  0  0  0
    1.6211   12.9295    4.3049 O   0  0  0  0  0  0  0  0  0  0  0  0
    0.1587   13.1382    2.3800 O   0  0  0  0  0  0  0  0  0  0  0  0
    0.3109   14.5020    1.8198 P   0  0  1  0  0  0  0  0  0  0  0  0
   -0.5721   14.8041    0.6749 O   0  0  0  0  0  0  0  0  0  0  0  0
    0.4206   15.5843    2.8232 O   0  0  0  0  0  0  0  0  0  0  0  0
    1.7705   14.4410    1.1236 O   0  0  0  0  0  0  0  0  0  0  0  0
    2.3512   15.5601    0.4809 C   0  0  0  0  0  0  0  0  0  0  0  0
    3.8765   15.4425    0.3553 C   0  0  1  0  0  0  0  0  0  0  0  0
    4.4100   16.6040   -0.2469 O   0  0  0  0  0  0  0  0  0  0  0  0
    4.6115   15.4358    1.7072 C   0  0  1  0  0  0  0  0  0  0  0  0
    4.5670   14.2106    2.4192 O   0  0  0  0  0  0  0  0  0  0  0  0
    6.0347   15.8527    1.3369 C   0  0  1  0  0  0  0  0  0  0  0  0
    6.8628   14.7378    1.0573 O   0  0  0  0  0  0  0  0  0  0  0  0
    5.7970   16.6240    0.0400 C   0  0  2  0  0  0  0  0  0  0  0  0
    6.3310   18.0025    0.0151 N   0  0  0  0  0  0  0  0  0  0  0  0
    5.7355   19.1832   -0.3505 C   0  0  0  0  0  0  0  0  0  0  0  0
    6.5430   20.2122   -0.3424 N   0  0  0  0  0  0  0  0  0  0  0  0
    7.7591   19.6860    0.0829 C   0  0  0  0  0  0  0  0  0  0  0  0
    9.0382   20.3063    0.2532 C   0  0  0  0  0  0  0  0  0  0  0  0
    9.3466   21.4717    0.0123 O   0  0  0  0  0  0  0  0  0  0  0  0
   10.0102   19.4211    0.7384 N   0  0  0  0  0  0  0  0  0  0  0  0
    9.7552   18.0954    1.0555 C   0  0  0  0  0  0  0  0  0  0  0  0
   10.7404   17.3809    1.6110 N   0  0  0  0  0  0  0  0  0  0  0  0
    8.5664   17.5057    0.8485 N   0  0  0  0  0  0  0  0  0  0  0  0
    7.6156   18.3464    0.3569 C   0  0  0  0  0  0  0  0  0  0  0  0
  1  2  2  0  0  0  0
  1  4  1  0  0  0  0
  1  3  1  0  0  0  0
  5  1  1  0  0  0  0
  6  7  2  1  0  0  0
  6  9  1  0  0  0  0
  6  5  1  0  0  0  0
  6  8  1  0  0  0  0
 10 11  2  6  0  0  0
 10 12  1  0  0  0  0
 10 13  1  0  0  0  0
 10  9  1  0  0  0  0
 13 14  1  0  0  0  0
 15 14  1  1  0  0  0
 15 16  1  0  0  0  0
 17 19  1  0  0  0  0
 17 15  1  0  0  0  0
 17 18  1  6  0  0  0
 19 21  1  0  0  0  0
 19 20  1  6  0  0  0
 21 16  1  0  0  0  0
 21 22  1  1  0  0  0
 22 32  1  0  0  0  0
 23 22  1  0  0  0  0
 23 24  2  0  0  0  0
 24 25  1  0  0  0  0
 25 26  1  0  0  0  0
 26 27  2  0  0  0  0
 26 28  1  0  0  0  0
 29 28  1  0  0  0  0
 29 30  1  0  0  0  0
 31 29  2  0  0  0  0
 32 25  2  0  0  0  0
 32 31  1  0  0  0  0
M  END
>  <CHROM.1>
97.15142153,163.88575020,-57.68501563,-178.31811190,-141.25326309,159.13973463
-177.83465984,60.89007057,-54.82808717,-6.70761470,3.56859731,15.28570282
2.17092685,-2.42958530,-0.19491798,-0.78021396

>  <Name>
lig.pdb

>  <RI>
2.0892e+07

>  <Rbt.Current_Directory>
/home/itssahil/PROJECTS/Mol_Feturizer/New_Systems/rnas/5lwj

>  <Rbt.Executable>
rbdock ($Id: //depot/dev/client3/rdock/2013.1/src/exe/rbdock.cxx#4 $)

>  <Rbt.Library>
libRbt.so (2013.1, Build901 2013/11/27)

>  <Rbt.Parameter_File>
/export/apps/rDock/src/rDock_2013.1_src/data/scripts/dock_solv.prm

>  <Rbt.Receptor>
prm/pocket_docking_8.prm

>  <SCORE>
-36.7985

>  <SCORE.INTER>
-34.2691

>  <SCORE.INTER.CONST>
1

>  <SCORE.INTER.POLAR>
-4.4012

>  <SCORE.INTER.ROT>
8

>  <SCORE.INTER.SOLV>
19.7188

>  <SCORE.INTER.VDW>
-23.6816

>  <SCORE.INTER.norm>
-1.07091

>  <SCORE.INTRA>
-2.5326

>  <SCORE.INTRA.DIHEDRAL>
-1.7397

>  <SCORE.INTRA.DIHEDRAL.0>
10.9248

>  <SCORE.INTRA.POLAR>
0

>  <SCORE.INTRA.POLAR.0>
0

>  <SCORE.INTRA.REPUL>
0.162913

>  <SCORE.INTRA.REPUL.0>
0

>  <SCORE.INTRA.SOLV>
-0.531723

>  <SCORE.INTRA.SOLV.lig_0>
-51.4104

>  <SCORE.INTRA.VDW>
-2.21146

>  <SCORE.INTRA.VDW.0>
0.110327

>  <SCORE.INTRA.norm>
-0.0791438

>  <SCORE.RESTR>
0.00322722

>  <SCORE.RESTR.CAVITY>
0.00322722

>  <SCORE.RESTR.norm>
0.000100851

>  <SCORE.SYSTEM>
0

>  <SCORE.SYSTEM.CONST>
0

>  <SCORE.SYSTEM.DIHEDRAL>
0

>  <SCORE.SYSTEM.SOLV>
0

>  <SCORE.SYSTEM.norm>
0

>  <SCORE.heavy>
32

>  <SCORE.norm>
-1.14995

>  <RMSD>
9.726

$$$$
lig.pdb
 OpenBabel11021811523D
libRbt.so/2013.1/901 2013/11/27
 32 34  0  0  0  0  0  0  0  0999 V2000
   -1.7469   12.4307    4.8214 P   0  0  0  0  0  0  0  0  0  0  0  0
   -2.8241   12.9031    3.8756 O   0  0  0  0  0  0  0  0  0  0  0  0
   -2.4678   12.5138    6.2726 O   0  0  0  0  0  0  0  0  0  0  0  0
   -1.2987   10.9927    4.7404 O   0  0  0  0  0  0  0  0  0  0  0  0
   -0.5754   13.2339    4.5299 O   0  0  0  0  0  0  0  0  0  0  0  0
    0.0355   12.7749    3.2604 P   0  0  1  0  0  0  0  0  0  0  0  0
    0.7388   11.4970    3.5221 O   0  0  0  0  0  0  0  0  0  0  0  0
   -1.0174   12.5473    2.2434 O   0  0  0  0  0  0  0  0  0  0  0  0
    0.9917   13.8006    2.7732 O   0  0  0  0  0  0  0  0  0  0  0  0
    0.5524   15.1173    2.2533 P   0  0  1  0  0  0  0  0  0  0  0  0
   -0.5004   15.0555    1.2191 O   0  0  0  0  0  0  0  0  0  0  0  0
    0.3544   16.1638    3.2808 O   0  0  0  0  0  0  0  0  0  0  0  0
    1.8392   15.6141    1.4070 O   0  0  0  0  0  0  0  0  0  0  0  0
    3.1278   15.7242    1.9814 C   0  0  0  0  0  0  0  0  0  0  0  0
    4.2420   15.7695    0.9265 C   0  0  1  0  0  0  0  0  0  0  0  0
    4.1065   16.9212    0.1193 O   0  0  0  0  0  0  0  0  0  0  0  0
    5.6477   15.9760    1.5175 C   0  0  1  0  0  0  0  0  0  0  0  0
    6.2374   14.8275    2.1036 O   0  0  0  0  0  0  0  0  0  0  0  0
    6.4519   16.5148    0.3346 C   0  0  1  0  0  0  0  0  0  0  0  0
    7.0820   15.4798   -0.3994 O   0  0  0  0  0  0  0  0  0  0  0  0
    5.3496   17.1263   -0.5281 C   0  0  2  0  0  0  0  0  0  0  0  0
    5.5404   18.5479   -0.8870 N   0  0  0  0  0  0  0  0  0  0  0  0
    6.4836   19.4537   -0.4720 C   0  0  0  0  0  0  0  0  0  0  0  0
    6.2924   20.6665   -0.9228 N   0  0  0  0  0  0  0  0  0  0  0  0
    5.1539   20.5583   -1.7158 C   0  0  0  0  0  0  0  0  0  0  0  0
    4.4247   21.5510   -2.4457 C   0  0  0  0  0  0  0  0  0  0  0  0
    4.6418   22.7601   -2.4930 O   0  0  0  0  0  0  0  0  0  0  0  0
    3.3397   21.0163   -3.1533 N   0  0  0  0  0  0  0  0  0  0  0  0
    3.0251   19.6659   -3.1760 C   0  0  0  0  0  0  0  0  0  0  0  0
    2.0292   19.2655   -3.9745 N   0  0  0  0  0  0  0  0  0  0  0  0
    3.6825   18.7457   -2.4515 N   0  0  0  0  0  0  0  0  0  0  0  0
    4.7272   19.2516   -1.7406 C   0  0  0  0  0  0  0  0  0  0  0  0
  1  2  2  0  0  0  0
  1  4  1  0  0  0  0
  1  3  1  0  0  0  0
  5  1  1  0  0  0  0
  6  7  2  1  0  0  0
  6  9  1  0  0  0  0
  6  5  1  0  0  0  0
  6  8  1  0  0  0  0
 10 11  2  6  0  0  0
 10 12  1  0  0  0  0
 10 13  1  0  0  0  0
 10  9  1  0  0  0  0
 13 14  1  0  0  0  0
 15 14  1  1  0  0  0
 15 16  1  0  0  0  0
 17 19  1  0  0  0  0
 17 15  1  0  0  0  0
 17 18  1  6  0  0  0
 19 21  1  0  0  0  0
 19 20  1  6  0  0  0
 21 16  1  0  0  0  0
 21 22  1  1  0  0  0
 22 32  1  0  0  0  0
 23 22  1  0  0  0  0
 23 24  2  0  0  0  0
 24 25  1  0  0  0  0
 25 26  1  0  0  0  0
 26 27  2  0  0  0  0
 26 28  1  0  0  0  0
 29 28  1  0  0  0  0
 29 30  1  0  0  0  0
 31 29  2  0  0  0  0
 32 25  2  0  0  0  0
 32 31  1  0  0  0  0
M  END
>  <CHROM.1>
-74.75104606,-69.69773355,-74.87603847,-55.93992623,-50.75308370,161.60430411
63.28599976,53.17016942,-177.69462474,117.27436894,2.25838088,15.95438021
1.19741202,2.14967808,-0.04583912,2.47062836

>  <Name>
lig.pdb

>  <RI>
1.82117e+07

>  <Rbt.Current_Directory>
/home/itssahil/PROJECTS/Mol_Feturizer/New_Systems/rnas/5lwj

>  <Rbt.Executable>
rbdock ($Id: //depot/dev/client3/rdock/2013.1/src/exe/rbdock.cxx#4 $)

>  <Rbt.Library>
libRbt.so (2013.1, Build901 2013/11/27)

>  <Rbt.Parameter_File>
/export/apps/rDock/src/rDock_2013.1_src/data/scripts/dock_solv.prm

>  <Rbt.Receptor>
prm/pocket_docking_5.prm

>  <SCORE>
-28.9264

>  <SCORE.INTER>
-26.0153

>  <SCORE.INTER.CONST>
1

>  <SCORE.INTER.POLAR>
-3.15233

>  <SCORE.INTER.ROT>
8

>  <SCORE.INTER.SOLV>
15.5016

>  <SCORE.INTER.VDW>
-20.9363

>  <SCORE.INTER.norm>
-0.812978

>  <SCORE.INTRA>
-2.91106

>  <SCORE.INTRA.DIHEDRAL>
-5.02225

>  <SCORE.INTRA.DIHEDRAL.0>
10.9248

>  <SCORE.INTRA.POLAR>
0

>  <SCORE.INTRA.POLAR.0>
0

>  <SCORE.INTRA.REPUL>
0.00121793

>  <SCORE.INTRA.REPUL.0>
0

>  <SCORE.INTRA.SOLV>
-0.822512

>  <SCORE.INTRA.SOLV.lig_0>
-51.4104

>  <SCORE.INTRA.VDW>
0.00522767

>  <SCORE.INTRA.VDW.0>
0.110327

>  <SCORE.INTRA.norm>
-0.0909708

>  <SCORE.RESTR>
0

>  <SCORE.RESTR.CAVITY>
0

>  <SCORE.RESTR.norm>
0

>  <SCORE.SYSTEM>
0

>  <SCORE.SYSTEM.CONST>
0

>  <SCORE.SYSTEM.DIHEDRAL>
0

>  <SCORE.SYSTEM.SOLV>
0

>  <SCORE.SYSTEM.norm>
0

>  <SCORE.heavy>
32

>  <SCORE.norm>
-0.903949

>  <RMSD>
9.731

$$$$
lig.pdb
 OpenBabel11021811523D
libRbt.so/2013.1/901 2013/11/27
 32 34  0  0  0  0  0  0  0  0999 V2000
   -1.6372   13.0127    4.2653 P   0  0  0  0  0  0  0  0  0  0  0  0
   -1.2802   11.5922    4.6297 O   0  0  0  0  0  0  0  0  0  0  0  0
   -2.6629   12.8279    3.0218 O   0  0  0  0  0  0  0  0  0  0  0  0
   -2.4341   13.8296    5.2517 O   0  0  0  0  0  0  0  0  0  0  0  0
   -0.3786   13.7110    4.0891 O   0  0  0  0  0  0  0  0  0  0  0  0
    0.4082   13.0503    3.0214 P   0  0  1  0  0  0  0  0  0  0  0  0
    1.0077   11.8179    3.5851 O   0  0  0  0  0  0  0  0  0  0  0  0
   -0.4769   12.6837    1.8914 O   0  0  0  0  0  0  0  0  0  0  0  0
    1.4710   13.9726    2.5487 O   0  0  0  0  0  0  0  0  0  0  0  0
    1.1926   15.3727    2.1499 P   0  0  1  0  0  0  0  0  0  0  0  0
    0.3330   15.5185    0.9576 O   0  0  0  0  0  0  0  0  0  0  0  0
    0.8707   16.2910    3.2649 O   0  0  0  0  0  0  0  0  0  0  0  0
    2.6289   15.8807    1.6043 O   0  0  0  0  0  0  0  0  0  0  0  0
    2.8932   17.2412    1.3183 C   0  0  0  0  0  0  0  0  0  0  0  0
    4.1734   17.4327    0.4932 C   0  0  1  0  0  0  0  0  0  0  0  0
    4.4288   18.8084    0.2964 O   0  0  0  0  0  0  0  0  0  0  0  0
    5.4534   16.9871    1.2219 C   0  0  1  0  0  0  0  0  0  0  0  0
    5.6771   15.5876    1.2602 O   0  0  0  0  0  0  0  0  0  0  0  0
    6.5595   17.7424    0.4855 C   0  0  1  0  0  0  0  0  0  0  0  0
    7.0959   16.9912   -0.5893 O   0  0  0  0  0  0  0  0  0  0  0  0
    5.7876   18.9309   -0.0845 C   0  0  2  0  0  0  0  0  0  0  0  0
    6.3257   20.2629    0.2650 N   0  0  0  0  0  0  0  0  0  0  0  0
    6.4822   21.3905   -0.5008 C   0  0  0  0  0  0  0  0  0  0  0  0
    7.0892   22.3724    0.1143 N   0  0  0  0  0  0  0  0  0  0  0  0
    7.3339   21.8738    1.3903 C   0  0  0  0  0  0  0  0  0  0  0  0
    8.0053   22.4604    2.5106 C   0  0  0  0  0  0  0  0  0  0  0  0
    8.5600   23.5561    2.5655 O   0  0  0  0  0  0  0  0  0  0  0  0
    8.0078   21.6281    3.6382 N   0  0  0  0  0  0  0  0  0  0  0  0
    7.3950   20.3848    3.6793 C   0  0  0  0  0  0  0  0  0  0  0  0
    7.3749   19.7319    4.8467 N   0  0  0  0  0  0  0  0  0  0  0  0
    6.8086   19.8187    2.6118 N   0  0  0  0  0  0  0  0  0  0  0  0
    6.8159   20.6052    1.5010 C   0  0  0  0  0  0  0  0  0  0  0  0
  1  2  2  0  0  0  0
  1  4  1  0  0  0  0
  1  3  1  0  0  0  0
  5  1  1  0  0  0  0
  6  7  2  1  0  0  0
  6  9  1  0  0  0  0
  6  5  1  0  0  0  0
  6  8  1  0  0  0  0
 10 11  2  6  0  0  0
 10 12  1  0  0  0  0
 10 13  1  0  0  0  0
 10  9  1  0  0  0  0
 13 14  1  0  0  0  0
 15 14  1  1  0  0  0
 15 16  1  0  0  0  0
 17 19  1  0  0  0  0
 17 15  1  0  0  0  0
 17 18  1  6  0  0  0
 19 21  1  0  0  0  0
 19 20  1  6  0  0  0
 21 16  1  0  0  0  0
 21 22  1  1  0  0  0
 22 32  1  0  0  0  0
 23 22  1  0  0  0  0
 23 24  2  0  0  0  0
 24 25  1  0  0  0  0
 25 26  1  0  0  0  0
 26 27  2  0  0  0  0
 26 28  1  0  0  0  0
 29 28  1  0  0  0  0
 29 30  1  0  0  0  0
 31 29  2  0  0  0  0
 32 25  2  0  0  0  0
 32 31  1  0  0  0  0
M  END
>  <CHROM.1>
59.19912176,-50.46520395,-77.13187722,-169.30965726,-64.92796721,-165.50166414
-176.90378948,-53.47226244,55.81889168,-97.65395253,3.26638345,16.77888526
2.24833978,2.99156787,-0.77016206,-2.02182939

>  <Name>
lig.pdb

>  <RI>
0

>  <Rbt.Current_Directory>
/home/itssahil/PROJECTS/Mol_Feturizer/New_Systems/rnas/5lwj

>  <Rbt.Executable>
rbdock ($Id: //depot/dev/client3/rdock/2013.1/src/exe/rbdock.cxx#4 $)

>  <Rbt.Library>
libRbt.so (2013.1, Build901 2013/11/27)

>  <Rbt.Parameter_File>
/export/apps/rDock/src/rDock_2013.1_src/data/scripts/dock_solv.prm

>  <Rbt.Receptor>
prm/pocket_docking_3.prm

>  <SCORE>
-32.2233

>  <SCORE.INTER>
-26.9514

>  <SCORE.INTER.CONST>
1

>  <SCORE.INTER.POLAR>
-3.03625

>  <SCORE.INTER.ROT>
8

>  <SCORE.INTER.SOLV>
17.0113

>  <SCORE.INTER.VDW>
-22.4505

>  <SCORE.INTER.norm>
-0.842231

>  <SCORE.INTRA>
-5.27735

>  <SCORE.INTRA.DIHEDRAL>
-5.963

>  <SCORE.INTRA.DIHEDRAL.0>
10.9248

>  <SCORE.INTRA.POLAR>
-0.211266

>  <SCORE.INTRA.POLAR.0>
0

>  <SCORE.INTRA.REPUL>
0

>  <SCORE.INTRA.REPUL.0>
0

>  <SCORE.INTRA.SOLV>
-0.15102

>  <SCORE.INTRA.SOLV.lig_0>
-51.4104

>  <SCORE.INTRA.VDW>
-1.50204

>  <SCORE.INTRA.VDW.0>
0.110327

>  <SCORE.INTRA.norm>
-0.164917

>  <SCORE.RESTR>
0.00546463

>  <SCORE.RESTR.CAVITY>
0.00546463

>  <SCORE.RESTR.norm>
0.00017077

>  <SCORE.SYSTEM>
0

>  <SCORE.SYSTEM.CONST>
0

>  <SCORE.SYSTEM.DIHEDRAL>
0

>  <SCORE.SYSTEM.SOLV>
0

>  <SCORE.SYSTEM.norm>
0

>  <SCORE.heavy>
32

>  <SCORE.norm>
-1.00698

>  <RMSD>
9.740

$$$$
lig.pdb
 OpenBabel11021811523D
libRbt.so/2013.1/901 2013/11/27
 32 34  0  0  0  0  0  0  0  0999 V2000
   -1.1074   11.9440    5.1981 P   0  0  0  0  0  0  0  0  0  0  0  0
   -1.9340   12.3740    6.3854 O   0  0  0  0  0  0  0  0  0  0  0  0
   -0.2283   10.7138    5.7866 O   0  0  0  0  0  0  0  0  0  0  0  0
   -1.8132   11.3292    4.0153 O   0  0  0  0  0  0  0  0  0  0  0  0
   -0.4619   13.1439    4.7018 O   0  0  0  0  0  0  0  0  0  0  0  0
    0.3537   12.8102    3.5107 P   0  0  1  0  0  0  0  0  0  0  0  0
    1.3099   13.9186    3.2806 O   0  0  0  0  0  0  0  0  0  0  0  0
    1.1118   11.5598    3.7486 O   0  0  0  0  0  0  0  0  0  0  0  0
   -0.5359   12.6425    2.3342 O   0  0  0  0  0  0  0  0  0  0  0  0
   -0.5408   13.5923    1.1963 P   0  0  1  0  0  0  0  0  0  0  0  0
   -1.7571   13.5506    0.3593 O   0  0  0  0  0  0  0  0  0  0  0  0
   -0.0486   14.9519    1.5111 O   0  0  0  0  0  0  0  0  0  0  0  0
    0.5799   12.9709    0.2080 O   0  0  0  0  0  0  0  0  0  0  0  0
    0.7133   13.3808   -1.1399 C   0  0  0  0  0  0  0  0  0  0  0  0
    1.8545   12.6559   -1.8668 C   0  0  1  0  0  0  0  0  0  0  0  0
    1.9214   13.0745   -3.2147 O   0  0  0  0  0  0  0  0  0  0  0  0
    3.2556   13.0393   -1.3594 C   0  0  1  0  0  0  0  0  0  0  0  0
    3.6449   12.4416   -0.1341 O   0  0  0  0  0  0  0  0  0  0  0  0
    4.1697   12.6530   -2.5220 C   0  0  1  0  0  0  0  0  0  0  0  0
    4.6582   11.3287   -2.4009 O   0  0  0  0  0  0  0  0  0  0  0  0
    3.2012   12.7121   -3.7018 C   0  0  2  0  0  0  0  0  0  0  0  0
    3.6172   13.5845   -4.8206 N   0  0  0  0  0  0  0  0  0  0  0  0
    4.3369   13.2999   -5.9535 C   0  0  0  0  0  0  0  0  0  0  0  0
    4.6083   14.3466   -6.6893 N   0  0  0  0  0  0  0  0  0  0  0  0
    4.0058   15.4028   -6.0125 C   0  0  0  0  0  0  0  0  0  0  0  0
    3.9855   16.8058   -6.2972 C   0  0  0  0  0  0  0  0  0  0  0  0
    4.5516   17.3950   -7.2157 O   0  0  0  0  0  0  0  0  0  0  0  0
    3.2271   17.5361   -5.3723 N   0  0  0  0  0  0  0  0  0  0  0  0
    2.5387   16.9605   -4.3150 C   0  0  0  0  0  0  0  0  0  0  0  0
    1.7636   17.7512   -3.5642 N   0  0  0  0  0  0  0  0  0  0  0  0
    2.6002   15.6508   -4.0240 N   0  0  0  0  0  0  0  0  0  0  0  0
    3.3508   14.9291   -4.9005 C   0  0  0  0  0  0  0  0  0  0  0  0
  1  2  2  0  0  0  0
  1  4  1  0  0  0  0
  1  3  1  0  0  0  0
  5  1  1  0  0  0  0
  6  7  2  6  0  0  0
  6  9  1  0  0  0  0
  6  5  1  0  0  0  0
  6  8  1  0  0  0  0
 10 11  2  6  0  0  0
 10 12  1  0  0  0  0
 10 13  1  0  0  0  0
 10  9  1  0  0  0  0
 13 14  1  0  0  0  0
 15 14  1  1  0  0  0
 15 16  1  0  0  0  0
 17 19  1  0  0  0  0
 17 15  1  0  0  0  0
 17 18  1  1  0  0  0
 19 21  1  0  0  0  0
 19 20  1  1  0  0  0
 21 16  1  0  0  0  0
 21 22  1  6  0  0  0
 22 32  1  0  0  0  0
 23 22  1  0  0  0  0
 23 24  2  0  0  0  0
 24 25  1  0  0  0  0
 25 26  1  0  0  0  0
 26 27  2  0  0  0  0
 26 28  1  0  0  0  0
 29 28  1  0  0  0  0
 29 30  1  0  0  0  0
 31 29  2  0  0  0  0
 32 25  2  0  0  0  0
 32 31  1  0  0  0  0
M  END
>  <CHROM.1>
-178.88839324,111.55662037,-162.73007695,165.78884763,-160.22518720,179.49188295
178.44093429,67.14721041,-179.69974430,-144.26787560,1.47993279,13.61451407
-0.41761594,2.21130167,-0.84308885,2.38253156

>  <Name>
lig.pdb

>  <RI>
2.0892e+07

>  <Rbt.Current_Directory>
/home/itssahil/PROJECTS/Mol_Feturizer/New_Systems/rnas/5lwj

>  <Rbt.Executable>
rbdock ($Id: //depot/dev/client3/rdock/2013.1/src/exe/rbdock.cxx#4 $)

>  <Rbt.Library>
libRbt.so (2013.1, Build901 2013/11/27)

>  <Rbt.Parameter_File>
/export/apps/rDock/src/rDock_2013.1_src/data/scripts/dock_solv.prm

>  <Rbt.Receptor>
prm/pocket_docking_8.prm

>  <SCORE>
-28.1989

>  <SCORE.INTER>
-25.5353

>  <SCORE.INTER.CONST>
1

>  <SCORE.INTER.POLAR>
-2.89141

>  <SCORE.INTER.ROT>
8

>  <SCORE.INTER.SOLV>
18.836

>  <SCORE.INTER.VDW>
-22.5975

>  <SCORE.INTER.norm>
-0.797978

>  <SCORE.INTRA>
-2.66362

>  <SCORE.INTRA.DIHEDRAL>
-3.62225

>  <SCORE.INTRA.DIHEDRAL.0>
10.9248

>  <SCORE.INTRA.POLAR>
-0.04488

>  <SCORE.INTRA.POLAR.0>
0

>  <SCORE.INTRA.REPUL>
0

>  <SCORE.INTRA.REPUL.0>
0

>  <SCORE.INTRA.SOLV>
-0.68828

>  <SCORE.INTRA.SOLV.lig_0>
-51.4104

>  <SCORE.INTRA.VDW>
-0.355766

>  <SCORE.INTRA.VDW.0>
0.110327

>  <SCORE.INTRA.norm>
-0.0832382

>  <SCORE.RESTR>
0

>  <SCORE.RESTR.CAVITY>
0

>  <SCORE.RESTR.norm>
0

>  <SCORE.SYSTEM>
0

>  <SCORE.SYSTEM.CONST>
0

>  <SCORE.SYSTEM.DIHEDRAL>
0

>  <SCORE.SYSTEM.SOLV>
0

>  <SCORE.SYSTEM.norm>
0

>  <SCORE.heavy>
32

>  <SCORE.norm>
-0.881216

>  <RMSD>
9.743

$$$$
lig.pdb
 OpenBabel11021811523D
libRbt.so/2013.1/901 2013/11/27
 32 34  0  0  0  0  0  0  0  0999 V2000
   -2.8305   13.4076    5.0885 P   0  0  0  0  0  0  0  0  0  0  0  0
   -3.2849   14.6020    5.8916 O   0  0  0  0  0  0  0  0  0  0  0  0
   -3.1322   12.1597    6.0806 O   0  0  0  0  0  0  0  0  0  0  0  0
   -3.5950   13.0480    3.8390 O   0  0  0  0  0  0  0  0  0  0  0  0
   -1.4767   13.7024    4.6606 O   0  0  0  0  0  0  0  0  0  0  0  0
   -0.7234   12.4371    4.4962 P   0  0  1  0  0  0  0  0  0  0  0  0
   -0.2658   11.9950    5.8346 O   0  0  0  0  0  0  0  0  0  0  0  0
   -1.6024   11.3944    3.9175 O   0  0  0  0  0  0  0  0  0  0  0  0
    0.4393   12.6672    3.6025 O   0  0  0  0  0  0  0  0  0  0  0  0
    0.4100   13.6491    2.4925 P   0  0  1  0  0  0  0  0  0  0  0  0
   -0.6229   13.3955    1.4676 O   0  0  0  0  0  0  0  0  0  0  0  0
    0.5449   15.0646    2.9027 O   0  0  0  0  0  0  0  0  0  0  0  0
    1.7782   13.3237    1.6920 O   0  0  0  0  0  0  0  0  0  0  0  0
    1.8853   13.4596    0.2874 C   0  0  0  0  0  0  0  0  0  0  0  0
    3.3382   13.6222   -0.1805 C   0  0  1  0  0  0  0  0  0  0  0  0
    3.3750   14.0420   -1.5291 O   0  0  0  0  0  0  0  0  0  0  0  0
    4.0893   14.7704    0.5161 C   0  0  1  0  0  0  0  0  0  0  0  0
    4.5352   14.4964    1.8337 O   0  0  0  0  0  0  0  0  0  0  0  0
    5.2381   15.0747   -0.4452 C   0  0  1  0  0  0  0  0  0  0  0  0
    6.4044   14.3320   -0.1367 O   0  0  0  0  0  0  0  0  0  0  0  0
    4.6690   14.5661   -1.7684 C   0  0  2  0  0  0  0  0  0  0  0  0
    4.6547   15.5496   -2.8723 N   0  0  0  0  0  0  0  0  0  0  0  0
    4.9148   16.8967   -2.8700 C   0  0  0  0  0  0  0  0  0  0  0  0
    4.7104   17.4808   -4.0223 N   0  0  0  0  0  0  0  0  0  0  0  0
    4.3086   16.4456   -4.8611 C   0  0  0  0  0  0  0  0  0  0  0  0
    3.9034   16.4583   -6.2343 C   0  0  0  0  0  0  0  0  0  0  0  0
    3.7859   17.4326   -6.9746 O   0  0  0  0  0  0  0  0  0  0  0  0
    3.6048   15.1795   -6.7236 N   0  0  0  0  0  0  0  0  0  0  0  0
    3.7233   14.0201   -5.9721 C   0  0  0  0  0  0  0  0  0  0  0  0
    3.5112   12.8495   -6.5841 N   0  0  0  0  0  0  0  0  0  0  0  0
    4.0571   14.0183   -4.6712 N   0  0  0  0  0  0  0  0  0  0  0  0
    4.3300   15.2553   -4.1735 C   0  0  0  0  0  0  0  0  0  0  0  0
  1  2  2  0  0  0  0
  1  4  1  0  0  0  0
  1  3  1  0  0  0  0
  5  1  1  0  0  0  0
  6  7  2  1  0  0  0
  6  9  1  0  0  0  0
  6  5  1  0  0  0  0
  6  8  1  0  0  0  0
 10 11  2  6  0  0  0
 10 12  1  0  0  0  0
 10 13  1  0  0  0  0
 10  9  1  0  0  0  0
 13 14  1  0  0  0  0
 15 14  1  1  0  0  0
 15 16  1  0  0  0  0
 17 19  1  0  0  0  0
 17 15  1  0  0  0  0
 17 18  1  1  0  0  0
 19 21  1  0  0  0  0
 19 20  1  1  0  0  0
 21 16  1  0  0  0  0
 21 22  1  6  0  0  0
 22 32  1  0  0  0  0
 23 22  1  0  0  0  0
 23 24  2  0  0  0  0
 24 25  1  0  0  0  0
 25 26  1  0  0  0  0
 26 27  2  0  0  0  0
 26 28  1  0  0  0  0
 29 28  1  0  0  0  0
 29 30  1  0  0  0  0
 31 29  2  0  0  0  0
 32 25  2  0  0  0  0
 32 31  1  0  0  0  0
M  END
>  <CHROM.1>
151.42340492,-32.33594600,-80.82514205,146.54680354,-60.01409424,158.20853231
-167.24406611,60.66592009,40.31879493,115.07125811,1.60549965,14.10003683
0.42863166,2.13916338,0.14482126,1.73371915

>  <Name>
lig.pdb

>  <RI>
2.92062e+07

>  <Rbt.Current_Directory>
/home/itssahil/PROJECTS/Mol_Feturizer/New_Systems/rnas/5lwj

>  <Rbt.Executable>
rbdock ($Id: //depot/dev/client3/rdock/2013.1/src/exe/rbdock.cxx#4 $)

>  <Rbt.Library>
libRbt.so (2013.1, Build901 2013/11/27)

>  <Rbt.Parameter_File>
/export/apps/rDock/src/rDock_2013.1_src/data/scripts/dock_solv.prm

>  <Rbt.Receptor>
prm/pocket_docking_7.prm

>  <SCORE>
-31.7447

>  <SCORE.INTER>
-30.3763

>  <SCORE.INTER.CONST>
1

>  <SCORE.INTER.POLAR>
-3.8994

>  <SCORE.INTER.ROT>
8

>  <SCORE.INTER.SOLV>
17.1581

>  <SCORE.INTER.VDW>
-21.9056

>  <SCORE.INTER.norm>
-0.949261

>  <SCORE.INTRA>
-1.37392

>  <SCORE.INTRA.DIHEDRAL>
0.408196

>  <SCORE.INTRA.DIHEDRAL.0>
10.9248

>  <SCORE.INTRA.POLAR>
0

>  <SCORE.INTRA.POLAR.0>
0

>  <SCORE.INTRA.REPUL>
0

>  <SCORE.INTRA.REPUL.0>
0

>  <SCORE.INTRA.SOLV>
-0.374643

>  <SCORE.INTRA.SOLV.lig_0>
-51.4104

>  <SCORE.INTRA.VDW>
-1.3907

>  <SCORE.INTRA.VDW.0>
0.110327

>  <SCORE.INTRA.norm>
-0.042935

>  <SCORE.RESTR>
0.00556865

>  <SCORE.RESTR.CAVITY>
0.00556865

>  <SCORE.RESTR.norm>
0.00017402

>  <SCORE.SYSTEM>
0

>  <SCORE.SYSTEM.CONST>
0

>  <SCORE.SYSTEM.DIHEDRAL>
0

>  <SCORE.SYSTEM.SOLV>
0

>  <SCORE.SYSTEM.norm>
0

>  <SCORE.heavy>
32

>  <SCORE.norm>
-0.992022

>  <RMSD>
9.827

$$$$
lig.pdb
 OpenBabel11021811523D
libRbt.so/2013.1/901 2013/11/27
 32 34  0  0  0  0  0  0  0  0999 V2000
   -1.7936   12.4211    5.0682 P   0  0  0  0  0  0  0  0  0  0  0  0
   -2.6881   13.6048    5.3456 O   0  0  0  0  0  0  0  0  0  0  0  0
   -2.4209   11.2564    6.0075 O   0  0  0  0  0  0  0  0  0  0  0  0
   -1.8209   11.8063    3.6911 O   0  0  0  0  0  0  0  0  0  0  0  0
   -0.4357   12.8865    5.2737 O   0  0  0  0  0  0  0  0  0  0  0  0
    0.5171   11.8298    4.8603 P   0  0  1  0  0  0  0  0  0  0  0  0
    1.7825   12.0323    5.6044 O   0  0  0  0  0  0  0  0  0  0  0  0
   -0.0304   10.4940    5.1929 O   0  0  0  0  0  0  0  0  0  0  0  0
    0.7564   11.9252    3.3983 O   0  0  0  0  0  0  0  0  0  0  0  0
    0.6784   13.2077    2.6594 P   0  0  1  0  0  0  0  0  0  0  0  0
    0.3989   13.0750    1.2151 O   0  0  0  0  0  0  0  0  0  0  0  0
   -0.0767   14.2813    3.3431 O   0  0  0  0  0  0  0  0  0  0  0  0
    2.2138   13.7188    2.6685 O   0  0  0  0  0  0  0  0  0  0  0  0
    2.8360   14.2702    1.5233 C   0  0  0  0  0  0  0  0  0  0  0  0
    3.7387   15.4652    1.8602 C   0  0  1  0  0  0  0  0  0  0  0  0
    4.9759   15.3501    1.1876 O   0  0  0  0  0  0  0  0  0  0  0  0
    3.2200   16.8075    1.3154 C   0  0  1  0  0  0  0  0  0  0  0  0
    2.1568   17.3930    2.0483 O   0  0  0  0  0  0  0  0  0  0  0  0
    4.4717   17.6843    1.2876 C   0  0  1  0  0  0  0  0  0  0  0  0
    4.6398   18.4146    2.4899 O   0  0  0  0  0  0  0  0  0  0  0  0
    5.5762   16.6331    1.1944 C   0  0  2  0  0  0  0  0  0  0  0  0
    6.5114   16.7949    0.0607 N   0  0  0  0  0  0  0  0  0  0  0  0
    7.7160   16.1901   -0.1950 C   0  0  0  0  0  0  0  0  0  0  0  0
    8.3282   16.6490   -1.2558 N   0  0  0  0  0  0  0  0  0  0  0  0
    7.4590   17.6123   -1.7591 C   0  0  0  0  0  0  0  0  0  0  0  0
    7.5864   18.4917   -2.8818 C   0  0  0  0  0  0  0  0  0  0  0  0
    8.5463   18.6077   -3.6409 O   0  0  0  0  0  0  0  0  0  0  0  0
    6.4559   19.2981   -3.0703 N   0  0  0  0  0  0  0  0  0  0  0  0
    5.3194   19.2285   -2.2787 C   0  0  0  0  0  0  0  0  0  0  0  0
    4.2650   19.9754   -2.6251 N   0  0  0  0  0  0  0  0  0  0  0  0
    5.2236   18.4366   -1.1981 N   0  0  0  0  0  0  0  0  0  0  0  0
    6.3223   17.6613   -0.9875 C   0  0  0  0  0  0  0  0  0  0  0  0
  1  2  2  0  0  0  0
  1  4  1  0  0  0  0
  1  3  1  0  0  0  0
  5  1  1  0  0  0  0
  6  7  2  1  0  0  0
  6  9  1  0  0  0  0
  6  5  1  0  0  0  0
  6  8  1  0  0  0  0
 10 11  2  6  0  0  0
 10 12  1  0  0  0  0
 10 13  1  0  0  0  0
 10  9  1  0  0  0  0
 13 14  1  0  0  0  0
 15 14  1  6  0  0  0
 15 16  1  0  0  0  0
 17 19  1  0  0  0  0
 17 15  1  0  0  0  0
 17 18  1  1  0  0  0
 19 21  1  0  0  0  0
 19 20  1  1  0  0  0
 21 16  1  0  0  0  0
 21 22  1  6  0  0  0
 22 32  1  0  0  0  0
 23 22  1  0  0  0  0
 23 24  2  0  0  0  0
 24 25  1  0  0  0  0
 25 26  1  0  0  0  0
 26 27  2  0  0  0  0
 26 28  1  0  0  0  0
 29 28  1  0  0  0  0
 29 30  1  0  0  0  0
 31 29  2  0  0  0  0
 32 25  2  0  0  0  0
 32 31  1  0  0  0  0
M  END
>  <CHROM.1>
-173.09900325,29.65109661,-154.82961218,136.68964130,-156.36278907,140.23103684
134.34034521,61.95911933,178.85505292,-68.06692737,2.70654973,15.03751490
1.87087126,2.30564627,-0.27789203,2.57642747

>  <Name>
lig.pdb

>  <RI>
0

>  <Rbt.Current_Directory>
/home/itssahil/PROJECTS/Mol_Feturizer/New_Systems/rnas/5lwj

>  <Rbt.Executable>
rbdock ($Id: //depot/dev/client3/rdock/2013.1/src/exe/rbdock.cxx#4 $)

>  <Rbt.Library>
libRbt.so (2013.1, Build901 2013/11/27)

>  <Rbt.Parameter_File>
/export/apps/rDock/src/rDock_2013.1_src/data/scripts/dock_solv.prm

>  <Rbt.Receptor>
prm/pocket_docking_4.prm

>  <SCORE>
-28.0752

>  <SCORE.INTER>
-33.4384

>  <SCORE.INTER.CONST>
1

>  <SCORE.INTER.POLAR>
-2.99269

>  <SCORE.INTER.ROT>
8

>  <SCORE.INTER.SOLV>
19.482

>  <SCORE.INTER.VDW>
-27.744

>  <SCORE.INTER.norm>
-1.04495

>  <SCORE.INTRA>
5.36317

>  <SCORE.INTRA.DIHEDRAL>
7.07183

>  <SCORE.INTRA.DIHEDRAL.0>
10.9248

>  <SCORE.INTRA.POLAR>
-0.00711209

>  <SCORE.INTRA.POLAR.0>
0

>  <SCORE.INTRA.REPUL>
0

>  <SCORE.INTRA.REPUL.0>
0

>  <SCORE.INTRA.SOLV>
0.727785

>  <SCORE.INTRA.SOLV.lig_0>
-51.4104

>  <SCORE.INTRA.VDW>
1.48754

>  <SCORE.INTRA.VDW.0>
0.110327

>  <SCORE.INTRA.norm>
0.167599

>  <SCORE.RESTR>
0

>  <SCORE.RESTR.CAVITY>
0

>  <SCORE.RESTR.norm>
0

>  <SCORE.SYSTEM>
0

>  <SCORE.SYSTEM.CONST>
0

>  <SCORE.SYSTEM.DIHEDRAL>
0

>  <SCORE.SYSTEM.SOLV>
0

>  <SCORE.SYSTEM.norm>
0

>  <SCORE.heavy>
32

>  <SCORE.norm>
-0.87735

>  <RMSD>
9.897

$$$$
lig.pdb
 OpenBabel11021811523D
libRbt.so/2013.1/901 2013/11/27
 32 34  0  0  0  0  0  0  0  0999 V2000
   -1.2703   13.4514    2.9719 P   0  0  0  0  0  0  0  0  0  0  0  0
   -2.1362   14.3019    2.0747 O   0  0  0  0  0  0  0  0  0  0  0  0
   -0.7524   14.5051    4.0917 O   0  0  0  0  0  0  0  0  0  0  0  0
   -1.9288   12.3708    3.7928 O   0  0  0  0  0  0  0  0  0  0  0  0
   -0.3291   12.7762    2.0995 O   0  0  0  0  0  0  0  0  0  0  0  0
    0.9845   13.4585    2.1668 P   0  0  1  0  0  0  0  0  0  0  0  0
    1.5416   13.2544    3.5248 O   0  0  0  0  0  0  0  0  0  0  0  0
    1.9123   12.8732    1.1711 O   0  0  0  0  0  0  0  0  0  0  0  0
    0.8033   14.9065    1.8948 O   0  0  0  0  0  0  0  0  0  0  0  0
    1.7983   15.9257    2.3050 P   0  0  1  0  0  0  0  0  0  0  0  0
    1.4259   16.7098    3.5001 O   0  0  0  0  0  0  0  0  0  0  0  0
    3.2080   15.4766    2.2701 O   0  0  0  0  0  0  0  0  0  0  0  0
    1.6907   17.0256    1.1230 O   0  0  0  0  0  0  0  0  0  0  0  0
    1.9077   18.4055    1.3495 C   0  0  0  0  0  0  0  0  0  0  0  0
    3.2537   18.6869    2.0316 C   0  0  1  0  0  0  0  0  0  0  0  0
    4.2895   18.7341    1.0718 O   0  0  0  0  0  0  0  0  0  0  0  0
    3.3520   20.0906    2.6545 C   0  0  1  0  0  0  0  0  0  0  0  0
    2.6803   20.2568    3.8919 O   0  0  0  0  0  0  0  0  0  0  0  0
    4.8587   20.3230    2.7641 C   0  0  1  0  0  0  0  0  0  0  0  0
    5.3752   19.9018    4.0143 O   0  0  0  0  0  0  0  0  0  0  0  0
    5.3892   19.3916    1.6758 C   0  0  2  0  0  0  0  0  0  0  0  0
    6.2565   20.0296    0.6625 N   0  0  0  0  0  0  0  0  0  0  0  0
    5.9857   20.4205   -0.6245 C   0  0  0  0  0  0  0  0  0  0  0  0
    7.0281   20.8673   -1.2761 N   0  0  0  0  0  0  0  0  0  0  0  0
    8.0646   20.7928   -0.3505 C   0  0  0  0  0  0  0  0  0  0  0  0
    9.4570   21.1006   -0.4789 C   0  0  0  0  0  0  0  0  0  0  0  0
   10.0548   21.4735   -1.4863 O   0  0  0  0  0  0  0  0  0  0  0  0
   10.1654   20.9182    0.7164 N   0  0  0  0  0  0  0  0  0  0  0  0
    9.5774   20.5181    1.9069 C   0  0  0  0  0  0  0  0  0  0  0  0
   10.3410   20.4831    3.0048 N   0  0  0  0  0  0  0  0  0  0  0  0
    8.2807   20.1842    2.0105 N   0  0  0  0  0  0  0  0  0  0  0  0
    7.5816   20.3351    0.8524 C   0  0  0  0  0  0  0  0  0  0  0  0
  1  2  2  0  0  0  0
  1  4  1  0  0  0  0
  1  3  1  0  0  0  0
  5  1  1  0  0  0  0
  6  7  2  1  0  0  0
  6  9  1  0  0  0  0
  6  5  1  0  0  0  0
  6  8  1  0  0  0  0
 10 11  2  1  0  0  0
 10 12  1  0  0  0  0
 10 13  1  0  0  0  0
 10  9  1  0  0  0  0
 13 14  1  0  0  0  0
 15 14  1  6  0  0  0
 15 16  1  0  0  0  0
 17 19  1  0  0  0  0
 17 15  1  0  0  0  0
 17 18  1  1  0  0  0
 19 21  1  0  0  0  0
 19 20  1  1  0  0  0
 21 16  1  0  0  0  0
 21 22  1  6  0  0  0
 22 32  1  0  0  0  0
 23 22  1  0  0  0  0
 23 24  2  0  0  0  0
 24 25  1  0  0  0  0
 25 26  1  0  0  0  0
 26 27  2  0  0  0  0
 26 28  1  0  0  0  0
 29 28  1  0  0  0  0
 29 30  1  0  0  0  0
 31 29  2  0  0  0  0
 32 25  2  0  0  0  0
 32 31  1  0  0  0  0
M  END
>  <CHROM.1>
101.69503134,159.65174202,67.20271164,148.14492347,-103.18273448,53.45253200
83.55869291,-59.18313125,-83.61190642,21.81408957,3.58628972,17.33299045
1.92549967,2.66875252,-0.53802685,-2.62650004

>  <Name>
lig.pdb

>  <RI>
0

>  <Rbt.Current_Directory>
/home/itssahil/PROJECTS/Mol_Feturizer/New_Systems/rnas/5lwj

>  <Rbt.Executable>
rbdock ($Id: //depot/dev/client3/rdock/2013.1/src/exe/rbdock.cxx#4 $)

>  <Rbt.Library>
libRbt.so (2013.1, Build901 2013/11/27)

>  <Rbt.Parameter_File>
/export/apps/rDock/src/rDock_2013.1_src/data/scripts/dock_solv.prm

>  <Rbt.Receptor>
prm/pocket_docking_4.prm

>  <SCORE>
-22.1774

>  <SCORE.INTER>
-20.2085

>  <SCORE.INTER.CONST>
1

>  <SCORE.INTER.POLAR>
-2.88541

>  <SCORE.INTER.ROT>
8

>  <SCORE.INTER.SOLV>
14.5069

>  <SCORE.INTER.VDW>
-17.6232

>  <SCORE.INTER.norm>
-0.631515

>  <SCORE.INTRA>
-1.97352

>  <SCORE.INTRA.DIHEDRAL>
1.4061

>  <SCORE.INTRA.DIHEDRAL.0>
10.9248

>  <SCORE.INTRA.POLAR>
0

>  <SCORE.INTRA.POLAR.0>
0

>  <SCORE.INTRA.REPUL>
0

>  <SCORE.INTRA.REPUL.0>
0

>  <SCORE.INTRA.SOLV>
1.47594

>  <SCORE.INTRA.SOLV.lig_0>
-51.4104

>  <SCORE.INTRA.VDW>
-3.41454

>  <SCORE.INTRA.VDW.0>
0.110327

>  <SCORE.INTRA.norm>
-0.0616725

>  <SCORE.RESTR>
0.00456694

>  <SCORE.RESTR.CAVITY>
0.00456694

>  <SCORE.RESTR.norm>
0.000142717

>  <SCORE.SYSTEM>
0

>  <SCORE.SYSTEM.CONST>
0

>  <SCORE.SYSTEM.DIHEDRAL>
0

>  <SCORE.SYSTEM.SOLV>
0

>  <SCORE.SYSTEM.norm>
0

>  <SCORE.heavy>
32

>  <SCORE.norm>
-0.693045

>  <RMSD>
9.920

$$$$
lig.pdb
 OpenBabel11021811523D
libRbt.so/2013.1/901 2013/11/27
 32 34  0  0  0  0  0  0  0  0999 V2000
   -0.5288   11.3857    5.3353 P   0  0  0  0  0  0  0  0  0  0  0  0
    0.2019   10.1766    5.8665 O   0  0  0  0  0  0  0  0  0  0  0  0
   -1.8359   10.7425    4.6208 O   0  0  0  0  0  0  0  0  0  0  0  0
   -1.1197   12.3603    6.3232 O   0  0  0  0  0  0  0  0  0  0  0  0
    0.4430   12.1355    4.5631 O   0  0  0  0  0  0  0  0  0  0  0  0
   -0.2621   13.0214    3.6073 P   0  0  1  0  0  0  0  0  0  0  0  0
   -1.4196   12.2779    3.0565 O   0  0  0  0  0  0  0  0  0  0  0  0
   -0.7535   14.2323    4.3050 O   0  0  0  0  0  0  0  0  0  0  0  0
    0.6675   13.4114    2.5177 O   0  0  0  0  0  0  0  0  0  0  0  0
    0.8641   14.8209    2.1034 P   0  0  1  0  0  0  0  0  0  0  0  0
   -0.3622   15.5125    1.6565 O   0  0  0  0  0  0  0  0  0  0  0  0
    1.7407   15.6192    2.9890 O   0  0  0  0  0  0  0  0  0  0  0  0
    1.6998   14.6747    0.7254 O   0  0  0  0  0  0  0  0  0  0  0  0
    2.4790   15.7306    0.1957 C   0  0  0  0  0  0  0  0  0  0  0  0
    3.9868   15.4688    0.3157 C   0  0  1  0  0  0  0  0  0  0  0  0
    4.7082   16.3801   -0.4877 O   0  0  0  0  0  0  0  0  0  0  0  0
    4.5601   15.7734    1.7109 C   0  0  1  0  0  0  0  0  0  0  0  0
    4.3023   14.7939    2.7030 O   0  0  0  0  0  0  0  0  0  0  0  0
    6.0528   15.9659    1.4444 C   0  0  1  0  0  0  0  0  0  0  0  0
    6.7804   14.7578    1.5798 O   0  0  0  0  0  0  0  0  0  0  0  0
    6.0480   16.3726   -0.0280 C   0  0  2  0  0  0  0  0  0  0  0  0
    6.7289   17.6484   -0.3357 N   0  0  0  0  0  0  0  0  0  0  0  0
    6.2401   18.8142   -0.8690 C   0  0  0  0  0  0  0  0  0  0  0  0
    7.1554   19.7199   -1.0988 N   0  0  0  0  0  0  0  0  0  0  0  0
    8.3369   19.1261   -0.6652 C   0  0  0  0  0  0  0  0  0  0  0  0
    9.6873   19.6012   -0.6928 C   0  0  0  0  0  0  0  0  0  0  0  0
   10.1024   20.6601   -1.1594 O   0  0  0  0  0  0  0  0  0  0  0  0
   10.5922   18.6975   -0.1198 N   0  0  0  0  0  0  0  0  0  0  0  0
   10.2185   17.4883    0.4470 C   0  0  0  0  0  0  0  0  0  0  0  0
   11.1616   16.7618    1.0573 N   0  0  0  0  0  0  0  0  0  0  0  0
    8.9579   17.0256    0.4272 N   0  0  0  0  0  0  0  0  0  0  0  0
    8.0685   17.8821   -0.1454 C   0  0  0  0  0  0  0  0  0  0  0  0
  1  2  2  0  0  0  0
  1  4  1  0  0  0  0
  1  3  1  0  0  0  0
  5  1  1  0  0  0  0
  6  7  2  6  0  0  0
  6  9  1  0  0  0  0
  6  5  1  0  0  0  0
  6  8  1  0  0  0  0
 10 11  2  6  0  0  0
 10 12  1  0  0  0  0
 10 13  1  0  0  0  0
 10  9  1  0  0  0  0
 13 14  1  0  0  0  0
 15 14  1  1  0  0  0
 15 16  1  0  0  0  0
 17 19  1  0  0  0  0
 17 15  1  0  0  0  0
 17 18  1  1  0  0  0
 19 21  1  0  0  0  0
 19 20  1  6  0  0  0
 21 16  1  0  0  0  0
 21 22  1  1  0  0  0
 22 32  1  0  0  0  0
 23 22  1  0  0  0  0
 23 24  2  0  0  0  0
 24 25  1  0  0  0  0
 25 26  1  0  0  0  0
 26 27  2  0  0  0  0
 26 28  1  0  0  0  0
 29 28  1  0  0  0  0
 29 30  1  0  0  0  0
 31 29  2  0  0  0  0
 32 25  2  0  0  0  0
 32 31  1  0  0  0  0
M  END
>  <CHROM.1>
158.69630974,-129.60640182,-39.72890938,-159.01851609,-58.42433082,108.72345668
166.47957335,-71.85255913,-173.81431515,6.11378011,3.65281781,15.22281818
1.92583718,-2.47155622,-0.08106172,-0.75558094

>  <Name>
lig.pdb

>  <RI>
0

>  <Rbt.Current_Directory>
/home/itssahil/PROJECTS/Mol_Feturizer/New_Systems/rnas/5lwj

>  <Rbt.Executable>
rbdock ($Id: //depot/dev/client3/rdock/2013.1/src/exe/rbdock.cxx#4 $)

>  <Rbt.Library>
libRbt.so (2013.1, Build901 2013/11/27)

>  <Rbt.Parameter_File>
/export/apps/rDock/src/rDock_2013.1_src/data/scripts/dock_solv.prm

>  <Rbt.Receptor>
prm/pocket_docking_6.prm

>  <SCORE>
-24.2527

>  <SCORE.INTER>
-25.0841

>  <SCORE.INTER.CONST>
1

>  <SCORE.INTER.POLAR>
-2.75308

>  <SCORE.INTER.ROT>
8

>  <SCORE.INTER.SOLV>
20.0576

>  <SCORE.INTER.VDW>
-23.165

>  <SCORE.INTER.norm>
-0.783878

>  <SCORE.INTRA>
0.758384

>  <SCORE.INTRA.DIHEDRAL>
4.09812

>  <SCORE.INTRA.DIHEDRAL.0>
10.9248

>  <SCORE.INTRA.POLAR>
-0.661904

>  <SCORE.INTRA.POLAR.0>
0

>  <SCORE.INTRA.REPUL>
0

>  <SCORE.INTRA.REPUL.0>
0

>  <SCORE.INTRA.SOLV>
0.115074

>  <SCORE.INTRA.SOLV.lig_0>
-51.4104

>  <SCORE.INTRA.VDW>
0.902263

>  <SCORE.INTRA.VDW.0>
0.110327

>  <SCORE.INTRA.norm>
0.0236995

>  <SCORE.RESTR>
0.072977

>  <SCORE.RESTR.CAVITY>
0.072977

>  <SCORE.RESTR.norm>
0.00228053

>  <SCORE.SYSTEM>
0

>  <SCORE.SYSTEM.CONST>
0

>  <SCORE.SYSTEM.DIHEDRAL>
0

>  <SCORE.SYSTEM.SOLV>
0

>  <SCORE.SYSTEM.norm>
0

>  <SCORE.heavy>
32

>  <SCORE.norm>
-0.757898

>  <RMSD>
9.923

$$$$
lig.pdb
 OpenBabel11021811523D
libRbt.so/2013.1/901 2013/11/27
 32 34  0  0  0  0  0  0  0  0999 V2000
   -1.1584   12.2576    4.9309 P   0  0  0  0  0  0  0  0  0  0  0  0
   -2.0872   12.5275    6.0896 O   0  0  0  0  0  0  0  0  0  0  0  0
   -0.0876   11.2092    5.5529 O   0  0  0  0  0  0  0  0  0  0  0  0
   -1.7014   11.5246    3.7297 O   0  0  0  0  0  0  0  0  0  0  0  0
   -0.7288   13.5561    4.4492 O   0  0  0  0  0  0  0  0  0  0  0  0
    0.2979   13.3778    3.3958 P   0  0  1  0  0  0  0  0  0  0  0  0
    1.3162   12.4264    3.8999 O   0  0  0  0  0  0  0  0  0  0  0  0
   -0.3220   12.8183    2.1721 O   0  0  0  0  0  0  0  0  0  0  0  0
    0.9228   14.6888    3.0884 O   0  0  0  0  0  0  0  0  0  0  0  0
    2.2880   14.8087    2.5237 P   0  0  1  0  0  0  0  0  0  0  0  0
    3.3222   14.0261    3.2306 O   0  0  0  0  0  0  0  0  0  0  0  0
    2.3640   14.7495    1.0470 O   0  0  0  0  0  0  0  0  0  0  0  0
    2.6944   16.3310    2.8929 O   0  0  0  0  0  0  0  0  0  0  0  0
    2.0547   17.4495    2.3077 C   0  0  0  0  0  0  0  0  0  0  0  0
    3.0394   18.3845    1.5918 C   0  0  1  0  0  0  0  0  0  0  0  0
    3.6721   19.2371    2.5240 O   0  0  0  0  0  0  0  0  0  0  0  0
    4.2477   17.6581    0.9752 C   0  0  1  0  0  0  0  0  0  0  0  0
    3.9939   16.9785   -0.2430 O   0  0  0  0  0  0  0  0  0  0  0  0
    5.2883   18.7678    0.8270 C   0  0  1  0  0  0  0  0  0  0  0  0
    5.2194   19.4000   -0.4390 O   0  0  0  0  0  0  0  0  0  0  0  0
    4.8292   19.7587    1.8951 C   0  0  2  0  0  0  0  0  0  0  0  0
    5.8552   20.1404    2.8889 N   0  0  0  0  0  0  0  0  0  0  0  0
    5.9340   19.8812    4.2339 C   0  0  0  0  0  0  0  0  0  0  0  0
    6.9427   20.4623    4.8303 N   0  0  0  0  0  0  0  0  0  0  0  0
    7.5991   21.1381    3.8061 C   0  0  0  0  0  0  0  0  0  0  0  0
    8.7499   21.9895    3.8346 C   0  0  0  0  0  0  0  0  0  0  0  0
    9.3990   22.3436    4.8168 O   0  0  0  0  0  0  0  0  0  0  0  0
    9.1149   22.4511    2.5628 N   0  0  0  0  0  0  0  0  0  0  0  0
    8.4568   22.0942    1.3956 C   0  0  0  0  0  0  0  0  0  0  0  0
    8.9661   22.5154    0.2325 N   0  0  0  0  0  0  0  0  0  0  0  0
    7.3493   21.3346    1.3791 N   0  0  0  0  0  0  0  0  0  0  0  0
    6.9679   20.8947    2.6093 C   0  0  0  0  0  0  0  0  0  0  0  0
  1  2  2  0  0  0  0
  1  4  1  0  0  0  0
  1  3  1  0  0  0  0
  5  1  1  0  0  0  0
  6  7  2  1  0  0  0
  6  9  1  0  0  0  0
  6  5  1  0  0  0  0
  6  8  1  0  0  0  0
 10 11  2  1  0  0  0
 10 12  1  0  0  0  0
 10 13  1  0  0  0  0
 10  9  1  0  0  0  0
 13 14  1  0  0  0  0
 15 14  1  1  0  0  0
 15 16  1  0  0  0  0
 17 19  1  0  0  0  0
 17 15  1  0  0  0  0
 17 18  1  6  0  0  0
 19 21  1  0  0  0  0
 19 20  1  6  0  0  0
 21 16  1  0  0  0  0
 21 22  1  1  0  0  0
 22 32  1  0  0  0  0
 23 22  1  0  0  0  0
 23 24  2  0  0  0  0
 24 25  1  0  0  0  0
 25 26  1  0  0  0  0
 26 27  2  0  0  0  0
 26 28  1  0  0  0  0
 29 28  1  0  0  0  0
 29 30  1  0  0  0  0
 31 29  2  0  0  0  0
 32 25  2  0  0  0  0
 32 31  1  0  0  0  0
M  END
>  <CHROM.1>
174.24556541,154.97986397,-48.95239046,-67.66904467,-49.37904804,-122.75640492
-81.25711084,-63.00677431,-56.83980264,11.32302573,3.42630050,16.85825944
2.86000263,-2.95531200,-0.82016191,-1.51244461

>  <Name>
lig.pdb

>  <RI>
0

>  <Rbt.Current_Directory>
/home/itssahil/PROJECTS/Mol_Feturizer/New_Systems/rnas/5lwj

>  <Rbt.Executable>
rbdock ($Id: //depot/dev/client3/rdock/2013.1/src/exe/rbdock.cxx#4 $)

>  <Rbt.Library>
libRbt.so (2013.1, Build901 2013/11/27)

>  <Rbt.Parameter_File>
/export/apps/rDock/src/rDock_2013.1_src/data/scripts/dock_solv.prm

>  <Rbt.Receptor>
prm/pocket_docking_4.prm

>  <SCORE>
-30.1706

>  <SCORE.INTER>
-26.6182

>  <SCORE.INTER.CONST>
1

>  <SCORE.INTER.POLAR>
-2.88962

>  <SCORE.INTER.ROT>
8

>  <SCORE.INTER.SOLV>
19.3924

>  <SCORE.INTER.VDW>
-23.5108

>  <SCORE.INTER.norm>
-0.831819

>  <SCORE.INTRA>
-3.55598

>  <SCORE.INTRA.DIHEDRAL>
2.16502

>  <SCORE.INTRA.DIHEDRAL.0>
10.9248

>  <SCORE.INTRA.POLAR>
-1.00869

>  <SCORE.INTRA.POLAR.0>
0

>  <SCORE.INTRA.REPUL>
0

>  <SCORE.INTRA.REPUL.0>
0

>  <SCORE.INTRA.SOLV>
0.0480843

>  <SCORE.INTRA.SOLV.lig_0>
-51.4104

>  <SCORE.INTRA.VDW>
-1.23297

>  <SCORE.INTRA.VDW.0>
0.110327

>  <SCORE.INTRA.norm>
-0.111124

>  <SCORE.RESTR>
0.00353708

>  <SCORE.RESTR.CAVITY>
0.00353708

>  <SCORE.RESTR.norm>
0.000110534

>  <SCORE.SYSTEM>
0

>  <SCORE.SYSTEM.CONST>
0

>  <SCORE.SYSTEM.DIHEDRAL>
0

>  <SCORE.SYSTEM.SOLV>
0

>  <SCORE.SYSTEM.norm>
0

>  <SCORE.heavy>
32

>  <SCORE.norm>
-0.942832

>  <RMSD>
9.949

$$$$
lig.pdb
 OpenBabel11021811523D
libRbt.so/2013.1/901 2013/11/27
 32 34  0  0  0  0  0  0  0  0999 V2000
   -0.8740   11.7950    5.3874 P   0  0  0  0  0  0  0  0  0  0  0  0
    0.1554   10.7878    5.8390 O   0  0  0  0  0  0  0  0  0  0  0  0
   -1.8013   10.9418    4.3653 O   0  0  0  0  0  0  0  0  0  0  0  0
   -1.8640   12.3147    6.3998 O   0  0  0  0  0  0  0  0  0  0  0  0
   -0.1299   12.9498    4.9232 O   0  0  0  0  0  0  0  0  0  0  0  0
   -0.7209   13.4425    3.6569 P   0  0  1  0  0  0  0  0  0  0  0  0
   -0.4869   12.4203    2.6098 O   0  0  0  0  0  0  0  0  0  0  0  0
   -2.1798   13.6409    3.8208 O   0  0  0  0  0  0  0  0  0  0  0  0
   -0.0783   14.7261    3.2787 O   0  0  0  0  0  0  0  0  0  0  0  0
    0.9909   14.8118    2.2558 P   0  0  1  0  0  0  0  0  0  0  0  0
    2.1774   13.9749    2.5276 O   0  0  0  0  0  0  0  0  0  0  0  0
    0.5210   14.7877    0.8527 O   0  0  0  0  0  0  0  0  0  0  0  0
    1.5683   16.3086    2.4675 O   0  0  0  0  0  0  0  0  0  0  0  0
    0.7224   17.4329    2.6202 C   0  0  0  0  0  0  0  0  0  0  0  0
    1.3250   18.5041    3.5397 C   0  0  1  0  0  0  0  0  0  0  0  0
    2.5635   18.9504    3.0266 O   0  0  0  0  0  0  0  0  0  0  0  0
    0.5203   19.8152    3.5753 C   0  0  1  0  0  0  0  0  0  0  0  0
   -0.6567   19.7867    4.3653 O   0  0  0  0  0  0  0  0  0  0  0  0
    1.5394   20.8412    4.0700 C   0  0  1  0  0  0  0  0  0  0  0  0
    1.5228   20.9744    5.4803 O   0  0  0  0  0  0  0  0  0  0  0  0
    2.8554   20.1858    3.6552 C   0  0  2  0  0  0  0  0  0  0  0  0
    3.7421   21.0196    2.8158 N   0  0  0  0  0  0  0  0  0  0  0  0
    3.6166   21.4194    1.5094 C   0  0  0  0  0  0  0  0  0  0  0  0
    4.6496   22.0787    1.0523 N   0  0  0  0  0  0  0  0  0  0  0  0
    5.5172   22.1457    2.1383 C   0  0  0  0  0  0  0  0  0  0  0  0
    6.8300   22.7052    2.2534 C   0  0  0  0  0  0  0  0  0  0  0  0
    7.5040   23.2297    1.3691 O   0  0  0  0  0  0  0  0  0  0  0  0
    7.3558   22.5936    3.5476 N   0  0  0  0  0  0  0  0  0  0  0  0
    6.6668   22.0349    4.6135 C   0  0  0  0  0  0  0  0  0  0  0  0
    7.2345   22.0829    5.8239 N   0  0  0  0  0  0  0  0  0  0  0  0
    5.4554   21.4682    4.4896 N   0  0  0  0  0  0  0  0  0  0  0  0
    4.9384   21.5487    3.2331 C   0  0  0  0  0  0  0  0  0  0  0  0
  1  2  2  0  0  0  0
  1  4  1  0  0  0  0
  1  3  1  0  0  0  0
  5  1  1  0  0  0  0
  6  7  2  6  0  0  0
  6  9  1  0  0  0  0
  6  5  1  0  0  0  0
  6  8  1  0  0  0  0
 10 11  2  1  0  0  0
 10 12  1  0  0  0  0
 10 13  1  0  0  0  0
 10  9  1  0  0  0  0
 13 14  1  0  0  0  0
 15 14  1  6  0  0  0
 15 16  1  0  0  0  0
 17 19  1  0  0  0  0
 17 15  1  0  0  0  0
 17 18  1  1  0  0  0
 19 21  1  0  0  0  0
 19 20  1  1  0  0  0
 21 16  1  0  0  0  0
 21 22  1  6  0  0  0
 22 32  1  0  0  0  0
 23 22  1  0  0  0  0
 23 24  2  0  0  0  0
 24 25  1  0  0  0  0
 25 26  1  0  0  0  0
 26 27  2  0  0  0  0
 26 28  1  0  0  0  0
 29 28  1  0  0  0  0
 29 30  1  0  0  0  0
 31 29  2  0  0  0  0
 32 25  2  0  0  0  0
 32 31  1  0  0  0  0
M  END
>  <CHROM.1>
136.50867946,100.31498133,-67.27002147,-45.44376945,-57.15859313,147.58039172
59.03093612,-63.08998770,-41.64742407,53.25572696,1.86745154,17.23944038
3.54872716,2.56905241,-0.86400489,-2.38584422

>  <Name>
lig.pdb

>  <RI>
2.0892e+07

>  <Rbt.Current_Directory>
/home/itssahil/PROJECTS/Mol_Feturizer/New_Systems/rnas/5lwj

>  <Rbt.Executable>
rbdock ($Id: //depot/dev/client3/rdock/2013.1/src/exe/rbdock.cxx#4 $)

>  <Rbt.Library>
libRbt.so (2013.1, Build901 2013/11/27)

>  <Rbt.Parameter_File>
/export/apps/rDock/src/rDock_2013.1_src/data/scripts/dock_solv.prm

>  <Rbt.Receptor>
prm/pocket_docking_8.prm

>  <SCORE>
-29.016

>  <SCORE.INTER>
-26.2492

>  <SCORE.INTER.CONST>
1

>  <SCORE.INTER.POLAR>
-3.16995

>  <SCORE.INTER.ROT>
8

>  <SCORE.INTER.SOLV>
18.2715

>  <SCORE.INTER.VDW>
-21.9568

>  <SCORE.INTER.norm>
-0.820289

>  <SCORE.INTRA>
-2.77545

>  <SCORE.INTRA.DIHEDRAL>
1.72506

>  <SCORE.INTRA.DIHEDRAL.0>
10.9248

>  <SCORE.INTRA.POLAR>
-0.160968

>  <SCORE.INTRA.POLAR.0>
0

>  <SCORE.INTRA.REPUL>
0

>  <SCORE.INTRA.REPUL.0>
0

>  <SCORE.INTRA.SOLV>
-1.20469

>  <SCORE.INTRA.SOLV.lig_0>
-51.4104

>  <SCORE.INTRA.VDW>
-2.48834

>  <SCORE.INTRA.VDW.0>
0.110327

>  <SCORE.INTRA.norm>
-0.0867327

>  <SCORE.RESTR>
0.00873818

>  <SCORE.RESTR.CAVITY>
0.00873818

>  <SCORE.RESTR.norm>
0.000273068

>  <SCORE.SYSTEM>
0

>  <SCORE.SYSTEM.CONST>
0

>  <SCORE.SYSTEM.DIHEDRAL>
0

>  <SCORE.SYSTEM.SOLV>
0

>  <SCORE.SYSTEM.norm>
0

>  <SCORE.heavy>
32

>  <SCORE.norm>
-0.906748

>  <RMSD>
9.988

$$$$
lig.pdb
 OpenBabel11021811523D
libRbt.so/2013.1/901 2013/11/27
 32 34  0  0  0  0  0  0  0  0999 V2000
   -6.2541   10.6384    7.3963 P   0  0  0  0  0  0  0  0  0  0  0  0
   -7.7105   10.8359    7.7394 O   0  0  0  0  0  0  0  0  0  0  0  0
   -5.5102   10.8190    8.8269 O   0  0  0  0  0  0  0  0  0  0  0  0
   -5.8011    9.2734    6.9415 O   0  0  0  0  0  0  0  0  0  0  0  0
   -5.9739   11.5418    6.2971 O   0  0  0  0  0  0  0  0  0  0  0  0
   -4.5839   12.0423    6.4104 P   0  0  1  0  0  0  0  0  0  0  0  0
   -4.4864   12.8590    7.6431 O   0  0  0  0  0  0  0  0  0  0  0  0
   -3.6409   10.9041    6.5092 O   0  0  0  0  0  0  0  0  0  0  0  0
   -4.2565   12.8644    5.2185 O   0  0  0  0  0  0  0  0  0  0  0  0
   -2.8673   13.2466    4.8705 P   0  0  1  0  0  0  0  0  0  0  0  0
   -2.4522   14.5800    5.3517 O   0  0  0  0  0  0  0  0  0  0  0  0
   -1.8586   12.1787    5.0499 O   0  0  0  0  0  0  0  0  0  0  0  0
   -2.9484   13.4670    3.2694 O   0  0  0  0  0  0  0  0  0  0  0  0
   -1.8010   13.4404    2.4414 C   0  0  0  0  0  0  0  0  0  0  0  0
   -1.8075   14.5570    1.3881 C   0  0  1  0  0  0  0  0  0  0  0  0
   -0.8790   15.5639    1.7351 O   0  0  0  0  0  0  0  0  0  0  0  0
   -1.2773   14.1154    0.0127 C   0  0  1  0  0  0  0  0  0  0  0  0
   -2.1805   13.3564   -0.7737 O   0  0  0  0  0  0  0  0  0  0  0  0
   -0.8788   15.4331   -0.6514 C   0  0  1  0  0  0  0  0  0  0  0  0
   -1.9367   15.9904   -1.4112 O   0  0  0  0  0  0  0  0  0  0  0  0
   -0.6281   16.3222    0.5653 C   0  0  2  0  0  0  0  0  0  0  0  0
    0.7019   16.9659    0.6170 N   0  0  0  0  0  0  0  0  0  0  0  0
    1.1576   18.1199    0.0313 C   0  0  0  0  0  0  0  0  0  0  0  0
    2.4339   18.3412    0.2122 N   0  0  0  0  0  0  0  0  0  0  0  0
    2.8562   17.2714    0.9956 C   0  0  0  0  0  0  0  0  0  0  0  0
    4.1560   16.9293    1.4891 C   0  0  0  0  0  0  0  0  0  0  0  0
    5.2170   17.5146    1.2817 O   0  0  0  0  0  0  0  0  0  0  0  0
    4.1489   15.7726    2.2802 N   0  0  0  0  0  0  0  0  0  0  0  0
    3.0022   15.0547    2.5847 C   0  0  0  0  0  0  0  0  0  0  0  0
    3.1099   14.0294    3.4373 N   0  0  0  0  0  0  0  0  0  0  0  0
    1.7934   15.3516    2.0802 N   0  0  0  0  0  0  0  0  0  0  0  0
    1.7860   16.4609    1.2915 C   0  0  0  0  0  0  0  0  0  0  0  0
  1  2  2  0  0  0  0
  1  4  1  0  0  0  0
  1  3  1  0  0  0  0
  5  1  1  0  0  0  0
  6  7  2  1  0  0  0
  6  9  1  0  0  0  0
  6  5  1  0  0  0  0
  6  8  1  0  0  0  0
 10 11  2  1  0  0  0
 10 12  1  0  0  0  0
 10 13  1  0  0  0  0
 10  9  1  0  0  0  0
 13 14  1  0  0  0  0
 15 14  1  1  0  0  0
 15 16  1  0  0  0  0
 17 19  1  0  0  0  0
 17 15  1  0  0  0  0
 17 18  1  6  0  0  0
 19 21  1  0  0  0  0
 19 20  1  6  0  0  0
 21 16  1  0  0  0  0
 21 22  1  1  0  0  0
 22 32  1  0  0  0  0
 23 22  1  0  0  0  0
 23 24  2  0  0  0  0
 24 25  1  0  0  0  0
 25 26  1  0  0  0  0
 26 27  2  0  0  0  0
 26 28  1  0  0  0  0
 29 28  1  0  0  0  0
 29 30  1  0  0  0  0
 31 29  2  0  0  0  0
 32 25  2  0  0  0  0
 32 31  1  0  0  0  0
M  END
>  <CHROM.1>
146.03096233,-165.44274772,-65.01335137,-160.06418345,-95.59014466,-137.23820015
106.25356266,-179.67696128,57.56587408,-152.04966038,-1.70613149,13.90865771
3.57144374,-2.37226641,-0.33315547,-1.19029289

>  <Name>
lig.pdb

>  <RI>
2.0892e+07

>  <Rbt.Current_Directory>
/home/itssahil/PROJECTS/Mol_Feturizer/New_Systems/rnas/5lwj

>  <Rbt.Executable>
rbdock ($Id: //depot/dev/client3/rdock/2013.1/src/exe/rbdock.cxx#4 $)

>  <Rbt.Library>
libRbt.so (2013.1, Build901 2013/11/27)

>  <Rbt.Parameter_File>
/export/apps/rDock/src/rDock_2013.1_src/data/scripts/dock_solv.prm

>  <Rbt.Receptor>
prm/pocket_docking_8.prm

>  <SCORE>
-32.7833

>  <SCORE.INTER>
-32.554

>  <SCORE.INTER.CONST>
1

>  <SCORE.INTER.POLAR>
-2.54268

>  <SCORE.INTER.ROT>
8

>  <SCORE.INTER.SOLV>
23.2912

>  <SCORE.INTER.VDW>
-29.9242

>  <SCORE.INTER.norm>
-1.01731

>  <SCORE.INTRA>
-0.229268

>  <SCORE.INTRA.DIHEDRAL>
5.50227

>  <SCORE.INTRA.DIHEDRAL.0>
10.9248

>  <SCORE.INTRA.POLAR>
0

>  <SCORE.INTRA.POLAR.0>
0

>  <SCORE.INTRA.REPUL>
0.00319907

>  <SCORE.INTRA.REPUL.0>
0

>  <SCORE.INTRA.SOLV>
-1.17586

>  <SCORE.INTRA.SOLV.lig_0>
-51.4104

>  <SCORE.INTRA.VDW>
-2.40847

>  <SCORE.INTRA.VDW.0>
0.110327

>  <SCORE.INTRA.norm>
-0.00716463

>  <SCORE.RESTR>
0

>  <SCORE.RESTR.CAVITY>
0

>  <SCORE.RESTR.norm>
0

>  <SCORE.SYSTEM>
0

>  <SCORE.SYSTEM.CONST>
0

>  <SCORE.SYSTEM.DIHEDRAL>
0

>  <SCORE.SYSTEM.SOLV>
0

>  <SCORE.SYSTEM.norm>
0

>  <SCORE.heavy>
32

>  <SCORE.norm>
-1.02448

>  <RMSD>
10.264

$$$$
lig.pdb
 OpenBabel11021811523D
libRbt.so/2013.1/901 2013/11/27
 32 34  0  0  0  0  0  0  0  0999 V2000
   -1.4127   12.2691    4.8595 P   0  0  0  0  0  0  0  0  0  0  0  0
   -1.8912   13.6783    5.1105 O   0  0  0  0  0  0  0  0  0  0  0  0
   -0.1802   12.1068    5.9022 O   0  0  0  0  0  0  0  0  0  0  0  0
   -2.3252   11.1243    5.2226 O   0  0  0  0  0  0  0  0  0  0  0  0
   -1.1908   12.1685    3.4300 O   0  0  0  0  0  0  0  0  0  0  0  0
    0.1050   12.7988    3.0851 P   0  0  1  0  0  0  0  0  0  0  0  0
    0.0943   14.1881    3.6005 O   0  0  0  0  0  0  0  0  0  0  0  0
    1.2168   12.0556    3.7227 O   0  0  0  0  0  0  0  0  0  0  0  0
    0.2787   12.7958    1.6109 O   0  0  0  0  0  0  0  0  0  0  0  0
    1.3680   13.5395    0.9346 P   0  0  1  0  0  0  0  0  0  0  0  0
    1.5734   14.9183    1.4230 O   0  0  0  0  0  0  0  0  0  0  0  0
    2.6105   12.7674    0.7106 O   0  0  0  0  0  0  0  0  0  0  0  0
    0.7664   13.7842   -0.5476 O   0  0  0  0  0  0  0  0  0  0  0  0
    0.9634   12.8665   -1.6067 C   0  0  0  0  0  0  0  0  0  0  0  0
    0.5881   13.4544   -2.9741 C   0  0  1  0  0  0  0  0  0  0  0  0
    1.3618   14.6059   -3.2419 O   0  0  0  0  0  0  0  0  0  0  0  0
    0.9651   12.5517   -4.1620 C   0  0  1  0  0  0  0  0  0  0  0  0
    0.1016   11.4503   -4.3887 O   0  0  0  0  0  0  0  0  0  0  0  0
    1.0080   13.5218   -5.3424 C   0  0  1  0  0  0  0  0  0  0  0  0
   -0.2400   13.6111   -6.0068 O   0  0  0  0  0  0  0  0  0  0  0  0
    1.2827   14.8477   -4.6354 C   0  0  2  0  0  0  0  0  0  0  0  0
    2.4652   15.5915   -5.1197 N   0  0  0  0  0  0  0  0  0  0  0  0
    3.7856   15.5007   -4.7580 C   0  0  0  0  0  0  0  0  0  0  0  0
    4.5565   16.3905   -5.3279 N   0  0  0  0  0  0  0  0  0  0  0  0
    3.6939   17.1116   -6.1479 C   0  0  0  0  0  0  0  0  0  0  0  0
    3.9341   18.2412   -6.9943 C   0  0  0  0  0  0  0  0  0  0  0  0
    4.9880   18.8553   -7.1476 O   0  0  0  0  0  0  0  0  0  0  0  0
    2.7879   18.6534   -7.6873 N   0  0  0  0  0  0  0  0  0  0  0  0
    1.5602   18.0154   -7.5938 C   0  0  0  0  0  0  0  0  0  0  0  0
    0.5694   18.4389   -8.3867 N   0  0  0  0  0  0  0  0  0  0  0  0
    1.3279   16.9866   -6.7623 N   0  0  0  0  0  0  0  0  0  0  0  0
    2.4261   16.5866   -6.0649 C   0  0  0  0  0  0  0  0  0  0  0  0
  1  2  2  0  0  0  0
  1  4  1  0  0  0  0
  1  3  1  0  0  0  0
  5  1  1  0  0  0  0
  6  7  2  1  0  0  0
  6  9  1  0  0  0  0
  6  5  1  0  0  0  0
  6  8  1  0  0  0  0
 10 11  2  1  0  0  0
 10 12  1  0  0  0  0
 10 13  1  0  0  0  0
 10  9  1  0  0  0  0
 13 14  1  0  0  0  0
 15 14  1  1  0  0  0
 15 16  1  0  0  0  0
 17 19  1  0  0  0  0
 17 15  1  0  0  0  0
 17 18  1  6  0  0  0
 19 21  1  0  0  0  0
 19 20  1  1  0  0  0
 21 16  1  0  0  0  0
 21 22  1  6  0  0  0
 22 32  1  0  0  0  0
 23 22  1  0  0  0  0
 23 24  2  0  0  0  0
 24 25  1  0  0  0  0
 25 26  1  0  0  0  0
 26 27  2  0  0  0  0
 26 28  1  0  0  0  0
 29 28  1  0  0  0  0
 29 30  1  0  0  0  0
 31 29  2  0  0  0  0
 32 25  2  0  0  0  0
 32 31  1  0  0  0  0
M  END
>  <CHROM.1>
78.94461245,170.23471278,-55.06442838,-90.01770515,-45.12355549,-166.76432950
59.16276157,-61.19609220,57.12476557,37.63399618,1.03115401,14.29900815,-1.35771816
1.98703471,0.89758630,1.62462203

>  <Name>
lig.pdb

>  <RI>
2.0892e+07

>  <Rbt.Current_Directory>
/home/itssahil/PROJECTS/Mol_Feturizer/New_Systems/rnas/5lwj

>  <Rbt.Executable>
rbdock ($Id: //depot/dev/client3/rdock/2013.1/src/exe/rbdock.cxx#4 $)

>  <Rbt.Library>
libRbt.so (2013.1, Build901 2013/11/27)

>  <Rbt.Parameter_File>
/export/apps/rDock/src/rDock_2013.1_src/data/scripts/dock_solv.prm

>  <Rbt.Receptor>
prm/pocket_docking_8.prm

>  <SCORE>
-24.1993

>  <SCORE.INTER>
-19.5503

>  <SCORE.INTER.CONST>
1

>  <SCORE.INTER.POLAR>
-2.25876

>  <SCORE.INTER.ROT>
8

>  <SCORE.INTER.SOLV>
13.1682

>  <SCORE.INTER.VDW>
-18.8271

>  <SCORE.INTER.norm>
-0.610946

>  <SCORE.INTRA>
-4.64899

>  <SCORE.INTRA.DIHEDRAL>
-4.44108

>  <SCORE.INTRA.DIHEDRAL.0>
10.9248

>  <SCORE.INTRA.POLAR>
0

>  <SCORE.INTRA.POLAR.0>
0

>  <SCORE.INTRA.REPUL>
0

>  <SCORE.INTRA.REPUL.0>
0

>  <SCORE.INTRA.SOLV>
-0.930605

>  <SCORE.INTRA.SOLV.lig_0>
-51.4104

>  <SCORE.INTRA.VDW>
-1.96315

>  <SCORE.INTRA.VDW.0>
0.110327

>  <SCORE.INTRA.norm>
-0.145281

>  <SCORE.RESTR>
0

>  <SCORE.RESTR.CAVITY>
0

>  <SCORE.RESTR.norm>
0

>  <SCORE.SYSTEM>
0

>  <SCORE.SYSTEM.CONST>
0

>  <SCORE.SYSTEM.DIHEDRAL>
0

>  <SCORE.SYSTEM.SOLV>
0

>  <SCORE.SYSTEM.norm>
0

>  <SCORE.heavy>
32

>  <SCORE.norm>
-0.756227

>  <RMSD>
10.359

$$$$
lig.pdb
 OpenBabel11021811523D
libRbt.so/2013.1/901 2013/11/27
 32 34  0  0  0  0  0  0  0  0999 V2000
    3.1877   10.3202   -2.9931 P   0  0  0  0  0  0  0  0  0  0  0  0
    3.1502   10.6035   -4.4751 O   0  0  0  0  0  0  0  0  0  0  0  0
    3.0902    8.7021   -2.9243 O   0  0  0  0  0  0  0  0  0  0  0  0
    4.4562   10.6223   -2.2351 O   0  0  0  0  0  0  0  0  0  0  0  0
    2.1572   11.1497   -2.3991 O   0  0  0  0  0  0  0  0  0  0  0  0
    0.8237   10.6542   -2.8133 P   0  0  1  0  0  0  0  0  0  0  0  0
   -0.2040   11.5341   -2.2087 O   0  0  0  0  0  0  0  0  0  0  0  0
    0.6979   10.7074   -4.2885 O   0  0  0  0  0  0  0  0  0  0  0  0
    0.6485    9.2568   -2.3440 O   0  0  0  0  0  0  0  0  0  0  0  0
    0.1115    8.1843   -3.2149 P   0  0  1  0  0  0  0  0  0  0  0  0
    0.9473    7.8630   -4.3896 O   0  0  0  0  0  0  0  0  0  0  0  0
   -0.4345    7.0093   -2.4999 O   0  0  0  0  0  0  0  0  0  0  0  0
   -1.1797    8.8870   -3.8915 O   0  0  0  0  0  0  0  0  0  0  0  0
   -2.0372    8.1992   -4.7827 C   0  0  0  0  0  0  0  0  0  0  0  0
   -3.4761    8.0989   -4.2576 C   0  0  1  0  0  0  0  0  0  0  0  0
   -3.6206    6.9570   -3.4380 O   0  0  0  0  0  0  0  0  0  0  0  0
   -3.8599    9.2246   -3.2812 C   0  0  1  0  0  0  0  0  0  0  0  0
   -4.1560   10.4756   -3.8791 O   0  0  0  0  0  0  0  0  0  0  0  0
   -5.0471    8.6391   -2.5170 C   0  0  1  0  0  0  0  0  0  0  0  0
   -6.2854    8.9576   -3.1272 O   0  0  0  0  0  0  0  0  0  0  0  0
   -4.7967    7.1400   -2.6701 C   0  0  2  0  0  0  0  0  0  0  0  0
   -4.7380    6.3746   -1.4065 N   0  0  0  0  0  0  0  0  0  0  0  0
   -5.6699    5.5620   -0.8118 C   0  0  0  0  0  0  0  0  0  0  0  0
   -5.3153    5.1178    0.3662 N   0  0  0  0  0  0  0  0  0  0  0  0
   -4.0452    5.6517    0.5621 C   0  0  0  0  0  0  0  0  0  0  0  0
   -3.1542    5.5599    1.6791 C   0  0  0  0  0  0  0  0  0  0  0  0
   -3.3522    4.9986    2.7547 O   0  0  0  0  0  0  0  0  0  0  0  0
   -1.9393    6.2232    1.4599 N   0  0  0  0  0  0  0  0  0  0  0  0
   -1.6168    6.8688    0.2758 C   0  0  0  0  0  0  0  0  0  0  0  0
   -0.3842    7.3733    0.1500 N   0  0  0  0  0  0  0  0  0  0  0  0
   -2.4742    6.9935   -0.7505 N   0  0  0  0  0  0  0  0  0  0  0  0
   -3.6681    6.3728   -0.5459 C   0  0  0  0  0  0  0  0  0  0  0  0
  1  2  2  0  0  0  0
  1  4  1  0  0  0  0
  1  3  1  0  0  0  0
  5  1  1  0  0  0  0
  6  7  2  1  0  0  0
  6  9  1  0  0  0  0
  6  5  1  0  0  0  0
  6  8  1  0  0  0  0
 10 11  2  6  0  0  0
 10 12  1  0  0  0  0
 10 13  1  0  0  0  0
 10  9  1  0  0  0  0
 13 14  1  0  0  0  0
 15 14  1  1  0  0  0
 15 16  1  0  0  0  0
 17 19  1  0  0  0  0
 17 15  1  0  0  0  0
 17 18  1  6  0  0  0
 19 21  1  0  0  0  0
 19 20  1  6  0  0  0
 21 16  1  0  0  0  0
 21 22  1  1  0  0  0
 22 32  1  0  0  0  0
 23 22  1  0  0  0  0
 23 24  2  0  0  0  0
 24 25  1  0  0  0  0
 25 26  1  0  0  0  0
 26 27  2  0  0  0  0
 26 28  1  0  0  0  0
 29 28  1  0  0  0  0
 29 30  1  0  0  0  0
 31 29  2  0  0  0  0
 32 25  2  0  0  0  0
 32 31  1  0  0  0  0
M  END
>  <CHROM.1>
68.86233423,-134.11302869,-179.10605612,-177.94462517,63.67535818,118.39348117
-87.09858284,-160.66810284,-59.54963887,-133.37678791,-1.21993326,8.38070172
-2.18644630,-0.56731026,0.22506557,2.19784679

>  <Name>
lig.pdb

>  <RI>
2.72908e+07

>  <Rbt.Current_Directory>
/home/itssahil/PROJECTS/Mol_Feturizer/New_Systems/rnas/5lwj

>  <Rbt.Executable>
rbdock ($Id: //depot/dev/client3/rdock/2013.1/src/exe/rbdock.cxx#4 $)

>  <Rbt.Library>
libRbt.so (2013.1, Build901 2013/11/27)

>  <Rbt.Parameter_File>
/export/apps/rDock/src/rDock_2013.1_src/data/scripts/dock_solv.prm

>  <Rbt.Receptor>
prm/blind_docking_20.prm

>  <SCORE>
-23.1959

>  <SCORE.INTER>
-23.6395

>  <SCORE.INTER.CONST>
1

>  <SCORE.INTER.POLAR>
-0.841491

>  <SCORE.INTER.ROT>
8

>  <SCORE.INTER.SOLV>
22.9333

>  <SCORE.INTER.VDW>
-29.5325

>  <SCORE.INTER.norm>
-0.738735

>  <SCORE.INTRA>
-1.00949

>  <SCORE.INTRA.DIHEDRAL>
5.55388

>  <SCORE.INTRA.DIHEDRAL.0>
10.9248

>  <SCORE.INTRA.POLAR>
-0.704847

>  <SCORE.INTRA.POLAR.0>
0

>  <SCORE.INTRA.REPUL>
0.120472

>  <SCORE.INTRA.REPUL.0>
0

>  <SCORE.INTRA.SOLV>
3.87356

>  <SCORE.INTRA.SOLV.lig_0>
-51.4104

>  <SCORE.INTRA.VDW>
-3.92909

>  <SCORE.INTRA.VDW.0>
0.110327

>  <SCORE.INTRA.norm>
-0.0315466

>  <SCORE.RESTR>
1.45315

>  <SCORE.RESTR.CAVITY>
1.45315

>  <SCORE.RESTR.norm>
0.045411

>  <SCORE.SYSTEM>
0

>  <SCORE.SYSTEM.CONST>
0

>  <SCORE.SYSTEM.DIHEDRAL>
0

>  <SCORE.SYSTEM.SOLV>
0

>  <SCORE.SYSTEM.norm>
0

>  <SCORE.heavy>
32

>  <SCORE.norm>
-0.72487

>  <RMSD>
10.397

$$$$
lig.pdb
 OpenBabel11021811523D
libRbt.so/2013.1/901 2013/11/27
 32 34  0  0  0  0  0  0  0  0999 V2000
    2.0921    9.9809   -3.6314 P   0  0  0  0  0  0  0  0  0  0  0  0
    2.6534   10.1696   -2.2431 O   0  0  0  0  0  0  0  0  0  0  0  0
    3.4184    9.7508   -4.5373 O   0  0  0  0  0  0  0  0  0  0  0  0
    1.2650    8.7510   -3.9115 O   0  0  0  0  0  0  0  0  0  0  0  0
    1.2203   11.1147   -3.8701 O   0  0  0  0  0  0  0  0  0  0  0  0
    0.1898   11.1785   -2.8073 P   0  0  1  0  0  0  0  0  0  0  0  0
    0.8717   11.4426   -1.5184 O   0  0  0  0  0  0  0  0  0  0  0  0
   -0.7597   12.2810   -3.0862 O   0  0  0  0  0  0  0  0  0  0  0  0
   -0.5413    9.8878   -2.7502 O   0  0  0  0  0  0  0  0  0  0  0  0
   -1.6099    9.5333   -3.7142 P   0  0  1  0  0  0  0  0  0  0  0  0
   -2.9678    9.9594   -3.3188 O   0  0  0  0  0  0  0  0  0  0  0  0
   -1.2746    9.7655   -5.1368 O   0  0  0  0  0  0  0  0  0  0  0  0
   -1.6983    7.9236   -3.5729 O   0  0  0  0  0  0  0  0  0  0  0  0
   -1.0151    7.2131   -2.5574 C   0  0  0  0  0  0  0  0  0  0  0  0
   -1.7083    7.3227   -1.1922 C   0  0  1  0  0  0  0  0  0  0  0  0
   -3.1055    7.4487   -1.3604 O   0  0  0  0  0  0  0  0  0  0  0  0
   -1.6182    6.0406   -0.3461 C   0  0  1  0  0  0  0  0  0  0  0  0
   -0.3729    5.8192    0.2943 O   0  0  0  0  0  0  0  0  0  0  0  0
   -2.7735    6.1894    0.6436 C   0  0  1  0  0  0  0  0  0  0  0  0
   -2.3706    6.8243    1.8443 O   0  0  0  0  0  0  0  0  0  0  0  0
   -3.7065    7.1287   -0.1183 C   0  0  2  0  0  0  0  0  0  0  0  0
   -5.0893    6.6384   -0.3008 N   0  0  0  0  0  0  0  0  0  0  0  0
   -6.2924    7.2600   -0.0806 C   0  0  0  0  0  0  0  0  0  0  0  0
   -7.3322    6.4864   -0.2572 N   0  0  0  0  0  0  0  0  0  0  0  0
   -6.7859    5.2674   -0.6473 C   0  0  0  0  0  0  0  0  0  0  0  0
   -7.4117    4.0144   -0.9444 C   0  0  0  0  0  0  0  0  0  0  0  0
   -8.6072    3.7361   -0.8762 O   0  0  0  0  0  0  0  0  0  0  0  0
   -6.4950    3.0295   -1.3363 N   0  0  0  0  0  0  0  0  0  0  0  0
   -5.1317    3.2515   -1.4597 C   0  0  0  0  0  0  0  0  0  0  0  0
   -4.3746    2.2610   -1.9450 N   0  0  0  0  0  0  0  0  0  0  0  0
   -4.5438    4.4142   -1.1336 N   0  0  0  0  0  0  0  0  0  0  0  0
   -5.4179    5.3762   -0.7300 C   0  0  0  0  0  0  0  0  0  0  0  0
  1  2  2  0  0  0  0
  1  4  1  0  0  0  0
  1  3  1  0  0  0  0
  5  1  1  0  0  0  0
  6  7  2  1  0  0  0
  6  9  1  0  0  0  0
  6  5  1  0  0  0  0
  6  8  1  0  0  0  0
 10 11  2  1  0  0  0
 10 12  1  0  0  0  0
 10 13  1  0  0  0  0
 10  9  1  0  0  0  0
 13 14  1  0  0  0  0
 15 14  1  6  0  0  0
 15 16  1  0  0  0  0
 17 19  1  0  0  0  0
 17 15  1  0  0  0  0
 17 18  1  1  0  0  0
 19 21  1  0  0  0  0
 19 20  1  1  0  0  0
 21 16  1  0  0  0  0
 21 22  1  6  0  0  0
 22 32  1  0  0  0  0
 23 22  1  0  0  0  0
 23 24  2  0  0  0  0
 24 25  1  0  0  0  0
 25 26  1  0  0  0  0
 26 27  2  0  0  0  0
 26 28  1  0  0  0  0
 29 28  1  0  0  0  0
 29 30  1  0  0  0  0
 31 29  2  0  0  0  0
 32 25  2  0  0  0  0
 32 31  1  0  0  0  0
M  END
>  <CHROM.1>
-56.56401851,-78.80259451,64.58058954,9.32298106,-88.97647582,77.05704928
31.15516270,-57.19832474,-173.27556567,-104.24075943,-2.12732840,7.79188738
-1.98029563,-0.74203633,0.01393431,2.69184329

>  <Name>
lig.pdb

>  <RI>
2.72908e+07

>  <Rbt.Current_Directory>
/home/itssahil/PROJECTS/Mol_Feturizer/New_Systems/rnas/5lwj

>  <Rbt.Executable>
rbdock ($Id: //depot/dev/client3/rdock/2013.1/src/exe/rbdock.cxx#4 $)

>  <Rbt.Library>
libRbt.so (2013.1, Build901 2013/11/27)

>  <Rbt.Parameter_File>
/export/apps/rDock/src/rDock_2013.1_src/data/scripts/dock_solv.prm

>  <Rbt.Receptor>
prm/blind_docking_20.prm

>  <SCORE>
-20.4475

>  <SCORE.INTER>
-22.5165

>  <SCORE.INTER.CONST>
1

>  <SCORE.INTER.POLAR>
-1.22818

>  <SCORE.INTER.ROT>
8

>  <SCORE.INTER.SOLV>
20.5906

>  <SCORE.INTER.VDW>
-26.7139

>  <SCORE.INTER.norm>
-0.70364

>  <SCORE.INTRA>
0.0760994

>  <SCORE.INTRA.DIHEDRAL>
-0.795878

>  <SCORE.INTRA.DIHEDRAL.0>
10.9248

>  <SCORE.INTRA.POLAR>
0

>  <SCORE.INTRA.POLAR.0>
0

>  <SCORE.INTRA.REPUL>
0

>  <SCORE.INTRA.REPUL.0>
0

>  <SCORE.INTRA.SOLV>
2.22791

>  <SCORE.INTRA.SOLV.lig_0>
-51.4104

>  <SCORE.INTRA.VDW>
-0.639919

>  <SCORE.INTRA.VDW.0>
0.110327

>  <SCORE.INTRA.norm>
0.00237811

>  <SCORE.RESTR>
1.99288

>  <SCORE.RESTR.CAVITY>
1.99288

>  <SCORE.RESTR.norm>
0.0622775

>  <SCORE.SYSTEM>
0

>  <SCORE.SYSTEM.CONST>
0

>  <SCORE.SYSTEM.DIHEDRAL>
0

>  <SCORE.SYSTEM.SOLV>
0

>  <SCORE.SYSTEM.norm>
0

>  <SCORE.heavy>
32

>  <SCORE.norm>
-0.638985

>  <RMSD>
11.234

$$$$
lig.pdb
 OpenBabel11021811523D
libRbt.so/2013.1/901 2013/11/27
 32 34  0  0  0  0  0  0  0  0999 V2000
   -8.2021   11.0621    8.8124 P   0  0  0  0  0  0  0  0  0  0  0  0
   -9.1133   10.0385    9.4446 O   0  0  0  0  0  0  0  0  0  0  0  0
   -8.2465   10.6732    7.2378 O   0  0  0  0  0  0  0  0  0  0  0  0
   -8.6288   12.5088    8.8229 O   0  0  0  0  0  0  0  0  0  0  0  0
   -6.9573   11.0048    9.5540 O   0  0  0  0  0  0  0  0  0  0  0  0
   -5.9749   10.1833    8.8085 P   0  0  1  0  0  0  0  0  0  0  0  0
   -4.7319   10.1082    9.6117 O   0  0  0  0  0  0  0  0  0  0  0  0
   -6.5049    8.8143    8.6094 O   0  0  0  0  0  0  0  0  0  0  0  0
   -5.7024   10.8133    7.4922 O   0  0  0  0  0  0  0  0  0  0  0  0
   -5.3837   12.2536    7.3481 P   0  0  1  0  0  0  0  0  0  0  0  0
   -6.5444   13.1191    7.0560 O   0  0  0  0  0  0  0  0  0  0  0  0
   -4.4438   12.7927    8.3562 O   0  0  0  0  0  0  0  0  0  0  0  0
   -4.5598   12.2993    5.9560 O   0  0  0  0  0  0  0  0  0  0  0  0
   -3.9376   13.4785    5.4817 C   0  0  0  0  0  0  0  0  0  0  0  0
   -3.2802   13.2870    4.1078 C   0  0  1  0  0  0  0  0  0  0  0  0
   -4.0180   13.9658    3.1123 O   0  0  0  0  0  0  0  0  0  0  0  0
   -1.9034   13.9621    3.9795 C   0  0  1  0  0  0  0  0  0  0  0  0
   -0.8281   13.2767    4.5992 O   0  0  0  0  0  0  0  0  0  0  0  0
   -1.7204   14.1056    2.4688 C   0  0  1  0  0  0  0  0  0  0  0  0
   -1.0537   12.9911    1.9027 O   0  0  0  0  0  0  0  0  0  0  0  0
   -3.1699   14.1064    1.9865 C   0  0  2  0  0  0  0  0  0  0  0  0
   -3.5624   15.2674    1.1596 N   0  0  0  0  0  0  0  0  0  0  0  0
   -4.4781   16.2615    1.3954 C   0  0  0  0  0  0  0  0  0  0  0  0
   -4.6416   17.0844    0.3920 N   0  0  0  0  0  0  0  0  0  0  0  0
   -3.7535   16.6219   -0.5745 C   0  0  0  0  0  0  0  0  0  0  0  0
   -3.4996   17.0799   -1.9070 C   0  0  0  0  0  0  0  0  0  0  0  0
   -4.0646   17.9903   -2.5097 O   0  0  0  0  0  0  0  0  0  0  0  0
   -2.4886   16.3510   -2.5478 N   0  0  0  0  0  0  0  0  0  0  0  0
   -1.7826   15.3202   -1.9461 C   0  0  0  0  0  0  0  0  0  0  0  0
   -0.7685   14.7724   -2.6252 N   0  0  0  0  0  0  0  0  0  0  0  0
   -2.0572   14.8627   -0.7136 N   0  0  0  0  0  0  0  0  0  0  0  0
   -3.0519   15.5460   -0.0843 C   0  0  0  0  0  0  0  0  0  0  0  0
  1  2  2  0  0  0  0
  1  4  1  0  0  0  0
  1  3  1  0  0  0  0
  5  1  1  0  0  0  0
  6  7  2  1  0  0  0
  6  9  1  0  0  0  0
  6  5  1  0  0  0  0
  6  8  1  0  0  0  0
 10 11  2  6  0  0  0
 10 12  1  0  0  0  0
 10 13  1  0  0  0  0
 10  9  1  0  0  0  0
 13 14  1  0  0  0  0
 15 14  1  1  0  0  0
 15 16  1  0  0  0  0
 17 19  1  0  0  0  0
 17 15  1  0  0  0  0
 17 18  1  6  0  0  0
 19 21  1  0  0  0  0
 19 20  1  6  0  0  0
 21 16  1  0  0  0  0
 21 22  1  1  0  0  0
 22 32  1  0  0  0  0
 23 22  1  0  0  0  0
 23 24  2  0  0  0  0
 24 25  1  0  0  0  0
 25 26  1  0  0  0  0
 26 27  2  0  0  0  0
 26 28  1  0  0  0  0
 29 28  1  0  0  0  0
 29 30  1  0  0  0  0
 31 29  2  0  0  0  0
 32 25  2  0  0  0  0
 32 31  1  0  0  0  0
M  END
>  <CHROM.1>
99.05579347,48.55084147,-178.19145136,-173.74692055,-94.03836127,-177.07821794
108.41425825,169.04315794,48.31206207,8.22820602,-4.61515798,13.15919315
4.51115462,1.96197690,-0.24876628,2.15363188

>  <Name>
lig.pdb

>  <RI>
2.92062e+07

>  <Rbt.Current_Directory>
/home/itssahil/PROJECTS/Mol_Feturizer/New_Systems/rnas/5lwj

>  <Rbt.Executable>
rbdock ($Id: //depot/dev/client3/rdock/2013.1/src/exe/rbdock.cxx#4 $)

>  <Rbt.Library>
libRbt.so (2013.1, Build901 2013/11/27)

>  <Rbt.Parameter_File>
/export/apps/rDock/src/rDock_2013.1_src/data/scripts/dock_solv.prm

>  <Rbt.Receptor>
prm/pocket_docking_7.prm

>  <SCORE>
-16.881

>  <SCORE.INTER>
-15.2881

>  <SCORE.INTER.CONST>
1

>  <SCORE.INTER.POLAR>
-0.876694

>  <SCORE.INTER.ROT>
8

>  <SCORE.INTER.SOLV>
19.6101

>  <SCORE.INTER.VDW>
-22.7398

>  <SCORE.INTER.norm>
-0.477754

>  <SCORE.INTRA>
-2.45643

>  <SCORE.INTRA.DIHEDRAL>
0.756493

>  <SCORE.INTRA.DIHEDRAL.0>
10.9248

>  <SCORE.INTRA.POLAR>
0

>  <SCORE.INTRA.POLAR.0>
0

>  <SCORE.INTRA.REPUL>
0

>  <SCORE.INTRA.REPUL.0>
0

>  <SCORE.INTRA.SOLV>
1.59403

>  <SCORE.INTRA.SOLV.lig_0>
-51.4104

>  <SCORE.INTRA.VDW>
-3.63169

>  <SCORE.INTRA.VDW.0>
0.110327

>  <SCORE.INTRA.norm>
-0.0767634

>  <SCORE.RESTR>
0.863516

>  <SCORE.RESTR.CAVITY>
0.863516

>  <SCORE.RESTR.norm>
0.0269849

>  <SCORE.SYSTEM>
0

>  <SCORE.SYSTEM.CONST>
0

>  <SCORE.SYSTEM.DIHEDRAL>
0

>  <SCORE.SYSTEM.SOLV>
0

>  <SCORE.SYSTEM.norm>
0

>  <SCORE.heavy>
32

>  <SCORE.norm>
-0.527532

>  <RMSD>
12.183

$$$$
lig.pdb
 OpenBabel11021811523D
libRbt.so/2013.1/901 2013/11/27
 32 34  0  0  0  0  0  0  0  0999 V2000
   -0.4653    5.7765    0.9335 P   0  0  0  0  0  0  0  0  0  0  0  0
    0.6766    6.7332    1.1762 O   0  0  0  0  0  0  0  0  0  0  0  0
   -0.7899    5.9818   -0.6429 O   0  0  0  0  0  0  0  0  0  0  0  0
   -0.1983    4.2959    1.0412 O   0  0  0  0  0  0  0  0  0  0  0  0
   -1.4641    6.0791    1.9403 O   0  0  0  0  0  0  0  0  0  0  0  0
   -2.7815    5.5624    1.5009 P   0  0  1  0  0  0  0  0  0  0  0  0
   -2.5477    4.4807    0.5154 O   0  0  0  0  0  0  0  0  0  0  0  0
   -3.5217    5.0092    2.6589 O   0  0  0  0  0  0  0  0  0  0  0  0
   -3.5631    6.6634    0.8841 O   0  0  0  0  0  0  0  0  0  0  0  0
   -4.7578    6.4186    0.0417 P   0  0  1  0  0  0  0  0  0  0  0  0
   -4.9922    5.0021   -0.3050 O   0  0  0  0  0  0  0  0  0  0  0  0
   -5.9693    7.1711    0.4365 O   0  0  0  0  0  0  0  0  0  0  0  0
   -4.3271    7.0559   -1.3821 O   0  0  0  0  0  0  0  0  0  0  0  0
   -5.1124    8.0281   -2.0461 C   0  0  0  0  0  0  0  0  0  0  0  0
   -4.3603    8.7066   -3.1995 C   0  0  1  0  0  0  0  0  0  0  0  0
   -3.0252    8.9756   -2.8233 O   0  0  0  0  0  0  0  0  0  0  0  0
   -4.1540    7.7986   -4.4246 C   0  0  1  0  0  0  0  0  0  0  0  0
   -5.2905    7.6275   -5.2548 O   0  0  0  0  0  0  0  0  0  0  0  0
   -2.9817    8.4530   -5.1551 C   0  0  1  0  0  0  0  0  0  0  0  0
   -3.4125    9.3958   -6.1208 O   0  0  0  0  0  0  0  0  0  0  0  0
   -2.2924    9.1998   -4.0147 C   0  0  2  0  0  0  0  0  0  0  0  0
   -0.8584    8.8909   -3.8297 N   0  0  0  0  0  0  0  0  0  0  0  0
   -0.1846    7.6989   -3.9155 C   0  0  0  0  0  0  0  0  0  0  0  0
    1.0802    7.7772   -3.5912 N   0  0  0  0  0  0  0  0  0  0  0  0
    1.2709    9.1226   -3.2910 C   0  0  0  0  0  0  0  0  0  0  0  0
    2.4322    9.8228   -2.8317 C   0  0  0  0  0  0  0  0  0  0  0  0
    3.5353    9.3528   -2.5605 O   0  0  0  0  0  0  0  0  0  0  0  0
    2.2115   11.1983   -2.6792 N   0  0  0  0  0  0  0  0  0  0  0  0
    1.0094   11.8230   -2.9755 C   0  0  0  0  0  0  0  0  0  0  0  0
    0.9561   13.1570   -2.8899 N   0  0  0  0  0  0  0  0  0  0  0  0
   -0.0908   11.1554   -3.3597 N   0  0  0  0  0  0  0  0  0  0  0  0
    0.1000    9.8144   -3.4924 C   0  0  0  0  0  0  0  0  0  0  0  0
  1  2  2  0  0  0  0
  1  4  1  0  0  0  0
  1  3  1  0  0  0  0
  5  1  1  0  0  0  0
  6  7  2  6  0  0  0
  6  9  1  0  0  0  0
  6  5  1  0  0  0  0
  6  8  1  0  0  0  0
 10 11  2  6  0  0  0
 10 12  1  0  0  0  0
 10 13  1  0  0  0  0
 10  9  1  0  0  0  0
 13 14  1  0  0  0  0
 15 14  1  1  0  0  0
 15 16  1  0  0  0  0
 17 19  1  0  0  0  0
 17 15  1  0  0  0  0
 17 18  1  6  0  0  0
 19 21  1  0  0  0  0
 19 20  1  6  0  0  0
 21 16  1  0  0  0  0
 21 22  1  1  0  0  0
 22 32  1  0  0  0  0
 23 22  1  0  0  0  0
 23 24  2  0  0  0  0
 24 25  1  0  0  0  0
 25 26  1  0  0  0  0
 26 27  2  0  0  0  0
 26 28  1  0  0  0  0
 29 28  1  0  0  0  0
 29 30  1  0  0  0  0
 31 29  2  0  0  0  0
 32 25  2  0  0  0  0
 32 31  1  0  0  0  0
M  END
>  <CHROM.1>
159.59092742,163.90668930,22.64686138,-125.84777474,-8.80432169,167.02851713
-41.16334397,-61.80161879,57.87154080,84.55868271,-1.85085411,7.67357508
-1.51681783,-2.11386591,-0.26762815,-0.93283960

>  <Name>
lig.pdb

>  <RI>
2.72908e+07

>  <Rbt.Current_Directory>
/home/itssahil/PROJECTS/Mol_Feturizer/New_Systems/rnas/5lwj

>  <Rbt.Executable>
rbdock ($Id: //depot/dev/client3/rdock/2013.1/src/exe/rbdock.cxx#4 $)

>  <Rbt.Library>
libRbt.so (2013.1, Build901 2013/11/27)

>  <Rbt.Parameter_File>
/export/apps/rDock/src/rDock_2013.1_src/data/scripts/dock_solv.prm

>  <Rbt.Receptor>
prm/blind_docking_20.prm

>  <SCORE>
-23.1565

>  <SCORE.INTER>
-27.9377

>  <SCORE.INTER.CONST>
1

>  <SCORE.INTER.POLAR>
-1.60239

>  <SCORE.INTER.ROT>
8

>  <SCORE.INTER.SOLV>
20.7215

>  <SCORE.INTER.VDW>
-29.1243

>  <SCORE.INTER.norm>
-0.873053

>  <SCORE.INTRA>
1.9344

>  <SCORE.INTRA.DIHEDRAL>
1.09496

>  <SCORE.INTRA.DIHEDRAL.0>
10.9248

>  <SCORE.INTRA.POLAR>
0

>  <SCORE.INTRA.POLAR.0>
0

>  <SCORE.INTRA.REPUL>
0.0119472

>  <SCORE.INTRA.REPUL.0>
0

>  <SCORE.INTRA.SOLV>
-0.679076

>  <SCORE.INTRA.SOLV.lig_0>
-51.4104

>  <SCORE.INTRA.VDW>
1.66673

>  <SCORE.INTRA.VDW.0>
0.110327

>  <SCORE.INTRA.norm>
0.0604501

>  <SCORE.RESTR>
2.84675

>  <SCORE.RESTR.CAVITY>
2.84675

>  <SCORE.RESTR.norm>
0.0889611

>  <SCORE.SYSTEM>
0

>  <SCORE.SYSTEM.CONST>
0

>  <SCORE.SYSTEM.DIHEDRAL>
0

>  <SCORE.SYSTEM.SOLV>
0

>  <SCORE.SYSTEM.norm>
0

>  <SCORE.heavy>
32

>  <SCORE.norm>
-0.723642

>  <RMSD>
12.822

$$$$
lig.pdb
 OpenBabel11021811523D
libRbt.so/2013.1/901 2013/11/27
 32 34  0  0  0  0  0  0  0  0999 V2000
    2.4385    1.9896   -0.8772 P   0  0  0  0  0  0  0  0  0  0  0  0
    3.8780    1.9065   -1.3231 O   0  0  0  0  0  0  0  0  0  0  0  0
    1.9081    3.3453   -1.5936 O   0  0  0  0  0  0  0  0  0  0  0  0
    1.4723    0.9397   -1.3667 O   0  0  0  0  0  0  0  0  0  0  0  0
    2.4581    1.8752    0.5682 O   0  0  0  0  0  0  0  0  0  0  0  0
    1.3508    2.6750    1.1425 P   0  0  1  0  0  0  0  0  0  0  0  0
    0.0745    2.1527    0.6001 O   0  0  0  0  0  0  0  0  0  0  0  0
    1.3396    2.5407    2.6178 O   0  0  0  0  0  0  0  0  0  0  0  0
    1.5261    4.1009    0.7689 O   0  0  0  0  0  0  0  0  0  0  0  0
    0.4851    5.1253    1.0214 P   0  0  1  0  0  0  0  0  0  0  0  0
   -0.8164    4.5894    1.4693 O   0  0  0  0  0  0  0  0  0  0  0  0
    0.9491    6.3248    1.7536 O   0  0  0  0  0  0  0  0  0  0  0  0
    0.1440    5.6619   -0.4667 O   0  0  0  0  0  0  0  0  0  0  0  0
    0.2871    7.0211   -0.8339 C   0  0  0  0  0  0  0  0  0  0  0  0
   -0.5328    7.3852   -2.0795 C   0  0  1  0  0  0  0  0  0  0  0  0
   -1.8342    6.8432   -1.9856 O   0  0  0  0  0  0  0  0  0  0  0  0
   -0.8375    8.8883   -2.2039 C   0  0  1  0  0  0  0  0  0  0  0  0
    0.2358    9.6919   -2.6648 O   0  0  0  0  0  0  0  0  0  0  0  0
   -2.0476    8.9268   -3.1369 C   0  0  1  0  0  0  0  0  0  0  0  0
   -1.6705    9.0491   -4.4970 O   0  0  0  0  0  0  0  0  0  0  0  0
   -2.6444    7.5380   -2.9169 C   0  0  2  0  0  0  0  0  0  0  0  0
   -4.0667    7.5156   -2.5136 N   0  0  0  0  0  0  0  0  0  0  0  0
   -5.1874    7.9551   -3.1719 C   0  0  0  0  0  0  0  0  0  0  0  0
   -6.2871    7.8666   -2.4694 N   0  0  0  0  0  0  0  0  0  0  0  0
   -5.8758    7.3048   -1.2644 C   0  0  0  0  0  0  0  0  0  0  0  0
   -6.6124    6.9995   -0.0752 C   0  0  0  0  0  0  0  0  0  0  0  0
   -7.8019    7.2148    0.1486 O   0  0  0  0  0  0  0  0  0  0  0  0
   -5.8209    6.4020    0.9149 N   0  0  0  0  0  0  0  0  0  0  0  0
   -4.4766    6.1037    0.7505 C   0  0  0  0  0  0  0  0  0  0  0  0
   -3.8561    5.4364    1.7300 N   0  0  0  0  0  0  0  0  0  0  0  0
   -3.7790    6.4358   -0.3481 N   0  0  0  0  0  0  0  0  0  0  0  0
   -4.5283    7.0368   -1.3124 C   0  0  0  0  0  0  0  0  0  0  0  0
  1  2  2  0  0  0  0
  1  4  1  0  0  0  0
  1  3  1  0  0  0  0
  5  1  1  0  0  0  0
  6  7  2  6  0  0  0
  6  9  1  0  0  0  0
  6  5  1  0  0  0  0
  6  8  1  0  0  0  0
 10 11  2  1  0  0  0
 10 12  1  0  0  0  0
 10 13  1  0  0  0  0
 10  9  1  0  0  0  0
 13 14  1  0  0  0  0
 15 14  1  1  0  0  0
 15 16  1  0  0  0  0
 17 19  1  0  0  0  0
 17 15  1  0  0  0  0
 17 18  1  6  0  0  0
 19 21  1  0  0  0  0
 19 20  1  6  0  0  0
 21 16  1  0  0  0  0
 21 22  1  1  0  0  0
 22 32  1  0  0  0  0
 23 22  1  0  0  0  0
 23 24  2  0  0  0  0
 24 25  1  0  0  0  0
 25 26  1  0  0  0  0
 26 27  2  0  0  0  0
 26 28  1  0  0  0  0
 29 28  1  0  0  0  0
 29 30  1  0  0  0  0
 31 29  2  0  0  0  0
 32 25  2  0  0  0  0
 32 31  1  0  0  0  0
M  END
>  <CHROM.1>
147.56705643,170.92279886,59.64426183,-121.50835617,-9.40336289,-159.78729637
45.00131540,-59.20858973,62.14463960,-173.58219526,-1.12820798,5.44537296
-0.58661361,-0.61071283,0.31571869,-0.74489061

>  <Name>
lig.pdb

>  <RI>
1.2169e+07

>  <Rbt.Current_Directory>
/home/itssahil/PROJECTS/Mol_Feturizer/New_Systems/rnas/5lwj

>  <Rbt.Executable>
rbdock ($Id: //depot/dev/client3/rdock/2013.1/src/exe/rbdock.cxx#4 $)

>  <Rbt.Library>
libRbt.so (2013.1, Build901 2013/11/27)

>  <Rbt.Parameter_File>
/export/apps/rDock/src/rDock_2013.1_src/data/scripts/dock_solv.prm

>  <Rbt.Receptor>
prm/blind_docking_40.prm

>  <SCORE>
-42.4879

>  <SCORE.INTER>
-40.4474

>  <SCORE.INTER.CONST>
1

>  <SCORE.INTER.POLAR>
-2.29064

>  <SCORE.INTER.ROT>
8

>  <SCORE.INTER.SOLV>
23.5934

>  <SCORE.INTER.VDW>
-36.1273

>  <SCORE.INTER.norm>
-1.26398

>  <SCORE.INTRA>
-3.26179

>  <SCORE.INTRA.DIHEDRAL>
0.412152

>  <SCORE.INTRA.DIHEDRAL.0>
10.9248

>  <SCORE.INTRA.POLAR>
-0.970022

>  <SCORE.INTRA.POLAR.0>
0

>  <SCORE.INTRA.REPUL>
0.373624

>  <SCORE.INTRA.REPUL.0>
0

>  <SCORE.INTRA.SOLV>
1.08012

>  <SCORE.INTRA.SOLV.lig_0>
-51.4104

>  <SCORE.INTRA.VDW>
-2.57798

>  <SCORE.INTRA.VDW.0>
0.110327

>  <SCORE.INTRA.norm>
-0.101931

>  <SCORE.RESTR>
1.2213

>  <SCORE.RESTR.CAVITY>
1.2213

>  <SCORE.RESTR.norm>
0.0381656

>  <SCORE.SYSTEM>
0

>  <SCORE.SYSTEM.CONST>
0

>  <SCORE.SYSTEM.DIHEDRAL>
0

>  <SCORE.SYSTEM.SOLV>
0

>  <SCORE.SYSTEM.norm>
0

>  <SCORE.heavy>
32

>  <SCORE.norm>
-1.32775

>  <RMSD>
13.025

$$$$
lig.pdb
 OpenBabel11021811523D
libRbt.so/2013.1/901 2013/11/27
 32 34  0  0  0  0  0  0  0  0999 V2000
   -1.0873    8.5881   -3.9843 P   0  0  0  0  0  0  0  0  0  0  0  0
    0.3120    8.0234   -3.9528 O   0  0  0  0  0  0  0  0  0  0  0  0
   -1.3771    8.9430   -2.4278 O   0  0  0  0  0  0  0  0  0  0  0  0
   -1.3165    9.9031   -4.6867 O   0  0  0  0  0  0  0  0  0  0  0  0
   -1.8992    7.6116   -4.6843 O   0  0  0  0  0  0  0  0  0  0  0  0
   -3.2197    7.5000   -4.0214 P   0  0  1  0  0  0  0  0  0  0  0  0
   -3.8082    8.8572   -3.9334 O   0  0  0  0  0  0  0  0  0  0  0  0
   -4.1179    6.6350   -4.8213 O   0  0  0  0  0  0  0  0  0  0  0  0
   -3.0440    6.9239   -2.6647 O   0  0  0  0  0  0  0  0  0  0  0  0
   -4.1879    6.6269   -1.7701 P   0  0  1  0  0  0  0  0  0  0  0  0
   -5.0786    7.7741   -1.5009 O   0  0  0  0  0  0  0  0  0  0  0  0
   -4.8838    5.3498   -2.0436 O   0  0  0  0  0  0  0  0  0  0  0  0
   -3.4710    6.4025   -0.3367 O   0  0  0  0  0  0  0  0  0  0  0  0
   -2.8043    5.1998   -0.0026 C   0  0  0  0  0  0  0  0  0  0  0  0
   -1.4854    5.4441    0.7439 C   0  0  1  0  0  0  0  0  0  0  0  0
   -0.9612    4.2237    1.2256 O   0  0  0  0  0  0  0  0  0  0  0  0
   -0.3407    5.9303   -0.1622 C   0  0  1  0  0  0  0  0  0  0  0  0
   -0.3948    7.2980   -0.5320 O   0  0  0  0  0  0  0  0  0  0  0  0
    0.9143    5.5839    0.6385 C   0  0  1  0  0  0  0  0  0  0  0  0
    1.3285    6.6519    1.4721 O   0  0  0  0  0  0  0  0  0  0  0  0
    0.4070    4.4434    1.5191 C   0  0  2  0  0  0  0  0  0  0  0  0
    1.1824    3.1871    1.4388 N   0  0  0  0  0  0  0  0  0  0  0  0
    1.3331    2.1723    2.3496 C   0  0  0  0  0  0  0  0  0  0  0  0
    2.1813    1.2472    1.9813 N   0  0  0  0  0  0  0  0  0  0  0  0
    2.6095    1.6608    0.7234 C   0  0  0  0  0  0  0  0  0  0  0  0
    3.5686    1.0890   -0.1727 C   0  0  0  0  0  0  0  0  0  0  0  0
    4.2678    0.0944    0.0090 O   0  0  0  0  0  0  0  0  0  0  0  0
    3.6862    1.8060   -1.3711 N   0  0  0  0  0  0  0  0  0  0  0  0
    2.9299    2.9279   -1.6749 C   0  0  0  0  0  0  0  0  0  0  0  0
    3.0582    3.4613   -2.8950 N   0  0  0  0  0  0  0  0  0  0  0  0
    2.0667    3.4883   -0.8119 N   0  0  0  0  0  0  0  0  0  0  0  0
    1.9559    2.8164    0.3666 C   0  0  0  0  0  0  0  0  0  0  0  0
  1  2  2  0  0  0  0
  1  4  1  0  0  0  0
  1  3  1  0  0  0  0
  5  1  1  0  0  0  0
  6  7  2  1  0  0  0
  6  9  1  0  0  0  0
  6  5  1  0  0  0  0
  6  8  1  0  0  0  0
 10 11  2  1  0  0  0
 10 12  1  0  0  0  0
 10 13  1  0  0  0  0
 10  9  1  0  0  0  0
 13 14  1  0  0  0  0
 15 14  1  6  0  0  0
 15 16  1  0  0  0  0
 17 19  1  0  0  0  0
 17 15  1  0  0  0  0
 17 18  1  1  0  0  0
 19 21  1  0  0  0  0
 19 20  1  1  0  0  0
 21 16  1  0  0  0  0
 21 22  1  6  0  0  0
 22 32  1  0  0  0  0
 23 22  1  0  0  0  0
 23 24  2  0  0  0  0
 24 25  1  0  0  0  0
 25 26  1  0  0  0  0
 26 27  2  0  0  0  0
 26 28  1  0  0  0  0
 29 28  1  0  0  0  0
 29 30  1  0  0  0  0
 31 29  2  0  0  0  0
 32 25  2  0  0  0  0
 32 31  1  0  0  0  0
M  END
>  <CHROM.1>
140.23553642,-177.07609091,53.95751286,-78.16548306,-55.61270452,138.44609616
171.37183225,59.14243953,150.68860522,-81.27629298,-0.70750386,5.60197514
-1.42003332,-2.34507873,-0.41314344,2.17670301

>  <Name>
lig.pdb

>  <RI>
2.72908e+07

>  <Rbt.Current_Directory>
/home/itssahil/PROJECTS/Mol_Feturizer/New_Systems/rnas/5lwj

>  <Rbt.Executable>
rbdock ($Id: //depot/dev/client3/rdock/2013.1/src/exe/rbdock.cxx#4 $)

>  <Rbt.Library>
libRbt.so (2013.1, Build901 2013/11/27)

>  <Rbt.Parameter_File>
/export/apps/rDock/src/rDock_2013.1_src/data/scripts/dock_solv.prm

>  <Rbt.Receptor>
prm/blind_docking_20.prm

>  <SCORE>
-34.77

>  <SCORE.INTER>
-34.1046

>  <SCORE.INTER.CONST>
1

>  <SCORE.INTER.POLAR>
-3.54308

>  <SCORE.INTER.ROT>
8

>  <SCORE.INTER.SOLV>
25.9501

>  <SCORE.INTER.VDW>
-28.5095

>  <SCORE.INTER.norm>
-1.06577

>  <SCORE.INTRA>
-1.11522

>  <SCORE.INTRA.DIHEDRAL>
3.38206

>  <SCORE.INTRA.DIHEDRAL.0>
10.9248

>  <SCORE.INTRA.POLAR>
0

>  <SCORE.INTRA.POLAR.0>
0

>  <SCORE.INTRA.REPUL>
0

>  <SCORE.INTRA.REPUL.0>
0

>  <SCORE.INTRA.SOLV>
1.49438

>  <SCORE.INTRA.SOLV.lig_0>
-51.4104

>  <SCORE.INTRA.VDW>
-3.55344

>  <SCORE.INTRA.VDW.0>
0.110327

>  <SCORE.INTRA.norm>
-0.0348505

>  <SCORE.RESTR>
0.449832

>  <SCORE.RESTR.CAVITY>
0.449832

>  <SCORE.RESTR.norm>
0.0140573

>  <SCORE.SYSTEM>
0

>  <SCORE.SYSTEM.CONST>
0

>  <SCORE.SYSTEM.DIHEDRAL>
0

>  <SCORE.SYSTEM.SOLV>
0

>  <SCORE.SYSTEM.norm>
0

>  <SCORE.heavy>
32

>  <SCORE.norm>
-1.08656

>  <RMSD>
13.257

$$$$
lig.pdb
 OpenBabel11021811523D
libRbt.so/2013.1/901 2013/11/27
 32 34  0  0  0  0  0  0  0  0999 V2000
    2.4090    2.3999   -0.5593 P   0  0  0  0  0  0  0  0  0  0  0  0
    2.5464    2.3730   -2.0621 O   0  0  0  0  0  0  0  0  0  0  0  0
    1.7629    0.9503   -0.2220 O   0  0  0  0  0  0  0  0  0  0  0  0
    3.6639    2.4217    0.2772 O   0  0  0  0  0  0  0  0  0  0  0  0
    1.6936    3.6208   -0.2429 O   0  0  0  0  0  0  0  0  0  0  0  0
    1.0094    3.4688    1.0626 P   0  0  1  0  0  0  0  0  0  0  0  0
   -0.2094    2.6524    0.8527 O   0  0  0  0  0  0  0  0  0  0  0  0
    1.8971    2.7732    2.0232 O   0  0  0  0  0  0  0  0  0  0  0  0
    0.6493    4.8087    1.5904 O   0  0  0  0  0  0  0  0  0  0  0  0
    0.3615    5.9631    0.7064 P   0  0  1  0  0  0  0  0  0  0  0  0
    1.2217    7.1432    0.9278 O   0  0  0  0  0  0  0  0  0  0  0  0
    0.1264    5.6226   -0.7145 O   0  0  0  0  0  0  0  0  0  0  0  0
   -1.0750    6.4766    1.2463 O   0  0  0  0  0  0  0  0  0  0  0  0
   -2.1107    5.5842    1.6119 C   0  0  0  0  0  0  0  0  0  0  0  0
   -3.4086    5.8352    0.8316 C   0  0  1  0  0  0  0  0  0  0  0  0
   -3.4231    7.1499    0.3141 O   0  0  0  0  0  0  0  0  0  0  0  0
   -3.5300    5.0004   -0.4553 C   0  0  1  0  0  0  0  0  0  0  0  0
   -3.8942    3.6429   -0.2692 O   0  0  0  0  0  0  0  0  0  0  0  0
   -4.5514    5.7779   -1.2849 C   0  0  1  0  0  0  0  0  0  0  0  0
   -5.8767    5.3324   -1.0559 O   0  0  0  0  0  0  0  0  0  0  0  0
   -4.4012    7.1851   -0.7098 C   0  0  2  0  0  0  0  0  0  0  0  0
   -4.1077    8.2457   -1.6972 N   0  0  0  0  0  0  0  0  0  0  0  0
   -4.9021    9.2497   -2.1904 C   0  0  0  0  0  0  0  0  0  0  0  0
   -4.3406    9.9574   -3.1363 N   0  0  0  0  0  0  0  0  0  0  0  0
   -3.0712    9.4024   -3.2675 C   0  0  0  0  0  0  0  0  0  0  0  0
   -2.0016    9.7161   -4.1660 C   0  0  0  0  0  0  0  0  0  0  0  0
   -1.9986   10.5500   -5.0694 O   0  0  0  0  0  0  0  0  0  0  0  0
   -0.8606    8.9329   -3.9458 N   0  0  0  0  0  0  0  0  0  0  0  0
   -0.7618    7.9807   -2.9425 C   0  0  0  0  0  0  0  0  0  0  0  0
    0.4170    7.3734   -2.7658 N   0  0  0  0  0  0  0  0  0  0  0  0
   -1.7838    7.6564   -2.1337 N   0  0  0  0  0  0  0  0  0  0  0  0
   -2.9078    8.3933   -2.3482 C   0  0  0  0  0  0  0  0  0  0  0  0
  1  2  2  0  0  0  0
  1  4  1  0  0  0  0
  1  3  1  0  0  0  0
  5  1  1  0  0  0  0
  6  7  2  6  0  0  0
  6  9  1  0  0  0  0
  6  5  1  0  0  0  0
  6  8  1  0  0  0  0
 10 11  2  1  0  0  0
 10 12  1  0  0  0  0
 10 13  1  0  0  0  0
 10  9  1  0  0  0  0
 13 14  1  0  0  0  0
 15 14  1  6  0  0  0
 15 16  1  0  0  0  0
 17 19  1  0  0  0  0
 17 15  1  0  0  0  0
 17 18  1  1  0  0  0
 19 21  1  0  0  0  0
 19 20  1  1  0  0  0
 21 16  1  0  0  0  0
 21 22  1  6  0  0  0
 22 32  1  0  0  0  0
 23 22  1  0  0  0  0
 23 24  2  0  0  0  0
 24 25  1  0  0  0  0
 25 26  1  0  0  0  0
 26 27  2  0  0  0  0
 26 28  1  0  0  0  0
 29 28  1  0  0  0  0
 29 30  1  0  0  0  0
 31 29  2  0  0  0  0
 32 25  2  0  0  0  0
 32 31  1  0  0  0  0
M  END
>  <CHROM.1>
155.61586230,29.08545625,-77.56282279,-41.03873149,-122.17331886,-123.20783129
-21.19717923,45.17726786,64.04080189,-128.59221017,-0.95072171,5.72659741
-0.73620791,-0.85948008,0.25608093,-0.69099897

>  <Name>
lig.pdb

>  <RI>
2.72908e+07

>  <Rbt.Current_Directory>
/home/itssahil/PROJECTS/Mol_Feturizer/New_Systems/rnas/5lwj

>  <Rbt.Executable>
rbdock ($Id: //depot/dev/client3/rdock/2013.1/src/exe/rbdock.cxx#4 $)

>  <Rbt.Library>
libRbt.so (2013.1, Build901 2013/11/27)

>  <Rbt.Parameter_File>
/export/apps/rDock/src/rDock_2013.1_src/data/scripts/dock_solv.prm

>  <Rbt.Receptor>
prm/blind_docking_20.prm

>  <SCORE>
-39.7547

>  <SCORE.INTER>
-38.5526

>  <SCORE.INTER.CONST>
1

>  <SCORE.INTER.POLAR>
-2.72423

>  <SCORE.INTER.ROT>
8

>  <SCORE.INTER.SOLV>
26.8408

>  <SCORE.INTER.VDW>
-34.5012

>  <SCORE.INTER.norm>
-1.20477

>  <SCORE.INTRA>
-1.4869

>  <SCORE.INTRA.DIHEDRAL>
9.00123

>  <SCORE.INTRA.DIHEDRAL.0>
10.9248

>  <SCORE.INTRA.POLAR>
-1

>  <SCORE.INTRA.POLAR.0>
0

>  <SCORE.INTRA.REPUL>
0

>  <SCORE.INTRA.REPUL.0>
0

>  <SCORE.INTRA.SOLV>
1.78259

>  <SCORE.INTRA.SOLV.lig_0>
-51.4104

>  <SCORE.INTRA.VDW>
-3.47881

>  <SCORE.INTRA.VDW.0>
0.110327

>  <SCORE.INTRA.norm>
-0.0464656

>  <SCORE.RESTR>
0.284794

>  <SCORE.RESTR.CAVITY>
0.284794

>  <SCORE.RESTR.norm>
0.00889981

>  <SCORE.SYSTEM>
0

>  <SCORE.SYSTEM.CONST>
0

>  <SCORE.SYSTEM.DIHEDRAL>
0

>  <SCORE.SYSTEM.SOLV>
0

>  <SCORE.SYSTEM.norm>
0

>  <SCORE.heavy>
32

>  <SCORE.norm>
-1.24233

>  <RMSD>
13.259

$$$$
lig.pdb
 OpenBabel11021811523D
libRbt.so/2013.1/901 2013/11/27
 32 34  0  0  0  0  0  0  0  0999 V2000
    1.0445    1.0403    0.1866 P   0  0  0  0  0  0  0  0  0  0  0  0
    0.4545   -0.3165    0.4848 O   0  0  0  0  0  0  0  0  0  0  0  0
    2.5884    0.8834    0.6602 O   0  0  0  0  0  0  0  0  0  0  0  0
    1.1672    1.4703   -1.2539 O   0  0  0  0  0  0  0  0  0  0  0  0
    0.1702    2.0072    0.8217 O   0  0  0  0  0  0  0  0  0  0  0  0
    0.9051    3.2771    1.0291 P   0  0  1  0  0  0  0  0  0  0  0  0
    2.0177    3.0177    1.9729 O   0  0  0  0  0  0  0  0  0  0  0  0
    1.4639    3.7561   -0.2566 O   0  0  0  0  0  0  0  0  0  0  0  0
   -0.0186    4.2967    1.5867 O   0  0  0  0  0  0  0  0  0  0  0  0
    0.1664    5.7496    1.3596 P   0  0  1  0  0  0  0  0  0  0  0  0
   -0.8679    6.6092    1.9704 O   0  0  0  0  0  0  0  0  0  0  0  0
    1.5544    6.2382    1.5181 O   0  0  0  0  0  0  0  0  0  0  0  0
   -0.1436    5.9061   -0.2209 O   0  0  0  0  0  0  0  0  0  0  0  0
    0.0659    7.1198   -0.9180 C   0  0  0  0  0  0  0  0  0  0  0  0
   -0.7650    7.2116   -2.2055 C   0  0  1  0  0  0  0  0  0  0  0  0
   -2.1376    7.0421   -1.9164 O   0  0  0  0  0  0  0  0  0  0  0  0
   -0.7599    8.6095   -2.8486 C   0  0  1  0  0  0  0  0  0  0  0  0
    0.4131    8.9437   -3.5715 O   0  0  0  0  0  0  0  0  0  0  0  0
   -2.0117    8.5987   -3.7257 C   0  0  1  0  0  0  0  0  0  0  0  0
   -1.7365    8.1611   -5.0448 O   0  0  0  0  0  0  0  0  0  0  0  0
   -2.8631    7.5408   -3.0261 C   0  0  2  0  0  0  0  0  0  0  0  0
   -4.2185    7.9783   -2.6295 N   0  0  0  0  0  0  0  0  0  0  0  0
   -4.8837    9.1530   -2.8742 C   0  0  0  0  0  0  0  0  0  0  0  0
   -6.0469    9.2399   -2.2824 N   0  0  0  0  0  0  0  0  0  0  0  0
   -6.1794    8.0263   -1.6144 C   0  0  0  0  0  0  0  0  0  0  0  0
   -7.2178    7.5389   -0.7576 C   0  0  0  0  0  0  0  0  0  0  0  0
   -8.2300    8.1321   -0.3904 O   0  0  0  0  0  0  0  0  0  0  0  0
   -6.9815    6.2329   -0.3077 N   0  0  0  0  0  0  0  0  0  0  0  0
   -5.8797    5.4774   -0.6797 C   0  0  0  0  0  0  0  0  0  0  0  0
   -5.8212    4.2058   -0.2684 N   0  0  0  0  0  0  0  0  0  0  0  0
   -4.8848    5.9560   -1.4444 N   0  0  0  0  0  0  0  0  0  0  0  0
   -5.0878    7.2317   -1.8732 C   0  0  0  0  0  0  0  0  0  0  0  0
  1  2  2  0  0  0  0
  1  4  1  0  0  0  0
  1  3  1  0  0  0  0
  5  1  1  0  0  0  0
  6  7  2  1  0  0  0
  6  9  1  0  0  0  0
  6  5  1  0  0  0  0
  6  8  1  0  0  0  0
 10 11  2  1  0  0  0
 10 12  1  0  0  0  0
 10 13  1  0  0  0  0
 10  9  1  0  0  0  0
 13 14  1  0  0  0  0
 15 14  1  1  0  0  0
 15 16  1  0  0  0  0
 17 19  1  0  0  0  0
 17 15  1  0  0  0  0
 17 18  1  6  0  0  0
 19 21  1  0  0  0  0
 19 20  1  6  0  0  0
 21 16  1  0  0  0  0
 21 22  1  1  0  0  0
 22 32  1  0  0  0  0
 23 22  1  0  0  0  0
 23 24  2  0  0  0  0
 24 25  1  0  0  0  0
 25 26  1  0  0  0  0
 26 27  2  0  0  0  0
 26 28  1  0  0  0  0
 29 28  1  0  0  0  0
 29 30  1  0  0  0  0
 31 29  2  0  0  0  0
 32 25  2  0  0  0  0
 32 31  1  0  0  0  0
M  END
>  <CHROM.1>
158.74510939,-151.95599193,-63.87213804,-172.44788411,178.82287762,-157.99724059
56.26895982,57.86535745,63.38130213,129.80545840,-1.61378734,5.47956530,-0.67026723
0.75947409,-0.09248934,2.58610895

>  <Name>
lig.pdb

>  <RI>
1.17715e+07

>  <Rbt.Current_Directory>
/home/itssahil/PROJECTS/Mol_Feturizer/New_Systems/rnas/5lwj

>  <Rbt.Executable>
rbdock ($Id: //depot/dev/client3/rdock/2013.1/src/exe/rbdock.cxx#4 $)

>  <Rbt.Library>
libRbt.so (2013.1, Build901 2013/11/27)

>  <Rbt.Parameter_File>
/export/apps/rDock/src/rDock_2013.1_src/data/scripts/dock_solv.prm

>  <Rbt.Receptor>
prm/blind_docking_60.prm

>  <SCORE>
-44.6279

>  <SCORE.INTER>
-40.3388

>  <SCORE.INTER.CONST>
1

>  <SCORE.INTER.POLAR>
-3.45723

>  <SCORE.INTER.ROT>
8

>  <SCORE.INTER.SOLV>
25.1348

>  <SCORE.INTER.VDW>
-32.68

>  <SCORE.INTER.norm>
-1.26059

>  <SCORE.INTRA>
-4.28914

>  <SCORE.INTRA.DIHEDRAL>
-4.04408

>  <SCORE.INTRA.DIHEDRAL.0>
10.9248

>  <SCORE.INTRA.POLAR>
0

>  <SCORE.INTRA.POLAR.0>
0

>  <SCORE.INTRA.REPUL>
0.0577849

>  <SCORE.INTRA.REPUL.0>
0

>  <SCORE.INTRA.SOLV>
-1.71453

>  <SCORE.INTRA.SOLV.lig_0>
-51.4104

>  <SCORE.INTRA.VDW>
-1.69876

>  <SCORE.INTRA.VDW.0>
0.110327

>  <SCORE.INTRA.norm>
-0.134036

>  <SCORE.RESTR>
0

>  <SCORE.RESTR.CAVITY>
0

>  <SCORE.RESTR.norm>
0

>  <SCORE.SYSTEM>
0

>  <SCORE.SYSTEM.CONST>
0

>  <SCORE.SYSTEM.DIHEDRAL>
0

>  <SCORE.SYSTEM.SOLV>
0

>  <SCORE.SYSTEM.norm>
0

>  <SCORE.heavy>
32

>  <SCORE.norm>
-1.39462

>  <RMSD>
13.334

$$$$
lig.pdb
 OpenBabel11021811523D
libRbt.so/2013.1/901 2013/11/27
 32 34  0  0  0  0  0  0  0  0999 V2000
    4.5432    1.2800   -0.9364 P   0  0  0  0  0  0  0  0  0  0  0  0
    5.9301    1.4923   -0.3802 O   0  0  0  0  0  0  0  0  0  0  0  0
    4.7949    1.2074   -2.5376 O   0  0  0  0  0  0  0  0  0  0  0  0
    3.8401   -0.0207   -0.6382 O   0  0  0  0  0  0  0  0  0  0  0  0
    3.7162    2.3245   -0.3638 O   0  0  0  0  0  0  0  0  0  0  0  0
    2.5332    2.5479   -1.2276 P   0  0  1  0  0  0  0  0  0  0  0  0
    3.0080    3.0394   -2.5425 O   0  0  0  0  0  0  0  0  0  0  0  0
    1.8000    1.2757   -1.4234 O   0  0  0  0  0  0  0  0  0  0  0  0
    1.6406    3.5500   -0.5929 O   0  0  0  0  0  0  0  0  0  0  0  0
    1.3505    3.5524    0.8606 P   0  0  1  0  0  0  0  0  0  0  0  0
    0.5250    2.4210    1.3299 O   0  0  0  0  0  0  0  0  0  0  0  0
    2.5008    3.8858    1.7299 O   0  0  0  0  0  0  0  0  0  0  0  0
    0.3406    4.8067    1.0208 O   0  0  0  0  0  0  0  0  0  0  0  0
    0.6980    6.1215    0.6384 C   0  0  0  0  0  0  0  0  0  0  0  0
    0.1937    6.4854   -0.7650 C   0  0  1  0  0  0  0  0  0  0  0  0
   -1.2074    6.3196   -0.8408 O   0  0  0  0  0  0  0  0  0  0  0  0
    0.3425    7.9775   -1.1101 C   0  0  1  0  0  0  0  0  0  0  0  0
    1.6510    8.3941   -1.4628 O   0  0  0  0  0  0  0  0  0  0  0  0
   -0.6670    8.1807   -2.2396 C   0  0  1  0  0  0  0  0  0  0  0  0
   -0.0861    7.9870   -3.5171 O   0  0  0  0  0  0  0  0  0  0  0  0
   -1.6535    7.0454   -1.9725 C   0  0  2  0  0  0  0  0  0  0  0  0
   -3.0666    7.4546   -1.8258 N   0  0  0  0  0  0  0  0  0  0  0  0
   -3.6707    8.6676   -2.0404 C   0  0  0  0  0  0  0  0  0  0  0  0
   -4.9368    8.6977   -1.7132 N   0  0  0  0  0  0  0  0  0  0  0  0
   -5.2039    7.4053   -1.2715 C   0  0  0  0  0  0  0  0  0  0  0  0
   -6.4023    6.8266   -0.7433 C   0  0  0  0  0  0  0  0  0  0  0  0
   -7.4754    7.3858   -0.5270 O   0  0  0  0  0  0  0  0  0  0  0  0
   -6.2608    5.4648   -0.4439 N   0  0  0  0  0  0  0  0  0  0  0  0
   -5.0979    4.7435   -0.6683 C   0  0  0  0  0  0  0  0  0  0  0  0
   -5.1215    3.4255   -0.4405 N   0  0  0  0  0  0  0  0  0  0  0  0
   -3.9622    5.3015   -1.1185 N   0  0  0  0  0  0  0  0  0  0  0  0
   -4.0757    6.6295   -1.3944 C   0  0  0  0  0  0  0  0  0  0  0  0
  1  2  2  0  0  0  0
  1  4  1  0  0  0  0
  1  3  1  0  0  0  0
  5  1  1  0  0  0  0
  6  7  2  6  0  0  0
  6  9  1  0  0  0  0
  6  5  1  0  0  0  0
  6  8  1  0  0  0  0
 10 11  2  1  0  0  0
 10 12  1  0  0  0  0
 10 13  1  0  0  0  0
 10  9  1  0  0  0  0
 13 14  1  0  0  0  0
 15 14  1  1  0  0  0
 15 16  1  0  0  0  0
 17 19  1  0  0  0  0
 17 15  1  0  0  0  0
 17 18  1  6  0  0  0
 19 21  1  0  0  0  0
 19 20  1  6  0  0  0
 21 16  1  0  0  0  0
 21 22  1  1  0  0  0
 22 32  1  0  0  0  0
 23 22  1  0  0  0  0
 23 24  2  0  0  0  0
 24 25  1  0  0  0  0
 25 26  1  0  0  0  0
 26 27  2  0  0  0  0
 26 28  1  0  0  0  0
 29 28  1  0  0  0  0
 29 30  1  0  0  0  0
 31 29  2  0  0  0  0
 32 25  2  0  0  0  0
 32 31  1  0  0  0  0
M  END
>  <CHROM.1>
157.16794346,-41.63465338,-63.60848319,-58.44104973,-69.25237532,96.80511981
56.46275962,-175.06967602,-58.37871476,132.72958926,-0.10852041,4.70093194
-0.85094430,0.53680506,-0.13113756,2.83845496

>  <Name>
lig.pdb

>  <RI>
1.2169e+07

>  <Rbt.Current_Directory>
/home/itssahil/PROJECTS/Mol_Feturizer/New_Systems/rnas/5lwj

>  <Rbt.Executable>
rbdock ($Id: //depot/dev/client3/rdock/2013.1/src/exe/rbdock.cxx#4 $)

>  <Rbt.Library>
libRbt.so (2013.1, Build901 2013/11/27)

>  <Rbt.Parameter_File>
/export/apps/rDock/src/rDock_2013.1_src/data/scripts/dock_solv.prm

>  <Rbt.Receptor>
prm/blind_docking_40.prm

>  <SCORE>
-35.8141

>  <SCORE.INTER>
-32.3865

>  <SCORE.INTER.CONST>
1

>  <SCORE.INTER.POLAR>
-2.34016

>  <SCORE.INTER.ROT>
8

>  <SCORE.INTER.SOLV>
28.8526

>  <SCORE.INTER.VDW>
-32.3413

>  <SCORE.INTER.norm>
-1.01208

>  <SCORE.INTRA>
-3.69999

>  <SCORE.INTRA.DIHEDRAL>
-1.96235

>  <SCORE.INTRA.DIHEDRAL.0>
10.9248

>  <SCORE.INTRA.POLAR>
0

>  <SCORE.INTRA.POLAR.0>
0

>  <SCORE.INTRA.REPUL>
0.0819795

>  <SCORE.INTRA.REPUL.0>
0

>  <SCORE.INTRA.SOLV>
-0.627189

>  <SCORE.INTRA.SOLV.lig_0>
-51.4104

>  <SCORE.INTRA.VDW>
-2.81512

>  <SCORE.INTRA.VDW.0>
0.110327

>  <SCORE.INTRA.norm>
-0.115625

>  <SCORE.RESTR>
0.272439

>  <SCORE.RESTR.CAVITY>
0.272439

>  <SCORE.RESTR.norm>
0.00851371

>  <SCORE.SYSTEM>
0

>  <SCORE.SYSTEM.CONST>
0

>  <SCORE.SYSTEM.DIHEDRAL>
0

>  <SCORE.SYSTEM.SOLV>
0

>  <SCORE.SYSTEM.norm>
0

>  <SCORE.heavy>
32

>  <SCORE.norm>
-1.11919

>  <RMSD>
13.413

$$$$
lig.pdb
 OpenBabel11021811523D
libRbt.so/2013.1/901 2013/11/27
 32 34  0  0  0  0  0  0  0  0999 V2000
    1.8547    0.8675    0.4221 P   0  0  0  0  0  0  0  0  0  0  0  0
    1.5586    1.0527   -1.0462 O   0  0  0  0  0  0  0  0  0  0  0  0
    1.8069   -0.7437    0.6078 O   0  0  0  0  0  0  0  0  0  0  0  0
    3.2268    1.2331    0.9307 O   0  0  0  0  0  0  0  0  0  0  0  0
    0.9222    1.7222    1.1311 O   0  0  0  0  0  0  0  0  0  0  0  0
    1.3100    3.1399    0.9433 P   0  0  1  0  0  0  0  0  0  0  0  0
    2.5327    3.3936    1.7412 O   0  0  0  0  0  0  0  0  0  0  0  0
    1.6024    3.4014   -0.4852 O   0  0  0  0  0  0  0  0  0  0  0  0
    0.2040    4.0189    1.3991 O   0  0  0  0  0  0  0  0  0  0  0  0
    0.2081    5.4848    1.1798 P   0  0  1  0  0  0  0  0  0  0  0  0
   -1.0260    6.1782    1.6016 O   0  0  0  0  0  0  0  0  0  0  0  0
    1.4654    6.1716    1.5510 O   0  0  0  0  0  0  0  0  0  0  0  0
    0.1379    5.6047   -0.4324 O   0  0  0  0  0  0  0  0  0  0  0  0
   -0.3036    6.7793   -1.0867 C   0  0  0  0  0  0  0  0  0  0  0  0
   -1.7460    6.6626   -1.5989 C   0  0  1  0  0  0  0  0  0  0  0  0
   -2.6046    6.2482   -0.5562 O   0  0  0  0  0  0  0  0  0  0  0  0
   -2.3750    8.0104   -1.9934 C   0  0  1  0  0  0  0  0  0  0  0  0
   -1.9633    8.5321   -3.2458 O   0  0  0  0  0  0  0  0  0  0  0  0
   -3.8763    7.7294   -1.9350 C   0  0  1  0  0  0  0  0  0  0  0  0
   -4.3891    7.3011   -3.1843 O   0  0  0  0  0  0  0  0  0  0  0  0
   -3.9277    6.5575   -0.9565 C   0  0  2  0  0  0  0  0  0  0  0  0
   -4.8127    6.7460    0.2127 N   0  0  0  0  0  0  0  0  0  0  0  0
   -4.6207    6.4371    1.5356 C   0  0  0  0  0  0  0  0  0  0  0  0
   -5.6661    6.6550    2.2909 N   0  0  0  0  0  0  0  0  0  0  0  0
   -6.6168    7.1695    1.4144 C   0  0  0  0  0  0  0  0  0  0  0  0
   -7.9759    7.5624    1.6343 C   0  0  0  0  0  0  0  0  0  0  0  0
   -8.6208    7.4872    2.6781 O   0  0  0  0  0  0  0  0  0  0  0  0
   -8.5882    8.0676    0.4794 N   0  0  0  0  0  0  0  0  0  0  0  0
   -7.9393    8.2075   -0.7382 C   0  0  0  0  0  0  0  0  0  0  0  0
   -8.5999    8.8018   -1.7382 N   0  0  0  0  0  0  0  0  0  0  0  0
   -6.6799    7.7929   -0.9518 N   0  0  0  0  0  0  0  0  0  0  0  0
   -6.0766    7.2794    0.1550 C   0  0  0  0  0  0  0  0  0  0  0  0
  1  2  2  0  0  0  0
  1  4  1  0  0  0  0
  1  3  1  0  0  0  0
  5  1  1  0  0  0  0
  6  7  2  1  0  0  0
  6  9  1  0  0  0  0
  6  5  1  0  0  0  0
  6  8  1  0  0  0  0
 10 11  2  1  0  0  0
 10 12  1  0  0  0  0
 10 13  1  0  0  0  0
 10  9  1  0  0  0  0
 13 14  1  0  0  0  0
 15 14  1  1  0  0  0
 15 16  1  0  0  0  0
 17 19  1  0  0  0  0
 17 15  1  0  0  0  0
 17 18  1  6  0  0  0
 19 21  1  0  0  0  0
 19 20  1  6  0  0  0
 21 16  1  0  0  0  0
 21 22  1  1  0  0  0
 22 32  1  0  0  0  0
 23 22  1  0  0  0  0
 23 24  2  0  0  0  0
 24 25  1  0  0  0  0
 25 26  1  0  0  0  0
 26 27  2  0  0  0  0
 26 28  1  0  0  0  0
 29 28  1  0  0  0  0
 29 30  1  0  0  0  0
 31 29  2  0  0  0  0
 32 25  2  0  0  0  0
 32 31  1  0  0  0  0
M  END
>  <CHROM.1>
-71.87066588,-171.79496199,-72.42904013,159.26068454,175.15224832,-101.97413872
52.38150906,-175.89255558,60.95659646,-13.39306262,-2.03419634,5.34378195
0.12598788,0.44252875,-0.39195805,2.32652203

>  <Name>
lig.pdb

>  <RI>
1.17715e+07

>  <Rbt.Current_Directory>
/home/itssahil/PROJECTS/Mol_Feturizer/New_Systems/rnas/5lwj

>  <Rbt.Executable>
rbdock ($Id: //depot/dev/client3/rdock/2013.1/src/exe/rbdock.cxx#4 $)

>  <Rbt.Library>
libRbt.so (2013.1, Build901 2013/11/27)

>  <Rbt.Parameter_File>
/export/apps/rDock/src/rDock_2013.1_src/data/scripts/dock_solv.prm

>  <Rbt.Receptor>
prm/blind_docking_60.prm

>  <SCORE>
-35.5905

>  <SCORE.INTER>
-37.2741

>  <SCORE.INTER.CONST>
1

>  <SCORE.INTER.POLAR>
-2.52649

>  <SCORE.INTER.ROT>
8

>  <SCORE.INTER.SOLV>
21.7059

>  <SCORE.INTER.VDW>
-32.5964

>  <SCORE.INTER.norm>
-1.16482

>  <SCORE.INTRA>
-0.0461825

>  <SCORE.INTRA.DIHEDRAL>
-0.894773

>  <SCORE.INTRA.DIHEDRAL.0>
10.9248

>  <SCORE.INTRA.POLAR>
0

>  <SCORE.INTRA.POLAR.0>
0

>  <SCORE.INTRA.REPUL>
0

>  <SCORE.INTRA.REPUL.0>
0

>  <SCORE.INTRA.SOLV>
0.511093

>  <SCORE.INTRA.SOLV.lig_0>
-51.4104

>  <SCORE.INTRA.VDW>
0.145658

>  <SCORE.INTRA.VDW.0>
0.110327

>  <SCORE.INTRA.norm>
-0.0014432

>  <SCORE.RESTR>
1.72981

>  <SCORE.RESTR.CAVITY>
1.72981

>  <SCORE.RESTR.norm>
0.0540567

>  <SCORE.SYSTEM>
0

>  <SCORE.SYSTEM.CONST>
0

>  <SCORE.SYSTEM.DIHEDRAL>
0

>  <SCORE.SYSTEM.SOLV>
0

>  <SCORE.SYSTEM.norm>
0

>  <SCORE.heavy>
32

>  <SCORE.norm>
-1.1122

>  <RMSD>
13.446

$$$$
lig.pdb
 OpenBabel11021811523D
libRbt.so/2013.1/901 2013/11/27
 32 34  0  0  0  0  0  0  0  0999 V2000
    1.2189    2.8717    0.9815 P   0  0  0  0  0  0  0  0  0  0  0  0
    1.7469    2.9154   -0.4317 O   0  0  0  0  0  0  0  0  0  0  0  0
   -0.3164    2.3842    0.7869 O   0  0  0  0  0  0  0  0  0  0  0  0
    1.7887    1.8472    1.9307 O   0  0  0  0  0  0  0  0  0  0  0  0
    1.5163    4.1668    1.5620 O   0  0  0  0  0  0  0  0  0  0  0  0
    0.5900    5.1817    1.0075 P   0  0  1  0  0  0  0  0  0  0  0  0
    1.0177    6.5135    1.4967 O   0  0  0  0  0  0  0  0  0  0  0  0
    0.6497    5.1688   -0.4727 O   0  0  0  0  0  0  0  0  0  0  0  0
   -0.7934    4.8857    1.4573 O   0  0  0  0  0  0  0  0  0  0  0  0
   -1.9265    5.8093    1.2122 P   0  0  1  0  0  0  0  0  0  0  0  0
   -2.2654    6.6900    2.3485 O   0  0  0  0  0  0  0  0  0  0  0  0
   -1.9198    6.4743   -0.1098 O   0  0  0  0  0  0  0  0  0  0  0  0
   -3.1974    4.8088    1.1597 O   0  0  0  0  0  0  0  0  0  0  0  0
   -3.7090    4.2964   -0.0562 C   0  0  0  0  0  0  0  0  0  0  0  0
   -4.9022    5.1063   -0.5821 C   0  0  1  0  0  0  0  0  0  0  0  0
   -4.5317    6.4561   -0.7753 O   0  0  0  0  0  0  0  0  0  0  0  0
   -5.3462    4.7069   -2.0003 C   0  0  1  0  0  0  0  0  0  0  0  0
   -6.1067    3.5135   -2.0875 O   0  0  0  0  0  0  0  0  0  0  0  0
   -6.1151    5.9346   -2.4880 C   0  0  1  0  0  0  0  0  0  0  0  0
   -7.4992    5.8486   -2.1983 O   0  0  0  0  0  0  0  0  0  0  0  0
   -5.5020    7.0379   -1.6276 C   0  0  2  0  0  0  0  0  0  0  0  0
   -4.9435    8.1864   -2.3725 N   0  0  0  0  0  0  0  0  0  0  0  0
   -5.5624    9.2859   -2.9115 C   0  0  0  0  0  0  0  0  0  0  0  0
   -4.7648   10.0639   -3.5966 N   0  0  0  0  0  0  0  0  0  0  0  0
   -3.5189    9.4539   -3.4869 C   0  0  0  0  0  0  0  0  0  0  0  0
   -2.2521    9.8059   -4.0537 C   0  0  0  0  0  0  0  0  0  0  0  0
   -2.0023   10.7370   -4.8166 O   0  0  0  0  0  0  0  0  0  0  0  0
   -1.2237    8.9365   -3.6658 N   0  0  0  0  0  0  0  0  0  0  0  0
   -1.4029    7.8705   -2.7971 C   0  0  0  0  0  0  0  0  0  0  0  0
   -0.3221    7.1783   -2.4197 N   0  0  0  0  0  0  0  0  0  0  0  0
   -2.6017    7.5156   -2.3065 N   0  0  0  0  0  0  0  0  0  0  0  0
   -3.6164    8.3374   -2.6908 C   0  0  0  0  0  0  0  0  0  0  0  0
  1  2  2  0  0  0  0
  1  4  1  0  0  0  0
  1  3  1  0  0  0  0
  5  1  1  0  0  0  0
  6  7  2  1  0  0  0
  6  9  1  0  0  0  0
  6  5  1  0  0  0  0
  6  8  1  0  0  0  0
 10 11  2  1  0  0  0
 10 12  1  0  0  0  0
 10 13  1  0  0  0  0
 10  9  1  0  0  0  0
 13 14  1  0  0  0  0
 15 14  1  6  0  0  0
 15 16  1  0  0  0  0
 17 19  1  0  0  0  0
 17 15  1  0  0  0  0
 17 18  1  1  0  0  0
 19 21  1  0  0  0  0
 19 20  1  1  0  0  0
 21 16  1  0  0  0  0
 21 22  1  6  0  0  0
 22 32  1  0  0  0  0
 23 22  1  0  0  0  0
 23 24  2  0  0  0  0
 24 25  1  0  0  0  0
 25 26  1  0  0  0  0
 26 27  2  0  0  0  0
 26 28  1  0  0  0  0
 29 28  1  0  0  0  0
 29 30  1  0  0  0  0
 31 29  2  0  0  0  0
 32 25  2  0  0  0  0
 32 31  1  0  0  0  0
M  END
>  <CHROM.1>
74.36606948,172.22533697,-173.53796503,-95.20344048,-97.67806081,-96.59174289
58.16777959,-55.64529841,-60.31578789,-154.37218668,-2.12024183,5.98937169
-0.77009907,-0.83647808,-0.16761740,-0.60599778

>  <Name>
lig.pdb

>  <RI>
1.2169e+07

>  <Rbt.Current_Directory>
/home/itssahil/PROJECTS/Mol_Feturizer/New_Systems/rnas/5lwj

>  <Rbt.Executable>
rbdock ($Id: //depot/dev/client3/rdock/2013.1/src/exe/rbdock.cxx#4 $)

>  <Rbt.Library>
libRbt.so (2013.1, Build901 2013/11/27)

>  <Rbt.Parameter_File>
/export/apps/rDock/src/rDock_2013.1_src/data/scripts/dock_solv.prm

>  <Rbt.Receptor>
prm/blind_docking_40.prm

>  <SCORE>
-31.1537

>  <SCORE.INTER>
-32.5434

>  <SCORE.INTER.CONST>
1

>  <SCORE.INTER.POLAR>
-2.4787

>  <SCORE.INTER.ROT>
8

>  <SCORE.INTER.SOLV>
23.1747

>  <SCORE.INTER.VDW>
-30.0915

>  <SCORE.INTER.norm>
-1.01698

>  <SCORE.INTRA>
-3.6435

>  <SCORE.INTRA.DIHEDRAL>
0.102517

>  <SCORE.INTRA.DIHEDRAL.0>
10.9248

>  <SCORE.INTRA.POLAR>
-1.26435

>  <SCORE.INTRA.POLAR.0>
0

>  <SCORE.INTRA.REPUL>
0.843741

>  <SCORE.INTRA.REPUL.0>
0

>  <SCORE.INTRA.SOLV>
1.45443

>  <SCORE.INTRA.SOLV.lig_0>
-51.4104

>  <SCORE.INTRA.VDW>
-4.34188

>  <SCORE.INTRA.VDW.0>
0.110327

>  <SCORE.INTRA.norm>
-0.113859

>  <SCORE.RESTR>
5.03326

>  <SCORE.RESTR.CAVITY>
5.03326

>  <SCORE.RESTR.norm>
0.157289

>  <SCORE.SYSTEM>
0

>  <SCORE.SYSTEM.CONST>
0

>  <SCORE.SYSTEM.DIHEDRAL>
0

>  <SCORE.SYSTEM.SOLV>
0

>  <SCORE.SYSTEM.norm>
0

>  <SCORE.heavy>
32

>  <SCORE.norm>
-0.973552

>  <RMSD>
13.457

$$$$
lig.pdb
 OpenBabel11021811523D
libRbt.so/2013.1/901 2013/11/27
 32 34  0  0  0  0  0  0  0  0999 V2000
    3.0108    2.1700   -2.6291 P   0  0  0  0  0  0  0  0  0  0  0  0
    3.6244    3.0830   -3.6625 O   0  0  0  0  0  0  0  0  0  0  0  0
    1.4249    2.4917   -2.7478 O   0  0  0  0  0  0  0  0  0  0  0  0
    3.0787    0.6802   -2.8546 O   0  0  0  0  0  0  0  0  0  0  0  0
    3.7268    2.4227   -1.3937 O   0  0  0  0  0  0  0  0  0  0  0  0
    2.8522    2.1031   -0.2410 P   0  0  1  0  0  0  0  0  0  0  0  0
    2.3859    0.7043   -0.3892 O   0  0  0  0  0  0  0  0  0  0  0  0
    3.6135    2.2271    1.0237 O   0  0  0  0  0  0  0  0  0  0  0  0
    1.6962    3.0343   -0.2252 O   0  0  0  0  0  0  0  0  0  0  0  0
    1.2693    3.7550    0.9976 P   0  0  1  0  0  0  0  0  0  0  0  0
    0.5376    2.9295    1.9800 O   0  0  0  0  0  0  0  0  0  0  0  0
    2.2848    4.6605    1.5795 O   0  0  0  0  0  0  0  0  0  0  0  0
    0.1115    4.7412    0.4447 O   0  0  0  0  0  0  0  0  0  0  0  0
    0.3581    6.0992    0.1320 C   0  0  0  0  0  0  0  0  0  0  0  0
   -0.3549    6.5479   -1.1513 C   0  0  1  0  0  0  0  0  0  0  0  0
   -1.7470    6.3331   -1.0395 O   0  0  0  0  0  0  0  0  0  0  0  0
   -0.2999    8.0665   -1.3929 C   0  0  1  0  0  0  0  0  0  0  0  0
    0.9312    8.5598   -1.8941 O   0  0  0  0  0  0  0  0  0  0  0  0
   -1.4681    8.3145   -2.3468 C   0  0  1  0  0  0  0  0  0  0  0  0
   -1.0739    8.2408   -3.7055 O   0  0  0  0  0  0  0  0  0  0  0  0
   -2.3730    7.1242   -2.0339 C   0  0  2  0  0  0  0  0  0  0  0  0
   -3.7607    7.4651   -1.6545 N   0  0  0  0  0  0  0  0  0  0  0  0
   -4.5297    7.0333   -0.6035 C   0  0  0  0  0  0  0  0  0  0  0  0
   -5.7620    7.4710   -0.6297 N   0  0  0  0  0  0  0  0  0  0  0  0
   -5.8134    8.2726   -1.7662 C   0  0  0  0  0  0  0  0  0  0  0  0
   -6.9015    8.9954   -2.3523 C   0  0  0  0  0  0  0  0  0  0  0  0
   -8.0718    9.0271   -1.9774 O   0  0  0  0  0  0  0  0  0  0  0  0
   -6.5222    9.7163   -3.4927 N   0  0  0  0  0  0  0  0  0  0  0  0
   -5.2254    9.7569   -3.9823 C   0  0  0  0  0  0  0  0  0  0  0  0
   -4.9684   10.5665   -5.0158 N   0  0  0  0  0  0  0  0  0  0  0  0
   -4.2188    9.0391   -3.4576 N   0  0  0  0  0  0  0  0  0  0  0  0
   -4.5748    8.3156   -2.3611 C   0  0  0  0  0  0  0  0  0  0  0  0
  1  2  2  0  0  0  0
  1  4  1  0  0  0  0
  1  3  1  0  0  0  0
  5  1  1  0  0  0  0
  6  7  2  6  0  0  0
  6  9  1  0  0  0  0
  6  5  1  0  0  0  0
  6  8  1  0  0  0  0
 10 11  2  1  0  0  0
 10 12  1  0  0  0  0
 10 13  1  0  0  0  0
 10  9  1  0  0  0  0
 13 14  1  0  0  0  0
 15 14  1  1  0  0  0
 15 16  1  0  0  0  0
 17 19  1  0  0  0  0
 17 15  1  0  0  0  0
 17 18  1  6  0  0  0
 19 21  1  0  0  0  0
 19 20  1  6  0  0  0
 21 16  1  0  0  0  0
 21 22  1  1  0  0  0
 22 32  1  0  0  0  0
 23 22  1  0  0  0  0
 23 24  2  0  0  0  0
 24 25  1  0  0  0  0
 25 26  1  0  0  0  0
 26 27  2  0  0  0  0
 26 28  1  0  0  0  0
 29 28  1  0  0  0  0
 29 30  1  0  0  0  0
 31 29  2  0  0  0  0
 32 25  2  0  0  0  0
 32 31  1  0  0  0  0
M  END
>  <CHROM.1>
153.49741992,-131.61784930,55.37382017,-98.08898418,-76.11676163,139.20412099
57.25489157,-60.14127901,-65.45617905,-7.35109780,-0.63759372,5.50366072
-1.42010289,-0.43210086,0.58711032,-1.16087033

>  <Name>
lig.pdb

>  <RI>
1.2169e+07

>  <Rbt.Current_Directory>
/home/itssahil/PROJECTS/Mol_Feturizer/New_Systems/rnas/5lwj

>  <Rbt.Executable>
rbdock ($Id: //depot/dev/client3/rdock/2013.1/src/exe/rbdock.cxx#4 $)

>  <Rbt.Library>
libRbt.so (2013.1, Build901 2013/11/27)

>  <Rbt.Parameter_File>
/export/apps/rDock/src/rDock_2013.1_src/data/scripts/dock_solv.prm

>  <Rbt.Receptor>
prm/blind_docking_40.prm

>  <SCORE>
-33.8183

>  <SCORE.INTER>
-32.8749

>  <SCORE.INTER.CONST>
1

>  <SCORE.INTER.POLAR>
-1.68964

>  <SCORE.INTER.ROT>
8

>  <SCORE.INTER.SOLV>
24.951

>  <SCORE.INTER.VDW>
-33.5348

>  <SCORE.INTER.norm>
-1.02734

>  <SCORE.INTRA>
-1.26759

>  <SCORE.INTRA.DIHEDRAL>
2.40423

>  <SCORE.INTRA.DIHEDRAL.0>
10.9248

>  <SCORE.INTRA.POLAR>
0

>  <SCORE.INTRA.POLAR.0>
0

>  <SCORE.INTRA.REPUL>
0

>  <SCORE.INTRA.REPUL.0>
0

>  <SCORE.INTRA.SOLV>
-0.701124

>  <SCORE.INTRA.SOLV.lig_0>
-51.4104

>  <SCORE.INTRA.VDW>
-2.11914

>  <SCORE.INTRA.VDW.0>
0.110327

>  <SCORE.INTRA.norm>
-0.0396122

>  <SCORE.RESTR>
0.324221

>  <SCORE.RESTR.CAVITY>
0.324221

>  <SCORE.RESTR.norm>
0.0101319

>  <SCORE.SYSTEM>
0

>  <SCORE.SYSTEM.CONST>
0

>  <SCORE.SYSTEM.DIHEDRAL>
0

>  <SCORE.SYSTEM.SOLV>
0

>  <SCORE.SYSTEM.norm>
0

>  <SCORE.heavy>
32

>  <SCORE.norm>
-1.05682

>  <RMSD>
13.514

$$$$
lig.pdb
 OpenBabel11021811523D
libRbt.so/2013.1/901 2013/11/27
 32 34  0  0  0  0  0  0  0  0999 V2000
    4.1872    1.7332   -1.4527 P   0  0  0  0  0  0  0  0  0  0  0  0
    3.4438    0.4218   -1.5285 O   0  0  0  0  0  0  0  0  0  0  0  0
    5.1377    1.5438   -0.1514 O   0  0  0  0  0  0  0  0  0  0  0  0
    5.1664    2.0692   -2.5496 O   0  0  0  0  0  0  0  0  0  0  0  0
    3.1753    2.7713   -1.4853 O   0  0  0  0  0  0  0  0  0  0  0  0
    2.3545    2.7007   -0.2536 P   0  0  1  0  0  0  0  0  0  0  0  0
    1.5996    1.4257   -0.2744 O   0  0  0  0  0  0  0  0  0  0  0  0
    3.2295    2.7246    0.9416 O   0  0  0  0  0  0  0  0  0  0  0  0
    1.4204    3.8538   -0.2159 O   0  0  0  0  0  0  0  0  0  0  0  0
    0.8677    4.3914    1.0499 P   0  0  1  0  0  0  0  0  0  0  0  0
    0.5462    3.3713    2.0686 O   0  0  0  0  0  0  0  0  0  0  0  0
    1.5496    5.5972    1.5707 O   0  0  0  0  0  0  0  0  0  0  0  0
   -0.5992    4.9112    0.6066 O   0  0  0  0  0  0  0  0  0  0  0  0
   -1.4631    5.5926    1.4966 C   0  0  0  0  0  0  0  0  0  0  0  0
   -2.8350    5.8900    0.8754 C   0  0  1  0  0  0  0  0  0  0  0  0
   -2.8125    7.1366    0.2108 O   0  0  0  0  0  0  0  0  0  0  0  0
   -3.2148    4.9395   -0.2735 C   0  0  1  0  0  0  0  0  0  0  0  0
   -3.6628    3.6537    0.1218 O   0  0  0  0  0  0  0  0  0  0  0  0
   -4.2764    5.7241   -1.0440 C   0  0  1  0  0  0  0  0  0  0  0  0
   -5.5870    5.4429   -0.5853 O   0  0  0  0  0  0  0  0  0  0  0  0
   -3.9235    7.1619   -0.6675 C   0  0  2  0  0  0  0  0  0  0  0  0
   -3.6881    8.0758   -1.8057 N   0  0  0  0  0  0  0  0  0  0  0  0
   -4.5751    8.7149   -2.6346 C   0  0  0  0  0  0  0  0  0  0  0  0
   -4.0100    9.3783   -3.6099 N   0  0  0  0  0  0  0  0  0  0  0  0
   -2.6467    9.1894   -3.4036 C   0  0  0  0  0  0  0  0  0  0  0  0
   -1.5159    9.6322   -4.1620 C   0  0  0  0  0  0  0  0  0  0  0  0
   -1.5185   10.2647   -5.2161 O   0  0  0  0  0  0  0  0  0  0  0  0
   -0.2952    9.2521   -3.5880 N   0  0  0  0  0  0  0  0  0  0  0  0
   -0.1894    8.5539   -2.3946 C   0  0  0  0  0  0  0  0  0  0  0  0
    1.0338    8.3430   -1.8956 N   0  0  0  0  0  0  0  0  0  0  0  0
   -1.2531    8.0991   -1.7123 N   0  0  0  0  0  0  0  0  0  0  0  0
   -2.4478    8.4411   -2.2676 C   0  0  0  0  0  0  0  0  0  0  0  0
  1  2  2  0  0  0  0
  1  4  1  0  0  0  0
  1  3  1  0  0  0  0
  5  1  1  0  0  0  0
  6  7  2  6  0  0  0
  6  9  1  0  0  0  0
  6  5  1  0  0  0  0
  6  8  1  0  0  0  0
 10 11  2  1  0  0  0
 10 12  1  0  0  0  0
 10 13  1  0  0  0  0
 10  9  1  0  0  0  0
 13 14  1  0  0  0  0
 15 14  1  6  0  0  0
 15 16  1  0  0  0  0
 17 19  1  0  0  0  0
 17 15  1  0  0  0  0
 17 18  1  1  0  0  0
 19 21  1  0  0  0  0
 19 20  1  1  0  0  0
 21 16  1  0  0  0  0
 21 22  1  6  0  0  0
 22 32  1  0  0  0  0
 23 22  1  0  0  0  0
 23 24  2  0  0  0  0
 24 25  1  0  0  0  0
 25 26  1  0  0  0  0
 26 27  2  0  0  0  0
 26 28  1  0  0  0  0
 29 28  1  0  0  0  0
 29 30  1  0  0  0  0
 31 29  2  0  0  0  0
 32 25  2  0  0  0  0
 32 31  1  0  0  0  0
M  END
>  <CHROM.1>
66.23623210,-154.95810356,-66.01614019,-175.65285593,-37.39827773,-175.70916650
-89.06926276,-172.66561350,176.34296133,-157.44453222,-0.11921126,5.25277568
-0.93358813,-0.69540808,0.37971566,-0.69883986

>  <Name>
lig.pdb

>  <RI>
1.17715e+07

>  <Rbt.Current_Directory>
/home/itssahil/PROJECTS/Mol_Feturizer/New_Systems/rnas/5lwj

>  <Rbt.Executable>
rbdock ($Id: //depot/dev/client3/rdock/2013.1/src/exe/rbdock.cxx#4 $)

>  <Rbt.Library>
libRbt.so (2013.1, Build901 2013/11/27)

>  <Rbt.Parameter_File>
/export/apps/rDock/src/rDock_2013.1_src/data/scripts/dock_solv.prm

>  <Rbt.Receptor>
prm/blind_docking_60.prm

>  <SCORE>
-32.5647

>  <SCORE.INTER>
-30.343

>  <SCORE.INTER.CONST>
1

>  <SCORE.INTER.POLAR>
-1.46489

>  <SCORE.INTER.ROT>
8

>  <SCORE.INTER.SOLV>
24.4578

>  <SCORE.INTER.VDW>
-32.4316

>  <SCORE.INTER.norm>
-0.948219

>  <SCORE.INTRA>
-2.54175

>  <SCORE.INTRA.DIHEDRAL>
-2.82369

>  <SCORE.INTRA.DIHEDRAL.0>
10.9248

>  <SCORE.INTRA.POLAR>
0

>  <SCORE.INTRA.POLAR.0>
0

>  <SCORE.INTRA.REPUL>
0.100119

>  <SCORE.INTRA.REPUL.0>
0

>  <SCORE.INTRA.SOLV>
-0.214947

>  <SCORE.INTRA.SOLV.lig_0>
-51.4104

>  <SCORE.INTRA.VDW>
-1.52303

>  <SCORE.INTRA.VDW.0>
0.110327

>  <SCORE.INTRA.norm>
-0.0794296

>  <SCORE.RESTR>
0.320068

>  <SCORE.RESTR.CAVITY>
0.320068

>  <SCORE.RESTR.norm>
0.0100021

>  <SCORE.SYSTEM>
0

>  <SCORE.SYSTEM.CONST>
0

>  <SCORE.SYSTEM.DIHEDRAL>
0

>  <SCORE.SYSTEM.SOLV>
0

>  <SCORE.SYSTEM.norm>
0

>  <SCORE.heavy>
32

>  <SCORE.norm>
-1.01765

>  <RMSD>
13.542

$$$$
lig.pdb
 OpenBabel11021811523D
libRbt.so/2013.1/901 2013/11/27
 32 34  0  0  0  0  0  0  0  0999 V2000
    3.9931    2.0017   -2.6211 P   0  0  0  0  0  0  0  0  0  0  0  0
    3.5831    0.6432   -3.1353 O   0  0  0  0  0  0  0  0  0  0  0  0
    5.2927    1.6733   -1.7069 O   0  0  0  0  0  0  0  0  0  0  0  0
    4.5128    3.0173   -3.6078 O   0  0  0  0  0  0  0  0  0  0  0  0
    2.8029    2.5850   -2.0331 O   0  0  0  0  0  0  0  0  0  0  0  0
    2.4157    1.8116   -0.8300 P   0  0  1  0  0  0  0  0  0  0  0  0
    2.0768    0.4335   -1.2565 O   0  0  0  0  0  0  0  0  0  0  0  0
    3.5473    1.7573    0.1246 O   0  0  0  0  0  0  0  0  0  0  0  0
    1.2442    2.4557   -0.1848 O   0  0  0  0  0  0  0  0  0  0  0  0
    1.3757    3.3777    0.9684 P   0  0  1  0  0  0  0  0  0  0  0  0
    0.3916    3.1632    2.0488 O   0  0  0  0  0  0  0  0  0  0  0  0
    2.7623    3.6146    1.4279 O   0  0  0  0  0  0  0  0  0  0  0  0
    0.9034    4.7955    0.3474 O   0  0  0  0  0  0  0  0  0  0  0  0
    0.8472    5.9801    1.1195 C   0  0  0  0  0  0  0  0  0  0  0  0
   -0.5649    6.5791    1.1790 C   0  0  1  0  0  0  0  0  0  0  0  0
   -0.7685    7.4635    0.0961 O   0  0  0  0  0  0  0  0  0  0  0  0
   -1.6853    5.5504    0.9462 C   0  0  1  0  0  0  0  0  0  0  0  0
   -1.9841    4.7139    2.0513 O   0  0  0  0  0  0  0  0  0  0  0  0
   -2.8730    6.4128    0.5198 C   0  0  1  0  0  0  0  0  0  0  0  0
   -3.6731    6.8035    1.6217 O   0  0  0  0  0  0  0  0  0  0  0  0
   -2.1667    7.6483   -0.0354 C   0  0  2  0  0  0  0  0  0  0  0  0
   -2.5320    8.0193   -1.4192 N   0  0  0  0  0  0  0  0  0  0  0  0
   -3.6683    7.7580   -2.1422 C   0  0  0  0  0  0  0  0  0  0  0  0
   -3.6122    8.1581   -3.3862 N   0  0  0  0  0  0  0  0  0  0  0  0
   -2.3581    8.7513   -3.4957 C   0  0  0  0  0  0  0  0  0  0  0  0
   -1.6966    9.3391   -4.6213 C   0  0  0  0  0  0  0  0  0  0  0  0
   -2.1026    9.4095   -5.7795 O   0  0  0  0  0  0  0  0  0  0  0  0
   -0.4370    9.8615   -4.2983 N   0  0  0  0  0  0  0  0  0  0  0  0
    0.0988    9.8453   -3.0194 C   0  0  0  0  0  0  0  0  0  0  0  0
    1.2641   10.4707   -2.8177 N   0  0  0  0  0  0  0  0  0  0  0  0
   -0.5041    9.2501   -1.9773 N   0  0  0  0  0  0  0  0  0  0  0  0
   -1.7203    8.7181   -2.2783 C   0  0  0  0  0  0  0  0  0  0  0  0
  1  2  2  0  0  0  0
  1  4  1  0  0  0  0
  1  3  1  0  0  0  0
  5  1  1  0  0  0  0
  6  7  2  6  0  0  0
  6  9  1  0  0  0  0
  6  5  1  0  0  0  0
  6  8  1  0  0  0  0
 10 11  2  1  0  0  0
 10 12  1  0  0  0  0
 10 13  1  0  0  0  0
 10  9  1  0  0  0  0
 13 14  1  0  0  0  0
 15 14  1  6  0  0  0
 15 16  1  0  0  0  0
 17 19  1  0  0  0  0
 17 15  1  0  0  0  0
 17 18  1  1  0  0  0
 19 21  1  0  0  0  0
 19 20  1  1  0  0  0
 21 16  1  0  0  0  0
 21 22  1  6  0  0  0
 22 32  1  0  0  0  0
 23 22  1  0  0  0  0
 23 24  2  0  0  0  0
 24 25  1  0  0  0  0
 25 26  1  0  0  0  0
 26 27  2  0  0  0  0
 26 28  1  0  0  0  0
 29 28  1  0  0  0  0
 29 30  1  0  0  0  0
 31 29  2  0  0  0  0
 32 25  2  0  0  0  0
 32 31  1  0  0  0  0
M  END
>  <CHROM.1>
66.80721181,-97.58203409,-62.97525686,178.86045345,-136.49205100,-119.98195457
-88.56011345,59.72981721,-65.62527484,148.77532167,0.49150717,5.22684191
-1.11041553,-0.64347060,0.73655457,-0.90805271

>  <Name>
lig.pdb

>  <RI>
2.72908e+07

>  <Rbt.Current_Directory>
/home/itssahil/PROJECTS/Mol_Feturizer/New_Systems/rnas/5lwj

>  <Rbt.Executable>
rbdock ($Id: //depot/dev/client3/rdock/2013.1/src/exe/rbdock.cxx#4 $)

>  <Rbt.Library>
libRbt.so (2013.1, Build901 2013/11/27)

>  <Rbt.Parameter_File>
/export/apps/rDock/src/rDock_2013.1_src/data/scripts/dock_solv.prm

>  <Rbt.Receptor>
prm/blind_docking_20.prm

>  <SCORE>
-26.6349

>  <SCORE.INTER>
-31.0539

>  <SCORE.INTER.CONST>
1

>  <SCORE.INTER.POLAR>
-2.288

>  <SCORE.INTER.ROT>
8

>  <SCORE.INTER.SOLV>
26.4993

>  <SCORE.INTER.VDW>
-30.8423

>  <SCORE.INTER.norm>
-0.970433

>  <SCORE.INTRA>
4.31732

>  <SCORE.INTRA.DIHEDRAL>
5.45386

>  <SCORE.INTRA.DIHEDRAL.0>
10.9248

>  <SCORE.INTRA.POLAR>
0

>  <SCORE.INTRA.POLAR.0>
0

>  <SCORE.INTRA.REPUL>
0.273808

>  <SCORE.INTRA.REPUL.0>
0

>  <SCORE.INTRA.SOLV>
0.634559

>  <SCORE.INTRA.SOLV.lig_0>
-51.4104

>  <SCORE.INTRA.VDW>
-0.0959318

>  <SCORE.INTRA.VDW.0>
0.110327

>  <SCORE.INTRA.norm>
0.134916

>  <SCORE.RESTR>
0.101609

>  <SCORE.RESTR.CAVITY>
0.101609

>  <SCORE.RESTR.norm>
0.00317528

>  <SCORE.SYSTEM>
0

>  <SCORE.SYSTEM.CONST>
0

>  <SCORE.SYSTEM.DIHEDRAL>
0

>  <SCORE.SYSTEM.SOLV>
0

>  <SCORE.SYSTEM.norm>
0

>  <SCORE.heavy>
32

>  <SCORE.norm>
-0.832341

>  <RMSD>
13.573

$$$$
lig.pdb
 OpenBabel11021811523D
libRbt.so/2013.1/901 2013/11/27
 32 34  0  0  0  0  0  0  0  0999 V2000
   -3.1934    8.7651   -4.2763 P   0  0  0  0  0  0  0  0  0  0  0  0
   -4.5117    9.4429   -3.9923 O   0  0  0  0  0  0  0  0  0  0  0  0
   -3.6058    7.2026   -4.4218 O   0  0  0  0  0  0  0  0  0  0  0  0
   -2.4987    9.0619   -5.5819 O   0  0  0  0  0  0  0  0  0  0  0  0
   -2.2860    9.1968   -3.2309 O   0  0  0  0  0  0  0  0  0  0  0  0
   -1.2883    8.1324   -2.9715 P   0  0  1  0  0  0  0  0  0  0  0  0
   -0.5687    7.8557   -4.2370 O   0  0  0  0  0  0  0  0  0  0  0  0
   -0.3146    8.5868   -1.9515 O   0  0  0  0  0  0  0  0  0  0  0  0
   -1.9828    6.9103   -2.4941 O   0  0  0  0  0  0  0  0  0  0  0  0
   -2.9289    6.9249   -1.3532 P   0  0  1  0  0  0  0  0  0  0  0  0
   -3.4949    8.2513   -1.0341 O   0  0  0  0  0  0  0  0  0  0  0  0
   -3.9032    5.8111   -1.3311 O   0  0  0  0  0  0  0  0  0  0  0  0
   -1.9627    6.6474   -0.0850 O   0  0  0  0  0  0  0  0  0  0  0  0
   -2.0850    5.4919    0.7228 C   0  0  0  0  0  0  0  0  0  0  0  0
   -0.7278    4.9678    1.2121 C   0  0  1  0  0  0  0  0  0  0  0  0
   -0.6876    3.5579    1.1287 O   0  0  0  0  0  0  0  0  0  0  0  0
    0.4520    5.3598    0.3054 C   0  0  1  0  0  0  0  0  0  0  0  0
    0.9086    6.6951    0.4423 O   0  0  0  0  0  0  0  0  0  0  0  0
    1.5248    4.3295    0.6573 C   0  0  1  0  0  0  0  0  0  0  0  0
    2.3765    4.7781    1.6968 O   0  0  0  0  0  0  0  0  0  0  0  0
    0.6750    3.1747    1.1840 C   0  0  2  0  0  0  0  0  0  0  0  0
    0.8943    1.8718    0.5203 N   0  0  0  0  0  0  0  0  0  0  0  0
    0.5273    0.6052    0.8988 C   0  0  0  0  0  0  0  0  0  0  0  0
    0.9765   -0.3375    0.1111 N   0  0  0  0  0  0  0  0  0  0  0  0
    1.6728    0.3502   -0.8784 C   0  0  0  0  0  0  0  0  0  0  0  0
    2.4225   -0.1299   -1.9997 C   0  0  0  0  0  0  0  0  0  0  0  0
    2.6460   -1.2982   -2.3102 O   0  0  0  0  0  0  0  0  0  0  0  0
    2.9487    0.9056   -2.7838 N   0  0  0  0  0  0  0  0  0  0  0  0
    2.7372    2.2515   -2.5252 C   0  0  0  0  0  0  0  0  0  0  0  0
    3.2032    3.1423   -3.4078 N   0  0  0  0  0  0  0  0  0  0  0  0
    2.0743    2.6972   -1.4455 N   0  0  0  0  0  0  0  0  0  0  0  0
    1.5742    1.7040   -0.6607 C   0  0  0  0  0  0  0  0  0  0  0  0
  1  2  2  0  0  0  0
  1  4  1  0  0  0  0
  1  3  1  0  0  0  0
  5  1  1  0  0  0  0
  6  7  2  6  0  0  0
  6  9  1  0  0  0  0
  6  5  1  0  0  0  0
  6  8  1  0  0  0  0
 10 11  2  1  0  0  0
 10 12  1  0  0  0  0
 10 13  1  0  0  0  0
 10  9  1  0  0  0  0
 13 14  1  0  0  0  0
 15 14  1  6  0  0  0
 15 16  1  0  0  0  0
 17 19  1  0  0  0  0
 17 15  1  0  0  0  0
 17 18  1  1  0  0  0
 19 21  1  0  0  0  0
 19 20  1  1  0  0  0
 21 16  1  0  0  0  0
 21 22  1  6  0  0  0
 22 32  1  0  0  0  0
 23 22  1  0  0  0  0
 23 24  2  0  0  0  0
 24 25  1  0  0  0  0
 25 26  1  0  0  0  0
 26 27  2  0  0  0  0
 26 28  1  0  0  0  0
 29 28  1  0  0  0  0
 29 30  1  0  0  0  0
 31 29  2  0  0  0  0
 32 25  2  0  0  0  0
 32 31  1  0  0  0  0
M  END
>  <CHROM.1>
150.10713041,-52.76701801,58.25042504,-116.56784379,20.56061091,143.96002823
-138.18247658,-53.52029318,-59.53077146,-70.78216236,-0.55728537,5.24859599
-1.57875923,-2.66505509,-0.93412472,1.79911530

>  <Name>
lig.pdb

>  <RI>
1.2169e+07

>  <Rbt.Current_Directory>
/home/itssahil/PROJECTS/Mol_Feturizer/New_Systems/rnas/5lwj

>  <Rbt.Executable>
rbdock ($Id: //depot/dev/client3/rdock/2013.1/src/exe/rbdock.cxx#4 $)

>  <Rbt.Library>
libRbt.so (2013.1, Build901 2013/11/27)

>  <Rbt.Parameter_File>
/export/apps/rDock/src/rDock_2013.1_src/data/scripts/dock_solv.prm

>  <Rbt.Receptor>
prm/blind_docking_40.prm

>  <SCORE>
-20.5701

>  <SCORE.INTER>
-21.4612

>  <SCORE.INTER.CONST>
1

>  <SCORE.INTER.POLAR>
-2.90621

>  <SCORE.INTER.ROT>
8

>  <SCORE.INTER.SOLV>
25.4527

>  <SCORE.INTER.VDW>
-22.0377

>  <SCORE.INTER.norm>
-0.670661

>  <SCORE.INTRA>
0.0915786

>  <SCORE.INTRA.DIHEDRAL>
5.44544

>  <SCORE.INTRA.DIHEDRAL.0>
10.9248

>  <SCORE.INTRA.POLAR>
-0.356253

>  <SCORE.INTRA.POLAR.0>
0

>  <SCORE.INTRA.REPUL>
0

>  <SCORE.INTRA.REPUL.0>
0

>  <SCORE.INTRA.SOLV>
2.83081

>  <SCORE.INTRA.SOLV.lig_0>
-51.4104

>  <SCORE.INTRA.VDW>
-2.83529

>  <SCORE.INTRA.VDW.0>
0.110327

>  <SCORE.INTRA.norm>
0.00286183

>  <SCORE.RESTR>
0.799448

>  <SCORE.RESTR.CAVITY>
0.799448

>  <SCORE.RESTR.norm>
0.0249827

>  <SCORE.SYSTEM>
0

>  <SCORE.SYSTEM.CONST>
0

>  <SCORE.SYSTEM.DIHEDRAL>
0

>  <SCORE.SYSTEM.SOLV>
0

>  <SCORE.SYSTEM.norm>
0

>  <SCORE.heavy>
32

>  <SCORE.norm>
-0.642816

>  <RMSD>
13.600

$$$$
lig.pdb
 OpenBabel11021811523D
libRbt.so/2013.1/901 2013/11/27
 32 34  0  0  0  0  0  0  0  0999 V2000
    4.1345    1.4030    0.4932 P   0  0  0  0  0  0  0  0  0  0  0  0
    5.5974    1.7742    0.5038 O   0  0  0  0  0  0  0  0  0  0  0  0
    4.0060    0.4469   -0.8114 O   0  0  0  0  0  0  0  0  0  0  0  0
    3.6041    0.5377    1.6090 O   0  0  0  0  0  0  0  0  0  0  0  0
    3.4022    2.6522    0.5703 O   0  0  0  0  0  0  0  0  0  0  0  0
    2.2480    2.6068   -0.3578 P   0  0  1  0  0  0  0  0  0  0  0  0
    2.7672    2.4018   -1.7305 O   0  0  0  0  0  0  0  0  0  0  0  0
    1.3567    1.4774   -0.0048 O   0  0  0  0  0  0  0  0  0  0  0  0
    1.4971    3.8847   -0.2747 O   0  0  0  0  0  0  0  0  0  0  0  0
    0.9109    4.3844    0.9916 P   0  0  1  0  0  0  0  0  0  0  0  0
    0.5626    3.3343    1.9703 O   0  0  0  0  0  0  0  0  0  0  0  0
    1.5784    5.5736    1.5662 O   0  0  0  0  0  0  0  0  0  0  0  0
   -0.5439    4.9180    0.5252 O   0  0  0  0  0  0  0  0  0  0  0  0
   -1.3386    5.7608    1.3382 C   0  0  0  0  0  0  0  0  0  0  0  0
   -2.7381    5.9963    0.7529 C   0  0  1  0  0  0  0  0  0  0  0  0
   -2.8145    7.2793    0.1659 O   0  0  0  0  0  0  0  0  0  0  0  0
   -3.0685    5.0923   -0.4476 C   0  0  1  0  0  0  0  0  0  0  0  0
   -3.4181    3.7563   -0.1268 O   0  0  0  0  0  0  0  0  0  0  0  0
   -4.1953    5.8443   -1.1556 C   0  0  1  0  0  0  0  0  0  0  0  0
   -5.4751    5.4429   -0.6995 O   0  0  0  0  0  0  0  0  0  0  0  0
   -3.9387    7.2782   -0.6958 C   0  0  2  0  0  0  0  0  0  0  0  0
   -3.7869    8.2737   -1.7784 N   0  0  0  0  0  0  0  0  0  0  0  0
   -4.6857    9.1711   -2.2972 C   0  0  0  0  0  0  0  0  0  0  0  0
   -4.2367    9.8396   -3.3279 N   0  0  0  0  0  0  0  0  0  0  0  0
   -2.9362    9.3732   -3.4945 C   0  0  0  0  0  0  0  0  0  0  0  0
   -1.9472    9.6925   -4.4794 C   0  0  0  0  0  0  0  0  0  0  0  0
   -2.0617   10.4475   -5.4427 O   0  0  0  0  0  0  0  0  0  0  0  0
   -0.7364    9.0183   -4.2707 N   0  0  0  0  0  0  0  0  0  0  0  0
   -0.5055    8.1616   -3.2050 C   0  0  0  0  0  0  0  0  0  0  0  0
    0.7263    7.6615   -3.0556 N   0  0  0  0  0  0  0  0  0  0  0  0
   -1.4513    7.8281   -2.3117 N   0  0  0  0  0  0  0  0  0  0  0  0
   -2.6411    8.4579   -2.5121 C   0  0  0  0  0  0  0  0  0  0  0  0
  1  2  2  0  0  0  0
  1  4  1  0  0  0  0
  1  3  1  0  0  0  0
  5  1  1  0  0  0  0
  6  7  2  6  0  0  0
  6  9  1  0  0  0  0
  6  5  1  0  0  0  0
  6  8  1  0  0  0  0
 10 11  2  1  0  0  0
 10 12  1  0  0  0  0
 10 13  1  0  0  0  0
 10  9  1  0  0  0  0
 13 14  1  0  0  0  0
 15 14  1  6  0  0  0
 15 16  1  0  0  0  0
 17 19  1  0  0  0  0
 17 15  1  0  0  0  0
 17 18  1  1  0  0  0
 19 21  1  0  0  0  0
 19 20  1  1  0  0  0
 21 16  1  0  0  0  0
 21 22  1  6  0  0  0
 22 32  1  0  0  0  0
 23 22  1  0  0  0  0
 23 24  2  0  0  0  0
 24 25  1  0  0  0  0
 25 26  1  0  0  0  0
 26 27  2  0  0  0  0
 26 28  1  0  0  0  0
 29 28  1  0  0  0  0
 29 30  1  0  0  0  0
 31 29  2  0  0  0  0
 32 25  2  0  0  0  0
 32 31  1  0  0  0  0
M  END
>  <CHROM.1>
138.12481590,-58.41771258,-59.89308384,-164.99004850,-27.03983124,-173.25357567
-103.29206389,65.85818774,-66.88964795,-136.46293759,-0.21436940,5.19404101
-0.79713666,-0.79467469,0.33521038,-0.74820576

>  <Name>
lig.pdb

>  <RI>
1.17715e+07

>  <Rbt.Current_Directory>
/home/itssahil/PROJECTS/Mol_Feturizer/New_Systems/rnas/5lwj

>  <Rbt.Executable>
rbdock ($Id: //depot/dev/client3/rdock/2013.1/src/exe/rbdock.cxx#4 $)

>  <Rbt.Library>
libRbt.so (2013.1, Build901 2013/11/27)

>  <Rbt.Parameter_File>
/export/apps/rDock/src/rDock_2013.1_src/data/scripts/dock_solv.prm

>  <Rbt.Receptor>
prm/blind_docking_60.prm

>  <SCORE>
-33.1184

>  <SCORE.INTER>
-31.474

>  <SCORE.INTER.CONST>
1

>  <SCORE.INTER.POLAR>
-2.27837

>  <SCORE.INTER.ROT>
8

>  <SCORE.INTER.SOLV>
27.5239

>  <SCORE.INTER.VDW>
-31.4961

>  <SCORE.INTER.norm>
-0.983564

>  <SCORE.INTRA>
-2.26426

>  <SCORE.INTRA.DIHEDRAL>
0.557582

>  <SCORE.INTRA.DIHEDRAL.0>
10.9248

>  <SCORE.INTRA.POLAR>
0

>  <SCORE.INTRA.POLAR.0>
0

>  <SCORE.INTRA.REPUL>
0.0323306

>  <SCORE.INTRA.REPUL.0>
0

>  <SCORE.INTRA.SOLV>
-0.257068

>  <SCORE.INTRA.SOLV.lig_0>
-51.4104

>  <SCORE.INTRA.VDW>
-2.57617

>  <SCORE.INTRA.VDW.0>
0.110327

>  <SCORE.INTRA.norm>
-0.0707581

>  <SCORE.RESTR>
0.61992

>  <SCORE.RESTR.CAVITY>
0.61992

>  <SCORE.RESTR.norm>
0.0193725

>  <SCORE.SYSTEM>
0

>  <SCORE.SYSTEM.CONST>
0

>  <SCORE.SYSTEM.DIHEDRAL>
0

>  <SCORE.SYSTEM.SOLV>
0

>  <SCORE.SYSTEM.norm>
0

>  <SCORE.heavy>
32

>  <SCORE.norm>
-1.03495

>  <RMSD>
13.616

$$$$
lig.pdb
 OpenBabel11021811523D
libRbt.so/2013.1/901 2013/11/27
 32 34  0  0  0  0  0  0  0  0999 V2000
    4.7573    1.3891   -1.0873 P   0  0  0  0  0  0  0  0  0  0  0  0
    6.0234    1.2725   -0.2740 O   0  0  0  0  0  0  0  0  0  0  0  0
    5.2777    2.0107   -2.4928 O   0  0  0  0  0  0  0  0  0  0  0  0
    4.0544    0.1229   -1.5090 O   0  0  0  0  0  0  0  0  0  0  0  0
    3.8139    2.1164   -0.2605 O   0  0  0  0  0  0  0  0  0  0  0  0
    2.6054    2.4382   -1.0552 P   0  0  1  0  0  0  0  0  0  0  0  0
    3.0351    3.1540   -2.2795 O   0  0  0  0  0  0  0  0  0  0  0  0
    1.9071    1.1911   -1.4448 O   0  0  0  0  0  0  0  0  0  0  0  0
    1.6973    3.2921   -0.2491 O   0  0  0  0  0  0  0  0  0  0  0  0
    1.0424    2.8116    0.9907 P   0  0  1  0  0  0  0  0  0  0  0  0
    0.0526    1.7336    0.7913 O   0  0  0  0  0  0  0  0  0  0  0  0
    1.9483    2.6187    2.1450 O   0  0  0  0  0  0  0  0  0  0  0  0
    0.1084    4.0649    1.4097 O   0  0  0  0  0  0  0  0  0  0  0  0
    0.0882    5.2743    0.6750 C   0  0  0  0  0  0  0  0  0  0  0  0
   -1.2544    6.0100    0.7866 C   0  0  1  0  0  0  0  0  0  0  0  0
   -1.2102    7.2235    0.0643 O   0  0  0  0  0  0  0  0  0  0  0  0
   -2.4192    5.2842    0.0907 C   0  0  1  0  0  0  0  0  0  0  0  0
   -2.9568    4.1780    0.7962 O   0  0  0  0  0  0  0  0  0  0  0  0
   -3.4436    6.3960   -0.1342 C   0  0  1  0  0  0  0  0  0  0  0  0
   -4.3589    6.5054    0.9416 O   0  0  0  0  0  0  0  0  0  0  0  0
   -2.5495    7.6345   -0.1446 C   0  0  2  0  0  0  0  0  0  0  0  0
   -2.6677    8.4919   -1.3434 N   0  0  0  0  0  0  0  0  0  0  0  0
   -3.7721    9.0529   -1.9332 C   0  0  0  0  0  0  0  0  0  0  0  0
   -3.5176    9.6809   -3.0520 N   0  0  0  0  0  0  0  0  0  0  0  0
   -2.1408    9.5513   -3.2083 C   0  0  0  0  0  0  0  0  0  0  0  0
   -1.2735    9.9908   -4.2592 C   0  0  0  0  0  0  0  0  0  0  0  0
   -1.5852   10.5636   -5.3013 O   0  0  0  0  0  0  0  0  0  0  0  0
    0.0724    9.6858   -4.0152 N   0  0  0  0  0  0  0  0  0  0  0  0
    0.5235    9.0586   -2.8636 C   0  0  0  0  0  0  0  0  0  0  0  0
    1.8438    8.9183   -2.6998 N   0  0  0  0  0  0  0  0  0  0  0  0
   -0.2988    8.6052   -1.9032 N   0  0  0  0  0  0  0  0  0  0  0  0
   -1.6128    8.8742   -2.1347 C   0  0  0  0  0  0  0  0  0  0  0  0
  1  2  2  0  0  0  0
  1  4  1  0  0  0  0
  1  3  1  0  0  0  0
  5  1  1  0  0  0  0
  6  7  2  6  0  0  0
  6  9  1  0  0  0  0
  6  5  1  0  0  0  0
  6  8  1  0  0  0  0
 10 11  2  6  0  0  0
 10 12  1  0  0  0  0
 10 13  1  0  0  0  0
 10  9  1  0  0  0  0
 13 14  1  0  0  0  0
 15 14  1  6  0  0  0
 15 16  1  0  0  0  0
 17 19  1  0  0  0  0
 17 15  1  0  0  0  0
 17 18  1  1  0  0  0
 19 21  1  0  0  0  0
 19 20  1  1  0  0  0
 21 16  1  0  0  0  0
 21 22  1  6  0  0  0
 22 32  1  0  0  0  0
 23 22  1  0  0  0  0
 23 24  2  0  0  0  0
 24 25  1  0  0  0  0
 25 26  1  0  0  0  0
 26 27  2  0  0  0  0
 26 28  1  0  0  0  0
 29 28  1  0  0  0  0
 29 30  1  0  0  0  0
 31 29  2  0  0  0  0
 32 25  2  0  0  0  0
 32 31  1  0  0  0  0
M  END
>  <CHROM.1>
172.23800054,-64.86246232,-54.40512940,-2.06009632,-66.17843852,152.10291464
178.53892883,-175.36725723,166.06070237,176.95698836,0.48229353,5.10979528
-0.97689819,-0.79573292,0.50319994,-0.66501326

>  <Name>
lig.pdb

>  <RI>
4.14043e+07

>  <Rbt.Current_Directory>
/home/itssahil/PROJECTS/Mol_Feturizer/New_Systems/rnas/5lwj

>  <Rbt.Executable>
rbdock ($Id: //depot/dev/client3/rdock/2013.1/src/exe/rbdock.cxx#4 $)

>  <Rbt.Library>
libRbt.so (2013.1, Build901 2013/11/27)

>  <Rbt.Parameter_File>
/export/apps/rDock/src/rDock_2013.1_src/data/scripts/dock_solv.prm

>  <Rbt.Receptor>
prm/blind_docking_80.prm

>  <SCORE>
-36.2422

>  <SCORE.INTER>
-38.4503

>  <SCORE.INTER.CONST>
1

>  <SCORE.INTER.POLAR>
-2.74249

>  <SCORE.INTER.ROT>
8

>  <SCORE.INTER.SOLV>
27.1824

>  <SCORE.INTER.VDW>
-34.486

>  <SCORE.INTER.norm>
-1.20157

>  <SCORE.INTRA>
0.875402

>  <SCORE.INTRA.DIHEDRAL>
-1.40391

>  <SCORE.INTRA.DIHEDRAL.0>
10.9248

>  <SCORE.INTRA.POLAR>
0

>  <SCORE.INTRA.POLAR.0>
0

>  <SCORE.INTRA.REPUL>
0.468643

>  <SCORE.INTRA.REPUL.0>
0

>  <SCORE.INTRA.SOLV>
-0.322158

>  <SCORE.INTRA.SOLV.lig_0>
-51.4104

>  <SCORE.INTRA.VDW>
-0.604779

>  <SCORE.INTRA.VDW.0>
0.110327

>  <SCORE.INTRA.norm>
0.0273563

>  <SCORE.RESTR>
1.33271

>  <SCORE.RESTR.CAVITY>
1.33271

>  <SCORE.RESTR.norm>
0.0416472

>  <SCORE.SYSTEM>
0

>  <SCORE.SYSTEM.CONST>
0

>  <SCORE.SYSTEM.DIHEDRAL>
0

>  <SCORE.SYSTEM.SOLV>
0

>  <SCORE.SYSTEM.norm>
0

>  <SCORE.heavy>
32

>  <SCORE.norm>
-1.13257

>  <RMSD>
13.624

$$$$
lig.pdb
 OpenBabel11021811523D
libRbt.so/2013.1/901 2013/11/27
 32 34  0  0  0  0  0  0  0  0999 V2000
    4.6843    1.1801   -1.2883 P   0  0  0  0  0  0  0  0  0  0  0  0
    5.2874    1.9543   -2.4350 O   0  0  0  0  0  0  0  0  0  0  0  0
    4.0951   -0.1485   -2.0097 O   0  0  0  0  0  0  0  0  0  0  0  0
    5.6069    0.6204   -0.2344 O   0  0  0  0  0  0  0  0  0  0  0  0
    3.8013    2.1023   -0.6009 O   0  0  0  0  0  0  0  0  0  0  0  0
    2.5249    2.2126   -1.3454 P   0  0  1  0  0  0  0  0  0  0  0  0
    2.8254    2.7227   -2.7039 O   0  0  0  0  0  0  0  0  0  0  0  0
    1.8870    0.8804   -1.4598 O   0  0  0  0  0  0  0  0  0  0  0  0
    1.6164    3.1453   -0.6324 O   0  0  0  0  0  0  0  0  0  0  0  0
    1.3832    3.0700    0.8294 P   0  0  1  0  0  0  0  0  0  0  0  0
    0.8054    1.7947    1.3001 O   0  0  0  0  0  0  0  0  0  0  0  0
    2.4793    3.6035    1.6684 O   0  0  0  0  0  0  0  0  0  0  0  0
    0.1594    4.1056    1.0494 O   0  0  0  0  0  0  0  0  0  0  0  0
    0.2564    5.4765    0.7119 C   0  0  0  0  0  0  0  0  0  0  0  0
   -1.1101    6.1752    0.6830 C   0  0  1  0  0  0  0  0  0  0  0  0
   -1.0287    7.3815   -0.0482 O   0  0  0  0  0  0  0  0  0  0  0  0
   -2.1817    5.4091   -0.1124 C   0  0  1  0  0  0  0  0  0  0  0  0
   -2.7551    4.2960    0.5528 O   0  0  0  0  0  0  0  0  0  0  0  0
   -3.2091    6.4890   -0.4506 C   0  0  1  0  0  0  0  0  0  0  0  0
   -4.2272    6.5842    0.5299 O   0  0  0  0  0  0  0  0  0  0  0  0
   -2.3521    7.7521   -0.3914 C   0  0  2  0  0  0  0  0  0  0  0  0
   -2.3765    8.5925   -1.6076 N   0  0  0  0  0  0  0  0  0  0  0  0
   -3.4282    9.1769   -2.2669 C   0  0  0  0  0  0  0  0  0  0  0  0
   -3.0923    9.7780   -3.3789 N   0  0  0  0  0  0  0  0  0  0  0  0
   -1.7137    9.6042   -3.4556 C   0  0  0  0  0  0  0  0  0  0  0  0
   -0.7757    9.9996   -4.4625 C   0  0  0  0  0  0  0  0  0  0  0  0
   -1.0109   10.5642   -5.5289 O   0  0  0  0  0  0  0  0  0  0  0  0
    0.5442    9.6581   -4.1386 N   0  0  0  0  0  0  0  0  0  0  0  0
    0.9106    9.0368   -2.9542 C   0  0  0  0  0  0  0  0  0  0  0  0
    2.2147    8.8594   -2.7143 N   0  0  0  0  0  0  0  0  0  0  0  0
    0.0224    8.6247   -2.0349 N   0  0  0  0  0  0  0  0  0  0  0  0
   -1.2676    8.9295   -2.3439 C   0  0  0  0  0  0  0  0  0  0  0  0
  1  2  2  0  0  0  0
  1  4  1  0  0  0  0
  1  3  1  0  0  0  0
  5  1  1  0  0  0  0
  6  7  2  6  0  0  0
  6  9  1  0  0  0  0
  6  5  1  0  0  0  0
  6  8  1  0  0  0  0
 10 11  2  1  0  0  0
 10 12  1  0  0  0  0
 10 13  1  0  0  0  0
 10  9  1  0  0  0  0
 13 14  1  0  0  0  0
 15 14  1  6  0  0  0
 15 16  1  0  0  0  0
 17 19  1  0  0  0  0
 17 15  1  0  0  0  0
 17 18  1  1  0  0  0
 19 21  1  0  0  0  0
 19 20  1  1  0  0  0
 21 16  1  0  0  0  0
 21 22  1  6  0  0  0
 22 32  1  0  0  0  0
 23 22  1  0  0  0  0
 23 24  2  0  0  0  0
 24 25  1  0  0  0  0
 25 26  1  0  0  0  0
 26 27  2  0  0  0  0
 26 28  1  0  0  0  0
 29 28  1  0  0  0  0
 29 30  1  0  0  0  0
 31 29  2  0  0  0  0
 32 25  2  0  0  0  0
 32 31  1  0  0  0  0
M  END
>  <CHROM.1>
79.29641808,-46.94077641,-60.35279051,-59.87699012,-60.57368949,165.90098249
-161.48914520,67.75525141,-62.28230544,-178.94408755,0.67290957,5.11073682
-1.17332008,-0.83089077,0.54661398,-0.66012064

>  <Name>
lig.pdb

>  <RI>
2.72908e+07

>  <Rbt.Current_Directory>
/home/itssahil/PROJECTS/Mol_Feturizer/New_Systems/rnas/5lwj

>  <Rbt.Executable>
rbdock ($Id: //depot/dev/client3/rdock/2013.1/src/exe/rbdock.cxx#4 $)

>  <Rbt.Library>
libRbt.so (2013.1, Build901 2013/11/27)

>  <Rbt.Parameter_File>
/export/apps/rDock/src/rDock_2013.1_src/data/scripts/dock_solv.prm

>  <Rbt.Receptor>
prm/blind_docking_20.prm

>  <SCORE>
-33.1541

>  <SCORE.INTER>
-31.0374

>  <SCORE.INTER.CONST>
1

>  <SCORE.INTER.POLAR>
-1.8379

>  <SCORE.INTER.ROT>
8

>  <SCORE.INTER.SOLV>
26.2344

>  <SCORE.INTER.VDW>
-32.2434

>  <SCORE.INTER.norm>
-0.969919

>  <SCORE.INTRA>
-2.12774

>  <SCORE.INTRA.DIHEDRAL>
-4.53151

>  <SCORE.INTRA.DIHEDRAL.0>
10.9248

>  <SCORE.INTRA.POLAR>
0

>  <SCORE.INTRA.POLAR.0>
0

>  <SCORE.INTRA.REPUL>
0.436312

>  <SCORE.INTRA.REPUL.0>
0

>  <SCORE.INTRA.SOLV>
0.211909

>  <SCORE.INTRA.SOLV.lig_0>
-51.4104

>  <SCORE.INTRA.VDW>
-2.1495

>  <SCORE.INTRA.VDW.0>
0.110327

>  <SCORE.INTRA.norm>
-0.0664918

>  <SCORE.RESTR>
0.0110157

>  <SCORE.RESTR.CAVITY>
0.0110157

>  <SCORE.RESTR.norm>
0.00034424

>  <SCORE.SYSTEM>
0

>  <SCORE.SYSTEM.CONST>
0

>  <SCORE.SYSTEM.DIHEDRAL>
0

>  <SCORE.SYSTEM.SOLV>
0

>  <SCORE.SYSTEM.norm>
0

>  <SCORE.heavy>
32

>  <SCORE.norm>
-1.03607

>  <RMSD>
13.667

$$$$
lig.pdb
 OpenBabel11021811523D
libRbt.so/2013.1/901 2013/11/27
 32 34  0  0  0  0  0  0  0  0999 V2000
   -2.8479    8.7603   -4.7902 P   0  0  0  0  0  0  0  0  0  0  0  0
   -2.5152    7.3979   -5.3482 O   0  0  0  0  0  0  0  0  0  0  0  0
   -1.4734    9.5942   -5.0091 O   0  0  0  0  0  0  0  0  0  0  0  0
   -3.8779    9.5984   -5.5055 O   0  0  0  0  0  0  0  0  0  0  0  0
   -3.3708    8.5320   -3.4571 O   0  0  0  0  0  0  0  0  0  0  0  0
   -2.2506    8.4824   -2.4884 P   0  0  1  0  0  0  0  0  0  0  0  0
   -1.2933    7.4463   -2.9422 O   0  0  0  0  0  0  0  0  0  0  0  0
   -1.5597    9.7921   -2.4437 O   0  0  0  0  0  0  0  0  0  0  0  0
   -2.7769    8.1455   -1.1418 O   0  0  0  0  0  0  0  0  0  0  0  0
   -3.3428    6.8146   -0.8168 P   0  0  1  0  0  0  0  0  0  0  0  0
   -4.2673    6.7986    0.3351 O   0  0  0  0  0  0  0  0  0  0  0  0
   -3.7883    6.0200   -1.9831 O   0  0  0  0  0  0  0  0  0  0  0  0
   -2.0605    6.0123   -0.2417 O   0  0  0  0  0  0  0  0  0  0  0  0
   -2.0405    5.4442    1.0542 C   0  0  0  0  0  0  0  0  0  0  0  0
   -0.6550    4.9096    1.4427 C   0  0  1  0  0  0  0  0  0  0  0  0
   -0.6196    3.5027    1.3180 O   0  0  0  0  0  0  0  0  0  0  0  0
    0.4654    5.3290    0.4749 C   0  0  1  0  0  0  0  0  0  0  0  0
    0.9292    6.6609    0.6197 O   0  0  0  0  0  0  0  0  0  0  0  0
    1.5585    4.2916    0.7302 C   0  0  1  0  0  0  0  0  0  0  0  0
    2.4737    4.7132    1.7261 O   0  0  0  0  0  0  0  0  0  0  0  0
    0.7439    3.1209    1.2771 C   0  0  2  0  0  0  0  0  0  0  0  0
    0.9214    1.8373    0.5652 N   0  0  0  0  0  0  0  0  0  0  0  0
    0.5239    0.5682    0.9022 C   0  0  0  0  0  0  0  0  0  0  0  0
    0.9399   -0.3573    0.0768 N   0  0  0  0  0  0  0  0  0  0  0  0
    1.6452    0.3465   -0.8947 C   0  0  0  0  0  0  0  0  0  0  0  0
    2.3710   -0.1129   -2.0402 C   0  0  0  0  0  0  0  0  0  0  0  0
    2.5598   -1.2749   -2.3943 O   0  0  0  0  0  0  0  0  0  0  0  0
    2.9177    0.9355   -2.7924 N   0  0  0  0  0  0  0  0  0  0  0  0
    2.7452    2.2764   -2.4838 C   0  0  0  0  0  0  0  0  0  0  0  0
    3.2268    3.1855   -3.3390 N   0  0  0  0  0  0  0  0  0  0  0  0
    2.1048    2.7007   -1.3822 N   0  0  0  0  0  0  0  0  0  0  0  0
    1.5854    1.6938   -0.6280 C   0  0  0  0  0  0  0  0  0  0  0  0
  1  2  2  0  0  0  0
  1  4  1  0  0  0  0
  1  3  1  0  0  0  0
  5  1  1  0  0  0  0
  6  7  2  6  0  0  0
  6  9  1  0  0  0  0
  6  5  1  0  0  0  0
  6  8  1  0  0  0  0
 10 11  2  1  0  0  0
 10 12  1  0  0  0  0
 10 13  1  0  0  0  0
 10  9  1  0  0  0  0
 13 14  1  0  0  0  0
 15 14  1  6  0  0  0
 15 16  1  0  0  0  0
 17 19  1  0  0  0  0
 17 15  1  0  0  0  0
 17 18  1  1  0  0  0
 19 21  1  0  0  0  0
 19 20  1  1  0  0  0
 21 16  1  0  0  0  0
 21 22  1  6  0  0  0
 22 32  1  0  0  0  0
 23 22  1  0  0  0  0
 23 24  2  0  0  0  0
 24 25  1  0  0  0  0
 25 26  1  0  0  0  0
 26 27  2  0  0  0  0
 26 28  1  0  0  0  0
 29 28  1  0  0  0  0
 29 30  1  0  0  0  0
 31 29  2  0  0  0  0
 32 25  2  0  0  0  0
 32 31  1  0  0  0  0
M  END
>  <CHROM.1>
86.98476778,68.27693489,-55.42106198,122.10352718,-157.31769335,-171.97744087
-102.40067546,140.31619147,-178.07850041,-67.31525056,-0.66398252,5.26056134
-1.49112554,-2.59777359,-0.91078212,1.86889211

>  <Name>
lig.pdb

>  <RI>
2.72908e+07

>  <Rbt.Current_Directory>
/home/itssahil/PROJECTS/Mol_Feturizer/New_Systems/rnas/5lwj

>  <Rbt.Executable>
rbdock ($Id: //depot/dev/client3/rdock/2013.1/src/exe/rbdock.cxx#4 $)

>  <Rbt.Library>
libRbt.so (2013.1, Build901 2013/11/27)

>  <Rbt.Parameter_File>
/export/apps/rDock/src/rDock_2013.1_src/data/scripts/dock_solv.prm

>  <Rbt.Receptor>
prm/blind_docking_20.prm

>  <SCORE>
-12.6288

>  <SCORE.INTER>
-16.59

>  <SCORE.INTER.CONST>
1

>  <SCORE.INTER.POLAR>
-3.14418

>  <SCORE.INTER.ROT>
8

>  <SCORE.INTER.SOLV>
27.0711

>  <SCORE.INTER.VDW>
-18.5364

>  <SCORE.INTER.norm>
-0.518437

>  <SCORE.INTRA>
2.50617

>  <SCORE.INTRA.DIHEDRAL>
6.56064

>  <SCORE.INTRA.DIHEDRAL.0>
10.9248

>  <SCORE.INTRA.POLAR>
-0.00339285

>  <SCORE.INTRA.POLAR.0>
0

>  <SCORE.INTRA.REPUL>
0

>  <SCORE.INTRA.REPUL.0>
0

>  <SCORE.INTRA.SOLV>
0.342305

>  <SCORE.INTRA.SOLV.lig_0>
-51.4104

>  <SCORE.INTRA.VDW>
-0.933766

>  <SCORE.INTRA.VDW.0>
0.110327

>  <SCORE.INTRA.norm>
0.0783179

>  <SCORE.RESTR>
1.45506

>  <SCORE.RESTR.CAVITY>
1.45506

>  <SCORE.RESTR.norm>
0.0454708

>  <SCORE.SYSTEM>
0

>  <SCORE.SYSTEM.CONST>
0

>  <SCORE.SYSTEM.DIHEDRAL>
0

>  <SCORE.SYSTEM.SOLV>
0

>  <SCORE.SYSTEM.norm>
0

>  <SCORE.heavy>
32

>  <SCORE.norm>
-0.394649

>  <RMSD>
13.669

$$$$
lig.pdb
 OpenBabel11021811523D
libRbt.so/2013.1/901 2013/11/27
 32 34  0  0  0  0  0  0  0  0999 V2000
   -3.9384    8.5516   -4.8271 P   0  0  0  0  0  0  0  0  0  0  0  0
   -5.2671    9.0890   -4.3540 O   0  0  0  0  0  0  0  0  0  0  0  0
   -4.3419    7.6530   -6.1164 O   0  0  0  0  0  0  0  0  0  0  0  0
   -2.9277    9.5222   -5.3854 O   0  0  0  0  0  0  0  0  0  0  0  0
   -3.3145    7.9442   -3.6676 O   0  0  0  0  0  0  0  0  0  0  0  0
   -2.8162    9.0053   -2.7614 P   0  0  1  0  0  0  0  0  0  0  0  0
   -1.6123    9.6109   -3.3777 O   0  0  0  0  0  0  0  0  0  0  0  0
   -3.8497   10.0528   -2.5895 O   0  0  0  0  0  0  0  0  0  0  0  0
   -2.4788    8.4110   -1.4436 O   0  0  0  0  0  0  0  0  0  0  0  0
   -1.9339    7.0397   -1.3032 P   0  0  1  0  0  0  0  0  0  0  0  0
   -2.8408    5.9634   -1.7513 O   0  0  0  0  0  0  0  0  0  0  0  0
   -0.5234    6.8788   -1.7210 O   0  0  0  0  0  0  0  0  0  0  0  0
   -1.9116    6.8271    0.3009 O   0  0  0  0  0  0  0  0  0  0  0  0
   -2.0054    5.5472    0.8973 C   0  0  0  0  0  0  0  0  0  0  0  0
   -0.6411    5.0020    1.3418 C   0  0  1  0  0  0  0  0  0  0  0  0
   -0.6219    3.5924    1.2475 O   0  0  0  0  0  0  0  0  0  0  0  0
    0.5160    5.3854    0.4026 C   0  0  1  0  0  0  0  0  0  0  0  0
    0.9940    6.7137    0.5349 O   0  0  0  0  0  0  0  0  0  0  0  0
    1.5852    4.3388    0.7149 C   0  0  1  0  0  0  0  0  0  0  0  0
    2.4736    4.7687    1.7313 O   0  0  0  0  0  0  0  0  0  0  0  0
    0.7365    3.1912    1.2590 C   0  0  2  0  0  0  0  0  0  0  0  0
    0.9185    1.8905    0.5800 N   0  0  0  0  0  0  0  0  0  0  0  0
    0.5220    0.6295    0.9473 C   0  0  0  0  0  0  0  0  0  0  0  0
    0.9422   -0.3156    0.1467 N   0  0  0  0  0  0  0  0  0  0  0  0
    1.6495    0.3649   -0.8399 C   0  0  0  0  0  0  0  0  0  0  0  0
    2.3797   -0.1217   -1.9712 C   0  0  0  0  0  0  0  0  0  0  0  0
    2.5717   -1.2918   -2.2956 O   0  0  0  0  0  0  0  0  0  0  0  0
    2.9271    0.9086   -2.7476 N   0  0  0  0  0  0  0  0  0  0  0  0
    2.7514    2.2565   -2.4732 C   0  0  0  0  0  0  0  0  0  0  0  0
    3.2343    3.1448   -3.3493 N   0  0  0  0  0  0  0  0  0  0  0  0
    2.1067    2.7071   -1.3846 N   0  0  0  0  0  0  0  0  0  0  0  0
    1.5866    1.7184   -0.6072 C   0  0  0  0  0  0  0  0  0  0  0  0
  1  2  2  0  0  0  0
  1  4  1  0  0  0  0
  1  3  1  0  0  0  0
  5  1  1  0  0  0  0
  6  7  2  6  0  0  0
  6  9  1  0  0  0  0
  6  5  1  0  0  0  0
  6  8  1  0  0  0  0
 10 11  2  6  0  0  0
 10 12  1  0  0  0  0
 10 13  1  0  0  0  0
 10  9  1  0  0  0  0
 13 14  1  0  0  0  0
 15 14  1  6  0  0  0
 15 16  1  0  0  0  0
 17 19  1  0  0  0  0
 17 15  1  0  0  0  0
 17 18  1  1  0  0  0
 19 21  1  0  0  0  0
 19 20  1  1  0  0  0
 21 16  1  0  0  0  0
 21 22  1  6  0  0  0
 22 32  1  0  0  0  0
 23 22  1  0  0  0  0
 23 24  2  0  0  0  0
 24 25  1  0  0  0  0
 25 26  1  0  0  0  0
 26 27  2  0  0  0  0
 26 28  1  0  0  0  0
 29 28  1  0  0  0  0
 29 30  1  0  0  0  0
 31 29  2  0  0  0  0
 32 25  2  0  0  0  0
 32 31  1  0  0  0  0
M  END
>  <CHROM.1>
-74.42521199,33.87737398,-73.24890621,153.04065877,-63.36951233,100.35340026
-148.71171492,-56.75343470,-175.15093803,-69.23718758,-0.73978861,5.39227248
-1.61493094,-3.04994497,-0.98048220,1.28710740

>  <Name>
lig.pdb

>  <RI>
1.17715e+07

>  <Rbt.Current_Directory>
/home/itssahil/PROJECTS/Mol_Feturizer/New_Systems/rnas/5lwj

>  <Rbt.Executable>
rbdock ($Id: //depot/dev/client3/rdock/2013.1/src/exe/rbdock.cxx#4 $)

>  <Rbt.Library>
libRbt.so (2013.1, Build901 2013/11/27)

>  <Rbt.Parameter_File>
/export/apps/rDock/src/rDock_2013.1_src/data/scripts/dock_solv.prm

>  <Rbt.Receptor>
prm/blind_docking_60.prm

>  <SCORE>
-12.943

>  <SCORE.INTER>
-15.1826

>  <SCORE.INTER.CONST>
1

>  <SCORE.INTER.POLAR>
-2.38677

>  <SCORE.INTER.ROT>
8

>  <SCORE.INTER.SOLV>
24.6364

>  <SCORE.INTER.VDW>
-19.3113

>  <SCORE.INTER.norm>
-0.474457

>  <SCORE.INTRA>
1.70066

>  <SCORE.INTRA.DIHEDRAL>
2.67953

>  <SCORE.INTRA.DIHEDRAL.0>
10.9248

>  <SCORE.INTRA.POLAR>
-0.295964

>  <SCORE.INTRA.POLAR.0>
0

>  <SCORE.INTRA.REPUL>
0

>  <SCORE.INTRA.REPUL.0>
0

>  <SCORE.INTRA.SOLV>
1.69501

>  <SCORE.INTRA.SOLV.lig_0>
-51.4104

>  <SCORE.INTRA.VDW>
0.519669

>  <SCORE.INTRA.VDW.0>
0.110327

>  <SCORE.INTRA.norm>
0.0531456

>  <SCORE.RESTR>
0.53898

>  <SCORE.RESTR.CAVITY>
0.53898

>  <SCORE.RESTR.norm>
0.0168431

>  <SCORE.SYSTEM>
0

>  <SCORE.SYSTEM.CONST>
0

>  <SCORE.SYSTEM.DIHEDRAL>
0

>  <SCORE.SYSTEM.SOLV>
0

>  <SCORE.SYSTEM.norm>
0

>  <SCORE.heavy>
32

>  <SCORE.norm>
-0.404468

>  <RMSD>
13.674

$$$$
lig.pdb
 OpenBabel11021811523D
libRbt.so/2013.1/901 2013/11/27
 32 34  0  0  0  0  0  0  0  0999 V2000
    4.0891    2.1692   -2.5858 P   0  0  0  0  0  0  0  0  0  0  0  0
    3.5560    3.0962   -3.6509 O   0  0  0  0  0  0  0  0  0  0  0  0
    3.4378    0.7373   -2.9833 O   0  0  0  0  0  0  0  0  0  0  0  0
    5.5692    1.8799   -2.5595 O   0  0  0  0  0  0  0  0  0  0  0  0
    3.7794    2.7962   -1.3155 O   0  0  0  0  0  0  0  0  0  0  0  0
    2.4395    2.3565   -0.8607 P   0  0  1  0  0  0  0  0  0  0  0  0
    1.4997    2.4875   -1.9990 O   0  0  0  0  0  0  0  0  0  0  0  0
    2.4878    0.9384   -0.4349 O   0  0  0  0  0  0  0  0  0  0  0  0
    1.9992    3.2072    0.2734 O   0  0  0  0  0  0  0  0  0  0  0  0
    0.9504    2.7808    1.2299 P   0  0  1  0  0  0  0  0  0  0  0  0
   -0.1134    1.9372    0.6481 O   0  0  0  0  0  0  0  0  0  0  0  0
    1.4487    2.3317    2.5491 O   0  0  0  0  0  0  0  0  0  0  0  0
    0.1658    4.1621    1.5384 O   0  0  0  0  0  0  0  0  0  0  0  0
    0.0795    5.2122    0.5936 C   0  0  0  0  0  0  0  0  0  0  0  0
   -1.2228    6.0148    0.7209 C   0  0  1  0  0  0  0  0  0  0  0  0
   -1.1735    7.1629   -0.1012 O   0  0  0  0  0  0  0  0  0  0  0  0
   -2.4564    5.2890    0.1560 C   0  0  1  0  0  0  0  0  0  0  0  0
   -2.9943    4.2689    0.9807 O   0  0  0  0  0  0  0  0  0  0  0  0
   -3.4467    6.4245   -0.1012 C   0  0  1  0  0  0  0  0  0  0  0  0
   -4.2893    6.6617    1.0127 O   0  0  0  0  0  0  0  0  0  0  0  0
   -2.5053    7.6162   -0.2660 C   0  0  2  0  0  0  0  0  0  0  0  0
   -2.6618    8.3787   -1.5231 N   0  0  0  0  0  0  0  0  0  0  0  0
   -3.7777    8.9341   -2.0963 C   0  0  0  0  0  0  0  0  0  0  0  0
   -3.5657    9.4596   -3.2752 N   0  0  0  0  0  0  0  0  0  0  0  0
   -2.2056    9.2633   -3.4947 C   0  0  0  0  0  0  0  0  0  0  0  0
   -1.3849    9.5822   -4.6238 C   0  0  0  0  0  0  0  0  0  0  0  0
   -1.7355   10.0816   -5.6910 O   0  0  0  0  0  0  0  0  0  0  0  0
   -0.0389    9.2444   -4.4288 N   0  0  0  0  0  0  0  0  0  0  0  0
    0.4551    8.6942   -3.2556 C   0  0  0  0  0  0  0  0  0  0  0  0
    1.7768    8.5151   -3.1527 N   0  0  0  0  0  0  0  0  0  0  0  0
   -0.3263    8.3524   -2.2181 N   0  0  0  0  0  0  0  0  0  0  0  0
   -1.6411    8.6541   -2.3992 C   0  0  0  0  0  0  0  0  0  0  0  0
  1  2  2  0  0  0  0
  1  4  1  0  0  0  0
  1  3  1  0  0  0  0
  5  1  1  0  0  0  0
  6  7  2  6  0  0  0
  6  9  1  0  0  0  0
  6  5  1  0  0  0  0
  6  8  1  0  0  0  0
 10 11  2  6  0  0  0
 10 12  1  0  0  0  0
 10 13  1  0  0  0  0
 10  9  1  0  0  0  0
 13 14  1  0  0  0  0
 15 14  1  6  0  0  0
 15 16  1  0  0  0  0
 17 19  1  0  0  0  0
 17 15  1  0  0  0  0
 17 18  1  1  0  0  0
 19 21  1  0  0  0  0
 19 20  1  1  0  0  0
 21 16  1  0  0  0  0
 21 22  1  6  0  0  0
 22 32  1  0  0  0  0
 23 22  1  0  0  0  0
 23 24  2  0  0  0  0
 24 25  1  0  0  0  0
 25 26  1  0  0  0  0
 26 27  2  0  0  0  0
 26 28  1  0  0  0  0
 29 28  1  0  0  0  0
 29 30  1  0  0  0  0
 31 29  2  0  0  0  0
 32 25  2  0  0  0  0
 32 31  1  0  0  0  0
M  END
>  <CHROM.1>
89.16916218,-159.45872379,-47.66984707,29.15011030,-33.15974625,148.90482596
171.30008591,-173.39155741,59.08661001,176.57503054,0.28750187,5.12621021
-1.24787310,-0.72943843,0.62508611,-0.78949400

>  <Name>
lig.pdb

>  <RI>
3.17878e+07

>  <Rbt.Current_Directory>
/home/itssahil/PROJECTS/Mol_Feturizer/New_Systems/rnas/5lwj

>  <Rbt.Executable>
rbdock ($Id: //depot/dev/client3/rdock/2013.1/src/exe/rbdock.cxx#4 $)

>  <Rbt.Library>
libRbt.so (2013.1, Build901 2013/11/27)

>  <Rbt.Parameter_File>
/export/apps/rDock/src/rDock_2013.1_src/data/scripts/dock_solv.prm

>  <Rbt.Receptor>
prm/blind_docking_100.prm

>  <SCORE>
-27.4966

>  <SCORE.INTER>
-31.0653

>  <SCORE.INTER.CONST>
1

>  <SCORE.INTER.POLAR>
-1.24358

>  <SCORE.INTER.ROT>
8

>  <SCORE.INTER.SOLV>
29.3331

>  <SCORE.INTER.VDW>
-35.276

>  <SCORE.INTER.norm>
-0.97079

>  <SCORE.INTRA>
1.28008

>  <SCORE.INTRA.DIHEDRAL>
1.101

>  <SCORE.INTRA.DIHEDRAL.0>
10.9248

>  <SCORE.INTRA.POLAR>
0

>  <SCORE.INTRA.POLAR.0>
0

>  <SCORE.INTRA.REPUL>
0.470777

>  <SCORE.INTRA.REPUL.0>
0

>  <SCORE.INTRA.SOLV>
0.640412

>  <SCORE.INTRA.SOLV.lig_0>
-51.4104

>  <SCORE.INTRA.VDW>
-1.94451

>  <SCORE.INTRA.VDW.0>
0.110327

>  <SCORE.INTRA.norm>
0.0400026

>  <SCORE.RESTR>
2.28859

>  <SCORE.RESTR.CAVITY>
2.28859

>  <SCORE.RESTR.norm>
0.0715183

>  <SCORE.SYSTEM>
0

>  <SCORE.SYSTEM.CONST>
0

>  <SCORE.SYSTEM.DIHEDRAL>
0

>  <SCORE.SYSTEM.SOLV>
0

>  <SCORE.SYSTEM.norm>
0

>  <SCORE.heavy>
32

>  <SCORE.norm>
-0.859269

>  <RMSD>
13.680

$$$$
lig.pdb
 OpenBabel11021811523D
libRbt.so/2013.1/901 2013/11/27
 32 34  0  0  0  0  0  0  0  0999 V2000
    2.7067    2.4516   -1.1677 P   0  0  0  0  0  0  0  0  0  0  0  0
    3.8558    2.3131   -0.1990 O   0  0  0  0  0  0  0  0  0  0  0  0
    3.4473    2.7728   -2.5752 O   0  0  0  0  0  0  0  0  0  0  0  0
    1.8808    1.2294   -1.4831 O   0  0  0  0  0  0  0  0  0  0  0  0
    1.7949    3.4110   -0.5753 O   0  0  0  0  0  0  0  0  0  0  0  0
    1.5035    3.0178    0.8233 P   0  0  1  0  0  0  0  0  0  0  0  0
    1.2332    1.5610    0.8465 O   0  0  0  0  0  0  0  0  0  0  0  0
    2.6730    3.3059    1.6859 O   0  0  0  0  0  0  0  0  0  0  0  0
    0.3210    3.7707    1.3117 O   0  0  0  0  0  0  0  0  0  0  0  0
    0.1355    5.2186    1.0544 P   0  0  1  0  0  0  0  0  0  0  0  0
    0.9791    6.1078    1.8787 O   0  0  0  0  0  0  0  0  0  0  0  0
    0.0440    5.5959   -0.3736 O   0  0  0  0  0  0  0  0  0  0  0  0
   -1.3441    5.4995    1.6467 O   0  0  0  0  0  0  0  0  0  0  0  0
   -2.0827    6.6620    1.3214 C   0  0  0  0  0  0  0  0  0  0  0  0
   -3.4907    6.3400    0.8015 C   0  0  1  0  0  0  0  0  0  0  0  0
   -3.9769    7.4051    0.0107 O   0  0  0  0  0  0  0  0  0  0  0  0
   -3.5300    5.1738   -0.2016 C   0  0  1  0  0  0  0  0  0  0  0  0
   -3.4338    3.8781    0.3659 O   0  0  0  0  0  0  0  0  0  0  0  0
   -4.8447    5.3955   -0.9489 C   0  0  1  0  0  0  0  0  0  0  0  0
   -5.9259    4.7078   -0.3445 O   0  0  0  0  0  0  0  0  0  0  0  0
   -5.0518    6.8970   -0.7594 C   0  0  2  0  0  0  0  0  0  0  0  0
   -5.2356    7.6738   -2.0039 N   0  0  0  0  0  0  0  0  0  0  0  0
   -6.3626    8.2413   -2.5427 C   0  0  0  0  0  0  0  0  0  0  0  0
   -6.1775    8.7784   -3.7209 N   0  0  0  0  0  0  0  0  0  0  0  0
   -4.8245    8.5772   -3.9768 C   0  0  0  0  0  0  0  0  0  0  0  0
   -4.0308    8.9040   -5.1228 C   0  0  0  0  0  0  0  0  0  0  0  0
   -4.4054    9.4167   -6.1755 O   0  0  0  0  0  0  0  0  0  0  0  0
   -2.6821    8.5571   -4.9655 N   0  0  0  0  0  0  0  0  0  0  0  0
   -2.1618    7.9916   -3.8112 C   0  0  0  0  0  0  0  0  0  0  0  0
   -0.8389    7.8045   -3.7436 N   0  0  0  0  0  0  0  0  0  0  0  0
   -2.9186    7.6428   -2.7579 N   0  0  0  0  0  0  0  0  0  0  0  0
   -4.2359    7.9533   -2.9025 C   0  0  0  0  0  0  0  0  0  0  0  0
  1  2  2  0  0  0  0
  1  4  1  0  0  0  0
  1  3  1  0  0  0  0
  5  1  1  0  0  0  0
  6  7  2  1  0  0  0
  6  9  1  0  0  0  0
  6  5  1  0  0  0  0
  6  8  1  0  0  0  0
 10 11  2  1  0  0  0
 10 12  1  0  0  0  0
 10 13  1  0  0  0  0
 10  9  1  0  0  0  0
 13 14  1  0  0  0  0
 15 14  1  6  0  0  0
 15 16  1  0  0  0  0
 17 19  1  0  0  0  0
 17 15  1  0  0  0  0
 17 18  1  1  0  0  0
 19 21  1  0  0  0  0
 19 20  1  1  0  0  0
 21 16  1  0  0  0  0
 21 22  1  6  0  0  0
 22 32  1  0  0  0  0
 23 22  1  0  0  0  0
 23 24  2  0  0  0  0
 24 25  1  0  0  0  0
 25 26  1  0  0  0  0
 26 27  2  0  0  0  0
 26 28  1  0  0  0  0
 29 28  1  0  0  0  0
 29 30  1  0  0  0  0
 31 29  2  0  0  0  0
 32 25  2  0  0  0  0
 32 31  1  0  0  0  0
M  END
>  <CHROM.1>
-50.76266692,-43.42545023,-45.00993213,-163.44364134,-75.47502086,127.29872420
-156.51867112,-179.17941707,-22.81238094,-129.69757609,-1.32627462,5.42636322
-0.99176217,-0.60249544,0.44453735,-1.12516290

>  <Name>
lig.pdb

>  <RI>
1.2169e+07

>  <Rbt.Current_Directory>
/home/itssahil/PROJECTS/Mol_Feturizer/New_Systems/rnas/5lwj

>  <Rbt.Executable>
rbdock ($Id: //depot/dev/client3/rdock/2013.1/src/exe/rbdock.cxx#4 $)

>  <Rbt.Library>
libRbt.so (2013.1, Build901 2013/11/27)

>  <Rbt.Parameter_File>
/export/apps/rDock/src/rDock_2013.1_src/data/scripts/dock_solv.prm

>  <Rbt.Receptor>
prm/blind_docking_40.prm

>  <SCORE>
-36.4719

>  <SCORE.INTER>
-41.0319

>  <SCORE.INTER.CONST>
1

>  <SCORE.INTER.POLAR>
-2.98497

>  <SCORE.INTER.ROT>
8

>  <SCORE.INTER.SOLV>
25.5401

>  <SCORE.INTER.VDW>
-34.8514

>  <SCORE.INTER.norm>
-1.28225

>  <SCORE.INTRA>
4.04354

>  <SCORE.INTRA.DIHEDRAL>
6.77356

>  <SCORE.INTRA.DIHEDRAL.0>
10.9248

>  <SCORE.INTRA.POLAR>
0

>  <SCORE.INTRA.POLAR.0>
0

>  <SCORE.INTRA.REPUL>
0.0726426

>  <SCORE.INTRA.REPUL.0>
0

>  <SCORE.INTRA.SOLV>
1.03962

>  <SCORE.INTRA.SOLV.lig_0>
-51.4104

>  <SCORE.INTRA.VDW>
-0.226259

>  <SCORE.INTRA.VDW.0>
0.110327

>  <SCORE.INTRA.norm>
0.126361

>  <SCORE.RESTR>
0.516392

>  <SCORE.RESTR.CAVITY>
0.516392

>  <SCORE.RESTR.norm>
0.0161373

>  <SCORE.SYSTEM>
0

>  <SCORE.SYSTEM.CONST>
0

>  <SCORE.SYSTEM.DIHEDRAL>
0

>  <SCORE.SYSTEM.SOLV>
0

>  <SCORE.SYSTEM.norm>
0

>  <SCORE.heavy>
32

>  <SCORE.norm>
-1.13975

>  <RMSD>
13.693

$$$$
lig.pdb
 OpenBabel11021811523D
libRbt.so/2013.1/901 2013/11/27
 32 34  0  0  0  0  0  0  0  0999 V2000
    3.6099    1.7226   -2.2531 P   0  0  0  0  0  0  0  0  0  0  0  0
    4.4084    0.9100   -3.2430 O   0  0  0  0  0  0  0  0  0  0  0  0
    4.7258    2.1837   -1.1691 O   0  0  0  0  0  0  0  0  0  0  0  0
    3.0128    3.0297   -2.7113 O   0  0  0  0  0  0  0  0  0  0  0  0
    2.4929    0.8877   -1.8558 O   0  0  0  0  0  0  0  0  0  0  0  0
    2.0542    1.2648   -0.4917 P   0  0  1  0  0  0  0  0  0  0  0  0
    0.8655    0.4497   -0.1472 O   0  0  0  0  0  0  0  0  0  0  0  0
    3.1324    0.9831    0.4844 O   0  0  0  0  0  0  0  0  0  0  0  0
    1.7157    2.7098   -0.4637 O   0  0  0  0  0  0  0  0  0  0  0  0
    1.5466    3.4650    0.8005 P   0  0  1  0  0  0  0  0  0  0  0  0
    0.4055    3.0329    1.6329 O   0  0  0  0  0  0  0  0  0  0  0  0
    2.7971    3.7273    1.5472 O   0  0  0  0  0  0  0  0  0  0  0  0
    1.0659    4.9215    0.2846 O   0  0  0  0  0  0  0  0  0  0  0  0
    0.9835    6.0416    1.1456 C   0  0  0  0  0  0  0  0  0  0  0  0
   -0.4447    6.5919    1.2627 C   0  0  1  0  0  0  0  0  0  0  0  0
   -0.7396    7.4284    0.1629 O   0  0  0  0  0  0  0  0  0  0  0  0
   -1.5368    5.5164    1.1283 C   0  0  1  0  0  0  0  0  0  0  0  0
   -1.7438    4.7108    2.2765 O   0  0  0  0  0  0  0  0  0  0  0  0
   -2.7773    6.3201    0.7389 C   0  0  1  0  0  0  0  0  0  0  0  0
   -3.5305    6.7222    1.8694 O   0  0  0  0  0  0  0  0  0  0  0  0
   -2.1488    7.5587    0.1030 C   0  0  2  0  0  0  0  0  0  0  0  0
   -2.6022    7.8657   -1.2704 N   0  0  0  0  0  0  0  0  0  0  0  0
   -3.8330    7.7155   -1.8577 C   0  0  0  0  0  0  0  0  0  0  0  0
   -3.8528    8.0009   -3.1340 N   0  0  0  0  0  0  0  0  0  0  0  0
   -2.5474    8.3936   -3.4142 C   0  0  0  0  0  0  0  0  0  0  0  0
   -1.9328    8.7852   -4.6466 C   0  0  0  0  0  0  0  0  0  0  0  0
   -2.4440    8.8201   -5.7641 O   0  0  0  0  0  0  0  0  0  0  0  0
   -0.5865    9.1423   -4.4920 N   0  0  0  0  0  0  0  0  0  0  0  0
    0.0727    9.1517   -3.2720 C   0  0  0  0  0  0  0  0  0  0  0  0
    1.3275    9.6144   -3.2387 N   0  0  0  0  0  0  0  0  0  0  0  0
   -0.4941    8.7375   -2.1270 N   0  0  0  0  0  0  0  0  0  0  0  0
   -1.7965    8.3664   -2.2630 C   0  0  0  0  0  0  0  0  0  0  0  0
  1  2  2  0  0  0  0
  1  4  1  0  0  0  0
  1  3  1  0  0  0  0
  5  1  1  0  0  0  0
  6  7  2  1  0  0  0
  6  9  1  0  0  0  0
  6  5  1  0  0  0  0
  6  8  1  0  0  0  0
 10 11  2  1  0  0  0
 10 12  1  0  0  0  0
 10 13  1  0  0  0  0
 10  9  1  0  0  0  0
 13 14  1  0  0  0  0
 15 14  1  6  0  0  0
 15 16  1  0  0  0  0
 17 19  1  0  0  0  0
 17 15  1  0  0  0  0
 17 18  1  1  0  0  0
 19 21  1  0  0  0  0
 19 20  1  1  0  0  0
 21 16  1  0  0  0  0
 21 22  1  6  0  0  0
 22 32  1  0  0  0  0
 23 22  1  0  0  0  0
 23 24  2  0  0  0  0
 24 25  1  0  0  0  0
 25 26  1  0  0  0  0
 26 27  2  0  0  0  0
 26 28  1  0  0  0  0
 29 28  1  0  0  0  0
 29 30  1  0  0  0  0
 31 29  2  0  0  0  0
 32 25  2  0  0  0  0
 32 31  1  0  0  0  0
M  END
>  <CHROM.1>
152.72054907,-165.52144237,176.77094183,-169.81756836,-64.96238927,-118.24248497
-81.61542467,-44.76399388,48.69010025,159.76653419,0.37394266,5.00156280
-0.98150328,-0.62877212,0.77229916,-0.99847079

>  <Name>
lig.pdb

>  <RI>
3.17878e+07

>  <Rbt.Current_Directory>
/home/itssahil/PROJECTS/Mol_Feturizer/New_Systems/rnas/5lwj

>  <Rbt.Executable>
rbdock ($Id: //depot/dev/client3/rdock/2013.1/src/exe/rbdock.cxx#4 $)

>  <Rbt.Library>
libRbt.so (2013.1, Build901 2013/11/27)

>  <Rbt.Parameter_File>
/export/apps/rDock/src/rDock_2013.1_src/data/scripts/dock_solv.prm

>  <Rbt.Receptor>
prm/blind_docking_100.prm

>  <SCORE>
-22.5161

>  <SCORE.INTER>
-23.093

>  <SCORE.INTER.CONST>
1

>  <SCORE.INTER.POLAR>
-1.96595

>  <SCORE.INTER.ROT>
8

>  <SCORE.INTER.SOLV>
24.3572

>  <SCORE.INTER.VDW>
-25.8946

>  <SCORE.INTER.norm>
-0.721655

>  <SCORE.INTRA>
-0.561618

>  <SCORE.INTRA.DIHEDRAL>
3.50398

>  <SCORE.INTRA.DIHEDRAL.0>
10.9248

>  <SCORE.INTRA.POLAR>
-0.461326

>  <SCORE.INTRA.POLAR.0>
0

>  <SCORE.INTRA.REPUL>
0.414866

>  <SCORE.INTRA.REPUL.0>
0

>  <SCORE.INTRA.SOLV>
1.11523

>  <SCORE.INTRA.SOLV.lig_0>
-51.4104

>  <SCORE.INTRA.VDW>
-3.37704

>  <SCORE.INTRA.VDW.0>
0.110327

>  <SCORE.INTRA.norm>
-0.0175506

>  <SCORE.RESTR>
1.13846

>  <SCORE.RESTR.CAVITY>
1.13846

>  <SCORE.RESTR.norm>
0.0355768

>  <SCORE.SYSTEM>
0

>  <SCORE.SYSTEM.CONST>
0

>  <SCORE.SYSTEM.DIHEDRAL>
0

>  <SCORE.SYSTEM.SOLV>
0

>  <SCORE.SYSTEM.norm>
0

>  <SCORE.heavy>
32

>  <SCORE.norm>
-0.703629

>  <RMSD>
13.705

$$$$
lig.pdb
 OpenBabel11021811523D
libRbt.so/2013.1/901 2013/11/27
 32 34  0  0  0  0  0  0  0  0999 V2000
    3.0741    2.3031   -1.9107 P   0  0  0  0  0  0  0  0  0  0  0  0
    2.2071    3.5162   -1.6772 O   0  0  0  0  0  0  0  0  0  0  0  0
    2.2995    1.5197   -3.1018 O   0  0  0  0  0  0  0  0  0  0  0  0
    4.4584    2.5062   -2.4742 O   0  0  0  0  0  0  0  0  0  0  0  0
    3.2556    1.6829   -0.6125 O   0  0  0  0  0  0  0  0  0  0  0  0
    1.9580    1.1529   -0.1320 P   0  0  1  0  0  0  0  0  0  0  0  0
    1.4136    0.2506   -1.1739 O   0  0  0  0  0  0  0  0  0  0  0  0
    2.1556    0.3832    1.1183 O   0  0  0  0  0  0  0  0  0  0  0  0
    1.0246    2.2806    0.1141 O   0  0  0  0  0  0  0  0  0  0  0  0
    1.1217    3.1495    1.3110 P   0  0  1  0  0  0  0  0  0  0  0  0
    1.0975    2.4317    2.6017 O   0  0  0  0  0  0  0  0  0  0  0  0
    2.1255    4.2331    1.2205 O   0  0  0  0  0  0  0  0  0  0  0  0
   -0.3049    3.9136    1.3139 O   0  0  0  0  0  0  0  0  0  0  0  0
   -0.4159    5.3125    1.1316 C   0  0  0  0  0  0  0  0  0  0  0  0
   -1.8739    5.7785    1.0158 C   0  0  1  0  0  0  0  0  0  0  0  0
   -1.9316    7.0741    0.4551 O   0  0  0  0  0  0  0  0  0  0  0  0
   -2.7044    4.9714    0.0026 C   0  0  1  0  0  0  0  0  0  0  0  0
   -3.1380    3.6969    0.4474 O   0  0  0  0  0  0  0  0  0  0  0  0
   -3.8658    5.9086   -0.3276 C   0  0  1  0  0  0  0  0  0  0  0  0
   -4.9812    5.6971    0.5200 O   0  0  0  0  0  0  0  0  0  0  0  0
   -3.2566    7.2718   -0.0049 C   0  0  2  0  0  0  0  0  0  0  0  0
   -3.3027    8.2625   -1.1015 N   0  0  0  0  0  0  0  0  0  0  0  0
   -4.3658    8.9261   -1.6598 C   0  0  0  0  0  0  0  0  0  0  0  0
   -4.0498    9.6664   -2.6908 N   0  0  0  0  0  0  0  0  0  0  0  0
   -2.6732    9.5054   -2.8151 C   0  0  0  0  0  0  0  0  0  0  0  0
   -1.7537   10.0288   -3.7798 C   0  0  0  0  0  0  0  0  0  0  0  0
   -2.0080   10.7264   -4.7596 O   0  0  0  0  0  0  0  0  0  0  0  0
   -0.4284    9.6497   -3.5276 N   0  0  0  0  0  0  0  0  0  0  0  0
   -0.0407    8.8807   -2.4406 C   0  0  0  0  0  0  0  0  0  0  0  0
    1.2674    8.6752   -2.2502 N   0  0  0  0  0  0  0  0  0  0  0  0
   -0.9122    8.3522   -1.5660 N   0  0  0  0  0  0  0  0  0  0  0  0
   -2.2073    8.6930   -1.8087 C   0  0  0  0  0  0  0  0  0  0  0  0
  1  2  2  0  0  0  0
  1  4  1  0  0  0  0
  1  3  1  0  0  0  0
  5  1  1  0  0  0  0
  6  7  2  6  0  0  0
  6  9  1  0  0  0  0
  6  5  1  0  0  0  0
  6  8  1  0  0  0  0
 10 11  2  1  0  0  0
 10 12  1  0  0  0  0
 10 13  1  0  0  0  0
 10  9  1  0  0  0  0
 13 14  1  0  0  0  0
 15 14  1  6  0  0  0
 15 16  1  0  0  0  0
 17 19  1  0  0  0  0
 17 15  1  0  0  0  0
 17 18  1  1  0  0  0
 19 21  1  0  0  0  0
 19 20  1  1  0  0  0
 21 16  1  0  0  0  0
 21 22  1  6  0  0  0
 22 32  1  0  0  0  0
 23 22  1  0  0  0  0
 23 24  2  0  0  0  0
 24 25  1  0  0  0  0
 25 26  1  0  0  0  0
 26 27  2  0  0  0  0
 26 28  1  0  0  0  0
 29 28  1  0  0  0  0
 29 30  1  0  0  0  0
 31 29  2  0  0  0  0
 32 25  2  0  0  0  0
 32 31  1  0  0  0  0
M  END
>  <CHROM.1>
66.70191696,-76.60837749,54.59851229,-115.31546805,-54.90570970,173.52590848
-162.87817074,-177.99316960,63.28010645,-166.45404499,-0.17411737,5.03236543
-0.78834033,-0.87082899,0.53864586,-0.65299313

>  <Name>
lig.pdb

>  <RI>
4.14043e+07

>  <Rbt.Current_Directory>
/home/itssahil/PROJECTS/Mol_Feturizer/New_Systems/rnas/5lwj

>  <Rbt.Executable>
rbdock ($Id: //depot/dev/client3/rdock/2013.1/src/exe/rbdock.cxx#4 $)

>  <Rbt.Library>
libRbt.so (2013.1, Build901 2013/11/27)

>  <Rbt.Parameter_File>
/export/apps/rDock/src/rDock_2013.1_src/data/scripts/dock_solv.prm

>  <Rbt.Receptor>
prm/blind_docking_80.prm

>  <SCORE>
-32.0515

>  <SCORE.INTER>
-31.7845

>  <SCORE.INTER.CONST>
1

>  <SCORE.INTER.POLAR>
-2.1164

>  <SCORE.INTER.ROT>
8

>  <SCORE.INTER.SOLV>
26.5513

>  <SCORE.INTER.VDW>
-31.9188

>  <SCORE.INTER.norm>
-0.993265

>  <SCORE.INTRA>
-1.10914

>  <SCORE.INTRA.DIHEDRAL>
-3.5017

>  <SCORE.INTRA.DIHEDRAL.0>
10.9248

>  <SCORE.INTRA.POLAR>
0

>  <SCORE.INTRA.POLAR.0>
0

>  <SCORE.INTRA.REPUL>
0.255943

>  <SCORE.INTRA.REPUL.0>
0

>  <SCORE.INTRA.SOLV>
1.75587

>  <SCORE.INTRA.SOLV.lig_0>
-51.4104

>  <SCORE.INTRA.VDW>
-1.51593

>  <SCORE.INTRA.VDW.0>
0.110327

>  <SCORE.INTRA.norm>
-0.0346605

>  <SCORE.RESTR>
0.842116

>  <SCORE.RESTR.CAVITY>
0.842116

>  <SCORE.RESTR.norm>
0.0263161

>  <SCORE.SYSTEM>
0

>  <SCORE.SYSTEM.CONST>
0

>  <SCORE.SYSTEM.DIHEDRAL>
0

>  <SCORE.SYSTEM.SOLV>
0

>  <SCORE.SYSTEM.norm>
0

>  <SCORE.heavy>
32

>  <SCORE.norm>
-1.00161

>  <RMSD>
13.729

$$$$
lig.pdb
 OpenBabel11021811523D
libRbt.so/2013.1/901 2013/11/27
 32 34  0  0  0  0  0  0  0  0999 V2000
    4.2326    0.6408    0.4297 P   0  0  0  0  0  0  0  0  0  0  0  0
    5.3130    1.6892    0.3218 O   0  0  0  0  0  0  0  0  0  0  0  0
    4.3828   -0.1877   -0.9573 O   0  0  0  0  0  0  0  0  0  0  0  0
    4.3696   -0.4269    1.4862 O   0  0  0  0  0  0  0  0  0  0  0  0
    3.0085    1.3551    0.7363 O   0  0  0  0  0  0  0  0  0  0  0  0
    2.4387    1.9176   -0.5105 P   0  0  1  0  0  0  0  0  0  0  0  0
    3.4511    2.8133   -1.1177 O   0  0  0  0  0  0  0  0  0  0  0  0
    2.1254    0.8270   -1.4628 O   0  0  0  0  0  0  0  0  0  0  0  0
    1.2033    2.6759   -0.1906 O   0  0  0  0  0  0  0  0  0  0  0  0
    1.1029    3.5798    0.9799 P   0  0  1  0  0  0  0  0  0  0  0  0
    0.2704    3.0691    2.0880 O   0  0  0  0  0  0  0  0  0  0  0  0
    2.3751    4.2104    1.3971 O   0  0  0  0  0  0  0  0  0  0  0  0
    0.2084    4.8025    0.4109 O   0  0  0  0  0  0  0  0  0  0  0  0
   -0.2701    5.8427    1.2425 C   0  0  0  0  0  0  0  0  0  0  0  0
   -1.7522    6.1589    0.9982 C   0  0  1  0  0  0  0  0  0  0  0  0
   -1.8901    7.4313    0.3996 O   0  0  0  0  0  0  0  0  0  0  0  0
   -2.4140    5.2537   -0.0557 C   0  0  1  0  0  0  0  0  0  0  0  0
   -2.7559    3.9512    0.3877 O   0  0  0  0  0  0  0  0  0  0  0  0
   -3.6304    6.0641   -0.5028 C   0  0  1  0  0  0  0  0  0  0  0  0
   -4.7855    5.7589    0.2587 O   0  0  0  0  0  0  0  0  0  0  0  0
   -3.1858    7.4871   -0.1698 C   0  0  2  0  0  0  0  0  0  0  0  0
   -3.2383    8.4470   -1.2931 N   0  0  0  0  0  0  0  0  0  0  0  0
   -4.2200    9.3296   -1.6669 C   0  0  0  0  0  0  0  0  0  0  0  0
   -3.9697    9.9636   -2.7832 N   0  0  0  0  0  0  0  0  0  0  0  0
   -2.7201    9.4889   -3.1703 C   0  0  0  0  0  0  0  0  0  0  0  0
   -1.9294    9.7739   -4.3293 C   0  0  0  0  0  0  0  0  0  0  0  0
   -2.2210   10.4981   -5.2790 O   0  0  0  0  0  0  0  0  0  0  0  0
   -0.6986    9.1037   -4.3247 N   0  0  0  0  0  0  0  0  0  0  0  0
   -0.2734    8.2810   -3.2925 C   0  0  0  0  0  0  0  0  0  0  0  0
    0.9665    7.7828   -3.3554 N   0  0  0  0  0  0  0  0  0  0  0  0
   -1.0384    7.9787   -2.2308 N   0  0  0  0  0  0  0  0  0  0  0  0
   -2.2470    8.6048   -2.2299 C   0  0  0  0  0  0  0  0  0  0  0  0
  1  2  2  0  0  0  0
  1  4  1  0  0  0  0
  1  3  1  0  0  0  0
  5  1  1  0  0  0  0
  6  7  2  6  0  0  0
  6  9  1  0  0  0  0
  6  5  1  0  0  0  0
  6  8  1  0  0  0  0
 10 11  2  1  0  0  0
 10 12  1  0  0  0  0
 10 13  1  0  0  0  0
 10  9  1  0  0  0  0
 13 14  1  0  0  0  0
 15 14  1  6  0  0  0
 15 16  1  0  0  0  0
 17 19  1  0  0  0  0
 17 15  1  0  0  0  0
 17 18  1  1  0  0  0
 19 21  1  0  0  0  0
 19 20  1  1  0  0  0
 21 16  1  0  0  0  0
 21 22  1  6  0  0  0
 22 32  1  0  0  0  0
 23 22  1  0  0  0  0
 23 24  2  0  0  0  0
 24 25  1  0  0  0  0
 25 26  1  0  0  0  0
 26 27  2  0  0  0  0
 26 28  1  0  0  0  0
 29 28  1  0  0  0  0
 29 30  1  0  0  0  0
 31 29  2  0  0  0  0
 32 25  2  0  0  0  0
 32 31  1  0  0  0  0
M  END
>  <CHROM.1>
81.03819062,42.52497875,-58.38249462,172.75554774,-107.36207309,-133.78144176
-111.17061386,96.20152253,-76.39666157,-141.37903423,0.14639401,4.94634120
-0.69523797,-0.80140924,0.50472618,-0.78421524

>  <Name>
lig.pdb

>  <RI>
3.17878e+07

>  <Rbt.Current_Directory>
/home/itssahil/PROJECTS/Mol_Feturizer/New_Systems/rnas/5lwj

>  <Rbt.Executable>
rbdock ($Id: //depot/dev/client3/rdock/2013.1/src/exe/rbdock.cxx#4 $)

>  <Rbt.Library>
libRbt.so (2013.1, Build901 2013/11/27)

>  <Rbt.Parameter_File>
/export/apps/rDock/src/rDock_2013.1_src/data/scripts/dock_solv.prm

>  <Rbt.Receptor>
prm/blind_docking_100.prm

>  <SCORE>
-17.3978

>  <SCORE.INTER>
-24.8924

>  <SCORE.INTER.CONST>
1

>  <SCORE.INTER.POLAR>
-1.74194

>  <SCORE.INTER.ROT>
8

>  <SCORE.INTER.SOLV>
26.2399

>  <SCORE.INTER.VDW>
-28.4685

>  <SCORE.INTER.norm>
-0.777889

>  <SCORE.INTRA>
5.13887

>  <SCORE.INTRA.DIHEDRAL>
11.945

>  <SCORE.INTRA.DIHEDRAL.0>
10.9248

>  <SCORE.INTRA.POLAR>
0

>  <SCORE.INTRA.POLAR.0>
0

>  <SCORE.INTRA.REPUL>
0.125008

>  <SCORE.INTRA.REPUL.0>
0

>  <SCORE.INTRA.SOLV>
1.22265

>  <SCORE.INTRA.SOLV.lig_0>
-51.4104

>  <SCORE.INTRA.VDW>
-2.06998

>  <SCORE.INTRA.VDW.0>
0.110327

>  <SCORE.INTRA.norm>
0.16059

>  <SCORE.RESTR>
2.35581

>  <SCORE.RESTR.CAVITY>
2.35581

>  <SCORE.RESTR.norm>
0.0736191

>  <SCORE.SYSTEM>
0

>  <SCORE.SYSTEM.CONST>
0

>  <SCORE.SYSTEM.DIHEDRAL>
0

>  <SCORE.SYSTEM.SOLV>
0

>  <SCORE.SYSTEM.norm>
0

>  <SCORE.heavy>
32

>  <SCORE.norm>
-0.54368

>  <RMSD>
13.767

$$$$
lig.pdb
 OpenBabel11021811523D
libRbt.so/2013.1/901 2013/11/27
 32 34  0  0  0  0  0  0  0  0999 V2000
   -3.4974    8.4296   -3.2662 P   0  0  0  0  0  0  0  0  0  0  0  0
   -2.5601    7.3568   -2.7677 O   0  0  0  0  0  0  0  0  0  0  0  0
   -3.3966    9.5706   -2.1170 O   0  0  0  0  0  0  0  0  0  0  0  0
   -3.1324    9.1750   -4.5257 O   0  0  0  0  0  0  0  0  0  0  0  0
   -4.7570    7.7664   -3.5422 O   0  0  0  0  0  0  0  0  0  0  0  0
   -5.5383    7.6475   -2.2888 P   0  0  1  0  0  0  0  0  0  0  0  0
   -5.9374    9.0095   -1.8626 O   0  0  0  0  0  0  0  0  0  0  0  0
   -6.7568    6.8387   -2.5249 O   0  0  0  0  0  0  0  0  0  0  0  0
   -4.7020    7.0036   -1.2449 O   0  0  0  0  0  0  0  0  0  0  0  0
   -5.2822    6.2116   -0.1345 P   0  0  1  0  0  0  0  0  0  0  0  0
   -5.9052    7.0126    0.9388 O   0  0  0  0  0  0  0  0  0  0  0  0
   -6.0555    5.0202   -0.5502 O   0  0  0  0  0  0  0  0  0  0  0  0
   -3.9706    5.6116    0.5992 O   0  0  0  0  0  0  0  0  0  0  0  0
   -2.8260    5.1911   -0.1189 C   0  0  0  0  0  0  0  0  0  0  0  0
   -1.5213    5.4465    0.6487 C   0  0  1  0  0  0  0  0  0  0  0  0
   -1.0030    4.2324    1.1523 O   0  0  0  0  0  0  0  0  0  0  0  0
   -0.3616    5.9262   -0.2417 C   0  0  1  0  0  0  0  0  0  0  0  0
   -0.4123    7.2899   -0.6265 O   0  0  0  0  0  0  0  0  0  0  0  0
    0.8796    5.5912    0.5851 C   0  0  1  0  0  0  0  0  0  0  0  0
    1.2762    6.6688    1.4149 O   0  0  0  0  0  0  0  0  0  0  0  0
    0.3592    4.4586    1.4681 C   0  0  2  0  0  0  0  0  0  0  0  0
    1.1388    3.2035    1.4146 N   0  0  0  0  0  0  0  0  0  0  0  0
    1.2839    2.2035    2.3426 C   0  0  0  0  0  0  0  0  0  0  0  0
    2.1381    1.2753    1.9968 N   0  0  0  0  0  0  0  0  0  0  0  0
    2.5769    1.6705    0.7367 C   0  0  0  0  0  0  0  0  0  0  0  0
    3.5461    1.0876   -0.1415 C   0  0  0  0  0  0  0  0  0  0  0  0
    4.2463    0.0980    0.0623 O   0  0  0  0  0  0  0  0  0  0  0  0
    3.6728    1.7861   -1.3498 N   0  0  0  0  0  0  0  0  0  0  0  0
    2.9162    2.9009   -1.6781 C   0  0  0  0  0  0  0  0  0  0  0  0
    3.0544    3.4156   -2.9052 N   0  0  0  0  0  0  0  0  0  0  0  0
    2.0434    3.4721   -0.8321 N   0  0  0  0  0  0  0  0  0  0  0  0
    1.9234    2.8184    0.3557 C   0  0  0  0  0  0  0  0  0  0  0  0
  1  2  2  0  0  0  0
  1  4  1  0  0  0  0
  1  3  1  0  0  0  0
  5  1  1  0  0  0  0
  6  7  2  1  0  0  0
  6  9  1  0  0  0  0
  6  5  1  0  0  0  0
  6  8  1  0  0  0  0
 10 11  2  1  0  0  0
 10 12  1  0  0  0  0
 10 13  1  0  0  0  0
 10  9  1  0  0  0  0
 13 14  1  0  0  0  0
 15 14  1  6  0  0  0
 15 16  1  0  0  0  0
 17 19  1  0  0  0  0
 17 15  1  0  0  0  0
 17 18  1  1  0  0  0
 19 21  1  0  0  0  0
 19 20  1  1  0  0  0
 21 16  1  0  0  0  0
 21 22  1  6  0  0  0
 22 32  1  0  0  0  0
 23 22  1  0  0  0  0
 23 24  2  0  0  0  0
 24 25  1  0  0  0  0
 25 26  1  0  0  0  0
 26 27  2  0  0  0  0
 26 28  1  0  0  0  0
 29 28  1  0  0  0  0
 29 30  1  0  0  0  0
 31 29  2  0  0  0  0
 32 25  2  0  0  0  0
 32 31  1  0  0  0  0
M  END
>  <CHROM.1>
83.56628482,-152.33478949,67.33904428,-37.18683257,-75.80507526,146.22544001
105.93941118,-57.91568213,151.86795756,-81.85981363,-1.64168847,5.51245725
-0.77968738,-2.59189097,-0.36618925,2.22368781

>  <Name>
lig.pdb

>  <RI>
1.2169e+07

>  <Rbt.Current_Directory>
/home/itssahil/PROJECTS/Mol_Feturizer/New_Systems/rnas/5lwj

>  <Rbt.Executable>
rbdock ($Id: //depot/dev/client3/rdock/2013.1/src/exe/rbdock.cxx#4 $)

>  <Rbt.Library>
libRbt.so (2013.1, Build901 2013/11/27)

>  <Rbt.Parameter_File>
/export/apps/rDock/src/rDock_2013.1_src/data/scripts/dock_solv.prm

>  <Rbt.Receptor>
prm/blind_docking_40.prm

>  <SCORE>
-30.7955

>  <SCORE.INTER>
-29.7591

>  <SCORE.INTER.CONST>
1

>  <SCORE.INTER.POLAR>
-3.6293

>  <SCORE.INTER.ROT>
8

>  <SCORE.INTER.SOLV>
23.2807

>  <SCORE.INTER.VDW>
-24.4353

>  <SCORE.INTER.norm>
-0.929973

>  <SCORE.INTRA>
-2.45194

>  <SCORE.INTRA.DIHEDRAL>
6.66856

>  <SCORE.INTRA.DIHEDRAL.0>
10.9248

>  <SCORE.INTRA.POLAR>
-1

>  <SCORE.INTRA.POLAR.0>
0

>  <SCORE.INTRA.REPUL>
0

>  <SCORE.INTRA.REPUL.0>
0

>  <SCORE.INTRA.SOLV>
1.47729

>  <SCORE.INTRA.SOLV.lig_0>
-51.4104

>  <SCORE.INTRA.VDW>
-3.12486

>  <SCORE.INTRA.VDW.0>
0.110327

>  <SCORE.INTRA.norm>
-0.076623

>  <SCORE.RESTR>
1.41553

>  <SCORE.RESTR.CAVITY>
1.41553

>  <SCORE.RESTR.norm>
0.0442353

>  <SCORE.SYSTEM>
0

>  <SCORE.SYSTEM.CONST>
0

>  <SCORE.SYSTEM.DIHEDRAL>
0

>  <SCORE.SYSTEM.SOLV>
0

>  <SCORE.SYSTEM.norm>
0

>  <SCORE.heavy>
32

>  <SCORE.norm>
-0.962361

>  <RMSD>
13.779

$$$$
lig.pdb
 OpenBabel11021811523D
libRbt.so/2013.1/901 2013/11/27
 32 34  0  0  0  0  0  0  0  0999 V2000
    5.0001    1.1208   -0.8829 P   0  0  0  0  0  0  0  0  0  0  0  0
    4.2461   -0.1797   -0.7476 O   0  0  0  0  0  0  0  0  0  0  0  0
    4.7812    1.8261    0.5618 O   0  0  0  0  0  0  0  0  0  0  0  0
    6.5014    1.0708   -1.0189 O   0  0  0  0  0  0  0  0  0  0  0  0
    4.5073    1.7469   -2.0945 O   0  0  0  0  0  0  0  0  0  0  0  0
    3.0801    2.1051   -1.9208 P   0  0  1  0  0  0  0  0  0  0  0  0
    2.6252    2.7979   -3.1492 O   0  0  0  0  0  0  0  0  0  0  0  0
    2.2690    0.8804   -1.7285 O   0  0  0  0  0  0  0  0  0  0  0  0
    2.9343    2.9949   -0.7415 O   0  0  0  0  0  0  0  0  0  0  0  0
    1.9986    2.6997    0.3695 P   0  0  1  0  0  0  0  0  0  0  0  0
    0.9995    1.6520    0.0767 O   0  0  0  0  0  0  0  0  0  0  0  0
    2.6227    2.6074    1.7082 O   0  0  0  0  0  0  0  0  0  0  0  0
    1.0886    4.0363    0.4343 O   0  0  0  0  0  0  0  0  0  0  0  0
    0.2531    4.3317    1.5376 C   0  0  0  0  0  0  0  0  0  0  0  0
   -0.6410    5.5546    1.2898 C   0  0  1  0  0  0  0  0  0  0  0  0
    0.0318    6.4982    0.4815 O   0  0  0  0  0  0  0  0  0  0  0  0
   -1.8831    5.2516    0.4336 C   0  0  1  0  0  0  0  0  0  0  0  0
   -2.9458    4.6009    1.1101 O   0  0  0  0  0  0  0  0  0  0  0  0
   -2.2806    6.6240   -0.1093 C   0  0  1  0  0  0  0  0  0  0  0  0
   -3.2121    7.2822    0.7310 O   0  0  0  0  0  0  0  0  0  0  0  0
   -0.9502    7.3719   -0.0465 C   0  0  2  0  0  0  0  0  0  0  0  0
   -0.5025    7.9775   -1.3188 N   0  0  0  0  0  0  0  0  0  0  0  0
    0.7516    8.0780   -1.8661 C   0  0  0  0  0  0  0  0  0  0  0  0
    0.7955    8.7722   -2.9738 N   0  0  0  0  0  0  0  0  0  0  0  0
   -0.5278    9.1412   -3.1958 C   0  0  0  0  0  0  0  0  0  0  0  0
   -1.1145    9.9444   -4.2257 C   0  0  0  0  0  0  0  0  0  0  0  0
   -0.5404   10.5287   -5.1423 O   0  0  0  0  0  0  0  0  0  0  0  0
   -2.5069   10.0485   -4.1055 N   0  0  0  0  0  0  0  0  0  0  0  0
   -3.2444    9.4131   -3.1179 C   0  0  0  0  0  0  0  0  0  0  0  0
   -4.5780    9.5035   -3.1727 N   0  0  0  0  0  0  0  0  0  0  0  0
   -2.6850    8.7007   -2.1263 N   0  0  0  0  0  0  0  0  0  0  0  0
   -1.3301    8.6071   -2.2155 C   0  0  0  0  0  0  0  0  0  0  0  0
  1  2  2  0  0  0  0
  1  4  1  0  0  0  0
  1  3  1  0  0  0  0
  5  1  1  0  0  0  0
  6  7  2  6  0  0  0
  6  9  1  0  0  0  0
  6  5  1  0  0  0  0
  6  8  1  0  0  0  0
 10 11  2  6  0  0  0
 10 12  1  0  0  0  0
 10 13  1  0  0  0  0
 10  9  1  0  0  0  0
 13 14  1  0  0  0  0
 15 14  1  6  0  0  0
 15 16  1  0  0  0  0
 17 19  1  0  0  0  0
 17 15  1  0  0  0  0
 17 18  1  1  0  0  0
 19 21  1  0  0  0  0
 19 20  1  1  0  0  0
 21 16  1  0  0  0  0
 21 22  1  6  0  0  0
 22 32  1  0  0  0  0
 23 22  1  0  0  0  0
 23 24  2  0  0  0  0
 24 25  1  0  0  0  0
 25 26  1  0  0  0  0
 26 27  2  0  0  0  0
 26 28  1  0  0  0  0
 29 28  1  0  0  0  0
 29 30  1  0  0  0  0
 31 29  2  0  0  0  0
 32 25  2  0  0  0  0
 32 31  1  0  0  0  0
M  END
>  <CHROM.1>
65.47961645,-126.14184797,177.39658925,-165.49701958,-14.09427168,-172.66258521
-33.60662531,57.43766181,-168.41099547,-17.23758838,0.84301620,4.94081459
-1.08677891,-0.71082038,0.61356890,-0.81833205

>  <Name>
lig.pdb

>  <RI>
4.14043e+07

>  <Rbt.Current_Directory>
/home/itssahil/PROJECTS/Mol_Feturizer/New_Systems/rnas/5lwj

>  <Rbt.Executable>
rbdock ($Id: //depot/dev/client3/rdock/2013.1/src/exe/rbdock.cxx#4 $)

>  <Rbt.Library>
libRbt.so (2013.1, Build901 2013/11/27)

>  <Rbt.Parameter_File>
/export/apps/rDock/src/rDock_2013.1_src/data/scripts/dock_solv.prm

>  <Rbt.Receptor>
prm/blind_docking_80.prm

>  <SCORE>
-24.7703

>  <SCORE.INTER>
-27.209

>  <SCORE.INTER.CONST>
1

>  <SCORE.INTER.POLAR>
-0.783108

>  <SCORE.INTER.ROT>
8

>  <SCORE.INTER.SOLV>
23.5057

>  <SCORE.INTER.VDW>
-32.2975

>  <SCORE.INTER.norm>
-0.850281

>  <SCORE.INTRA>
0.961149

>  <SCORE.INTRA.DIHEDRAL>
0.0248645

>  <SCORE.INTRA.DIHEDRAL.0>
10.9248

>  <SCORE.INTRA.POLAR>
0

>  <SCORE.INTRA.POLAR.0>
0

>  <SCORE.INTRA.REPUL>
0

>  <SCORE.INTRA.REPUL.0>
0

>  <SCORE.INTRA.SOLV>
1.56167

>  <SCORE.INTRA.SOLV.lig_0>
-51.4104

>  <SCORE.INTRA.VDW>
0.167882

>  <SCORE.INTRA.VDW.0>
0.110327

>  <SCORE.INTRA.norm>
0.0300359

>  <SCORE.RESTR>
1.47756

>  <SCORE.RESTR.CAVITY>
1.47756

>  <SCORE.RESTR.norm>
0.0461737

>  <SCORE.SYSTEM>
0

>  <SCORE.SYSTEM.CONST>
0

>  <SCORE.SYSTEM.DIHEDRAL>
0

>  <SCORE.SYSTEM.SOLV>
0

>  <SCORE.SYSTEM.norm>
0

>  <SCORE.heavy>
32

>  <SCORE.norm>
-0.774071

>  <RMSD>
13.785

$$$$
lig.pdb
 OpenBabel11021811523D
libRbt.so/2013.1/901 2013/11/27
 32 34  0  0  0  0  0  0  0  0999 V2000
   -5.3290    8.8308   -4.1118 P   0  0  0  0  0  0  0  0  0  0  0  0
   -6.1006    7.7321   -4.8013 O   0  0  0  0  0  0  0  0  0  0  0  0
   -4.4987    9.5163   -5.3257 O   0  0  0  0  0  0  0  0  0  0  0  0
   -6.0965    9.9876   -3.5220 O   0  0  0  0  0  0  0  0  0  0  0  0
   -4.6364    8.2015   -3.0041 O   0  0  0  0  0  0  0  0  0  0  0  0
   -3.3978    8.9567   -2.7022 P   0  0  1  0  0  0  0  0  0  0  0  0
   -2.4700    8.7984   -3.8468 O   0  0  0  0  0  0  0  0  0  0  0  0
   -3.7094   10.3945   -2.5283 O   0  0  0  0  0  0  0  0  0  0  0  0
   -2.7835    8.4217   -1.4612 O   0  0  0  0  0  0  0  0  0  0  0  0
   -2.2932    7.0273   -1.3510 P   0  0  1  0  0  0  0  0  0  0  0  0
   -3.2495    5.9964   -1.8032 O   0  0  0  0  0  0  0  0  0  0  0  0
   -0.8964    6.8161   -1.7918 O   0  0  0  0  0  0  0  0  0  0  0  0
   -2.2573    6.7870    0.2489 O   0  0  0  0  0  0  0  0  0  0  0  0
   -2.2720    5.4930    0.8217 C   0  0  0  0  0  0  0  0  0  0  0  0
   -0.8781    5.0289    1.2665 C   0  0  1  0  0  0  0  0  0  0  0  0
   -0.7862    3.6205    1.2013 O   0  0  0  0  0  0  0  0  0  0  0  0
    0.2510    5.4520    0.3104 C   0  0  1  0  0  0  0  0  0  0  0  0
    0.6600    6.8057    0.4113 O   0  0  0  0  0  0  0  0  0  0  0  0
    1.3754    4.4691    0.6357 C   0  0  1  0  0  0  0  0  0  0  0  0
    2.2472    4.9659    1.6359 O   0  0  0  0  0  0  0  0  0  0  0  0
    0.5914    3.2907    1.2103 C   0  0  2  0  0  0  0  0  0  0  0  0
    0.8362    1.9872    0.5570 N   0  0  0  0  0  0  0  0  0  0  0  0
    0.4876    0.7173    0.9419 C   0  0  0  0  0  0  0  0  0  0  0  0
    0.9573   -0.2232    0.1635 N   0  0  0  0  0  0  0  0  0  0  0  0
    1.6485    0.4691   -0.8262 C   0  0  0  0  0  0  0  0  0  0  0  0
    2.4132   -0.0061   -1.9395 C   0  0  0  0  0  0  0  0  0  0  0  0
    2.6578   -1.1727   -2.2405 O   0  0  0  0  0  0  0  0  0  0  0  0
    2.9274    1.0325   -2.7274 N   0  0  0  0  0  0  0  0  0  0  0  0
    2.6922    2.3764   -2.4794 C   0  0  0  0  0  0  0  0  0  0  0  0
    3.1492    3.2688   -3.3651 N   0  0  0  0  0  0  0  0  0  0  0  0
    2.0151    2.8185   -1.4070 N   0  0  0  0  0  0  0  0  0  0  0  0
    1.5263    1.8226   -0.6185 C   0  0  0  0  0  0  0  0  0  0  0  0
  1  2  2  0  0  0  0
  1  4  1  0  0  0  0
  1  3  1  0  0  0  0
  5  1  1  0  0  0  0
  6  7  2  6  0  0  0
  6  9  1  0  0  0  0
  6  5  1  0  0  0  0
  6  8  1  0  0  0  0
 10 11  2  6  0  0  0
 10 12  1  0  0  0  0
 10 13  1  0  0  0  0
 10  9  1  0  0  0  0
 13 14  1  0  0  0  0
 15 14  1  6  0  0  0
 15 16  1  0  0  0  0
 17 19  1  0  0  0  0
 17 15  1  0  0  0  0
 17 18  1  1  0  0  0
 19 21  1  0  0  0  0
 19 20  1  1  0  0  0
 21 16  1  0  0  0  0
 21 22  1  6  0  0  0
 22 32  1  0  0  0  0
 23 22  1  0  0  0  0
 23 24  2  0  0  0  0
 24 25  1  0  0  0  0
 25 26  1  0  0  0  0
 26 27  2  0  0  0  0
 26 28  1  0  0  0  0
 29 28  1  0  0  0  0
 29 30  1  0  0  0  0
 31 29  2  0  0  0  0
 32 25  2  0  0  0  0
 32 31  1  0  0  0  0
M  END
>  <CHROM.1>
151.89639914,62.51765274,-67.10057884,158.96850494,-49.36978515,100.76701766
-151.19978154,147.81759268,39.68818080,-67.92316605,-1.17240230,5.47658369
-1.51713843,3.13254393,-0.89455281,1.21151145

>  <Name>
lig.pdb

>  <RI>
1.2169e+07

>  <Rbt.Current_Directory>
/home/itssahil/PROJECTS/Mol_Feturizer/New_Systems/rnas/5lwj

>  <Rbt.Executable>
rbdock ($Id: //depot/dev/client3/rdock/2013.1/src/exe/rbdock.cxx#4 $)

>  <Rbt.Library>
libRbt.so (2013.1, Build901 2013/11/27)

>  <Rbt.Parameter_File>
/export/apps/rDock/src/rDock_2013.1_src/data/scripts/dock_solv.prm

>  <Rbt.Receptor>
prm/blind_docking_40.prm

>  <SCORE>
-13.3314

>  <SCORE.INTER>
-16.7936

>  <SCORE.INTER.CONST>
1

>  <SCORE.INTER.POLAR>
-3.73887

>  <SCORE.INTER.ROT>
8

>  <SCORE.INTER.SOLV>
24.2335

>  <SCORE.INTER.VDW>
-15.744

>  <SCORE.INTER.norm>
-0.524799

>  <SCORE.INTRA>
2.87291

>  <SCORE.INTRA.DIHEDRAL>
7.69718

>  <SCORE.INTRA.DIHEDRAL.0>
10.9248

>  <SCORE.INTRA.POLAR>
0

>  <SCORE.INTRA.POLAR.0>
0

>  <SCORE.INTRA.REPUL>
0

>  <SCORE.INTRA.REPUL.0>
0

>  <SCORE.INTRA.SOLV>
1.27124

>  <SCORE.INTRA.SOLV.lig_0>
-51.4104

>  <SCORE.INTRA.VDW>
-1.6113

>  <SCORE.INTRA.VDW.0>
0.110327

>  <SCORE.INTRA.norm>
0.0897785

>  <SCORE.RESTR>
0.589232

>  <SCORE.RESTR.CAVITY>
0.589232

>  <SCORE.RESTR.norm>
0.0184135

>  <SCORE.SYSTEM>
0

>  <SCORE.SYSTEM.CONST>
0

>  <SCORE.SYSTEM.DIHEDRAL>
0

>  <SCORE.SYSTEM.SOLV>
0

>  <SCORE.SYSTEM.norm>
0

>  <SCORE.heavy>
32

>  <SCORE.norm>
-0.416607

>  <RMSD>
13.792

$$$$
lig.pdb
 OpenBabel11021811523D
libRbt.so/2013.1/901 2013/11/27
 32 34  0  0  0  0  0  0  0  0999 V2000
    2.5603    1.6328   -0.6989 P   0  0  0  0  0  0  0  0  0  0  0  0
    2.0416    1.0381   -1.9855 O   0  0  0  0  0  0  0  0  0  0  0  0
    3.1562    0.3455    0.0887 O   0  0  0  0  0  0  0  0  0  0  0  0
    3.7380    2.5730   -0.7647 O   0  0  0  0  0  0  0  0  0  0  0  0
    1.4641    2.4001   -0.1401 O   0  0  0  0  0  0  0  0  0  0  0  0
    1.6720    2.5704    1.3171 P   0  0  1  0  0  0  0  0  0  0  0  0
    1.6152    1.2321    1.9509 O   0  0  0  0  0  0  0  0  0  0  0  0
    3.0020    3.1703    1.5735 O   0  0  0  0  0  0  0  0  0  0  0  0
    0.6097    3.4487    1.8681 O   0  0  0  0  0  0  0  0  0  0  0  0
    0.1824    4.7000    1.1983 P   0  0  1  0  0  0  0  0  0  0  0  0
    0.1600    5.8928    2.0692 O   0  0  0  0  0  0  0  0  0  0  0  0
    0.7608    4.9219   -0.1456 O   0  0  0  0  0  0  0  0  0  0  0  0
   -1.3918    4.4403    0.9276 O   0  0  0  0  0  0  0  0  0  0  0  0
   -2.2953    5.4914    0.6419 C   0  0  0  0  0  0  0  0  0  0  0  0
   -2.0104    6.1636   -0.7084 C   0  0  1  0  0  0  0  0  0  0  0  0
   -3.2215    6.4898   -1.3589 O   0  0  0  0  0  0  0  0  0  0  0  0
   -1.3490    7.5475   -0.5850 C   0  0  1  0  0  0  0  0  0  0  0  0
    0.0373    7.5363   -0.2883 O   0  0  0  0  0  0  0  0  0  0  0  0
   -1.6606    8.2082   -1.9276 C   0  0  1  0  0  0  0  0  0  0  0  0
   -0.6423    7.9790   -2.8855 O   0  0  0  0  0  0  0  0  0  0  0  0
   -2.9154    7.4491   -2.3552 C   0  0  2  0  0  0  0  0  0  0  0  0
   -4.0896    8.2909   -2.6694 N   0  0  0  0  0  0  0  0  0  0  0  0
   -5.1907    8.6038   -1.9131 C   0  0  0  0  0  0  0  0  0  0  0  0
   -6.0931    9.3043   -2.5501 N   0  0  0  0  0  0  0  0  0  0  0  0
   -5.5447    9.4943   -3.8150 C   0  0  0  0  0  0  0  0  0  0  0  0
   -6.0721   10.1483   -4.9743 C   0  0  0  0  0  0  0  0  0  0  0  0
   -7.1796   10.6649   -5.1077 O   0  0  0  0  0  0  0  0  0  0  0  0
   -5.1757   10.1492   -6.0516 N   0  0  0  0  0  0  0  0  0  0  0  0
   -3.9002    9.6082   -5.9928 C   0  0  0  0  0  0  0  0  0  0  0  0
   -3.1006    9.7660   -7.0537 N   0  0  0  0  0  0  0  0  0  0  0  0
   -3.4282    8.9535   -4.9193 N   0  0  0  0  0  0  0  0  0  0  0  0
   -4.2948    8.9244   -3.8702 C   0  0  0  0  0  0  0  0  0  0  0  0
  1  2  2  0  0  0  0
  1  4  1  0  0  0  0
  1  3  1  0  0  0  0
  5  1  1  0  0  0  0
  6  7  2  1  0  0  0
  6  9  1  0  0  0  0
  6  5  1  0  0  0  0
  6  8  1  0  0  0  0
 10 11  2  1  0  0  0
 10 12  1  0  0  0  0
 10 13  1  0  0  0  0
 10  9  1  0  0  0  0
 13 14  1  0  0  0  0
 15 14  1  1  0  0  0
 15 16  1  0  0  0  0
 17 19  1  0  0  0  0
 17 15  1  0  0  0  0
 17 18  1  6  0  0  0
 19 21  1  0  0  0  0
 19 20  1  6  0  0  0
 21 16  1  0  0  0  0
 21 22  1  1  0  0  0
 22 32  1  0  0  0  0
 23 22  1  0  0  0  0
 23 24  2  0  0  0  0
 24 25  1  0  0  0  0
 25 26  1  0  0  0  0
 26 27  2  0  0  0  0
 26 28  1  0  0  0  0
 29 28  1  0  0  0  0
 29 30  1  0  0  0  0
 31 29  2  0  0  0  0
 32 25  2  0  0  0  0
 32 31  1  0  0  0  0
M  END
>  <CHROM.1>
157.91367234,-44.51778486,-64.33296716,162.18544315,-129.02279955,66.60541558
141.57704242,47.09049028,-177.25237515,24.73538213,-1.07110820,5.77194387
-1.30129681,-0.59181116,0.73534326,-1.39772307

>  <Name>
lig.pdb

>  <RI>
1.17715e+07

>  <Rbt.Current_Directory>
/home/itssahil/PROJECTS/Mol_Feturizer/New_Systems/rnas/5lwj

>  <Rbt.Executable>
rbdock ($Id: //depot/dev/client3/rdock/2013.1/src/exe/rbdock.cxx#4 $)

>  <Rbt.Library>
libRbt.so (2013.1, Build901 2013/11/27)

>  <Rbt.Parameter_File>
/export/apps/rDock/src/rDock_2013.1_src/data/scripts/dock_solv.prm

>  <Rbt.Receptor>
prm/blind_docking_60.prm

>  <SCORE>
-29.8537

>  <SCORE.INTER>
-32.173

>  <SCORE.INTER.CONST>
1

>  <SCORE.INTER.POLAR>
-2.31324

>  <SCORE.INTER.ROT>
8

>  <SCORE.INTER.SOLV>
21.5224

>  <SCORE.INTER.VDW>
-29.8454

>  <SCORE.INTER.norm>
-1.00541

>  <SCORE.INTRA>
-3.38558

>  <SCORE.INTRA.DIHEDRAL>
0.12487

>  <SCORE.INTRA.DIHEDRAL.0>
10.9248

>  <SCORE.INTRA.POLAR>
-0.296641

>  <SCORE.INTRA.POLAR.0>
0

>  <SCORE.INTRA.REPUL>
0.00108032

>  <SCORE.INTRA.REPUL.0>
0

>  <SCORE.INTRA.SOLV>
1.29563

>  <SCORE.INTRA.SOLV.lig_0>
-51.4104

>  <SCORE.INTRA.VDW>
-3.09265

>  <SCORE.INTRA.VDW.0>
0.110327

>  <SCORE.INTRA.norm>
-0.105799

>  <SCORE.RESTR>
5.70487

>  <SCORE.RESTR.CAVITY>
5.70487

>  <SCORE.RESTR.norm>
0.178277

>  <SCORE.SYSTEM>
0

>  <SCORE.SYSTEM.CONST>
0

>  <SCORE.SYSTEM.DIHEDRAL>
0

>  <SCORE.SYSTEM.SOLV>
0

>  <SCORE.SYSTEM.norm>
0

>  <SCORE.heavy>
32

>  <SCORE.norm>
-0.93293

>  <RMSD>
13.799

$$$$
lig.pdb
 OpenBabel11021811523D
libRbt.so/2013.1/901 2013/11/27
 32 34  0  0  0  0  0  0  0  0999 V2000
    2.9981    2.2534   -2.6631 P   0  0  0  0  0  0  0  0  0  0  0  0
    3.3746    3.2778   -3.7056 O   0  0  0  0  0  0  0  0  0  0  0  0
    1.3809    2.3682   -2.6002 O   0  0  0  0  0  0  0  0  0  0  0  0
    3.2290    0.7951   -2.9715 O   0  0  0  0  0  0  0  0  0  0  0  0
    3.8071    2.5506   -1.4969 O   0  0  0  0  0  0  0  0  0  0  0  0
    3.0392    2.2363   -0.2692 P   0  0  1  0  0  0  0  0  0  0  0  0
    2.4657    0.8781   -0.4185 O   0  0  0  0  0  0  0  0  0  0  0  0
    3.9364    2.2550    0.9095 O   0  0  0  0  0  0  0  0  0  0  0  0
    1.9575    3.2376   -0.0935 O   0  0  0  0  0  0  0  0  0  0  0  0
    1.0234    3.2090    1.0570 P   0  0  1  0  0  0  0  0  0  0  0  0
   -0.3376    2.7314    0.7387 O   0  0  0  0  0  0  0  0  0  0  0  0
    1.5921    2.6744    2.3143 O   0  0  0  0  0  0  0  0  0  0  0  0
    0.7770    4.7802    1.3558 O   0  0  0  0  0  0  0  0  0  0  0  0
    0.5240    5.7172    0.3258 C   0  0  0  0  0  0  0  0  0  0  0  0
   -0.8293    6.4229    0.4898 C   0  0  1  0  0  0  0  0  0  0  0  0
   -1.1639    7.1223   -0.6915 O   0  0  0  0  0  0  0  0  0  0  0  0
   -2.0206    5.4576    0.6194 C   0  0  1  0  0  0  0  0  0  0  0  0
   -2.1752    4.8473    1.8898 O   0  0  0  0  0  0  0  0  0  0  0  0
   -3.2192    6.3222    0.2294 C   0  0  1  0  0  0  0  0  0  0  0  0
   -3.8097    6.9549    1.3511 O   0  0  0  0  0  0  0  0  0  0  0  0
   -2.5544    7.3875   -0.6404 C   0  0  2  0  0  0  0  0  0  0  0  0
   -3.1219    7.5434   -1.9968 N   0  0  0  0  0  0  0  0  0  0  0  0
   -4.2460    6.9960   -2.5616 C   0  0  0  0  0  0  0  0  0  0  0  0
   -4.3953    7.2762   -3.8304 N   0  0  0  0  0  0  0  0  0  0  0  0
   -3.3062    8.0894   -4.1289 C   0  0  0  0  0  0  0  0  0  0  0  0
   -2.8928    8.6826   -5.3647 C   0  0  0  0  0  0  0  0  0  0  0  0
   -3.4162    8.5592   -6.4701 O   0  0  0  0  0  0  0  0  0  0  0  0
   -1.7414    9.4700   -5.2301 N   0  0  0  0  0  0  0  0  0  0  0  0
   -1.0907    9.6835   -4.0242 C   0  0  0  0  0  0  0  0  0  0  0  0
   -0.0642   10.5411   -4.0067 N   0  0  0  0  0  0  0  0  0  0  0  0
   -1.4538    9.0863   -2.8773 N   0  0  0  0  0  0  0  0  0  0  0  0
   -2.5588    8.3003   -2.9945 C   0  0  0  0  0  0  0  0  0  0  0  0
  1  2  2  0  0  0  0
  1  4  1  0  0  0  0
  1  3  1  0  0  0  0
  5  1  1  0  0  0  0
  6  7  2  6  0  0  0
  6  9  1  0  0  0  0
  6  5  1  0  0  0  0
  6  8  1  0  0  0  0
 10 11  2  6  0  0  0
 10 12  1  0  0  0  0
 10 13  1  0  0  0  0
 10  9  1  0  0  0  0
 13 14  1  0  0  0  0
 15 14  1  6  0  0  0
 15 16  1  0  0  0  0
 17 19  1  0  0  0  0
 17 15  1  0  0  0  0
 17 18  1  1  0  0  0
 19 21  1  0  0  0  0
 19 20  1  1  0  0  0
 21 16  1  0  0  0  0
 21 22  1  6  0  0  0
 22 32  1  0  0  0  0
 23 22  1  0  0  0  0
 23 24  2  0  0  0  0
 24 25  1  0  0  0  0
 25 26  1  0  0  0  0
 26 27  2  0  0  0  0
 26 28  1  0  0  0  0
 29 28  1  0  0  0  0
 29 30  1  0  0  0  0
 31 29  2  0  0  0  0
 32 25  2  0  0  0  0
 32 31  1  0  0  0  0
M  END
>  <CHROM.1>
146.24219517,-179.07680365,48.90679244,44.92637799,-105.30959958,120.39947170
-167.44775046,-26.08213502,-179.95714083,132.52421605,-0.06074299,5.13959149
-1.34142553,-0.64092734,0.70086387,-1.14881176

>  <Name>
lig.pdb

>  <RI>
1.17715e+07

>  <Rbt.Current_Directory>
/home/itssahil/PROJECTS/Mol_Feturizer/New_Systems/rnas/5lwj

>  <Rbt.Executable>
rbdock ($Id: //depot/dev/client3/rdock/2013.1/src/exe/rbdock.cxx#4 $)

>  <Rbt.Library>
libRbt.so (2013.1, Build901 2013/11/27)

>  <Rbt.Parameter_File>
/export/apps/rDock/src/rDock_2013.1_src/data/scripts/dock_solv.prm

>  <Rbt.Receptor>
prm/blind_docking_60.prm

>  <SCORE>
-35.7902

>  <SCORE.INTER>
-36.4456

>  <SCORE.INTER.CONST>
1

>  <SCORE.INTER.POLAR>
-2.58203

>  <SCORE.INTER.ROT>
8

>  <SCORE.INTER.SOLV>
26.3509

>  <SCORE.INTER.VDW>
-33.4073

>  <SCORE.INTER.norm>
-1.13893

>  <SCORE.INTRA>
0.628594

>  <SCORE.INTRA.DIHEDRAL>
7.20433

>  <SCORE.INTRA.DIHEDRAL.0>
10.9248

>  <SCORE.INTRA.POLAR>
-0.259461

>  <SCORE.INTRA.POLAR.0>
0

>  <SCORE.INTRA.REPUL>
0.0801479

>  <SCORE.INTRA.REPUL.0>
0

>  <SCORE.INTRA.SOLV>
1.41265

>  <SCORE.INTRA.SOLV.lig_0>
-51.4104

>  <SCORE.INTRA.VDW>
-3.19847

>  <SCORE.INTRA.VDW.0>
0.110327

>  <SCORE.INTRA.norm>
0.0196435

>  <SCORE.RESTR>
0.0268647

>  <SCORE.RESTR.CAVITY>
0.0268647

>  <SCORE.RESTR.norm>
0.000839523

>  <SCORE.SYSTEM>
0

>  <SCORE.SYSTEM.CONST>
0

>  <SCORE.SYSTEM.DIHEDRAL>
0

>  <SCORE.SYSTEM.SOLV>
0

>  <SCORE.SYSTEM.norm>
0

>  <SCORE.heavy>
32

>  <SCORE.norm>
-1.11844

>  <RMSD>
13.801

$$$$
lig.pdb
 OpenBabel11021811523D
libRbt.so/2013.1/901 2013/11/27
 32 34  0  0  0  0  0  0  0  0999 V2000
    5.0464    1.7666   -2.6524 P   0  0  0  0  0  0  0  0  0  0  0  0
    6.0998    2.3073   -3.5882 O   0  0  0  0  0  0  0  0  0  0  0  0
    5.0240    0.1816   -2.9984 O   0  0  0  0  0  0  0  0  0  0  0  0
    5.3203    1.7924   -1.1693 O   0  0  0  0  0  0  0  0  0  0  0  0
    3.8676    2.5857   -2.8578 O   0  0  0  0  0  0  0  0  0  0  0  0
    2.7249    2.0025   -2.1163 P   0  0  1  0  0  0  0  0  0  0  0  0
    1.4795    2.6254   -2.6232 O   0  0  0  0  0  0  0  0  0  0  0  0
    2.6626    0.5406   -2.3475 O   0  0  0  0  0  0  0  0  0  0  0  0
    2.8861    2.2758   -0.6661 O   0  0  0  0  0  0  0  0  0  0  0  0
    1.7634    2.1675    0.2955 P   0  0  1  0  0  0  0  0  0  0  0  0
    0.6687    1.2709   -0.1280 O   0  0  0  0  0  0  0  0  0  0  0  0
    2.1626    2.0347    1.7143 O   0  0  0  0  0  0  0  0  0  0  0  0
    1.0707    3.6269    0.2011 O   0  0  0  0  0  0  0  0  0  0  0  0
    1.2041    4.5969    1.2228 C   0  0  0  0  0  0  0  0  0  0  0  0
    0.2133    5.7589    1.0661 C   0  0  1  0  0  0  0  0  0  0  0  0
    0.6627    6.6558    0.0711 O   0  0  0  0  0  0  0  0  0  0  0  0
   -1.1537    5.3364    0.4998 C   0  0  1  0  0  0  0  0  0  0  0  0
   -2.0266    4.7050    1.4215 O   0  0  0  0  0  0  0  0  0  0  0  0
   -1.7240    6.6413   -0.0554 C   0  0  1  0  0  0  0  0  0  0  0  0
   -2.5080    7.3320    0.9014 O   0  0  0  0  0  0  0  0  0  0  0  0
   -0.4498    7.4428   -0.3154 C   0  0  2  0  0  0  0  0  0  0  0  0
   -0.2930    7.9550   -1.6934 N   0  0  0  0  0  0  0  0  0  0  0  0
    0.8021    7.9705   -2.5199 C   0  0  0  0  0  0  0  0  0  0  0  0
    0.6071    8.5977   -3.6510 N   0  0  0  0  0  0  0  0  0  0  0  0
   -0.7207    9.0094   -3.5864 C   0  0  0  0  0  0  0  0  0  0  0  0
   -1.5077    9.7765   -4.5040 C   0  0  0  0  0  0  0  0  0  0  0  0
   -1.1460   10.2825   -5.5644 O   0  0  0  0  0  0  0  0  0  0  0  0
   -2.8306    9.9465   -4.0738 N   0  0  0  0  0  0  0  0  0  0  0  0
   -3.3362    9.4006   -2.9036 C   0  0  0  0  0  0  0  0  0  0  0  0
   -4.6430    9.5443   -2.6560 N   0  0  0  0  0  0  0  0  0  0  0  0
   -2.5820    8.7230   -2.0228 N   0  0  0  0  0  0  0  0  0  0  0  0
   -1.2881    8.5668   -2.4150 C   0  0  0  0  0  0  0  0  0  0  0  0
  1  2  2  0  0  0  0
  1  4  1  0  0  0  0
  1  3  1  0  0  0  0
  5  1  1  0  0  0  0
  6  7  2  6  0  0  0
  6  9  1  0  0  0  0
  6  5  1  0  0  0  0
  6  8  1  0  0  0  0
 10 11  2  6  0  0  0
 10 12  1  0  0  0  0
 10 13  1  0  0  0  0
 10  9  1  0  0  0  0
 13 14  1  0  0  0  0
 15 14  1  6  0  0  0
 15 16  1  0  0  0  0
 17 19  1  0  0  0  0
 17 15  1  0  0  0  0
 17 18  1  1  0  0  0
 19 21  1  0  0  0  0
 19 20  1  1  0  0  0
 21 16  1  0  0  0  0
 21 22  1  6  0  0  0
 22 32  1  0  0  0  0
 23 22  1  0  0  0  0
 23 24  2  0  0  0  0
 24 25  1  0  0  0  0
 25 26  1  0  0  0  0
 26 27  2  0  0  0  0
 26 28  1  0  0  0  0
 29 28  1  0  0  0  0
 29 30  1  0  0  0  0
 31 29  2  0  0  0  0
 32 25  2  0  0  0  0
 32 31  1  0  0  0  0
M  END
>  <CHROM.1>
172.05161238,162.60468548,-164.97025924,-106.13029495,24.13906161,-166.82701027
-78.21924293,178.42061335,-164.14758816,-11.99470552,0.89221829,4.93565929
-1.51735470,-0.59941871,0.71932655,-0.88595913

>  <Name>
lig.pdb

>  <RI>
4.14043e+07

>  <Rbt.Current_Directory>
/home/itssahil/PROJECTS/Mol_Feturizer/New_Systems/rnas/5lwj

>  <Rbt.Executable>
rbdock ($Id: //depot/dev/client3/rdock/2013.1/src/exe/rbdock.cxx#4 $)

>  <Rbt.Library>
libRbt.so (2013.1, Build901 2013/11/27)

>  <Rbt.Parameter_File>
/export/apps/rDock/src/rDock_2013.1_src/data/scripts/dock_solv.prm

>  <Rbt.Receptor>
prm/blind_docking_80.prm

>  <SCORE>
-27.9294

>  <SCORE.INTER>
-27.4173

>  <SCORE.INTER.CONST>
1

>  <SCORE.INTER.POLAR>
-0.919467

>  <SCORE.INTER.ROT>
8

>  <SCORE.INTER.SOLV>
28.0164

>  <SCORE.INTER.VDW>
-33.4854

>  <SCORE.INTER.norm>
-0.85679

>  <SCORE.INTRA>
-2.09803

>  <SCORE.INTRA.DIHEDRAL>
-1.24134

>  <SCORE.INTRA.DIHEDRAL.0>
10.9248

>  <SCORE.INTRA.POLAR>
0

>  <SCORE.INTRA.POLAR.0>
0

>  <SCORE.INTRA.REPUL>
0

>  <SCORE.INTRA.REPUL.0>
0

>  <SCORE.INTRA.SOLV>
-0.252005

>  <SCORE.INTRA.SOLV.lig_0>
-51.4104

>  <SCORE.INTRA.VDW>
-1.35136

>  <SCORE.INTRA.VDW.0>
0.110327

>  <SCORE.INTRA.norm>
-0.0655634

>  <SCORE.RESTR>
1.58592

>  <SCORE.RESTR.CAVITY>
1.58592

>  <SCORE.RESTR.norm>
0.04956

>  <SCORE.SYSTEM>
0

>  <SCORE.SYSTEM.CONST>
0

>  <SCORE.SYSTEM.DIHEDRAL>
0

>  <SCORE.SYSTEM.SOLV>
0

>  <SCORE.SYSTEM.norm>
0

>  <SCORE.heavy>
32

>  <SCORE.norm>
-0.872793

>  <RMSD>
13.843

$$$$
lig.pdb
 OpenBabel11021811523D
libRbt.so/2013.1/901 2013/11/27
 32 34  0  0  0  0  0  0  0  0999 V2000
    4.7388    1.2898   -0.8871 P   0  0  0  0  0  0  0  0  0  0  0  0
    5.8934    1.0044   -1.8163 O   0  0  0  0  0  0  0  0  0  0  0  0
    4.0534   -0.1678   -0.6919 O   0  0  0  0  0  0  0  0  0  0  0  0
    5.0427    1.7205    0.5262 O   0  0  0  0  0  0  0  0  0  0  0  0
    3.9982    2.3813   -1.4895 O   0  0  0  0  0  0  0  0  0  0  0  0
    2.5787    2.3059   -1.0714 P   0  0  1  0  0  0  0  0  0  0  0  0
    1.8427    3.4074   -1.7354 O   0  0  0  0  0  0  0  0  0  0  0  0
    1.9936    1.0115   -1.4920 O   0  0  0  0  0  0  0  0  0  0  0  0
    2.4908    2.4414    0.4043 O   0  0  0  0  0  0  0  0  0  0  0  0
    1.2720    2.0816    1.1670 P   0  0  1  0  0  0  0  0  0  0  0  0
    0.3937    1.0966    0.5035 O   0  0  0  0  0  0  0  0  0  0  0  0
    1.4815    1.8528    2.6140 O   0  0  0  0  0  0  0  0  0  0  0  0
    0.3905    3.4365    1.0912 O   0  0  0  0  0  0  0  0  0  0  0  0
    0.9651    4.7231    1.2229 C   0  0  0  0  0  0  0  0  0  0  0  0
   -0.0576    5.8496    1.0191 C   0  0  1  0  0  0  0  0  0  0  0  0
    0.4327    6.7948    0.0903 O   0  0  0  0  0  0  0  0  0  0  0  0
   -1.3556    5.3920    0.3310 C   0  0  1  0  0  0  0  0  0  0  0  0
   -2.2728    4.6976    1.1597 O   0  0  0  0  0  0  0  0  0  0  0  0
   -1.9334    6.6906   -0.2313 C   0  0  1  0  0  0  0  0  0  0  0  0
   -2.8201    7.3189    0.6775 O   0  0  0  0  0  0  0  0  0  0  0  0
   -0.6770    7.5494   -0.3631 C   0  0  2  0  0  0  0  0  0  0  0  0
   -0.4312    8.1112   -1.7085 N   0  0  0  0  0  0  0  0  0  0  0  0
    0.7191    8.1700   -2.4539 C   0  0  0  0  0  0  0  0  0  0  0  0
    0.5948    8.8334   -3.5742 N   0  0  0  0  0  0  0  0  0  0  0  0
   -0.7405    9.2250   -3.5904 C   0  0  0  0  0  0  0  0  0  0  0  0
   -1.4727   10.0130   -4.5354 C   0  0  0  0  0  0  0  0  0  0  0  0
   -1.0449   10.5602   -5.5497 O   0  0  0  0  0  0  0  0  0  0  0  0
   -2.8252   10.1503   -4.1950 N   0  0  0  0  0  0  0  0  0  0  0  0
   -3.4036    9.5574   -3.0828 C   0  0  0  0  0  0  0  0  0  0  0  0
   -4.7267    9.6751   -2.9242 N   0  0  0  0  0  0  0  0  0  0  0  0
   -2.7031    8.8597   -2.1739 N   0  0  0  0  0  0  0  0  0  0  0  0
   -1.3823    8.7345   -2.4780 C   0  0  0  0  0  0  0  0  0  0  0  0
  1  2  2  0  0  0  0
  1  4  1  0  0  0  0
  1  3  1  0  0  0  0
  5  1  1  0  0  0  0
  6  7  2  6  0  0  0
  6  9  1  0  0  0  0
  6  5  1  0  0  0  0
  6  8  1  0  0  0  0
 10 11  2  6  0  0  0
 10 12  1  0  0  0  0
 10 13  1  0  0  0  0
 10  9  1  0  0  0  0
 13 14  1  0  0  0  0
 15 14  1  6  0  0  0
 15 16  1  0  0  0  0
 17 19  1  0  0  0  0
 17 15  1  0  0  0  0
 17 18  1  1  0  0  0
 19 21  1  0  0  0  0
 19 20  1  1  0  0  0
 21 16  1  0  0  0  0
 21 22  1  6  0  0  0
 22 32  1  0  0  0  0
 23 22  1  0  0  0  0
 23 24  2  0  0  0  0
 24 25  1  0  0  0  0
 25 26  1  0  0  0  0
 26 27  2  0  0  0  0
 26 28  1  0  0  0  0
 29 28  1  0  0  0  0
 29 30  1  0  0  0  0
 31 29  2  0  0  0  0
 32 25  2  0  0  0  0
 32 31  1  0  0  0  0
M  END
>  <CHROM.1>
152.64800680,-164.61362908,-178.29105369,-40.65635056,24.16506828,176.04230739
-129.82065658,61.99908473,-169.08982906,-10.37217661,0.65747910,4.95953173
-0.95903674,-0.82936616,0.60604134,-0.80934496

>  <Name>
lig.pdb

>  <RI>
2.72908e+07

>  <Rbt.Current_Directory>
/home/itssahil/PROJECTS/Mol_Feturizer/New_Systems/rnas/5lwj

>  <Rbt.Executable>
rbdock ($Id: //depot/dev/client3/rdock/2013.1/src/exe/rbdock.cxx#4 $)

>  <Rbt.Library>
libRbt.so (2013.1, Build901 2013/11/27)

>  <Rbt.Parameter_File>
/export/apps/rDock/src/rDock_2013.1_src/data/scripts/dock_solv.prm

>  <Rbt.Receptor>
prm/blind_docking_20.prm

>  <SCORE>
-35.7476

>  <SCORE.INTER>
-33.815

>  <SCORE.INTER.CONST>
1

>  <SCORE.INTER.POLAR>
-1.96527

>  <SCORE.INTER.ROT>
8

>  <SCORE.INTER.SOLV>
24.4729

>  <SCORE.INTER.VDW>
-33.0834

>  <SCORE.INTER.norm>
-1.05672

>  <SCORE.INTRA>
-2.3533

>  <SCORE.INTRA.DIHEDRAL>
0.0935402

>  <SCORE.INTRA.DIHEDRAL.0>
10.9248

>  <SCORE.INTRA.POLAR>
-0.00720703

>  <SCORE.INTRA.POLAR.0>
0

>  <SCORE.INTRA.REPUL>
0

>  <SCORE.INTRA.REPUL.0>
0

>  <SCORE.INTRA.SOLV>
0.81639

>  <SCORE.INTRA.SOLV.lig_0>
-51.4104

>  <SCORE.INTRA.VDW>
-2.78376

>  <SCORE.INTRA.VDW.0>
0.110327

>  <SCORE.INTRA.norm>
-0.0735405

>  <SCORE.RESTR>
0.420707

>  <SCORE.RESTR.CAVITY>
0.420707

>  <SCORE.RESTR.norm>
0.0131471

>  <SCORE.SYSTEM>
0

>  <SCORE.SYSTEM.CONST>
0

>  <SCORE.SYSTEM.DIHEDRAL>
0

>  <SCORE.SYSTEM.SOLV>
0

>  <SCORE.SYSTEM.norm>
0

>  <SCORE.heavy>
32

>  <SCORE.norm>
-1.11711

>  <RMSD>
13.846

$$$$
lig.pdb
 OpenBabel11021811523D
libRbt.so/2013.1/901 2013/11/27
 32 34  0  0  0  0  0  0  0  0999 V2000
    3.7346    2.1213   -2.9340 P   0  0  0  0  0  0  0  0  0  0  0  0
    4.3036    2.7848   -4.1645 O   0  0  0  0  0  0  0  0  0  0  0  0
    2.6232    3.1863   -2.4212 O   0  0  0  0  0  0  0  0  0  0  0  0
    2.9415    0.8497   -3.1044 O   0  0  0  0  0  0  0  0  0  0  0  0
    4.8706    1.7779   -2.1008 O   0  0  0  0  0  0  0  0  0  0  0  0
    4.3968    1.4097   -0.7460 P   0  0  1  0  0  0  0  0  0  0  0  0
    3.6443    0.1374   -0.8501 O   0  0  0  0  0  0  0  0  0  0  0  0
    5.5522    1.2148    0.1605 O   0  0  0  0  0  0  0  0  0  0  0  0
    3.5210    2.4865   -0.2196 O   0  0  0  0  0  0  0  0  0  0  0  0
    2.8245    2.3820    1.0846 P   0  0  1  0  0  0  0  0  0  0  0  0
    1.7964    1.3238    1.1553 O   0  0  0  0  0  0  0  0  0  0  0  0
    3.7003    2.4789    2.2736 O   0  0  0  0  0  0  0  0  0  0  0  0
    1.9335    3.7323    1.1226 O   0  0  0  0  0  0  0  0  0  0  0  0
    0.5186    3.7076    1.1083 C   0  0  0  0  0  0  0  0  0  0  0  0
   -0.0968    5.1118    1.1844 C   0  0  1  0  0  0  0  0  0  0  0  0
    0.5969    5.9982    0.3303 O   0  0  0  0  0  0  0  0  0  0  0  0
   -1.5239    5.1953    0.6151 C   0  0  1  0  0  0  0  0  0  0  0  0
   -2.5468    4.6919    1.4579 O   0  0  0  0  0  0  0  0  0  0  0  0
   -1.6930    6.6822    0.3039 C   0  0  1  0  0  0  0  0  0  0  0  0
   -2.2523    7.3961    1.3924 O   0  0  0  0  0  0  0  0  0  0  0  0
   -0.2411    7.1214    0.1241 C   0  0  2  0  0  0  0  0  0  0  0  0
    0.0645    7.7918   -1.1578 N   0  0  0  0  0  0  0  0  0  0  0  0
    1.2182    8.3888   -1.5993 C   0  0  0  0  0  0  0  0  0  0  0  0
    1.1032    8.9755   -2.7626 N   0  0  0  0  0  0  0  0  0  0  0  0
   -0.2150    8.7321   -3.1366 C   0  0  0  0  0  0  0  0  0  0  0  0
   -0.9527    9.1521   -4.2895 C   0  0  0  0  0  0  0  0  0  0  0  0
   -0.5682    9.8760   -5.2056 O   0  0  0  0  0  0  0  0  0  0  0  0
   -2.2641    8.6581   -4.3041 N   0  0  0  0  0  0  0  0  0  0  0  0
   -2.7832    7.8220   -3.3270 C   0  0  0  0  0  0  0  0  0  0  0  0
   -4.0145    7.3314   -3.5084 N   0  0  0  0  0  0  0  0  0  0  0  0
   -2.1032    7.4703   -2.2235 N   0  0  0  0  0  0  0  0  0  0  0  0
   -0.8337    7.9594   -2.1827 C   0  0  0  0  0  0  0  0  0  0  0  0
  1  2  2  0  0  0  0
  1  4  1  0  0  0  0
  1  3  1  0  0  0  0
  5  1  1  0  0  0  0
  6  7  2  6  0  0  0
  6  9  1  0  0  0  0
  6  5  1  0  0  0  0
  6  8  1  0  0  0  0
 10 11  2  1  0  0  0
 10 12  1  0  0  0  0
 10 13  1  0  0  0  0
 10  9  1  0  0  0  0
 13 14  1  0  0  0  0
 15 14  1  6  0  0  0
 15 16  1  0  0  0  0
 17 19  1  0  0  0  0
 17 15  1  0  0  0  0
 17 18  1  1  0  0  0
 19 21  1  0  0  0  0
 19 20  1  1  0  0  0
 21 16  1  0  0  0  0
 21 22  1  6  0  0  0
 22 32  1  0  0  0  0
 23 22  1  0  0  0  0
 23 24  2  0  0  0  0
 24 25  1  0  0  0  0
 25 26  1  0  0  0  0
 26 27  2  0  0  0  0
 26 28  1  0  0  0  0
 29 28  1  0  0  0  0
 29 30  1  0  0  0  0
 31 29  2  0  0  0  0
 32 25  2  0  0  0  0
 32 31  1  0  0  0  0
M  END
>  <CHROM.1>
167.04719749,176.39433818,67.77260302,114.68444657,-65.44923656,178.64008915
43.40055984,-177.76465658,55.78357865,-61.12481620,1.19913512,4.67782468
-1.11613217,-0.55453512,0.74069731,-1.08644039

>  <Name>
lig.pdb

>  <RI>
4.14043e+07

>  <Rbt.Current_Directory>
/home/itssahil/PROJECTS/Mol_Feturizer/New_Systems/rnas/5lwj

>  <Rbt.Executable>
rbdock ($Id: //depot/dev/client3/rdock/2013.1/src/exe/rbdock.cxx#4 $)

>  <Rbt.Library>
libRbt.so (2013.1, Build901 2013/11/27)

>  <Rbt.Parameter_File>
/export/apps/rDock/src/rDock_2013.1_src/data/scripts/dock_solv.prm

>  <Rbt.Receptor>
prm/blind_docking_80.prm

>  <SCORE>
-26.5924

>  <SCORE.INTER>
-24.8469

>  <SCORE.INTER.CONST>
1

>  <SCORE.INTER.POLAR>
-0.150384

>  <SCORE.INTER.ROT>
8

>  <SCORE.INTER.SOLV>
27.0339

>  <SCORE.INTER.VDW>
-34.008

>  <SCORE.INTER.norm>
-0.776467

>  <SCORE.INTRA>
-2.63817

>  <SCORE.INTRA.DIHEDRAL>
-4.47122

>  <SCORE.INTRA.DIHEDRAL.0>
10.9248

>  <SCORE.INTRA.POLAR>
0

>  <SCORE.INTRA.POLAR.0>
0

>  <SCORE.INTRA.REPUL>
0

>  <SCORE.INTRA.REPUL.0>
0

>  <SCORE.INTRA.SOLV>
0.0912946

>  <SCORE.INTRA.SOLV.lig_0>
-51.4104

>  <SCORE.INTRA.VDW>
-0.448205

>  <SCORE.INTRA.VDW.0>
0.110327

>  <SCORE.INTRA.norm>
-0.0824427

>  <SCORE.RESTR>
0.892741

>  <SCORE.RESTR.CAVITY>
0.892741

>  <SCORE.RESTR.norm>
0.0278982

>  <SCORE.SYSTEM>
0

>  <SCORE.SYSTEM.CONST>
0

>  <SCORE.SYSTEM.DIHEDRAL>
0

>  <SCORE.SYSTEM.SOLV>
0

>  <SCORE.SYSTEM.norm>
0

>  <SCORE.heavy>
32

>  <SCORE.norm>
-0.831012

>  <RMSD>
13.870

$$$$
lig.pdb
 OpenBabel11021811523D
libRbt.so/2013.1/901 2013/11/27
 32 34  0  0  0  0  0  0  0  0999 V2000
    3.3377    2.2437   -2.2954 P   0  0  0  0  0  0  0  0  0  0  0  0
    4.1856    3.0049   -3.2852 O   0  0  0  0  0  0  0  0  0  0  0  0
    2.1237    3.2732   -1.9811 O   0  0  0  0  0  0  0  0  0  0  0  0
    2.6237    1.0012   -2.7661 O   0  0  0  0  0  0  0  0  0  0  0  0
    4.2369    1.8157   -1.2414 O   0  0  0  0  0  0  0  0  0  0  0  0
    3.4477    1.3514   -0.0764 P   0  0  1  0  0  0  0  0  0  0  0  0
    2.7920    0.0739   -0.4426 O   0  0  0  0  0  0  0  0  0  0  0  0
    4.3410    1.1210    1.0827 O   0  0  0  0  0  0  0  0  0  0  0  0
    2.4292    2.3744    0.2694 O   0  0  0  0  0  0  0  0  0  0  0  0
    1.3244    2.1099    1.2214 P   0  0  1  0  0  0  0  0  0  0  0  0
    0.4385    0.9888    0.8471 O   0  0  0  0  0  0  0  0  0  0  0  0
    1.7040    2.1522    2.6512 O   0  0  0  0  0  0  0  0  0  0  0  0
    0.3615    3.3943    1.0164 O   0  0  0  0  0  0  0  0  0  0  0  0
    0.8708    4.6985    0.8109 C   0  0  0  0  0  0  0  0  0  0  0  0
   -0.1856    5.7877    1.0430 C   0  0  1  0  0  0  0  0  0  0  0  0
   -0.3208    6.5933   -0.1100 O   0  0  0  0  0  0  0  0  0  0  0  0
   -1.6154    5.2414    1.2016 C   0  0  1  0  0  0  0  0  0  0  0  0
   -1.9134    4.6711    2.4649 O   0  0  0  0  0  0  0  0  0  0  0  0
   -2.4928    6.4501    0.8771 C   0  0  1  0  0  0  0  0  0  0  0  0
   -2.8179    7.2008    2.0337 O   0  0  0  0  0  0  0  0  0  0  0  0
   -1.5548    7.2797    0.0022 C   0  0  2  0  0  0  0  0  0  0  0  0
   -2.0876    7.6480   -1.3269 N   0  0  0  0  0  0  0  0  0  0  0  0
   -3.3415    7.4890   -1.8605 C   0  0  0  0  0  0  0  0  0  0  0  0
   -3.4357    7.8452   -3.1155 N   0  0  0  0  0  0  0  0  0  0  0  0
   -2.1595    8.2978   -3.4365 C   0  0  0  0  0  0  0  0  0  0  0  0
   -1.6215    8.7794   -4.6729 C   0  0  0  0  0  0  0  0  0  0  0  0
   -2.1903    8.8597   -5.7598 O   0  0  0  0  0  0  0  0  0  0  0  0
   -0.2810    9.1733   -4.5645 N   0  0  0  0  0  0  0  0  0  0  0  0
    0.4393    9.1365   -3.3800 C   0  0  0  0  0  0  0  0  0  0  0  0
    1.6789    9.6395   -3.3820 N   0  0  0  0  0  0  0  0  0  0  0  0
   -0.0547    8.6389   -2.2345 N   0  0  0  0  0  0  0  0  0  0  0  0
   -1.3500    8.2314   -2.3274 C   0  0  0  0  0  0  0  0  0  0  0  0
  1  2  2  0  0  0  0
  1  4  1  0  0  0  0
  1  3  1  0  0  0  0
  5  1  1  0  0  0  0
  6  7  2  6  0  0  0
  6  9  1  0  0  0  0
  6  5  1  0  0  0  0
  6  8  1  0  0  0  0
 10 11  2  6  0  0  0
 10 12  1  0  0  0  0
 10 13  1  0  0  0  0
 10  9  1  0  0  0  0
 13 14  1  0  0  0  0
 15 14  1  6  0  0  0
 15 16  1  0  0  0  0
 17 19  1  0  0  0  0
 17 15  1  0  0  0  0
 17 18  1  1  0  0  0
 19 21  1  0  0  0  0
 19 20  1  1  0  0  0
 21 16  1  0  0  0  0
 21 22  1  6  0  0  0
 22 32  1  0  0  0  0
 23 22  1  0  0  0  0
 23 24  2  0  0  0  0
 24 25  1  0  0  0  0
 25 26  1  0  0  0  0
 26 27  2  0  0  0  0
 26 28  1  0  0  0  0
 29 28  1  0  0  0  0
 29 30  1  0  0  0  0
 31 29  2  0  0  0  0
 32 25  2  0  0  0  0
 32 31  1  0  0  0  0
M  END
>  <CHROM.1>
166.39803391,168.49504832,70.19559529,-38.54921062,-58.78657231,-163.54959610
-123.36139286,142.65931849,55.76906530,131.92375413,0.60939952,4.74598071
-0.90373647,-0.79901117,0.72732297,-0.92648532

>  <Name>
lig.pdb

>  <RI>
4.14043e+07

>  <Rbt.Current_Directory>
/home/itssahil/PROJECTS/Mol_Feturizer/New_Systems/rnas/5lwj

>  <Rbt.Executable>
rbdock ($Id: //depot/dev/client3/rdock/2013.1/src/exe/rbdock.cxx#4 $)

>  <Rbt.Library>
libRbt.so (2013.1, Build901 2013/11/27)

>  <Rbt.Parameter_File>
/export/apps/rDock/src/rDock_2013.1_src/data/scripts/dock_solv.prm

>  <Rbt.Receptor>
prm/blind_docking_80.prm

>  <SCORE>
-20.1432

>  <SCORE.INTER>
-22.8976

>  <SCORE.INTER.CONST>
1

>  <SCORE.INTER.POLAR>
-2.40702

>  <SCORE.INTER.ROT>
8

>  <SCORE.INTER.SOLV>
25.6738

>  <SCORE.INTER.VDW>
-24.733

>  <SCORE.INTER.norm>
-0.715551

>  <SCORE.INTRA>
1.74559

>  <SCORE.INTRA.DIHEDRAL>
4.53549

>  <SCORE.INTRA.DIHEDRAL.0>
10.9248

>  <SCORE.INTRA.POLAR>
0

>  <SCORE.INTRA.POLAR.0>
0

>  <SCORE.INTRA.REPUL>
0.0749061

>  <SCORE.INTRA.REPUL.0>
0

>  <SCORE.INTRA.SOLV>
0.507523

>  <SCORE.INTRA.SOLV.lig_0>
-51.4104

>  <SCORE.INTRA.VDW>
-1.15044

>  <SCORE.INTRA.VDW.0>
0.110327

>  <SCORE.INTRA.norm>
0.0545498

>  <SCORE.RESTR>
1.00886

>  <SCORE.RESTR.CAVITY>
1.00886

>  <SCORE.RESTR.norm>
0.031527

>  <SCORE.SYSTEM>
0

>  <SCORE.SYSTEM.CONST>
0

>  <SCORE.SYSTEM.DIHEDRAL>
0

>  <SCORE.SYSTEM.SOLV>
0

>  <SCORE.SYSTEM.norm>
0

>  <SCORE.heavy>
32

>  <SCORE.norm>
-0.629475

>  <RMSD>
13.883

$$$$
lig.pdb
 OpenBabel11021811523D
libRbt.so/2013.1/901 2013/11/27
 32 34  0  0  0  0  0  0  0  0999 V2000
    4.1915    1.1974   -0.0914 P   0  0  0  0  0  0  0  0  0  0  0  0
    4.1695   -0.0135   -0.9921 O   0  0  0  0  0  0  0  0  0  0  0  0
    3.2137    0.7667    1.1297 O   0  0  0  0  0  0  0  0  0  0  0  0
    5.4809    1.5509    0.6069 O   0  0  0  0  0  0  0  0  0  0  0  0
    3.8670    2.3315   -0.9347 O   0  0  0  0  0  0  0  0  0  0  0  0
    2.4481    2.2467   -1.3531 P   0  0  1  0  0  0  0  0  0  0  0  0
    2.3716    2.5772   -2.7956 O   0  0  0  0  0  0  0  0  0  0  0  0
    1.9388    0.8712   -1.1450 O   0  0  0  0  0  0  0  0  0  0  0  0
    1.6410    3.2070   -0.5594 O   0  0  0  0  0  0  0  0  0  0  0  0
    1.2067    2.9267    0.8298 P   0  0  1  0  0  0  0  0  0  0  0  0
    0.4598    1.6641    1.0029 O   0  0  0  0  0  0  0  0  0  0  0  0
    2.2224    3.1964    1.8717 O   0  0  0  0  0  0  0  0  0  0  0  0
    0.0611    4.0424    1.0776 O   0  0  0  0  0  0  0  0  0  0  0  0
    0.2675    5.4150    0.8018 C   0  0  0  0  0  0  0  0  0  0  0  0
   -1.0422    6.2153    0.7773 C   0  0  1  0  0  0  0  0  0  0  0  0
   -1.1414    6.9569   -0.4212 O   0  0  0  0  0  0  0  0  0  0  0  0
   -2.3038    5.3379    0.6974 C   0  0  1  0  0  0  0  0  0  0  0  0
   -2.6942    4.7196    1.9120 O   0  0  0  0  0  0  0  0  0  0  0  0
   -3.3647    6.2945    0.1536 C   0  0  1  0  0  0  0  0  0  0  0  0
   -4.0750    6.9500    1.1894 O   0  0  0  0  0  0  0  0  0  0  0  0
   -2.5012    7.3225   -0.5751 C   0  0  2  0  0  0  0  0  0  0  0  0
   -2.8411    7.5421   -1.9972 N   0  0  0  0  0  0  0  0  0  0  0  0
   -3.5771    6.7775   -2.8667 C   0  0  0  0  0  0  0  0  0  0  0  0
   -3.5933    7.2316   -4.0932 N   0  0  0  0  0  0  0  0  0  0  0  0
   -2.8341    8.3964   -4.0338 C   0  0  0  0  0  0  0  0  0  0  0  0
   -2.4523    9.3172   -5.0616 C   0  0  0  0  0  0  0  0  0  0  0  0
   -2.6953    9.2445   -6.2645 O   0  0  0  0  0  0  0  0  0  0  0  0
   -1.7022   10.3954   -4.5728 N   0  0  0  0  0  0  0  0  0  0  0  0
   -1.3924   10.5736   -3.2329 C   0  0  0  0  0  0  0  0  0  0  0  0
   -0.7617   11.6986   -2.8776 N   0  0  0  0  0  0  0  0  0  0  0  0
   -1.7112    9.6826   -2.2799 N   0  0  0  0  0  0  0  0  0  0  0  0
   -2.4221    8.6175   -2.7410 C   0  0  0  0  0  0  0  0  0  0  0  0
  1  2  2  0  0  0  0
  1  4  1  0  0  0  0
  1  3  1  0  0  0  0
  5  1  1  0  0  0  0
  6  7  2  6  0  0  0
  6  9  1  0  0  0  0
  6  5  1  0  0  0  0
  6  8  1  0  0  0  0
 10 11  2  1  0  0  0
 10 12  1  0  0  0  0
 10 13  1  0  0  0  0
 10  9  1  0  0  0  0
 13 14  1  0  0  0  0
 15 14  1  6  0  0  0
 15 16  1  0  0  0  0
 17 19  1  0  0  0  0
 17 15  1  0  0  0  0
 17 18  1  1  0  0  0
 19 21  1  0  0  0  0
 19 20  1  1  0  0  0
 21 16  1  0  0  0  0
 21 22  1  6  0  0  0
 22 32  1  0  0  0  0
 23 22  1  0  0  0  0
 23 24  2  0  0  0  0
 24 25  1  0  0  0  0
 25 26  1  0  0  0  0
 26 27  2  0  0  0  0
 26 28  1  0  0  0  0
 29 28  1  0  0  0  0
 29 30  1  0  0  0  0
 31 29  2  0  0  0  0
 32 25  2  0  0  0  0
 32 31  1  0  0  0  0
M  END
>  <CHROM.1>
69.24848672,-78.96208098,-136.34918751,-50.22195457,-54.78619097,165.61609864
-127.80843458,66.42209476,175.89874579,106.72680170,0.09497318,5.01234174
-0.98358154,-0.76380020,0.64265718,-0.94688410

>  <Name>
lig.pdb

>  <RI>
2.72908e+07

>  <Rbt.Current_Directory>
/home/itssahil/PROJECTS/Mol_Feturizer/New_Systems/rnas/5lwj

>  <Rbt.Executable>
rbdock ($Id: //depot/dev/client3/rdock/2013.1/src/exe/rbdock.cxx#4 $)

>  <Rbt.Library>
libRbt.so (2013.1, Build901 2013/11/27)

>  <Rbt.Parameter_File>
/export/apps/rDock/src/rDock_2013.1_src/data/scripts/dock_solv.prm

>  <Rbt.Receptor>
prm/blind_docking_20.prm

>  <SCORE>
-29.1707

>  <SCORE.INTER>
-31.0107

>  <SCORE.INTER.CONST>
1

>  <SCORE.INTER.POLAR>
-2.6109

>  <SCORE.INTER.ROT>
8

>  <SCORE.INTER.SOLV>
23.7084

>  <SCORE.INTER.VDW>
-28.8069

>  <SCORE.INTER.norm>
-0.969083

>  <SCORE.INTRA>
1.59654

>  <SCORE.INTRA.DIHEDRAL>
1.2783

>  <SCORE.INTRA.DIHEDRAL.0>
10.9248

>  <SCORE.INTRA.POLAR>
-0.0386227

>  <SCORE.INTRA.POLAR.0>
0

>  <SCORE.INTRA.REPUL>
0

>  <SCORE.INTRA.REPUL.0>
0

>  <SCORE.INTRA.SOLV>
1.05237

>  <SCORE.INTRA.SOLV.lig_0>
-51.4104

>  <SCORE.INTRA.VDW>
0.562518

>  <SCORE.INTRA.VDW.0>
0.110327

>  <SCORE.INTRA.norm>
0.0498918

>  <SCORE.RESTR>
0.243458

>  <SCORE.RESTR.CAVITY>
0.243458

>  <SCORE.RESTR.norm>
0.00760806

>  <SCORE.SYSTEM>
0

>  <SCORE.SYSTEM.CONST>
0

>  <SCORE.SYSTEM.DIHEDRAL>
0

>  <SCORE.SYSTEM.SOLV>
0

>  <SCORE.SYSTEM.norm>
0

>  <SCORE.heavy>
32

>  <SCORE.norm>
-0.911583

>  <RMSD>
13.888

$$$$
lig.pdb
 OpenBabel11021811523D
libRbt.so/2013.1/901 2013/11/27
 32 34  0  0  0  0  0  0  0  0999 V2000
    5.0514    1.5063   -2.4108 P   0  0  0  0  0  0  0  0  0  0  0  0
    5.0235    2.6809   -3.3581 O   0  0  0  0  0  0  0  0  0  0  0  0
    4.8935    0.2303   -3.4006 O   0  0  0  0  0  0  0  0  0  0  0  0
    6.3309    1.2112   -1.6686 O   0  0  0  0  0  0  0  0  0  0  0  0
    4.0531    1.7841   -1.3964 O   0  0  0  0  0  0  0  0  0  0  0  0
    2.7562    2.0830   -2.0477 P   0  0  1  0  0  0  0  0  0  0  0  0
    2.7877    3.4888   -2.5154 O   0  0  0  0  0  0  0  0  0  0  0  0
    2.5557    1.1906   -3.2131 O   0  0  0  0  0  0  0  0  0  0  0  0
    1.6562    1.8881   -1.0702 O   0  0  0  0  0  0  0  0  0  0  0  0
    1.7577    2.3257    0.3423 P   0  0  1  0  0  0  0  0  0  0  0  0
    1.0126    1.4897    1.3054 O   0  0  0  0  0  0  0  0  0  0  0  0
    3.1146    2.7210    0.7812 O   0  0  0  0  0  0  0  0  0  0  0  0
    0.9083    3.7031    0.3511 O   0  0  0  0  0  0  0  0  0  0  0  0
    0.3533    4.2439    1.5353 C   0  0  0  0  0  0  0  0  0  0  0  0
   -0.4755    5.5093    1.2739 C   0  0  1  0  0  0  0  0  0  0  0  0
    0.2684    6.4326    0.5055 O   0  0  0  0  0  0  0  0  0  0  0  0
   -1.6973    5.2746    0.3684 C   0  0  1  0  0  0  0  0  0  0  0  0
   -2.8123    4.6633    0.9954 O   0  0  0  0  0  0  0  0  0  0  0  0
   -2.0126    6.6709   -0.1673 C   0  0  1  0  0  0  0  0  0  0  0  0
   -2.9444    7.3589    0.6486 O   0  0  0  0  0  0  0  0  0  0  0  0
   -0.6533    7.3570   -0.0444 C   0  0  2  0  0  0  0  0  0  0  0  0
   -0.1321    7.9593   -1.2900 N   0  0  0  0  0  0  0  0  0  0  0  0
    1.1126    8.4531   -1.5889 C   0  0  0  0  0  0  0  0  0  0  0  0
    1.1961    9.0076   -2.7706 N   0  0  0  0  0  0  0  0  0  0  0  0
   -0.0773    8.8512   -3.3097 C   0  0  0  0  0  0  0  0  0  0  0  0
   -0.6237    9.2865   -4.5595 C   0  0  0  0  0  0  0  0  0  0  0  0
   -0.0676    9.9486   -5.4334 O   0  0  0  0  0  0  0  0  0  0  0  0
   -1.9568    8.8920   -4.7356 N   0  0  0  0  0  0  0  0  0  0  0  0
   -2.6626    8.1304   -3.8164 C   0  0  0  0  0  0  0  0  0  0  0  0
   -3.8946    7.7276   -4.1474 N   0  0  0  0  0  0  0  0  0  0  0  0
   -2.1615    7.7657   -2.6249 N   0  0  0  0  0  0  0  0  0  0  0  0
   -0.8736    8.1594   -2.4281 C   0  0  0  0  0  0  0  0  0  0  0  0
  1  2  2  0  0  0  0
  1  4  1  0  0  0  0
  1  3  1  0  0  0  0
  5  1  1  0  0  0  0
  6  7  2  6  0  0  0
  6  9  1  0  0  0  0
  6  5  1  0  0  0  0
  6  8  1  0  0  0  0
 10 11  2  1  0  0  0
 10 12  1  0  0  0  0
 10 13  1  0  0  0  0
 10  9  1  0  0  0  0
 13 14  1  0  0  0  0
 15 14  1  6  0  0  0
 15 16  1  0  0  0  0
 17 19  1  0  0  0  0
 17 15  1  0  0  0  0
 17 18  1  1  0  0  0
 19 21  1  0  0  0  0
 19 20  1  1  0  0  0
 21 16  1  0  0  0  0
 21 22  1  6  0  0  0
 22 32  1  0  0  0  0
 23 22  1  0  0  0  0
 23 24  2  0  0  0  0
 24 25  1  0  0  0  0
 25 26  1  0  0  0  0
 26 27  2  0  0  0  0
 26 28  1  0  0  0  0
 29 28  1  0  0  0  0
 29 30  1  0  0  0  0
 31 29  2  0  0  0  0
 32 25  2  0  0  0  0
 32 31  1  0  0  0  0
M  END
>  <CHROM.1>
53.27645012,41.18835093,-79.86758000,158.29351496,-148.40737992,-176.63663521
-50.97320638,65.03201053,-169.01092407,-44.24440162,0.99264914,4.79087860
-1.51685596,-0.59688689,0.69247543,-0.87963011

>  <Name>
lig.pdb

>  <RI>
3.17878e+07

>  <Rbt.Current_Directory>
/home/itssahil/PROJECTS/Mol_Feturizer/New_Systems/rnas/5lwj

>  <Rbt.Executable>
rbdock ($Id: //depot/dev/client3/rdock/2013.1/src/exe/rbdock.cxx#4 $)

>  <Rbt.Library>
libRbt.so (2013.1, Build901 2013/11/27)

>  <Rbt.Parameter_File>
/export/apps/rDock/src/rDock_2013.1_src/data/scripts/dock_solv.prm

>  <Rbt.Receptor>
prm/blind_docking_100.prm

>  <SCORE>
-20.6566

>  <SCORE.INTER>
-22.0958

>  <SCORE.INTER.CONST>
1

>  <SCORE.INTER.POLAR>
-0.660303

>  <SCORE.INTER.ROT>
8

>  <SCORE.INTER.SOLV>
26.2891

>  <SCORE.INTER.VDW>
-30.2259

>  <SCORE.INTER.norm>
-0.690495

>  <SCORE.INTRA>
-1.21142

>  <SCORE.INTRA.DIHEDRAL>
-3.47594

>  <SCORE.INTRA.DIHEDRAL.0>
10.9248

>  <SCORE.INTRA.POLAR>
-0.0269264

>  <SCORE.INTRA.POLAR.0>
0

>  <SCORE.INTRA.REPUL>
0

>  <SCORE.INTRA.REPUL.0>
0

>  <SCORE.INTRA.SOLV>
0.262457

>  <SCORE.INTRA.SOLV.lig_0>
-51.4104

>  <SCORE.INTRA.VDW>
0.48687

>  <SCORE.INTRA.VDW.0>
0.110327

>  <SCORE.INTRA.norm>
-0.037857

>  <SCORE.RESTR>
2.65064

>  <SCORE.RESTR.CAVITY>
2.65064

>  <SCORE.RESTR.norm>
0.0828325

>  <SCORE.SYSTEM>
0

>  <SCORE.SYSTEM.CONST>
0

>  <SCORE.SYSTEM.DIHEDRAL>
0

>  <SCORE.SYSTEM.SOLV>
0

>  <SCORE.SYSTEM.norm>
0

>  <SCORE.heavy>
32

>  <SCORE.norm>
-0.645519

>  <RMSD>
13.906

$$$$
lig.pdb
 OpenBabel11021811523D
libRbt.so/2013.1/901 2013/11/27
 32 34  0  0  0  0  0  0  0  0999 V2000
    3.1969    2.0070   -2.1861 P   0  0  0  0  0  0  0  0  0  0  0  0
    3.7939    1.8753   -3.5661 O   0  0  0  0  0  0  0  0  0  0  0  0
    4.4794    2.3752   -1.2630 O   0  0  0  0  0  0  0  0  0  0  0  0
    2.2426    3.1445   -1.9209 O   0  0  0  0  0  0  0  0  0  0  0  0
    2.4445    0.7890   -1.9557 O   0  0  0  0  0  0  0  0  0  0  0  0
    2.2398    0.6020   -0.5001 P   0  0  1  0  0  0  0  0  0  0  0  0
    1.3645   -0.5777   -0.3048 O   0  0  0  0  0  0  0  0  0  0  0  0
    3.5390    0.3555    0.1677 O   0  0  0  0  0  0  0  0  0  0  0  0
    1.6045    1.8169    0.0692 O   0  0  0  0  0  0  0  0  0  0  0  0
    1.9362    2.3324    1.4187 P   0  0  1  0  0  0  0  0  0  0  0  0
    1.5620    1.4383    2.5332 O   0  0  0  0  0  0  0  0  0  0  0  0
    3.2736    2.9540    1.5421 O   0  0  0  0  0  0  0  0  0  0  0  0
    0.8972    3.5602    1.5970 O   0  0  0  0  0  0  0  0  0  0  0  0
    0.9489    4.7206    0.7887 C   0  0  0  0  0  0  0  0  0  0  0  0
   -0.1472    5.7353    1.1424 C   0  0  1  0  0  0  0  0  0  0  0  0
   -0.2295    6.7351    0.1475 O   0  0  0  0  0  0  0  0  0  0  0  0
   -1.5699    5.1502    1.1040 C   0  0  1  0  0  0  0  0  0  0  0  0
   -1.9328    4.3558    2.2209 O   0  0  0  0  0  0  0  0  0  0  0  0
   -2.4553    6.3860    0.9451 C   0  0  1  0  0  0  0  0  0  0  0  0
   -2.8718    6.9095    2.1939 O   0  0  0  0  0  0  0  0  0  0  0  0
   -1.4850    7.3731    0.2989 C   0  0  2  0  0  0  0  0  0  0  0  0
   -1.9417    7.9698   -0.9744 N   0  0  0  0  0  0  0  0  0  0  0  0
   -3.2080    8.2321   -1.4329 C   0  0  0  0  0  0  0  0  0  0  0  0
   -3.2479    8.6797   -2.6612 N   0  0  0  0  0  0  0  0  0  0  0  0
   -1.9110    8.7447   -3.0424 C   0  0  0  0  0  0  0  0  0  0  0  0
   -1.3105    9.1192   -4.2870 C   0  0  0  0  0  0  0  0  0  0  0  0
   -1.8781    9.4373   -5.3301 O   0  0  0  0  0  0  0  0  0  0  0  0
    0.0898    9.0814   -4.2469 N   0  0  0  0  0  0  0  0  0  0  0  0
    0.8194    8.7525   -3.1144 C   0  0  0  0  0  0  0  0  0  0  0  0
    2.1519    8.8560   -3.1727 N   0  0  0  0  0  0  0  0  0  0  0  0
    0.2515    8.3553   -1.9639 N   0  0  0  0  0  0  0  0  0  0  0  0
   -1.1092    8.3656   -1.9920 C   0  0  0  0  0  0  0  0  0  0  0  0
  1  2  2  0  0  0  0
  1  4  1  0  0  0  0
  1  3  1  0  0  0  0
  5  1  1  0  0  0  0
  6  7  2  1  0  0  0
  6  9  1  0  0  0  0
  6  5  1  0  0  0  0
  6  8  1  0  0  0  0
 10 11  2  1  0  0  0
 10 12  1  0  0  0  0
 10 13  1  0  0  0  0
 10  9  1  0  0  0  0
 13 14  1  0  0  0  0
 15 14  1  6  0  0  0
 15 16  1  0  0  0  0
 17 19  1  0  0  0  0
 17 15  1  0  0  0  0
 17 18  1  1  0  0  0
 19 21  1  0  0  0  0
 19 20  1  1  0  0  0
 21 16  1  0  0  0  0
 21 22  1  6  0  0  0
 22 32  1  0  0  0  0
 23 22  1  0  0  0  0
 23 24  2  0  0  0  0
 24 25  1  0  0  0  0
 25 26  1  0  0  0  0
 26 27  2  0  0  0  0
 26 28  1  0  0  0  0
 29 28  1  0  0  0  0
 29 30  1  0  0  0  0
 31 29  2  0  0  0  0
 32 25  2  0  0  0  0
 32 31  1  0  0  0  0
M  END
>  <CHROM.1>
159.66333441,-143.69470398,174.84227975,-65.25546540,-64.99541366,179.52163126
-168.02251065,71.85572701,68.81319792,153.25060011,0.65618506,4.68311814
-0.77230655,-0.81971438,0.79823480,-0.86681443

>  <Name>
lig.pdb

>  <RI>
2.72908e+07

>  <Rbt.Current_Directory>
/home/itssahil/PROJECTS/Mol_Feturizer/New_Systems/rnas/5lwj

>  <Rbt.Executable>
rbdock ($Id: //depot/dev/client3/rdock/2013.1/src/exe/rbdock.cxx#4 $)

>  <Rbt.Library>
libRbt.so (2013.1, Build901 2013/11/27)

>  <Rbt.Parameter_File>
/export/apps/rDock/src/rDock_2013.1_src/data/scripts/dock_solv.prm

>  <Rbt.Receptor>
prm/blind_docking_20.prm

>  <SCORE>
-19.3621

>  <SCORE.INTER>
-16.3856

>  <SCORE.INTER.CONST>
1

>  <SCORE.INTER.POLAR>
-1.63828

>  <SCORE.INTER.ROT>
8

>  <SCORE.INTER.SOLV>
27.683

>  <SCORE.INTER.VDW>
-23.6238

>  <SCORE.INTER.norm>
-0.51205

>  <SCORE.INTRA>
-3.30183

>  <SCORE.INTRA.DIHEDRAL>
-4.45177

>  <SCORE.INTRA.DIHEDRAL.0>
10.9248

>  <SCORE.INTRA.POLAR>
0

>  <SCORE.INTRA.POLAR.0>
0

>  <SCORE.INTRA.REPUL>
0.334995

>  <SCORE.INTRA.REPUL.0>
0

>  <SCORE.INTRA.SOLV>
-0.0261803

>  <SCORE.INTRA.SOLV.lig_0>
-51.4104

>  <SCORE.INTRA.VDW>
-2.73783

>  <SCORE.INTRA.VDW.0>
0.110327

>  <SCORE.INTRA.norm>
-0.103182

>  <SCORE.RESTR>
0.32532

>  <SCORE.RESTR.CAVITY>
0.32532

>  <SCORE.RESTR.norm>
0.0101663

>  <SCORE.SYSTEM>
0

>  <SCORE.SYSTEM.CONST>
0

>  <SCORE.SYSTEM.DIHEDRAL>
0

>  <SCORE.SYSTEM.SOLV>
0

>  <SCORE.SYSTEM.norm>
0

>  <SCORE.heavy>
32

>  <SCORE.norm>
-0.605066

>  <RMSD>
13.916

$$$$
lig.pdb
 OpenBabel11021811523D
libRbt.so/2013.1/901 2013/11/27
 32 34  0  0  0  0  0  0  0  0999 V2000
    3.1345    2.3153   -2.4676 P   0  0  0  0  0  0  0  0  0  0  0  0
    3.6505    2.3196   -3.8859 O   0  0  0  0  0  0  0  0  0  0  0  0
    4.4741    2.5647   -1.5868 O   0  0  0  0  0  0  0  0  0  0  0  0
    2.2211    3.4335   -2.0312 O   0  0  0  0  0  0  0  0  0  0  0  0
    2.3700    1.0917   -2.3218 O   0  0  0  0  0  0  0  0  0  0  0  0
    2.3277    0.7024   -0.8927 P   0  0  1  0  0  0  0  0  0  0  0  0
    1.2085   -0.2509   -0.7069 O   0  0  0  0  0  0  0  0  0  0  0  0
    3.5958    0.0393   -0.5093 O   0  0  0  0  0  0  0  0  0  0  0  0
    2.1204    1.9119   -0.0574 O   0  0  0  0  0  0  0  0  0  0  0  0
    1.2942    1.8993    1.1731 P   0  0  1  0  0  0  0  0  0  0  0  0
    0.2493    0.8559    1.2076 O   0  0  0  0  0  0  0  0  0  0  0  0
    2.0466    2.0682    2.4363 O   0  0  0  0  0  0  0  0  0  0  0  0
    0.4232    3.2559    1.0321 O   0  0  0  0  0  0  0  0  0  0  0  0
    1.0098    4.5037    0.7137 C   0  0  0  0  0  0  0  0  0  0  0  0
    0.0987    5.6895    1.0601 C   0  0  1  0  0  0  0  0  0  0  0  0
    0.0639    6.6105   -0.0109 O   0  0  0  0  0  0  0  0  0  0  0  0
   -1.3881    5.3133    1.1860 C   0  0  1  0  0  0  0  0  0  0  0  0
   -1.7534    4.6683    2.3946 O   0  0  0  0  0  0  0  0  0  0  0  0
   -2.1075    6.6471    0.9872 C   0  0  1  0  0  0  0  0  0  0  0  0
   -2.3342    7.3203    2.2129 O   0  0  0  0  0  0  0  0  0  0  0  0
   -1.0741    7.4318    0.1810 C   0  0  2  0  0  0  0  0  0  0  0  0
   -1.5584    7.9870   -1.1009 N   0  0  0  0  0  0  0  0  0  0  0  0
   -2.8356    8.1915   -1.5584 C   0  0  0  0  0  0  0  0  0  0  0  0
   -2.8974    8.6150   -2.7944 N   0  0  0  0  0  0  0  0  0  0  0  0
   -1.5655    8.7250   -3.1825 C   0  0  0  0  0  0  0  0  0  0  0  0
   -0.9847    9.1000   -4.4363 C   0  0  0  0  0  0  0  0  0  0  0  0
   -1.5681    9.3768   -5.4824 O   0  0  0  0  0  0  0  0  0  0  0  0
    0.4162    9.1174   -4.4016 N   0  0  0  0  0  0  0  0  0  0  0  0
    1.1622    8.8378   -3.2666 C   0  0  0  0  0  0  0  0  0  0  0  0
    2.4894    8.9920   -3.3326 N   0  0  0  0  0  0  0  0  0  0  0  0
    0.6145    8.4397   -2.1067 N   0  0  0  0  0  0  0  0  0  0  0  0
   -0.7457    8.3965   -2.1290 C   0  0  0  0  0  0  0  0  0  0  0  0
  1  2  2  0  0  0  0
  1  4  1  0  0  0  0
  1  3  1  0  0  0  0
  5  1  1  0  0  0  0
  6  7  2  1  0  0  0
  6  9  1  0  0  0  0
  6  5  1  0  0  0  0
  6  8  1  0  0  0  0
 10 11  2  1  0  0  0
 10 12  1  0  0  0  0
 10 13  1  0  0  0  0
 10  9  1  0  0  0  0
 13 14  1  0  0  0  0
 15 14  1  6  0  0  0
 15 16  1  0  0  0  0
 17 19  1  0  0  0  0
 17 15  1  0  0  0  0
 17 18  1  1  0  0  0
 19 21  1  0  0  0  0
 19 20  1  1  0  0  0
 21 16  1  0  0  0  0
 21 22  1  6  0  0  0
 22 32  1  0  0  0  0
 23 22  1  0  0  0  0
 23 24  2  0  0  0  0
 24 25  1  0  0  0  0
 25 26  1  0  0  0  0
 26 27  2  0  0  0  0
 26 28  1  0  0  0  0
 29 28  1  0  0  0  0
 29 30  1  0  0  0  0
 31 29  2  0  0  0  0
 32 25  2  0  0  0  0
 32 31  1  0  0  0  0
M  END
>  <CHROM.1>
155.52307172,143.60509441,161.53107739,-48.70682497,-25.68710140,-162.02129528
-134.02800307,-14.72882985,36.14042417,141.34665646,0.69768239,4.69551005
-0.97393516,-0.92335362,0.83857987,-0.77858409

>  <Name>
lig.pdb

>  <RI>
3.17878e+07

>  <Rbt.Current_Directory>
/home/itssahil/PROJECTS/Mol_Feturizer/New_Systems/rnas/5lwj

>  <Rbt.Executable>
rbdock ($Id: //depot/dev/client3/rdock/2013.1/src/exe/rbdock.cxx#4 $)

>  <Rbt.Library>
libRbt.so (2013.1, Build901 2013/11/27)

>  <Rbt.Parameter_File>
/export/apps/rDock/src/rDock_2013.1_src/data/scripts/dock_solv.prm

>  <Rbt.Receptor>
prm/blind_docking_100.prm

>  <SCORE>
-9.68747

>  <SCORE.INTER>
-17.001

>  <SCORE.INTER.CONST>
1

>  <SCORE.INTER.POLAR>
-2.39671

>  <SCORE.INTER.ROT>
8

>  <SCORE.INTER.SOLV>
29.3486

>  <SCORE.INTER.VDW>
-22.0611

>  <SCORE.INTER.norm>
-0.53128

>  <SCORE.INTRA>
6.22874

>  <SCORE.INTRA.DIHEDRAL>
11.0292

>  <SCORE.INTRA.DIHEDRAL.0>
10.9248

>  <SCORE.INTRA.POLAR>
0

>  <SCORE.INTRA.POLAR.0>
0

>  <SCORE.INTRA.REPUL>
0.197261

>  <SCORE.INTRA.REPUL.0>
0

>  <SCORE.INTRA.SOLV>
0.317901

>  <SCORE.INTRA.SOLV.lig_0>
-51.4104

>  <SCORE.INTRA.VDW>
-0.431091

>  <SCORE.INTRA.VDW.0>
0.110327

>  <SCORE.INTRA.norm>
0.194648

>  <SCORE.RESTR>
1.08476

>  <SCORE.RESTR.CAVITY>
1.08476

>  <SCORE.RESTR.norm>
0.0338987

>  <SCORE.SYSTEM>
0

>  <SCORE.SYSTEM.CONST>
0

>  <SCORE.SYSTEM.DIHEDRAL>
0

>  <SCORE.SYSTEM.SOLV>
0

>  <SCORE.SYSTEM.norm>
0

>  <SCORE.heavy>
32

>  <SCORE.norm>
-0.302733

>  <RMSD>
13.945

$$$$
lig.pdb
 OpenBabel11021811523D
libRbt.so/2013.1/901 2013/11/27
 32 34  0  0  0  0  0  0  0  0999 V2000
    3.9655    1.7226   -2.9220 P   0  0  0  0  0  0  0  0  0  0  0  0
    4.2101    0.2502   -3.1457 O   0  0  0  0  0  0  0  0  0  0  0  0
    5.0569    2.1094   -1.7855 O   0  0  0  0  0  0  0  0  0  0  0  0
    4.2792    2.6821   -4.0428 O   0  0  0  0  0  0  0  0  0  0  0  0
    2.5455    1.8592   -2.6615 O   0  0  0  0  0  0  0  0  0  0  0  0
    2.2547    1.4351   -1.2719 P   0  0  1  0  0  0  0  0  0  0  0  0
    0.7958    1.5635   -1.0458 O   0  0  0  0  0  0  0  0  0  0  0  0
    2.6507    0.0206   -1.0794 O   0  0  0  0  0  0  0  0  0  0  0  0
    3.0025    2.2998   -0.3249 O   0  0  0  0  0  0  0  0  0  0  0  0
    2.7752    2.2620    1.1392 P   0  0  1  0  0  0  0  0  0  0  0  0
    1.8640    1.1937    1.5978 O   0  0  0  0  0  0  0  0  0  0  0  0
    3.9879    2.4433    1.9678 O   0  0  0  0  0  0  0  0  0  0  0  0
    1.8996    3.5979    1.3991 O   0  0  0  0  0  0  0  0  0  0  0  0
    0.5235    3.6766    1.0786 C   0  0  0  0  0  0  0  0  0  0  0  0
   -0.0440    5.0916    1.2577 C   0  0  1  0  0  0  0  0  0  0  0  0
    0.5094    5.9672    0.2968 O   0  0  0  0  0  0  0  0  0  0  0  0
   -1.5457    5.2023    0.9410 C   0  0  1  0  0  0  0  0  0  0  0  0
   -2.4184    4.7157    1.9469 O   0  0  0  0  0  0  0  0  0  0  0  0
   -1.7384    6.6928    0.6621 C   0  0  1  0  0  0  0  0  0  0  0  0
   -2.0899    7.4142    1.8296 O   0  0  0  0  0  0  0  0  0  0  0  0
   -0.3308    7.1059    0.2361 C   0  0  2  0  0  0  0  0  0  0  0  0
   -0.2369    7.7736   -1.0798 N   0  0  0  0  0  0  0  0  0  0  0  0
    0.8578    8.2098   -1.7824 C   0  0  0  0  0  0  0  0  0  0  0  0
    0.5632    8.8525   -2.8828 N   0  0  0  0  0  0  0  0  0  0  0  0
   -0.8273    8.8221   -2.9318 C   0  0  0  0  0  0  0  0  0  0  0  0
   -1.7426    9.3920   -3.8738 C   0  0  0  0  0  0  0  0  0  0  0  0
   -1.4784   10.0865   -4.8532 O   0  0  0  0  0  0  0  0  0  0  0  0
   -3.0802    9.0989   -3.5759 N   0  0  0  0  0  0  0  0  0  0  0  0
   -3.4763    8.3112   -2.5056 C   0  0  0  0  0  0  0  0  0  0  0  0
   -4.7759    8.0162   -2.3889 N   0  0  0  0  0  0  0  0  0  0  0  0
   -2.6177    7.8193   -1.5975 N   0  0  0  0  0  0  0  0  0  0  0  0
   -1.3147    8.1127   -1.8598 C   0  0  0  0  0  0  0  0  0  0  0  0
  1  2  2  0  0  0  0
  1  4  1  0  0  0  0
  1  3  1  0  0  0  0
  5  1  1  0  0  0  0
  6  7  2  1  0  0  0
  6  9  1  0  0  0  0
  6  5  1  0  0  0  0
  6  8  1  0  0  0  0
 10 11  2  1  0  0  0
 10 12  1  0  0  0  0
 10 13  1  0  0  0  0
 10  9  1  0  0  0  0
 13 14  1  0  0  0  0
 15 14  1  6  0  0  0
 15 16  1  0  0  0  0
 17 19  1  0  0  0  0
 17 15  1  0  0  0  0
 17 18  1  1  0  0  0
 19 21  1  0  0  0  0
 19 20  1  1  0  0  0
 21 16  1  0  0  0  0
 21 22  1  6  0  0  0
 22 32  1  0  0  0  0
 23 22  1  0  0  0  0
 23 24  2  0  0  0  0
 24 25  1  0  0  0  0
 25 26  1  0  0  0  0
 26 27  2  0  0  0  0
 26 28  1  0  0  0  0
 29 28  1  0  0  0  0
 29 30  1  0  0  0  0
 31 29  2  0  0  0  0
 32 25  2  0  0  0  0
 32 31  1  0  0  0  0
M  END
>  <CHROM.1>
77.17678761,170.87534635,-179.00950784,76.36775278,6.71039496,-173.05411636
67.89741460,60.49074734,35.01977621,-52.39601870,0.76593672,4.65218951,-1.00158074
-0.48823739,0.80405446,-1.07538248

>  <Name>
lig.pdb

>  <RI>
1.17715e+07

>  <Rbt.Current_Directory>
/home/itssahil/PROJECTS/Mol_Feturizer/New_Systems/rnas/5lwj

>  <Rbt.Executable>
rbdock ($Id: //depot/dev/client3/rdock/2013.1/src/exe/rbdock.cxx#4 $)

>  <Rbt.Library>
libRbt.so (2013.1, Build901 2013/11/27)

>  <Rbt.Parameter_File>
/export/apps/rDock/src/rDock_2013.1_src/data/scripts/dock_solv.prm

>  <Rbt.Receptor>
prm/blind_docking_60.prm

>  <SCORE>
-23.179

>  <SCORE.INTER>
-21.8459

>  <SCORE.INTER.CONST>
1

>  <SCORE.INTER.POLAR>
-1.0735

>  <SCORE.INTER.ROT>
8

>  <SCORE.INTER.SOLV>
24.6605

>  <SCORE.INTER.VDW>
-28.1391

>  <SCORE.INTER.norm>
-0.682685

>  <SCORE.INTRA>
-1.90155

>  <SCORE.INTRA.DIHEDRAL>
-2.01219

>  <SCORE.INTRA.DIHEDRAL.0>
10.9248

>  <SCORE.INTRA.POLAR>
0

>  <SCORE.INTRA.POLAR.0>
0

>  <SCORE.INTRA.REPUL>
0

>  <SCORE.INTRA.REPUL.0>
0

>  <SCORE.INTRA.SOLV>
1.00988

>  <SCORE.INTRA.SOLV.lig_0>
-51.4104

>  <SCORE.INTRA.VDW>
-1.40039

>  <SCORE.INTRA.VDW.0>
0.110327

>  <SCORE.INTRA.norm>
-0.0594233

>  <SCORE.RESTR>
0.568456

>  <SCORE.RESTR.CAVITY>
0.568456

>  <SCORE.RESTR.norm>
0.0177642

>  <SCORE.SYSTEM>
0

>  <SCORE.SYSTEM.CONST>
0

>  <SCORE.SYSTEM.DIHEDRAL>
0

>  <SCORE.SYSTEM.SOLV>
0

>  <SCORE.SYSTEM.norm>
0

>  <SCORE.heavy>
32

>  <SCORE.norm>
-0.724344

>  <RMSD>
13.959

$$$$
lig.pdb
 OpenBabel11021811523D
libRbt.so/2013.1/901 2013/11/27
 32 34  0  0  0  0  0  0  0  0999 V2000
    3.3900    2.3735   -2.4539 P   0  0  0  0  0  0  0  0  0  0  0  0
    2.2259    3.2744   -2.1204 O   0  0  0  0  0  0  0  0  0  0  0  0
    2.6709    1.0471   -3.0505 O   0  0  0  0  0  0  0  0  0  0  0  0
    4.3252    2.7876   -3.5625 O   0  0  0  0  0  0  0  0  0  0  0  0
    4.1986    2.3001   -1.2524 O   0  0  0  0  0  0  0  0  0  0  0  0
    3.4191    1.6538   -0.1706 P   0  0  1  0  0  0  0  0  0  0  0  0
    3.1305    0.2590   -0.5795 O   0  0  0  0  0  0  0  0  0  0  0  0
    4.2083    1.6362    1.0830 O   0  0  0  0  0  0  0  0  0  0  0  0
    2.1548    2.4021    0.0418 O   0  0  0  0  0  0  0  0  0  0  0  0
    1.2739    2.1643    1.2099 P   0  0  1  0  0  0  0  0  0  0  0  0
    0.2169    1.1554    0.9941 O   0  0  0  0  0  0  0  0  0  0  0  0
    1.9704    2.0668    2.5120 O   0  0  0  0  0  0  0  0  0  0  0  0
    0.4253    3.5391    1.3027 O   0  0  0  0  0  0  0  0  0  0  0  0
    0.9947    4.8023    1.0150 C   0  0  0  0  0  0  0  0  0  0  0  0
   -0.0636    5.9003    0.8395 C   0  0  1  0  0  0  0  0  0  0  0  0
    0.1977    6.6511   -0.3286 O   0  0  0  0  0  0  0  0  0  0  0  0
   -1.4743    5.3607    0.5450 C   0  0  1  0  0  0  0  0  0  0  0  0
   -2.1776    4.8497    1.6650 O   0  0  0  0  0  0  0  0  0  0  0  0
   -2.1796    6.5523   -0.1023 C   0  0  1  0  0  0  0  0  0  0  0  0
   -2.8544    7.3558    0.8495 O   0  0  0  0  0  0  0  0  0  0  0  0
   -0.9949    7.3409   -0.6575 C   0  0  2  0  0  0  0  0  0  0  0  0
   -1.0579    7.6463   -2.1028 N   0  0  0  0  0  0  0  0  0  0  0  0
   -0.0861    7.5897   -3.0695 C   0  0  0  0  0  0  0  0  0  0  0  0
   -0.4720    8.0290   -4.2395 N   0  0  0  0  0  0  0  0  0  0  0  0
   -1.8044    8.3816   -4.0470 C   0  0  0  0  0  0  0  0  0  0  0  0
   -2.7569    8.9629   -4.9441 C   0  0  0  0  0  0  0  0  0  0  0  0
   -2.5747    9.3200   -6.1062 O   0  0  0  0  0  0  0  0  0  0  0  0
   -4.0194    9.1321   -4.3598 N   0  0  0  0  0  0  0  0  0  0  0  0
   -4.3266    8.7453   -3.0640 C   0  0  0  0  0  0  0  0  0  0  0  0
   -5.5957    8.8618   -2.6571 N   0  0  0  0  0  0  0  0  0  0  0  0
   -3.4176    8.2452   -2.2112 N   0  0  0  0  0  0  0  0  0  0  0  0
   -2.1796    8.0940   -2.7561 C   0  0  0  0  0  0  0  0  0  0  0  0
  1  2  2  0  0  0  0
  1  4  1  0  0  0  0
  1  3  1  0  0  0  0
  5  1  1  0  0  0  0
  6  7  2  6  0  0  0
  6  9  1  0  0  0  0
  6  5  1  0  0  0  0
  6  8  1  0  0  0  0
 10 11  2  6  0  0  0
 10 12  1  0  0  0  0
 10 13  1  0  0  0  0
 10  9  1  0  0  0  0
 13 14  1  0  0  0  0
 15 14  1  6  0  0  0
 15 16  1  0  0  0  0
 17 19  1  0  0  0  0
 17 15  1  0  0  0  0
 17 18  1  1  0  0  0
 19 21  1  0  0  0  0
 19 20  1  1  0  0  0
 21 16  1  0  0  0  0
 21 22  1  6  0  0  0
 22 32  1  0  0  0  0
 23 22  1  0  0  0  0
 23 24  2  0  0  0  0
 24 25  1  0  0  0  0
 25 26  1  0  0  0  0
 26 27  2  0  0  0  0
 26 28  1  0  0  0  0
 29 28  1  0  0  0  0
 29 30  1  0  0  0  0
 31 29  2  0  0  0  0
 32 25  2  0  0  0  0
 32 31  1  0  0  0  0
M  END
>  <CHROM.1>
63.84452051,-168.51860952,63.94261520,-36.66087429,-91.37740405,166.10667847
-132.36553673,49.56114581,-164.93153234,-13.19958618,0.25458978,4.82031453
-1.15856423,-0.60925287,0.69188016,-1.13717596

>  <Name>
lig.pdb

>  <RI>
2.72908e+07

>  <Rbt.Current_Directory>
/home/itssahil/PROJECTS/Mol_Feturizer/New_Systems/rnas/5lwj

>  <Rbt.Executable>
rbdock ($Id: //depot/dev/client3/rdock/2013.1/src/exe/rbdock.cxx#4 $)

>  <Rbt.Library>
libRbt.so (2013.1, Build901 2013/11/27)

>  <Rbt.Parameter_File>
/export/apps/rDock/src/rDock_2013.1_src/data/scripts/dock_solv.prm

>  <Rbt.Receptor>
prm/blind_docking_20.prm

>  <SCORE>
-43.4345

>  <SCORE.INTER>
-43.5133

>  <SCORE.INTER.CONST>
1

>  <SCORE.INTER.POLAR>
-2.34503

>  <SCORE.INTER.ROT>
8

>  <SCORE.INTER.SOLV>
23.7881

>  <SCORE.INTER.VDW>
-38.0548

>  <SCORE.INTER.norm>
-1.35979

>  <SCORE.INTRA>
-0.0208558

>  <SCORE.INTRA.DIHEDRAL>
0.820233

>  <SCORE.INTRA.DIHEDRAL.0>
10.9248

>  <SCORE.INTRA.POLAR>
0

>  <SCORE.INTRA.POLAR.0>
0

>  <SCORE.INTRA.REPUL>
0.0163689

>  <SCORE.INTRA.REPUL.0>
0

>  <SCORE.INTRA.SOLV>
1.28048

>  <SCORE.INTRA.SOLV.lig_0>
-51.4104

>  <SCORE.INTRA.VDW>
-1.15306

>  <SCORE.INTRA.VDW.0>
0.110327

>  <SCORE.INTRA.norm>
-0.000651743

>  <SCORE.RESTR>
0.0996847

>  <SCORE.RESTR.CAVITY>
0.0996847

>  <SCORE.RESTR.norm>
0.00311515

>  <SCORE.SYSTEM>
0

>  <SCORE.SYSTEM.CONST>
0

>  <SCORE.SYSTEM.DIHEDRAL>
0

>  <SCORE.SYSTEM.SOLV>
0

>  <SCORE.SYSTEM.norm>
0

>  <SCORE.heavy>
32

>  <SCORE.norm>
-1.35733

>  <RMSD>
13.961

$$$$
lig.pdb
 OpenBabel11021811523D
libRbt.so/2013.1/901 2013/11/27
 32 34  0  0  0  0  0  0  0  0999 V2000
    2.7462    2.0202   -1.4315 P   0  0  0  0  0  0  0  0  0  0  0  0
    3.2339    0.9388   -2.3647 O   0  0  0  0  0  0  0  0  0  0  0  0
    4.0864    2.4371   -0.6175 O   0  0  0  0  0  0  0  0  0  0  0  0
    2.2821    3.3269   -2.0251 O   0  0  0  0  0  0  0  0  0  0  0  0
    1.6009    1.4650   -0.7367 O   0  0  0  0  0  0  0  0  0  0  0  0
    1.3748    2.2144    0.5215 P   0  0  1  0  0  0  0  0  0  0  0  0
    0.1472    1.6843    1.1603 O   0  0  0  0  0  0  0  0  0  0  0  0
    2.5202    2.0204    1.4408 O   0  0  0  0  0  0  0  0  0  0  0  0
    1.2156    3.6580    0.2145 O   0  0  0  0  0  0  0  0  0  0  0  0
    0.5526    4.6027    1.1445 P   0  0  1  0  0  0  0  0  0  0  0  0
   -0.1897    3.9652    2.2510 O   0  0  0  0  0  0  0  0  0  0  0  0
    1.3675    5.7744    1.5359 O   0  0  0  0  0  0  0  0  0  0  0  0
   -0.6389    5.2182    0.2388 O   0  0  0  0  0  0  0  0  0  0  0  0
   -0.6317    6.5588   -0.2142 C   0  0  0  0  0  0  0  0  0  0  0  0
   -2.0456    7.1182   -0.4244 C   0  0  1  0  0  0  0  0  0  0  0  0
   -1.9985    8.2832   -1.2224 O   0  0  0  0  0  0  0  0  0  0  0  0
   -2.9537    6.2074   -1.2693 C   0  0  1  0  0  0  0  0  0  0  0  0
   -3.4897    5.0833   -0.5916 O   0  0  0  0  0  0  0  0  0  0  0  0
   -4.0342    7.1611   -1.7783 C   0  0  1  0  0  0  0  0  0  0  0  0
   -5.1538    7.2121   -0.9118 O   0  0  0  0  0  0  0  0  0  0  0  0
   -3.3069    8.5030   -1.7187 C   0  0  2  0  0  0  0  0  0  0  0  0
   -3.2803    9.2667   -2.9844 N   0  0  0  0  0  0  0  0  0  0  0  0
   -2.9441   10.5739   -3.2304 C   0  0  0  0  0  0  0  0  0  0  0  0
   -3.1307   10.9479   -4.4698 N   0  0  0  0  0  0  0  0  0  0  0  0
   -3.6019    9.8017   -5.1030 C   0  0  0  0  0  0  0  0  0  0  0  0
   -4.0244    9.5861   -6.4539 C   0  0  0  0  0  0  0  0  0  0  0  0
   -4.0965   10.4135   -7.3603 O   0  0  0  0  0  0  0  0  0  0  0  0
   -4.4018    8.2590   -6.6991 N   0  0  0  0  0  0  0  0  0  0  0  0
   -4.3391    7.2520   -5.7477 C   0  0  0  0  0  0  0  0  0  0  0  0
   -4.6255    6.0035   -6.1336 N   0  0  0  0  0  0  0  0  0  0  0  0
   -3.9883    7.4691   -4.4696 N   0  0  0  0  0  0  0  0  0  0  0  0
   -3.6389    8.7584   -4.2085 C   0  0  0  0  0  0  0  0  0  0  0  0
  1  2  2  0  0  0  0
  1  4  1  0  0  0  0
  1  3  1  0  0  0  0
  5  1  1  0  0  0  0
  6  7  2  1  0  0  0
  6  9  1  0  0  0  0
  6  5  1  0  0  0  0
  6  8  1  0  0  0  0
 10 11  2  1  0  0  0
 10 12  1  0  0  0  0
 10 13  1  0  0  0  0
 10  9  1  0  0  0  0
 13 14  1  0  0  0  0
 15 14  1  6  0  0  0
 15 16  1  0  0  0  0
 17 19  1  0  0  0  0
 17 15  1  0  0  0  0
 17 18  1  1  0  0  0
 19 21  1  0  0  0  0
 19 20  1  1  0  0  0
 21 16  1  0  0  0  0
 21 22  1  6  0  0  0
 22 32  1  0  0  0  0
 23 22  1  0  0  0  0
 23 24  2  0  0  0  0
 24 25  1  0  0  0  0
 25 26  1  0  0  0  0
 26 27  2  0  0  0  0
 26 28  1  0  0  0  0
 29 28  1  0  0  0  0
 29 30  1  0  0  0  0
 31 29  2  0  0  0  0
 32 25  2  0  0  0  0
 32 31  1  0  0  0  0
M  END
>  <CHROM.1>
158.74332956,159.45978844,176.22805502,-110.06420460,-12.62449900,-151.88072956
-163.17143067,59.15109095,-178.82708757,-69.15465562,-1.02591562,5.60476303
-1.68703406,-0.50421424,0.82426589,-1.57286435

>  <Name>
lig.pdb

>  <RI>
1.2169e+07

>  <Rbt.Current_Directory>
/home/itssahil/PROJECTS/Mol_Feturizer/New_Systems/rnas/5lwj

>  <Rbt.Executable>
rbdock ($Id: //depot/dev/client3/rdock/2013.1/src/exe/rbdock.cxx#4 $)

>  <Rbt.Library>
libRbt.so (2013.1, Build901 2013/11/27)

>  <Rbt.Parameter_File>
/export/apps/rDock/src/rDock_2013.1_src/data/scripts/dock_solv.prm

>  <Rbt.Receptor>
prm/blind_docking_40.prm

>  <SCORE>
-24.999

>  <SCORE.INTER>
-27.2995

>  <SCORE.INTER.CONST>
1

>  <SCORE.INTER.POLAR>
-2.29181

>  <SCORE.INTER.ROT>
8

>  <SCORE.INTER.SOLV>
22.0432

>  <SCORE.INTER.VDW>
-26.8414

>  <SCORE.INTER.norm>
-0.853109

>  <SCORE.INTRA>
-0.491453

>  <SCORE.INTRA.DIHEDRAL>
1.65502

>  <SCORE.INTRA.DIHEDRAL.0>
10.9248

>  <SCORE.INTRA.POLAR>
0

>  <SCORE.INTRA.POLAR.0>
0

>  <SCORE.INTRA.REPUL>
0

>  <SCORE.INTRA.REPUL.0>
0

>  <SCORE.INTRA.SOLV>
-0.261719

>  <SCORE.INTRA.SOLV.lig_0>
-51.4104

>  <SCORE.INTRA.VDW>
-1.1881

>  <SCORE.INTRA.VDW.0>
0.110327

>  <SCORE.INTRA.norm>
-0.0153579

>  <SCORE.RESTR>
2.79191

>  <SCORE.RESTR.CAVITY>
2.79191

>  <SCORE.RESTR.norm>
0.0872472

>  <SCORE.SYSTEM>
0

>  <SCORE.SYSTEM.CONST>
0

>  <SCORE.SYSTEM.DIHEDRAL>
0

>  <SCORE.SYSTEM.SOLV>
0

>  <SCORE.SYSTEM.norm>
0

>  <SCORE.heavy>
32

>  <SCORE.norm>
-0.78122

>  <RMSD>
13.971

$$$$
lig.pdb
 OpenBabel11021811523D
libRbt.so/2013.1/901 2013/11/27
 32 34  0  0  0  0  0  0  0  0999 V2000
    3.2844   -0.3233   -0.6965 P   0  0  0  0  0  0  0  0  0  0  0  0
    2.7286   -1.6874   -1.0257 O   0  0  0  0  0  0  0  0  0  0  0  0
    2.9128   -0.1424    0.8725 O   0  0  0  0  0  0  0  0  0  0  0  0
    4.7803   -0.1311   -0.7214 O   0  0  0  0  0  0  0  0  0  0  0  0
    2.7461    0.5814   -1.6936 O   0  0  0  0  0  0  0  0  0  0  0  0
    2.6192    1.9386   -1.1128 P   0  0  1  0  0  0  0  0  0  0  0  0
    3.9684    2.3925   -0.7010 O   0  0  0  0  0  0  0  0  0  0  0  0
    2.0825    2.8765   -2.1262 O   0  0  0  0  0  0  0  0  0  0  0  0
    1.7098    1.8909    0.0596 O   0  0  0  0  0  0  0  0  0  0  0  0
    1.6376    2.9842    1.0579 P   0  0  1  0  0  0  0  0  0  0  0  0
    0.4942    2.8988    1.9890 O   0  0  0  0  0  0  0  0  0  0  0  0
    2.9271    3.3455    1.6877 O   0  0  0  0  0  0  0  0  0  0  0  0
    1.2509    4.2688    0.1529 O   0  0  0  0  0  0  0  0  0  0  0  0
    0.5454    5.3790    0.6749 C   0  0  0  0  0  0  0  0  0  0  0  0
   -0.5153    5.9140   -0.2973 C   0  0  1  0  0  0  0  0  0  0  0  0
   -1.8104    5.5779    0.1565 O   0  0  0  0  0  0  0  0  0  0  0  0
   -0.5976    7.4499   -0.3417 C   0  0  1  0  0  0  0  0  0  0  0  0
    0.4225    8.0938   -1.0868 O   0  0  0  0  0  0  0  0  0  0  0  0
   -1.9947    7.7121   -0.9035 C   0  0  1  0  0  0  0  0  0  0  0  0
   -1.9904    7.8266   -2.3156 O   0  0  0  0  0  0  0  0  0  0  0  0
   -2.7228    6.4257   -0.5183 C   0  0  2  0  0  0  0  0  0  0  0  0
   -3.9644    6.6094    0.2630 N   0  0  0  0  0  0  0  0  0  0  0  0
   -4.2573    6.2808    1.5625 C   0  0  0  0  0  0  0  0  0  0  0  0
   -5.5015    6.5012    1.9004 N   0  0  0  0  0  0  0  0  0  0  0  0
   -6.0750    7.0387    0.7520 C   0  0  0  0  0  0  0  0  0  0  0  0
   -7.4209    7.4450    0.4810 C   0  0  0  0  0  0  0  0  0  0  0  0
   -8.3953    7.3638    1.2261 O   0  0  0  0  0  0  0  0  0  0  0  0
   -7.5793    7.9727   -0.8076 N   0  0  0  0  0  0  0  0  0  0  0  0
   -6.5390    8.1209   -1.7125 C   0  0  0  0  0  0  0  0  0  0  0  0
   -6.7970    8.7362   -2.8720 N   0  0  0  0  0  0  0  0  0  0  0  0
   -5.2886    7.6940   -1.4715 N   0  0  0  0  0  0  0  0  0  0  0  0
   -5.1217    7.1587   -0.2313 C   0  0  0  0  0  0  0  0  0  0  0  0
  1  2  2  0  0  0  0
  1  4  1  0  0  0  0
  1  3  1  0  0  0  0
  5  1  1  0  0  0  0
  6  7  2  1  0  0  0
  6  9  1  0  0  0  0
  6  5  1  0  0  0  0
  6  8  1  0  0  0  0
 10 11  2  1  0  0  0
 10 12  1  0  0  0  0
 10 13  1  0  0  0  0
 10  9  1  0  0  0  0
 13 14  1  0  0  0  0
 15 14  1  1  0  0  0
 15 16  1  0  0  0  0
 17 19  1  0  0  0  0
 17 15  1  0  0  0  0
 17 18  1  6  0  0  0
 19 21  1  0  0  0  0
 19 20  1  6  0  0  0
 21 16  1  0  0  0  0
 21 22  1  1  0  0  0
 22 32  1  0  0  0  0
 23 22  1  0  0  0  0
 23 24  2  0  0  0  0
 24 25  1  0  0  0  0
 25 26  1  0  0  0  0
 26 27  2  0  0  0  0
 26 28  1  0  0  0  0
 29 28  1  0  0  0  0
 29 30  1  0  0  0  0
 31 29  2  0  0  0  0
 32 25  2  0  0  0  0
 32 31  1  0  0  0  0
M  END
>  <CHROM.1>
150.62589710,164.18254630,60.43735244,152.89522731,167.91282102,-139.19069067
107.16193862,69.34249629,178.81225553,11.62901039,-0.77846143,4.44093264
-0.26867730,0.58243787,-0.30357302,2.71344362

>  <Name>
lig.pdb

>  <RI>
1.2169e+07

>  <Rbt.Current_Directory>
/home/itssahil/PROJECTS/Mol_Feturizer/New_Systems/rnas/5lwj

>  <Rbt.Executable>
rbdock ($Id: //depot/dev/client3/rdock/2013.1/src/exe/rbdock.cxx#4 $)

>  <Rbt.Library>
libRbt.so (2013.1, Build901 2013/11/27)

>  <Rbt.Parameter_File>
/export/apps/rDock/src/rDock_2013.1_src/data/scripts/dock_solv.prm

>  <Rbt.Receptor>
prm/blind_docking_40.prm

>  <SCORE>
-33.5421

>  <SCORE.INTER>
-33.3887

>  <SCORE.INTER.CONST>
1

>  <SCORE.INTER.POLAR>
-2.52841

>  <SCORE.INTER.ROT>
8

>  <SCORE.INTER.SOLV>
20.6351

>  <SCORE.INTER.VDW>
-29.6428

>  <SCORE.INTER.norm>
-1.0434

>  <SCORE.INTRA>
-0.600837

>  <SCORE.INTRA.DIHEDRAL>
4.66769

>  <SCORE.INTRA.DIHEDRAL.0>
10.9248

>  <SCORE.INTRA.POLAR>
-0.0654287

>  <SCORE.INTRA.POLAR.0>
0

>  <SCORE.INTRA.REPUL>
0

>  <SCORE.INTRA.REPUL.0>
0

>  <SCORE.INTRA.SOLV>
0.210592

>  <SCORE.INTRA.SOLV.lig_0>
-51.4104

>  <SCORE.INTRA.VDW>
-2.81752

>  <SCORE.INTRA.VDW.0>
0.110327

>  <SCORE.INTRA.norm>
-0.0187762

>  <SCORE.RESTR>
0.447435

>  <SCORE.RESTR.CAVITY>
0.447435

>  <SCORE.RESTR.norm>
0.0139823

>  <SCORE.SYSTEM>
0

>  <SCORE.SYSTEM.CONST>
0

>  <SCORE.SYSTEM.DIHEDRAL>
0

>  <SCORE.SYSTEM.SOLV>
0

>  <SCORE.SYSTEM.norm>
0

>  <SCORE.heavy>
32

>  <SCORE.norm>
-1.04819

>  <RMSD>
13.980

$$$$
lig.pdb
 OpenBabel11021811523D
libRbt.so/2013.1/901 2013/11/27
 32 34  0  0  0  0  0  0  0  0999 V2000
    3.6161    0.4133    0.1862 P   0  0  0  0  0  0  0  0  0  0  0  0
    4.9087    0.0677    0.8846 O   0  0  0  0  0  0  0  0  0  0  0  0
    3.4204   -0.8143   -0.8564 O   0  0  0  0  0  0  0  0  0  0  0  0
    2.3382    0.3931    0.9873 O   0  0  0  0  0  0  0  0  0  0  0  0
    3.7690    1.7736   -0.2924 O   0  0  0  0  0  0  0  0  0  0  0  0
    2.6585    2.1001   -1.2174 P   0  0  1  0  0  0  0  0  0  0  0  0
    3.0476    3.2956   -2.0019 O   0  0  0  0  0  0  0  0  0  0  0  0
    2.4214    0.9697   -2.1451 O   0  0  0  0  0  0  0  0  0  0  0  0
    1.4278    2.3742   -0.4339 O   0  0  0  0  0  0  0  0  0  0  0  0
    1.4534    3.0722    0.8734 P   0  0  1  0  0  0  0  0  0  0  0  0
    0.5952    2.4706    1.9142 O   0  0  0  0  0  0  0  0  0  0  0  0
    2.7961    3.4869    1.3374 O   0  0  0  0  0  0  0  0  0  0  0  0
    0.6856    4.4600    0.5522 O   0  0  0  0  0  0  0  0  0  0  0  0
   -0.1694    5.0877    1.4890 C   0  0  0  0  0  0  0  0  0  0  0  0
   -1.0491    6.1718    0.8508 C   0  0  1  0  0  0  0  0  0  0  0  0
   -0.2615    7.0424    0.0646 O   0  0  0  0  0  0  0  0  0  0  0  0
   -2.0401    5.6307   -0.1945 C   0  0  1  0  0  0  0  0  0  0  0  0
   -3.1923    4.9928    0.3307 O   0  0  0  0  0  0  0  0  0  0  0  0
   -2.3775    6.8639   -1.0321 C   0  0  1  0  0  0  0  0  0  0  0  0
   -3.5138    7.5511   -0.5384 O   0  0  0  0  0  0  0  0  0  0  0  0
   -1.1420    7.7327   -0.8040 C   0  0  2  0  0  0  0  0  0  0  0  0
   -0.4466    8.1804   -2.0296 N   0  0  0  0  0  0  0  0  0  0  0  0
    0.8421    7.9704   -2.4510 C   0  0  0  0  0  0  0  0  0  0  0  0
    1.1521    8.6030   -3.5530 N   0  0  0  0  0  0  0  0  0  0  0  0
   -0.0208    9.2632   -3.9068 C   0  0  0  0  0  0  0  0  0  0  0  0
   -0.3028   10.1506   -4.9944 C   0  0  0  0  0  0  0  0  0  0  0  0
    0.4763   10.5585   -5.8535 O   0  0  0  0  0  0  0  0  0  0  0  0
   -1.6369   10.5793   -5.0130 N   0  0  0  0  0  0  0  0  0  0  0  0
   -2.5928   10.1618   -4.0992 C   0  0  0  0  0  0  0  0  0  0  0  0
   -3.8568   10.5584   -4.2859 N   0  0  0  0  0  0  0  0  0  0  0  0
   -2.3123    9.3679   -3.0529 N   0  0  0  0  0  0  0  0  0  0  0  0
   -1.0149    8.9590   -3.0074 C   0  0  0  0  0  0  0  0  0  0  0  0
  1  2  2  0  0  0  0
  1  4  1  0  0  0  0
  1  3  1  0  0  0  0
  5  1  1  0  0  0  0
  6  7  2  6  0  0  0
  6  9  1  0  0  0  0
  6  5  1  0  0  0  0
  6  8  1  0  0  0  0
 10 11  2  1  0  0  0
 10 12  1  0  0  0  0
 10 13  1  0  0  0  0
 10  9  1  0  0  0  0
 13 14  1  0  0  0  0
 15 14  1  6  0  0  0
 15 16  1  0  0  0  0
 17 19  1  0  0  0  0
 17 15  1  0  0  0  0
 17 18  1  1  0  0  0
 19 21  1  0  0  0  0
 19 20  1  1  0  0  0
 21 16  1  0  0  0  0
 21 22  1  6  0  0  0
 22 32  1  0  0  0  0
 23 22  1  0  0  0  0
 23 24  2  0  0  0  0
 24 25  1  0  0  0  0
 25 26  1  0  0  0  0
 26 27  2  0  0  0  0
 26 28  1  0  0  0  0
 29 28  1  0  0  0  0
 29 30  1  0  0  0  0
 31 29  2  0  0  0  0
 32 25  2  0  0  0  0
 32 31  1  0  0  0  0
M  END
>  <CHROM.1>
168.86549046,36.52420792,-162.69167606,143.74220001,-136.24351460,-165.35228950
-49.24423838,59.63436305,60.85386280,3.73882706,0.57834491,5.08791396,-1.12660752
-0.97929208,0.62408846,-0.78026480

>  <Name>
lig.pdb

>  <RI>
1.17715e+07

>  <Rbt.Current_Directory>
/home/itssahil/PROJECTS/Mol_Feturizer/New_Systems/rnas/5lwj

>  <Rbt.Executable>
rbdock ($Id: //depot/dev/client3/rdock/2013.1/src/exe/rbdock.cxx#4 $)

>  <Rbt.Library>
libRbt.so (2013.1, Build901 2013/11/27)

>  <Rbt.Parameter_File>
/export/apps/rDock/src/rDock_2013.1_src/data/scripts/dock_solv.prm

>  <Rbt.Receptor>
prm/blind_docking_60.prm

>  <SCORE>
-30.6555

>  <SCORE.INTER>
-31.1517

>  <SCORE.INTER.CONST>
1

>  <SCORE.INTER.POLAR>
-1.51349

>  <SCORE.INTER.ROT>
8

>  <SCORE.INTER.SOLV>
22.1955

>  <SCORE.INTER.VDW>
-32.0547

>  <SCORE.INTER.norm>
-0.973492

>  <SCORE.INTRA>
-0.974887

>  <SCORE.INTRA.DIHEDRAL>
-1.64747

>  <SCORE.INTRA.DIHEDRAL.0>
10.9248

>  <SCORE.INTRA.POLAR>
0

>  <SCORE.INTRA.POLAR.0>
0

>  <SCORE.INTRA.REPUL>
0

>  <SCORE.INTRA.REPUL.0>
0

>  <SCORE.INTRA.SOLV>
0.753273

>  <SCORE.INTRA.SOLV.lig_0>
-51.4104

>  <SCORE.INTRA.VDW>
-0.527789

>  <SCORE.INTRA.VDW.0>
0.110327

>  <SCORE.INTRA.norm>
-0.0304652

>  <SCORE.RESTR>
1.47112

>  <SCORE.RESTR.CAVITY>
1.47112

>  <SCORE.RESTR.norm>
0.0459726

>  <SCORE.SYSTEM>
0

>  <SCORE.SYSTEM.CONST>
0

>  <SCORE.SYSTEM.DIHEDRAL>
0

>  <SCORE.SYSTEM.SOLV>
0

>  <SCORE.SYSTEM.norm>
0

>  <SCORE.heavy>
32

>  <SCORE.norm>
-0.957985

>  <RMSD>
13.981

$$$$
lig.pdb
 OpenBabel11021811523D
libRbt.so/2013.1/901 2013/11/27
 32 34  0  0  0  0  0  0  0  0999 V2000
    3.2201    0.0094   -0.2324 P   0  0  0  0  0  0  0  0  0  0  0  0
    2.3397   -1.1963   -0.0109 O   0  0  0  0  0  0  0  0  0  0  0  0
    3.5457    0.5106    1.2760 O   0  0  0  0  0  0  0  0  0  0  0  0
    4.5892   -0.1999   -0.8299 O   0  0  0  0  0  0  0  0  0  0  0  0
    2.5040    0.8654   -1.1583 O   0  0  0  0  0  0  0  0  0  0  0  0
    2.9300    2.2710   -0.9628 P   0  0  1  0  0  0  0  0  0  0  0  0
    4.3891    2.3498   -1.2095 O   0  0  0  0  0  0  0  0  0  0  0  0
    2.2291    3.1525   -1.9252 O   0  0  0  0  0  0  0  0  0  0  0  0
    2.6171    2.6932    0.4255 O   0  0  0  0  0  0  0  0  0  0  0  0
    1.2350    2.7134    0.9606 P   0  0  1  0  0  0  0  0  0  0  0  0
    0.3064    1.7630    0.3154 O   0  0  0  0  0  0  0  0  0  0  0  0
    1.1336    2.7776    2.4357 O   0  0  0  0  0  0  0  0  0  0  0  0
    0.6755    4.1434    0.4502 O   0  0  0  0  0  0  0  0  0  0  0  0
    0.7927    5.3231    1.2231 C   0  0  0  0  0  0  0  0  0  0  0  0
   -0.5397    6.0728    1.3612 C   0  0  1  0  0  0  0  0  0  0  0  0
   -0.7006    6.9870    0.2959 O   0  0  0  0  0  0  0  0  0  0  0  0
   -1.7774    5.1762    1.1820 C   0  0  1  0  0  0  0  0  0  0  0  0
   -2.1086    4.3646    2.2964 O   0  0  0  0  0  0  0  0  0  0  0  0
   -2.8832    6.1689    0.8245 C   0  0  1  0  0  0  0  0  0  0  0  0
   -3.5768    6.6321    1.9697 O   0  0  0  0  0  0  0  0  0  0  0  0
   -2.0748    7.3258    0.2400 C   0  0  2  0  0  0  0  0  0  0  0  0
   -2.4685    7.7511   -1.1202 N   0  0  0  0  0  0  0  0  0  0  0  0
   -3.7028    7.7987   -1.7174 C   0  0  0  0  0  0  0  0  0  0  0  0
   -3.6709    8.1381   -2.9802 N   0  0  0  0  0  0  0  0  0  0  0  0
   -2.3212    8.3570   -3.2389 C   0  0  0  0  0  0  0  0  0  0  0  0
   -1.6468    8.7114   -4.4511 C   0  0  0  0  0  0  0  0  0  0  0  0
   -2.1379    8.8645   -5.5677 O   0  0  0  0  0  0  0  0  0  0  0  0
   -0.2654    8.8708   -4.2768 N   0  0  0  0  0  0  0  0  0  0  0  0
    0.3774    8.7366   -3.0554 C   0  0  0  0  0  0  0  0  0  0  0  0
    1.6839    9.0184   -2.9981 N   0  0  0  0  0  0  0  0  0  0  0  0
   -0.2520    8.3568   -1.9314 N   0  0  0  0  0  0  0  0  0  0  0  0
   -1.5920    8.1766   -2.0875 C   0  0  0  0  0  0  0  0  0  0  0  0
  1  2  2  0  0  0  0
  1  4  1  0  0  0  0
  1  3  1  0  0  0  0
  5  1  1  0  0  0  0
  6  7  2  6  0  0  0
  6  9  1  0  0  0  0
  6  5  1  0  0  0  0
  6  8  1  0  0  0  0
 10 11  2  6  0  0  0
 10 12  1  0  0  0  0
 10 13  1  0  0  0  0
 10  9  1  0  0  0  0
 13 14  1  0  0  0  0
 15 14  1  6  0  0  0
 15 16  1  0  0  0  0
 17 19  1  0  0  0  0
 17 15  1  0  0  0  0
 17 18  1  1  0  0  0
 19 21  1  0  0  0  0
 19 20  1  1  0  0  0
 21 16  1  0  0  0  0
 21 22  1  6  0  0  0
 22 32  1  0  0  0  0
 23 22  1  0  0  0  0
 23 24  2  0  0  0  0
 24 25  1  0  0  0  0
 25 26  1  0  0  0  0
 26 27  2  0  0  0  0
 26 28  1  0  0  0  0
 29 28  1  0  0  0  0
 29 30  1  0  0  0  0
 31 29  2  0  0  0  0
 32 25  2  0  0  0  0
 32 31  1  0  0  0  0
M  END
>  <CHROM.1>
153.94169985,-60.90765338,59.65558954,-90.91385715,26.46802161,-129.65259405
-88.99128852,63.82294404,-178.79648253,159.24382189,0.41587520,4.60457315
-0.63987217,-0.80054114,0.69927025,-0.86034275

>  <Name>
lig.pdb

>  <RI>
3.17878e+07

>  <Rbt.Current_Directory>
/home/itssahil/PROJECTS/Mol_Feturizer/New_Systems/rnas/5lwj

>  <Rbt.Executable>
rbdock ($Id: //depot/dev/client3/rdock/2013.1/src/exe/rbdock.cxx#4 $)

>  <Rbt.Library>
libRbt.so (2013.1, Build901 2013/11/27)

>  <Rbt.Parameter_File>
/export/apps/rDock/src/rDock_2013.1_src/data/scripts/dock_solv.prm

>  <Rbt.Receptor>
prm/blind_docking_100.prm

>  <SCORE>
-9.91171

>  <SCORE.INTER>
-12.678

>  <SCORE.INTER.CONST>
1

>  <SCORE.INTER.POLAR>
-1.82437

>  <SCORE.INTER.ROT>
8

>  <SCORE.INTER.SOLV>
23.5532

>  <SCORE.INTER.VDW>
-19.1552

>  <SCORE.INTER.norm>
-0.396189

>  <SCORE.INTRA>
1.89372

>  <SCORE.INTRA.DIHEDRAL>
3.81978

>  <SCORE.INTRA.DIHEDRAL.0>
10.9248

>  <SCORE.INTRA.POLAR>
-0.0186981

>  <SCORE.INTRA.POLAR.0>
0

>  <SCORE.INTRA.REPUL>
0.409191

>  <SCORE.INTRA.REPUL.0>
0

>  <SCORE.INTRA.SOLV>
2.37613

>  <SCORE.INTRA.SOLV.lig_0>
-51.4104

>  <SCORE.INTRA.VDW>
-3.18662

>  <SCORE.INTRA.VDW.0>
0.110327

>  <SCORE.INTRA.norm>
0.0591787

>  <SCORE.RESTR>
0.872605

>  <SCORE.RESTR.CAVITY>
0.872605

>  <SCORE.RESTR.norm>
0.0272689

>  <SCORE.SYSTEM>
0

>  <SCORE.SYSTEM.CONST>
0

>  <SCORE.SYSTEM.DIHEDRAL>
0

>  <SCORE.SYSTEM.SOLV>
0

>  <SCORE.SYSTEM.norm>
0

>  <SCORE.heavy>
32

>  <SCORE.norm>
-0.309741

>  <RMSD>
13.986

$$$$
lig.pdb
 OpenBabel11021811523D
libRbt.so/2013.1/901 2013/11/27
 32 34  0  0  0  0  0  0  0  0999 V2000
    4.7977    1.2663   -0.6989 P   0  0  0  0  0  0  0  0  0  0  0  0
    4.7687    1.6767    0.7533 O   0  0  0  0  0  0  0  0  0  0  0  0
    6.3827    1.1027   -1.0045 O   0  0  0  0  0  0  0  0  0  0  0  0
    4.2323   -0.0799   -1.0771 O   0  0  0  0  0  0  0  0  0  0  0  0
    4.0044    2.2498   -1.4104 O   0  0  0  0  0  0  0  0  0  0  0  0
    2.5961    2.1715   -0.9562 P   0  0  1  0  0  0  0  0  0  0  0  0
    1.8262    3.2269   -1.6558 O   0  0  0  0  0  0  0  0  0  0  0  0
    2.0246    0.8486   -1.2997 O   0  0  0  0  0  0  0  0  0  0  0  0
    2.5389    2.3778    0.5127 O   0  0  0  0  0  0  0  0  0  0  0  0
    1.3386    2.0494    1.3180 P   0  0  1  0  0  0  0  0  0  0  0  0
    0.4147    1.0842    0.6883 O   0  0  0  0  0  0  0  0  0  0  0  0
    1.5922    1.8193    2.7577 O   0  0  0  0  0  0  0  0  0  0  0  0
    0.4879    3.4250    1.2679 O   0  0  0  0  0  0  0  0  0  0  0  0
    1.1016    4.6907    1.1130 C   0  0  0  0  0  0  0  0  0  0  0  0
    0.0806    5.8263    0.9567 C   0  0  1  0  0  0  0  0  0  0  0  0
    0.2960    6.5157   -0.2577 O   0  0  0  0  0  0  0  0  0  0  0  0
   -1.3674    5.3380    0.7766 C   0  0  1  0  0  0  0  0  0  0  0  0
   -2.0167    4.9056    1.9605 O   0  0  0  0  0  0  0  0  0  0  0  0
   -2.0634    6.5318    0.1233 C   0  0  1  0  0  0  0  0  0  0  0  0
   -2.6407    7.4032    1.0795 O   0  0  0  0  0  0  0  0  0  0  0  0
   -0.8859    7.2434   -0.5404 C   0  0  2  0  0  0  0  0  0  0  0  0
   -1.0305    7.4912   -1.9908 N   0  0  0  0  0  0  0  0  0  0  0  0
   -0.1055    7.4315   -3.0023 C   0  0  0  0  0  0  0  0  0  0  0  0
   -0.5638    7.8123   -4.1667 N   0  0  0  0  0  0  0  0  0  0  0  0
   -1.8973    8.1254   -3.9206 C   0  0  0  0  0  0  0  0  0  0  0  0
   -2.9130    8.6387   -4.7894 C   0  0  0  0  0  0  0  0  0  0  0  0
   -2.8009    8.9573   -5.9714 O   0  0  0  0  0  0  0  0  0  0  0  0
   -4.1509    8.7861   -4.1491 N   0  0  0  0  0  0  0  0  0  0  0  0
   -4.3801    8.4386   -2.8263 C   0  0  0  0  0  0  0  0  0  0  0  0
   -5.6312    8.5264   -2.3608 N   0  0  0  0  0  0  0  0  0  0  0  0
   -3.4129    8.0032   -2.0025 N   0  0  0  0  0  0  0  0  0  0  0  0
   -2.1983    7.8744   -2.6029 C   0  0  0  0  0  0  0  0  0  0  0  0
  1  2  2  0  0  0  0
  1  4  1  0  0  0  0
  1  3  1  0  0  0  0
  5  1  1  0  0  0  0
  6  7  2  6  0  0  0
  6  9  1  0  0  0  0
  6  5  1  0  0  0  0
  6  8  1  0  0  0  0
 10 11  2  6  0  0  0
 10 12  1  0  0  0  0
 10 13  1  0  0  0  0
 10  9  1  0  0  0  0
 13 14  1  0  0  0  0
 15 14  1  6  0  0  0
 15 16  1  0  0  0  0
 17 19  1  0  0  0  0
 17 15  1  0  0  0  0
 17 18  1  1  0  0  0
 19 21  1  0  0  0  0
 19 20  1  1  0  0  0
 21 16  1  0  0  0  0
 21 22  1  6  0  0  0
 22 32  1  0  0  0  0
 23 22  1  0  0  0  0
 23 24  2  0  0  0  0
 24 25  1  0  0  0  0
 25 26  1  0  0  0  0
 26 27  2  0  0  0  0
 26 28  1  0  0  0  0
 29 28  1  0  0  0  0
 29 30  1  0  0  0  0
 31 29  2  0  0  0  0
 32 25  2  0  0  0  0
 32 31  1  0  0  0  0
M  END
>  <CHROM.1>
-64.40635958,-165.29064093,177.49996570,-28.03391669,20.97781359,174.37545803
-122.34311643,51.37023085,-59.00474098,-17.79724233,0.38667042,4.60494703
-0.87735697,-0.57770748,0.64650856,-1.13513737

>  <Name>
lig.pdb

>  <RI>
4.14043e+07

>  <Rbt.Current_Directory>
/home/itssahil/PROJECTS/Mol_Feturizer/New_Systems/rnas/5lwj

>  <Rbt.Executable>
rbdock ($Id: //depot/dev/client3/rdock/2013.1/src/exe/rbdock.cxx#4 $)

>  <Rbt.Library>
libRbt.so (2013.1, Build901 2013/11/27)

>  <Rbt.Parameter_File>
/export/apps/rDock/src/rDock_2013.1_src/data/scripts/dock_solv.prm

>  <Rbt.Receptor>
prm/blind_docking_80.prm

>  <SCORE>
-33.1958

>  <SCORE.INTER>
-36.6319

>  <SCORE.INTER.CONST>
1

>  <SCORE.INTER.POLAR>
-2.02595

>  <SCORE.INTER.ROT>
8

>  <SCORE.INTER.SOLV>
24.1084

>  <SCORE.INTER.VDW>
-34.6376

>  <SCORE.INTER.norm>
-1.14475

>  <SCORE.INTRA>
1.73378

>  <SCORE.INTRA.DIHEDRAL>
0.416218

>  <SCORE.INTRA.DIHEDRAL.0>
10.9248

>  <SCORE.INTRA.POLAR>
0

>  <SCORE.INTRA.POLAR.0>
0

>  <SCORE.INTRA.REPUL>
0.0199436

>  <SCORE.INTRA.REPUL.0>
0

>  <SCORE.INTRA.SOLV>
1.85961

>  <SCORE.INTRA.SOLV.lig_0>
-51.4104

>  <SCORE.INTRA.VDW>
0.496149

>  <SCORE.INTRA.VDW.0>
0.110327

>  <SCORE.INTRA.norm>
0.0541806

>  <SCORE.RESTR>
1.70239

>  <SCORE.RESTR.CAVITY>
1.70239

>  <SCORE.RESTR.norm>
0.0531996

>  <SCORE.SYSTEM>
0

>  <SCORE.SYSTEM.CONST>
0

>  <SCORE.SYSTEM.DIHEDRAL>
0

>  <SCORE.SYSTEM.SOLV>
0

>  <SCORE.SYSTEM.norm>
0

>  <SCORE.heavy>
32

>  <SCORE.norm>
-1.03737

>  <RMSD>
14.019

$$$$
lig.pdb
 OpenBabel11021811523D
libRbt.so/2013.1/901 2013/11/27
 32 34  0  0  0  0  0  0  0  0999 V2000
    3.0429    1.7640   -2.0482 P   0  0  0  0  0  0  0  0  0  0  0  0
    2.6772    0.9641   -3.2748 O   0  0  0  0  0  0  0  0  0  0  0  0
    4.4539    2.4499   -2.4623 O   0  0  0  0  0  0  0  0  0  0  0  0
    2.1810    2.9447   -1.6764 O   0  0  0  0  0  0  0  0  0  0  0  0
    2.9674    0.8432   -0.9306 O   0  0  0  0  0  0  0  0  0  0  0  0
    3.4960    1.5002    0.2879 P   0  0  1  0  0  0  0  0  0  0  0  0
    3.6893    0.4605    1.3260 O   0  0  0  0  0  0  0  0  0  0  0  0
    4.8003    2.1388   -0.0048 O   0  0  0  0  0  0  0  0  0  0  0  0
    2.5287    2.5242    0.7559 O   0  0  0  0  0  0  0  0  0  0  0  0
    1.3385    2.1835    1.5709 P   0  0  1  0  0  0  0  0  0  0  0  0
    0.4186    1.2099    0.9481 O   0  0  0  0  0  0  0  0  0  0  0  0
    1.6063    1.9547    3.0083 O   0  0  0  0  0  0  0  0  0  0  0  0
    0.4740    3.5509    1.5293 O   0  0  0  0  0  0  0  0  0  0  0  0
    0.9596    4.7368    0.9288 C   0  0  0  0  0  0  0  0  0  0  0  0
   -0.0873    5.8591    0.9083 C   0  0  1  0  0  0  0  0  0  0  0  0
    0.2343    6.8117   -0.0845 O   0  0  0  0  0  0  0  0  0  0  0  0
   -1.4815    5.3986    0.4477 C   0  0  1  0  0  0  0  0  0  0  0  0
   -2.2418    4.6952    1.4159 O   0  0  0  0  0  0  0  0  0  0  0  0
   -2.1516    6.6972   -0.0005 C   0  0  1  0  0  0  0  0  0  0  0  0
   -2.8738    7.3163    1.0494 O   0  0  0  0  0  0  0  0  0  0  0  0
   -0.9394    7.5630   -0.3385 C   0  0  2  0  0  0  0  0  0  0  0  0
   -0.9278    8.1331   -1.7026 N   0  0  0  0  0  0  0  0  0  0  0  0
   -0.0157    8.9516   -2.3195 C   0  0  0  0  0  0  0  0  0  0  0  0
   -0.3761    9.3467   -3.5131 N   0  0  0  0  0  0  0  0  0  0  0  0
   -1.6057    8.7283   -3.7186 C   0  0  0  0  0  0  0  0  0  0  0  0
   -2.5182    8.8038   -4.8193 C   0  0  0  0  0  0  0  0  0  0  0  0
   -2.4162    9.4890   -5.8349 O   0  0  0  0  0  0  0  0  0  0  0  0
   -3.6455    7.9895   -4.6463 N   0  0  0  0  0  0  0  0  0  0  0  0
   -3.8417    7.1693   -3.5455 C   0  0  0  0  0  0  0  0  0  0  0  0
   -4.9062    6.3591   -3.5466 N   0  0  0  0  0  0  0  0  0  0  0  0
   -3.0069    7.1383   -2.4938 N   0  0  0  0  0  0  0  0  0  0  0  0
   -1.9164    7.9403   -2.6358 C   0  0  0  0  0  0  0  0  0  0  0  0
  1  2  2  0  0  0  0
  1  4  1  0  0  0  0
  1  3  1  0  0  0  0
  5  1  1  0  0  0  0
  6  7  2  1  0  0  0
  6  9  1  0  0  0  0
  6  5  1  0  0  0  0
  6  8  1  0  0  0  0
 10 11  2  6  0  0  0
 10 12  1  0  0  0  0
 10 13  1  0  0  0  0
 10  9  1  0  0  0  0
 13 14  1  0  0  0  0
 15 14  1  6  0  0  0
 15 16  1  0  0  0  0
 17 19  1  0  0  0  0
 17 15  1  0  0  0  0
 17 18  1  1  0  0  0
 19 21  1  0  0  0  0
 19 20  1  1  0  0  0
 21 16  1  0  0  0  0
 21 22  1  6  0  0  0
 22 32  1  0  0  0  0
 23 22  1  0  0  0  0
 23 24  2  0  0  0  0
 24 25  1  0  0  0  0
 25 26  1  0  0  0  0
 26 27  2  0  0  0  0
 26 28  1  0  0  0  0
 29 28  1  0  0  0  0
 29 30  1  0  0  0  0
 31 29  2  0  0  0  0
 32 25  2  0  0  0  0
 32 31  1  0  0  0  0
M  END
>  <CHROM.1>
172.10264920,81.66801668,-167.55172805,-5.63444212,-57.80331312,175.03467910
-158.90371796,173.91149029,57.30535211,-56.56613622,0.33367654,4.64564302
-0.93770029,-0.63777163,0.73056144,-1.19058966

>  <Name>
lig.pdb

>  <RI>
1.2169e+07

>  <Rbt.Current_Directory>
/home/itssahil/PROJECTS/Mol_Feturizer/New_Systems/rnas/5lwj

>  <Rbt.Executable>
rbdock ($Id: //depot/dev/client3/rdock/2013.1/src/exe/rbdock.cxx#4 $)

>  <Rbt.Library>
libRbt.so (2013.1, Build901 2013/11/27)

>  <Rbt.Parameter_File>
/export/apps/rDock/src/rDock_2013.1_src/data/scripts/dock_solv.prm

>  <Rbt.Receptor>
prm/blind_docking_40.prm

>  <SCORE>
-32.6441

>  <SCORE.INTER>
-31.0591

>  <SCORE.INTER.CONST>
1

>  <SCORE.INTER.POLAR>
-1.82482

>  <SCORE.INTER.ROT>
8

>  <SCORE.INTER.SOLV>
23.5804

>  <SCORE.INTER.VDW>
-31.4168

>  <SCORE.INTER.norm>
-0.970596

>  <SCORE.INTRA>
-1.74108

>  <SCORE.INTRA.DIHEDRAL>
-2.75987

>  <SCORE.INTRA.DIHEDRAL.0>
10.9248

>  <SCORE.INTRA.POLAR>
0

>  <SCORE.INTRA.POLAR.0>
0

>  <SCORE.INTRA.REPUL>
0

>  <SCORE.INTRA.REPUL.0>
0

>  <SCORE.INTRA.SOLV>
0.727404

>  <SCORE.INTRA.SOLV.lig_0>
-51.4104

>  <SCORE.INTRA.VDW>
-0.724843

>  <SCORE.INTRA.VDW.0>
0.110327

>  <SCORE.INTRA.norm>
-0.0544086

>  <SCORE.RESTR>
0.156074

>  <SCORE.RESTR.CAVITY>
0.156074

>  <SCORE.RESTR.norm>
0.00487732

>  <SCORE.SYSTEM>
0

>  <SCORE.SYSTEM.CONST>
0

>  <SCORE.SYSTEM.DIHEDRAL>
0

>  <SCORE.SYSTEM.SOLV>
0

>  <SCORE.SYSTEM.norm>
0

>  <SCORE.heavy>
32

>  <SCORE.norm>
-1.02013

>  <RMSD>
14.024

$$$$
lig.pdb
 OpenBabel11021811523D
libRbt.so/2013.1/901 2013/11/27
 32 34  0  0  0  0  0  0  0  0999 V2000
    3.3820    0.8620   -2.2219 P   0  0  0  0  0  0  0  0  0  0  0  0
    4.8035    1.3544   -2.3440 O   0  0  0  0  0  0  0  0  0  0  0  0
    2.5040    2.1690   -2.6138 O   0  0  0  0  0  0  0  0  0  0  0  0
    2.8973   -0.1839   -3.1946 O   0  0  0  0  0  0  0  0  0  0  0  0
    3.2747    0.2662   -0.9043 O   0  0  0  0  0  0  0  0  0  0  0  0
    3.1758    1.3364    0.1158 P   0  0  1  0  0  0  0  0  0  0  0  0
    3.0081    0.6962    1.4417 O   0  0  0  0  0  0  0  0  0  0  0  0
    4.4163    2.1463    0.1239 O   0  0  0  0  0  0  0  0  0  0  0  0
    2.0109    2.2041   -0.1903 O   0  0  0  0  0  0  0  0  0  0  0  0
    1.1027    2.7200    0.8613 P   0  0  1  0  0  0  0  0  0  0  0  0
   -0.2862    2.2240    0.7790 O   0  0  0  0  0  0  0  0  0  0  0  0
    1.6738    2.7468    2.2264 O   0  0  0  0  0  0  0  0  0  0  0  0
    0.9374    4.2782    0.4571 O   0  0  0  0  0  0  0  0  0  0  0  0
    0.5749    5.2712    1.3980 C   0  0  0  0  0  0  0  0  0  0  0  0
   -0.3616    6.3327    0.8043 C   0  0  1  0  0  0  0  0  0  0  0  0
    0.3558    7.1931   -0.0568 O   0  0  0  0  0  0  0  0  0  0  0  0
   -1.4215    5.7593   -0.1526 C   0  0  1  0  0  0  0  0  0  0  0  0
   -2.5244    5.1224    0.4704 O   0  0  0  0  0  0  0  0  0  0  0  0
   -1.8338    6.9706   -0.9888 C   0  0  1  0  0  0  0  0  0  0  0  0
   -2.9378    7.6577   -0.4265 O   0  0  0  0  0  0  0  0  0  0  0  0
   -0.5944    7.8558   -0.8719 C   0  0  2  0  0  0  0  0  0  0  0  0
    0.0031    8.2829   -2.1551 N   0  0  0  0  0  0  0  0  0  0  0  0
    1.2334    8.0138   -2.6994 C   0  0  0  0  0  0  0  0  0  0  0  0
    1.4689    8.6433   -3.8214 N   0  0  0  0  0  0  0  0  0  0  0  0
    0.3028    9.3655   -4.0566 C   0  0  0  0  0  0  0  0  0  0  0  0
   -0.0359   10.2790   -5.1058 C   0  0  0  0  0  0  0  0  0  0  0  0
    0.6776   10.6578   -6.0325 O   0  0  0  0  0  0  0  0  0  0  0  0
   -1.3422   10.7739   -4.9935 N   0  0  0  0  0  0  0  0  0  0  0  0
   -2.2268   10.3938   -3.9955 C   0  0  0  0  0  0  0  0  0  0  0  0
   -3.4810   10.8552   -4.0576 N   0  0  0  0  0  0  0  0  0  0  0  0
   -1.8887    9.5743   -2.9867 N   0  0  0  0  0  0  0  0  0  0  0  0
   -0.6154    9.1006   -3.0684 C   0  0  0  0  0  0  0  0  0  0  0  0
  1  2  2  0  0  0  0
  1  4  1  0  0  0  0
  1  3  1  0  0  0  0
  5  1  1  0  0  0  0
  6  7  2  1  0  0  0
  6  9  1  0  0  0  0
  6  5  1  0  0  0  0
  6  8  1  0  0  0  0
 10 11  2  6  0  0  0
 10 12  1  0  0  0  0
 10 13  1  0  0  0  0
 10  9  1  0  0  0  0
 13 14  1  0  0  0  0
 15 14  1  6  0  0  0
 15 16  1  0  0  0  0
 17 19  1  0  0  0  0
 17 15  1  0  0  0  0
 17 18  1  1  0  0  0
 19 21  1  0  0  0  0
 19 20  1  1  0  0  0
 21 16  1  0  0  0  0
 21 22  1  6  0  0  0
 22 32  1  0  0  0  0
 23 22  1  0  0  0  0
 23 24  2  0  0  0  0
 24 25  1  0  0  0  0
 25 26  1  0  0  0  0
 26 27  2  0  0  0  0
 26 28  1  0  0  0  0
 29 28  1  0  0  0  0
 29 30  1  0  0  0  0
 31 29  2  0  0  0  0
 32 25  2  0  0  0  0
 32 31  1  0  0  0  0
M  END
>  <CHROM.1>
76.62025851,139.20299823,177.55778523,-156.41049330,-115.32269555,-142.55256888
-73.81089347,58.23284765,58.15427904,7.83737613,0.80883459,5.10316665,-1.33623861
-0.94388846,0.78476852,-0.82461290

>  <Name>
lig.pdb

>  <RI>
2.72908e+07

>  <Rbt.Current_Directory>
/home/itssahil/PROJECTS/Mol_Feturizer/New_Systems/rnas/5lwj

>  <Rbt.Executable>
rbdock ($Id: //depot/dev/client3/rdock/2013.1/src/exe/rbdock.cxx#4 $)

>  <Rbt.Library>
libRbt.so (2013.1, Build901 2013/11/27)

>  <Rbt.Parameter_File>
/export/apps/rDock/src/rDock_2013.1_src/data/scripts/dock_solv.prm

>  <Rbt.Receptor>
prm/blind_docking_20.prm

>  <SCORE>
-27.0454

>  <SCORE.INTER>
-27.2577

>  <SCORE.INTER.CONST>
1

>  <SCORE.INTER.POLAR>
-1.33489

>  <SCORE.INTER.ROT>
8

>  <SCORE.INTER.SOLV>
21.3457

>  <SCORE.INTER.VDW>
-29.7707

>  <SCORE.INTER.norm>
-0.851804

>  <SCORE.INTRA>
-0.323973

>  <SCORE.INTRA.DIHEDRAL>
2.71901

>  <SCORE.INTRA.DIHEDRAL.0>
10.9248

>  <SCORE.INTRA.POLAR>
0

>  <SCORE.INTRA.POLAR.0>
0

>  <SCORE.INTRA.REPUL>
0

>  <SCORE.INTRA.REPUL.0>
0

>  <SCORE.INTRA.SOLV>
0.259215

>  <SCORE.INTRA.SOLV.lig_0>
-51.4104

>  <SCORE.INTRA.VDW>
-1.81308

>  <SCORE.INTRA.VDW.0>
0.110327

>  <SCORE.INTRA.norm>
-0.0101242

>  <SCORE.RESTR>
0.536257

>  <SCORE.RESTR.CAVITY>
0.536257

>  <SCORE.RESTR.norm>
0.016758

>  <SCORE.SYSTEM>
0

>  <SCORE.SYSTEM.CONST>
0

>  <SCORE.SYSTEM.DIHEDRAL>
0

>  <SCORE.SYSTEM.SOLV>
0

>  <SCORE.SYSTEM.norm>
0

>  <SCORE.heavy>
32

>  <SCORE.norm>
-0.84517

>  <RMSD>
14.031

$$$$
lig.pdb
 OpenBabel11021811523D
libRbt.so/2013.1/901 2013/11/27
 32 34  0  0  0  0  0  0  0  0999 V2000
    4.7758    1.3999   -1.0116 P   0  0  0  0  0  0  0  0  0  0  0  0
    4.1442    0.0468   -0.7914 O   0  0  0  0  0  0  0  0  0  0  0  0
    6.2999    1.1834   -0.4990 O   0  0  0  0  0  0  0  0  0  0  0  0
    4.9537    1.8886   -2.4274 O   0  0  0  0  0  0  0  0  0  0  0  0
    3.9055    2.3603   -0.3612 O   0  0  0  0  0  0  0  0  0  0  0  0
    2.6383    2.4731   -1.1208 P   0  0  1  0  0  0  0  0  0  0  0  0
    2.9297    3.1492   -2.4069 O   0  0  0  0  0  0  0  0  0  0  0  0
    2.0902    1.1248   -1.3972 O   0  0  0  0  0  0  0  0  0  0  0  0
    1.6587    3.2621   -0.3325 O   0  0  0  0  0  0  0  0  0  0  0  0
    1.1102    2.7894    0.9608 P   0  0  1  0  0  0  0  0  0  0  0  0
    0.1180    1.7005    0.8525 O   0  0  0  0  0  0  0  0  0  0  0  0
    2.1076    2.6169    2.0404 O   0  0  0  0  0  0  0  0  0  0  0  0
    0.2008    4.0389    1.4408 O   0  0  0  0  0  0  0  0  0  0  0  0
    0.5860    5.3836    1.2261 C   0  0  0  0  0  0  0  0  0  0  0  0
   -0.6003    6.2855    0.8579 C   0  0  1  0  0  0  0  0  0  0  0  0
   -0.3777    6.9020   -0.3938 O   0  0  0  0  0  0  0  0  0  0  0  0
   -1.9052    5.5154    0.5898 C   0  0  1  0  0  0  0  0  0  0  0  0
   -2.5950    5.0644    1.7435 O   0  0  0  0  0  0  0  0  0  0  0  0
   -2.7283    6.4960   -0.2452 C   0  0  1  0  0  0  0  0  0  0  0  0
   -3.5594    7.3155    0.5577 O   0  0  0  0  0  0  0  0  0  0  0  0
   -1.6325    7.3638   -0.8613 C   0  0  2  0  0  0  0  0  0  0  0  0
   -1.6542    7.4601   -2.3365 N   0  0  0  0  0  0  0  0  0  0  0  0
   -0.6275    7.5947   -3.2366 C   0  0  0  0  0  0  0  0  0  0  0  0
   -1.0209    7.7493   -4.4744 N   0  0  0  0  0  0  0  0  0  0  0  0
   -2.4092    7.6888   -4.3994 C   0  0  0  0  0  0  0  0  0  0  0  0
   -3.4079    7.8329   -5.4152 C   0  0  0  0  0  0  0  0  0  0  0  0
   -3.2381    8.0879   -6.6057 O   0  0  0  0  0  0  0  0  0  0  0  0
   -4.7098    7.6680   -4.9234 N   0  0  0  0  0  0  0  0  0  0  0  0
   -5.0013    7.3618   -3.6026 C   0  0  0  0  0  0  0  0  0  0  0  0
   -6.2774    7.1242   -3.2790 N   0  0  0  0  0  0  0  0  0  0  0  0
   -4.0645    7.2755   -2.6441 N   0  0  0  0  0  0  0  0  0  0  0  0
   -2.7948    7.4543   -3.1008 C   0  0  0  0  0  0  0  0  0  0  0  0
  1  2  2  0  0  0  0
  1  4  1  0  0  0  0
  1  3  1  0  0  0  0
  5  1  1  0  0  0  0
  6  7  2  6  0  0  0
  6  9  1  0  0  0  0
  6  5  1  0  0  0  0
  6  8  1  0  0  0  0
 10 11  2  6  0  0  0
 10 12  1  0  0  0  0
 10 13  1  0  0  0  0
 10  9  1  0  0  0  0
 13 14  1  0  0  0  0
 15 14  1  6  0  0  0
 15 16  1  0  0  0  0
 17 19  1  0  0  0  0
 17 15  1  0  0  0  0
 17 18  1  1  0  0  0
 19 21  1  0  0  0  0
 19 20  1  1  0  0  0
 21 16  1  0  0  0  0
 21 22  1  6  0  0  0
 22 32  1  0  0  0  0
 23 22  1  0  0  0  0
 23 24  2  0  0  0  0
 24 25  1  0  0  0  0
 25 26  1  0  0  0  0
 26 27  2  0  0  0  0
 26 28  1  0  0  0  0
 29 28  1  0  0  0  0
 29 30  1  0  0  0  0
 31 29  2  0  0  0  0
 32 25  2  0  0  0  0
 32 31  1  0  0  0  0
M  END
>  <CHROM.1>
-70.16545182,-65.14641830,-69.81911380,-37.39761119,-73.81531677,141.60144870
-121.97913563,-33.24858133,-178.02240133,-23.20492699,0.06916331,4.65376216
-1.25081549,-0.44041104,0.59516272,-1.31746157

>  <Name>
lig.pdb

>  <RI>
1.2169e+07

>  <Rbt.Current_Directory>
/home/itssahil/PROJECTS/Mol_Feturizer/New_Systems/rnas/5lwj

>  <Rbt.Executable>
rbdock ($Id: //depot/dev/client3/rdock/2013.1/src/exe/rbdock.cxx#4 $)

>  <Rbt.Library>
libRbt.so (2013.1, Build901 2013/11/27)

>  <Rbt.Parameter_File>
/export/apps/rDock/src/rDock_2013.1_src/data/scripts/dock_solv.prm

>  <Rbt.Receptor>
prm/blind_docking_40.prm

>  <SCORE>
-36.6964

>  <SCORE.INTER>
-40.8231

>  <SCORE.INTER.CONST>
1

>  <SCORE.INTER.POLAR>
-1.94357

>  <SCORE.INTER.ROT>
8

>  <SCORE.INTER.SOLV>
24.0373

>  <SCORE.INTER.VDW>
-37.6826

>  <SCORE.INTER.norm>
-1.27572

>  <SCORE.INTRA>
3.7211

>  <SCORE.INTRA.DIHEDRAL>
6.26469

>  <SCORE.INTRA.DIHEDRAL.0>
10.9248

>  <SCORE.INTRA.POLAR>
-0.00297607

>  <SCORE.INTRA.POLAR.0>
0

>  <SCORE.INTRA.REPUL>
0

>  <SCORE.INTRA.REPUL.0>
0

>  <SCORE.INTRA.SOLV>
0.194467

>  <SCORE.INTRA.SOLV.lig_0>
-51.4104

>  <SCORE.INTRA.VDW>
0.501638

>  <SCORE.INTRA.VDW.0>
0.110327

>  <SCORE.INTRA.norm>
0.116284

>  <SCORE.RESTR>
0.405624

>  <SCORE.RESTR.CAVITY>
0.405624

>  <SCORE.RESTR.norm>
0.0126757

>  <SCORE.SYSTEM>
0

>  <SCORE.SYSTEM.CONST>
0

>  <SCORE.SYSTEM.DIHEDRAL>
0

>  <SCORE.SYSTEM.SOLV>
0

>  <SCORE.SYSTEM.norm>
0

>  <SCORE.heavy>
32

>  <SCORE.norm>
-1.14676

>  <RMSD>
14.072

$$$$
lig.pdb
 OpenBabel11021811523D
libRbt.so/2013.1/901 2013/11/27
 32 34  0  0  0  0  0  0  0  0999 V2000
    4.1423    2.1771   -2.8229 P   0  0  0  0  0  0  0  0  0  0  0  0
    3.6788    0.7562   -3.0330 O   0  0  0  0  0  0  0  0  0  0  0  0
    5.5726    2.2155   -3.5880 O   0  0  0  0  0  0  0  0  0  0  0  0
    3.3680    3.2910   -3.4823 O   0  0  0  0  0  0  0  0  0  0  0  0
    4.0596    2.4201   -1.3957 O   0  0  0  0  0  0  0  0  0  0  0  0
    2.6545    2.2713   -0.9494 P   0  0  1  0  0  0  0  0  0  0  0  0
    1.8276    3.2502   -1.6938 O   0  0  0  0  0  0  0  0  0  0  0  0
    2.1693    0.9036   -1.2472 O   0  0  0  0  0  0  0  0  0  0  0  0
    2.5703    2.5280    0.5103 O   0  0  0  0  0  0  0  0  0  0  0  0
    1.3919    2.1406    1.3215 P   0  0  1  0  0  0  0  0  0  0  0  0
    0.4898    1.1641    0.6775 O   0  0  0  0  0  0  0  0  0  0  0  0
    1.6719    1.8800    2.7511 O   0  0  0  0  0  0  0  0  0  0  0  0
    0.4983    3.4897    1.3196 O   0  0  0  0  0  0  0  0  0  0  0  0
    1.0566    4.7685    1.0836 C   0  0  0  0  0  0  0  0  0  0  0  0
   -0.0128    5.8500    0.8762 C   0  0  1  0  0  0  0  0  0  0  0  0
    0.1699    6.4873   -0.3716 O   0  0  0  0  0  0  0  0  0  0  0  0
   -1.4389    5.2916    0.7266 C   0  0  1  0  0  0  0  0  0  0  0  0
   -2.0662    4.8905    1.9331 O   0  0  0  0  0  0  0  0  0  0  0  0
   -2.1872    6.4206    0.0184 C   0  0  1  0  0  0  0  0  0  0  0  0
   -2.7994    7.3125    0.9332 O   0  0  0  0  0  0  0  0  0  0  0  0
   -1.0430    7.1486   -0.6846 C   0  0  2  0  0  0  0  0  0  0  0  0
   -1.2014    7.3181   -2.1448 N   0  0  0  0  0  0  0  0  0  0  0  0
   -0.2936    7.6929   -3.1028 C   0  0  0  0  0  0  0  0  0  0  0  0
   -0.8077    7.8363   -4.2969 N   0  0  0  0  0  0  0  0  0  0  0  0
   -2.1502    7.5102   -4.1299 C   0  0  0  0  0  0  0  0  0  0  0  0
   -3.2372    7.5169   -5.0618 C   0  0  0  0  0  0  0  0  0  0  0  0
   -3.2143    7.8630   -6.2412 O   0  0  0  0  0  0  0  0  0  0  0  0
   -4.4420    7.0824   -4.4931 N   0  0  0  0  0  0  0  0  0  0  0  0
   -4.5641    6.6561   -3.1792 C   0  0  0  0  0  0  0  0  0  0  0  0
   -5.7439    6.1641   -2.7847 N   0  0  0  0  0  0  0  0  0  0  0  0
   -3.5530    6.6973   -2.2961 N   0  0  0  0  0  0  0  0  0  0  0  0
   -2.3794    7.1376   -2.8266 C   0  0  0  0  0  0  0  0  0  0  0  0
  1  2  2  0  0  0  0
  1  4  1  0  0  0  0
  1  3  1  0  0  0  0
  5  1  1  0  0  0  0
  6  7  2  6  0  0  0
  6  9  1  0  0  0  0
  6  5  1  0  0  0  0
  6  8  1  0  0  0  0
 10 11  2  6  0  0  0
 10 12  1  0  0  0  0
 10 13  1  0  0  0  0
 10  9  1  0  0  0  0
 13 14  1  0  0  0  0
 15 14  1  6  0  0  0
 15 16  1  0  0  0  0
 17 19  1  0  0  0  0
 17 15  1  0  0  0  0
 17 18  1  1  0  0  0
 19 21  1  0  0  0  0
 19 20  1  1  0  0  0
 21 16  1  0  0  0  0
 21 22  1  6  0  0  0
 22 32  1  0  0  0  0
 23 22  1  0  0  0  0
 23 24  2  0  0  0  0
 24 25  1  0  0  0  0
 25 26  1  0  0  0  0
 26 27  2  0  0  0  0
 26 28  1  0  0  0  0
 29 28  1  0  0  0  0
 29 30  1  0  0  0  0
 31 29  2  0  0  0  0
 32 25  2  0  0  0  0
 32 31  1  0  0  0  0
M  END
>  <CHROM.1>
-61.20192484,-164.51906033,-59.40887340,-22.80201169,16.33826736,169.44044554
-123.07032304,47.78180960,45.39724430,-42.60921651,0.19459904,4.50388201
-1.36537107,-0.42041306,0.61692371,-1.28314984

>  <Name>
lig.pdb

>  <RI>
1.17715e+07

>  <Rbt.Current_Directory>
/home/itssahil/PROJECTS/Mol_Feturizer/New_Systems/rnas/5lwj

>  <Rbt.Executable>
rbdock ($Id: //depot/dev/client3/rdock/2013.1/src/exe/rbdock.cxx#4 $)

>  <Rbt.Library>
libRbt.so (2013.1, Build901 2013/11/27)

>  <Rbt.Parameter_File>
/export/apps/rDock/src/rDock_2013.1_src/data/scripts/dock_solv.prm

>  <Rbt.Receptor>
prm/blind_docking_60.prm

>  <SCORE>
-40.8176

>  <SCORE.INTER>
-45.5007

>  <SCORE.INTER.CONST>
1

>  <SCORE.INTER.POLAR>
-2.0105

>  <SCORE.INTER.ROT>
8

>  <SCORE.INTER.SOLV>
26.9868

>  <SCORE.INTER.VDW>
-41.5611

>  <SCORE.INTER.norm>
-1.4219

>  <SCORE.INTRA>
4.55447

>  <SCORE.INTRA.DIHEDRAL>
2.68325

>  <SCORE.INTRA.DIHEDRAL.0>
10.9248

>  <SCORE.INTRA.POLAR>
0

>  <SCORE.INTRA.POLAR.0>
0

>  <SCORE.INTRA.REPUL>
0.0225749

>  <SCORE.INTRA.REPUL.0>
0

>  <SCORE.INTRA.SOLV>
0.953366

>  <SCORE.INTRA.SOLV.lig_0>
-51.4104

>  <SCORE.INTRA.VDW>
2.62329

>  <SCORE.INTRA.VDW.0>
0.110327

>  <SCORE.INTRA.norm>
0.142327

>  <SCORE.RESTR>
0.128658

>  <SCORE.RESTR.CAVITY>
0.128658

>  <SCORE.RESTR.norm>
0.00402056

>  <SCORE.SYSTEM>
0

>  <SCORE.SYSTEM.CONST>
0

>  <SCORE.SYSTEM.DIHEDRAL>
0

>  <SCORE.SYSTEM.SOLV>
0

>  <SCORE.SYSTEM.norm>
0

>  <SCORE.heavy>
32

>  <SCORE.norm>
-1.27555

>  <RMSD>
14.089

$$$$
lig.pdb
 OpenBabel11021811523D
libRbt.so/2013.1/901 2013/11/27
 32 34  0  0  0  0  0  0  0  0999 V2000
    3.4196    2.3560   -2.3723 P   0  0  0  0  0  0  0  0  0  0  0  0
    2.2374    3.2628   -2.1311 O   0  0  0  0  0  0  0  0  0  0  0  0
    2.7333    0.9954   -2.9294 O   0  0  0  0  0  0  0  0  0  0  0  0
    4.3958    2.7217   -3.4625 O   0  0  0  0  0  0  0  0  0  0  0  0
    4.1798    2.3496   -1.1375 O   0  0  0  0  0  0  0  0  0  0  0  0
    3.4120    1.6393   -0.0879 P   0  0  1  0  0  0  0  0  0  0  0  0
    3.3090    0.2130   -0.4767 O   0  0  0  0  0  0  0  0  0  0  0  0
    4.1181    1.7361    1.2109 O   0  0  0  0  0  0  0  0  0  0  0  0
    2.0605    2.2421    0.0285 O   0  0  0  0  0  0  0  0  0  0  0  0
    1.1708    1.9878    1.1864 P   0  0  1  0  0  0  0  0  0  0  0  0
    0.0196    1.1072    0.9020 O   0  0  0  0  0  0  0  0  0  0  0  0
    1.8658    1.7102    2.4632 O   0  0  0  0  0  0  0  0  0  0  0  0
    0.4597    3.4238    1.4124 O   0  0  0  0  0  0  0  0  0  0  0  0
    1.0733    4.6415    1.0337 C   0  0  0  0  0  0  0  0  0  0  0  0
    0.0661    5.7915    0.8953 C   0  0  1  0  0  0  0  0  0  0  0  0
    0.3028    6.5097   -0.2983 O   0  0  0  0  0  0  0  0  0  0  0  0
   -1.3848    5.3236    0.6860 C   0  0  1  0  0  0  0  0  0  0  0  0
   -2.0523    4.8677    1.8507 O   0  0  0  0  0  0  0  0  0  0  0  0
   -2.0607    6.5412    0.0559 C   0  0  1  0  0  0  0  0  0  0  0  0
   -2.6400    7.3937    1.0278 O   0  0  0  0  0  0  0  0  0  0  0  0
   -0.8681    7.2571   -0.5755 C   0  0  2  0  0  0  0  0  0  0  0  0
   -0.9931    7.5438   -2.0206 N   0  0  0  0  0  0  0  0  0  0  0  0
   -0.0991    8.1002   -2.9000 C   0  0  0  0  0  0  0  0  0  0  0  0
   -0.5838    8.2986   -4.0985 N   0  0  0  0  0  0  0  0  0  0  0  0
   -1.8874    7.8176   -4.0214 C   0  0  0  0  0  0  0  0  0  0  0  0
   -2.9353    7.7954   -4.9967 C   0  0  0  0  0  0  0  0  0  0  0  0
   -2.9095    8.2501   -6.1385 O   0  0  0  0  0  0  0  0  0  0  0  0
   -4.1043    7.1844   -4.5232 N   0  0  0  0  0  0  0  0  0  0  0  0
   -4.2245    6.6273   -3.2590 C   0  0  0  0  0  0  0  0  0  0  0  0
   -5.3562    5.9782   -2.9629 N   0  0  0  0  0  0  0  0  0  0  0  0
   -3.2555    6.6934   -2.3314 N   0  0  0  0  0  0  0  0  0  0  0  0
   -2.1196    7.3032   -2.7678 C   0  0  0  0  0  0  0  0  0  0  0  0
  1  2  2  0  0  0  0
  1  4  1  0  0  0  0
  1  3  1  0  0  0  0
  5  1  1  0  0  0  0
  6  7  2  6  0  0  0
  6  9  1  0  0  0  0
  6  5  1  0  0  0  0
  6  8  1  0  0  0  0
 10 11  2  6  0  0  0
 10 12  1  0  0  0  0
 10 13  1  0  0  0  0
 10  9  1  0  0  0  0
 13 14  1  0  0  0  0
 15 14  1  6  0  0  0
 15 16  1  0  0  0  0
 17 19  1  0  0  0  0
 17 15  1  0  0  0  0
 17 18  1  1  0  0  0
 19 21  1  0  0  0  0
 19 20  1  1  0  0  0
 21 16  1  0  0  0  0
 21 22  1  6  0  0  0
 22 32  1  0  0  0  0
 23 22  1  0  0  0  0
 23 24  2  0  0  0  0
 24 25  1  0  0  0  0
 25 26  1  0  0  0  0
 26 27  2  0  0  0  0
 26 28  1  0  0  0  0
 29 28  1  0  0  0  0
 29 30  1  0  0  0  0
 31 29  2  0  0  0  0
 32 25  2  0  0  0  0
 32 31  1  0  0  0  0
M  END
>  <CHROM.1>
69.06924556,-164.95417424,66.33441887,-26.81194881,-107.22663492,160.46357988
-134.11169595,52.18177473,44.64355216,-52.03702015,0.27102033,4.46015355
-1.12164384,-0.56475288,0.65460034,-1.23907034

>  <Name>
lig.pdb

>  <RI>
2.72908e+07

>  <Rbt.Current_Directory>
/home/itssahil/PROJECTS/Mol_Feturizer/New_Systems/rnas/5lwj

>  <Rbt.Executable>
rbdock ($Id: //depot/dev/client3/rdock/2013.1/src/exe/rbdock.cxx#4 $)

>  <Rbt.Library>
libRbt.so (2013.1, Build901 2013/11/27)

>  <Rbt.Parameter_File>
/export/apps/rDock/src/rDock_2013.1_src/data/scripts/dock_solv.prm

>  <Rbt.Receptor>
prm/blind_docking_20.prm

>  <SCORE>
-41.1785

>  <SCORE.INTER>
-43.8068

>  <SCORE.INTER.CONST>
1

>  <SCORE.INTER.POLAR>
-2.19317

>  <SCORE.INTER.ROT>
8

>  <SCORE.INTER.SOLV>
25.5792

>  <SCORE.INTER.VDW>
-39.3537

>  <SCORE.INTER.norm>
-1.36896

>  <SCORE.INTRA>
2.29604

>  <SCORE.INTRA.DIHEDRAL>
3.14684

>  <SCORE.INTRA.DIHEDRAL.0>
10.9248

>  <SCORE.INTRA.POLAR>
0

>  <SCORE.INTRA.POLAR.0>
0

>  <SCORE.INTRA.REPUL>
0.0750693

>  <SCORE.INTRA.REPUL.0>
0

>  <SCORE.INTRA.SOLV>
1.30349

>  <SCORE.INTRA.SOLV.lig_0>
-51.4104

>  <SCORE.INTRA.VDW>
-0.304476

>  <SCORE.INTRA.VDW.0>
0.110327

>  <SCORE.INTRA.norm>
0.0717511

>  <SCORE.RESTR>
0.33234

>  <SCORE.RESTR.CAVITY>
0.33234

>  <SCORE.RESTR.norm>
0.0103856

>  <SCORE.SYSTEM>
0

>  <SCORE.SYSTEM.CONST>
0

>  <SCORE.SYSTEM.DIHEDRAL>
0

>  <SCORE.SYSTEM.SOLV>
0

>  <SCORE.SYSTEM.norm>
0

>  <SCORE.heavy>
32

>  <SCORE.norm>
-1.28683

>  <RMSD>
14.092

$$$$
lig.pdb
 OpenBabel11021811523D
libRbt.so/2013.1/901 2013/11/27
 32 34  0  0  0  0  0  0  0  0999 V2000
    0.6644   -0.1578    0.3583 P   0  0  0  0  0  0  0  0  0  0  0  0
    1.2661    0.2770    1.6724 O   0  0  0  0  0  0  0  0  0  0  0  0
    0.3126   -1.7211    0.6129 O   0  0  0  0  0  0  0  0  0  0  0  0
   -0.6609    0.4314   -0.0558 O   0  0  0  0  0  0  0  0  0  0  0  0
    1.6144    0.2296   -0.6665 O   0  0  0  0  0  0  0  0  0  0  0  0
    2.1173    1.5945   -0.3840 P   0  0  1  0  0  0  0  0  0  0  0  0
    3.0986    1.5050    0.7228 O   0  0  0  0  0  0  0  0  0  0  0  0
    2.7904    2.1459   -1.5830 O   0  0  0  0  0  0  0  0  0  0  0  0
    0.9816    2.4692    0.0017 O   0  0  0  0  0  0  0  0  0  0  0  0
    1.0640    3.4354    1.1227 P   0  0  1  0  0  0  0  0  0  0  0  0
    0.4518    2.9739    2.3852 O   0  0  0  0  0  0  0  0  0  0  0  0
    2.3726    4.1093    1.2758 O   0  0  0  0  0  0  0  0  0  0  0  0
    0.0521    4.6093    0.6571 O   0  0  0  0  0  0  0  0  0  0  0  0
    0.5048    5.8988    0.2897 C   0  0  0  0  0  0  0  0  0  0  0  0
   -0.1343    6.3993   -1.0132 C   0  0  1  0  0  0  0  0  0  0  0  0
   -1.5149    6.0995   -1.0289 O   0  0  0  0  0  0  0  0  0  0  0  0
   -0.1544    7.9323   -1.1452 C   0  0  1  0  0  0  0  0  0  0  0  0
    1.0787    8.5289   -1.5106 O   0  0  0  0  0  0  0  0  0  0  0  0
   -1.2593    8.1835   -2.1710 C   0  0  1  0  0  0  0  0  0  0  0  0
   -0.7586    8.2313   -3.4954 O   0  0  0  0  0  0  0  0  0  0  0  0
   -2.1105    6.9248   -2.0142 C   0  0  2  0  0  0  0  0  0  0  0  0
   -3.5416    7.1589   -1.7256 N   0  0  0  0  0  0  0  0  0  0  0  0
   -4.2852    8.3107   -1.7783 C   0  0  0  0  0  0  0  0  0  0  0  0
   -5.5157    8.1703   -1.3576 N   0  0  0  0  0  0  0  0  0  0  0  0
   -5.6083    6.8226   -1.0230 C   0  0  0  0  0  0  0  0  0  0  0  0
   -6.6911    6.0696   -0.4659 C   0  0  0  0  0  0  0  0  0  0  0  0
   -7.7951    6.4843   -0.1189 O   0  0  0  0  0  0  0  0  0  0  0  0
   -6.3834    4.7114   -0.3092 N   0  0  0  0  0  0  0  0  0  0  0  0
   -5.1741    4.1471   -0.6864 C   0  0  0  0  0  0  0  0  0  0  0  0
   -5.0404    2.8200   -0.5844 N   0  0  0  0  0  0  0  0  0  0  0  0
   -4.1446    4.8658   -1.1634 N   0  0  0  0  0  0  0  0  0  0  0  0
   -4.4192    6.1916   -1.3020 C   0  0  0  0  0  0  0  0  0  0  0  0
  1  2  2  0  0  0  0
  1  4  1  0  0  0  0
  1  3  1  0  0  0  0
  5  1  1  0  0  0  0
  6  7  2  1  0  0  0
  6  9  1  0  0  0  0
  6  5  1  0  0  0  0
  6  8  1  0  0  0  0
 10 11  2  1  0  0  0
 10 12  1  0  0  0  0
 10 13  1  0  0  0  0
 10  9  1  0  0  0  0
 13 14  1  0  0  0  0
 15 14  1  1  0  0  0
 15 16  1  0  0  0  0
 17 19  1  0  0  0  0
 17 15  1  0  0  0  0
 17 18  1  6  0  0  0
 19 21  1  0  0  0  0
 19 20  1  6  0  0  0
 21 16  1  0  0  0  0
 21 22  1  1  0  0  0
 22 32  1  0  0  0  0
 23 22  1  0  0  0  0
 23 24  2  0  0  0  0
 24 25  1  0  0  0  0
 25 26  1  0  0  0  0
 26 27  2  0  0  0  0
 26 28  1  0  0  0  0
 29 28  1  0  0  0  0
 29 30  1  0  0  0  0
 31 29  2  0  0  0  0
 32 25  2  0  0  0  0
 32 31  1  0  0  0  0
M  END
>  <CHROM.1>
-43.30088794,137.33897363,76.17114872,-111.15955096,-99.72604998,133.35353359
42.69034596,61.86231656,62.57885475,135.79288054,-1.05696188,4.15869727,-0.39815520
0.78712006,-0.00075160,2.85976767

>  <Name>
lig.pdb

>  <RI>
2.72908e+07

>  <Rbt.Current_Directory>
/home/itssahil/PROJECTS/Mol_Feturizer/New_Systems/rnas/5lwj

>  <Rbt.Executable>
rbdock ($Id: //depot/dev/client3/rdock/2013.1/src/exe/rbdock.cxx#4 $)

>  <Rbt.Library>
libRbt.so (2013.1, Build901 2013/11/27)

>  <Rbt.Parameter_File>
/export/apps/rDock/src/rDock_2013.1_src/data/scripts/dock_solv.prm

>  <Rbt.Receptor>
prm/blind_docking_20.prm

>  <SCORE>
-23.6997

>  <SCORE.INTER>
-29.6585

>  <SCORE.INTER.CONST>
1

>  <SCORE.INTER.POLAR>
-1.89292

>  <SCORE.INTER.ROT>
8

>  <SCORE.INTER.SOLV>
24.1925

>  <SCORE.INTER.VDW>
-30.4601

>  <SCORE.INTER.norm>
-0.926829

>  <SCORE.INTRA>
5.47169

>  <SCORE.INTRA.DIHEDRAL>
5.53004

>  <SCORE.INTRA.DIHEDRAL.0>
10.9248

>  <SCORE.INTRA.POLAR>
0

>  <SCORE.INTRA.POLAR.0>
0

>  <SCORE.INTRA.REPUL>
0.111581

>  <SCORE.INTRA.REPUL.0>
0

>  <SCORE.INTRA.SOLV>
2.36828

>  <SCORE.INTRA.SOLV.lig_0>
-51.4104

>  <SCORE.INTRA.VDW>
0.964615

>  <SCORE.INTRA.VDW.0>
0.110327

>  <SCORE.INTRA.norm>
0.17099

>  <SCORE.RESTR>
0.487174

>  <SCORE.RESTR.CAVITY>
0.487174

>  <SCORE.RESTR.norm>
0.0152242

>  <SCORE.SYSTEM>
0

>  <SCORE.SYSTEM.CONST>
0

>  <SCORE.SYSTEM.DIHEDRAL>
0

>  <SCORE.SYSTEM.SOLV>
0

>  <SCORE.SYSTEM.norm>
0

>  <SCORE.heavy>
32

>  <SCORE.norm>
-0.740614

>  <RMSD>
14.113

$$$$
lig.pdb
 OpenBabel11021811523D
libRbt.so/2013.1/901 2013/11/27
 32 34  0  0  0  0  0  0  0  0999 V2000
    3.0678    0.3677   -1.8560 P   0  0  0  0  0  0  0  0  0  0  0  0
    3.4341    1.1042   -3.1214 O   0  0  0  0  0  0  0  0  0  0  0  0
    2.6746   -1.1127   -2.3913 O   0  0  0  0  0  0  0  0  0  0  0  0
    4.1525    0.0923   -0.8446 O   0  0  0  0  0  0  0  0  0  0  0  0
    2.0875    1.1945   -1.1791 O   0  0  0  0  0  0  0  0  0  0  0  0
    2.6889    2.5093   -0.8548 P   0  0  1  0  0  0  0  0  0  0  0  0
    3.8553    2.2780    0.0295 O   0  0  0  0  0  0  0  0  0  0  0  0
    3.1479    3.1774   -2.0949 O   0  0  0  0  0  0  0  0  0  0  0  0
    1.6814    3.3577   -0.1701 O   0  0  0  0  0  0  0  0  0  0  0  0
    0.9258    2.8964    1.0187 P   0  0  1  0  0  0  0  0  0  0  0  0
   -0.1015    1.8720    0.7412 O   0  0  0  0  0  0  0  0  0  0  0  0
    1.7456    2.6445    2.2248 O   0  0  0  0  0  0  0  0  0  0  0  0
    0.0303    4.1902    1.3965 O   0  0  0  0  0  0  0  0  0  0  0  0
    0.0224    5.3638    0.6057 C   0  0  0  0  0  0  0  0  0  0  0  0
   -1.3058    6.1279    0.6973 C   0  0  1  0  0  0  0  0  0  0  0  0
   -1.2887    7.2463   -0.1660 O   0  0  0  0  0  0  0  0  0  0  0  0
   -2.5121    5.3424    0.1535 C   0  0  1  0  0  0  0  0  0  0  0  0
   -3.0218    4.3362    1.0125 O   0  0  0  0  0  0  0  0  0  0  0  0
   -3.5368    6.4352   -0.1498 C   0  0  1  0  0  0  0  0  0  0  0  0
   -4.3933    6.6854    0.9506 O   0  0  0  0  0  0  0  0  0  0  0  0
   -2.6334    7.6499   -0.3538 C   0  0  2  0  0  0  0  0  0  0  0  0
   -2.8068    8.3606   -1.6387 N   0  0  0  0  0  0  0  0  0  0  0  0
   -1.8760    8.8496   -2.5200 C   0  0  0  0  0  0  0  0  0  0  0  0
   -2.3891    9.5176   -3.5207 N   0  0  0  0  0  0  0  0  0  0  0  0
   -3.7624    9.4489   -3.3061 C   0  0  0  0  0  0  0  0  0  0  0  0
   -4.8529   10.0213   -4.0362 C   0  0  0  0  0  0  0  0  0  0  0  0
   -4.7956   10.7532   -5.0223 O   0  0  0  0  0  0  0  0  0  0  0  0
   -6.1024    9.6809   -3.5008 N   0  0  0  0  0  0  0  0  0  0  0  0
   -6.2697    8.8493   -2.4038 C   0  0  0  0  0  0  0  0  0  0  0  0
   -7.5164    8.5137   -2.0533 N   0  0  0  0  0  0  0  0  0  0  0  0
   -5.2430    8.3542   -1.6934 N   0  0  0  0  0  0  0  0  0  0  0  0
   -4.0208    8.6928   -2.1873 C   0  0  0  0  0  0  0  0  0  0  0  0
  1  2  2  0  0  0  0
  1  4  1  0  0  0  0
  1  3  1  0  0  0  0
  5  1  1  0  0  0  0
  6  7  2  1  0  0  0
  6  9  1  0  0  0  0
  6  5  1  0  0  0  0
  6  8  1  0  0  0  0
 10 11  2  6  0  0  0
 10 12  1  0  0  0  0
 10 13  1  0  0  0  0
 10  9  1  0  0  0  0
 13 14  1  0  0  0  0
 15 14  1  6  0  0  0
 15 16  1  0  0  0  0
 17 19  1  0  0  0  0
 17 15  1  0  0  0  0
 17 18  1  1  0  0  0
 19 21  1  0  0  0  0
 19 20  1  1  0  0  0
 21 16  1  0  0  0  0
 21 22  1  6  0  0  0
 22 32  1  0  0  0  0
 23 22  1  0  0  0  0
 23 24  2  0  0  0  0
 24 25  1  0  0  0  0
 25 26  1  0  0  0  0
 26 27  2  0  0  0  0
 26 28  1  0  0  0  0
 29 28  1  0  0  0  0
 29 30  1  0  0  0  0
 31 29  2  0  0  0  0
 32 25  2  0  0  0  0
 32 31  1  0  0  0  0
M  END
>  <CHROM.1>
-60.89767766,52.26354587,-60.10450480,4.07962232,-71.97102113,151.46440828
-176.70407654,179.14455257,168.02167207,-11.54454720,-0.76211237,4.95507665
-1.02853171,-0.43375608,0.69985552,-1.15389155

>  <Name>
lig.pdb

>  <RI>
1.2169e+07

>  <Rbt.Current_Directory>
/home/itssahil/PROJECTS/Mol_Feturizer/New_Systems/rnas/5lwj

>  <Rbt.Executable>
rbdock ($Id: //depot/dev/client3/rdock/2013.1/src/exe/rbdock.cxx#4 $)

>  <Rbt.Library>
libRbt.so (2013.1, Build901 2013/11/27)

>  <Rbt.Parameter_File>
/export/apps/rDock/src/rDock_2013.1_src/data/scripts/dock_solv.prm

>  <Rbt.Receptor>
prm/blind_docking_40.prm

>  <SCORE>
-32.5175

>  <SCORE.INTER>
-33.4219

>  <SCORE.INTER.CONST>
1

>  <SCORE.INTER.POLAR>
-2.69774

>  <SCORE.INTER.ROT>
8

>  <SCORE.INTER.SOLV>
23.9245

>  <SCORE.INTER.VDW>
-30.197

>  <SCORE.INTER.norm>
-1.04443

>  <SCORE.INTRA>
0.724637

>  <SCORE.INTRA.DIHEDRAL>
-1.54124

>  <SCORE.INTRA.DIHEDRAL.0>
10.9248

>  <SCORE.INTRA.POLAR>
0

>  <SCORE.INTRA.POLAR.0>
0

>  <SCORE.INTRA.REPUL>
0

>  <SCORE.INTRA.REPUL.0>
0

>  <SCORE.INTRA.SOLV>
1.05039

>  <SCORE.INTRA.SOLV.lig_0>
-51.4104

>  <SCORE.INTRA.VDW>
0.97006

>  <SCORE.INTRA.VDW.0>
0.110327

>  <SCORE.INTRA.norm>
0.0226449

>  <SCORE.RESTR>
0.17977

>  <SCORE.RESTR.CAVITY>
0.17977

>  <SCORE.RESTR.norm>
0.00561781

>  <SCORE.SYSTEM>
0

>  <SCORE.SYSTEM.CONST>
0

>  <SCORE.SYSTEM.DIHEDRAL>
0

>  <SCORE.SYSTEM.SOLV>
0

>  <SCORE.SYSTEM.norm>
0

>  <SCORE.heavy>
32

>  <SCORE.norm>
-1.01617

>  <RMSD>
14.115

$$$$
lig.pdb
 OpenBabel11021811523D
libRbt.so/2013.1/901 2013/11/27
 32 34  0  0  0  0  0  0  0  0999 V2000
    4.0372    2.1415   -2.8043 P   0  0  0  0  0  0  0  0  0  0  0  0
    5.2463    1.8960   -1.9350 O   0  0  0  0  0  0  0  0  0  0  0  0
    4.6858    2.6317   -4.2084 O   0  0  0  0  0  0  0  0  0  0  0  0
    3.1906    0.9604   -3.2087 O   0  0  0  0  0  0  0  0  0  0  0  0
    3.1673    3.0184   -2.0447 O   0  0  0  0  0  0  0  0  0  0  0  0
    2.7629    2.3461   -0.7877 P   0  0  1  0  0  0  0  0  0  0  0  0
    2.1169    1.0596   -1.1395 O   0  0  0  0  0  0  0  0  0  0  0  0
    3.9547    2.0752    0.0494 O   0  0  0  0  0  0  0  0  0  0  0  0
    1.8146    3.2147   -0.0462 O   0  0  0  0  0  0  0  0  0  0  0  0
    1.0828    2.7518    1.1568 P   0  0  1  0  0  0  0  0  0  0  0  0
    0.0296    1.7499    0.8943 O   0  0  0  0  0  0  0  0  0  0  0  0
    1.9297    2.4694    2.3370 O   0  0  0  0  0  0  0  0  0  0  0  0
    0.2217    4.0566    1.5748 O   0  0  0  0  0  0  0  0  0  0  0  0
    0.5886    5.3653    1.1804 C   0  0  0  0  0  0  0  0  0  0  0  0
   -0.6249    6.2383    0.8316 C   0  0  1  0  0  0  0  0  0  0  0  0
   -0.4444    6.8471   -0.4306 O   0  0  0  0  0  0  0  0  0  0  0  0
   -1.9190    5.4383    0.6012 C   0  0  1  0  0  0  0  0  0  0  0  0
   -2.5721    4.9841    1.7748 O   0  0  0  0  0  0  0  0  0  0  0  0
   -2.7818    6.3931   -0.2234 C   0  0  1  0  0  0  0  0  0  0  0  0
   -3.6114    7.2027    0.5911 O   0  0  0  0  0  0  0  0  0  0  0  0
   -1.7193    7.2778   -0.8729 C   0  0  2  0  0  0  0  0  0  0  0  0
   -1.7771    7.3592   -2.3480 N   0  0  0  0  0  0  0  0  0  0  0  0
   -0.8294    7.7561   -3.2572 C   0  0  0  0  0  0  0  0  0  0  0  0
   -1.2593    7.7967   -4.4918 N   0  0  0  0  0  0  0  0  0  0  0  0
   -2.5820    7.3729   -4.4047 C   0  0  0  0  0  0  0  0  0  0  0  0
   -3.5912    7.2448   -5.4122 C   0  0  0  0  0  0  0  0  0  0  0  0
   -3.5040    7.5309   -6.6045 O   0  0  0  0  0  0  0  0  0  0  0  0
   -4.7998    6.7447   -4.9089 N   0  0  0  0  0  0  0  0  0  0  0  0
   -4.9899    6.3777   -3.5852 C   0  0  0  0  0  0  0  0  0  0  0  0
   -6.1557    5.8135   -3.2502 N   0  0  0  0  0  0  0  0  0  0  0  0
   -4.0560    6.5450   -2.6346 N   0  0  0  0  0  0  0  0  0  0  0  0
   -2.8819    7.0502   -3.1025 C   0  0  0  0  0  0  0  0  0  0  0  0
  1  2  2  0  0  0  0
  1  4  1  0  0  0  0
  1  3  1  0  0  0  0
  5  1  1  0  0  0  0
  6  7  2  6  0  0  0
  6  9  1  0  0  0  0
  6  5  1  0  0  0  0
  6  8  1  0  0  0  0
 10 11  2  6  0  0  0
 10 12  1  0  0  0  0
 10 13  1  0  0  0  0
 10  9  1  0  0  0  0
 13 14  1  0  0  0  0
 15 14  1  6  0  0  0
 15 16  1  0  0  0  0
 17 19  1  0  0  0  0
 17 15  1  0  0  0  0
 17 18  1  1  0  0  0
 19 21  1  0  0  0  0
 19 20  1  1  0  0  0
 21 16  1  0  0  0  0
 21 22  1  6  0  0  0
 22 32  1  0  0  0  0
 23 22  1  0  0  0  0
 23 24  2  0  0  0  0
 24 25  1  0  0  0  0
 25 26  1  0  0  0  0
 26 27  2  0  0  0  0
 26 28  1  0  0  0  0
 29 28  1  0  0  0  0
 29 30  1  0  0  0  0
 31 29  2  0  0  0  0
 32 25  2  0  0  0  0
 32 31  1  0  0  0  0
M  END
>  <CHROM.1>
-61.20751326,171.40307458,-56.69784829,-22.46215561,-70.44780186,142.04337413
-129.19384151,-30.29837408,27.63730442,-37.29677762,-0.06934608,4.56998397
-1.44165002,-0.35211700,0.57775433,-1.40104374

>  <Name>
lig.pdb

>  <RI>
1.17715e+07

>  <Rbt.Current_Directory>
/home/itssahil/PROJECTS/Mol_Feturizer/New_Systems/rnas/5lwj

>  <Rbt.Executable>
rbdock ($Id: //depot/dev/client3/rdock/2013.1/src/exe/rbdock.cxx#4 $)

>  <Rbt.Library>
libRbt.so (2013.1, Build901 2013/11/27)

>  <Rbt.Parameter_File>
/export/apps/rDock/src/rDock_2013.1_src/data/scripts/dock_solv.prm

>  <Rbt.Receptor>
prm/blind_docking_60.prm

>  <SCORE>
-37.1485

>  <SCORE.INTER>
-44.9492

>  <SCORE.INTER.CONST>
1

>  <SCORE.INTER.POLAR>
-1.90918

>  <SCORE.INTER.ROT>
8

>  <SCORE.INTER.SOLV>
26.3319

>  <SCORE.INTER.VDW>
-41.3128

>  <SCORE.INTER.norm>
-1.40466

>  <SCORE.INTRA>
7.79608

>  <SCORE.INTRA.DIHEDRAL>
10.9698

>  <SCORE.INTRA.DIHEDRAL.0>
10.9248

>  <SCORE.INTRA.POLAR>
-0.053924

>  <SCORE.INTRA.POLAR.0>
0

>  <SCORE.INTRA.REPUL>
0

>  <SCORE.INTRA.REPUL.0>
0

>  <SCORE.INTRA.SOLV>
0.398009

>  <SCORE.INTRA.SOLV.lig_0>
-51.4104

>  <SCORE.INTRA.VDW>
2.29551

>  <SCORE.INTRA.VDW.0>
0.110327

>  <SCORE.INTRA.norm>
0.243627

>  <SCORE.RESTR>
0.00453687

>  <SCORE.RESTR.CAVITY>
0.00453687

>  <SCORE.RESTR.norm>
0.000141777

>  <SCORE.SYSTEM>
0

>  <SCORE.SYSTEM.CONST>
0

>  <SCORE.SYSTEM.DIHEDRAL>
0

>  <SCORE.SYSTEM.SOLV>
0

>  <SCORE.SYSTEM.norm>
0

>  <SCORE.heavy>
32

>  <SCORE.norm>
-1.16089

>  <RMSD>
14.118

$$$$
lig.pdb
 OpenBabel11021811523D
libRbt.so/2013.1/901 2013/11/27
 32 34  0  0  0  0  0  0  0  0999 V2000
    4.5022    0.8286    0.0260 P   0  0  0  0  0  0  0  0  0  0  0  0
    5.9179    1.1025    0.4717 O   0  0  0  0  0  0  0  0  0  0  0  0
    4.6807    0.4051   -1.5301 O   0  0  0  0  0  0  0  0  0  0  0  0
    3.7755   -0.3504    0.6235 O   0  0  0  0  0  0  0  0  0  0  0  0
    3.7320    2.0021    0.3900 O   0  0  0  0  0  0  0  0  0  0  0  0
    2.7784    2.3245   -0.6973 P   0  0  1  0  0  0  0  0  0  0  0  0
    3.5554    2.7942   -1.8685 O   0  0  0  0  0  0  0  0  0  0  0  0
    2.0145    1.1138   -1.0784 O   0  0  0  0  0  0  0  0  0  0  0  0
    1.8454    3.3837   -0.2377 O   0  0  0  0  0  0  0  0  0  0  0  0
    1.0296    3.2491    0.9925 P   0  0  1  0  0  0  0  0  0  0  0  0
   -0.2946    2.6258    0.7931 O   0  0  0  0  0  0  0  0  0  0  0  0
    1.7663    2.7762    2.1857 O   0  0  0  0  0  0  0  0  0  0  0  0
    0.6418    4.7828    1.3331 O   0  0  0  0  0  0  0  0  0  0  0  0
    0.3657    5.7368    0.3250 C   0  0  0  0  0  0  0  0  0  0  0  0
   -1.0270    6.3651    0.4729 C   0  0  1  0  0  0  0  0  0  0  0  0
   -1.4829    6.8463   -0.7749 O   0  0  0  0  0  0  0  0  0  0  0  0
   -2.1296    5.3528    0.8298 C   0  0  1  0  0  0  0  0  0  0  0  0
   -2.1624    4.9399    2.1857 O   0  0  0  0  0  0  0  0  0  0  0  0
   -3.4127    6.0615    0.3967 C   0  0  1  0  0  0  0  0  0  0  0  0
   -3.9852    6.8202    1.4472 O   0  0  0  0  0  0  0  0  0  0  0  0
   -2.8847    7.0203   -0.6688 C   0  0  2  0  0  0  0  0  0  0  0  0
   -3.5399    6.9226   -1.9906 N   0  0  0  0  0  0  0  0  0  0  0  0
   -4.5988    6.1557   -2.4066 C   0  0  0  0  0  0  0  0  0  0  0  0
   -4.8548    6.2498   -3.6858 N   0  0  0  0  0  0  0  0  0  0  0  0
   -3.9156    7.1639   -4.1536 C   0  0  0  0  0  0  0  0  0  0  0  0
   -3.6607    7.6488   -5.4764 C   0  0  0  0  0  0  0  0  0  0  0  0
   -4.2177    7.3145   -6.5201 O   0  0  0  0  0  0  0  0  0  0  0  0
   -2.6331    8.6008   -5.5166 N   0  0  0  0  0  0  0  0  0  0  0  0
   -1.9584    9.0540   -4.3930 C   0  0  0  0  0  0  0  0  0  0  0  0
   -1.0709   10.0428   -4.5486 N   0  0  0  0  0  0  0  0  0  0  0  0
   -2.1679    8.5612   -3.1613 N   0  0  0  0  0  0  0  0  0  0  0  0
   -3.1488    7.6192   -3.1073 C   0  0  0  0  0  0  0  0  0  0  0  0
  1  2  2  0  0  0  0
  1  4  1  0  0  0  0
  1  3  1  0  0  0  0
  5  1  1  0  0  0  0
  6  7  2  6  0  0  0
  6  9  1  0  0  0  0
  6  5  1  0  0  0  0
  6  8  1  0  0  0  0
 10 11  2  6  0  0  0
 10 12  1  0  0  0  0
 10 13  1  0  0  0  0
 10  9  1  0  0  0  0
 13 14  1  0  0  0  0
 15 14  1  6  0  0  0
 15 16  1  0  0  0  0
 17 19  1  0  0  0  0
 17 15  1  0  0  0  0
 17 18  1  1  0  0  0
 19 21  1  0  0  0  0
 19 20  1  1  0  0  0
 21 16  1  0  0  0  0
 21 22  1  6  0  0  0
 22 32  1  0  0  0  0
 23 22  1  0  0  0  0
 23 24  2  0  0  0  0
 24 25  1  0  0  0  0
 25 26  1  0  0  0  0
 26 27  2  0  0  0  0
 26 28  1  0  0  0  0
 29 28  1  0  0  0  0
 29 30  1  0  0  0  0
 31 29  2  0  0  0  0
 32 25  2  0  0  0  0
 32 31  1  0  0  0  0
M  END
>  <CHROM.1>
139.46374226,-55.20761370,-68.76826377,36.36051619,-89.61399780,122.58397677
-155.56336532,-42.07994398,169.92864174,128.02004317,-0.05763525,4.64731583
-1.01583372,-0.55906833,0.61270378,-1.25341927

>  <Name>
lig.pdb

>  <RI>
1.17715e+07

>  <Rbt.Current_Directory>
/home/itssahil/PROJECTS/Mol_Feturizer/New_Systems/rnas/5lwj

>  <Rbt.Executable>
rbdock ($Id: //depot/dev/client3/rdock/2013.1/src/exe/rbdock.cxx#4 $)

>  <Rbt.Library>
libRbt.so (2013.1, Build901 2013/11/27)

>  <Rbt.Parameter_File>
/export/apps/rDock/src/rDock_2013.1_src/data/scripts/dock_solv.prm

>  <Rbt.Receptor>
prm/blind_docking_60.prm

>  <SCORE>
-32.7369

>  <SCORE.INTER>
-31.8042

>  <SCORE.INTER.CONST>
1

>  <SCORE.INTER.POLAR>
-2.34902

>  <SCORE.INTER.ROT>
8

>  <SCORE.INTER.SOLV>
24.44

>  <SCORE.INTER.VDW>
-30.4527

>  <SCORE.INTER.norm>
-0.99388

>  <SCORE.INTRA>
-1.25065

>  <SCORE.INTRA.DIHEDRAL>
6.01018

>  <SCORE.INTRA.DIHEDRAL.0>
10.9248

>  <SCORE.INTRA.POLAR>
-0.479865

>  <SCORE.INTRA.POLAR.0>
0

>  <SCORE.INTRA.REPUL>
0.045042

>  <SCORE.INTRA.REPUL.0>
0

>  <SCORE.INTRA.SOLV>
0.672849

>  <SCORE.INTRA.SOLV.lig_0>
-51.4104

>  <SCORE.INTRA.VDW>
-3.18583

>  <SCORE.INTRA.VDW.0>
0.110327

>  <SCORE.INTRA.norm>
-0.0390827

>  <SCORE.RESTR>
0.317927

>  <SCORE.RESTR.CAVITY>
0.317927

>  <SCORE.RESTR.norm>
0.00993521

>  <SCORE.SYSTEM>
0

>  <SCORE.SYSTEM.CONST>
0

>  <SCORE.SYSTEM.DIHEDRAL>
0

>  <SCORE.SYSTEM.SOLV>
0

>  <SCORE.SYSTEM.norm>
0

>  <SCORE.heavy>
32

>  <SCORE.norm>
-1.02303

>  <RMSD>
14.128

$$$$
lig.pdb
 OpenBabel11021811523D
libRbt.so/2013.1/901 2013/11/27
 32 34  0  0  0  0  0  0  0  0999 V2000
    3.5081    2.0418   -2.3422 P   0  0  0  0  0  0  0  0  0  0  0  0
    4.5300    2.2161   -1.2452 O   0  0  0  0  0  0  0  0  0  0  0  0
    2.8724    3.5268   -2.4935 O   0  0  0  0  0  0  0  0  0  0  0  0
    3.9949    1.7309   -3.7356 O   0  0  0  0  0  0  0  0  0  0  0  0
    2.6803    0.9192   -1.9457 O   0  0  0  0  0  0  0  0  0  0  0  0
    2.1251    1.1671   -0.5945 P   0  0  1  0  0  0  0  0  0  0  0  0
    0.9634    0.2677   -0.4007 O   0  0  0  0  0  0  0  0  0  0  0  0
    3.1455    0.8671    0.4367 O   0  0  0  0  0  0  0  0  0  0  0  0
    1.7035    2.5863   -0.4867 O   0  0  0  0  0  0  0  0  0  0  0  0
    1.4927    3.2588    0.8173 P   0  0  1  0  0  0  0  0  0  0  0  0
    0.5643    2.5625    1.7310 O   0  0  0  0  0  0  0  0  0  0  0  0
    2.7187    3.7844    1.4581 O   0  0  0  0  0  0  0  0  0  0  0  0
    0.6491    4.5773    0.4066 O   0  0  0  0  0  0  0  0  0  0  0  0
    0.2850    5.5683    1.3490 C   0  0  0  0  0  0  0  0  0  0  0  0
   -0.9391    6.3819    0.9063 C   0  0  1  0  0  0  0  0  0  0  0  0
   -0.6730    7.0437   -0.3134 O   0  0  0  0  0  0  0  0  0  0  0  0
   -2.1535    5.5175    0.5247 C   0  0  1  0  0  0  0  0  0  0  0  0
   -2.8898    4.9861    1.6136 O   0  0  0  0  0  0  0  0  0  0  0  0
   -2.9877    6.4495   -0.3539 C   0  0  1  0  0  0  0  0  0  0  0  0
   -3.9405    7.1813    0.3969 O   0  0  0  0  0  0  0  0  0  0  0  0
   -1.9221    7.4157   -0.8681 C   0  0  2  0  0  0  0  0  0  0  0  0
   -1.8400    7.5450   -2.3387 N   0  0  0  0  0  0  0  0  0  0  0  0
   -0.7509    7.6710   -3.1635 C   0  0  0  0  0  0  0  0  0  0  0  0
   -1.0543    7.8635   -4.4211 N   0  0  0  0  0  0  0  0  0  0  0  0
   -2.4456    7.8398   -4.4421 C   0  0  0  0  0  0  0  0  0  0  0  0
   -3.3681    8.0337   -5.5197 C   0  0  0  0  0  0  0  0  0  0  0  0
   -3.1105    8.3101   -6.6895 O   0  0  0  0  0  0  0  0  0  0  0  0
   -4.7045    7.8941   -5.1216 N   0  0  0  0  0  0  0  0  0  0  0  0
   -5.0938    7.5671   -3.8314 C   0  0  0  0  0  0  0  0  0  0  0  0
   -6.3949    7.3578   -3.6011 N   0  0  0  0  0  0  0  0  0  0  0  0
   -4.2275    7.4339   -2.8138 N   0  0  0  0  0  0  0  0  0  0  0  0
   -2.9253    7.5876   -3.1787 C   0  0  0  0  0  0  0  0  0  0  0  0
  1  2  2  0  0  0  0
  1  4  1  0  0  0  0
  1  3  1  0  0  0  0
  5  1  1  0  0  0  0
  6  7  2  1  0  0  0
  6  9  1  0  0  0  0
  6  5  1  0  0  0  0
  6  8  1  0  0  0  0
 10 11  2  1  0  0  0
 10 12  1  0  0  0  0
 10 13  1  0  0  0  0
 10  9  1  0  0  0  0
 13 14  1  0  0  0  0
 15 14  1  6  0  0  0
 15 16  1  0  0  0  0
 17 19  1  0  0  0  0
 17 15  1  0  0  0  0
 17 18  1  1  0  0  0
 19 21  1  0  0  0  0
 19 20  1  1  0  0  0
 21 16  1  0  0  0  0
 21 22  1  6  0  0  0
 22 32  1  0  0  0  0
 23 22  1  0  0  0  0
 23 24  2  0  0  0  0
 24 25  1  0  0  0  0
 25 26  1  0  0  0  0
 26 27  2  0  0  0  0
 26 28  1  0  0  0  0
 29 28  1  0  0  0  0
 29 30  1  0  0  0  0
 31 29  2  0  0  0  0
 32 25  2  0  0  0  0
 32 31  1  0  0  0  0
M  END
>  <CHROM.1>
54.89068785,-161.19193784,161.44185604,-176.37990051,-53.68413603,-156.49318391
-60.31954735,167.91525946,-56.63586416,-17.05634963,-0.24438746,4.74416580
-1.41842907,-0.44116211,0.67133582,-1.36195636

>  <Name>
lig.pdb

>  <RI>
1.2169e+07

>  <Rbt.Current_Directory>
/home/itssahil/PROJECTS/Mol_Feturizer/New_Systems/rnas/5lwj

>  <Rbt.Executable>
rbdock ($Id: //depot/dev/client3/rdock/2013.1/src/exe/rbdock.cxx#4 $)

>  <Rbt.Library>
libRbt.so (2013.1, Build901 2013/11/27)

>  <Rbt.Parameter_File>
/export/apps/rDock/src/rDock_2013.1_src/data/scripts/dock_solv.prm

>  <Rbt.Receptor>
prm/blind_docking_40.prm

>  <SCORE>
-39.5715

>  <SCORE.INTER>
-36.9082

>  <SCORE.INTER.CONST>
1

>  <SCORE.INTER.POLAR>
-1.70401

>  <SCORE.INTER.ROT>
8

>  <SCORE.INTER.SOLV>
22.1419

>  <SCORE.INTER.VDW>
-35.2394

>  <SCORE.INTER.norm>
-1.15338

>  <SCORE.INTRA>
-2.72686

>  <SCORE.INTRA.DIHEDRAL>
-3.37813

>  <SCORE.INTRA.DIHEDRAL.0>
10.9248

>  <SCORE.INTRA.POLAR>
0

>  <SCORE.INTRA.POLAR.0>
0

>  <SCORE.INTRA.REPUL>
0

>  <SCORE.INTRA.REPUL.0>
0

>  <SCORE.INTRA.SOLV>
1.10072

>  <SCORE.INTRA.SOLV.lig_0>
-51.4104

>  <SCORE.INTRA.VDW>
-1.58815

>  <SCORE.INTRA.VDW.0>
0.110327

>  <SCORE.INTRA.norm>
-0.0852144

>  <SCORE.RESTR>
0.0635576

>  <SCORE.RESTR.CAVITY>
0.0635576

>  <SCORE.RESTR.norm>
0.00198618

>  <SCORE.SYSTEM>
0

>  <SCORE.SYSTEM.CONST>
0

>  <SCORE.SYSTEM.DIHEDRAL>
0

>  <SCORE.SYSTEM.SOLV>
0

>  <SCORE.SYSTEM.norm>
0

>  <SCORE.heavy>
32

>  <SCORE.norm>
-1.23661

>  <RMSD>
14.131

$$$$
lig.pdb
 OpenBabel11021811523D
libRbt.so/2013.1/901 2013/11/27
 32 34  0  0  0  0  0  0  0  0999 V2000
    4.1387    0.7236   -1.1032 P   0  0  0  0  0  0  0  0  0  0  0  0
    5.5864    0.6144   -0.6909 O   0  0  0  0  0  0  0  0  0  0  0  0
    4.2013    0.5621   -2.7165 O   0  0  0  0  0  0  0  0  0  0  0  0
    3.1870   -0.3688   -0.6836 O   0  0  0  0  0  0  0  0  0  0  0  0
    3.6401    1.9446   -0.5004 O   0  0  0  0  0  0  0  0  0  0  0  0
    2.5329    2.4859   -1.3231 P   0  0  1  0  0  0  0  0  0  0  0  0
    3.1124    3.0421   -2.5684 O   0  0  0  0  0  0  0  0  0  0  0  0
    1.5842    1.4033   -1.6732 O   0  0  0  0  0  0  0  0  0  0  0  0
    1.8262    3.5472   -0.5630 O   0  0  0  0  0  0  0  0  0  0  0  0
    1.5012    3.4149    0.8771 P   0  0  1  0  0  0  0  0  0  0  0  0
    0.4306    2.4448    1.1844 O   0  0  0  0  0  0  0  0  0  0  0  0
    2.6708    3.3580    1.7820 O   0  0  0  0  0  0  0  0  0  0  0  0
    0.7923    4.8300    1.2144 O   0  0  0  0  0  0  0  0  0  0  0  0
    0.4703    5.7748    0.2112 C   0  0  0  0  0  0  0  0  0  0  0  0
   -0.9209    6.3931    0.4079 C   0  0  1  0  0  0  0  0  0  0  0  0
   -1.4095    6.9007   -0.8168 O   0  0  0  0  0  0  0  0  0  0  0  0
   -2.0101    5.3677    0.7684 C   0  0  1  0  0  0  0  0  0  0  0  0
   -2.0076    4.9236    2.1148 O   0  0  0  0  0  0  0  0  0  0  0  0
   -3.3064    6.0802    0.3835 C   0  0  1  0  0  0  0  0  0  0  0  0
   -3.8559    6.8118    1.4651 O   0  0  0  0  0  0  0  0  0  0  0  0
   -2.8089    7.0657   -0.6722 C   0  0  2  0  0  0  0  0  0  0  0  0
   -3.4963    6.9954   -1.9793 N   0  0  0  0  0  0  0  0  0  0  0  0
   -4.6011    6.2812   -2.3687 C   0  0  0  0  0  0  0  0  0  0  0  0
   -4.8793    6.3825   -3.6427 N   0  0  0  0  0  0  0  0  0  0  0  0
   -3.9052    7.2457   -4.1352 C   0  0  0  0  0  0  0  0  0  0  0  0
   -3.6544    7.7111   -5.4658 C   0  0  0  0  0  0  0  0  0  0  0  0
   -4.2497    7.4008   -6.4957 O   0  0  0  0  0  0  0  0  0  0  0  0
   -2.5810    8.6096   -5.5330 N   0  0  0  0  0  0  0  0  0  0  0  0
   -1.8606    9.0331   -4.4264 C   0  0  0  0  0  0  0  0  0  0  0  0
   -0.9277    9.9749   -4.6061 N   0  0  0  0  0  0  0  0  0  0  0  0
   -2.0683    8.5571   -3.1878 N   0  0  0  0  0  0  0  0  0  0  0  0
   -3.0942    7.6662   -3.1079 C   0  0  0  0  0  0  0  0  0  0  0  0
  1  2  2  0  0  0  0
  1  4  1  0  0  0  0
  1  3  1  0  0  0  0
  5  1  1  0  0  0  0
  6  7  2  6  0  0  0
  6  9  1  0  0  0  0
  6  5  1  0  0  0  0
  6  8  1  0  0  0  0
 10 11  2  1  0  0  0
 10 12  1  0  0  0  0
 10 13  1  0  0  0  0
 10  9  1  0  0  0  0
 13 14  1  0  0  0  0
 15 14  1  6  0  0  0
 15 16  1  0  0  0  0
 17 19  1  0  0  0  0
 17 15  1  0  0  0  0
 17 18  1  1  0  0  0
 19 21  1  0  0  0  0
 19 20  1  1  0  0  0
 21 16  1  0  0  0  0
 21 22  1  6  0  0  0
 22 32  1  0  0  0  0
 23 22  1  0  0  0  0
 23 24  2  0  0  0  0
 24 25  1  0  0  0  0
 25 26  1  0  0  0  0
 26 27  2  0  0  0  0
 26 28  1  0  0  0  0
 29 28  1  0  0  0  0
 29 30  1  0  0  0  0
 31 29  2  0  0  0  0
 32 25  2  0  0  0  0
 32 31  1  0  0  0  0
M  END
>  <CHROM.1>
152.35589630,-42.38420950,-72.34164973,7.50629941,-71.41909670,136.99146255
-157.44874597,-44.92723013,171.37334963,131.56493247,-0.04779219,4.70113761
-1.33115557,-0.43328317,0.69037159,-1.35049008

>  <Name>
lig.pdb

>  <RI>
1.17715e+07

>  <Rbt.Current_Directory>
/home/itssahil/PROJECTS/Mol_Feturizer/New_Systems/rnas/5lwj

>  <Rbt.Executable>
rbdock ($Id: //depot/dev/client3/rdock/2013.1/src/exe/rbdock.cxx#4 $)

>  <Rbt.Library>
libRbt.so (2013.1, Build901 2013/11/27)

>  <Rbt.Parameter_File>
/export/apps/rDock/src/rDock_2013.1_src/data/scripts/dock_solv.prm

>  <Rbt.Receptor>
prm/blind_docking_60.prm

>  <SCORE>
-32.174

>  <SCORE.INTER>
-30.9588

>  <SCORE.INTER.CONST>
1

>  <SCORE.INTER.POLAR>
-2.22564

>  <SCORE.INTER.ROT>
8

>  <SCORE.INTER.SOLV>
23.0274

>  <SCORE.INTER.VDW>
-29.8295

>  <SCORE.INTER.norm>
-0.967462

>  <SCORE.INTRA>
-1.22545

>  <SCORE.INTRA.DIHEDRAL>
4.65442

>  <SCORE.INTRA.DIHEDRAL.0>
10.9248

>  <SCORE.INTRA.POLAR>
-0.493045

>  <SCORE.INTRA.POLAR.0>
0

>  <SCORE.INTRA.REPUL>
0.071855

>  <SCORE.INTRA.REPUL.0>
0

>  <SCORE.INTRA.SOLV>
0.298255

>  <SCORE.INTRA.SOLV.lig_0>
-51.4104

>  <SCORE.INTRA.VDW>
-2.38471

>  <SCORE.INTRA.VDW.0>
0.110327

>  <SCORE.INTRA.norm>
-0.0382953

>  <SCORE.RESTR>
0.010195

>  <SCORE.RESTR.CAVITY>
0.010195

>  <SCORE.RESTR.norm>
0.000318593

>  <SCORE.SYSTEM>
0

>  <SCORE.SYSTEM.CONST>
0

>  <SCORE.SYSTEM.DIHEDRAL>
0

>  <SCORE.SYSTEM.SOLV>
0

>  <SCORE.SYSTEM.norm>
0

>  <SCORE.heavy>
32

>  <SCORE.norm>
-1.00544

>  <RMSD>
14.131

$$$$
lig.pdb
 OpenBabel11021811523D
libRbt.so/2013.1/901 2013/11/27
 32 34  0  0  0  0  0  0  0  0999 V2000
    4.8281    2.0488   -3.3215 P   0  0  0  0  0  0  0  0  0  0  0  0
    3.9081    2.5505   -4.4078 O   0  0  0  0  0  0  0  0  0  0  0  0
    4.7224    0.4360   -3.4645 O   0  0  0  0  0  0  0  0  0  0  0  0
    6.3075    2.3110   -3.4541 O   0  0  0  0  0  0  0  0  0  0  0  0
    4.4098    2.7127   -2.1021 O   0  0  0  0  0  0  0  0  0  0  0  0
    4.2646    1.7119   -1.0190 P   0  0  1  0  0  0  0  0  0  0  0  0
    3.1044    0.8481   -1.3412 O   0  0  0  0  0  0  0  0  0  0  0  0
    5.4830    0.8733   -0.9359 O   0  0  0  0  0  0  0  0  0  0  0  0
    4.0460    2.4104    0.2725 O   0  0  0  0  0  0  0  0  0  0  0  0
    2.8441    2.1819    1.1093 P   0  0  1  0  0  0  0  0  0  0  0  0
    1.9277    1.1384    0.6062 O   0  0  0  0  0  0  0  0  0  0  0  0
    3.0929    2.1409    2.5676 O   0  0  0  0  0  0  0  0  0  0  0  0
    1.9866    3.5349    0.8792 O   0  0  0  0  0  0  0  0  0  0  0  0
    0.5880    3.5905    1.0874 C   0  0  0  0  0  0  0  0  0  0  0  0
    0.0373    5.0215    1.0151 C   0  0  1  0  0  0  0  0  0  0  0  0
    0.4121    5.6302   -0.2037 O   0  0  0  0  0  0  0  0  0  0  0  0
   -1.4976    5.0920    0.9308 C   0  0  1  0  0  0  0  0  0  0  0  0
   -2.1855    4.8797    2.1522 O   0  0  0  0  0  0  0  0  0  0  0  0
   -1.7552    6.4782    0.3407 C   0  0  1  0  0  0  0  0  0  0  0  0
   -1.9201    7.4644    1.3444 O   0  0  0  0  0  0  0  0  0  0  0  0
   -0.4431    6.7430   -0.3954 C   0  0  2  0  0  0  0  0  0  0  0  0
   -0.5769    7.0772   -1.8295 N   0  0  0  0  0  0  0  0  0  0  0  0
    0.3509    7.5411   -2.7274 C   0  0  0  0  0  0  0  0  0  0  0  0
   -0.1429    7.8258   -3.9047 N   0  0  0  0  0  0  0  0  0  0  0  0
   -1.4926    7.5059   -3.7930 C   0  0  0  0  0  0  0  0  0  0  0  0
   -2.5652    7.6351   -4.7326 C   0  0  0  0  0  0  0  0  0  0  0  0
   -2.5193    8.1104   -5.8654 O   0  0  0  0  0  0  0  0  0  0  0  0
   -3.7851    7.1603   -4.2321 N   0  0  0  0  0  0  0  0  0  0  0  0
   -3.9334    6.5921   -2.9759 C   0  0  0  0  0  0  0  0  0  0  0  0
   -5.1265    6.0793   -2.6545 N   0  0  0  0  0  0  0  0  0  0  0  0
   -2.9352    6.5173   -2.0804 N   0  0  0  0  0  0  0  0  0  0  0  0
   -1.7472    6.9940   -2.5428 C   0  0  0  0  0  0  0  0  0  0  0  0
  1  2  2  0  0  0  0
  1  4  1  0  0  0  0
  1  3  1  0  0  0  0
  5  1  1  0  0  0  0
  6  7  2  6  0  0  0
  6  9  1  0  0  0  0
  6  5  1  0  0  0  0
  6  8  1  0  0  0  0
 10 11  2  6  0  0  0
 10 12  1  0  0  0  0
 10 13  1  0  0  0  0
 10  9  1  0  0  0  0
 13 14  1  0  0  0  0
 15 14  1  6  0  0  0
 15 16  1  0  0  0  0
 17 19  1  0  0  0  0
 17 15  1  0  0  0  0
 17 18  1  1  0  0  0
 19 21  1  0  0  0  0
 19 20  1  1  0  0  0
 21 16  1  0  0  0  0
 21 22  1  6  0  0  0
 22 32  1  0  0  0  0
 23 22  1  0  0  0  0
 23 24  2  0  0  0  0
 24 25  1  0  0  0  0
 25 26  1  0  0  0  0
 26 27  2  0  0  0  0
 26 28  1  0  0  0  0
 29 28  1  0  0  0  0
 29 30  1  0  0  0  0
 31 29  2  0  0  0  0
 32 25  2  0  0  0  0
 32 31  1  0  0  0  0
M  END
>  <CHROM.1>
131.34777669,121.66236766,-68.52961791,157.38040522,4.04688445,171.17554419
54.27689689,58.94340515,-61.30820706,-65.78855250,1.05144895,4.27536007,-1.34613212
-0.28168403,0.61798643,-1.31131310

>  <Name>
lig.pdb

>  <RI>
1.2169e+07

>  <Rbt.Current_Directory>
/home/itssahil/PROJECTS/Mol_Feturizer/New_Systems/rnas/5lwj

>  <Rbt.Executable>
rbdock ($Id: //depot/dev/client3/rdock/2013.1/src/exe/rbdock.cxx#4 $)

>  <Rbt.Library>
libRbt.so (2013.1, Build901 2013/11/27)

>  <Rbt.Parameter_File>
/export/apps/rDock/src/rDock_2013.1_src/data/scripts/dock_solv.prm

>  <Rbt.Receptor>
prm/blind_docking_40.prm

>  <SCORE>
-18.7304

>  <SCORE.INTER>
-19.8831

>  <SCORE.INTER.CONST>
1

>  <SCORE.INTER.POLAR>
-0.283301

>  <SCORE.INTER.ROT>
8

>  <SCORE.INTER.SOLV>
30.667

>  <SCORE.INTER.VDW>
-31.4667

>  <SCORE.INTER.norm>
-0.621346

>  <SCORE.INTRA>
0.935266

>  <SCORE.INTRA.DIHEDRAL>
-0.323544

>  <SCORE.INTRA.DIHEDRAL.0>
10.9248

>  <SCORE.INTRA.POLAR>
0

>  <SCORE.INTRA.POLAR.0>
0

>  <SCORE.INTRA.REPUL>
0

>  <SCORE.INTRA.REPUL.0>
0

>  <SCORE.INTRA.SOLV>
-0.301619

>  <SCORE.INTRA.SOLV.lig_0>
-51.4104

>  <SCORE.INTRA.VDW>
1.24785

>  <SCORE.INTRA.VDW.0>
0.110327

>  <SCORE.INTRA.norm>
0.0292271

>  <SCORE.RESTR>
0.217412

>  <SCORE.RESTR.CAVITY>
0.217412

>  <SCORE.RESTR.norm>
0.00679411

>  <SCORE.SYSTEM>
0

>  <SCORE.SYSTEM.CONST>
0

>  <SCORE.SYSTEM.DIHEDRAL>
0

>  <SCORE.SYSTEM.SOLV>
0

>  <SCORE.SYSTEM.norm>
0

>  <SCORE.heavy>
32

>  <SCORE.norm>
-0.585325

>  <RMSD>
14.137

$$$$
lig.pdb
 OpenBabel11021811523D
libRbt.so/2013.1/901 2013/11/27
 32 34  0  0  0  0  0  0  0  0999 V2000
    1.6146    0.2494    0.3625 P   0  0  0  0  0  0  0  0  0  0  0  0
    0.1487    0.5355    0.1451 O   0  0  0  0  0  0  0  0  0  0  0  0
    1.8490    0.6797    1.9092 O   0  0  0  0  0  0  0  0  0  0  0  0
    2.0801   -1.1849    0.3287 O   0  0  0  0  0  0  0  0  0  0  0  0
    2.3194    0.9261   -0.7090 O   0  0  0  0  0  0  0  0  0  0  0  0
    2.4857    2.3577   -0.3647 P   0  0  1  0  0  0  0  0  0  0  0  0
    3.3416    2.4458    0.8419 O   0  0  0  0  0  0  0  0  0  0  0  0
    3.1473    3.0745   -1.4796 O   0  0  0  0  0  0  0  0  0  0  0  0
    1.1549    2.9596   -0.0994 O   0  0  0  0  0  0  0  0  0  0  0  0
    0.8474    3.6961    1.1495 P   0  0  1  0  0  0  0  0  0  0  0  0
    0.8631    2.8718    2.3752 O   0  0  0  0  0  0  0  0  0  0  0  0
    1.5053    5.0154    1.2787 O   0  0  0  0  0  0  0  0  0  0  0  0
   -0.7255    4.0385    0.9838 O   0  0  0  0  0  0  0  0  0  0  0  0
   -1.2087    5.3667    0.9125 C   0  0  0  0  0  0  0  0  0  0  0  0
   -2.7354    5.4320    0.7659 C   0  0  1  0  0  0  0  0  0  0  0  0
   -3.1332    6.7218    0.3481 O   0  0  0  0  0  0  0  0  0  0  0  0
   -3.2869    4.5591   -0.3750 C   0  0  1  0  0  0  0  0  0  0  0  0
   -3.3641    3.1708   -0.0977 O   0  0  0  0  0  0  0  0  0  0  0  0
   -4.6527    5.1805   -0.6659 C   0  0  1  0  0  0  0  0  0  0  0  0
   -5.6874    4.5749    0.0888 O   0  0  0  0  0  0  0  0  0  0  0  0
   -4.4498    6.6082   -0.1619 C   0  0  2  0  0  0  0  0  0  0  0  0
   -4.7394    7.6746   -1.1443 N   0  0  0  0  0  0  0  0  0  0  0  0
   -5.9213    8.2908   -1.4692 C   0  0  0  0  0  0  0  0  0  0  0  0
   -5.8269    9.1329   -2.4656 N   0  0  0  0  0  0  0  0  0  0  0  0
   -4.4805    9.0951   -2.8155 C   0  0  0  0  0  0  0  0  0  0  0  0
   -3.7665    9.7657   -3.8597 C   0  0  0  0  0  0  0  0  0  0  0  0
   -4.2223   10.5147   -4.7214 O   0  0  0  0  0  0  0  0  0  0  0  0
   -2.3950    9.4775   -3.8508 N   0  0  0  0  0  0  0  0  0  0  0  0
   -1.7857    8.6601   -2.9108 C   0  0  0  0  0  0  0  0  0  0  0  0
   -0.4531    8.5478   -2.9444 N   0  0  0  0  0  0  0  0  0  0  0  0
   -2.4668    7.9954   -1.9631 N   0  0  0  0  0  0  0  0  0  0  0  0
   -3.8043    8.2472   -1.9707 C   0  0  0  0  0  0  0  0  0  0  0  0
  1  2  2  0  0  0  0
  1  4  1  0  0  0  0
  1  3  1  0  0  0  0
  5  1  1  0  0  0  0
  6  7  2  1  0  0  0
  6  9  1  0  0  0  0
  6  5  1  0  0  0  0
  6  8  1  0  0  0  0
 10 11  2  1  0  0  0
 10 12  1  0  0  0  0
 10 13  1  0  0  0  0
 10  9  1  0  0  0  0
 13 14  1  0  0  0  0
 15 14  1  6  0  0  0
 15 16  1  0  0  0  0
 17 19  1  0  0  0  0
 17 15  1  0  0  0  0
 17 18  1  1  0  0  0
 19 21  1  0  0  0  0
 19 20  1  1  0  0  0
 21 16  1  0  0  0  0
 21 22  1  6  0  0  0
 22 32  1  0  0  0  0
 23 22  1  0  0  0  0
 23 24  2  0  0  0  0
 24 25  1  0  0  0  0
 25 26  1  0  0  0  0
 26 27  2  0  0  0  0
 26 28  1  0  0  0  0
 29 28  1  0  0  0  0
 29 30  1  0  0  0  0
 31 29  2  0  0  0  0
 32 25  2  0  0  0  0
 32 31  1  0  0  0  0
M  END
>  <CHROM.1>
81.54621681,126.57017550,63.68550474,-117.21039790,-65.82070474,-179.60401280
-164.51933909,76.90802801,-70.94900199,-150.10787939,-1.05886695,4.75171840
-0.53895924,0.88391951,-0.22582407,2.57285387

>  <Name>
lig.pdb

>  <RI>
1.2169e+07

>  <Rbt.Current_Directory>
/home/itssahil/PROJECTS/Mol_Feturizer/New_Systems/rnas/5lwj

>  <Rbt.Executable>
rbdock ($Id: //depot/dev/client3/rdock/2013.1/src/exe/rbdock.cxx#4 $)

>  <Rbt.Library>
libRbt.so (2013.1, Build901 2013/11/27)

>  <Rbt.Parameter_File>
/export/apps/rDock/src/rDock_2013.1_src/data/scripts/dock_solv.prm

>  <Rbt.Receptor>
prm/blind_docking_40.prm

>  <SCORE>
-26.3181

>  <SCORE.INTER>
-26.3159

>  <SCORE.INTER.CONST>
1

>  <SCORE.INTER.POLAR>
-2.16993

>  <SCORE.INTER.ROT>
8

>  <SCORE.INTER.SOLV>
22.2077

>  <SCORE.INTER.VDW>
-26.6467

>  <SCORE.INTER.norm>
-0.822373

>  <SCORE.INTRA>
-0.450272

>  <SCORE.INTRA.DIHEDRAL>
0.291666

>  <SCORE.INTRA.DIHEDRAL.0>
10.9248

>  <SCORE.INTRA.POLAR>
0

>  <SCORE.INTRA.POLAR.0>
0

>  <SCORE.INTRA.REPUL>
0.00218853

>  <SCORE.INTRA.REPUL.0>
0

>  <SCORE.INTRA.SOLV>
3.11886

>  <SCORE.INTRA.SOLV.lig_0>
-51.4104

>  <SCORE.INTRA.VDW>
-2.16648

>  <SCORE.INTRA.VDW.0>
0.110327

>  <SCORE.INTRA.norm>
-0.014071

>  <SCORE.RESTR>
0.448052

>  <SCORE.RESTR.CAVITY>
0.448052

>  <SCORE.RESTR.norm>
0.0140016

>  <SCORE.SYSTEM>
0

>  <SCORE.SYSTEM.CONST>
0

>  <SCORE.SYSTEM.DIHEDRAL>
0

>  <SCORE.SYSTEM.SOLV>
0

>  <SCORE.SYSTEM.norm>
0

>  <SCORE.heavy>
32

>  <SCORE.norm>
-0.822442

>  <RMSD>
14.149

$$$$
lig.pdb
 OpenBabel11021811523D
libRbt.so/2013.1/901 2013/11/27
 32 34  0  0  0  0  0  0  0  0999 V2000
   -5.0436    7.9492   -3.6733 P   0  0  0  0  0  0  0  0  0  0  0  0
   -5.6538    7.3139   -4.8988 O   0  0  0  0  0  0  0  0  0  0  0  0
   -4.0657    9.0851   -4.2947 O   0  0  0  0  0  0  0  0  0  0  0  0
   -5.9400    8.7339   -2.7481 O   0  0  0  0  0  0  0  0  0  0  0  0
   -4.5040    6.8602   -2.8824 O   0  0  0  0  0  0  0  0  0  0  0  0
   -3.5441    7.3981   -1.8900 P   0  0  1  0  0  0  0  0  0  0  0  0
   -2.4368    8.0520   -2.6264 O   0  0  0  0  0  0  0  0  0  0  0  0
   -4.2120    8.4027   -1.0302 O   0  0  0  0  0  0  0  0  0  0  0  0
   -3.0237    6.2873   -1.0540 O   0  0  0  0  0  0  0  0  0  0  0  0
   -3.9133    5.3708   -0.3020 P   0  0  1  0  0  0  0  0  0  0  0  0
   -5.0496    6.0273    0.3759 O   0  0  0  0  0  0  0  0  0  0  0  0
   -4.2495    4.1095   -0.9993 O   0  0  0  0  0  0  0  0  0  0  0  0
   -2.9854    4.9144    0.9428 O   0  0  0  0  0  0  0  0  0  0  0  0
   -2.1495    5.8206    1.6375 C   0  0  0  0  0  0  0  0  0  0  0  0
   -0.7022    5.3214    1.7490 C   0  0  1  0  0  0  0  0  0  0  0  0
   -0.6711    3.9090    1.7721 O   0  0  0  0  0  0  0  0  0  0  0  0
    0.1558    5.6243    0.5080 C   0  0  1  0  0  0  0  0  0  0  0  0
    0.6161    6.9606    0.3965 O   0  0  0  0  0  0  0  0  0  0  0  0
    1.2970    4.6129    0.6129 C   0  0  1  0  0  0  0  0  0  0  0  0
    2.4101    5.1339    1.3177 O   0  0  0  0  0  0  0  0  0  0  0  0
    0.6526    3.5150    1.4572 C   0  0  2  0  0  0  0  0  0  0  0  0
    0.6838    2.1601    0.8663 N   0  0  0  0  0  0  0  0  0  0  0  0
   -0.3388    1.3401    0.4611 C   0  0  0  0  0  0  0  0  0  0  0  0
    0.0517    0.1544    0.0706 N   0  0  0  0  0  0  0  0  0  0  0  0
    1.4367    0.1933    0.2009 C   0  0  0  0  0  0  0  0  0  0  0  0
    2.4266   -0.8147   -0.0317 C   0  0  0  0  0  0  0  0  0  0  0  0
    2.2456   -1.9819   -0.3723 O   0  0  0  0  0  0  0  0  0  0  0  0
    3.7318   -0.3544    0.1888 N   0  0  0  0  0  0  0  0  0  0  0  0
    4.0377    0.9470    0.5573 C   0  0  0  0  0  0  0  0  0  0  0  0
    5.3279    1.2922    0.6336 N   0  0  0  0  0  0  0  0  0  0  0  0
    3.1035    1.8751    0.8211 N   0  0  0  0  0  0  0  0  0  0  0  0
    1.8283    1.4384    0.6325 C   0  0  0  0  0  0  0  0  0  0  0  0
  1  2  2  0  0  0  0
  1  4  1  0  0  0  0
  1  3  1  0  0  0  0
  5  1  1  0  0  0  0
  6  7  2  6  0  0  0
  6  9  1  0  0  0  0
  6  5  1  0  0  0  0
  6  8  1  0  0  0  0
 10 11  2  1  0  0  0
 10 12  1  0  0  0  0
 10 13  1  0  0  0  0
 10  9  1  0  0  0  0
 13 14  1  0  0  0  0
 15 14  1  6  0  0  0
 15 16  1  0  0  0  0
 17 19  1  0  0  0  0
 17 15  1  0  0  0  0
 17 18  1  1  0  0  0
 19 21  1  0  0  0  0
 19 20  1  1  0  0  0
 21 16  1  0  0  0  0
 21 22  1  6  0  0  0
 22 32  1  0  0  0  0
 23 22  1  0  0  0  0
 23 24  2  0  0  0  0
 24 25  1  0  0  0  0
 25 26  1  0  0  0  0
 26 27  2  0  0  0  0
 26 28  1  0  0  0  0
 29 28  1  0  0  0  0
 29 30  1  0  0  0  0
 31 29  2  0  0  0  0
 32 25  2  0  0  0  0
 32 31  1  0  0  0  0
M  END
>  <CHROM.1>
162.97312065,-55.30345661,-61.43171958,41.21356675,-41.87764974,-128.22246251
-29.64549020,121.21005627,55.62558095,8.10873276,-1.32203584,4.69483323,-0.57316789
2.53142567,-0.55663512,0.21004291

>  <Name>
lig.pdb

>  <RI>
1.17715e+07

>  <Rbt.Current_Directory>
/home/itssahil/PROJECTS/Mol_Feturizer/New_Systems/rnas/5lwj

>  <Rbt.Executable>
rbdock ($Id: //depot/dev/client3/rdock/2013.1/src/exe/rbdock.cxx#4 $)

>  <Rbt.Library>
libRbt.so (2013.1, Build901 2013/11/27)

>  <Rbt.Parameter_File>
/export/apps/rDock/src/rDock_2013.1_src/data/scripts/dock_solv.prm

>  <Rbt.Receptor>
prm/blind_docking_60.prm

>  <SCORE>
10.4194

>  <SCORE.INTER>
6.65446

>  <SCORE.INTER.CONST>
1

>  <SCORE.INTER.POLAR>
-2.0931

>  <SCORE.INTER.ROT>
8

>  <SCORE.INTER.SOLV>
20.1036

>  <SCORE.INTER.VDW>
-4.22124

>  <SCORE.INTER.norm>
0.207952

>  <SCORE.INTRA>
3.05863

>  <SCORE.INTRA.DIHEDRAL>
10.4434

>  <SCORE.INTRA.DIHEDRAL.0>
10.9248

>  <SCORE.INTRA.POLAR>
0

>  <SCORE.INTRA.POLAR.0>
0

>  <SCORE.INTRA.REPUL>
0

>  <SCORE.INTRA.REPUL.0>
0

>  <SCORE.INTRA.SOLV>
-0.0931666

>  <SCORE.INTRA.SOLV.lig_0>
-51.4104

>  <SCORE.INTRA.VDW>
-2.11647

>  <SCORE.INTRA.VDW.0>
0.110327

>  <SCORE.INTRA.norm>
0.0955823

>  <SCORE.RESTR>
0.70631

>  <SCORE.RESTR.CAVITY>
0.70631

>  <SCORE.RESTR.norm>
0.0220722

>  <SCORE.SYSTEM>
0

>  <SCORE.SYSTEM.CONST>
0

>  <SCORE.SYSTEM.DIHEDRAL>
0

>  <SCORE.SYSTEM.SOLV>
0

>  <SCORE.SYSTEM.norm>
0

>  <SCORE.heavy>
32

>  <SCORE.norm>
0.325606

>  <RMSD>
14.153

$$$$
lig.pdb
 OpenBabel11021811523D
libRbt.so/2013.1/901 2013/11/27
 32 34  0  0  0  0  0  0  0  0999 V2000
    4.1947    0.4335   -2.1899 P   0  0  0  0  0  0  0  0  0  0  0  0
    4.3063   -0.8160   -3.0291 O   0  0  0  0  0  0  0  0  0  0  0  0
    5.5888    1.2066   -2.4920 O   0  0  0  0  0  0  0  0  0  0  0  0
    3.1470    1.4549   -2.5565 O   0  0  0  0  0  0  0  0  0  0  0  0
    3.8706   -0.0109   -0.8482 O   0  0  0  0  0  0  0  0  0  0  0  0
    4.1185    1.0908    0.1111 P   0  0  1  0  0  0  0  0  0  0  0  0
    3.9259    0.5615    1.4818 O   0  0  0  0  0  0  0  0  0  0  0  0
    5.5099    1.5804   -0.0265 O   0  0  0  0  0  0  0  0  0  0  0  0
    3.1671    2.1992   -0.1533 O   0  0  0  0  0  0  0  0  0  0  0  0
    1.7028    2.0525    0.0234 P   0  0  1  0  0  0  0  0  0  0  0  0
    0.9894    1.5009   -1.1465 O   0  0  0  0  0  0  0  0  0  0  0  0
    1.2803    1.4969    1.3283 O   0  0  0  0  0  0  0  0  0  0  0  0
    1.1907    3.5874    0.0479 O   0  0  0  0  0  0  0  0  0  0  0  0
    1.2257    4.3796    1.2200 C   0  0  0  0  0  0  0  0  0  0  0  0
    0.3103    5.6084    1.1291 C   0  0  1  0  0  0  0  0  0  0  0  0
    0.7577    6.4789    0.1101 O   0  0  0  0  0  0  0  0  0  0  0  0
   -1.1156    5.2855    0.6489 C   0  0  1  0  0  0  0  0  0  0  0  0
   -1.9707    4.7096    1.6221 O   0  0  0  0  0  0  0  0  0  0  0  0
   -1.6274    6.6306    0.1342 C   0  0  1  0  0  0  0  0  0  0  0  0
   -2.3001    7.3672    1.1403 O   0  0  0  0  0  0  0  0  0  0  0  0
   -0.3194    7.3437   -0.2034 C   0  0  2  0  0  0  0  0  0  0  0  0
   -0.2141    7.8535   -1.5873 N   0  0  0  0  0  0  0  0  0  0  0  0
    0.8517    7.8751   -2.4511 C   0  0  0  0  0  0  0  0  0  0  0  0
    0.6131    8.4978   -3.5763 N   0  0  0  0  0  0  0  0  0  0  0  0
   -0.7147    8.8997   -3.4668 C   0  0  0  0  0  0  0  0  0  0  0  0
   -1.5387    9.6585   -4.3586 C   0  0  0  0  0  0  0  0  0  0  0  0
   -1.2176   10.1644   -5.4320 O   0  0  0  0  0  0  0  0  0  0  0  0
   -2.8472    9.8197   -3.8835 N   0  0  0  0  0  0  0  0  0  0  0  0
   -3.3081    9.2731   -2.6953 C   0  0  0  0  0  0  0  0  0  0  0  0
   -4.6066    9.4077   -2.4031 N   0  0  0  0  0  0  0  0  0  0  0  0
   -2.5189    8.6034   -1.8394 N   0  0  0  0  0  0  0  0  0  0  0  0
   -1.2381    8.4560   -2.2755 C   0  0  0  0  0  0  0  0  0  0  0  0
  1  2  2  0  0  0  0
  1  4  1  0  0  0  0
  1  3  1  0  0  0  0
  5  1  1  0  0  0  0
  6  7  2  1  0  0  0
  6  9  1  0  0  0  0
  6  5  1  0  0  0  0
  6  8  1  0  0  0  0
 10 11  2  6  0  0  0
 10 12  1  0  0  0  0
 10 13  1  0  0  0  0
 10  9  1  0  0  0  0
 13 14  1  0  0  0  0
 15 14  1  6  0  0  0
 15 16  1  0  0  0  0
 17 19  1  0  0  0  0
 17 15  1  0  0  0  0
 17 18  1  1  0  0  0
 19 21  1  0  0  0  0
 19 20  1  1  0  0  0
 21 16  1  0  0  0  0
 21 22  1  6  0  0  0
 22 32  1  0  0  0  0
 23 22  1  0  0  0  0
 23 24  2  0  0  0  0
 24 25  1  0  0  0  0
 25 26  1  0  0  0  0
 26 27  2  0  0  0  0
 26 28  1  0  0  0  0
 29 28  1  0  0  0  0
 29 30  1  0  0  0  0
 31 29  2  0  0  0  0
 32 25  2  0  0  0  0
 32 31  1  0  0  0  0
M  END
>  <CHROM.1>
164.00063807,64.62032599,-173.71721665,-83.07592850,-85.94509364,-161.95407863
-64.11393336,173.02165936,47.63159354,-16.71644832,1.00242781,4.54291579
-1.08101978,-0.61130451,0.78269361,-0.98994393

>  <Name>
lig.pdb

>  <RI>
3.17878e+07

>  <Rbt.Current_Directory>
/home/itssahil/PROJECTS/Mol_Feturizer/New_Systems/rnas/5lwj

>  <Rbt.Executable>
rbdock ($Id: //depot/dev/client3/rdock/2013.1/src/exe/rbdock.cxx#4 $)

>  <Rbt.Library>
libRbt.so (2013.1, Build901 2013/11/27)

>  <Rbt.Parameter_File>
/export/apps/rDock/src/rDock_2013.1_src/data/scripts/dock_solv.prm

>  <Rbt.Receptor>
prm/blind_docking_100.prm

>  <SCORE>
-20.4719

>  <SCORE.INTER>
-19.348

>  <SCORE.INTER.CONST>
1

>  <SCORE.INTER.POLAR>
-0.730357

>  <SCORE.INTER.ROT>
8

>  <SCORE.INTER.SOLV>
21.8402

>  <SCORE.INTER.VDW>
-26.6776

>  <SCORE.INTER.norm>
-0.604626

>  <SCORE.INTRA>
-3.82997

>  <SCORE.INTRA.DIHEDRAL>
-4.03281

>  <SCORE.INTRA.DIHEDRAL.0>
10.9248

>  <SCORE.INTRA.POLAR>
0

>  <SCORE.INTRA.POLAR.0>
0

>  <SCORE.INTRA.REPUL>
0

>  <SCORE.INTRA.REPUL.0>
0

>  <SCORE.INTRA.SOLV>
0.836413

>  <SCORE.INTRA.SOLV.lig_0>
-51.4104

>  <SCORE.INTRA.VDW>
-2.23177

>  <SCORE.INTRA.VDW.0>
0.110327

>  <SCORE.INTRA.norm>
-0.119687

>  <SCORE.RESTR>
2.70608

>  <SCORE.RESTR.CAVITY>
2.70608

>  <SCORE.RESTR.norm>
0.0845651

>  <SCORE.SYSTEM>
0

>  <SCORE.SYSTEM.CONST>
0

>  <SCORE.SYSTEM.DIHEDRAL>
0

>  <SCORE.SYSTEM.SOLV>
0

>  <SCORE.SYSTEM.norm>
0

>  <SCORE.heavy>
32

>  <SCORE.norm>
-0.639747

>  <RMSD>
14.157

$$$$
lig.pdb
 OpenBabel11021811523D
libRbt.so/2013.1/901 2013/11/27
 32 34  0  0  0  0  0  0  0  0999 V2000
    3.1253    0.3469   -2.1661 P   0  0  0  0  0  0  0  0  0  0  0  0
    4.5358    0.3977   -2.7010 O   0  0  0  0  0  0  0  0  0  0  0  0
    2.3408    1.4243   -3.0914 O   0  0  0  0  0  0  0  0  0  0  0  0
    2.3283   -0.9191   -2.3589 O   0  0  0  0  0  0  0  0  0  0  0  0
    3.2317    0.5406   -0.7329 O   0  0  0  0  0  0  0  0  0  0  0  0
    3.3458    1.9879   -0.4367 P   0  0  1  0  0  0  0  0  0  0  0  0
    4.0895    2.1414    0.8358 O   0  0  0  0  0  0  0  0  0  0  0  0
    4.0935    2.6702   -1.5185 O   0  0  0  0  0  0  0  0  0  0  0  0
    1.9881    2.5757   -0.3159 O   0  0  0  0  0  0  0  0  0  0  0  0
    1.1414    2.3871    0.8860 P   0  0  1  0  0  0  0  0  0  0  0  0
    0.2466    1.2129    0.8359 O   0  0  0  0  0  0  0  0  0  0  0  0
    1.8329    2.5875    2.1789 O   0  0  0  0  0  0  0  0  0  0  0  0
    0.0987    3.6205    0.7851 O   0  0  0  0  0  0  0  0  0  0  0  0
    0.5186    4.9718    0.8045 C   0  0  0  0  0  0  0  0  0  0  0  0
   -0.6596    5.9555    0.8272 C   0  0  1  0  0  0  0  0  0  0  0  0
   -0.7496    6.6413   -0.4048 O   0  0  0  0  0  0  0  0  0  0  0  0
   -2.0367    5.2724    0.8964 C   0  0  1  0  0  0  0  0  0  0  0  0
   -2.4104    4.7818    2.1731 O   0  0  0  0  0  0  0  0  0  0  0  0
   -2.9900    6.3469    0.3740 C   0  0  1  0  0  0  0  0  0  0  0  0
   -3.5103    7.1528    1.4165 O   0  0  0  0  0  0  0  0  0  0  0  0
   -2.0505    7.1965   -0.4799 C   0  0  2  0  0  0  0  0  0  0  0  0
   -2.4715    7.3912   -1.8838 N   0  0  0  0  0  0  0  0  0  0  0  0
   -3.1947    6.5778   -2.7190 C   0  0  0  0  0  0  0  0  0  0  0  0
   -3.2997    7.0285   -3.9423 N   0  0  0  0  0  0  0  0  0  0  0  0
   -2.6189    8.2419   -3.9166 C   0  0  0  0  0  0  0  0  0  0  0  0
   -2.3494    9.1854   -4.9593 C   0  0  0  0  0  0  0  0  0  0  0  0
   -2.6437    9.0951   -6.1495 O   0  0  0  0  0  0  0  0  0  0  0  0
   -1.6514   10.3122   -4.5043 N   0  0  0  0  0  0  0  0  0  0  0  0
   -1.2911   10.5124   -3.1803 C   0  0  0  0  0  0  0  0  0  0  0  0
   -0.7216   11.6777   -2.8528 N   0  0  0  0  0  0  0  0  0  0  0  0
   -1.5034    9.6028   -2.2151 N   0  0  0  0  0  0  0  0  0  0  0  0
   -2.1619    8.4917   -2.6443 C   0  0  0  0  0  0  0  0  0  0  0  0
  1  2  2  0  0  0  0
  1  4  1  0  0  0  0
  1  3  1  0  0  0  0
  5  1  1  0  0  0  0
  6  7  2  1  0  0  0
  6  9  1  0  0  0  0
  6  5  1  0  0  0  0
  6  8  1  0  0  0  0
 10 11  2  6  0  0  0
 10 12  1  0  0  0  0
 10 13  1  0  0  0  0
 10  9  1  0  0  0  0
 13 14  1  0  0  0  0
 15 14  1  6  0  0  0
 15 16  1  0  0  0  0
 17 19  1  0  0  0  0
 17 15  1  0  0  0  0
 17 18  1  1  0  0  0
 19 21  1  0  0  0  0
 19 20  1  1  0  0  0
 21 16  1  0  0  0  0
 21 22  1  6  0  0  0
 22 32  1  0  0  0  0
 23 22  1  0  0  0  0
 23 24  2  0  0  0  0
 24 25  1  0  0  0  0
 25 26  1  0  0  0  0
 26 27  2  0  0  0  0
 26 28  1  0  0  0  0
 29 28  1  0  0  0  0
 29 30  1  0  0  0  0
 31 29  2  0  0  0  0
 32 25  2  0  0  0  0
 32 31  1  0  0  0  0
M  END
>  <CHROM.1>
81.96842390,76.53202615,-152.61540344,-61.09964935,-90.80160279,-174.67492085
-110.21924594,56.30033963,35.88872162,93.86360409,0.20092643,4.73331191,-1.15390743
-0.61844281,0.84651349,-1.07308955

>  <Name>
lig.pdb

>  <RI>
2.72908e+07

>  <Rbt.Current_Directory>
/home/itssahil/PROJECTS/Mol_Feturizer/New_Systems/rnas/5lwj

>  <Rbt.Executable>
rbdock ($Id: //depot/dev/client3/rdock/2013.1/src/exe/rbdock.cxx#4 $)

>  <Rbt.Library>
libRbt.so (2013.1, Build901 2013/11/27)

>  <Rbt.Parameter_File>
/export/apps/rDock/src/rDock_2013.1_src/data/scripts/dock_solv.prm

>  <Rbt.Receptor>
prm/blind_docking_20.prm

>  <SCORE>
-15.969

>  <SCORE.INTER>
-16.1991

>  <SCORE.INTER.CONST>
1

>  <SCORE.INTER.POLAR>
-1.71621

>  <SCORE.INTER.ROT>
8

>  <SCORE.INTER.SOLV>
23.9972

>  <SCORE.INTER.VDW>
-22.0111

>  <SCORE.INTER.norm>
-0.506222

>  <SCORE.INTRA>
0.11172

>  <SCORE.INTRA.DIHEDRAL>
2.29451

>  <SCORE.INTRA.DIHEDRAL.0>
10.9248

>  <SCORE.INTRA.POLAR>
0

>  <SCORE.INTRA.POLAR.0>
0

>  <SCORE.INTRA.REPUL>
0

>  <SCORE.INTRA.REPUL.0>
0

>  <SCORE.INTRA.SOLV>
-0.212288

>  <SCORE.INTRA.SOLV.lig_0>
-51.4104

>  <SCORE.INTRA.VDW>
-0.929391

>  <SCORE.INTRA.VDW.0>
0.110327

>  <SCORE.INTRA.norm>
0.00349125

>  <SCORE.RESTR>
0.118391

>  <SCORE.RESTR.CAVITY>
0.118391

>  <SCORE.RESTR.norm>
0.00369972

>  <SCORE.SYSTEM>
0

>  <SCORE.SYSTEM.CONST>
0

>  <SCORE.SYSTEM.DIHEDRAL>
0

>  <SCORE.SYSTEM.SOLV>
0

>  <SCORE.SYSTEM.norm>
0

>  <SCORE.heavy>
32

>  <SCORE.norm>
-0.499031

>  <RMSD>
14.194

$$$$
lig.pdb
 OpenBabel11021811523D
libRbt.so/2013.1/901 2013/11/27
 32 34  0  0  0  0  0  0  0  0999 V2000
    4.3548    1.7801   -3.0788 P   0  0  0  0  0  0  0  0  0  0  0  0
    4.2388    0.2816   -3.2169 O   0  0  0  0  0  0  0  0  0  0  0  0
    5.7000    1.9657   -2.1907 O   0  0  0  0  0  0  0  0  0  0  0  0
    4.6416    2.5961   -4.3146 O   0  0  0  0  0  0  0  0  0  0  0  0
    3.0716    2.2387   -2.5831 O   0  0  0  0  0  0  0  0  0  0  0  0
    2.8919    1.7868   -1.1835 P   0  0  1  0  0  0  0  0  0  0  0  0
    2.8368    0.3059   -1.1800 O   0  0  0  0  0  0  0  0  0  0  0  0
    4.0382    2.2294   -0.3559 O   0  0  0  0  0  0  0  0  0  0  0  0
    1.6315    2.3521   -0.6400 O   0  0  0  0  0  0  0  0  0  0  0  0
    1.1520    2.0586    0.7315 P   0  0  1  0  0  0  0  0  0  0  0  0
    0.0537    1.0737    0.8066 O   0  0  0  0  0  0  0  0  0  0  0  0
    2.2163    1.8819    1.7444 O   0  0  0  0  0  0  0  0  0  0  0  0
    0.4115    3.4344    1.1527 O   0  0  0  0  0  0  0  0  0  0  0  0
    1.0425    4.6970    1.0501 C   0  0  0  0  0  0  0  0  0  0  0  0
    0.0393    5.8450    0.8710 C   0  0  1  0  0  0  0  0  0  0  0  0
    0.2843    6.5254   -0.3428 O   0  0  0  0  0  0  0  0  0  0  0  0
   -1.4118    5.3748    0.6685 C   0  0  1  0  0  0  0  0  0  0  0  0
   -2.0867    4.9568    1.8433 O   0  0  0  0  0  0  0  0  0  0  0  0
   -2.0808    6.5742   -0.0022 C   0  0  1  0  0  0  0  0  0  0  0  0
   -2.6627    7.4579    0.9399 O   0  0  0  0  0  0  0  0  0  0  0  0
   -0.8829    7.2671   -0.6491 C   0  0  2  0  0  0  0  0  0  0  0  0
   -0.9996    7.5095   -2.1029 N   0  0  0  0  0  0  0  0  0  0  0  0
   -0.0765    7.9707   -3.0071 C   0  0  0  0  0  0  0  0  0  0  0  0
   -0.5561    8.1589   -4.2093 N   0  0  0  0  0  0  0  0  0  0  0  0
   -1.8891    7.7723   -4.1073 C   0  0  0  0  0  0  0  0  0  0  0  0
   -2.9439    7.7874   -5.0754 C   0  0  0  0  0  0  0  0  0  0  0  0
   -2.8961    8.1978   -6.2332 O   0  0  0  0  0  0  0  0  0  0  0  0
   -4.1483    7.2762   -4.5734 N   0  0  0  0  0  0  0  0  0  0  0  0
   -4.2964    6.7746   -3.2890 C   0  0  0  0  0  0  0  0  0  0  0  0
   -5.4677    6.2165   -2.9630 N   0  0  0  0  0  0  0  0  0  0  0  0
   -3.3177    6.8070   -2.3699 N   0  0  0  0  0  0  0  0  0  0  0  0
   -2.1461    7.3207   -2.8346 C   0  0  0  0  0  0  0  0  0  0  0  0
  1  2  2  0  0  0  0
  1  4  1  0  0  0  0
  1  3  1  0  0  0  0
  5  1  1  0  0  0  0
  6  7  2  1  0  0  0
  6  9  1  0  0  0  0
  6  5  1  0  0  0  0
  6  8  1  0  0  0  0
 10 11  2  1  0  0  0
 10 12  1  0  0  0  0
 10 13  1  0  0  0  0
 10  9  1  0  0  0  0
 13 14  1  0  0  0  0
 15 14  1  6  0  0  0
 15 16  1  0  0  0  0
 17 19  1  0  0  0  0
 17 15  1  0  0  0  0
 17 18  1  1  0  0  0
 19 21  1  0  0  0  0
 19 20  1  1  0  0  0
 21 16  1  0  0  0  0
 21 22  1  6  0  0  0
 22 32  1  0  0  0  0
 23 22  1  0  0  0  0
 23 24  2  0  0  0  0
 24 25  1  0  0  0  0
 25 26  1  0  0  0  0
 26 27  2  0  0  0  0
 26 28  1  0  0  0  0
 29 28  1  0  0  0  0
 29 30  1  0  0  0  0
 31 29  2  0  0  0  0
 32 25  2  0  0  0  0
 32 31  1  0  0  0  0
M  END
>  <CHROM.1>
69.42666441,178.54353984,-64.45327906,-52.08210353,-102.85594305,153.65803370
-120.22555723,46.75741266,-56.13586992,-48.16356206,0.38612338,4.41138115
-1.48950137,-0.39114423,0.66342114,-1.22989913

>  <Name>
lig.pdb

>  <RI>
2.72908e+07

>  <Rbt.Current_Directory>
/home/itssahil/PROJECTS/Mol_Feturizer/New_Systems/rnas/5lwj

>  <Rbt.Executable>
rbdock ($Id: //depot/dev/client3/rdock/2013.1/src/exe/rbdock.cxx#4 $)

>  <Rbt.Library>
libRbt.so (2013.1, Build901 2013/11/27)

>  <Rbt.Parameter_File>
/export/apps/rDock/src/rDock_2013.1_src/data/scripts/dock_solv.prm

>  <Rbt.Receptor>
prm/blind_docking_20.prm

>  <SCORE>
-39.3099

>  <SCORE.INTER>
-40.4253

>  <SCORE.INTER.CONST>
1

>  <SCORE.INTER.POLAR>
-1.86225

>  <SCORE.INTER.ROT>
8

>  <SCORE.INTER.SOLV>
24.6376

>  <SCORE.INTER.VDW>
-37.8885

>  <SCORE.INTER.norm>
-1.26329

>  <SCORE.INTRA>
0.615787

>  <SCORE.INTRA.DIHEDRAL>
2.61217

>  <SCORE.INTRA.DIHEDRAL.0>
10.9248

>  <SCORE.INTRA.POLAR>
0

>  <SCORE.INTRA.POLAR.0>
0

>  <SCORE.INTRA.REPUL>
0

>  <SCORE.INTRA.REPUL.0>
0

>  <SCORE.INTRA.SOLV>
-0.0657688

>  <SCORE.INTRA.SOLV.lig_0>
-51.4104

>  <SCORE.INTRA.VDW>
-0.657415

>  <SCORE.INTRA.VDW.0>
0.110327

>  <SCORE.INTRA.norm>
0.0192433

>  <SCORE.RESTR>
0.499613

>  <SCORE.RESTR.CAVITY>
0.499613

>  <SCORE.RESTR.norm>
0.0156129

>  <SCORE.SYSTEM>
0

>  <SCORE.SYSTEM.CONST>
0

>  <SCORE.SYSTEM.DIHEDRAL>
0

>  <SCORE.SYSTEM.SOLV>
0

>  <SCORE.SYSTEM.norm>
0

>  <SCORE.heavy>
32

>  <SCORE.norm>
-1.22843

>  <RMSD>
14.199

$$$$
lig.pdb
 OpenBabel11021811523D
libRbt.so/2013.1/901 2013/11/27
 32 34  0  0  0  0  0  0  0  0999 V2000
    4.4946    1.8546   -2.7718 P   0  0  0  0  0  0  0  0  0  0  0  0
    4.0893    2.4445   -4.1006 O   0  0  0  0  0  0  0  0  0  0  0  0
    4.0831    0.2922   -2.9208 O   0  0  0  0  0  0  0  0  0  0  0  0
    5.9624    1.7940   -2.4295 O   0  0  0  0  0  0  0  0  0  0  0  0
    3.8794    2.6884   -1.7574 O   0  0  0  0  0  0  0  0  0  0  0  0
    2.6141    2.0642   -1.3047 P   0  0  1  0  0  0  0  0  0  0  0  0
    1.8011    1.7477   -2.5026 O   0  0  0  0  0  0  0  0  0  0  0  0
    2.9010    0.8099   -0.5705 O   0  0  0  0  0  0  0  0  0  0  0  0
    1.8861    3.0088   -0.4209 O   0  0  0  0  0  0  0  0  0  0  0  0
    1.2394    2.5815    0.8426 P   0  0  1  0  0  0  0  0  0  0  0  0
    0.3029    1.4474    0.7070 O   0  0  0  0  0  0  0  0  0  0  0  0
    2.1395    2.5083    2.0150 O   0  0  0  0  0  0  0  0  0  0  0  0
    0.2436    3.8147    1.1686 O   0  0  0  0  0  0  0  0  0  0  0  0
    0.6697    5.1637    1.1307 C   0  0  0  0  0  0  0  0  0  0  0  0
   -0.4741    6.1348    0.8065 C   0  0  1  0  0  0  0  0  0  0  0  0
   -0.2717    6.7251   -0.4611 O   0  0  0  0  0  0  0  0  0  0  0  0
   -1.8353    5.4454    0.6072 C   0  0  1  0  0  0  0  0  0  0  0  0
   -2.4976    5.0486    1.7963 O   0  0  0  0  0  0  0  0  0  0  0  0
   -2.6336    6.4683   -0.2007 C   0  0  1  0  0  0  0  0  0  0  0  0
   -3.3742    7.3452    0.6298 O   0  0  0  0  0  0  0  0  0  0  0  0
   -1.5157    7.2605   -0.8761 C   0  0  2  0  0  0  0  0  0  0  0  0
   -1.5996    7.3450   -2.3498 N   0  0  0  0  0  0  0  0  0  0  0  0
   -0.6418    7.6571   -3.2812 C   0  0  0  0  0  0  0  0  0  0  0  0
   -1.0943    7.7335   -4.5060 N   0  0  0  0  0  0  0  0  0  0  0  0
   -2.4465    7.4262   -4.3880 C   0  0  0  0  0  0  0  0  0  0  0  0
   -3.4856    7.3851   -5.3722 C   0  0  0  0  0  0  0  0  0  0  0  0
   -3.4008    7.6613   -6.5671 O   0  0  0  0  0  0  0  0  0  0  0  0
   -4.7213    6.9924   -4.8404 N   0  0  0  0  0  0  0  0  0  0  0  0
   -4.9126    6.6447   -3.5117 C   0  0  0  0  0  0  0  0  0  0  0  0
   -6.1151    6.1842   -3.1489 N   0  0  0  0  0  0  0  0  0  0  0  0
   -3.9464    6.7313   -2.5828 N   0  0  0  0  0  0  0  0  0  0  0  0
   -2.7438    7.1322   -3.0784 C   0  0  0  0  0  0  0  0  0  0  0  0
  1  2  2  0  0  0  0
  1  4  1  0  0  0  0
  1  3  1  0  0  0  0
  5  1  1  0  0  0  0
  6  7  2  6  0  0  0
  6  9  1  0  0  0  0
  6  5  1  0  0  0  0
  6  8  1  0  0  0  0
 10 11  2  6  0  0  0
 10 12  1  0  0  0  0
 10 13  1  0  0  0  0
 10  9  1  0  0  0  0
 13 14  1  0  0  0  0
 15 14  1  6  0  0  0
 15 16  1  0  0  0  0
 17 19  1  0  0  0  0
 17 15  1  0  0  0  0
 17 18  1  1  0  0  0
 19 21  1  0  0  0  0
 19 20  1  1  0  0  0
 21 16  1  0  0  0  0
 21 22  1  6  0  0  0
 22 32  1  0  0  0  0
 23 22  1  0  0  0  0
 23 24  2  0  0  0  0
 24 25  1  0  0  0  0
 25 26  1  0  0  0  0
 26 27  2  0  0  0  0
 26 28  1  0  0  0  0
 29 28  1  0  0  0  0
 29 30  1  0  0  0  0
 31 29  2  0  0  0  0
 32 25  2  0  0  0  0
 32 31  1  0  0  0  0
M  END
>  <CHROM.1>
97.09167245,-136.37605751,-51.35042870,-48.37127722,-53.21628917,152.61448777
-112.55391419,-30.23475866,-178.39165389,-37.11133236,0.05181630,4.47985671
-1.57717363,-0.30022320,0.61830735,-1.38372381

>  <Name>
lig.pdb

>  <RI>
1.17715e+07

>  <Rbt.Current_Directory>
/home/itssahil/PROJECTS/Mol_Feturizer/New_Systems/rnas/5lwj

>  <Rbt.Executable>
rbdock ($Id: //depot/dev/client3/rdock/2013.1/src/exe/rbdock.cxx#4 $)

>  <Rbt.Library>
libRbt.so (2013.1, Build901 2013/11/27)

>  <Rbt.Parameter_File>
/export/apps/rDock/src/rDock_2013.1_src/data/scripts/dock_solv.prm

>  <Rbt.Receptor>
prm/blind_docking_60.prm

>  <SCORE>
-39.3533

>  <SCORE.INTER>
-41.8651

>  <SCORE.INTER.CONST>
1

>  <SCORE.INTER.POLAR>
-1.8552

>  <SCORE.INTER.ROT>
8

>  <SCORE.INTER.SOLV>
27.4181

>  <SCORE.INTER.VDW>
-39.7988

>  <SCORE.INTER.norm>
-1.30828

>  <SCORE.INTRA>
2.51175

>  <SCORE.INTRA.DIHEDRAL>
8.04332

>  <SCORE.INTRA.DIHEDRAL.0>
10.9248

>  <SCORE.INTRA.POLAR>
0

>  <SCORE.INTRA.POLAR.0>
0

>  <SCORE.INTRA.REPUL>
0

>  <SCORE.INTRA.REPUL.0>
0

>  <SCORE.INTRA.SOLV>
-0.477374

>  <SCORE.INTRA.SOLV.lig_0>
-51.4104

>  <SCORE.INTRA.VDW>
-1.27122

>  <SCORE.INTRA.VDW.0>
0.110327

>  <SCORE.INTRA.norm>
0.0784922

>  <SCORE.RESTR>
0

>  <SCORE.RESTR.CAVITY>
0

>  <SCORE.RESTR.norm>
0

>  <SCORE.SYSTEM>
0

>  <SCORE.SYSTEM.CONST>
0

>  <SCORE.SYSTEM.DIHEDRAL>
0

>  <SCORE.SYSTEM.SOLV>
0

>  <SCORE.SYSTEM.norm>
0

>  <SCORE.heavy>
32

>  <SCORE.norm>
-1.22979

>  <RMSD>
14.210

$$$$
lig.pdb
 OpenBabel11021811523D
libRbt.so/2013.1/901 2013/11/27
 32 34  0  0  0  0  0  0  0  0999 V2000
    4.6404    1.4093   -1.3489 P   0  0  0  0  0  0  0  0  0  0  0  0
    5.2347    2.1206   -2.5401 O   0  0  0  0  0  0  0  0  0  0  0  0
    3.9225    0.1145   -2.0128 O   0  0  0  0  0  0  0  0  0  0  0  0
    5.5761    0.8026   -0.3333 O   0  0  0  0  0  0  0  0  0  0  0  0
    3.8616    2.4026   -0.6351 O   0  0  0  0  0  0  0  0  0  0  0  0
    2.5405    2.5578   -1.2879 P   0  0  1  0  0  0  0  0  0  0  0  0
    2.7649    2.9928   -2.6866 O   0  0  0  0  0  0  0  0  0  0  0  0
    1.8220    1.2622   -1.2944 O   0  0  0  0  0  0  0  0  0  0  0  0
    1.7427    3.5713   -0.5532 O   0  0  0  0  0  0  0  0  0  0  0  0
    1.4845    3.4802    0.9035 P   0  0  1  0  0  0  0  0  0  0  0  0
    0.2566    2.7460    1.2708 O   0  0  0  0  0  0  0  0  0  0  0  0
    2.6692    3.1651    1.7326 O   0  0  0  0  0  0  0  0  0  0  0  0
    1.1058    5.0041    1.2949 O   0  0  0  0  0  0  0  0  0  0  0  0
   -0.2328    5.4382    1.4441 C   0  0  0  0  0  0  0  0  0  0  0  0
   -0.9429    5.6348    0.0975 C   0  0  1  0  0  0  0  0  0  0  0  0
   -2.1602    4.9178    0.0757 O   0  0  0  0  0  0  0  0  0  0  0  0
   -1.4331    7.0738   -0.1410 C   0  0  1  0  0  0  0  0  0  0  0  0
   -0.4329    8.0031   -0.5229 O   0  0  0  0  0  0  0  0  0  0  0  0
   -2.5193    6.9049   -1.2031 C   0  0  1  0  0  0  0  0  0  0  0  0
   -2.0054    7.0276   -2.5176 O   0  0  0  0  0  0  0  0  0  0  0  0
   -2.9427    5.4549   -0.9759 C   0  0  2  0  0  0  0  0  0  0  0  0
   -4.3860    5.2465   -0.7321 N   0  0  0  0  0  0  0  0  0  0  0  0
   -5.3237    6.0738   -0.1676 C   0  0  0  0  0  0  0  0  0  0  0  0
   -6.5002    5.5222   -0.0184 N   0  0  0  0  0  0  0  0  0  0  0  0
   -6.3443    4.2428   -0.5433 C   0  0  0  0  0  0  0  0  0  0  0  0
   -7.2636    3.1485   -0.6287 C   0  0  0  0  0  0  0  0  0  0  0  0
   -8.4161    3.0998   -0.2036 O   0  0  0  0  0  0  0  0  0  0  0  0
   -6.7157    2.0283   -1.2682 N   0  0  0  0  0  0  0  0  0  0  0  0
   -5.4337    1.9927   -1.7956 C   0  0  0  0  0  0  0  0  0  0  0  0
   -5.0638    0.9022   -2.4765 N   0  0  0  0  0  0  0  0  0  0  0  0
   -4.5591    3.0042   -1.6704 N   0  0  0  0  0  0  0  0  0  0  0  0
   -5.0682    4.0933   -1.0323 C   0  0  0  0  0  0  0  0  0  0  0  0
  1  2  2  0  0  0  0
  1  4  1  0  0  0  0
  1  3  1  0  0  0  0
  5  1  1  0  0  0  0
  6  7  2  6  0  0  0
  6  9  1  0  0  0  0
  6  5  1  0  0  0  0
  6  8  1  0  0  0  0
 10 11  2  1  0  0  0
 10 12  1  0  0  0  0
 10 13  1  0  0  0  0
 10  9  1  0  0  0  0
 13 14  1  0  0  0  0
 15 14  1  1  0  0  0
 15 16  1  0  0  0  0
 17 19  1  0  0  0  0
 17 15  1  0  0  0  0
 17 18  1  6  0  0  0
 19 21  1  0  0  0  0
 19 20  1  6  0  0  0
 21 16  1  0  0  0  0
 21 22  1  1  0  0  0
 22 32  1  0  0  0  0
 23 22  1  0  0  0  0
 23 24  2  0  0  0  0
 24 25  1  0  0  0  0
 25 26  1  0  0  0  0
 26 27  2  0  0  0  0
 26 28  1  0  0  0  0
 29 28  1  0  0  0  0
 29 30  1  0  0  0  0
 31 29  2  0  0  0  0
 32 25  2  0  0  0  0
 32 31  1  0  0  0  0
M  END
>  <CHROM.1>
81.20147419,-54.36665982,-59.92533695,99.18164151,-90.34559759,-75.95785948
127.27085280,-40.69586499,-52.56240393,95.22307010,-0.65595318,3.62498460
-0.67652831,0.21691551,0.05477224,-2.85338609

>  <Name>
lig.pdb

>  <RI>
3.17878e+07

>  <Rbt.Current_Directory>
/home/itssahil/PROJECTS/Mol_Feturizer/New_Systems/rnas/5lwj

>  <Rbt.Executable>
rbdock ($Id: //depot/dev/client3/rdock/2013.1/src/exe/rbdock.cxx#4 $)

>  <Rbt.Library>
libRbt.so (2013.1, Build901 2013/11/27)

>  <Rbt.Parameter_File>
/export/apps/rDock/src/rDock_2013.1_src/data/scripts/dock_solv.prm

>  <Rbt.Receptor>
prm/blind_docking_100.prm

>  <SCORE>
-31.8571

>  <SCORE.INTER>
-31.8194

>  <SCORE.INTER.CONST>
1

>  <SCORE.INTER.POLAR>
-2.21606

>  <SCORE.INTER.ROT>
8

>  <SCORE.INTER.SOLV>
31.5394

>  <SCORE.INTER.VDW>
-33.2725

>  <SCORE.INTER.norm>
-0.994355

>  <SCORE.INTRA>
-0.627611

>  <SCORE.INTRA.DIHEDRAL>
3.32332

>  <SCORE.INTRA.DIHEDRAL.0>
10.9248

>  <SCORE.INTRA.POLAR>
-0.0360309

>  <SCORE.INTRA.POLAR.0>
0

>  <SCORE.INTRA.REPUL>
0

>  <SCORE.INTRA.REPUL.0>
0

>  <SCORE.INTRA.SOLV>
-0.0820093

>  <SCORE.INTRA.SOLV.lig_0>
-51.4104

>  <SCORE.INTRA.VDW>
-2.12576

>  <SCORE.INTRA.VDW.0>
0.110327

>  <SCORE.INTRA.norm>
-0.0196129

>  <SCORE.RESTR>
0.589913

>  <SCORE.RESTR.CAVITY>
0.589913

>  <SCORE.RESTR.norm>
0.0184348

>  <SCORE.SYSTEM>
0

>  <SCORE.SYSTEM.CONST>
0

>  <SCORE.SYSTEM.DIHEDRAL>
0

>  <SCORE.SYSTEM.SOLV>
0

>  <SCORE.SYSTEM.norm>
0

>  <SCORE.heavy>
32

>  <SCORE.norm>
-0.995533

>  <RMSD>
14.235

$$$$
lig.pdb
 OpenBabel11021811523D
libRbt.so/2013.1/901 2013/11/27
 32 34  0  0  0  0  0  0  0  0999 V2000
   -0.7858    8.4382   -3.0222 P   0  0  0  0  0  0  0  0  0  0  0  0
   -0.9385    9.7943   -3.6669 O   0  0  0  0  0  0  0  0  0  0  0  0
   -1.6931    7.4777   -3.9640 O   0  0  0  0  0  0  0  0  0  0  0  0
    0.5683    7.7746   -3.0553 O   0  0  0  0  0  0  0  0  0  0  0  0
   -1.1101    8.6205   -1.6207 O   0  0  0  0  0  0  0  0  0  0  0  0
   -1.0795    7.3092   -0.9314 P   0  0  1  0  0  0  0  0  0  0  0  0
   -1.8347    6.3366   -1.7558 O   0  0  0  0  0  0  0  0  0  0  0  0
    0.3192    6.8412   -0.7923 O   0  0  0  0  0  0  0  0  0  0  0  0
   -1.7009    7.4419    0.4102 O   0  0  0  0  0  0  0  0  0  0  0  0
   -2.3601    6.3074    1.0996 P   0  0  1  0  0  0  0  0  0  0  0  0
   -3.0689    6.6660    2.3449 O   0  0  0  0  0  0  0  0  0  0  0  0
   -3.0916    5.3741    0.2142 O   0  0  0  0  0  0  0  0  0  0  0  0
   -1.1052    5.4477    1.6518 O   0  0  0  0  0  0  0  0  0  0  0  0
   -0.2130    4.7685    0.7884 C   0  0  0  0  0  0  0  0  0  0  0  0
    0.5356    3.6280    1.4922 C   0  0  1  0  0  0  0  0  0  0  0  0
    0.0567    2.3767    1.0434 O   0  0  0  0  0  0  0  0  0  0  0  0
    2.0244    3.5371    1.1142 C   0  0  1  0  0  0  0  0  0  0  0  0
    2.8707    4.4888    1.7374 O   0  0  0  0  0  0  0  0  0  0  0  0
    2.3915    2.0969    1.4707 C   0  0  1  0  0  0  0  0  0  0  0  0
    2.8807    1.9819    2.7953 O   0  0  0  0  0  0  0  0  0  0  0  0
    1.0305    1.4081    1.3894 C   0  0  2  0  0  0  0  0  0  0  0  0
    0.9657    0.2359    0.4906 N   0  0  0  0  0  0  0  0  0  0  0  0
    0.2797   -0.9458    0.6141 C   0  0  0  0  0  0  0  0  0  0  0  0
    0.5325   -1.8103   -0.3343 N   0  0  0  0  0  0  0  0  0  0  0  0
    1.4330   -1.1497   -1.1645 C   0  0  0  0  0  0  0  0  0  0  0  0
    2.1092   -1.5885   -2.3478 C   0  0  0  0  0  0  0  0  0  0  0  0
    2.0601   -2.6984   -2.8741 O   0  0  0  0  0  0  0  0  0  0  0  0
    2.9175   -0.5922   -2.9118 N   0  0  0  0  0  0  0  0  0  0  0  0
    3.0246    0.6930   -2.4021 C   0  0  0  0  0  0  0  0  0  0  0  0
    3.7451    1.5849   -3.0913 N   0  0  0  0  0  0  0  0  0  0  0  0
    2.4265    1.0851   -1.2653 N   0  0  0  0  0  0  0  0  0  0  0  0
    1.6538    0.1223   -0.6921 C   0  0  0  0  0  0  0  0  0  0  0  0
  1  2  2  0  0  0  0
  1  4  1  0  0  0  0
  1  3  1  0  0  0  0
  5  1  1  0  0  0  0
  6  7  2  6  0  0  0
  6  9  1  0  0  0  0
  6  5  1  0  0  0  0
  6  8  1  0  0  0  0
 10 11  2  1  0  0  0
 10 12  1  0  0  0  0
 10 13  1  0  0  0  0
 10  9  1  0  0  0  0
 13 14  1  0  0  0  0
 15 14  1  6  0  0  0
 15 16  1  0  0  0  0
 17 19  1  0  0  0  0
 17 15  1  0  0  0  0
 17 18  1  1  0  0  0
 19 21  1  0  0  0  0
 19 20  1  1  0  0  0
 21 16  1  0  0  0  0
 21 22  1  6  0  0  0
 22 32  1  0  0  0  0
 23 22  1  0  0  0  0
 23 24  2  0  0  0  0
 24 25  1  0  0  0  0
 25 26  1  0  0  0  0
 26 27  2  0  0  0  0
 26 28  1  0  0  0  0
 29 28  1  0  0  0  0
 29 30  1  0  0  0  0
 31 29  2  0  0  0  0
 32 25  2  0  0  0  0
 32 31  1  0  0  0  0
M  END
>  <CHROM.1>
175.91727333,152.58050802,-47.06002588,-67.52062808,-172.59915569,-158.12604226
108.29000484,-71.06020888,76.51516564,-92.51211360,0.22824251,4.07926625
-0.58439327,-2.54183620,-1.08207762,2.17069023

>  <Name>
lig.pdb

>  <RI>
4.14043e+07

>  <Rbt.Current_Directory>
/home/itssahil/PROJECTS/Mol_Feturizer/New_Systems/rnas/5lwj

>  <Rbt.Executable>
rbdock ($Id: //depot/dev/client3/rdock/2013.1/src/exe/rbdock.cxx#4 $)

>  <Rbt.Library>
libRbt.so (2013.1, Build901 2013/11/27)

>  <Rbt.Parameter_File>
/export/apps/rDock/src/rDock_2013.1_src/data/scripts/dock_solv.prm

>  <Rbt.Receptor>
prm/blind_docking_80.prm

>  <SCORE>
-14.5264

>  <SCORE.INTER>
-16.5294

>  <SCORE.INTER.CONST>
1

>  <SCORE.INTER.POLAR>
-2.42808

>  <SCORE.INTER.ROT>
8

>  <SCORE.INTER.SOLV>
28.9533

>  <SCORE.INTER.VDW>
-21.5104

>  <SCORE.INTER.norm>
-0.516543

>  <SCORE.INTRA>
1.68055

>  <SCORE.INTRA.DIHEDRAL>
2.0517

>  <SCORE.INTRA.DIHEDRAL.0>
10.9248

>  <SCORE.INTRA.POLAR>
0

>  <SCORE.INTRA.POLAR.0>
0

>  <SCORE.INTRA.REPUL>
0

>  <SCORE.INTRA.REPUL.0>
0

>  <SCORE.INTRA.SOLV>
-1.00106

>  <SCORE.INTRA.SOLV.lig_0>
-51.4104

>  <SCORE.INTRA.VDW>
1.15522

>  <SCORE.INTRA.VDW.0>
0.110327

>  <SCORE.INTRA.norm>
0.052517

>  <SCORE.RESTR>
0.322394

>  <SCORE.RESTR.CAVITY>
0.322394

>  <SCORE.RESTR.norm>
0.0100748

>  <SCORE.SYSTEM>
0

>  <SCORE.SYSTEM.CONST>
0

>  <SCORE.SYSTEM.DIHEDRAL>
0

>  <SCORE.SYSTEM.SOLV>
0

>  <SCORE.SYSTEM.norm>
0

>  <SCORE.heavy>
32

>  <SCORE.norm>
-0.453951

>  <RMSD>
14.237

$$$$
lig.pdb
 OpenBabel11021811523D
libRbt.so/2013.1/901 2013/11/27
 32 34  0  0  0  0  0  0  0  0999 V2000
    4.3488    1.0792   -0.2773 P   0  0  0  0  0  0  0  0  0  0  0  0
    4.4045   -0.0349   -1.2939 O   0  0  0  0  0  0  0  0  0  0  0  0
    3.3087    0.5142    0.8325 O   0  0  0  0  0  0  0  0  0  0  0  0
    5.5869    1.3783    0.5306 O   0  0  0  0  0  0  0  0  0  0  0  0
    4.0526    2.2880   -1.0214 O   0  0  0  0  0  0  0  0  0  0  0  0
    2.6294    2.2787   -1.4338 P   0  0  1  0  0  0  0  0  0  0  0  0
    2.5502    2.7681   -2.8303 O   0  0  0  0  0  0  0  0  0  0  0  0
    2.0926    0.8992   -1.3742 O   0  0  0  0  0  0  0  0  0  0  0  0
    1.8482    3.1615   -0.5317 O   0  0  0  0  0  0  0  0  0  0  0  0
    1.3114    2.6977    0.7697 P   0  0  1  0  0  0  0  0  0  0  0  0
    0.4813    1.4780    0.6987 O   0  0  0  0  0  0  0  0  0  0  0  0
    2.2738    2.7306    1.8935 O   0  0  0  0  0  0  0  0  0  0  0  0
    0.2209    3.8370    1.1325 O   0  0  0  0  0  0  0  0  0  0  0  0
    0.5570    5.2092    1.2148 C   0  0  0  0  0  0  0  0  0  0  0  0
   -0.6226    6.1275    0.8660 C   0  0  1  0  0  0  0  0  0  0  0  0
   -0.4205    6.7270   -0.3973 O   0  0  0  0  0  0  0  0  0  0  0  0
   -1.9466    5.3771    0.6383 C   0  0  1  0  0  0  0  0  0  0  0  0
   -2.6152    4.9501    1.8134 O   0  0  0  0  0  0  0  0  0  0  0  0
   -2.7733    6.3630   -0.1868 C   0  0  1  0  0  0  0  0  0  0  0  0
   -3.5704    7.2050    0.6273 O   0  0  0  0  0  0  0  0  0  0  0  0
   -1.6785    7.2054   -0.8389 C   0  0  2  0  0  0  0  0  0  0  0  0
   -1.7350    7.2866   -2.3141 N   0  0  0  0  0  0  0  0  0  0  0  0
   -0.7681    7.6265   -3.2262 C   0  0  0  0  0  0  0  0  0  0  0  0
   -1.1978    7.6888   -4.4600 N   0  0  0  0  0  0  0  0  0  0  0  0
   -2.5424    7.3417   -4.3691 C   0  0  0  0  0  0  0  0  0  0  0  0
   -3.5596    7.2694   -5.3741 C   0  0  0  0  0  0  0  0  0  0  0  0
   -3.4588    7.5474   -6.5673 O   0  0  0  0  0  0  0  0  0  0  0  0
   -4.7936    6.8405   -4.8670 N   0  0  0  0  0  0  0  0  0  0  0  0
   -5.0015    6.4880   -3.5420 C   0  0  0  0  0  0  0  0  0  0  0  0
   -6.1970    5.9924   -3.2032 N   0  0  0  0  0  0  0  0  0  0  0  0
   -4.0574    6.6037   -2.5939 N   0  0  0  0  0  0  0  0  0  0  0  0
   -2.8574    7.0397   -3.0654 C   0  0  0  0  0  0  0  0  0  0  0  0
  1  2  2  0  0  0  0
  1  4  1  0  0  0  0
  1  3  1  0  0  0  0
  5  1  1  0  0  0  0
  6  7  2  6  0  0  0
  6  9  1  0  0  0  0
  6  5  1  0  0  0  0
  6  8  1  0  0  0  0
 10 11  2  6  0  0  0
 10 12  1  0  0  0  0
 10 13  1  0  0  0  0
 10  9  1  0  0  0  0
 13 14  1  0  0  0  0
 15 14  1  6  0  0  0
 15 16  1  0  0  0  0
 17 19  1  0  0  0  0
 17 15  1  0  0  0  0
 17 18  1  1  0  0  0
 19 21  1  0  0  0  0
 19 20  1  1  0  0  0
 21 16  1  0  0  0  0
 21 22  1  6  0  0  0
 22 32  1  0  0  0  0
 23 22  1  0  0  0  0
 23 24  2  0  0  0  0
 24 25  1  0  0  0  0
 25 26  1  0  0  0  0
 26 27  2  0  0  0  0
 26 28  1  0  0  0  0
 29 28  1  0  0  0  0
 29 30  1  0  0  0  0
 31 29  2  0  0  0  0
 32 25  2  0  0  0  0
 32 31  1  0  0  0  0
M  END
>  <CHROM.1>
74.03439656,-84.69372160,-138.02128555,-56.34326370,-53.93708594,151.05407618
-107.47198072,60.39922452,-61.34411802,-36.19938137,-0.02763494,4.36191250
-1.15689858,-0.40549995,0.63549033,-1.45919337

>  <Name>
lig.pdb

>  <RI>
1.17715e+07

>  <Rbt.Current_Directory>
/home/itssahil/PROJECTS/Mol_Feturizer/New_Systems/rnas/5lwj

>  <Rbt.Executable>
rbdock ($Id: //depot/dev/client3/rdock/2013.1/src/exe/rbdock.cxx#4 $)

>  <Rbt.Library>
libRbt.so (2013.1, Build901 2013/11/27)

>  <Rbt.Parameter_File>
/export/apps/rDock/src/rDock_2013.1_src/data/scripts/dock_solv.prm

>  <Rbt.Receptor>
prm/blind_docking_60.prm

>  <SCORE>
-37.9031

>  <SCORE.INTER>
-41.0114

>  <SCORE.INTER.CONST>
1

>  <SCORE.INTER.POLAR>
-1.78661

>  <SCORE.INTER.ROT>
8

>  <SCORE.INTER.SOLV>
23.0978

>  <SCORE.INTER.VDW>
-38.0182

>  <SCORE.INTER.norm>
-1.28161

>  <SCORE.INTRA>
3.09385

>  <SCORE.INTRA.DIHEDRAL>
3.45027

>  <SCORE.INTRA.DIHEDRAL.0>
10.9248

>  <SCORE.INTRA.POLAR>
0

>  <SCORE.INTRA.POLAR.0>
0

>  <SCORE.INTRA.REPUL>
0

>  <SCORE.INTRA.REPUL.0>
0

>  <SCORE.INTRA.SOLV>
1.4341

>  <SCORE.INTRA.SOLV.lig_0>
-51.4104

>  <SCORE.INTRA.VDW>
0.651667

>  <SCORE.INTRA.VDW.0>
0.110327

>  <SCORE.INTRA.norm>
0.0966828

>  <SCORE.RESTR>
0.0143905

>  <SCORE.RESTR.CAVITY>
0.0143905

>  <SCORE.RESTR.norm>
0.000449704

>  <SCORE.SYSTEM>
0

>  <SCORE.SYSTEM.CONST>
0

>  <SCORE.SYSTEM.DIHEDRAL>
0

>  <SCORE.SYSTEM.SOLV>
0

>  <SCORE.SYSTEM.norm>
0

>  <SCORE.heavy>
32

>  <SCORE.norm>
-1.18447

>  <RMSD>
14.239

$$$$
lig.pdb
 OpenBabel11021811523D
libRbt.so/2013.1/901 2013/11/27
 32 34  0  0  0  0  0  0  0  0999 V2000
    2.9561   -0.1395   -1.0370 P   0  0  0  0  0  0  0  0  0  0  0  0
    3.2738    0.1010    0.4187 O   0  0  0  0  0  0  0  0  0  0  0  0
    4.4230   -0.2379   -1.7234 O   0  0  0  0  0  0  0  0  0  0  0  0
    2.3052   -1.4437   -1.4250 O   0  0  0  0  0  0  0  0  0  0  0  0
    2.0266    0.9042   -1.4234 O   0  0  0  0  0  0  0  0  0  0  0  0
    2.6204    2.2293   -1.1281 P   0  0  1  0  0  0  0  0  0  0  0  0
    4.0223    2.2243   -1.6083 O   0  0  0  0  0  0  0  0  0  0  0  0
    1.8703    3.2914   -1.8380 O   0  0  0  0  0  0  0  0  0  0  0  0
    2.5762    2.4751    0.3352 O   0  0  0  0  0  0  0  0  0  0  0  0
    1.3841    2.1662    1.1602 P   0  0  1  0  0  0  0  0  0  0  0  0
    0.5710    1.0327    0.6747 O   0  0  0  0  0  0  0  0  0  0  0  0
    1.6097    2.1886    2.6226 O   0  0  0  0  0  0  0  0  0  0  0  0
    0.4164    3.4319    0.8768 O   0  0  0  0  0  0  0  0  0  0  0  0
    0.9187    4.7377    0.6646 C   0  0  0  0  0  0  0  0  0  0  0  0
   -0.1727    5.8128    0.7625 C   0  0  1  0  0  0  0  0  0  0  0  0
   -0.3144    6.4815   -0.4741 O   0  0  0  0  0  0  0  0  0  0  0  0
   -1.5879    5.2434    0.9643 C   0  0  1  0  0  0  0  0  0  0  0  0
   -1.8876    4.8071    2.2796 O   0  0  0  0  0  0  0  0  0  0  0  0
   -2.4957    6.3812    0.4979 C   0  0  1  0  0  0  0  0  0  0  0  0
   -2.8597    7.2446    1.5605 O   0  0  0  0  0  0  0  0  0  0  0  0
   -1.5697    7.1376   -0.4528 C   0  0  2  0  0  0  0  0  0  0  0  0
   -2.0934    7.3403   -1.8205 N   0  0  0  0  0  0  0  0  0  0  0  0
   -2.9531    6.5764   -2.5686 C   0  0  0  0  0  0  0  0  0  0  0  0
   -3.1257    7.0102   -3.7904 N   0  0  0  0  0  0  0  0  0  0  0  0
   -2.3446    8.1601   -3.8558 C   0  0  0  0  0  0  0  0  0  0  0  0
   -2.0878    9.0556   -4.9431 C   0  0  0  0  0  0  0  0  0  0  0  0
   -2.4913    8.9677   -6.1010 O   0  0  0  0  0  0  0  0  0  0  0  0
   -1.2596   10.1262   -4.5801 N   0  0  0  0  0  0  0  0  0  0  0  0
   -0.7695   10.3205   -3.2975 C   0  0  0  0  0  0  0  0  0  0  0  0
   -0.0766   11.4382   -3.0516 N   0  0  0  0  0  0  0  0  0  0  0  0
   -0.9734    9.4523   -2.2933 N   0  0  0  0  0  0  0  0  0  0  0  0
   -1.7589    8.3943   -2.6344 C   0  0  0  0  0  0  0  0  0  0  0  0
  1  2  2  0  0  0  0
  1  4  1  0  0  0  0
  1  3  1  0  0  0  0
  5  1  1  0  0  0  0
  6  7  2  6  0  0  0
  6  9  1  0  0  0  0
  6  5  1  0  0  0  0
  6  8  1  0  0  0  0
 10 11  2  6  0  0  0
 10 12  1  0  0  0  0
 10 13  1  0  0  0  0
 10  9  1  0  0  0  0
 13 14  1  0  0  0  0
 15 14  1  6  0  0  0
 15 16  1  0  0  0  0
 17 19  1  0  0  0  0
 17 15  1  0  0  0  0
 17 18  1  1  0  0  0
 19 21  1  0  0  0  0
 19 20  1  1  0  0  0
 21 16  1  0  0  0  0
 21 22  1  6  0  0  0
 22 32  1  0  0  0  0
 23 22  1  0  0  0  0
 23 24  2  0  0  0  0
 24 25  1  0  0  0  0
 25 26  1  0  0  0  0
 26 27  2  0  0  0  0
 26 28  1  0  0  0  0
 29 28  1  0  0  0  0
 29 30  1  0  0  0  0
 31 29  2  0  0  0  0
 32 25  2  0  0  0  0
 32 31  1  0  0  0  0
M  END
>  <CHROM.1>
55.60320146,-43.49541796,45.62863511,-34.42775821,30.30670920,-165.84136250
-117.44127051,-29.03216997,47.96495281,94.28821474,0.32736101,4.58664940
-1.01402062,-0.72872730,0.90327792,-1.04293069

>  <Name>
lig.pdb

>  <RI>
2.72908e+07

>  <Rbt.Current_Directory>
/home/itssahil/PROJECTS/Mol_Feturizer/New_Systems/rnas/5lwj

>  <Rbt.Executable>
rbdock ($Id: //depot/dev/client3/rdock/2013.1/src/exe/rbdock.cxx#4 $)

>  <Rbt.Library>
libRbt.so (2013.1, Build901 2013/11/27)

>  <Rbt.Parameter_File>
/export/apps/rDock/src/rDock_2013.1_src/data/scripts/dock_solv.prm

>  <Rbt.Receptor>
prm/blind_docking_20.prm

>  <SCORE>
-12.434

>  <SCORE.INTER>
-16.6092

>  <SCORE.INTER.CONST>
1

>  <SCORE.INTER.POLAR>
-1.89029

>  <SCORE.INTER.ROT>
8

>  <SCORE.INTER.SOLV>
21.9712

>  <SCORE.INTER.VDW>
-21.0289

>  <SCORE.INTER.norm>
-0.519037

>  <SCORE.INTRA>
3.93501

>  <SCORE.INTRA.DIHEDRAL>
4.74662

>  <SCORE.INTRA.DIHEDRAL.0>
10.9248

>  <SCORE.INTRA.POLAR>
0

>  <SCORE.INTRA.POLAR.0>
0

>  <SCORE.INTRA.REPUL>
0.0309199

>  <SCORE.INTRA.REPUL.0>
0

>  <SCORE.INTRA.SOLV>
3.1356

>  <SCORE.INTRA.SOLV.lig_0>
-51.4104

>  <SCORE.INTRA.VDW>
-0.160699

>  <SCORE.INTRA.VDW.0>
0.110327

>  <SCORE.INTRA.norm>
0.122969

>  <SCORE.RESTR>
0.240174

>  <SCORE.RESTR.CAVITY>
0.240174

>  <SCORE.RESTR.norm>
0.00750544

>  <SCORE.SYSTEM>
0

>  <SCORE.SYSTEM.CONST>
0

>  <SCORE.SYSTEM.DIHEDRAL>
0

>  <SCORE.SYSTEM.SOLV>
0

>  <SCORE.SYSTEM.norm>
0

>  <SCORE.heavy>
32

>  <SCORE.norm>
-0.388563

>  <RMSD>
14.257

$$$$
lig.pdb
 OpenBabel11021811523D
libRbt.so/2013.1/901 2013/11/27
 32 34  0  0  0  0  0  0  0  0999 V2000
    4.5023    1.3895   -2.3424 P   0  0  0  0  0  0  0  0  0  0  0  0
    5.4169    1.6793   -1.1772 O   0  0  0  0  0  0  0  0  0  0  0  0
    4.5840    2.7500   -3.2228 O   0  0  0  0  0  0  0  0  0  0  0  0
    4.9059    0.3181   -3.3243 O   0  0  0  0  0  0  0  0  0  0  0  0
    3.2442    0.9546   -1.7674 O   0  0  0  0  0  0  0  0  0  0  0  0
    2.2799    2.0796   -1.7791 P   0  0  1  0  0  0  0  0  0  0  0  0
    2.9326    3.2535   -1.1532 O   0  0  0  0  0  0  0  0  0  0  0  0
    1.9116    2.4181   -3.1736 O   0  0  0  0  0  0  0  0  0  0  0  0
    1.0649    1.6964   -1.0172 O   0  0  0  0  0  0  0  0  0  0  0  0
    1.0219    1.6894    0.4644 P   0  0  1  0  0  0  0  0  0  0  0  0
    0.0819    0.7136    1.0527 O   0  0  0  0  0  0  0  0  0  0  0  0
    2.3411    1.7621    1.1312 O   0  0  0  0  0  0  0  0  0  0  0  0
    0.3123    3.1027    0.8076 O   0  0  0  0  0  0  0  0  0  0  0  0
    1.0466    4.3033    0.9562 C   0  0  0  0  0  0  0  0  0  0  0  0
    0.1660    5.5536    0.8242 C   0  0  1  0  0  0  0  0  0  0  0  0
    0.3396    6.1437   -0.4478 O   0  0  0  0  0  0  0  0  0  0  0  0
   -1.3428    5.2516    0.8159 C   0  0  1  0  0  0  0  0  0  0  0  0
   -1.9154    4.9714    2.0824 O   0  0  0  0  0  0  0  0  0  0  0  0
   -1.9469    6.4906    0.1554 C   0  0  1  0  0  0  0  0  0  0  0  0
   -2.3079    7.4796    1.1033 O   0  0  0  0  0  0  0  0  0  0  0  0
   -0.7642    7.0049   -0.6632 C   0  0  2  0  0  0  0  0  0  0  0  0
   -1.0257    7.1928   -2.1062 N   0  0  0  0  0  0  0  0  0  0  0  0
   -0.2117    7.6610   -3.1066 C   0  0  0  0  0  0  0  0  0  0  0  0
   -0.8085    7.7882   -4.2635 N   0  0  0  0  0  0  0  0  0  0  0  0
   -2.1078    7.3503   -4.0251 C   0  0  0  0  0  0  0  0  0  0  0  0
   -3.2474    7.2889   -4.8897 C   0  0  0  0  0  0  0  0  0  0  0  0
   -3.3253    7.6615   -6.0586 O   0  0  0  0  0  0  0  0  0  0  0  0
   -4.3761    6.7455   -4.2617 N   0  0  0  0  0  0  0  0  0  0  0  0
   -4.3822    6.2820   -2.9547 C   0  0  0  0  0  0  0  0  0  0  0  0
   -5.4923    5.6872   -2.5035 N   0  0  0  0  0  0  0  0  0  0  0  0
   -3.3250    6.3861   -2.1330 N   0  0  0  0  0  0  0  0  0  0  0  0
   -2.2254    6.9319   -2.7209 C   0  0  0  0  0  0  0  0  0  0  0  0
  1  2  2  0  0  0  0
  1  4  1  0  0  0  0
  1  3  1  0  0  0  0
  5  1  1  0  0  0  0
  6  7  2  1  0  0  0
  6  9  1  0  0  0  0
  6  5  1  0  0  0  0
  6  8  1  0  0  0  0
 10 11  2  1  0  0  0
 10 12  1  0  0  0  0
 10 13  1  0  0  0  0
 10  9  1  0  0  0  0
 13 14  1  0  0  0  0
 15 14  1  6  0  0  0
 15 16  1  0  0  0  0
 17 19  1  0  0  0  0
 17 15  1  0  0  0  0
 17 18  1  1  0  0  0
 19 21  1  0  0  0  0
 19 20  1  1  0  0  0
 21 16  1  0  0  0  0
 21 22  1  6  0  0  0
 22 32  1  0  0  0  0
 23 22  1  0  0  0  0
 23 24  2  0  0  0  0
 24 25  1  0  0  0  0
 25 26  1  0  0  0  0
 26 27  2  0  0  0  0
 26 28  1  0  0  0  0
 29 28  1  0  0  0  0
 29 30  1  0  0  0  0
 31 29  2  0  0  0  0
 32 25  2  0  0  0  0
 32 31  1  0  0  0  0
M  END
>  <CHROM.1>
100.31350560,77.53223977,-51.61382435,-87.75324454,-151.12880540,161.39743887
-102.68676162,-27.09653621,-53.14114425,-57.51156422,0.27147405,4.22262595
-1.46856265,-0.34218711,0.64882362,-1.27659887

>  <Name>
lig.pdb

>  <RI>
2.72908e+07

>  <Rbt.Current_Directory>
/home/itssahil/PROJECTS/Mol_Feturizer/New_Systems/rnas/5lwj

>  <Rbt.Executable>
rbdock ($Id: //depot/dev/client3/rdock/2013.1/src/exe/rbdock.cxx#4 $)

>  <Rbt.Library>
libRbt.so (2013.1, Build901 2013/11/27)

>  <Rbt.Parameter_File>
/export/apps/rDock/src/rDock_2013.1_src/data/scripts/dock_solv.prm

>  <Rbt.Receptor>
prm/blind_docking_20.prm

>  <SCORE>
-26.872

>  <SCORE.INTER>
-29.2662

>  <SCORE.INTER.CONST>
1

>  <SCORE.INTER.POLAR>
-1.01312

>  <SCORE.INTER.ROT>
8

>  <SCORE.INTER.SOLV>
26.5596

>  <SCORE.INTER.VDW>
-33.9203

>  <SCORE.INTER.norm>
-0.914569

>  <SCORE.INTRA>
2.30777

>  <SCORE.INTRA.DIHEDRAL>
7.09642

>  <SCORE.INTRA.DIHEDRAL.0>
10.9248

>  <SCORE.INTRA.POLAR>
-0.0266371

>  <SCORE.INTRA.POLAR.0>
0

>  <SCORE.INTRA.REPUL>
0

>  <SCORE.INTRA.REPUL.0>
0

>  <SCORE.INTRA.SOLV>
0.541217

>  <SCORE.INTRA.SOLV.lig_0>
-51.4104

>  <SCORE.INTRA.VDW>
-1.42048

>  <SCORE.INTRA.VDW.0>
0.110327

>  <SCORE.INTRA.norm>
0.0721178

>  <SCORE.RESTR>
0.0864615

>  <SCORE.RESTR.CAVITY>
0.0864615

>  <SCORE.RESTR.norm>
0.00270192

>  <SCORE.SYSTEM>
0

>  <SCORE.SYSTEM.CONST>
0

>  <SCORE.SYSTEM.DIHEDRAL>
0

>  <SCORE.SYSTEM.SOLV>
0

>  <SCORE.SYSTEM.norm>
0

>  <SCORE.heavy>
32

>  <SCORE.norm>
-0.83975

>  <RMSD>
14.260

$$$$
lig.pdb
 OpenBabel11021811523D
libRbt.so/2013.1/901 2013/11/27
 32 34  0  0  0  0  0  0  0  0999 V2000
    3.3872   -0.6548    0.1884 P   0  0  0  0  0  0  0  0  0  0  0  0
    3.4706   -0.2397   -1.2603 O   0  0  0  0  0  0  0  0  0  0  0  0
    2.4905   -2.0059    0.1340 O   0  0  0  0  0  0  0  0  0  0  0  0
    4.6491   -1.1056    0.8811 O   0  0  0  0  0  0  0  0  0  0  0  0
    2.9246    0.5118    0.9149 O   0  0  0  0  0  0  0  0  0  0  0  0
    1.4577    0.6451    0.7537 P   0  0  1  0  0  0  0  0  0  0  0  0
    1.1331    0.4686   -0.6814 O   0  0  0  0  0  0  0  0  0  0  0  0
    0.7634   -0.4022    1.5384 O   0  0  0  0  0  0  0  0  0  0  0  0
    1.0300    1.9883    1.2189 O   0  0  0  0  0  0  0  0  0  0  0  0
    1.6469    3.2396    0.7183 P   0  0  1  0  0  0  0  0  0  0  0  0
    2.6607    3.8325    1.6140 O   0  0  0  0  0  0  0  0  0  0  0  0
    2.0137    3.2289   -0.7154 O   0  0  0  0  0  0  0  0  0  0  0  0
    0.4313    4.3028    0.8209 O   0  0  0  0  0  0  0  0  0  0  0  0
    0.6490    5.6854    1.0297 C   0  0  0  0  0  0  0  0  0  0  0  0
   -0.5784    6.5362    0.6745 C   0  0  1  0  0  0  0  0  0  0  0  0
   -0.2561    7.4607   -0.3442 O   0  0  0  0  0  0  0  0  0  0  0  0
   -1.7156    5.7384    0.0127 C   0  0  1  0  0  0  0  0  0  0  0  0
   -2.5030    4.9544    0.8933 O   0  0  0  0  0  0  0  0  0  0  0  0
   -2.5282    6.8141   -0.7077 C   0  0  1  0  0  0  0  0  0  0  0  0
   -3.5702    7.3291    0.1023 O   0  0  0  0  0  0  0  0  0  0  0  0
   -1.4777    7.9051   -0.9069 C   0  0  2  0  0  0  0  0  0  0  0  0
   -1.2929    8.3603   -2.3014 N   0  0  0  0  0  0  0  0  0  0  0  0
   -1.9958    8.0556   -3.4396 C   0  0  0  0  0  0  0  0  0  0  0  0
   -1.4898    8.5679   -4.5315 N   0  0  0  0  0  0  0  0  0  0  0  0
   -0.3836    9.2867   -4.0883 C   0  0  0  0  0  0  0  0  0  0  0  0
    0.5990   10.0330   -4.8145 C   0  0  0  0  0  0  0  0  0  0  0  0
    0.6928   10.1662   -6.0330 O   0  0  0  0  0  0  0  0  0  0  0  0
    1.5435   10.6437   -3.9786 N   0  0  0  0  0  0  0  0  0  0  0  0
    1.5115   10.5661   -2.5944 C   0  0  0  0  0  0  0  0  0  0  0  0
    2.4069   11.2807   -1.9035 N   0  0  0  0  0  0  0  0  0  0  0  0
    0.6166    9.8255   -1.9202 N   0  0  0  0  0  0  0  0  0  0  0  0
   -0.2961    9.2075   -2.7186 C   0  0  0  0  0  0  0  0  0  0  0  0
  1  2  2  0  0  0  0
  1  4  1  0  0  0  0
  1  3  1  0  0  0  0
  5  1  1  0  0  0  0
  6  7  2  6  0  0  0
  6  9  1  0  0  0  0
  6  5  1  0  0  0  0
  6  8  1  0  0  0  0
 10 11  2  1  0  0  0
 10 12  1  0  0  0  0
 10 13  1  0  0  0  0
 10  9  1  0  0  0  0
 13 14  1  0  0  0  0
 15 14  1  6  0  0  0
 15 16  1  0  0  0  0
 17 19  1  0  0  0  0
 17 15  1  0  0  0  0
 17 18  1  1  0  0  0
 19 21  1  0  0  0  0
 19 20  1  1  0  0  0
 21 16  1  0  0  0  0
 21 22  1  6  0  0  0
 22 32  1  0  0  0  0
 23 22  1  0  0  0  0
 23 24  2  0  0  0  0
 24 25  1  0  0  0  0
 25 26  1  0  0  0  0
 26 27  2  0  0  0  0
 26 28  1  0  0  0  0
 29 28  1  0  0  0  0
 29 30  1  0  0  0  0
 31 29  2  0  0  0  0
 32 25  2  0  0  0  0
 32 31  1  0  0  0  0
M  END
>  <CHROM.1>
79.37342045,53.00585141,-46.63639781,151.07118632,-99.75501590,162.68220007
-120.12873662,-175.36648906,-57.40180733,131.10882938,0.76996057,4.77885077
-0.74816868,-1.26898359,0.51023085,-0.50663586

>  <Name>
lig.pdb

>  <RI>
1.17715e+07

>  <Rbt.Current_Directory>
/home/itssahil/PROJECTS/Mol_Feturizer/New_Systems/rnas/5lwj

>  <Rbt.Executable>
rbdock ($Id: //depot/dev/client3/rdock/2013.1/src/exe/rbdock.cxx#4 $)

>  <Rbt.Library>
libRbt.so (2013.1, Build901 2013/11/27)

>  <Rbt.Parameter_File>
/export/apps/rDock/src/rDock_2013.1_src/data/scripts/dock_solv.prm

>  <Rbt.Receptor>
prm/blind_docking_60.prm

>  <SCORE>
-20.3283

>  <SCORE.INTER>
-22.0777

>  <SCORE.INTER.CONST>
1

>  <SCORE.INTER.POLAR>
-0.961173

>  <SCORE.INTER.ROT>
8

>  <SCORE.INTER.SOLV>
21.961

>  <SCORE.INTER.VDW>
-27.7682

>  <SCORE.INTER.norm>
-0.689928

>  <SCORE.INTRA>
-0.093928

>  <SCORE.INTRA.DIHEDRAL>
1.81334

>  <SCORE.INTRA.DIHEDRAL.0>
10.9248

>  <SCORE.INTRA.POLAR>
0

>  <SCORE.INTRA.POLAR.0>
0

>  <SCORE.INTRA.REPUL>
0.068065

>  <SCORE.INTRA.REPUL.0>
0

>  <SCORE.INTRA.SOLV>
0.253724

>  <SCORE.INTRA.SOLV.lig_0>
-51.4104

>  <SCORE.INTRA.VDW>
-1.46778

>  <SCORE.INTRA.VDW.0>
0.110327

>  <SCORE.INTRA.norm>
-0.00293525

>  <SCORE.RESTR>
1.84332

>  <SCORE.RESTR.CAVITY>
1.84332

>  <SCORE.RESTR.norm>
0.0576037

>  <SCORE.SYSTEM>
0

>  <SCORE.SYSTEM.CONST>
0

>  <SCORE.SYSTEM.DIHEDRAL>
0

>  <SCORE.SYSTEM.SOLV>
0

>  <SCORE.SYSTEM.norm>
0

>  <SCORE.heavy>
32

>  <SCORE.norm>
-0.63526

>  <RMSD>
14.270

$$$$
lig.pdb
 OpenBabel11021811523D
libRbt.so/2013.1/901 2013/11/27
 32 34  0  0  0  0  0  0  0  0999 V2000
    3.5546    2.2392   -2.6438 P   0  0  0  0  0  0  0  0  0  0  0  0
    4.1021    2.1848   -4.0492 O   0  0  0  0  0  0  0  0  0  0  0  0
    4.8931    2.2622   -1.7271 O   0  0  0  0  0  0  0  0  0  0  0  0
    2.8158    3.4797   -2.2074 O   0  0  0  0  0  0  0  0  0  0  0  0
    2.6050    1.1483   -2.5399 O   0  0  0  0  0  0  0  0  0  0  0  0
    2.3632    0.8376   -1.1114 P   0  0  1  0  0  0  0  0  0  0  0  0
    1.5207   -0.3794   -1.0398 O   0  0  0  0  0  0  0  0  0  0  0  0
    3.6491    0.5760   -0.4240 O   0  0  0  0  0  0  0  0  0  0  0  0
    1.6726    1.9828   -0.4670 O   0  0  0  0  0  0  0  0  0  0  0  0
    1.0950    1.9016    0.8956 P   0  0  1  0  0  0  0  0  0  0  0  0
   -0.0016    0.9237    1.0468 O   0  0  0  0  0  0  0  0  0  0  0  0
    2.0829    1.9037    1.9975 O   0  0  0  0  0  0  0  0  0  0  0  0
    0.3198    3.3148    1.0394 O   0  0  0  0  0  0  0  0  0  0  0  0
    0.9924    4.5583    0.9757 C   0  0  0  0  0  0  0  0  0  0  0  0
    0.0292    5.7422    0.8114 C   0  0  1  0  0  0  0  0  0  0  0  0
    0.2750    6.4085   -0.4100 O   0  0  0  0  0  0  0  0  0  0  0  0
   -1.4422    5.3257    0.6399 C   0  0  1  0  0  0  0  0  0  0  0  0
   -2.1085    4.9375    1.8296 O   0  0  0  0  0  0  0  0  0  0  0  0
   -2.0794    6.5467   -0.0228 C   0  0  1  0  0  0  0  0  0  0  0  0
   -2.6091    7.4550    0.9268 O   0  0  0  0  0  0  0  0  0  0  0  0
   -0.8698    7.1920   -0.6964 C   0  0  2  0  0  0  0  0  0  0  0  0
   -1.0064    7.4332   -2.1487 N   0  0  0  0  0  0  0  0  0  0  0  0
   -0.0724    7.8032   -3.0830 C   0  0  0  0  0  0  0  0  0  0  0  0
   -0.5679    8.0248   -4.2731 N   0  0  0  0  0  0  0  0  0  0  0  0
   -1.9265    7.7599   -4.1297 C   0  0  0  0  0  0  0  0  0  0  0  0
   -3.0034    7.8624   -5.0677 C   0  0  0  0  0  0  0  0  0  0  0  0
   -2.9527    8.2584   -6.2304 O   0  0  0  0  0  0  0  0  0  0  0  0
   -4.2336    7.4648   -4.5269 N   0  0  0  0  0  0  0  0  0  0  0  0
   -4.3887    6.9880   -3.2340 C   0  0  0  0  0  0  0  0  0  0  0  0
   -5.5952    6.5395   -2.8695 N   0  0  0  0  0  0  0  0  0  0  0  0
   -3.3847    6.9393   -2.3431 N   0  0  0  0  0  0  0  0  0  0  0  0
   -2.1858    7.3425   -2.8458 C   0  0  0  0  0  0  0  0  0  0  0  0
  1  2  2  0  0  0  0
  1  4  1  0  0  0  0
  1  3  1  0  0  0  0
  5  1  1  0  0  0  0
  6  7  2  1  0  0  0
  6  9  1  0  0  0  0
  6  5  1  0  0  0  0
  6  8  1  0  0  0  0
 10 11  2  1  0  0  0
 10 12  1  0  0  0  0
 10 13  1  0  0  0  0
 10  9  1  0  0  0  0
 13 14  1  0  0  0  0
 15 14  1  6  0  0  0
 15 16  1  0  0  0  0
 17 19  1  0  0  0  0
 17 15  1  0  0  0  0
 17 18  1  1  0  0  0
 19 21  1  0  0  0  0
 19 20  1  1  0  0  0
 21 16  1  0  0  0  0
 21 22  1  6  0  0  0
 22 32  1  0  0  0  0
 23 22  1  0  0  0  0
 23 24  2  0  0  0  0
 24 25  1  0  0  0  0
 25 26  1  0  0  0  0
 26 27  2  0  0  0  0
 26 28  1  0  0  0  0
 29 28  1  0  0  0  0
 29 30  1  0  0  0  0
 31 29  2  0  0  0  0
 32 25  2  0  0  0  0
 32 31  1  0  0  0  0
M  END
>  <CHROM.1>
161.08859982,169.81211170,-173.30935219,-61.50905152,-63.04667828,166.71984820
-117.70951176,50.02777163,-58.09444156,-45.11045287,0.12672749,4.34691200
-1.38326022,-0.53425208,0.70491154,-1.18183158

>  <Name>
lig.pdb

>  <RI>
1.2169e+07

>  <Rbt.Current_Directory>
/home/itssahil/PROJECTS/Mol_Feturizer/New_Systems/rnas/5lwj

>  <Rbt.Executable>
rbdock ($Id: //depot/dev/client3/rdock/2013.1/src/exe/rbdock.cxx#4 $)

>  <Rbt.Library>
libRbt.so (2013.1, Build901 2013/11/27)

>  <Rbt.Parameter_File>
/export/apps/rDock/src/rDock_2013.1_src/data/scripts/dock_solv.prm

>  <Rbt.Receptor>
prm/blind_docking_40.prm

>  <SCORE>
-38.3821

>  <SCORE.INTER>
-36.5474

>  <SCORE.INTER.CONST>
1

>  <SCORE.INTER.POLAR>
-1.4486

>  <SCORE.INTER.ROT>
8

>  <SCORE.INTER.SOLV>
25.211

>  <SCORE.INTER.VDW>
-36.8733

>  <SCORE.INTER.norm>
-1.14211

>  <SCORE.INTRA>
-1.8347

>  <SCORE.INTRA.DIHEDRAL>
-1.01916

>  <SCORE.INTRA.DIHEDRAL.0>
10.9248

>  <SCORE.INTRA.POLAR>
0

>  <SCORE.INTRA.POLAR.0>
0

>  <SCORE.INTRA.REPUL>
0.102711

>  <SCORE.INTRA.REPUL.0>
0

>  <SCORE.INTRA.SOLV>
-0.455017

>  <SCORE.INTRA.SOLV.lig_0>
-51.4104

>  <SCORE.INTRA.VDW>
-1.61116

>  <SCORE.INTRA.VDW.0>
0.110327

>  <SCORE.INTRA.norm>
-0.0573343

>  <SCORE.RESTR>
0

>  <SCORE.RESTR.CAVITY>
0

>  <SCORE.RESTR.norm>
0

>  <SCORE.SYSTEM>
0

>  <SCORE.SYSTEM.CONST>
0

>  <SCORE.SYSTEM.DIHEDRAL>
0

>  <SCORE.SYSTEM.SOLV>
0

>  <SCORE.SYSTEM.norm>
0

>  <SCORE.heavy>
32

>  <SCORE.norm>
-1.19944

>  <RMSD>
14.281

$$$$
lig.pdb
 OpenBabel11021811523D
libRbt.so/2013.1/901 2013/11/27
 32 34  0  0  0  0  0  0  0  0999 V2000
    4.4154    0.5693   -1.6653 P   0  0  0  0  0  0  0  0  0  0  0  0
    5.1766    0.4574   -0.3669 O   0  0  0  0  0  0  0  0  0  0  0  0
    5.2075    1.7430   -2.4575 O   0  0  0  0  0  0  0  0  0  0  0  0
    4.4626   -0.5902   -2.6289 O   0  0  0  0  0  0  0  0  0  0  0  0
    3.0213    0.7328   -1.3012 O   0  0  0  0  0  0  0  0  0  0  0  0
    2.7643    2.1498   -0.9521 P   0  0  1  0  0  0  0  0  0  0  0  0
    3.6779    2.5261    0.1523 O   0  0  0  0  0  0  0  0  0  0  0  0
    3.0363    3.0181   -2.1212 O   0  0  0  0  0  0  0  0  0  0  0  0
    1.3501    2.3053   -0.5287 O   0  0  0  0  0  0  0  0  0  0  0  0
    0.8816    1.9515    0.8323 P   0  0  1  0  0  0  0  0  0  0  0  0
   -0.4053    1.2278    0.8763 O   0  0  0  0  0  0  0  0  0  0  0  0
    1.9251    1.4204    1.7373 O   0  0  0  0  0  0  0  0  0  0  0  0
    0.4901    3.3906    1.4603 O   0  0  0  0  0  0  0  0  0  0  0  0
    1.1092    4.5931    1.0440 C   0  0  0  0  0  0  0  0  0  0  0  0
    0.1075    5.7433    0.8712 C   0  0  1  0  0  0  0  0  0  0  0  0
    0.3333    6.4105   -0.3537 O   0  0  0  0  0  0  0  0  0  0  0  0
   -1.3488    5.2770    0.6994 C   0  0  1  0  0  0  0  0  0  0  0  0
   -2.0042    4.8736    1.8902 O   0  0  0  0  0  0  0  0  0  0  0  0
   -2.0252    6.4723    0.0286 C   0  0  1  0  0  0  0  0  0  0  0  0
   -2.5867    7.3678    0.9719 O   0  0  0  0  0  0  0  0  0  0  0  0
   -0.8364    7.1538   -0.6466 C   0  0  2  0  0  0  0  0  0  0  0  0
   -0.9781    7.3819   -2.1005 N   0  0  0  0  0  0  0  0  0  0  0  0
   -0.0498    7.7546   -3.0394 C   0  0  0  0  0  0  0  0  0  0  0  0
   -0.5497    7.9614   -4.2303 N   0  0  0  0  0  0  0  0  0  0  0  0
   -1.9052    7.6830   -4.0823 C   0  0  0  0  0  0  0  0  0  0  0  0
   -2.9847    7.7664   -5.0191 C   0  0  0  0  0  0  0  0  0  0  0  0
   -2.9402    8.1537   -6.1850 O   0  0  0  0  0  0  0  0  0  0  0  0
   -4.2096    7.3599   -4.4730 N   0  0  0  0  0  0  0  0  0  0  0  0
   -4.3572    6.8916   -3.1761 C   0  0  0  0  0  0  0  0  0  0  0  0
   -5.5582    6.4330   -2.8059 N   0  0  0  0  0  0  0  0  0  0  0  0
   -3.3513    6.8609   -2.2867 N   0  0  0  0  0  0  0  0  0  0  0  0
   -2.1577    7.2730   -2.7947 C   0  0  0  0  0  0  0  0  0  0  0  0
  1  2  2  0  0  0  0
  1  4  1  0  0  0  0
  1  3  1  0  0  0  0
  5  1  1  0  0  0  0
  6  7  2  1  0  0  0
  6  9  1  0  0  0  0
  6  5  1  0  0  0  0
  6  8  1  0  0  0  0
 10 11  2  6  0  0  0
 10 12  1  0  0  0  0
 10 13  1  0  0  0  0
 10  9  1  0  0  0  0
 13 14  1  0  0  0  0
 15 14  1  6  0  0  0
 15 16  1  0  0  0  0
 17 19  1  0  0  0  0
 17 15  1  0  0  0  0
 17 18  1  1  0  0  0
 19 21  1  0  0  0  0
 19 20  1  1  0  0  0
 21 16  1  0  0  0  0
 21 22  1  6  0  0  0
 22 32  1  0  0  0  0
 23 22  1  0  0  0  0
 23 24  2  0  0  0  0
 24 25  1  0  0  0  0
 25 26  1  0  0  0  0
 26 27  2  0  0  0  0
 26 28  1  0  0  0  0
 29 28  1  0  0  0  0
 29 30  1  0  0  0  0
 31 29  2  0  0  0  0
 32 25  2  0  0  0  0
 32 31  1  0  0  0  0
M  END
>  <CHROM.1>
81.31199893,80.14202994,-57.53412739,-27.67671958,-137.20121280,137.48779143
-133.21247180,52.69547564,41.32780234,-43.79683361,0.34647831,4.26194778
-1.19310319,-0.45902726,0.68053196,-1.24198709

>  <Name>
lig.pdb

>  <RI>
1.2169e+07

>  <Rbt.Current_Directory>
/home/itssahil/PROJECTS/Mol_Feturizer/New_Systems/rnas/5lwj

>  <Rbt.Executable>
rbdock ($Id: //depot/dev/client3/rdock/2013.1/src/exe/rbdock.cxx#4 $)

>  <Rbt.Library>
libRbt.so (2013.1, Build901 2013/11/27)

>  <Rbt.Parameter_File>
/export/apps/rDock/src/rDock_2013.1_src/data/scripts/dock_solv.prm

>  <Rbt.Receptor>
prm/blind_docking_40.prm

>  <SCORE>
-31.9037

>  <SCORE.INTER>
-35.9271

>  <SCORE.INTER.CONST>
1

>  <SCORE.INTER.POLAR>
-1.9291

>  <SCORE.INTER.ROT>
8

>  <SCORE.INTER.SOLV>
21.8309

>  <SCORE.INTER.VDW>
-33.7313

>  <SCORE.INTER.norm>
-1.12272

>  <SCORE.INTRA>
4.00505

>  <SCORE.INTRA.DIHEDRAL>
9.05408

>  <SCORE.INTRA.DIHEDRAL.0>
10.9248

>  <SCORE.INTRA.POLAR>
0

>  <SCORE.INTRA.POLAR.0>
0

>  <SCORE.INTRA.REPUL>
0

>  <SCORE.INTRA.REPUL.0>
0

>  <SCORE.INTRA.SOLV>
1.02978

>  <SCORE.INTRA.SOLV.lig_0>
-51.4104

>  <SCORE.INTRA.VDW>
-1.03688

>  <SCORE.INTRA.VDW.0>
0.110327

>  <SCORE.INTRA.norm>
0.125158

>  <SCORE.RESTR>
0.0183166

>  <SCORE.RESTR.CAVITY>
0.0183166

>  <SCORE.RESTR.norm>
0.000572394

>  <SCORE.SYSTEM>
0

>  <SCORE.SYSTEM.CONST>
0

>  <SCORE.SYSTEM.DIHEDRAL>
0

>  <SCORE.SYSTEM.SOLV>
0

>  <SCORE.SYSTEM.norm>
0

>  <SCORE.heavy>
32

>  <SCORE.norm>
-0.996992

>  <RMSD>
14.302

$$$$
lig.pdb
 OpenBabel11021811523D
libRbt.so/2013.1/901 2013/11/27
 32 34  0  0  0  0  0  0  0  0999 V2000
    3.6315   -0.9452   -1.6775 P   0  0  0  0  0  0  0  0  0  0  0  0
    3.7216   -0.3196   -3.0481 O   0  0  0  0  0  0  0  0  0  0  0  0
    3.3701   -2.5129   -2.0040 O   0  0  0  0  0  0  0  0  0  0  0  0
    4.8701   -0.9736   -0.8171 O   0  0  0  0  0  0  0  0  0  0  0  0
    2.6507   -0.1683   -0.9446 O   0  0  0  0  0  0  0  0  0  0  0  0
    3.2303    1.1472   -0.5852 P   0  0  1  0  0  0  0  0  0  0  0  0
    4.0981    0.9607    0.6014 O   0  0  0  0  0  0  0  0  0  0  0  0
    4.0492    1.6646   -1.7061 O   0  0  0  0  0  0  0  0  0  0  0  0
    2.1356    2.1022   -0.2799 O   0  0  0  0  0  0  0  0  0  0  0  0
    1.1961    1.9040    0.8494 P   0  0  1  0  0  0  0  0  0  0  0  0
   -0.2295    1.8467    0.4671 O   0  0  0  0  0  0  0  0  0  0  0  0
    1.6146    0.8911    1.8439 O   0  0  0  0  0  0  0  0  0  0  0  0
    1.2855    3.3134    1.6395 O   0  0  0  0  0  0  0  0  0  0  0  0
    0.2255    4.2510    1.6396 C   0  0  0  0  0  0  0  0  0  0  0  0
    0.3635    5.2976    0.5252 C   0  0  1  0  0  0  0  0  0  0  0  0
   -0.8652    5.4552   -0.1544 O   0  0  0  0  0  0  0  0  0  0  0  0
    0.6103    6.7256    1.0425 C   0  0  1  0  0  0  0  0  0  0  0  0
    1.9333    6.9976    1.4737 O   0  0  0  0  0  0  0  0  0  0  0  0
    0.1785    7.6052   -0.1306 C   0  0  1  0  0  0  0  0  0  0  0  0
    1.2558    7.9013   -1.0017 O   0  0  0  0  0  0  0  0  0  0  0  0
   -0.7997    6.6836   -0.8566 C   0  0  2  0  0  0  0  0  0  0  0  0
   -2.1485    7.2444   -1.0854 N   0  0  0  0  0  0  0  0  0  0  0  0
   -3.3725    6.8453   -0.6112 C   0  0  0  0  0  0  0  0  0  0  0  0
   -4.3798    7.5206   -1.1012 N   0  0  0  0  0  0  0  0  0  0  0  0
   -3.7845    8.4541   -1.9444 C   0  0  0  0  0  0  0  0  0  0  0  0
   -4.3639    9.4488   -2.7958 C   0  0  0  0  0  0  0  0  0  0  0  0
   -5.5576    9.6662   -2.9939 O   0  0  0  0  0  0  0  0  0  0  0  0
   -3.4019   10.2182   -3.4639 N   0  0  0  0  0  0  0  0  0  0  0  0
   -2.0348   10.0602   -3.2931 C   0  0  0  0  0  0  0  0  0  0  0  0
   -1.2203   10.9268   -3.9057 N   0  0  0  0  0  0  0  0  0  0  0  0
   -1.4960    9.0946   -2.5309 N   0  0  0  0  0  0  0  0  0  0  0  0
   -2.4170    8.3235   -1.8908 C   0  0  0  0  0  0  0  0  0  0  0  0
  1  2  2  0  0  0  0
  1  4  1  0  0  0  0
  1  3  1  0  0  0  0
  5  1  1  0  0  0  0
  6  7  2  1  0  0  0
  6  9  1  0  0  0  0
  6  5  1  0  0  0  0
  6  8  1  0  0  0  0
 10 11  2  6  0  0  0
 10 12  1  0  0  0  0
 10 13  1  0  0  0  0
 10  9  1  0  0  0  0
 13 14  1  0  0  0  0
 15 14  1  1  0  0  0
 15 16  1  0  0  0  0
 17 19  1  0  0  0  0
 17 15  1  0  0  0  0
 17 18  1  6  0  0  0
 19 21  1  0  0  0  0
 19 20  1  6  0  0  0
 21 16  1  0  0  0  0
 21 22  1  1  0  0  0
 22 32  1  0  0  0  0
 23 22  1  0  0  0  0
 23 24  2  0  0  0  0
 24 25  1  0  0  0  0
 25 26  1  0  0  0  0
 26 27  2  0  0  0  0
 26 28  1  0  0  0  0
 29 28  1  0  0  0  0
 29 30  1  0  0  0  0
 31 29  2  0  0  0  0
 32 25  2  0  0  0  0
 32 31  1  0  0  0  0
M  END
>  <CHROM.1>
-73.08222174,63.00674410,-79.52800109,108.99189375,-122.20365169,-92.82435394
133.12557562,65.08086087,-129.13374262,7.93365485,0.52482470,4.35616359,-0.83469931
-0.03840272,0.98735660,-1.67981767

>  <Name>
lig.pdb

>  <RI>
3.17878e+07

>  <Rbt.Current_Directory>
/home/itssahil/PROJECTS/Mol_Feturizer/New_Systems/rnas/5lwj

>  <Rbt.Executable>
rbdock ($Id: //depot/dev/client3/rdock/2013.1/src/exe/rbdock.cxx#4 $)

>  <Rbt.Library>
libRbt.so (2013.1, Build901 2013/11/27)

>  <Rbt.Parameter_File>
/export/apps/rDock/src/rDock_2013.1_src/data/scripts/dock_solv.prm

>  <Rbt.Receptor>
prm/blind_docking_100.prm

>  <SCORE>
3.25404

>  <SCORE.INTER>
-6.36835

>  <SCORE.INTER.CONST>
1

>  <SCORE.INTER.POLAR>
-1.50558

>  <SCORE.INTER.ROT>
8

>  <SCORE.INTER.SOLV>
22.4603

>  <SCORE.INTER.VDW>
-15.6471

>  <SCORE.INTER.norm>
-0.199011

>  <SCORE.INTRA>
6.4837

>  <SCORE.INTRA.DIHEDRAL>
12.1077

>  <SCORE.INTRA.DIHEDRAL.0>
10.9248

>  <SCORE.INTRA.POLAR>
-0.0153309

>  <SCORE.INTRA.POLAR.0>
0

>  <SCORE.INTRA.REPUL>
0

>  <SCORE.INTRA.REPUL.0>
0

>  <SCORE.INTRA.SOLV>
0.0925079

>  <SCORE.INTRA.SOLV.lig_0>
-51.4104

>  <SCORE.INTRA.VDW>
0.435724

>  <SCORE.INTRA.VDW.0>
0.110327

>  <SCORE.INTRA.norm>
0.202616

>  <SCORE.RESTR>
3.13869

>  <SCORE.RESTR.CAVITY>
3.13869

>  <SCORE.RESTR.norm>
0.0980841

>  <SCORE.SYSTEM>
0

>  <SCORE.SYSTEM.CONST>
0

>  <SCORE.SYSTEM.DIHEDRAL>
0

>  <SCORE.SYSTEM.SOLV>
0

>  <SCORE.SYSTEM.norm>
0

>  <SCORE.heavy>
32

>  <SCORE.norm>
0.101689

>  <RMSD>
14.321

$$$$
lig.pdb
 OpenBabel11021811523D
libRbt.so/2013.1/901 2013/11/27
 32 34  0  0  0  0  0  0  0  0999 V2000
    4.0377    1.7455   -2.1680 P   0  0  0  0  0  0  0  0  0  0  0  0
    3.4183    3.0693   -2.5449 O   0  0  0  0  0  0  0  0  0  0  0  0
    3.3276    0.7023   -3.1878 O   0  0  0  0  0  0  0  0  0  0  0  0
    5.5084    1.5388   -2.4312 O   0  0  0  0  0  0  0  0  0  0  0  0
    3.8635    1.6139   -0.7344 O   0  0  0  0  0  0  0  0  0  0  0  0
    2.9516    0.4814   -0.4491 P   0  0  1  0  0  0  0  0  0  0  0  0
    1.6444    0.7697   -1.0848 O   0  0  0  0  0  0  0  0  0  0  0  0
    3.5014   -0.7697   -1.0209 O   0  0  0  0  0  0  0  0  0  0  0  0
    2.7909    0.3348    1.0194 O   0  0  0  0  0  0  0  0  0  0  0  0
    2.5184    1.4872    1.9108 P   0  0  1  0  0  0  0  0  0  0  0  0
    1.7496    1.1604    3.1290 O   0  0  0  0  0  0  0  0  0  0  0  0
    3.6632    2.4005    2.1240 O   0  0  0  0  0  0  0  0  0  0  0  0
    1.4558    2.3571    1.0548 O   0  0  0  0  0  0  0  0  0  0  0  0
    1.8462    3.4581    0.2559 C   0  0  0  0  0  0  0  0  0  0  0  0
    1.1220    4.7547    0.6438 C   0  0  1  0  0  0  0  0  0  0  0  0
    0.8598    5.5328   -0.5060 O   0  0  0  0  0  0  0  0  0  0  0  0
   -0.2989    4.5318    1.1907 C   0  0  1  0  0  0  0  0  0  0  0  0
   -0.3717    4.0795    2.5324 O   0  0  0  0  0  0  0  0  0  0  0  0
   -0.9720    5.8890    0.9873 C   0  0  1  0  0  0  0  0  0  0  0  0
   -0.8354    6.7288    2.1200 O   0  0  0  0  0  0  0  0  0  0  0  0
   -0.1430    6.4702   -0.1565 C   0  0  2  0  0  0  0  0  0  0  0  0
   -0.9132    6.9007   -1.3429 N   0  0  0  0  0  0  0  0  0  0  0  0
   -0.5362    7.6540   -2.4258 C   0  0  0  0  0  0  0  0  0  0  0  0
   -1.5134    7.9272   -3.2511 N   0  0  0  0  0  0  0  0  0  0  0  0
   -2.6174    7.2901   -2.6927 C   0  0  0  0  0  0  0  0  0  0  0  0
   -3.9866    7.2540   -3.1099 C   0  0  0  0  0  0  0  0  0  0  0  0
   -4.4966    7.8340   -4.0663 O   0  0  0  0  0  0  0  0  0  0  0  0
   -4.7868    6.4600   -2.2774 N   0  0  0  0  0  0  0  0  0  0  0  0
   -4.3010    5.7541   -1.1871 C   0  0  0  0  0  0  0  0  0  0  0  0
   -5.1445    4.9468   -0.5340 N   0  0  0  0  0  0  0  0  0  0  0  0
   -3.0261    5.8295   -0.7714 N   0  0  0  0  0  0  0  0  0  0  0  0
   -2.2389    6.6143   -1.5569 C   0  0  0  0  0  0  0  0  0  0  0  0
  1  2  2  0  0  0  0
  1  4  1  0  0  0  0
  1  3  1  0  0  0  0
  5  1  1  0  0  0  0
  6  7  2  6  0  0  0
  6  9  1  0  0  0  0
  6  5  1  0  0  0  0
  6  8  1  0  0  0  0
 10 11  2  1  0  0  0
 10 12  1  0  0  0  0
 10 13  1  0  0  0  0
 10  9  1  0  0  0  0
 13 14  1  0  0  0  0
 15 14  1  6  0  0  0
 15 16  1  0  0  0  0
 17 19  1  0  0  0  0
 17 15  1  0  0  0  0
 17 18  1  1  0  0  0
 19 21  1  0  0  0  0
 19 20  1  1  0  0  0
 21 16  1  0  0  0  0
 21 22  1  6  0  0  0
 22 32  1  0  0  0  0
 23 22  1  0  0  0  0
 23 24  2  0  0  0  0
 24 25  1  0  0  0  0
 25 26  1  0  0  0  0
 26 27  2  0  0  0  0
 26 28  1  0  0  0  0
 29 28  1  0  0  0  0
 29 30  1  0  0  0  0
 31 29  2  0  0  0  0
 32 25  2  0  0  0  0
 32 31  1  0  0  0  0
M  END
>  <CHROM.1>
114.34512840,46.79201211,-60.59556729,-96.72606212,150.85132602,-122.97782132
-144.31711670,-48.93525939,-69.64229088,-68.26217116,0.64633008,3.73794834
-0.55380217,-0.30579857,0.68519478,-1.34947134

>  <Name>
lig.pdb

>  <RI>
4.14043e+07

>  <Rbt.Current_Directory>
/home/itssahil/PROJECTS/Mol_Feturizer/New_Systems/rnas/5lwj

>  <Rbt.Executable>
rbdock ($Id: //depot/dev/client3/rdock/2013.1/src/exe/rbdock.cxx#4 $)

>  <Rbt.Library>
libRbt.so (2013.1, Build901 2013/11/27)

>  <Rbt.Parameter_File>
/export/apps/rDock/src/rDock_2013.1_src/data/scripts/dock_solv.prm

>  <Rbt.Receptor>
prm/blind_docking_80.prm

>  <SCORE>
-8.20039

>  <SCORE.INTER>
-11.6496

>  <SCORE.INTER.CONST>
1

>  <SCORE.INTER.POLAR>
-2.09658

>  <SCORE.INTER.ROT>
8

>  <SCORE.INTER.SOLV>
26.5767

>  <SCORE.INTER.VDW>
-18.57

>  <SCORE.INTER.norm>
-0.364049

>  <SCORE.INTRA>
2.49323

>  <SCORE.INTRA.DIHEDRAL>
8.14729

>  <SCORE.INTRA.DIHEDRAL.0>
10.9248

>  <SCORE.INTRA.POLAR>
-0.386494

>  <SCORE.INTRA.POLAR.0>
0

>  <SCORE.INTRA.REPUL>
0.0941294

>  <SCORE.INTRA.REPUL.0>
0

>  <SCORE.INTRA.SOLV>
2.47572

>  <SCORE.INTRA.SOLV.lig_0>
-51.4104

>  <SCORE.INTRA.VDW>
-1.97484

>  <SCORE.INTRA.VDW.0>
0.110327

>  <SCORE.INTRA.norm>
0.0779135

>  <SCORE.RESTR>
0.955955

>  <SCORE.RESTR.CAVITY>
0.955955

>  <SCORE.RESTR.norm>
0.0298736

>  <SCORE.SYSTEM>
0

>  <SCORE.SYSTEM.CONST>
0

>  <SCORE.SYSTEM.DIHEDRAL>
0

>  <SCORE.SYSTEM.SOLV>
0

>  <SCORE.SYSTEM.norm>
0

>  <SCORE.heavy>
32

>  <SCORE.norm>
-0.256262

>  <RMSD>
14.329

$$$$
lig.pdb
 OpenBabel11021811523D
libRbt.so/2013.1/901 2013/11/27
 32 34  0  0  0  0  0  0  0  0999 V2000
    2.9428   -0.5815   -2.0424 P   0  0  0  0  0  0  0  0  0  0  0  0
    1.9006   -1.0651   -1.0638 O   0  0  0  0  0  0  0  0  0  0  0  0
    4.3336   -0.7900   -1.2332 O   0  0  0  0  0  0  0  0  0  0  0  0
    3.1595   -1.3695   -3.3102 O   0  0  0  0  0  0  0  0  0  0  0  0
    2.5200    0.7416   -2.4588 O   0  0  0  0  0  0  0  0  0  0  0  0
    2.8428    1.7214   -1.3952 P   0  0  1  0  0  0  0  0  0  0  0  0
    4.3164    1.8637   -1.3304 O   0  0  0  0  0  0  0  0  0  0  0  0
    2.2442    3.0374   -1.7186 O   0  0  0  0  0  0  0  0  0  0  0  0
    2.3131    1.2335   -0.0972 O   0  0  0  0  0  0  0  0  0  0  0  0
    2.8687    1.6703    1.2057 P   0  0  1  0  0  0  0  0  0  0  0  0
    2.3044    0.9795    2.3831 O   0  0  0  0  0  0  0  0  0  0  0  0
    4.3375    1.8486    1.2339 O   0  0  0  0  0  0  0  0  0  0  0  0
    2.2725    3.1663    1.3645 O   0  0  0  0  0  0  0  0  0  0  0  0
    0.9006    3.4138    1.6083 C   0  0  0  0  0  0  0  0  0  0  0  0
    0.3732    4.6284    0.8318 C   0  0  1  0  0  0  0  0  0  0  0  0
   -1.0326    4.5589    0.7086 O   0  0  0  0  0  0  0  0  0  0  0  0
    0.5477    5.9639    1.5760 C   0  0  1  0  0  0  0  0  0  0  0  0
    1.8570    6.5074    1.5539 O   0  0  0  0  0  0  0  0  0  0  0  0
   -0.4821    6.8760    0.9098 C   0  0  1  0  0  0  0  0  0  0  0  0
    0.0655    7.5919   -0.1833 O   0  0  0  0  0  0  0  0  0  0  0  0
   -1.4875    5.8581    0.3746 C   0  0  2  0  0  0  0  0  0  0  0  0
   -2.8875    6.0640    0.8033 N   0  0  0  0  0  0  0  0  0  0  0  0
   -3.5612    5.5971    1.9034 C   0  0  0  0  0  0  0  0  0  0  0  0
   -4.8339    5.8987    1.9166 N   0  0  0  0  0  0  0  0  0  0  0  0
   -5.0187    6.6414    0.7543 C   0  0  0  0  0  0  0  0  0  0  0  0
   -6.2021    7.2181    0.1912 C   0  0  0  0  0  0  0  0  0  0  0  0
   -7.3526    7.1399    0.6172 O   0  0  0  0  0  0  0  0  0  0  0  0
   -5.9505    7.9266   -0.9914 N   0  0  0  0  0  0  0  0  0  0  0  0
   -4.6869    8.0853   -1.5403 C   0  0  0  0  0  0  0  0  0  0  0  0
   -4.5622    8.8734   -2.6141 N   0  0  0  0  0  0  0  0  0  0  0  0
   -3.5876    7.5023   -1.0351 N   0  0  0  0  0  0  0  0  0  0  0  0
   -3.8175    6.7918    0.1028 C   0  0  0  0  0  0  0  0  0  0  0  0
  1  2  2  0  0  0  0
  1  4  1  0  0  0  0
  1  3  1  0  0  0  0
  5  1  1  0  0  0  0
  6  7  2  1  0  0  0
  6  9  1  0  0  0  0
  6  5  1  0  0  0  0
  6  8  1  0  0  0  0
 10 11  2  1  0  0  0
 10 12  1  0  0  0  0
 10 13  1  0  0  0  0
 10  9  1  0  0  0  0
 13 14  1  0  0  0  0
 15 14  1  1  0  0  0
 15 16  1  0  0  0  0
 17 19  1  0  0  0  0
 17 15  1  0  0  0  0
 17 18  1  6  0  0  0
 19 21  1  0  0  0  0
 19 20  1  6  0  0  0
 21 16  1  0  0  0  0
 21 22  1  1  0  0  0
 22 32  1  0  0  0  0
 23 22  1  0  0  0  0
 23 24  2  0  0  0  0
 24 25  1  0  0  0  0
 25 26  1  0  0  0  0
 26 27  2  0  0  0  0
 26 28  1  0  0  0  0
 29 28  1  0  0  0  0
 29 30  1  0  0  0  0
 31 29  2  0  0  0  0
 32 25  2  0  0  0  0
 32 31  1  0  0  0  0
M  END
>  <CHROM.1>
77.52558550,156.41329527,69.14511224,70.23177056,-174.23778759,-140.61936838
158.86059938,-78.35082906,57.55492100,35.01302105,0.07097866,3.79784889,-0.13331892
0.53046095,0.51887671,-2.31040096

>  <Name>
lig.pdb

>  <RI>
3.17878e+07

>  <Rbt.Current_Directory>
/home/itssahil/PROJECTS/Mol_Feturizer/New_Systems/rnas/5lwj

>  <Rbt.Executable>
rbdock ($Id: //depot/dev/client3/rdock/2013.1/src/exe/rbdock.cxx#4 $)

>  <Rbt.Library>
libRbt.so (2013.1, Build901 2013/11/27)

>  <Rbt.Parameter_File>
/export/apps/rDock/src/rDock_2013.1_src/data/scripts/dock_solv.prm

>  <Rbt.Receptor>
prm/blind_docking_100.prm

>  <SCORE>
-31.4094

>  <SCORE.INTER>
-33.6452

>  <SCORE.INTER.CONST>
1

>  <SCORE.INTER.POLAR>
-2.32751

>  <SCORE.INTER.ROT>
8

>  <SCORE.INTER.SOLV>
25.962

>  <SCORE.INTER.VDW>
-32.2591

>  <SCORE.INTER.norm>
-1.05141

>  <SCORE.INTRA>
-1.54954

>  <SCORE.INTRA.DIHEDRAL>
2.09616

>  <SCORE.INTRA.DIHEDRAL.0>
10.9248

>  <SCORE.INTRA.POLAR>
0

>  <SCORE.INTRA.POLAR.0>
0

>  <SCORE.INTRA.REPUL>
0

>  <SCORE.INTRA.REPUL.0>
0

>  <SCORE.INTRA.SOLV>
0.966213

>  <SCORE.INTRA.SOLV.lig_0>
-51.4104

>  <SCORE.INTRA.VDW>
-3.08073

>  <SCORE.INTRA.VDW.0>
0.110327

>  <SCORE.INTRA.norm>
-0.0484231

>  <SCORE.RESTR>
3.78537

>  <SCORE.RESTR.CAVITY>
3.78537

>  <SCORE.RESTR.norm>
0.118293

>  <SCORE.SYSTEM>
0

>  <SCORE.SYSTEM.CONST>
0

>  <SCORE.SYSTEM.DIHEDRAL>
0

>  <SCORE.SYSTEM.SOLV>
0

>  <SCORE.SYSTEM.norm>
0

>  <SCORE.heavy>
32

>  <SCORE.norm>
-0.981544

>  <RMSD>
14.334

$$$$
lig.pdb
 OpenBabel11021811523D
libRbt.so/2013.1/901 2013/11/27
 32 34  0  0  0  0  0  0  0  0999 V2000
    2.9957    0.0109   -1.5005 P   0  0  0  0  0  0  0  0  0  0  0  0
    2.3856   -1.3248   -1.1517 O   0  0  0  0  0  0  0  0  0  0  0  0
    4.5173   -0.1244   -0.9537 O   0  0  0  0  0  0  0  0  0  0  0  0
    3.1816    0.3584   -2.9565 O   0  0  0  0  0  0  0  0  0  0  0  0
    2.1010    1.0152   -0.9586 O   0  0  0  0  0  0  0  0  0  0  0  0
    2.8315    2.2948   -0.8009 P   0  0  1  0  0  0  0  0  0  0  0  0
    3.9232    2.0853    0.1790 O   0  0  0  0  0  0  0  0  0  0  0  0
    3.4184    2.7075   -2.0970 O   0  0  0  0  0  0  0  0  0  0  0  0
    1.8961    3.3408   -0.3168 O   0  0  0  0  0  0  0  0  0  0  0  0
    1.1310    3.2043    0.9453 P   0  0  1  0  0  0  0  0  0  0  0  0
   -0.1981    2.5764    0.7997 O   0  0  0  0  0  0  0  0  0  0  0  0
    1.9167    2.7349    2.1082 O   0  0  0  0  0  0  0  0  0  0  0  0
    0.7518    4.7369    1.3004 O   0  0  0  0  0  0  0  0  0  0  0  0
    0.4664    5.6981    0.3017 C   0  0  0  0  0  0  0  0  0  0  0  0
   -0.9164    6.3406    0.4793 C   0  0  1  0  0  0  0  0  0  0  0  0
   -1.3727    6.8695   -0.7489 O   0  0  0  0  0  0  0  0  0  0  0  0
   -2.0310    5.3324    0.8092 C   0  0  1  0  0  0  0  0  0  0  0  0
   -2.0617    4.8749    2.1508 O   0  0  0  0  0  0  0  0  0  0  0  0
   -3.3065    6.0731    0.4081 C   0  0  1  0  0  0  0  0  0  0  0  0
   -3.8620    6.8041    1.4870 O   0  0  0  0  0  0  0  0  0  0  0  0
   -2.7712    7.0595   -0.6281 C   0  0  2  0  0  0  0  0  0  0  0  0
   -3.4355    7.0152   -1.9483 N   0  0  0  0  0  0  0  0  0  0  0  0
   -4.5265    6.3006   -2.3741 C   0  0  0  0  0  0  0  0  0  0  0  0
   -4.7839    6.4308   -3.6499 N   0  0  0  0  0  0  0  0  0  0  0  0
   -3.8102    7.3152   -4.1041 C   0  0  0  0  0  0  0  0  0  0  0  0
   -3.5413    7.8159   -5.4182 C   0  0  0  0  0  0  0  0  0  0  0  0
   -4.1160    7.5257   -6.4655 O   0  0  0  0  0  0  0  0  0  0  0  0
   -2.4760    8.7260   -5.4446 N   0  0  0  0  0  0  0  0  0  0  0  0
   -1.7787    9.1286   -4.3156 C   0  0  0  0  0  0  0  0  0  0  0  0
   -0.8522   10.0834   -4.4559 N   0  0  0  0  0  0  0  0  0  0  0  0
   -2.0028    8.6200   -3.0930 N   0  0  0  0  0  0  0  0  0  0  0  0
   -3.0210    7.7177   -3.0528 C   0  0  0  0  0  0  0  0  0  0  0  0
  1  2  2  0  0  0  0
  1  4  1  0  0  0  0
  1  3  1  0  0  0  0
  5  1  1  0  0  0  0
  6  7  2  1  0  0  0
  6  9  1  0  0  0  0
  6  5  1  0  0  0  0
  6  8  1  0  0  0  0
 10 11  2  6  0  0  0
 10 12  1  0  0  0  0
 10 13  1  0  0  0  0
 10  9  1  0  0  0  0
 13 14  1  0  0  0  0
 15 14  1  6  0  0  0
 15 16  1  0  0  0  0
 17 19  1  0  0  0  0
 17 15  1  0  0  0  0
 17 18  1  1  0  0  0
 19 21  1  0  0  0  0
 19 20  1  1  0  0  0
 21 16  1  0  0  0  0
 21 22  1  6  0  0  0
 22 32  1  0  0  0  0
 23 22  1  0  0  0  0
 23 24  2  0  0  0  0
 24 25  1  0  0  0  0
 25 26  1  0  0  0  0
 26 27  2  0  0  0  0
 26 28  1  0  0  0  0
 29 28  1  0  0  0  0
 29 30  1  0  0  0  0
 31 29  2  0  0  0  0
 32 25  2  0  0  0  0
 32 31  1  0  0  0  0
M  END
>  <CHROM.1>
159.13794104,57.90696320,-62.81616771,34.65935055,-90.70544720,123.20758991
-157.41497705,49.46129065,172.70758710,129.72919489,-0.19328740,4.55036868
-1.25511041,-0.42687368,0.79184081,-1.38082917

>  <Name>
lig.pdb

>  <RI>
1.17715e+07

>  <Rbt.Current_Directory>
/home/itssahil/PROJECTS/Mol_Feturizer/New_Systems/rnas/5lwj

>  <Rbt.Executable>
rbdock ($Id: //depot/dev/client3/rdock/2013.1/src/exe/rbdock.cxx#4 $)

>  <Rbt.Library>
libRbt.so (2013.1, Build901 2013/11/27)

>  <Rbt.Parameter_File>
/export/apps/rDock/src/rDock_2013.1_src/data/scripts/dock_solv.prm

>  <Rbt.Receptor>
prm/blind_docking_60.prm

>  <SCORE>
-31.4816

>  <SCORE.INTER>
-31.2289

>  <SCORE.INTER.CONST>
1

>  <SCORE.INTER.POLAR>
-2.54528

>  <SCORE.INTER.ROT>
8

>  <SCORE.INTER.SOLV>
22.3673

>  <SCORE.INTER.VDW>
-28.7241

>  <SCORE.INTER.norm>
-0.975903

>  <SCORE.INTRA>
-0.252729

>  <SCORE.INTRA.DIHEDRAL>
3.44151

>  <SCORE.INTRA.DIHEDRAL.0>
10.9248

>  <SCORE.INTRA.POLAR>
0

>  <SCORE.INTRA.POLAR.0>
0

>  <SCORE.INTRA.REPUL>
0.0572088

>  <SCORE.INTRA.REPUL.0>
0

>  <SCORE.INTRA.SOLV>
0.627391

>  <SCORE.INTRA.SOLV.lig_0>
-51.4104

>  <SCORE.INTRA.VDW>
-2.57322

>  <SCORE.INTRA.VDW.0>
0.110327

>  <SCORE.INTRA.norm>
-0.00789777

>  <SCORE.RESTR>
0

>  <SCORE.RESTR.CAVITY>
0

>  <SCORE.RESTR.norm>
0

>  <SCORE.SYSTEM>
0

>  <SCORE.SYSTEM.CONST>
0

>  <SCORE.SYSTEM.DIHEDRAL>
0

>  <SCORE.SYSTEM.SOLV>
0

>  <SCORE.SYSTEM.norm>
0

>  <SCORE.heavy>
32

>  <SCORE.norm>
-0.983801

>  <RMSD>
14.344

$$$$
lig.pdb
 OpenBabel11021811523D
libRbt.so/2013.1/901 2013/11/27
 32 34  0  0  0  0  0  0  0  0999 V2000
    3.6751    0.5372   -0.3631 P   0  0  0  0  0  0  0  0  0  0  0  0
    4.5176   -0.5799   -0.9292 O   0  0  0  0  0  0  0  0  0  0  0  0
    3.9238    0.4132    1.2354 O   0  0  0  0  0  0  0  0  0  0  0  0
    4.0719    1.9609   -0.6648 O   0  0  0  0  0  0  0  0  0  0  0  0
    2.3483    0.3627   -0.9215 O   0  0  0  0  0  0  0  0  0  0  0  0
    1.3667    1.1194   -0.1095 P   0  0  1  0  0  0  0  0  0  0  0  0
    0.0109    0.8208   -0.6279 O   0  0  0  0  0  0  0  0  0  0  0  0
    1.4460    0.6958    1.3078 O   0  0  0  0  0  0  0  0  0  0  0  0
    1.6526    2.5722   -0.2168 O   0  0  0  0  0  0  0  0  0  0  0  0
    1.3490    3.5274    0.8751 P   0  0  1  0  0  0  0  0  0  0  0  0
    0.2457    3.1183    1.7679 O   0  0  0  0  0  0  0  0  0  0  0  0
    2.5318    4.0889    1.5651 O   0  0  0  0  0  0  0  0  0  0  0  0
    0.7047    4.7825    0.0825 O   0  0  0  0  0  0  0  0  0  0  0  0
    0.6402    6.0805    0.6425 C   0  0  0  0  0  0  0  0  0  0  0  0
   -0.8009    6.5884    0.7901 C   0  0  1  0  0  0  0  0  0  0  0  0
   -1.2364    7.1850   -0.4144 O   0  0  0  0  0  0  0  0  0  0  0  0
   -1.8390    5.4664    0.9665 C   0  0  1  0  0  0  0  0  0  0  0  0
   -1.9002    4.8904    2.2606 O   0  0  0  0  0  0  0  0  0  0  0  0
   -3.1514    6.1320    0.5532 C   0  0  1  0  0  0  0  0  0  0  0  0
   -3.8248    6.7159    1.6545 O   0  0  0  0  0  0  0  0  0  0  0  0
   -2.6505    7.2475   -0.3623 C   0  0  2  0  0  0  0  0  0  0  0  0
   -3.2380    7.2661   -1.7190 N   0  0  0  0  0  0  0  0  0  0  0  0
   -2.7602    7.7968   -2.8905 C   0  0  0  0  0  0  0  0  0  0  0  0
   -3.5971    7.7160   -3.8924 N   0  0  0  0  0  0  0  0  0  0  0  0
   -4.7037    7.0625   -3.3585 C   0  0  0  0  0  0  0  0  0  0  0  0
   -5.9618    6.7187   -3.9492 C   0  0  0  0  0  0  0  0  0  0  0  0
   -6.3537    6.9747   -5.0860 O   0  0  0  0  0  0  0  0  0  0  0  0
   -6.8031    6.0253   -3.0687 N   0  0  0  0  0  0  0  0  0  0  0  0
   -6.4448    5.6758   -1.7755 C   0  0  0  0  0  0  0  0  0  0  0  0
   -7.2945    4.9213   -1.0696 N   0  0  0  0  0  0  0  0  0  0  0  0
   -5.2830    6.0424   -1.2102 N   0  0  0  0  0  0  0  0  0  0  0  0
   -4.4618    6.7359   -2.0452 C   0  0  0  0  0  0  0  0  0  0  0  0
  1  2  2  0  0  0  0
  1  4  1  0  0  0  0
  1  3  1  0  0  0  0
  5  1  1  0  0  0  0
  6  7  2  6  0  0  0
  6  9  1  0  0  0  0
  6  5  1  0  0  0  0
  6  8  1  0  0  0  0
 10 11  2  1  0  0  0
 10 12  1  0  0  0  0
 10 13  1  0  0  0  0
 10  9  1  0  0  0  0
 13 14  1  0  0  0  0
 15 14  1  6  0  0  0
 15 16  1  0  0  0  0
 17 19  1  0  0  0  0
 17 15  1  0  0  0  0
 17 18  1  1  0  0  0
 19 21  1  0  0  0  0
 19 20  1  1  0  0  0
 21 16  1  0  0  0  0
 21 22  1  6  0  0  0
 22 32  1  0  0  0  0
 23 22  1  0  0  0  0
 23 24  2  0  0  0  0
 24 25  1  0  0  0  0
 25 26  1  0  0  0  0
 26 27  2  0  0  0  0
 26 28  1  0  0  0  0
 29 28  1  0  0  0  0
 29 30  1  0  0  0  0
 31 29  2  0  0  0  0
 32 25  2  0  0  0  0
 32 31  1  0  0  0  0
M  END
>  <CHROM.1>
161.87171495,-150.16084103,-174.83486407,-159.98231796,-26.54787187,-118.95648366
-85.40305864,69.02998238,175.70586640,-32.31916358,-0.89574102,4.18542884
-0.50584806,0.20766022,0.61838768,-2.32608582

>  <Name>
lig.pdb

>  <RI>
1.17715e+07

>  <Rbt.Current_Directory>
/home/itssahil/PROJECTS/Mol_Feturizer/New_Systems/rnas/5lwj

>  <Rbt.Executable>
rbdock ($Id: //depot/dev/client3/rdock/2013.1/src/exe/rbdock.cxx#4 $)

>  <Rbt.Library>
libRbt.so (2013.1, Build901 2013/11/27)

>  <Rbt.Parameter_File>
/export/apps/rDock/src/rDock_2013.1_src/data/scripts/dock_solv.prm

>  <Rbt.Receptor>
prm/blind_docking_60.prm

>  <SCORE>
-24.3067

>  <SCORE.INTER>
-25.6775

>  <SCORE.INTER.CONST>
1

>  <SCORE.INTER.POLAR>
-2.58708

>  <SCORE.INTER.ROT>
8

>  <SCORE.INTER.SOLV>
18.9165

>  <SCORE.INTER.VDW>
-23.7336

>  <SCORE.INTER.norm>
-0.802423

>  <SCORE.INTRA>
1.06679

>  <SCORE.INTRA.DIHEDRAL>
5.59173

>  <SCORE.INTRA.DIHEDRAL.0>
10.9248

>  <SCORE.INTRA.POLAR>
-0.0623677

>  <SCORE.INTRA.POLAR.0>
0

>  <SCORE.INTRA.REPUL>
0

>  <SCORE.INTRA.REPUL.0>
0

>  <SCORE.INTRA.SOLV>
1.42304

>  <SCORE.INTRA.SOLV.lig_0>
-51.4104

>  <SCORE.INTRA.VDW>
-2.22855

>  <SCORE.INTRA.VDW.0>
0.110327

>  <SCORE.INTRA.norm>
0.0333372

>  <SCORE.RESTR>
0.30404

>  <SCORE.RESTR.CAVITY>
0.30404

>  <SCORE.RESTR.norm>
0.00950125

>  <SCORE.SYSTEM>
0

>  <SCORE.SYSTEM.CONST>
0

>  <SCORE.SYSTEM.DIHEDRAL>
0

>  <SCORE.SYSTEM.SOLV>
0

>  <SCORE.SYSTEM.norm>
0

>  <SCORE.heavy>
32

>  <SCORE.norm>
-0.759585

>  <RMSD>
14.356

$$$$
lig.pdb
 OpenBabel11021811523D
libRbt.so/2013.1/901 2013/11/27
 32 34  0  0  0  0  0  0  0  0999 V2000
    1.8821   -0.6710   -0.3119 P   0  0  0  0  0  0  0  0  0  0  0  0
    2.0455   -1.0537   -1.7626 O   0  0  0  0  0  0  0  0  0  0  0  0
    0.9484   -1.8587    0.2800 O   0  0  0  0  0  0  0  0  0  0  0  0
    3.0959   -0.7077    0.5827 O   0  0  0  0  0  0  0  0  0  0  0  0
    1.4215    0.7040   -0.3083 O   0  0  0  0  0  0  0  0  0  0  0  0
    0.6731    0.9716    0.9423 P   0  0  1  0  0  0  0  0  0  0  0  0
   -0.6118    0.2361    0.8777 O   0  0  0  0  0  0  0  0  0  0  0  0
    1.4472    0.4901    2.1101 O   0  0  0  0  0  0  0  0  0  0  0  0
    0.4279    2.4302    1.0685 O   0  0  0  0  0  0  0  0  0  0  0  0
    1.4898    3.4397    0.8446 P   0  0  1  0  0  0  0  0  0  0  0  0
    2.7259    3.2225    1.6235 O   0  0  0  0  0  0  0  0  0  0  0  0
    1.7045    3.8224   -0.5687 O   0  0  0  0  0  0  0  0  0  0  0  0
    0.8734    4.7658    1.5377 O   0  0  0  0  0  0  0  0  0  0  0  0
   -0.4558    5.1933    1.3075 C   0  0  0  0  0  0  0  0  0  0  0  0
   -0.6441    5.8109   -0.0851 C   0  0  1  0  0  0  0  0  0  0  0  0
   -2.0179    5.8847   -0.4071 O   0  0  0  0  0  0  0  0  0  0  0  0
   -0.2324    7.2912   -0.1680 C   0  0  1  0  0  0  0  0  0  0  0  0
    1.1629    7.5328   -0.2400 O   0  0  0  0  0  0  0  0  0  0  0  0
   -0.9841    7.7980   -1.3985 C   0  0  1  0  0  0  0  0  0  0  0  0
   -0.2145    7.6786   -2.5820 O   0  0  0  0  0  0  0  0  0  0  0  0
   -2.1487    6.8122   -1.4698 C   0  0  2  0  0  0  0  0  0  0  0  0
   -3.4955    7.4220   -1.4880 N   0  0  0  0  0  0  0  0  0  0  0  0
   -3.8947    8.6930   -1.8159 C   0  0  0  0  0  0  0  0  0  0  0  0
   -5.1687    8.9178   -1.6234 N   0  0  0  0  0  0  0  0  0  0  0  0
   -5.6610    7.7026   -1.1568 C   0  0  0  0  0  0  0  0  0  0  0  0
   -6.9757    7.3275   -0.7314 C   0  0  0  0  0  0  0  0  0  0  0  0
   -7.9727    8.0423   -0.6518 O   0  0  0  0  0  0  0  0  0  0  0  0
   -7.0619    5.9787   -0.3610 N   0  0  0  0  0  0  0  0  0  0  0  0
   -5.9990    5.0909   -0.4324 C   0  0  0  0  0  0  0  0  0  0  0  0
   -6.2345    3.8042   -0.1520 N   0  0  0  0  0  0  0  0  0  0  0  0
   -4.7566    5.4586   -0.7859 N   0  0  0  0  0  0  0  0  0  0  0  0
   -4.6500    6.7714   -1.1287 C   0  0  0  0  0  0  0  0  0  0  0  0
  1  2  2  0  0  0  0
  1  4  1  0  0  0  0
  1  3  1  0  0  0  0
  5  1  1  0  0  0  0
  6  7  2  6  0  0  0
  6  9  1  0  0  0  0
  6  5  1  0  0  0  0
  6  8  1  0  0  0  0
 10 11  2  1  0  0  0
 10 12  1  0  0  0  0
 10 13  1  0  0  0  0
 10  9  1  0  0  0  0
 13 14  1  0  0  0  0
 15 14  1  1  0  0  0
 15 16  1  0  0  0  0
 17 19  1  0  0  0  0
 17 15  1  0  0  0  0
 17 18  1  6  0  0  0
 19 21  1  0  0  0  0
 19 20  1  6  0  0  0
 21 16  1  0  0  0  0
 21 22  1  1  0  0  0
 22 32  1  0  0  0  0
 23 22  1  0  0  0  0
 23 24  2  0  0  0  0
 24 25  1  0  0  0  0
 25 26  1  0  0  0  0
 26 27  2  0  0  0  0
 26 28  1  0  0  0  0
 29 28  1  0  0  0  0
 29 30  1  0  0  0  0
 31 29  2  0  0  0  0
 32 25  2  0  0  0  0
 32 31  1  0  0  0  0
M  END
>  <CHROM.1>
154.76023885,-46.69097429,-70.48496316,-47.09026296,-52.68648376,-73.75932497
164.10757215,-49.57141659,52.25392481,144.51709242,-1.11024513,4.07073049
-0.15572993,0.80461455,0.06565549,3.00022354

>  <Name>
lig.pdb

>  <RI>
1.17715e+07

>  <Rbt.Current_Directory>
/home/itssahil/PROJECTS/Mol_Feturizer/New_Systems/rnas/5lwj

>  <Rbt.Executable>
rbdock ($Id: //depot/dev/client3/rdock/2013.1/src/exe/rbdock.cxx#4 $)

>  <Rbt.Library>
libRbt.so (2013.1, Build901 2013/11/27)

>  <Rbt.Parameter_File>
/export/apps/rDock/src/rDock_2013.1_src/data/scripts/dock_solv.prm

>  <Rbt.Receptor>
prm/blind_docking_60.prm

>  <SCORE>
-36.4632

>  <SCORE.INTER>
-32.843

>  <SCORE.INTER.CONST>
1

>  <SCORE.INTER.POLAR>
-3.22302

>  <SCORE.INTER.ROT>
8

>  <SCORE.INTER.SOLV>
25.2438

>  <SCORE.INTER.VDW>
-28.4999

>  <SCORE.INTER.norm>
-1.02634

>  <SCORE.INTRA>
-3.94894

>  <SCORE.INTRA.DIHEDRAL>
-3.82014

>  <SCORE.INTRA.DIHEDRAL.0>
10.9248

>  <SCORE.INTRA.POLAR>
0

>  <SCORE.INTRA.POLAR.0>
0

>  <SCORE.INTRA.REPUL>
0.215947

>  <SCORE.INTRA.REPUL.0>
0

>  <SCORE.INTRA.SOLV>
-0.305795

>  <SCORE.INTRA.SOLV.lig_0>
-51.4104

>  <SCORE.INTRA.VDW>
-2.96571

>  <SCORE.INTRA.VDW.0>
0.110327

>  <SCORE.INTRA.norm>
-0.123404

>  <SCORE.RESTR>
0.328692

>  <SCORE.RESTR.CAVITY>
0.328692

>  <SCORE.RESTR.norm>
0.0102716

>  <SCORE.SYSTEM>
0

>  <SCORE.SYSTEM.CONST>
0

>  <SCORE.SYSTEM.DIHEDRAL>
0

>  <SCORE.SYSTEM.SOLV>
0

>  <SCORE.SYSTEM.norm>
0

>  <SCORE.heavy>
32

>  <SCORE.norm>
-1.13948

>  <RMSD>
14.362

$$$$
lig.pdb
 OpenBabel11021811523D
libRbt.so/2013.1/901 2013/11/27
 32 34  0  0  0  0  0  0  0  0999 V2000
    3.3184    0.6061   -2.4639 P   0  0  0  0  0  0  0  0  0  0  0  0
    2.9852   -0.7265   -3.0892 O   0  0  0  0  0  0  0  0  0  0  0  0
    4.6063    0.2670   -1.5371 O   0  0  0  0  0  0  0  0  0  0  0  0
    3.8178    1.7146   -3.3566 O   0  0  0  0  0  0  0  0  0  0  0  0
    2.0871    1.0911   -1.8711 O   0  0  0  0  0  0  0  0  0  0  0  0
    2.3864    1.7469   -0.5765 P   0  0  1  0  0  0  0  0  0  0  0  0
    2.7446    0.6937    0.4025 O   0  0  0  0  0  0  0  0  0  0  0  0
    3.5318    2.6738   -0.7296 O   0  0  0  0  0  0  0  0  0  0  0  0
    1.1912    2.4966   -0.1149 O   0  0  0  0  0  0  0  0  0  0  0  0
    1.2455    3.4804    0.9924 P   0  0  1  0  0  0  0  0  0  0  0  0
    0.1253    3.3966    1.9516 O   0  0  0  0  0  0  0  0  0  0  0  0
    2.5793    3.6601    1.6079 O   0  0  0  0  0  0  0  0  0  0  0  0
    0.9511    4.8821    0.2392 O   0  0  0  0  0  0  0  0  0  0  0  0
    0.7363    6.0906    0.9435 C   0  0  0  0  0  0  0  0  0  0  0  0
   -0.6371    6.7095    0.6482 C   0  0  1  0  0  0  0  0  0  0  0  0
   -0.6603    7.2517   -0.6563 O   0  0  0  0  0  0  0  0  0  0  0  0
   -1.7776    5.6795    0.5698 C   0  0  1  0  0  0  0  0  0  0  0  0
   -2.2523    5.1995    1.8166 O   0  0  0  0  0  0  0  0  0  0  0  0
   -2.8558    6.4076   -0.2324 C   0  0  1  0  0  0  0  0  0  0  0  0
   -3.7584    7.1125    0.6016 O   0  0  0  0  0  0  0  0  0  0  0  0
   -2.0204    7.4189   -1.0152 C   0  0  2  0  0  0  0  0  0  0  0  0
   -2.1968    7.3865   -2.4828 N   0  0  0  0  0  0  0  0  0  0  0  0
   -1.3456    7.7601   -3.4919 C   0  0  0  0  0  0  0  0  0  0  0  0
   -1.8716    7.6868   -4.6872 N   0  0  0  0  0  0  0  0  0  0  0  0
   -3.1583    7.2064   -4.4629 C   0  0  0  0  0  0  0  0  0  0  0  0
   -4.2341    6.9537   -5.3733 C   0  0  0  0  0  0  0  0  0  0  0  0
   -4.2554    7.1535   -6.5861 O   0  0  0  0  0  0  0  0  0  0  0  0
   -5.3706    6.4341   -4.7392 N   0  0  0  0  0  0  0  0  0  0  0  0
   -5.4371    6.1585   -3.3818 C   0  0  0  0  0  0  0  0  0  0  0  0
   -6.5407    5.5645   -2.9139 N   0  0  0  0  0  0  0  0  0  0  0  0
   -4.4429    6.4422   -2.5246 N   0  0  0  0  0  0  0  0  0  0  0  0
   -3.3382    6.9679   -3.1210 C   0  0  0  0  0  0  0  0  0  0  0  0
  1  2  2  0  0  0  0
  1  4  1  0  0  0  0
  1  3  1  0  0  0  0
  5  1  1  0  0  0  0
  6  7  2  1  0  0  0
  6  9  1  0  0  0  0
  6  5  1  0  0  0  0
  6  8  1  0  0  0  0
 10 11  2  1  0  0  0
 10 12  1  0  0  0  0
 10 13  1  0  0  0  0
 10  9  1  0  0  0  0
 13 14  1  0  0  0  0
 15 14  1  6  0  0  0
 15 16  1  0  0  0  0
 17 19  1  0  0  0  0
 17 15  1  0  0  0  0
 17 18  1  1  0  0  0
 19 21  1  0  0  0  0
 19 20  1  1  0  0  0
 21 16  1  0  0  0  0
 21 22  1  6  0  0  0
 22 32  1  0  0  0  0
 23 22  1  0  0  0  0
 23 24  2  0  0  0  0
 24 25  1  0  0  0  0
 25 26  1  0  0  0  0
 26 27  2  0  0  0  0
 26 28  1  0  0  0  0
 29 28  1  0  0  0  0
 29 30  1  0  0  0  0
 31 29  2  0  0  0  0
 32 25  2  0  0  0  0
 32 31  1  0  0  0  0
M  END
>  <CHROM.1>
141.09373681,-167.11071339,-71.99615155,171.66113146,-136.83318441,-120.49654323
-72.34296277,-58.84926117,178.76667004,-29.93387381,-0.33551402,4.40130114
-1.39642387,-0.06869499,0.70826910,-1.84451373

>  <Name>
lig.pdb

>  <RI>
1.17715e+07

>  <Rbt.Current_Directory>
/home/itssahil/PROJECTS/Mol_Feturizer/New_Systems/rnas/5lwj

>  <Rbt.Executable>
rbdock ($Id: //depot/dev/client3/rdock/2013.1/src/exe/rbdock.cxx#4 $)

>  <Rbt.Library>
libRbt.so (2013.1, Build901 2013/11/27)

>  <Rbt.Parameter_File>
/export/apps/rDock/src/rDock_2013.1_src/data/scripts/dock_solv.prm

>  <Rbt.Receptor>
prm/blind_docking_60.prm

>  <SCORE>
-36.4057

>  <SCORE.INTER>
-33.3861

>  <SCORE.INTER.CONST>
1

>  <SCORE.INTER.POLAR>
-1.48786

>  <SCORE.INTER.ROT>
8

>  <SCORE.INTER.SOLV>
22.6704

>  <SCORE.INTER.VDW>
-33.788

>  <SCORE.INTER.norm>
-1.04331

>  <SCORE.INTRA>
-3.08451

>  <SCORE.INTRA.DIHEDRAL>
4.01719

>  <SCORE.INTRA.DIHEDRAL.0>
10.9248

>  <SCORE.INTRA.POLAR>
-0.732173

>  <SCORE.INTRA.POLAR.0>
0

>  <SCORE.INTRA.REPUL>
0

>  <SCORE.INTRA.REPUL.0>
0

>  <SCORE.INTRA.SOLV>
0.182368

>  <SCORE.INTRA.SOLV.lig_0>
-51.4104

>  <SCORE.INTRA.VDW>
-2.6949

>  <SCORE.INTRA.VDW.0>
0.110327

>  <SCORE.INTRA.norm>
-0.096391

>  <SCORE.RESTR>
0.0649332

>  <SCORE.RESTR.CAVITY>
0.0649332

>  <SCORE.RESTR.norm>
0.00202916

>  <SCORE.SYSTEM>
0

>  <SCORE.SYSTEM.CONST>
0

>  <SCORE.SYSTEM.DIHEDRAL>
0

>  <SCORE.SYSTEM.SOLV>
0

>  <SCORE.SYSTEM.norm>
0

>  <SCORE.heavy>
32

>  <SCORE.norm>
-1.13768

>  <RMSD>
14.367

$$$$
lig.pdb
 OpenBabel11021811523D
libRbt.so/2013.1/901 2013/11/27
 32 34  0  0  0  0  0  0  0  0999 V2000
    2.6217    0.6497   -1.2238 P   0  0  0  0  0  0  0  0  0  0  0  0
    3.5901   -0.0039   -0.2682 O   0  0  0  0  0  0  0  0  0  0  0  0
    2.9261    2.2319   -1.0328 O   0  0  0  0  0  0  0  0  0  0  0  0
    2.8177    0.4365   -2.7041 O   0  0  0  0  0  0  0  0  0  0  0  0
    1.3158    0.1039   -0.9085 O   0  0  0  0  0  0  0  0  0  0  0  0
    0.7978    0.7417    0.3245 P   0  0  1  0  0  0  0  0  0  0  0  0
   -0.5251    0.1482    0.6306 O   0  0  0  0  0  0  0  0  0  0  0  0
    1.7177    0.4809    1.4561 O   0  0  0  0  0  0  0  0  0  0  0  0
    0.6701    2.2047    0.1074 O   0  0  0  0  0  0  0  0  0  0  0  0
    0.9790    3.1976    1.1636 P   0  0  1  0  0  0  0  0  0  0  0  0
    0.8837    2.6833    2.5450 O   0  0  0  0  0  0  0  0  0  0  0  0
    2.1584    4.0510    0.8976 O   0  0  0  0  0  0  0  0  0  0  0  0
   -0.2826    4.2080    1.0835 O   0  0  0  0  0  0  0  0  0  0  0  0
   -0.2096    5.5487    1.5305 C   0  0  0  0  0  0  0  0  0  0  0  0
   -1.5570    6.2776    1.4319 C   0  0  1  0  0  0  0  0  0  0  0  0
   -1.6920    6.8895    0.1655 O   0  0  0  0  0  0  0  0  0  0  0  0
   -2.7740    5.3361    1.4461 C   0  0  1  0  0  0  0  0  0  0  0  0
   -3.1341    4.8244    2.7183 O   0  0  0  0  0  0  0  0  0  0  0  0
   -3.8804    6.1803    0.8139 C   0  0  1  0  0  0  0  0  0  0  0  0
   -4.6223    6.9011    1.7820 O   0  0  0  0  0  0  0  0  0  0  0  0
   -3.0680    7.1709   -0.0181 C   0  0  2  0  0  0  0  0  0  0  0  0
   -3.4177    7.2299   -1.4534 N   0  0  0  0  0  0  0  0  0  0  0  0
   -4.4325    6.6237   -2.1498 C   0  0  0  0  0  0  0  0  0  0  0  0
   -4.3844    6.8214   -3.4419 N   0  0  0  0  0  0  0  0  0  0  0  0
   -3.2720    7.6386   -3.6190 C   0  0  0  0  0  0  0  0  0  0  0  0
   -2.6773    8.1633   -4.8111 C   0  0  0  0  0  0  0  0  0  0  0  0
   -3.0193    7.9600   -5.9742 O   0  0  0  0  0  0  0  0  0  0  0  0
   -1.5709    8.9828   -4.5500 N   0  0  0  0  0  0  0  0  0  0  0  0
   -1.1201    9.2849   -3.2739 C   0  0  0  0  0  0  0  0  0  0  0  0
   -0.1196   10.1646   -3.1522 N   0  0  0  0  0  0  0  0  0  0  0  0
   -1.6512    8.7520   -2.1614 N   0  0  0  0  0  0  0  0  0  0  0  0
   -2.7144    7.9359   -2.3981 C   0  0  0  0  0  0  0  0  0  0  0  0
  1  2  2  0  0  0  0
  1  4  1  0  0  0  0
  1  3  1  0  0  0  0
  5  1  1  0  0  0  0
  6  7  2  1  0  0  0
  6  9  1  0  0  0  0
  6  5  1  0  0  0  0
  6  8  1  0  0  0  0
 10 11  2  1  0  0  0
 10 12  1  0  0  0  0
 10 13  1  0  0  0  0
 10  9  1  0  0  0  0
 13 14  1  0  0  0  0
 15 14  1  6  0  0  0
 15 16  1  0  0  0  0
 17 19  1  0  0  0  0
 17 15  1  0  0  0  0
 17 18  1  1  0  0  0
 19 21  1  0  0  0  0
 19 20  1  1  0  0  0
 21 16  1  0  0  0  0
 21 22  1  6  0  0  0
 22 32  1  0  0  0  0
 23 22  1  0  0  0  0
 23 24  2  0  0  0  0
 24 25  1  0  0  0  0
 25 26  1  0  0  0  0
 26 27  2  0  0  0  0
 26 28  1  0  0  0  0
 29 28  1  0  0  0  0
 29 30  1  0  0  0  0
 31 29  2  0  0  0  0
 32 25  2  0  0  0  0
 32 31  1  0  0  0  0
M  END
>  <CHROM.1>
76.68216021,-142.37264257,-179.11802506,-155.99385423,-23.76278634,-176.39193339
-89.26068101,-38.03188880,175.88642810,130.55476173,-0.59372160,4.52300490
-0.62741106,-0.71420279,0.80398243,-1.04539795

>  <Name>
lig.pdb

>  <RI>
1.17715e+07

>  <Rbt.Current_Directory>
/home/itssahil/PROJECTS/Mol_Feturizer/New_Systems/rnas/5lwj

>  <Rbt.Executable>
rbdock ($Id: //depot/dev/client3/rdock/2013.1/src/exe/rbdock.cxx#4 $)

>  <Rbt.Library>
libRbt.so (2013.1, Build901 2013/11/27)

>  <Rbt.Parameter_File>
/export/apps/rDock/src/rDock_2013.1_src/data/scripts/dock_solv.prm

>  <Rbt.Receptor>
prm/blind_docking_60.prm

>  <SCORE>
-28.409

>  <SCORE.INTER>
-27.7672

>  <SCORE.INTER.CONST>
1

>  <SCORE.INTER.POLAR>
-2.83183

>  <SCORE.INTER.ROT>
8

>  <SCORE.INTER.SOLV>
24.9671

>  <SCORE.INTER.VDW>
-26.3277

>  <SCORE.INTER.norm>
-0.867725

>  <SCORE.INTRA>
-0.696955

>  <SCORE.INTRA.DIHEDRAL>
1.61624

>  <SCORE.INTRA.DIHEDRAL.0>
10.9248

>  <SCORE.INTRA.POLAR>
0

>  <SCORE.INTRA.POLAR.0>
0

>  <SCORE.INTRA.REPUL>
0.0635949

>  <SCORE.INTRA.REPUL.0>
0

>  <SCORE.INTRA.SOLV>
0.0985627

>  <SCORE.INTRA.SOLV.lig_0>
-51.4104

>  <SCORE.INTRA.VDW>
-1.87233

>  <SCORE.INTRA.VDW.0>
0.110327

>  <SCORE.INTRA.norm>
-0.0217798

>  <SCORE.RESTR>
0.055178

>  <SCORE.RESTR.CAVITY>
0.055178

>  <SCORE.RESTR.norm>
0.00172431

>  <SCORE.SYSTEM>
0

>  <SCORE.SYSTEM.CONST>
0

>  <SCORE.SYSTEM.DIHEDRAL>
0

>  <SCORE.SYSTEM.SOLV>
0

>  <SCORE.SYSTEM.norm>
0

>  <SCORE.heavy>
32

>  <SCORE.norm>
-0.887781

>  <RMSD>
14.368

$$$$
lig.pdb
 OpenBabel11021811523D
libRbt.so/2013.1/901 2013/11/27
 32 34  0  0  0  0  0  0  0  0999 V2000
    3.8817    0.0719   -1.8059 P   0  0  0  0  0  0  0  0  0  0  0  0
    3.8858   -1.0123   -2.8558 O   0  0  0  0  0  0  0  0  0  0  0  0
    3.1221   -0.6288   -0.5550 O   0  0  0  0  0  0  0  0  0  0  0  0
    5.1996    0.5029   -1.2120 O   0  0  0  0  0  0  0  0  0  0  0  0
    3.3249    1.2484   -2.4450 O   0  0  0  0  0  0  0  0  0  0  0  0
    2.8168    2.1795   -1.4104 P   0  0  1  0  0  0  0  0  0  0  0  0
    3.9548    2.5772   -0.5484 O   0  0  0  0  0  0  0  0  0  0  0  0
    2.2497    3.3892   -2.0504 O   0  0  0  0  0  0  0  0  0  0  0  0
    1.7713    1.4999   -0.6050 O   0  0  0  0  0  0  0  0  0  0  0  0
    1.2240    2.0803    0.6442 P   0  0  1  0  0  0  0  0  0  0  0  0
   -0.1329    1.6178    1.0001 O   0  0  0  0  0  0  0  0  0  0  0  0
    2.1756    2.1457    1.7757 O   0  0  0  0  0  0  0  0  0  0  0  0
    0.9667    3.6252    0.2371 O   0  0  0  0  0  0  0  0  0  0  0  0
    1.1181    4.6876    1.1597 C   0  0  0  0  0  0  0  0  0  0  0  0
    0.1005    5.8145    0.9340 C   0  0  1  0  0  0  0  0  0  0  0  0
    0.3386    6.4490   -0.3058 O   0  0  0  0  0  0  0  0  0  0  0  0
   -1.3441    5.3179    0.7491 C   0  0  1  0  0  0  0  0  0  0  0  0
   -2.0153    4.9384    1.9389 O   0  0  0  0  0  0  0  0  0  0  0  0
   -2.0275    6.4809    0.0303 C   0  0  1  0  0  0  0  0  0  0  0  0
   -2.6221    7.3939    0.9359 O   0  0  0  0  0  0  0  0  0  0  0  0
   -0.8377    7.1628   -0.6425 C   0  0  2  0  0  0  0  0  0  0  0  0
   -0.9553    7.3455   -2.1050 N   0  0  0  0  0  0  0  0  0  0  0  0
   -0.0033    7.6483   -3.0454 C   0  0  0  0  0  0  0  0  0  0  0  0
   -0.4824    7.8329   -4.2484 N   0  0  0  0  0  0  0  0  0  0  0  0
   -1.8493    7.6134   -4.1067 C   0  0  0  0  0  0  0  0  0  0  0  0
   -2.9150    7.7065   -5.0583 C   0  0  0  0  0  0  0  0  0  0  0  0
   -2.8432    8.0508   -6.2363 O   0  0  0  0  0  0  0  0  0  0  0  0
   -4.1606    7.3678   -4.5128 N   0  0  0  0  0  0  0  0  0  0  0  0
   -4.3401    6.9513   -3.2023 C   0  0  0  0  0  0  0  0  0  0  0  0
   -5.5620    6.5535   -2.8306 N   0  0  0  0  0  0  0  0  0  0  0  0
   -3.3453    6.9120   -2.3008 N   0  0  0  0  0  0  0  0  0  0  0  0
   -2.1311    7.2589   -2.8087 C   0  0  0  0  0  0  0  0  0  0  0  0
  1  2  2  0  0  0  0
  1  4  1  0  0  0  0
  1  3  1  0  0  0  0
  5  1  1  0  0  0  0
  6  7  2  1  0  0  0
  6  9  1  0  0  0  0
  6  5  1  0  0  0  0
  6  8  1  0  0  0  0
 10 11  2  1  0  0  0
 10 12  1  0  0  0  0
 10 13  1  0  0  0  0
 10  9  1  0  0  0  0
 13 14  1  0  0  0  0
 15 14  1  6  0  0  0
 15 16  1  0  0  0  0
 17 19  1  0  0  0  0
 17 15  1  0  0  0  0
 17 18  1  1  0  0  0
 19 21  1  0  0  0  0
 19 20  1  1  0  0  0
 21 16  1  0  0  0  0
 21 22  1  6  0  0  0
 22 32  1  0  0  0  0
 23 22  1  0  0  0  0
 23 24  2  0  0  0  0
 24 25  1  0  0  0  0
 25 26  1  0  0  0  0
 26 27  2  0  0  0  0
 26 28  1  0  0  0  0
 29 28  1  0  0  0  0
 29 30  1  0  0  0  0
 31 29  2  0  0  0  0
 32 25  2  0  0  0  0
 32 31  1  0  0  0  0
M  END
>  <CHROM.1>
159.00282625,169.73665803,60.76625797,-146.36525485,155.33012880,-144.84745710
-66.14023812,164.20838622,-59.97727211,-40.50069426,0.30049662,4.20331146
-1.30526644,-0.33395688,0.78313573,-1.40785113

>  <Name>
lig.pdb

>  <RI>
1.2169e+07

>  <Rbt.Current_Directory>
/home/itssahil/PROJECTS/Mol_Feturizer/New_Systems/rnas/5lwj

>  <Rbt.Executable>
rbdock ($Id: //depot/dev/client3/rdock/2013.1/src/exe/rbdock.cxx#4 $)

>  <Rbt.Library>
libRbt.so (2013.1, Build901 2013/11/27)

>  <Rbt.Parameter_File>
/export/apps/rDock/src/rDock_2013.1_src/data/scripts/dock_solv.prm

>  <Rbt.Receptor>
prm/blind_docking_40.prm

>  <SCORE>
-31.008

>  <SCORE.INTER>
-30.0512

>  <SCORE.INTER.CONST>
1

>  <SCORE.INTER.POLAR>
-1.56309

>  <SCORE.INTER.ROT>
8

>  <SCORE.INTER.SOLV>
22.702

>  <SCORE.INTER.VDW>
-31.3245

>  <SCORE.INTER.norm>
-0.939099

>  <SCORE.INTRA>
-0.998666

>  <SCORE.INTRA.DIHEDRAL>
0.267199

>  <SCORE.INTRA.DIHEDRAL.0>
10.9248

>  <SCORE.INTRA.POLAR>
0

>  <SCORE.INTRA.POLAR.0>
0

>  <SCORE.INTRA.REPUL>
0.0511

>  <SCORE.INTRA.REPUL.0>
0

>  <SCORE.INTRA.SOLV>
0.748974

>  <SCORE.INTRA.SOLV.lig_0>
-51.4104

>  <SCORE.INTRA.VDW>
-1.76225

>  <SCORE.INTRA.VDW.0>
0.110327

>  <SCORE.INTRA.norm>
-0.0312083

>  <SCORE.RESTR>
0.0417979

>  <SCORE.RESTR.CAVITY>
0.0417979

>  <SCORE.RESTR.norm>
0.00130618

>  <SCORE.SYSTEM>
0

>  <SCORE.SYSTEM.CONST>
0

>  <SCORE.SYSTEM.DIHEDRAL>
0

>  <SCORE.SYSTEM.SOLV>
0

>  <SCORE.SYSTEM.norm>
0

>  <SCORE.heavy>
32

>  <SCORE.norm>
-0.969001

>  <RMSD>
14.398

$$$$
lig.pdb
 OpenBabel11021811523D
libRbt.so/2013.1/901 2013/11/27
 32 34  0  0  0  0  0  0  0  0999 V2000
    4.2858   -0.0761   -1.0404 P   0  0  0  0  0  0  0  0  0  0  0  0
    4.8388   -0.5644   -2.3571 O   0  0  0  0  0  0  0  0  0  0  0  0
    4.4700   -1.3590   -0.0643 O   0  0  0  0  0  0  0  0  0  0  0  0
    5.0235    1.0201   -0.3127 O   0  0  0  0  0  0  0  0  0  0  0  0
    2.9661    0.4507   -1.3292 O   0  0  0  0  0  0  0  0  0  0  0  0
    2.0796    0.2309   -0.1624 P   0  0  1  0  0  0  0  0  0  0  0  0
    1.2790   -0.9904   -0.4145 O   0  0  0  0  0  0  0  0  0  0  0  0
    2.8908    0.0327    1.0613 O   0  0  0  0  0  0  0  0  0  0  0  0
    1.1893    1.4062    0.0096 O   0  0  0  0  0  0  0  0  0  0  0  0
    1.6974    2.7400    0.4090 P   0  0  1  0  0  0  0  0  0  0  0  0
    2.8277    2.7137    1.3595 O   0  0  0  0  0  0  0  0  0  0  0  0
    1.8359    3.7156   -0.6952 O   0  0  0  0  0  0  0  0  0  0  0  0
    0.4935    3.3225    1.3200 O   0  0  0  0  0  0  0  0  0  0  0  0
    0.2675    4.7102    1.4806 C   0  0  0  0  0  0  0  0  0  0  0  0
   -0.1299    5.3991    0.1677 C   0  0  1  0  0  0  0  0  0  0  0  0
   -1.5067    5.2107   -0.0877 O   0  0  0  0  0  0  0  0  0  0  0  0
   -0.0376    6.9342    0.2199 C   0  0  1  0  0  0  0  0  0  0  0  0
    1.2708    7.4701    0.1152 O   0  0  0  0  0  0  0  0  0  0  0  0
   -0.9524    7.3816   -0.9199 C   0  0  1  0  0  0  0  0  0  0  0  0
   -0.2497    7.5360   -2.1403 O   0  0  0  0  0  0  0  0  0  0  0  0
   -1.8913    6.1830   -1.0433 C   0  0  2  0  0  0  0  0  0  0  0  0
   -3.3333    6.4941   -0.9430 N   0  0  0  0  0  0  0  0  0  0  0  0
   -4.2830    6.0462   -0.0600 C   0  0  0  0  0  0  0  0  0  0  0  0
   -5.4955    6.4573   -0.3276 N   0  0  0  0  0  0  0  0  0  0  0  0
   -5.3414    7.2572   -1.4558 C   0  0  0  0  0  0  0  0  0  0  0  0
   -6.3094    7.9563   -2.2459 C   0  0  0  0  0  0  0  0  0  0  0  0
   -7.5308    7.9629   -2.1062 O   0  0  0  0  0  0  0  0  0  0  0  0
   -5.7305    8.6849   -3.2937 N   0  0  0  0  0  0  0  0  0  0  0  0
   -4.3643    8.7532   -3.5216 C   0  0  0  0  0  0  0  0  0  0  0  0
   -3.9281    9.5679   -4.4889 N   0  0  0  0  0  0  0  0  0  0  0  0
   -3.4643    8.0574   -2.8078 N   0  0  0  0  0  0  0  0  0  0  0  0
   -4.0118    7.3267   -1.7984 C   0  0  0  0  0  0  0  0  0  0  0  0
  1  2  2  0  0  0  0
  1  4  1  0  0  0  0
  1  3  1  0  0  0  0
  5  1  1  0  0  0  0
  6  7  2  6  0  0  0
  6  9  1  0  0  0  0
  6  5  1  0  0  0  0
  6  8  1  0  0  0  0
 10 11  2  1  0  0  0
 10 12  1  0  0  0  0
 10 13  1  0  0  0  0
 10  9  1  0  0  0  0
 13 14  1  0  0  0  0
 15 14  1  1  0  0  0
 15 16  1  0  0  0  0
 17 19  1  0  0  0  0
 17 15  1  0  0  0  0
 17 18  1  6  0  0  0
 19 21  1  0  0  0  0
 19 20  1  6  0  0  0
 21 16  1  0  0  0  0
 21 22  1  1  0  0  0
 22 32  1  0  0  0  0
 23 22  1  0  0  0  0
 23 24  2  0  0  0  0
 24 25  1  0  0  0  0
 25 26  1  0  0  0  0
 26 27  2  0  0  0  0
 26 28  1  0  0  0  0
 29 28  1  0  0  0  0
 29 30  1  0  0  0  0
 31 29  2  0  0  0  0
 32 25  2  0  0  0  0
 32 31  1  0  0  0  0
M  END
>  <CHROM.1>
147.71143010,-67.40728832,-97.84671757,-153.98438584,-35.30649382,64.69231502
81.42684931,-54.67388790,-166.27989815,3.46664997,-0.16509509,4.13863186
-0.78116314,-0.77207203,-0.11913484,-0.10916317

>  <Name>
lig.pdb

>  <RI>
1.2169e+07

>  <Rbt.Current_Directory>
/home/itssahil/PROJECTS/Mol_Feturizer/New_Systems/rnas/5lwj

>  <Rbt.Executable>
rbdock ($Id: //depot/dev/client3/rdock/2013.1/src/exe/rbdock.cxx#4 $)

>  <Rbt.Library>
libRbt.so (2013.1, Build901 2013/11/27)

>  <Rbt.Parameter_File>
/export/apps/rDock/src/rDock_2013.1_src/data/scripts/dock_solv.prm

>  <Rbt.Receptor>
prm/blind_docking_40.prm

>  <SCORE>
-10.2687

>  <SCORE.INTER>
-10.8989

>  <SCORE.INTER.CONST>
1

>  <SCORE.INTER.POLAR>
-1.54815

>  <SCORE.INTER.ROT>
8

>  <SCORE.INTER.SOLV>
16.1755

>  <SCORE.INTER.VDW>
-16.4306

>  <SCORE.INTER.norm>
-0.34059

>  <SCORE.INTRA>
-0.0967965

>  <SCORE.INTRA.DIHEDRAL>
-0.344356

>  <SCORE.INTRA.DIHEDRAL.0>
10.9248

>  <SCORE.INTRA.POLAR>
0

>  <SCORE.INTRA.POLAR.0>
0

>  <SCORE.INTRA.REPUL>
0

>  <SCORE.INTRA.REPUL.0>
0

>  <SCORE.INTRA.SOLV>
0.0180105

>  <SCORE.INTRA.SOLV.lig_0>
-51.4104

>  <SCORE.INTRA.VDW>
0.0663764

>  <SCORE.INTRA.VDW.0>
0.110327

>  <SCORE.INTRA.norm>
-0.00302489

>  <SCORE.RESTR>
0.726943

>  <SCORE.RESTR.CAVITY>
0.726943

>  <SCORE.RESTR.norm>
0.022717

>  <SCORE.SYSTEM>
0

>  <SCORE.SYSTEM.CONST>
0

>  <SCORE.SYSTEM.DIHEDRAL>
0

>  <SCORE.SYSTEM.SOLV>
0

>  <SCORE.SYSTEM.norm>
0

>  <SCORE.heavy>
32

>  <SCORE.norm>
-0.320898

>  <RMSD>
14.403

$$$$
lig.pdb
 OpenBabel11021811523D
libRbt.so/2013.1/901 2013/11/27
 32 34  0  0  0  0  0  0  0  0999 V2000
    1.8266    0.2399   -0.6653 P   0  0  0  0  0  0  0  0  0  0  0  0
    1.8516   -1.0798   -1.3973 O   0  0  0  0  0  0  0  0  0  0  0  0
    2.2613   -0.1671    0.8440 O   0  0  0  0  0  0  0  0  0  0  0  0
    2.8389    1.2918   -1.0444 O   0  0  0  0  0  0  0  0  0  0  0  0
    0.5246    0.8213   -0.9292 O   0  0  0  0  0  0  0  0  0  0  0  0
   -0.1569    1.1109    0.3542 P   0  0  1  0  0  0  0  0  0  0  0  0
   -1.3999    1.8613    0.0578 O   0  0  0  0  0  0  0  0  0  0  0  0
   -0.5083   -0.1546    1.0394 O   0  0  0  0  0  0  0  0  0  0  0  0
    0.7403    1.9182    1.2185 O   0  0  0  0  0  0  0  0  0  0  0  0
    1.2079    3.2723    0.8382 P   0  0  1  0  0  0  0  0  0  0  0  0
    2.1777    3.8786    1.7730 O   0  0  0  0  0  0  0  0  0  0  0  0
    1.5345    3.4442   -0.5950 O   0  0  0  0  0  0  0  0  0  0  0  0
   -0.1098    4.1828    1.0689 O   0  0  0  0  0  0  0  0  0  0  0  0
   -0.0429    5.4919    1.6021 C   0  0  0  0  0  0  0  0  0  0  0  0
   -1.3757    6.2447    1.4871 C   0  0  1  0  0  0  0  0  0  0  0  0
   -1.4844    6.8585    0.2191 O   0  0  0  0  0  0  0  0  0  0  0  0
   -2.6094    5.3250    1.4865 C   0  0  1  0  0  0  0  0  0  0  0  0
   -2.9940    4.8202    2.7544 O   0  0  0  0  0  0  0  0  0  0  0  0
   -3.6928    6.1886    0.8410 C   0  0  1  0  0  0  0  0  0  0  0  0
   -4.4334    6.9228    1.7999 O   0  0  0  0  0  0  0  0  0  0  0  0
   -2.8528    7.1644    0.0188 C   0  0  2  0  0  0  0  0  0  0  0  0
   -3.1839    7.2292   -1.4207 N   0  0  0  0  0  0  0  0  0  0  0  0
   -4.0690    6.4922   -2.1663 C   0  0  0  0  0  0  0  0  0  0  0  0
   -4.0343    6.7545   -3.4473 N   0  0  0  0  0  0  0  0  0  0  0  0
   -3.0748    7.7558   -3.5628 C   0  0  0  0  0  0  0  0  0  0  0  0
   -2.5588    8.4280   -4.7169 C   0  0  0  0  0  0  0  0  0  0  0  0
   -2.8421    8.2234   -5.8955 O   0  0  0  0  0  0  0  0  0  0  0  0
   -1.6128    9.4105   -4.3948 N   0  0  0  0  0  0  0  0  0  0  0  0
   -1.2411    9.7257   -3.0965 C   0  0  0  0  0  0  0  0  0  0  0  0
   -0.4074   10.7558   -2.9136 N   0  0  0  0  0  0  0  0  0  0  0  0
   -1.6916    9.0598   -2.0207 N   0  0  0  0  0  0  0  0  0  0  0  0
   -2.5960    8.0869   -2.3173 C   0  0  0  0  0  0  0  0  0  0  0  0
  1  2  2  0  0  0  0
  1  4  1  0  0  0  0
  1  3  1  0  0  0  0
  5  1  1  0  0  0  0
  6  7  2  6  0  0  0
  6  9  1  0  0  0  0
  6  5  1  0  0  0  0
  6  8  1  0  0  0  0
 10 11  2  1  0  0  0
 10 12  1  0  0  0  0
 10 13  1  0  0  0  0
 10  9  1  0  0  0  0
 13 14  1  0  0  0  0
 15 14  1  6  0  0  0
 15 16  1  0  0  0  0
 17 19  1  0  0  0  0
 17 15  1  0  0  0  0
 17 18  1  1  0  0  0
 19 21  1  0  0  0  0
 19 20  1  1  0  0  0
 21 16  1  0  0  0  0
 21 22  1  6  0  0  0
 22 32  1  0  0  0  0
 23 22  1  0  0  0  0
 23 24  2  0  0  0  0
 24 25  1  0  0  0  0
 25 26  1  0  0  0  0
 26 27  2  0  0  0  0
 26 28  1  0  0  0  0
 29 28  1  0  0  0  0
 29 30  1  0  0  0  0
 31 29  2  0  0  0  0
 32 25  2  0  0  0  0
 32 31  1  0  0  0  0
M  END
>  <CHROM.1>
123.97405763,62.44507908,172.73782464,141.57545908,-175.43646389,169.45477277
-85.14488844,146.70394900,179.51387103,119.42757531,-0.78665758,4.57016721
-0.56826334,-0.82236941,0.89738742,-0.98694399

>  <Name>
lig.pdb

>  <RI>
4.14043e+07

>  <Rbt.Current_Directory>
/home/itssahil/PROJECTS/Mol_Feturizer/New_Systems/rnas/5lwj

>  <Rbt.Executable>
rbdock ($Id: //depot/dev/client3/rdock/2013.1/src/exe/rbdock.cxx#4 $)

>  <Rbt.Library>
libRbt.so (2013.1, Build901 2013/11/27)

>  <Rbt.Parameter_File>
/export/apps/rDock/src/rDock_2013.1_src/data/scripts/dock_solv.prm

>  <Rbt.Receptor>
prm/blind_docking_80.prm

>  <SCORE>
-27.3808

>  <SCORE.INTER>
-27.9685

>  <SCORE.INTER.CONST>
1

>  <SCORE.INTER.POLAR>
-4.0353

>  <SCORE.INTER.ROT>
8

>  <SCORE.INTER.SOLV>
28.0173

>  <SCORE.INTER.VDW>
-23.4671

>  <SCORE.INTER.norm>
-0.874016

>  <SCORE.INTRA>
-0.490876

>  <SCORE.INTRA.DIHEDRAL>
2.8752

>  <SCORE.INTRA.DIHEDRAL.0>
10.9248

>  <SCORE.INTRA.POLAR>
0

>  <SCORE.INTRA.POLAR.0>
0

>  <SCORE.INTRA.REPUL>
0.00555947

>  <SCORE.INTRA.REPUL.0>
0

>  <SCORE.INTRA.SOLV>
0.987114

>  <SCORE.INTRA.SOLV.lig_0>
-51.4104

>  <SCORE.INTRA.VDW>
-2.44983

>  <SCORE.INTRA.VDW.0>
0.110327

>  <SCORE.INTRA.norm>
-0.0153399

>  <SCORE.RESTR>
1.07856

>  <SCORE.RESTR.CAVITY>
1.07856

>  <SCORE.RESTR.norm>
0.0337049

>  <SCORE.SYSTEM>
0

>  <SCORE.SYSTEM.CONST>
0

>  <SCORE.SYSTEM.DIHEDRAL>
0

>  <SCORE.SYSTEM.SOLV>
0

>  <SCORE.SYSTEM.norm>
0

>  <SCORE.heavy>
32

>  <SCORE.norm>
-0.855651

>  <RMSD>
14.415

$$$$
lig.pdb
 OpenBabel11021811523D
libRbt.so/2013.1/901 2013/11/27
 32 34  0  0  0  0  0  0  0  0999 V2000
    4.3129    1.2859   -1.0847 P   0  0  0  0  0  0  0  0  0  0  0  0
    4.4847   -0.1692   -1.4470 O   0  0  0  0  0  0  0  0  0  0  0  0
    5.6115    1.5918   -0.1613 O   0  0  0  0  0  0  0  0  0  0  0  0
    4.4177    2.3170   -2.1805 O   0  0  0  0  0  0  0  0  0  0  0  0
    2.9736    1.4098   -0.5428 O   0  0  0  0  0  0  0  0  0  0  0  0
    3.0118    1.1977    0.9232 P   0  0  1  0  0  0  0  0  0  0  0  0
    3.6661   -0.1060    1.1842 O   0  0  0  0  0  0  0  0  0  0  0  0
    3.7996    2.2720    1.5713 O   0  0  0  0  0  0  0  0  0  0  0  0
    1.6271    1.1972    1.4582 O   0  0  0  0  0  0  0  0  0  0  0  0
    0.4389    1.4021    0.5961 P   0  0  1  0  0  0  0  0  0  0  0  0
    0.7367    1.5655   -0.8414 O   0  0  0  0  0  0  0  0  0  0  0  0
   -0.7138    0.5241    0.8967 O   0  0  0  0  0  0  0  0  0  0  0  0
   -0.0560    2.8843    1.0169 O   0  0  0  0  0  0  0  0  0  0  0  0
    0.8109    4.0028    1.0120 C   0  0  0  0  0  0  0  0  0  0  0  0
    0.0560    5.3338    0.8897 C   0  0  1  0  0  0  0  0  0  0  0  0
    0.3448    5.9494   -0.3488 O   0  0  0  0  0  0  0  0  0  0  0  0
   -1.4719    5.1744    0.8011 C   0  0  1  0  0  0  0  0  0  0  0  0
   -2.1289    4.9046    2.0283 O   0  0  0  0  0  0  0  0  0  0  0  0
   -1.9271    6.4867    0.1633 C   0  0  1  0  0  0  0  0  0  0  0  0
   -2.2418    7.4713    1.1322 O   0  0  0  0  0  0  0  0  0  0  0  0
   -0.6637    6.9168   -0.5798 C   0  0  2  0  0  0  0  0  0  0  0  0
   -0.8361    7.1789   -2.0247 N   0  0  0  0  0  0  0  0  0  0  0  0
    0.0683    7.5909   -2.9705 C   0  0  0  0  0  0  0  0  0  0  0  0
   -0.4570    7.8188   -4.1465 N   0  0  0  0  0  0  0  0  0  0  0  0
   -1.8046    7.5135   -3.9812 C   0  0  0  0  0  0  0  0  0  0  0  0
   -2.9026    7.6019   -4.8959 C   0  0  0  0  0  0  0  0  0  0  0  0
   -2.8862    8.0190   -6.0522 O   0  0  0  0  0  0  0  0  0  0  0  0
   -4.1102    7.1608   -4.3381 N   0  0  0  0  0  0  0  0  0  0  0  0
   -4.2259    6.6578   -3.0510 C   0  0  0  0  0  0  0  0  0  0  0  0
   -5.4120    6.1695   -2.6710 N   0  0  0  0  0  0  0  0  0  0  0  0
   -3.2033    6.6220   -2.1811 N   0  0  0  0  0  0  0  0  0  0  0  0
   -2.0264    7.0672   -2.7000 C   0  0  0  0  0  0  0  0  0  0  0  0
  1  2  2  0  0  0  0
  1  4  1  0  0  0  0
  1  3  1  0  0  0  0
  5  1  1  0  0  0  0
  6  7  2  1  0  0  0
  6  9  1  0  0  0  0
  6  5  1  0  0  0  0
  6  8  1  0  0  0  0
 10 11  2  6  0  0  0
 10 12  1  0  0  0  0
 10 13  1  0  0  0  0
 10  9  1  0  0  0  0
 13 14  1  0  0  0  0
 15 14  1  6  0  0  0
 15 16  1  0  0  0  0
 17 19  1  0  0  0  0
 17 15  1  0  0  0  0
 17 18  1  1  0  0  0
 19 21  1  0  0  0  0
 19 20  1  1  0  0  0
 21 16  1  0  0  0  0
 21 22  1  6  0  0  0
 22 32  1  0  0  0  0
 23 22  1  0  0  0  0
 23 24  2  0  0  0  0
 24 25  1  0  0  0  0
 25 26  1  0  0  0  0
 26 27  2  0  0  0  0
 26 28  1  0  0  0  0
 29 28  1  0  0  0  0
 29 30  1  0  0  0  0
 31 29  2  0  0  0  0
 32 25  2  0  0  0  0
 32 31  1  0  0  0  0
M  END
>  <CHROM.1>
90.25996543,-0.73024217,-54.42152568,52.80338367,1.78330475,157.06609895
-113.06636103,55.05924087,-59.38445654,-56.75697006,0.31800572,4.02962043
-0.82355520,-0.67140534,0.55767091,-1.05632553

>  <Name>
lig.pdb

>  <RI>
1.17715e+07

>  <Rbt.Current_Directory>
/home/itssahil/PROJECTS/Mol_Feturizer/New_Systems/rnas/5lwj

>  <Rbt.Executable>
rbdock ($Id: //depot/dev/client3/rdock/2013.1/src/exe/rbdock.cxx#4 $)

>  <Rbt.Library>
libRbt.so (2013.1, Build901 2013/11/27)

>  <Rbt.Parameter_File>
/export/apps/rDock/src/rDock_2013.1_src/data/scripts/dock_solv.prm

>  <Rbt.Receptor>
prm/blind_docking_60.prm

>  <SCORE>
-29.8224

>  <SCORE.INTER>
-34.6916

>  <SCORE.INTER.CONST>
1

>  <SCORE.INTER.POLAR>
-1.95857

>  <SCORE.INTER.ROT>
8

>  <SCORE.INTER.SOLV>
22.7301

>  <SCORE.INTER.VDW>
-33.1092

>  <SCORE.INTER.norm>
-1.08411

>  <SCORE.INTRA>
4.74852

>  <SCORE.INTRA.DIHEDRAL>
5.24754

>  <SCORE.INTRA.DIHEDRAL.0>
10.9248

>  <SCORE.INTRA.POLAR>
0

>  <SCORE.INTRA.POLAR.0>
0

>  <SCORE.INTRA.REPUL>
0

>  <SCORE.INTRA.REPUL.0>
0

>  <SCORE.INTRA.SOLV>
1.60288

>  <SCORE.INTRA.SOLV.lig_0>
-51.4104

>  <SCORE.INTRA.VDW>
1.32331

>  <SCORE.INTRA.VDW.0>
0.110327

>  <SCORE.INTRA.norm>
0.148391

>  <SCORE.RESTR>
0.120636

>  <SCORE.RESTR.CAVITY>
0.120636

>  <SCORE.RESTR.norm>
0.00376986

>  <SCORE.SYSTEM>
0

>  <SCORE.SYSTEM.CONST>
0

>  <SCORE.SYSTEM.DIHEDRAL>
0

>  <SCORE.SYSTEM.SOLV>
0

>  <SCORE.SYSTEM.norm>
0

>  <SCORE.heavy>
32

>  <SCORE.norm>
-0.93195

>  <RMSD>
14.419

$$$$
lig.pdb
 OpenBabel11021811523D
libRbt.so/2013.1/901 2013/11/27
 32 34  0  0  0  0  0  0  0  0999 V2000
    2.9553    2.3189   -1.4711 P   0  0  0  0  0  0  0  0  0  0  0  0
    2.2815    3.5728   -1.9731 O   0  0  0  0  0  0  0  0  0  0  0  0
    3.6183    1.6937   -2.8135 O   0  0  0  0  0  0  0  0  0  0  0  0
    4.1320    2.4592   -0.5379 O   0  0  0  0  0  0  0  0  0  0  0  0
    1.9435    1.5861   -0.7349 O   0  0  0  0  0  0  0  0  0  0  0  0
    1.6531    2.2872    0.5378 P   0  0  1  0  0  0  0  0  0  0  0  0
    2.5963    1.7875    1.5658 O   0  0  0  0  0  0  0  0  0  0  0  0
    1.8496    3.7459    0.3703 O   0  0  0  0  0  0  0  0  0  0  0  0
    0.2522    2.0121    0.9446 O   0  0  0  0  0  0  0  0  0  0  0  0
   -0.5465    0.9095    0.3586 P   0  0  1  0  0  0  0  0  0  0  0  0
    0.1965    0.0293   -0.5660 O   0  0  0  0  0  0  0  0  0  0  0  0
   -1.4357    0.2047    1.3087 O   0  0  0  0  0  0  0  0  0  0  0  0
   -1.5525    1.6894   -0.6406 O   0  0  0  0  0  0  0  0  0  0  0  0
   -2.9581    1.5423   -0.5679 C   0  0  0  0  0  0  0  0  0  0  0  0
   -3.6712    2.8549   -0.2145 C   0  0  1  0  0  0  0  0  0  0  0  0
   -2.7814    3.9454   -0.3393 O   0  0  0  0  0  0  0  0  0  0  0  0
   -4.7761    3.2483   -1.2106 C   0  0  1  0  0  0  0  0  0  0  0  0
   -5.9968    2.5394   -1.0783 O   0  0  0  0  0  0  0  0  0  0  0  0
   -4.9377    4.7511   -0.9827 C   0  0  1  0  0  0  0  0  0  0  0  0
   -5.9265    5.0411   -0.0105 O   0  0  0  0  0  0  0  0  0  0  0  0
   -3.5686    5.1205   -0.4146 C   0  0  2  0  0  0  0  0  0  0  0  0
   -2.8556    6.2001   -1.1302 N   0  0  0  0  0  0  0  0  0  0  0  0
   -3.2231    6.9369   -2.2277 C   0  0  0  0  0  0  0  0  0  0  0  0
   -2.2947    7.7517   -2.6577 N   0  0  0  0  0  0  0  0  0  0  0  0
   -1.2402    7.5640   -1.7692 C   0  0  0  0  0  0  0  0  0  0  0  0
    0.0699    8.1406   -1.7375 C   0  0  0  0  0  0  0  0  0  0  0  0
    0.5663    8.9242   -2.5443 O   0  0  0  0  0  0  0  0  0  0  0  0
    0.8278    7.7056   -0.6419 N   0  0  0  0  0  0  0  0  0  0  0  0
    0.3505    6.8383    0.3292 C   0  0  0  0  0  0  0  0  0  0  0  0
    1.1336    6.5818    1.3831 N   0  0  0  0  0  0  0  0  0  0  0  0
   -0.8615    6.2627    0.2691 N   0  0  0  0  0  0  0  0  0  0  0  0
   -1.6036    6.6580   -0.8012 C   0  0  0  0  0  0  0  0  0  0  0  0
  1  2  2  0  0  0  0
  1  4  1  0  0  0  0
  1  3  1  0  0  0  0
  5  1  1  0  0  0  0
  6  7  2  1  0  0  0
  6  9  1  0  0  0  0
  6  5  1  0  0  0  0
  6  8  1  0  0  0  0
 10 11  2  6  0  0  0
 10 12  1  0  0  0  0
 10 13  1  0  0  0  0
 10  9  1  0  0  0  0
 13 14  1  0  0  0  0
 15 14  1  6  0  0  0
 15 16  1  0  0  0  0
 17 19  1  0  0  0  0
 17 15  1  0  0  0  0
 17 18  1  1  0  0  0
 19 21  1  0  0  0  0
 19 20  1  1  0  0  0
 21 16  1  0  0  0  0
 21 22  1  6  0  0  0
 22 32  1  0  0  0  0
 23 22  1  0  0  0  0
 23 24  2  0  0  0  0
 24 25  1  0  0  0  0
 25 26  1  0  0  0  0
 26 27  2  0  0  0  0
 26 28  1  0  0  0  0
 29 28  1  0  0  0  0
 29 30  1  0  0  0  0
 31 29  2  0  0  0  0
 32 25  2  0  0  0  0
 32 31  1  0  0  0  0
M  END
>  <CHROM.1>
-71.50130815,15.80705452,-88.37014340,-125.14604863,5.45573200,116.91383663
12.99624939,-165.18071575,69.48501013,124.46751795,-0.53137078,3.81609118
-0.55669096,-0.59912118,0.01879700,-0.20472328

>  <Name>
lig.pdb

>  <RI>
3.17878e+07

>  <Rbt.Current_Directory>
/home/itssahil/PROJECTS/Mol_Feturizer/New_Systems/rnas/5lwj

>  <Rbt.Executable>
rbdock ($Id: //depot/dev/client3/rdock/2013.1/src/exe/rbdock.cxx#4 $)

>  <Rbt.Library>
libRbt.so (2013.1, Build901 2013/11/27)

>  <Rbt.Parameter_File>
/export/apps/rDock/src/rDock_2013.1_src/data/scripts/dock_solv.prm

>  <Rbt.Receptor>
prm/blind_docking_100.prm

>  <SCORE>
36.0792

>  <SCORE.INTER>
26.2986

>  <SCORE.INTER.CONST>
1

>  <SCORE.INTER.POLAR>
-3.56131

>  <SCORE.INTER.ROT>
8

>  <SCORE.INTER.SOLV>
31.5361

>  <SCORE.INTER.VDW>
9.95806

>  <SCORE.INTER.norm>
0.821831

>  <SCORE.INTRA>
9.38064

>  <SCORE.INTRA.DIHEDRAL>
12.4729

>  <SCORE.INTRA.DIHEDRAL.0>
10.9248

>  <SCORE.INTRA.POLAR>
0

>  <SCORE.INTRA.POLAR.0>
0

>  <SCORE.INTRA.REPUL>
0.0245652

>  <SCORE.INTRA.REPUL.0>
0

>  <SCORE.INTRA.SOLV>
0.499651

>  <SCORE.INTRA.SOLV.lig_0>
-51.4104

>  <SCORE.INTRA.VDW>
2.77154

>  <SCORE.INTRA.VDW.0>
0.110327

>  <SCORE.INTRA.norm>
0.293145

>  <SCORE.RESTR>
0.4

>  <SCORE.RESTR.CAVITY>
0.4

>  <SCORE.RESTR.norm>
0.0125

>  <SCORE.SYSTEM>
0

>  <SCORE.SYSTEM.CONST>
0

>  <SCORE.SYSTEM.DIHEDRAL>
0

>  <SCORE.SYSTEM.SOLV>
0

>  <SCORE.SYSTEM.norm>
0

>  <SCORE.heavy>
32

>  <SCORE.norm>
1.12748

>  <RMSD>
14.430

$$$$
lig.pdb
 OpenBabel11021811523D
libRbt.so/2013.1/901 2013/11/27
 32 34  0  0  0  0  0  0  0  0999 V2000
    2.5655   -0.9061   -1.3790 P   0  0  0  0  0  0  0  0  0  0  0  0
    1.6074   -2.0549   -1.5792 O   0  0  0  0  0  0  0  0  0  0  0  0
    3.5832   -1.4675   -0.2469 O   0  0  0  0  0  0  0  0  0  0  0  0
    3.4851   -0.5304   -2.5141 O   0  0  0  0  0  0  0  0  0  0  0  0
    1.7450    0.2618   -1.1230 O   0  0  0  0  0  0  0  0  0  0  0  0
    1.3172    0.2641    0.2957 P   0  0  1  0  0  0  0  0  0  0  0  0
    0.5774   -0.9930    0.5569 O   0  0  0  0  0  0  0  0  0  0  0  0
    2.5020    0.3208    1.1832 O   0  0  0  0  0  0  0  0  0  0  0  0
    0.4448    1.4387    0.5463 O   0  0  0  0  0  0  0  0  0  0  0  0
    0.9869    2.7900    0.8244 P   0  0  1  0  0  0  0  0  0  0  0  0
    1.7046    2.9177    2.1090 O   0  0  0  0  0  0  0  0  0  0  0  0
    1.6452    3.4510   -0.3244 O   0  0  0  0  0  0  0  0  0  0  0  0
   -0.3497    3.6636    1.0872 O   0  0  0  0  0  0  0  0  0  0  0  0
   -0.3175    5.0695    1.2455 C   0  0  0  0  0  0  0  0  0  0  0  0
   -0.0300    5.8050   -0.0708 C   0  0  1  0  0  0  0  0  0  0  0  0
   -1.2172    5.9440   -0.8242 O   0  0  0  0  0  0  0  0  0  0  0  0
    0.3844    7.2749    0.1177 C   0  0  1  0  0  0  0  0  0  0  0  0
    1.7233    7.4819    0.5358 O   0  0  0  0  0  0  0  0  0  0  0  0
    0.0868    7.9026   -1.2438 C   0  0  1  0  0  0  0  0  0  0  0  0
    1.2077    7.8595   -2.1090 O   0  0  0  0  0  0  0  0  0  0  0  0
   -0.9862    6.9593   -1.7845 C   0  0  2  0  0  0  0  0  0  0  0  0
   -2.2500    7.6065   -2.1970 N   0  0  0  0  0  0  0  0  0  0  0  0
   -2.4950    8.5507   -3.1617 C   0  0  0  0  0  0  0  0  0  0  0  0
   -3.7318    8.9753   -3.1899 N   0  0  0  0  0  0  0  0  0  0  0  0
   -4.3644    8.2445   -2.1886 C   0  0  0  0  0  0  0  0  0  0  0  0
   -5.7125    8.2885   -1.7084 C   0  0  0  0  0  0  0  0  0  0  0  0
   -6.6159    9.0389   -2.0716 O   0  0  0  0  0  0  0  0  0  0  0  0
   -5.9584    7.3517   -0.6955 N   0  0  0  0  0  0  0  0  0  0  0  0
   -5.0104    6.4524   -0.2313 C   0  0  0  0  0  0  0  0  0  0  0  0
   -5.3975    5.5366    0.6637 N   0  0  0  0  0  0  0  0  0  0  0  0
   -3.7345    6.4475   -0.6507 N   0  0  0  0  0  0  0  0  0  0  0  0
   -3.4726    7.3662   -1.6201 C   0  0  0  0  0  0  0  0  0  0  0  0
  1  2  2  0  0  0  0
  1  4  1  0  0  0  0
  1  3  1  0  0  0  0
  5  1  1  0  0  0  0
  6  7  2  1  0  0  0
  6  9  1  0  0  0  0
  6  5  1  0  0  0  0
  6  8  1  0  0  0  0
 10 11  2  1  0  0  0
 10 12  1  0  0  0  0
 10 13  1  0  0  0  0
 10  9  1  0  0  0  0
 13 14  1  0  0  0  0
 15 14  1  1  0  0  0
 15 16  1  0  0  0  0
 17 19  1  0  0  0  0
 17 15  1  0  0  0  0
 17 18  1  6  0  0  0
 19 21  1  0  0  0  0
 19 20  1  6  0  0  0
 21 16  1  0  0  0  0
 21 22  1  1  0  0  0
 22 32  1  0  0  0  0
 23 22  1  0  0  0  0
 23 24  2  0  0  0  0
 24 25  1  0  0  0  0
 25 26  1  0  0  0  0
 26 27  2  0  0  0  0
 26 28  1  0  0  0  0
 29 28  1  0  0  0  0
 29 30  1  0  0  0  0
 31 29  2  0  0  0  0
 32 25  2  0  0  0  0
 32 31  1  0  0  0  0
M  END
>  <CHROM.1>
80.62364097,-82.51972359,-58.08172803,-172.64029151,-67.22776352,71.98263356
82.40369746,-60.02977982,-179.07673186,-174.47719276,-0.45049460,4.06619016
-0.57947559,0.94025063,0.02712211,3.02047879

>  <Name>
lig.pdb

>  <RI>
1.17715e+07

>  <Rbt.Current_Directory>
/home/itssahil/PROJECTS/Mol_Feturizer/New_Systems/rnas/5lwj

>  <Rbt.Executable>
rbdock ($Id: //depot/dev/client3/rdock/2013.1/src/exe/rbdock.cxx#4 $)

>  <Rbt.Library>
libRbt.so (2013.1, Build901 2013/11/27)

>  <Rbt.Parameter_File>
/export/apps/rDock/src/rDock_2013.1_src/data/scripts/dock_solv.prm

>  <Rbt.Receptor>
prm/blind_docking_60.prm

>  <SCORE>
-26.4032

>  <SCORE.INTER>
-24.0525

>  <SCORE.INTER.CONST>
1

>  <SCORE.INTER.POLAR>
-2.74059

>  <SCORE.INTER.ROT>
8

>  <SCORE.INTER.SOLV>
23.9626

>  <SCORE.INTER.VDW>
-23.8206

>  <SCORE.INTER.norm>
-0.751639

>  <SCORE.INTRA>
-2.95641

>  <SCORE.INTRA.DIHEDRAL>
-4.13577

>  <SCORE.INTRA.DIHEDRAL.0>
10.9248

>  <SCORE.INTRA.POLAR>
0

>  <SCORE.INTRA.POLAR.0>
0

>  <SCORE.INTRA.REPUL>
0.38345

>  <SCORE.INTRA.REPUL.0>
0

>  <SCORE.INTRA.SOLV>
-0.451501

>  <SCORE.INTRA.SOLV.lig_0>
-51.4104

>  <SCORE.INTRA.VDW>
-2.58003

>  <SCORE.INTRA.VDW.0>
0.110327

>  <SCORE.INTRA.norm>
-0.0923879

>  <SCORE.RESTR>
0.605686

>  <SCORE.RESTR.CAVITY>
0.605686

>  <SCORE.RESTR.norm>
0.0189277

>  <SCORE.SYSTEM>
0

>  <SCORE.SYSTEM.CONST>
0

>  <SCORE.SYSTEM.DIHEDRAL>
0

>  <SCORE.SYSTEM.SOLV>
0

>  <SCORE.SYSTEM.norm>
0

>  <SCORE.heavy>
32

>  <SCORE.norm>
-0.8251

>  <RMSD>
14.446

$$$$
lig.pdb
 OpenBabel11021811523D
libRbt.so/2013.1/901 2013/11/27
 32 34  0  0  0  0  0  0  0  0999 V2000
    2.5142    1.2089   -1.3272 P   0  0  0  0  0  0  0  0  0  0  0  0
    3.3318    0.5161   -2.3899 O   0  0  0  0  0  0  0  0  0  0  0  0
    3.5615    1.3622   -0.0974 O   0  0  0  0  0  0  0  0  0  0  0  0
    2.0644    2.6269   -1.5764 O   0  0  0  0  0  0  0  0  0  0  0  0
    1.3043    0.4242   -1.1755 O   0  0  0  0  0  0  0  0  0  0  0  0
    0.7547    0.6209    0.1864 P   0  0  1  0  0  0  0  0  0  0  0  0
   -0.4365   -0.2482    0.3335 O   0  0  0  0  0  0  0  0  0  0  0  0
    1.7626    0.2349    1.2012 O   0  0  0  0  0  0  0  0  0  0  0  0
    0.3802    2.0460    0.3666 O   0  0  0  0  0  0  0  0  0  0  0  0
    1.1037    2.9499    1.2920 P   0  0  1  0  0  0  0  0  0  0  0  0
    1.2139    2.4572    2.6801 O   0  0  0  0  0  0  0  0  0  0  0  0
    2.3411    3.5494    0.7446 O   0  0  0  0  0  0  0  0  0  0  0  0
    0.0811    4.1945    1.4474 O   0  0  0  0  0  0  0  0  0  0  0  0
    0.3943    5.4952    0.9862 C   0  0  0  0  0  0  0  0  0  0  0  0
   -0.8569    6.3408    0.7112 C   0  0  1  0  0  0  0  0  0  0  0  0
   -0.6106    7.2540   -0.3384 O   0  0  0  0  0  0  0  0  0  0  0  0
   -2.0377    5.5347    0.1422 C   0  0  1  0  0  0  0  0  0  0  0  0
   -2.7581    4.7600    1.0861 O   0  0  0  0  0  0  0  0  0  0  0  0
   -2.9019    6.6015   -0.5295 C   0  0  1  0  0  0  0  0  0  0  0  0
   -3.8836    7.1247    0.3478 O   0  0  0  0  0  0  0  0  0  0  0  0
   -1.8704    7.6911   -0.8163 C   0  0  2  0  0  0  0  0  0  0  0  0
   -1.7876    8.1307   -2.2255 N   0  0  0  0  0  0  0  0  0  0  0  0
   -0.9008    8.9738   -2.8461 C   0  0  0  0  0  0  0  0  0  0  0  0
   -1.1865    9.2196   -4.0986 N   0  0  0  0  0  0  0  0  0  0  0  0
   -2.3323    8.4674   -4.3392 C   0  0  0  0  0  0  0  0  0  0  0  0
   -3.1455    8.3510   -5.5119 C   0  0  0  0  0  0  0  0  0  0  0  0
   -3.0145    8.9458   -6.5798 O   0  0  0  0  0  0  0  0  0  0  0  0
   -4.2062    7.4497   -5.3493 N   0  0  0  0  0  0  0  0  0  0  0  0
   -4.4262    6.7198   -4.1909 C   0  0  0  0  0  0  0  0  0  0  0  0
   -5.4095    5.8127   -4.1963 N   0  0  0  0  0  0  0  0  0  0  0  0
   -3.6898    6.8683   -3.0776 N   0  0  0  0  0  0  0  0  0  0  0  0
   -2.6672    7.7565   -3.2112 C   0  0  0  0  0  0  0  0  0  0  0  0
  1  2  2  0  0  0  0
  1  4  1  0  0  0  0
  1  3  1  0  0  0  0
  5  1  1  0  0  0  0
  6  7  2  1  0  0  0
  6  9  1  0  0  0  0
  6  5  1  0  0  0  0
  6  8  1  0  0  0  0
 10 11  2  1  0  0  0
 10 12  1  0  0  0  0
 10 13  1  0  0  0  0
 10  9  1  0  0  0  0
 13 14  1  0  0  0  0
 15 14  1  6  0  0  0
 15 16  1  0  0  0  0
 17 19  1  0  0  0  0
 17 15  1  0  0  0  0
 17 18  1  1  0  0  0
 19 21  1  0  0  0  0
 19 20  1  1  0  0  0
 21 16  1  0  0  0  0
 21 22  1  6  0  0  0
 22 32  1  0  0  0  0
 23 22  1  0  0  0  0
 23 24  2  0  0  0  0
 24 25  1  0  0  0  0
 25 26  1  0  0  0  0
 26 27  2  0  0  0  0
 26 28  1  0  0  0  0
 29 28  1  0  0  0  0
 29 30  1  0  0  0  0
 31 29  2  0  0  0  0
 32 25  2  0  0  0  0
 32 31  1  0  0  0  0
M  END
>  <CHROM.1>
154.36148530,-111.76977362,-176.99665385,-114.91402024,-53.89333049,156.64100435
-148.90009931,-175.55987504,166.82905683,-48.51526879,-0.55556443,4.50373376
-1.10727561,-0.45259153,0.93338675,-1.55729589

>  <Name>
lig.pdb

>  <RI>
1.17715e+07

>  <Rbt.Current_Directory>
/home/itssahil/PROJECTS/Mol_Feturizer/New_Systems/rnas/5lwj

>  <Rbt.Executable>
rbdock ($Id: //depot/dev/client3/rdock/2013.1/src/exe/rbdock.cxx#4 $)

>  <Rbt.Library>
libRbt.so (2013.1, Build901 2013/11/27)

>  <Rbt.Parameter_File>
/export/apps/rDock/src/rDock_2013.1_src/data/scripts/dock_solv.prm

>  <Rbt.Receptor>
prm/blind_docking_60.prm

>  <SCORE>
-37.5791

>  <SCORE.INTER>
-38.6805

>  <SCORE.INTER.CONST>
1

>  <SCORE.INTER.POLAR>
-2.74475

>  <SCORE.INTER.ROT>
8

>  <SCORE.INTER.SOLV>
22.3017

>  <SCORE.INTER.VDW>
-33.0051

>  <SCORE.INTER.norm>
-1.20877

>  <SCORE.INTRA>
1.10143

>  <SCORE.INTRA.DIHEDRAL>
3.60458

>  <SCORE.INTRA.DIHEDRAL.0>
10.9248

>  <SCORE.INTRA.POLAR>
0

>  <SCORE.INTRA.POLAR.0>
0

>  <SCORE.INTRA.REPUL>
0

>  <SCORE.INTRA.REPUL.0>
0

>  <SCORE.INTRA.SOLV>
0.833667

>  <SCORE.INTRA.SOLV.lig_0>
-51.4104

>  <SCORE.INTRA.VDW>
-1.11769

>  <SCORE.INTRA.VDW.0>
0.110327

>  <SCORE.INTRA.norm>
0.0344197

>  <SCORE.RESTR>
0

>  <SCORE.RESTR.CAVITY>
0

>  <SCORE.RESTR.norm>
0

>  <SCORE.SYSTEM>
0

>  <SCORE.SYSTEM.CONST>
0

>  <SCORE.SYSTEM.DIHEDRAL>
0

>  <SCORE.SYSTEM.SOLV>
0

>  <SCORE.SYSTEM.norm>
0

>  <SCORE.heavy>
32

>  <SCORE.norm>
-1.17435

>  <RMSD>
14.446

$$$$
lig.pdb
 OpenBabel11021811523D
libRbt.so/2013.1/901 2013/11/27
 32 34  0  0  0  0  0  0  0  0999 V2000
    2.9437   -0.6481   -1.5322 P   0  0  0  0  0  0  0  0  0  0  0  0
    2.7871   -0.7876   -3.0269 O   0  0  0  0  0  0  0  0  0  0  0  0
    1.4170   -0.7412   -0.9910 O   0  0  0  0  0  0  0  0  0  0  0  0
    3.6456   -1.7491   -0.7769 O   0  0  0  0  0  0  0  0  0  0  0  0
    3.7322    0.5503   -1.3207 O   0  0  0  0  0  0  0  0  0  0  0  0
    3.3749    1.1533   -0.0152 P   0  0  1  0  0  0  0  0  0  0  0  0
    3.3965    0.0826    1.0091 O   0  0  0  0  0  0  0  0  0  0  0  0
    4.3645    2.1929    0.3517 O   0  0  0  0  0  0  0  0  0  0  0  0
    2.0215    1.7565   -0.1038 O   0  0  0  0  0  0  0  0  0  0  0  0
    1.1087    1.8421    1.0609 P   0  0  1  0  0  0  0  0  0  0  0  0
    0.0095    0.8554    1.0609 O   0  0  0  0  0  0  0  0  0  0  0  0
    1.7754    2.0307    2.3686 O   0  0  0  0  0  0  0  0  0  0  0  0
    0.3242    3.2329    0.7981 O   0  0  0  0  0  0  0  0  0  0  0  0
    0.9860    4.4836    0.7735 C   0  0  0  0  0  0  0  0  0  0  0  0
    0.0354    5.6593    1.0390 C   0  0  1  0  0  0  0  0  0  0  0  0
   -0.0214    6.5082   -0.0891 O   0  0  0  0  0  0  0  0  0  0  0  0
   -1.4394    5.2444    1.1820 C   0  0  1  0  0  0  0  0  0  0  0  0
   -1.7921    4.6667    2.4279 O   0  0  0  0  0  0  0  0  0  0  0  0
   -2.1994    6.5390    0.8947 C   0  0  1  0  0  0  0  0  0  0  0  0
   -2.4554    7.2817    2.0737 O   0  0  0  0  0  0  0  0  0  0  0  0
   -1.1862    7.3032    0.0445 C   0  0  2  0  0  0  0  0  0  0  0  0
   -1.6794    7.7595   -1.2725 N   0  0  0  0  0  0  0  0  0  0  0  0
   -2.8576    7.4955   -1.9239 C   0  0  0  0  0  0  0  0  0  0  0  0
   -2.9212    7.9919   -3.1324 N   0  0  0  0  0  0  0  0  0  0  0  0
   -1.7086    8.6561   -3.2907 C   0  0  0  0  0  0  0  0  0  0  0  0
   -1.1684    9.3618   -4.4132 C   0  0  0  0  0  0  0  0  0  0  0  0
   -1.6700    9.4994   -5.5271 O   0  0  0  0  0  0  0  0  0  0  0  0
    0.0881    9.9227   -4.1480 N   0  0  0  0  0  0  0  0  0  0  0  0
    0.7264    9.8366   -2.9198 C   0  0  0  0  0  0  0  0  0  0  0  0
    1.8743   10.5045   -2.7595 N   0  0  0  0  0  0  0  0  0  0  0  0
    0.2380    9.1330   -1.8854 N   0  0  0  0  0  0  0  0  0  0  0  0
   -0.9730    8.5631   -2.1330 C   0  0  0  0  0  0  0  0  0  0  0  0
  1  2  2  0  0  0  0
  1  4  1  0  0  0  0
  1  3  1  0  0  0  0
  5  1  1  0  0  0  0
  6  7  2  1  0  0  0
  6  9  1  0  0  0  0
  6  5  1  0  0  0  0
  6  8  1  0  0  0  0
 10 11  2  1  0  0  0
 10 12  1  0  0  0  0
 10 13  1  0  0  0  0
 10  9  1  0  0  0  0
 13 14  1  0  0  0  0
 15 14  1  6  0  0  0
 15 16  1  0  0  0  0
 17 19  1  0  0  0  0
 17 15  1  0  0  0  0
 17 18  1  1  0  0  0
 19 21  1  0  0  0  0
 19 20  1  1  0  0  0
 21 16  1  0  0  0  0
 21 22  1  6  0  0  0
 22 32  1  0  0  0  0
 23 22  1  0  0  0  0
 23 24  2  0  0  0  0
 24 25  1  0  0  0  0
 25 26  1  0  0  0  0
 26 27  2  0  0  0  0
 26 28  1  0  0  0  0
 29 28  1  0  0  0  0
 29 30  1  0  0  0  0
 31 29  2  0  0  0  0
 32 25  2  0  0  0  0
 32 31  1  0  0  0  0
M  END
>  <CHROM.1>
151.05323608,149.55608976,48.60245792,-63.40586033,-103.69739326,-158.33308209
-116.96768389,150.47588355,36.83270308,116.61468593,0.68276331,4.31050349
-0.69191218,-0.89087208,0.89604177,-0.80408113

>  <Name>
lig.pdb

>  <RI>
4.14043e+07

>  <Rbt.Current_Directory>
/home/itssahil/PROJECTS/Mol_Feturizer/New_Systems/rnas/5lwj

>  <Rbt.Executable>
rbdock ($Id: //depot/dev/client3/rdock/2013.1/src/exe/rbdock.cxx#4 $)

>  <Rbt.Library>
libRbt.so (2013.1, Build901 2013/11/27)

>  <Rbt.Parameter_File>
/export/apps/rDock/src/rDock_2013.1_src/data/scripts/dock_solv.prm

>  <Rbt.Receptor>
prm/blind_docking_80.prm

>  <SCORE>
-9.01937

>  <SCORE.INTER>
-13.1554

>  <SCORE.INTER.CONST>
1

>  <SCORE.INTER.POLAR>
-2.19496

>  <SCORE.INTER.ROT>
8

>  <SCORE.INTER.SOLV>
22.3645

>  <SCORE.INTER.VDW>
-17.8419

>  <SCORE.INTER.norm>
-0.411107

>  <SCORE.INTRA>
2.67801

>  <SCORE.INTRA.DIHEDRAL>
8.45577

>  <SCORE.INTRA.DIHEDRAL.0>
10.9248

>  <SCORE.INTRA.POLAR>
0

>  <SCORE.INTRA.POLAR.0>
0

>  <SCORE.INTRA.REPUL>
0.000315582

>  <SCORE.INTRA.REPUL.0>
0

>  <SCORE.INTRA.SOLV>
0.720453

>  <SCORE.INTRA.SOLV.lig_0>
-51.4104

>  <SCORE.INTRA.VDW>
-1.91167

>  <SCORE.INTRA.VDW.0>
0.110327

>  <SCORE.INTRA.norm>
0.0836879

>  <SCORE.RESTR>
1.45806

>  <SCORE.RESTR.CAVITY>
1.45806

>  <SCORE.RESTR.norm>
0.0455642

>  <SCORE.SYSTEM>
0

>  <SCORE.SYSTEM.CONST>
0

>  <SCORE.SYSTEM.DIHEDRAL>
0

>  <SCORE.SYSTEM.SOLV>
0

>  <SCORE.SYSTEM.norm>
0

>  <SCORE.heavy>
32

>  <SCORE.norm>
-0.281855

>  <RMSD>
14.448

$$$$
lig.pdb
 OpenBabel11021811523D
libRbt.so/2013.1/901 2013/11/27
 32 34  0  0  0  0  0  0  0  0999 V2000
   -1.9196    8.6021   -3.0117 P   0  0  0  0  0  0  0  0  0  0  0  0
   -3.0274    7.7890   -3.6357 O   0  0  0  0  0  0  0  0  0  0  0  0
   -0.5909    8.0549   -3.7652 O   0  0  0  0  0  0  0  0  0  0  0  0
   -1.8801   10.0865   -3.2767 O   0  0  0  0  0  0  0  0  0  0  0  0
   -2.0710    8.4537   -1.5772 O   0  0  0  0  0  0  0  0  0  0  0  0
   -1.7235    7.0680   -1.1840 P   0  0  1  0  0  0  0  0  0  0  0  0
   -2.6664    6.1461   -1.8601 O   0  0  0  0  0  0  0  0  0  0  0  0
   -0.3428    6.7488   -1.6157 O   0  0  0  0  0  0  0  0  0  0  0  0
   -1.8338    6.9306    0.2899 O   0  0  0  0  0  0  0  0  0  0  0  0
   -2.6315    5.8599    0.9336 P   0  0  1  0  0  0  0  0  0  0  0  0
   -2.8865    6.0581    2.3749 O   0  0  0  0  0  0  0  0  0  0  0  0
   -3.7990    5.3917    0.1540 O   0  0  0  0  0  0  0  0  0  0  0  0
   -1.6101    4.6046    0.9330 O   0  0  0  0  0  0  0  0  0  0  0  0
   -0.2087    4.7676    0.8235 C   0  0  0  0  0  0  0  0  0  0  0  0
    0.5720    3.6300    1.4963 C   0  0  1  0  0  0  0  0  0  0  0  0
    0.0966    2.3771    1.0482 O   0  0  0  0  0  0  0  0  0  0  0  0
    2.0513    3.5611    1.0785 C   0  0  1  0  0  0  0  0  0  0  0  0
    2.9022    4.5172    1.6884 O   0  0  0  0  0  0  0  0  0  0  0  0
    2.4451    2.1221    1.4113 C   0  0  1  0  0  0  0  0  0  0  0  0
    2.9704    2.0009    2.7214 O   0  0  0  0  0  0  0  0  0  0  0  0
    1.0909    1.4174    1.3591 C   0  0  2  0  0  0  0  0  0  0  0  0
    1.0165    0.2530    0.4510 N   0  0  0  0  0  0  0  0  0  0  0  0
    0.3239   -0.9257    0.5669 C   0  0  0  0  0  0  0  0  0  0  0  0
    0.5689   -1.7839   -0.3892 N   0  0  0  0  0  0  0  0  0  0  0  0
    1.4710   -1.1219   -1.2166 C   0  0  0  0  0  0  0  0  0  0  0  0
    2.1412   -1.5550   -2.4054 C   0  0  0  0  0  0  0  0  0  0  0  0
    2.0840   -2.6603   -2.9405 O   0  0  0  0  0  0  0  0  0  0  0  0
    2.9537   -0.5590   -2.9637 N   0  0  0  0  0  0  0  0  0  0  0  0
    3.0699    0.7214   -2.4439 C   0  0  0  0  0  0  0  0  0  0  0  0
    3.7938    1.6146   -3.1279 N   0  0  0  0  0  0  0  0  0  0  0  0
    2.4773    1.1078   -1.3022 N   0  0  0  0  0  0  0  0  0  0  0  0
    1.7006    0.1449   -0.7346 C   0  0  0  0  0  0  0  0  0  0  0  0
  1  2  2  0  0  0  0
  1  4  1  0  0  0  0
  1  3  1  0  0  0  0
  5  1  1  0  0  0  0
  6  7  2  6  0  0  0
  6  9  1  0  0  0  0
  6  5  1  0  0  0  0
  6  8  1  0  0  0  0
 10 11  2  1  0  0  0
 10 12  1  0  0  0  0
 10 13  1  0  0  0  0
 10  9  1  0  0  0  0
 13 14  1  0  0  0  0
 15 14  1  6  0  0  0
 15 16  1  0  0  0  0
 17 19  1  0  0  0  0
 17 15  1  0  0  0  0
 17 18  1  1  0  0  0
 19 21  1  0  0  0  0
 19 20  1  1  0  0  0
 21 16  1  0  0  0  0
 21 22  1  6  0  0  0
 22 32  1  0  0  0  0
 23 22  1  0  0  0  0
 23 24  2  0  0  0  0
 24 25  1  0  0  0  0
 25 26  1  0  0  0  0
 26 27  2  0  0  0  0
 26 28  1  0  0  0  0
 29 28  1  0  0  0  0
 29 30  1  0  0  0  0
 31 29  2  0  0  0  0
 32 25  2  0  0  0  0
 32 31  1  0  0  0  0
M  END
>  <CHROM.1>
69.67926562,127.65622006,-61.66414516,21.19793747,-166.35310485,152.23374630
51.05965515,-69.40481391,-56.25589238,-90.81103277,-0.08690668,4.01348947
-0.68331517,-2.73933867,-1.03349322,1.92893290

>  <Name>
lig.pdb

>  <RI>
3.17878e+07

>  <Rbt.Current_Directory>
/home/itssahil/PROJECTS/Mol_Feturizer/New_Systems/rnas/5lwj

>  <Rbt.Executable>
rbdock ($Id: //depot/dev/client3/rdock/2013.1/src/exe/rbdock.cxx#4 $)

>  <Rbt.Library>
libRbt.so (2013.1, Build901 2013/11/27)

>  <Rbt.Parameter_File>
/export/apps/rDock/src/rDock_2013.1_src/data/scripts/dock_solv.prm

>  <Rbt.Receptor>
prm/blind_docking_100.prm

>  <SCORE>
-14.3226

>  <SCORE.INTER>
-14.633

>  <SCORE.INTER.CONST>
1

>  <SCORE.INTER.POLAR>
-2.97002

>  <SCORE.INTER.ROT>
8

>  <SCORE.INTER.SOLV>
27.2809

>  <SCORE.INTER.VDW>
-17.8822

>  <SCORE.INTER.norm>
-0.45728

>  <SCORE.INTRA>
-0.125125

>  <SCORE.INTRA.DIHEDRAL>
0.736518

>  <SCORE.INTRA.DIHEDRAL.0>
10.9248

>  <SCORE.INTRA.POLAR>
-0.0122611

>  <SCORE.INTRA.POLAR.0>
0

>  <SCORE.INTRA.REPUL>
0

>  <SCORE.INTRA.REPUL.0>
0

>  <SCORE.INTRA.SOLV>
-0.155838

>  <SCORE.INTRA.SOLV.lig_0>
-51.4104

>  <SCORE.INTRA.VDW>
-0.373778

>  <SCORE.INTRA.VDW.0>
0.110327

>  <SCORE.INTRA.norm>
-0.00391017

>  <SCORE.RESTR>
0.435512

>  <SCORE.RESTR.CAVITY>
0.435512

>  <SCORE.RESTR.norm>
0.0136097

>  <SCORE.SYSTEM>
0

>  <SCORE.SYSTEM.CONST>
0

>  <SCORE.SYSTEM.DIHEDRAL>
0

>  <SCORE.SYSTEM.SOLV>
0

>  <SCORE.SYSTEM.norm>
0

>  <SCORE.heavy>
32

>  <SCORE.norm>
-0.447581

>  <RMSD>
14.463

$$$$
lig.pdb
 OpenBabel11021811523D
libRbt.so/2013.1/901 2013/11/27
 32 34  0  0  0  0  0  0  0  0999 V2000
    3.0874   -0.4497   -1.7800 P   0  0  0  0  0  0  0  0  0  0  0  0
    2.0996   -1.5427   -1.4516 O   0  0  0  0  0  0  0  0  0  0  0  0
    4.4971   -1.2460   -1.8854 O   0  0  0  0  0  0  0  0  0  0  0  0
    2.9792    0.2394   -3.1174 O   0  0  0  0  0  0  0  0  0  0  0  0
    2.8930    0.5817   -0.7794 O   0  0  0  0  0  0  0  0  0  0  0  0
    3.7927    0.3306    0.3709 P   0  0  1  0  0  0  0  0  0  0  0  0
    3.6536   -1.0915    0.7639 O   0  0  0  0  0  0  0  0  0  0  0  0
    5.1986    0.5889   -0.0183 O   0  0  0  0  0  0  0  0  0  0  0  0
    3.4120    1.2180    1.4984 O   0  0  0  0  0  0  0  0  0  0  0  0
    2.0080    1.6115    1.7646 P   0  0  1  0  0  0  0  0  0  0  0  0
    1.0021    0.9205    0.9325 O   0  0  0  0  0  0  0  0  0  0  0  0
    1.6517    1.7368    3.1955 O   0  0  0  0  0  0  0  0  0  0  0  0
    1.9473    3.1248    1.1946 O   0  0  0  0  0  0  0  0  0  0  0  0
    0.7377    3.8543    1.1081 C   0  0  0  0  0  0  0  0  0  0  0  0
    0.8609    5.0970    0.2154 C   0  0  1  0  0  0  0  0  0  0  0  0
   -0.1711    5.1118   -0.7495 O   0  0  0  0  0  0  0  0  0  0  0  0
    0.6035    6.4209    0.9563 C   0  0  1  0  0  0  0  0  0  0  0  0
    1.6720    6.8849    1.7645 O   0  0  0  0  0  0  0  0  0  0  0  0
    0.2493    7.3920   -0.1696 C   0  0  1  0  0  0  0  0  0  0  0  0
    1.3882    8.0719   -0.6674 O   0  0  0  0  0  0  0  0  0  0  0  0
   -0.2598    6.4354   -1.2462 C   0  0  2  0  0  0  0  0  0  0  0  0
   -1.6142    6.7257   -1.7634 N   0  0  0  0  0  0  0  0  0  0  0  0
   -2.0207    7.1845   -2.9908 C   0  0  0  0  0  0  0  0  0  0  0  0
   -3.3039    7.4246   -3.0717 N   0  0  0  0  0  0  0  0  0  0  0  0
   -3.7939    7.0779   -1.8161 C   0  0  0  0  0  0  0  0  0  0  0  0
   -5.1167    7.1564   -1.2741 C   0  0  0  0  0  0  0  0  0  0  0  0
   -6.1265    7.6003   -1.8168 O   0  0  0  0  0  0  0  0  0  0  0  0
   -5.1955    6.6689    0.0374 N   0  0  0  0  0  0  0  0  0  0  0  0
   -4.1175    6.1334    0.7262 C   0  0  0  0  0  0  0  0  0  0  0  0
   -4.3433    5.6034    1.9336 N   0  0  0  0  0  0  0  0  0  0  0  0
   -2.8692    6.1063    0.2314 N   0  0  0  0  0  0  0  0  0  0  0  0
   -2.7706    6.5961   -1.0346 C   0  0  0  0  0  0  0  0  0  0  0  0
  1  2  2  0  0  0  0
  1  4  1  0  0  0  0
  1  3  1  0  0  0  0
  5  1  1  0  0  0  0
  6  7  2  1  0  0  0
  6  9  1  0  0  0  0
  6  5  1  0  0  0  0
  6  8  1  0  0  0  0
 10 11  2  6  0  0  0
 10 12  1  0  0  0  0
 10 13  1  0  0  0  0
 10  9  1  0  0  0  0
 13 14  1  0  0  0  0
 15 14  1  1  0  0  0
 15 16  1  0  0  0  0
 17 19  1  0  0  0  0
 17 15  1  0  0  0  0
 17 18  1  6  0  0  0
 19 21  1  0  0  0  0
 19 20  1  6  0  0  0
 21 16  1  0  0  0  0
 21 22  1  1  0  0  0
 22 32  1  0  0  0  0
 23 22  1  0  0  0  0
 23 24  2  0  0  0  0
 24 25  1  0  0  0  0
 25 26  1  0  0  0  0
 26 27  2  0  0  0  0
 26 28  1  0  0  0  0
 29 28  1  0  0  0  0
 29 30  1  0  0  0  0
 31 29  2  0  0  0  0
 32 25  2  0  0  0  0
 32 31  1  0  0  0  0
M  END
>  <CHROM.1>
90.83759372,33.92115988,-48.72436172,172.91773042,7.40136523,-165.00819830
128.41782808,-62.27914367,175.52178151,-125.24041774,0.48398079,3.56552988
-0.20245285,0.43097505,0.71341111,-2.26843662

>  <Name>
lig.pdb

>  <RI>
1.17715e+07

>  <Rbt.Current_Directory>
/home/itssahil/PROJECTS/Mol_Feturizer/New_Systems/rnas/5lwj

>  <Rbt.Executable>
rbdock ($Id: //depot/dev/client3/rdock/2013.1/src/exe/rbdock.cxx#4 $)

>  <Rbt.Library>
libRbt.so (2013.1, Build901 2013/11/27)

>  <Rbt.Parameter_File>
/export/apps/rDock/src/rDock_2013.1_src/data/scripts/dock_solv.prm

>  <Rbt.Receptor>
prm/blind_docking_60.prm

>  <SCORE>
7.47868

>  <SCORE.INTER>
7.84697

>  <SCORE.INTER.CONST>
1

>  <SCORE.INTER.POLAR>
-1.25386

>  <SCORE.INTER.ROT>
8

>  <SCORE.INTER.SOLV>
26.5846

>  <SCORE.INTER.VDW>
-8.38402

>  <SCORE.INTER.norm>
0.245218

>  <SCORE.INTRA>
-1.21204

>  <SCORE.INTRA.DIHEDRAL>
2.40168

>  <SCORE.INTRA.DIHEDRAL.0>
10.9248

>  <SCORE.INTRA.POLAR>
0

>  <SCORE.INTRA.POLAR.0>
0

>  <SCORE.INTRA.REPUL>
0

>  <SCORE.INTRA.REPUL.0>
0

>  <SCORE.INTRA.SOLV>
0.7686

>  <SCORE.INTRA.SOLV.lig_0>
-51.4104

>  <SCORE.INTRA.VDW>
-2.79718

>  <SCORE.INTRA.VDW.0>
0.110327

>  <SCORE.INTRA.norm>
-0.0378764

>  <SCORE.RESTR>
0.843751

>  <SCORE.RESTR.CAVITY>
0.843751

>  <SCORE.RESTR.norm>
0.0263672

>  <SCORE.SYSTEM>
0

>  <SCORE.SYSTEM.CONST>
0

>  <SCORE.SYSTEM.DIHEDRAL>
0

>  <SCORE.SYSTEM.SOLV>
0

>  <SCORE.SYSTEM.norm>
0

>  <SCORE.heavy>
32

>  <SCORE.norm>
0.233709

>  <RMSD>
14.473

$$$$
lig.pdb
 OpenBabel11021811523D
libRbt.so/2013.1/901 2013/11/27
 32 34  0  0  0  0  0  0  0  0999 V2000
   -2.2780    9.1210   -2.8620 P   0  0  0  0  0  0  0  0  0  0  0  0
   -1.2189   10.1743   -3.0783 O   0  0  0  0  0  0  0  0  0  0  0  0
   -3.6214    9.9951   -2.6094 O   0  0  0  0  0  0  0  0  0  0  0  0
   -2.6567    8.2332   -4.0212 O   0  0  0  0  0  0  0  0  0  0  0  0
   -1.7639    8.2396   -1.8318 O   0  0  0  0  0  0  0  0  0  0  0  0
   -0.4034    7.7851   -2.2035 P   0  0  1  0  0  0  0  0  0  0  0  0
   -0.4089    7.4430   -3.6453 O   0  0  0  0  0  0  0  0  0  0  0  0
    0.5765    8.8710   -1.9683 O   0  0  0  0  0  0  0  0  0  0  0  0
   -0.0409    6.5964   -1.3917 O   0  0  0  0  0  0  0  0  0  0  0  0
   -0.0113    6.6214    0.0900 P   0  0  1  0  0  0  0  0  0  0  0  0
    1.2703    7.0629    0.6770 O   0  0  0  0  0  0  0  0  0  0  0  0
   -1.2179    7.1881    0.7327 O   0  0  0  0  0  0  0  0  0  0  0  0
   -0.0439    5.0497    0.4742 O   0  0  0  0  0  0  0  0  0  0  0  0
    1.0511    4.1869    0.2308 C   0  0  0  0  0  0  0  0  0  0  0  0
    1.0252    2.9356    1.1196 C   0  0  1  0  0  0  0  0  0  0  0  0
    0.3341    1.8877    0.4711 O   0  0  0  0  0  0  0  0  0  0  0  0
    2.4095    2.2993    1.3354 C   0  0  1  0  0  0  0  0  0  0  0  0
    3.2440    2.9585    2.2730 O   0  0  0  0  0  0  0  0  0  0  0  0
    2.0781    0.8647    1.7456 C   0  0  1  0  0  0  0  0  0  0  0  0
    1.9658    0.7226    3.1507 O   0  0  0  0  0  0  0  0  0  0  0  0
    0.6952    0.6829    1.1227 C   0  0  2  0  0  0  0  0  0  0  0  0
    0.5542   -0.4794    0.2198 N   0  0  0  0  0  0  0  0  0  0  0  0
   -0.3629   -1.4998    0.2162 C   0  0  0  0  0  0  0  0  0  0  0  0
   -0.1280   -2.4243   -0.6787 N   0  0  0  0  0  0  0  0  0  0  0  0
    1.0138   -1.9773   -1.3367 C   0  0  0  0  0  0  0  0  0  0  0  0
    1.7819   -2.5743   -2.3873 C   0  0  0  0  0  0  0  0  0  0  0  0
    1.6047   -3.6679   -2.9201 O   0  0  0  0  0  0  0  0  0  0  0  0
    2.8556   -1.7724   -2.7974 N   0  0  0  0  0  0  0  0  0  0  0  0
    3.1263   -0.5188   -2.2699 C   0  0  0  0  0  0  0  0  0  0  0  0
    4.1161    0.1942   -2.8190 N   0  0  0  0  0  0  0  0  0  0  0  0
    2.4323    0.0157   -1.2518 N   0  0  0  0  0  0  0  0  0  0  0  0
    1.3980   -0.7600   -0.8264 C   0  0  0  0  0  0  0  0  0  0  0  0
  1  2  2  0  0  0  0
  1  4  1  0  0  0  0
  1  3  1  0  0  0  0
  5  1  1  0  0  0  0
  6  7  2  6  0  0  0
  6  9  1  0  0  0  0
  6  5  1  0  0  0  0
  6  8  1  0  0  0  0
 10 11  2  1  0  0  0
 10 12  1  0  0  0  0
 10 13  1  0  0  0  0
 10  9  1  0  0  0  0
 13 14  1  0  0  0  0
 15 14  1  6  0  0  0
 15 16  1  0  0  0  0
 17 19  1  0  0  0  0
 17 15  1  0  0  0  0
 17 18  1  1  0  0  0
 19 21  1  0  0  0  0
 19 20  1  1  0  0  0
 21 16  1  0  0  0  0
 21 22  1  6  0  0  0
 22 32  1  0  0  0  0
 23 22  1  0  0  0  0
 23 24  2  0  0  0  0
 24 25  1  0  0  0  0
 25 26  1  0  0  0  0
 26 27  2  0  0  0  0
 26 28  1  0  0  0  0
 29 28  1  0  0  0  0
 29 30  1  0  0  0  0
 31 29  2  0  0  0  0
 32 25  2  0  0  0  0
 32 31  1  0  0  0  0
M  END
>  <CHROM.1>
-51.90979973,-58.39951396,-42.89465079,69.76688199,-87.30325174,158.15728152
91.27605162,-60.88352713,161.26995123,-108.50634267,0.42153703,3.88758554
-0.93730385,2.52331543,-1.18569784,0.76734712

>  <Name>
lig.pdb

>  <RI>
3.17878e+07

>  <Rbt.Current_Directory>
/home/itssahil/PROJECTS/Mol_Feturizer/New_Systems/rnas/5lwj

>  <Rbt.Executable>
rbdock ($Id: //depot/dev/client3/rdock/2013.1/src/exe/rbdock.cxx#4 $)

>  <Rbt.Library>
libRbt.so (2013.1, Build901 2013/11/27)

>  <Rbt.Parameter_File>
/export/apps/rDock/src/rDock_2013.1_src/data/scripts/dock_solv.prm

>  <Rbt.Receptor>
prm/blind_docking_100.prm

>  <SCORE>
20.3125

>  <SCORE.INTER>
19.467

>  <SCORE.INTER.CONST>
1

>  <SCORE.INTER.POLAR>
-0.35166

>  <SCORE.INTER.ROT>
8

>  <SCORE.INTER.SOLV>
28.6266

>  <SCORE.INTER.VDW>
-4.32533

>  <SCORE.INTER.norm>
0.608344

>  <SCORE.INTRA>
-0.266071

>  <SCORE.INTRA.DIHEDRAL>
-0.484757

>  <SCORE.INTRA.DIHEDRAL.0>
10.9248

>  <SCORE.INTRA.POLAR>
0

>  <SCORE.INTRA.POLAR.0>
0

>  <SCORE.INTRA.REPUL>
0

>  <SCORE.INTRA.REPUL.0>
0

>  <SCORE.INTRA.SOLV>
-0.291921

>  <SCORE.INTRA.SOLV.lig_0>
-51.4104

>  <SCORE.INTRA.VDW>
0.122267

>  <SCORE.INTRA.VDW.0>
0.110327

>  <SCORE.INTRA.norm>
-0.00831473

>  <SCORE.RESTR>
1.11154

>  <SCORE.RESTR.CAVITY>
1.11154

>  <SCORE.RESTR.norm>
0.0347357

>  <SCORE.SYSTEM>
0

>  <SCORE.SYSTEM.CONST>
0

>  <SCORE.SYSTEM.DIHEDRAL>
0

>  <SCORE.SYSTEM.SOLV>
0

>  <SCORE.SYSTEM.norm>
0

>  <SCORE.heavy>
32

>  <SCORE.norm>
0.634765

>  <RMSD>
14.478

$$$$
lig.pdb
 OpenBabel11021811523D
libRbt.so/2013.1/901 2013/11/27
 32 34  0  0  0  0  0  0  0  0999 V2000
    2.6694   -0.7690   -1.2508 P   0  0  0  0  0  0  0  0  0  0  0  0
    3.2221   -1.9563   -0.5006 O   0  0  0  0  0  0  0  0  0  0  0  0
    2.4797   -1.3404   -2.7575 O   0  0  0  0  0  0  0  0  0  0  0  0
    1.2909   -0.2712   -0.8942 O   0  0  0  0  0  0  0  0  0  0  0  0
    3.5754    0.3316   -0.9853 O   0  0  0  0  0  0  0  0  0  0  0  0
    3.1835    1.5032   -1.8033 P   0  0  1  0  0  0  0  0  0  0  0  0
    4.3381    2.4300   -1.8654 O   0  0  0  0  0  0  0  0  0  0  0  0
    2.8372    1.0702   -3.1771 O   0  0  0  0  0  0  0  0  0  0  0  0
    2.0158    2.1735   -1.1782 O   0  0  0  0  0  0  0  0  0  0  0  0
    1.9320    2.4352    0.2783 P   0  0  1  0  0  0  0  0  0  0  0  0
    1.0454    1.5180    1.0230 O   0  0  0  0  0  0  0  0  0  0  0  0
    3.2238    2.7251    0.9396 O   0  0  0  0  0  0  0  0  0  0  0  0
    1.1172    3.8319    0.3437 O   0  0  0  0  0  0  0  0  0  0  0  0
    0.3915    4.2332    1.4904 C   0  0  0  0  0  0  0  0  0  0  0  0
   -0.4387    5.5017    1.2491 C   0  0  1  0  0  0  0  0  0  0  0  0
    0.3016    6.4351    0.4894 O   0  0  0  0  0  0  0  0  0  0  0  0
   -1.6644    5.2783    0.3460 C   0  0  1  0  0  0  0  0  0  0  0  0
   -2.7765    4.6587    0.9699 O   0  0  0  0  0  0  0  0  0  0  0  0
   -1.9824    6.6814   -0.1703 C   0  0  1  0  0  0  0  0  0  0  0  0
   -2.9107    7.3584    0.6585 O   0  0  0  0  0  0  0  0  0  0  0  0
   -0.6228    7.3662   -0.0445 C   0  0  2  0  0  0  0  0  0  0  0  0
   -0.1071    7.9847   -1.2845 N   0  0  0  0  0  0  0  0  0  0  0  0
    1.1142    8.5456   -1.5602 C   0  0  0  0  0  0  0  0  0  0  0  0
    1.1942    9.0920   -2.7459 N   0  0  0  0  0  0  0  0  0  0  0  0
   -0.0552    8.8580   -3.3124 C   0  0  0  0  0  0  0  0  0  0  0  0
   -0.5956    9.2489   -4.5793 C   0  0  0  0  0  0  0  0  0  0  0  0
   -0.0575    9.9327   -5.4476 O   0  0  0  0  0  0  0  0  0  0  0  0
   -1.8997    8.7773   -4.7817 N   0  0  0  0  0  0  0  0  0  0  0  0
   -2.5827    7.9859   -3.8705 C   0  0  0  0  0  0  0  0  0  0  0  0
   -3.7817    7.5104   -4.2252 N   0  0  0  0  0  0  0  0  0  0  0  0
   -2.0902    7.6624   -2.6636 N   0  0  0  0  0  0  0  0  0  0  0  0
   -0.8316    8.1308   -2.4416 C   0  0  0  0  0  0  0  0  0  0  0  0
  1  2  2  0  0  0  0
  1  4  1  0  0  0  0
  1  3  1  0  0  0  0
  5  1  1  0  0  0  0
  6  7  2  6  0  0  0
  6  9  1  0  0  0  0
  6  5  1  0  0  0  0
  6  8  1  0  0  0  0
 10 11  2  1  0  0  0
 10 12  1  0  0  0  0
 10 13  1  0  0  0  0
 10  9  1  0  0  0  0
 13 14  1  0  0  0  0
 15 14  1  6  0  0  0
 15 16  1  0  0  0  0
 17 19  1  0  0  0  0
 17 15  1  0  0  0  0
 17 18  1  1  0  0  0
 19 21  1  0  0  0  0
 19 20  1  1  0  0  0
 21 16  1  0  0  0  0
 21 22  1  6  0  0  0
 22 32  1  0  0  0  0
 23 22  1  0  0  0  0
 23 24  2  0  0  0  0
 24 25  1  0  0  0  0
 25 26  1  0  0  0  0
 26 27  2  0  0  0  0
 26 28  1  0  0  0  0
 29 28  1  0  0  0  0
 29 30  1  0  0  0  0
 31 29  2  0  0  0  0
 32 25  2  0  0  0  0
 32 31  1  0  0  0  0
M  END
>  <CHROM.1>
174.01873613,44.50372173,-161.58359703,156.83143566,-103.46676521,-172.69172401
-41.31037674,64.33357115,-165.93235847,-48.10287986,0.68444390,4.30975559
-1.28800758,-0.74678935,0.91629524,-0.91190656

>  <Name>
lig.pdb

>  <RI>
3.17878e+07

>  <Rbt.Current_Directory>
/home/itssahil/PROJECTS/Mol_Feturizer/New_Systems/rnas/5lwj

>  <Rbt.Executable>
rbdock ($Id: //depot/dev/client3/rdock/2013.1/src/exe/rbdock.cxx#4 $)

>  <Rbt.Library>
libRbt.so (2013.1, Build901 2013/11/27)

>  <Rbt.Parameter_File>
/export/apps/rDock/src/rDock_2013.1_src/data/scripts/dock_solv.prm

>  <Rbt.Receptor>
prm/blind_docking_100.prm

>  <SCORE>
-18.9765

>  <SCORE.INTER>
-18.8824

>  <SCORE.INTER.CONST>
1

>  <SCORE.INTER.POLAR>
-0.92688

>  <SCORE.INTER.ROT>
8

>  <SCORE.INTER.SOLV>
20.9666

>  <SCORE.INTER.VDW>
-25.4209

>  <SCORE.INTER.norm>
-0.590076

>  <SCORE.INTRA>
-1.83532

>  <SCORE.INTRA.DIHEDRAL>
-2.65037

>  <SCORE.INTRA.DIHEDRAL.0>
10.9248

>  <SCORE.INTRA.POLAR>
-0.0214001

>  <SCORE.INTRA.POLAR.0>
0

>  <SCORE.INTRA.REPUL>
0

>  <SCORE.INTRA.REPUL.0>
0

>  <SCORE.INTRA.SOLV>
0.827326

>  <SCORE.INTRA.SOLV.lig_0>
-51.4104

>  <SCORE.INTRA.VDW>
-0.851041

>  <SCORE.INTRA.VDW.0>
0.110327

>  <SCORE.INTRA.norm>
-0.0573538

>  <SCORE.RESTR>
1.7413

>  <SCORE.RESTR.CAVITY>
1.7413

>  <SCORE.RESTR.norm>
0.0544156

>  <SCORE.SYSTEM>
0

>  <SCORE.SYSTEM.CONST>
0

>  <SCORE.SYSTEM.DIHEDRAL>
0

>  <SCORE.SYSTEM.SOLV>
0

>  <SCORE.SYSTEM.norm>
0

>  <SCORE.heavy>
32

>  <SCORE.norm>
-0.593014

>  <RMSD>
14.485

$$$$
lig.pdb
 OpenBabel11021811523D
libRbt.so/2013.1/901 2013/11/27
 32 34  0  0  0  0  0  0  0  0999 V2000
    0.4538   -0.7447    0.4630 P   0  0  0  0  0  0  0  0  0  0  0  0
    0.7556   -1.6748   -0.6867 O   0  0  0  0  0  0  0  0  0  0  0  0
   -0.7943    0.1323   -0.0897 O   0  0  0  0  0  0  0  0  0  0  0  0
   -0.0796   -1.3350    1.7445 O   0  0  0  0  0  0  0  0  0  0  0  0
    1.7110   -0.1087    0.8061 O   0  0  0  0  0  0  0  0  0  0  0  0
    1.9721    1.0084   -0.1317 P   0  0  1  0  0  0  0  0  0  0  0  0
    3.3770    1.4439    0.0488 O   0  0  0  0  0  0  0  0  0  0  0  0
    1.7833    0.5531   -1.5288 O   0  0  0  0  0  0  0  0  0  0  0  0
    1.0423    2.1276    0.1623 O   0  0  0  0  0  0  0  0  0  0  0  0
    1.3034    3.1217    1.2302 P   0  0  1  0  0  0  0  0  0  0  0  0
    0.2924    3.1554    2.3065 O   0  0  0  0  0  0  0  0  0  0  0  0
    2.7073    3.1920    1.6930 O   0  0  0  0  0  0  0  0  0  0  0  0
    1.0513    4.5308    0.4754 O   0  0  0  0  0  0  0  0  0  0  0  0
    0.9545    5.7580    1.1734 C   0  0  0  0  0  0  0  0  0  0  0  0
   -0.3155    6.5421    0.8148 C   0  0  1  0  0  0  0  0  0  0  0  0
   -0.0287    7.5180   -0.1659 O   0  0  0  0  0  0  0  0  0  0  0  0
   -1.3848    5.6976    0.0998 C   0  0  1  0  0  0  0  0  0  0  0  0
   -2.1413    4.8375    0.9353 O   0  0  0  0  0  0  0  0  0  0  0  0
   -2.2466    6.7439   -0.6063 C   0  0  1  0  0  0  0  0  0  0  0  0
   -3.3374    7.1661    0.1932 O   0  0  0  0  0  0  0  0  0  0  0  0
   -1.2626    7.9041   -0.7447 C   0  0  2  0  0  0  0  0  0  0  0  0
   -1.0748    8.4158   -2.1190 N   0  0  0  0  0  0  0  0  0  0  0  0
    0.0636    8.5500   -2.8730 C   0  0  0  0  0  0  0  0  0  0  0  0
   -0.1270    9.1375   -4.0259 N   0  0  0  0  0  0  0  0  0  0  0  0
   -1.4949    9.3920   -4.0551 C   0  0  0  0  0  0  0  0  0  0  0  0
   -2.3026   10.0517   -5.0361 C   0  0  0  0  0  0  0  0  0  0  0  0
   -1.9322   10.5847   -6.0801 O   0  0  0  0  0  0  0  0  0  0  0  0
   -3.6620   10.0707   -4.6958 N   0  0  0  0  0  0  0  0  0  0  0  0
   -4.1777    9.4825   -3.5508 C   0  0  0  0  0  0  0  0  0  0  0  0
   -5.5059    9.4753   -3.3911 N   0  0  0  0  0  0  0  0  0  0  0  0
   -3.4104    8.9074   -2.6104 N   0  0  0  0  0  0  0  0  0  0  0  0
   -2.0839    8.8992   -2.9149 C   0  0  0  0  0  0  0  0  0  0  0  0
  1  2  2  0  0  0  0
  1  4  1  0  0  0  0
  1  3  1  0  0  0  0
  5  1  1  0  0  0  0
  6  7  2  1  0  0  0
  6  9  1  0  0  0  0
  6  5  1  0  0  0  0
  6  8  1  0  0  0  0
 10 11  2  1  0  0  0
 10 12  1  0  0  0  0
 10 13  1  0  0  0  0
 10  9  1  0  0  0  0
 13 14  1  0  0  0  0
 15 14  1  6  0  0  0
 15 16  1  0  0  0  0
 17 19  1  0  0  0  0
 17 15  1  0  0  0  0
 17 18  1  1  0  0  0
 19 21  1  0  0  0  0
 19 20  1  1  0  0  0
 21 16  1  0  0  0  0
 21 22  1  6  0  0  0
 22 32  1  0  0  0  0
 23 22  1  0  0  0  0
 23 24  2  0  0  0  0
 24 25  1  0  0  0  0
 25 26  1  0  0  0  0
 26 27  2  0  0  0  0
 26 28  1  0  0  0  0
 29 28  1  0  0  0  0
 29 30  1  0  0  0  0
 31 29  2  0  0  0  0
 32 25  2  0  0  0  0
 32 31  1  0  0  0  0
M  END
>  <CHROM.1>
80.76589177,82.89807625,-167.84709250,168.41217810,-118.44340596,-127.70504849
-97.25555068,176.42099941,35.83514955,0.60975960,-0.39243789,4.74048653,-0.79855141
0.67137483,1.08667409,-2.72345992

>  <Name>
lig.pdb

>  <RI>
2.72908e+07

>  <Rbt.Current_Directory>
/home/itssahil/PROJECTS/Mol_Feturizer/New_Systems/rnas/5lwj

>  <Rbt.Executable>
rbdock ($Id: //depot/dev/client3/rdock/2013.1/src/exe/rbdock.cxx#4 $)

>  <Rbt.Library>
libRbt.so (2013.1, Build901 2013/11/27)

>  <Rbt.Parameter_File>
/export/apps/rDock/src/rDock_2013.1_src/data/scripts/dock_solv.prm

>  <Rbt.Receptor>
prm/blind_docking_20.prm

>  <SCORE>
-23.1416

>  <SCORE.INTER>
-26.9613

>  <SCORE.INTER.CONST>
1

>  <SCORE.INTER.POLAR>
-1.53977

>  <SCORE.INTER.ROT>
8

>  <SCORE.INTER.SOLV>
21.1991

>  <SCORE.INTER.VDW>
-28.8414

>  <SCORE.INTER.norm>
-0.842542

>  <SCORE.INTRA>
2.96235

>  <SCORE.INTRA.DIHEDRAL>
8.8067

>  <SCORE.INTRA.DIHEDRAL.0>
10.9248

>  <SCORE.INTRA.POLAR>
0

>  <SCORE.INTRA.POLAR.0>
0

>  <SCORE.INTRA.REPUL>
0

>  <SCORE.INTRA.REPUL.0>
0

>  <SCORE.INTRA.SOLV>
1.34987

>  <SCORE.INTRA.SOLV.lig_0>
-51.4104

>  <SCORE.INTRA.VDW>
-2.11594

>  <SCORE.INTRA.VDW.0>
0.110327

>  <SCORE.INTRA.norm>
0.0925733

>  <SCORE.RESTR>
0.85737

>  <SCORE.RESTR.CAVITY>
0.85737

>  <SCORE.RESTR.norm>
0.0267928

>  <SCORE.SYSTEM>
0

>  <SCORE.SYSTEM.CONST>
0

>  <SCORE.SYSTEM.DIHEDRAL>
0

>  <SCORE.SYSTEM.SOLV>
0

>  <SCORE.SYSTEM.norm>
0

>  <SCORE.heavy>
32

>  <SCORE.norm>
-0.723176

>  <RMSD>
14.502

$$$$
lig.pdb
 OpenBabel11021811523D
libRbt.so/2013.1/901 2013/11/27
 32 34  0  0  0  0  0  0  0  0999 V2000
   -2.4367    9.1579   -2.7883 P   0  0  0  0  0  0  0  0  0  0  0  0
   -3.8770    9.4860   -3.0979 O   0  0  0  0  0  0  0  0  0  0  0  0
   -1.9029    8.4988   -4.1715 O   0  0  0  0  0  0  0  0  0  0  0  0
   -1.4743   10.2954   -2.5539 O   0  0  0  0  0  0  0  0  0  0  0  0
   -2.4550    8.3873   -1.5601 O   0  0  0  0  0  0  0  0  0  0  0  0
   -1.1953    7.6161   -1.4413 P   0  0  1  0  0  0  0  0  0  0  0  0
   -1.0582    6.7672   -2.6481 O   0  0  0  0  0  0  0  0  0  0  0  0
   -0.0396    8.5399   -1.3667 O   0  0  0  0  0  0  0  0  0  0  0  0
   -1.2452    6.7739   -0.2199 O   0  0  0  0  0  0  0  0  0  0  0  0
   -0.0369    6.4483    0.5743 P   0  0  1  0  0  0  0  0  0  0  0  0
    1.1929    7.1455    0.1460 O   0  0  0  0  0  0  0  0  0  0  0  0
   -0.2437    6.3948    2.0387 O   0  0  0  0  0  0  0  0  0  0  0  0
    0.2682    4.9172    0.1487 O   0  0  0  0  0  0  0  0  0  0  0  0
    1.3470    4.1798    0.6920 C   0  0  0  0  0  0  0  0  0  0  0  0
    1.0532    2.6752    0.7701 C   0  0  1  0  0  0  0  0  0  0  0  0
    1.5433    2.0195   -0.3816 O   0  0  0  0  0  0  0  0  0  0  0  0
    1.8260    1.9493    1.8853 C   0  0  1  0  0  0  0  0  0  0  0  0
    1.3145    2.1260    3.1958 O   0  0  0  0  0  0  0  0  0  0  0  0
    1.8061    0.4888    1.4351 C   0  0  1  0  0  0  0  0  0  0  0  0
    0.6951   -0.2172    1.9590 O   0  0  0  0  0  0  0  0  0  0  0  0
    1.6238    0.6392   -0.0741 C   0  0  2  0  0  0  0  0  0  0  0  0
    2.6409   -0.0384   -0.9063 N   0  0  0  0  0  0  0  0  0  0  0  0
    3.1541   -1.3084   -0.8296 C   0  0  0  0  0  0  0  0  0  0  0  0
    4.1224   -1.5439   -1.6767 N   0  0  0  0  0  0  0  0  0  0  0  0
    4.2488   -0.3540   -2.3871 C   0  0  0  0  0  0  0  0  0  0  0  0
    5.1635    0.0252   -3.4212 C   0  0  0  0  0  0  0  0  0  0  0  0
    6.0884   -0.6373   -3.8871 O   0  0  0  0  0  0  0  0  0  0  0  0
    4.9317    1.3208   -3.9024 N   0  0  0  0  0  0  0  0  0  0  0  0
    3.9045    2.1371   -3.4532 C   0  0  0  0  0  0  0  0  0  0  0  0
    3.7211    3.3120   -4.0660 N   0  0  0  0  0  0  0  0  0  0  0  0
    3.0797    1.7956   -2.4498 N   0  0  0  0  0  0  0  0  0  0  0  0
    3.3047    0.5475   -1.9557 C   0  0  0  0  0  0  0  0  0  0  0  0
  1  2  2  0  0  0  0
  1  4  1  0  0  0  0
  1  3  1  0  0  0  0
  5  1  1  0  0  0  0
  6  7  2  6  0  0  0
  6  9  1  0  0  0  0
  6  5  1  0  0  0  0
  6  8  1  0  0  0  0
 10 11  2  6  0  0  0
 10 12  1  0  0  0  0
 10 13  1  0  0  0  0
 10  9  1  0  0  0  0
 13 14  1  0  0  0  0
 15 14  1  6  0  0  0
 15 16  1  0  0  0  0
 17 19  1  0  0  0  0
 17 15  1  0  0  0  0
 17 18  1  1  0  0  0
 19 21  1  0  0  0  0
 19 20  1  1  0  0  0
 21 16  1  0  0  0  0
 21 22  1  6  0  0  0
 22 32  1  0  0  0  0
 23 22  1  0  0  0  0
 23 24  2  0  0  0  0
 24 25  1  0  0  0  0
 25 26  1  0  0  0  0
 26 27  2  0  0  0  0
 26 28  1  0  0  0  0
 29 28  1  0  0  0  0
 29 30  1  0  0  0  0
 31 29  2  0  0  0  0
 32 25  2  0  0  0  0
 32 31  1  0  0  0  0
M  END
>  <CHROM.1>
159.49510426,-147.62521899,-56.80069704,-179.02231868,6.46821723,149.56529549
93.96431072,166.55561591,-84.62045000,171.02026080,0.93169519,4.29553382
-1.12469675,-2.64629935,-0.91854052,2.11329635

>  <Name>
lig.pdb

>  <RI>
3.17878e+07

>  <Rbt.Current_Directory>
/home/itssahil/PROJECTS/Mol_Feturizer/New_Systems/rnas/5lwj

>  <Rbt.Executable>
rbdock ($Id: //depot/dev/client3/rdock/2013.1/src/exe/rbdock.cxx#4 $)

>  <Rbt.Library>
libRbt.so (2013.1, Build901 2013/11/27)

>  <Rbt.Parameter_File>
/export/apps/rDock/src/rDock_2013.1_src/data/scripts/dock_solv.prm

>  <Rbt.Receptor>
prm/blind_docking_100.prm

>  <SCORE>
-8.14341

>  <SCORE.INTER>
-14.4144

>  <SCORE.INTER.CONST>
1

>  <SCORE.INTER.POLAR>
-2.00698

>  <SCORE.INTER.ROT>
8

>  <SCORE.INTER.SOLV>
31.0057

>  <SCORE.INTER.VDW>
-22.1882

>  <SCORE.INTER.norm>
-0.45045

>  <SCORE.INTRA>
4.69305

>  <SCORE.INTRA.DIHEDRAL>
5.69378

>  <SCORE.INTRA.DIHEDRAL.0>
10.9248

>  <SCORE.INTRA.POLAR>
0

>  <SCORE.INTRA.POLAR.0>
0

>  <SCORE.INTRA.REPUL>
0.483911

>  <SCORE.INTRA.REPUL.0>
0

>  <SCORE.INTRA.SOLV>
-1.00898

>  <SCORE.INTRA.SOLV.lig_0>
-51.4104

>  <SCORE.INTRA.VDW>
-0.0689126

>  <SCORE.INTRA.VDW.0>
0.110327

>  <SCORE.INTRA.norm>
0.146658

>  <SCORE.RESTR>
1.57793

>  <SCORE.RESTR.CAVITY>
1.57793

>  <SCORE.RESTR.norm>
0.0493103

>  <SCORE.SYSTEM>
0

>  <SCORE.SYSTEM.CONST>
0

>  <SCORE.SYSTEM.DIHEDRAL>
0

>  <SCORE.SYSTEM.SOLV>
0

>  <SCORE.SYSTEM.norm>
0

>  <SCORE.heavy>
32

>  <SCORE.norm>
-0.254482

>  <RMSD>
14.504

$$$$
lig.pdb
 OpenBabel11021811523D
libRbt.so/2013.1/901 2013/11/27
 32 34  0  0  0  0  0  0  0  0999 V2000
    3.4847    0.1258   -2.1861 P   0  0  0  0  0  0  0  0  0  0  0  0
    4.2975   -0.4299   -1.0421 O   0  0  0  0  0  0  0  0  0  0  0  0
    4.6051    0.8236   -3.1298 O   0  0  0  0  0  0  0  0  0  0  0  0
    2.8012   -0.8420   -3.1195 O   0  0  0  0  0  0  0  0  0  0  0  0
    2.4291    0.9159   -1.5826 O   0  0  0  0  0  0  0  0  0  0  0  0
    2.9480    2.2636   -1.2512 P   0  0  1  0  0  0  0  0  0  0  0  0
    4.1413    2.0995   -0.3881 O   0  0  0  0  0  0  0  0  0  0  0  0
    3.3417    2.9748   -2.4897 O   0  0  0  0  0  0  0  0  0  0  0  0
    1.8982    3.0358   -0.5402 O   0  0  0  0  0  0  0  0  0  0  0  0
    1.3064    2.5842    0.7414 P   0  0  1  0  0  0  0  0  0  0  0  0
    0.4656    1.3737    0.6436 O   0  0  0  0  0  0  0  0  0  0  0  0
    2.2250    2.6114    1.9014 O   0  0  0  0  0  0  0  0  0  0  0  0
    0.2159    3.7375    1.0569 O   0  0  0  0  0  0  0  0  0  0  0  0
    0.5641    5.1063    1.1450 C   0  0  0  0  0  0  0  0  0  0  0  0
   -0.6129    6.0366    0.8199 C   0  0  1  0  0  0  0  0  0  0  0  0
   -0.4057    6.6728   -0.4246 O   0  0  0  0  0  0  0  0  0  0  0  0
   -1.9373    5.2956    0.5659 C   0  0  1  0  0  0  0  0  0  0  0  0
   -2.6104    4.8351    1.7257 O   0  0  0  0  0  0  0  0  0  0  0  0
   -2.7598    6.3069   -0.2323 C   0  0  1  0  0  0  0  0  0  0  0  0
   -3.5581    7.1258    0.6039 O   0  0  0  0  0  0  0  0  0  0  0  0
   -1.6615    7.1663   -0.8557 C   0  0  2  0  0  0  0  0  0  0  0  0
   -1.7131    7.2913   -2.3280 N   0  0  0  0  0  0  0  0  0  0  0  0
   -0.7498    7.6797   -3.2244 C   0  0  0  0  0  0  0  0  0  0  0  0
   -1.1752    7.7703   -4.4580 N   0  0  0  0  0  0  0  0  0  0  0  0
   -2.5123    7.3916   -4.3845 C   0  0  0  0  0  0  0  0  0  0  0  0
   -3.5232    7.3279   -5.3964 C   0  0  0  0  0  0  0  0  0  0  0  0
   -3.4232    7.6443   -6.5801 O   0  0  0  0  0  0  0  0  0  0  0  0
   -4.7499    6.8571   -4.9090 N   0  0  0  0  0  0  0  0  0  0  0  0
   -4.9559    6.4599   -3.5964 C   0  0  0  0  0  0  0  0  0  0  0  0
   -6.1418    5.9284   -3.2790 N   0  0  0  0  0  0  0  0  0  0  0  0
   -4.0188    6.5670   -2.6404 N   0  0  0  0  0  0  0  0  0  0  0  0
   -2.8265    7.0431   -3.0923 C   0  0  0  0  0  0  0  0  0  0  0  0
  1  2  2  0  0  0  0
  1  4  1  0  0  0  0
  1  3  1  0  0  0  0
  5  1  1  0  0  0  0
  6  7  2  1  0  0  0
  6  9  1  0  0  0  0
  6  5  1  0  0  0  0
  6  8  1  0  0  0  0
 10 11  2  6  0  0  0
 10 12  1  0  0  0  0
 10 13  1  0  0  0  0
 10  9  1  0  0  0  0
 13 14  1  0  0  0  0
 15 14  1  6  0  0  0
 15 16  1  0  0  0  0
 17 19  1  0  0  0  0
 17 15  1  0  0  0  0
 17 18  1  1  0  0  0
 19 21  1  0  0  0  0
 19 20  1  1  0  0  0
 21 16  1  0  0  0  0
 21 22  1  6  0  0  0
 22 32  1  0  0  0  0
 23 22  1  0  0  0  0
 23 24  2  0  0  0  0
 24 25  1  0  0  0  0
 25 26  1  0  0  0  0
 26 27  2  0  0  0  0
 26 28  1  0  0  0  0
 29 28  1  0  0  0  0
 29 30  1  0  0  0  0
 31 29  2  0  0  0  0
 32 25  2  0  0  0  0
 32 31  1  0  0  0  0
M  END
>  <CHROM.1>
82.66099598,59.57722624,-55.43525060,-56.27488660,-68.42575448,154.11990948
-109.11062873,55.28335032,43.98758557,-37.54708233,-0.05787405,4.20362617
-1.48744685,-0.21607060,0.72801478,-1.57255357

>  <Name>
lig.pdb

>  <RI>
1.17715e+07

>  <Rbt.Current_Directory>
/home/itssahil/PROJECTS/Mol_Feturizer/New_Systems/rnas/5lwj

>  <Rbt.Executable>
rbdock ($Id: //depot/dev/client3/rdock/2013.1/src/exe/rbdock.cxx#4 $)

>  <Rbt.Library>
libRbt.so (2013.1, Build901 2013/11/27)

>  <Rbt.Parameter_File>
/export/apps/rDock/src/rDock_2013.1_src/data/scripts/dock_solv.prm

>  <Rbt.Receptor>
prm/blind_docking_60.prm

>  <SCORE>
-37.4647

>  <SCORE.INTER>
-36.8345

>  <SCORE.INTER.CONST>
1

>  <SCORE.INTER.POLAR>
-1.78661

>  <SCORE.INTER.ROT>
8

>  <SCORE.INTER.SOLV>
22.3822

>  <SCORE.INTER.VDW>
-34.9951

>  <SCORE.INTER.norm>
-1.15108

>  <SCORE.INTRA>
-0.630206

>  <SCORE.INTRA.DIHEDRAL>
1.69025

>  <SCORE.INTRA.DIHEDRAL.0>
10.9248

>  <SCORE.INTRA.POLAR>
0

>  <SCORE.INTRA.POLAR.0>
0

>  <SCORE.INTRA.REPUL>
0

>  <SCORE.INTRA.REPUL.0>
0

>  <SCORE.INTRA.SOLV>
0.513382

>  <SCORE.INTRA.SOLV.lig_0>
-51.4104

>  <SCORE.INTRA.VDW>
-1.73202

>  <SCORE.INTRA.VDW.0>
0.110327

>  <SCORE.INTRA.norm>
-0.0196939

>  <SCORE.RESTR>
0

>  <SCORE.RESTR.CAVITY>
0

>  <SCORE.RESTR.norm>
0

>  <SCORE.SYSTEM>
0

>  <SCORE.SYSTEM.CONST>
0

>  <SCORE.SYSTEM.DIHEDRAL>
0

>  <SCORE.SYSTEM.SOLV>
0

>  <SCORE.SYSTEM.norm>
0

>  <SCORE.heavy>
32

>  <SCORE.norm>
-1.17077

>  <RMSD>
14.513

$$$$
lig.pdb
 OpenBabel11021811523D
libRbt.so/2013.1/901 2013/11/27
 32 34  0  0  0  0  0  0  0  0999 V2000
    0.8892    8.4925   -2.7026 P   0  0  0  0  0  0  0  0  0  0  0  0
    2.1190    8.7317   -1.8610 O   0  0  0  0  0  0  0  0  0  0  0  0
   -0.0156    9.8085   -2.4159 O   0  0  0  0  0  0  0  0  0  0  0  0
    1.0339    8.4933   -4.2040 O   0  0  0  0  0  0  0  0  0  0  0  0
    0.4084    7.1718   -2.3457 O   0  0  0  0  0  0  0  0  0  0  0  0
   -0.1776    7.2097   -0.9853 P   0  0  1  0  0  0  0  0  0  0  0  0
    0.9062    7.5232   -0.0244 O   0  0  0  0  0  0  0  0  0  0  0  0
   -1.2126    8.2667   -0.9076 O   0  0  0  0  0  0  0  0  0  0  0  0
   -0.7815    5.8906   -0.6709 O   0  0  0  0  0  0  0  0  0  0  0  0
   -1.3487    5.5702    0.6605 P   0  0  1  0  0  0  0  0  0  0  0  0
   -1.9889    6.7078    1.3517 O   0  0  0  0  0  0  0  0  0  0  0  0
   -2.0984    4.2963    0.7334 O   0  0  0  0  0  0  0  0  0  0  0  0
   -0.0274    5.3186    1.5602 O   0  0  0  0  0  0  0  0  0  0  0  0
    1.1420    4.7165    1.0380 C   0  0  0  0  0  0  0  0  0  0  0  0
    0.9763    3.2080    0.8075 C   0  0  1  0  0  0  0  0  0  0  0  0
    1.4426    2.8542   -0.4785 O   0  0  0  0  0  0  0  0  0  0  0  0
    1.8754    2.3408    1.7062 C   0  0  1  0  0  0  0  0  0  0  0  0
    1.4367    2.1931    3.0463 O   0  0  0  0  0  0  0  0  0  0  0  0
    1.9446    1.0103    0.9570 C   0  0  1  0  0  0  0  0  0  0  0  0
    0.9303    0.1112    1.3691 O   0  0  0  0  0  0  0  0  0  0  0  0
    1.6540    1.4536   -0.4757 C   0  0  2  0  0  0  0  0  0  0  0  0
    2.6668    1.0610   -1.4787 N   0  0  0  0  0  0  0  0  0  0  0  0
    3.3599    1.8174   -2.3896 C   0  0  0  0  0  0  0  0  0  0  0  0
    4.1148    1.1190   -3.1978 N   0  0  0  0  0  0  0  0  0  0  0  0
    3.9321   -0.1962   -2.7813 C   0  0  0  0  0  0  0  0  0  0  0  0
    4.4581   -1.4229   -3.2993 C   0  0  0  0  0  0  0  0  0  0  0  0
    5.1792   -1.5757   -4.2831 O   0  0  0  0  0  0  0  0  0  0  0  0
    4.0507   -2.5424   -2.5614 N   0  0  0  0  0  0  0  0  0  0  0  0
    3.2537   -2.4701   -1.4288 C   0  0  0  0  0  0  0  0  0  0  0  0
    3.0214   -3.5994   -0.7502 N   0  0  0  0  0  0  0  0  0  0  0  0
    2.7235   -1.3226   -0.9752 N   0  0  0  0  0  0  0  0  0  0  0  0
    3.0918   -0.2268   -1.6936 C   0  0  0  0  0  0  0  0  0  0  0  0
  1  2  2  0  0  0  0
  1  4  1  0  0  0  0
  1  3  1  0  0  0  0
  5  1  1  0  0  0  0
  6  7  2  1  0  0  0
  6  9  1  0  0  0  0
  6  5  1  0  0  0  0
  6  8  1  0  0  0  0
 10 11  2  1  0  0  0
 10 12  1  0  0  0  0
 10 13  1  0  0  0  0
 10  9  1  0  0  0  0
 13 14  1  0  0  0  0
 15 14  1  1  0  0  0
 15 16  1  0  0  0  0
 17 19  1  0  0  0  0
 17 15  1  0  0  0  0
 17 18  1  1  0  0  0
 19 21  1  0  0  0  0
 19 20  1  1  0  0  0
 21 16  1  0  0  0  0
 21 22  1  6  0  0  0
 22 32  1  0  0  0  0
 23 22  1  0  0  0  0
 23 24  2  0  0  0  0
 24 25  1  0  0  0  0
 25 26  1  0  0  0  0
 26 27  2  0  0  0  0
 26 28  1  0  0  0  0
 29 28  1  0  0  0  0
 29 30  1  0  0  0  0
 31 29  2  0  0  0  0
 32 25  2  0  0  0  0
 32 31  1  0  0  0  0
M  END
>  <CHROM.1>
71.57476070,174.70507815,-64.93605672,-35.09963556,33.93640566,-73.24938251
132.20881758,173.61860175,-78.14443511,-2.23773688,1.27910945,3.71666588
-0.86999820,-2.24513259,-0.94531684,2.61998072

>  <Name>
lig.pdb

>  <RI>
3.17878e+07

>  <Rbt.Current_Directory>
/home/itssahil/PROJECTS/Mol_Feturizer/New_Systems/rnas/5lwj

>  <Rbt.Executable>
rbdock ($Id: //depot/dev/client3/rdock/2013.1/src/exe/rbdock.cxx#4 $)

>  <Rbt.Library>
libRbt.so (2013.1, Build901 2013/11/27)

>  <Rbt.Parameter_File>
/export/apps/rDock/src/rDock_2013.1_src/data/scripts/dock_solv.prm

>  <Rbt.Receptor>
prm/blind_docking_100.prm

>  <SCORE>
-26.2723

>  <SCORE.INTER>
-25.2021

>  <SCORE.INTER.CONST>
1

>  <SCORE.INTER.POLAR>
-1.89994

>  <SCORE.INTER.ROT>
8

>  <SCORE.INTER.SOLV>
25.6407

>  <SCORE.INTER.VDW>
-27.9485

>  <SCORE.INTER.norm>
-0.787564

>  <SCORE.INTRA>
-1.44171

>  <SCORE.INTRA.DIHEDRAL>
0.663003

>  <SCORE.INTRA.DIHEDRAL.0>
10.9248

>  <SCORE.INTRA.POLAR>
0

>  <SCORE.INTRA.POLAR.0>
0

>  <SCORE.INTRA.REPUL>
0

>  <SCORE.INTRA.REPUL.0>
0

>  <SCORE.INTRA.SOLV>
1.08505

>  <SCORE.INTRA.SOLV.lig_0>
-51.4104

>  <SCORE.INTRA.VDW>
-2.31573

>  <SCORE.INTRA.VDW.0>
0.110327

>  <SCORE.INTRA.norm>
-0.0450534

>  <SCORE.RESTR>
0.371496

>  <SCORE.RESTR.CAVITY>
0.371496

>  <SCORE.RESTR.norm>
0.0116093

>  <SCORE.SYSTEM>
0

>  <SCORE.SYSTEM.CONST>
0

>  <SCORE.SYSTEM.DIHEDRAL>
0

>  <SCORE.SYSTEM.SOLV>
0

>  <SCORE.SYSTEM.norm>
0

>  <SCORE.heavy>
32

>  <SCORE.norm>
-0.821008

>  <RMSD>
14.515

$$$$
lig.pdb
 OpenBabel11021811523D
libRbt.so/2013.1/901 2013/11/27
 32 34  0  0  0  0  0  0  0  0999 V2000
   -2.2995    9.0696   -2.6766 P   0  0  0  0  0  0  0  0  0  0  0  0
   -1.1800   10.0447   -2.9485 O   0  0  0  0  0  0  0  0  0  0  0  0
   -3.5756   10.0367   -2.4144 O   0  0  0  0  0  0  0  0  0  0  0  0
   -2.7664    8.1790   -3.8008 O   0  0  0  0  0  0  0  0  0  0  0  0
   -1.8165    8.1831   -1.6356 O   0  0  0  0  0  0  0  0  0  0  0  0
   -0.4817    7.6605   -2.0111 P   0  0  1  0  0  0  0  0  0  0  0  0
   -0.5121    7.3081   -3.4502 O   0  0  0  0  0  0  0  0  0  0  0  0
    0.5509    8.6995   -1.7899 O   0  0  0  0  0  0  0  0  0  0  0  0
   -0.1724    6.4619   -1.1919 O   0  0  0  0  0  0  0  0  0  0  0  0
    0.0221    6.5276    0.2760 P   0  0  1  0  0  0  0  0  0  0  0  0
    1.2663    7.1967    0.7072 O   0  0  0  0  0  0  0  0  0  0  0  0
   -1.1828    6.8941    1.0532 O   0  0  0  0  0  0  0  0  0  0  0  0
    0.3066    4.9835    0.6678 O   0  0  0  0  0  0  0  0  0  0  0  0
    1.2030    4.1686   -0.0637 C   0  0  0  0  0  0  0  0  0  0  0  0
    1.4382    2.8054    0.6018 C   0  0  1  0  0  0  0  0  0  0  0  0
    1.2058    1.7620   -0.3222 O   0  0  0  0  0  0  0  0  0  0  0  0
    2.9055    2.5486    0.9878 C   0  0  1  0  0  0  0  0  0  0  0  0
    3.3516    3.2081    2.1609 O   0  0  0  0  0  0  0  0  0  0  0  0
    2.9789    1.0262    1.1015 C   0  0  1  0  0  0  0  0  0  0  0  0
    2.7158    0.5750    2.4185 O   0  0  0  0  0  0  0  0  0  0  0  0
    1.8245    0.5985    0.1972 C   0  0  2  0  0  0  0  0  0  0  0  0
    2.1811   -0.3477   -0.8816 N   0  0  0  0  0  0  0  0  0  0  0  0
    1.6377   -1.5615   -1.2189 C   0  0  0  0  0  0  0  0  0  0  0  0
    2.2723   -2.1806   -2.1806 N   0  0  0  0  0  0  0  0  0  0  0  0
    3.2985   -1.3069   -2.5275 C   0  0  0  0  0  0  0  0  0  0  0  0
    4.3538   -1.4375   -3.4862 C   0  0  0  0  0  0  0  0  0  0  0  0
    4.6030   -2.4046   -4.2031 O   0  0  0  0  0  0  0  0  0  0  0  0
    5.1706   -0.3007   -3.5523 N   0  0  0  0  0  0  0  0  0  0  0  0
    4.9602    0.8438   -2.7980 C   0  0  0  0  0  0  0  0  0  0  0  0
    5.7453    1.9022   -3.0286 N   0  0  0  0  0  0  0  0  0  0  0  0
    3.9985    0.9433   -1.8658 N   0  0  0  0  0  0  0  0  0  0  0  0
    3.2084   -0.1611   -1.7732 C   0  0  0  0  0  0  0  0  0  0  0  0
  1  2  2  0  0  0  0
  1  4  1  0  0  0  0
  1  3  1  0  0  0  0
  5  1  1  0  0  0  0
  6  7  2  6  0  0  0
  6  9  1  0  0  0  0
  6  5  1  0  0  0  0
  6  8  1  0  0  0  0
 10 11  2  1  0  0  0
 10 12  1  0  0  0  0
 10 13  1  0  0  0  0
 10  9  1  0  0  0  0
 13 14  1  0  0  0  0
 15 14  1  6  0  0  0
 15 16  1  0  0  0  0
 17 19  1  0  0  0  0
 17 15  1  0  0  0  0
 17 18  1  1  0  0  0
 19 21  1  0  0  0  0
 19 20  1  1  0  0  0
 21 16  1  0  0  0  0
 21 22  1  6  0  0  0
 22 32  1  0  0  0  0
 23 22  1  0  0  0  0
 23 24  2  0  0  0  0
 24 25  1  0  0  0  0
 25 26  1  0  0  0  0
 26 27  2  0  0  0  0
 26 28  1  0  0  0  0
 29 28  1  0  0  0  0
 29 30  1  0  0  0  0
 31 29  2  0  0  0  0
 32 25  2  0  0  0  0
 32 31  1  0  0  0  0
M  END
>  <CHROM.1>
-50.30672573,-65.67661016,-42.30378755,45.96285866,-70.53209155,172.76397402
127.38550745,-179.45035167,54.92784270,-108.72792239,1.15991181,4.10494592
-1.24356773,-3.10235378,-1.05254569,1.58764443

>  <Name>
lig.pdb

>  <RI>
1.17715e+07

>  <Rbt.Current_Directory>
/home/itssahil/PROJECTS/Mol_Feturizer/New_Systems/rnas/5lwj

>  <Rbt.Executable>
rbdock ($Id: //depot/dev/client3/rdock/2013.1/src/exe/rbdock.cxx#4 $)

>  <Rbt.Library>
libRbt.so (2013.1, Build901 2013/11/27)

>  <Rbt.Parameter_File>
/export/apps/rDock/src/rDock_2013.1_src/data/scripts/dock_solv.prm

>  <Rbt.Receptor>
prm/blind_docking_60.prm

>  <SCORE>
22.3686

>  <SCORE.INTER>
22.6213

>  <SCORE.INTER.CONST>
1

>  <SCORE.INTER.POLAR>
-0.589308

>  <SCORE.INTER.ROT>
8

>  <SCORE.INTER.SOLV>
27.6581

>  <SCORE.INTER.VDW>
-1.10746

>  <SCORE.INTER.norm>
0.706916

>  <SCORE.INTRA>
-0.835417

>  <SCORE.INTRA.DIHEDRAL>
-1.83125

>  <SCORE.INTRA.DIHEDRAL.0>
10.9248

>  <SCORE.INTRA.POLAR>
0

>  <SCORE.INTRA.POLAR.0>
0

>  <SCORE.INTRA.REPUL>
0

>  <SCORE.INTRA.REPUL.0>
0

>  <SCORE.INTRA.SOLV>
-0.0433894

>  <SCORE.INTRA.SOLV.lig_0>
-51.4104

>  <SCORE.INTRA.VDW>
0.101904

>  <SCORE.INTRA.VDW.0>
0.110327

>  <SCORE.INTRA.norm>
-0.0261068

>  <SCORE.RESTR>
0.582717

>  <SCORE.RESTR.CAVITY>
0.582717

>  <SCORE.RESTR.norm>
0.0182099

>  <SCORE.SYSTEM>
0

>  <SCORE.SYSTEM.CONST>
0

>  <SCORE.SYSTEM.DIHEDRAL>
0

>  <SCORE.SYSTEM.SOLV>
0

>  <SCORE.SYSTEM.norm>
0

>  <SCORE.heavy>
32

>  <SCORE.norm>
0.699019

>  <RMSD>
14.550

$$$$
lig.pdb
 OpenBabel11021811523D
libRbt.so/2013.1/901 2013/11/27
 32 34  0  0  0  0  0  0  0  0999 V2000
    2.9065    0.1611   -1.7352 P   0  0  0  0  0  0  0  0  0  0  0  0
    2.3027   -1.2173   -1.6194 O   0  0  0  0  0  0  0  0  0  0  0  0
    4.3295    0.0059   -0.9712 O   0  0  0  0  0  0  0  0  0  0  0  0
    3.3014    0.6606   -3.1026 O   0  0  0  0  0  0  0  0  0  0  0  0
    1.9003    1.0832   -1.2455 O   0  0  0  0  0  0  0  0  0  0  0  0
    2.4699    2.4497   -1.1839 P   0  0  1  0  0  0  0  0  0  0  0  0
    3.7965    2.3678   -0.5286 O   0  0  0  0  0  0  0  0  0  0  0  0
    2.6398    2.9911   -2.5524 O   0  0  0  0  0  0  0  0  0  0  0  0
    1.5620    3.3285   -0.4047 O   0  0  0  0  0  0  0  0  0  0  0  0
    1.6111    3.4151    1.0742 P   0  0  1  0  0  0  0  0  0  0  0  0
    1.5517    2.1155    1.7736 O   0  0  0  0  0  0  0  0  0  0  0  0
    2.6066    4.3675    1.6146 O   0  0  0  0  0  0  0  0  0  0  0  0
    0.1778    4.0706    1.4410 O   0  0  0  0  0  0  0  0  0  0  0  0
   -0.1011    5.4437    1.2421 C   0  0  0  0  0  0  0  0  0  0  0  0
   -0.8802    5.7057   -0.0543 C   0  0  1  0  0  0  0  0  0  0  0  0
   -2.0718    4.9466   -0.0722 O   0  0  0  0  0  0  0  0  0  0  0  0
   -1.4305    7.1382   -0.1685 C   0  0  1  0  0  0  0  0  0  0  0  0
   -0.4820    8.1287   -0.5282 O   0  0  0  0  0  0  0  0  0  0  0  0
   -2.5590    7.0020   -1.1903 C   0  0  1  0  0  0  0  0  0  0  0  0
   -2.1123    7.2343   -2.5145 O   0  0  0  0  0  0  0  0  0  0  0  0
   -2.9211    5.5249   -1.0472 C   0  0  2  0  0  0  0  0  0  0  0  0
   -4.3433    5.2461   -0.7546 N   0  0  0  0  0  0  0  0  0  0  0  0
   -5.2909    6.0121   -0.1242 C   0  0  0  0  0  0  0  0  0  0  0  0
   -6.4362    5.4053    0.0512 N   0  0  0  0  0  0  0  0  0  0  0  0
   -6.2484    4.1527   -0.5253 C   0  0  0  0  0  0  0  0  0  0  0  0
   -7.1239    3.0232   -0.6138 C   0  0  0  0  0  0  0  0  0  0  0  0
   -8.2550    2.9101   -0.1458 O   0  0  0  0  0  0  0  0  0  0  0  0
   -6.5562    1.9504   -1.3144 N   0  0  0  0  0  0  0  0  0  0  0  0
   -5.2964    1.9885   -1.8928 C   0  0  0  0  0  0  0  0  0  0  0  0
   -4.9093    0.9390   -2.6266 N   0  0  0  0  0  0  0  0  0  0  0  0
   -4.4605    3.0320   -1.7657 N   0  0  0  0  0  0  0  0  0  0  0  0
   -4.9882    4.0755   -1.0691 C   0  0  0  0  0  0  0  0  0  0  0  0
  1  2  2  0  0  0  0
  1  4  1  0  0  0  0
  1  3  1  0  0  0  0
  5  1  1  0  0  0  0
  6  7  2  1  0  0  0
  6  9  1  0  0  0  0
  6  5  1  0  0  0  0
  6  8  1  0  0  0  0
 10 11  2  1  0  0  0
 10 12  1  0  0  0  0
 10 13  1  0  0  0  0
 10  9  1  0  0  0  0
 13 14  1  0  0  0  0
 15 14  1  1  0  0  0
 15 16  1  0  0  0  0
 17 19  1  0  0  0  0
 17 15  1  0  0  0  0
 17 18  1  6  0  0  0
 19 21  1  0  0  0  0
 19 20  1  6  0  0  0
 21 16  1  0  0  0  0
 21 22  1  1  0  0  0
 22 32  1  0  0  0  0
 23 22  1  0  0  0  0
 23 24  2  0  0  0  0
 24 25  1  0  0  0  0
 25 26  1  0  0  0  0
 26 27  2  0  0  0  0
 26 28  1  0  0  0  0
 29 28  1  0  0  0  0
 29 30  1  0  0  0  0
 31 29  2  0  0  0  0
 32 25  2  0  0  0  0
 32 31  1  0  0  0  0
M  END
>  <CHROM.1>
173.74111179,84.88493154,-46.99404189,-75.36057477,-51.76089794,98.95845649
55.79592887,150.85814200,53.39698408,97.26331591,-0.87188161,3.40640397,-0.70321667
0.31060534,0.08644894,-2.85191579

>  <Name>
lig.pdb

>  <RI>
4.14043e+07

>  <Rbt.Current_Directory>
/home/itssahil/PROJECTS/Mol_Feturizer/New_Systems/rnas/5lwj

>  <Rbt.Executable>
rbdock ($Id: //depot/dev/client3/rdock/2013.1/src/exe/rbdock.cxx#4 $)

>  <Rbt.Library>
libRbt.so (2013.1, Build901 2013/11/27)

>  <Rbt.Parameter_File>
/export/apps/rDock/src/rDock_2013.1_src/data/scripts/dock_solv.prm

>  <Rbt.Receptor>
prm/blind_docking_80.prm

>  <SCORE>
-19.1616

>  <SCORE.INTER>
-23.5833

>  <SCORE.INTER.CONST>
1

>  <SCORE.INTER.POLAR>
-2.42394

>  <SCORE.INTER.ROT>
8

>  <SCORE.INTER.SOLV>
28.7458

>  <SCORE.INTER.VDW>
-26.1577

>  <SCORE.INTER.norm>
-0.736979

>  <SCORE.INTRA>
0.551518

>  <SCORE.INTRA.DIHEDRAL>
2.87

>  <SCORE.INTRA.DIHEDRAL.0>
10.9248

>  <SCORE.INTRA.POLAR>
0

>  <SCORE.INTRA.POLAR.0>
0

>  <SCORE.INTRA.REPUL>
0

>  <SCORE.INTRA.REPUL.0>
0

>  <SCORE.INTRA.SOLV>
-0.482948

>  <SCORE.INTRA.SOLV.lig_0>
-51.4104

>  <SCORE.INTRA.VDW>
-0.64201

>  <SCORE.INTRA.VDW.0>
0.110327

>  <SCORE.INTRA.norm>
0.0172349

>  <SCORE.RESTR>
3.87023

>  <SCORE.RESTR.CAVITY>
3.87023

>  <SCORE.RESTR.norm>
0.120945

>  <SCORE.SYSTEM>
0

>  <SCORE.SYSTEM.CONST>
0

>  <SCORE.SYSTEM.DIHEDRAL>
0

>  <SCORE.SYSTEM.SOLV>
0

>  <SCORE.SYSTEM.norm>
0

>  <SCORE.heavy>
32

>  <SCORE.norm>
-0.5988

>  <RMSD>
14.563

$$$$
lig.pdb
 OpenBabel11021811523D
libRbt.so/2013.1/901 2013/11/27
 32 34  0  0  0  0  0  0  0  0999 V2000
    0.8279    8.9428   -2.7981 P   0  0  0  0  0  0  0  0  0  0  0  0
   -0.4821    9.6310   -3.0955 O   0  0  0  0  0  0  0  0  0  0  0  0
    0.8767    7.7512   -3.8982 O   0  0  0  0  0  0  0  0  0  0  0  0
    2.1097    9.6972   -3.0491 O   0  0  0  0  0  0  0  0  0  0  0  0
    0.8103    8.6407   -1.3800 O   0  0  0  0  0  0  0  0  0  0  0  0
   -0.2241    7.6159   -1.1055 P   0  0  1  0  0  0  0  0  0  0  0  0
   -1.5529    8.2239   -1.3513 O   0  0  0  0  0  0  0  0  0  0  0  0
   -0.0466    6.4592   -2.0140 O   0  0  0  0  0  0  0  0  0  0  0  0
   -0.1136    7.1684    0.3056 O   0  0  0  0  0  0  0  0  0  0  0  0
   -1.0512    6.1912    0.9081 P   0  0  1  0  0  0  0  0  0  0  0  0
   -1.8074    6.6946    2.0728 O   0  0  0  0  0  0  0  0  0  0  0  0
   -1.8498    5.4078   -0.0606 O   0  0  0  0  0  0  0  0  0  0  0  0
   -0.0545    5.1105    1.5844 O   0  0  0  0  0  0  0  0  0  0  0  0
    1.0486    4.5586    0.8906 C   0  0  0  0  0  0  0  0  0  0  0  0
    0.9572    3.0322    0.7561 C   0  0  1  0  0  0  0  0  0  0  0  0
    1.4740    2.6180   -0.4920 O   0  0  0  0  0  0  0  0  0  0  0  0
    1.8692    2.2678    1.7317 C   0  0  1  0  0  0  0  0  0  0  0  0
    1.4010    2.1869    3.0675 O   0  0  0  0  0  0  0  0  0  0  0  0
    2.0186    0.8963    1.0738 C   0  0  1  0  0  0  0  0  0  0  0  0
    1.0347   -0.0205    1.5193 O   0  0  0  0  0  0  0  0  0  0  0  0
    1.7479    1.2319   -0.3916 C   0  0  2  0  0  0  0  0  0  0  0  0
    2.8045    0.8227   -1.3415 N   0  0  0  0  0  0  0  0  0  0  0  0
    3.7898    1.5580   -1.9504 C   0  0  0  0  0  0  0  0  0  0  0  0
    4.4987    0.8836   -2.8184 N   0  0  0  0  0  0  0  0  0  0  0  0
    3.9650   -0.4007   -2.7678 C   0  0  0  0  0  0  0  0  0  0  0  0
    4.2894   -1.5783   -3.5147 C   0  0  0  0  0  0  0  0  0  0  0  0
    5.1149   -1.6918   -4.4186 O   0  0  0  0  0  0  0  0  0  0  0  0
    3.5284   -2.6908   -3.1311 N   0  0  0  0  0  0  0  0  0  0  0  0
    2.5873   -2.6663   -2.1129 C   0  0  0  0  0  0  0  0  0  0  0  0
    2.0024   -3.8194   -1.7692 N   0  0  0  0  0  0  0  0  0  0  0  0
    2.2523   -1.5483   -1.4483 N   0  0  0  0  0  0  0  0  0  0  0  0
    2.9673   -0.4526   -1.8234 C   0  0  0  0  0  0  0  0  0  0  0  0
  1  2  2  0  0  0  0
  1  4  1  0  0  0  0
  1  3  1  0  0  0  0
  5  1  1  0  0  0  0
  6  7  2  6  0  0  0
  6  9  1  0  0  0  0
  6  5  1  0  0  0  0
  6  8  1  0  0  0  0
 10 11  2  1  0  0  0
 10 12  1  0  0  0  0
 10 13  1  0  0  0  0
 10  9  1  0  0  0  0
 13 14  1  0  0  0  0
 15 14  1  1  0  0  0
 15 16  1  0  0  0  0
 17 19  1  0  0  0  0
 17 15  1  0  0  0  0
 17 18  1  1  0  0  0
 19 21  1  0  0  0  0
 19 20  1  1  0  0  0
 21 16  1  0  0  0  0
 21 22  1  6  0  0  0
 22 32  1  0  0  0  0
 23 22  1  0  0  0  0
 23 24  2  0  0  0  0
 24 25  1  0  0  0  0
 25 26  1  0  0  0  0
 26 27  2  0  0  0  0
 26 28  1  0  0  0  0
 29 28  1  0  0  0  0
 29 30  1  0  0  0  0
 31 29  2  0  0  0  0
 32 25  2  0  0  0  0
 32 31  1  0  0  0  0
M  END
>  <CHROM.1>
67.50069320,177.08452431,-67.63367645,-47.78775857,-120.02839347,-119.58861679
143.84678220,172.71834290,-89.77814008,22.65107433,1.22224191,3.79535080
-0.99152777,-2.25132118,-1.01801727,2.59853620

>  <Name>
lig.pdb

>  <RI>
3.17878e+07

>  <Rbt.Current_Directory>
/home/itssahil/PROJECTS/Mol_Feturizer/New_Systems/rnas/5lwj

>  <Rbt.Executable>
rbdock ($Id: //depot/dev/client3/rdock/2013.1/src/exe/rbdock.cxx#4 $)

>  <Rbt.Library>
libRbt.so (2013.1, Build901 2013/11/27)

>  <Rbt.Parameter_File>
/export/apps/rDock/src/rDock_2013.1_src/data/scripts/dock_solv.prm

>  <Rbt.Receptor>
prm/blind_docking_100.prm

>  <SCORE>
-21.2155

>  <SCORE.INTER>
-23.2854

>  <SCORE.INTER.CONST>
1

>  <SCORE.INTER.POLAR>
-1.29798

>  <SCORE.INTER.ROT>
8

>  <SCORE.INTER.SOLV>
24.8218

>  <SCORE.INTER.VDW>
-28.4043

>  <SCORE.INTER.norm>
-0.727668

>  <SCORE.INTRA>
1.97212

>  <SCORE.INTRA.DIHEDRAL>
8.59731

>  <SCORE.INTRA.DIHEDRAL.0>
10.9248

>  <SCORE.INTRA.POLAR>
0

>  <SCORE.INTRA.POLAR.0>
0

>  <SCORE.INTRA.REPUL>
0

>  <SCORE.INTRA.REPUL.0>
0

>  <SCORE.INTRA.SOLV>
-0.682865

>  <SCORE.INTRA.SOLV.lig_0>
-51.4104

>  <SCORE.INTRA.VDW>
-1.9851

>  <SCORE.INTRA.VDW.0>
0.110327

>  <SCORE.INTRA.norm>
0.0616287

>  <SCORE.RESTR>
0.097794

>  <SCORE.RESTR.CAVITY>
0.097794

>  <SCORE.RESTR.norm>
0.00305606

>  <SCORE.SYSTEM>
0

>  <SCORE.SYSTEM.CONST>
0

>  <SCORE.SYSTEM.DIHEDRAL>
0

>  <SCORE.SYSTEM.SOLV>
0

>  <SCORE.SYSTEM.norm>
0

>  <SCORE.heavy>
32

>  <SCORE.norm>
-0.662983

>  <RMSD>
14.564

$$$$
lig.pdb
 OpenBabel11021811523D
libRbt.so/2013.1/901 2013/11/27
 32 34  0  0  0  0  0  0  0  0999 V2000
    3.7845   -1.1599   -1.6893 P   0  0  0  0  0  0  0  0  0  0  0  0
    3.6455   -1.2022   -3.1916 O   0  0  0  0  0  0  0  0  0  0  0  0
    2.2482   -1.2441   -1.1742 O   0  0  0  0  0  0  0  0  0  0  0  0
    4.4457   -2.3244   -0.9952 O   0  0  0  0  0  0  0  0  0  0  0  0
    4.6016    0.0010   -1.3938 O   0  0  0  0  0  0  0  0  0  0  0  0
    4.4210    0.3844    0.0260 P   0  0  1  0  0  0  0  0  0  0  0  0
    4.9571   -0.7084    0.8711 O   0  0  0  0  0  0  0  0  0  0  0  0
    5.1693    1.6299    0.3148 O   0  0  0  0  0  0  0  0  0  0  0  0
    2.9770    0.5902    0.3020 O   0  0  0  0  0  0  0  0  0  0  0  0
    2.2583    1.8259   -0.0897 P   0  0  1  0  0  0  0  0  0  0  0  0
    3.0796    2.8178   -0.8131 O   0  0  0  0  0  0  0  0  0  0  0  0
    0.9038    1.6145   -0.6472 O   0  0  0  0  0  0  0  0  0  0  0  0
    2.0054    2.5574    1.3314 O   0  0  0  0  0  0  0  0  0  0  0  0
    0.8986    3.4093    1.5592 C   0  0  0  0  0  0  0  0  0  0  0  0
    0.9727    4.7049    0.7394 C   0  0  1  0  0  0  0  0  0  0  0  0
   -0.2445    4.9230    0.0558 O   0  0  0  0  0  0  0  0  0  0  0  0
    1.0714    5.9777    1.5984 C   0  0  1  0  0  0  0  0  0  0  0  0
    2.3502    6.2433    2.1500 O   0  0  0  0  0  0  0  0  0  0  0  0
    0.5955    7.0797    0.6521 C   0  0  1  0  0  0  0  0  0  0  0  0
    1.6664    7.6678   -0.0651 O   0  0  0  0  0  0  0  0  0  0  0  0
   -0.2716    6.2872   -0.3245 C   0  0  2  0  0  0  0  0  0  0  0  0
   -1.6589    6.7743   -0.4799 N   0  0  0  0  0  0  0  0  0  0  0  0
   -2.1404    8.0405   -0.6973 C   0  0  0  0  0  0  0  0  0  0  0  0
   -3.4457    8.1235   -0.6856 N   0  0  0  0  0  0  0  0  0  0  0  0
   -3.8670    6.8149   -0.4695 C   0  0  0  0  0  0  0  0  0  0  0  0
   -5.1817    6.2690   -0.3159 C   0  0  0  0  0  0  0  0  0  0  0  0
   -6.2511    6.8753   -0.3051 O   0  0  0  0  0  0  0  0  0  0  0  0
   -5.1751    4.8780   -0.1456 N   0  0  0  0  0  0  0  0  0  0  0  0
   -4.0235    4.1056   -0.1606 C   0  0  0  0  0  0  0  0  0  0  0  0
   -4.1571    2.7761   -0.0944 N   0  0  0  0  0  0  0  0  0  0  0  0
   -2.7897    4.6273   -0.2566 N   0  0  0  0  0  0  0  0  0  0  0  0
   -2.7765    5.9806   -0.4012 C   0  0  0  0  0  0  0  0  0  0  0  0
  1  2  2  0  0  0  0
  1  4  1  0  0  0  0
  1  3  1  0  0  0  0
  5  1  1  0  0  0  0
  6  7  2  1  0  0  0
  6  9  1  0  0  0  0
  6  5  1  0  0  0  0
  6  8  1  0  0  0  0
 10 11  2  6  0  0  0
 10 12  1  0  0  0  0
 10 13  1  0  0  0  0
 10  9  1  0  0  0  0
 13 14  1  0  0  0  0
 15 14  1  1  0  0  0
 15 16  1  0  0  0  0
 17 19  1  0  0  0  0
 17 15  1  0  0  0  0
 17 18  1  6  0  0  0
 19 21  1  0  0  0  0
 19 20  1  6  0  0  0
 21 16  1  0  0  0  0
 21 22  1  1  0  0  0
 22 32  1  0  0  0  0
 23 22  1  0  0  0  0
 23 24  2  0  0  0  0
 24 25  1  0  0  0  0
 25 26  1  0  0  0  0
 26 27  2  0  0  0  0
 26 28  1  0  0  0  0
 29 28  1  0  0  0  0
 29 30  1  0  0  0  0
 31 29  2  0  0  0  0
 32 25  2  0  0  0  0
 32 31  1  0  0  0  0
M  END
>  <CHROM.1>
161.17525045,-78.58270998,65.30458809,-151.00635585,1.83852309,-67.29321912
129.90415816,174.23500786,-39.75932472,172.46244122,0.77636418,3.18250242
-0.19311134,0.73313985,0.18017745,-2.85881365

>  <Name>
lig.pdb

>  <RI>
2.72908e+07

>  <Rbt.Current_Directory>
/home/itssahil/PROJECTS/Mol_Feturizer/New_Systems/rnas/5lwj

>  <Rbt.Executable>
rbdock ($Id: //depot/dev/client3/rdock/2013.1/src/exe/rbdock.cxx#4 $)

>  <Rbt.Library>
libRbt.so (2013.1, Build901 2013/11/27)

>  <Rbt.Parameter_File>
/export/apps/rDock/src/rDock_2013.1_src/data/scripts/dock_solv.prm

>  <Rbt.Receptor>
prm/blind_docking_20.prm

>  <SCORE>
12.0916

>  <SCORE.INTER>
7.6655

>  <SCORE.INTER.CONST>
1

>  <SCORE.INTER.POLAR>
-1.58305

>  <SCORE.INTER.ROT>
8

>  <SCORE.INTER.SOLV>
26.079

>  <SCORE.INTER.VDW>
-7.23915

>  <SCORE.INTER.norm>
0.239547

>  <SCORE.INTRA>
2.55815

>  <SCORE.INTRA.DIHEDRAL>
2.86752

>  <SCORE.INTRA.DIHEDRAL.0>
10.9248

>  <SCORE.INTRA.POLAR>
0

>  <SCORE.INTRA.POLAR.0>
0

>  <SCORE.INTRA.REPUL>
0.483745

>  <SCORE.INTRA.REPUL.0>
0

>  <SCORE.INTRA.SOLV>
1.36042

>  <SCORE.INTRA.SOLV.lig_0>
-51.4104

>  <SCORE.INTRA.VDW>
-1.97454

>  <SCORE.INTRA.VDW.0>
0.110327

>  <SCORE.INTRA.norm>
0.0799423

>  <SCORE.RESTR>
1.86792

>  <SCORE.RESTR.CAVITY>
1.86792

>  <SCORE.RESTR.norm>
0.0583726

>  <SCORE.SYSTEM>
0

>  <SCORE.SYSTEM.CONST>
0

>  <SCORE.SYSTEM.DIHEDRAL>
0

>  <SCORE.SYSTEM.SOLV>
0

>  <SCORE.SYSTEM.norm>
0

>  <SCORE.heavy>
32

>  <SCORE.norm>
0.377862

>  <RMSD>
14.565

$$$$
lig.pdb
 OpenBabel11021811523D
libRbt.so/2013.1/901 2013/11/27
 32 34  0  0  0  0  0  0  0  0999 V2000
    1.6052   -0.8366   -0.3580 P   0  0  0  0  0  0  0  0  0  0  0  0
    1.9015   -1.6188   -1.6143 O   0  0  0  0  0  0  0  0  0  0  0  0
    1.2266   -1.9927    0.7157 O   0  0  0  0  0  0  0  0  0  0  0  0
    2.7365   -0.0988    0.3135 O   0  0  0  0  0  0  0  0  0  0  0  0
    0.6335    0.1725   -0.7325 O   0  0  0  0  0  0  0  0  0  0  0  0
   -0.0496    0.6762    0.4822 P   0  0  1  0  0  0  0  0  0  0  0  0
   -1.0933    1.6392    0.0590 O   0  0  0  0  0  0  0  0  0  0  0  0
   -0.6921   -0.4457    1.2054 O   0  0  0  0  0  0  0  0  0  0  0  0
    0.9406    1.3422    1.3652 O   0  0  0  0  0  0  0  0  0  0  0  0
    1.5623    2.6444    1.0266 P   0  0  1  0  0  0  0  0  0  0  0  0
    2.7532    2.9901    1.8291 O   0  0  0  0  0  0  0  0  0  0  0  0
    1.6854    2.9238   -0.4214 O   0  0  0  0  0  0  0  0  0  0  0  0
    0.4670    3.7113    1.5567 O   0  0  0  0  0  0  0  0  0  0  0  0
    0.5805    5.1002    1.3102 C   0  0  0  0  0  0  0  0  0  0  0  0
   -0.3731    5.5837    0.2088 C   0  0  1  0  0  0  0  0  0  0  0  0
   -1.7132    5.3172    0.5686 O   0  0  0  0  0  0  0  0  0  0  0  0
   -0.4017    7.1130    0.0405 C   0  0  1  0  0  0  0  0  0  0  0  0
    0.7000    7.6703   -0.6565 O   0  0  0  0  0  0  0  0  0  0  0  0
   -1.7350    7.3655   -0.6629 C   0  0  1  0  0  0  0  0  0  0  0  0
   -1.6033    7.3685   -2.0734 O   0  0  0  0  0  0  0  0  0  0  0  0
   -2.5350    6.1321   -0.2480 C   0  0  2  0  0  0  0  0  0  0  0  0
   -3.8339    6.4080    0.4023 N   0  0  0  0  0  0  0  0  0  0  0  0
   -4.2736    6.1266    1.6711 C   0  0  0  0  0  0  0  0  0  0  0  0
   -5.5289    6.4295    1.8794 N   0  0  0  0  0  0  0  0  0  0  0  0
   -5.9514    6.9752    0.6710 C   0  0  0  0  0  0  0  0  0  0  0  0
   -7.2359    7.4563    0.2604 C   0  0  0  0  0  0  0  0  0  0  0  0
   -8.2823    7.4508    0.9056 O   0  0  0  0  0  0  0  0  0  0  0  0
   -7.2330    7.9639   -1.0458 N   0  0  0  0  0  0  0  0  0  0  0  0
   -6.1012    8.0287   -1.8445 C   0  0  0  0  0  0  0  0  0  0  0  0
   -6.2045    8.6327   -3.0337 N   0  0  0  0  0  0  0  0  0  0  0  0
   -4.9099    7.5322   -1.4729 N   0  0  0  0  0  0  0  0  0  0  0  0
   -4.9001    7.0154   -0.2138 C   0  0  0  0  0  0  0  0  0  0  0  0
  1  2  2  0  0  0  0
  1  4  1  0  0  0  0
  1  3  1  0  0  0  0
  5  1  1  0  0  0  0
  6  7  2  6  0  0  0
  6  9  1  0  0  0  0
  6  5  1  0  0  0  0
  6  8  1  0  0  0  0
 10 11  2  1  0  0  0
 10 12  1  0  0  0  0
 10 13  1  0  0  0  0
 10  9  1  0  0  0  0
 13 14  1  0  0  0  0
 15 14  1  1  0  0  0
 15 16  1  0  0  0  0
 17 19  1  0  0  0  0
 17 15  1  0  0  0  0
 17 18  1  6  0  0  0
 19 21  1  0  0  0  0
 19 20  1  6  0  0  0
 21 16  1  0  0  0  0
 21 22  1  1  0  0  0
 22 32  1  0  0  0  0
 23 22  1  0  0  0  0
 23 24  2  0  0  0  0
 24 25  1  0  0  0  0
 25 26  1  0  0  0  0
 26 27  2  0  0  0  0
 26 28  1  0  0  0  0
 29 28  1  0  0  0  0
 29 30  1  0  0  0  0
 31 29  2  0  0  0  0
 32 25  2  0  0  0  0
 32 31  1  0  0  0  0
M  END
>  <CHROM.1>
161.02101634,70.84034897,-176.42581175,-173.04797100,-165.32811940,103.89545785
59.53885299,-54.51790628,-177.95291555,7.74320960,-1.39151866,3.97807209
0.08674271,0.81870584,0.01673041,3.05312180

>  <Name>
lig.pdb

>  <RI>
1.2169e+07

>  <Rbt.Current_Directory>
/home/itssahil/PROJECTS/Mol_Feturizer/New_Systems/rnas/5lwj

>  <Rbt.Executable>
rbdock ($Id: //depot/dev/client3/rdock/2013.1/src/exe/rbdock.cxx#4 $)

>  <Rbt.Library>
libRbt.so (2013.1, Build901 2013/11/27)

>  <Rbt.Parameter_File>
/export/apps/rDock/src/rDock_2013.1_src/data/scripts/dock_solv.prm

>  <Rbt.Receptor>
prm/blind_docking_40.prm

>  <SCORE>
-43.297

>  <SCORE.INTER>
-39.6186

>  <SCORE.INTER.CONST>
1

>  <SCORE.INTER.POLAR>
-3.68947

>  <SCORE.INTER.ROT>
8

>  <SCORE.INTER.SOLV>
24.055

>  <SCORE.INTER.VDW>
-31.0659

>  <SCORE.INTER.norm>
-1.23808

>  <SCORE.INTRA>
-3.79162

>  <SCORE.INTRA.DIHEDRAL>
-0.510232

>  <SCORE.INTRA.DIHEDRAL.0>
10.9248

>  <SCORE.INTRA.POLAR>
0

>  <SCORE.INTRA.POLAR.0>
0

>  <SCORE.INTRA.REPUL>
0

>  <SCORE.INTRA.REPUL.0>
0

>  <SCORE.INTRA.SOLV>
0.294235

>  <SCORE.INTRA.SOLV.lig_0>
-51.4104

>  <SCORE.INTRA.VDW>
-3.68362

>  <SCORE.INTRA.VDW.0>
0.110327

>  <SCORE.INTRA.norm>
-0.118488

>  <SCORE.RESTR>
0.113208

>  <SCORE.RESTR.CAVITY>
0.113208

>  <SCORE.RESTR.norm>
0.00353775

>  <SCORE.SYSTEM>
0

>  <SCORE.SYSTEM.CONST>
0

>  <SCORE.SYSTEM.DIHEDRAL>
0

>  <SCORE.SYSTEM.SOLV>
0

>  <SCORE.SYSTEM.norm>
0

>  <SCORE.heavy>
32

>  <SCORE.norm>
-1.35303

>  <RMSD>
14.584

$$$$
lig.pdb
 OpenBabel11021811523D
libRbt.so/2013.1/901 2013/11/27
 32 34  0  0  0  0  0  0  0  0999 V2000
    2.8287   -0.8123   -0.8055 P   0  0  0  0  0  0  0  0  0  0  0  0
    2.3949   -1.8757    0.1738 O   0  0  0  0  0  0  0  0  0  0  0  0
    4.4472   -0.8507   -0.6987 O   0  0  0  0  0  0  0  0  0  0  0  0
    2.5740   -1.0406   -2.2746 O   0  0  0  0  0  0  0  0  0  0  0  0
    2.0917    0.3852   -0.4511 O   0  0  0  0  0  0  0  0  0  0  0  0
    2.8265    1.5786   -0.9322 P   0  0  1  0  0  0  0  0  0  0  0  0
    4.0901    1.6830   -0.1650 O   0  0  0  0  0  0  0  0  0  0  0  0
    3.1459    1.4322   -2.3713 O   0  0  0  0  0  0  0  0  0  0  0  0
    1.9933    2.7891   -0.7227 O   0  0  0  0  0  0  0  0  0  0  0  0
    1.5930    3.2584    0.6250 P   0  0  1  0  0  0  0  0  0  0  0  0
    0.5034    2.4836    1.2529 O   0  0  0  0  0  0  0  0  0  0  0  0
    2.7134    3.6012    1.5290 O   0  0  0  0  0  0  0  0  0  0  0  0
    0.8738    4.6737    0.3111 O   0  0  0  0  0  0  0  0  0  0  0  0
    0.4385    5.5467    1.3363 C   0  0  0  0  0  0  0  0  0  0  0  0
   -0.8030    6.3553    0.9350 C   0  0  1  0  0  0  0  0  0  0  0  0
   -0.5254    7.1489   -0.2005 O   0  0  0  0  0  0  0  0  0  0  0  0
   -1.9682    5.4899    0.4237 C   0  0  1  0  0  0  0  0  0  0  0  0
   -2.7166    4.8217    1.4255 O   0  0  0  0  0  0  0  0  0  0  0  0
   -2.8113    6.4757   -0.3848 C   0  0  1  0  0  0  0  0  0  0  0  0
   -3.8169    7.0899    0.4017 O   0  0  0  0  0  0  0  0  0  0  0  0
   -1.7703    7.5291   -0.7591 C   0  0  2  0  0  0  0  0  0  0  0  0
   -1.6465    7.8126   -2.2049 N   0  0  0  0  0  0  0  0  0  0  0  0
   -0.6201    8.3784   -2.9181 C   0  0  0  0  0  0  0  0  0  0  0  0
   -0.8922    8.5696   -4.1831 N   0  0  0  0  0  0  0  0  0  0  0  0
   -2.1839    8.0734   -4.3312 C   0  0  0  0  0  0  0  0  0  0  0  0
   -3.0469    8.0377   -5.4731 C   0  0  0  0  0  0  0  0  0  0  0  0
   -2.8289    8.4913   -6.5947 O   0  0  0  0  0  0  0  0  0  0  0  0
   -4.2731    7.4136   -5.2072 N   0  0  0  0  0  0  0  0  0  0  0  0
   -4.6041    6.8567   -3.9811 C   0  0  0  0  0  0  0  0  0  0  0  0
   -5.7625    6.1948   -3.8832 N   0  0  0  0  0  0  0  0  0  0  0  0
   -3.8112    6.9354   -2.9000 N   0  0  0  0  0  0  0  0  0  0  0  0
   -2.6239    7.5579   -3.1351 C   0  0  0  0  0  0  0  0  0  0  0  0
  1  2  2  0  0  0  0
  1  4  1  0  0  0  0
  1  3  1  0  0  0  0
  5  1  1  0  0  0  0
  6  7  2  1  0  0  0
  6  9  1  0  0  0  0
  6  5  1  0  0  0  0
  6  8  1  0  0  0  0
 10 11  2  1  0  0  0
 10 12  1  0  0  0  0
 10 13  1  0  0  0  0
 10  9  1  0  0  0  0
 13 14  1  0  0  0  0
 15 14  1  6  0  0  0
 15 16  1  0  0  0  0
 17 19  1  0  0  0  0
 17 15  1  0  0  0  0
 17 18  1  1  0  0  0
 19 21  1  0  0  0  0
 19 20  1  1  0  0  0
 21 16  1  0  0  0  0
 21 22  1  6  0  0  0
 22 32  1  0  0  0  0
 23 22  1  0  0  0  0
 23 24  2  0  0  0  0
 24 25  1  0  0  0  0
 25 26  1  0  0  0  0
 26 27  2  0  0  0  0
 26 28  1  0  0  0  0
 29 28  1  0  0  0  0
 29 30  1  0  0  0  0
 31 29  2  0  0  0  0
 32 25  2  0  0  0  0
 32 31  1  0  0  0  0
M  END
>  <CHROM.1>
156.11204194,63.62398142,-66.82235831,-173.91697160,-76.42577427,-148.53614096
-60.25811316,173.94559886,40.45724280,-35.25457630,-0.07256815,4.26932339
-1.26590045,-0.15415032,0.89734395,-1.75304695

>  <Name>
lig.pdb

>  <RI>
2.72908e+07

>  <Rbt.Current_Directory>
/home/itssahil/PROJECTS/Mol_Feturizer/New_Systems/rnas/5lwj

>  <Rbt.Executable>
rbdock ($Id: //depot/dev/client3/rdock/2013.1/src/exe/rbdock.cxx#4 $)

>  <Rbt.Library>
libRbt.so (2013.1, Build901 2013/11/27)

>  <Rbt.Parameter_File>
/export/apps/rDock/src/rDock_2013.1_src/data/scripts/dock_solv.prm

>  <Rbt.Receptor>
prm/blind_docking_20.prm

>  <SCORE>
-30.5285

>  <SCORE.INTER>
-29.0311

>  <SCORE.INTER.CONST>
1

>  <SCORE.INTER.POLAR>
-2.0539

>  <SCORE.INTER.ROT>
8

>  <SCORE.INTER.SOLV>
20.4242

>  <SCORE.INTER.VDW>
-28.2492

>  <SCORE.INTER.norm>
-0.907223

>  <SCORE.INTRA>
-2.88316

>  <SCORE.INTRA.DIHEDRAL>
-1.43768

>  <SCORE.INTRA.DIHEDRAL.0>
10.9248

>  <SCORE.INTRA.POLAR>
0

>  <SCORE.INTRA.POLAR.0>
0

>  <SCORE.INTRA.REPUL>
0

>  <SCORE.INTRA.REPUL.0>
0

>  <SCORE.INTRA.SOLV>
-0.275699

>  <SCORE.INTRA.SOLV.lig_0>
-51.4104

>  <SCORE.INTRA.VDW>
-2.02648

>  <SCORE.INTRA.VDW.0>
0.110327

>  <SCORE.INTRA.norm>
-0.0900989

>  <SCORE.RESTR>
1.38585

>  <SCORE.RESTR.CAVITY>
1.38585

>  <SCORE.RESTR.norm>
0.0433079

>  <SCORE.SYSTEM>
0

>  <SCORE.SYSTEM.CONST>
0

>  <SCORE.SYSTEM.DIHEDRAL>
0

>  <SCORE.SYSTEM.SOLV>
0

>  <SCORE.SYSTEM.norm>
0

>  <SCORE.heavy>
32

>  <SCORE.norm>
-0.954014

>  <RMSD>
14.586

$$$$
lig.pdb
 OpenBabel11021811523D
libRbt.so/2013.1/901 2013/11/27
 32 34  0  0  0  0  0  0  0  0999 V2000
    2.6771   -1.1534   -2.1045 P   0  0  0  0  0  0  0  0  0  0  0  0
    2.2333   -2.2415   -3.0516 O   0  0  0  0  0  0  0  0  0  0  0  0
    1.5428   -1.1884   -0.9449 O   0  0  0  0  0  0  0  0  0  0  0  0
    3.9613   -1.3475   -1.3373 O   0  0  0  0  0  0  0  0  0  0  0  0
    2.8692    0.0326   -2.9164 O   0  0  0  0  0  0  0  0  0  0  0  0
    3.0747    1.2066   -2.0360 P   0  0  1  0  0  0  0  0  0  0  0  0
    4.3840    1.0526   -1.3593 O   0  0  0  0  0  0  0  0  0  0  0  0
    3.0909    2.4493   -2.8424 O   0  0  0  0  0  0  0  0  0  0  0  0
    1.9801    1.2710   -1.0353 O   0  0  0  0  0  0  0  0  0  0  0  0
    2.2127    1.6539    0.3775 P   0  0  1  0  0  0  0  0  0  0  0  0
    2.2883    0.5212    1.3225 O   0  0  0  0  0  0  0  0  0  0  0  0
    3.2342    2.7048    0.5832 O   0  0  0  0  0  0  0  0  0  0  0  0
    0.8150    2.3564    0.7916 O   0  0  0  0  0  0  0  0  0  0  0  0
    0.7613    3.5367    1.5706 C   0  0  0  0  0  0  0  0  0  0  0  0
    0.2006    4.7337    0.7901 C   0  0  1  0  0  0  0  0  0  0  0  0
   -1.2047    4.6343    0.6827 O   0  0  0  0  0  0  0  0  0  0  0  0
    0.3553    6.0786    1.5216 C   0  0  1  0  0  0  0  0  0  0  0  0
    1.6528    6.6488    1.4811 O   0  0  0  0  0  0  0  0  0  0  0  0
   -0.7001    6.9638    0.8593 C   0  0  1  0  0  0  0  0  0  0  0  0
   -0.1792    7.6817   -0.2454 O   0  0  0  0  0  0  0  0  0  0  0  0
   -1.6899    5.9210    0.3432 C   0  0  2  0  0  0  0  0  0  0  0  0
   -3.0892    6.1016    0.7852 N   0  0  0  0  0  0  0  0  0  0  0  0
   -3.7399    5.6347    1.8992 C   0  0  0  0  0  0  0  0  0  0  0  0
   -5.0188    5.9081    1.9230 N   0  0  0  0  0  0  0  0  0  0  0  0
   -5.2332    6.6308    0.7532 C   0  0  0  0  0  0  0  0  0  0  0  0
   -6.4355    7.1733    0.1963 C   0  0  0  0  0  0  0  0  0  0  0  0
   -7.5791    7.0754    0.6365 O   0  0  0  0  0  0  0  0  0  0  0  0
   -6.2131    7.8712   -0.9985 N   0  0  0  0  0  0  0  0  0  0  0  0
   -4.9597    8.0505   -1.5641 C   0  0  0  0  0  0  0  0  0  0  0  0
   -4.8647    8.8266   -2.6496 N   0  0  0  0  0  0  0  0  0  0  0  0
   -3.8419    7.4989   -1.0639 N   0  0  0  0  0  0  0  0  0  0  0  0
   -4.0431    6.7989    0.0859 C   0  0  0  0  0  0  0  0  0  0  0  0
  1  2  2  0  0  0  0
  1  4  1  0  0  0  0
  1  3  1  0  0  0  0
  5  1  1  0  0  0  0
  6  7  2  1  0  0  0
  6  9  1  0  0  0  0
  6  5  1  0  0  0  0
  6  8  1  0  0  0  0
 10 11  2  1  0  0  0
 10 12  1  0  0  0  0
 10 13  1  0  0  0  0
 10  9  1  0  0  0  0
 13 14  1  0  0  0  0
 15 14  1  1  0  0  0
 15 16  1  0  0  0  0
 17 19  1  0  0  0  0
 17 15  1  0  0  0  0
 17 18  1  6  0  0  0
 19 21  1  0  0  0  0
 19 20  1  6  0  0  0
 21 16  1  0  0  0  0
 21 22  1  1  0  0  0
 22 32  1  0  0  0  0
 23 22  1  0  0  0  0
 23 24  2  0  0  0  0
 24 25  1  0  0  0  0
 25 26  1  0  0  0  0
 26 27  2  0  0  0  0
 26 28  1  0  0  0  0
 29 28  1  0  0  0  0
 29 30  1  0  0  0  0
 31 29  2  0  0  0  0
 32 25  2  0  0  0  0
 32 31  1  0  0  0  0
M  END
>  <CHROM.1>
170.12506612,140.55425814,68.54524562,-138.41845778,-100.12121458,114.07576183
76.90327067,-9.71678669,58.83279059,35.33089281,-0.18295751,3.62494514,-0.38061354
0.70958322,0.33413802,-2.57882113

>  <Name>
lig.pdb

>  <RI>
1.2169e+07

>  <Rbt.Current_Directory>
/home/itssahil/PROJECTS/Mol_Feturizer/New_Systems/rnas/5lwj

>  <Rbt.Executable>
rbdock ($Id: //depot/dev/client3/rdock/2013.1/src/exe/rbdock.cxx#4 $)

>  <Rbt.Library>
libRbt.so (2013.1, Build901 2013/11/27)

>  <Rbt.Parameter_File>
/export/apps/rDock/src/rDock_2013.1_src/data/scripts/dock_solv.prm

>  <Rbt.Receptor>
prm/blind_docking_40.prm

>  <SCORE>
-22.7159

>  <SCORE.INTER>
-28.6622

>  <SCORE.INTER.CONST>
1

>  <SCORE.INTER.POLAR>
-1.78913

>  <SCORE.INTER.ROT>
8

>  <SCORE.INTER.SOLV>
23.2838

>  <SCORE.INTER.VDW>
-29.839

>  <SCORE.INTER.norm>
-0.895694

>  <SCORE.INTRA>
4.76161

>  <SCORE.INTRA.DIHEDRAL>
11.5795

>  <SCORE.INTRA.DIHEDRAL.0>
10.9248

>  <SCORE.INTRA.POLAR>
0

>  <SCORE.INTRA.POLAR.0>
0

>  <SCORE.INTRA.REPUL>
0

>  <SCORE.INTRA.REPUL.0>
0

>  <SCORE.INTRA.SOLV>
0.548438

>  <SCORE.INTRA.SOLV.lig_0>
-51.4104

>  <SCORE.INTRA.VDW>
-1.30237

>  <SCORE.INTRA.VDW.0>
0.110327

>  <SCORE.INTRA.norm>
0.1488

>  <SCORE.RESTR>
1.18469

>  <SCORE.RESTR.CAVITY>
1.18469

>  <SCORE.RESTR.norm>
0.0370214

>  <SCORE.SYSTEM>
0

>  <SCORE.SYSTEM.CONST>
0

>  <SCORE.SYSTEM.DIHEDRAL>
0

>  <SCORE.SYSTEM.SOLV>
0

>  <SCORE.SYSTEM.norm>
0

>  <SCORE.heavy>
32

>  <SCORE.norm>
-0.709872

>  <RMSD>
14.590

$$$$
lig.pdb
 OpenBabel11021811523D
libRbt.so/2013.1/901 2013/11/27
 32 34  0  0  0  0  0  0  0  0999 V2000
    0.0769   -1.1150    0.9098 P   0  0  0  0  0  0  0  0  0  0  0  0
   -0.0841   -1.9593   -0.3308 O   0  0  0  0  0  0  0  0  0  0  0  0
   -0.9905    0.0853    0.6802 O   0  0  0  0  0  0  0  0  0  0  0  0
   -0.3404   -1.6991    2.2364 O   0  0  0  0  0  0  0  0  0  0  0  0
    1.4948   -0.8329    1.0229 O   0  0  0  0  0  0  0  0  0  0  0  0
    1.8128    0.4087    0.2793 P   0  0  1  0  0  0  0  0  0  0  0  0
    3.2872    0.5358    0.2024 O   0  0  0  0  0  0  0  0  0  0  0  0
    1.2621    0.3333   -1.0939 O   0  0  0  0  0  0  0  0  0  0  0  0
    1.2301    1.5736    0.9914 O   0  0  0  0  0  0  0  0  0  0  0  0
    1.6847    2.9639    0.7515 P   0  0  1  0  0  0  0  0  0  0  0  0
    2.8583    3.3783    1.5468 O   0  0  0  0  0  0  0  0  0  0  0  0
    1.7187    3.3770   -0.6692 O   0  0  0  0  0  0  0  0  0  0  0  0
    0.4957    3.8459    1.4050 O   0  0  0  0  0  0  0  0  0  0  0  0
    0.4866    5.2602    1.3567 C   0  0  0  0  0  0  0  0  0  0  0  0
    0.0801    5.8008   -0.0213 C   0  0  1  0  0  0  0  0  0  0  0  0
   -1.3122    5.6559   -0.2137 O   0  0  0  0  0  0  0  0  0  0  0  0
    0.2501    7.3234   -0.1651 C   0  0  1  0  0  0  0  0  0  0  0  0
    1.5792    7.7715   -0.3717 O   0  0  0  0  0  0  0  0  0  0  0  0
   -0.6790    7.6738   -1.3270 C   0  0  1  0  0  0  0  0  0  0  0  0
   -0.0108    7.6377   -2.5757 O   0  0  0  0  0  0  0  0  0  0  0  0
   -1.6799    6.5210   -1.2733 C   0  0  2  0  0  0  0  0  0  0  0  0
   -3.1004    6.9187   -1.1741 N   0  0  0  0  0  0  0  0  0  0  0  0
   -3.6921    8.1508   -1.2933 C   0  0  0  0  0  0  0  0  0  0  0  0
   -4.9767    8.1511   -1.0471 N   0  0  0  0  0  0  0  0  0  0  0  0
   -5.2690    6.8196   -0.7674 C   0  0  0  0  0  0  0  0  0  0  0  0
   -6.4976    6.1925   -0.3838 C   0  0  0  0  0  0  0  0  0  0  0  0
   -7.5838    6.7300   -0.1773 O   0  0  0  0  0  0  0  0  0  0  0  0
   -6.3728    4.8055   -0.2266 N   0  0  0  0  0  0  0  0  0  0  0  0
   -5.1962    4.1074   -0.4530 C   0  0  0  0  0  0  0  0  0  0  0  0
   -5.2316    2.7725   -0.3726 N   0  0  0  0  0  0  0  0  0  0  0  0
   -4.0351    4.7056   -0.7655 N   0  0  0  0  0  0  0  0  0  0  0  0
   -4.1335    6.0563   -0.9013 C   0  0  0  0  0  0  0  0  0  0  0  0
  1  2  2  0  0  0  0
  1  4  1  0  0  0  0
  1  3  1  0  0  0  0
  5  1  1  0  0  0  0
  6  7  2  6  0  0  0
  6  9  1  0  0  0  0
  6  5  1  0  0  0  0
  6  8  1  0  0  0  0
 10 11  2  1  0  0  0
 10 12  1  0  0  0  0
 10 13  1  0  0  0  0
 10  9  1  0  0  0  0
 13 14  1  0  0  0  0
 15 14  1  1  0  0  0
 15 16  1  0  0  0  0
 17 19  1  0  0  0  0
 17 15  1  0  0  0  0
 17 18  1  6  0  0  0
 19 21  1  0  0  0  0
 19 20  1  6  0  0  0
 21 16  1  0  0  0  0
 21 22  1  1  0  0  0
 22 32  1  0  0  0  0
 23 22  1  0  0  0  0
 23 24  2  0  0  0  0
 24 25  1  0  0  0  0
 25 26  1  0  0  0  0
 26 27  2  0  0  0  0
 26 28  1  0  0  0  0
 29 28  1  0  0  0  0
 29 30  1  0  0  0  0
 31 29  2  0  0  0  0
 32 25  2  0  0  0  0
 32 31  1  0  0  0  0
M  END
>  <CHROM.1>
89.15607770,161.53742021,-169.77568497,-177.41263965,-85.55760217,76.50933571
74.94480428,152.11220172,56.31173703,133.71141007,-0.96452210,3.61030580
-0.03095908,0.89122305,0.04629753,2.95969394

>  <Name>
lig.pdb

>  <RI>
3.17878e+07

>  <Rbt.Current_Directory>
/home/itssahil/PROJECTS/Mol_Feturizer/New_Systems/rnas/5lwj

>  <Rbt.Executable>
rbdock ($Id: //depot/dev/client3/rdock/2013.1/src/exe/rbdock.cxx#4 $)

>  <Rbt.Library>
libRbt.so (2013.1, Build901 2013/11/27)

>  <Rbt.Parameter_File>
/export/apps/rDock/src/rDock_2013.1_src/data/scripts/dock_solv.prm

>  <Rbt.Receptor>
prm/blind_docking_100.prm

>  <SCORE>
-29.5218

>  <SCORE.INTER>
-29.6658

>  <SCORE.INTER.CONST>
1

>  <SCORE.INTER.POLAR>
-3.04913

>  <SCORE.INTER.ROT>
8

>  <SCORE.INTER.SOLV>
26.4714

>  <SCORE.INTER.VDW>
-27.3706

>  <SCORE.INTER.norm>
-0.927056

>  <SCORE.INTRA>
-2.81652

>  <SCORE.INTRA.DIHEDRAL>
-0.43867

>  <SCORE.INTRA.DIHEDRAL.0>
10.9248

>  <SCORE.INTRA.POLAR>
0

>  <SCORE.INTRA.POLAR.0>
0

>  <SCORE.INTRA.REPUL>
0.0910057

>  <SCORE.INTRA.REPUL.0>
0

>  <SCORE.INTRA.SOLV>
-0.462366

>  <SCORE.INTRA.SOLV.lig_0>
-51.4104

>  <SCORE.INTRA.VDW>
-2.82103

>  <SCORE.INTRA.VDW.0>
0.110327

>  <SCORE.INTRA.norm>
-0.0880161

>  <SCORE.RESTR>
2.96053

>  <SCORE.RESTR.CAVITY>
2.96053

>  <SCORE.RESTR.norm>
0.0925167

>  <SCORE.SYSTEM>
0

>  <SCORE.SYSTEM.CONST>
0

>  <SCORE.SYSTEM.DIHEDRAL>
0

>  <SCORE.SYSTEM.SOLV>
0

>  <SCORE.SYSTEM.norm>
0

>  <SCORE.heavy>
32

>  <SCORE.norm>
-0.922555

>  <RMSD>
14.594

$$$$
lig.pdb
 OpenBabel11021811523D
libRbt.so/2013.1/901 2013/11/27
 32 34  0  0  0  0  0  0  0  0999 V2000
   -5.8590    6.5137   -3.4189 P   0  0  0  0  0  0  0  0  0  0  0  0
   -6.0387    7.9209   -3.9340 O   0  0  0  0  0  0  0  0  0  0  0  0
   -7.3743    6.0544   -3.0644 O   0  0  0  0  0  0  0  0  0  0  0  0
   -5.3919    5.4499   -4.3808 O   0  0  0  0  0  0  0  0  0  0  0  0
   -4.8475    6.5910   -2.3827 O   0  0  0  0  0  0  0  0  0  0  0  0
   -5.2517    7.5954   -1.3711 P   0  0  1  0  0  0  0  0  0  0  0  0
   -4.8039    8.9281   -1.8394 O   0  0  0  0  0  0  0  0  0  0  0  0
   -6.7259    7.6047   -1.2256 O   0  0  0  0  0  0  0  0  0  0  0  0
   -4.6200    7.2662   -0.0687 O   0  0  0  0  0  0  0  0  0  0  0  0
   -5.1594    6.2259    0.8389 P   0  0  1  0  0  0  0  0  0  0  0  0
   -5.7487    6.7411    2.0916 O   0  0  0  0  0  0  0  0  0  0  0  0
   -5.9417    5.1588    0.1762 O   0  0  0  0  0  0  0  0  0  0  0  0
   -3.8215    5.4839    1.3663 O   0  0  0  0  0  0  0  0  0  0  0  0
   -2.8394    4.9743    0.4840 C   0  0  0  0  0  0  0  0  0  0  0  0
   -1.4228    5.0507    1.0704 C   0  0  1  0  0  0  0  0  0  0  0  0
   -0.7687    3.8055    0.9361 O   0  0  0  0  0  0  0  0  0  0  0  0
   -0.4764    5.9774    0.2872 C   0  0  1  0  0  0  0  0  0  0  0  0
   -0.6552    7.3652    0.5156 O   0  0  0  0  0  0  0  0  0  0  0  0
    0.9132    5.4860    0.6920 C   0  0  1  0  0  0  0  0  0  0  0  0
    1.4182    6.1798    1.8193 O   0  0  0  0  0  0  0  0  0  0  0  0
    0.6185    4.0428    1.0965 C   0  0  2  0  0  0  0  0  0  0  0  0
    1.4233    3.0134    0.4046 N   0  0  0  0  0  0  0  0  0  0  0  0
    2.5544    3.1325   -0.3628 C   0  0  0  0  0  0  0  0  0  0  0  0
    2.9499    2.0107   -0.9066 N   0  0  0  0  0  0  0  0  0  0  0  0
    2.0317    1.0699   -0.4501 C   0  0  0  0  0  0  0  0  0  0  0  0
    1.9083   -0.3288   -0.7299 C   0  0  0  0  0  0  0  0  0  0  0  0
    2.5941   -1.0064   -1.4927 O   0  0  0  0  0  0  0  0  0  0  0  0
    0.8522   -0.9305   -0.0324 N   0  0  0  0  0  0  0  0  0  0  0  0
    0.0355   -0.2547    0.8616 C   0  0  0  0  0  0  0  0  0  0  0  0
   -0.8701   -0.9633    1.5454 N   0  0  0  0  0  0  0  0  0  0  0  0
    0.1244    1.0668    1.0841 N   0  0  0  0  0  0  0  0  0  0  0  0
    1.1322    1.6716    0.3977 C   0  0  0  0  0  0  0  0  0  0  0  0
  1  2  2  0  0  0  0
  1  4  1  0  0  0  0
  1  3  1  0  0  0  0
  5  1  1  0  0  0  0
  6  7  2  6  0  0  0
  6  9  1  0  0  0  0
  6  5  1  0  0  0  0
  6  8  1  0  0  0  0
 10 11  2  1  0  0  0
 10 12  1  0  0  0  0
 10 13  1  0  0  0  0
 10  9  1  0  0  0  0
 13 14  1  0  0  0  0
 15 14  1  6  0  0  0
 15 16  1  0  0  0  0
 17 19  1  0  0  0  0
 17 15  1  0  0  0  0
 17 18  1  1  0  0  0
 19 21  1  0  0  0  0
 19 20  1  1  0  0  0
 21 16  1  0  0  0  0
 21 22  1  6  0  0  0
 22 32  1  0  0  0  0
 23 22  1  0  0  0  0
 23 24  2  0  0  0  0
 24 25  1  0  0  0  0
 25 26  1  0  0  0  0
 26 27  2  0  0  0  0
 26 28  1  0  0  0  0
 29 28  1  0  0  0  0
 29 30  1  0  0  0  0
 31 29  2  0  0  0  0
 32 25  2  0  0  0  0
 32 31  1  0  0  0  0
M  END
>  <CHROM.1>
54.65276216,-80.04434823,-85.44953132,-52.64520140,-110.75268732,147.67410124
130.68929920,-60.66319811,-69.23002910,137.54357647,-2.38167729,4.69956181
-0.43826342,2.67858524,-0.56281618,0.50695233

>  <Name>
lig.pdb

>  <RI>
1.17715e+07

>  <Rbt.Current_Directory>
/home/itssahil/PROJECTS/Mol_Feturizer/New_Systems/rnas/5lwj

>  <Rbt.Executable>
rbdock ($Id: //depot/dev/client3/rdock/2013.1/src/exe/rbdock.cxx#4 $)

>  <Rbt.Library>
libRbt.so (2013.1, Build901 2013/11/27)

>  <Rbt.Parameter_File>
/export/apps/rDock/src/rDock_2013.1_src/data/scripts/dock_solv.prm

>  <Rbt.Receptor>
prm/blind_docking_60.prm

>  <SCORE>
-12.821

>  <SCORE.INTER>
-14.6855

>  <SCORE.INTER.CONST>
1

>  <SCORE.INTER.POLAR>
-1.98776

>  <SCORE.INTER.ROT>
8

>  <SCORE.INTER.SOLV>
25.5078

>  <SCORE.INTER.VDW>
-20.6004

>  <SCORE.INTER.norm>
-0.458922

>  <SCORE.INTRA>
1.52505

>  <SCORE.INTRA.DIHEDRAL>
4.31949

>  <SCORE.INTRA.DIHEDRAL.0>
10.9248

>  <SCORE.INTRA.POLAR>
0

>  <SCORE.INTRA.POLAR.0>
0

>  <SCORE.INTRA.REPUL>
0.13033

>  <SCORE.INTRA.REPUL.0>
0

>  <SCORE.INTRA.SOLV>
-0.466156

>  <SCORE.INTRA.SOLV.lig_0>
-51.4104

>  <SCORE.INTRA.VDW>
-1.05327

>  <SCORE.INTRA.VDW.0>
0.110327

>  <SCORE.INTRA.norm>
0.0476577

>  <SCORE.RESTR>
0.33943

>  <SCORE.RESTR.CAVITY>
0.33943

>  <SCORE.RESTR.norm>
0.0106072

>  <SCORE.SYSTEM>
0

>  <SCORE.SYSTEM.CONST>
0

>  <SCORE.SYSTEM.DIHEDRAL>
0

>  <SCORE.SYSTEM.SOLV>
0

>  <SCORE.SYSTEM.norm>
0

>  <SCORE.heavy>
32

>  <SCORE.norm>
-0.400657

>  <RMSD>
14.597

$$$$
lig.pdb
 OpenBabel11021811523D
libRbt.so/2013.1/901 2013/11/27
 32 34  0  0  0  0  0  0  0  0999 V2000
    0.0054    8.5044   -2.3257 P   0  0  0  0  0  0  0  0  0  0  0  0
   -0.8695    9.6675   -2.7253 O   0  0  0  0  0  0  0  0  0  0  0  0
   -0.3397    7.3816   -3.4449 O   0  0  0  0  0  0  0  0  0  0  0  0
    1.5016    8.6575   -2.4400 O   0  0  0  0  0  0  0  0  0  0  0  0
   -0.2676    8.2594   -0.9228 O   0  0  0  0  0  0  0  0  0  0  0  0
   -0.7448    6.8676   -0.7476 P   0  0  1  0  0  0  0  0  0  0  0  0
   -2.0133    6.7165   -1.4986 O   0  0  0  0  0  0  0  0  0  0  0  0
    0.2536    5.9166   -1.2894 O   0  0  0  0  0  0  0  0  0  0  0  0
   -0.9636    6.5987    0.6958 O   0  0  0  0  0  0  0  0  0  0  0  0
   -1.7239    5.4227    1.1816 P   0  0  1  0  0  0  0  0  0  0  0  0
   -2.6272    5.6948    2.3182 O   0  0  0  0  0  0  0  0  0  0  0  0
   -2.2990    4.5651    0.1215 O   0  0  0  0  0  0  0  0  0  0  0  0
   -0.5740    4.5117    1.8648 O   0  0  0  0  0  0  0  0  0  0  0  0
    0.7128    4.3623    1.2952 C   0  0  0  0  0  0  0  0  0  0  0  0
    0.9709    2.9372    0.7863 C   0  0  1  0  0  0  0  0  0  0  0  0
    1.5116    2.9729   -0.5186 O   0  0  0  0  0  0  0  0  0  0  0  0
    2.0787    2.1953    1.5545 C   0  0  1  0  0  0  0  0  0  0  0  0
    1.7038    1.6839    2.8225 O   0  0  0  0  0  0  0  0  0  0  0  0
    2.5109    1.1001    0.5798 C   0  0  1  0  0  0  0  0  0  0  0  0
    1.7873   -0.1026    0.7719 O   0  0  0  0  0  0  0  0  0  0  0  0
    2.1029    1.7087   -0.7605 C   0  0  2  0  0  0  0  0  0  0  0  0
    3.1808    1.8036   -1.7682 N   0  0  0  0  0  0  0  0  0  0  0  0
    3.6318    2.8774   -2.4932 C   0  0  0  0  0  0  0  0  0  0  0  0
    4.5479    2.5767   -3.3771 N   0  0  0  0  0  0  0  0  0  0  0  0
    4.7406    1.2082   -3.2140 C   0  0  0  0  0  0  0  0  0  0  0  0
    5.5854    0.2921   -3.9191 C   0  0  0  0  0  0  0  0  0  0  0  0
    6.3163    0.5295   -4.8785 O   0  0  0  0  0  0  0  0  0  0  0  0
    5.5092   -1.0135   -3.4157 N   0  0  0  0  0  0  0  0  0  0  0  0
    4.7285   -1.3755   -2.3282 C   0  0  0  0  0  0  0  0  0  0  0  0
    4.8229   -2.6312   -1.8764 N   0  0  0  0  0  0  0  0  0  0  0  0
    3.9015   -0.5233   -1.7009 N   0  0  0  0  0  0  0  0  0  0  0  0
    3.9469    0.7456   -2.1912 C   0  0  0  0  0  0  0  0  0  0  0  0
  1  2  2  0  0  0  0
  1  4  1  0  0  0  0
  1  3  1  0  0  0  0
  5  1  1  0  0  0  0
  6  7  2  6  0  0  0
  6  9  1  0  0  0  0
  6  5  1  0  0  0  0
  6  8  1  0  0  0  0
 10 11  2  1  0  0  0
 10 12  1  0  0  0  0
 10 13  1  0  0  0  0
 10  9  1  0  0  0  0
 13 14  1  0  0  0  0
 15 14  1  1  0  0  0
 15 16  1  0  0  0  0
 17 19  1  0  0  0  0
 17 15  1  0  0  0  0
 17 18  1  1  0  0  0
 19 21  1  0  0  0  0
 19 20  1  1  0  0  0
 21 16  1  0  0  0  0
 21 22  1  6  0  0  0
 22 32  1  0  0  0  0
 23 22  1  0  0  0  0
 23 24  2  0  0  0  0
 24 25  1  0  0  0  0
 25 26  1  0  0  0  0
 26 27  2  0  0  0  0
 26 28  1  0  0  0  0
 29 28  1  0  0  0  0
 29 30  1  0  0  0  0
 31 29  2  0  0  0  0
 32 25  2  0  0  0  0
 32 31  1  0  0  0  0
M  END
>  <CHROM.1>
121.70391523,165.67999023,-62.33731575,-39.81196785,-139.19588177,-112.33185638
132.38400372,-54.95800541,62.73233601,-2.36409124,1.31880235,3.89653981,-0.97097719
-2.59641532,-0.81320087,2.47327150

>  <Name>
lig.pdb

>  <RI>
1.2169e+07

>  <Rbt.Current_Directory>
/home/itssahil/PROJECTS/Mol_Feturizer/New_Systems/rnas/5lwj

>  <Rbt.Executable>
rbdock ($Id: //depot/dev/client3/rdock/2013.1/src/exe/rbdock.cxx#4 $)

>  <Rbt.Library>
libRbt.so (2013.1, Build901 2013/11/27)

>  <Rbt.Parameter_File>
/export/apps/rDock/src/rDock_2013.1_src/data/scripts/dock_solv.prm

>  <Rbt.Receptor>
prm/blind_docking_40.prm

>  <SCORE>
-23.6651

>  <SCORE.INTER>
-29.5848

>  <SCORE.INTER.CONST>
1

>  <SCORE.INTER.POLAR>
-1.65143

>  <SCORE.INTER.ROT>
8

>  <SCORE.INTER.SOLV>
25.9727

>  <SCORE.INTER.VDW>
-31.8093

>  <SCORE.INTER.norm>
-0.924524

>  <SCORE.INTRA>
4.2684

>  <SCORE.INTRA.DIHEDRAL>
8.87931

>  <SCORE.INTRA.DIHEDRAL.0>
10.9248

>  <SCORE.INTRA.POLAR>
0

>  <SCORE.INTRA.POLAR.0>
0

>  <SCORE.INTRA.REPUL>
0.574336

>  <SCORE.INTRA.REPUL.0>
0

>  <SCORE.INTRA.SOLV>
-0.909017

>  <SCORE.INTRA.SOLV.lig_0>
-51.4104

>  <SCORE.INTRA.VDW>
-2.58843

>  <SCORE.INTRA.VDW.0>
0.110327

>  <SCORE.INTRA.norm>
0.133387

>  <SCORE.RESTR>
1.6513

>  <SCORE.RESTR.CAVITY>
1.6513

>  <SCORE.RESTR.norm>
0.051603

>  <SCORE.SYSTEM>
0

>  <SCORE.SYSTEM.CONST>
0

>  <SCORE.SYSTEM.DIHEDRAL>
0

>  <SCORE.SYSTEM.SOLV>
0

>  <SCORE.SYSTEM.norm>
0

>  <SCORE.heavy>
32

>  <SCORE.norm>
-0.739534

>  <RMSD>
14.605

$$$$
lig.pdb
 OpenBabel11021811523D
libRbt.so/2013.1/901 2013/11/27
 32 34  0  0  0  0  0  0  0  0999 V2000
    3.3810   -0.7554   -0.7504 P   0  0  0  0  0  0  0  0  0  0  0  0
    3.0304   -2.0228   -0.0097 O   0  0  0  0  0  0  0  0  0  0  0  0
    4.9786   -0.9004   -0.9941 O   0  0  0  0  0  0  0  0  0  0  0  0
    2.8354   -0.5620   -2.1432 O   0  0  0  0  0  0  0  0  0  0  0  0
    2.8496    0.3348    0.0445 O   0  0  0  0  0  0  0  0  0  0  0  0
    3.5836    1.5821   -0.2734 P   0  0  1  0  0  0  0  0  0  0  0  0
    4.9458    1.4750    0.2999 O   0  0  0  0  0  0  0  0  0  0  0  0
    3.6891    1.7490   -1.7416 O   0  0  0  0  0  0  0  0  0  0  0  0
    2.8654    2.7410    0.3139 O   0  0  0  0  0  0  0  0  0  0  0  0
    1.4575    2.6590    0.7699 P   0  0  1  0  0  0  0  0  0  0  0  0
    0.6157    1.7083    0.0152 O   0  0  0  0  0  0  0  0  0  0  0  0
    1.2741    2.6223    2.2379 O   0  0  0  0  0  0  0  0  0  0  0  0
    0.8521    4.0902    0.3183 O   0  0  0  0  0  0  0  0  0  0  0  0
    0.8166    5.2065    1.1873 C   0  0  0  0  0  0  0  0  0  0  0  0
   -0.3470    6.1586    0.8775 C   0  0  1  0  0  0  0  0  0  0  0  0
   -0.1428    6.7934   -0.3682 O   0  0  0  0  0  0  0  0  0  0  0  0
   -1.6875    5.4423    0.6377 C   0  0  1  0  0  0  0  0  0  0  0  0
   -2.3553    4.9919    1.8045 O   0  0  0  0  0  0  0  0  0  0  0  0
   -2.5007    6.4698   -0.1492 C   0  0  1  0  0  0  0  0  0  0  0  0
   -3.2742    7.3015    0.6976 O   0  0  0  0  0  0  0  0  0  0  0  0
   -1.3943    7.3104   -0.7839 C   0  0  2  0  0  0  0  0  0  0  0  0
   -1.4607    7.4391   -2.2553 N   0  0  0  0  0  0  0  0  0  0  0  0
   -0.5086    7.8367   -3.1596 C   0  0  0  0  0  0  0  0  0  0  0  0
   -0.9463    7.9278   -4.3888 N   0  0  0  0  0  0  0  0  0  0  0  0
   -2.2800    7.5394   -4.3038 C   0  0  0  0  0  0  0  0  0  0  0  0
   -3.3000    7.4715   -5.3063 C   0  0  0  0  0  0  0  0  0  0  0  0
   -3.2133    7.7918   -6.4900 O   0  0  0  0  0  0  0  0  0  0  0  0
   -4.5186    6.9907   -4.8087 N   0  0  0  0  0  0  0  0  0  0  0  0
   -4.7095    6.5885   -3.4953 C   0  0  0  0  0  0  0  0  0  0  0  0
   -5.8885    6.0477   -3.1683 N   0  0  0  0  0  0  0  0  0  0  0  0
   -3.7641    6.6995   -2.5479 N   0  0  0  0  0  0  0  0  0  0  0  0
   -2.5795    7.1852   -3.0097 C   0  0  0  0  0  0  0  0  0  0  0  0
  1  2  2  0  0  0  0
  1  4  1  0  0  0  0
  1  3  1  0  0  0  0
  5  1  1  0  0  0  0
  6  7  2  1  0  0  0
  6  9  1  0  0  0  0
  6  5  1  0  0  0  0
  6  8  1  0  0  0  0
 10 11  2  6  0  0  0
 10 12  1  0  0  0  0
 10 13  1  0  0  0  0
 10  9  1  0  0  0  0
 13 14  1  0  0  0  0
 15 14  1  6  0  0  0
 15 16  1  0  0  0  0
 17 19  1  0  0  0  0
 17 15  1  0  0  0  0
 17 18  1  1  0  0  0
 19 21  1  0  0  0  0
 19 20  1  1  0  0  0
 21 16  1  0  0  0  0
 21 22  1  6  0  0  0
 22 32  1  0  0  0  0
 23 22  1  0  0  0  0
 23 24  2  0  0  0  0
 24 25  1  0  0  0  0
 25 26  1  0  0  0  0
 26 27  2  0  0  0  0
 26 28  1  0  0  0  0
 29 28  1  0  0  0  0
 29 30  1  0  0  0  0
 31 29  2  0  0  0  0
 32 25  2  0  0  0  0
 32 31  1  0  0  0  0
M  END
>  <CHROM.1>
157.16703347,-16.52395889,-71.57137059,-93.54668856,-31.15700112,-151.10973649
-68.02432313,63.26232235,-178.10186703,-38.99622001,0.15492536,4.03199560
-1.08673794,-0.20287218,0.82719854,-1.69396298

>  <Name>
lig.pdb

>  <RI>
1.17715e+07

>  <Rbt.Current_Directory>
/home/itssahil/PROJECTS/Mol_Feturizer/New_Systems/rnas/5lwj

>  <Rbt.Executable>
rbdock ($Id: //depot/dev/client3/rdock/2013.1/src/exe/rbdock.cxx#4 $)

>  <Rbt.Library>
libRbt.so (2013.1, Build901 2013/11/27)

>  <Rbt.Parameter_File>
/export/apps/rDock/src/rDock_2013.1_src/data/scripts/dock_solv.prm

>  <Rbt.Receptor>
prm/blind_docking_60.prm

>  <SCORE>
-27.9153

>  <SCORE.INTER>
-27.3919

>  <SCORE.INTER.CONST>
1

>  <SCORE.INTER.POLAR>
-0.481717

>  <SCORE.INTER.ROT>
8

>  <SCORE.INTER.SOLV>
20.4354

>  <SCORE.INTER.VDW>
-32.4007

>  <SCORE.INTER.norm>
-0.855996

>  <SCORE.INTRA>
-0.539641

>  <SCORE.INTRA.DIHEDRAL>
1.42562

>  <SCORE.INTRA.DIHEDRAL.0>
10.9248

>  <SCORE.INTRA.POLAR>
-0.0149608

>  <SCORE.INTRA.POLAR.0>
0

>  <SCORE.INTRA.REPUL>
0

>  <SCORE.INTRA.REPUL.0>
0

>  <SCORE.INTRA.SOLV>
0.0529759

>  <SCORE.INTRA.SOLV.lig_0>
-51.4104

>  <SCORE.INTRA.VDW>
-1.22807

>  <SCORE.INTRA.VDW.0>
0.110327

>  <SCORE.INTRA.norm>
-0.0168638

>  <SCORE.RESTR>
0.0162099

>  <SCORE.RESTR.CAVITY>
0.0162099

>  <SCORE.RESTR.norm>
0.00050656

>  <SCORE.SYSTEM>
0

>  <SCORE.SYSTEM.CONST>
0

>  <SCORE.SYSTEM.DIHEDRAL>
0

>  <SCORE.SYSTEM.SOLV>
0

>  <SCORE.SYSTEM.norm>
0

>  <SCORE.heavy>
32

>  <SCORE.norm>
-0.872354

>  <RMSD>
14.634

$$$$
lig.pdb
 OpenBabel11021811523D
libRbt.so/2013.1/901 2013/11/27
 32 34  0  0  0  0  0  0  0  0999 V2000
   -2.4406    7.6536   -3.7505 P   0  0  0  0  0  0  0  0  0  0  0  0
   -2.9980    8.9797   -3.2933 O   0  0  0  0  0  0  0  0  0  0  0  0
   -2.8159    7.6202   -5.3287 O   0  0  0  0  0  0  0  0  0  0  0  0
   -0.9444    7.4629   -3.7473 O   0  0  0  0  0  0  0  0  0  0  0  0
   -2.9747    6.6581   -2.8415 O   0  0  0  0  0  0  0  0  0  0  0  0
   -2.6682    7.0484   -1.4453 P   0  0  1  0  0  0  0  0  0  0  0  0
   -1.2281    7.3884   -1.3666 O   0  0  0  0  0  0  0  0  0  0  0  0
   -3.4667    8.2363   -1.0632 O   0  0  0  0  0  0  0  0  0  0  0  0
   -2.9827    5.9177   -0.5363 O   0  0  0  0  0  0  0  0  0  0  0  0
   -2.6386    5.9340    0.9054 P   0  0  1  0  0  0  0  0  0  0  0  0
   -1.7741    7.0562    1.3237 O   0  0  0  0  0  0  0  0  0  0  0  0
   -3.7620    5.6387    1.8224 O   0  0  0  0  0  0  0  0  0  0  0  0
   -1.6481    4.6624    1.0502 O   0  0  0  0  0  0  0  0  0  0  0  0
   -0.2530    4.7597    0.8337 C   0  0  0  0  0  0  0  0  0  0  0  0
    0.5297    3.6267    1.5119 C   0  0  1  0  0  0  0  0  0  0  0  0
    0.0567    2.3708    1.0696 O   0  0  0  0  0  0  0  0  0  0  0  0
    2.0092    3.5586    1.0947 C   0  0  1  0  0  0  0  0  0  0  0  0
    2.8581    4.5193    1.7003 O   0  0  0  0  0  0  0  0  0  0  0  0
    2.4057    2.1221    1.4343 C   0  0  1  0  0  0  0  0  0  0  0  0
    2.9310    2.0080    2.7451 O   0  0  0  0  0  0  0  0  0  0  0  0
    1.0528    1.4144    1.3853 C   0  0  2  0  0  0  0  0  0  0  0  0
    0.9808    0.2457    0.4826 N   0  0  0  0  0  0  0  0  0  0  0  0
    0.2954   -0.9363    0.6069 C   0  0  0  0  0  0  0  0  0  0  0  0
    0.5408   -1.7974   -0.3466 N   0  0  0  0  0  0  0  0  0  0  0  0
    1.4354   -1.1340   -1.1810 C   0  0  0  0  0  0  0  0  0  0  0  0
    2.1026   -1.5686   -2.3710 C   0  0  0  0  0  0  0  0  0  0  0  0
    2.0492   -2.6765   -2.9010 O   0  0  0  0  0  0  0  0  0  0  0  0
    2.9069   -0.5705   -2.9373 N   0  0  0  0  0  0  0  0  0  0  0  0
    3.0183    0.7128   -2.4237 C   0  0  0  0  0  0  0  0  0  0  0  0
    3.7340    1.6069   -3.1149 N   0  0  0  0  0  0  0  0  0  0  0  0
    2.4288    1.1008   -1.2810 N   0  0  0  0  0  0  0  0  0  0  0  0
    1.6601    0.1362   -0.7056 C   0  0  0  0  0  0  0  0  0  0  0  0
  1  2  2  0  0  0  0
  1  4  1  0  0  0  0
  1  3  1  0  0  0  0
  5  1  1  0  0  0  0
  6  7  2  1  0  0  0
  6  9  1  0  0  0  0
  6  5  1  0  0  0  0
  6  8  1  0  0  0  0
 10 11  2  1  0  0  0
 10 12  1  0  0  0  0
 10 13  1  0  0  0  0
 10  9  1  0  0  0  0
 13 14  1  0  0  0  0
 15 14  1  6  0  0  0
 15 16  1  0  0  0  0
 17 19  1  0  0  0  0
 17 15  1  0  0  0  0
 17 18  1  1  0  0  0
 19 21  1  0  0  0  0
 19 20  1  1  0  0  0
 21 16  1  0  0  0  0
 21 22  1  6  0  0  0
 22 32  1  0  0  0  0
 23 22  1  0  0  0  0
 23 24  2  0  0  0  0
 24 25  1  0  0  0  0
 25 26  1  0  0  0  0
 26 27  2  0  0  0  0
 26 28  1  0  0  0  0
 29 28  1  0  0  0  0
 29 30  1  0  0  0  0
 31 29  2  0  0  0  0
 32 25  2  0  0  0  0
 32 31  1  0  0  0  0
M  END
>  <CHROM.1>
-53.95538694,172.66330601,-49.12622897,87.40098552,-9.28962039,158.57539462
56.60850510,127.90710723,-68.14585402,-91.15629227,-0.31358285,3.93405497
-0.79220459,-3.00996436,-1.00515332,1.57092191

>  <Name>
lig.pdb

>  <RI>
4.14043e+07

>  <Rbt.Current_Directory>
/home/itssahil/PROJECTS/Mol_Feturizer/New_Systems/rnas/5lwj

>  <Rbt.Executable>
rbdock ($Id: //depot/dev/client3/rdock/2013.1/src/exe/rbdock.cxx#4 $)

>  <Rbt.Library>
libRbt.so (2013.1, Build901 2013/11/27)

>  <Rbt.Parameter_File>
/export/apps/rDock/src/rDock_2013.1_src/data/scripts/dock_solv.prm

>  <Rbt.Receptor>
prm/blind_docking_80.prm

>  <SCORE>
-4.09061

>  <SCORE.INTER>
-9.74882

>  <SCORE.INTER.CONST>
1

>  <SCORE.INTER.POLAR>
-2.42262

>  <SCORE.INTER.ROT>
8

>  <SCORE.INTER.SOLV>
27.4612

>  <SCORE.INTER.VDW>
-16.5109

>  <SCORE.INTER.norm>
-0.30465

>  <SCORE.INTRA>
5.3316

>  <SCORE.INTRA.DIHEDRAL>
4.79729

>  <SCORE.INTRA.DIHEDRAL.0>
10.9248

>  <SCORE.INTRA.POLAR>
0

>  <SCORE.INTRA.POLAR.0>
0

>  <SCORE.INTRA.REPUL>
0

>  <SCORE.INTRA.REPUL.0>
0

>  <SCORE.INTRA.SOLV>
0.607925

>  <SCORE.INTRA.SOLV.lig_0>
-51.4104

>  <SCORE.INTRA.VDW>
2.62899

>  <SCORE.INTRA.VDW.0>
0.110327

>  <SCORE.INTRA.norm>
0.166613

>  <SCORE.RESTR>
0.326608

>  <SCORE.RESTR.CAVITY>
0.326608

>  <SCORE.RESTR.norm>
0.0102065

>  <SCORE.SYSTEM>
0

>  <SCORE.SYSTEM.CONST>
0

>  <SCORE.SYSTEM.DIHEDRAL>
0

>  <SCORE.SYSTEM.SOLV>
0

>  <SCORE.SYSTEM.norm>
0

>  <SCORE.heavy>
32

>  <SCORE.norm>
-0.127831

>  <RMSD>
14.650

$$$$
lig.pdb
 OpenBabel11021811523D
libRbt.so/2013.1/901 2013/11/27
 32 34  0  0  0  0  0  0  0  0999 V2000
    3.7774   -1.1220   -0.8779 P   0  0  0  0  0  0  0  0  0  0  0  0
    5.0209   -1.0479   -0.0257 O   0  0  0  0  0  0  0  0  0  0  0  0
    4.1621   -0.2205   -2.1709 O   0  0  0  0  0  0  0  0  0  0  0  0
    3.3987   -2.4505   -1.4835 O   0  0  0  0  0  0  0  0  0  0  0  0
    2.6752   -0.7451   -0.0143 O   0  0  0  0  0  0  0  0  0  0  0  0
    2.9650    0.5652    0.6141 P   0  0  1  0  0  0  0  0  0  0  0  0
    4.0160    0.3632    1.6390 O   0  0  0  0  0  0  0  0  0  0  0  0
    3.4614    1.5185   -0.4055 O   0  0  0  0  0  0  0  0  0  0  0  0
    1.7284    1.0970    1.2397 O   0  0  0  0  0  0  0  0  0  0  0  0
    0.4619    1.2630    0.4877 P   0  0  1  0  0  0  0  0  0  0  0  0
    0.6275    1.6609   -0.9251 O   0  0  0  0  0  0  0  0  0  0  0  0
   -0.5505    0.2096    0.7227 O   0  0  0  0  0  0  0  0  0  0  0  0
   -0.1741    2.5957    1.1496 O   0  0  0  0  0  0  0  0  0  0  0  0
    0.6265    3.6499    1.6500 C   0  0  0  0  0  0  0  0  0  0  0  0
    0.6478    4.8686    0.7169 C   0  0  1  0  0  0  0  0  0  0  0  0
   -0.6008    5.0141    0.0718 O   0  0  0  0  0  0  0  0  0  0  0  0
    0.7672    6.2132    1.4554 C   0  0  1  0  0  0  0  0  0  0  0  0
    2.0652    6.5383    1.9239 O   0  0  0  0  0  0  0  0  0  0  0  0
    0.2360    7.2227    0.4381 C   0  0  1  0  0  0  0  0  0  0  0  0
    1.2668    7.7550   -0.3752 O   0  0  0  0  0  0  0  0  0  0  0  0
   -0.6623    6.3391   -0.4253 C   0  0  2  0  0  0  0  0  0  0  0  0
   -2.0614    6.7977   -0.5609 N   0  0  0  0  0  0  0  0  0  0  0  0
   -2.5720    8.0546   -0.7655 C   0  0  0  0  0  0  0  0  0  0  0  0
   -3.8785    8.1101   -0.7372 N   0  0  0  0  0  0  0  0  0  0  0  0
   -4.2696    6.7918   -0.5230 C   0  0  0  0  0  0  0  0  0  0  0  0
   -5.5706    6.2176   -0.3560 C   0  0  0  0  0  0  0  0  0  0  0  0
   -6.6522    6.8013   -0.3287 O   0  0  0  0  0  0  0  0  0  0  0  0
   -5.5327    4.8262   -0.1934 N   0  0  0  0  0  0  0  0  0  0  0  0
   -4.3654    4.0783   -0.2269 C   0  0  0  0  0  0  0  0  0  0  0  0
   -4.4703    2.7460   -0.1663 N   0  0  0  0  0  0  0  0  0  0  0  0
   -3.1441    4.6263   -0.3353 N   0  0  0  0  0  0  0  0  0  0  0  0
   -3.1611    5.9803   -0.4727 C   0  0  0  0  0  0  0  0  0  0  0  0
  1  2  2  0  0  0  0
  1  4  1  0  0  0  0
  1  3  1  0  0  0  0
  5  1  1  0  0  0  0
  6  7  2  1  0  0  0
  6  9  1  0  0  0  0
  6  5  1  0  0  0  0
  6  8  1  0  0  0  0
 10 11  2  6  0  0  0
 10 12  1  0  0  0  0
 10 13  1  0  0  0  0
 10  9  1  0  0  0  0
 13 14  1  0  0  0  0
 15 14  1  1  0  0  0
 15 16  1  0  0  0  0
 17 19  1  0  0  0  0
 17 15  1  0  0  0  0
 17 18  1  6  0  0  0
 19 21  1  0  0  0  0
 19 20  1  6  0  0  0
 21 16  1  0  0  0  0
 21 22  1  1  0  0  0
 22 32  1  0  0  0  0
 23 22  1  0  0  0  0
 23 24  2  0  0  0  0
 24 25  1  0  0  0  0
 25 26  1  0  0  0  0
 26 27  2  0  0  0  0
 26 28  1  0  0  0  0
 29 28  1  0  0  0  0
 29 30  1  0  0  0  0
 31 29  2  0  0  0  0
 32 25  2  0  0  0  0
 32 31  1  0  0  0  0
M  END
>  <CHROM.1>
53.67824821,-54.44639641,-72.68975838,32.12412501,-35.11820821,104.39945140
33.96816043,54.55164947,-36.55151000,166.77050125,0.09958004,3.16731714,0.03654929
0.76880839,0.11449396,-3.02922857

>  <Name>
lig.pdb

>  <RI>
1.17715e+07

>  <Rbt.Current_Directory>
/home/itssahil/PROJECTS/Mol_Feturizer/New_Systems/rnas/5lwj

>  <Rbt.Executable>
rbdock ($Id: //depot/dev/client3/rdock/2013.1/src/exe/rbdock.cxx#4 $)

>  <Rbt.Library>
libRbt.so (2013.1, Build901 2013/11/27)

>  <Rbt.Parameter_File>
/export/apps/rDock/src/rDock_2013.1_src/data/scripts/dock_solv.prm

>  <Rbt.Receptor>
prm/blind_docking_60.prm

>  <SCORE>
-0.0676884

>  <SCORE.INTER>
-9.24331

>  <SCORE.INTER.CONST>
1

>  <SCORE.INTER.POLAR>
-3.31173

>  <SCORE.INTER.ROT>
8

>  <SCORE.INTER.SOLV>
27.4403

>  <SCORE.INTER.VDW>
-13.2032

>  <SCORE.INTER.norm>
-0.288853

>  <SCORE.INTRA>
8.09733

>  <SCORE.INTRA.DIHEDRAL>
5.01107

>  <SCORE.INTRA.DIHEDRAL.0>
10.9248

>  <SCORE.INTRA.POLAR>
0

>  <SCORE.INTRA.POLAR.0>
0

>  <SCORE.INTRA.REPUL>
0.980506

>  <SCORE.INTRA.REPUL.0>
0

>  <SCORE.INTRA.SOLV>
1.03432

>  <SCORE.INTRA.SOLV.lig_0>
-51.4104

>  <SCORE.INTRA.VDW>
0.172103

>  <SCORE.INTRA.VDW.0>
0.110327

>  <SCORE.INTRA.norm>
0.253042

>  <SCORE.RESTR>
1.07829

>  <SCORE.RESTR.CAVITY>
1.07829

>  <SCORE.RESTR.norm>
0.0336966

>  <SCORE.SYSTEM>
0

>  <SCORE.SYSTEM.CONST>
0

>  <SCORE.SYSTEM.DIHEDRAL>
0

>  <SCORE.SYSTEM.SOLV>
0

>  <SCORE.SYSTEM.norm>
0

>  <SCORE.heavy>
32

>  <SCORE.norm>
-0.00211526

>  <RMSD>
14.667

$$$$
lig.pdb
 OpenBabel11021811523D
libRbt.so/2013.1/901 2013/11/27
 32 34  0  0  0  0  0  0  0  0999 V2000
    0.4731   -1.6716   -0.2595 P   0  0  0  0  0  0  0  0  0  0  0  0
    1.6104   -2.0923    0.6391 O   0  0  0  0  0  0  0  0  0  0  0  0
    0.4209   -2.8558   -1.3674 O   0  0  0  0  0  0  0  0  0  0  0  0
   -0.9254   -1.6655    0.3055 O   0  0  0  0  0  0  0  0  0  0  0  0
    0.7546   -0.3040   -0.6507 O   0  0  0  0  0  0  0  0  0  0  0  0
    0.4583    0.6051    0.4813 P   0  0  1  0  0  0  0  0  0  0  0  0
   -1.0119    0.7686    0.5694 O   0  0  0  0  0  0  0  0  0  0  0  0
    0.9558    0.0184    1.7473 O   0  0  0  0  0  0  0  0  0  0  0  0
    1.1109    1.9172    0.2447 O   0  0  0  0  0  0  0  0  0  0  0  0
    1.1816    2.9718    1.2839 P   0  0  1  0  0  0  0  0  0  0  0  0
    1.2022    2.4721    2.6737 O   0  0  0  0  0  0  0  0  0  0  0  0
    2.1357    4.0675    1.0026 O   0  0  0  0  0  0  0  0  0  0  0  0
   -0.2772    3.6657    1.1880 O   0  0  0  0  0  0  0  0  0  0  0  0
   -0.4576    5.0665    1.2767 C   0  0  0  0  0  0  0  0  0  0  0  0
   -0.1748    5.7830   -0.0511 C   0  0  1  0  0  0  0  0  0  0  0  0
   -1.3697    5.9372   -0.7892 O   0  0  0  0  0  0  0  0  0  0  0  0
    0.2702    7.2465    0.1163 C   0  0  1  0  0  0  0  0  0  0  0  0
    1.6186    7.4320    0.5135 O   0  0  0  0  0  0  0  0  0  0  0  0
   -0.0346    7.8660   -1.2473 C   0  0  1  0  0  0  0  0  0  0  0  0
    1.0729    7.7926   -2.1277 O   0  0  0  0  0  0  0  0  0  0  0  0
   -1.1330    6.9381   -1.7632 C   0  0  2  0  0  0  0  0  0  0  0  0
   -2.3899    7.6052   -2.1647 N   0  0  0  0  0  0  0  0  0  0  0  0
   -2.6218    8.5822   -3.0996 C   0  0  0  0  0  0  0  0  0  0  0  0
   -3.8562    9.0140   -3.1241 N   0  0  0  0  0  0  0  0  0  0  0  0
   -4.5011    8.2538   -2.1531 C   0  0  0  0  0  0  0  0  0  0  0  0
   -5.8531    8.2889   -1.6831 C   0  0  0  0  0  0  0  0  0  0  0  0
   -6.7496    9.0558   -2.0288 O   0  0  0  0  0  0  0  0  0  0  0  0
   -6.1124    7.3205   -0.7040 N   0  0  0  0  0  0  0  0  0  0  0  0
   -5.1730    6.4012   -0.2619 C   0  0  0  0  0  0  0  0  0  0  0  0
   -5.5724    5.4583    0.5990 N   0  0  0  0  0  0  0  0  0  0  0  0
   -3.8935    6.4035   -0.6703 N   0  0  0  0  0  0  0  0  0  0  0  0
   -3.6186    7.3524   -1.6065 C   0  0  0  0  0  0  0  0  0  0  0  0
  1  2  2  0  0  0  0
  1  4  1  0  0  0  0
  1  3  1  0  0  0  0
  5  1  1  0  0  0  0
  6  7  2  1  0  0  0
  6  9  1  0  0  0  0
  6  5  1  0  0  0  0
  6  8  1  0  0  0  0
 10 11  2  1  0  0  0
 10 12  1  0  0  0  0
 10 13  1  0  0  0  0
 10  9  1  0  0  0  0
 13 14  1  0  0  0  0
 15 14  1  1  0  0  0
 15 16  1  0  0  0  0
 17 19  1  0  0  0  0
 17 15  1  0  0  0  0
 17 18  1  6  0  0  0
 19 21  1  0  0  0  0
 19 20  1  6  0  0  0
 21 16  1  0  0  0  0
 21 22  1  1  0  0  0
 22 32  1  0  0  0  0
 23 22  1  0  0  0  0
 23 24  2  0  0  0  0
 24 25  1  0  0  0  0
 25 26  1  0  0  0  0
 26 27  2  0  0  0  0
 26 28  1  0  0  0  0
 29 28  1  0  0  0  0
 29 30  1  0  0  0  0
 31 29  2  0  0  0  0
 32 25  2  0  0  0  0
 32 31  1  0  0  0  0
M  END
>  <CHROM.1>
-75.57257192,-170.32160268,-76.53719686,-139.25158826,29.06996248,81.10886816
93.29028230,-60.25736064,-69.68466278,-177.39542797,-1.02290700,4.01042397
-0.26159304,1.07714658,0.22482014,3.03035577

>  <Name>
lig.pdb

>  <RI>
1.17715e+07

>  <Rbt.Current_Directory>
/home/itssahil/PROJECTS/Mol_Feturizer/New_Systems/rnas/5lwj

>  <Rbt.Executable>
rbdock ($Id: //depot/dev/client3/rdock/2013.1/src/exe/rbdock.cxx#4 $)

>  <Rbt.Library>
libRbt.so (2013.1, Build901 2013/11/27)

>  <Rbt.Parameter_File>
/export/apps/rDock/src/rDock_2013.1_src/data/scripts/dock_solv.prm

>  <Rbt.Receptor>
prm/blind_docking_60.prm

>  <SCORE>
-28.3733

>  <SCORE.INTER>
-31.8848

>  <SCORE.INTER.CONST>
1

>  <SCORE.INTER.POLAR>
-3.8043

>  <SCORE.INTER.ROT>
8

>  <SCORE.INTER.SOLV>
27.5415

>  <SCORE.INTER.VDW>
-26.6894

>  <SCORE.INTER.norm>
-0.996401

>  <SCORE.INTRA>
2.72366

>  <SCORE.INTRA.DIHEDRAL>
0.726803

>  <SCORE.INTRA.DIHEDRAL.0>
10.9248

>  <SCORE.INTRA.POLAR>
0

>  <SCORE.INTRA.POLAR.0>
0

>  <SCORE.INTRA.REPUL>
0.41989

>  <SCORE.INTRA.REPUL.0>
0

>  <SCORE.INTRA.SOLV>
-0.133749

>  <SCORE.INTRA.SOLV.lig_0>
-51.4104

>  <SCORE.INTRA.VDW>
0.327687

>  <SCORE.INTRA.VDW.0>
0.110327

>  <SCORE.INTRA.norm>
0.0851145

>  <SCORE.RESTR>
0.787813

>  <SCORE.RESTR.CAVITY>
0.787813

>  <SCORE.RESTR.norm>
0.0246192

>  <SCORE.SYSTEM>
0

>  <SCORE.SYSTEM.CONST>
0

>  <SCORE.SYSTEM.DIHEDRAL>
0

>  <SCORE.SYSTEM.SOLV>
0

>  <SCORE.SYSTEM.norm>
0

>  <SCORE.heavy>
32

>  <SCORE.norm>
-0.886667

>  <RMSD>
14.676

$$$$
lig.pdb
 OpenBabel11021811523D
libRbt.so/2013.1/901 2013/11/27
 32 34  0  0  0  0  0  0  0  0999 V2000
    4.3589   -1.2440   -0.2056 P   0  0  0  0  0  0  0  0  0  0  0  0
    3.2565   -2.2628   -0.3629 O   0  0  0  0  0  0  0  0  0  0  0  0
    4.8389   -1.4539    1.3300 O   0  0  0  0  0  0  0  0  0  0  0  0
    5.6308   -1.4332   -0.9940 O   0  0  0  0  0  0  0  0  0  0  0  0
    3.8012    0.0221   -0.6402 O   0  0  0  0  0  0  0  0  0  0  0  0
    4.2360    1.0968    0.2826 P   0  0  1  0  0  0  0  0  0  0  0  0
    3.6841    0.8028    1.6261 O   0  0  0  0  0  0  0  0  0  0  0  0
    5.7148    1.1285    0.3642 O   0  0  0  0  0  0  0  0  0  0  0  0
    3.7315    2.4035   -0.2087 O   0  0  0  0  0  0  0  0  0  0  0  0
    2.3122    2.6240   -0.5747 P   0  0  1  0  0  0  0  0  0  0  0  0
    2.0977    3.1443   -1.9403 O   0  0  0  0  0  0  0  0  0  0  0  0
    1.3839    1.5459   -0.1669 O   0  0  0  0  0  0  0  0  0  0  0  0
    1.8986    3.8890    0.3459 O   0  0  0  0  0  0  0  0  0  0  0  0
    0.6852    3.9330    1.0728 C   0  0  0  0  0  0  0  0  0  0  0  0
   -0.0448    5.2749    0.9215 C   0  0  1  0  0  0  0  0  0  0  0  0
    0.2806    5.8733   -0.3164 O   0  0  0  0  0  0  0  0  0  0  0  0
   -1.5729    5.1397    0.8016 C   0  0  1  0  0  0  0  0  0  0  0  0
   -2.2602    4.8930    2.0169 O   0  0  0  0  0  0  0  0  0  0  0  0
   -1.9924    6.4530    0.1416 C   0  0  1  0  0  0  0  0  0  0  0  0
   -2.3113    7.4521    1.0940 O   0  0  0  0  0  0  0  0  0  0  0  0
   -0.7065    6.8549   -0.5783 C   0  0  2  0  0  0  0  0  0  0  0  0
   -0.8437    7.1054   -2.0290 N   0  0  0  0  0  0  0  0  0  0  0  0
    0.0933    7.4649   -2.9645 C   0  0  0  0  0  0  0  0  0  0  0  0
   -0.4023    7.7002   -4.1519 N   0  0  0  0  0  0  0  0  0  0  0  0
   -1.7646    7.4565   -4.0055 C   0  0  0  0  0  0  0  0  0  0  0  0
   -2.8425    7.5809   -4.9396 C   0  0  0  0  0  0  0  0  0  0  0  0
   -2.7890    7.9817   -6.1005 O   0  0  0  0  0  0  0  0  0  0  0  0
   -4.0773    7.2005   -4.3968 N   0  0  0  0  0  0  0  0  0  0  0  0
   -4.2360    6.7199   -3.1058 C   0  0  0  0  0  0  0  0  0  0  0  0
   -5.4484    6.2890   -2.7397 N   0  0  0  0  0  0  0  0  0  0  0  0
   -3.2302    6.6507   -2.2184 N   0  0  0  0  0  0  0  0  0  0  0  0
   -2.0266    7.0371   -2.7228 C   0  0  0  0  0  0  0  0  0  0  0  0
  1  2  2  0  0  0  0
  1  4  1  0  0  0  0
  1  3  1  0  0  0  0
  5  1  1  0  0  0  0
  6  7  2  1  0  0  0
  6  9  1  0  0  0  0
  6  5  1  0  0  0  0
  6  8  1  0  0  0  0
 10 11  2  6  0  0  0
 10 12  1  0  0  0  0
 10 13  1  0  0  0  0
 10  9  1  0  0  0  0
 13 14  1  0  0  0  0
 15 14  1  6  0  0  0
 15 16  1  0  0  0  0
 17 19  1  0  0  0  0
 17 15  1  0  0  0  0
 17 18  1  1  0  0  0
 19 21  1  0  0  0  0
 19 20  1  1  0  0  0
 21 16  1  0  0  0  0
 21 22  1  6  0  0  0
 22 32  1  0  0  0  0
 23 22  1  0  0  0  0
 23 24  2  0  0  0  0
 24 25  1  0  0  0  0
 25 26  1  0  0  0  0
 26 27  2  0  0  0  0
 26 28  1  0  0  0  0
 29 28  1  0  0  0  0
 29 30  1  0  0  0  0
 31 29  2  0  0  0  0
 32 25  2  0  0  0  0
 32 31  1  0  0  0  0
M  END
>  <CHROM.1>
138.30285437,50.47801640,-63.07449555,-134.83355468,-125.07520546,-134.14660670
27.54369239,47.41140366,-155.95823431,-55.15340530,0.78476092,3.75685046
-0.93885894,-0.35789049,0.78191941,-1.45760584

>  <Name>
lig.pdb

>  <RI>
1.2169e+07

>  <Rbt.Current_Directory>
/home/itssahil/PROJECTS/Mol_Feturizer/New_Systems/rnas/5lwj

>  <Rbt.Executable>
rbdock ($Id: //depot/dev/client3/rdock/2013.1/src/exe/rbdock.cxx#4 $)

>  <Rbt.Library>
libRbt.so (2013.1, Build901 2013/11/27)

>  <Rbt.Parameter_File>
/export/apps/rDock/src/rDock_2013.1_src/data/scripts/dock_solv.prm

>  <Rbt.Receptor>
prm/blind_docking_40.prm

>  <SCORE>
-12.4584

>  <SCORE.INTER>
-17.098

>  <SCORE.INTER.CONST>
1

>  <SCORE.INTER.POLAR>
-0.775253

>  <SCORE.INTER.ROT>
8

>  <SCORE.INTER.SOLV>
23.7472

>  <SCORE.INTER.VDW>
-25.6635

>  <SCORE.INTER.norm>
-0.534312

>  <SCORE.INTRA>
3.34812

>  <SCORE.INTRA.DIHEDRAL>
10.2275

>  <SCORE.INTRA.DIHEDRAL.0>
10.9248

>  <SCORE.INTRA.POLAR>
0

>  <SCORE.INTRA.POLAR.0>
0

>  <SCORE.INTRA.REPUL>
0

>  <SCORE.INTRA.REPUL.0>
0

>  <SCORE.INTRA.SOLV>
-0.102341

>  <SCORE.INTRA.SOLV.lig_0>
-51.4104

>  <SCORE.INTRA.VDW>
-1.71444

>  <SCORE.INTRA.VDW.0>
0.110327

>  <SCORE.INTRA.norm>
0.104629

>  <SCORE.RESTR>
1.2915

>  <SCORE.RESTR.CAVITY>
1.2915

>  <SCORE.RESTR.norm>
0.0403594

>  <SCORE.SYSTEM>
0

>  <SCORE.SYSTEM.CONST>
0

>  <SCORE.SYSTEM.DIHEDRAL>
0

>  <SCORE.SYSTEM.SOLV>
0

>  <SCORE.SYSTEM.norm>
0

>  <SCORE.heavy>
32

>  <SCORE.norm>
-0.389323

>  <RMSD>
14.712

$$$$
lig.pdb
 OpenBabel11021811523D
libRbt.so/2013.1/901 2013/11/27
 32 34  0  0  0  0  0  0  0  0999 V2000
    2.9389    1.9627   -1.8884 P   0  0  0  0  0  0  0  0  0  0  0  0
    4.3929    2.3674   -1.8806 O   0  0  0  0  0  0  0  0  0  0  0  0
    2.2353    3.0970   -0.9659 O   0  0  0  0  0  0  0  0  0  0  0  0
    2.1750    2.0503   -3.1861 O   0  0  0  0  0  0  0  0  0  0  0  0
    2.9081    0.5667   -1.4972 O   0  0  0  0  0  0  0  0  0  0  0  0
    1.9232    0.3806   -0.4059 P   0  0  1  0  0  0  0  0  0  0  0  0
    1.8993   -1.0566   -0.0458 O   0  0  0  0  0  0  0  0  0  0  0  0
    2.3259    1.1696    0.7815 O   0  0  0  0  0  0  0  0  0  0  0  0
    0.5832    0.8194   -0.8701 O   0  0  0  0  0  0  0  0  0  0  0  0
   -0.5191    1.1423    0.0667 P   0  0  1  0  0  0  0  0  0  0  0  0
   -1.1433   -0.0281    0.7165 O   0  0  0  0  0  0  0  0  0  0  0  0
   -0.2634    2.2899    0.9654 O   0  0  0  0  0  0  0  0  0  0  0  0
   -1.6918    1.6531   -0.9246 O   0  0  0  0  0  0  0  0  0  0  0  0
   -3.0631    1.5605   -0.5876 C   0  0  0  0  0  0  0  0  0  0  0  0
   -3.6374    2.8911   -0.0814 C   0  0  1  0  0  0  0  0  0  0  0  0
   -2.7057    3.9345   -0.2800 O   0  0  0  0  0  0  0  0  0  0  0  0
   -4.8400    3.3979   -0.8968 C   0  0  1  0  0  0  0  0  0  0  0  0
   -6.0738    2.7532   -0.6282 O   0  0  0  0  0  0  0  0  0  0  0  0
   -4.8740    4.8933   -0.5827 C   0  0  1  0  0  0  0  0  0  0  0  0
   -5.7016    5.1876    0.5288 O   0  0  0  0  0  0  0  0  0  0  0  0
   -3.4200    5.1546   -0.1938 C   0  0  2  0  0  0  0  0  0  0  0  0
   -2.7437    6.2281   -0.9529 N   0  0  0  0  0  0  0  0  0  0  0  0
   -3.1656    6.9559   -2.0367 C   0  0  0  0  0  0  0  0  0  0  0  0
   -2.2600    7.7669   -2.5192 N   0  0  0  0  0  0  0  0  0  0  0  0
   -1.1624    7.5863   -1.6829 C   0  0  0  0  0  0  0  0  0  0  0  0
    0.1476    8.1628   -1.7213 C   0  0  0  0  0  0  0  0  0  0  0  0
    0.6029    8.9396   -2.5583 O   0  0  0  0  0  0  0  0  0  0  0  0
    0.9592    7.7366   -0.6614 N   0  0  0  0  0  0  0  0  0  0  0  0
    0.5310    6.8775    0.3395 C   0  0  0  0  0  0  0  0  0  0  0  0
    1.3657    6.6296    1.3551 N   0  0  0  0  0  0  0  0  0  0  0  0
   -0.6824    6.3018    0.3447 N   0  0  0  0  0  0  0  0  0  0  0  0
   -1.4770    6.6884   -0.6905 C   0  0  0  0  0  0  0  0  0  0  0  0
  1  2  2  0  0  0  0
  1  4  1  0  0  0  0
  1  3  1  0  0  0  0
  5  1  1  0  0  0  0
  6  7  2  1  0  0  0
  6  9  1  0  0  0  0
  6  5  1  0  0  0  0
  6  8  1  0  0  0  0
 10 11  2  1  0  0  0
 10 12  1  0  0  0  0
 10 13  1  0  0  0  0
 10  9  1  0  0  0  0
 13 14  1  0  0  0  0
 15 14  1  6  0  0  0
 15 16  1  0  0  0  0
 17 19  1  0  0  0  0
 17 15  1  0  0  0  0
 17 18  1  1  0  0  0
 19 21  1  0  0  0  0
 19 20  1  1  0  0  0
 21 16  1  0  0  0  0
 21 22  1  6  0  0  0
 22 32  1  0  0  0  0
 23 22  1  0  0  0  0
 23 24  2  0  0  0  0
 24 25  1  0  0  0  0
 25 26  1  0  0  0  0
 26 27  2  0  0  0  0
 26 28  1  0  0  0  0
 29 28  1  0  0  0  0
 29 30  1  0  0  0  0
 31 29  2  0  0  0  0
 32 25  2  0  0  0  0
 32 31  1  0  0  0  0
M  END
>  <CHROM.1>
129.63268137,-161.41986724,179.05703558,153.76101789,-73.58924289,100.11228972
9.39549453,-43.54314363,-170.63585957,117.57147210,-0.48629850,3.54413609
-0.69426856,-0.80329533,0.13693653,-0.13777553

>  <Name>
lig.pdb

>  <RI>
3.17878e+07

>  <Rbt.Current_Directory>
/home/itssahil/PROJECTS/Mol_Feturizer/New_Systems/rnas/5lwj

>  <Rbt.Executable>
rbdock ($Id: //depot/dev/client3/rdock/2013.1/src/exe/rbdock.cxx#4 $)

>  <Rbt.Library>
libRbt.so (2013.1, Build901 2013/11/27)

>  <Rbt.Parameter_File>
/export/apps/rDock/src/rDock_2013.1_src/data/scripts/dock_solv.prm

>  <Rbt.Receptor>
prm/blind_docking_100.prm

>  <SCORE>
21.9623

>  <SCORE.INTER>
21.0043

>  <SCORE.INTER.CONST>
1

>  <SCORE.INTER.POLAR>
-5.24924

>  <SCORE.INTER.ROT>
8

>  <SCORE.INTER.SOLV>
30.8009

>  <SCORE.INTER.VDW>
12.3

>  <SCORE.INTER.norm>
0.656384

>  <SCORE.INTRA>
0.591636

>  <SCORE.INTRA.DIHEDRAL>
7.37745

>  <SCORE.INTRA.DIHEDRAL.0>
10.9248

>  <SCORE.INTRA.POLAR>
0

>  <SCORE.INTRA.POLAR.0>
0

>  <SCORE.INTRA.REPUL>
0.0838046

>  <SCORE.INTRA.REPUL.0>
0

>  <SCORE.INTRA.SOLV>
-0.53535

>  <SCORE.INTRA.SOLV.lig_0>
-51.4104

>  <SCORE.INTRA.VDW>
-3.24844

>  <SCORE.INTRA.VDW.0>
0.110327

>  <SCORE.INTRA.norm>
0.0184886

>  <SCORE.RESTR>
0.366425

>  <SCORE.RESTR.CAVITY>
0.366425

>  <SCORE.RESTR.norm>
0.0114508

>  <SCORE.SYSTEM>
0

>  <SCORE.SYSTEM.CONST>
0

>  <SCORE.SYSTEM.DIHEDRAL>
0

>  <SCORE.SYSTEM.SOLV>
0

>  <SCORE.SYSTEM.norm>
0

>  <SCORE.heavy>
32

>  <SCORE.norm>
0.686323

>  <RMSD>
14.726

$$$$
lig.pdb
 OpenBabel11021811523D
libRbt.so/2013.1/901 2013/11/27
 32 34  0  0  0  0  0  0  0  0999 V2000
    0.5128   -1.3066   -0.1466 P   0  0  0  0  0  0  0  0  0  0  0  0
    1.2981   -1.6954    1.0823 O   0  0  0  0  0  0  0  0  0  0  0  0
    1.6691   -0.9026   -1.2107 O   0  0  0  0  0  0  0  0  0  0  0  0
   -0.2648   -2.3767   -0.8714 O   0  0  0  0  0  0  0  0  0  0  0  0
   -0.4632   -0.3284    0.2929 O   0  0  0  0  0  0  0  0  0  0  0  0
    0.0219    1.0339   -0.0305 P   0  0  1  0  0  0  0  0  0  0  0  0
   -0.0959    1.2303   -1.4946 O   0  0  0  0  0  0  0  0  0  0  0  0
   -0.8095    2.0464    0.6611 O   0  0  0  0  0  0  0  0  0  0  0  0
    1.4371    1.1684    0.3968 O   0  0  0  0  0  0  0  0  0  0  0  0
    2.3104    2.2706   -0.0719 P   0  0  1  0  0  0  0  0  0  0  0  0
    3.4587    2.5686    0.8080 O   0  0  0  0  0  0  0  0  0  0  0  0
    2.6233    2.2519   -1.5182 O   0  0  0  0  0  0  0  0  0  0  0  0
    1.3750    3.5761    0.1267 O   0  0  0  0  0  0  0  0  0  0  0  0
    1.4384    4.3847    1.2863 C   0  0  0  0  0  0  0  0  0  0  0  0
    0.5226    5.6136    1.1994 C   0  0  1  0  0  0  0  0  0  0  0  0
    0.9091    6.4377    0.1188 O   0  0  0  0  0  0  0  0  0  0  0  0
   -0.9310    5.2785    0.8216 C   0  0  1  0  0  0  0  0  0  0  0  0
   -1.7265    4.7489    1.8689 O   0  0  0  0  0  0  0  0  0  0  0  0
   -1.4696    6.6034    0.2824 C   0  0  1  0  0  0  0  0  0  0  0  0
   -2.0771    7.3855    1.2954 O   0  0  0  0  0  0  0  0  0  0  0  0
   -0.1828    7.2944   -0.1648 C   0  0  2  0  0  0  0  0  0  0  0  0
   -0.1611    7.7445   -1.5729 N   0  0  0  0  0  0  0  0  0  0  0  0
    0.8622    7.7662   -2.4867 C   0  0  0  0  0  0  0  0  0  0  0  0
    0.5481    8.3282   -3.6252 N   0  0  0  0  0  0  0  0  0  0  0  0
   -0.7879    8.6855   -3.4701 C   0  0  0  0  0  0  0  0  0  0  0  0
   -1.6809    9.3724   -4.3537 C   0  0  0  0  0  0  0  0  0  0  0  0
   -1.4294    9.8407   -5.4622 O   0  0  0  0  0  0  0  0  0  0  0  0
   -2.9715    9.5067   -3.8242 N   0  0  0  0  0  0  0  0  0  0  0  0
   -3.3556    8.9979   -2.5927 C   0  0  0  0  0  0  0  0  0  0  0  0
   -4.6435    9.0977   -2.2450 N   0  0  0  0  0  0  0  0  0  0  0  0
   -2.5024    8.3971   -1.7471 N   0  0  0  0  0  0  0  0  0  0  0  0
   -1.2383    8.2772   -2.2371 C   0  0  0  0  0  0  0  0  0  0  0  0
  1  2  2  0  0  0  0
  1  4  1  0  0  0  0
  1  3  1  0  0  0  0
  5  1  1  0  0  0  0
  6  7  2  6  0  0  0
  6  9  1  0  0  0  0
  6  5  1  0  0  0  0
  6  8  1  0  0  0  0
 10 11  2  1  0  0  0
 10 12  1  0  0  0  0
 10 13  1  0  0  0  0
 10  9  1  0  0  0  0
 13 14  1  0  0  0  0
 15 14  1  6  0  0  0
 15 16  1  0  0  0  0
 17 19  1  0  0  0  0
 17 15  1  0  0  0  0
 17 18  1  1  0  0  0
 19 21  1  0  0  0  0
 19 20  1  1  0  0  0
 21 16  1  0  0  0  0
 21 22  1  6  0  0  0
 22 32  1  0  0  0  0
 23 22  1  0  0  0  0
 23 24  2  0  0  0  0
 24 25  1  0  0  0  0
 25 26  1  0  0  0  0
 26 27  2  0  0  0  0
 26 28  1  0  0  0  0
 29 28  1  0  0  0  0
 29 30  1  0  0  0  0
 31 29  2  0  0  0  0
 32 25  2  0  0  0  0
 32 31  1  0  0  0  0
M  END
>  <CHROM.1>
99.64013099,164.63924740,73.09545995,95.15093597,157.17048830,176.19501766
-61.39157903,60.11518710,-68.23453497,-19.26387829,-0.10141603,4.22044519
-0.76177699,-0.76461789,1.16311873,-1.05024986

>  <Name>
lig.pdb

>  <RI>
4.14043e+07

>  <Rbt.Current_Directory>
/home/itssahil/PROJECTS/Mol_Feturizer/New_Systems/rnas/5lwj

>  <Rbt.Executable>
rbdock ($Id: //depot/dev/client3/rdock/2013.1/src/exe/rbdock.cxx#4 $)

>  <Rbt.Library>
libRbt.so (2013.1, Build901 2013/11/27)

>  <Rbt.Parameter_File>
/export/apps/rDock/src/rDock_2013.1_src/data/scripts/dock_solv.prm

>  <Rbt.Receptor>
prm/blind_docking_80.prm

>  <SCORE>
-20.1955

>  <SCORE.INTER>
-17.3024

>  <SCORE.INTER.CONST>
1

>  <SCORE.INTER.POLAR>
-2.55142

>  <SCORE.INTER.ROT>
8

>  <SCORE.INTER.SOLV>
26.145

>  <SCORE.INTER.VDW>
-20.6785

>  <SCORE.INTER.norm>
-0.5407

>  <SCORE.INTRA>
-4.02719

>  <SCORE.INTRA.DIHEDRAL>
-3.25778

>  <SCORE.INTRA.DIHEDRAL.0>
10.9248

>  <SCORE.INTRA.POLAR>
0

>  <SCORE.INTRA.POLAR.0>
0

>  <SCORE.INTRA.REPUL>
0

>  <SCORE.INTRA.REPUL.0>
0

>  <SCORE.INTRA.SOLV>
1.24584

>  <SCORE.INTRA.SOLV.lig_0>
-51.4104

>  <SCORE.INTRA.VDW>
-3.02122

>  <SCORE.INTRA.VDW.0>
0.110327

>  <SCORE.INTRA.norm>
-0.12585

>  <SCORE.RESTR>
1.13404

>  <SCORE.RESTR.CAVITY>
1.13404

>  <SCORE.RESTR.norm>
0.0354388

>  <SCORE.SYSTEM>
0

>  <SCORE.SYSTEM.CONST>
0

>  <SCORE.SYSTEM.DIHEDRAL>
0

>  <SCORE.SYSTEM.SOLV>
0

>  <SCORE.SYSTEM.norm>
0

>  <SCORE.heavy>
32

>  <SCORE.norm>
-0.631111

>  <RMSD>
14.730

$$$$
lig.pdb
 OpenBabel11021811523D
libRbt.so/2013.1/901 2013/11/27
 32 34  0  0  0  0  0  0  0  0999 V2000
    3.9069    1.7185   -2.4462 P   0  0  0  0  0  0  0  0  0  0  0  0
    4.6943    2.1034   -1.2175 O   0  0  0  0  0  0  0  0  0  0  0  0
    3.7331    3.1287   -3.2297 O   0  0  0  0  0  0  0  0  0  0  0  0
    4.5651    0.8316   -3.4735 O   0  0  0  0  0  0  0  0  0  0  0  0
    2.7480    0.9893   -1.9689 O   0  0  0  0  0  0  0  0  0  0  0  0
    2.0090    1.8210   -0.9903 P   0  0  1  0  0  0  0  0  0  0  0  0
    2.7937    1.8624    0.2661 O   0  0  0  0  0  0  0  0  0  0  0  0
    1.8553    3.1999   -1.5095 O   0  0  0  0  0  0  0  0  0  0  0  0
    0.6721    1.2242   -0.7452 O   0  0  0  0  0  0  0  0  0  0  0  0
    0.0613    1.1629    0.6040 P   0  0  1  0  0  0  0  0  0  0  0  0
    0.1170   -0.1642    1.2500 O   0  0  0  0  0  0  0  0  0  0  0  0
    0.3855    2.3013    1.4923 O   0  0  0  0  0  0  0  0  0  0  0  0
   -1.5174    1.3276    0.2888 O   0  0  0  0  0  0  0  0  0  0  0  0
   -2.0103    2.2742   -0.6405 C   0  0  0  0  0  0  0  0  0  0  0  0
   -3.4266    2.7562   -0.2969 C   0  0  1  0  0  0  0  0  0  0  0  0
   -3.4264    4.1491   -0.0595 O   0  0  0  0  0  0  0  0  0  0  0  0
   -4.4199    2.6472   -1.4670 C   0  0  1  0  0  0  0  0  0  0  0  0
   -4.9165    1.3446   -1.7256 O   0  0  0  0  0  0  0  0  0  0  0  0
   -5.5223    3.6353   -1.0870 C   0  0  1  0  0  0  0  0  0  0  0  0
   -6.5628    3.0181   -0.3497 O   0  0  0  0  0  0  0  0  0  0  0  0
   -4.7682    4.5909   -0.1643 C   0  0  2  0  0  0  0  0  0  0  0  0
   -4.8358    6.0196   -0.5388 N   0  0  0  0  0  0  0  0  0  0  0  0
   -5.8868    6.9010   -0.5078 C   0  0  0  0  0  0  0  0  0  0  0  0
   -5.6111    8.0769   -1.0098 N   0  0  0  0  0  0  0  0  0  0  0  0
   -4.2730    7.9826   -1.3802 C   0  0  0  0  0  0  0  0  0  0  0  0
   -3.4116    8.9287   -2.0227 C   0  0  0  0  0  0  0  0  0  0  0  0
   -3.6997   10.0521   -2.4304 O   0  0  0  0  0  0  0  0  0  0  0  0
   -2.1061    8.4474   -2.1901 N   0  0  0  0  0  0  0  0  0  0  0  0
   -1.6813    7.2032   -1.7490 C   0  0  0  0  0  0  0  0  0  0  0  0
   -0.3839    6.9015   -1.8723 N   0  0  0  0  0  0  0  0  0  0  0  0
   -2.5046    6.3009   -1.1905 N   0  0  0  0  0  0  0  0  0  0  0  0
   -3.7826    6.7442   -1.0398 C   0  0  0  0  0  0  0  0  0  0  0  0
  1  2  2  0  0  0  0
  1  4  1  0  0  0  0
  1  3  1  0  0  0  0
  5  1  1  0  0  0  0
  6  7  2  1  0  0  0
  6  9  1  0  0  0  0
  6  5  1  0  0  0  0
  6  8  1  0  0  0  0
 10 11  2  1  0  0  0
 10 12  1  0  0  0  0
 10 13  1  0  0  0  0
 10  9  1  0  0  0  0
 13 14  1  0  0  0  0
 15 14  1  6  0  0  0
 15 16  1  0  0  0  0
 17 19  1  0  0  0  0
 17 15  1  0  0  0  0
 17 18  1  1  0  0  0
 19 21  1  0  0  0  0
 19 20  1  1  0  0  0
 21 16  1  0  0  0  0
 21 22  1  6  0  0  0
 22 32  1  0  0  0  0
 23 22  1  0  0  0  0
 23 24  2  0  0  0  0
 24 25  1  0  0  0  0
 25 26  1  0  0  0  0
 26 27  2  0  0  0  0
 26 28  1  0  0  0  0
 29 28  1  0  0  0  0
 29 30  1  0  0  0  0
 31 29  2  0  0  0  0
 32 25  2  0  0  0  0
 32 31  1  0  0  0  0
M  END
>  <CHROM.1>
55.48895447,139.50586764,-72.98337640,-43.23835479,-103.11546765,-151.11413093
118.69447426,-113.25908096,163.12778069,-166.39421183,-1.00161424,3.67841473
-1.03218469,-0.55785631,0.22746537,-0.30897630

>  <Name>
lig.pdb

>  <RI>
2.72908e+07

>  <Rbt.Current_Directory>
/home/itssahil/PROJECTS/Mol_Feturizer/New_Systems/rnas/5lwj

>  <Rbt.Executable>
rbdock ($Id: //depot/dev/client3/rdock/2013.1/src/exe/rbdock.cxx#4 $)

>  <Rbt.Library>
libRbt.so (2013.1, Build901 2013/11/27)

>  <Rbt.Parameter_File>
/export/apps/rDock/src/rDock_2013.1_src/data/scripts/dock_solv.prm

>  <Rbt.Receptor>
prm/blind_docking_20.prm

>  <SCORE>
37.5316

>  <SCORE.INTER>
30.4702

>  <SCORE.INTER.CONST>
1

>  <SCORE.INTER.POLAR>
-2.21058

>  <SCORE.INTER.ROT>
8

>  <SCORE.INTER.SOLV>
27.1379

>  <SCORE.INTER.VDW>
9.70275

>  <SCORE.INTER.norm>
0.952192

>  <SCORE.INTRA>
6.88093

>  <SCORE.INTRA.DIHEDRAL>
12.5154

>  <SCORE.INTRA.DIHEDRAL.0>
10.9248

>  <SCORE.INTRA.POLAR>
0

>  <SCORE.INTRA.POLAR.0>
0

>  <SCORE.INTRA.REPUL>
0.254892

>  <SCORE.INTRA.REPUL.0>
0

>  <SCORE.INTRA.SOLV>
-0.463277

>  <SCORE.INTRA.SOLV.lig_0>
-51.4104

>  <SCORE.INTRA.VDW>
-0.419622

>  <SCORE.INTRA.VDW.0>
0.110327

>  <SCORE.INTRA.norm>
0.215029

>  <SCORE.RESTR>
0.180545

>  <SCORE.RESTR.CAVITY>
0.180545

>  <SCORE.RESTR.norm>
0.00564204

>  <SCORE.SYSTEM>
0

>  <SCORE.SYSTEM.CONST>
0

>  <SCORE.SYSTEM.DIHEDRAL>
0

>  <SCORE.SYSTEM.SOLV>
0

>  <SCORE.SYSTEM.norm>
0

>  <SCORE.heavy>
32

>  <SCORE.norm>
1.17286

>  <RMSD>
14.766

$$$$
lig.pdb
 OpenBabel11021811523D
libRbt.so/2013.1/901 2013/11/27
 32 34  0  0  0  0  0  0  0  0999 V2000
    0.3774   -1.9430    0.0808 P   0  0  0  0  0  0  0  0  0  0  0  0
   -0.7228   -2.4977   -0.7908 O   0  0  0  0  0  0  0  0  0  0  0  0
   -0.2089   -2.1344    1.5816 O   0  0  0  0  0  0  0  0  0  0  0  0
    1.6951   -2.6755    0.1289 O   0  0  0  0  0  0  0  0  0  0  0  0
    0.6713   -0.6203   -0.4358 O   0  0  0  0  0  0  0  0  0  0  0  0
    0.3895    0.3924    0.6085 P   0  0  1  0  0  0  0  0  0  0  0  0
   -1.0515    0.3187    0.9461 O   0  0  0  0  0  0  0  0  0  0  0  0
    1.1858    0.1034    1.8239 O   0  0  0  0  0  0  0  0  0  0  0  0
    0.7311    1.7418    0.0927 O   0  0  0  0  0  0  0  0  0  0  0  0
    1.0490    2.8804    0.9868 P   0  0  1  0  0  0  0  0  0  0  0  0
    1.3173    2.5097    2.3912 O   0  0  0  0  0  0  0  0  0  0  0  0
    1.9777    3.8836    0.4200 O   0  0  0  0  0  0  0  0  0  0  0  0
   -0.3685    3.6531    1.0983 O   0  0  0  0  0  0  0  0  0  0  0  0
   -0.4573    5.0602    1.2207 C   0  0  0  0  0  0  0  0  0  0  0  0
   -0.1565    5.7871   -0.0975 C   0  0  1  0  0  0  0  0  0  0  0  0
   -1.3414    5.9479   -0.8502 O   0  0  0  0  0  0  0  0  0  0  0  0
    0.2871    7.2489    0.0875 C   0  0  1  0  0  0  0  0  0  0  0  0
    1.6301    7.4303    0.5041 O   0  0  0  0  0  0  0  0  0  0  0  0
    0.0007    7.8795   -1.2750 C   0  0  1  0  0  0  0  0  0  0  0  0
    1.1198    7.8124   -2.1411 O   0  0  0  0  0  0  0  0  0  0  0  0
   -1.0912    6.9564   -1.8128 C   0  0  2  0  0  0  0  0  0  0  0  0
   -2.3423    7.6275   -2.2256 N   0  0  0  0  0  0  0  0  0  0  0  0
   -2.5681    8.5805   -3.1865 C   0  0  0  0  0  0  0  0  0  0  0  0
   -3.7972    9.0268   -3.2159 N   0  0  0  0  0  0  0  0  0  0  0  0
   -4.4452    8.3024   -2.2199 C   0  0  0  0  0  0  0  0  0  0  0  0
   -5.7937    8.3677   -1.7432 C   0  0  0  0  0  0  0  0  0  0  0  0
   -6.6829    9.1355   -2.1052 O   0  0  0  0  0  0  0  0  0  0  0  0
   -6.0588    7.4305   -0.7355 N   0  0  0  0  0  0  0  0  0  0  0  0
   -5.1280    6.5125   -0.2731 C   0  0  0  0  0  0  0  0  0  0  0  0
   -5.5336    5.5994    0.6165 N   0  0  0  0  0  0  0  0  0  0  0  0
   -3.8512    6.4873   -0.6890 N   0  0  0  0  0  0  0  0  0  0  0  0
   -3.5705    7.4059   -1.6533 C   0  0  0  0  0  0  0  0  0  0  0  0
  1  2  2  0  0  0  0
  1  4  1  0  0  0  0
  1  3  1  0  0  0  0
  5  1  1  0  0  0  0
  6  7  2  1  0  0  0
  6  9  1  0  0  0  0
  6  5  1  0  0  0  0
  6  8  1  0  0  0  0
 10 11  2  1  0  0  0
 10 12  1  0  0  0  0
 10 13  1  0  0  0  0
 10  9  1  0  0  0  0
 13 14  1  0  0  0  0
 15 14  1  1  0  0  0
 15 16  1  0  0  0  0
 17 19  1  0  0  0  0
 17 15  1  0  0  0  0
 17 18  1  6  0  0  0
 19 21  1  0  0  0  0
 19 20  1  6  0  0  0
 21 16  1  0  0  0  0
 21 22  1  1  0  0  0
 22 32  1  0  0  0  0
 23 22  1  0  0  0  0
 23 24  2  0  0  0  0
 24 25  1  0  0  0  0
 25 26  1  0  0  0  0
 26 27  2  0  0  0  0
 26 28  1  0  0  0  0
 29 28  1  0  0  0  0
 29 30  1  0  0  0  0
 31 29  2  0  0  0  0
 32 25  2  0  0  0  0
 32 31  1  0  0  0  0
M  END
>  <CHROM.1>
118.13284117,-156.76221629,-61.49029988,-146.19137535,13.94509185,74.33070509
89.09805530,-58.03120397,-172.80526387,-174.94296934,-1.04484830,3.94487271
-0.24748388,1.12034044,0.16722575,2.97241848

>  <Name>
lig.pdb

>  <RI>
1.17715e+07

>  <Rbt.Current_Directory>
/home/itssahil/PROJECTS/Mol_Feturizer/New_Systems/rnas/5lwj

>  <Rbt.Executable>
rbdock ($Id: //depot/dev/client3/rdock/2013.1/src/exe/rbdock.cxx#4 $)

>  <Rbt.Library>
libRbt.so (2013.1, Build901 2013/11/27)

>  <Rbt.Parameter_File>
/export/apps/rDock/src/rDock_2013.1_src/data/scripts/dock_solv.prm

>  <Rbt.Receptor>
prm/blind_docking_60.prm

>  <SCORE>
-26.3664

>  <SCORE.INTER>
-27.983

>  <SCORE.INTER.CONST>
1

>  <SCORE.INTER.POLAR>
-2.96817

>  <SCORE.INTER.ROT>
8

>  <SCORE.INTER.SOLV>
27.4966

>  <SCORE.INTER.VDW>
-26.8603

>  <SCORE.INTER.norm>
-0.874469

>  <SCORE.INTRA>
1.0193

>  <SCORE.INTRA.DIHEDRAL>
1.82128

>  <SCORE.INTRA.DIHEDRAL.0>
10.9248

>  <SCORE.INTRA.POLAR>
0

>  <SCORE.INTRA.POLAR.0>
0

>  <SCORE.INTRA.REPUL>
0.389711

>  <SCORE.INTRA.REPUL.0>
0

>  <SCORE.INTRA.SOLV>
-0.540468

>  <SCORE.INTRA.SOLV.lig_0>
-51.4104

>  <SCORE.INTRA.VDW>
-1.56967

>  <SCORE.INTRA.VDW.0>
0.110327

>  <SCORE.INTRA.norm>
0.031853

>  <SCORE.RESTR>
0.597276

>  <SCORE.RESTR.CAVITY>
0.597276

>  <SCORE.RESTR.norm>
0.0186649

>  <SCORE.SYSTEM>
0

>  <SCORE.SYSTEM.CONST>
0

>  <SCORE.SYSTEM.DIHEDRAL>
0

>  <SCORE.SYSTEM.SOLV>
0

>  <SCORE.SYSTEM.norm>
0

>  <SCORE.heavy>
32

>  <SCORE.norm>
-0.823951

>  <RMSD>
14.770

$$$$
lig.pdb
 OpenBabel11021811523D
libRbt.so/2013.1/901 2013/11/27
 32 34  0  0  0  0  0  0  0  0999 V2000
   -3.8741    7.3297   -2.3139 P   0  0  0  0  0  0  0  0  0  0  0  0
   -4.9030    6.5163   -3.0606 O   0  0  0  0  0  0  0  0  0  0  0  0
   -3.0937    8.1156   -3.4996 O   0  0  0  0  0  0  0  0  0  0  0  0
   -4.3514    8.4444   -1.4167 O   0  0  0  0  0  0  0  0  0  0  0  0
   -3.1697    6.3968   -1.4559 O   0  0  0  0  0  0  0  0  0  0  0  0
   -4.1503    5.5663   -0.7181 P   0  0  1  0  0  0  0  0  0  0  0  0
   -5.2271    6.4551   -0.2217 O   0  0  0  0  0  0  0  0  0  0  0  0
   -4.7397    4.5523   -1.6232 O   0  0  0  0  0  0  0  0  0  0  0  0
   -3.4716    4.8927    0.4174 O   0  0  0  0  0  0  0  0  0  0  0  0
   -3.1654    5.5885    1.6897 P   0  0  1  0  0  0  0  0  0  0  0  0
   -3.8383    6.8922    1.8609 O   0  0  0  0  0  0  0  0  0  0  0  0
   -3.1645    4.7262    2.8925 O   0  0  0  0  0  0  0  0  0  0  0  0
   -1.6181    6.0212    1.4964 O   0  0  0  0  0  0  0  0  0  0  0  0
   -0.7376    5.3235    0.6358 C   0  0  0  0  0  0  0  0  0  0  0  0
    0.1083    4.2793    1.3777 C   0  0  1  0  0  0  0  0  0  0  0  0
   -0.1756    2.9832    0.8920 O   0  0  0  0  0  0  0  0  0  0  0  0
    1.6167    4.3871    1.0930 C   0  0  1  0  0  0  0  0  0  0  0  0
    2.2925    5.4311    1.7739 O   0  0  0  0  0  0  0  0  0  0  0  0
    2.1453    3.0014    1.4626 C   0  0  1  0  0  0  0  0  0  0  0  0
    2.5633    2.9316    2.8144 O   0  0  0  0  0  0  0  0  0  0  0  0
    0.8928    2.1437    1.2921 C   0  0  2  0  0  0  0  0  0  0  0  0
    1.0359    0.9861    0.3835 N   0  0  0  0  0  0  0  0  0  0  0  0
    0.5670   -0.2984    0.4950 C   0  0  0  0  0  0  0  0  0  0  0  0
    0.9691   -1.0972   -0.4595 N   0  0  0  0  0  0  0  0  0  0  0  0
    1.7420   -0.2822   -1.2811 C   0  0  0  0  0  0  0  0  0  0  0  0
    2.4870   -0.5857   -2.4654 C   0  0  0  0  0  0  0  0  0  0  0  0
    2.6339   -1.6825   -3.0009 O   0  0  0  0  0  0  0  0  0  0  0  0
    3.1097    0.5414   -3.0184 N   0  0  0  0  0  0  0  0  0  0  0  0
    2.9893    1.8211   -2.4979 C   0  0  0  0  0  0  0  0  0  0  0  0
    3.5443    2.8311   -3.1773 N   0  0  0  0  0  0  0  0  0  0  0  0
    2.3295    2.0927   -1.3601 N   0  0  0  0  0  0  0  0  0  0  0  0
    1.7359    1.0048   -0.7976 C   0  0  0  0  0  0  0  0  0  0  0  0
  1  2  2  0  0  0  0
  1  4  1  0  0  0  0
  1  3  1  0  0  0  0
  5  1  1  0  0  0  0
  6  7  2  1  0  0  0
  6  9  1  0  0  0  0
  6  5  1  0  0  0  0
  6  8  1  0  0  0  0
 10 11  2  1  0  0  0
 10 12  1  0  0  0  0
 10 13  1  0  0  0  0
 10  9  1  0  0  0  0
 13 14  1  0  0  0  0
 15 14  1  6  0  0  0
 15 16  1  0  0  0  0
 17 19  1  0  0  0  0
 17 15  1  0  0  0  0
 17 18  1  1  0  0  0
 19 21  1  0  0  0  0
 19 20  1  1  0  0  0
 21 16  1  0  0  0  0
 21 22  1  6  0  0  0
 22 32  1  0  0  0  0
 23 22  1  0  0  0  0
 23 24  2  0  0  0  0
 24 25  1  0  0  0  0
 25 26  1  0  0  0  0
 26 27  2  0  0  0  0
 26 28  1  0  0  0  0
 29 28  1  0  0  0  0
 29 30  1  0  0  0  0
 31 29  2  0  0  0  0
 32 25  2  0  0  0  0
 32 31  1  0  0  0  0
M  END
>  <CHROM.1>
-48.56309358,79.01794844,-43.97766116,-25.54860306,12.83083604,-95.99561832
117.73484612,-59.20844942,-171.07751905,-96.79414709,-0.95172438,4.04450726
-0.36606313,2.96626907,-0.72998829,1.35299951

>  <Name>
lig.pdb

>  <RI>
1.17715e+07

>  <Rbt.Current_Directory>
/home/itssahil/PROJECTS/Mol_Feturizer/New_Systems/rnas/5lwj

>  <Rbt.Executable>
rbdock ($Id: //depot/dev/client3/rdock/2013.1/src/exe/rbdock.cxx#4 $)

>  <Rbt.Library>
libRbt.so (2013.1, Build901 2013/11/27)

>  <Rbt.Parameter_File>
/export/apps/rDock/src/rDock_2013.1_src/data/scripts/dock_solv.prm

>  <Rbt.Receptor>
prm/blind_docking_60.prm

>  <SCORE>
19.0746

>  <SCORE.INTER>
13.5514

>  <SCORE.INTER.CONST>
1

>  <SCORE.INTER.POLAR>
-1.87871

>  <SCORE.INTER.ROT>
8

>  <SCORE.INTER.SOLV>
28.7768

>  <SCORE.INTER.VDW>
-3.22898

>  <SCORE.INTER.norm>
0.42348

>  <SCORE.INTRA>
4.49921

>  <SCORE.INTRA.DIHEDRAL>
6.3643

>  <SCORE.INTRA.DIHEDRAL.0>
10.9248

>  <SCORE.INTRA.POLAR>
0

>  <SCORE.INTRA.POLAR.0>
0

>  <SCORE.INTRA.REPUL>
0.0841838

>  <SCORE.INTRA.REPUL.0>
0

>  <SCORE.INTRA.SOLV>
1.43106

>  <SCORE.INTRA.SOLV.lig_0>
-51.4104

>  <SCORE.INTRA.VDW>
0.180611

>  <SCORE.INTRA.VDW.0>
0.110327

>  <SCORE.INTRA.norm>
0.1406

>  <SCORE.RESTR>
1.02401

>  <SCORE.RESTR.CAVITY>
1.02401

>  <SCORE.RESTR.norm>
0.0320003

>  <SCORE.SYSTEM>
0

>  <SCORE.SYSTEM.CONST>
0

>  <SCORE.SYSTEM.DIHEDRAL>
0

>  <SCORE.SYSTEM.SOLV>
0

>  <SCORE.SYSTEM.norm>
0

>  <SCORE.heavy>
32

>  <SCORE.norm>
0.596081

>  <RMSD>
14.789

$$$$
lig.pdb
 OpenBabel11021811523D
libRbt.so/2013.1/901 2013/11/27
 32 34  0  0  0  0  0  0  0  0999 V2000
    2.8036   -1.1490   -1.1015 P   0  0  0  0  0  0  0  0  0  0  0  0
    2.2205   -2.4930   -0.7390 O   0  0  0  0  0  0  0  0  0  0  0  0
    3.7983   -0.8313    0.1403 O   0  0  0  0  0  0  0  0  0  0  0  0
    3.7115   -1.0593   -2.3027 O   0  0  0  0  0  0  0  0  0  0  0  0
    1.6747   -0.2843   -1.3855 O   0  0  0  0  0  0  0  0  0  0  0  0
    1.1044    0.2180   -0.1135 P   0  0  1  0  0  0  0  0  0  0  0  0
   -0.1366    0.9648   -0.4271 O   0  0  0  0  0  0  0  0  0  0  0  0
    0.7725   -0.9179    0.7777 O   0  0  0  0  0  0  0  0  0  0  0  0
    2.0889    1.1079    0.5517 O   0  0  0  0  0  0  0  0  0  0  0  0
    2.6054    2.3427   -0.0850 P   0  0  1  0  0  0  0  0  0  0  0  0
    4.0523    2.5762    0.0985 O   0  0  0  0  0  0  0  0  0  0  0  0
    2.1020    2.6020   -1.4522 O   0  0  0  0  0  0  0  0  0  0  0  0
    1.9493    3.5124    0.8206 O   0  0  0  0  0  0  0  0  0  0  0  0
    0.5646    3.5615    1.1086 C   0  0  0  0  0  0  0  0  0  0  0  0
    0.0416    4.9979    1.2481 C   0  0  1  0  0  0  0  0  0  0  0  0
    0.6554    5.8383    0.2924 O   0  0  0  0  0  0  0  0  0  0  0  0
   -1.4446    5.1552    0.8816 C   0  0  1  0  0  0  0  0  0  0  0  0
   -2.3652    4.7152    1.8660 O   0  0  0  0  0  0  0  0  0  0  0  0
   -1.5760    6.6467    0.5742 C   0  0  1  0  0  0  0  0  0  0  0  0
   -1.9390    7.3986    1.7188 O   0  0  0  0  0  0  0  0  0  0  0  0
   -0.1421    7.0042    0.1876 C   0  0  2  0  0  0  0  0  0  0  0  0
    0.0167    7.6469   -1.1344 N   0  0  0  0  0  0  0  0  0  0  0  0
    1.0775    8.3314   -1.6716 C   0  0  0  0  0  0  0  0  0  0  0  0
    0.8339    8.8561   -2.8447 N   0  0  0  0  0  0  0  0  0  0  0  0
   -0.4751    8.4740   -3.1224 C   0  0  0  0  0  0  0  0  0  0  0  0
   -1.3204    8.7745   -4.2382 C   0  0  0  0  0  0  0  0  0  0  0  0
   -1.0655    9.4930   -5.2026 O   0  0  0  0  0  0  0  0  0  0  0  0
   -2.5761    8.1587   -4.1490 N   0  0  0  0  0  0  0  0  0  0  0  0
   -2.9499    7.3184   -3.1111 C   0  0  0  0  0  0  0  0  0  0  0  0
   -4.1367    6.7066   -3.1936 N   0  0  0  0  0  0  0  0  0  0  0  0
   -2.1717    7.0783   -2.0431 N   0  0  0  0  0  0  0  0  0  0  0  0
   -0.9555    7.6864   -2.1032 C   0  0  0  0  0  0  0  0  0  0  0  0
  1  2  2  0  0  0  0
  1  4  1  0  0  0  0
  1  3  1  0  0  0  0
  5  1  1  0  0  0  0
  6  7  2  6  0  0  0
  6  9  1  0  0  0  0
  6  5  1  0  0  0  0
  6  8  1  0  0  0  0
 10 11  2  1  0  0  0
 10 12  1  0  0  0  0
 10 13  1  0  0  0  0
 10  9  1  0  0  0  0
 13 14  1  0  0  0  0
 15 14  1  6  0  0  0
 15 16  1  0  0  0  0
 17 19  1  0  0  0  0
 17 15  1  0  0  0  0
 17 18  1  1  0  0  0
 19 21  1  0  0  0  0
 19 20  1  1  0  0  0
 21 16  1  0  0  0  0
 21 22  1  6  0  0  0
 22 32  1  0  0  0  0
 23 22  1  0  0  0  0
 23 24  2  0  0  0  0
 24 25  1  0  0  0  0
 25 26  1  0  0  0  0
 26 27  2  0  0  0  0
 26 28  1  0  0  0  0
 29 28  1  0  0  0  0
 29 30  1  0  0  0  0
 31 29  2  0  0  0  0
 32 25  2  0  0  0  0
 32 31  1  0  0  0  0
M  END
>  <CHROM.1>
80.75329388,59.83638776,-173.44930849,-51.05593188,-138.64098656,-147.78130790
38.71703591,58.90371562,34.52673888,-70.87675443,0.51259222,3.84021973,-0.84212432
-0.66733813,1.01499333,-1.04272044

>  <Name>
lig.pdb

>  <RI>
2.72908e+07

>  <Rbt.Current_Directory>
/home/itssahil/PROJECTS/Mol_Feturizer/New_Systems/rnas/5lwj

>  <Rbt.Executable>
rbdock ($Id: //depot/dev/client3/rdock/2013.1/src/exe/rbdock.cxx#4 $)

>  <Rbt.Library>
libRbt.so (2013.1, Build901 2013/11/27)

>  <Rbt.Parameter_File>
/export/apps/rDock/src/rDock_2013.1_src/data/scripts/dock_solv.prm

>  <Rbt.Receptor>
prm/blind_docking_20.prm

>  <SCORE>
-15.1829

>  <SCORE.INTER>
-14.8338

>  <SCORE.INTER.CONST>
1

>  <SCORE.INTER.POLAR>
-1.47706

>  <SCORE.INTER.ROT>
8

>  <SCORE.INTER.SOLV>
23.6805

>  <SCORE.INTER.VDW>
-21.7925

>  <SCORE.INTER.norm>
-0.463557

>  <SCORE.INTRA>
-0.34902

>  <SCORE.INTRA.DIHEDRAL>
2.99193

>  <SCORE.INTRA.DIHEDRAL.0>
10.9248

>  <SCORE.INTRA.POLAR>
0

>  <SCORE.INTRA.POLAR.0>
0

>  <SCORE.INTRA.REPUL>
0

>  <SCORE.INTRA.REPUL.0>
0

>  <SCORE.INTRA.SOLV>
1.71151

>  <SCORE.INTRA.SOLV.lig_0>
-51.4104

>  <SCORE.INTRA.VDW>
-2.70074

>  <SCORE.INTRA.VDW.0>
0.110327

>  <SCORE.INTRA.norm>
-0.0109069

>  <SCORE.RESTR>
0

>  <SCORE.RESTR.CAVITY>
0

>  <SCORE.RESTR.norm>
0

>  <SCORE.SYSTEM>
0

>  <SCORE.SYSTEM.CONST>
0

>  <SCORE.SYSTEM.DIHEDRAL>
0

>  <SCORE.SYSTEM.SOLV>
0

>  <SCORE.SYSTEM.norm>
0

>  <SCORE.heavy>
32

>  <SCORE.norm>
-0.474464

>  <RMSD>
14.810

$$$$
lig.pdb
 OpenBabel11021811523D
libRbt.so/2013.1/901 2013/11/27
 32 34  0  0  0  0  0  0  0  0999 V2000
   -3.5957    8.0713   -1.7015 P   0  0  0  0  0  0  0  0  0  0  0  0
   -4.0179    6.9220   -2.5840 O   0  0  0  0  0  0  0  0  0  0  0  0
   -2.0856    8.3869   -2.2039 O   0  0  0  0  0  0  0  0  0  0  0  0
   -4.2973    9.3968   -1.8623 O   0  0  0  0  0  0  0  0  0  0  0  0
   -3.8485    7.6455   -0.3386 O   0  0  0  0  0  0  0  0  0  0  0  0
   -2.7856    6.7068    0.0914 P   0  0  1  0  0  0  0  0  0  0  0  0
   -3.1224    6.2188    1.4495 O   0  0  0  0  0  0  0  0  0  0  0  0
   -2.7226    5.5524   -0.8349 O   0  0  0  0  0  0  0  0  0  0  0  0
   -1.4796    7.4124    0.1049 O   0  0  0  0  0  0  0  0  0  0  0  0
   -0.2061    6.7397   -0.2454 P   0  0  1  0  0  0  0  0  0  0  0  0
   -0.1139    6.2770   -1.6451 O   0  0  0  0  0  0  0  0  0  0  0  0
    1.0142    7.3960    0.2745 O   0  0  0  0  0  0  0  0  0  0  0  0
   -0.3012    5.3471    0.5732 O   0  0  0  0  0  0  0  0  0  0  0  0
    0.8322    4.7305    1.1546 C   0  0  0  0  0  0  0  0  0  0  0  0
    0.9558    3.2477    0.7773 C   0  0  1  0  0  0  0  0  0  0  0  0
    1.5417    3.1143   -0.5015 O   0  0  0  0  0  0  0  0  0  0  0  0
    1.9523    2.4662    1.6514 C   0  0  1  0  0  0  0  0  0  0  0  0
    1.4823    2.1081    2.9401 O   0  0  0  0  0  0  0  0  0  0  0  0
    2.2997    1.2520    0.7905 C   0  0  1  0  0  0  0  0  0  0  0  0
    1.4471    0.1507    1.0503 O   0  0  0  0  0  0  0  0  0  0  0  0
    2.0043    1.7801   -0.6121 C   0  0  2  0  0  0  0  0  0  0  0  0
    3.1200    1.6764   -1.5767 N   0  0  0  0  0  0  0  0  0  0  0  0
    3.7421    2.6413   -2.3279 C   0  0  0  0  0  0  0  0  0  0  0  0
    4.6381    2.1745   -3.1587 N   0  0  0  0  0  0  0  0  0  0  0  0
    4.6318    0.8020   -2.9287 C   0  0  0  0  0  0  0  0  0  0  0  0
    5.3649   -0.2550   -3.5575 C   0  0  0  0  0  0  0  0  0  0  0  0
    6.1555   -0.1675   -4.4948 O   0  0  0  0  0  0  0  0  0  0  0  0
    5.0892   -1.5116   -3.0018 N   0  0  0  0  0  0  0  0  0  0  0  0
    4.2274   -1.7092   -1.9335 C   0  0  0  0  0  0  0  0  0  0  0  0
    4.1293   -2.9424   -1.4244 N   0  0  0  0  0  0  0  0  0  0  0  0
    3.5057   -0.7216   -1.3789 N   0  0  0  0  0  0  0  0  0  0  0  0
    3.7453    0.5035   -1.9212 C   0  0  0  0  0  0  0  0  0  0  0  0
  1  2  2  0  0  0  0
  1  4  1  0  0  0  0
  1  3  1  0  0  0  0
  5  1  1  0  0  0  0
  6  7  2  1  0  0  0
  6  9  1  0  0  0  0
  6  5  1  0  0  0  0
  6  8  1  0  0  0  0
 10 11  2  6  0  0  0
 10 12  1  0  0  0  0
 10 13  1  0  0  0  0
 10  9  1  0  0  0  0
 13 14  1  0  0  0  0
 15 14  1  1  0  0  0
 15 16  1  0  0  0  0
 17 19  1  0  0  0  0
 17 15  1  0  0  0  0
 17 18  1  1  0  0  0
 19 21  1  0  0  0  0
 19 20  1  1  0  0  0
 21 16  1  0  0  0  0
 21 22  1  6  0  0  0
 22 32  1  0  0  0  0
 23 22  1  0  0  0  0
 23 24  2  0  0  0  0
 24 25  1  0  0  0  0
 25 26  1  0  0  0  0
 26 27  2  0  0  0  0
 26 28  1  0  0  0  0
 29 28  1  0  0  0  0
 29 30  1  0  0  0  0
 31 29  2  0  0  0  0
 32 25  2  0  0  0  0
 32 31  1  0  0  0  0
M  END
>  <CHROM.1>
76.94296488,-145.64524120,-176.13382692,-144.51104705,64.57792259,-129.54973848
81.23090181,172.88306479,-71.46339168,0.65254837,0.58768350,3.96592971,-0.84609425
-2.91985586,-0.82088698,2.01463974

>  <Name>
lig.pdb

>  <RI>
1.2169e+07

>  <Rbt.Current_Directory>
/home/itssahil/PROJECTS/Mol_Feturizer/New_Systems/rnas/5lwj

>  <Rbt.Executable>
rbdock ($Id: //depot/dev/client3/rdock/2013.1/src/exe/rbdock.cxx#4 $)

>  <Rbt.Library>
libRbt.so (2013.1, Build901 2013/11/27)

>  <Rbt.Parameter_File>
/export/apps/rDock/src/rDock_2013.1_src/data/scripts/dock_solv.prm

>  <Rbt.Receptor>
prm/blind_docking_40.prm

>  <SCORE>
-25.963

>  <SCORE.INTER>
-27.7975

>  <SCORE.INTER.CONST>
1

>  <SCORE.INTER.POLAR>
-1.50358

>  <SCORE.INTER.ROT>
8

>  <SCORE.INTER.SOLV>
23.2725

>  <SCORE.INTER.VDW>
-30.2106

>  <SCORE.INTER.norm>
-0.868672

>  <SCORE.INTRA>
0.100301

>  <SCORE.INTRA.DIHEDRAL>
4.93566

>  <SCORE.INTRA.DIHEDRAL.0>
10.9248

>  <SCORE.INTRA.POLAR>
0

>  <SCORE.INTRA.POLAR.0>
0

>  <SCORE.INTRA.REPUL>
0

>  <SCORE.INTRA.REPUL.0>
0

>  <SCORE.INTRA.SOLV>
1.21334

>  <SCORE.INTRA.SOLV.lig_0>
-51.4104

>  <SCORE.INTRA.VDW>
-2.9742

>  <SCORE.INTRA.VDW.0>
0.110327

>  <SCORE.INTRA.norm>
0.00313441

>  <SCORE.RESTR>
1.73422

>  <SCORE.RESTR.CAVITY>
1.73422

>  <SCORE.RESTR.norm>
0.0541944

>  <SCORE.SYSTEM>
0

>  <SCORE.SYSTEM.CONST>
0

>  <SCORE.SYSTEM.DIHEDRAL>
0

>  <SCORE.SYSTEM.SOLV>
0

>  <SCORE.SYSTEM.norm>
0

>  <SCORE.heavy>
32

>  <SCORE.norm>
-0.811343

>  <RMSD>
14.817

$$$$
lig.pdb
 OpenBabel11021811523D
libRbt.so/2013.1/901 2013/11/27
 32 34  0  0  0  0  0  0  0  0999 V2000
    0.1394   -0.6359    0.3247 P   0  0  0  0  0  0  0  0  0  0  0  0
   -0.3574    0.6697   -0.2467 O   0  0  0  0  0  0  0  0  0  0  0  0
   -1.2198   -1.5058    0.4930 O   0  0  0  0  0  0  0  0  0  0  0  0
    1.0074   -1.5154   -0.5402 O   0  0  0  0  0  0  0  0  0  0  0  0
    0.9438   -0.2888    1.4802 O   0  0  0  0  0  0  0  0  0  0  0  0
    1.8674    0.8145    1.1263 P   0  0  1  0  0  0  0  0  0  0  0  0
    2.9717    0.8271    2.1145 O   0  0  0  0  0  0  0  0  0  0  0  0
    2.4313    0.5909   -0.2253 O   0  0  0  0  0  0  0  0  0  0  0  0
    1.1317    2.1035    1.1571 O   0  0  0  0  0  0  0  0  0  0  0  0
    1.7134    3.3663    0.6434 P   0  0  1  0  0  0  0  0  0  0  0  0
    2.5495    4.1031    1.6128 O   0  0  0  0  0  0  0  0  0  0  0  0
    2.2693    3.2901   -0.7260 O   0  0  0  0  0  0  0  0  0  0  0  0
    0.4177    4.3259    0.5054 O   0  0  0  0  0  0  0  0  0  0  0  0
    0.1646    5.3915    1.4015 C   0  0  0  0  0  0  0  0  0  0  0  0
   -1.0289    6.2548    0.9696 C   0  0  1  0  0  0  0  0  0  0  0  0
   -0.7525    6.8937   -0.2600 O   0  0  0  0  0  0  0  0  0  0  0  0
   -2.2860    5.4418    0.6140 C   0  0  1  0  0  0  0  0  0  0  0  0
   -3.0284    4.9527    1.7185 O   0  0  0  0  0  0  0  0  0  0  0  0
   -3.0915    6.4022   -0.2607 C   0  0  1  0  0  0  0  0  0  0  0  0
   -3.9996    7.1819    0.4974 O   0  0  0  0  0  0  0  0  0  0  0  0
   -1.9923    7.3159   -0.7995 C   0  0  2  0  0  0  0  0  0  0  0  0
   -1.9269    7.4289   -2.2722 N   0  0  0  0  0  0  0  0  0  0  0  0
   -0.8459    7.4969   -3.1144 C   0  0  0  0  0  0  0  0  0  0  0  0
   -1.1594    7.6929   -4.3690 N   0  0  0  0  0  0  0  0  0  0  0  0
   -2.5504    7.7342   -4.3689 C   0  0  0  0  0  0  0  0  0  0  0  0
   -3.4794    7.9621   -5.4342 C   0  0  0  0  0  0  0  0  0  0  0  0
   -3.2272    8.2164   -6.6103 O   0  0  0  0  0  0  0  0  0  0  0  0
   -4.8145    7.8886   -5.0149 N   0  0  0  0  0  0  0  0  0  0  0  0
   -5.1987    7.5909   -3.7161 C   0  0  0  0  0  0  0  0  0  0  0  0
   -6.5044    7.4447   -3.4644 N   0  0  0  0  0  0  0  0  0  0  0  0
   -4.3240    7.4258   -2.7104 N   0  0  0  0  0  0  0  0  0  0  0  0
   -3.0219    7.5153   -3.0962 C   0  0  0  0  0  0  0  0  0  0  0  0
  1  2  2  0  0  0  0
  1  4  1  0  0  0  0
  1  3  1  0  0  0  0
  5  1  1  0  0  0  0
  6  7  2  1  0  0  0
  6  9  1  0  0  0  0
  6  5  1  0  0  0  0
  6  8  1  0  0  0  0
 10 11  2  1  0  0  0
 10 12  1  0  0  0  0
 10 13  1  0  0  0  0
 10  9  1  0  0  0  0
 13 14  1  0  0  0  0
 15 14  1  6  0  0  0
 15 16  1  0  0  0  0
 17 19  1  0  0  0  0
 17 15  1  0  0  0  0
 17 18  1  1  0  0  0
 19 21  1  0  0  0  0
 19 20  1  1  0  0  0
 21 16  1  0  0  0  0
 21 22  1  6  0  0  0
 22 32  1  0  0  0  0
 23 22  1  0  0  0  0
 23 24  2  0  0  0  0
 24 25  1  0  0  0  0
 25 26  1  0  0  0  0
 26 27  2  0  0  0  0
 26 28  1  0  0  0  0
 29 28  1  0  0  0  0
 29 30  1  0  0  0  0
 31 29  2  0  0  0  0
 32 25  2  0  0  0  0
 32 31  1  0  0  0  0
M  END
>  <CHROM.1>
-46.63896983,-169.99021719,-160.19980915,106.48840973,-85.52839966,173.24951874
-64.04547136,70.08009817,-168.88121074,-16.90984096,-0.85884248,4.21531354
-0.75795189,0.66320323,0.86056422,-2.91585102

>  <Name>
lig.pdb

>  <RI>
1.2169e+07

>  <Rbt.Current_Directory>
/home/itssahil/PROJECTS/Mol_Feturizer/New_Systems/rnas/5lwj

>  <Rbt.Executable>
rbdock ($Id: //depot/dev/client3/rdock/2013.1/src/exe/rbdock.cxx#4 $)

>  <Rbt.Library>
libRbt.so (2013.1, Build901 2013/11/27)

>  <Rbt.Parameter_File>
/export/apps/rDock/src/rDock_2013.1_src/data/scripts/dock_solv.prm

>  <Rbt.Receptor>
prm/blind_docking_40.prm

>  <SCORE>
-27.6104

>  <SCORE.INTER>
-26.397

>  <SCORE.INTER.CONST>
1

>  <SCORE.INTER.POLAR>
-1.07171

>  <SCORE.INTER.ROT>
8

>  <SCORE.INTER.SOLV>
24.0705

>  <SCORE.INTER.VDW>
-30.9824

>  <SCORE.INTER.norm>
-0.824905

>  <SCORE.INTRA>
-1.21659

>  <SCORE.INTRA.DIHEDRAL>
-2.98799

>  <SCORE.INTRA.DIHEDRAL.0>
10.9248

>  <SCORE.INTRA.POLAR>
-0.0709271

>  <SCORE.INTRA.POLAR.0>
0

>  <SCORE.INTRA.REPUL>
0

>  <SCORE.INTRA.REPUL.0>
0

>  <SCORE.INTRA.SOLV>
0.453339

>  <SCORE.INTRA.SOLV.lig_0>
-51.4104

>  <SCORE.INTRA.VDW>
0.291888

>  <SCORE.INTRA.VDW.0>
0.110327

>  <SCORE.INTRA.norm>
-0.0380184

>  <SCORE.RESTR>
0.00310186

>  <SCORE.RESTR.CAVITY>
0.00310186

>  <SCORE.RESTR.norm>
9.69332e-05

>  <SCORE.SYSTEM>
0

>  <SCORE.SYSTEM.CONST>
0

>  <SCORE.SYSTEM.DIHEDRAL>
0

>  <SCORE.SYSTEM.SOLV>
0

>  <SCORE.SYSTEM.norm>
0

>  <SCORE.heavy>
32

>  <SCORE.norm>
-0.862826

>  <RMSD>
14.819

$$$$
lig.pdb
 OpenBabel11021811523D
libRbt.so/2013.1/901 2013/11/27
 32 34  0  0  0  0  0  0  0  0999 V2000
    0.2787   -1.2674    0.8436 P   0  0  0  0  0  0  0  0  0  0  0  0
    0.2921   -2.0069    2.1593 O   0  0  0  0  0  0  0  0  0  0  0  0
    1.8235   -0.8047    0.6646 O   0  0  0  0  0  0  0  0  0  0  0  0
    0.0038   -2.0482   -0.4174 O   0  0  0  0  0  0  0  0  0  0  0  0
   -0.7815   -0.2835    0.9462 O   0  0  0  0  0  0  0  0  0  0  0  0
   -0.3336    0.9913    0.3379 P   0  0  1  0  0  0  0  0  0  0  0  0
    0.2631    0.6874   -0.9840 O   0  0  0  0  0  0  0  0  0  0  0  0
   -1.4902    1.8976    0.1490 O   0  0  0  0  0  0  0  0  0  0  0  0
    0.6700    1.6347    1.2224 O   0  0  0  0  0  0  0  0  0  0  0  0
    1.3174    2.9253    0.8875 P   0  0  1  0  0  0  0  0  0  0  0  0
    2.4002    3.3325    1.8059 O   0  0  0  0  0  0  0  0  0  0  0  0
    1.6119    3.1259   -0.5489 O   0  0  0  0  0  0  0  0  0  0  0  0
    0.1577    4.0035    1.2211 O   0  0  0  0  0  0  0  0  0  0  0  0
    0.3754    5.3996    1.1431 C   0  0  0  0  0  0  0  0  0  0  0  0
   -0.9335    6.2015    1.1388 C   0  0  1  0  0  0  0  0  0  0  0  0
   -1.0999    6.8621   -0.0990 O   0  0  0  0  0  0  0  0  0  0  0  0
   -2.1977    5.3256    1.1885 C   0  0  1  0  0  0  0  0  0  0  0  0
   -2.5192    4.7909    2.4617 O   0  0  0  0  0  0  0  0  0  0  0  0
   -3.2874    6.2479    0.6426 C   0  0  1  0  0  0  0  0  0  0  0  0
   -3.9382    6.9736    1.6706 O   0  0  0  0  0  0  0  0  0  0  0  0
   -2.4662    7.2218   -0.2003 C   0  0  2  0  0  0  0  0  0  0  0  0
   -2.8855    7.3476   -1.6126 N   0  0  0  0  0  0  0  0  0  0  0  0
   -3.9247    6.7616   -2.2900 C   0  0  0  0  0  0  0  0  0  0  0  0
   -3.9417    7.0249   -3.5710 N   0  0  0  0  0  0  0  0  0  0  0  0
   -2.8499    7.8672   -3.7589 C   0  0  0  0  0  0  0  0  0  0  0  0
   -2.3204    8.4605   -4.9495 C   0  0  0  0  0  0  0  0  0  0  0  0
   -2.7155    8.3108   -6.1040 O   0  0  0  0  0  0  0  0  0  0  0  0
   -1.2135    9.2829   -4.6998 N   0  0  0  0  0  0  0  0  0  0  0  0
   -0.7056    9.5273   -3.4328 C   0  0  0  0  0  0  0  0  0  0  0  0
    0.2879   10.4152   -3.3140 N   0  0  0  0  0  0  0  0  0  0  0  0
   -1.1754    8.9308   -2.3249 N   0  0  0  0  0  0  0  0  0  0  0  0
   -2.2380    8.1112   -2.5522 C   0  0  0  0  0  0  0  0  0  0  0  0
  1  2  2  0  0  0  0
  1  4  1  0  0  0  0
  1  3  1  0  0  0  0
  5  1  1  0  0  0  0
  6  7  2  6  0  0  0
  6  9  1  0  0  0  0
  6  5  1  0  0  0  0
  6  8  1  0  0  0  0
 10 11  2  1  0  0  0
 10 12  1  0  0  0  0
 10 13  1  0  0  0  0
 10  9  1  0  0  0  0
 13 14  1  0  0  0  0
 15 14  1  6  0  0  0
 15 16  1  0  0  0  0
 17 19  1  0  0  0  0
 17 15  1  0  0  0  0
 17 18  1  1  0  0  0
 19 21  1  0  0  0  0
 19 20  1  1  0  0  0
 21 16  1  0  0  0  0
 21 22  1  6  0  0  0
 22 32  1  0  0  0  0
 23 22  1  0  0  0  0
 23 24  2  0  0  0  0
 24 25  1  0  0  0  0
 25 26  1  0  0  0  0
 26 27  2  0  0  0  0
 26 28  1  0  0  0  0
 29 28  1  0  0  0  0
 29 30  1  0  0  0  0
 31 29  2  0  0  0  0
 32 25  2  0  0  0  0
 32 31  1  0  0  0  0
M  END
>  <CHROM.1>
139.05652240,179.64383024,47.88595305,175.03704306,-173.25498158,164.91212885
-114.42759741,134.23055118,35.75459570,126.50983880,-0.84044828,4.25460046
-0.47830522,-0.75016170,1.20354507,-1.21412027

>  <Name>
lig.pdb

>  <RI>
1.17715e+07

>  <Rbt.Current_Directory>
/home/itssahil/PROJECTS/Mol_Feturizer/New_Systems/rnas/5lwj

>  <Rbt.Executable>
rbdock ($Id: //depot/dev/client3/rdock/2013.1/src/exe/rbdock.cxx#4 $)

>  <Rbt.Library>
libRbt.so (2013.1, Build901 2013/11/27)

>  <Rbt.Parameter_File>
/export/apps/rDock/src/rDock_2013.1_src/data/scripts/dock_solv.prm

>  <Rbt.Receptor>
prm/blind_docking_60.prm

>  <SCORE>
-23.8303

>  <SCORE.INTER>
-26.4299

>  <SCORE.INTER.CONST>
1

>  <SCORE.INTER.POLAR>
-3.42503

>  <SCORE.INTER.ROT>
8

>  <SCORE.INTER.SOLV>
28.6347

>  <SCORE.INTER.VDW>
-24.6814

>  <SCORE.INTER.norm>
-0.825933

>  <SCORE.INTRA>
2.54728

>  <SCORE.INTRA.DIHEDRAL>
8.77057

>  <SCORE.INTRA.DIHEDRAL.0>
10.9248

>  <SCORE.INTRA.POLAR>
0

>  <SCORE.INTRA.POLAR.0>
0

>  <SCORE.INTRA.REPUL>
0.035484

>  <SCORE.INTRA.REPUL.0>
0

>  <SCORE.INTRA.SOLV>
-0.297611

>  <SCORE.INTRA.SOLV.lig_0>
-51.4104

>  <SCORE.INTRA.VDW>
-1.86662

>  <SCORE.INTRA.VDW.0>
0.110327

>  <SCORE.INTRA.norm>
0.0796025

>  <SCORE.RESTR>
0.0522482

>  <SCORE.RESTR.CAVITY>
0.0522482

>  <SCORE.RESTR.norm>
0.00163276

>  <SCORE.SYSTEM>
0

>  <SCORE.SYSTEM.CONST>
0

>  <SCORE.SYSTEM.DIHEDRAL>
0

>  <SCORE.SYSTEM.SOLV>
0

>  <SCORE.SYSTEM.norm>
0

>  <SCORE.heavy>
32

>  <SCORE.norm>
-0.744698

>  <RMSD>
14.829

$$$$
lig.pdb
 OpenBabel11021811523D
libRbt.so/2013.1/901 2013/11/27
 32 34  0  0  0  0  0  0  0  0999 V2000
    0.0081   -1.5789    0.1761 P   0  0  0  0  0  0  0  0  0  0  0  0
   -0.7467   -2.5459   -0.7031 O   0  0  0  0  0  0  0  0  0  0  0  0
   -1.1374   -1.0237    1.1822 O   0  0  0  0  0  0  0  0  0  0  0  0
    1.0553   -2.1263    1.1137 O   0  0  0  0  0  0  0  0  0  0  0  0
    0.7042   -0.6781   -0.7221 O   0  0  0  0  0  0  0  0  0  0  0  0
    0.4572    0.7227   -0.3069 P   0  0  1  0  0  0  0  0  0  0  0  0
    1.0086    1.6178   -1.3513 O   0  0  0  0  0  0  0  0  0  0  0  0
   -0.9987    0.9660   -0.1817 O   0  0  0  0  0  0  0  0  0  0  0  0
    1.1231    0.9765    0.9953 O   0  0  0  0  0  0  0  0  0  0  0  0
    2.4094    1.7048    1.1048 P   0  0  1  0  0  0  0  0  0  0  0  0
    3.2638    1.2876    2.2352 O   0  0  0  0  0  0  0  0  0  0  0  0
    3.1259    1.9095   -0.1739 O   0  0  0  0  0  0  0  0  0  0  0  0
    1.9428    3.1879    1.5534 O   0  0  0  0  0  0  0  0  0  0  0  0
    0.6854    3.7283    1.1935 C   0  0  0  0  0  0  0  0  0  0  0  0
    0.8113    5.0087    0.3563 C   0  0  1  0  0  0  0  0  0  0  0  0
   -0.1585    5.0202   -0.6712 O   0  0  0  0  0  0  0  0  0  0  0  0
    0.4531    6.2915    1.1270 C   0  0  1  0  0  0  0  0  0  0  0  0
    1.4490    6.7656    2.0178 O   0  0  0  0  0  0  0  0  0  0  0  0
    0.1290    7.2910    0.0170 C   0  0  1  0  0  0  0  0  0  0  0  0
    1.2670    8.0343   -0.3823 O   0  0  0  0  0  0  0  0  0  0  0  0
   -0.2717    6.3576   -1.1240 C   0  0  2  0  0  0  0  0  0  0  0  0
   -1.6023    6.6140   -1.7154 N   0  0  0  0  0  0  0  0  0  0  0  0
   -1.9542    7.0174   -2.9786 C   0  0  0  0  0  0  0  0  0  0  0  0
   -3.2338    7.2424   -3.1291 N   0  0  0  0  0  0  0  0  0  0  0  0
   -3.7796    6.9443   -1.8841 C   0  0  0  0  0  0  0  0  0  0  0  0
   -5.1269    7.0336   -1.4079 C   0  0  0  0  0  0  0  0  0  0  0  0
   -6.1132    7.4454   -2.0152 O   0  0  0  0  0  0  0  0  0  0  0  0
   -5.2635    6.6008   -0.0821 N   0  0  0  0  0  0  0  0  0  0  0  0
   -4.2153    6.1042    0.6780 C   0  0  0  0  0  0  0  0  0  0  0  0
   -4.4936    5.6232    1.8949 N   0  0  0  0  0  0  0  0  0  0  0  0
   -2.9451    6.0675    0.2434 N   0  0  0  0  0  0  0  0  0  0  0  0
   -2.7907    6.5048   -1.0362 C   0  0  0  0  0  0  0  0  0  0  0  0
  1  2  2  0  0  0  0
  1  4  1  0  0  0  0
  1  3  1  0  0  0  0
  5  1  1  0  0  0  0
  6  7  2  6  0  0  0
  6  9  1  0  0  0  0
  6  5  1  0  0  0  0
  6  8  1  0  0  0  0
 10 11  2  1  0  0  0
 10 12  1  0  0  0  0
 10 13  1  0  0  0  0
 10  9  1  0  0  0  0
 13 14  1  0  0  0  0
 15 14  1  1  0  0  0
 15 16  1  0  0  0  0
 17 19  1  0  0  0  0
 17 15  1  0  0  0  0
 17 18  1  6  0  0  0
 19 21  1  0  0  0  0
 19 20  1  6  0  0  0
 21 16  1  0  0  0  0
 21 22  1  1  0  0  0
 22 32  1  0  0  0  0
 23 22  1  0  0  0  0
 23 24  2  0  0  0  0
 24 25  1  0  0  0  0
 25 26  1  0  0  0  0
 26 27  2  0  0  0  0
 26 28  1  0  0  0  0
 29 28  1  0  0  0  0
 29 30  1  0  0  0  0
 31 29  2  0  0  0  0
 32 25  2  0  0  0  0
 32 31  1  0  0  0  0
M  END
>  <CHROM.1>
130.90233751,101.72902502,-171.71788003,-28.99511951,-149.13720961,-119.49124745
140.13552698,-56.33571823,17.53456315,-120.20666087,-0.51652961,3.44629722
-0.03059624,1.04265480,0.28685724,3.11936472

>  <Name>
lig.pdb

>  <RI>
2.72908e+07

>  <Rbt.Current_Directory>
/home/itssahil/PROJECTS/Mol_Feturizer/New_Systems/rnas/5lwj

>  <Rbt.Executable>
rbdock ($Id: //depot/dev/client3/rdock/2013.1/src/exe/rbdock.cxx#4 $)

>  <Rbt.Library>
libRbt.so (2013.1, Build901 2013/11/27)

>  <Rbt.Parameter_File>
/export/apps/rDock/src/rDock_2013.1_src/data/scripts/dock_solv.prm

>  <Rbt.Receptor>
prm/blind_docking_20.prm

>  <SCORE>
9.46661

>  <SCORE.INTER>
1.77009

>  <SCORE.INTER.CONST>
1

>  <SCORE.INTER.POLAR>
-3.23381

>  <SCORE.INTER.ROT>
8

>  <SCORE.INTER.SOLV>
30.4256

>  <SCORE.INTER.VDW>
-7.11577

>  <SCORE.INTER.norm>
0.0553153

>  <SCORE.INTRA>
6.1491

>  <SCORE.INTRA.DIHEDRAL>
15.3658

>  <SCORE.INTRA.DIHEDRAL.0>
10.9248

>  <SCORE.INTRA.POLAR>
-0.026441

>  <SCORE.INTRA.POLAR.0>
0

>  <SCORE.INTRA.REPUL>
0

>  <SCORE.INTRA.REPUL.0>
0

>  <SCORE.INTRA.SOLV>
0.236087

>  <SCORE.INTRA.SOLV.lig_0>
-51.4104

>  <SCORE.INTRA.VDW>
-1.56195

>  <SCORE.INTRA.VDW.0>
0.110327

>  <SCORE.INTRA.norm>
0.192159

>  <SCORE.RESTR>
1.54742

>  <SCORE.RESTR.CAVITY>
1.54742

>  <SCORE.RESTR.norm>
0.048357

>  <SCORE.SYSTEM>
0

>  <SCORE.SYSTEM.CONST>
0

>  <SCORE.SYSTEM.DIHEDRAL>
0

>  <SCORE.SYSTEM.SOLV>
0

>  <SCORE.SYSTEM.norm>
0

>  <SCORE.heavy>
32

>  <SCORE.norm>
0.295832

>  <RMSD>
14.830

$$$$
lig.pdb
 OpenBabel11021811523D
libRbt.so/2013.1/901 2013/11/27
 32 34  0  0  0  0  0  0  0  0999 V2000
    0.2478   -1.2513    0.8078 P   0  0  0  0  0  0  0  0  0  0  0  0
   -0.3067   -1.7806   -0.4923 O   0  0  0  0  0  0  0  0  0  0  0  0
    0.3302   -2.5764    1.7405 O   0  0  0  0  0  0  0  0  0  0  0  0
    1.6622   -0.7276    0.8263 O   0  0  0  0  0  0  0  0  0  0  0  0
   -0.5991   -0.1350    1.1811 O   0  0  0  0  0  0  0  0  0  0  0  0
   -0.1425    1.0881    0.4804 P   0  0  1  0  0  0  0  0  0  0  0  0
    0.3532    0.6946   -0.8596 O   0  0  0  0  0  0  0  0  0  0  0  0
   -1.2723    2.0327    0.3192 O   0  0  0  0  0  0  0  0  0  0  0  0
    0.9420    1.7306    1.2644 O   0  0  0  0  0  0  0  0  0  0  0  0
    1.6376    2.9571    0.8072 P   0  0  1  0  0  0  0  0  0  0  0  0
    2.7664    3.3836    1.6590 O   0  0  0  0  0  0  0  0  0  0  0  0
    1.8956    3.0269   -0.6484 O   0  0  0  0  0  0  0  0  0  0  0  0
    0.5401    4.1138    1.0833 O   0  0  0  0  0  0  0  0  0  0  0  0
    0.6795    5.4276    0.5764 C   0  0  0  0  0  0  0  0  0  0  0  0
   -0.6241    6.2338    0.6605 C   0  0  1  0  0  0  0  0  0  0  0  0
   -0.8839    6.8758   -0.5710 O   0  0  0  0  0  0  0  0  0  0  0  0
   -1.8826    5.3632    0.8212 C   0  0  1  0  0  0  0  0  0  0  0  0
   -2.1062    4.8493    2.1235 O   0  0  0  0  0  0  0  0  0  0  0  0
   -3.0091    6.2807    0.3465 C   0  0  1  0  0  0  0  0  0  0  0  0
   -3.5771    7.0244    1.4101 O   0  0  0  0  0  0  0  0  0  0  0  0
   -2.2532    7.2386   -0.5724 C   0  0  2  0  0  0  0  0  0  0  0  0
   -2.7798    7.3441   -1.9499 N   0  0  0  0  0  0  0  0  0  0  0  0
   -3.7409    6.6084   -2.5960 C   0  0  0  0  0  0  0  0  0  0  0  0
   -3.8882    6.9161   -3.8587 N   0  0  0  0  0  0  0  0  0  0  0  0
   -2.9777    7.9481   -4.0650 C   0  0  0  0  0  0  0  0  0  0  0  0
   -2.6409    8.6748   -5.2518 C   0  0  0  0  0  0  0  0  0  0  0  0
   -3.0780    8.5034   -6.3880 O   0  0  0  0  0  0  0  0  0  0  0  0
   -1.6833    9.6723   -5.0238 N   0  0  0  0  0  0  0  0  0  0  0  0
   -1.1448    9.9525   -3.7770 C   0  0  0  0  0  0  0  0  0  0  0  0
   -0.3186   10.9992   -3.6697 N   0  0  0  0  0  0  0  0  0  0  0  0
   -1.4277    9.2367   -2.6764 N   0  0  0  0  0  0  0  0  0  0  0  0
   -2.3408    8.2491   -2.8845 C   0  0  0  0  0  0  0  0  0  0  0  0
  1  2  2  0  0  0  0
  1  4  1  0  0  0  0
  1  3  1  0  0  0  0
  5  1  1  0  0  0  0
  6  7  2  6  0  0  0
  6  9  1  0  0  0  0
  6  5  1  0  0  0  0
  6  8  1  0  0  0  0
 10 11  2  1  0  0  0
 10 12  1  0  0  0  0
 10 13  1  0  0  0  0
 10  9  1  0  0  0  0
 13 14  1  0  0  0  0
 15 14  1  6  0  0  0
 15 16  1  0  0  0  0
 17 19  1  0  0  0  0
 17 15  1  0  0  0  0
 17 18  1  1  0  0  0
 19 21  1  0  0  0  0
 19 20  1  1  0  0  0
 21 16  1  0  0  0  0
 21 22  1  6  0  0  0
 22 32  1  0  0  0  0
 23 22  1  0  0  0  0
 23 24  2  0  0  0  0
 24 25  1  0  0  0  0
 25 26  1  0  0  0  0
 26 27  2  0  0  0  0
 26 28  1  0  0  0  0
 29 28  1  0  0  0  0
 29 30  1  0  0  0  0
 31 29  2  0  0  0  0
 32 25  2  0  0  0  0
 32 31  1  0  0  0  0
M  END
>  <CHROM.1>
-83.83888419,178.20100187,34.69174340,-168.39447426,-174.91194389,165.52323629
-132.28724040,-34.22408819,35.44753553,115.43159002,-0.76286332,4.33420214
-0.66110117,0.82258021,1.15370637,-2.89565546

>  <Name>
lig.pdb

>  <RI>
2.72908e+07

>  <Rbt.Current_Directory>
/home/itssahil/PROJECTS/Mol_Feturizer/New_Systems/rnas/5lwj

>  <Rbt.Executable>
rbdock ($Id: //depot/dev/client3/rdock/2013.1/src/exe/rbdock.cxx#4 $)

>  <Rbt.Library>
libRbt.so (2013.1, Build901 2013/11/27)

>  <Rbt.Parameter_File>
/export/apps/rDock/src/rDock_2013.1_src/data/scripts/dock_solv.prm

>  <Rbt.Receptor>
prm/blind_docking_20.prm

>  <SCORE>
-21.1946

>  <SCORE.INTER>
-24.4155

>  <SCORE.INTER.CONST>
1

>  <SCORE.INTER.POLAR>
-2.34228

>  <SCORE.INTER.ROT>
8

>  <SCORE.INTER.SOLV>
26.7369

>  <SCORE.INTER.VDW>
-26.315

>  <SCORE.INTER.norm>
-0.762983

>  <SCORE.INTRA>
3.22087

>  <SCORE.INTRA.DIHEDRAL>
4.7878

>  <SCORE.INTRA.DIHEDRAL.0>
10.9248

>  <SCORE.INTRA.POLAR>
-0.129157

>  <SCORE.INTRA.POLAR.0>
0

>  <SCORE.INTRA.REPUL>
0

>  <SCORE.INTRA.REPUL.0>
0

>  <SCORE.INTRA.SOLV>
-0.00504571

>  <SCORE.INTRA.SOLV.lig_0>
-51.4104

>  <SCORE.INTRA.VDW>
1.26862

>  <SCORE.INTRA.VDW.0>
0.110327

>  <SCORE.INTRA.norm>
0.100652

>  <SCORE.RESTR>
0

>  <SCORE.RESTR.CAVITY>
0

>  <SCORE.RESTR.norm>
0

>  <SCORE.SYSTEM>
0

>  <SCORE.SYSTEM.CONST>
0

>  <SCORE.SYSTEM.DIHEDRAL>
0

>  <SCORE.SYSTEM.SOLV>
0

>  <SCORE.SYSTEM.norm>
0

>  <SCORE.heavy>
32

>  <SCORE.norm>
-0.662331

>  <RMSD>
14.840

$$$$
lig.pdb
 OpenBabel11021811523D
libRbt.so/2013.1/901 2013/11/27
 32 34  0  0  0  0  0  0  0  0999 V2000
   -1.6228    9.0060   -3.2875 P   0  0  0  0  0  0  0  0  0  0  0  0
   -1.8910   10.4777   -3.4876 O   0  0  0  0  0  0  0  0  0  0  0  0
   -3.0569    8.3217   -3.6156 O   0  0  0  0  0  0  0  0  0  0  0  0
   -0.6824    8.3104   -4.2397 O   0  0  0  0  0  0  0  0  0  0  0  0
   -1.0271    8.8813   -1.9713 O   0  0  0  0  0  0  0  0  0  0  0  0
   -1.5362    7.6557   -1.3122 P   0  0  1  0  0  0  0  0  0  0  0  0
   -2.9522    7.8855   -0.9408 O   0  0  0  0  0  0  0  0  0  0  0  0
   -1.4619    6.5085   -2.2466 O   0  0  0  0  0  0  0  0  0  0  0  0
   -0.7241    7.3721   -0.1024 O   0  0  0  0  0  0  0  0  0  0  0  0
   -0.8154    6.0907    0.6371 P   0  0  1  0  0  0  0  0  0  0  0  0
   -0.6139    6.2013    2.0961 O   0  0  0  0  0  0  0  0  0  0  0  0
   -1.9307    5.2080    0.2283 O   0  0  0  0  0  0  0  0  0  0  0  0
    0.5194    5.3088    0.1623 O   0  0  0  0  0  0  0  0  0  0  0  0
    1.2753    4.4967    1.0409 C   0  0  0  0  0  0  0  0  0  0  0  0
    1.0695    2.9976    0.7825 C   0  0  1  0  0  0  0  0  0  0  0  0
    1.5335    2.6541   -0.5071 O   0  0  0  0  0  0  0  0  0  0  0  0
    1.9390    2.0901    1.6703 C   0  0  1  0  0  0  0  0  0  0  0  0
    1.4885    1.9307    3.0052 O   0  0  0  0  0  0  0  0  0  0  0  0
    1.9761    0.7718    0.8978 C   0  0  1  0  0  0  0  0  0  0  0  0
    0.9350   -0.1062    1.2881 O   0  0  0  0  0  0  0  0  0  0  0  0
    1.7063    1.2483   -0.5283 C   0  0  2  0  0  0  0  0  0  0  0  0
    2.7139    0.8458   -1.5326 N   0  0  0  0  0  0  0  0  0  0  0  0
    3.4524    1.6016   -2.4076 C   0  0  0  0  0  0  0  0  0  0  0  0
    4.1860    0.8987   -3.2313 N   0  0  0  0  0  0  0  0  0  0  0  0
    3.9389   -0.4208   -2.8642 C   0  0  0  0  0  0  0  0  0  0  0  0
    4.4164   -1.6511   -3.4195 C   0  0  0  0  0  0  0  0  0  0  0  0
    5.1431   -1.8017   -4.3995 O   0  0  0  0  0  0  0  0  0  0  0  0
    3.9494   -2.7763   -2.7268 N   0  0  0  0  0  0  0  0  0  0  0  0
    3.1414   -2.7079   -1.6019 C   0  0  0  0  0  0  0  0  0  0  0  0
    2.8496   -3.8486   -0.9669 N   0  0  0  0  0  0  0  0  0  0  0  0
    2.6570   -1.5542   -1.1139 N   0  0  0  0  0  0  0  0  0  0  0  0
    3.0837   -0.4516   -1.7883 C   0  0  0  0  0  0  0  0  0  0  0  0
  1  2  2  0  0  0  0
  1  4  1  0  0  0  0
  1  3  1  0  0  0  0
  5  1  1  0  0  0  0
  6  7  2  1  0  0  0
  6  9  1  0  0  0  0
  6  5  1  0  0  0  0
  6  8  1  0  0  0  0
 10 11  2  1  0  0  0
 10 12  1  0  0  0  0
 10 13  1  0  0  0  0
 10  9  1  0  0  0  0
 13 14  1  0  0  0  0
 15 14  1  1  0  0  0
 15 16  1  0  0  0  0
 17 19  1  0  0  0  0
 17 15  1  0  0  0  0
 17 18  1  1  0  0  0
 19 21  1  0  0  0  0
 19 20  1  1  0  0  0
 21 16  1  0  0  0  0
 21 22  1  6  0  0  0
 22 32  1  0  0  0  0
 23 22  1  0  0  0  0
 23 24  2  0  0  0  0
 24 25  1  0  0  0  0
 25 26  1  0  0  0  0
 26 27  2  0  0  0  0
 26 28  1  0  0  0  0
 29 28  1  0  0  0  0
 29 30  1  0  0  0  0
 31 29  2  0  0  0  0
 32 25  2  0  0  0  0
 32 31  1  0  0  0  0
M  END
>  <CHROM.1>
141.81785061,-168.56236681,-71.62585892,142.65216695,-146.71813124,105.23503798
63.58957040,159.58667926,59.85513781,-0.76336251,0.70753994,3.75956987,-1.13401565
-2.76057961,-1.04476341,1.97653827

>  <Name>
lig.pdb

>  <RI>
3.17878e+07

>  <Rbt.Current_Directory>
/home/itssahil/PROJECTS/Mol_Feturizer/New_Systems/rnas/5lwj

>  <Rbt.Executable>
rbdock ($Id: //depot/dev/client3/rdock/2013.1/src/exe/rbdock.cxx#4 $)

>  <Rbt.Library>
libRbt.so (2013.1, Build901 2013/11/27)

>  <Rbt.Parameter_File>
/export/apps/rDock/src/rDock_2013.1_src/data/scripts/dock_solv.prm

>  <Rbt.Receptor>
prm/blind_docking_100.prm

>  <SCORE>
-18.2763

>  <SCORE.INTER>
-18.7622

>  <SCORE.INTER.CONST>
1

>  <SCORE.INTER.POLAR>
-0.694951

>  <SCORE.INTER.ROT>
8

>  <SCORE.INTER.SOLV>
21.5856

>  <SCORE.INTER.VDW>
-26.3202

>  <SCORE.INTER.norm>
-0.586318

>  <SCORE.INTRA>
0.241711

>  <SCORE.INTRA.DIHEDRAL>
5.38095

>  <SCORE.INTRA.DIHEDRAL.0>
10.9248

>  <SCORE.INTRA.POLAR>
0

>  <SCORE.INTRA.POLAR.0>
0

>  <SCORE.INTRA.REPUL>
0

>  <SCORE.INTRA.REPUL.0>
0

>  <SCORE.INTRA.SOLV>
-1.29806

>  <SCORE.INTRA.SOLV.lig_0>
-51.4104

>  <SCORE.INTRA.VDW>
-1.79974

>  <SCORE.INTRA.VDW.0>
0.110327

>  <SCORE.INTRA.norm>
0.00755346

>  <SCORE.RESTR>
0.244157

>  <SCORE.RESTR.CAVITY>
0.244157

>  <SCORE.RESTR.norm>
0.0076299

>  <SCORE.SYSTEM>
0

>  <SCORE.SYSTEM.CONST>
0

>  <SCORE.SYSTEM.DIHEDRAL>
0

>  <SCORE.SYSTEM.SOLV>
0

>  <SCORE.SYSTEM.norm>
0

>  <SCORE.heavy>
32

>  <SCORE.norm>
-0.571134

>  <RMSD>
14.849

$$$$
lig.pdb
 OpenBabel11021811523D
libRbt.so/2013.1/901 2013/11/27
 32 34  0  0  0  0  0  0  0  0999 V2000
    1.5673   -2.0948   -0.8281 P   0  0  0  0  0  0  0  0  0  0  0  0
    0.5434   -3.1444   -0.4702 O   0  0  0  0  0  0  0  0  0  0  0  0
    2.9116   -2.6239   -0.0895 O   0  0  0  0  0  0  0  0  0  0  0  0
    1.9927   -1.9671   -2.2695 O   0  0  0  0  0  0  0  0  0  0  0  0
    0.9782   -0.8195   -0.4683 O   0  0  0  0  0  0  0  0  0  0  0  0
    2.0214    0.2325   -0.4961 P   0  0  1  0  0  0  0  0  0  0  0  0
    3.1180   -0.1808    0.4108 O   0  0  0  0  0  0  0  0  0  0  0  0
    2.5589    0.3783   -1.8689 O   0  0  0  0  0  0  0  0  0  0  0  0
    1.4361    1.5203   -0.0460 O   0  0  0  0  0  0  0  0  0  0  0  0
    2.2348    2.7639    0.0647 P   0  0  1  0  0  0  0  0  0  0  0  0
    2.9298    2.9414    1.3560 O   0  0  0  0  0  0  0  0  0  0  0  0
    3.0439    3.0988   -1.1283 O   0  0  0  0  0  0  0  0  0  0  0  0
    1.0981    3.9142    0.1233 O   0  0  0  0  0  0  0  0  0  0  0  0
    0.8321    4.6580    1.2975 C   0  0  0  0  0  0  0  0  0  0  0  0
   -0.1498    5.8126    1.0546 C   0  0  1  0  0  0  0  0  0  0  0  0
    0.3989    6.7385    0.1392 O   0  0  0  0  0  0  0  0  0  0  0  0
   -1.4367    5.3894    0.3247 C   0  0  1  0  0  0  0  0  0  0  0  0
   -2.4011    4.7261    1.1246 O   0  0  0  0  0  0  0  0  0  0  0  0
   -1.9570    6.7014   -0.2621 C   0  0  1  0  0  0  0  0  0  0  0  0
   -2.8552    7.3598    0.6136 O   0  0  0  0  0  0  0  0  0  0  0  0
   -0.6724    7.5227   -0.3547 C   0  0  2  0  0  0  0  0  0  0  0  0
   -0.3650    8.0704   -1.6932 N   0  0  0  0  0  0  0  0  0  0  0  0
    0.8066    8.0757   -2.4071 C   0  0  0  0  0  0  0  0  0  0  0  0
    0.7428    8.7421   -3.5308 N   0  0  0  0  0  0  0  0  0  0  0  0
   -0.5724    9.1937   -3.5835 C   0  0  0  0  0  0  0  0  0  0  0  0
   -1.2422   10.0124   -4.5484 C   0  0  0  0  0  0  0  0  0  0  0  0
   -0.7628   10.5379   -5.5510 O   0  0  0  0  0  0  0  0  0  0  0  0
   -2.5958   10.2115   -4.2449 N   0  0  0  0  0  0  0  0  0  0  0  0
   -3.2305    9.6474   -3.1485 C   0  0  0  0  0  0  0  0  0  0  0  0
   -4.5507    9.8252   -3.0259 N   0  0  0  0  0  0  0  0  0  0  0  0
   -2.5872    8.9203   -2.2205 N   0  0  0  0  0  0  0  0  0  0  0  0
   -1.2657    8.7348   -2.4886 C   0  0  0  0  0  0  0  0  0  0  0  0
  1  2  2  0  0  0  0
  1  4  1  0  0  0  0
  1  3  1  0  0  0  0
  5  1  1  0  0  0  0
  6  7  2  1  0  0  0
  6  9  1  0  0  0  0
  6  5  1  0  0  0  0
  6  8  1  0  0  0  0
 10 11  2  1  0  0  0
 10 12  1  0  0  0  0
 10 13  1  0  0  0  0
 10  9  1  0  0  0  0
 13 14  1  0  0  0  0
 15 14  1  6  0  0  0
 15 16  1  0  0  0  0
 17 19  1  0  0  0  0
 17 15  1  0  0  0  0
 17 18  1  1  0  0  0
 19 21  1  0  0  0  0
 19 20  1  1  0  0  0
 21 16  1  0  0  0  0
 21 22  1  6  0  0  0
 22 32  1  0  0  0  0
 23 22  1  0  0  0  0
 23 24  2  0  0  0  0
 24 25  1  0  0  0  0
 25 26  1  0  0  0  0
 26 27  2  0  0  0  0
 26 28  1  0  0  0  0
 29 28  1  0  0  0  0
 29 30  1  0  0  0  0
 31 29  2  0  0  0  0
 32 25  2  0  0  0  0
 32 31  1  0  0  0  0
M  END
>  <CHROM.1>
167.20310552,178.66806352,-56.22795131,110.13821874,-86.85082443,172.22202935
-62.52084358,-174.02483095,-172.26129000,-9.34541390,0.31000859,4.20890516
-1.06696913,-0.85349049,1.01082309,-0.86070899

>  <Name>
lig.pdb

>  <RI>
2.72908e+07

>  <Rbt.Current_Directory>
/home/itssahil/PROJECTS/Mol_Feturizer/New_Systems/rnas/5lwj

>  <Rbt.Executable>
rbdock ($Id: //depot/dev/client3/rdock/2013.1/src/exe/rbdock.cxx#4 $)

>  <Rbt.Library>
libRbt.so (2013.1, Build901 2013/11/27)

>  <Rbt.Parameter_File>
/export/apps/rDock/src/rDock_2013.1_src/data/scripts/dock_solv.prm

>  <Rbt.Receptor>
prm/blind_docking_20.prm

>  <SCORE>
-21.3782

>  <SCORE.INTER>
-18.0749

>  <SCORE.INTER.CONST>
1

>  <SCORE.INTER.POLAR>
-0.630837

>  <SCORE.INTER.ROT>
8

>  <SCORE.INTER.SOLV>
21.313

>  <SCORE.INTER.VDW>
-25.9848

>  <SCORE.INTER.norm>
-0.564841

>  <SCORE.INTRA>
-3.65427

>  <SCORE.INTRA.DIHEDRAL>
-4.40124

>  <SCORE.INTRA.DIHEDRAL.0>
10.9248

>  <SCORE.INTRA.POLAR>
0

>  <SCORE.INTRA.POLAR.0>
0

>  <SCORE.INTRA.REPUL>
0

>  <SCORE.INTRA.REPUL.0>
0

>  <SCORE.INTRA.SOLV>
-1.01019

>  <SCORE.INTRA.SOLV.lig_0>
-51.4104

>  <SCORE.INTRA.VDW>
-0.948558

>  <SCORE.INTRA.VDW.0>
0.110327

>  <SCORE.INTRA.norm>
-0.114196

>  <SCORE.RESTR>
0.350988

>  <SCORE.RESTR.CAVITY>
0.350988

>  <SCORE.RESTR.norm>
0.0109684

>  <SCORE.SYSTEM>
0

>  <SCORE.SYSTEM.CONST>
0

>  <SCORE.SYSTEM.DIHEDRAL>
0

>  <SCORE.SYSTEM.SOLV>
0

>  <SCORE.SYSTEM.norm>
0

>  <SCORE.heavy>
32

>  <SCORE.norm>
-0.668068

>  <RMSD>
14.883

$$$$
lig.pdb
 OpenBabel11021811523D
libRbt.so/2013.1/901 2013/11/27
 32 34  0  0  0  0  0  0  0  0999 V2000
    0.2682   -1.2799    1.0605 P   0  0  0  0  0  0  0  0  0  0  0  0
    0.2054   -1.9962    2.3875 O   0  0  0  0  0  0  0  0  0  0  0  0
    1.8311   -0.8608    0.9411 O   0  0  0  0  0  0  0  0  0  0  0  0
    0.0267   -2.0752   -0.1982 O   0  0  0  0  0  0  0  0  0  0  0  0
   -0.7687   -0.2669    1.1011 O   0  0  0  0  0  0  0  0  0  0  0  0
   -0.3068    0.9426    0.3804 P   0  0  1  0  0  0  0  0  0  0  0  0
    0.2545    0.5169   -0.9234 O   0  0  0  0  0  0  0  0  0  0  0  0
   -1.4474    1.8568    0.1399 O   0  0  0  0  0  0  0  0  0  0  0  0
    0.7294    1.6333    1.1884 O   0  0  0  0  0  0  0  0  0  0  0  0
    1.3179    2.9332    0.7876 P   0  0  1  0  0  0  0  0  0  0  0  0
    2.3515    3.4550    1.7048 O   0  0  0  0  0  0  0  0  0  0  0  0
    1.6422    3.0588   -0.6509 O   0  0  0  0  0  0  0  0  0  0  0  0
    0.0946    3.9663    1.0222 O   0  0  0  0  0  0  0  0  0  0  0  0
    0.3038    5.3291    1.3410 C   0  0  0  0  0  0  0  0  0  0  0  0
   -0.9073    6.2078    0.9985 C   0  0  1  0  0  0  0  0  0  0  0  0
   -0.6119    7.0423   -0.1028 O   0  0  0  0  0  0  0  0  0  0  0  0
   -2.1159    5.4180    0.4661 C   0  0  1  0  0  0  0  0  0  0  0  0
   -2.8780    4.7351    1.4474 O   0  0  0  0  0  0  0  0  0  0  0  0
   -2.9271    6.4761   -0.2813 C   0  0  1  0  0  0  0  0  0  0  0  0
   -3.8940    7.0941    0.5495 O   0  0  0  0  0  0  0  0  0  0  0  0
   -1.8471    7.5011   -0.6226 C   0  0  2  0  0  0  0  0  0  0  0  0
   -1.7318    7.8477   -2.0552 N   0  0  0  0  0  0  0  0  0  0  0  0
   -0.6776    7.7140   -2.9231 C   0  0  0  0  0  0  0  0  0  0  0  0
   -0.8963    8.2205   -4.1090 N   0  0  0  0  0  0  0  0  0  0  0  0
   -2.1987    8.7054   -4.0362 C   0  0  0  0  0  0  0  0  0  0  0  0
   -2.9913    9.4054   -5.0014 C   0  0  0  0  0  0  0  0  0  0  0  0
   -2.6569    9.7705   -6.1266 O   0  0  0  0  0  0  0  0  0  0  0  0
   -4.2829    9.6908   -4.5385 N   0  0  0  0  0  0  0  0  0  0  0  0
   -4.7577    9.3058   -3.2938 C   0  0  0  0  0  0  0  0  0  0  0  0
   -6.0431    9.5440   -3.0097 N   0  0  0  0  0  0  0  0  0  0  0  0
   -3.9953    8.6922   -2.3739 N   0  0  0  0  0  0  0  0  0  0  0  0
   -2.7301    8.4263   -2.7995 C   0  0  0  0  0  0  0  0  0  0  0  0
  1  2  2  0  0  0  0
  1  4  1  0  0  0  0
  1  3  1  0  0  0  0
  5  1  1  0  0  0  0
  6  7  2  6  0  0  0
  6  9  1  0  0  0  0
  6  5  1  0  0  0  0
  6  8  1  0  0  0  0
 10 11  2  1  0  0  0
 10 12  1  0  0  0  0
 10 13  1  0  0  0  0
 10  9  1  0  0  0  0
 13 14  1  0  0  0  0
 15 14  1  6  0  0  0
 15 16  1  0  0  0  0
 17 19  1  0  0  0  0
 17 15  1  0  0  0  0
 17 18  1  1  0  0  0
 19 21  1  0  0  0  0
 19 20  1  1  0  0  0
 21 16  1  0  0  0  0
 21 22  1  6  0  0  0
 22 32  1  0  0  0  0
 23 22  1  0  0  0  0
 23 24  2  0  0  0  0
 24 25  1  0  0  0  0
 25 26  1  0  0  0  0
 26 27  2  0  0  0  0
 26 28  1  0  0  0  0
 29 28  1  0  0  0  0
 29 30  1  0  0  0  0
 31 29  2  0  0  0  0
 32 25  2  0  0  0  0
 32 31  1  0  0  0  0
M  END
>  <CHROM.1>
144.29958795,-175.27727729,47.94169398,151.56121910,-178.98055566,158.16389753
-109.61335118,53.32380939,-73.82527583,4.47631987,-1.08627901,4.39970182
-0.61353705,-0.87144788,0.98127695,-1.05354380

>  <Name>
lig.pdb

>  <RI>
1.17715e+07

>  <Rbt.Current_Directory>
/home/itssahil/PROJECTS/Mol_Feturizer/New_Systems/rnas/5lwj

>  <Rbt.Executable>
rbdock ($Id: //depot/dev/client3/rdock/2013.1/src/exe/rbdock.cxx#4 $)

>  <Rbt.Library>
libRbt.so (2013.1, Build901 2013/11/27)

>  <Rbt.Parameter_File>
/export/apps/rDock/src/rDock_2013.1_src/data/scripts/dock_solv.prm

>  <Rbt.Receptor>
prm/blind_docking_60.prm

>  <SCORE>
-34.5811

>  <SCORE.INTER>
-33.685

>  <SCORE.INTER.CONST>
1

>  <SCORE.INTER.POLAR>
-3.2258

>  <SCORE.INTER.ROT>
8

>  <SCORE.INTER.SOLV>
26.9635

>  <SCORE.INTER.VDW>
-29.6251

>  <SCORE.INTER.norm>
-1.05266

>  <SCORE.INTRA>
-1.06662

>  <SCORE.INTRA.DIHEDRAL>
2.5829

>  <SCORE.INTRA.DIHEDRAL.0>
10.9248

>  <SCORE.INTRA.POLAR>
0

>  <SCORE.INTRA.POLAR.0>
0

>  <SCORE.INTRA.REPUL>
0.0465401

>  <SCORE.INTRA.REPUL.0>
0

>  <SCORE.INTRA.SOLV>
-0.0275634

>  <SCORE.INTRA.SOLV.lig_0>
-51.4104

>  <SCORE.INTRA.VDW>
-2.57699

>  <SCORE.INTRA.VDW.0>
0.110327

>  <SCORE.INTRA.norm>
-0.0333318

>  <SCORE.RESTR>
0.170511

>  <SCORE.RESTR.CAVITY>
0.170511

>  <SCORE.RESTR.norm>
0.00532848

>  <SCORE.SYSTEM>
0

>  <SCORE.SYSTEM.CONST>
0

>  <SCORE.SYSTEM.DIHEDRAL>
0

>  <SCORE.SYSTEM.SOLV>
0

>  <SCORE.SYSTEM.norm>
0

>  <SCORE.heavy>
32

>  <SCORE.norm>
-1.08066

>  <RMSD>
14.885

$$$$
lig.pdb
 OpenBabel11021811523D
libRbt.so/2013.1/901 2013/11/27
 32 34  0  0  0  0  0  0  0  0999 V2000
   -0.5267    7.9323   -3.0556 P   0  0  0  0  0  0  0  0  0  0  0  0
   -0.9522    7.6709   -4.4799 O   0  0  0  0  0  0  0  0  0  0  0  0
    1.0831    7.7365   -3.1097 O   0  0  0  0  0  0  0  0  0  0  0  0
   -0.6866    9.3260   -2.5015 O   0  0  0  0  0  0  0  0  0  0  0  0
   -1.3493    7.0731   -2.2263 O   0  0  0  0  0  0  0  0  0  0  0  0
   -0.8539    7.1117   -0.8303 P   0  0  1  0  0  0  0  0  0  0  0  0
    0.3676    7.9501   -0.7970 O   0  0  0  0  0  0  0  0  0  0  0  0
   -1.8775    7.7139    0.0552 O   0  0  0  0  0  0  0  0  0  0  0  0
   -0.5462    5.7319   -0.3773 O   0  0  0  0  0  0  0  0  0  0  0  0
   -0.8013    5.2720    1.0085 P   0  0  1  0  0  0  0  0  0  0  0  0
   -0.2575    6.1512    2.0635 O   0  0  0  0  0  0  0  0  0  0  0  0
   -2.1704    4.7702    1.2614 O   0  0  0  0  0  0  0  0  0  0  0  0
    0.1423    3.9629    1.1295 O   0  0  0  0  0  0  0  0  0  0  0  0
    1.5549    4.0406    1.0931 C   0  0  0  0  0  0  0  0  0  0  0  0
    2.2167    2.6676    0.9111 C   0  0  1  0  0  0  0  0  0  0  0  0
    1.3564    1.6441    1.3679 O   0  0  0  0  0  0  0  0  0  0  0  0
    2.4144    2.2645   -0.5607 C   0  0  1  0  0  0  0  0  0  0  0  0
    3.5032    2.8867   -1.2222 O   0  0  0  0  0  0  0  0  0  0  0  0
    2.5543    0.7439   -0.4941 C   0  0  1  0  0  0  0  0  0  0  0  0
    3.9048    0.3364   -0.3629 O   0  0  0  0  0  0  0  0  0  0  0  0
    1.8187    0.4284    0.8069 C   0  0  2  0  0  0  0  0  0  0  0  0
    0.7258   -0.5610    0.6936 N   0  0  0  0  0  0  0  0  0  0  0  0
   -0.4504   -0.6744    1.3907 C   0  0  0  0  0  0  0  0  0  0  0  0
   -1.1462   -1.7409    1.0919 N   0  0  0  0  0  0  0  0  0  0  0  0
   -0.3930   -2.3726    0.1069 C   0  0  0  0  0  0  0  0  0  0  0  0
   -0.6084   -3.6056   -0.5884 C   0  0  0  0  0  0  0  0  0  0  0  0
   -1.5217   -4.4119   -0.4239 O   0  0  0  0  0  0  0  0  0  0  0  0
    0.3835   -3.8711   -1.5420 N   0  0  0  0  0  0  0  0  0  0  0  0
    1.4414   -3.0160   -1.8117 C   0  0  0  0  0  0  0  0  0  0  0  0
    2.2633   -3.3307   -2.8193 N   0  0  0  0  0  0  0  0  0  0  0  0
    1.6658   -1.8846   -1.1238 N   0  0  0  0  0  0  0  0  0  0  0  0
    0.7229   -1.6219   -0.1781 C   0  0  0  0  0  0  0  0  0  0  0  0
  1  2  2  0  0  0  0
  1  4  1  0  0  0  0
  1  3  1  0  0  0  0
  5  1  1  0  0  0  0
  6  7  2  1  0  0  0
  6  9  1  0  0  0  0
  6  5  1  0  0  0  0
  6  8  1  0  0  0  0
 10 11  2  1  0  0  0
 10 12  1  0  0  0  0
 10 13  1  0  0  0  0
 10  9  1  0  0  0  0
 13 14  1  0  0  0  0
 15 14  1  6  0  0  0
 15 16  1  0  0  0  0
 17 19  1  0  0  0  0
 17 15  1  0  0  0  0
 17 18  1  1  0  0  0
 19 21  1  0  0  0  0
 19 20  1  1  0  0  0
 21 16  1  0  0  0  0
 21 22  1  6  0  0  0
 22 32  1  0  0  0  0
 23 22  1  0  0  0  0
 23 24  2  0  0  0  0
 24 25  1  0  0  0  0
 25 26  1  0  0  0  0
 26 27  2  0  0  0  0
 26 28  1  0  0  0  0
 29 28  1  0  0  0  0
 29 30  1  0  0  0  0
 31 29  2  0  0  0  0
 32 25  2  0  0  0  0
 32 31  1  0  0  0  0
M  END
>  <CHROM.1>
171.29529216,-143.15914356,-3.69331332,66.29992887,-50.68345277,-167.21841644
-24.27767495,64.58994830,-62.64658077,-24.07592442,0.31639126,3.00062583
-0.56439355,-1.84761085,-1.03424901,2.80497202

>  <Name>
lig.pdb

>  <RI>
4.14043e+07

>  <Rbt.Current_Directory>
/home/itssahil/PROJECTS/Mol_Feturizer/New_Systems/rnas/5lwj

>  <Rbt.Executable>
rbdock ($Id: //depot/dev/client3/rdock/2013.1/src/exe/rbdock.cxx#4 $)

>  <Rbt.Library>
libRbt.so (2013.1, Build901 2013/11/27)

>  <Rbt.Parameter_File>
/export/apps/rDock/src/rDock_2013.1_src/data/scripts/dock_solv.prm

>  <Rbt.Receptor>
prm/blind_docking_80.prm

>  <SCORE>
-27.0804

>  <SCORE.INTER>
-33.2659

>  <SCORE.INTER.CONST>
1

>  <SCORE.INTER.POLAR>
-1.64325

>  <SCORE.INTER.ROT>
8

>  <SCORE.INTER.SOLV>
25.0464

>  <SCORE.INTER.VDW>
-33.9819

>  <SCORE.INTER.norm>
-1.03956

>  <SCORE.INTRA>
4.60129

>  <SCORE.INTRA.DIHEDRAL>
0.850338

>  <SCORE.INTRA.DIHEDRAL.0>
10.9248

>  <SCORE.INTRA.POLAR>
0

>  <SCORE.INTRA.POLAR.0>
0

>  <SCORE.INTRA.REPUL>
0

>  <SCORE.INTRA.REPUL.0>
0

>  <SCORE.INTRA.SOLV>
-0.402551

>  <SCORE.INTRA.SOLV.lig_0>
-51.4104

>  <SCORE.INTRA.VDW>
4.37739

>  <SCORE.INTRA.VDW.0>
0.110327

>  <SCORE.INTRA.norm>
0.14379

>  <SCORE.RESTR>
1.58426

>  <SCORE.RESTR.CAVITY>
1.58426

>  <SCORE.RESTR.norm>
0.0495081

>  <SCORE.SYSTEM>
0

>  <SCORE.SYSTEM.CONST>
0

>  <SCORE.SYSTEM.DIHEDRAL>
0

>  <SCORE.SYSTEM.SOLV>
0

>  <SCORE.SYSTEM.norm>
0

>  <SCORE.heavy>
32

>  <SCORE.norm>
-0.846262

>  <RMSD>
14.901

$$$$
lig.pdb
 OpenBabel11021811523D
libRbt.so/2013.1/901 2013/11/27
 32 34  0  0  0  0  0  0  0  0999 V2000
    3.5667   -1.7952   -0.9198 P   0  0  0  0  0  0  0  0  0  0  0  0
    3.9583   -2.9042   -1.8656 O   0  0  0  0  0  0  0  0  0  0  0  0
    2.5112   -2.5174    0.0786 O   0  0  0  0  0  0  0  0  0  0  0  0
    4.6124   -1.2487    0.0199 O   0  0  0  0  0  0  0  0  0  0  0  0
    3.1546   -0.6826   -1.7534 O   0  0  0  0  0  0  0  0  0  0  0  0
    2.2389    0.1959   -0.9885 P   0  0  1  0  0  0  0  0  0  0  0  0
    1.0464   -0.5982   -0.6099 O   0  0  0  0  0  0  0  0  0  0  0  0
    2.9082    0.6787    0.2418 O   0  0  0  0  0  0  0  0  0  0  0  0
    1.8436    1.3515   -1.8323 O   0  0  0  0  0  0  0  0  0  0  0  0
    2.7259    2.5237   -2.0433 P   0  0  1  0  0  0  0  0  0  0  0  0
    3.9664    2.5182   -1.2415 O   0  0  0  0  0  0  0  0  0  0  0  0
    2.8994    2.9330   -3.4548 O   0  0  0  0  0  0  0  0  0  0  0  0
    1.8841    3.7300   -1.3688 O   0  0  0  0  0  0  0  0  0  0  0  0
    1.5960    3.7716    0.0161 C   0  0  0  0  0  0  0  0  0  0  0  0
    0.7988    5.0210    0.4156 C   0  0  1  0  0  0  0  0  0  0  0  0
    0.5065    5.8017   -0.7252 O   0  0  0  0  0  0  0  0  0  0  0  0
   -0.6134    4.7132    0.9436 C   0  0  1  0  0  0  0  0  0  0  0  0
   -0.6752    4.2367    2.2774 O   0  0  0  0  0  0  0  0  0  0  0  0
   -1.3569    6.0351    0.7532 C   0  0  1  0  0  0  0  0  0  0  0  0
   -1.2774    6.8632    1.8999 O   0  0  0  0  0  0  0  0  0  0  0  0
   -0.5491    6.6780   -0.3726 C   0  0  2  0  0  0  0  0  0  0  0  0
   -1.3295    7.0847   -1.5607 N   0  0  0  0  0  0  0  0  0  0  0  0
   -2.5993    6.7443   -1.9530 C   0  0  0  0  0  0  0  0  0  0  0  0
   -2.9400    7.2171   -3.1240 N   0  0  0  0  0  0  0  0  0  0  0  0
   -1.8273    7.9461   -3.5325 C   0  0  0  0  0  0  0  0  0  0  0  0
   -1.5728    8.6634   -4.7453 C   0  0  0  0  0  0  0  0  0  0  0  0
   -2.3008    8.7546   -5.7317 O   0  0  0  0  0  0  0  0  0  0  0  0
   -0.3236    9.2985   -4.7481 N   0  0  0  0  0  0  0  0  0  0  0  0
    0.5584    9.2681   -3.6784 C   0  0  0  0  0  0  0  0  0  0  0  0
    1.6736   10.0023   -3.7618 N   0  0  0  0  0  0  0  0  0  0  0  0
    0.3362    8.5545   -2.5625 N   0  0  0  0  0  0  0  0  0  0  0  0
   -0.8643    7.9133   -2.5519 C   0  0  0  0  0  0  0  0  0  0  0  0
  1  2  2  0  0  0  0
  1  4  1  0  0  0  0
  1  3  1  0  0  0  0
  5  1  1  0  0  0  0
  6  7  2  1  0  0  0
  6  9  1  0  0  0  0
  6  5  1  0  0  0  0
  6  8  1  0  0  0  0
 10 11  2  1  0  0  0
 10 12  1  0  0  0  0
 10 13  1  0  0  0  0
 10  9  1  0  0  0  0
 13 14  1  0  0  0  0
 15 14  1  6  0  0  0
 15 16  1  0  0  0  0
 17 19  1  0  0  0  0
 17 15  1  0  0  0  0
 17 18  1  1  0  0  0
 19 21  1  0  0  0  0
 19 20  1  1  0  0  0
 21 16  1  0  0  0  0
 21 22  1  6  0  0  0
 22 32  1  0  0  0  0
 23 22  1  0  0  0  0
 23 24  2  0  0  0  0
 24 25  1  0  0  0  0
 25 26  1  0  0  0  0
 26 27  2  0  0  0  0
 26 28  1  0  0  0  0
 29 28  1  0  0  0  0
 29 30  1  0  0  0  0
 31 29  2  0  0  0  0
 32 25  2  0  0  0  0
 32 31  1  0  0  0  0
M  END
>  <CHROM.1>
155.94065313,-79.01692394,-61.07229914,64.43878106,-5.99616165,179.38801532
2.19360952,42.04573719,-56.53501667,108.85538415,1.06467196,3.77998278,-1.44986882
-0.79723635,0.95218569,-0.88780315

>  <Name>
lig.pdb

>  <RI>
3.17878e+07

>  <Rbt.Current_Directory>
/home/itssahil/PROJECTS/Mol_Feturizer/New_Systems/rnas/5lwj

>  <Rbt.Executable>
rbdock ($Id: //depot/dev/client3/rdock/2013.1/src/exe/rbdock.cxx#4 $)

>  <Rbt.Library>
libRbt.so (2013.1, Build901 2013/11/27)

>  <Rbt.Parameter_File>
/export/apps/rDock/src/rDock_2013.1_src/data/scripts/dock_solv.prm

>  <Rbt.Receptor>
prm/blind_docking_100.prm

>  <SCORE>
6.30255

>  <SCORE.INTER>
5.90363

>  <SCORE.INTER.CONST>
1

>  <SCORE.INTER.POLAR>
-3.15891

>  <SCORE.INTER.ROT>
8

>  <SCORE.INTER.SOLV>
23.0999

>  <SCORE.INTER.VDW>
-2.16785

>  <SCORE.INTER.norm>
0.184488

>  <SCORE.INTRA>
-1.00634

>  <SCORE.INTRA.DIHEDRAL>
1.94941

>  <SCORE.INTRA.DIHEDRAL.0>
10.9248

>  <SCORE.INTRA.POLAR>
0

>  <SCORE.INTRA.POLAR.0>
0

>  <SCORE.INTRA.REPUL>
0.0142178

>  <SCORE.INTRA.REPUL.0>
0

>  <SCORE.INTRA.SOLV>
-0.656508

>  <SCORE.INTRA.SOLV.lig_0>
-51.4104

>  <SCORE.INTRA.VDW>
-1.72388

>  <SCORE.INTRA.VDW.0>
0.110327

>  <SCORE.INTRA.norm>
-0.0314482

>  <SCORE.RESTR>
1.40526

>  <SCORE.RESTR.CAVITY>
1.40526

>  <SCORE.RESTR.norm>
0.0439143

>  <SCORE.SYSTEM>
0

>  <SCORE.SYSTEM.CONST>
0

>  <SCORE.SYSTEM.DIHEDRAL>
0

>  <SCORE.SYSTEM.SOLV>
0

>  <SCORE.SYSTEM.norm>
0

>  <SCORE.heavy>
32

>  <SCORE.norm>
0.196955

>  <RMSD>
14.902

$$$$
lig.pdb
 OpenBabel11021811523D
libRbt.so/2013.1/901 2013/11/27
 32 34  0  0  0  0  0  0  0  0999 V2000
   -2.5567    7.6239   -1.3142 P   0  0  0  0  0  0  0  0  0  0  0  0
   -3.0870    6.7315   -0.2186 O   0  0  0  0  0  0  0  0  0  0  0  0
   -2.5810    6.6602   -2.6192 O   0  0  0  0  0  0  0  0  0  0  0  0
   -3.3879    8.8072   -1.7432 O   0  0  0  0  0  0  0  0  0  0  0  0
   -1.3072    8.1686   -0.8195 O   0  0  0  0  0  0  0  0  0  0  0  0
   -0.1833    7.3125   -1.2661 P   0  0  1  0  0  0  0  0  0  0  0  0
   -0.1112    7.3796   -2.7447 O   0  0  0  0  0  0  0  0  0  0  0  0
    1.0910    7.8098   -0.6973 O   0  0  0  0  0  0  0  0  0  0  0  0
   -0.4204    5.9157   -0.8232 O   0  0  0  0  0  0  0  0  0  0  0  0
   -0.5194    5.5384    0.6068 P   0  0  1  0  0  0  0  0  0  0  0  0
   -0.4864    6.6737    1.5512 O   0  0  0  0  0  0  0  0  0  0  0  0
   -1.5307    4.5027    0.9143 O   0  0  0  0  0  0  0  0  0  0  0  0
    0.9020    4.8165    0.8847 O   0  0  0  0  0  0  0  0  0  0  0  0
    1.0003    3.5536    1.5155 C   0  0  0  0  0  0  0  0  0  0  0  0
    1.0014    2.3916    0.5124 C   0  0  1  0  0  0  0  0  0  0  0  0
    1.7066    2.7541   -0.6571 O   0  0  0  0  0  0  0  0  0  0  0  0
    1.8037    1.1660    0.9838 C   0  0  1  0  0  0  0  0  0  0  0  0
    1.1579    0.3474    1.9445 O   0  0  0  0  0  0  0  0  0  0  0  0
    2.1086    0.4228   -0.3166 C   0  0  1  0  0  0  0  0  0  0  0  0
    1.1170   -0.5401   -0.6273 O   0  0  0  0  0  0  0  0  0  0  0  0
    2.0295    1.5551   -1.3388 C   0  0  2  0  0  0  0  0  0  0  0  0
    3.2266    1.7263   -2.1894 N   0  0  0  0  0  0  0  0  0  0  0  0
    3.7703    2.8558   -2.7472 C   0  0  0  0  0  0  0  0  0  0  0  0
    4.7897    2.6242   -3.5333 N   0  0  0  0  0  0  0  0  0  0  0  0
    4.9545    1.2435   -3.4775 C   0  0  0  0  0  0  0  0  0  0  0  0
    5.8779    0.3838   -4.1543 C   0  0  0  0  0  0  0  0  0  0  0  0
    6.7255    0.6979   -4.9875 O   0  0  0  0  0  0  0  0  0  0  0  0
    5.7332   -0.9618   -3.7903 N   0  0  0  0  0  0  0  0  0  0  0  0
    4.8196   -1.4111   -2.8488 C   0  0  0  0  0  0  0  0  0  0  0  0
    4.8508   -2.7048   -2.5096 N   0  0  0  0  0  0  0  0  0  0  0  0
    3.9233   -0.6079   -2.2526 N   0  0  0  0  0  0  0  0  0  0  0  0
    4.0357    0.7002   -2.6111 C   0  0  0  0  0  0  0  0  0  0  0  0
  1  2  2  0  0  0  0
  1  4  1  0  0  0  0
  1  3  1  0  0  0  0
  5  1  1  0  0  0  0
  6  7  2  6  0  0  0
  6  9  1  0  0  0  0
  6  5  1  0  0  0  0
  6  8  1  0  0  0  0
 10 11  2  1  0  0  0
 10 12  1  0  0  0  0
 10 13  1  0  0  0  0
 10  9  1  0  0  0  0
 13 14  1  0  0  0  0
 15 14  1  1  0  0  0
 15 16  1  0  0  0  0
 17 19  1  0  0  0  0
 17 15  1  0  0  0  0
 17 18  1  1  0  0  0
 19 21  1  0  0  0  0
 19 20  1  6  0  0  0
 21 16  1  0  0  0  0
 21 22  1  1  0  0  0
 22 32  1  0  0  0  0
 23 22  1  0  0  0  0
 23 24  2  0  0  0  0
 24 25  1  0  0  0  0
 25 26  1  0  0  0  0
 26 27  2  0  0  0  0
 26 28  1  0  0  0  0
 29 28  1  0  0  0  0
 29 30  1  0  0  0  0
 31 29  2  0  0  0  0
 32 25  2  0  0  0  0
 32 31  1  0  0  0  0
M  END
>  <CHROM.1>
93.23556983,-61.98279039,64.51670171,-130.45522181,5.27121613,91.48323617
36.43172973,62.71737077,-171.25372960,-23.92436276,1.19254985,3.71329023
-1.18283522,-2.64655432,-0.78324520,2.47902810

>  <Name>
lig.pdb

>  <RI>
3.17878e+07

>  <Rbt.Current_Directory>
/home/itssahil/PROJECTS/Mol_Feturizer/New_Systems/rnas/5lwj

>  <Rbt.Executable>
rbdock ($Id: //depot/dev/client3/rdock/2013.1/src/exe/rbdock.cxx#4 $)

>  <Rbt.Library>
libRbt.so (2013.1, Build901 2013/11/27)

>  <Rbt.Parameter_File>
/export/apps/rDock/src/rDock_2013.1_src/data/scripts/dock_solv.prm

>  <Rbt.Receptor>
prm/blind_docking_100.prm

>  <SCORE>
-26.2151

>  <SCORE.INTER>
-28.1656

>  <SCORE.INTER.CONST>
1

>  <SCORE.INTER.POLAR>
-1.10308

>  <SCORE.INTER.ROT>
8

>  <SCORE.INTER.SOLV>
25.0808

>  <SCORE.INTER.VDW>
-32.3937

>  <SCORE.INTER.norm>
-0.880173

>  <SCORE.INTRA>
0.167022

>  <SCORE.INTRA.DIHEDRAL>
3.73512

>  <SCORE.INTRA.DIHEDRAL.0>
10.9248

>  <SCORE.INTRA.POLAR>
-0.0114768

>  <SCORE.INTRA.POLAR.0>
0

>  <SCORE.INTRA.REPUL>
0.00485132

>  <SCORE.INTRA.REPUL.0>
0

>  <SCORE.INTRA.SOLV>
3.00482

>  <SCORE.INTRA.SOLV.lig_0>
-51.4104

>  <SCORE.INTRA.VDW>
-3.18818

>  <SCORE.INTRA.VDW.0>
0.110327

>  <SCORE.INTRA.norm>
0.00521945

>  <SCORE.RESTR>
1.78345

>  <SCORE.RESTR.CAVITY>
1.78345

>  <SCORE.RESTR.norm>
0.0557329

>  <SCORE.SYSTEM>
0

>  <SCORE.SYSTEM.CONST>
0

>  <SCORE.SYSTEM.DIHEDRAL>
0

>  <SCORE.SYSTEM.SOLV>
0

>  <SCORE.SYSTEM.norm>
0

>  <SCORE.heavy>
32

>  <SCORE.norm>
-0.819221

>  <RMSD>
14.928

$$$$
lig.pdb
 OpenBabel11021811523D
libRbt.so/2013.1/901 2013/11/27
 32 34  0  0  0  0  0  0  0  0999 V2000
    0.8023    8.8588   -3.1264 P   0  0  0  0  0  0  0  0  0  0  0  0
   -0.1969    9.9698   -2.9131 O   0  0  0  0  0  0  0  0  0  0  0  0
    0.0257    7.8528   -4.1351 O   0  0  0  0  0  0  0  0  0  0  0  0
    2.0789    9.1720   -3.8662 O   0  0  0  0  0  0  0  0  0  0  0  0
    1.2018    8.4181   -1.8039 O   0  0  0  0  0  0  0  0  0  0  0  0
    0.1390    7.5626   -1.2258 P   0  0  1  0  0  0  0  0  0  0  0  0
   -1.0703    8.3966   -1.0314 O   0  0  0  0  0  0  0  0  0  0  0  0
   -0.1825    6.4546   -2.1552 O   0  0  0  0  0  0  0  0  0  0  0  0
    0.6009    7.0114    0.0729 O   0  0  0  0  0  0  0  0  0  0  0  0
   -0.0400    5.8391    0.7148 P   0  0  1  0  0  0  0  0  0  0  0  0
   -0.0331    5.8602    2.1917 O   0  0  0  0  0  0  0  0  0  0  0  0
   -1.3182    5.4099    0.1048 O   0  0  0  0  0  0  0  0  0  0  0  0
    0.9944    4.6400    0.3817 O   0  0  0  0  0  0  0  0  0  0  0  0
    0.9700    3.4043    1.0711 C   0  0  0  0  0  0  0  0  0  0  0  0
    2.0168    2.4135    0.5432 C   0  0  1  0  0  0  0  0  0  0  0  0
    1.6742    1.0940    0.9145 O   0  0  0  0  0  0  0  0  0  0  0  0
    2.0453    2.3000   -0.9911 C   0  0  1  0  0  0  0  0  0  0  0  0
    2.6959    3.3618   -1.6689 O   0  0  0  0  0  0  0  0  0  0  0  0
    2.7143    0.9471   -1.2323 C   0  0  1  0  0  0  0  0  0  0  0  0
    4.1196    1.0624   -1.3699 O   0  0  0  0  0  0  0  0  0  0  0  0
    2.4081    0.2199    0.0757 C   0  0  2  0  0  0  0  0  0  0  0  0
    1.7272   -1.0846   -0.0684 N   0  0  0  0  0  0  0  0  0  0  0  0
    0.8695   -1.7411    0.7776 C   0  0  0  0  0  0  0  0  0  0  0  0
    0.5297   -2.9365    0.3695 N   0  0  0  0  0  0  0  0  0  0  0  0
    1.1878   -3.0792   -0.8483 C   0  0  0  0  0  0  0  0  0  0  0  0
    1.2438   -4.1841   -1.7572 C   0  0  0  0  0  0  0  0  0  0  0  0
    0.7311   -5.2935   -1.6245 O   0  0  0  0  0  0  0  0  0  0  0  0
    2.0010   -3.9061   -2.9031 N   0  0  0  0  0  0  0  0  0  0  0  0
    2.6024   -2.6813   -3.1506 C   0  0  0  0  0  0  0  0  0  0  0  0
    3.2089   -2.5053   -4.3300 N   0  0  0  0  0  0  0  0  0  0  0  0
    2.5876   -1.6645   -2.2733 N   0  0  0  0  0  0  0  0  0  0  0  0
    1.8738   -1.9251   -1.1441 C   0  0  0  0  0  0  0  0  0  0  0  0
  1  2  2  0  0  0  0
  1  4  1  0  0  0  0
  1  3  1  0  0  0  0
  5  1  1  0  0  0  0
  6  7  2  1  0  0  0
  6  9  1  0  0  0  0
  6  5  1  0  0  0  0
  6  8  1  0  0  0  0
 10 11  2  1  0  0  0
 10 12  1  0  0  0  0
 10 13  1  0  0  0  0
 10  9  1  0  0  0  0
 13 14  1  0  0  0  0
 15 14  1  6  0  0  0
 15 16  1  0  0  0  0
 17 19  1  0  0  0  0
 17 15  1  0  0  0  0
 17 18  1  6  0  0  0
 19 21  1  0  0  0  0
 19 20  1  1  0  0  0
 21 16  1  0  0  0  0
 21 22  1  6  0  0  0
 22 32  1  0  0  0  0
 23 22  1  0  0  0  0
 23 24  2  0  0  0  0
 24 25  1  0  0  0  0
 25 26  1  0  0  0  0
 26 27  2  0  0  0  0
 26 28  1  0  0  0  0
 29 28  1  0  0  0  0
 29 30  1  0  0  0  0
 31 29  2  0  0  0  0
 32 25  2  0  0  0  0
 32 31  1  0  0  0  0
M  END
>  <CHROM.1>
77.40986290,-162.17471256,-64.88341084,163.78817586,-147.47004343,178.06648214
-160.12364851,-143.61156266,-173.78862417,-27.12703722,1.14248302,3.17406673
-1.17114422,-1.99589092,-1.21107914,2.71293399

>  <Name>
lig.pdb

>  <RI>
4.14043e+07

>  <Rbt.Current_Directory>
/home/itssahil/PROJECTS/Mol_Feturizer/New_Systems/rnas/5lwj

>  <Rbt.Executable>
rbdock ($Id: //depot/dev/client3/rdock/2013.1/src/exe/rbdock.cxx#4 $)

>  <Rbt.Library>
libRbt.so (2013.1, Build901 2013/11/27)

>  <Rbt.Parameter_File>
/export/apps/rDock/src/rDock_2013.1_src/data/scripts/dock_solv.prm

>  <Rbt.Receptor>
prm/blind_docking_80.prm

>  <SCORE>
-32.2564

>  <SCORE.INTER>
-31.8723

>  <SCORE.INTER.CONST>
1

>  <SCORE.INTER.POLAR>
-2.18684

>  <SCORE.INTER.ROT>
8

>  <SCORE.INTER.SOLV>
23.8502

>  <SCORE.INTER.VDW>
-30.8421

>  <SCORE.INTER.norm>
-0.99601

>  <SCORE.INTRA>
-1.08456

>  <SCORE.INTRA.DIHEDRAL>
1.60985

>  <SCORE.INTRA.DIHEDRAL.0>
10.9248

>  <SCORE.INTRA.POLAR>
0

>  <SCORE.INTRA.POLAR.0>
0

>  <SCORE.INTRA.REPUL>
0

>  <SCORE.INTRA.REPUL.0>
0

>  <SCORE.INTRA.SOLV>
-0.691683

>  <SCORE.INTRA.SOLV.lig_0>
-51.4104

>  <SCORE.INTRA.VDW>
-1.54364

>  <SCORE.INTRA.VDW.0>
0.110327

>  <SCORE.INTRA.norm>
-0.0338924

>  <SCORE.RESTR>
0.700521

>  <SCORE.RESTR.CAVITY>
0.700521

>  <SCORE.RESTR.norm>
0.0218913

>  <SCORE.SYSTEM>
0

>  <SCORE.SYSTEM.CONST>
0

>  <SCORE.SYSTEM.DIHEDRAL>
0

>  <SCORE.SYSTEM.SOLV>
0

>  <SCORE.SYSTEM.norm>
0

>  <SCORE.heavy>
32

>  <SCORE.norm>
-1.00801

>  <RMSD>
14.932

$$$$
lig.pdb
 OpenBabel11021811523D
libRbt.so/2013.1/901 2013/11/27
 32 34  0  0  0  0  0  0  0  0999 V2000
    0.0108   -1.8375    0.0709 P   0  0  0  0  0  0  0  0  0  0  0  0
    1.0930   -2.2902    1.0206 O   0  0  0  0  0  0  0  0  0  0  0  0
   -0.2008   -3.1280   -0.8895 O   0  0  0  0  0  0  0  0  0  0  0  0
   -1.3708   -1.5869    0.6219 O   0  0  0  0  0  0  0  0  0  0  0  0
    0.4604   -0.5726   -0.4774 O   0  0  0  0  0  0  0  0  0  0  0  0
    0.3748    0.4767    0.5652 P   0  0  1  0  0  0  0  0  0  0  0  0
   -1.0571    0.7729    0.8056 O   0  0  0  0  0  0  0  0  0  0  0  0
    0.9859   -0.0080    1.8247 O   0  0  0  0  0  0  0  0  0  0  0  0
    1.0834    1.6950    0.0990 O   0  0  0  0  0  0  0  0  0  0  0  0
    1.5615    2.7448    1.0297 P   0  0  1  0  0  0  0  0  0  0  0  0
    1.2194    2.5181    2.4486 O   0  0  0  0  0  0  0  0  0  0  0  0
    2.9449    3.2132    0.7906 O   0  0  0  0  0  0  0  0  0  0  0  0
    0.6297    4.0116    0.6478 O   0  0  0  0  0  0  0  0  0  0  0  0
    0.7023    5.2426    1.3420 C   0  0  0  0  0  0  0  0  0  0  0  0
   -0.3875    6.2315    0.9051 C   0  0  1  0  0  0  0  0  0  0  0  0
    0.1594    7.2211    0.0578 O   0  0  0  0  0  0  0  0  0  0  0  0
   -1.4600    5.6096   -0.0064 C   0  0  1  0  0  0  0  0  0  0  0  0
   -2.4326    4.8148    0.6512 O   0  0  0  0  0  0  0  0  0  0  0  0
   -2.0669    6.8208   -0.7141 C   0  0  1  0  0  0  0  0  0  0  0  0
   -3.1842    7.3431   -0.0170 O   0  0  0  0  0  0  0  0  0  0  0  0
   -0.9213    7.8276   -0.6282 C   0  0  2  0  0  0  0  0  0  0  0  0
   -0.4842    8.4024   -1.9184 N   0  0  0  0  0  0  0  0  0  0  0  0
    0.7477    8.4040   -2.5223 C   0  0  0  0  0  0  0  0  0  0  0  0
    0.7976    9.0989   -3.6293 N   0  0  0  0  0  0  0  0  0  0  0  0
   -0.5000    9.5755   -3.7896 C   0  0  0  0  0  0  0  0  0  0  0  0
   -1.0657   10.4297   -4.7897 C   0  0  0  0  0  0  0  0  0  0  0  0
   -0.4883   10.9709   -5.7305 O   0  0  0  0  0  0  0  0  0  0  0  0
   -2.4381   10.6458   -4.6057 N   0  0  0  0  0  0  0  0  0  0  0  0
   -3.1792   10.0665   -3.5867 C   0  0  0  0  0  0  0  0  0  0  0  0
   -4.5021   10.2651   -3.5802 N   0  0  0  0  0  0  0  0  0  0  0  0
   -2.6350    9.3052   -2.6234 N   0  0  0  0  0  0  0  0  0  0  0  0
   -1.2977    9.1024   -2.7748 C   0  0  0  0  0  0  0  0  0  0  0  0
  1  2  2  0  0  0  0
  1  4  1  0  0  0  0
  1  3  1  0  0  0  0
  5  1  1  0  0  0  0
  6  7  2  1  0  0  0
  6  9  1  0  0  0  0
  6  5  1  0  0  0  0
  6  8  1  0  0  0  0
 10 11  2  1  0  0  0
 10 12  1  0  0  0  0
 10 13  1  0  0  0  0
 10  9  1  0  0  0  0
 13 14  1  0  0  0  0
 15 14  1  6  0  0  0
 15 16  1  0  0  0  0
 17 19  1  0  0  0  0
 17 15  1  0  0  0  0
 17 18  1  1  0  0  0
 19 21  1  0  0  0  0
 19 20  1  1  0  0  0
 21 16  1  0  0  0  0
 21 22  1  6  0  0  0
 22 32  1  0  0  0  0
 23 22  1  0  0  0  0
 23 24  2  0  0  0  0
 24 25  1  0  0  0  0
 25 26  1  0  0  0  0
 26 27  2  0  0  0  0
 26 28  1  0  0  0  0
 29 28  1  0  0  0  0
 29 30  1  0  0  0  0
 31 29  2  0  0  0  0
 32 25  2  0  0  0  0
 32 31  1  0  0  0  0
M  END
>  <CHROM.1>
-71.89621066,-159.75967450,-71.07102340,177.08911239,-2.91515066,-173.35760912
-103.46702399,54.56819383,-62.98288483,1.52843010,-0.39993935,4.45613707
-0.69009160,1.32951437,0.66669579,2.92731453

>  <Name>
lig.pdb

>  <RI>
2.72908e+07

>  <Rbt.Current_Directory>
/home/itssahil/PROJECTS/Mol_Feturizer/New_Systems/rnas/5lwj

>  <Rbt.Executable>
rbdock ($Id: //depot/dev/client3/rdock/2013.1/src/exe/rbdock.cxx#4 $)

>  <Rbt.Library>
libRbt.so (2013.1, Build901 2013/11/27)

>  <Rbt.Parameter_File>
/export/apps/rDock/src/rDock_2013.1_src/data/scripts/dock_solv.prm

>  <Rbt.Receptor>
prm/blind_docking_20.prm

>  <SCORE>
-23.7464

>  <SCORE.INTER>
-25.5262

>  <SCORE.INTER.CONST>
1

>  <SCORE.INTER.POLAR>
-1.64629

>  <SCORE.INTER.ROT>
8

>  <SCORE.INTER.SOLV>
25.4351

>  <SCORE.INTER.VDW>
-28.9415

>  <SCORE.INTER.norm>
-0.797693

>  <SCORE.INTRA>
0.909199

>  <SCORE.INTRA.DIHEDRAL>
-0.372074

>  <SCORE.INTRA.DIHEDRAL.0>
10.9248

>  <SCORE.INTRA.POLAR>
0

>  <SCORE.INTRA.POLAR.0>
0

>  <SCORE.INTRA.REPUL>
0

>  <SCORE.INTRA.REPUL.0>
0

>  <SCORE.INTRA.SOLV>
-0.0783888

>  <SCORE.INTRA.SOLV.lig_0>
-51.4104

>  <SCORE.INTRA.VDW>
1.13443

>  <SCORE.INTRA.VDW.0>
0.110327

>  <SCORE.INTRA.norm>
0.0284125

>  <SCORE.RESTR>
0.870534

>  <SCORE.RESTR.CAVITY>
0.870534

>  <SCORE.RESTR.norm>
0.0272042

>  <SCORE.SYSTEM>
0

>  <SCORE.SYSTEM.CONST>
0

>  <SCORE.SYSTEM.DIHEDRAL>
0

>  <SCORE.SYSTEM.SOLV>
0

>  <SCORE.SYSTEM.norm>
0

>  <SCORE.heavy>
32

>  <SCORE.norm>
-0.742076

>  <RMSD>
14.953

$$$$
lig.pdb
 OpenBabel11021811523D
libRbt.so/2013.1/901 2013/11/27
 32 34  0  0  0  0  0  0  0  0999 V2000
   -0.9464    8.3364   -2.8625 P   0  0  0  0  0  0  0  0  0  0  0  0
    0.3394    9.0978   -2.6504 O   0  0  0  0  0  0  0  0  0  0  0  0
   -2.0551    9.2767   -2.1420 O   0  0  0  0  0  0  0  0  0  0  0  0
   -1.4748    8.1947   -4.2682 O   0  0  0  0  0  0  0  0  0  0  0  0
   -0.6983    6.9886   -2.3886 O   0  0  0  0  0  0  0  0  0  0  0  0
   -0.4989    7.0095   -0.9205 P   0  0  1  0  0  0  0  0  0  0  0  0
    0.7467    7.7597   -0.6345 O   0  0  0  0  0  0  0  0  0  0  0  0
   -1.6366    7.6938   -0.2632 O   0  0  0  0  0  0  0  0  0  0  0  0
   -0.3908    5.6173   -0.4170 O   0  0  0  0  0  0  0  0  0  0  0  0
    0.1526    5.2939    0.9236 P   0  0  1  0  0  0  0  0  0  0  0  0
    1.2006    6.2160    1.4066 O   0  0  0  0  0  0  0  0  0  0  0  0
   -0.8581    4.9157    1.9363 O   0  0  0  0  0  0  0  0  0  0  0  0
    0.9872    3.9344    0.6519 O   0  0  0  0  0  0  0  0  0  0  0  0
    2.2661    3.7051    1.2128 C   0  0  0  0  0  0  0  0  0  0  0  0
    2.7726    2.2777    0.9629 C   0  0  1  0  0  0  0  0  0  0  0  0
    1.8013    1.3348    1.3677 O   0  0  0  0  0  0  0  0  0  0  0  0
    2.9331    1.9285   -0.5271 C   0  0  1  0  0  0  0  0  0  0  0  0
    4.0881    2.4578   -1.1563 O   0  0  0  0  0  0  0  0  0  0  0  0
    2.9029    0.4003   -0.5364 C   0  0  1  0  0  0  0  0  0  0  0  0
    4.1991   -0.1607   -0.4251 O   0  0  0  0  0  0  0  0  0  0  0  0
    2.1291    0.1045    0.7470 C   0  0  2  0  0  0  0  0  0  0  0  0
    0.9339   -0.7504    0.5839 N   0  0  0  0  0  0  0  0  0  0  0  0
   -0.2777   -0.7217    1.2271 C   0  0  0  0  0  0  0  0  0  0  0  0
   -1.0797   -1.7006    0.8968 N   0  0  0  0  0  0  0  0  0  0  0  0
   -0.3624   -2.4212   -0.0534 C   0  0  0  0  0  0  0  0  0  0  0  0
   -0.6895   -3.6238   -0.7582 C   0  0  0  0  0  0  0  0  0  0  0  0
   -1.6976   -4.3166   -0.6355 O   0  0  0  0  0  0  0  0  0  0  0  0
    0.3062   -4.0085   -1.6661 N   0  0  0  0  0  0  0  0  0  0  0  0
    1.4682   -3.2847   -1.8874 C   0  0  0  0  0  0  0  0  0  0  0  0
    2.2919   -3.6986   -2.8569 N   0  0  0  0  0  0  0  0  0  0  0  0
    1.7927   -2.1840   -1.1895 N   0  0  0  0  0  0  0  0  0  0  0  0
    0.8456   -1.8079   -0.2874 C   0  0  0  0  0  0  0  0  0  0  0  0
  1  2  2  0  0  0  0
  1  4  1  0  0  0  0
  1  3  1  0  0  0  0
  5  1  1  0  0  0  0
  6  7  2  1  0  0  0
  6  9  1  0  0  0  0
  6  5  1  0  0  0  0
  6  8  1  0  0  0  0
 10 11  2  1  0  0  0
 10 12  1  0  0  0  0
 10 13  1  0  0  0  0
 10  9  1  0  0  0  0
 13 14  1  0  0  0  0
 15 14  1  6  0  0  0
 15 16  1  0  0  0  0
 17 19  1  0  0  0  0
 17 15  1  0  0  0  0
 17 18  1  1  0  0  0
 19 21  1  0  0  0  0
 19 20  1  1  0  0  0
 21 16  1  0  0  0  0
 21 22  1  6  0  0  0
 22 32  1  0  0  0  0
 23 22  1  0  0  0  0
 23 24  2  0  0  0  0
 24 25  1  0  0  0  0
 25 26  1  0  0  0  0
 26 27  2  0  0  0  0
 26 28  1  0  0  0  0
 29 28  1  0  0  0  0
 29 30  1  0  0  0  0
 31 29  2  0  0  0  0
 32 25  2  0  0  0  0
 32 31  1  0  0  0  0
M  END
>  <CHROM.1>
67.02358485,163.81295948,-65.77214379,137.47497304,-32.00962635,172.45970731
-52.00892732,64.24540841,-175.80716940,-20.22774510,0.55819226,2.94516475
-0.58971621,1.76650749,-0.65157239,0.03369229

>  <Name>
lig.pdb

>  <RI>
4.14043e+07

>  <Rbt.Current_Directory>
/home/itssahil/PROJECTS/Mol_Feturizer/New_Systems/rnas/5lwj

>  <Rbt.Executable>
rbdock ($Id: //depot/dev/client3/rdock/2013.1/src/exe/rbdock.cxx#4 $)

>  <Rbt.Library>
libRbt.so (2013.1, Build901 2013/11/27)

>  <Rbt.Parameter_File>
/export/apps/rDock/src/rDock_2013.1_src/data/scripts/dock_solv.prm

>  <Rbt.Receptor>
prm/blind_docking_80.prm

>  <SCORE>
-33.5386

>  <SCORE.INTER>
-32.9659

>  <SCORE.INTER.CONST>
1

>  <SCORE.INTER.POLAR>
-1.69057

>  <SCORE.INTER.ROT>
8

>  <SCORE.INTER.SOLV>
23.0648

>  <SCORE.INTER.VDW>
-32.9636

>  <SCORE.INTER.norm>
-1.03018

>  <SCORE.INTRA>
-2.20381

>  <SCORE.INTRA.DIHEDRAL>
-3.2785

>  <SCORE.INTRA.DIHEDRAL.0>
10.9248

>  <SCORE.INTRA.POLAR>
-0.0216517

>  <SCORE.INTRA.POLAR.0>
0

>  <SCORE.INTRA.REPUL>
0

>  <SCORE.INTRA.REPUL.0>
0

>  <SCORE.INTRA.SOLV>
0.084886

>  <SCORE.INTRA.SOLV.lig_0>
-51.4104

>  <SCORE.INTRA.VDW>
-0.533385

>  <SCORE.INTRA.VDW.0>
0.110327

>  <SCORE.INTRA.norm>
-0.068869

>  <SCORE.RESTR>
1.63105

>  <SCORE.RESTR.CAVITY>
1.63105

>  <SCORE.RESTR.norm>
0.0509704

>  <SCORE.SYSTEM>
0

>  <SCORE.SYSTEM.CONST>
0

>  <SCORE.SYSTEM.DIHEDRAL>
0

>  <SCORE.SYSTEM.SOLV>
0

>  <SCORE.SYSTEM.norm>
0

>  <SCORE.heavy>
32

>  <SCORE.norm>
-1.04808

>  <RMSD>
14.955

$$$$
lig.pdb
 OpenBabel11021811523D
libRbt.so/2013.1/901 2013/11/27
 32 34  0  0  0  0  0  0  0  0999 V2000
    2.0150   -1.5662   -0.6273 P   0  0  0  0  0  0  0  0  0  0  0  0
    1.6857   -2.9594   -0.1494 O   0  0  0  0  0  0  0  0  0  0  0  0
    3.2237   -1.1148    0.3565 O   0  0  0  0  0  0  0  0  0  0  0  0
    2.6095   -1.3997   -2.0035 O   0  0  0  0  0  0  0  0  0  0  0  0
    0.7607   -0.8388   -0.6406 O   0  0  0  0  0  0  0  0  0  0  0  0
    0.4287   -0.4003    0.7353 P   0  0  1  0  0  0  0  0  0  0  0  0
   -0.9118    0.2309    0.7079 O   0  0  0  0  0  0  0  0  0  0  0  0
    0.3941   -1.5684    1.6459 O   0  0  0  0  0  0  0  0  0  0  0  0
    1.4482    0.5719    1.2033 O   0  0  0  0  0  0  0  0  0  0  0  0
    1.6636    1.8814    0.5433 P   0  0  1  0  0  0  0  0  0  0  0  0
    2.8908    2.5907    0.9588 O   0  0  0  0  0  0  0  0  0  0  0  0
    1.3953    1.9028   -0.9119 O   0  0  0  0  0  0  0  0  0  0  0  0
    0.4983    2.8014    1.1870 O   0  0  0  0  0  0  0  0  0  0  0  0
    0.6886    4.1736    1.4763 C   0  0  0  0  0  0  0  0  0  0  0  0
   -0.0598    5.0917    0.4999 C   0  0  1  0  0  0  0  0  0  0  0  0
   -1.4538    4.8850    0.6032 O   0  0  0  0  0  0  0  0  0  0  0  0
    0.0523    6.5871    0.8449 C   0  0  1  0  0  0  0  0  0  0  0  0
    1.2808    7.2028    0.4957 O   0  0  0  0  0  0  0  0  0  0  0  0
   -1.1449    7.2061    0.1240 C   0  0  1  0  0  0  0  0  0  0  0  0
   -0.8150    7.6421   -1.1830 O   0  0  0  0  0  0  0  0  0  0  0  0
   -2.0873    6.0086    0.0178 C   0  0  2  0  0  0  0  0  0  0  0  0
   -3.4402    6.2148    0.5773 N   0  0  0  0  0  0  0  0  0  0  0  0
   -3.9740    5.8356    1.7830 C   0  0  0  0  0  0  0  0  0  0  0  0
   -5.2486    6.1012    1.9086 N   0  0  0  0  0  0  0  0  0  0  0  0
   -5.5850    6.7247    0.7108 C   0  0  0  0  0  0  0  0  0  0  0  0
   -6.8430    7.2118    0.2311 C   0  0  0  0  0  0  0  0  0  0  0  0
   -7.9375    7.1421    0.7866 O   0  0  0  0  0  0  0  0  0  0  0  0
   -6.7467    7.8117   -1.0317 N   0  0  0  0  0  0  0  0  0  0  0  0
   -5.5561    7.9530   -1.7286 C   0  0  0  0  0  0  0  0  0  0  0  0
   -5.5772    8.6388   -2.8770 N   0  0  0  0  0  0  0  0  0  0  0  0
   -4.3875    7.4518   -1.2964 N   0  0  0  0  0  0  0  0  0  0  0  0
   -4.4670    6.8463   -0.0800 C   0  0  0  0  0  0  0  0  0  0  0  0
  1  2  2  0  0  0  0
  1  4  1  0  0  0  0
  1  3  1  0  0  0  0
  5  1  1  0  0  0  0
  6  7  2  6  0  0  0
  6  9  1  0  0  0  0
  6  5  1  0  0  0  0
  6  8  1  0  0  0  0
 10 11  2  1  0  0  0
 10 12  1  0  0  0  0
 10 13  1  0  0  0  0
 10  9  1  0  0  0  0
 13 14  1  0  0  0  0
 15 14  1  1  0  0  0
 15 16  1  0  0  0  0
 17 19  1  0  0  0  0
 17 15  1  0  0  0  0
 17 18  1  6  0  0  0
 19 21  1  0  0  0  0
 19 20  1  6  0  0  0
 21 16  1  0  0  0  0
 21 22  1  1  0  0  0
 22 32  1  0  0  0  0
 23 22  1  0  0  0  0
 23 24  2  0  0  0  0
 24 25  1  0  0  0  0
 25 26  1  0  0  0  0
 26 27  2  0  0  0  0
 26 28  1  0  0  0  0
 29 28  1  0  0  0  0
 29 30  1  0  0  0  0
 31 29  2  0  0  0  0
 32 25  2  0  0  0  0
 32 31  1  0  0  0  0
M  END
>  <CHROM.1>
79.67673727,62.78041965,-174.99510881,144.08502329,-167.85696033,107.33536584
63.00954353,-47.83673741,-57.51923434,24.40568966,-0.99847148,3.43445410
0.14531270,0.87954184,0.02101192,3.11239610

>  <Name>
lig.pdb

>  <RI>
2.72908e+07

>  <Rbt.Current_Directory>
/home/itssahil/PROJECTS/Mol_Feturizer/New_Systems/rnas/5lwj

>  <Rbt.Executable>
rbdock ($Id: //depot/dev/client3/rdock/2013.1/src/exe/rbdock.cxx#4 $)

>  <Rbt.Library>
libRbt.so (2013.1, Build901 2013/11/27)

>  <Rbt.Parameter_File>
/export/apps/rDock/src/rDock_2013.1_src/data/scripts/dock_solv.prm

>  <Rbt.Receptor>
prm/blind_docking_20.prm

>  <SCORE>
-33.2736

>  <SCORE.INTER>
-31.259

>  <SCORE.INTER.CONST>
1

>  <SCORE.INTER.POLAR>
-3.1743

>  <SCORE.INTER.ROT>
8

>  <SCORE.INTER.SOLV>
22.3535

>  <SCORE.INTER.VDW>
-26.6429

>  <SCORE.INTER.norm>
-0.976845

>  <SCORE.INTRA>
-2.08948

>  <SCORE.INTRA.DIHEDRAL>
2.0318

>  <SCORE.INTRA.DIHEDRAL.0>
10.9248

>  <SCORE.INTRA.POLAR>
-0.00464808

>  <SCORE.INTRA.POLAR.0>
0

>  <SCORE.INTRA.REPUL>
0

>  <SCORE.INTRA.REPUL.0>
0

>  <SCORE.INTRA.SOLV>
0.784594

>  <SCORE.INTRA.SOLV.lig_0>
-51.4104

>  <SCORE.INTRA.VDW>
-3.48188

>  <SCORE.INTRA.VDW.0>
0.110327

>  <SCORE.INTRA.norm>
-0.0652963

>  <SCORE.RESTR>
0.0749516

>  <SCORE.RESTR.CAVITY>
0.0749516

>  <SCORE.RESTR.norm>
0.00234224

>  <SCORE.SYSTEM>
0

>  <SCORE.SYSTEM.CONST>
0

>  <SCORE.SYSTEM.DIHEDRAL>
0

>  <SCORE.SYSTEM.SOLV>
0

>  <SCORE.SYSTEM.norm>
0

>  <SCORE.heavy>
32

>  <SCORE.norm>
-1.0398

>  <RMSD>
14.990

$$$$
lig.pdb
 OpenBabel11021811523D
libRbt.so/2013.1/901 2013/11/27
 32 34  0  0  0  0  0  0  0  0999 V2000
   -0.1557   -1.6395    0.3507 P   0  0  0  0  0  0  0  0  0  0  0  0
   -1.0038   -2.6088   -0.4361 O   0  0  0  0  0  0  0  0  0  0  0  0
   -1.2389   -0.8797    1.2899 O   0  0  0  0  0  0  0  0  0  0  0  0
    0.8348   -2.1931    1.3445 O   0  0  0  0  0  0  0  0  0  0  0  0
    0.6233   -0.9027   -0.6255 O   0  0  0  0  0  0  0  0  0  0  0  0
    1.2521    0.2698    0.0267 P   0  0  1  0  0  0  0  0  0  0  0  0
    0.2337    0.9238    0.8817 O   0  0  0  0  0  0  0  0  0  0  0  0
    2.3855   -0.1679    0.8743 O   0  0  0  0  0  0  0  0  0  0  0  0
    1.7364    1.2123   -1.0129 O   0  0  0  0  0  0  0  0  0  0  0  0
    2.6674    2.3249   -0.7093 P   0  0  1  0  0  0  0  0  0  0  0  0
    3.4554    2.1537    0.5282 O   0  0  0  0  0  0  0  0  0  0  0  0
    3.4324    2.8374   -1.8679 O   0  0  0  0  0  0  0  0  0  0  0  0
    1.6644    3.5323   -0.3158 O   0  0  0  0  0  0  0  0  0  0  0  0
    1.6017    4.0701    0.9917 C   0  0  0  0  0  0  0  0  0  0  0  0
    0.7464    5.3426    1.0658 C   0  0  1  0  0  0  0  0  0  0  0  0
    0.9624    6.1458   -0.0764 O   0  0  0  0  0  0  0  0  0  0  0  0
   -0.7667    5.0795    0.9707 C   0  0  1  0  0  0  0  0  0  0  0  0
   -1.3760    4.5907    2.1540 O   0  0  0  0  0  0  0  0  0  0  0  0
   -1.3323    6.4289    0.5288 C   0  0  1  0  0  0  0  0  0  0  0  0
   -1.7001    7.2410    1.6299 O   0  0  0  0  0  0  0  0  0  0  0  0
   -0.1205    7.0552   -0.1587 C   0  0  2  0  0  0  0  0  0  0  0  0
   -0.3420    7.5025   -1.5504 N   0  0  0  0  0  0  0  0  0  0  0  0
    0.4709    8.2095   -2.4000 C   0  0  0  0  0  0  0  0  0  0  0  0
   -0.0908    8.5195   -3.5398 N   0  0  0  0  0  0  0  0  0  0  0  0
   -1.3615    7.9583   -3.4559 C   0  0  0  0  0  0  0  0  0  0  0  0
   -2.4606    7.9908   -4.3728 C   0  0  0  0  0  0  0  0  0  0  0  0
   -2.5231    8.5777   -5.4512 O   0  0  0  0  0  0  0  0  0  0  0  0
   -3.5679    7.2618   -3.9185 N   0  0  0  0  0  0  0  0  0  0  0  0
   -3.5873    6.5534   -2.7264 C   0  0  0  0  0  0  0  0  0  0  0  0
   -4.6655    5.8098   -2.4543 N   0  0  0  0  0  0  0  0  0  0  0  0
   -2.5718    6.5656   -1.8475 N   0  0  0  0  0  0  0  0  0  0  0  0
   -1.4954    7.2872   -2.2636 C   0  0  0  0  0  0  0  0  0  0  0  0
  1  2  2  0  0  0  0
  1  4  1  0  0  0  0
  1  3  1  0  0  0  0
  5  1  1  0  0  0  0
  6  7  2  1  0  0  0
  6  9  1  0  0  0  0
  6  5  1  0  0  0  0
  6  8  1  0  0  0  0
 10 11  2  1  0  0  0
 10 12  1  0  0  0  0
 10 13  1  0  0  0  0
 10  9  1  0  0  0  0
 13 14  1  0  0  0  0
 15 14  1  6  0  0  0
 15 16  1  0  0  0  0
 17 19  1  0  0  0  0
 17 15  1  0  0  0  0
 17 18  1  1  0  0  0
 19 21  1  0  0  0  0
 19 20  1  1  0  0  0
 21 16  1  0  0  0  0
 21 22  1  6  0  0  0
 22 32  1  0  0  0  0
 23 22  1  0  0  0  0
 23 24  2  0  0  0  0
 24 25  1  0  0  0  0
 25 26  1  0  0  0  0
 26 27  2  0  0  0  0
 26 28  1  0  0  0  0
 29 28  1  0  0  0  0
 29 30  1  0  0  0  0
 31 29  2  0  0  0  0
 32 25  2  0  0  0  0
 32 31  1  0  0  0  0
M  END
>  <CHROM.1>
167.31538923,-166.14118285,-44.63900457,113.51091017,21.44087369,170.88618028
-39.19632097,-10.91471103,2.73669433,-62.90357308,-0.06815466,3.61956860
-0.68969443,1.23662395,0.35988104,2.91886600

>  <Name>
lig.pdb

>  <RI>
3.17878e+07

>  <Rbt.Current_Directory>
/home/itssahil/PROJECTS/Mol_Feturizer/New_Systems/rnas/5lwj

>  <Rbt.Executable>
rbdock ($Id: //depot/dev/client3/rdock/2013.1/src/exe/rbdock.cxx#4 $)

>  <Rbt.Library>
libRbt.so (2013.1, Build901 2013/11/27)

>  <Rbt.Parameter_File>
/export/apps/rDock/src/rDock_2013.1_src/data/scripts/dock_solv.prm

>  <Rbt.Receptor>
prm/blind_docking_100.prm

>  <SCORE>
-17.072

>  <SCORE.INTER>
-25.923

>  <SCORE.INTER.CONST>
1

>  <SCORE.INTER.POLAR>
-2.96779

>  <SCORE.INTER.ROT>
8

>  <SCORE.INTER.SOLV>
26.1837

>  <SCORE.INTER.VDW>
-25.0506

>  <SCORE.INTER.norm>
-0.810092

>  <SCORE.INTRA>
7.29676

>  <SCORE.INTRA.DIHEDRAL>
11.2714

>  <SCORE.INTRA.DIHEDRAL.0>
10.9248

>  <SCORE.INTRA.POLAR>
-0.0288557

>  <SCORE.INTRA.POLAR.0>
0

>  <SCORE.INTRA.REPUL>
0

>  <SCORE.INTRA.REPUL.0>
0

>  <SCORE.INTRA.SOLV>
0.00700779

>  <SCORE.INTRA.SOLV.lig_0>
-51.4104

>  <SCORE.INTRA.VDW>
1.75569

>  <SCORE.INTRA.VDW.0>
0.110327

>  <SCORE.INTRA.norm>
0.228024

>  <SCORE.RESTR>
1.55421

>  <SCORE.RESTR.CAVITY>
1.55421

>  <SCORE.RESTR.norm>
0.048569

>  <SCORE.SYSTEM>
0

>  <SCORE.SYSTEM.CONST>
0

>  <SCORE.SYSTEM.DIHEDRAL>
0

>  <SCORE.SYSTEM.SOLV>
0

>  <SCORE.SYSTEM.norm>
0

>  <SCORE.heavy>
32

>  <SCORE.norm>
-0.5335

>  <RMSD>
15.038

$$$$
lig.pdb
 OpenBabel11021811523D
libRbt.so/2013.1/901 2013/11/27
 32 34  0  0  0  0  0  0  0  0999 V2000
    2.8117   -0.3300   -1.7457 P   0  0  0  0  0  0  0  0  0  0  0  0
    3.9393    0.0597   -2.6703 O   0  0  0  0  0  0  0  0  0  0  0  0
    2.1870   -1.6461   -2.4600 O   0  0  0  0  0  0  0  0  0  0  0  0
    3.1538   -0.8186   -0.3604 O   0  0  0  0  0  0  0  0  0  0  0  0
    2.0098    0.8645   -1.5641 O   0  0  0  0  0  0  0  0  0  0  0  0
    2.8791    1.9819   -1.1269 P   0  0  1  0  0  0  0  0  0  0  0  0
    3.7269    1.4982   -0.0119 O   0  0  0  0  0  0  0  0  0  0  0  0
    3.7506    2.4143   -2.2441 O   0  0  0  0  0  0  0  0  0  0  0  0
    2.0351    3.1180   -0.6791 O   0  0  0  0  0  0  0  0  0  0  0  0
    1.5071    3.2235    0.7019 P   0  0  1  0  0  0  0  0  0  0  0  0
    0.3764    2.3223    1.0039 O   0  0  0  0  0  0  0  0  0  0  0  0
    2.5357    3.3080    1.7625 O   0  0  0  0  0  0  0  0  0  0  0  0
    0.7989    4.6786    0.7030 O   0  0  0  0  0  0  0  0  0  0  0  0
   -0.2386    5.0160    1.6044 C   0  0  0  0  0  0  0  0  0  0  0  0
   -1.4581    5.6254    0.8989 C   0  0  1  0  0  0  0  0  0  0  0  0
   -2.0433    4.6800    0.0269 O   0  0  0  0  0  0  0  0  0  0  0  0
   -2.6319    5.9340    1.8448 C   0  0  1  0  0  0  0  0  0  0  0  0
   -2.4900    7.1057    2.6303 O   0  0  0  0  0  0  0  0  0  0  0  0
   -3.8357    5.9948    0.9049 C   0  0  1  0  0  0  0  0  0  0  0  0
   -4.0769    7.3073    0.4292 O   0  0  0  0  0  0  0  0  0  0  0  0
   -3.3546    5.1320   -0.2602 C   0  0  2  0  0  0  0  0  0  0  0  0
   -4.2426    4.0077   -0.6256 N   0  0  0  0  0  0  0  0  0  0  0  0
   -3.9509    2.6991   -0.9168 C   0  0  0  0  0  0  0  0  0  0  0  0
   -4.9850    1.9948   -1.2983 N   0  0  0  0  0  0  0  0  0  0  0  0
   -6.0481    2.8905   -1.2336 C   0  0  0  0  0  0  0  0  0  0  0  0
   -7.4307    2.7266   -1.5678 C   0  0  0  0  0  0  0  0  0  0  0  0
   -7.9781    1.7303   -2.0359 O   0  0  0  0  0  0  0  0  0  0  0  0
   -8.1883    3.8799   -1.3236 N   0  0  0  0  0  0  0  0  0  0  0  0
   -7.6655    5.0446   -0.7820 C   0  0  0  0  0  0  0  0  0  0  0  0
   -8.5118    6.0407   -0.4970 N   0  0  0  0  0  0  0  0  0  0  0  0
   -6.3595    5.2097   -0.5155 N   0  0  0  0  0  0  0  0  0  0  0  0
   -5.6048    4.1054   -0.7673 C   0  0  0  0  0  0  0  0  0  0  0  0
  1  2  2  0  0  0  0
  1  4  1  0  0  0  0
  1  3  1  0  0  0  0
  5  1  1  0  0  0  0
  6  7  2  1  0  0  0
  6  9  1  0  0  0  0
  6  5  1  0  0  0  0
  6  8  1  0  0  0  0
 10 11  2  1  0  0  0
 10 12  1  0  0  0  0
 10 13  1  0  0  0  0
 10  9  1  0  0  0  0
 13 14  1  0  0  0  0
 15 14  1  1  0  0  0
 15 16  1  0  0  0  0
 17 19  1  0  0  0  0
 17 15  1  0  0  0  0
 17 18  1  6  0  0  0
 19 21  1  0  0  0  0
 19 20  1  6  0  0  0
 21 16  1  0  0  0  0
 21 22  1  1  0  0  0
 22 32  1  0  0  0  0
 23 22  1  0  0  0  0
 23 24  2  0  0  0  0
 24 25  1  0  0  0  0
 25 26  1  0  0  0  0
 26 27  2  0  0  0  0
 26 28  1  0  0  0  0
 29 28  1  0  0  0  0
 29 30  1  0  0  0  0
 31 29  2  0  0  0  0
 32 25  2  0  0  0  0
 32 31  1  0  0  0  0
M  END
>  <CHROM.1>
-53.02518646,85.71924005,-48.37836587,156.17035636,-75.16603980,-129.74601622
63.78855164,-54.90758397,57.84969742,-11.20060374,-1.26636480,3.16426012
-0.40685626,0.34002166,0.16294644,-2.57192884

>  <Name>
lig.pdb

>  <RI>
2.72908e+07

>  <Rbt.Current_Directory>
/home/itssahil/PROJECTS/Mol_Feturizer/New_Systems/rnas/5lwj

>  <Rbt.Executable>
rbdock ($Id: //depot/dev/client3/rdock/2013.1/src/exe/rbdock.cxx#4 $)

>  <Rbt.Library>
libRbt.so (2013.1, Build901 2013/11/27)

>  <Rbt.Parameter_File>
/export/apps/rDock/src/rDock_2013.1_src/data/scripts/dock_solv.prm

>  <Rbt.Receptor>
prm/blind_docking_20.prm

>  <SCORE>
-22.994

>  <SCORE.INTER>
-26.4779

>  <SCORE.INTER.CONST>
1

>  <SCORE.INTER.POLAR>
-2.94652

>  <SCORE.INTER.ROT>
8

>  <SCORE.INTER.SOLV>
25.9106

>  <SCORE.INTER.VDW>
-25.4004

>  <SCORE.INTER.norm>
-0.827433

>  <SCORE.INTRA>
1.61951

>  <SCORE.INTRA.DIHEDRAL>
1.1203

>  <SCORE.INTRA.DIHEDRAL.0>
10.9248

>  <SCORE.INTRA.POLAR>
0

>  <SCORE.INTRA.POLAR.0>
0

>  <SCORE.INTRA.REPUL>
0

>  <SCORE.INTRA.REPUL.0>
0

>  <SCORE.INTRA.SOLV>
0.643121

>  <SCORE.INTRA.SOLV.lig_0>
-51.4104

>  <SCORE.INTRA.VDW>
0.737799

>  <SCORE.INTRA.VDW.0>
0.110327

>  <SCORE.INTRA.norm>
0.0506096

>  <SCORE.RESTR>
1.86432

>  <SCORE.RESTR.CAVITY>
1.86432

>  <SCORE.RESTR.norm>
0.0582599

>  <SCORE.SYSTEM>
0

>  <SCORE.SYSTEM.CONST>
0

>  <SCORE.SYSTEM.DIHEDRAL>
0

>  <SCORE.SYSTEM.SOLV>
0

>  <SCORE.SYSTEM.norm>
0

>  <SCORE.heavy>
32

>  <SCORE.norm>
-0.718564

>  <RMSD>
15.040

$$$$
lig.pdb
 OpenBabel11021811523D
libRbt.so/2013.1/901 2013/11/27
 32 34  0  0  0  0  0  0  0  0999 V2000
    2.1547   -1.2129   -0.0473 P   0  0  0  0  0  0  0  0  0  0  0  0
    3.5323   -1.5913    0.4394 O   0  0  0  0  0  0  0  0  0  0  0  0
    2.3801   -0.9620   -1.6344 O   0  0  0  0  0  0  0  0  0  0  0  0
    1.0679   -2.2583   -0.0140 O   0  0  0  0  0  0  0  0  0  0  0  0
    1.7048   -0.1377    0.8154 O   0  0  0  0  0  0  0  0  0  0  0  0
    0.4921    0.4865    0.2363 P   0  0  1  0  0  0  0  0  0  0  0  0
    0.7786    0.8278   -1.1770 O   0  0  0  0  0  0  0  0  0  0  0  0
   -0.6411   -0.4666    0.2829 O   0  0  0  0  0  0  0  0  0  0  0  0
    0.1516    1.7101    1.0046 O   0  0  0  0  0  0  0  0  0  0  0  0
    1.0068    2.9207    0.9964 P   0  0  1  0  0  0  0  0  0  0  0  0
    2.0240    2.9685    2.0664 O   0  0  0  0  0  0  0  0  0  0  0  0
    1.4882    3.3404   -0.3386 O   0  0  0  0  0  0  0  0  0  0  0  0
   -0.0214    4.0871    1.4450 O   0  0  0  0  0  0  0  0  0  0  0  0
    0.2948    5.4617    1.3304 C   0  0  0  0  0  0  0  0  0  0  0  0
   -0.9128    6.3119    0.9117 C   0  0  1  0  0  0  0  0  0  0  0  0
   -0.6554    6.9570   -0.3186 O   0  0  0  0  0  0  0  0  0  0  0  0
   -2.1635    5.4850    0.5657 C   0  0  1  0  0  0  0  0  0  0  0  0
   -2.8897    4.9845    1.6758 O   0  0  0  0  0  0  0  0  0  0  0  0
   -2.9883    6.4380   -0.2989 C   0  0  1  0  0  0  0  0  0  0  0  0
   -3.8984    7.2051    0.4695 O   0  0  0  0  0  0  0  0  0  0  0  0
   -1.9050    7.3660   -0.8455 C   0  0  2  0  0  0  0  0  0  0  0  0
   -1.8547    7.4834   -2.3185 N   0  0  0  0  0  0  0  0  0  0  0  0
   -0.7830    7.5872   -3.1688 C   0  0  0  0  0  0  0  0  0  0  0  0
   -1.1123    7.7751   -4.4207 N   0  0  0  0  0  0  0  0  0  0  0  0
   -2.5039    7.7720   -4.4097 C   0  0  0  0  0  0  0  0  0  0  0  0
   -3.4479    7.9718   -5.4675 C   0  0  0  0  0  0  0  0  0  0  0  0
   -3.2130    8.2359   -6.6449 O   0  0  0  0  0  0  0  0  0  0  0  0
   -4.7767    7.8549   -5.0380 N   0  0  0  0  0  0  0  0  0  0  0  0
   -5.1411    7.5431   -3.7369 C   0  0  0  0  0  0  0  0  0  0  0  0
   -6.4395    7.3548   -3.4754 N   0  0  0  0  0  0  0  0  0  0  0  0
   -4.2538    7.4043   -2.7382 N   0  0  0  0  0  0  0  0  0  0  0  0
   -2.9582    7.5360   -3.1338 C   0  0  0  0  0  0  0  0  0  0  0  0
  1  2  2  0  0  0  0
  1  4  1  0  0  0  0
  1  3  1  0  0  0  0
  5  1  1  0  0  0  0
  6  7  2  6  0  0  0
  6  9  1  0  0  0  0
  6  5  1  0  0  0  0
  6  8  1  0  0  0  0
 10 11  2  1  0  0  0
 10 12  1  0  0  0  0
 10 13  1  0  0  0  0
 10  9  1  0  0  0  0
 13 14  1  0  0  0  0
 15 14  1  6  0  0  0
 15 16  1  0  0  0  0
 17 19  1  0  0  0  0
 17 15  1  0  0  0  0
 17 18  1  1  0  0  0
 19 21  1  0  0  0  0
 19 20  1  1  0  0  0
 21 16  1  0  0  0  0
 21 22  1  6  0  0  0
 22 32  1  0  0  0  0
 23 22  1  0  0  0  0
 23 24  2  0  0  0  0
 24 25  1  0  0  0  0
 25 26  1  0  0  0  0
 26 27  2  0  0  0  0
 26 28  1  0  0  0  0
 29 28  1  0  0  0  0
 29 30  1  0  0  0  0
 31 29  2  0  0  0  0
 32 25  2  0  0  0  0
 32 31  1  0  0  0  0
M  END
>  <CHROM.1>
168.07019888,67.43928670,-51.26049714,-167.64958284,-91.33627120,142.38879289
-119.12364387,66.54639610,-177.69701715,-18.06944678,-0.81277468,3.99120820
-0.91707570,-0.07391811,1.03415018,-1.92592170

>  <Name>
lig.pdb

>  <RI>
1.2169e+07

>  <Rbt.Current_Directory>
/home/itssahil/PROJECTS/Mol_Feturizer/New_Systems/rnas/5lwj

>  <Rbt.Executable>
rbdock ($Id: //depot/dev/client3/rdock/2013.1/src/exe/rbdock.cxx#4 $)

>  <Rbt.Library>
libRbt.so (2013.1, Build901 2013/11/27)

>  <Rbt.Parameter_File>
/export/apps/rDock/src/rDock_2013.1_src/data/scripts/dock_solv.prm

>  <Rbt.Receptor>
prm/blind_docking_40.prm

>  <SCORE>
-36.9744

>  <SCORE.INTER>
-37.5254

>  <SCORE.INTER.CONST>
1

>  <SCORE.INTER.POLAR>
-3.15763

>  <SCORE.INTER.ROT>
8

>  <SCORE.INTER.SOLV>
21.8707

>  <SCORE.INTER.VDW>
-30.715

>  <SCORE.INTER.norm>
-1.17267

>  <SCORE.INTRA>
0.53517

>  <SCORE.INTRA.DIHEDRAL>
3.55491

>  <SCORE.INTRA.DIHEDRAL.0>
10.9248

>  <SCORE.INTRA.POLAR>
-0.0396751

>  <SCORE.INTRA.POLAR.0>
0

>  <SCORE.INTRA.REPUL>
0

>  <SCORE.INTRA.REPUL.0>
0

>  <SCORE.INTRA.SOLV>
-0.241162

>  <SCORE.INTRA.SOLV.lig_0>
-51.4104

>  <SCORE.INTRA.VDW>
-0.986806

>  <SCORE.INTRA.VDW.0>
0.110327

>  <SCORE.INTRA.norm>
0.0167241

>  <SCORE.RESTR>
0.0158147

>  <SCORE.RESTR.CAVITY>
0.0158147

>  <SCORE.RESTR.norm>
0.00049421

>  <SCORE.SYSTEM>
0

>  <SCORE.SYSTEM.CONST>
0

>  <SCORE.SYSTEM.DIHEDRAL>
0

>  <SCORE.SYSTEM.SOLV>
0

>  <SCORE.SYSTEM.norm>
0

>  <SCORE.heavy>
32

>  <SCORE.norm>
-1.15545

>  <RMSD>
15.050

$$$$
lig.pdb
 OpenBabel11021811523D
libRbt.so/2013.1/901 2013/11/27
 32 34  0  0  0  0  0  0  0  0999 V2000
    1.6302   -2.1419   -0.8490 P   0  0  0  0  0  0  0  0  0  0  0  0
    2.7447   -2.5197    0.0961 O   0  0  0  0  0  0  0  0  0  0  0  0
    2.3280   -2.2614   -2.3089 O   0  0  0  0  0  0  0  0  0  0  0  0
    0.4388   -3.0603   -0.9596 O   0  0  0  0  0  0  0  0  0  0  0  0
    1.1158   -0.8712   -0.3763 O   0  0  0  0  0  0  0  0  0  0  0  0
    2.1555    0.1726   -0.5340 P   0  0  1  0  0  0  0  0  0  0  0  0
    3.2499   -0.1177    0.4221 O   0  0  0  0  0  0  0  0  0  0  0  0
    2.6981    0.1448   -1.9122 O   0  0  0  0  0  0  0  0  0  0  0  0
    1.5641    1.5050   -0.2534 O   0  0  0  0  0  0  0  0  0  0  0  0
    2.3750    2.7450   -0.2130 P   0  0  1  0  0  0  0  0  0  0  0  0
    3.1640    2.9300    1.0219 O   0  0  0  0  0  0  0  0  0  0  0  0
    3.0958    3.0649   -1.4654 O   0  0  0  0  0  0  0  0  0  0  0  0
    1.2514    3.9021   -0.0816 O   0  0  0  0  0  0  0  0  0  0  0  0
    1.1073    4.6898    1.0852 C   0  0  0  0  0  0  0  0  0  0  0  0
    0.0879    5.8240    0.9091 C   0  0  1  0  0  0  0  0  0  0  0  0
    0.3312    6.5191   -0.2967 O   0  0  0  0  0  0  0  0  0  0  0  0
   -1.3543    5.3336    0.6919 C   0  0  1  0  0  0  0  0  0  0  0  0
   -2.0311    4.8946    1.8578 O   0  0  0  0  0  0  0  0  0  0  0  0
   -2.0368    6.5287    0.0271 C   0  0  1  0  0  0  0  0  0  0  0  0
   -2.6389    7.3948    0.9728 O   0  0  0  0  0  0  0  0  0  0  0  0
   -0.8451    7.2456   -0.6048 C   0  0  2  0  0  0  0  0  0  0  0  0
   -0.9551    7.4995   -2.0572 N   0  0  0  0  0  0  0  0  0  0  0  0
    0.0055    7.5054   -3.0368 C   0  0  0  0  0  0  0  0  0  0  0  0
   -0.4351    7.8704   -4.2130 N   0  0  0  0  0  0  0  0  0  0  0  0
   -1.7924    8.1010   -4.0103 C   0  0  0  0  0  0  0  0  0  0  0  0
   -2.8071    8.5620   -4.9092 C   0  0  0  0  0  0  0  0  0  0  0  0
   -2.6743    8.8990   -6.0840 O   0  0  0  0  0  0  0  0  0  0  0  0
   -4.0725    8.6288   -4.3107 N   0  0  0  0  0  0  0  0  0  0  0  0
   -4.3252    8.2545   -2.9995 C   0  0  0  0  0  0  0  0  0  0  0  0
   -5.5943    8.2628   -2.5766 N   0  0  0  0  0  0  0  0  0  0  0  0
   -3.3621    7.8688   -2.1466 N   0  0  0  0  0  0  0  0  0  0  0  0
   -2.1223    7.8188   -2.7059 C   0  0  0  0  0  0  0  0  0  0  0  0
  1  2  2  0  0  0  0
  1  4  1  0  0  0  0
  1  3  1  0  0  0  0
  5  1  1  0  0  0  0
  6  7  2  1  0  0  0
  6  9  1  0  0  0  0
  6  5  1  0  0  0  0
  6  8  1  0  0  0  0
 10 11  2  1  0  0  0
 10 12  1  0  0  0  0
 10 13  1  0  0  0  0
 10  9  1  0  0  0  0
 13 14  1  0  0  0  0
 15 14  1  6  0  0  0
 15 16  1  0  0  0  0
 17 19  1  0  0  0  0
 17 15  1  0  0  0  0
 17 18  1  1  0  0  0
 19 21  1  0  0  0  0
 19 20  1  1  0  0  0
 21 16  1  0  0  0  0
 21 22  1  6  0  0  0
 22 32  1  0  0  0  0
 23 22  1  0  0  0  0
 23 24  2  0  0  0  0
 24 25  1  0  0  0  0
 25 26  1  0  0  0  0
 26 27  2  0  0  0  0
 26 28  1  0  0  0  0
 29 28  1  0  0  0  0
 29 30  1  0  0  0  0
 31 29  2  0  0  0  0
 32 25  2  0  0  0  0
 32 31  1  0  0  0  0
M  END
>  <CHROM.1>
66.04926703,174.63132595,-68.56582079,112.42858729,-77.30045319,173.26756234
-47.87683544,53.52843334,-162.22271915,-21.16062003,0.05695193,3.83989829
-1.16933937,0.34666374,1.04560300,-2.21092471

>  <Name>
lig.pdb

>  <RI>
2.72908e+07

>  <Rbt.Current_Directory>
/home/itssahil/PROJECTS/Mol_Feturizer/New_Systems/rnas/5lwj

>  <Rbt.Executable>
rbdock ($Id: //depot/dev/client3/rdock/2013.1/src/exe/rbdock.cxx#4 $)

>  <Rbt.Library>
libRbt.so (2013.1, Build901 2013/11/27)

>  <Rbt.Parameter_File>
/export/apps/rDock/src/rDock_2013.1_src/data/scripts/dock_solv.prm

>  <Rbt.Receptor>
prm/blind_docking_20.prm

>  <SCORE>
-24.6781

>  <SCORE.INTER>
-22.5745

>  <SCORE.INTER.CONST>
1

>  <SCORE.INTER.POLAR>
-1.36145

>  <SCORE.INTER.ROT>
8

>  <SCORE.INTER.SOLV>
19.9687

>  <SCORE.INTER.VDW>
-26.1011

>  <SCORE.INTER.norm>
-0.705455

>  <SCORE.INTRA>
-2.44954

>  <SCORE.INTRA.DIHEDRAL>
-2.96833

>  <SCORE.INTRA.DIHEDRAL.0>
10.9248

>  <SCORE.INTRA.POLAR>
0

>  <SCORE.INTRA.POLAR.0>
0

>  <SCORE.INTRA.REPUL>
0

>  <SCORE.INTRA.REPUL.0>
0

>  <SCORE.INTRA.SOLV>
-0.288387

>  <SCORE.INTRA.SOLV.lig_0>
-51.4104

>  <SCORE.INTRA.VDW>
-0.82118

>  <SCORE.INTRA.VDW.0>
0.110327

>  <SCORE.INTRA.norm>
-0.0765481

>  <SCORE.RESTR>
0.345972

>  <SCORE.RESTR.CAVITY>
0.345972

>  <SCORE.RESTR.norm>
0.0108116

>  <SCORE.SYSTEM>
0

>  <SCORE.SYSTEM.CONST>
0

>  <SCORE.SYSTEM.DIHEDRAL>
0

>  <SCORE.SYSTEM.SOLV>
0

>  <SCORE.SYSTEM.norm>
0

>  <SCORE.heavy>
32

>  <SCORE.norm>
-0.771191

>  <RMSD>
15.058

$$$$
lig.pdb
 OpenBabel11021811523D
libRbt.so/2013.1/901 2013/11/27
 32 34  0  0  0  0  0  0  0  0999 V2000
    0.3697   -1.4880    0.3241 P   0  0  0  0  0  0  0  0  0  0  0  0
   -0.2733   -2.5633   -0.5175 O   0  0  0  0  0  0  0  0  0  0  0  0
   -0.5684   -0.1933    0.0483 O   0  0  0  0  0  0  0  0  0  0  0  0
    0.3298   -1.6298    1.8253 O   0  0  0  0  0  0  0  0  0  0  0  0
    1.7729   -1.4767   -0.0414 O   0  0  0  0  0  0  0  0  0  0  0  0
    2.2699   -0.0809   -0.0518 P   0  0  1  0  0  0  0  0  0  0  0  0
    1.8116    0.5816    1.1920 O   0  0  0  0  0  0  0  0  0  0  0  0
    3.7509   -0.0695   -0.0876 O   0  0  0  0  0  0  0  0  0  0  0  0
    1.7329    0.6257   -1.2418 O   0  0  0  0  0  0  0  0  0  0  0  0
    2.4265    1.7774   -1.8658 P   0  0  1  0  0  0  0  0  0  0  0  0
    3.8515    1.9142   -1.5020 O   0  0  0  0  0  0  0  0  0  0  0  0
    2.1276    1.9885   -3.2998 O   0  0  0  0  0  0  0  0  0  0  0  0
    1.7557    3.0459   -1.1178 O   0  0  0  0  0  0  0  0  0  0  0  0
    2.0170    3.3510    0.2392 C   0  0  0  0  0  0  0  0  0  0  0  0
    1.2616    4.5980    0.7196 C   0  0  1  0  0  0  0  0  0  0  0  0
    0.9626    5.4416   -0.3737 O   0  0  0  0  0  0  0  0  0  0  0  0
   -0.1452    4.2987    1.2665 C   0  0  1  0  0  0  0  0  0  0  0  0
   -0.1877    3.7577    2.5763 O   0  0  0  0  0  0  0  0  0  0  0  0
   -0.8589    5.6461    1.1602 C   0  0  1  0  0  0  0  0  0  0  0  0
   -0.7313    6.4137    2.3441 O   0  0  0  0  0  0  0  0  0  0  0  0
   -0.0617    6.3246    0.0478 C   0  0  2  0  0  0  0  0  0  0  0  0
   -0.8591    6.8092   -1.0990 N   0  0  0  0  0  0  0  0  0  0  0  0
   -2.1842    6.6266   -1.4045 C   0  0  0  0  0  0  0  0  0  0  0  0
   -2.5370    7.1212   -2.5629 N   0  0  0  0  0  0  0  0  0  0  0  0
   -1.3699    7.6970   -3.0557 C   0  0  0  0  0  0  0  0  0  0  0  0
   -1.1055    8.3580   -4.2980 C   0  0  0  0  0  0  0  0  0  0  0  0
   -1.8778    8.5260   -5.2395 O   0  0  0  0  0  0  0  0  0  0  0  0
    0.2109    8.8295   -4.3922 N   0  0  0  0  0  0  0  0  0  0  0  0
    1.1486    8.7036   -3.3784 C   0  0  0  0  0  0  0  0  0  0  0  0
    2.3396    9.2891   -3.5471 N   0  0  0  0  0  0  0  0  0  0  0  0
    0.9104    8.0407   -2.2349 N   0  0  0  0  0  0  0  0  0  0  0  0
   -0.3580    7.5571   -2.1357 C   0  0  0  0  0  0  0  0  0  0  0  0
  1  2  2  0  0  0  0
  1  4  1  0  0  0  0
  1  3  1  0  0  0  0
  5  1  1  0  0  0  0
  6  7  2  1  0  0  0
  6  9  1  0  0  0  0
  6  5  1  0  0  0  0
  6  8  1  0  0  0  0
 10 11  2  1  0  0  0
 10 12  1  0  0  0  0
 10 13  1  0  0  0  0
 10  9  1  0  0  0  0
 13 14  1  0  0  0  0
 15 14  1  6  0  0  0
 15 16  1  0  0  0  0
 17 19  1  0  0  0  0
 17 15  1  0  0  0  0
 17 18  1  1  0  0  0
 19 21  1  0  0  0  0
 19 20  1  1  0  0  0
 21 16  1  0  0  0  0
 21 22  1  6  0  0  0
 22 32  1  0  0  0  0
 23 22  1  0  0  0  0
 23 24  2  0  0  0  0
 24 25  1  0  0  0  0
 25 26  1  0  0  0  0
 26 27  2  0  0  0  0
 26 28  1  0  0  0  0
 29 28  1  0  0  0  0
 29 30  1  0  0  0  0
 31 29  2  0  0  0  0
 32 25  2  0  0  0  0
 32 31  1  0  0  0  0
M  END
>  <CHROM.1>
142.40050116,-153.74976754,46.95760834,71.01254578,17.86088588,-179.86089335
-24.84382157,-49.77555566,33.61645296,116.22644717,0.72798125,3.50707841
-0.89604564,1.24221140,-0.94437141,2.55094049

>  <Name>
lig.pdb

>  <RI>
1.2169e+07

>  <Rbt.Current_Directory>
/home/itssahil/PROJECTS/Mol_Feturizer/New_Systems/rnas/5lwj

>  <Rbt.Executable>
rbdock ($Id: //depot/dev/client3/rdock/2013.1/src/exe/rbdock.cxx#4 $)

>  <Rbt.Library>
libRbt.so (2013.1, Build901 2013/11/27)

>  <Rbt.Parameter_File>
/export/apps/rDock/src/rDock_2013.1_src/data/scripts/dock_solv.prm

>  <Rbt.Receptor>
prm/blind_docking_40.prm

>  <SCORE>
-10.212

>  <SCORE.INTER>
-11.6012

>  <SCORE.INTER.CONST>
1

>  <SCORE.INTER.POLAR>
-2.78945

>  <SCORE.INTER.ROT>
8

>  <SCORE.INTER.SOLV>
26.6209

>  <SCORE.INTER.VDW>
-16.2429

>  <SCORE.INTER.norm>
-0.362536

>  <SCORE.INTRA>
0.333171

>  <SCORE.INTRA.DIHEDRAL>
2.67024

>  <SCORE.INTRA.DIHEDRAL.0>
10.9248

>  <SCORE.INTRA.POLAR>
0

>  <SCORE.INTRA.POLAR.0>
0

>  <SCORE.INTRA.REPUL>
0

>  <SCORE.INTRA.REPUL.0>
0

>  <SCORE.INTRA.SOLV>
0.399571

>  <SCORE.INTRA.SOLV.lig_0>
-51.4104

>  <SCORE.INTRA.VDW>
-1.20174

>  <SCORE.INTRA.VDW.0>
0.110327

>  <SCORE.INTRA.norm>
0.0104116

>  <SCORE.RESTR>
1.056

>  <SCORE.RESTR.CAVITY>
1.056

>  <SCORE.RESTR.norm>
0.0329999

>  <SCORE.SYSTEM>
0

>  <SCORE.SYSTEM.CONST>
0

>  <SCORE.SYSTEM.DIHEDRAL>
0

>  <SCORE.SYSTEM.SOLV>
0

>  <SCORE.SYSTEM.norm>
0

>  <SCORE.heavy>
32

>  <SCORE.norm>
-0.319125

>  <RMSD>
15.064

$$$$
lig.pdb
 OpenBabel11021811523D
libRbt.so/2013.1/901 2013/11/27
 32 34  0  0  0  0  0  0  0  0999 V2000
   -0.2496   -2.0159    0.4378 P   0  0  0  0  0  0  0  0  0  0  0  0
   -1.3306   -2.9296   -0.0863 O   0  0  0  0  0  0  0  0  0  0  0  0
   -1.0877   -0.7927    1.0965 O   0  0  0  0  0  0  0  0  0  0  0  0
    0.6100   -2.4996    1.5790 O   0  0  0  0  0  0  0  0  0  0  0  0
    0.6522   -1.7815   -0.6734 O   0  0  0  0  0  0  0  0  0  0  0  0
    1.7176   -0.8403   -0.2555 P   0  0  1  0  0  0  0  0  0  0  0  0
    2.7590   -1.6115    0.4632 O   0  0  0  0  0  0  0  0  0  0  0  0
    2.3253   -0.2005   -1.4455 O   0  0  0  0  0  0  0  0  0  0  0  0
    1.1383    0.1983    0.6329 O   0  0  0  0  0  0  0  0  0  0  0  0
    0.6893    1.5183    0.1297 P   0  0  1  0  0  0  0  0  0  0  0  0
    1.2863    1.9264   -1.1582 O   0  0  0  0  0  0  0  0  0  0  0  0
   -0.7628    1.7759    0.2517 O   0  0  0  0  0  0  0  0  0  0  0  0
    1.3759    2.5495    1.1708 O   0  0  0  0  0  0  0  0  0  0  0  0
    0.7176    3.7157    1.6281 C   0  0  0  0  0  0  0  0  0  0  0  0
    1.0269    4.9454    0.7630 C   0  0  1  0  0  0  0  0  0  0  0  0
    0.0528    5.0897   -0.2503 O   0  0  0  0  0  0  0  0  0  0  0  0
    0.8866    6.2821    1.5122 C   0  0  1  0  0  0  0  0  0  0  0  0
    1.9598    6.6109    2.3785 O   0  0  0  0  0  0  0  0  0  0  0  0
    0.7028    7.2997    0.3866 C   0  0  1  0  0  0  0  0  0  0  0  0
    1.9356    7.8488   -0.0445 O   0  0  0  0  0  0  0  0  0  0  0  0
    0.1415    6.4199   -0.7289 C   0  0  2  0  0  0  0  0  0  0  0  0
   -1.1431    6.8702   -1.3060 N   0  0  0  0  0  0  0  0  0  0  0  0
   -1.4152    7.4993   -2.4945 C   0  0  0  0  0  0  0  0  0  0  0  0
   -2.6686    7.8433   -2.6407 N   0  0  0  0  0  0  0  0  0  0  0  0
   -3.2830    7.3895   -1.4773 C   0  0  0  0  0  0  0  0  0  0  0  0
   -4.6382    7.5034   -1.0299 C   0  0  0  0  0  0  0  0  0  0  0  0
   -5.5680    8.0828   -1.5876 O   0  0  0  0  0  0  0  0  0  0  0  0
   -4.8576    6.8727    0.2022 N   0  0  0  0  0  0  0  0  0  0  0  0
   -3.8783    6.1802    0.8982 C   0  0  0  0  0  0  0  0  0  0  0  0
   -4.2380    5.5307    2.0111 N   0  0  0  0  0  0  0  0  0  0  0  0
   -2.5977    6.1174    0.4984 N   0  0  0  0  0  0  0  0  0  0  0  0
   -2.3621    6.7436   -0.6869 C   0  0  0  0  0  0  0  0  0  0  0  0
  1  2  2  0  0  0  0
  1  4  1  0  0  0  0
  1  3  1  0  0  0  0
  5  1  1  0  0  0  0
  6  7  2  1  0  0  0
  6  9  1  0  0  0  0
  6  5  1  0  0  0  0
  6  8  1  0  0  0  0
 10 11  2  6  0  0  0
 10 12  1  0  0  0  0
 10 13  1  0  0  0  0
 10  9  1  0  0  0  0
 13 14  1  0  0  0  0
 15 14  1  1  0  0  0
 15 16  1  0  0  0  0
 17 19  1  0  0  0  0
 17 15  1  0  0  0  0
 17 18  1  6  0  0  0
 19 21  1  0  0  0  0
 19 20  1  6  0  0  0
 21 16  1  0  0  0  0
 21 22  1  1  0  0  0
 22 32  1  0  0  0  0
 23 22  1  0  0  0  0
 23 24  2  0  0  0  0
 24 25  1  0  0  0  0
 25 26  1  0  0  0  0
 26 27  2  0  0  0  0
 26 28  1  0  0  0  0
 29 28  1  0  0  0  0
 29 30  1  0  0  0  0
 31 29  2  0  0  0  0
 32 25  2  0  0  0  0
 32 31  1  0  0  0  0
M  END
>  <CHROM.1>
177.57104691,-95.27937909,82.12463248,-141.76367261,-21.45647343,-92.02071350
92.63144942,50.16065991,-22.35065884,-132.09984386,-0.41726432,3.18397764
0.04929289,1.20751182,0.12747154,3.10835240

>  <Name>
lig.pdb

>  <RI>
3.17878e+07

>  <Rbt.Current_Directory>
/home/itssahil/PROJECTS/Mol_Feturizer/New_Systems/rnas/5lwj

>  <Rbt.Executable>
rbdock ($Id: //depot/dev/client3/rdock/2013.1/src/exe/rbdock.cxx#4 $)

>  <Rbt.Library>
libRbt.so (2013.1, Build901 2013/11/27)

>  <Rbt.Parameter_File>
/export/apps/rDock/src/rDock_2013.1_src/data/scripts/dock_solv.prm

>  <Rbt.Receptor>
prm/blind_docking_100.prm

>  <SCORE>
-0.744105

>  <SCORE.INTER>
-10.5124

>  <SCORE.INTER.CONST>
1

>  <SCORE.INTER.POLAR>
-4.51103

>  <SCORE.INTER.ROT>
8

>  <SCORE.INTER.SOLV>
29.1616

>  <SCORE.INTER.VDW>
-10.6254

>  <SCORE.INTER.norm>
-0.328514

>  <SCORE.INTRA>
6.93582

>  <SCORE.INTRA.DIHEDRAL>
9.92494

>  <SCORE.INTRA.DIHEDRAL.0>
10.9248

>  <SCORE.INTRA.POLAR>
0

>  <SCORE.INTRA.POLAR.0>
0

>  <SCORE.INTRA.REPUL>
0

>  <SCORE.INTRA.REPUL.0>
0

>  <SCORE.INTRA.SOLV>
1.18089

>  <SCORE.INTRA.SOLV.lig_0>
-51.4104

>  <SCORE.INTRA.VDW>
1.3829

>  <SCORE.INTRA.VDW.0>
0.110327

>  <SCORE.INTRA.norm>
0.216744

>  <SCORE.RESTR>
2.83252

>  <SCORE.RESTR.CAVITY>
2.83252

>  <SCORE.RESTR.norm>
0.0885162

>  <SCORE.SYSTEM>
0

>  <SCORE.SYSTEM.CONST>
0

>  <SCORE.SYSTEM.DIHEDRAL>
0

>  <SCORE.SYSTEM.SOLV>
0

>  <SCORE.SYSTEM.norm>
0

>  <SCORE.heavy>
32

>  <SCORE.norm>
-0.0232533

>  <RMSD>
15.070

$$$$
lig.pdb
 OpenBabel11021811523D
libRbt.so/2013.1/901 2013/11/27
 32 34  0  0  0  0  0  0  0  0999 V2000
   -1.0575    8.6784   -2.1506 P   0  0  0  0  0  0  0  0  0  0  0  0
   -2.2686    9.5675   -2.2945 O   0  0  0  0  0  0  0  0  0  0  0  0
   -0.8674    8.0695   -3.6424 O   0  0  0  0  0  0  0  0  0  0  0  0
    0.2772    9.3217   -1.8676 O   0  0  0  0  0  0  0  0  0  0  0  0
   -1.3304    7.8066   -1.0245 O   0  0  0  0  0  0  0  0  0  0  0  0
   -0.1945    6.8742   -0.8343 P   0  0  1  0  0  0  0  0  0  0  0  0
    0.4297    6.6314   -2.1562 O   0  0  0  0  0  0  0  0  0  0  0  0
    0.8110    7.4770    0.0714 O   0  0  0  0  0  0  0  0  0  0  0  0
   -0.6924    5.6008   -0.2562 O   0  0  0  0  0  0  0  0  0  0  0  0
   -0.3085    5.1356    1.0977 P   0  0  1  0  0  0  0  0  0  0  0  0
    0.9244    5.7453    1.6362 O   0  0  0  0  0  0  0  0  0  0  0  0
   -1.4236    5.0294    2.0648 O   0  0  0  0  0  0  0  0  0  0  0  0
    0.1496    3.6063    0.8330 O   0  0  0  0  0  0  0  0  0  0  0  0
    1.3561    3.2804    0.1690 C   0  0  0  0  0  0  0  0  0  0  0  0
    1.9690    1.9655    0.6708 C   0  0  1  0  0  0  0  0  0  0  0  0
    1.8040    0.9476   -0.2952 O   0  0  0  0  0  0  0  0  0  0  0  0
    3.5009    2.0082    0.8091 C   0  0  1  0  0  0  0  0  0  0  0  0
    3.9909    2.6840    1.9551 O   0  0  0  0  0  0  0  0  0  0  0  0
    3.8991    0.5328    0.7777 C   0  0  1  0  0  0  0  0  0  0  0  0
    3.9532   -0.0341    2.0749 O   0  0  0  0  0  0  0  0  0  0  0  0
    2.7226   -0.0828    0.0226 C   0  0  2  0  0  0  0  0  0  0  0  0
    3.0810   -0.8716   -1.1755 N   0  0  0  0  0  0  0  0  0  0  0  0
    2.6537   -2.1076   -1.5902 C   0  0  0  0  0  0  0  0  0  0  0  0
    3.2599   -2.5491   -2.6618 N   0  0  0  0  0  0  0  0  0  0  0  0
    4.1376   -1.5241   -3.0019 C   0  0  0  0  0  0  0  0  0  0  0  0
    5.1026   -1.4301   -4.0555 C   0  0  0  0  0  0  0  0  0  0  0  0
    5.3926   -2.2869   -4.8880 O   0  0  0  0  0  0  0  0  0  0  0  0
    5.7697   -0.1978   -4.0719 N   0  0  0  0  0  0  0  0  0  0  0  0
    5.5008    0.8355   -3.1871 C   0  0  0  0  0  0  0  0  0  0  0  0
    6.1299    2.0016   -3.3721 N   0  0  0  0  0  0  0  0  0  0  0  0
    4.6295    0.7251   -2.1710 N   0  0  0  0  0  0  0  0  0  0  0  0
    3.9875   -0.4742   -2.1271 C   0  0  0  0  0  0  0  0  0  0  0  0
  1  2  2  0  0  0  0
  1  4  1  0  0  0  0
  1  3  1  0  0  0  0
  5  1  1  0  0  0  0
  6  7  2  6  0  0  0
  6  9  1  0  0  0  0
  6  5  1  0  0  0  0
  6  8  1  0  0  0  0
 10 11  2  1  0  0  0
 10 12  1  0  0  0  0
 10 13  1  0  0  0  0
 10  9  1  0  0  0  0
 13 14  1  0  0  0  0
 15 14  1  6  0  0  0
 15 16  1  0  0  0  0
 17 19  1  0  0  0  0
 17 15  1  0  0  0  0
 17 18  1  1  0  0  0
 19 21  1  0  0  0  0
 19 20  1  1  0  0  0
 21 16  1  0  0  0  0
 21 22  1  6  0  0  0
 22 32  1  0  0  0  0
 23 22  1  0  0  0  0
 23 24  2  0  0  0  0
 24 25  1  0  0  0  0
 25 26  1  0  0  0  0
 26 27  2  0  0  0  0
 26 28  1  0  0  0  0
 29 28  1  0  0  0  0
 29 30  1  0  0  0  0
 31 29  2  0  0  0  0
 32 25  2  0  0  0  0
 32 31  1  0  0  0  0
M  END
>  <CHROM.1>
178.69755657,-114.87111670,-29.78168979,72.06885310,-20.22927212,148.29231085
107.04212693,-47.34323746,-175.25325123,-102.17756629,1.75970126,3.47373409
-0.99477719,-2.81985117,-0.99434367,2.07812644

>  <Name>
lig.pdb

>  <RI>
3.17878e+07

>  <Rbt.Current_Directory>
/home/itssahil/PROJECTS/Mol_Feturizer/New_Systems/rnas/5lwj

>  <Rbt.Executable>
rbdock ($Id: //depot/dev/client3/rdock/2013.1/src/exe/rbdock.cxx#4 $)

>  <Rbt.Library>
libRbt.so (2013.1, Build901 2013/11/27)

>  <Rbt.Parameter_File>
/export/apps/rDock/src/rDock_2013.1_src/data/scripts/dock_solv.prm

>  <Rbt.Receptor>
prm/blind_docking_100.prm

>  <SCORE>
16.5123

>  <SCORE.INTER>
9.39205

>  <SCORE.INTER.CONST>
1

>  <SCORE.INTER.POLAR>
-1.68938

>  <SCORE.INTER.ROT>
8

>  <SCORE.INTER.SOLV>
29.1566

>  <SCORE.INTER.VDW>
-6.75955

>  <SCORE.INTER.norm>
0.293502

>  <SCORE.INTRA>
5.7738

>  <SCORE.INTRA.DIHEDRAL>
7.00313

>  <SCORE.INTRA.DIHEDRAL.0>
10.9248

>  <SCORE.INTRA.POLAR>
0

>  <SCORE.INTRA.POLAR.0>
0

>  <SCORE.INTRA.REPUL>
0

>  <SCORE.INTRA.REPUL.0>
0

>  <SCORE.INTRA.SOLV>
-0.742803

>  <SCORE.INTRA.SOLV.lig_0>
-51.4104

>  <SCORE.INTRA.VDW>
2.64363

>  <SCORE.INTRA.VDW.0>
0.110327

>  <SCORE.INTRA.norm>
0.180431

>  <SCORE.RESTR>
1.34649

>  <SCORE.RESTR.CAVITY>
1.34649

>  <SCORE.RESTR.norm>
0.0420779

>  <SCORE.SYSTEM>
0

>  <SCORE.SYSTEM.CONST>
0

>  <SCORE.SYSTEM.DIHEDRAL>
0

>  <SCORE.SYSTEM.SOLV>
0

>  <SCORE.SYSTEM.norm>
0

>  <SCORE.heavy>
32

>  <SCORE.norm>
0.516011

>  <RMSD>
15.077

$$$$
lig.pdb
 OpenBabel11021811523D
libRbt.so/2013.1/901 2013/11/27
 32 34  0  0  0  0  0  0  0  0999 V2000
    0.2054   -2.1222   -0.0883 P   0  0  0  0  0  0  0  0  0  0  0  0
    0.4212   -3.0721   -1.2412 O   0  0  0  0  0  0  0  0  0  0  0  0
   -1.4056   -1.9308   -0.0647 O   0  0  0  0  0  0  0  0  0  0  0  0
    0.5165   -2.6027    1.3072 O   0  0  0  0  0  0  0  0  0  0  0  0
    1.0816   -0.9922   -0.3290 O   0  0  0  0  0  0  0  0  0  0  0  0
    0.6686    0.1448    0.5266 P   0  0  1  0  0  0  0  0  0  0  0  0
   -0.6984    0.5522    0.1250 O   0  0  0  0  0  0  0  0  0  0  0  0
    0.6509   -0.2701    1.9487 O   0  0  0  0  0  0  0  0  0  0  0  0
    1.6182    1.2710    0.3434 O   0  0  0  0  0  0  0  0  0  0  0  0
    1.7909    2.3411    1.3544 P   0  0  1  0  0  0  0  0  0  0  0  0
    1.6636    1.8954    2.7569 O   0  0  0  0  0  0  0  0  0  0  0  0
    2.9113    3.2731    1.0972 O   0  0  0  0  0  0  0  0  0  0  0  0
    0.4592    3.2387    1.1551 O   0  0  0  0  0  0  0  0  0  0  0  0
    0.4498    4.6382    1.3649 C   0  0  0  0  0  0  0  0  0  0  0  0
   -0.3836    5.3865    0.3153 C   0  0  1  0  0  0  0  0  0  0  0  0
   -1.7615    5.1590    0.5301 O   0  0  0  0  0  0  0  0  0  0  0  0
   -0.3055    6.9184    0.4383 C   0  0  1  0  0  0  0  0  0  0  0  0
    0.8792    7.5109   -0.0673 O   0  0  0  0  0  0  0  0  0  0  0  0
   -1.5619    7.3952   -0.2899 C   0  0  1  0  0  0  0  0  0  0  0  0
   -1.3207    7.6485   -1.6627 O   0  0  0  0  0  0  0  0  0  0  0  0
   -2.4658    6.1697   -0.1692 C   0  0  2  0  0  0  0  0  0  0  0  0
   -3.7921    6.4171    0.4356 N   0  0  0  0  0  0  0  0  0  0  0  0
   -4.2504    6.1815    1.7071 C   0  0  0  0  0  0  0  0  0  0  0  0
   -5.5232    6.4349    1.8703 N   0  0  0  0  0  0  0  0  0  0  0  0
   -5.9397    6.8962    0.6251 C   0  0  0  0  0  0  0  0  0  0  0  0
   -7.2343    7.2937    0.1602 C   0  0  0  0  0  0  0  0  0  0  0  0
   -8.2953    7.2721    0.7807 O   0  0  0  0  0  0  0  0  0  0  0  0
   -7.2217    7.7322   -1.1707 N   0  0  0  0  0  0  0  0  0  0  0  0
   -6.0742    7.8090   -1.9456 C   0  0  0  0  0  0  0  0  0  0  0  0
   -6.1751    8.3447   -3.1673 N   0  0  0  0  0  0  0  0  0  0  0  0
   -4.8710    7.3897   -1.5210 N   0  0  0  0  0  0  0  0  0  0  0  0
   -4.8692    6.9402   -0.2363 C   0  0  0  0  0  0  0  0  0  0  0  0
  1  2  2  0  0  0  0
  1  4  1  0  0  0  0
  1  3  1  0  0  0  0
  5  1  1  0  0  0  0
  6  7  2  6  0  0  0
  6  9  1  0  0  0  0
  6  5  1  0  0  0  0
  6  8  1  0  0  0  0
 10 11  2  1  0  0  0
 10 12  1  0  0  0  0
 10 13  1  0  0  0  0
 10  9  1  0  0  0  0
 13 14  1  0  0  0  0
 15 14  1  1  0  0  0
 15 16  1  0  0  0  0
 17 19  1  0  0  0  0
 17 15  1  0  0  0  0
 17 18  1  6  0  0  0
 19 21  1  0  0  0  0
 19 20  1  6  0  0  0
 21 16  1  0  0  0  0
 21 22  1  1  0  0  0
 22 32  1  0  0  0  0
 23 22  1  0  0  0  0
 23 24  2  0  0  0  0
 24 25  1  0  0  0  0
 25 26  1  0  0  0  0
 26 27  2  0  0  0  0
 26 28  1  0  0  0  0
 29 28  1  0  0  0  0
 29 30  1  0  0  0  0
 31 29  2  0  0  0  0
 32 25  2  0  0  0  0
 32 31  1  0  0  0  0
M  END
>  <CHROM.1>
164.17152698,-157.88795174,-63.32235059,-147.70084612,34.95331610,139.81318969
72.27613596,-53.43502922,55.94735506,23.29928179,-1.49550380,3.56824370,0.25127787
0.91153586,0.18638182,-3.12851763

>  <Name>
lig.pdb

>  <RI>
1.17715e+07

>  <Rbt.Current_Directory>
/home/itssahil/PROJECTS/Mol_Feturizer/New_Systems/rnas/5lwj

>  <Rbt.Executable>
rbdock ($Id: //depot/dev/client3/rdock/2013.1/src/exe/rbdock.cxx#4 $)

>  <Rbt.Library>
libRbt.so (2013.1, Build901 2013/11/27)

>  <Rbt.Parameter_File>
/export/apps/rDock/src/rDock_2013.1_src/data/scripts/dock_solv.prm

>  <Rbt.Receptor>
prm/blind_docking_60.prm

>  <SCORE>
-39.3978

>  <SCORE.INTER>
-38.5077

>  <SCORE.INTER.CONST>
1

>  <SCORE.INTER.POLAR>
-3.66994

>  <SCORE.INTER.ROT>
8

>  <SCORE.INTER.SOLV>
23.6775

>  <SCORE.INTER.VDW>
-30.2644

>  <SCORE.INTER.norm>
-1.20336

>  <SCORE.INTRA>
-1.15893

>  <SCORE.INTRA.DIHEDRAL>
0.862859

>  <SCORE.INTRA.DIHEDRAL.0>
10.9248

>  <SCORE.INTRA.POLAR>
0

>  <SCORE.INTRA.POLAR.0>
0

>  <SCORE.INTRA.REPUL>
0

>  <SCORE.INTRA.REPUL.0>
0

>  <SCORE.INTRA.SOLV>
-1.31217

>  <SCORE.INTRA.SOLV.lig_0>
-51.4104

>  <SCORE.INTRA.VDW>
-0.934273

>  <SCORE.INTRA.VDW.0>
0.110327

>  <SCORE.INTRA.norm>
-0.0362165

>  <SCORE.RESTR>
0.268743

>  <SCORE.RESTR.CAVITY>
0.268743

>  <SCORE.RESTR.norm>
0.00839821

>  <SCORE.SYSTEM>
0

>  <SCORE.SYSTEM.CONST>
0

>  <SCORE.SYSTEM.DIHEDRAL>
0

>  <SCORE.SYSTEM.SOLV>
0

>  <SCORE.SYSTEM.norm>
0

>  <SCORE.heavy>
32

>  <SCORE.norm>
-1.23118

>  <RMSD>
15.079

$$$$
lig.pdb
 OpenBabel11021811523D
libRbt.so/2013.1/901 2013/11/27
 32 34  0  0  0  0  0  0  0  0999 V2000
    1.2115   -1.7348   -0.2486 P   0  0  0  0  0  0  0  0  0  0  0  0
    2.4568   -2.1579    0.4917 O   0  0  0  0  0  0  0  0  0  0  0  0
    1.6704   -1.7895   -1.8039 O   0  0  0  0  0  0  0  0  0  0  0  0
    0.0088   -2.6443   -0.2113 O   0  0  0  0  0  0  0  0  0  0  0  0
    0.7898   -0.4857    0.3551 O   0  0  0  0  0  0  0  0  0  0  0  0
    1.8190    0.5525    0.1137 P   0  0  1  0  0  0  0  0  0  0  0  0
    3.0037    0.2297    0.9434 O   0  0  0  0  0  0  0  0  0  0  0  0
    2.2147    0.5530   -1.3139 O   0  0  0  0  0  0  0  0  0  0  0  0
    1.2751    1.8829    0.4851 O   0  0  0  0  0  0  0  0  0  0  0  0
    2.0484    3.1361    0.3165 P   0  0  1  0  0  0  0  0  0  0  0  0
    2.7955    3.5695    1.5147 O   0  0  0  0  0  0  0  0  0  0  0  0
    2.7956    3.2463   -0.9562 O   0  0  0  0  0  0  0  0  0  0  0  0
    0.8885    4.2593    0.2077 O   0  0  0  0  0  0  0  0  0  0  0  0
    0.2017    4.7522    1.3426 C   0  0  0  0  0  0  0  0  0  0  0  0
   -0.8256    5.8355    0.9860 C   0  0  1  0  0  0  0  0  0  0  0  0
   -0.4561    6.4863   -0.2124 O   0  0  0  0  0  0  0  0  0  0  0  0
   -2.2111    5.2784    0.6147 C   0  0  1  0  0  0  0  0  0  0  0  0
   -3.0143    4.8640    1.7072 O   0  0  0  0  0  0  0  0  0  0  0  0
   -2.8449    6.4147   -0.1872 C   0  0  1  0  0  0  0  0  0  0  0  0
   -3.5912    7.2965    0.6330 O   0  0  0  0  0  0  0  0  0  0  0  0
   -1.6083    7.1507   -0.6997 C   0  0  2  0  0  0  0  0  0  0  0  0
   -1.5426    7.3359   -2.1651 N   0  0  0  0  0  0  0  0  0  0  0  0
   -0.4704    7.5784   -2.9861 C   0  0  0  0  0  0  0  0  0  0  0  0
   -0.7933    7.7879   -4.2362 N   0  0  0  0  0  0  0  0  0  0  0  0
   -2.1780    7.6514   -4.2566 C   0  0  0  0  0  0  0  0  0  0  0  0
   -3.1173    7.8056   -5.3261 C   0  0  0  0  0  0  0  0  0  0  0  0
   -2.8875    8.1416   -6.4861 O   0  0  0  0  0  0  0  0  0  0  0  0
   -4.4364    7.5439   -4.9317 N   0  0  0  0  0  0  0  0  0  0  0  0
   -4.7928    7.1427   -3.6530 C   0  0  0  0  0  0  0  0  0  0  0  0
   -6.0716    6.8201   -3.4287 N   0  0  0  0  0  0  0  0  0  0  0  0
   -3.9148    7.0463   -2.6413 N   0  0  0  0  0  0  0  0  0  0  0  0
   -2.6308    7.3181   -3.0021 C   0  0  0  0  0  0  0  0  0  0  0  0
  1  2  2  0  0  0  0
  1  4  1  0  0  0  0
  1  3  1  0  0  0  0
  5  1  1  0  0  0  0
  6  7  2  1  0  0  0
  6  9  1  0  0  0  0
  6  5  1  0  0  0  0
  6  8  1  0  0  0  0
 10 11  2  1  0  0  0
 10 12  1  0  0  0  0
 10 13  1  0  0  0  0
 10  9  1  0  0  0  0
 13 14  1  0  0  0  0
 15 14  1  6  0  0  0
 15 16  1  0  0  0  0
 17 19  1  0  0  0  0
 17 15  1  0  0  0  0
 17 18  1  1  0  0  0
 19 21  1  0  0  0  0
 19 20  1  1  0  0  0
 21 16  1  0  0  0  0
 21 22  1  6  0  0  0
 22 32  1  0  0  0  0
 23 22  1  0  0  0  0
 23 24  2  0  0  0  0
 24 25  1  0  0  0  0
 25 26  1  0  0  0  0
 26 27  2  0  0  0  0
 26 28  1  0  0  0  0
 29 28  1  0  0  0  0
 29 30  1  0  0  0  0
 31 29  2  0  0  0  0
 32 25  2  0  0  0  0
 32 31  1  0  0  0  0
M  END
>  <CHROM.1>
64.53873532,-177.91900792,-71.04098829,78.22679137,-94.09954294,178.51364457
-25.71113415,170.68084899,176.85256020,-34.52761753,-0.44315608,3.82816131
-1.01935138,0.40216588,0.98233560,-2.43769945

>  <Name>
lig.pdb

>  <RI>
1.17715e+07

>  <Rbt.Current_Directory>
/home/itssahil/PROJECTS/Mol_Feturizer/New_Systems/rnas/5lwj

>  <Rbt.Executable>
rbdock ($Id: //depot/dev/client3/rdock/2013.1/src/exe/rbdock.cxx#4 $)

>  <Rbt.Library>
libRbt.so (2013.1, Build901 2013/11/27)

>  <Rbt.Parameter_File>
/export/apps/rDock/src/rDock_2013.1_src/data/scripts/dock_solv.prm

>  <Rbt.Receptor>
prm/blind_docking_60.prm

>  <SCORE>
-21.7187

>  <SCORE.INTER>
-19.7735

>  <SCORE.INTER.CONST>
1

>  <SCORE.INTER.POLAR>
-0.664028

>  <SCORE.INTER.ROT>
8

>  <SCORE.INTER.SOLV>
21.4973

>  <SCORE.INTER.VDW>
-27.068

>  <SCORE.INTER.norm>
-0.617921

>  <SCORE.INTRA>
-2.07287

>  <SCORE.INTRA.DIHEDRAL>
-2.68734

>  <SCORE.INTRA.DIHEDRAL.0>
10.9248

>  <SCORE.INTRA.POLAR>
0

>  <SCORE.INTRA.POLAR.0>
0

>  <SCORE.INTRA.REPUL>
0

>  <SCORE.INTRA.REPUL.0>
0

>  <SCORE.INTRA.SOLV>
-0.422408

>  <SCORE.INTRA.SOLV.lig_0>
-51.4104

>  <SCORE.INTRA.VDW>
-0.517998

>  <SCORE.INTRA.VDW.0>
0.110327

>  <SCORE.INTRA.norm>
-0.0647772

>  <SCORE.RESTR>
0.127604

>  <SCORE.RESTR.CAVITY>
0.127604

>  <SCORE.RESTR.norm>
0.00398761

>  <SCORE.SYSTEM>
0

>  <SCORE.SYSTEM.CONST>
0

>  <SCORE.SYSTEM.DIHEDRAL>
0

>  <SCORE.SYSTEM.SOLV>
0

>  <SCORE.SYSTEM.norm>
0

>  <SCORE.heavy>
32

>  <SCORE.norm>
-0.678711

>  <RMSD>
15.085

$$$$
lig.pdb
 OpenBabel11021811523D
libRbt.so/2013.1/901 2013/11/27
 32 34  0  0  0  0  0  0  0  0999 V2000
    1.8053   -1.6314   -0.0710 P   0  0  0  0  0  0  0  0  0  0  0  0
    3.0417   -2.4473    0.2181 O   0  0  0  0  0  0  0  0  0  0  0  0
    1.8506   -1.4512   -1.6828 O   0  0  0  0  0  0  0  0  0  0  0  0
    0.4558   -2.2613    0.1683 O   0  0  0  0  0  0  0  0  0  0  0  0
    1.8713   -0.4775    0.8048 O   0  0  0  0  0  0  0  0  0  0  0  0
    0.7487    0.4401    0.4993 P   0  0  1  0  0  0  0  0  0  0  0  0
    0.6895    0.6237   -0.9700 O   0  0  0  0  0  0  0  0  0  0  0  0
   -0.5289   -0.1481    0.9645 O   0  0  0  0  0  0  0  0  0  0  0  0
    0.9777    1.7423    1.1740 O   0  0  0  0  0  0  0  0  0  0  0  0
    1.9255    2.7553    0.6519 P   0  0  1  0  0  0  0  0  0  0  0  0
    2.8923    3.2689    1.6435 O   0  0  0  0  0  0  0  0  0  0  0  0
    2.5003    2.4510   -0.6774 O   0  0  0  0  0  0  0  0  0  0  0  0
    0.9731    4.0392    0.4009 O   0  0  0  0  0  0  0  0  0  0  0  0
    0.9892    5.1723    1.2485 C   0  0  0  0  0  0  0  0  0  0  0  0
   -0.1550    6.1504    0.9478 C   0  0  1  0  0  0  0  0  0  0  0  0
    0.0209    6.7339   -0.3269 O   0  0  0  0  0  0  0  0  0  0  0  0
   -1.5256    5.4702    0.7844 C   0  0  1  0  0  0  0  0  0  0  0  0
   -2.1619    5.0833    1.9909 O   0  0  0  0  0  0  0  0  0  0  0  0
   -2.3358    6.4954   -0.0085 C   0  0  1  0  0  0  0  0  0  0  0  0
   -3.0498    7.3813    0.8356 O   0  0  0  0  0  0  0  0  0  0  0  0
   -1.2289    7.2765   -0.7142 C   0  0  2  0  0  0  0  0  0  0  0  0
   -1.3477    7.3554   -2.1859 N   0  0  0  0  0  0  0  0  0  0  0  0
   -0.4265    7.7148   -3.1370 C   0  0  0  0  0  0  0  0  0  0  0  0
   -0.9079    7.7671   -4.3521 N   0  0  0  0  0  0  0  0  0  0  0  0
   -2.2400    7.3918   -4.2059 C   0  0  0  0  0  0  0  0  0  0  0  0
   -3.2960    7.2973   -5.1681 C   0  0  0  0  0  0  0  0  0  0  0  0
   -3.2503    7.5764   -6.3645 O   0  0  0  0  0  0  0  0  0  0  0  0
   -4.4988    6.8429   -4.6107 N   0  0  0  0  0  0  0  0  0  0  0  0
   -4.6444    6.4871   -3.2783 C   0  0  0  0  0  0  0  0  0  0  0  0
   -5.8143    5.9667   -2.8906 N   0  0  0  0  0  0  0  0  0  0  0  0
   -3.6647    6.6234   -2.3698 N   0  0  0  0  0  0  0  0  0  0  0  0
   -2.4946    7.0843   -2.8904 C   0  0  0  0  0  0  0  0  0  0  0  0
  1  2  2  0  0  0  0
  1  4  1  0  0  0  0
  1  3  1  0  0  0  0
  5  1  1  0  0  0  0
  6  7  2  6  0  0  0
  6  9  1  0  0  0  0
  6  5  1  0  0  0  0
  6  8  1  0  0  0  0
 10 11  2  1  0  0  0
 10 12  1  0  0  0  0
 10 13  1  0  0  0  0
 10  9  1  0  0  0  0
 13 14  1  0  0  0  0
 15 14  1  6  0  0  0
 15 16  1  0  0  0  0
 17 19  1  0  0  0  0
 17 15  1  0  0  0  0
 17 18  1  1  0  0  0
 19 21  1  0  0  0  0
 19 20  1  1  0  0  0
 21 16  1  0  0  0  0
 21 22  1  6  0  0  0
 22 32  1  0  0  0  0
 23 22  1  0  0  0  0
 23 24  2  0  0  0  0
 24 25  1  0  0  0  0
 25 26  1  0  0  0  0
 26 27  2  0  0  0  0
 26 28  1  0  0  0  0
 29 28  1  0  0  0  0
 29 30  1  0  0  0  0
 31 29  2  0  0  0  0
 32 25  2  0  0  0  0
 32 31  1  0  0  0  0
M  END
>  <CHROM.1>
175.07838630,77.83186459,-47.42821198,105.87834077,-129.37786462,-170.45618602
-66.75532036,164.17880909,-57.55564774,-40.44442561,-0.43341081,3.69752653
-0.82820034,0.53897471,0.96786600,-2.61278110

>  <Name>
lig.pdb

>  <RI>
2.72908e+07

>  <Rbt.Current_Directory>
/home/itssahil/PROJECTS/Mol_Feturizer/New_Systems/rnas/5lwj

>  <Rbt.Executable>
rbdock ($Id: //depot/dev/client3/rdock/2013.1/src/exe/rbdock.cxx#4 $)

>  <Rbt.Library>
libRbt.so (2013.1, Build901 2013/11/27)

>  <Rbt.Parameter_File>
/export/apps/rDock/src/rDock_2013.1_src/data/scripts/dock_solv.prm

>  <Rbt.Receptor>
prm/blind_docking_20.prm

>  <SCORE>
-26.5174

>  <SCORE.INTER>
-27.8706

>  <SCORE.INTER.CONST>
1

>  <SCORE.INTER.POLAR>
-1.33631

>  <SCORE.INTER.ROT>
8

>  <SCORE.INTER.SOLV>
23.7754

>  <SCORE.INTER.VDW>
-30.9844

>  <SCORE.INTER.norm>
-0.870955

>  <SCORE.INTRA>
0.337688

>  <SCORE.INTRA.DIHEDRAL>
-1.11732

>  <SCORE.INTRA.DIHEDRAL.0>
10.9248

>  <SCORE.INTRA.POLAR>
0

>  <SCORE.INTRA.POLAR.0>
0

>  <SCORE.INTRA.REPUL>
0

>  <SCORE.INTRA.REPUL.0>
0

>  <SCORE.INTRA.SOLV>
-0.260003

>  <SCORE.INTRA.SOLV.lig_0>
-51.4104

>  <SCORE.INTRA.VDW>
1.02635

>  <SCORE.INTRA.VDW.0>
0.110327

>  <SCORE.INTRA.norm>
0.0105527

>  <SCORE.RESTR>
1.01551

>  <SCORE.RESTR.CAVITY>
1.01551

>  <SCORE.RESTR.norm>
0.0317347

>  <SCORE.SYSTEM>
0

>  <SCORE.SYSTEM.CONST>
0

>  <SCORE.SYSTEM.DIHEDRAL>
0

>  <SCORE.SYSTEM.SOLV>
0

>  <SCORE.SYSTEM.norm>
0

>  <SCORE.heavy>
32

>  <SCORE.norm>
-0.828668

>  <RMSD>
15.093

$$$$
lig.pdb
 OpenBabel11021811523D
libRbt.so/2013.1/901 2013/11/27
 32 34  0  0  0  0  0  0  0  0999 V2000
   -2.4334    7.6919   -2.6573 P   0  0  0  0  0  0  0  0  0  0  0  0
   -2.7432    7.2745   -4.0743 O   0  0  0  0  0  0  0  0  0  0  0  0
   -1.6735    9.1126   -2.8490 O   0  0  0  0  0  0  0  0  0  0  0  0
   -3.5816    8.0352   -1.7413 O   0  0  0  0  0  0  0  0  0  0  0  0
   -1.7543    6.5659   -2.0460 O   0  0  0  0  0  0  0  0  0  0  0  0
   -0.8773    7.0506   -0.9544 P   0  0  1  0  0  0  0  0  0  0  0  0
    0.1146    7.9836   -1.5389 O   0  0  0  0  0  0  0  0  0  0  0  0
   -1.6806    7.7726    0.0596 O   0  0  0  0  0  0  0  0  0  0  0  0
   -0.1909    5.8958   -0.3228 O   0  0  0  0  0  0  0  0  0  0  0  0
   -0.6626    5.2814    0.9409 P   0  0  1  0  0  0  0  0  0  0  0  0
   -0.2587    5.9986    2.1675 O   0  0  0  0  0  0  0  0  0  0  0  0
   -2.0672    4.8157    0.9267 O   0  0  0  0  0  0  0  0  0  0  0  0
    0.2164    3.9255    1.0284 O   0  0  0  0  0  0  0  0  0  0  0  0
    1.6248    3.9426    1.1652 C   0  0  0  0  0  0  0  0  0  0  0  0
    2.2682    2.5943    0.8125 C   0  0  1  0  0  0  0  0  0  0  0  0
    1.4735    1.5305    1.2954 O   0  0  0  0  0  0  0  0  0  0  0  0
    2.2930    2.2947   -0.6966 C   0  0  1  0  0  0  0  0  0  0  0  0
    3.2925    2.9751   -1.4369 O   0  0  0  0  0  0  0  0  0  0  0  0
    2.4482    0.7751   -0.7519 C   0  0  1  0  0  0  0  0  0  0  0  0
    3.8070    0.3781   -0.8086 O   0  0  0  0  0  0  0  0  0  0  0  0
    1.8730    0.3620    0.6016 C   0  0  2  0  0  0  0  0  0  0  0  0
    0.7800   -0.6322    0.5493 N   0  0  0  0  0  0  0  0  0  0  0  0
   -0.3518   -0.7544    1.3152 C   0  0  0  0  0  0  0  0  0  0  0  0
   -1.0594   -1.8229    1.0537 N   0  0  0  0  0  0  0  0  0  0  0  0
   -0.3637   -2.4466    0.0224 C   0  0  0  0  0  0  0  0  0  0  0  0
   -0.6146   -3.6776   -0.6644 C   0  0  0  0  0  0  0  0  0  0  0  0
   -1.5127   -4.4891   -0.4493 O   0  0  0  0  0  0  0  0  0  0  0  0
    0.3196   -3.9342   -1.6770 N   0  0  0  0  0  0  0  0  0  0  0  0
    1.3554   -3.0727   -2.0057 C   0  0  0  0  0  0  0  0  0  0  0  0
    2.1168   -3.3790   -3.0622 N   0  0  0  0  0  0  0  0  0  0  0  0
    1.6154   -1.9432   -1.3272 N   0  0  0  0  0  0  0  0  0  0  0  0
    0.7296   -1.6892   -0.3255 C   0  0  0  0  0  0  0  0  0  0  0  0
  1  2  2  0  0  0  0
  1  4  1  0  0  0  0
  1  3  1  0  0  0  0
  5  1  1  0  0  0  0
  6  7  2  6  0  0  0
  6  9  1  0  0  0  0
  6  5  1  0  0  0  0
  6  8  1  0  0  0  0
 10 11  2  1  0  0  0
 10 12  1  0  0  0  0
 10 13  1  0  0  0  0
 10  9  1  0  0  0  0
 13 14  1  0  0  0  0
 15 14  1  6  0  0  0
 15 16  1  0  0  0  0
 17 19  1  0  0  0  0
 17 15  1  0  0  0  0
 17 18  1  6  0  0  0
 19 21  1  0  0  0  0
 19 20  1  1  0  0  0
 21 16  1  0  0  0  0
 21 22  1  6  0  0  0
 22 32  1  0  0  0  0
 23 22  1  0  0  0  0
 23 24  2  0  0  0  0
 24 25  1  0  0  0  0
 25 26  1  0  0  0  0
 26 27  2  0  0  0  0
 26 28  1  0  0  0  0
 29 28  1  0  0  0  0
 29 30  1  0  0  0  0
 31 29  2  0  0  0  0
 32 25  2  0  0  0  0
 32 31  1  0  0  0  0
M  END
>  <CHROM.1>
153.57190872,-99.06164987,-60.16331584,64.27765388,-80.68682595,-162.95950406
-39.38304866,-177.77008979,-62.68873439,-19.10953052,-0.02993915,2.93814678
-0.61206561,1.88322900,-0.65281956,0.12245473

>  <Name>
lig.pdb

>  <RI>
4.14043e+07

>  <Rbt.Current_Directory>
/home/itssahil/PROJECTS/Mol_Feturizer/New_Systems/rnas/5lwj

>  <Rbt.Executable>
rbdock ($Id: //depot/dev/client3/rdock/2013.1/src/exe/rbdock.cxx#4 $)

>  <Rbt.Library>
libRbt.so (2013.1, Build901 2013/11/27)

>  <Rbt.Parameter_File>
/export/apps/rDock/src/rDock_2013.1_src/data/scripts/dock_solv.prm

>  <Rbt.Receptor>
prm/blind_docking_80.prm

>  <SCORE>
-34.306

>  <SCORE.INTER>
-32.0294

>  <SCORE.INTER.CONST>
1

>  <SCORE.INTER.POLAR>
-1.43061

>  <SCORE.INTER.ROT>
8

>  <SCORE.INTER.SOLV>
23.6885

>  <SCORE.INTER.VDW>
-33.4137

>  <SCORE.INTER.norm>
-1.00092

>  <SCORE.INTRA>
-3.90019

>  <SCORE.INTRA.DIHEDRAL>
-2.51757

>  <SCORE.INTRA.DIHEDRAL.0>
10.9248

>  <SCORE.INTRA.POLAR>
0

>  <SCORE.INTRA.POLAR.0>
0

>  <SCORE.INTRA.REPUL>
0

>  <SCORE.INTRA.REPUL.0>
0

>  <SCORE.INTRA.SOLV>
-0.984335

>  <SCORE.INTRA.SOLV.lig_0>
-51.4104

>  <SCORE.INTRA.VDW>
-2.14923

>  <SCORE.INTRA.VDW.0>
0.110327

>  <SCORE.INTRA.norm>
-0.121881

>  <SCORE.RESTR>
1.62357

>  <SCORE.RESTR.CAVITY>
1.62357

>  <SCORE.RESTR.norm>
0.0507365

>  <SCORE.SYSTEM>
0

>  <SCORE.SYSTEM.CONST>
0

>  <SCORE.SYSTEM.DIHEDRAL>
0

>  <SCORE.SYSTEM.SOLV>
0

>  <SCORE.SYSTEM.norm>
0

>  <SCORE.heavy>
32

>  <SCORE.norm>
-1.07206

>  <RMSD>
15.115

$$$$
lig.pdb
 OpenBabel11021811523D
libRbt.so/2013.1/901 2013/11/27
 32 34  0  0  0  0  0  0  0  0999 V2000
   -3.8151    7.7892   -1.5962 P   0  0  0  0  0  0  0  0  0  0  0  0
   -5.1004    8.4719   -1.9958 O   0  0  0  0  0  0  0  0  0  0  0  0
   -3.6268    6.6568   -2.7429 O   0  0  0  0  0  0  0  0  0  0  0  0
   -2.5297    8.5747   -1.6723 O   0  0  0  0  0  0  0  0  0  0  0  0
   -3.9750    7.4139   -0.2046 O   0  0  0  0  0  0  0  0  0  0  0  0
   -3.1088    6.2499    0.0963 P   0  0  1  0  0  0  0  0  0  0  0  0
   -3.2085    5.9631    1.5468 O   0  0  0  0  0  0  0  0  0  0  0  0
   -3.5695    5.0644   -0.6633 O   0  0  0  0  0  0  0  0  0  0  0  0
   -1.7068    6.5694   -0.2721 O   0  0  0  0  0  0  0  0  0  0  0  0
   -0.5725    6.3741    0.6618 P   0  0  1  0  0  0  0  0  0  0  0  0
    0.7097    6.9509    0.2089 O   0  0  0  0  0  0  0  0  0  0  0  0
   -0.8879    6.6033    2.0894 O   0  0  0  0  0  0  0  0  0  0  0  0
   -0.2925    4.7838    0.5555 O   0  0  0  0  0  0  0  0  0  0  0  0
    0.7687    4.1530    1.2475 C   0  0  0  0  0  0  0  0  0  0  0  0
    1.0642    2.7436    0.7159 C   0  0  1  0  0  0  0  0  0  0  0  0
    1.6114    2.8148   -0.5848 O   0  0  0  0  0  0  0  0  0  0  0  0
    2.1853    2.0156    1.4782 C   0  0  1  0  0  0  0  0  0  0  0  0
    1.8155    1.4736    2.7350 O   0  0  0  0  0  0  0  0  0  0  0  0
    2.6496    0.9481    0.4877 C   0  0  1  0  0  0  0  0  0  0  0  0
    1.9543   -0.2749    0.6547 O   0  0  0  0  0  0  0  0  0  0  0  0
    2.2347    1.5696   -0.8446 C   0  0  2  0  0  0  0  0  0  0  0  0
    3.3157    1.7079   -1.8438 N   0  0  0  0  0  0  0  0  0  0  0  0
    3.7609    2.8097   -2.5294 C   0  0  0  0  0  0  0  0  0  0  0  0
    4.6829    2.5471   -3.4192 N   0  0  0  0  0  0  0  0  0  0  0  0
    4.8861    1.1753   -3.3025 C   0  0  0  0  0  0  0  0  0  0  0  0
    5.7412    0.2909   -4.0352 C   0  0  0  0  0  0  0  0  0  0  0  0
    6.4740    0.5672   -4.9828 O   0  0  0  0  0  0  0  0  0  0  0  0
    5.6737   -1.0319   -3.5775 N   0  0  0  0  0  0  0  0  0  0  0  0
    4.8916   -1.4374   -2.5065 C   0  0  0  0  0  0  0  0  0  0  0  0
    4.9945   -2.7071   -2.0979 N   0  0  0  0  0  0  0  0  0  0  0  0
    4.0551   -0.6140   -1.8537 N   0  0  0  0  0  0  0  0  0  0  0  0
    4.0921    0.6713   -2.2998 C   0  0  0  0  0  0  0  0  0  0  0  0
  1  2  2  0  0  0  0
  1  4  1  0  0  0  0
  1  3  1  0  0  0  0
  5  1  1  0  0  0  0
  6  7  2  1  0  0  0
  6  9  1  0  0  0  0
  6  5  1  0  0  0  0
  6  8  1  0  0  0  0
 10 11  2  6  0  0  0
 10 12  1  0  0  0  0
 10 13  1  0  0  0  0
 10  9  1  0  0  0  0
 13 14  1  0  0  0  0
 15 14  1  1  0  0  0
 15 16  1  0  0  0  0
 17 19  1  0  0  0  0
 17 15  1  0  0  0  0
 17 18  1  1  0  0  0
 19 21  1  0  0  0  0
 19 20  1  1  0  0  0
 21 16  1  0  0  0  0
 21 22  1  6  0  0  0
 22 32  1  0  0  0  0
 23 22  1  0  0  0  0
 23 24  2  0  0  0  0
 24 25  1  0  0  0  0
 25 26  1  0  0  0  0
 26 27  2  0  0  0  0
 26 28  1  0  0  0  0
 29 28  1  0  0  0  0
 29 30  1  0  0  0  0
 31 29  2  0  0  0  0
 32 25  2  0  0  0  0
 32 31  1  0  0  0  0
M  END
>  <CHROM.1>
154.05077200,128.96189460,175.33882905,176.99052433,-170.32537326,-164.85021825
68.63014321,-59.05715242,-62.51453940,-1.00078739,0.59723711,3.79163313,-0.83001446
-3.07770681,-0.76233902,1.91497420

>  <Name>
lig.pdb

>  <RI>
1.2169e+07

>  <Rbt.Current_Directory>
/home/itssahil/PROJECTS/Mol_Feturizer/New_Systems/rnas/5lwj

>  <Rbt.Executable>
rbdock ($Id: //depot/dev/client3/rdock/2013.1/src/exe/rbdock.cxx#4 $)

>  <Rbt.Library>
libRbt.so (2013.1, Build901 2013/11/27)

>  <Rbt.Parameter_File>
/export/apps/rDock/src/rDock_2013.1_src/data/scripts/dock_solv.prm

>  <Rbt.Receptor>
prm/blind_docking_40.prm

>  <SCORE>
-32.7021

>  <SCORE.INTER>
-30.625

>  <SCORE.INTER.CONST>
1

>  <SCORE.INTER.POLAR>
-1.43355

>  <SCORE.INTER.ROT>
8

>  <SCORE.INTER.SOLV>
24.3289

>  <SCORE.INTER.VDW>
-32.6811

>  <SCORE.INTER.norm>
-0.95703

>  <SCORE.INTRA>
-4.02922

>  <SCORE.INTRA.DIHEDRAL>
-3.16504

>  <SCORE.INTRA.DIHEDRAL.0>
10.9248

>  <SCORE.INTRA.POLAR>
0

>  <SCORE.INTRA.POLAR.0>
0

>  <SCORE.INTRA.REPUL>
0

>  <SCORE.INTRA.REPUL.0>
0

>  <SCORE.INTRA.SOLV>
-0.656214

>  <SCORE.INTRA.SOLV.lig_0>
-51.4104

>  <SCORE.INTRA.VDW>
-2.1186

>  <SCORE.INTRA.VDW.0>
0.110327

>  <SCORE.INTRA.norm>
-0.125913

>  <SCORE.RESTR>
1.95207

>  <SCORE.RESTR.CAVITY>
1.95207

>  <SCORE.RESTR.norm>
0.0610022

>  <SCORE.SYSTEM>
0

>  <SCORE.SYSTEM.CONST>
0

>  <SCORE.SYSTEM.DIHEDRAL>
0

>  <SCORE.SYSTEM.SOLV>
0

>  <SCORE.SYSTEM.norm>
0

>  <SCORE.heavy>
32

>  <SCORE.norm>
-1.02194

>  <RMSD>
15.135

$$$$
lig.pdb
 OpenBabel11021811523D
libRbt.so/2013.1/901 2013/11/27
 32 34  0  0  0  0  0  0  0  0999 V2000
   -3.9913    6.7619   -2.2086 P   0  0  0  0  0  0  0  0  0  0  0  0
   -4.9072    6.8982   -3.4004 O   0  0  0  0  0  0  0  0  0  0  0  0
   -4.4555    7.9822   -1.2452 O   0  0  0  0  0  0  0  0  0  0  0  0
   -4.1376    5.5489   -1.3241 O   0  0  0  0  0  0  0  0  0  0  0  0
   -2.6435    6.7109   -2.7411 O   0  0  0  0  0  0  0  0  0  0  0  0
   -1.6744    7.0249   -1.6651 P   0  0  1  0  0  0  0  0  0  0  0  0
   -0.3148    7.0273   -2.2546 O   0  0  0  0  0  0  0  0  0  0  0  0
   -1.9587    8.3649   -1.1009 O   0  0  0  0  0  0  0  0  0  0  0  0
   -1.7728    5.9986   -0.5971 O   0  0  0  0  0  0  0  0  0  0  0  0
   -0.9370    6.0381    0.6264 P   0  0  1  0  0  0  0  0  0  0  0  0
    0.3957    6.6493    0.4473 O   0  0  0  0  0  0  0  0  0  0  0  0
   -1.6474    6.4450    1.8592 O   0  0  0  0  0  0  0  0  0  0  0  0
   -0.5732    4.4787    0.8605 O   0  0  0  0  0  0  0  0  0  0  0  0
    0.7078    4.0550    1.2872 C   0  0  0  0  0  0  0  0  0  0  0  0
    1.0656    2.6522    0.7766 C   0  0  1  0  0  0  0  0  0  0  0  0
    1.5943    2.7266   -0.5316 O   0  0  0  0  0  0  0  0  0  0  0  0
    2.2291    1.9931    1.5379 C   0  0  1  0  0  0  0  0  0  0  0  0
    1.9000    1.4562    2.8081 O   0  0  0  0  0  0  0  0  0  0  0  0
    2.7337    0.9318    0.5605 C   0  0  1  0  0  0  0  0  0  0  0  0
    2.1005   -0.3203    0.7569 O   0  0  0  0  0  0  0  0  0  0  0  0
    2.2744    1.5086   -0.7773 C   0  0  2  0  0  0  0  0  0  0  0  0
    3.3363    1.6812   -1.7915 N   0  0  0  0  0  0  0  0  0  0  0  0
    3.7558    2.8025   -2.4616 C   0  0  0  0  0  0  0  0  0  0  0  0
    4.6657    2.5699   -3.3720 N   0  0  0  0  0  0  0  0  0  0  0  0
    4.8880    1.1988   -3.2873 C   0  0  0  0  0  0  0  0  0  0  0  0
    5.7412    0.3407   -4.0525 C   0  0  0  0  0  0  0  0  0  0  0  0
    6.4542    0.6457   -5.0064 O   0  0  0  0  0  0  0  0  0  0  0  0
    5.6981   -0.9920   -3.6212 N   0  0  0  0  0  0  0  0  0  0  0  0
    4.9397   -1.4295   -2.5458 C   0  0  0  0  0  0  0  0  0  0  0  0
    5.0653   -2.7058   -2.1654 N   0  0  0  0  0  0  0  0  0  0  0  0
    4.1043   -0.6304   -1.8621 N   0  0  0  0  0  0  0  0  0  0  0  0
    4.1176    0.6642   -2.2820 C   0  0  0  0  0  0  0  0  0  0  0  0
  1  2  2  0  0  0  0
  1  4  1  0  0  0  0
  1  3  1  0  0  0  0
  5  1  1  0  0  0  0
  6  7  2  6  0  0  0
  6  9  1  0  0  0  0
  6  5  1  0  0  0  0
  6  8  1  0  0  0  0
 10 11  2  6  0  0  0
 10 12  1  0  0  0  0
 10 13  1  0  0  0  0
 10  9  1  0  0  0  0
 13 14  1  0  0  0  0
 15 14  1  1  0  0  0
 15 16  1  0  0  0  0
 17 19  1  0  0  0  0
 17 15  1  0  0  0  0
 17 18  1  1  0  0  0
 19 21  1  0  0  0  0
 19 20  1  1  0  0  0
 21 16  1  0  0  0  0
 21 22  1  6  0  0  0
 22 32  1  0  0  0  0
 23 22  1  0  0  0  0
 23 24  2  0  0  0  0
 24 25  1  0  0  0  0
 25 26  1  0  0  0  0
 26 27  2  0  0  0  0
 26 28  1  0  0  0  0
 29 28  1  0  0  0  0
 29 30  1  0  0  0  0
 31 29  2  0  0  0  0
 32 25  2  0  0  0  0
 32 31  1  0  0  0  0
M  END
>  <CHROM.1>
161.45710926,-179.53949894,-177.37660946,140.24269192,-30.53736162,-150.56534737
84.06516910,98.91499707,177.95585827,2.01702825,0.73310056,3.71595303,-1.15914294
-3.06433592,-0.75565889,1.82836205

>  <Name>
lig.pdb

>  <RI>
1.2169e+07

>  <Rbt.Current_Directory>
/home/itssahil/PROJECTS/Mol_Feturizer/New_Systems/rnas/5lwj

>  <Rbt.Executable>
rbdock ($Id: //depot/dev/client3/rdock/2013.1/src/exe/rbdock.cxx#4 $)

>  <Rbt.Library>
libRbt.so (2013.1, Build901 2013/11/27)

>  <Rbt.Parameter_File>
/export/apps/rDock/src/rDock_2013.1_src/data/scripts/dock_solv.prm

>  <Rbt.Receptor>
prm/blind_docking_40.prm

>  <SCORE>
-32.3934

>  <SCORE.INTER>
-34.1817

>  <SCORE.INTER.CONST>
1

>  <SCORE.INTER.POLAR>
-2.1373

>  <SCORE.INTER.ROT>
8

>  <SCORE.INTER.SOLV>
24.192

>  <SCORE.INTER.VDW>
-32.6608

>  <SCORE.INTER.norm>
-1.06818

>  <SCORE.INTRA>
0.00695638

>  <SCORE.INTRA.DIHEDRAL>
6.15561

>  <SCORE.INTRA.DIHEDRAL.0>
10.9248

>  <SCORE.INTRA.POLAR>
-0.315928

>  <SCORE.INTRA.POLAR.0>
0

>  <SCORE.INTRA.REPUL>
0

>  <SCORE.INTRA.REPUL.0>
0

>  <SCORE.INTRA.SOLV>
-0.387099

>  <SCORE.INTRA.SOLV.lig_0>
-51.4104

>  <SCORE.INTRA.VDW>
-1.80315

>  <SCORE.INTRA.VDW.0>
0.110327

>  <SCORE.INTRA.norm>
0.000217387

>  <SCORE.RESTR>
1.78128

>  <SCORE.RESTR.CAVITY>
1.78128

>  <SCORE.RESTR.norm>
0.055665

>  <SCORE.SYSTEM>
0

>  <SCORE.SYSTEM.CONST>
0

>  <SCORE.SYSTEM.DIHEDRAL>
0

>  <SCORE.SYSTEM.SOLV>
0

>  <SCORE.SYSTEM.norm>
0

>  <SCORE.heavy>
32

>  <SCORE.norm>
-1.0123

>  <RMSD>
15.149

$$$$
lig.pdb
 OpenBabel11021811523D
libRbt.so/2013.1/901 2013/11/27
 32 34  0  0  0  0  0  0  0  0999 V2000
   -0.0898    8.0334   -3.3034 P   0  0  0  0  0  0  0  0  0  0  0  0
    1.1286    8.4783   -4.0752 O   0  0  0  0  0  0  0  0  0  0  0  0
   -0.7436    9.4331   -2.8074 O   0  0  0  0  0  0  0  0  0  0  0  0
   -1.2174    7.3737   -4.0573 O   0  0  0  0  0  0  0  0  0  0  0  0
    0.3787    7.0538   -2.3424 O   0  0  0  0  0  0  0  0  0  0  0  0
   -0.6465    6.8643   -1.2895 P   0  0  1  0  0  0  0  0  0  0  0  0
   -0.8947    8.1757   -0.6456 O   0  0  0  0  0  0  0  0  0  0  0  0
   -1.9086    6.3753   -1.8919 O   0  0  0  0  0  0  0  0  0  0  0  0
   -0.1531    5.8833   -0.2907 O   0  0  0  0  0  0  0  0  0  0  0  0
   -0.9602    5.4610    0.8785 P   0  0  1  0  0  0  0  0  0  0  0  0
   -1.0926    6.4788    1.9407 O   0  0  0  0  0  0  0  0  0  0  0  0
   -2.2091    4.7376    0.5510 O   0  0  0  0  0  0  0  0  0  0  0  0
   -0.0167    4.3495    1.5808 O   0  0  0  0  0  0  0  0  0  0  0  0
    1.1944    3.9059    0.9985 C   0  0  0  0  0  0  0  0  0  0  0  0
    1.1415    2.4303    0.5789 C   0  0  1  0  0  0  0  0  0  0  0  0
    1.7237    2.2623   -0.6975 O   0  0  0  0  0  0  0  0  0  0  0  0
    2.0236    1.5087    1.4393 C   0  0  1  0  0  0  0  0  0  0  0  0
    1.4964    1.1746    2.7123 O   0  0  0  0  0  0  0  0  0  0  0  0
    2.2320    0.2858    0.5465 C   0  0  1  0  0  0  0  0  0  0  0  0
    1.2483   -0.7100    0.7654 O   0  0  0  0  0  0  0  0  0  0  0  0
    2.0219    0.8852   -0.8428 C   0  0  2  0  0  0  0  0  0  0  0  0
    3.1294    0.6731   -1.7990 N   0  0  0  0  0  0  0  0  0  0  0  0
    3.8852    1.5762   -2.5029 C   0  0  0  0  0  0  0  0  0  0  0  0
    4.7250    1.0283   -3.3428 N   0  0  0  0  0  0  0  0  0  0  0  0
    4.5342   -0.3393   -3.1700 C   0  0  0  0  0  0  0  0  0  0  0  0
    5.1315   -1.4582   -3.8343 C   0  0  0  0  0  0  0  0  0  0  0  0
    5.9416   -1.4390   -4.7588 O   0  0  0  0  0  0  0  0  0  0  0  0
    4.6837   -2.6884   -3.3342 N   0  0  0  0  0  0  0  0  0  0  0  0
    3.7864   -2.8124   -2.2842 C   0  0  0  0  0  0  0  0  0  0  0  0
    3.5186   -4.0411   -1.8277 N   0  0  0  0  0  0  0  0  0  0  0  0
    3.1925   -1.7608   -1.6967 N   0  0  0  0  0  0  0  0  0  0  0  0
    3.6001   -0.5576   -2.1852 C   0  0  0  0  0  0  0  0  0  0  0  0
  1  2  2  0  0  0  0
  1  4  1  0  0  0  0
  1  3  1  0  0  0  0
  5  1  1  0  0  0  0
  6  7  2  1  0  0  0
  6  9  1  0  0  0  0
  6  5  1  0  0  0  0
  6  8  1  0  0  0  0
 10 11  2  1  0  0  0
 10 12  1  0  0  0  0
 10 13  1  0  0  0  0
 10  9  1  0  0  0  0
 13 14  1  0  0  0  0
 15 14  1  1  0  0  0
 15 16  1  0  0  0  0
 17 19  1  0  0  0  0
 17 15  1  0  0  0  0
 17 18  1  1  0  0  0
 19 21  1  0  0  0  0
 19 20  1  1  0  0  0
 21 16  1  0  0  0  0
 21 22  1  6  0  0  0
 22 32  1  0  0  0  0
 23 22  1  0  0  0  0
 23 24  2  0  0  0  0
 24 25  1  0  0  0  0
 25 26  1  0  0  0  0
 26 27  2  0  0  0  0
 26 28  1  0  0  0  0
 29 28  1  0  0  0  0
 29 30  1  0  0  0  0
 31 29  2  0  0  0  0
 32 25  2  0  0  0  0
 32 31  1  0  0  0  0
M  END
>  <CHROM.1>
163.20248453,-178.94416208,-58.50234742,-5.76236526,-72.73174797,-113.88382195
136.52275263,158.82710967,-176.00719241,1.55545412,1.27153339,3.30450684
-1.24285863,-2.52550641,-0.96419940,2.35762573

>  <Name>
lig.pdb

>  <RI>
4.14043e+07

>  <Rbt.Current_Directory>
/home/itssahil/PROJECTS/Mol_Feturizer/New_Systems/rnas/5lwj

>  <Rbt.Executable>
rbdock ($Id: //depot/dev/client3/rdock/2013.1/src/exe/rbdock.cxx#4 $)

>  <Rbt.Library>
libRbt.so (2013.1, Build901 2013/11/27)

>  <Rbt.Parameter_File>
/export/apps/rDock/src/rDock_2013.1_src/data/scripts/dock_solv.prm

>  <Rbt.Receptor>
prm/blind_docking_80.prm

>  <SCORE>
-28.3637

>  <SCORE.INTER>
-30.6568

>  <SCORE.INTER.CONST>
1

>  <SCORE.INTER.POLAR>
-2.01393

>  <SCORE.INTER.ROT>
8

>  <SCORE.INTER.SOLV>
25.7223

>  <SCORE.INTER.VDW>
-31.2322

>  <SCORE.INTER.norm>
-0.958025

>  <SCORE.INTRA>
1.93319

>  <SCORE.INTRA.DIHEDRAL>
7.79157

>  <SCORE.INTRA.DIHEDRAL.0>
10.9248

>  <SCORE.INTRA.POLAR>
0

>  <SCORE.INTRA.POLAR.0>
0

>  <SCORE.INTRA.REPUL>
0

>  <SCORE.INTRA.REPUL.0>
0

>  <SCORE.INTRA.SOLV>
-0.87246

>  <SCORE.INTRA.SOLV.lig_0>
-51.4104

>  <SCORE.INTRA.VDW>
-1.52637

>  <SCORE.INTRA.VDW.0>
0.110327

>  <SCORE.INTRA.norm>
0.0604121

>  <SCORE.RESTR>
0.359914

>  <SCORE.RESTR.CAVITY>
0.359914

>  <SCORE.RESTR.norm>
0.0112473

>  <SCORE.SYSTEM>
0

>  <SCORE.SYSTEM.CONST>
0

>  <SCORE.SYSTEM.DIHEDRAL>
0

>  <SCORE.SYSTEM.SOLV>
0

>  <SCORE.SYSTEM.norm>
0

>  <SCORE.heavy>
32

>  <SCORE.norm>
-0.886365

>  <RMSD>
15.174

$$$$
lig.pdb
 OpenBabel11021811523D
libRbt.so/2013.1/901 2013/11/27
 32 34  0  0  0  0  0  0  0  0999 V2000
   -1.3360    7.8962   -3.2170 P   0  0  0  0  0  0  0  0  0  0  0  0
   -0.6632    8.6299   -4.3515 O   0  0  0  0  0  0  0  0  0  0  0  0
   -2.0049    9.0928   -2.3491 O   0  0  0  0  0  0  0  0  0  0  0  0
   -2.5089    7.0023   -3.5340 O   0  0  0  0  0  0  0  0  0  0  0  0
   -0.3220    7.0379   -2.6358 O   0  0  0  0  0  0  0  0  0  0  0  0
   -0.6709    6.7449   -1.2259 P   0  0  1  0  0  0  0  0  0  0  0  0
   -0.5783    8.0074   -0.4554 O   0  0  0  0  0  0  0  0  0  0  0  0
   -2.0571    6.2288   -1.1426 O   0  0  0  0  0  0  0  0  0  0  0  0
    0.2741    5.7373   -0.6825 O   0  0  0  0  0  0  0  0  0  0  0  0
    0.1833    5.2258    0.7057 P   0  0  1  0  0  0  0  0  0  0  0  0
    0.9884    5.9709    1.6948 O   0  0  0  0  0  0  0  0  0  0  0  0
   -1.1808    4.8695    1.1556 O   0  0  0  0  0  0  0  0  0  0  0  0
    0.9664    3.8124    0.6173 O   0  0  0  0  0  0  0  0  0  0  0  0
    2.2770    3.6390    1.1222 C   0  0  0  0  0  0  0  0  0  0  0  0
    2.7573    2.1841    1.0291 C   0  0  1  0  0  0  0  0  0  0  0  0
    1.7270    1.3013    1.4236 O   0  0  0  0  0  0  0  0  0  0  0  0
    3.0285    1.7112   -0.4099 C   0  0  1  0  0  0  0  0  0  0  0  0
    4.2473    2.1591   -0.9792 O   0  0  0  0  0  0  0  0  0  0  0  0
    2.9514    0.1886   -0.3012 C   0  0  1  0  0  0  0  0  0  0  0  0
    4.2158   -0.3934   -0.0371 O   0  0  0  0  0  0  0  0  0  0  0  0
    2.0660    0.0170    0.9317 C   0  0  2  0  0  0  0  0  0  0  0  0
    0.8620   -0.8187    0.7363 N   0  0  0  0  0  0  0  0  0  0  0  0
   -0.3401   -0.8193    1.3977 C   0  0  0  0  0  0  0  0  0  0  0  0
   -1.1542   -1.7717    1.0224 N   0  0  0  0  0  0  0  0  0  0  0  0
   -0.4560   -2.4402    0.0213 C   0  0  0  0  0  0  0  0  0  0  0  0
   -0.8024   -3.5971   -0.7478 C   0  0  0  0  0  0  0  0  0  0  0  0
   -1.8140   -4.2890   -0.6512 O   0  0  0  0  0  0  0  0  0  0  0  0
    0.1774   -3.9349   -1.6911 N   0  0  0  0  0  0  0  0  0  0  0  0
    1.3417   -3.2074   -1.8866 C   0  0  0  0  0  0  0  0  0  0  0  0
    2.1483   -3.5693   -2.8906 N   0  0  0  0  0  0  0  0  0  0  0  0
    1.6846   -2.1517   -1.1303 N   0  0  0  0  0  0  0  0  0  0  0  0
    0.7532   -1.8226   -0.1940 C   0  0  0  0  0  0  0  0  0  0  0  0
  1  2  2  0  0  0  0
  1  4  1  0  0  0  0
  1  3  1  0  0  0  0
  5  1  1  0  0  0  0
  6  7  2  1  0  0  0
  6  9  1  0  0  0  0
  6  5  1  0  0  0  0
  6  8  1  0  0  0  0
 10 11  2  1  0  0  0
 10 12  1  0  0  0  0
 10 13  1  0  0  0  0
 10  9  1  0  0  0  0
 13 14  1  0  0  0  0
 15 14  1  6  0  0  0
 15 16  1  0  0  0  0
 17 19  1  0  0  0  0
 17 15  1  0  0  0  0
 17 18  1  1  0  0  0
 19 21  1  0  0  0  0
 19 20  1  1  0  0  0
 21 16  1  0  0  0  0
 21 22  1  6  0  0  0
 22 32  1  0  0  0  0
 23 22  1  0  0  0  0
 23 24  2  0  0  0  0
 24 25  1  0  0  0  0
 25 26  1  0  0  0  0
 26 27  2  0  0  0  0
 26 28  1  0  0  0  0
 29 28  1  0  0  0  0
 29 30  1  0  0  0  0
 31 29  2  0  0  0  0
 32 25  2  0  0  0  0
 32 31  1  0  0  0  0
M  END
>  <CHROM.1>
155.44664694,-179.54688724,-66.57720929,104.16569334,-91.78961675,175.10016831
-43.06781743,-87.37086680,59.08579428,-30.02512791,0.40080207,2.77002617
-0.68367152,1.81889037,-0.67486086,0.02116145

>  <Name>
lig.pdb

>  <RI>
1.2169e+07

>  <Rbt.Current_Directory>
/home/itssahil/PROJECTS/Mol_Feturizer/New_Systems/rnas/5lwj

>  <Rbt.Executable>
rbdock ($Id: //depot/dev/client3/rdock/2013.1/src/exe/rbdock.cxx#4 $)

>  <Rbt.Library>
libRbt.so (2013.1, Build901 2013/11/27)

>  <Rbt.Parameter_File>
/export/apps/rDock/src/rDock_2013.1_src/data/scripts/dock_solv.prm

>  <Rbt.Receptor>
prm/blind_docking_40.prm

>  <SCORE>
-26.2261

>  <SCORE.INTER>
-27.9546

>  <SCORE.INTER.CONST>
1

>  <SCORE.INTER.POLAR>
-1.65501

>  <SCORE.INTER.ROT>
8

>  <SCORE.INTER.SOLV>
25.3824

>  <SCORE.INTER.VDW>
-30.5138

>  <SCORE.INTER.norm>
-0.873581

>  <SCORE.INTRA>
-2.05623

>  <SCORE.INTRA.DIHEDRAL>
-0.323444

>  <SCORE.INTRA.DIHEDRAL.0>
10.9248

>  <SCORE.INTRA.POLAR>
0

>  <SCORE.INTRA.POLAR.0>
0

>  <SCORE.INTRA.REPUL>
0

>  <SCORE.INTRA.REPUL.0>
0

>  <SCORE.INTRA.SOLV>
-1.1667

>  <SCORE.INTRA.SOLV.lig_0>
-51.4104

>  <SCORE.INTRA.VDW>
-1.31116

>  <SCORE.INTRA.VDW.0>
0.110327

>  <SCORE.INTRA.norm>
-0.0642572

>  <SCORE.RESTR>
3.78471

>  <SCORE.RESTR.CAVITY>
3.78471

>  <SCORE.RESTR.norm>
0.118272

>  <SCORE.SYSTEM>
0

>  <SCORE.SYSTEM.CONST>
0

>  <SCORE.SYSTEM.DIHEDRAL>
0

>  <SCORE.SYSTEM.SOLV>
0

>  <SCORE.SYSTEM.norm>
0

>  <SCORE.heavy>
32

>  <SCORE.norm>
-0.819566

>  <RMSD>
15.176

$$$$
lig.pdb
 OpenBabel11021811523D
libRbt.so/2013.1/901 2013/11/27
 32 34  0  0  0  0  0  0  0  0999 V2000
   -1.9383    7.6172   -3.3387 P   0  0  0  0  0  0  0  0  0  0  0  0
   -2.9234    8.3726   -2.4802 O   0  0  0  0  0  0  0  0  0  0  0  0
   -2.8828    6.9248   -4.4617 O   0  0  0  0  0  0  0  0  0  0  0  0
   -0.9473    8.4048   -4.1589 O   0  0  0  0  0  0  0  0  0  0  0  0
   -1.1526    6.8054   -2.4296 O   0  0  0  0  0  0  0  0  0  0  0  0
   -0.6414    7.6523   -1.3264 P   0  0  1  0  0  0  0  0  0  0  0  0
   -0.2008    8.9446   -1.9025 O   0  0  0  0  0  0  0  0  0  0  0  0
   -1.7173    7.9050   -0.3399 O   0  0  0  0  0  0  0  0  0  0  0  0
    0.4967    6.9668   -0.6644 O   0  0  0  0  0  0  0  0  0  0  0  0
    0.3311    6.1456    0.5584 P   0  0  1  0  0  0  0  0  0  0  0  0
    1.2812    6.4547    1.6462 O   0  0  0  0  0  0  0  0  0  0  0  0
   -1.0687    5.9432    0.9939 O   0  0  0  0  0  0  0  0  0  0  0  0
    0.8240    4.6820    0.0748 O   0  0  0  0  0  0  0  0  0  0  0  0
    1.3924    3.7409    0.9658 C   0  0  0  0  0  0  0  0  0  0  0  0
    1.4118    2.3187    0.3883 C   0  0  1  0  0  0  0  0  0  0  0  0
    2.0656    2.3070   -0.8642 O   0  0  0  0  0  0  0  0  0  0  0  0
    2.2784    1.3342    1.1930 C   0  0  1  0  0  0  0  0  0  0  0  0
    1.6966    0.8489    2.3914 O   0  0  0  0  0  0  0  0  0  0  0  0
    2.5748    0.2220    0.1873 C   0  0  1  0  0  0  0  0  0  0  0  0
    1.6153   -0.8189    0.2430 O   0  0  0  0  0  0  0  0  0  0  0  0
    2.4176    0.9628   -1.1393 C   0  0  2  0  0  0  0  0  0  0  0  0
    3.5804    0.8873   -2.0494 N   0  0  0  0  0  0  0  0  0  0  0  0
    4.2963    1.8819   -2.6662 C   0  0  0  0  0  0  0  0  0  0  0  0
    5.2127    1.4457   -3.4913 N   0  0  0  0  0  0  0  0  0  0  0  0
    5.1192    0.0602   -3.4007 C   0  0  0  0  0  0  0  0  0  0  0  0
    5.8297   -0.9723   -4.0928 C   0  0  0  0  0  0  0  0  0  0  0  0
    6.6771   -0.8413   -4.9736 O   0  0  0  0  0  0  0  0  0  0  0  0
    5.4549   -2.2584   -3.6812 N   0  0  0  0  0  0  0  0  0  0  0  0
    4.5229   -2.5074   -2.6849 C   0  0  0  0  0  0  0  0  0  0  0  0
    4.3291   -3.7762   -2.3079 N   0  0  0  0  0  0  0  0  0  0  0  0
    3.8244   -1.5372   -2.0729 N   0  0  0  0  0  0  0  0  0  0  0  0
    4.1608   -0.2816   -2.4763 C   0  0  0  0  0  0  0  0  0  0  0  0
  1  2  2  0  0  0  0
  1  4  1  0  0  0  0
  1  3  1  0  0  0  0
  5  1  1  0  0  0  0
  6  7  2  6  0  0  0
  6  9  1  0  0  0  0
  6  5  1  0  0  0  0
  6  8  1  0  0  0  0
 10 11  2  1  0  0  0
 10 12  1  0  0  0  0
 10 13  1  0  0  0  0
 10  9  1  0  0  0  0
 13 14  1  0  0  0  0
 15 14  1  1  0  0  0
 15 16  1  0  0  0  0
 17 19  1  0  0  0  0
 17 15  1  0  0  0  0
 17 18  1  1  0  0  0
 19 21  1  0  0  0  0
 19 20  1  6  0  0  0
 21 16  1  0  0  0  0
 21 22  1  1  0  0  0
 22 32  1  0  0  0  0
 23 22  1  0  0  0  0
 23 24  2  0  0  0  0
 24 25  1  0  0  0  0
 25 26  1  0  0  0  0
 26 27  2  0  0  0  0
 26 28  1  0  0  0  0
 29 28  1  0  0  0  0
 29 30  1  0  0  0  0
 31 29  2  0  0  0  0
 32 25  2  0  0  0  0
 32 31  1  0  0  0  0
M  END
>  <CHROM.1>
-50.43605077,-95.77698298,-41.12185287,151.64840876,-130.72489077,163.70872520
54.71617872,170.92946982,-65.19343274,-2.43064812,1.43917282,3.54242942,-1.46039028
-2.93805980,-0.97970224,1.89241271

>  <Name>
lig.pdb

>  <RI>
4.14043e+07

>  <Rbt.Current_Directory>
/home/itssahil/PROJECTS/Mol_Feturizer/New_Systems/rnas/5lwj

>  <Rbt.Executable>
rbdock ($Id: //depot/dev/client3/rdock/2013.1/src/exe/rbdock.cxx#4 $)

>  <Rbt.Library>
libRbt.so (2013.1, Build901 2013/11/27)

>  <Rbt.Parameter_File>
/export/apps/rDock/src/rDock_2013.1_src/data/scripts/dock_solv.prm

>  <Rbt.Receptor>
prm/blind_docking_80.prm

>  <SCORE>
-34.2344

>  <SCORE.INTER>
-37.071

>  <SCORE.INTER.CONST>
1

>  <SCORE.INTER.POLAR>
-2.39104

>  <SCORE.INTER.ROT>
8

>  <SCORE.INTER.SOLV>
25.4919

>  <SCORE.INTER.VDW>
-34.1745

>  <SCORE.INTER.norm>
-1.15847

>  <SCORE.INTRA>
1.49401

>  <SCORE.INTRA.DIHEDRAL>
-0.613484

>  <SCORE.INTRA.DIHEDRAL.0>
10.9248

>  <SCORE.INTRA.POLAR>
0

>  <SCORE.INTRA.POLAR.0>
0

>  <SCORE.INTRA.REPUL>
0

>  <SCORE.INTRA.REPUL.0>
0

>  <SCORE.INTRA.SOLV>
-0.768502

>  <SCORE.INTRA.SOLV.lig_0>
-51.4104

>  <SCORE.INTRA.VDW>
2.18501

>  <SCORE.INTRA.VDW.0>
0.110327

>  <SCORE.INTRA.norm>
0.0466879

>  <SCORE.RESTR>
1.34264

>  <SCORE.RESTR.CAVITY>
1.34264

>  <SCORE.RESTR.norm>
0.0419576

>  <SCORE.SYSTEM>
0

>  <SCORE.SYSTEM.CONST>
0

>  <SCORE.SYSTEM.DIHEDRAL>
0

>  <SCORE.SYSTEM.SOLV>
0

>  <SCORE.SYSTEM.norm>
0

>  <SCORE.heavy>
32

>  <SCORE.norm>
-1.06982

>  <RMSD>
15.187

$$$$
lig.pdb
 OpenBabel11021811523D
libRbt.so/2013.1/901 2013/11/27
 32 34  0  0  0  0  0  0  0  0999 V2000
    2.2320   -2.5816   -2.3604 P   0  0  0  0  0  0  0  0  0  0  0  0
    2.5157   -1.7522   -3.5890 O   0  0  0  0  0  0  0  0  0  0  0  0
    1.6463   -3.9640   -2.9758 O   0  0  0  0  0  0  0  0  0  0  0  0
    3.3961   -3.0436   -1.5200 O   0  0  0  0  0  0  0  0  0  0  0  0
    1.4157   -1.7522   -1.4952 O   0  0  0  0  0  0  0  0  0  0  0  0
    2.2176   -0.6047   -1.0098 P   0  0  1  0  0  0  0  0  0  0  0  0
    3.2097   -1.1146   -0.0343 O   0  0  0  0  0  0  0  0  0  0  0  0
    2.9342    0.0287   -2.1412 O   0  0  0  0  0  0  0  0  0  0  0  0
    1.3207    0.3867   -0.3646 O   0  0  0  0  0  0  0  0  0  0  0  0
    1.7744    1.7469    0.0110 P   0  0  1  0  0  0  0  0  0  0  0  0
    2.9826    1.7851    0.8599 O   0  0  0  0  0  0  0  0  0  0  0  0
    1.7527    2.7409   -1.0851 O   0  0  0  0  0  0  0  0  0  0  0  0
    0.6193    2.2392    1.0318 O   0  0  0  0  0  0  0  0  0  0  0  0
    0.7051    3.4606    1.7415 C   0  0  0  0  0  0  0  0  0  0  0  0
    0.2093    4.6574    0.9181 C   0  0  1  0  0  0  0  0  0  0  0  0
   -1.1924    4.5920    0.7527 O   0  0  0  0  0  0  0  0  0  0  0  0
    0.3684    6.0107    1.6330 C   0  0  1  0  0  0  0  0  0  0  0  0
    1.6809    6.5469    1.6382 O   0  0  0  0  0  0  0  0  0  0  0  0
   -0.6347    6.9107    0.9118 C   0  0  1  0  0  0  0  0  0  0  0  0
   -0.0491    7.5954   -0.1815 O   0  0  0  0  0  0  0  0  0  0  0  0
   -1.6290    5.8845    0.3715 C   0  0  2  0  0  0  0  0  0  0  0  0
   -3.0404    6.1085    0.7506 N   0  0  0  0  0  0  0  0  0  0  0  0
   -3.7475    5.6841    1.8471 C   0  0  0  0  0  0  0  0  0  0  0  0
   -5.0192    5.9880    1.8114 N   0  0  0  0  0  0  0  0  0  0  0  0
   -5.1677    6.6870    0.6173 C   0  0  0  0  0  0  0  0  0  0  0  0
   -6.3324    7.2441   -0.0016 C   0  0  0  0  0  0  0  0  0  0  0  0
   -7.4952    7.1837    0.3928 O   0  0  0  0  0  0  0  0  0  0  0  0
   -6.0442    7.9076   -1.2019 N   0  0  0  0  0  0  0  0  0  0  0  0
   -4.7646    8.0436   -1.7188 C   0  0  0  0  0  0  0  0  0  0  0  0
   -4.6062    8.7909   -2.8171 N   0  0  0  0  0  0  0  0  0  0  0  0
   -3.6821    7.4782   -1.1600 N   0  0  0  0  0  0  0  0  0  0  0  0
   -3.9474    6.8110   -0.0037 C   0  0  0  0  0  0  0  0  0  0  0  0
  1  2  2  0  0  0  0
  1  4  1  0  0  0  0
  1  3  1  0  0  0  0
  5  1  1  0  0  0  0
  6  7  2  1  0  0  0
  6  9  1  0  0  0  0
  6  5  1  0  0  0  0
  6  8  1  0  0  0  0
 10 11  2  1  0  0  0
 10 12  1  0  0  0  0
 10 13  1  0  0  0  0
 10  9  1  0  0  0  0
 13 14  1  0  0  0  0
 15 14  1  1  0  0  0
 15 16  1  0  0  0  0
 17 19  1  0  0  0  0
 17 15  1  0  0  0  0
 17 18  1  6  0  0  0
 19 21  1  0  0  0  0
 19 20  1  6  0  0  0
 21 16  1  0  0  0  0
 21 22  1  1  0  0  0
 22 32  1  0  0  0  0
 23 22  1  0  0  0  0
 23 24  2  0  0  0  0
 24 25  1  0  0  0  0
 25 26  1  0  0  0  0
 26 27  2  0  0  0  0
 26 28  1  0  0  0  0
 29 28  1  0  0  0  0
 29 30  1  0  0  0  0
 31 29  2  0  0  0  0
 32 25  2  0  0  0  0
 32 31  1  0  0  0  0
M  END
>  <CHROM.1>
-67.04756773,-169.02587758,-71.45779337,174.22297747,-53.70243361,84.36887866
70.27973140,44.10763882,61.80939910,35.71854138,-0.38985062,3.12226164,-0.39149591
0.85943870,0.38679784,-2.65615603

>  <Name>
lig.pdb

>  <RI>
1.17715e+07

>  <Rbt.Current_Directory>
/home/itssahil/PROJECTS/Mol_Feturizer/New_Systems/rnas/5lwj

>  <Rbt.Executable>
rbdock ($Id: //depot/dev/client3/rdock/2013.1/src/exe/rbdock.cxx#4 $)

>  <Rbt.Library>
libRbt.so (2013.1, Build901 2013/11/27)

>  <Rbt.Parameter_File>
/export/apps/rDock/src/rDock_2013.1_src/data/scripts/dock_solv.prm

>  <Rbt.Receptor>
prm/blind_docking_60.prm

>  <SCORE>
-34.1252

>  <SCORE.INTER>
-32.7567

>  <SCORE.INTER.CONST>
1

>  <SCORE.INTER.POLAR>
-3.95194

>  <SCORE.INTER.ROT>
8

>  <SCORE.INTER.SOLV>
22.6996

>  <SCORE.INTER.VDW>
-25.1645

>  <SCORE.INTER.norm>
-1.02365

>  <SCORE.INTRA>
-1.44937

>  <SCORE.INTRA.DIHEDRAL>
-3.1856

>  <SCORE.INTRA.DIHEDRAL.0>
10.9248

>  <SCORE.INTRA.POLAR>
0

>  <SCORE.INTRA.POLAR.0>
0

>  <SCORE.INTRA.REPUL>
0

>  <SCORE.INTRA.REPUL.0>
0

>  <SCORE.INTRA.SOLV>
-0.566927

>  <SCORE.INTRA.SOLV.lig_0>
-51.4104

>  <SCORE.INTRA.VDW>
0.426893

>  <SCORE.INTRA.VDW.0>
0.110327

>  <SCORE.INTRA.norm>
-0.0452929

>  <SCORE.RESTR>
0.080899

>  <SCORE.RESTR.CAVITY>
0.080899

>  <SCORE.RESTR.norm>
0.00252809

>  <SCORE.SYSTEM>
0

>  <SCORE.SYSTEM.CONST>
0

>  <SCORE.SYSTEM.DIHEDRAL>
0

>  <SCORE.SYSTEM.SOLV>
0

>  <SCORE.SYSTEM.norm>
0

>  <SCORE.heavy>
32

>  <SCORE.norm>
-1.06641

>  <RMSD>
15.238

$$$$
lig.pdb
 OpenBabel11021811523D
libRbt.so/2013.1/901 2013/11/27
 32 34  0  0  0  0  0  0  0  0999 V2000
   -3.3683    7.2771   -2.0522 P   0  0  0  0  0  0  0  0  0  0  0  0
   -4.2450    6.6517   -3.1097 O   0  0  0  0  0  0  0  0  0  0  0  0
   -2.7899    8.6020   -2.7888 O   0  0  0  0  0  0  0  0  0  0  0  0
   -4.0224    7.8300   -0.8106 O   0  0  0  0  0  0  0  0  0  0  0  0
   -2.4722    6.2297   -1.6021 O   0  0  0  0  0  0  0  0  0  0  0  0
   -1.2218    6.8360   -1.0878 P   0  0  1  0  0  0  0  0  0  0  0  0
   -0.4641    7.3788   -2.2398 O   0  0  0  0  0  0  0  0  0  0  0  0
   -1.5401    7.9418   -0.1548 O   0  0  0  0  0  0  0  0  0  0  0  0
   -0.4231    5.8002   -0.3858 O   0  0  0  0  0  0  0  0  0  0  0  0
   -0.8161    5.2474    0.9321 P   0  0  1  0  0  0  0  0  0  0  0  0
   -0.4013    6.0598    2.0938 O   0  0  0  0  0  0  0  0  0  0  0  0
   -2.1961    4.7176    1.0046 O   0  0  0  0  0  0  0  0  0  0  0  0
    0.1303    3.9418    1.0681 O   0  0  0  0  0  0  0  0  0  0  0  0
    1.5424    4.0209    1.0213 C   0  0  0  0  0  0  0  0  0  0  0  0
    2.2099    2.6390    0.9866 C   0  0  1  0  0  0  0  0  0  0  0  0
    1.2998    1.6441    1.4086 O   0  0  0  0  0  0  0  0  0  0  0  0
    2.5561    2.1528   -0.4317 C   0  0  1  0  0  0  0  0  0  0  0  0
    3.7118    2.7352   -1.0107 O   0  0  0  0  0  0  0  0  0  0  0  0
    2.6776    0.6383   -0.2654 C   0  0  1  0  0  0  0  0  0  0  0  0
    4.0044    0.2373    0.0279 O   0  0  0  0  0  0  0  0  0  0  0  0
    1.8091    0.3979    0.9679 C   0  0  2  0  0  0  0  0  0  0  0  0
    0.7269   -0.5950    0.7977 N   0  0  0  0  0  0  0  0  0  0  0  0
   -0.4361   -0.7764    1.5027 C   0  0  0  0  0  0  0  0  0  0  0  0
   -1.1234   -1.8269    1.1355 N   0  0  0  0  0  0  0  0  0  0  0  0
   -0.3789   -2.3726    0.0941 C   0  0  0  0  0  0  0  0  0  0  0  0
   -0.5905   -3.5529   -0.6884 C   0  0  0  0  0  0  0  0  0  0  0  0
   -1.4908   -4.3816   -0.5707 O   0  0  0  0  0  0  0  0  0  0  0  0
    0.3886   -3.7326   -1.6747 N   0  0  0  0  0  0  0  0  0  0  0  0
    1.4311   -2.8453   -1.8960 C   0  0  0  0  0  0  0  0  0  0  0  0
    2.2399   -3.0723   -2.9371 N   0  0  0  0  0  0  0  0  0  0  0  0
    1.6529   -1.7657   -1.1285 N   0  0  0  0  0  0  0  0  0  0  0  0
    0.7226   -1.5875   -0.1511 C   0  0  0  0  0  0  0  0  0  0  0  0
  1  2  2  0  0  0  0
  1  4  1  0  0  0  0
  1  3  1  0  0  0  0
  5  1  1  0  0  0  0
  6  7  2  6  0  0  0
  6  9  1  0  0  0  0
  6  5  1  0  0  0  0
  6  8  1  0  0  0  0
 10 11  2  1  0  0  0
 10 12  1  0  0  0  0
 10 13  1  0  0  0  0
 10  9  1  0  0  0  0
 13 14  1  0  0  0  0
 15 14  1  6  0  0  0
 15 16  1  0  0  0  0
 17 19  1  0  0  0  0
 17 15  1  0  0  0  0
 17 18  1  1  0  0  0
 19 21  1  0  0  0  0
 19 20  1  1  0  0  0
 21 16  1  0  0  0  0
 21 22  1  6  0  0  0
 22 32  1  0  0  0  0
 23 22  1  0  0  0  0
 23 24  2  0  0  0  0
 24 25  1  0  0  0  0
 25 26  1  0  0  0  0
 26 27  2  0  0  0  0
 26 28  1  0  0  0  0
 29 28  1  0  0  0  0
 29 30  1  0  0  0  0
 31 29  2  0  0  0  0
 32 25  2  0  0  0  0
 32 31  1  0  0  0  0
M  END
>  <CHROM.1>
153.47513134,-71.92127774,-70.85078235,58.28390502,-83.49892721,-172.46151206
-17.56540447,62.00092410,-60.70043981,-34.33783397,-0.23545468,2.85412464
-0.43619089,1.94118400,-0.40600609,0.08413410

>  <Name>
lig.pdb

>  <RI>
1.2169e+07

>  <Rbt.Current_Directory>
/home/itssahil/PROJECTS/Mol_Feturizer/New_Systems/rnas/5lwj

>  <Rbt.Executable>
rbdock ($Id: //depot/dev/client3/rdock/2013.1/src/exe/rbdock.cxx#4 $)

>  <Rbt.Library>
libRbt.so (2013.1, Build901 2013/11/27)

>  <Rbt.Parameter_File>
/export/apps/rDock/src/rDock_2013.1_src/data/scripts/dock_solv.prm

>  <Rbt.Receptor>
prm/blind_docking_40.prm

>  <SCORE>
-29.9599

>  <SCORE.INTER>
-29.412

>  <SCORE.INTER.CONST>
1

>  <SCORE.INTER.POLAR>
-1.57452

>  <SCORE.INTER.ROT>
8

>  <SCORE.INTER.SOLV>
22.6165

>  <SCORE.INTER.VDW>
-30.8317

>  <SCORE.INTER.norm>
-0.919124

>  <SCORE.INTRA>
-3.49698

>  <SCORE.INTRA.DIHEDRAL>
-2.11237

>  <SCORE.INTRA.DIHEDRAL.0>
10.9248

>  <SCORE.INTRA.POLAR>
0

>  <SCORE.INTRA.POLAR.0>
0

>  <SCORE.INTRA.REPUL>
0

>  <SCORE.INTRA.REPUL.0>
0

>  <SCORE.INTRA.SOLV>
-0.712835

>  <SCORE.INTRA.SOLV.lig_0>
-51.4104

>  <SCORE.INTRA.VDW>
-2.08438

>  <SCORE.INTRA.VDW.0>
0.110327

>  <SCORE.INTRA.norm>
-0.109281

>  <SCORE.RESTR>
2.949

>  <SCORE.RESTR.CAVITY>
2.949

>  <SCORE.RESTR.norm>
0.0921563

>  <SCORE.SYSTEM>
0

>  <SCORE.SYSTEM.CONST>
0

>  <SCORE.SYSTEM.DIHEDRAL>
0

>  <SCORE.SYSTEM.SOLV>
0

>  <SCORE.SYSTEM.norm>
0

>  <SCORE.heavy>
32

>  <SCORE.norm>
-0.936248

>  <RMSD>
15.246

$$$$
lig.pdb
 OpenBabel11021811523D
libRbt.so/2013.1/901 2013/11/27
 32 34  0  0  0  0  0  0  0  0999 V2000
   -1.5714    8.2202   -3.0278 P   0  0  0  0  0  0  0  0  0  0  0  0
   -1.3349    8.1480   -4.5167 O   0  0  0  0  0  0  0  0  0  0  0  0
   -0.9023    9.6398   -2.6163 O   0  0  0  0  0  0  0  0  0  0  0  0
   -2.9895    8.3497   -2.5303 O   0  0  0  0  0  0  0  0  0  0  0  0
   -1.0652    6.9768   -2.4797 O   0  0  0  0  0  0  0  0  0  0  0  0
   -0.6651    7.1852   -1.0683 P   0  0  1  0  0  0  0  0  0  0  0  0
    0.5116    8.0858   -1.0502 O   0  0  0  0  0  0  0  0  0  0  0  0
   -1.7715    7.8208   -0.3155 O   0  0  0  0  0  0  0  0  0  0  0  0
   -0.3247    5.8777   -0.4533 O   0  0  0  0  0  0  0  0  0  0  0  0
   -0.4442    5.6257    1.0024 P   0  0  1  0  0  0  0  0  0  0  0  0
    0.5647    6.3115    1.8352 O   0  0  0  0  0  0  0  0  0  0  0  0
   -1.8240    5.6683    1.5357 O   0  0  0  0  0  0  0  0  0  0  0  0
   -0.0034    4.0742    1.1335 O   0  0  0  0  0  0  0  0  0  0  0  0
    1.3277    3.6437    0.9206 C   0  0  0  0  0  0  0  0  0  0  0  0
    1.4093    2.1773    0.4740 C   0  0  1  0  0  0  0  0  0  0  0  0
    2.0030    2.0865   -0.8049 O   0  0  0  0  0  0  0  0  0  0  0  0
    2.3729    1.3246    1.3179 C   0  0  1  0  0  0  0  0  0  0  0  0
    1.8797    0.9206    2.5843 O   0  0  0  0  0  0  0  0  0  0  0  0
    2.6910    0.1423    0.4029 C   0  0  1  0  0  0  0  0  0  0  0  0
    1.8025   -0.9429    0.6031 O   0  0  0  0  0  0  0  0  0  0  0  0
    2.4255    0.7453   -0.9752 C   0  0  2  0  0  0  0  0  0  0  0  0
    3.5466    0.6527   -1.9346 N   0  0  0  0  0  0  0  0  0  0  0  0
    4.2756    1.6373   -2.5522 C   0  0  0  0  0  0  0  0  0  0  0  0
    5.1400    1.1914   -3.4266 N   0  0  0  0  0  0  0  0  0  0  0  0
    4.9957   -0.1917   -3.3716 C   0  0  0  0  0  0  0  0  0  0  0  0
    5.6364   -1.2294   -4.1217 C   0  0  0  0  0  0  0  0  0  0  0  0
    6.4521   -1.1045   -5.0330 O   0  0  0  0  0  0  0  0  0  0  0  0
    5.2282   -2.5120   -3.7316 N   0  0  0  0  0  0  0  0  0  0  0  0
    4.3281   -2.7549   -2.7050 C   0  0  0  0  0  0  0  0  0  0  0  0
    4.0999   -4.0261   -2.3564 N   0  0  0  0  0  0  0  0  0  0  0  0
    3.6937   -1.7776   -2.0371 N   0  0  0  0  0  0  0  0  0  0  0  0
    4.0627   -0.5242   -2.4183 C   0  0  0  0  0  0  0  0  0  0  0  0
  1  2  2  0  0  0  0
  1  4  1  0  0  0  0
  1  3  1  0  0  0  0
  5  1  1  0  0  0  0
  6  7  2  1  0  0  0
  6  9  1  0  0  0  0
  6  5  1  0  0  0  0
  6  8  1  0  0  0  0
 10 11  2  1  0  0  0
 10 12  1  0  0  0  0
 10 13  1  0  0  0  0
 10  9  1  0  0  0  0
 13 14  1  0  0  0  0
 15 14  1  1  0  0  0
 15 16  1  0  0  0  0
 17 19  1  0  0  0  0
 17 15  1  0  0  0  0
 17 18  1  1  0  0  0
 19 21  1  0  0  0  0
 19 20  1  1  0  0  0
 21 16  1  0  0  0  0
 21 22  1  6  0  0  0
 22 32  1  0  0  0  0
 23 22  1  0  0  0  0
 23 24  2  0  0  0  0
 24 25  1  0  0  0  0
 25 26  1  0  0  0  0
 26 27  2  0  0  0  0
 26 28  1  0  0  0  0
 29 28  1  0  0  0  0
 29 30  1  0  0  0  0
 31 29  2  0  0  0  0
 32 25  2  0  0  0  0
 32 31  1  0  0  0  0
M  END
>  <CHROM.1>
153.64191553,-153.41487438,-67.47227476,69.38012686,-71.35646783,-154.04282778
118.83565157,-57.54920619,-55.46997224,6.58453053,1.35777611,3.41439607,-1.22992203
-2.78782042,-0.97591083,2.10539619

>  <Name>
lig.pdb

>  <RI>
1.2169e+07

>  <Rbt.Current_Directory>
/home/itssahil/PROJECTS/Mol_Feturizer/New_Systems/rnas/5lwj

>  <Rbt.Executable>
rbdock ($Id: //depot/dev/client3/rdock/2013.1/src/exe/rbdock.cxx#4 $)

>  <Rbt.Library>
libRbt.so (2013.1, Build901 2013/11/27)

>  <Rbt.Parameter_File>
/export/apps/rDock/src/rDock_2013.1_src/data/scripts/dock_solv.prm

>  <Rbt.Receptor>
prm/blind_docking_40.prm

>  <SCORE>
-35.0039

>  <SCORE.INTER>
-34.5006

>  <SCORE.INTER.CONST>
1

>  <SCORE.INTER.POLAR>
-2.12653

>  <SCORE.INTER.ROT>
8

>  <SCORE.INTER.SOLV>
25.4616

>  <SCORE.INTER.VDW>
-33.3325

>  <SCORE.INTER.norm>
-1.07815

>  <SCORE.INTRA>
-2.13185

>  <SCORE.INTRA.DIHEDRAL>
1.96191

>  <SCORE.INTRA.DIHEDRAL.0>
10.9248

>  <SCORE.INTRA.POLAR>
-0.0174565

>  <SCORE.INTRA.POLAR.0>
0

>  <SCORE.INTRA.REPUL>
0

>  <SCORE.INTRA.REPUL.0>
0

>  <SCORE.INTRA.SOLV>
-1.30422

>  <SCORE.INTRA.SOLV.lig_0>
-51.4104

>  <SCORE.INTRA.VDW>
-2.40134

>  <SCORE.INTRA.VDW.0>
0.110327

>  <SCORE.INTRA.norm>
-0.0666203

>  <SCORE.RESTR>
1.62855

>  <SCORE.RESTR.CAVITY>
1.62855

>  <SCORE.RESTR.norm>
0.0508921

>  <SCORE.SYSTEM>
0

>  <SCORE.SYSTEM.CONST>
0

>  <SCORE.SYSTEM.DIHEDRAL>
0

>  <SCORE.SYSTEM.SOLV>
0

>  <SCORE.SYSTEM.norm>
0

>  <SCORE.heavy>
32

>  <SCORE.norm>
-1.09387

>  <RMSD>
15.253

$$$$
lig.pdb
 OpenBabel11021811523D
libRbt.so/2013.1/901 2013/11/27
 32 34  0  0  0  0  0  0  0  0999 V2000
    2.6261   -0.4437   -0.3129 P   0  0  0  0  0  0  0  0  0  0  0  0
    3.8040   -0.3552    0.6266 O   0  0  0  0  0  0  0  0  0  0  0  0
    3.3260   -0.5686   -1.7713 O   0  0  0  0  0  0  0  0  0  0  0  0
    1.7441   -1.6655   -0.2473 O   0  0  0  0  0  0  0  0  0  0  0  0
    1.7731    0.6853    0.0044 O   0  0  0  0  0  0  0  0  0  0  0  0
    2.3161    1.9091   -0.6303 P   0  0  1  0  0  0  0  0  0  0  0  0
    3.6935    2.1188   -0.1255 O   0  0  0  0  0  0  0  0  0  0  0  0
    2.3612    1.7408   -2.1015 O   0  0  0  0  0  0  0  0  0  0  0  0
    1.4564    3.0685   -0.2831 O   0  0  0  0  0  0  0  0  0  0  0  0
    1.2784    3.5402    1.1107 P   0  0  1  0  0  0  0  0  0  0  0  0
    1.0606    2.4693    2.1045 O   0  0  0  0  0  0  0  0  0  0  0  0
    2.2139    4.6043    1.5378 O   0  0  0  0  0  0  0  0  0  0  0  0
   -0.1681    4.2641    1.0604 O   0  0  0  0  0  0  0  0  0  0  0  0
   -0.3193    5.6342    0.7405 C   0  0  0  0  0  0  0  0  0  0  0  0
   -1.7696    6.0038    0.3993 C   0  0  1  0  0  0  0  0  0  0  0  0
   -2.2930    5.1043   -0.5565 O   0  0  0  0  0  0  0  0  0  0  0  0
   -2.7507    5.8097    1.5687 C   0  0  1  0  0  0  0  0  0  0  0  0
   -2.7190    6.8181    2.5648 O   0  0  0  0  0  0  0  0  0  0  0  0
   -4.1092    5.7060    0.8759 C   0  0  1  0  0  0  0  0  0  0  0  0
   -4.7454    6.9661    0.7550 O   0  0  0  0  0  0  0  0  0  0  0  0
   -3.7036    5.2262   -0.5165 C   0  0  2  0  0  0  0  0  0  0  0  0
   -4.3635    3.9858   -0.9769 N   0  0  0  0  0  0  0  0  0  0  0  0
   -4.3246    2.7127   -0.4669 C   0  0  0  0  0  0  0  0  0  0  0  0
   -4.9578    1.8281   -1.1931 N   0  0  0  0  0  0  0  0  0  0  0  0
   -5.4778    2.5673   -2.2513 C   0  0  0  0  0  0  0  0  0  0  0  0
   -6.2319    2.1570   -3.3972 C   0  0  0  0  0  0  0  0  0  0  0  0
   -6.5557    1.0143   -3.7144 O   0  0  0  0  0  0  0  0  0  0  0  0
   -6.5970    3.2314   -4.2195 N   0  0  0  0  0  0  0  0  0  0  0  0
   -6.2938    4.5549   -3.9376 C   0  0  0  0  0  0  0  0  0  0  0  0
   -6.7899    5.4994   -4.7448 N   0  0  0  0  0  0  0  0  0  0  0  0
   -5.5453    4.9300   -2.8875 N   0  0  0  0  0  0  0  0  0  0  0  0
   -5.1636    3.8958   -2.0891 C   0  0  0  0  0  0  0  0  0  0  0  0
  1  2  2  0  0  0  0
  1  4  1  0  0  0  0
  1  3  1  0  0  0  0
  5  1  1  0  0  0  0
  6  7  2  1  0  0  0
  6  9  1  0  0  0  0
  6  5  1  0  0  0  0
  6  8  1  0  0  0  0
 10 11  2  1  0  0  0
 10 12  1  0  0  0  0
 10 13  1  0  0  0  0
 10  9  1  0  0  0  0
 13 14  1  0  0  0  0
 15 14  1  1  0  0  0
 15 16  1  0  0  0  0
 17 19  1  0  0  0  0
 17 15  1  0  0  0  0
 17 18  1  1  0  0  0
 19 21  1  0  0  0  0
 19 20  1  6  0  0  0
 21 16  1  0  0  0  0
 21 22  1  1  0  0  0
 22 32  1  0  0  0  0
 23 22  1  0  0  0  0
 23 24  2  0  0  0  0
 24 25  1  0  0  0  0
 25 26  1  0  0  0  0
 26 27  2  0  0  0  0
 26 28  1  0  0  0  0
 29 28  1  0  0  0  0
 29 30  1  0  0  0  0
 31 29  2  0  0  0  0
 32 25  2  0  0  0  0
 32 31  1  0  0  0  0
M  END
>  <CHROM.1>
79.80929194,62.82833970,-58.65189655,-89.32103403,-44.11713686,165.05659774
-49.94333296,-53.79267595,-179.30948400,61.86603658,-1.25617430,3.09240590
-0.59945588,0.14925287,0.42018311,-2.51849630

>  <Name>
lig.pdb

>  <RI>
2.72908e+07

>  <Rbt.Current_Directory>
/home/itssahil/PROJECTS/Mol_Feturizer/New_Systems/rnas/5lwj

>  <Rbt.Executable>
rbdock ($Id: //depot/dev/client3/rdock/2013.1/src/exe/rbdock.cxx#4 $)

>  <Rbt.Library>
libRbt.so (2013.1, Build901 2013/11/27)

>  <Rbt.Parameter_File>
/export/apps/rDock/src/rDock_2013.1_src/data/scripts/dock_solv.prm

>  <Rbt.Receptor>
prm/blind_docking_20.prm

>  <SCORE>
-24.7919

>  <SCORE.INTER>
-23.8025

>  <SCORE.INTER.CONST>
1

>  <SCORE.INTER.POLAR>
-2.582

>  <SCORE.INTER.ROT>
8

>  <SCORE.INTER.SOLV>
23.8572

>  <SCORE.INTER.VDW>
-24.1474

>  <SCORE.INTER.norm>
-0.743828

>  <SCORE.INTRA>
-4.45608

>  <SCORE.INTRA.DIHEDRAL>
-3.71269

>  <SCORE.INTRA.DIHEDRAL.0>
10.9248

>  <SCORE.INTRA.POLAR>
0

>  <SCORE.INTRA.POLAR.0>
0

>  <SCORE.INTRA.REPUL>
0.0359382

>  <SCORE.INTRA.REPUL.0>
0

>  <SCORE.INTRA.SOLV>
-0.382168

>  <SCORE.INTRA.SOLV.lig_0>
-51.4104

>  <SCORE.INTRA.VDW>
-2.58834

>  <SCORE.INTRA.VDW.0>
0.110327

>  <SCORE.INTRA.norm>
-0.139252

>  <SCORE.RESTR>
3.4667

>  <SCORE.RESTR.CAVITY>
3.4667

>  <SCORE.RESTR.norm>
0.108334

>  <SCORE.SYSTEM>
0

>  <SCORE.SYSTEM.CONST>
0

>  <SCORE.SYSTEM.DIHEDRAL>
0

>  <SCORE.SYSTEM.SOLV>
0

>  <SCORE.SYSTEM.norm>
0

>  <SCORE.heavy>
32

>  <SCORE.norm>
-0.774746

>  <RMSD>
15.267

$$$$
lig.pdb
 OpenBabel11021811523D
libRbt.so/2013.1/901 2013/11/27
 32 34  0  0  0  0  0  0  0  0999 V2000
    3.2268   -1.4298   -2.2443 P   0  0  0  0  0  0  0  0  0  0  0  0
    2.4888   -1.4437   -3.5608 O   0  0  0  0  0  0  0  0  0  0  0  0
    2.7788   -2.8289   -1.5555 O   0  0  0  0  0  0  0  0  0  0  0  0
    4.7323   -1.5205   -2.2628 O   0  0  0  0  0  0  0  0  0  0  0  0
    2.9081   -0.1612   -1.6182 O   0  0  0  0  0  0  0  0  0  0  0  0
    3.0276   -0.2920   -0.1471 P   0  0  1  0  0  0  0  0  0  0  0  0
    1.9892   -1.2416    0.3178 O   0  0  0  0  0  0  0  0  0  0  0  0
    4.3634   -0.8249    0.2084 O   0  0  0  0  0  0  0  0  0  0  0  0
    2.8323    1.0372    0.4843 O   0  0  0  0  0  0  0  0  0  0  0  0
    1.6907    1.3337    1.3819 P   0  0  1  0  0  0  0  0  0  0  0  0
    0.3581    1.1301    0.7781 O   0  0  0  0  0  0  0  0  0  0  0  0
    1.8311    0.8260    2.7649 O   0  0  0  0  0  0  0  0  0  0  0  0
    1.7609    2.9437    1.5288 O   0  0  0  0  0  0  0  0  0  0  0  0
    1.7058    3.8100    0.4111 C   0  0  0  0  0  0  0  0  0  0  0  0
    0.8245    5.0415    0.6621 C   0  0  1  0  0  0  0  0  0  0  0  0
    0.5318    5.6918   -0.5577 O   0  0  0  0  0  0  0  0  0  0  0  0
   -0.5870    4.7007    1.1714 C   0  0  1  0  0  0  0  0  0  0  0  0
   -0.6720    4.3497    2.5425 O   0  0  0  0  0  0  0  0  0  0  0  0
   -1.3965    5.9516    0.8304 C   0  0  1  0  0  0  0  0  0  0  0  0
   -1.4075    6.8877    1.8937 O   0  0  0  0  0  0  0  0  0  0  0  0
   -0.5844    6.5326   -0.3256 C   0  0  2  0  0  0  0  0  0  0  0  0
   -1.3410    6.7775   -1.5720 N   0  0  0  0  0  0  0  0  0  0  0  0
   -0.9662    7.4016   -2.7349 C   0  0  0  0  0  0  0  0  0  0  0  0
   -1.9326    7.5283   -3.6071 N   0  0  0  0  0  0  0  0  0  0  0  0
   -3.0253    6.9236   -2.9932 C   0  0  0  0  0  0  0  0  0  0  0  0
   -4.3816    6.7799   -3.4288 C   0  0  0  0  0  0  0  0  0  0  0  0
   -4.8895    7.2127   -4.4613 O   0  0  0  0  0  0  0  0  0  0  0  0
   -5.1716    6.0668   -2.5171 N   0  0  0  0  0  0  0  0  0  0  0  0
   -4.6865    5.5252   -1.3363 C   0  0  0  0  0  0  0  0  0  0  0  0
   -5.5150    4.7744   -0.6017 N   0  0  0  0  0  0  0  0  0  0  0  0
   -3.4258    5.7039   -0.9091 N   0  0  0  0  0  0  0  0  0  0  0  0
   -2.6496    6.4134   -1.7731 C   0  0  0  0  0  0  0  0  0  0  0  0
  1  2  2  0  0  0  0
  1  4  1  0  0  0  0
  1  3  1  0  0  0  0
  5  1  1  0  0  0  0
  6  7  2  1  0  0  0
  6  9  1  0  0  0  0
  6  5  1  0  0  0  0
  6  8  1  0  0  0  0
 10 11  2  6  0  0  0
 10 12  1  0  0  0  0
 10 13  1  0  0  0  0
 10  9  1  0  0  0  0
 13 14  1  0  0  0  0
 15 14  1  6  0  0  0
 15 16  1  0  0  0  0
 17 19  1  0  0  0  0
 17 15  1  0  0  0  0
 17 18  1  1  0  0  0
 19 21  1  0  0  0  0
 19 20  1  1  0  0  0
 21 16  1  0  0  0  0
 21 22  1  6  0  0  0
 22 32  1  0  0  0  0
 23 22  1  0  0  0  0
 23 24  2  0  0  0  0
 24 25  1  0  0  0  0
 25 26  1  0  0  0  0
 26 27  2  0  0  0  0
 26 28  1  0  0  0  0
 29 28  1  0  0  0  0
 29 30  1  0  0  0  0
 31 29  2  0  0  0  0
 32 25  2  0  0  0  0
 32 31  1  0  0  0  0
M  END
>  <CHROM.1>
153.71888858,115.52545170,-65.24430200,57.37971457,-58.08973354,138.31770803
-165.49875719,-45.66577403,-163.76114010,-63.08454253,0.20764034,2.97897905
-0.63372100,0.25378075,0.84161286,-2.04420263

>  <Name>
lig.pdb

>  <RI>
1.2169e+07

>  <Rbt.Current_Directory>
/home/itssahil/PROJECTS/Mol_Feturizer/New_Systems/rnas/5lwj

>  <Rbt.Executable>
rbdock ($Id: //depot/dev/client3/rdock/2013.1/src/exe/rbdock.cxx#4 $)

>  <Rbt.Library>
libRbt.so (2013.1, Build901 2013/11/27)

>  <Rbt.Parameter_File>
/export/apps/rDock/src/rDock_2013.1_src/data/scripts/dock_solv.prm

>  <Rbt.Receptor>
prm/blind_docking_40.prm

>  <SCORE>
-3.59147

>  <SCORE.INTER>
-2.42347

>  <SCORE.INTER.CONST>
1

>  <SCORE.INTER.POLAR>
-1.11801

>  <SCORE.INTER.ROT>
8

>  <SCORE.INTER.SOLV>
22.6468

>  <SCORE.INTER.VDW>
-14.3712

>  <SCORE.INTER.norm>
-0.0757333

>  <SCORE.INTRA>
-1.41553

>  <SCORE.INTRA.DIHEDRAL>
3.77749

>  <SCORE.INTRA.DIHEDRAL.0>
10.9248

>  <SCORE.INTRA.POLAR>
-0.458924

>  <SCORE.INTRA.POLAR.0>
0

>  <SCORE.INTRA.REPUL>
0

>  <SCORE.INTRA.REPUL.0>
0

>  <SCORE.INTRA.SOLV>
0.529164

>  <SCORE.INTRA.SOLV.lig_0>
-51.4104

>  <SCORE.INTRA.VDW>
-2.00851

>  <SCORE.INTRA.VDW.0>
0.110327

>  <SCORE.INTRA.norm>
-0.0442352

>  <SCORE.RESTR>
0.247522

>  <SCORE.RESTR.CAVITY>
0.247522

>  <SCORE.RESTR.norm>
0.00773506

>  <SCORE.SYSTEM>
0

>  <SCORE.SYSTEM.CONST>
0

>  <SCORE.SYSTEM.DIHEDRAL>
0

>  <SCORE.SYSTEM.SOLV>
0

>  <SCORE.SYSTEM.norm>
0

>  <SCORE.heavy>
32

>  <SCORE.norm>
-0.112233

>  <RMSD>
15.275

$$$$
lig.pdb
 OpenBabel11021811523D
libRbt.so/2013.1/901 2013/11/27
 32 34  0  0  0  0  0  0  0  0999 V2000
    1.6403   -2.1156   -0.5217 P   0  0  0  0  0  0  0  0  0  0  0  0
    1.7196   -2.8787   -1.8215 O   0  0  0  0  0  0  0  0  0  0  0  0
    0.3773   -2.8009    0.2319 O   0  0  0  0  0  0  0  0  0  0  0  0
    2.7628   -2.2721    0.4737 O   0  0  0  0  0  0  0  0  0  0  0  0
    1.6146   -0.7110   -0.8812 O   0  0  0  0  0  0  0  0  0  0  0  0
    0.7693    0.0308    0.0835 P   0  0  1  0  0  0  0  0  0  0  0  0
   -0.6180   -0.4771   -0.0326 O   0  0  0  0  0  0  0  0  0  0  0  0
    1.2538   -0.1987    1.4645 O   0  0  0  0  0  0  0  0  0  0  0  0
    0.8168    1.4807   -0.2315 O   0  0  0  0  0  0  0  0  0  0  0  0
    2.0878    2.2401   -0.3029 P   0  0  1  0  0  0  0  0  0  0  0  0
    2.9695    2.0849    0.8719 O   0  0  0  0  0  0  0  0  0  0  0  0
    2.7786    2.1864   -1.6106 O   0  0  0  0  0  0  0  0  0  0  0  0
    1.5946    3.7751   -0.1643 O   0  0  0  0  0  0  0  0  0  0  0  0
    1.2546    4.3525    1.0822 C   0  0  0  0  0  0  0  0  0  0  0  0
    0.3347    5.5726    0.9358 C   0  0  1  0  0  0  0  0  0  0  0  0
    0.5874    6.2333   -0.2873 O   0  0  0  0  0  0  0  0  0  0  0  0
   -1.1538    5.2128    0.7853 C   0  0  1  0  0  0  0  0  0  0  0  0
   -1.8165    4.8461    1.9839 O   0  0  0  0  0  0  0  0  0  0  0  0
   -1.7541    6.4594    0.1358 C   0  0  1  0  0  0  0  0  0  0  0  0
   -2.2346    7.3838    1.0958 O   0  0  0  0  0  0  0  0  0  0  0  0
   -0.5310    7.0607   -0.5541 C   0  0  2  0  0  0  0  0  0  0  0  0
   -0.6801    7.3118   -2.0035 N   0  0  0  0  0  0  0  0  0  0  0  0
    0.2461    7.6869   -2.9436 C   0  0  0  0  0  0  0  0  0  0  0  0
   -0.2595    7.9171   -4.1277 N   0  0  0  0  0  0  0  0  0  0  0  0
   -1.6172    7.6530   -3.9741 C   0  0  0  0  0  0  0  0  0  0  0  0
   -2.7022    7.7633   -4.9018 C   0  0  0  0  0  0  0  0  0  0  0  0
   -2.6612    8.1670   -6.0622 O   0  0  0  0  0  0  0  0  0  0  0  0
   -3.9281    7.3637   -4.3528 N   0  0  0  0  0  0  0  0  0  0  0  0
   -4.0724    6.8784   -3.0618 C   0  0  0  0  0  0  0  0  0  0  0  0
   -5.2763    6.4290   -2.6898 N   0  0  0  0  0  0  0  0  0  0  0  0
   -3.0607    6.8224   -2.1803 N   0  0  0  0  0  0  0  0  0  0  0  0
   -1.8658    7.2274   -2.6907 C   0  0  0  0  0  0  0  0  0  0  0  0
  1  2  2  0  0  0  0
  1  4  1  0  0  0  0
  1  3  1  0  0  0  0
  5  1  1  0  0  0  0
  6  7  2  6  0  0  0
  6  9  1  0  0  0  0
  6  5  1  0  0  0  0
  6  8  1  0  0  0  0
 10 11  2  1  0  0  0
 10 12  1  0  0  0  0
 10 13  1  0  0  0  0
 10  9  1  0  0  0  0
 13 14  1  0  0  0  0
 15 14  1  6  0  0  0
 15 16  1  0  0  0  0
 17 19  1  0  0  0  0
 17 15  1  0  0  0  0
 17 18  1  1  0  0  0
 19 21  1  0  0  0  0
 19 20  1  1  0  0  0
 21 16  1  0  0  0  0
 21 22  1  6  0  0  0
 22 32  1  0  0  0  0
 23 22  1  0  0  0  0
 23 24  2  0  0  0  0
 24 25  1  0  0  0  0
 25 26  1  0  0  0  0
 26 27  2  0  0  0  0
 26 28  1  0  0  0  0
 29 28  1  0  0  0  0
 29 30  1  0  0  0  0
 31 29  2  0  0  0  0
 32 25  2  0  0  0  0
 32 31  1  0  0  0  0
M  END
>  <CHROM.1>
146.04172930,-56.12888628,-63.48171957,78.96932669,-51.32783442,-157.95360207
-30.23434246,52.75647779,-164.21533351,-47.24838656,-0.12131525,3.47075317
-0.97511254,0.65543191,1.03514390,-2.61328570

>  <Name>
lig.pdb

>  <RI>
4.14043e+07

>  <Rbt.Current_Directory>
/home/itssahil/PROJECTS/Mol_Feturizer/New_Systems/rnas/5lwj

>  <Rbt.Executable>
rbdock ($Id: //depot/dev/client3/rdock/2013.1/src/exe/rbdock.cxx#4 $)

>  <Rbt.Library>
libRbt.so (2013.1, Build901 2013/11/27)

>  <Rbt.Parameter_File>
/export/apps/rDock/src/rDock_2013.1_src/data/scripts/dock_solv.prm

>  <Rbt.Receptor>
prm/blind_docking_80.prm

>  <SCORE>
-27.8039

>  <SCORE.INTER>
-26.8212

>  <SCORE.INTER.CONST>
1

>  <SCORE.INTER.POLAR>
-2.04173

>  <SCORE.INTER.ROT>
8

>  <SCORE.INTER.SOLV>
22.7679

>  <SCORE.INTER.VDW>
-27.5976

>  <SCORE.INTER.norm>
-0.838162

>  <SCORE.INTRA>
-2.19877

>  <SCORE.INTRA.DIHEDRAL>
0.286836

>  <SCORE.INTRA.DIHEDRAL.0>
10.9248

>  <SCORE.INTRA.POLAR>
0

>  <SCORE.INTRA.POLAR.0>
0

>  <SCORE.INTRA.REPUL>
0

>  <SCORE.INTRA.REPUL.0>
0

>  <SCORE.INTRA.SOLV>
-0.38286

>  <SCORE.INTRA.SOLV.lig_0>
-51.4104

>  <SCORE.INTRA.VDW>
-2.15075

>  <SCORE.INTRA.VDW.0>
0.110327

>  <SCORE.INTRA.norm>
-0.0687114

>  <SCORE.RESTR>
1.21605

>  <SCORE.RESTR.CAVITY>
1.21605

>  <SCORE.RESTR.norm>
0.0380015

>  <SCORE.SYSTEM>
0

>  <SCORE.SYSTEM.CONST>
0

>  <SCORE.SYSTEM.DIHEDRAL>
0

>  <SCORE.SYSTEM.SOLV>
0

>  <SCORE.SYSTEM.norm>
0

>  <SCORE.heavy>
32

>  <SCORE.norm>
-0.868871

>  <RMSD>
15.286

$$$$
lig.pdb
 OpenBabel11021811523D
libRbt.so/2013.1/901 2013/11/27
 32 34  0  0  0  0  0  0  0  0999 V2000
   -0.6998    7.7513   -2.3475 P   0  0  0  0  0  0  0  0  0  0  0  0
   -0.3270    7.5352   -3.7939 O   0  0  0  0  0  0  0  0  0  0  0  0
    0.7317    8.0245   -1.6344 O   0  0  0  0  0  0  0  0  0  0  0  0
   -1.5042    8.9754   -1.9873 O   0  0  0  0  0  0  0  0  0  0  0  0
   -1.5108    6.6111   -1.9667 O   0  0  0  0  0  0  0  0  0  0  0  0
   -1.3638    6.3631   -0.5132 P   0  0  1  0  0  0  0  0  0  0  0  0
   -1.6581    7.6267    0.2028 O   0  0  0  0  0  0  0  0  0  0  0  0
   -2.3254    5.3246   -0.0756 O   0  0  0  0  0  0  0  0  0  0  0  0
    0.0227    5.9173   -0.2261 O   0  0  0  0  0  0  0  0  0  0  0  0
    0.5976    5.9294    1.1400 P   0  0  1  0  0  0  0  0  0  0  0  0
    1.7358    6.8523    1.3255 O   0  0  0  0  0  0  0  0  0  0  0  0
   -0.3941    5.9361    2.2385 O   0  0  0  0  0  0  0  0  0  0  0  0
    1.3088    4.4793    1.2408 O   0  0  0  0  0  0  0  0  0  0  0  0
    0.6212    3.2761    0.9539 C   0  0  0  0  0  0  0  0  0  0  0  0
    1.4632    2.0288    1.2565 C   0  0  1  0  0  0  0  0  0  0  0  0
    0.7217    0.8580    0.9815 O   0  0  0  0  0  0  0  0  0  0  0  0
    2.6697    1.8522    0.3179 C   0  0  1  0  0  0  0  0  0  0  0  0
    3.7847    2.6828    0.5954 O   0  0  0  0  0  0  0  0  0  0  0  0
    2.9965    0.3641    0.4400 C   0  0  1  0  0  0  0  0  0  0  0  0
    3.9481    0.1073    1.4577 O   0  0  0  0  0  0  0  0  0  0  0  0
    1.6483   -0.2079    0.8741 C   0  0  2  0  0  0  0  0  0  0  0  0
    1.1187   -1.2969    0.0258 N   0  0  0  0  0  0  0  0  0  0  0  0
   -0.1084   -1.9105    0.0252 C   0  0  0  0  0  0  0  0  0  0  0  0
   -0.2014   -2.9151   -0.8072 N   0  0  0  0  0  0  0  0  0  0  0  0
    1.0448   -2.9607   -1.4248 C   0  0  0  0  0  0  0  0  0  0  0  0
    1.5725   -3.8660   -2.4005 C   0  0  0  0  0  0  0  0  0  0  0  0
    1.0230   -4.8530   -2.8853 O   0  0  0  0  0  0  0  0  0  0  0  0
    2.8779   -3.5404   -2.7927 N   0  0  0  0  0  0  0  0  0  0  0  0
    3.5733   -2.4392   -2.3164 C   0  0  0  0  0  0  0  0  0  0  0  0
    4.7725   -2.1749   -2.8472 N   0  0  0  0  0  0  0  0  0  0  0  0
    3.0926   -1.6211   -1.3659 N   0  0  0  0  0  0  0  0  0  0  0  0
    1.8329   -1.9357   -0.9576 C   0  0  0  0  0  0  0  0  0  0  0  0
  1  2  2  0  0  0  0
  1  4  1  0  0  0  0
  1  3  1  0  0  0  0
  5  1  1  0  0  0  0
  6  7  2  1  0  0  0
  6  9  1  0  0  0  0
  6  5  1  0  0  0  0
  6  8  1  0  0  0  0
 10 11  2  1  0  0  0
 10 12  1  0  0  0  0
 10 13  1  0  0  0  0
 10  9  1  0  0  0  0
 13 14  1  0  0  0  0
 15 14  1  6  0  0  0
 15 16  1  0  0  0  0
 17 19  1  0  0  0  0
 17 15  1  0  0  0  0
 17 18  1  1  0  0  0
 19 21  1  0  0  0  0
 19 20  1  1  0  0  0
 21 16  1  0  0  0  0
 21 22  1  6  0  0  0
 22 32  1  0  0  0  0
 23 22  1  0  0  0  0
 23 24  2  0  0  0  0
 24 25  1  0  0  0  0
 25 26  1  0  0  0  0
 26 27  2  0  0  0  0
 26 28  1  0  0  0  0
 29 28  1  0  0  0  0
 29 30  1  0  0  0  0
 31 29  2  0  0  0  0
 32 25  2  0  0  0  0
 32 31  1  0  0  0  0
M  END
>  <CHROM.1>
151.91435744,163.50920316,53.20556505,-52.58827646,-115.59942346,-174.21121665
178.70223682,65.76445733,170.07255732,-46.77536327,0.86070046,2.79037118
-0.53035356,2.12767247,-1.01078710,0.54187747

>  <Name>
lig.pdb

>  <RI>
1.2169e+07

>  <Rbt.Current_Directory>
/home/itssahil/PROJECTS/Mol_Feturizer/New_Systems/rnas/5lwj

>  <Rbt.Executable>
rbdock ($Id: //depot/dev/client3/rdock/2013.1/src/exe/rbdock.cxx#4 $)

>  <Rbt.Library>
libRbt.so (2013.1, Build901 2013/11/27)

>  <Rbt.Parameter_File>
/export/apps/rDock/src/rDock_2013.1_src/data/scripts/dock_solv.prm

>  <Rbt.Receptor>
prm/blind_docking_40.prm

>  <SCORE>
-18.6172

>  <SCORE.INTER>
-16.1835

>  <SCORE.INTER.CONST>
1

>  <SCORE.INTER.POLAR>
-0.148938

>  <SCORE.INTER.ROT>
8

>  <SCORE.INTER.SOLV>
26.4426

>  <SCORE.INTER.VDW>
-28.0401

>  <SCORE.INTER.norm>
-0.505733

>  <SCORE.INTRA>
-4.14625

>  <SCORE.INTRA.DIHEDRAL>
-3.82461

>  <SCORE.INTRA.DIHEDRAL.0>
10.9248

>  <SCORE.INTRA.POLAR>
-0.033199

>  <SCORE.INTRA.POLAR.0>
0

>  <SCORE.INTRA.REPUL>
0

>  <SCORE.INTRA.REPUL.0>
0

>  <SCORE.INTRA.SOLV>
0.349735

>  <SCORE.INTRA.SOLV.lig_0>
-51.4104

>  <SCORE.INTRA.VDW>
-2.29594

>  <SCORE.INTRA.VDW.0>
0.110327

>  <SCORE.INTRA.norm>
-0.12957

>  <SCORE.RESTR>
1.71248

>  <SCORE.RESTR.CAVITY>
1.71248

>  <SCORE.RESTR.norm>
0.0535149

>  <SCORE.SYSTEM>
0

>  <SCORE.SYSTEM.CONST>
0

>  <SCORE.SYSTEM.DIHEDRAL>
0

>  <SCORE.SYSTEM.SOLV>
0

>  <SCORE.SYSTEM.norm>
0

>  <SCORE.heavy>
32

>  <SCORE.norm>
-0.581789

>  <RMSD>
15.305

$$$$
lig.pdb
 OpenBabel11021811523D
libRbt.so/2013.1/901 2013/11/27
 32 34  0  0  0  0  0  0  0  0999 V2000
    0.1458   -1.7975    1.3087 P   0  0  0  0  0  0  0  0  0  0  0  0
   -1.3290   -1.9531    1.0279 O   0  0  0  0  0  0  0  0  0  0  0  0
    0.4187   -2.8989    2.4684 O   0  0  0  0  0  0  0  0  0  0  0  0
    1.1277   -2.1813    0.2300 O   0  0  0  0  0  0  0  0  0  0  0  0
    0.3597   -0.3861    1.5634 O   0  0  0  0  0  0  0  0  0  0  0  0
    0.2006    0.3738    0.3013 P   0  0  1  0  0  0  0  0  0  0  0  0
    1.3612    0.0713   -0.5691 O   0  0  0  0  0  0  0  0  0  0  0  0
   -1.0424   -0.0426   -0.3888 O   0  0  0  0  0  0  0  0  0  0  0  0
    0.1456    1.8263    0.6031 O   0  0  0  0  0  0  0  0  0  0  0  0
    1.3646    2.6509    0.7796 P   0  0  1  0  0  0  0  0  0  0  0  0
    1.7537    2.8893    2.1844 O   0  0  0  0  0  0  0  0  0  0  0  0
    2.4849    2.3177   -0.1282 O   0  0  0  0  0  0  0  0  0  0  0  0
    0.8752    4.1178    0.3030 O   0  0  0  0  0  0  0  0  0  0  0  0
    0.8081    5.2195    1.1887 C   0  0  0  0  0  0  0  0  0  0  0  0
   -0.3568    6.1657    0.8662 C   0  0  1  0  0  0  0  0  0  0  0  0
   -0.1604    6.7735   -0.3941 O   0  0  0  0  0  0  0  0  0  0  0  0
   -1.6995    5.4455    0.6507 C   0  0  1  0  0  0  0  0  0  0  0  0
   -2.3599    5.0208    1.8312 O   0  0  0  0  0  0  0  0  0  0  0  0
   -2.5171    6.4567   -0.1526 C   0  0  1  0  0  0  0  0  0  0  0  0
   -3.2844    7.3069    0.6813 O   0  0  0  0  0  0  0  0  0  0  0  0
   -1.4144    7.2825   -0.8125 C   0  0  2  0  0  0  0  0  0  0  0  0
   -1.4904    7.3797   -2.2858 N   0  0  0  0  0  0  0  0  0  0  0  0
   -0.5275    7.6992   -3.2094 C   0  0  0  0  0  0  0  0  0  0  0  0
   -0.9735    7.7864   -4.4359 N   0  0  0  0  0  0  0  0  0  0  0  0
   -2.3264    7.4789   -4.3277 C   0  0  0  0  0  0  0  0  0  0  0  0
   -3.3603    7.4467   -5.3176 C   0  0  0  0  0  0  0  0  0  0  0  0
   -3.2691    7.7331   -6.5097 O   0  0  0  0  0  0  0  0  0  0  0  0
   -4.5990    7.0501   -4.7958 N   0  0  0  0  0  0  0  0  0  0  0  0
   -4.7975    6.6912   -3.4711 C   0  0  0  0  0  0  0  0  0  0  0  0
   -6.0021    6.2283   -3.1187 N   0  0  0  0  0  0  0  0  0  0  0  0
   -3.8362    6.7693   -2.5364 N   0  0  0  0  0  0  0  0  0  0  0  0
   -2.6308    7.1738   -3.0222 C   0  0  0  0  0  0  0  0  0  0  0  0
  1  2  2  0  0  0  0
  1  4  1  0  0  0  0
  1  3  1  0  0  0  0
  5  1  1  0  0  0  0
  6  7  2  6  0  0  0
  6  9  1  0  0  0  0
  6  5  1  0  0  0  0
  6  8  1  0  0  0  0
 10 11  2  1  0  0  0
 10 12  1  0  0  0  0
 10 13  1  0  0  0  0
 10  9  1  0  0  0  0
 13 14  1  0  0  0  0
 15 14  1  6  0  0  0
 15 16  1  0  0  0  0
 17 19  1  0  0  0  0
 17 15  1  0  0  0  0
 17 18  1  1  0  0  0
 19 21  1  0  0  0  0
 19 20  1  1  0  0  0
 21 16  1  0  0  0  0
 21 22  1  6  0  0  0
 22 32  1  0  0  0  0
 23 22  1  0  0  0  0
 23 24  2  0  0  0  0
 24 25  1  0  0  0  0
 25 26  1  0  0  0  0
 26 27  2  0  0  0  0
 26 28  1  0  0  0  0
 29 28  1  0  0  0  0
 29 30  1  0  0  0  0
 31 29  2  0  0  0  0
 32 25  2  0  0  0  0
 32 31  1  0  0  0  0
M  END
>  <CHROM.1>
-70.45064272,83.97725338,-71.09350744,115.18511947,-98.69840625,-145.73795819
-65.18250345,59.14135353,-177.50291568,-35.68126133,-0.93659900,3.66575817
-0.65649581,0.98195967,0.84842028,3.10325527

>  <Name>
lig.pdb

>  <RI>
1.17715e+07

>  <Rbt.Current_Directory>
/home/itssahil/PROJECTS/Mol_Feturizer/New_Systems/rnas/5lwj

>  <Rbt.Executable>
rbdock ($Id: //depot/dev/client3/rdock/2013.1/src/exe/rbdock.cxx#4 $)

>  <Rbt.Library>
libRbt.so (2013.1, Build901 2013/11/27)

>  <Rbt.Parameter_File>
/export/apps/rDock/src/rDock_2013.1_src/data/scripts/dock_solv.prm

>  <Rbt.Receptor>
prm/blind_docking_60.prm

>  <SCORE>
-32.845

>  <SCORE.INTER>
-35.3307

>  <SCORE.INTER.CONST>
1

>  <SCORE.INTER.POLAR>
-2.25149

>  <SCORE.INTER.ROT>
8

>  <SCORE.INTER.SOLV>
26.174

>  <SCORE.INTER.VDW>
-33.7068

>  <SCORE.INTER.norm>
-1.10408

>  <SCORE.INTRA>
2.47805

>  <SCORE.INTRA.DIHEDRAL>
1.1584

>  <SCORE.INTRA.DIHEDRAL.0>
10.9248

>  <SCORE.INTRA.POLAR>
0

>  <SCORE.INTRA.POLAR.0>
0

>  <SCORE.INTRA.REPUL>
0

>  <SCORE.INTRA.REPUL.0>
0

>  <SCORE.INTRA.SOLV>
0.0662475

>  <SCORE.INTRA.SOLV.lig_0>
-51.4104

>  <SCORE.INTRA.VDW>
1.86573

>  <SCORE.INTRA.VDW.0>
0.110327

>  <SCORE.INTRA.norm>
0.0774391

>  <SCORE.RESTR>
0.00760499

>  <SCORE.RESTR.CAVITY>
0.00760499

>  <SCORE.RESTR.norm>
0.000237656

>  <SCORE.SYSTEM>
0

>  <SCORE.SYSTEM.CONST>
0

>  <SCORE.SYSTEM.DIHEDRAL>
0

>  <SCORE.SYSTEM.SOLV>
0

>  <SCORE.SYSTEM.norm>
0

>  <SCORE.heavy>
32

>  <SCORE.norm>
-1.02641

>  <RMSD>
15.310

$$$$
lig.pdb
 OpenBabel11021811523D
libRbt.so/2013.1/901 2013/11/27
 32 34  0  0  0  0  0  0  0  0999 V2000
   -0.3410    8.1892   -3.3261 P   0  0  0  0  0  0  0  0  0  0  0  0
    1.0831    8.3419   -3.8022 O   0  0  0  0  0  0  0  0  0  0  0  0
   -0.6156    9.5776   -2.5325 O   0  0  0  0  0  0  0  0  0  0  0  0
   -1.4435    8.1557   -4.3549 O   0  0  0  0  0  0  0  0  0  0  0  0
   -0.3990    6.9168   -2.6331 O   0  0  0  0  0  0  0  0  0  0  0  0
   -0.3017    7.1444   -1.1722 P   0  0  1  0  0  0  0  0  0  0  0  0
    0.9243    7.9341   -0.9087 O   0  0  0  0  0  0  0  0  0  0  0  0
   -1.4793    7.9077   -0.6978 O   0  0  0  0  0  0  0  0  0  0  0  0
   -0.2347    5.8370   -0.4722 O   0  0  0  0  0  0  0  0  0  0  0  0
   -0.1570    5.7258    1.0038 P   0  0  1  0  0  0  0  0  0  0  0  0
    1.0211    6.3756    1.6133 O   0  0  0  0  0  0  0  0  0  0  0  0
   -1.4326    5.9538    1.7186 O   0  0  0  0  0  0  0  0  0  0  0  0
    0.1610    4.1548    1.2270 O   0  0  0  0  0  0  0  0  0  0  0  0
    1.3876    3.5668    0.8367 C   0  0  0  0  0  0  0  0  0  0  0  0
    1.2375    2.0878    0.4541 C   0  0  1  0  0  0  0  0  0  0  0  0
    1.8399    1.8422   -0.8002 O   0  0  0  0  0  0  0  0  0  0  0  0
    2.0259    1.1288    1.3632 C   0  0  1  0  0  0  0  0  0  0  0  0
    1.4413    0.8697    2.6286 O   0  0  0  0  0  0  0  0  0  0  0  0
    2.1675   -0.1306    0.5087 C   0  0  1  0  0  0  0  0  0  0  0  0
    1.1076   -1.0454    0.7248 O   0  0  0  0  0  0  0  0  0  0  0  0
    2.0396    0.4435   -0.9011 C   0  0  2  0  0  0  0  0  0  0  0  0
    3.1538    0.1246   -1.8191 N   0  0  0  0  0  0  0  0  0  0  0  0
    4.1518    0.9212   -2.3210 C   0  0  0  0  0  0  0  0  0  0  0  0
    4.9210    0.3248   -3.1948 N   0  0  0  0  0  0  0  0  0  0  0  0
    4.4161   -0.9702   -3.2634 C   0  0  0  0  0  0  0  0  0  0  0  0
    4.8071   -2.0847   -4.0727 C   0  0  0  0  0  0  0  0  0  0  0  0
    5.6812   -2.1167   -4.9366 O   0  0  0  0  0  0  0  0  0  0  0  0
    4.0539   -3.2369   -3.8098 N   0  0  0  0  0  0  0  0  0  0  0  0
    3.0606   -3.3041   -2.8444 C   0  0  0  0  0  0  0  0  0  0  0  0
    2.4863   -4.4903   -2.6146 N   0  0  0  0  0  0  0  0  0  0  0  0
    2.6648   -2.2434   -2.1219 N   0  0  0  0  0  0  0  0  0  0  0  0
    3.3721   -1.1096   -2.3800 C   0  0  0  0  0  0  0  0  0  0  0  0
  1  2  2  0  0  0  0
  1  4  1  0  0  0  0
  1  3  1  0  0  0  0
  5  1  1  0  0  0  0
  6  7  2  1  0  0  0
  6  9  1  0  0  0  0
  6  5  1  0  0  0  0
  6  8  1  0  0  0  0
 10 11  2  1  0  0  0
 10 12  1  0  0  0  0
 10 13  1  0  0  0  0
 10  9  1  0  0  0  0
 13 14  1  0  0  0  0
 15 14  1  1  0  0  0
 15 16  1  0  0  0  0
 17 19  1  0  0  0  0
 17 15  1  0  0  0  0
 17 18  1  1  0  0  0
 19 21  1  0  0  0  0
 19 20  1  1  0  0  0
 21 16  1  0  0  0  0
 21 22  1  6  0  0  0
 22 32  1  0  0  0  0
 23 22  1  0  0  0  0
 23 24  2  0  0  0  0
 24 25  1  0  0  0  0
 25 26  1  0  0  0  0
 26 27  2  0  0  0  0
 26 28  1  0  0  0  0
 29 28  1  0  0  0  0
 29 30  1  0  0  0  0
 31 29  2  0  0  0  0
 32 25  2  0  0  0  0
 32 31  1  0  0  0  0
M  END
>  <CHROM.1>
98.95520428,-178.83204687,-54.53898468,67.42836032,-59.98492775,-150.10148591
129.71478779,171.09593267,-176.77970348,15.85321663,1.36891356,3.18351072
-1.28436161,-2.59190478,-1.11027995,2.27108467

>  <Name>
lig.pdb

>  <RI>
3.17878e+07

>  <Rbt.Current_Directory>
/home/itssahil/PROJECTS/Mol_Feturizer/New_Systems/rnas/5lwj

>  <Rbt.Executable>
rbdock ($Id: //depot/dev/client3/rdock/2013.1/src/exe/rbdock.cxx#4 $)

>  <Rbt.Library>
libRbt.so (2013.1, Build901 2013/11/27)

>  <Rbt.Parameter_File>
/export/apps/rDock/src/rDock_2013.1_src/data/scripts/dock_solv.prm

>  <Rbt.Receptor>
prm/blind_docking_100.prm

>  <SCORE>
-31.1617

>  <SCORE.INTER>
-29.4745

>  <SCORE.INTER.CONST>
1

>  <SCORE.INTER.POLAR>
-1.25899

>  <SCORE.INTER.ROT>
8

>  <SCORE.INTER.SOLV>
26.2254

>  <SCORE.INTER.VDW>
-33.1281

>  <SCORE.INTER.norm>
-0.921077

>  <SCORE.INTRA>
-1.77483

>  <SCORE.INTRA.DIHEDRAL>
2.75814

>  <SCORE.INTRA.DIHEDRAL.0>
10.9248

>  <SCORE.INTRA.POLAR>
0

>  <SCORE.INTRA.POLAR.0>
0

>  <SCORE.INTRA.REPUL>
0

>  <SCORE.INTRA.REPUL.0>
0

>  <SCORE.INTRA.SOLV>
-0.604828

>  <SCORE.INTRA.SOLV.lig_0>
-51.4104

>  <SCORE.INTRA.VDW>
-2.85149

>  <SCORE.INTRA.VDW.0>
0.110327

>  <SCORE.INTRA.norm>
-0.0554634

>  <SCORE.RESTR>
0.0875996

>  <SCORE.RESTR.CAVITY>
0.0875996

>  <SCORE.RESTR.norm>
0.00273749

>  <SCORE.SYSTEM>
0

>  <SCORE.SYSTEM.CONST>
0

>  <SCORE.SYSTEM.DIHEDRAL>
0

>  <SCORE.SYSTEM.SOLV>
0

>  <SCORE.SYSTEM.norm>
0

>  <SCORE.heavy>
32

>  <SCORE.norm>
-0.973803

>  <RMSD>
15.311

$$$$
lig.pdb
 OpenBabel11021811523D
libRbt.so/2013.1/901 2013/11/27
 32 34  0  0  0  0  0  0  0  0999 V2000
   -3.6605    5.5106   -0.4504 P   0  0  0  0  0  0  0  0  0  0  0  0
   -5.0770    5.4411   -0.9668 O   0  0  0  0  0  0  0  0  0  0  0  0
   -3.2659    3.9503   -0.2444 O   0  0  0  0  0  0  0  0  0  0  0  0
   -2.5825    6.0203   -1.3741 O   0  0  0  0  0  0  0  0  0  0  0  0
   -3.6879    6.4221    0.6770 O   0  0  0  0  0  0  0  0  0  0  0  0
   -2.3960    6.3540    1.3995 P   0  0  1  0  0  0  0  0  0  0  0  0
   -2.5325    7.1174    2.6623 O   0  0  0  0  0  0  0  0  0  0  0  0
   -2.0670    4.9455    1.7197 O   0  0  0  0  0  0  0  0  0  0  0  0
   -1.3260    6.9405    0.5542 O   0  0  0  0  0  0  0  0  0  0  0  0
    0.0924    6.5235    0.6598 P   0  0  1  0  0  0  0  0  0  0  0  0
    1.0042    7.1779   -0.3006 O   0  0  0  0  0  0  0  0  0  0  0  0
    0.6147    6.4179    2.0404 O   0  0  0  0  0  0  0  0  0  0  0  0
    0.0574    4.9988    0.1187 O   0  0  0  0  0  0  0  0  0  0  0  0
    1.2115    4.1806    0.0824 C   0  0  0  0  0  0  0  0  0  0  0  0
    1.1011    2.9633    1.0111 C   0  0  1  0  0  0  0  0  0  0  0  0
    0.4141    1.9125    0.3627 O   0  0  0  0  0  0  0  0  0  0  0  0
    2.4523    2.2965    1.3229 C   0  0  1  0  0  0  0  0  0  0  0  0
    3.2555    2.9654    2.2808 O   0  0  0  0  0  0  0  0  0  0  0  0
    2.0568    0.8874    1.7638 C   0  0  1  0  0  0  0  0  0  0  0  0
    1.8662    0.7993    3.1649 O   0  0  0  0  0  0  0  0  0  0  0  0
    0.7040    0.7223    1.0739 C   0  0  2  0  0  0  0  0  0  0  0  0
    0.5761   -0.4674    0.2054 N   0  0  0  0  0  0  0  0  0  0  0  0
   -0.3148   -1.5100    0.2465 C   0  0  0  0  0  0  0  0  0  0  0  0
   -0.0728   -2.4524   -0.6276 N   0  0  0  0  0  0  0  0  0  0  0  0
    1.0451   -1.9952   -1.3189 C   0  0  0  0  0  0  0  0  0  0  0  0
    1.8088   -2.6013   -2.3675 C   0  0  0  0  0  0  0  0  0  0  0  0
    1.6497   -3.7131   -2.8674 O   0  0  0  0  0  0  0  0  0  0  0  0
    2.8541   -1.7845   -2.8191 N   0  0  0  0  0  0  0  0  0  0  0  0
    3.1025   -0.5106   -2.3306 C   0  0  0  0  0  0  0  0  0  0  0  0
    4.0637    0.2116   -2.9173 N   0  0  0  0  0  0  0  0  0  0  0  0
    2.4139    0.0341   -1.3142 N   0  0  0  0  0  0  0  0  0  0  0  0
    1.4075   -0.7552   -0.8487 C   0  0  0  0  0  0  0  0  0  0  0  0
  1  2  2  0  0  0  0
  1  4  1  0  0  0  0
  1  3  1  0  0  0  0
  5  1  1  0  0  0  0
  6  7  2  1  0  0  0
  6  9  1  0  0  0  0
  6  5  1  0  0  0  0
  6  8  1  0  0  0  0
 10 11  2  6  0  0  0
 10 12  1  0  0  0  0
 10 13  1  0  0  0  0
 10  9  1  0  0  0  0
 13 14  1  0  0  0  0
 15 14  1  6  0  0  0
 15 16  1  0  0  0  0
 17 19  1  0  0  0  0
 17 15  1  0  0  0  0
 17 18  1  1  0  0  0
 19 21  1  0  0  0  0
 19 20  1  1  0  0  0
 21 16  1  0  0  0  0
 21 22  1  6  0  0  0
 22 32  1  0  0  0  0
 23 22  1  0  0  0  0
 23 24  2  0  0  0  0
 24 25  1  0  0  0  0
 25 26  1  0  0  0  0
 26 27  2  0  0  0  0
 26 28  1  0  0  0  0
 29 28  1  0  0  0  0
 29 30  1  0  0  0  0
 31 29  2  0  0  0  0
 32 25  2  0  0  0  0
 32 31  1  0  0  0  0
M  END
>  <CHROM.1>
169.46243345,-152.17991319,-170.75968928,-177.95752835,177.60748376,115.90133685
84.15939232,-57.10252802,170.18445180,-113.69109869,-0.06348288,2.98570871
0.10614886,2.09300872,-0.34046215,0.43100330

>  <Name>
lig.pdb

>  <RI>
3.17878e+07

>  <Rbt.Current_Directory>
/home/itssahil/PROJECTS/Mol_Feturizer/New_Systems/rnas/5lwj

>  <Rbt.Executable>
rbdock ($Id: //depot/dev/client3/rdock/2013.1/src/exe/rbdock.cxx#4 $)

>  <Rbt.Library>
libRbt.so (2013.1, Build901 2013/11/27)

>  <Rbt.Parameter_File>
/export/apps/rDock/src/rDock_2013.1_src/data/scripts/dock_solv.prm

>  <Rbt.Receptor>
prm/blind_docking_100.prm

>  <SCORE>
18.9025

>  <SCORE.INTER>
20.8507

>  <SCORE.INTER.CONST>
1

>  <SCORE.INTER.POLAR>
-0.97492

>  <SCORE.INTER.ROT>
8

>  <SCORE.INTER.SOLV>
31.5372

>  <SCORE.INTER.VDW>
-2.29554

>  <SCORE.INTER.norm>
0.651584

>  <SCORE.INTRA>
-2.23093

>  <SCORE.INTRA.DIHEDRAL>
2.68037

>  <SCORE.INTRA.DIHEDRAL.0>
10.9248

>  <SCORE.INTRA.POLAR>
0

>  <SCORE.INTRA.POLAR.0>
0

>  <SCORE.INTRA.REPUL>
0.0299017

>  <SCORE.INTRA.REPUL.0>
0

>  <SCORE.INTRA.SOLV>
-0.909881

>  <SCORE.INTRA.SOLV.lig_0>
-51.4104

>  <SCORE.INTRA.VDW>
-3.26568

>  <SCORE.INTRA.VDW.0>
0.110327

>  <SCORE.INTRA.norm>
-0.0697166

>  <SCORE.RESTR>
0.282713

>  <SCORE.RESTR.CAVITY>
0.282713

>  <SCORE.RESTR.norm>
0.00883479

>  <SCORE.SYSTEM>
0

>  <SCORE.SYSTEM.CONST>
0

>  <SCORE.SYSTEM.DIHEDRAL>
0

>  <SCORE.SYSTEM.SOLV>
0

>  <SCORE.SYSTEM.norm>
0

>  <SCORE.heavy>
32

>  <SCORE.norm>
0.590702

>  <RMSD>
15.312

$$$$
lig.pdb
 OpenBabel11021811523D
libRbt.so/2013.1/901 2013/11/27
 32 34  0  0  0  0  0  0  0  0999 V2000
   -1.0643    8.0927   -2.7226 P   0  0  0  0  0  0  0  0  0  0  0  0
   -1.9713    7.2908   -3.6238 O   0  0  0  0  0  0  0  0  0  0  0  0
    0.2953    7.2080   -2.6858 O   0  0  0  0  0  0  0  0  0  0  0  0
   -0.5860    9.4413   -3.1996 O   0  0  0  0  0  0  0  0  0  0  0  0
   -1.8194    8.3400   -1.5095 O   0  0  0  0  0  0  0  0  0  0  0  0
   -1.9486    7.0793   -0.7418 P   0  0  1  0  0  0  0  0  0  0  0  0
   -2.7142    7.3676    0.4938 O   0  0  0  0  0  0  0  0  0  0  0  0
   -2.6833    6.0712   -1.5411 O   0  0  0  0  0  0  0  0  0  0  0  0
   -0.5973    6.5657   -0.4046 O   0  0  0  0  0  0  0  0  0  0  0  0
   -0.3581    5.6257    0.7162 P   0  0  1  0  0  0  0  0  0  0  0  0
    0.0907    6.2601    1.9724 O   0  0  0  0  0  0  0  0  0  0  0  0
   -1.3853    4.5735    0.8832 O   0  0  0  0  0  0  0  0  0  0  0  0
    0.9675    4.8302    0.2382 O   0  0  0  0  0  0  0  0  0  0  0  0
    1.6543    3.9254    1.0821 C   0  0  0  0  0  0  0  0  0  0  0  0
    1.4154    2.4596    0.6943 C   0  0  1  0  0  0  0  0  0  0  0  0
    1.9516    2.1975   -0.5864 O   0  0  0  0  0  0  0  0  0  0  0  0
    2.1930    1.4539    1.5613 C   0  0  1  0  0  0  0  0  0  0  0  0
    1.6502    1.2109    2.8483 O   0  0  0  0  0  0  0  0  0  0  0  0
    2.2363    0.1978    0.6914 C   0  0  1  0  0  0  0  0  0  0  0  0
    1.1425   -0.6661    0.9449 O   0  0  0  0  0  0  0  0  0  0  0  0
    2.0776    0.7918   -0.7070 C   0  0  2  0  0  0  0  0  0  0  0  0
    3.1351    0.4280   -1.6742 N   0  0  0  0  0  0  0  0  0  0  0  0
    4.0795    1.2043   -2.2970 C   0  0  0  0  0  0  0  0  0  0  0  0
    4.8019    0.5610   -3.1773 N   0  0  0  0  0  0  0  0  0  0  0  0
    4.3225   -0.7443   -3.1211 C   0  0  0  0  0  0  0  0  0  0  0  0
    4.6835   -1.9065   -3.8754 C   0  0  0  0  0  0  0  0  0  0  0  0
    5.4986   -1.9845   -4.7923 O   0  0  0  0  0  0  0  0  0  0  0  0
    3.9753   -3.0500   -3.4822 N   0  0  0  0  0  0  0  0  0  0  0  0
    3.0502   -3.0660   -2.4493 C   0  0  0  0  0  0  0  0  0  0  0  0
    2.5190   -4.2427   -2.0989 N   0  0  0  0  0  0  0  0  0  0  0  0
    2.6798   -1.9637   -1.7772 N   0  0  0  0  0  0  0  0  0  0  0  0
    3.3429   -0.8388   -2.1612 C   0  0  0  0  0  0  0  0  0  0  0  0
  1  2  2  0  0  0  0
  1  4  1  0  0  0  0
  1  3  1  0  0  0  0
  5  1  1  0  0  0  0
  6  7  2  1  0  0  0
  6  9  1  0  0  0  0
  6  5  1  0  0  0  0
  6  8  1  0  0  0  0
 10 11  2  1  0  0  0
 10 12  1  0  0  0  0
 10 13  1  0  0  0  0
 10  9  1  0  0  0  0
 13 14  1  0  0  0  0
 15 14  1  1  0  0  0
 15 16  1  0  0  0  0
 17 19  1  0  0  0  0
 17 15  1  0  0  0  0
 17 18  1  1  0  0  0
 19 21  1  0  0  0  0
 19 20  1  1  0  0  0
 21 16  1  0  0  0  0
 21 22  1  6  0  0  0
 22 32  1  0  0  0  0
 23 22  1  0  0  0  0
 23 24  2  0  0  0  0
 24 25  1  0  0  0  0
 25 26  1  0  0  0  0
 26 27  2  0  0  0  0
 26 28  1  0  0  0  0
 29 28  1  0  0  0  0
 29 30  1  0  0  0  0
 31 29  2  0  0  0  0
 32 25  2  0  0  0  0
 32 31  1  0  0  0  0
M  END
>  <CHROM.1>
71.48172788,158.25020776,179.56527896,172.51086130,-97.16781537,105.68027963
64.61638904,-65.28869453,178.71845416,9.64572210,0.98031991,3.21816929,-1.08010756
-2.81099296,-1.04303499,2.06567548

>  <Name>
lig.pdb

>  <RI>
4.14043e+07

>  <Rbt.Current_Directory>
/home/itssahil/PROJECTS/Mol_Feturizer/New_Systems/rnas/5lwj

>  <Rbt.Executable>
rbdock ($Id: //depot/dev/client3/rdock/2013.1/src/exe/rbdock.cxx#4 $)

>  <Rbt.Library>
libRbt.so (2013.1, Build901 2013/11/27)

>  <Rbt.Parameter_File>
/export/apps/rDock/src/rDock_2013.1_src/data/scripts/dock_solv.prm

>  <Rbt.Receptor>
prm/blind_docking_80.prm

>  <SCORE>
-29.073

>  <SCORE.INTER>
-26.1899

>  <SCORE.INTER.CONST>
1

>  <SCORE.INTER.POLAR>
-1.10472

>  <SCORE.INTER.ROT>
8

>  <SCORE.INTER.SOLV>
23.8695

>  <SCORE.INTER.VDW>
-30.6674

>  <SCORE.INTER.norm>
-0.818433

>  <SCORE.INTRA>
-2.88309

>  <SCORE.INTRA.DIHEDRAL>
0.458666

>  <SCORE.INTRA.DIHEDRAL.0>
10.9248

>  <SCORE.INTRA.POLAR>
0

>  <SCORE.INTRA.POLAR.0>
0

>  <SCORE.INTRA.REPUL>
0.00167628

>  <SCORE.INTRA.REPUL.0>
0

>  <SCORE.INTRA.SOLV>
-0.429032

>  <SCORE.INTRA.SOLV.lig_0>
-51.4104

>  <SCORE.INTRA.VDW>
-2.90629

>  <SCORE.INTRA.VDW.0>
0.110327

>  <SCORE.INTRA.norm>
-0.0900965

>  <SCORE.RESTR>
0

>  <SCORE.RESTR.CAVITY>
0

>  <SCORE.RESTR.norm>
0

>  <SCORE.SYSTEM>
0

>  <SCORE.SYSTEM.CONST>
0

>  <SCORE.SYSTEM.DIHEDRAL>
0

>  <SCORE.SYSTEM.SOLV>
0

>  <SCORE.SYSTEM.norm>
0

>  <SCORE.heavy>
32

>  <SCORE.norm>
-0.90853

>  <RMSD>
15.333

$$$$
lig.pdb
 OpenBabel11021811523D
libRbt.so/2013.1/901 2013/11/27
 32 34  0  0  0  0  0  0  0  0999 V2000
   -0.1432    8.0204   -2.4191 P   0  0  0  0  0  0  0  0  0  0  0  0
    0.3805    7.8942   -3.8290 O   0  0  0  0  0  0  0  0  0  0  0  0
    0.9533    8.9780   -1.7026 O   0  0  0  0  0  0  0  0  0  0  0  0
   -1.4413    8.7559   -2.1973 O   0  0  0  0  0  0  0  0  0  0  0  0
   -0.3629    6.6663   -1.9492 O   0  0  0  0  0  0  0  0  0  0  0  0
   -0.4723    6.6674   -0.4714 P   0  0  1  0  0  0  0  0  0  0  0  0
    0.8179    7.1366    0.0866 O   0  0  0  0  0  0  0  0  0  0  0  0
   -1.5485    7.5907   -0.0426 O   0  0  0  0  0  0  0  0  0  0  0  0
   -0.7708    5.2926    0.0025 O   0  0  0  0  0  0  0  0  0  0  0  0
    0.0003    4.6373    1.0855 P   0  0  1  0  0  0  0  0  0  0  0  0
    1.4668    4.7733    0.9720 O   0  0  0  0  0  0  0  0  0  0  0  0
   -0.5391    4.8361    2.4492 O   0  0  0  0  0  0  0  0  0  0  0  0
   -0.2252    3.0638    0.7824 O   0  0  0  0  0  0  0  0  0  0  0  0
    0.6806    2.0696    1.2226 C   0  0  0  0  0  0  0  0  0  0  0  0
    0.5151    0.7441    0.4662 C   0  0  1  0  0  0  0  0  0  0  0  0
    1.3954    0.6964   -0.6379 O   0  0  0  0  0  0  0  0  0  0  0  0
    0.9666   -0.4886    1.2688 C   0  0  1  0  0  0  0  0  0  0  0  0
    0.0603   -0.9335    2.2642 O   0  0  0  0  0  0  0  0  0  0  0  0
    1.2200   -1.5395    0.1883 C   0  0  1  0  0  0  0  0  0  0  0  0
    0.0704   -2.3247   -0.0742 O   0  0  0  0  0  0  0  0  0  0  0  0
    1.5017   -0.6609   -1.0291 C   0  0  2  0  0  0  0  0  0  0  0  0
    2.7838   -0.9229   -1.7173 N   0  0  0  0  0  0  0  0  0  0  0  0
    3.5496   -2.0599   -1.7738 C   0  0  0  0  0  0  0  0  0  0  0  0
    4.6871   -1.9057   -2.4008 N   0  0  0  0  0  0  0  0  0  0  0  0
    4.6692   -0.5770   -2.8143 C   0  0  0  0  0  0  0  0  0  0  0  0
    5.6502    0.1987   -3.5114 C   0  0  0  0  0  0  0  0  0  0  0  0
    6.7722   -0.1539   -3.8692 O   0  0  0  0  0  0  0  0  0  0  0  0
    5.2231    1.5082   -3.7695 N   0  0  0  0  0  0  0  0  0  0  0  0
    3.9713    1.9930   -3.4211 C   0  0  0  0  0  0  0  0  0  0  0  0
    3.6426    3.2278   -3.8170 N   0  0  0  0  0  0  0  0  0  0  0  0
    3.0734    1.2768   -2.7250 N   0  0  0  0  0  0  0  0  0  0  0  0
    3.4808    0.0083   -2.4469 C   0  0  0  0  0  0  0  0  0  0  0  0
  1  2  2  0  0  0  0
  1  4  1  0  0  0  0
  1  3  1  0  0  0  0
  5  1  1  0  0  0  0
  6  7  2  1  0  0  0
  6  9  1  0  0  0  0
  6  5  1  0  0  0  0
  6  8  1  0  0  0  0
 10 11  2  6  0  0  0
 10 12  1  0  0  0  0
 10 13  1  0  0  0  0
 10  9  1  0  0  0  0
 13 14  1  0  0  0  0
 15 14  1  1  0  0  0
 15 16  1  0  0  0  0
 17 19  1  0  0  0  0
 17 15  1  0  0  0  0
 17 18  1  1  0  0  0
 19 21  1  0  0  0  0
 19 20  1  6  0  0  0
 21 16  1  0  0  0  0
 21 22  1  1  0  0  0
 22 32  1  0  0  0  0
 23 22  1  0  0  0  0
 23 24  2  0  0  0  0
 24 25  1  0  0  0  0
 25 26  1  0  0  0  0
 26 27  2  0  0  0  0
 26 28  1  0  0  0  0
 29 28  1  0  0  0  0
 29 30  1  0  0  0  0
 31 29  2  0  0  0  0
 32 25  2  0  0  0  0
 32 31  1  0  0  0  0
M  END
>  <CHROM.1>
162.69394844,130.00428403,-62.79129638,156.05770819,-45.60430844,-161.91363268
93.05048614,-168.93990581,54.50762880,149.66858049,1.35234360,3.16302949
-1.02556780,-2.19767853,-0.79869273,2.74673738

>  <Name>
lig.pdb

>  <RI>
1.2169e+07

>  <Rbt.Current_Directory>
/home/itssahil/PROJECTS/Mol_Feturizer/New_Systems/rnas/5lwj

>  <Rbt.Executable>
rbdock ($Id: //depot/dev/client3/rdock/2013.1/src/exe/rbdock.cxx#4 $)

>  <Rbt.Library>
libRbt.so (2013.1, Build901 2013/11/27)

>  <Rbt.Parameter_File>
/export/apps/rDock/src/rDock_2013.1_src/data/scripts/dock_solv.prm

>  <Rbt.Receptor>
prm/blind_docking_40.prm

>  <SCORE>
-18.3659

>  <SCORE.INTER>
-20.9895

>  <SCORE.INTER.CONST>
1

>  <SCORE.INTER.POLAR>
-2.76264

>  <SCORE.INTER.ROT>
8

>  <SCORE.INTER.SOLV>
30.952

>  <SCORE.INTER.VDW>
-24.0348

>  <SCORE.INTER.norm>
-0.655921

>  <SCORE.INTRA>
0.808418

>  <SCORE.INTRA.DIHEDRAL>
1.10384

>  <SCORE.INTRA.DIHEDRAL.0>
10.9248

>  <SCORE.INTRA.POLAR>
0

>  <SCORE.INTRA.POLAR.0>
0

>  <SCORE.INTRA.REPUL>
0.286125

>  <SCORE.INTRA.REPUL.0>
0

>  <SCORE.INTRA.SOLV>
-1.06098

>  <SCORE.INTRA.SOLV.lig_0>
-51.4104

>  <SCORE.INTRA.VDW>
-0.643638

>  <SCORE.INTRA.VDW.0>
0.110327

>  <SCORE.INTRA.norm>
0.0252631

>  <SCORE.RESTR>
1.81518

>  <SCORE.RESTR.CAVITY>
1.81518

>  <SCORE.RESTR.norm>
0.0567245

>  <SCORE.SYSTEM>
0

>  <SCORE.SYSTEM.CONST>
0

>  <SCORE.SYSTEM.DIHEDRAL>
0

>  <SCORE.SYSTEM.SOLV>
0

>  <SCORE.SYSTEM.norm>
0

>  <SCORE.heavy>
32

>  <SCORE.norm>
-0.573934

>  <RMSD>
15.334

$$$$
lig.pdb
 OpenBabel11021811523D
libRbt.so/2013.1/901 2013/11/27
 32 34  0  0  0  0  0  0  0  0999 V2000
    0.4611   -1.9112    1.0602 P   0  0  0  0  0  0  0  0  0  0  0  0
    1.6864   -2.1013    0.1997 O   0  0  0  0  0  0  0  0  0  0  0  0
   -0.7369   -2.4842    0.1280 O   0  0  0  0  0  0  0  0  0  0  0  0
    0.3358   -2.7263    2.3232 O   0  0  0  0  0  0  0  0  0  0  0  0
    0.4746   -0.5226    1.4776 O   0  0  0  0  0  0  0  0  0  0  0  0
    0.1407    0.3441    0.3231 P   0  0  1  0  0  0  0  0  0  0  0  0
    1.2781    0.3071   -0.6261 O   0  0  0  0  0  0  0  0  0  0  0  0
   -1.0734   -0.1628   -0.3579 O   0  0  0  0  0  0  0  0  0  0  0  0
   -0.0914    1.7313    0.7978 O   0  0  0  0  0  0  0  0  0  0  0  0
    1.0180    2.6647    1.1062 P   0  0  1  0  0  0  0  0  0  0  0  0
    1.7812    2.3385    2.3279 O   0  0  0  0  0  0  0  0  0  0  0  0
    1.8438    3.0639   -0.0552 O   0  0  0  0  0  0  0  0  0  0  0  0
    0.2383    4.0159    1.5366 O   0  0  0  0  0  0  0  0  0  0  0  0
    0.6638    5.3009    1.1239 C   0  0  0  0  0  0  0  0  0  0  0  0
   -0.5101    6.2349    0.7986 C   0  0  1  0  0  0  0  0  0  0  0  0
   -0.3359    6.8154   -0.4777 O   0  0  0  0  0  0  0  0  0  0  0  0
   -1.8527    5.5047    0.6200 C   0  0  1  0  0  0  0  0  0  0  0  0
   -2.4929    5.1037    1.8198 O   0  0  0  0  0  0  0  0  0  0  0  0
   -2.6871    6.4945   -0.1927 C   0  0  1  0  0  0  0  0  0  0  0  0
   -3.4452    7.3599    0.6340 O   0  0  0  0  0  0  0  0  0  0  0  0
   -1.5983    7.3099   -0.8878 C   0  0  2  0  0  0  0  0  0  0  0  0
   -1.6975    7.3740   -2.3615 N   0  0  0  0  0  0  0  0  0  0  0  0
   -0.7582    7.7054   -3.3051 C   0  0  0  0  0  0  0  0  0  0  0  0
   -1.2235    7.7526   -4.5266 N   0  0  0  0  0  0  0  0  0  0  0  0
   -2.5641    7.4038   -4.3928 C   0  0  0  0  0  0  0  0  0  0  0  0
   -3.6097    7.3177   -5.3671 C   0  0  0  0  0  0  0  0  0  0  0  0
   -3.5441    7.5821   -6.5658 O   0  0  0  0  0  0  0  0  0  0  0  0
   -4.8275    6.8920   -4.8197 N   0  0  0  0  0  0  0  0  0  0  0  0
   -4.9962    6.5544   -3.4853 C   0  0  0  0  0  0  0  0  0  0  0  0
   -6.1801    6.0601   -3.1064 N   0  0  0  0  0  0  0  0  0  0  0  0
   -4.0253    6.6829   -2.5662 N   0  0  0  0  0  0  0  0  0  0  0  0
   -2.8405    7.1161   -3.0772 C   0  0  0  0  0  0  0  0  0  0  0  0
  1  2  2  0  0  0  0
  1  4  1  0  0  0  0
  1  3  1  0  0  0  0
  5  1  1  0  0  0  0
  6  7  2  6  0  0  0
  6  9  1  0  0  0  0
  6  5  1  0  0  0  0
  6  8  1  0  0  0  0
 10 11  2  1  0  0  0
 10 12  1  0  0  0  0
 10 13  1  0  0  0  0
 10  9  1  0  0  0  0
 13 14  1  0  0  0  0
 15 14  1  6  0  0  0
 15 16  1  0  0  0  0
 17 19  1  0  0  0  0
 17 15  1  0  0  0  0
 17 18  1  1  0  0  0
 19 21  1  0  0  0  0
 19 20  1  1  0  0  0
 21 16  1  0  0  0  0
 21 22  1  6  0  0  0
 22 32  1  0  0  0  0
 23 22  1  0  0  0  0
 23 24  2  0  0  0  0
 24 25  1  0  0  0  0
 25 26  1  0  0  0  0
 26 27  2  0  0  0  0
 26 28  1  0  0  0  0
 29 28  1  0  0  0  0
 29 30  1  0  0  0  0
 31 29  2  0  0  0  0
 32 25  2  0  0  0  0
 32 31  1  0  0  0  0
M  END
>  <CHROM.1>
71.98270938,79.75647415,-70.08559389,-138.63176546,-71.04693889,141.99919196
-128.59914342,-36.33830727,-48.90607016,-37.30847482,-1.05319381,3.63035801
-0.65947238,0.81304185,0.96013762,-2.98185102

>  <Name>
lig.pdb

>  <RI>
1.17715e+07

>  <Rbt.Current_Directory>
/home/itssahil/PROJECTS/Mol_Feturizer/New_Systems/rnas/5lwj

>  <Rbt.Executable>
rbdock ($Id: //depot/dev/client3/rdock/2013.1/src/exe/rbdock.cxx#4 $)

>  <Rbt.Library>
libRbt.so (2013.1, Build901 2013/11/27)

>  <Rbt.Parameter_File>
/export/apps/rDock/src/rDock_2013.1_src/data/scripts/dock_solv.prm

>  <Rbt.Receptor>
prm/blind_docking_60.prm

>  <SCORE>
-35.4127

>  <SCORE.INTER>
-38.6667

>  <SCORE.INTER.CONST>
1

>  <SCORE.INTER.POLAR>
-2.38831

>  <SCORE.INTER.ROT>
8

>  <SCORE.INTER.SOLV>
24.3368

>  <SCORE.INTER.VDW>
-34.8623

>  <SCORE.INTER.norm>
-1.20833

>  <SCORE.INTRA>
3.25394

>  <SCORE.INTRA.DIHEDRAL>
7.92935

>  <SCORE.INTRA.DIHEDRAL.0>
10.9248

>  <SCORE.INTRA.POLAR>
-0.165203

>  <SCORE.INTRA.POLAR.0>
0

>  <SCORE.INTRA.REPUL>
0

>  <SCORE.INTRA.REPUL.0>
0

>  <SCORE.INTRA.SOLV>
0.252245

>  <SCORE.INTRA.SOLV.lig_0>
-51.4104

>  <SCORE.INTRA.VDW>
-0.275164

>  <SCORE.INTRA.VDW.0>
0.110327

>  <SCORE.INTRA.norm>
0.101686

>  <SCORE.RESTR>
0

>  <SCORE.RESTR.CAVITY>
0

>  <SCORE.RESTR.norm>
0

>  <SCORE.SYSTEM>
0

>  <SCORE.SYSTEM.CONST>
0

>  <SCORE.SYSTEM.DIHEDRAL>
0

>  <SCORE.SYSTEM.SOLV>
0

>  <SCORE.SYSTEM.norm>
0

>  <SCORE.heavy>
32

>  <SCORE.norm>
-1.10665

>  <RMSD>
15.360

$$$$
lig.pdb
 OpenBabel11021811523D
libRbt.so/2013.1/901 2013/11/27
 32 34  0  0  0  0  0  0  0  0999 V2000
    0.1218   -2.4196   -0.1532 P   0  0  0  0  0  0  0  0  0  0  0  0
    0.3860   -3.0133   -1.5154 O   0  0  0  0  0  0  0  0  0  0  0  0
   -1.4867   -2.2074   -0.1489 O   0  0  0  0  0  0  0  0  0  0  0  0
    0.3601   -3.2781    1.0640 O   0  0  0  0  0  0  0  0  0  0  0  0
    1.0182   -1.2867   -0.0277 O   0  0  0  0  0  0  0  0  0  0  0  0
    0.4909   -0.3494    0.9916 P   0  0  1  0  0  0  0  0  0  0  0  0
   -0.6731    0.3590    0.4092 O   0  0  0  0  0  0  0  0  0  0  0  0
    0.0495   -1.0992    2.1907 O   0  0  0  0  0  0  0  0  0  0  0  0
    1.5510    0.6197    1.3667 O   0  0  0  0  0  0  0  0  0  0  0  0
    2.0891    1.6209    0.4154 P   0  0  1  0  0  0  0  0  0  0  0  0
    3.5418    1.5222    0.1674 O   0  0  0  0  0  0  0  0  0  0  0  0
    1.2654    1.8443   -0.7936 O   0  0  0  0  0  0  0  0  0  0  0  0
    1.9741    3.0031    1.2490 O   0  0  0  0  0  0  0  0  0  0  0  0
    0.7354    3.5108    1.7079 C   0  0  0  0  0  0  0  0  0  0  0  0
    0.2302    4.6876    0.8616 C   0  0  1  0  0  0  0  0  0  0  0  0
   -1.1711    4.6084    0.6985 O   0  0  0  0  0  0  0  0  0  0  0  0
    0.3794    6.0558    1.5499 C   0  0  1  0  0  0  0  0  0  0  0  0
    1.6879    6.6017    1.5437 O   0  0  0  0  0  0  0  0  0  0  0  0
   -0.6308    6.9339    0.8119 C   0  0  1  0  0  0  0  0  0  0  0  0
   -0.0509    7.6015   -0.2950 O   0  0  0  0  0  0  0  0  0  0  0  0
   -1.6176    5.8899    0.2925 C   0  0  2  0  0  0  0  0  0  0  0  0
   -3.0304    6.1107    0.6681 N   0  0  0  0  0  0  0  0  0  0  0  0
   -3.6774    5.9126    1.8616 C   0  0  0  0  0  0  0  0  0  0  0  0
   -4.9674    6.1222    1.8098 N   0  0  0  0  0  0  0  0  0  0  0  0
   -5.1952    6.5123    0.4935 C   0  0  0  0  0  0  0  0  0  0  0  0
   -6.4114    6.8377   -0.1884 C   0  0  0  0  0  0  0  0  0  0  0  0
   -7.5564    6.8011    0.2576 O   0  0  0  0  0  0  0  0  0  0  0  0
   -6.2013    7.2182   -1.5207 N   0  0  0  0  0  0  0  0  0  0  0  0
   -4.9483    7.3066   -2.1081 C   0  0  0  0  0  0  0  0  0  0  0  0
   -4.8707    7.7844   -3.3553 N   0  0  0  0  0  0  0  0  0  0  0  0
   -3.8151    6.9540   -1.4793 N   0  0  0  0  0  0  0  0  0  0  0  0
   -4.0032    6.5611   -0.1898 C   0  0  0  0  0  0  0  0  0  0  0  0
  1  2  2  0  0  0  0
  1  4  1  0  0  0  0
  1  3  1  0  0  0  0
  5  1  1  0  0  0  0
  6  7  2  6  0  0  0
  6  9  1  0  0  0  0
  6  5  1  0  0  0  0
  6  8  1  0  0  0  0
 10 11  2  6  0  0  0
 10 12  1  0  0  0  0
 10 13  1  0  0  0  0
 10  9  1  0  0  0  0
 13 14  1  0  0  0  0
 15 14  1  1  0  0  0
 15 16  1  0  0  0  0
 17 19  1  0  0  0  0
 17 15  1  0  0  0  0
 17 18  1  6  0  0  0
 19 21  1  0  0  0  0
 19 20  1  6  0  0  0
 21 16  1  0  0  0  0
 21 22  1  1  0  0  0
 22 32  1  0  0  0  0
 23 22  1  0  0  0  0
 23 24  2  0  0  0  0
 24 25  1  0  0  0  0
 25 26  1  0  0  0  0
 26 27  2  0  0  0  0
 26 28  1  0  0  0  0
 29 28  1  0  0  0  0
 29 30  1  0  0  0  0
 31 29  2  0  0  0  0
 32 25  2  0  0  0  0
 32 31  1  0  0  0  0
M  END
>  <CHROM.1>
157.95606891,66.07108390,-73.79567220,-60.81094824,-120.69380928,-103.97846152
141.45200832,-72.40292613,-177.73624707,48.65399891,-1.04719849,3.07118777
0.27913055,0.98264939,0.22942600,-3.08508726

>  <Name>
lig.pdb

>  <RI>
1.17715e+07

>  <Rbt.Current_Directory>
/home/itssahil/PROJECTS/Mol_Feturizer/New_Systems/rnas/5lwj

>  <Rbt.Executable>
rbdock ($Id: //depot/dev/client3/rdock/2013.1/src/exe/rbdock.cxx#4 $)

>  <Rbt.Library>
libRbt.so (2013.1, Build901 2013/11/27)

>  <Rbt.Parameter_File>
/export/apps/rDock/src/rDock_2013.1_src/data/scripts/dock_solv.prm

>  <Rbt.Receptor>
prm/blind_docking_60.prm

>  <SCORE>
-34.8266

>  <SCORE.INTER>
-34.9639

>  <SCORE.INTER.CONST>
1

>  <SCORE.INTER.POLAR>
-3.30392

>  <SCORE.INTER.ROT>
8

>  <SCORE.INTER.SOLV>
23.238

>  <SCORE.INTER.VDW>
-28.9755

>  <SCORE.INTER.norm>
-1.09262

>  <SCORE.INTRA>
-0.63774

>  <SCORE.INTRA.DIHEDRAL>
5.28258

>  <SCORE.INTRA.DIHEDRAL.0>
10.9248

>  <SCORE.INTRA.POLAR>
0

>  <SCORE.INTRA.POLAR.0>
0

>  <SCORE.INTRA.REPUL>
0.00625978

>  <SCORE.INTRA.REPUL.0>
0

>  <SCORE.INTRA.SOLV>
-1.18982

>  <SCORE.INTRA.SOLV.lig_0>
-51.4104

>  <SCORE.INTRA.VDW>
-2.71542

>  <SCORE.INTRA.VDW.0>
0.110327

>  <SCORE.INTRA.norm>
-0.0199294

>  <SCORE.RESTR>
0.775045

>  <SCORE.RESTR.CAVITY>
0.775045

>  <SCORE.RESTR.norm>
0.0242202

>  <SCORE.SYSTEM>
0

>  <SCORE.SYSTEM.CONST>
0

>  <SCORE.SYSTEM.DIHEDRAL>
0

>  <SCORE.SYSTEM.SOLV>
0

>  <SCORE.SYSTEM.norm>
0

>  <SCORE.heavy>
32

>  <SCORE.norm>
-1.08833

>  <RMSD>
15.360

$$$$
lig.pdb
 OpenBabel11021811523D
libRbt.so/2013.1/901 2013/11/27
 32 34  0  0  0  0  0  0  0  0999 V2000
   -2.3129    6.2006    0.8195 P   0  0  0  0  0  0  0  0  0  0  0  0
   -2.8067    6.2182    2.2456 O   0  0  0  0  0  0  0  0  0  0  0  0
   -2.2094    4.6164    0.4845 O   0  0  0  0  0  0  0  0  0  0  0  0
   -3.2233    6.7237   -0.2633 O   0  0  0  0  0  0  0  0  0  0  0  0
   -1.1318    7.0414    0.7926 O   0  0  0  0  0  0  0  0  0  0  0  0
   -0.3169    6.7115   -0.4001 P   0  0  1  0  0  0  0  0  0  0  0  0
   -1.1861    6.8139   -1.5958 O   0  0  0  0  0  0  0  0  0  0  0  0
    0.8020    7.6734   -0.5325 O   0  0  0  0  0  0  0  0  0  0  0  0
    0.2182    5.3332   -0.2666 O   0  0  0  0  0  0  0  0  0  0  0  0
    0.8333    4.8343    0.9862 P   0  0  1  0  0  0  0  0  0  0  0  0
    1.7504    5.7846    1.6478 O   0  0  0  0  0  0  0  0  0  0  0  0
   -0.0893    4.1227    1.8986 O   0  0  0  0  0  0  0  0  0  0  0  0
    1.8464    3.6896    0.4552 O   0  0  0  0  0  0  0  0  0  0  0  0
    1.9156    3.3109   -0.9066 C   0  0  0  0  0  0  0  0  0  0  0  0
    3.0173    2.2765   -1.1760 C   0  0  1  0  0  0  0  0  0  0  0  0
    2.5422    0.9730   -0.9085 O   0  0  0  0  0  0  0  0  0  0  0  0
    3.4086    2.1592   -2.6596 C   0  0  1  0  0  0  0  0  0  0  0  0
    4.2454    3.1919   -3.1529 O   0  0  0  0  0  0  0  0  0  0  0  0
    4.0604    0.7792   -2.7443 C   0  0  1  0  0  0  0  0  0  0  0  0
    5.4611    0.8360   -2.5399 O   0  0  0  0  0  0  0  0  0  0  0  0
    3.4199    0.0677   -1.5539 C   0  0  2  0  0  0  0  0  0  0  0  0
    2.7410   -1.2076   -1.8678 N   0  0  0  0  0  0  0  0  0  0  0  0
    2.9820   -2.1262   -2.8580 C   0  0  0  0  0  0  0  0  0  0  0  0
    2.1138   -3.1035   -2.9010 N   0  0  0  0  0  0  0  0  0  0  0  0
    1.2446   -2.8320   -1.8486 C   0  0  0  0  0  0  0  0  0  0  0  0
    0.0655   -3.5151   -1.4095 C   0  0  0  0  0  0  0  0  0  0  0  0
   -0.4648   -4.5015   -1.9166 O   0  0  0  0  0  0  0  0  0  0  0  0
   -0.5104   -2.9286   -0.2745 N   0  0  0  0  0  0  0  0  0  0  0  0
    0.0226   -1.8270    0.3778 C   0  0  0  0  0  0  0  0  0  0  0  0
   -0.5603   -1.4255    1.5130 N   0  0  0  0  0  0  0  0  0  0  0  0
    1.1011   -1.1608   -0.0659 N   0  0  0  0  0  0  0  0  0  0  0  0
    1.6610   -1.7047   -1.1809 C   0  0  0  0  0  0  0  0  0  0  0  0
  1  2  2  0  0  0  0
  1  4  1  0  0  0  0
  1  3  1  0  0  0  0
  5  1  1  0  0  0  0
  6  7  2  6  0  0  0
  6  9  1  0  0  0  0
  6  5  1  0  0  0  0
  6  8  1  0  0  0  0
 10 11  2  1  0  0  0
 10 12  1  0  0  0  0
 10 13  1  0  0  0  0
 10  9  1  0  0  0  0
 13 14  1  0  0  0  0
 15 14  1  6  0  0  0
 15 16  1  0  0  0  0
 17 19  1  0  0  0  0
 17 15  1  0  0  0  0
 17 18  1  1  0  0  0
 19 21  1  0  0  0  0
 19 20  1  1  0  0  0
 21 16  1  0  0  0  0
 21 22  1  6  0  0  0
 22 32  1  0  0  0  0
 23 22  1  0  0  0  0
 23 24  2  0  0  0  0
 24 25  1  0  0  0  0
 25 26  1  0  0  0  0
 26 27  2  0  0  0  0
 26 28  1  0  0  0  0
 29 28  1  0  0  0  0
 29 30  1  0  0  0  0
 31 29  2  0  0  0  0
 32 25  2  0  0  0  0
 32 31  1  0  0  0  0
M  END
>  <CHROM.1>
159.91146548,-45.60036474,53.98180923,-4.42935624,-43.04699058,176.04104668
84.35580124,176.49603398,-56.73599926,152.74317057,0.76086231,2.53426336
-0.52620257,1.92652539,0.46922389,0.08006001

>  <Name>
lig.pdb

>  <RI>
4.14043e+07

>  <Rbt.Current_Directory>
/home/itssahil/PROJECTS/Mol_Feturizer/New_Systems/rnas/5lwj

>  <Rbt.Executable>
rbdock ($Id: //depot/dev/client3/rdock/2013.1/src/exe/rbdock.cxx#4 $)

>  <Rbt.Library>
libRbt.so (2013.1, Build901 2013/11/27)

>  <Rbt.Parameter_File>
/export/apps/rDock/src/rDock_2013.1_src/data/scripts/dock_solv.prm

>  <Rbt.Receptor>
prm/blind_docking_80.prm

>  <SCORE>
-13.07

>  <SCORE.INTER>
-13.2312

>  <SCORE.INTER.CONST>
1

>  <SCORE.INTER.POLAR>
-2.25328

>  <SCORE.INTER.ROT>
8

>  <SCORE.INTER.SOLV>
28.0306

>  <SCORE.INTER.VDW>
-19.5867

>  <SCORE.INTER.norm>
-0.413474

>  <SCORE.INTRA>
-0.493311

>  <SCORE.INTRA.DIHEDRAL>
-2.04047

>  <SCORE.INTRA.DIHEDRAL.0>
10.9248

>  <SCORE.INTRA.POLAR>
0

>  <SCORE.INTRA.POLAR.0>
0

>  <SCORE.INTRA.REPUL>
0.328179

>  <SCORE.INTRA.REPUL.0>
0

>  <SCORE.INTRA.SOLV>
1.52139

>  <SCORE.INTRA.SOLV.lig_0>
-51.4104

>  <SCORE.INTRA.VDW>
-1.87466

>  <SCORE.INTRA.VDW.0>
0.110327

>  <SCORE.INTRA.norm>
-0.015416

>  <SCORE.RESTR>
0.654499

>  <SCORE.RESTR.CAVITY>
0.654499

>  <SCORE.RESTR.norm>
0.0204531

>  <SCORE.SYSTEM>
0

>  <SCORE.SYSTEM.CONST>
0

>  <SCORE.SYSTEM.DIHEDRAL>
0

>  <SCORE.SYSTEM.SOLV>
0

>  <SCORE.SYSTEM.norm>
0

>  <SCORE.heavy>
32

>  <SCORE.norm>
-0.408437

>  <RMSD>
15.386

$$$$
lig.pdb
 OpenBabel11021811523D
libRbt.so/2013.1/901 2013/11/27
 32 34  0  0  0  0  0  0  0  0999 V2000
   -1.4589    7.9690   -3.1309 P   0  0  0  0  0  0  0  0  0  0  0  0
   -0.1079    8.1594   -3.7764 O   0  0  0  0  0  0  0  0  0  0  0  0
   -1.6939    9.3699   -2.3469 O   0  0  0  0  0  0  0  0  0  0  0  0
   -2.6724    7.8634   -4.0205 O   0  0  0  0  0  0  0  0  0  0  0  0
   -1.3838    6.7170   -2.4031 O   0  0  0  0  0  0  0  0  0  0  0  0
   -0.7465    6.9485   -1.0856 P   0  0  1  0  0  0  0  0  0  0  0  0
    0.5732    7.5820   -1.3160 O   0  0  0  0  0  0  0  0  0  0  0  0
   -1.5835    7.8587   -0.2696 O   0  0  0  0  0  0  0  0  0  0  0  0
   -0.5815    5.6516   -0.3823 O   0  0  0  0  0  0  0  0  0  0  0  0
    0.2668    5.5007    0.8238 P   0  0  1  0  0  0  0  0  0  0  0  0
    1.1660    6.6405    1.0958 O   0  0  0  0  0  0  0  0  0  0  0  0
   -0.4247    4.9562    2.0136 O   0  0  0  0  0  0  0  0  0  0  0  0
    1.3046    4.3385    0.3870 O   0  0  0  0  0  0  0  0  0  0  0  0
    1.2730    3.0419    0.9533 C   0  0  0  0  0  0  0  0  0  0  0  0
    2.2886    2.0904    0.3056 C   0  0  1  0  0  0  0  0  0  0  0  0
    1.9974    0.7521    0.6529 O   0  0  0  0  0  0  0  0  0  0  0  0
    2.1942    2.0337   -1.2292 C   0  0  1  0  0  0  0  0  0  0  0  0
    2.7714    3.1313   -1.9164 O   0  0  0  0  0  0  0  0  0  0  0  0
    2.8621    0.7030   -1.5747 C   0  0  1  0  0  0  0  0  0  0  0  0
    4.2496    0.8490   -1.8205 O   0  0  0  0  0  0  0  0  0  0  0  0
    2.6741   -0.0771   -0.2749 C   0  0  2  0  0  0  0  0  0  0  0  0
    2.0037   -1.3876   -0.4131 N   0  0  0  0  0  0  0  0  0  0  0  0
    1.1482   -2.0455    0.4340 C   0  0  0  0  0  0  0  0  0  0  0  0
    0.8191   -3.2460    0.0324 N   0  0  0  0  0  0  0  0  0  0  0  0
    1.4825   -3.3913   -1.1823 C   0  0  0  0  0  0  0  0  0  0  0  0
    1.5501   -4.5013   -2.0841 C   0  0  0  0  0  0  0  0  0  0  0  0
    1.0455   -5.6138   -1.9462 O   0  0  0  0  0  0  0  0  0  0  0  0
    2.3091   -4.2246   -3.2292 N   0  0  0  0  0  0  0  0  0  0  0  0
    2.9019   -2.9967   -3.4823 C   0  0  0  0  0  0  0  0  0  0  0  0
    3.5110   -2.8235   -4.6606 N   0  0  0  0  0  0  0  0  0  0  0  0
    2.8762   -1.9747   -2.6114 N   0  0  0  0  0  0  0  0  0  0  0  0
    2.1605   -2.2338   -1.4830 C   0  0  0  0  0  0  0  0  0  0  0  0
  1  2  2  0  0  0  0
  1  4  1  0  0  0  0
  1  3  1  0  0  0  0
  5  1  1  0  0  0  0
  6  7  2  6  0  0  0
  6  9  1  0  0  0  0
  6  5  1  0  0  0  0
  6  8  1  0  0  0  0
 10 11  2  1  0  0  0
 10 12  1  0  0  0  0
 10 13  1  0  0  0  0
 10  9  1  0  0  0  0
 13 14  1  0  0  0  0
 15 14  1  1  0  0  0
 15 16  1  0  0  0  0
 17 19  1  0  0  0  0
 17 15  1  0  0  0  0
 17 18  1  6  0  0  0
 19 21  1  0  0  0  0
 19 20  1  1  0  0  0
 21 16  1  0  0  0  0
 21 22  1  6  0  0  0
 22 32  1  0  0  0  0
 23 22  1  0  0  0  0
 23 24  2  0  0  0  0
 24 25  1  0  0  0  0
 25 26  1  0  0  0  0
 26 27  2  0  0  0  0
 26 28  1  0  0  0  0
 29 28  1  0  0  0  0
 29 30  1  0  0  0  0
 31 29  2  0  0  0  0
 32 25  2  0  0  0  0
 32 31  1  0  0  0  0
M  END
>  <CHROM.1>
82.58442732,167.08041643,-55.68602417,-110.46198015,-13.14925440,175.85860182
-165.26711864,-100.72345799,-176.48448940,-21.66316745,0.87257282,2.78655916
-1.24960903,2.70989694,-1.24983458,1.14616622

>  <Name>
lig.pdb

>  <RI>
4.14043e+07

>  <Rbt.Current_Directory>
/home/itssahil/PROJECTS/Mol_Feturizer/New_Systems/rnas/5lwj

>  <Rbt.Executable>
rbdock ($Id: //depot/dev/client3/rdock/2013.1/src/exe/rbdock.cxx#4 $)

>  <Rbt.Library>
libRbt.so (2013.1, Build901 2013/11/27)

>  <Rbt.Parameter_File>
/export/apps/rDock/src/rDock_2013.1_src/data/scripts/dock_solv.prm

>  <Rbt.Receptor>
prm/blind_docking_80.prm

>  <SCORE>
-35.0127

>  <SCORE.INTER>
-35.582

>  <SCORE.INTER.CONST>
1

>  <SCORE.INTER.POLAR>
-2.30486

>  <SCORE.INTER.ROT>
8

>  <SCORE.INTER.SOLV>
23.7897

>  <SCORE.INTER.VDW>
-32.9017

>  <SCORE.INTER.norm>
-1.11194

>  <SCORE.INTRA>
0.138199

>  <SCORE.INTRA.DIHEDRAL>
4.05871

>  <SCORE.INTRA.DIHEDRAL.0>
10.9248

>  <SCORE.INTRA.POLAR>
0

>  <SCORE.INTRA.POLAR.0>
0

>  <SCORE.INTRA.REPUL>
0

>  <SCORE.INTRA.REPUL.0>
0

>  <SCORE.INTRA.SOLV>
-0.126319

>  <SCORE.INTRA.SOLV.lig_0>
-51.4104

>  <SCORE.INTRA.VDW>
-1.828

>  <SCORE.INTRA.VDW.0>
0.110327

>  <SCORE.INTRA.norm>
0.00431872

>  <SCORE.RESTR>
0.431103

>  <SCORE.RESTR.CAVITY>
0.431103

>  <SCORE.RESTR.norm>
0.013472

>  <SCORE.SYSTEM>
0

>  <SCORE.SYSTEM.CONST>
0

>  <SCORE.SYSTEM.DIHEDRAL>
0

>  <SCORE.SYSTEM.SOLV>
0

>  <SCORE.SYSTEM.norm>
0

>  <SCORE.heavy>
32

>  <SCORE.norm>
-1.09415

>  <RMSD>
15.483

$$$$
lig.pdb
 OpenBabel11021811523D
libRbt.so/2013.1/901 2013/11/27
 32 34  0  0  0  0  0  0  0  0999 V2000
    2.1336   -1.9580   -0.8758 P   0  0  0  0  0  0  0  0  0  0  0  0
    2.4902   -2.4292   -2.2646 O   0  0  0  0  0  0  0  0  0  0  0  0
    2.7610   -3.1114    0.0774 O   0  0  0  0  0  0  0  0  0  0  0  0
    2.7755   -0.6951   -0.3579 O   0  0  0  0  0  0  0  0  0  0  0  0
    0.7056   -1.7061   -0.8910 O   0  0  0  0  0  0  0  0  0  0  0  0
    0.2409   -1.4109    0.4847 P   0  0  1  0  0  0  0  0  0  0  0  0
   -1.2410   -1.4093    0.4809 O   0  0  0  0  0  0  0  0  0  0  0  0
    0.7205   -2.4566    1.4180 O   0  0  0  0  0  0  0  0  0  0  0  0
    0.7581   -0.0849    0.9066 O   0  0  0  0  0  0  0  0  0  0  0  0
    0.4634    1.1607    0.1592 P   0  0  1  0  0  0  0  0  0  0  0  0
    1.0190    1.2091   -1.2086 O   0  0  0  0  0  0  0  0  0  0  0  0
   -0.9262    1.6540    0.2839 O   0  0  0  0  0  0  0  0  0  0  0  0
    1.3592    2.2628    0.9350 O   0  0  0  0  0  0  0  0  0  0  0  0
    0.7846    3.2876    1.7238 C   0  0  0  0  0  0  0  0  0  0  0  0
    0.3332    4.4930    0.8875 C   0  0  1  0  0  0  0  0  0  0  0  0
   -1.0678    4.4670    0.7062 O   0  0  0  0  0  0  0  0  0  0  0  0
    0.5232    5.8456    1.5960 C   0  0  1  0  0  0  0  0  0  0  0  0
    1.8505    6.3437    1.6133 O   0  0  0  0  0  0  0  0  0  0  0  0
   -0.4451    6.7695    0.8577 C   0  0  1  0  0  0  0  0  0  0  0  0
    0.1726    7.4301   -0.2328 O   0  0  0  0  0  0  0  0  0  0  0  0
   -1.4624    5.7691    0.3121 C   0  0  2  0  0  0  0  0  0  0  0  0
   -2.8710    6.0362    0.6734 N   0  0  0  0  0  0  0  0  0  0  0  0
   -3.5141    5.9467    1.8820 C   0  0  0  0  0  0  0  0  0  0  0  0
   -4.8021    6.1653    1.8177 N   0  0  0  0  0  0  0  0  0  0  0  0
   -5.0322    6.4452    0.4741 C   0  0  0  0  0  0  0  0  0  0  0  0
   -6.2483    6.7250   -0.2280 C   0  0  0  0  0  0  0  0  0  0  0  0
   -7.3914    6.7387    0.2241 O   0  0  0  0  0  0  0  0  0  0  0  0
   -6.0408    6.9892   -1.5885 N   0  0  0  0  0  0  0  0  0  0  0  0
   -4.7898    7.0140   -2.1863 C   0  0  0  0  0  0  0  0  0  0  0  0
   -4.7133    7.3838   -3.4697 N   0  0  0  0  0  0  0  0  0  0  0  0
   -3.6573    6.7036   -1.5345 N   0  0  0  0  0  0  0  0  0  0  0  0
   -3.8432    6.4231   -0.2157 C   0  0  0  0  0  0  0  0  0  0  0  0
  1  2  2  0  0  0  0
  1  4  1  0  0  0  0
  1  3  1  0  0  0  0
  5  1  1  0  0  0  0
  6  7  2  1  0  0  0
  6  9  1  0  0  0  0
  6  5  1  0  0  0  0
  6  8  1  0  0  0  0
 10 11  2  6  0  0  0
 10 12  1  0  0  0  0
 10 13  1  0  0  0  0
 10  9  1  0  0  0  0
 13 14  1  0  0  0  0
 15 14  1  1  0  0  0
 15 16  1  0  0  0  0
 17 19  1  0  0  0  0
 17 15  1  0  0  0  0
 17 18  1  6  0  0  0
 19 21  1  0  0  0  0
 19 20  1  6  0  0  0
 21 16  1  0  0  0  0
 21 22  1  1  0  0  0
 22 32  1  0  0  0  0
 23 22  1  0  0  0  0
 23 24  2  0  0  0  0
 24 25  1  0  0  0  0
 25 26  1  0  0  0  0
 26 27  2  0  0  0  0
 26 28  1  0  0  0  0
 29 28  1  0  0  0  0
 29 30  1  0  0  0  0
 31 29  2  0  0  0  0
 32 25  2  0  0  0  0
 32 31  1  0  0  0  0
M  END
>  <CHROM.1>
172.55413146,58.33384048,-169.58036447,-110.61791344,-64.55310269,-82.99529334
102.29334092,-158.29893129,-177.21470604,54.53785493,-0.88634603,2.82688566
0.04693369,0.94312475,0.27668612,-2.96273649

>  <Name>
lig.pdb

>  <RI>
1.2169e+07

>  <Rbt.Current_Directory>
/home/itssahil/PROJECTS/Mol_Feturizer/New_Systems/rnas/5lwj

>  <Rbt.Executable>
rbdock ($Id: //depot/dev/client3/rdock/2013.1/src/exe/rbdock.cxx#4 $)

>  <Rbt.Library>
libRbt.so (2013.1, Build901 2013/11/27)

>  <Rbt.Parameter_File>
/export/apps/rDock/src/rDock_2013.1_src/data/scripts/dock_solv.prm

>  <Rbt.Receptor>
prm/blind_docking_40.prm

>  <SCORE>
-25.4938

>  <SCORE.INTER>
-26.0567

>  <SCORE.INTER.CONST>
1

>  <SCORE.INTER.POLAR>
-2.88614

>  <SCORE.INTER.ROT>
8

>  <SCORE.INTER.SOLV>
23.9693

>  <SCORE.INTER.VDW>
-24.6738

>  <SCORE.INTER.norm>
-0.814271

>  <SCORE.INTRA>
-0.853838

>  <SCORE.INTRA.DIHEDRAL>
2.8692

>  <SCORE.INTRA.DIHEDRAL.0>
10.9248

>  <SCORE.INTRA.POLAR>
0

>  <SCORE.INTRA.POLAR.0>
0

>  <SCORE.INTRA.REPUL>
0

>  <SCORE.INTRA.REPUL.0>
0

>  <SCORE.INTRA.SOLV>
0.550949

>  <SCORE.INTRA.SOLV.lig_0>
-51.4104

>  <SCORE.INTRA.VDW>
-2.56391

>  <SCORE.INTRA.VDW.0>
0.110327

>  <SCORE.INTRA.norm>
-0.0266824

>  <SCORE.RESTR>
1.4167

>  <SCORE.RESTR.CAVITY>
1.4167

>  <SCORE.RESTR.norm>
0.0442719

>  <SCORE.SYSTEM>
0

>  <SCORE.SYSTEM.CONST>
0

>  <SCORE.SYSTEM.DIHEDRAL>
0

>  <SCORE.SYSTEM.SOLV>
0

>  <SCORE.SYSTEM.norm>
0

>  <SCORE.heavy>
32

>  <SCORE.norm>
-0.796681

>  <RMSD>
15.484

$$$$
lig.pdb
 OpenBabel11021811523D
libRbt.so/2013.1/901 2013/11/27
 32 34  0  0  0  0  0  0  0  0999 V2000
   -3.5759    6.8810   -0.4255 P   0  0  0  0  0  0  0  0  0  0  0  0
   -3.7497    8.2661   -0.9994 O   0  0  0  0  0  0  0  0  0  0  0  0
   -4.8971    6.6959    0.4980 O   0  0  0  0  0  0  0  0  0  0  0  0
   -3.6415    5.7009   -1.3625 O   0  0  0  0  0  0  0  0  0  0  0  0
   -2.2512    6.8534    0.1637 O   0  0  0  0  0  0  0  0  0  0  0  0
   -2.1778    5.7632    1.1645 P   0  0  1  0  0  0  0  0  0  0  0  0
   -3.1593    6.0534    2.2362 O   0  0  0  0  0  0  0  0  0  0  0  0
   -2.5223    4.4688    0.5315 O   0  0  0  0  0  0  0  0  0  0  0  0
   -0.8047    5.6990    1.7249 O   0  0  0  0  0  0  0  0  0  0  0  0
    0.3656    5.2730    0.9213 P   0  0  1  0  0  0  0  0  0  0  0  0
    0.2875    5.6106   -0.5146 O   0  0  0  0  0  0  0  0  0  0  0  0
    1.6825    5.5232    1.5484 O   0  0  0  0  0  0  0  0  0  0  0  0
    0.2203    3.6614    0.9056 O   0  0  0  0  0  0  0  0  0  0  0  0
    1.1078    2.8134    1.6098 C   0  0  0  0  0  0  0  0  0  0  0  0
    2.3195    2.3956    0.7651 C   0  0  1  0  0  0  0  0  0  0  0  0
    2.7085    1.0754    1.0849 O   0  0  0  0  0  0  0  0  0  0  0  0
    2.0135    2.2670   -0.7374 C   0  0  1  0  0  0  0  0  0  0  0  0
    1.9283    3.4903   -1.4491 O   0  0  0  0  0  0  0  0  0  0  0  0
    3.1342    1.3624   -1.2494 C   0  0  1  0  0  0  0  0  0  0  0  0
    4.2553    2.1024   -1.6995 O   0  0  0  0  0  0  0  0  0  0  0  0
    3.5219    0.6105    0.0225 C   0  0  2  0  0  0  0  0  0  0  0  0
    3.4855   -0.8642   -0.0766 N   0  0  0  0  0  0  0  0  0  0  0  0
    4.4505   -1.7556   -0.4721 C   0  0  0  0  0  0  0  0  0  0  0  0
    4.0382   -2.9954   -0.5322 N   0  0  0  0  0  0  0  0  0  0  0  0
    2.7094   -2.9314   -0.1239 C   0  0  0  0  0  0  0  0  0  0  0  0
    1.7127   -3.9540   -0.0199 C   0  0  0  0  0  0  0  0  0  0  0  0
    1.8199   -5.1416   -0.3187 O   0  0  0  0  0  0  0  0  0  0  0  0
    0.4913   -3.4732    0.4709 N   0  0  0  0  0  0  0  0  0  0  0  0
    0.2784   -2.1566    0.8508 C   0  0  0  0  0  0  0  0  0  0  0  0
   -0.8988   -1.8442    1.4043 N   0  0  0  0  0  0  0  0  0  0  0  0
    1.2011   -1.1914    0.7060 N   0  0  0  0  0  0  0  0  0  0  0  0
    2.3875   -1.6372    0.2100 C   0  0  0  0  0  0  0  0  0  0  0  0
  1  2  2  0  0  0  0
  1  4  1  0  0  0  0
  1  3  1  0  0  0  0
  5  1  1  0  0  0  0
  6  7  2  1  0  0  0
  6  9  1  0  0  0  0
  6  5  1  0  0  0  0
  6  8  1  0  0  0  0
 10 11  2  6  0  0  0
 10 12  1  0  0  0  0
 10 13  1  0  0  0  0
 10  9  1  0  0  0  0
 13 14  1  0  0  0  0
 15 14  1  1  0  0  0
 15 16  1  0  0  0  0
 17 19  1  0  0  0  0
 17 15  1  0  0  0  0
 17 18  1  6  0  0  0
 19 21  1  0  0  0  0
 19 20  1  1  0  0  0
 21 16  1  0  0  0  0
 21 22  1  6  0  0  0
 22 32  1  0  0  0  0
 23 22  1  0  0  0  0
 23 24  2  0  0  0  0
 24 25  1  0  0  0  0
 25 26  1  0  0  0  0
 26 27  2  0  0  0  0
 26 28  1  0  0  0  0
 29 28  1  0  0  0  0
 29 30  1  0  0  0  0
 31 29  2  0  0  0  0
 32 25  2  0  0  0  0
 32 31  1  0  0  0  0
M  END
>  <CHROM.1>
158.94122242,-68.24500063,-62.11647316,-109.83196812,31.60722102,-89.97127423
-145.29461768,89.27945214,69.89897417,-147.51031478,0.24251311,2.58880448
0.24957131,2.11482949,0.14706577,-0.04944995

>  <Name>
lig.pdb

>  <RI>
1.2169e+07

>  <Rbt.Current_Directory>
/home/itssahil/PROJECTS/Mol_Feturizer/New_Systems/rnas/5lwj

>  <Rbt.Executable>
rbdock ($Id: //depot/dev/client3/rdock/2013.1/src/exe/rbdock.cxx#4 $)

>  <Rbt.Library>
libRbt.so (2013.1, Build901 2013/11/27)

>  <Rbt.Parameter_File>
/export/apps/rDock/src/rDock_2013.1_src/data/scripts/dock_solv.prm

>  <Rbt.Receptor>
prm/blind_docking_40.prm

>  <SCORE>
-25.6773

>  <SCORE.INTER>
-30.7827

>  <SCORE.INTER.CONST>
1

>  <SCORE.INTER.POLAR>
-2.35631

>  <SCORE.INTER.ROT>
8

>  <SCORE.INTER.SOLV>
23.7657

>  <SCORE.INTER.VDW>
-29.5227

>  <SCORE.INTER.norm>
-0.961961

>  <SCORE.INTRA>
1.36759

>  <SCORE.INTRA.DIHEDRAL>
6.018

>  <SCORE.INTRA.DIHEDRAL.0>
10.9248

>  <SCORE.INTRA.POLAR>
-0.0233252

>  <SCORE.INTRA.POLAR.0>
0

>  <SCORE.INTRA.REPUL>
0

>  <SCORE.INTRA.REPUL.0>
0

>  <SCORE.INTRA.SOLV>
1.55185

>  <SCORE.INTRA.SOLV.lig_0>
-51.4104

>  <SCORE.INTRA.VDW>
-2.33803

>  <SCORE.INTRA.VDW.0>
0.110327

>  <SCORE.INTRA.norm>
0.0427372

>  <SCORE.RESTR>
3.73789

>  <SCORE.RESTR.CAVITY>
3.73789

>  <SCORE.RESTR.norm>
0.116809

>  <SCORE.SYSTEM>
0

>  <SCORE.SYSTEM.CONST>
0

>  <SCORE.SYSTEM.DIHEDRAL>
0

>  <SCORE.SYSTEM.SOLV>
0

>  <SCORE.SYSTEM.norm>
0

>  <SCORE.heavy>
32

>  <SCORE.norm>
-0.802414

>  <RMSD>
15.486

$$$$
lig.pdb
 OpenBabel11021811523D
libRbt.so/2013.1/901 2013/11/27
 32 34  0  0  0  0  0  0  0  0999 V2000
   -6.5014    4.6418   -0.9548 P   0  0  0  0  0  0  0  0  0  0  0  0
   -6.0192    4.5936   -2.3842 O   0  0  0  0  0  0  0  0  0  0  0  0
   -7.6761    5.7602   -0.9993 O   0  0  0  0  0  0  0  0  0  0  0  0
   -7.1998    3.4299   -0.3902 O   0  0  0  0  0  0  0  0  0  0  0  0
   -5.3198    4.8416   -0.1385 O   0  0  0  0  0  0  0  0  0  0  0  0
   -5.0294    6.2910   -0.0351 P   0  0  1  0  0  0  0  0  0  0  0  0
   -4.8921    6.8333   -1.4073 O   0  0  0  0  0  0  0  0  0  0  0  0
   -6.1453    6.9848    0.6492 O   0  0  0  0  0  0  0  0  0  0  0  0
   -3.7712    6.4893    0.7273 O   0  0  0  0  0  0  0  0  0  0  0  0
   -2.9554    5.3577    1.2282 P   0  0  1  0  0  0  0  0  0  0  0  0
   -3.1548    5.0338    2.6555 O   0  0  0  0  0  0  0  0  0  0  0  0
   -2.8880    4.1853    0.3277 O   0  0  0  0  0  0  0  0  0  0  0  0
   -1.4562    5.9668    1.2185 O   0  0  0  0  0  0  0  0  0  0  0  0
   -0.3944    5.3560    0.5099 C   0  0  0  0  0  0  0  0  0  0  0  0
    0.2947    4.2484    1.3191 C   0  0  1  0  0  0  0  0  0  0  0  0
   -0.0946    2.9772    0.8409 O   0  0  0  0  0  0  0  0  0  0  0  0
    1.8198    4.1935    1.1220 C   0  0  1  0  0  0  0  0  0  0  0  0
    2.5609    5.1784    1.8227 O   0  0  0  0  0  0  0  0  0  0  0  0
    2.1794    2.7700    1.5470 C   0  0  1  0  0  0  0  0  0  0  0  0
    2.5104    2.6901    2.9222 O   0  0  0  0  0  0  0  0  0  0  0  0
    0.8561    2.0419    1.3184 C   0  0  2  0  0  0  0  0  0  0  0  0
    0.9292    0.8543    0.4408 N   0  0  0  0  0  0  0  0  0  0  0  0
    0.3401   -0.3792    0.5585 C   0  0  0  0  0  0  0  0  0  0  0  0
    0.7058   -1.2343   -0.3612 N   0  0  0  0  0  0  0  0  0  0  0  0
    1.5831   -0.5131   -1.1656 C   0  0  0  0  0  0  0  0  0  0  0  0
    2.3447   -0.9120   -2.3105 C   0  0  0  0  0  0  0  0  0  0  0  0
    2.4120   -2.0303   -2.8164 O   0  0  0  0  0  0  0  0  0  0  0  0
    3.0903    0.1400   -2.8594 N   0  0  0  0  0  0  0  0  0  0  0  0
    3.0667    1.4377   -2.3710 C   0  0  0  0  0  0  0  0  0  0  0  0
    3.7393    2.3763   -3.0466 N   0  0  0  0  0  0  0  0  0  0  0  0
    2.3888    1.7959   -1.2683 N   0  0  0  0  0  0  0  0  0  0  0  0
    1.6754    0.7804   -0.7094 C   0  0  0  0  0  0  0  0  0  0  0  0
  1  2  2  0  0  0  0
  1  4  1  0  0  0  0
  1  3  1  0  0  0  0
  5  1  1  0  0  0  0
  6  7  2  6  0  0  0
  6  9  1  0  0  0  0
  6  5  1  0  0  0  0
  6  8  1  0  0  0  0
 10 11  2  1  0  0  0
 10 12  1  0  0  0  0
 10 13  1  0  0  0  0
 10  9  1  0  0  0  0
 13 14  1  0  0  0  0
 15 14  1  6  0  0  0
 15 16  1  0  0  0  0
 17 19  1  0  0  0  0
 17 15  1  0  0  0  0
 17 18  1  1  0  0  0
 19 21  1  0  0  0  0
 19 20  1  1  0  0  0
 21 16  1  0  0  0  0
 21 22  1  6  0  0  0
 22 32  1  0  0  0  0
 23 22  1  0  0  0  0
 23 24  2  0  0  0  0
 24 25  1  0  0  0  0
 25 26  1  0  0  0  0
 26 27  2  0  0  0  0
 26 28  1  0  0  0  0
 29 28  1  0  0  0  0
 29 30  1  0  0  0  0
 31 29  2  0  0  0  0
 32 25  2  0  0  0  0
 32 31  1  0  0  0  0
M  END
>  <CHROM.1>
86.34033984,2.28491310,-56.11924091,-123.54827148,-99.53120355,-85.23591692
104.56261687,5.22346483,158.57754879,-97.96364812,-1.48050698,3.52837684
-0.08378349,2.68484333,-0.30638467,0.68276232

>  <Name>
lig.pdb

>  <RI>
1.17715e+07

>  <Rbt.Current_Directory>
/home/itssahil/PROJECTS/Mol_Feturizer/New_Systems/rnas/5lwj

>  <Rbt.Executable>
rbdock ($Id: //depot/dev/client3/rdock/2013.1/src/exe/rbdock.cxx#4 $)

>  <Rbt.Library>
libRbt.so (2013.1, Build901 2013/11/27)

>  <Rbt.Parameter_File>
/export/apps/rDock/src/rDock_2013.1_src/data/scripts/dock_solv.prm

>  <Rbt.Receptor>
prm/blind_docking_60.prm

>  <SCORE>
17.8084

>  <SCORE.INTER>
11.1206

>  <SCORE.INTER.CONST>
1

>  <SCORE.INTER.POLAR>
-2.37239

>  <SCORE.INTER.ROT>
8

>  <SCORE.INTER.SOLV>
28.2873

>  <SCORE.INTER.VDW>
-3.04073

>  <SCORE.INTER.norm>
0.34752

>  <SCORE.INTRA>
5.78507

>  <SCORE.INTRA.DIHEDRAL>
14.939

>  <SCORE.INTRA.DIHEDRAL.0>
10.9248

>  <SCORE.INTRA.POLAR>
0

>  <SCORE.INTRA.POLAR.0>
0

>  <SCORE.INTRA.REPUL>
0

>  <SCORE.INTRA.REPUL.0>
0

>  <SCORE.INTRA.SOLV>
0.300579

>  <SCORE.INTRA.SOLV.lig_0>
-51.4104

>  <SCORE.INTRA.VDW>
-1.83475

>  <SCORE.INTRA.VDW.0>
0.110327

>  <SCORE.INTRA.norm>
0.180783

>  <SCORE.RESTR>
0.902675

>  <SCORE.RESTR.CAVITY>
0.902675

>  <SCORE.RESTR.norm>
0.0282086

>  <SCORE.SYSTEM>
0

>  <SCORE.SYSTEM.CONST>
0

>  <SCORE.SYSTEM.DIHEDRAL>
0

>  <SCORE.SYSTEM.SOLV>
0

>  <SCORE.SYSTEM.norm>
0

>  <SCORE.heavy>
32

>  <SCORE.norm>
0.556512

>  <RMSD>
15.496

$$$$
lig.pdb
 OpenBabel11021811523D
libRbt.so/2013.1/901 2013/11/27
 32 34  0  0  0  0  0  0  0  0999 V2000
    2.1278   -1.2269    0.0942 P   0  0  0  0  0  0  0  0  0  0  0  0
    2.7183   -0.0100    0.7640 O   0  0  0  0  0  0  0  0  0  0  0  0
    1.6450   -0.6573   -1.3463 O   0  0  0  0  0  0  0  0  0  0  0  0
    3.0490   -2.3628   -0.2747 O   0  0  0  0  0  0  0  0  0  0  0  0
    1.1681   -1.7761    1.0323 O   0  0  0  0  0  0  0  0  0  0  0  0
   -0.0486   -0.9305    1.0470 P   0  0  1  0  0  0  0  0  0  0  0  0
   -0.7614   -1.1249   -0.2376 O   0  0  0  0  0  0  0  0  0  0  0  0
   -0.9376   -1.3392    2.1594 O   0  0  0  0  0  0  0  0  0  0  0  0
    0.3409    0.4924    1.2116 O   0  0  0  0  0  0  0  0  0  0  0  0
   -0.0819    1.5500    0.2631 P   0  0  1  0  0  0  0  0  0  0  0  0
    0.4345    2.8996    0.5689 O   0  0  0  0  0  0  0  0  0  0  0  0
   -0.0242    1.1709   -1.1663 O   0  0  0  0  0  0  0  0  0  0  0  0
   -1.6611    1.7041    0.5812 O   0  0  0  0  0  0  0  0  0  0  0  0
   -2.5487    2.3747   -0.2935 C   0  0  0  0  0  0  0  0  0  0  0  0
   -2.8661    3.8034    0.1693 C   0  0  1  0  0  0  0  0  0  0  0  0
   -1.7105    4.6125    0.0903 O   0  0  0  0  0  0  0  0  0  0  0  0
   -3.8299    4.5579   -0.7632 C   0  0  1  0  0  0  0  0  0  0  0  0
   -5.1977    4.2051   -0.6408 O   0  0  0  0  0  0  0  0  0  0  0  0
   -3.5662    6.0261   -0.4299 C   0  0  1  0  0  0  0  0  0  0  0  0
   -4.4248    6.5054    0.5900 O   0  0  0  0  0  0  0  0  0  0  0  0
   -2.1420    5.9614    0.1187 C   0  0  2  0  0  0  0  0  0  0  0  0
   -1.1659    6.8520   -0.5446 N   0  0  0  0  0  0  0  0  0  0  0  0
    0.0287    7.3567   -0.0969 C   0  0  0  0  0  0  0  0  0  0  0  0
    0.5923    8.2020   -0.9207 N   0  0  0  0  0  0  0  0  0  0  0  0
   -0.2756    8.2466   -2.0076 C   0  0  0  0  0  0  0  0  0  0  0  0
   -0.2282    9.0208   -3.2110 C   0  0  0  0  0  0  0  0  0  0  0  0
    0.6039    9.8686   -3.5274 O   0  0  0  0  0  0  0  0  0  0  0  0
   -1.2934    8.7418   -4.0779 N   0  0  0  0  0  0  0  0  0  0  0  0
   -2.2698    7.7921   -3.8177 C   0  0  0  0  0  0  0  0  0  0  0  0
   -3.1742    7.5423   -4.7714 N   0  0  0  0  0  0  0  0  0  0  0  0
   -2.3371    7.1033   -2.6667 N   0  0  0  0  0  0  0  0  0  0  0  0
   -1.3213    7.3778   -1.8034 C   0  0  0  0  0  0  0  0  0  0  0  0
  1  2  2  0  0  0  0
  1  4  1  0  0  0  0
  1  3  1  0  0  0  0
  5  1  1  0  0  0  0
  6  7  2  6  0  0  0
  6  9  1  0  0  0  0
  6  5  1  0  0  0  0
  6  8  1  0  0  0  0
 10 11  2  1  0  0  0
 10 12  1  0  0  0  0
 10 13  1  0  0  0  0
 10  9  1  0  0  0  0
 13 14  1  0  0  0  0
 15 14  1  6  0  0  0
 15 16  1  0  0  0  0
 17 19  1  0  0  0  0
 17 15  1  0  0  0  0
 17 18  1  1  0  0  0
 19 21  1  0  0  0  0
 19 20  1  1  0  0  0
 21 16  1  0  0  0  0
 21 22  1  6  0  0  0
 22 32  1  0  0  0  0
 23 22  1  0  0  0  0
 23 24  2  0  0  0  0
 24 25  1  0  0  0  0
 25 26  1  0  0  0  0
 26 27  2  0  0  0  0
 26 28  1  0  0  0  0
 29 28  1  0  0  0  0
 29 30  1  0  0  0  0
 31 29  2  0  0  0  0
 32 25  2  0  0  0  0
 32 31  1  0  0  0  0
M  END
>  <CHROM.1>
74.91548483,125.01393298,70.65550199,-164.70410391,-178.33703150,-100.63089909
66.84456304,-58.58337105,-167.98422778,-78.20179352,-0.73536776,3.32347963
-0.58618093,-1.27074676,0.27653605,-0.39305709

>  <Name>
lig.pdb

>  <RI>
4.14043e+07

>  <Rbt.Current_Directory>
/home/itssahil/PROJECTS/Mol_Feturizer/New_Systems/rnas/5lwj

>  <Rbt.Executable>
rbdock ($Id: //depot/dev/client3/rdock/2013.1/src/exe/rbdock.cxx#4 $)

>  <Rbt.Library>
libRbt.so (2013.1, Build901 2013/11/27)

>  <Rbt.Parameter_File>
/export/apps/rDock/src/rDock_2013.1_src/data/scripts/dock_solv.prm

>  <Rbt.Receptor>
prm/blind_docking_80.prm

>  <SCORE>
67.8026

>  <SCORE.INTER>
67.3077

>  <SCORE.INTER.CONST>
1

>  <SCORE.INTER.POLAR>
-1.30968

>  <SCORE.INTER.ROT>
8

>  <SCORE.INTER.SOLV>
23.2146

>  <SCORE.INTER.VDW>
32.5658

>  <SCORE.INTER.norm>
2.10336

>  <SCORE.INTRA>
0.0199853

>  <SCORE.INTRA.DIHEDRAL>
1.76393

>  <SCORE.INTRA.DIHEDRAL.0>
10.9248

>  <SCORE.INTRA.POLAR>
0

>  <SCORE.INTRA.POLAR.0>
0

>  <SCORE.INTRA.REPUL>
0

>  <SCORE.INTRA.REPUL.0>
0

>  <SCORE.INTRA.SOLV>
3.10641

>  <SCORE.INTRA.SOLV.lig_0>
-51.4104

>  <SCORE.INTRA.VDW>
-2.41519

>  <SCORE.INTRA.VDW.0>
0.110327

>  <SCORE.INTRA.norm>
0.00062454

>  <SCORE.RESTR>
0.474982

>  <SCORE.RESTR.CAVITY>
0.474982

>  <SCORE.RESTR.norm>
0.0148432

>  <SCORE.SYSTEM>
0

>  <SCORE.SYSTEM.CONST>
0

>  <SCORE.SYSTEM.DIHEDRAL>
0

>  <SCORE.SYSTEM.SOLV>
0

>  <SCORE.SYSTEM.norm>
0

>  <SCORE.heavy>
32

>  <SCORE.norm>
2.11883

>  <RMSD>
15.500

$$$$
lig.pdb
 OpenBabel11021811523D
libRbt.so/2013.1/901 2013/11/27
 32 34  0  0  0  0  0  0  0  0999 V2000
   -4.4203    4.6409   -0.7214 P   0  0  0  0  0  0  0  0  0  0  0  0
   -3.3770    3.6261   -0.3218 O   0  0  0  0  0  0  0  0  0  0  0  0
   -3.6508    5.5453   -1.8270 O   0  0  0  0  0  0  0  0  0  0  0  0
   -5.6448    4.1607   -1.4597 O   0  0  0  0  0  0  0  0  0  0  0  0
   -4.9008    5.2309    0.5130 O   0  0  0  0  0  0  0  0  0  0  0  0
   -3.7617    5.8191    1.2561 P   0  0  1  0  0  0  0  0  0  0  0  0
   -4.2653    6.9766    2.0323 O   0  0  0  0  0  0  0  0  0  0  0  0
   -3.1954    4.8197    2.1916 O   0  0  0  0  0  0  0  0  0  0  0  0
   -2.7181    6.2560    0.2951 O   0  0  0  0  0  0  0  0  0  0  0  0
   -1.3334    6.5791    0.7137 P   0  0  1  0  0  0  0  0  0  0  0  0
   -0.6631    7.6102   -0.1043 O   0  0  0  0  0  0  0  0  0  0  0  0
   -1.1350    6.7172    2.1737 O   0  0  0  0  0  0  0  0  0  0  0  0
   -0.5184    5.2389    0.3159 O   0  0  0  0  0  0  0  0  0  0  0  0
    0.4979    4.6974    1.1384 C   0  0  0  0  0  0  0  0  0  0  0  0
    0.7686    3.2154    0.8435 C   0  0  1  0  0  0  0  0  0  0  0  0
    1.3605    3.0693   -0.4311 O   0  0  0  0  0  0  0  0  0  0  0  0
    1.8415    2.5882    1.7508 C   0  0  1  0  0  0  0  0  0  0  0  0
    1.4141    2.2582    3.0618 O   0  0  0  0  0  0  0  0  0  0  0  0
    2.3062    1.3681    0.9561 C   0  0  1  0  0  0  0  0  0  0  0  0
    1.5694    0.2036    1.2847 O   0  0  0  0  0  0  0  0  0  0  0  0
    1.9545    1.7840   -0.4711 C   0  0  2  0  0  0  0  0  0  0  0  0
    3.0717    1.7381   -1.4385 N   0  0  0  0  0  0  0  0  0  0  0  0
    3.6782    2.7430   -2.1488 C   0  0  0  0  0  0  0  0  0  0  0  0
    4.5816    2.3254   -2.9975 N   0  0  0  0  0  0  0  0  0  0  0  0
    4.5974    0.9447   -2.8243 C   0  0  0  0  0  0  0  0  0  0  0  0
    5.3474   -0.0735   -3.4957 C   0  0  0  0  0  0  0  0  0  0  0  0
    6.1366    0.0652   -4.4280 O   0  0  0  0  0  0  0  0  0  0  0  0
    5.0920   -1.3563   -2.9925 N   0  0  0  0  0  0  0  0  0  0  0  0
    4.2335   -1.6116   -1.9338 C   0  0  0  0  0  0  0  0  0  0  0  0
    4.1554   -2.8662   -1.4760 N   0  0  0  0  0  0  0  0  0  0  0  0
    3.4960   -0.6595   -1.3394 N   0  0  0  0  0  0  0  0  0  0  0  0
    3.7159    0.5907   -1.8306 C   0  0  0  0  0  0  0  0  0  0  0  0
  1  2  2  0  0  0  0
  1  4  1  0  0  0  0
  1  3  1  0  0  0  0
  5  1  1  0  0  0  0
  6  7  2  1  0  0  0
  6  9  1  0  0  0  0
  6  5  1  0  0  0  0
  6  8  1  0  0  0  0
 10 11  2  6  0  0  0
 10 12  1  0  0  0  0
 10 13  1  0  0  0  0
 10  9  1  0  0  0  0
 13 14  1  0  0  0  0
 15 14  1  1  0  0  0
 15 16  1  0  0  0  0
 17 19  1  0  0  0  0
 17 15  1  0  0  0  0
 17 18  1  1  0  0  0
 19 21  1  0  0  0  0
 19 20  1  1  0  0  0
 21 16  1  0  0  0  0
 21 22  1  6  0  0  0
 22 32  1  0  0  0  0
 23 22  1  0  0  0  0
 23 24  2  0  0  0  0
 24 25  1  0  0  0  0
 25 26  1  0  0  0  0
 26 27  2  0  0  0  0
 26 28  1  0  0  0  0
 29 28  1  0  0  0  0
 29 30  1  0  0  0  0
 31 29  2  0  0  0  0
 32 25  2  0  0  0  0
 32 31  1  0  0  0  0
M  END
>  <CHROM.1>
57.26162334,-164.86473564,149.56927444,-140.28105659,-149.20754097,159.39355426
68.50473817,170.36594072,-21.83187199,8.05146828,0.10413913,3.30220097,-0.28030095
2.58133834,-0.42404847,1.00483585

>  <Name>
lig.pdb

>  <RI>
3.17878e+07

>  <Rbt.Current_Directory>
/home/itssahil/PROJECTS/Mol_Feturizer/New_Systems/rnas/5lwj

>  <Rbt.Executable>
rbdock ($Id: //depot/dev/client3/rdock/2013.1/src/exe/rbdock.cxx#4 $)

>  <Rbt.Library>
libRbt.so (2013.1, Build901 2013/11/27)

>  <Rbt.Parameter_File>
/export/apps/rDock/src/rDock_2013.1_src/data/scripts/dock_solv.prm

>  <Rbt.Receptor>
prm/blind_docking_100.prm

>  <SCORE>
-12.7699

>  <SCORE.INTER>
-17.0132

>  <SCORE.INTER.CONST>
1

>  <SCORE.INTER.POLAR>
-1.84181

>  <SCORE.INTER.ROT>
8

>  <SCORE.INTER.SOLV>
27.1628

>  <SCORE.INTER.VDW>
-23.1903

>  <SCORE.INTER.norm>
-0.531661

>  <SCORE.INTRA>
2.45118

>  <SCORE.INTRA.DIHEDRAL>
4.37134

>  <SCORE.INTRA.DIHEDRAL.0>
10.9248

>  <SCORE.INTRA.POLAR>
0

>  <SCORE.INTRA.POLAR.0>
0

>  <SCORE.INTRA.REPUL>
0

>  <SCORE.INTRA.REPUL.0>
0

>  <SCORE.INTRA.SOLV>
0.571204

>  <SCORE.INTRA.SOLV.lig_0>
-51.4104

>  <SCORE.INTRA.VDW>
-0.0200892

>  <SCORE.INTRA.VDW.0>
0.110327

>  <SCORE.INTRA.norm>
0.0765994

>  <SCORE.RESTR>
1.79209

>  <SCORE.RESTR.CAVITY>
1.79209

>  <SCORE.RESTR.norm>
0.0560027

>  <SCORE.SYSTEM>
0

>  <SCORE.SYSTEM.CONST>
0

>  <SCORE.SYSTEM.DIHEDRAL>
0

>  <SCORE.SYSTEM.SOLV>
0

>  <SCORE.SYSTEM.norm>
0

>  <SCORE.heavy>
32

>  <SCORE.norm>
-0.399059

>  <RMSD>
15.510

$$$$
lig.pdb
 OpenBabel11021811523D
libRbt.so/2013.1/901 2013/11/27
 32 34  0  0  0  0  0  0  0  0999 V2000
   -1.1983    7.8656   -2.7245 P   0  0  0  0  0  0  0  0  0  0  0  0
   -2.5801    7.8146   -2.1195 O   0  0  0  0  0  0  0  0  0  0  0  0
   -1.4946    8.1127   -4.3005 O   0  0  0  0  0  0  0  0  0  0  0  0
   -0.2950    9.0167   -2.3584 O   0  0  0  0  0  0  0  0  0  0  0  0
   -0.5196    6.6643   -2.2785 O   0  0  0  0  0  0  0  0  0  0  0  0
   -0.2297    6.7693   -0.8292 P   0  0  1  0  0  0  0  0  0  0  0  0
    0.8619    7.7548   -0.6469 O   0  0  0  0  0  0  0  0  0  0  0  0
   -1.4323    7.2408   -0.1037 O   0  0  0  0  0  0  0  0  0  0  0  0
    0.1816    5.4407   -0.3104 O   0  0  0  0  0  0  0  0  0  0  0  0
    0.4007    5.1808    1.1324 P   0  0  1  0  0  0  0  0  0  0  0  0
    1.3231    6.1225    1.7988 O   0  0  0  0  0  0  0  0  0  0  0  0
   -0.8192    4.8540    1.9038 O   0  0  0  0  0  0  0  0  0  0  0  0
    1.2571    3.8078    1.1216 O   0  0  0  0  0  0  0  0  0  0  0  0
    0.6841    2.5596    0.7805 C   0  0  0  0  0  0  0  0  0  0  0  0
    1.6301    1.3819    1.0535 C   0  0  1  0  0  0  0  0  0  0  0  0
    1.2267    0.2474    0.3142 O   0  0  0  0  0  0  0  0  0  0  0  0
    3.0586    1.5980    0.5238 C   0  0  1  0  0  0  0  0  0  0  0  0
    3.8774    2.4489    1.3084 O   0  0  0  0  0  0  0  0  0  0  0  0
    3.6136    0.1779    0.4167 C   0  0  1  0  0  0  0  0  0  0  0  0
    4.2801   -0.2263    1.5997 O   0  0  0  0  0  0  0  0  0  0  0  0
    2.3308   -0.6391    0.2736 C   0  0  2  0  0  0  0  0  0  0  0  0
    2.2692   -1.5201   -0.9121 N   0  0  0  0  0  0  0  0  0  0  0  0
    1.3795   -2.5112   -1.2415 C   0  0  0  0  0  0  0  0  0  0  0  0
    1.6868   -3.1616   -2.3339 N   0  0  0  0  0  0  0  0  0  0  0  0
    2.8518   -2.5448   -2.7799 C   0  0  0  0  0  0  0  0  0  0  0  0
    3.6916   -2.8331   -3.9031 C   0  0  0  0  0  0  0  0  0  0  0  0
    3.5716   -3.7469   -4.7167 O   0  0  0  0  0  0  0  0  0  0  0  0
    4.7660   -1.9410   -4.0203 N   0  0  0  0  0  0  0  0  0  0  0  0
    4.9756   -0.8708   -3.1638 C   0  0  0  0  0  0  0  0  0  0  0  0
    5.9762   -0.0281   -3.4434 N   0  0  0  0  0  0  0  0  0  0  0  0
    4.2131   -0.6333   -2.0839 N   0  0  0  0  0  0  0  0  0  0  0  0
    3.1765   -1.5039   -1.9426 C   0  0  0  0  0  0  0  0  0  0  0  0
  1  2  2  0  0  0  0
  1  4  1  0  0  0  0
  1  3  1  0  0  0  0
  5  1  1  0  0  0  0
  6  7  2  1  0  0  0
  6  9  1  0  0  0  0
  6  5  1  0  0  0  0
  6  8  1  0  0  0  0
 10 11  2  1  0  0  0
 10 12  1  0  0  0  0
 10 13  1  0  0  0  0
 10  9  1  0  0  0  0
 13 14  1  0  0  0  0
 15 14  1  6  0  0  0
 15 16  1  0  0  0  0
 17 19  1  0  0  0  0
 17 15  1  0  0  0  0
 17 18  1  1  0  0  0
 19 21  1  0  0  0  0
 19 20  1  1  0  0  0
 21 16  1  0  0  0  0
 21 22  1  6  0  0  0
 22 32  1  0  0  0  0
 23 22  1  0  0  0  0
 23 24  2  0  0  0  0
 24 25  1  0  0  0  0
 25 26  1  0  0  0  0
 26 27  2  0  0  0  0
 26 28  1  0  0  0  0
 29 28  1  0  0  0  0
 29 30  1  0  0  0  0
 31 29  2  0  0  0  0
 32 25  2  0  0  0  0
 32 31  1  0  0  0  0
M  END
>  <CHROM.1>
-70.44590985,-173.35479871,-72.30675381,-71.74868320,-52.50144560,-171.02553496
-160.57767821,-47.75936635,-178.05864296,-66.45494268,1.45021686,2.89712150
-1.00369299,2.92137017,-1.12141304,1.42650191

>  <Name>
lig.pdb

>  <RI>
2.72908e+07

>  <Rbt.Current_Directory>
/home/itssahil/PROJECTS/Mol_Feturizer/New_Systems/rnas/5lwj

>  <Rbt.Executable>
rbdock ($Id: //depot/dev/client3/rdock/2013.1/src/exe/rbdock.cxx#4 $)

>  <Rbt.Library>
libRbt.so (2013.1, Build901 2013/11/27)

>  <Rbt.Parameter_File>
/export/apps/rDock/src/rDock_2013.1_src/data/scripts/dock_solv.prm

>  <Rbt.Receptor>
prm/blind_docking_20.prm

>  <SCORE>
-23.4134

>  <SCORE.INTER>
-20.8202

>  <SCORE.INTER.CONST>
1

>  <SCORE.INTER.POLAR>
-0.329245

>  <SCORE.INTER.ROT>
8

>  <SCORE.INTER.SOLV>
25.5043

>  <SCORE.INTER.VDW>
-30.2174

>  <SCORE.INTER.norm>
-0.65063

>  <SCORE.INTRA>
-3.4586

>  <SCORE.INTRA.DIHEDRAL>
-4.72819

>  <SCORE.INTRA.DIHEDRAL.0>
10.9248

>  <SCORE.INTRA.POLAR>
-0.483024

>  <SCORE.INTRA.POLAR.0>
0

>  <SCORE.INTRA.REPUL>
0

>  <SCORE.INTRA.REPUL.0>
0

>  <SCORE.INTRA.SOLV>
-0.380127

>  <SCORE.INTRA.SOLV.lig_0>
-51.4104

>  <SCORE.INTRA.VDW>
0.737843

>  <SCORE.INTRA.VDW.0>
0.110327

>  <SCORE.INTRA.norm>
-0.108081

>  <SCORE.RESTR>
0.865372

>  <SCORE.RESTR.CAVITY>
0.865372

>  <SCORE.RESTR.norm>
0.0270429

>  <SCORE.SYSTEM>
0

>  <SCORE.SYSTEM.CONST>
0

>  <SCORE.SYSTEM.DIHEDRAL>
0

>  <SCORE.SYSTEM.SOLV>
0

>  <SCORE.SYSTEM.norm>
0

>  <SCORE.heavy>
32

>  <SCORE.norm>
-0.731668

>  <RMSD>
15.517

$$$$
lig.pdb
 OpenBabel11021811523D
libRbt.so/2013.1/901 2013/11/27
 32 34  0  0  0  0  0  0  0  0999 V2000
    2.8989   -2.4969   -3.1435 P   0  0  0  0  0  0  0  0  0  0  0  0
    1.5278   -3.1276   -3.1633 O   0  0  0  0  0  0  0  0  0  0  0  0
    3.7482   -3.4905   -2.1823 O   0  0  0  0  0  0  0  0  0  0  0  0
    3.7019   -2.4816   -4.4203 O   0  0  0  0  0  0  0  0  0  0  0  0
    2.6972   -1.1080   -2.7789 O   0  0  0  0  0  0  0  0  0  0  0  0
    3.2002   -0.8796   -1.4040 P   0  0  1  0  0  0  0  0  0  0  0  0
    2.4792   -1.7971   -0.4904 O   0  0  0  0  0  0  0  0  0  0  0  0
    4.6506   -1.1739   -1.3385 O   0  0  0  0  0  0  0  0  0  0  0  0
    2.9558    0.5325   -1.0169 O   0  0  0  0  0  0  0  0  0  0  0  0
    3.3634    1.6749   -1.8689 P   0  0  1  0  0  0  0  0  0  0  0  0
    4.8196    1.9153   -1.9284 O   0  0  0  0  0  0  0  0  0  0  0  0
    2.6637    1.7693   -3.1695 O   0  0  0  0  0  0  0  0  0  0  0  0
    2.8364    2.9531   -1.0279 O   0  0  0  0  0  0  0  0  0  0  0  0
    1.8913    2.8346    0.0187 C   0  0  0  0  0  0  0  0  0  0  0  0
    1.3775    4.1964    0.5066 C   0  0  1  0  0  0  0  0  0  0  0  0
    1.0909    5.0352   -0.5937 O   0  0  0  0  0  0  0  0  0  0  0  0
    0.0069    4.1290    1.2028 C   0  0  1  0  0  0  0  0  0  0  0  0
    0.0236    3.6478    2.5363 O   0  0  0  0  0  0  0  0  0  0  0  0
   -0.5125    5.5627    1.0984 C   0  0  1  0  0  0  0  0  0  0  0  0
   -0.1531    6.3450    2.2236 O   0  0  0  0  0  0  0  0  0  0  0  0
    0.2540    6.0750   -0.1196 C   0  0  2  0  0  0  0  0  0  0  0  0
   -0.5804    6.6310   -1.2061 N   0  0  0  0  0  0  0  0  0  0  0  0
   -1.9130    6.4598   -1.4840 C   0  0  0  0  0  0  0  0  0  0  0  0
   -2.3033    7.0299   -2.5945 N   0  0  0  0  0  0  0  0  0  0  0  0
   -1.1548    7.6471   -3.0811 C   0  0  0  0  0  0  0  0  0  0  0  0
   -0.9317    8.3937   -4.2822 C   0  0  0  0  0  0  0  0  0  0  0  0
   -1.7330    8.6201   -5.1866 O   0  0  0  0  0  0  0  0  0  0  0  0
    0.3786    8.8806   -4.3829 N   0  0  0  0  0  0  0  0  0  0  0  0
    1.3472    8.6926   -3.4085 C   0  0  0  0  0  0  0  0  0  0  0  0
    2.5292    9.2973   -3.5718 N   0  0  0  0  0  0  0  0  0  0  0  0
    1.1472    7.9510   -2.3067 N   0  0  0  0  0  0  0  0  0  0  0  0
   -0.1149    7.4521   -2.2034 C   0  0  0  0  0  0  0  0  0  0  0  0
  1  2  2  0  0  0  0
  1  4  1  0  0  0  0
  1  3  1  0  0  0  0
  5  1  1  0  0  0  0
  6  7  2  1  0  0  0
  6  9  1  0  0  0  0
  6  5  1  0  0  0  0
  6  8  1  0  0  0  0
 10 11  2  6  0  0  0
 10 12  1  0  0  0  0
 10 13  1  0  0  0  0
 10  9  1  0  0  0  0
 13 14  1  0  0  0  0
 15 14  1  6  0  0  0
 15 16  1  0  0  0  0
 17 19  1  0  0  0  0
 17 15  1  0  0  0  0
 17 18  1  1  0  0  0
 19 21  1  0  0  0  0
 19 20  1  1  0  0  0
 21 16  1  0  0  0  0
 21 22  1  6  0  0  0
 22 32  1  0  0  0  0
 23 22  1  0  0  0  0
 23 24  2  0  0  0  0
 24 25  1  0  0  0  0
 25 26  1  0  0  0  0
 26 27  2  0  0  0  0
 26 28  1  0  0  0  0
 29 28  1  0  0  0  0
 29 30  1  0  0  0  0
 31 29  2  0  0  0  0
 32 25  2  0  0  0  0
 32 31  1  0  0  0  0
M  END
>  <CHROM.1>
108.83391397,-51.00492864,-58.03240187,-16.08042688,-71.41704849,-170.54947567
43.93138908,-36.25528546,-92.67551472,104.57924294,1.58499993,3.07266450
-1.73985478,-0.45130277,1.17299063,-1.08435748

>  <Name>
lig.pdb

>  <RI>
3.17878e+07

>  <Rbt.Current_Directory>
/home/itssahil/PROJECTS/Mol_Feturizer/New_Systems/rnas/5lwj

>  <Rbt.Executable>
rbdock ($Id: //depot/dev/client3/rdock/2013.1/src/exe/rbdock.cxx#4 $)

>  <Rbt.Library>
libRbt.so (2013.1, Build901 2013/11/27)

>  <Rbt.Parameter_File>
/export/apps/rDock/src/rDock_2013.1_src/data/scripts/dock_solv.prm

>  <Rbt.Receptor>
prm/blind_docking_100.prm

>  <SCORE>
-7.47827

>  <SCORE.INTER>
-7.9123

>  <SCORE.INTER.CONST>
1

>  <SCORE.INTER.POLAR>
-2.51381

>  <SCORE.INTER.ROT>
8

>  <SCORE.INTER.SOLV>
26.9381

>  <SCORE.INTER.VDW>
-14.8082

>  <SCORE.INTER.norm>
-0.247259

>  <SCORE.INTRA>
-0.6803

>  <SCORE.INTRA.DIHEDRAL>
3.95447

>  <SCORE.INTRA.DIHEDRAL.0>
10.9248

>  <SCORE.INTRA.POLAR>
0

>  <SCORE.INTRA.POLAR.0>
0

>  <SCORE.INTRA.REPUL>
0

>  <SCORE.INTRA.REPUL.0>
0

>  <SCORE.INTRA.SOLV>
-0.882258

>  <SCORE.INTRA.SOLV.lig_0>
-51.4104

>  <SCORE.INTRA.VDW>
-2.2164

>  <SCORE.INTRA.VDW.0>
0.110327

>  <SCORE.INTRA.norm>
-0.0212594

>  <SCORE.RESTR>
1.11433

>  <SCORE.RESTR.CAVITY>
1.11433

>  <SCORE.RESTR.norm>
0.0348229

>  <SCORE.SYSTEM>
0

>  <SCORE.SYSTEM.CONST>
0

>  <SCORE.SYSTEM.DIHEDRAL>
0

>  <SCORE.SYSTEM.SOLV>
0

>  <SCORE.SYSTEM.norm>
0

>  <SCORE.heavy>
32

>  <SCORE.norm>
-0.233696

>  <RMSD>
15.528

$$$$
lig.pdb
 OpenBabel11021811523D
libRbt.so/2013.1/901 2013/11/27
 32 34  0  0  0  0  0  0  0  0999 V2000
   -4.2264    4.5898   -0.4857 P   0  0  0  0  0  0  0  0  0  0  0  0
   -4.6226    4.8279   -1.9224 O   0  0  0  0  0  0  0  0  0  0  0  0
   -5.5524    5.0283    0.3402 O   0  0  0  0  0  0  0  0  0  0  0  0
   -3.9896    3.1713   -0.0306 O   0  0  0  0  0  0  0  0  0  0  0  0
   -2.9703    5.2885   -0.2940 O   0  0  0  0  0  0  0  0  0  0  0  0
   -2.9859    5.9839    1.0144 P   0  0  1  0  0  0  0  0  0  0  0  0
   -4.0995    6.9616    1.0042 O   0  0  0  0  0  0  0  0  0  0  0  0
   -3.2102    5.0075    2.1057 O   0  0  0  0  0  0  0  0  0  0  0  0
   -1.6902    6.6786    1.2198 O   0  0  0  0  0  0  0  0  0  0  0  0
   -0.5343    6.4959    0.3101 P   0  0  1  0  0  0  0  0  0  0  0  0
   -0.8467    6.6416   -1.1262 O   0  0  0  0  0  0  0  0  0  0  0  0
    0.7170    7.1558    0.7445 O   0  0  0  0  0  0  0  0  0  0  0  0
   -0.2265    4.9123    0.4377 O   0  0  0  0  0  0  0  0  0  0  0  0
    0.9239    4.4142    1.0942 C   0  0  0  0  0  0  0  0  0  0  0  0
    1.2598    2.9735    0.6842 C   0  0  1  0  0  0  0  0  0  0  0  0
    1.7592    2.9435   -0.6371 O   0  0  0  0  0  0  0  0  0  0  0  0
    2.4354    2.3637    1.4677 C   0  0  1  0  0  0  0  0  0  0  0  0
    2.1313    1.9279    2.7822 O   0  0  0  0  0  0  0  0  0  0  0  0
    2.9100    1.2267    0.5632 C   0  0  1  0  0  0  0  0  0  0  0  0
    2.2723   -0.0011    0.8684 O   0  0  0  0  0  0  0  0  0  0  0  0
    2.4247    1.7043   -0.8042 C   0  0  2  0  0  0  0  0  0  0  0  0
    3.4646    1.7897   -1.8518 N   0  0  0  0  0  0  0  0  0  0  0  0
    3.8770    2.8530   -2.6145 C   0  0  0  0  0  0  0  0  0  0  0  0
    4.7643    2.5437   -3.5244 N   0  0  0  0  0  0  0  0  0  0  0  0
    4.9784    1.1810   -3.3403 C   0  0  0  0  0  0  0  0  0  0  0  0
    5.8078    0.2596   -4.0565 C   0  0  0  0  0  0  0  0  0  0  0  0
    6.5012    0.4847   -5.0464 O   0  0  0  0  0  0  0  0  0  0  0  0
    5.7647   -1.0360   -3.5241 N   0  0  0  0  0  0  0  0  0  0  0  0
    5.0277   -1.3836   -2.4020 C   0  0  0  0  0  0  0  0  0  0  0  0
    5.1526   -2.6285   -1.9284 N   0  0  0  0  0  0  0  0  0  0  0  0
    4.2139   -0.5274   -1.7629 N   0  0  0  0  0  0  0  0  0  0  0  0
    4.2271    0.7314   -2.2804 C   0  0  0  0  0  0  0  0  0  0  0  0
  1  2  2  0  0  0  0
  1  4  1  0  0  0  0
  1  3  1  0  0  0  0
  5  1  1  0  0  0  0
  6  7  2  1  0  0  0
  6  9  1  0  0  0  0
  6  5  1  0  0  0  0
  6  8  1  0  0  0  0
 10 11  2  6  0  0  0
 10 12  1  0  0  0  0
 10 13  1  0  0  0  0
 10  9  1  0  0  0  0
 13 14  1  0  0  0  0
 15 14  1  1  0  0  0
 15 16  1  0  0  0  0
 17 19  1  0  0  0  0
 17 15  1  0  0  0  0
 17 18  1  1  0  0  0
 19 21  1  0  0  0  0
 19 20  1  1  0  0  0
 21 16  1  0  0  0  0
 21 22  1  6  0  0  0
 22 32  1  0  0  0  0
 23 22  1  0  0  0  0
 23 24  2  0  0  0  0
 24 25  1  0  0  0  0
 25 26  1  0  0  0  0
 26 27  2  0  0  0  0
 26 28  1  0  0  0  0
 29 28  1  0  0  0  0
 29 30  1  0  0  0  0
 31 29  2  0  0  0  0
 32 25  2  0  0  0  0
 32 31  1  0  0  0  0
M  END
>  <CHROM.1>
137.82320948,-8.12049461,-60.73291101,-109.46509235,49.30541722,-160.11399112
71.66407857,-6.87433890,-167.76511205,2.01782386,0.59441048,3.30695084,-0.55141110
2.88216191,0.61656354,-0.65869113

>  <Name>
lig.pdb

>  <RI>
1.2169e+07

>  <Rbt.Current_Directory>
/home/itssahil/PROJECTS/Mol_Feturizer/New_Systems/rnas/5lwj

>  <Rbt.Executable>
rbdock ($Id: //depot/dev/client3/rdock/2013.1/src/exe/rbdock.cxx#4 $)

>  <Rbt.Library>
libRbt.so (2013.1, Build901 2013/11/27)

>  <Rbt.Parameter_File>
/export/apps/rDock/src/rDock_2013.1_src/data/scripts/dock_solv.prm

>  <Rbt.Receptor>
prm/blind_docking_40.prm

>  <SCORE>
-22.2438

>  <SCORE.INTER>
-27.0672

>  <SCORE.INTER.CONST>
1

>  <SCORE.INTER.POLAR>
-1.13129

>  <SCORE.INTER.ROT>
8

>  <SCORE.INTER.SOLV>
26.4883

>  <SCORE.INTER.VDW>
-32.0366

>  <SCORE.INTER.norm>
-0.845852

>  <SCORE.INTRA>
2.14448

>  <SCORE.INTRA.DIHEDRAL>
8.03402

>  <SCORE.INTRA.DIHEDRAL.0>
10.9248

>  <SCORE.INTRA.POLAR>
0

>  <SCORE.INTRA.POLAR.0>
0

>  <SCORE.INTRA.REPUL>
0.0110557

>  <SCORE.INTRA.REPUL.0>
0

>  <SCORE.INTRA.SOLV>
0.0377976

>  <SCORE.INTRA.SOLV.lig_0>
-51.4104

>  <SCORE.INTRA.VDW>
-1.9467

>  <SCORE.INTRA.VDW.0>
0.110327

>  <SCORE.INTRA.norm>
0.0670151

>  <SCORE.RESTR>
2.67898

>  <SCORE.RESTR.CAVITY>
2.67898

>  <SCORE.RESTR.norm>
0.083718

>  <SCORE.SYSTEM>
0

>  <SCORE.SYSTEM.CONST>
0

>  <SCORE.SYSTEM.DIHEDRAL>
0

>  <SCORE.SYSTEM.SOLV>
0

>  <SCORE.SYSTEM.norm>
0

>  <SCORE.heavy>
32

>  <SCORE.norm>
-0.695118

>  <RMSD>
15.531

$$$$
lig.pdb
 OpenBabel11021811523D
libRbt.so/2013.1/901 2013/11/27
 32 34  0  0  0  0  0  0  0  0999 V2000
    1.4925   -3.0475   -0.5699 P   0  0  0  0  0  0  0  0  0  0  0  0
    2.5567   -4.0594   -0.2211 O   0  0  0  0  0  0  0  0  0  0  0  0
    1.9976   -2.4572   -1.9944 O   0  0  0  0  0  0  0  0  0  0  0  0
    0.1012   -3.5434   -0.8755 O   0  0  0  0  0  0  0  0  0  0  0  0
    1.3660   -2.1823    0.5868 O   0  0  0  0  0  0  0  0  0  0  0  0
    0.5516   -0.9967    0.2308 P   0  0  1  0  0  0  0  0  0  0  0  0
    1.1260   -0.3932   -0.9947 O   0  0  0  0  0  0  0  0  0  0  0  0
   -0.8465   -1.4041   -0.0410 O   0  0  0  0  0  0  0  0  0  0  0  0
    0.5826   -0.0222    1.3502 O   0  0  0  0  0  0  0  0  0  0  0  0
    1.6720    0.9694    1.5143 P   0  0  1  0  0  0  0  0  0  0  0  0
    1.9631    1.3447    2.9130 O   0  0  0  0  0  0  0  0  0  0  0  0
    2.8658    0.7360    0.6716 O   0  0  0  0  0  0  0  0  0  0  0  0
    1.0134    2.3242    0.9232 O   0  0  0  0  0  0  0  0  0  0  0  0
    0.8314    3.4853    1.7115 C   0  0  0  0  0  0  0  0  0  0  0  0
    0.3036    4.6747    0.8971 C   0  0  1  0  0  0  0  0  0  0  0  0
   -1.1005    4.5925    0.7628 O   0  0  0  0  0  0  0  0  0  0  0  0
    0.4626    6.0311    1.6060 C   0  0  1  0  0  0  0  0  0  0  0  0
    1.7685    6.5825    1.5813 O   0  0  0  0  0  0  0  0  0  0  0  0
   -0.5666    6.9179    0.9055 C   0  0  1  0  0  0  0  0  0  0  0  0
   -0.0133    7.6071   -0.2017 O   0  0  0  0  0  0  0  0  0  0  0  0
   -1.5605    5.8791    0.3891 C   0  0  2  0  0  0  0  0  0  0  0  0
   -2.9657    6.0874    0.7988 N   0  0  0  0  0  0  0  0  0  0  0  0
   -3.6559    5.6190    1.8881 C   0  0  0  0  0  0  0  0  0  0  0  0
   -4.9278    5.9239    1.8844 N   0  0  0  0  0  0  0  0  0  0  0  0
   -5.0946    6.6704    0.7219 C   0  0  0  0  0  0  0  0  0  0  0  0
   -6.2685    7.2517    0.1440 C   0  0  0  0  0  0  0  0  0  0  0  0
   -7.4250    7.1753    0.5538 O   0  0  0  0  0  0  0  0  0  0  0  0
   -5.9987    7.9631   -1.0329 N   0  0  0  0  0  0  0  0  0  0  0  0
   -4.7272    8.1200   -1.5637 C   0  0  0  0  0  0  0  0  0  0  0  0
   -4.5855    8.9109   -2.6333 N   0  0  0  0  0  0  0  0  0  0  0  0
   -3.6364    7.5327   -1.0450 N   0  0  0  0  0  0  0  0  0  0  0  0
   -3.8841    6.8195    0.0875 C   0  0  0  0  0  0  0  0  0  0  0  0
  1  2  2  0  0  0  0
  1  4  1  0  0  0  0
  1  3  1  0  0  0  0
  5  1  1  0  0  0  0
  6  7  2  6  0  0  0
  6  9  1  0  0  0  0
  6  5  1  0  0  0  0
  6  8  1  0  0  0  0
 10 11  2  1  0  0  0
 10 12  1  0  0  0  0
 10 13  1  0  0  0  0
 10  9  1  0  0  0  0
 13 14  1  0  0  0  0
 15 14  1  1  0  0  0
 15 16  1  0  0  0  0
 17 19  1  0  0  0  0
 17 15  1  0  0  0  0
 17 18  1  6  0  0  0
 19 21  1  0  0  0  0
 19 20  1  6  0  0  0
 21 16  1  0  0  0  0
 21 22  1  1  0  0  0
 22 32  1  0  0  0  0
 23 22  1  0  0  0  0
 23 24  2  0  0  0  0
 24 25  1  0  0  0  0
 25 26  1  0  0  0  0
 26 27  2  0  0  0  0
 26 28  1  0  0  0  0
 29 28  1  0  0  0  0
 29 30  1  0  0  0  0
 31 29  2  0  0  0  0
 32 25  2  0  0  0  0
 32 31  1  0  0  0  0
M  END
>  <CHROM.1>
168.31575901,84.64344923,-51.75707779,118.89070742,-149.48258713,174.94323204
82.95349014,-75.57123596,60.00911225,33.18282737,-0.78252736,2.87105354,0.33265918
0.98800781,0.32507392,-2.94255474

>  <Name>
lig.pdb

>  <RI>
4.14043e+07

>  <Rbt.Current_Directory>
/home/itssahil/PROJECTS/Mol_Feturizer/New_Systems/rnas/5lwj

>  <Rbt.Executable>
rbdock ($Id: //depot/dev/client3/rdock/2013.1/src/exe/rbdock.cxx#4 $)

>  <Rbt.Library>
libRbt.so (2013.1, Build901 2013/11/27)

>  <Rbt.Parameter_File>
/export/apps/rDock/src/rDock_2013.1_src/data/scripts/dock_solv.prm

>  <Rbt.Receptor>
prm/blind_docking_80.prm

>  <SCORE>
-25.1571

>  <SCORE.INTER>
-26.7167

>  <SCORE.INTER.CONST>
1

>  <SCORE.INTER.POLAR>
-2.4336

>  <SCORE.INTER.ROT>
8

>  <SCORE.INTER.SOLV>
25.2004

>  <SCORE.INTER.VDW>
-27.0326

>  <SCORE.INTER.norm>
-0.834896

>  <SCORE.INTRA>
-0.777719

>  <SCORE.INTRA.DIHEDRAL>
-0.0770806

>  <SCORE.INTRA.DIHEDRAL.0>
10.9248

>  <SCORE.INTRA.POLAR>
0

>  <SCORE.INTRA.POLAR.0>
0

>  <SCORE.INTRA.REPUL>
0

>  <SCORE.INTRA.REPUL.0>
0

>  <SCORE.INTRA.SOLV>
-1.11485

>  <SCORE.INTRA.SOLV.lig_0>
-51.4104

>  <SCORE.INTRA.VDW>
-0.181753

>  <SCORE.INTRA.VDW.0>
0.110327

>  <SCORE.INTRA.norm>
-0.0243037

>  <SCORE.RESTR>
2.33728

>  <SCORE.RESTR.CAVITY>
2.33728

>  <SCORE.RESTR.norm>
0.07304

>  <SCORE.SYSTEM>
0

>  <SCORE.SYSTEM.CONST>
0

>  <SCORE.SYSTEM.DIHEDRAL>
0

>  <SCORE.SYSTEM.SOLV>
0

>  <SCORE.SYSTEM.norm>
0

>  <SCORE.heavy>
32

>  <SCORE.norm>
-0.78616

>  <RMSD>
15.549

$$$$
lig.pdb
 OpenBabel11021811523D
libRbt.so/2013.1/901 2013/11/27
 32 34  0  0  0  0  0  0  0  0999 V2000
    0.8627    8.6004   -2.2209 P   0  0  0  0  0  0  0  0  0  0  0  0
    1.1887    7.6974   -3.3855 O   0  0  0  0  0  0  0  0  0  0  0  0
    1.7815    9.9083   -2.4997 O   0  0  0  0  0  0  0  0  0  0  0  0
   -0.5298    9.1715   -2.1215 O   0  0  0  0  0  0  0  0  0  0  0  0
    1.0557    7.8014   -1.0263 O   0  0  0  0  0  0  0  0  0  0  0  0
   -0.0524    6.8258   -0.8997 P   0  0  1  0  0  0  0  0  0  0  0  0
   -1.0750    7.4034    0.0040 O   0  0  0  0  0  0  0  0  0  0  0  0
   -0.6644    6.5776   -2.2257 O   0  0  0  0  0  0  0  0  0  0  0  0
    0.4711    5.5537   -0.3416 O   0  0  0  0  0  0  0  0  0  0  0  0
    0.5058    5.2758    1.1139 P   0  0  1  0  0  0  0  0  0  0  0  0
    1.1931    6.3015    1.9246 O   0  0  0  0  0  0  0  0  0  0  0  0
   -0.7634    4.7765    1.6882 O   0  0  0  0  0  0  0  0  0  0  0  0
    1.5211    4.0195    1.2132 O   0  0  0  0  0  0  0  0  0  0  0  0
    2.0718    3.3974    0.0676 C   0  0  0  0  0  0  0  0  0  0  0  0
    1.6990    1.9118   -0.0335 C   0  0  1  0  0  0  0  0  0  0  0  0
    2.1346    1.3799   -1.2679 O   0  0  0  0  0  0  0  0  0  0  0  0
    2.4497    1.0145    0.9661 C   0  0  1  0  0  0  0  0  0  0  0  0
    1.9696    1.0531    2.2996 O   0  0  0  0  0  0  0  0  0  0  0  0
    2.3443   -0.3759    0.3401 C   0  0  1  0  0  0  0  0  0  0  0  0
    1.2056   -1.0836    0.7981 O   0  0  0  0  0  0  0  0  0  0  0  0
    2.1460   -0.0303   -1.1346 C   0  0  2  0  0  0  0  0  0  0  0  0
    3.1117   -0.6505   -2.0666 N   0  0  0  0  0  0  0  0  0  0  0  0
    4.2496   -0.1423   -2.6405 C   0  0  0  0  0  0  0  0  0  0  0  0
    4.8160   -0.9460   -3.5031 N   0  0  0  0  0  0  0  0  0  0  0  0
    4.0130   -2.0824   -3.4861 C   0  0  0  0  0  0  0  0  0  0  0  0
    4.0911   -3.2941   -4.2449 C   0  0  0  0  0  0  0  0  0  0  0  0
    4.8950   -3.5757   -5.1313 O   0  0  0  0  0  0  0  0  0  0  0  0
    3.0954   -4.2170   -3.8974 N   0  0  0  0  0  0  0  0  0  0  0  0
    2.1563   -3.9982   -2.9007 C   0  0  0  0  0  0  0  0  0  0  0  0
    1.3245   -4.9987   -2.5898 N   0  0  0  0  0  0  0  0  0  0  0  0
    2.0570   -2.8415   -2.2255 N   0  0  0  0  0  0  0  0  0  0  0  0
    3.0040   -1.9250   -2.5658 C   0  0  0  0  0  0  0  0  0  0  0  0
  1  2  2  0  0  0  0
  1  4  1  0  0  0  0
  1  3  1  0  0  0  0
  5  1  1  0  0  0  0
  6  7  2  1  0  0  0
  6  9  1  0  0  0  0
  6  5  1  0  0  0  0
  6  8  1  0  0  0  0
 10 11  2  1  0  0  0
 10 12  1  0  0  0  0
 10 13  1  0  0  0  0
 10  9  1  0  0  0  0
 13 14  1  0  0  0  0
 15 14  1  6  0  0  0
 15 16  1  0  0  0  0
 17 19  1  0  0  0  0
 17 15  1  0  0  0  0
 17 18  1  1  0  0  0
 19 21  1  0  0  0  0
 19 20  1  1  0  0  0
 21 16  1  0  0  0  0
 21 22  1  6  0  0  0
 22 32  1  0  0  0  0
 23 22  1  0  0  0  0
 23 24  2  0  0  0  0
 24 25  1  0  0  0  0
 25 26  1  0  0  0  0
 26 27  2  0  0  0  0
 26 28  1  0  0  0  0
 29 28  1  0  0  0  0
 29 30  1  0  0  0  0
 31 29  2  0  0  0  0
 32 25  2  0  0  0  0
 32 31  1  0  0  0  0
M  END
>  <CHROM.1>
-73.38830122,90.78739012,-95.88243508,-4.07790946,-53.93057623,-119.93789794
172.96532872,67.98490930,64.92312378,25.72694687,1.60939699,2.79043712,-1.19439807
-2.33205240,-1.19987081,2.58309354

>  <Name>
lig.pdb

>  <RI>
3.17878e+07

>  <Rbt.Current_Directory>
/home/itssahil/PROJECTS/Mol_Feturizer/New_Systems/rnas/5lwj

>  <Rbt.Executable>
rbdock ($Id: //depot/dev/client3/rdock/2013.1/src/exe/rbdock.cxx#4 $)

>  <Rbt.Library>
libRbt.so (2013.1, Build901 2013/11/27)

>  <Rbt.Parameter_File>
/export/apps/rDock/src/rDock_2013.1_src/data/scripts/dock_solv.prm

>  <Rbt.Receptor>
prm/blind_docking_100.prm

>  <SCORE>
-14.7792

>  <SCORE.INTER>
-19.4657

>  <SCORE.INTER.CONST>
1

>  <SCORE.INTER.POLAR>
-0.499301

>  <SCORE.INTER.ROT>
8

>  <SCORE.INTER.SOLV>
28.5248

>  <SCORE.INTER.VDW>
-29.7544

>  <SCORE.INTER.norm>
-0.608302

>  <SCORE.INTRA>
4.27767

>  <SCORE.INTRA.DIHEDRAL>
5.3605

>  <SCORE.INTRA.DIHEDRAL.0>
10.9248

>  <SCORE.INTRA.POLAR>
0

>  <SCORE.INTRA.POLAR.0>
0

>  <SCORE.INTRA.REPUL>
0

>  <SCORE.INTRA.REPUL.0>
0

>  <SCORE.INTRA.SOLV>
-0.244088

>  <SCORE.INTRA.SOLV.lig_0>
-51.4104

>  <SCORE.INTRA.VDW>
1.71947

>  <SCORE.INTRA.VDW.0>
0.110327

>  <SCORE.INTRA.norm>
0.133677

>  <SCORE.RESTR>
0.408785

>  <SCORE.RESTR.CAVITY>
0.408785

>  <SCORE.RESTR.norm>
0.0127745

>  <SCORE.SYSTEM>
0

>  <SCORE.SYSTEM.CONST>
0

>  <SCORE.SYSTEM.DIHEDRAL>
0

>  <SCORE.SYSTEM.SOLV>
0

>  <SCORE.SYSTEM.norm>
0

>  <SCORE.heavy>
32

>  <SCORE.norm>
-0.46185

>  <RMSD>
15.561

$$$$
lig.pdb
 OpenBabel11021811523D
libRbt.so/2013.1/901 2013/11/27
 32 34  0  0  0  0  0  0  0  0999 V2000
    0.9455   -2.7217    0.6010 P   0  0  0  0  0  0  0  0  0  0  0  0
    2.3578   -3.2539    0.6148 O   0  0  0  0  0  0  0  0  0  0  0  0
    0.4803   -2.9500   -0.9365 O   0  0  0  0  0  0  0  0  0  0  0  0
   -0.1074   -3.4559    1.3931 O   0  0  0  0  0  0  0  0  0  0  0  0
    1.0136   -1.3868    1.1632 O   0  0  0  0  0  0  0  0  0  0  0  0
    0.2831   -0.4427    0.2854 P   0  0  1  0  0  0  0  0  0  0  0  0
    1.0733   -0.2599   -0.9549 O   0  0  0  0  0  0  0  0  0  0  0  0
   -1.0444   -0.9989   -0.0653 O   0  0  0  0  0  0  0  0  0  0  0  0
    0.1151    0.8547    0.9870 O   0  0  0  0  0  0  0  0  0  0  0  0
    1.2192    1.8334    1.1289 P   0  0  1  0  0  0  0  0  0  0  0  0
    1.8543    1.8624    2.4622 O   0  0  0  0  0  0  0  0  0  0  0  0
    2.1620    1.8859   -0.0105 O   0  0  0  0  0  0  0  0  0  0  0  0
    0.4450    3.2537    1.0842 O   0  0  0  0  0  0  0  0  0  0  0  0
    1.1275    4.4916    1.1511 C   0  0  0  0  0  0  0  0  0  0  0  0
    0.1835    5.6941    1.0130 C   0  0  1  0  0  0  0  0  0  0  0  0
    0.4513    6.3926   -0.1856 O   0  0  0  0  0  0  0  0  0  0  0  0
   -1.2920    5.3048    0.8150 C   0  0  1  0  0  0  0  0  0  0  0  0
   -1.9759    4.8914    1.9861 O   0  0  0  0  0  0  0  0  0  0  0  0
   -1.9047    6.5543    0.1829 C   0  0  1  0  0  0  0  0  0  0  0  0
   -2.4306    7.4417    1.1540 O   0  0  0  0  0  0  0  0  0  0  0  0
   -0.6790    7.2012   -0.4595 C   0  0  2  0  0  0  0  0  0  0  0  0
   -0.7975    7.4874   -1.9052 N   0  0  0  0  0  0  0  0  0  0  0  0
    0.1350    7.9399   -2.8041 C   0  0  0  0  0  0  0  0  0  0  0  0
   -0.3463    8.1780   -3.9968 N   0  0  0  0  0  0  0  0  0  0  0  0
   -1.6916    7.8368   -3.8943 C   0  0  0  0  0  0  0  0  0  0  0  0
   -2.7522    7.9163   -4.8527 C   0  0  0  0  0  0  0  0  0  0  0  0
   -2.6981    8.3563   -5.9994 O   0  0  0  0  0  0  0  0  0  0  0  0
   -3.9706    7.4350   -4.3549 N   0  0  0  0  0  0  0  0  0  0  0  0
   -4.1273    6.9040   -3.0834 C   0  0  0  0  0  0  0  0  0  0  0  0
   -5.3155    6.3796   -2.7630 N   0  0  0  0  0  0  0  0  0  0  0  0
   -3.1413    6.8761   -2.1719 N   0  0  0  0  0  0  0  0  0  0  0  0
   -1.9553    7.3600   -2.6321 C   0  0  0  0  0  0  0  0  0  0  0  0
  1  2  2  0  0  0  0
  1  4  1  0  0  0  0
  1  3  1  0  0  0  0
  5  1  1  0  0  0  0
  6  7  2  6  0  0  0
  6  9  1  0  0  0  0
  6  5  1  0  0  0  0
  6  8  1  0  0  0  0
 10 11  2  1  0  0  0
 10 12  1  0  0  0  0
 10 13  1  0  0  0  0
 10  9  1  0  0  0  0
 13 14  1  0  0  0  0
 15 14  1  6  0  0  0
 15 16  1  0  0  0  0
 17 19  1  0  0  0  0
 17 15  1  0  0  0  0
 17 18  1  1  0  0  0
 19 21  1  0  0  0  0
 19 20  1  1  0  0  0
 21 16  1  0  0  0  0
 21 22  1  6  0  0  0
 22 32  1  0  0  0  0
 23 22  1  0  0  0  0
 23 24  2  0  0  0  0
 24 25  1  0  0  0  0
 25 26  1  0  0  0  0
 26 27  2  0  0  0  0
 26 28  1  0  0  0  0
 29 28  1  0  0  0  0
 29 30  1  0  0  0  0
 31 29  2  0  0  0  0
 32 25  2  0  0  0  0
 32 31  1  0  0  0  0
M  END
>  <CHROM.1>
131.39240023,76.74812640,-71.11528604,-178.22065731,-102.78334278,176.86420331
-113.87049113,55.37262924,38.98321620,-49.08205820,-0.50895254,3.29852206
-0.55266456,0.89799246,1.04074672,-2.90305809

>  <Name>
lig.pdb

>  <RI>
4.14043e+07

>  <Rbt.Current_Directory>
/home/itssahil/PROJECTS/Mol_Feturizer/New_Systems/rnas/5lwj

>  <Rbt.Executable>
rbdock ($Id: //depot/dev/client3/rdock/2013.1/src/exe/rbdock.cxx#4 $)

>  <Rbt.Library>
libRbt.so (2013.1, Build901 2013/11/27)

>  <Rbt.Parameter_File>
/export/apps/rDock/src/rDock_2013.1_src/data/scripts/dock_solv.prm

>  <Rbt.Receptor>
prm/blind_docking_80.prm

>  <SCORE>
-28.5184

>  <SCORE.INTER>
-30.4411

>  <SCORE.INTER.CONST>
1

>  <SCORE.INTER.POLAR>
-2.32865

>  <SCORE.INTER.ROT>
8

>  <SCORE.INTER.SOLV>
23.3968

>  <SCORE.INTER.VDW>
-29.2642

>  <SCORE.INTER.norm>
-0.951283

>  <SCORE.INTRA>
0.662067

>  <SCORE.INTRA.DIHEDRAL>
2.94632

>  <SCORE.INTRA.DIHEDRAL.0>
10.9248

>  <SCORE.INTRA.POLAR>
0

>  <SCORE.INTRA.POLAR.0>
0

>  <SCORE.INTRA.REPUL>
0

>  <SCORE.INTRA.REPUL.0>
0

>  <SCORE.INTRA.SOLV>
-0.543192

>  <SCORE.INTRA.SOLV.lig_0>
-51.4104

>  <SCORE.INTRA.VDW>
-0.539499

>  <SCORE.INTRA.VDW.0>
0.110327

>  <SCORE.INTRA.norm>
0.0206896

>  <SCORE.RESTR>
1.26058

>  <SCORE.RESTR.CAVITY>
1.26058

>  <SCORE.RESTR.norm>
0.0393932

>  <SCORE.SYSTEM>
0

>  <SCORE.SYSTEM.CONST>
0

>  <SCORE.SYSTEM.DIHEDRAL>
0

>  <SCORE.SYSTEM.SOLV>
0

>  <SCORE.SYSTEM.norm>
0

>  <SCORE.heavy>
32

>  <SCORE.norm>
-0.891201

>  <RMSD>
15.578

$$$$
lig.pdb
 OpenBabel11021811523D
libRbt.so/2013.1/901 2013/11/27
 32 34  0  0  0  0  0  0  0  0999 V2000
    3.7492   -0.9099   -1.7189 P   0  0  0  0  0  0  0  0  0  0  0  0
    4.5284   -1.9431   -0.9421 O   0  0  0  0  0  0  0  0  0  0  0  0
    4.1307    0.4787   -0.9714 O   0  0  0  0  0  0  0  0  0  0  0  0
    4.1348   -0.6471   -3.1533 O   0  0  0  0  0  0  0  0  0  0  0  0
    2.3781   -1.3808   -1.7510 O   0  0  0  0  0  0  0  0  0  0  0  0
    1.7383   -1.1300   -0.4382 P   0  0  1  0  0  0  0  0  0  0  0  0
    0.3598   -1.6717   -0.4856 O   0  0  0  0  0  0  0  0  0  0  0  0
    2.4920   -1.8204    0.6341 O   0  0  0  0  0  0  0  0  0  0  0  0
    1.7110    0.3303   -0.1732 O   0  0  0  0  0  0  0  0  0  0  0  0
    0.9314    0.9247    0.9385 P   0  0  1  0  0  0  0  0  0  0  0  0
   -0.5053    0.5814    0.9411 O   0  0  0  0  0  0  0  0  0  0  0  0
    1.5865    0.8697    2.2643 O   0  0  0  0  0  0  0  0  0  0  0  0
    0.9100    2.4975    0.5584 O   0  0  0  0  0  0  0  0  0  0  0  0
    0.5230    3.4958    1.4838 C   0  0  0  0  0  0  0  0  0  0  0  0
   -0.1402    4.7031    0.8062 C   0  0  1  0  0  0  0  0  0  0  0  0
   -1.4284    4.3572    0.3399 O   0  0  0  0  0  0  0  0  0  0  0  0
   -0.4658    5.8553    1.7727 C   0  0  1  0  0  0  0  0  0  0  0  0
    0.6362    6.6627    2.1520 O   0  0  0  0  0  0  0  0  0  0  0  0
   -1.5473    6.6417    1.0323 C   0  0  1  0  0  0  0  0  0  0  0  0
   -1.0028    7.6749    0.2303 O   0  0  0  0  0  0  0  0  0  0  0  0
   -2.1308    5.5669    0.1170 C   0  0  2  0  0  0  0  0  0  0  0  0
   -3.5919    5.3675    0.2242 N   0  0  0  0  0  0  0  0  0  0  0  0
   -4.5407    6.0783    0.9149 C   0  0  0  0  0  0  0  0  0  0  0  0
   -5.7390    5.5564    0.8644 N   0  0  0  0  0  0  0  0  0  0  0  0
   -5.5849    4.4297    0.0621 C   0  0  0  0  0  0  0  0  0  0  0  0
   -6.5265    3.4248   -0.3296 C   0  0  0  0  0  0  0  0  0  0  0  0
   -7.7046    3.3261    0.0073 O   0  0  0  0  0  0  0  0  0  0  0  0
   -5.9699    2.4633   -1.1838 N   0  0  0  0  0  0  0  0  0  0  0  0
   -4.6583    2.4986   -1.6327 C   0  0  0  0  0  0  0  0  0  0  0  0
   -4.2757    1.5830   -2.5298 N   0  0  0  0  0  0  0  0  0  0  0  0
   -3.7661    3.4157   -1.2243 N   0  0  0  0  0  0  0  0  0  0  0  0
   -4.2848    4.3457   -0.3767 C   0  0  0  0  0  0  0  0  0  0  0  0
  1  2  2  0  0  0  0
  1  4  1  0  0  0  0
  1  3  1  0  0  0  0
  5  1  1  0  0  0  0
  6  7  2  6  0  0  0
  6  9  1  0  0  0  0
  6  5  1  0  0  0  0
  6  8  1  0  0  0  0
 10 11  2  1  0  0  0
 10 12  1  0  0  0  0
 10 13  1  0  0  0  0
 10  9  1  0  0  0  0
 13 14  1  0  0  0  0
 15 14  1  1  0  0  0
 15 16  1  0  0  0  0
 17 19  1  0  0  0  0
 17 15  1  0  0  0  0
 17 18  1  6  0  0  0
 19 21  1  0  0  0  0
 19 20  1  6  0  0  0
 21 16  1  0  0  0  0
 21 22  1  1  0  0  0
 22 32  1  0  0  0  0
 23 22  1  0  0  0  0
 23 24  2  0  0  0  0
 24 25  1  0  0  0  0
 25 26  1  0  0  0  0
 26 27  2  0  0  0  0
 26 28  1  0  0  0  0
 29 28  1  0  0  0  0
 29 30  1  0  0  0  0
 31 29  2  0  0  0  0
 32 25  2  0  0  0  0
 32 31  1  0  0  0  0
M  END
>  <CHROM.1>
76.61259651,169.07875933,-177.70244090,-165.95950023,-55.23963391,-148.95203576
71.65370517,-67.48954649,49.92194333,131.58017842,-0.59130482,2.21691487
-0.09285813,0.64611439,0.16666209,-2.76654012

>  <Name>
lig.pdb

>  <RI>
3.17878e+07

>  <Rbt.Current_Directory>
/home/itssahil/PROJECTS/Mol_Feturizer/New_Systems/rnas/5lwj

>  <Rbt.Executable>
rbdock ($Id: //depot/dev/client3/rdock/2013.1/src/exe/rbdock.cxx#4 $)

>  <Rbt.Library>
libRbt.so (2013.1, Build901 2013/11/27)

>  <Rbt.Parameter_File>
/export/apps/rDock/src/rDock_2013.1_src/data/scripts/dock_solv.prm

>  <Rbt.Receptor>
prm/blind_docking_100.prm

>  <SCORE>
10.279

>  <SCORE.INTER>
12.7724

>  <SCORE.INTER.CONST>
1

>  <SCORE.INTER.POLAR>
-2.25911

>  <SCORE.INTER.ROT>
8

>  <SCORE.INTER.SOLV>
27.658

>  <SCORE.INTER.VDW>
-2.10733

>  <SCORE.INTER.norm>
0.399139

>  <SCORE.INTRA>
-3.3834

>  <SCORE.INTRA.DIHEDRAL>
-1.7423

>  <SCORE.INTRA.DIHEDRAL.0>
10.9248

>  <SCORE.INTRA.POLAR>
0

>  <SCORE.INTRA.POLAR.0>
0

>  <SCORE.INTRA.REPUL>
0.0719834

>  <SCORE.INTRA.REPUL.0>
0

>  <SCORE.INTRA.SOLV>
-0.440902

>  <SCORE.INTRA.SOLV.lig_0>
-51.4104

>  <SCORE.INTRA.VDW>
-2.65171

>  <SCORE.INTRA.VDW.0>
0.110327

>  <SCORE.INTRA.norm>
-0.105731

>  <SCORE.RESTR>
0.889926

>  <SCORE.RESTR.CAVITY>
0.889926

>  <SCORE.RESTR.norm>
0.0278102

>  <SCORE.SYSTEM>
0

>  <SCORE.SYSTEM.CONST>
0

>  <SCORE.SYSTEM.DIHEDRAL>
0

>  <SCORE.SYSTEM.SOLV>
0

>  <SCORE.SYSTEM.norm>
0

>  <SCORE.heavy>
32

>  <SCORE.norm>
0.321218

>  <RMSD>
15.581

$$$$
lig.pdb
 OpenBabel11021811523D
libRbt.so/2013.1/901 2013/11/27
 32 34  0  0  0  0  0  0  0  0999 V2000
   -4.0791    6.3579   -0.6618 P   0  0  0  0  0  0  0  0  0  0  0  0
   -5.3073    7.1727   -0.9865 O   0  0  0  0  0  0  0  0  0  0  0  0
   -4.6776    4.8696   -0.4180 O   0  0  0  0  0  0  0  0  0  0  0  0
   -3.0512    6.1436   -1.7447 O   0  0  0  0  0  0  0  0  0  0  0  0
   -3.3976    7.0654    0.4049 O   0  0  0  0  0  0  0  0  0  0  0  0
   -2.5794    6.1101    1.1881 P   0  0  1  0  0  0  0  0  0  0  0  0
   -1.9073    6.8607    2.2748 O   0  0  0  0  0  0  0  0  0  0  0  0
   -3.4475    5.0689    1.7855 O   0  0  0  0  0  0  0  0  0  0  0  0
   -1.5737    5.4766    0.2989 O   0  0  0  0  0  0  0  0  0  0  0  0
   -0.1670    5.9386    0.2294 P   0  0  1  0  0  0  0  0  0  0  0  0
    0.3719    6.0810   -1.1385 O   0  0  0  0  0  0  0  0  0  0  0  0
    0.1772    7.0436    1.1517 O   0  0  0  0  0  0  0  0  0  0  0  0
    0.6555    4.6644    0.7937 O   0  0  0  0  0  0  0  0  0  0  0  0
    0.0126    3.5336    1.3512 C   0  0  0  0  0  0  0  0  0  0  0  0
    0.9745    2.3583    1.5740 C   0  0  1  0  0  0  0  0  0  0  0  0
    0.3296    1.1350    1.2839 O   0  0  0  0  0  0  0  0  0  0  0  0
    2.1517    2.3238    0.5836 C   0  0  1  0  0  0  0  0  0  0  0  0
    3.1987    3.2422    0.8489 O   0  0  0  0  0  0  0  0  0  0  0  0
    2.6149    0.8682    0.6368 C   0  0  1  0  0  0  0  0  0  0  0  0
    3.6272    0.6643    1.6067 O   0  0  0  0  0  0  0  0  0  0  0  0
    1.3424    0.1618    1.1008 C   0  0  2  0  0  0  0  0  0  0  0  0
    0.8771   -0.9412    0.2331 N   0  0  0  0  0  0  0  0  0  0  0  0
   -0.2714   -1.6902    0.2814 C   0  0  0  0  0  0  0  0  0  0  0  0
   -0.3121   -2.6604   -0.5949 N   0  0  0  0  0  0  0  0  0  0  0  0
    0.8840   -2.5356   -1.2952 C   0  0  0  0  0  0  0  0  0  0  0  0
    1.4373   -3.3299   -2.3501 C   0  0  0  0  0  0  0  0  0  0  0  0
    0.9670   -4.3504   -2.8489 O   0  0  0  0  0  0  0  0  0  0  0  0
    2.6671   -2.8402   -2.8102 N   0  0  0  0  0  0  0  0  0  0  0  0
    3.2687   -1.6894   -2.3235 C   0  0  0  0  0  0  0  0  0  0  0  0
    4.3900   -1.2664   -2.9179 N   0  0  0  0  0  0  0  0  0  0  0  0
    2.7698   -0.9751   -1.3014 N   0  0  0  0  0  0  0  0  0  0  0  0
    1.5852   -1.4495   -0.8278 C   0  0  0  0  0  0  0  0  0  0  0  0
  1  2  2  0  0  0  0
  1  4  1  0  0  0  0
  1  3  1  0  0  0  0
  5  1  1  0  0  0  0
  6  7  2  1  0  0  0
  6  9  1  0  0  0  0
  6  5  1  0  0  0  0
  6  8  1  0  0  0  0
 10 11  2  6  0  0  0
 10 12  1  0  0  0  0
 10 13  1  0  0  0  0
 10  9  1  0  0  0  0
 13 14  1  0  0  0  0
 15 14  1  6  0  0  0
 15 16  1  0  0  0  0
 17 19  1  0  0  0  0
 17 15  1  0  0  0  0
 17 18  1  1  0  0  0
 19 21  1  0  0  0  0
 19 20  1  1  0  0  0
 21 16  1  0  0  0  0
 21 22  1  6  0  0  0
 22 32  1  0  0  0  0
 23 22  1  0  0  0  0
 23 24  2  0  0  0  0
 24 25  1  0  0  0  0
 25 26  1  0  0  0  0
 26 27  2  0  0  0  0
 26 28  1  0  0  0  0
 29 28  1  0  0  0  0
 29 30  1  0  0  0  0
 31 29  2  0  0  0  0
 32 25  2  0  0  0  0
 32 31  1  0  0  0  0
M  END
>  <CHROM.1>
154.67027603,98.63263888,-179.50432185,-7.39018678,-134.36465531,169.35768521
-142.27600134,70.23157031,163.39462205,-49.01256384,-0.18323368,2.73045796
-0.08068660,2.12771002,-0.30637025,0.36958661

>  <Name>
lig.pdb

>  <RI>
1.17715e+07

>  <Rbt.Current_Directory>
/home/itssahil/PROJECTS/Mol_Feturizer/New_Systems/rnas/5lwj

>  <Rbt.Executable>
rbdock ($Id: //depot/dev/client3/rdock/2013.1/src/exe/rbdock.cxx#4 $)

>  <Rbt.Library>
libRbt.so (2013.1, Build901 2013/11/27)

>  <Rbt.Parameter_File>
/export/apps/rDock/src/rDock_2013.1_src/data/scripts/dock_solv.prm

>  <Rbt.Receptor>
prm/blind_docking_60.prm

>  <SCORE>
4.82595

>  <SCORE.INTER>
2.11786

>  <SCORE.INTER.CONST>
1

>  <SCORE.INTER.POLAR>
-0.815399

>  <SCORE.INTER.ROT>
8

>  <SCORE.INTER.SOLV>
24.1922

>  <SCORE.INTER.VDW>
-12.8675

>  <SCORE.INTER.norm>
0.0661831

>  <SCORE.INTRA>
2.4902

>  <SCORE.INTRA.DIHEDRAL>
4.75379

>  <SCORE.INTRA.DIHEDRAL.0>
10.9248

>  <SCORE.INTRA.POLAR>
-0.0743586

>  <SCORE.INTRA.POLAR.0>
0

>  <SCORE.INTRA.REPUL>
0

>  <SCORE.INTRA.REPUL.0>
0

>  <SCORE.INTRA.SOLV>
0.451117

>  <SCORE.INTRA.SOLV.lig_0>
-51.4104

>  <SCORE.INTRA.VDW>
0.140566

>  <SCORE.INTRA.VDW.0>
0.110327

>  <SCORE.INTRA.norm>
0.0778187

>  <SCORE.RESTR>
0.217889

>  <SCORE.RESTR.CAVITY>
0.217889

>  <SCORE.RESTR.norm>
0.00680904

>  <SCORE.SYSTEM>
0

>  <SCORE.SYSTEM.CONST>
0

>  <SCORE.SYSTEM.DIHEDRAL>
0

>  <SCORE.SYSTEM.SOLV>
0

>  <SCORE.SYSTEM.norm>
0

>  <SCORE.heavy>
32

>  <SCORE.norm>
0.150811

>  <RMSD>
15.603

$$$$
lig.pdb
 OpenBabel11021811523D
libRbt.so/2013.1/901 2013/11/27
 32 34  0  0  0  0  0  0  0  0999 V2000
   -0.7167    7.9731   -3.1784 P   0  0  0  0  0  0  0  0  0  0  0  0
    0.1454    8.7648   -4.1313 O   0  0  0  0  0  0  0  0  0  0  0  0
   -1.4747    9.1247   -2.3230 O   0  0  0  0  0  0  0  0  0  0  0  0
   -1.8534    7.1588   -3.7443 O   0  0  0  0  0  0  0  0  0  0  0  0
    0.1687    7.0282   -2.5258 O   0  0  0  0  0  0  0  0  0  0  0  0
   -0.3766    6.6789   -1.1930 P   0  0  1  0  0  0  0  0  0  0  0  0
   -0.3363    7.8934   -0.3450 O   0  0  0  0  0  0  0  0  0  0  0  0
   -1.7813    6.2261   -1.3220 O   0  0  0  0  0  0  0  0  0  0  0  0
    0.4459    5.6001   -0.5902 O   0  0  0  0  0  0  0  0  0  0  0  0
    0.4850    5.3484    0.8699 P   0  0  1  0  0  0  0  0  0  0  0  0
    1.0929    6.4313    1.6696 O   0  0  0  0  0  0  0  0  0  0  0  0
   -0.7530    4.7730    1.4412 O   0  0  0  0  0  0  0  0  0  0  0  0
    1.5822    4.1660    0.9990 O   0  0  0  0  0  0  0  0  0  0  0  0
    1.2226    2.7975    1.0248 C   0  0  0  0  0  0  0  0  0  0  0  0
    2.2541    1.9031    0.3232 C   0  0  1  0  0  0  0  0  0  0  0  0
    2.0309    0.5470    0.6512 O   0  0  0  0  0  0  0  0  0  0  0  0
    2.1096    1.8733   -1.2084 C   0  0  1  0  0  0  0  0  0  0  0  0
    2.6167    3.0081   -1.8907 O   0  0  0  0  0  0  0  0  0  0  0  0
    2.8200    0.5793   -1.6046 C   0  0  1  0  0  0  0  0  0  0  0  0
    4.1911    0.7888   -1.8935 O   0  0  0  0  0  0  0  0  0  0  0  0
    2.7094   -0.2340   -0.3164 C   0  0  2  0  0  0  0  0  0  0  0  0
    2.0898   -1.5687   -0.4603 N   0  0  0  0  0  0  0  0  0  0  0  0
    1.2589   -2.2619    0.3832 C   0  0  0  0  0  0  0  0  0  0  0  0
    0.9765   -3.4726   -0.0233 N   0  0  0  0  0  0  0  0  0  0  0  0
    1.6466   -3.5880   -1.2375 C   0  0  0  0  0  0  0  0  0  0  0  0
    1.7578   -4.6913   -2.1432 C   0  0  0  0  0  0  0  0  0  0  0  0
    1.2959   -5.8228   -2.0102 O   0  0  0  0  0  0  0  0  0  0  0  0
    2.5072   -4.3815   -3.2862 N   0  0  0  0  0  0  0  0  0  0  0  0
    3.0529   -3.1310   -3.5340 C   0  0  0  0  0  0  0  0  0  0  0  0
    3.6566   -2.9302   -4.7108 N   0  0  0  0  0  0  0  0  0  0  0  0
    2.9870   -2.1139   -2.6594 N   0  0  0  0  0  0  0  0  0  0  0  0
    2.2803   -2.4043   -1.5331 C   0  0  0  0  0  0  0  0  0  0  0  0
  1  2  2  0  0  0  0
  1  4  1  0  0  0  0
  1  3  1  0  0  0  0
  5  1  1  0  0  0  0
  6  7  2  1  0  0  0
  6  9  1  0  0  0  0
  6  5  1  0  0  0  0
  6  8  1  0  0  0  0
 10 11  2  1  0  0  0
 10 12  1  0  0  0  0
 10 13  1  0  0  0  0
 10  9  1  0  0  0  0
 13 14  1  0  0  0  0
 15 14  1  1  0  0  0
 15 16  1  0  0  0  0
 17 19  1  0  0  0  0
 17 15  1  0  0  0  0
 17 18  1  6  0  0  0
 19 21  1  0  0  0  0
 19 20  1  1  0  0  0
 21 16  1  0  0  0  0
 21 22  1  6  0  0  0
 22 32  1  0  0  0  0
 23 22  1  0  0  0  0
 23 24  2  0  0  0  0
 24 25  1  0  0  0  0
 25 26  1  0  0  0  0
 26 27  2  0  0  0  0
 26 28  1  0  0  0  0
 29 28  1  0  0  0  0
 29 30  1  0  0  0  0
 31 29  2  0  0  0  0
 32 25  2  0  0  0  0
 32 31  1  0  0  0  0
M  END
>  <CHROM.1>
153.30674747,158.07315702,-66.03768461,-93.99705614,-66.04231764,145.06466613
165.73223446,-135.50751838,-174.46682590,-19.40451916,1.06819153,2.61522112
-1.26849460,3.06927966,-1.30775419,1.52585563

>  <Name>
lig.pdb

>  <RI>
4.14043e+07

>  <Rbt.Current_Directory>
/home/itssahil/PROJECTS/Mol_Feturizer/New_Systems/rnas/5lwj

>  <Rbt.Executable>
rbdock ($Id: //depot/dev/client3/rdock/2013.1/src/exe/rbdock.cxx#4 $)

>  <Rbt.Library>
libRbt.so (2013.1, Build901 2013/11/27)

>  <Rbt.Parameter_File>
/export/apps/rDock/src/rDock_2013.1_src/data/scripts/dock_solv.prm

>  <Rbt.Receptor>
prm/blind_docking_80.prm

>  <SCORE>
-38.3951

>  <SCORE.INTER>
-38.8856

>  <SCORE.INTER.CONST>
1

>  <SCORE.INTER.POLAR>
-2.49305

>  <SCORE.INTER.ROT>
8

>  <SCORE.INTER.SOLV>
24.2394

>  <SCORE.INTER.VDW>
-34.6267

>  <SCORE.INTER.norm>
-1.21517

>  <SCORE.INTRA>
0.140846

>  <SCORE.INTRA.DIHEDRAL>
6.31587

>  <SCORE.INTRA.DIHEDRAL.0>
10.9248

>  <SCORE.INTRA.POLAR>
0

>  <SCORE.INTRA.POLAR.0>
0

>  <SCORE.INTRA.REPUL>
0

>  <SCORE.INTRA.REPUL.0>
0

>  <SCORE.INTRA.SOLV>
-0.622209

>  <SCORE.INTRA.SOLV.lig_0>
-51.4104

>  <SCORE.INTRA.VDW>
-2.70598

>  <SCORE.INTRA.VDW.0>
0.110327

>  <SCORE.INTRA.norm>
0.00440145

>  <SCORE.RESTR>
0.349664

>  <SCORE.RESTR.CAVITY>
0.349664

>  <SCORE.RESTR.norm>
0.010927

>  <SCORE.SYSTEM>
0

>  <SCORE.SYSTEM.CONST>
0

>  <SCORE.SYSTEM.DIHEDRAL>
0

>  <SCORE.SYSTEM.SOLV>
0

>  <SCORE.SYSTEM.norm>
0

>  <SCORE.heavy>
32

>  <SCORE.norm>
-1.19985

>  <RMSD>
15.607

$$$$
lig.pdb
 OpenBabel11021811523D
libRbt.so/2013.1/901 2013/11/27
 32 34  0  0  0  0  0  0  0  0999 V2000
   -3.7974    5.7684   -0.5857 P   0  0  0  0  0  0  0  0  0  0  0  0
   -3.8625    6.3462   -1.9786 O   0  0  0  0  0  0  0  0  0  0  0  0
   -4.2848    7.0021    0.3486 O   0  0  0  0  0  0  0  0  0  0  0  0
   -4.7538    4.6604   -0.2213 O   0  0  0  0  0  0  0  0  0  0  0  0
   -2.4655    5.2130   -0.4428 O   0  0  0  0  0  0  0  0  0  0  0  0
   -1.5156    6.2921   -0.0840 P   0  0  1  0  0  0  0  0  0  0  0  0
   -1.7517    7.4367   -0.9951 O   0  0  0  0  0  0  0  0  0  0  0  0
   -1.7483    6.7299    1.3120 O   0  0  0  0  0  0  0  0  0  0  0  0
   -0.1248    5.7941   -0.2295 O   0  0  0  0  0  0  0  0  0  0  0  0
    0.5580    5.0143    0.8300 P   0  0  1  0  0  0  0  0  0  0  0  0
    1.5537    5.7730    1.6140 O   0  0  0  0  0  0  0  0  0  0  0  0
   -0.3238    4.1346    1.6292 O   0  0  0  0  0  0  0  0  0  0  0  0
    1.4884    3.9978   -0.0185 O   0  0  0  0  0  0  0  0  0  0  0  0
    2.0148    2.8080    0.5382 C   0  0  0  0  0  0  0  0  0  0  0  0
    2.8530    2.0066   -0.4675 C   0  0  1  0  0  0  0  0  0  0  0  0
    2.5509    0.6297   -0.3706 O   0  0  0  0  0  0  0  0  0  0  0  0
    2.4992    2.2929   -1.9374 C   0  0  1  0  0  0  0  0  0  0  0  0
    3.0123    3.5056   -2.4628 O   0  0  0  0  0  0  0  0  0  0  0  0
    3.0250    1.0607   -2.6732 C   0  0  1  0  0  0  0  0  0  0  0  0
    4.3574    1.2342   -3.1222 O   0  0  0  0  0  0  0  0  0  0  0  0
    3.0154    0.0153   -1.5594 C   0  0  2  0  0  0  0  0  0  0  0  0
    2.2600   -1.2205   -1.8562 N   0  0  0  0  0  0  0  0  0  0  0  0
    2.3624   -2.0980   -2.9058 C   0  0  0  0  0  0  0  0  0  0  0  0
    1.4582   -3.0431   -2.9005 N   0  0  0  0  0  0  0  0  0  0  0  0
    0.7135   -2.7938   -1.7516 C   0  0  0  0  0  0  0  0  0  0  0  0
   -0.4388   -3.4580   -1.2216 C   0  0  0  0  0  0  0  0  0  0  0  0
   -1.0556   -4.4011   -1.7132 O   0  0  0  0  0  0  0  0  0  0  0  0
   -0.8716   -2.9080   -0.0075 N   0  0  0  0  0  0  0  0  0  0  0  0
   -0.2328   -1.8570    0.6331 C   0  0  0  0  0  0  0  0  0  0  0  0
   -0.6795   -1.4914    1.8400 N   0  0  0  0  0  0  0  0  0  0  0  0
    0.8183   -1.2062    0.1084 N   0  0  0  0  0  0  0  0  0  0  0  0
    1.2390   -1.7141   -1.0822 C   0  0  0  0  0  0  0  0  0  0  0  0
  1  2  2  0  0  0  0
  1  4  1  0  0  0  0
  1  3  1  0  0  0  0
  5  1  1  0  0  0  0
  6  7  2  6  0  0  0
  6  9  1  0  0  0  0
  6  5  1  0  0  0  0
  6  8  1  0  0  0  0
 10 11  2  1  0  0  0
 10 12  1  0  0  0  0
 10 13  1  0  0  0  0
 10  9  1  0  0  0  0
 13 14  1  0  0  0  0
 15 14  1  1  0  0  0
 15 16  1  0  0  0  0
 17 19  1  0  0  0  0
 17 15  1  0  0  0  0
 17 18  1  6  0  0  0
 19 21  1  0  0  0  0
 19 20  1  1  0  0  0
 21 16  1  0  0  0  0
 21 22  1  6  0  0  0
 22 32  1  0  0  0  0
 23 22  1  0  0  0  0
 23 24  2  0  0  0  0
 24 25  1  0  0  0  0
 25 26  1  0  0  0  0
 26 27  2  0  0  0  0
 26 28  1  0  0  0  0
 29 28  1  0  0  0  0
 29 30  1  0  0  0  0
 31 29  2  0  0  0  0
 32 25  2  0  0  0  0
 32 31  1  0  0  0  0
M  END
>  <CHROM.1>
82.37441687,-83.22718689,-47.36410894,-160.58201330,-103.71709500,179.42437676
-137.01399770,-151.43261040,-60.61512110,178.62237014,0.00420226,2.47198597
-0.57900421,1.98618159,0.18072867,0.08939130

>  <Name>
lig.pdb

>  <RI>
1.17715e+07

>  <Rbt.Current_Directory>
/home/itssahil/PROJECTS/Mol_Feturizer/New_Systems/rnas/5lwj

>  <Rbt.Executable>
rbdock ($Id: //depot/dev/client3/rdock/2013.1/src/exe/rbdock.cxx#4 $)

>  <Rbt.Library>
libRbt.so (2013.1, Build901 2013/11/27)

>  <Rbt.Parameter_File>
/export/apps/rDock/src/rDock_2013.1_src/data/scripts/dock_solv.prm

>  <Rbt.Receptor>
prm/blind_docking_60.prm

>  <SCORE>
-41.1968

>  <SCORE.INTER>
-45.8231

>  <SCORE.INTER.CONST>
1

>  <SCORE.INTER.POLAR>
-4.49767

>  <SCORE.INTER.ROT>
8

>  <SCORE.INTER.SOLV>
26.7188

>  <SCORE.INTER.VDW>
-33.3961

>  <SCORE.INTER.norm>
-1.43197

>  <SCORE.INTRA>
1.91765

>  <SCORE.INTRA.DIHEDRAL>
3.30578

>  <SCORE.INTRA.DIHEDRAL.0>
10.9248

>  <SCORE.INTRA.POLAR>
0

>  <SCORE.INTRA.POLAR.0>
0

>  <SCORE.INTRA.REPUL>
0.45755

>  <SCORE.INTRA.REPUL.0>
0

>  <SCORE.INTRA.SOLV>
-0.535324

>  <SCORE.INTRA.SOLV.lig_0>
-51.4104

>  <SCORE.INTRA.VDW>
-1.75533

>  <SCORE.INTRA.VDW.0>
0.110327

>  <SCORE.INTRA.norm>
0.0599265

>  <SCORE.RESTR>
2.70865

>  <SCORE.RESTR.CAVITY>
2.70865

>  <SCORE.RESTR.norm>
0.0846454

>  <SCORE.SYSTEM>
0

>  <SCORE.SYSTEM.CONST>
0

>  <SCORE.SYSTEM.DIHEDRAL>
0

>  <SCORE.SYSTEM.SOLV>
0

>  <SCORE.SYSTEM.norm>
0

>  <SCORE.heavy>
32

>  <SCORE.norm>
-1.2874

>  <RMSD>
15.615

$$$$
lig.pdb
 OpenBabel11021811523D
libRbt.so/2013.1/901 2013/11/27
 32 34  0  0  0  0  0  0  0  0999 V2000
   -1.5358    7.9833   -2.5380 P   0  0  0  0  0  0  0  0  0  0  0  0
   -1.7005    7.9263   -4.0372 O   0  0  0  0  0  0  0  0  0  0  0  0
   -0.7583    9.3884   -2.3055 O   0  0  0  0  0  0  0  0  0  0  0  0
   -2.7707    8.1266   -1.6838 O   0  0  0  0  0  0  0  0  0  0  0  0
   -0.9241    6.7264   -2.1526 O   0  0  0  0  0  0  0  0  0  0  0  0
   -0.2230    6.8940   -0.8580 P   0  0  1  0  0  0  0  0  0  0  0  0
    0.8791    7.8654   -1.0523 O   0  0  0  0  0  0  0  0  0  0  0  0
   -1.1588    7.4227    0.1615 O   0  0  0  0  0  0  0  0  0  0  0  0
    0.3154    5.5835   -0.4147 O   0  0  0  0  0  0  0  0  0  0  0  0
    0.5954    5.2764    1.0080 P   0  0  1  0  0  0  0  0  0  0  0  0
    1.3003    6.3445    1.7457 O   0  0  0  0  0  0  0  0  0  0  0  0
   -0.5210    4.6438    1.7453 O   0  0  0  0  0  0  0  0  0  0  0  0
    1.7251    4.1221    0.9083 O   0  0  0  0  0  0  0  0  0  0  0  0
    1.4017    2.7616    0.6909 C   0  0  0  0  0  0  0  0  0  0  0  0
    2.5277    1.9929   -0.0145 C   0  0  1  0  0  0  0  0  0  0  0  0
    2.3917    0.6052    0.2136 O   0  0  0  0  0  0  0  0  0  0  0  0
    2.4552    2.0573   -1.5502 C   0  0  1  0  0  0  0  0  0  0  0  0
    2.9066    3.2691   -2.1315 O   0  0  0  0  0  0  0  0  0  0  0  0
    3.2774    0.8473   -1.9931 C   0  0  1  0  0  0  0  0  0  0  0  0
    4.6406    1.1734   -2.1988 O   0  0  0  0  0  0  0  0  0  0  0  0
    3.1696   -0.0577   -0.7672 C   0  0  2  0  0  0  0  0  0  0  0  0
    2.6584   -1.4203   -1.0278 N   0  0  0  0  0  0  0  0  0  0  0  0
    1.6050   -2.0996   -0.4699 C   0  0  0  0  0  0  0  0  0  0  0  0
    1.4973   -3.3394   -0.8724 N   0  0  0  0  0  0  0  0  0  0  0  0
    2.5384   -3.4923   -1.7831 C   0  0  0  0  0  0  0  0  0  0  0  0
    2.9671   -4.6360   -2.5301 C   0  0  0  0  0  0  0  0  0  0  0  0
    2.5078   -5.7756   -2.4899 O   0  0  0  0  0  0  0  0  0  0  0  0
    4.0513   -4.3580   -3.3734 N   0  0  0  0  0  0  0  0  0  0  0  0
    4.6261   -3.1024   -3.5006 C   0  0  0  0  0  0  0  0  0  0  0  0
    5.5863   -2.9404   -4.4178 N   0  0  0  0  0  0  0  0  0  0  0  0
    4.2519   -2.0446   -2.7626 N   0  0  0  0  0  0  0  0  0  0  0  0
    3.2132   -2.3026   -1.9218 C   0  0  0  0  0  0  0  0  0  0  0  0
  1  2  2  0  0  0  0
  1  4  1  0  0  0  0
  1  3  1  0  0  0  0
  5  1  1  0  0  0  0
  6  7  2  6  0  0  0
  6  9  1  0  0  0  0
  6  5  1  0  0  0  0
  6  8  1  0  0  0  0
 10 11  2  1  0  0  0
 10 12  1  0  0  0  0
 10 13  1  0  0  0  0
 10  9  1  0  0  0  0
 13 14  1  0  0  0  0
 15 14  1  1  0  0  0
 15 16  1  0  0  0  0
 17 19  1  0  0  0  0
 17 15  1  0  0  0  0
 17 18  1  6  0  0  0
 19 21  1  0  0  0  0
 19 20  1  1  0  0  0
 21 16  1  0  0  0  0
 21 22  1  6  0  0  0
 22 32  1  0  0  0  0
 23 22  1  0  0  0  0
 23 24  2  0  0  0  0
 24 25  1  0  0  0  0
 25 26  1  0  0  0  0
 26 27  2  0  0  0  0
 26 28  1  0  0  0  0
 29 28  1  0  0  0  0
 29 30  1  0  0  0  0
 31 29  2  0  0  0  0
 32 25  2  0  0  0  0
 32 31  1  0  0  0  0
M  END
>  <CHROM.1>
156.59868689,-155.89893401,-63.95589552,-82.35652086,-44.89791536,152.54149176
158.94992034,-99.91741598,-64.05360241,-0.93181591,1.40806713,2.71975142
-1.26358719,3.09933476,-1.19046044,1.63767859

>  <Name>
lig.pdb

>  <RI>
3.17878e+07

>  <Rbt.Current_Directory>
/home/itssahil/PROJECTS/Mol_Feturizer/New_Systems/rnas/5lwj

>  <Rbt.Executable>
rbdock ($Id: //depot/dev/client3/rdock/2013.1/src/exe/rbdock.cxx#4 $)

>  <Rbt.Library>
libRbt.so (2013.1, Build901 2013/11/27)

>  <Rbt.Parameter_File>
/export/apps/rDock/src/rDock_2013.1_src/data/scripts/dock_solv.prm

>  <Rbt.Receptor>
prm/blind_docking_100.prm

>  <SCORE>
-35.8095

>  <SCORE.INTER>
-35.0881

>  <SCORE.INTER.CONST>
1

>  <SCORE.INTER.POLAR>
-1.98036

>  <SCORE.INTER.ROT>
8

>  <SCORE.INTER.SOLV>
25.2119

>  <SCORE.INTER.VDW>
-34.1281

>  <SCORE.INTER.norm>
-1.0965

>  <SCORE.INTRA>
-0.725511

>  <SCORE.INTRA.DIHEDRAL>
4.82973

>  <SCORE.INTRA.DIHEDRAL.0>
10.9248

>  <SCORE.INTRA.POLAR>
0

>  <SCORE.INTRA.POLAR.0>
0

>  <SCORE.INTRA.REPUL>
0

>  <SCORE.INTRA.REPUL.0>
0

>  <SCORE.INTRA.SOLV>
-1.0185

>  <SCORE.INTRA.SOLV.lig_0>
-51.4104

>  <SCORE.INTRA.VDW>
-2.63113

>  <SCORE.INTRA.VDW.0>
0.110327

>  <SCORE.INTRA.norm>
-0.0226722

>  <SCORE.RESTR>
0.00409907

>  <SCORE.RESTR.CAVITY>
0.00409907

>  <SCORE.RESTR.norm>
0.000128096

>  <SCORE.SYSTEM>
0

>  <SCORE.SYSTEM.CONST>
0

>  <SCORE.SYSTEM.DIHEDRAL>
0

>  <SCORE.SYSTEM.SOLV>
0

>  <SCORE.SYSTEM.norm>
0

>  <SCORE.heavy>
32

>  <SCORE.norm>
-1.11905

>  <RMSD>
15.638

$$$$
lig.pdb
 OpenBabel11021811523D
libRbt.so/2013.1/901 2013/11/27
 32 34  0  0  0  0  0  0  0  0999 V2000
   -0.7958    7.8127   -3.0087 P   0  0  0  0  0  0  0  0  0  0  0  0
    0.0024    8.4900   -4.0959 O   0  0  0  0  0  0  0  0  0  0  0  0
   -1.3887    9.0589   -2.1555 O   0  0  0  0  0  0  0  0  0  0  0  0
   -2.0322    7.0417   -3.3984 O   0  0  0  0  0  0  0  0  0  0  0  0
    0.0989    6.8526   -2.3919 O   0  0  0  0  0  0  0  0  0  0  0  0
   -0.3535    6.5724   -1.0090 P   0  0  1  0  0  0  0  0  0  0  0  0
   -0.2339    7.8224   -0.2221 O   0  0  0  0  0  0  0  0  0  0  0  0
   -1.7704    6.1399   -1.0162 O   0  0  0  0  0  0  0  0  0  0  0  0
    0.4945    5.5068   -0.4184 O   0  0  0  0  0  0  0  0  0  0  0  0
    0.5735    5.2683    1.0424 P   0  0  1  0  0  0  0  0  0  0  0  0
    1.4715    6.1859    1.7727 O   0  0  0  0  0  0  0  0  0  0  0  0
   -0.7227    5.0067    1.7068 O   0  0  0  0  0  0  0  0  0  0  0  0
    1.3694    3.8621    1.1319 O   0  0  0  0  0  0  0  0  0  0  0  0
    0.7344    2.6164    0.9138 C   0  0  0  0  0  0  0  0  0  0  0  0
    1.6984    1.4302    1.0547 C   0  0  1  0  0  0  0  0  0  0  0  0
    1.0703    0.2355    0.6368 O   0  0  0  0  0  0  0  0  0  0  0  0
    2.9019    1.4918    0.0979 C   0  0  1  0  0  0  0  0  0  0  0  0
    3.9348    2.3871    0.4744 O   0  0  0  0  0  0  0  0  0  0  0  0
    3.3740    0.0396    0.0308 C   0  0  1  0  0  0  0  0  0  0  0  0
    4.3614   -0.2472    1.0054 O   0  0  0  0  0  0  0  0  0  0  0  0
    2.0946   -0.7121    0.3935 C   0  0  2  0  0  0  0  0  0  0  0  0
    1.6607   -1.7335   -0.5835 N   0  0  0  0  0  0  0  0  0  0  0  0
    0.5501   -2.5389   -0.5979 C   0  0  0  0  0  0  0  0  0  0  0  0
    0.5338   -3.4066   -1.5766 N   0  0  0  0  0  0  0  0  0  0  0  0
    1.7053   -3.1459   -2.2809 C   0  0  0  0  0  0  0  0  0  0  0  0
    2.2696   -3.7898   -3.4285 C   0  0  0  0  0  0  0  0  0  0  0  0
    1.8358   -4.7705   -4.0296 O   0  0  0  0  0  0  0  0  0  0  0  0
    3.4636   -3.1919   -3.8538 N   0  0  0  0  0  0  0  0  0  0  0  0
    4.0221   -2.0741   -3.2525 C   0  0  0  0  0  0  0  0  0  0  0  0
    5.1077   -1.5328   -3.8167 N   0  0  0  0  0  0  0  0  0  0  0  0
    3.5152   -1.5033   -2.1476 N   0  0  0  0  0  0  0  0  0  0  0  0
    2.3660   -2.0851   -1.7079 C   0  0  0  0  0  0  0  0  0  0  0  0
  1  2  2  0  0  0  0
  1  4  1  0  0  0  0
  1  3  1  0  0  0  0
  5  1  1  0  0  0  0
  6  7  2  1  0  0  0
  6  9  1  0  0  0  0
  6  5  1  0  0  0  0
  6  8  1  0  0  0  0
 10 11  2  1  0  0  0
 10 12  1  0  0  0  0
 10 13  1  0  0  0  0
 10  9  1  0  0  0  0
 13 14  1  0  0  0  0
 15 14  1  6  0  0  0
 15 16  1  0  0  0  0
 17 19  1  0  0  0  0
 17 15  1  0  0  0  0
 17 18  1  1  0  0  0
 19 21  1  0  0  0  0
 19 20  1  1  0  0  0
 21 16  1  0  0  0  0
 21 22  1  6  0  0  0
 22 32  1  0  0  0  0
 23 22  1  0  0  0  0
 23 24  2  0  0  0  0
 24 25  1  0  0  0  0
 25 26  1  0  0  0  0
 26 27  2  0  0  0  0
 26 28  1  0  0  0  0
 29 28  1  0  0  0  0
 29 30  1  0  0  0  0
 31 29  2  0  0  0  0
 32 25  2  0  0  0  0
 32 31  1  0  0  0  0
M  END
>  <CHROM.1>
155.79777708,161.75799456,-64.41952399,-79.34555952,-80.38395885,-179.98112320
-171.34953191,-178.70326209,75.31465409,-52.88904049,1.18411465,2.62359820
-1.05874726,2.56389621,-1.18583169,1.02200764

>  <Name>
lig.pdb

>  <RI>
1.2169e+07

>  <Rbt.Current_Directory>
/home/itssahil/PROJECTS/Mol_Feturizer/New_Systems/rnas/5lwj

>  <Rbt.Executable>
rbdock ($Id: //depot/dev/client3/rdock/2013.1/src/exe/rbdock.cxx#4 $)

>  <Rbt.Library>
libRbt.so (2013.1, Build901 2013/11/27)

>  <Rbt.Parameter_File>
/export/apps/rDock/src/rDock_2013.1_src/data/scripts/dock_solv.prm

>  <Rbt.Receptor>
prm/blind_docking_40.prm

>  <SCORE>
-28.6638

>  <SCORE.INTER>
-25.8244

>  <SCORE.INTER.CONST>
1

>  <SCORE.INTER.POLAR>
-0.92524

>  <SCORE.INTER.ROT>
8

>  <SCORE.INTER.SOLV>
26.1723

>  <SCORE.INTER.VDW>
-31.7896

>  <SCORE.INTER.norm>
-0.807013

>  <SCORE.INTRA>
-4.0816

>  <SCORE.INTRA.DIHEDRAL>
-4.84642

>  <SCORE.INTRA.DIHEDRAL.0>
10.9248

>  <SCORE.INTRA.POLAR>
0

>  <SCORE.INTRA.POLAR.0>
0

>  <SCORE.INTRA.REPUL>
0

>  <SCORE.INTRA.REPUL.0>
0

>  <SCORE.INTRA.SOLV>
-0.872324

>  <SCORE.INTRA.SOLV.lig_0>
-51.4104

>  <SCORE.INTRA.VDW>
-1.22223

>  <SCORE.INTRA.VDW.0>
0.110327

>  <SCORE.INTRA.norm>
-0.12755

>  <SCORE.RESTR>
1.24222

>  <SCORE.RESTR.CAVITY>
1.24222

>  <SCORE.RESTR.norm>
0.0388194

>  <SCORE.SYSTEM>
0

>  <SCORE.SYSTEM.CONST>
0

>  <SCORE.SYSTEM.DIHEDRAL>
0

>  <SCORE.SYSTEM.SOLV>
0

>  <SCORE.SYSTEM.norm>
0

>  <SCORE.heavy>
32

>  <SCORE.norm>
-0.895744

>  <RMSD>
15.648

$$$$
lig.pdb
 OpenBabel11021811523D
libRbt.so/2013.1/901 2013/11/27
 32 34  0  0  0  0  0  0  0  0999 V2000
   -4.1644    6.0003   -0.5911 P   0  0  0  0  0  0  0  0  0  0  0  0
   -4.3739    5.7961   -2.0718 O   0  0  0  0  0  0  0  0  0  0  0  0
   -4.1956    7.6148   -0.4333 O   0  0  0  0  0  0  0  0  0  0  0  0
   -5.2425    5.5398    0.3580 O   0  0  0  0  0  0  0  0  0  0  0  0
   -2.9754    5.2457   -0.2454 O   0  0  0  0  0  0  0  0  0  0  0  0
   -2.5288    5.6228    1.1162 P   0  0  1  0  0  0  0  0  0  0  0  0
   -2.4457    7.1009    1.1820 O   0  0  0  0  0  0  0  0  0  0  0  0
   -3.5086    5.1488    2.1212 O   0  0  0  0  0  0  0  0  0  0  0  0
   -1.2001    5.0180    1.3852 O   0  0  0  0  0  0  0  0  0  0  0  0
    0.0512    5.5450    0.7908 P   0  0  1  0  0  0  0  0  0  0  0  0
   -0.1120    6.1861   -0.5299 O   0  0  0  0  0  0  0  0  0  0  0  0
    0.9352    6.2710    1.7297 O   0  0  0  0  0  0  0  0  0  0  0  0
    0.8665    4.1968    0.4218 O   0  0  0  0  0  0  0  0  0  0  0  0
    0.6520    2.9722    1.0978 C   0  0  0  0  0  0  0  0  0  0  0  0
    0.9784    1.7518    0.2258 C   0  0  1  0  0  0  0  0  0  0  0  0
    2.3524    1.7377   -0.1032 O   0  0  0  0  0  0  0  0  0  0  0  0
    0.8273    0.4073    0.9588 C   0  0  1  0  0  0  0  0  0  0  0  0
   -0.5040   -0.0530    1.1198 O   0  0  0  0  0  0  0  0  0  0  0  0
    1.6857   -0.5459    0.1277 C   0  0  1  0  0  0  0  0  0  0  0  0
    0.9376   -1.1922   -0.8871 O   0  0  0  0  0  0  0  0  0  0  0  0
    2.6667    0.4237   -0.5289 C   0  0  2  0  0  0  0  0  0  0  0  0
    4.0977    0.1181   -0.3174 N   0  0  0  0  0  0  0  0  0  0  0  0
    4.7324   -0.4998    0.7303 C   0  0  0  0  0  0  0  0  0  0  0  0
    6.0363   -0.5159    0.6288 N   0  0  0  0  0  0  0  0  0  0  0  0
    6.2900    0.1147   -0.5856 C   0  0  0  0  0  0  0  0  0  0  0  0
    7.5264    0.4377   -1.2313 C   0  0  0  0  0  0  0  0  0  0  0  0
    8.6660    0.2504   -0.8101 O   0  0  0  0  0  0  0  0  0  0  0  0
    7.3433    1.0516   -2.4777 N   0  0  0  0  0  0  0  0  0  0  0  0
    6.1000    1.2890   -3.0443 C   0  0  0  0  0  0  0  0  0  0  0  0
    6.0591    1.7846   -4.2862 N   0  0  0  0  0  0  0  0  0  0  0  0
    4.9431    1.0284   -2.4138 N   0  0  0  0  0  0  0  0  0  0  0  0
    5.1027    0.4509   -1.1917 C   0  0  0  0  0  0  0  0  0  0  0  0
  1  2  2  0  0  0  0
  1  4  1  0  0  0  0
  1  3  1  0  0  0  0
  5  1  1  0  0  0  0
  6  7  2  1  0  0  0
  6  9  1  0  0  0  0
  6  5  1  0  0  0  0
  6  8  1  0  0  0  0
 10 11  2  6  0  0  0
 10 12  1  0  0  0  0
 10 13  1  0  0  0  0
 10  9  1  0  0  0  0
 13 14  1  0  0  0  0
 15 14  1  1  0  0  0
 15 16  1  0  0  0  0
 17 19  1  0  0  0  0
 17 15  1  0  0  0  0
 17 18  1  6  0  0  0
 19 21  1  0  0  0  0
 19 20  1  6  0  0  0
 21 16  1  0  0  0  0
 21 22  1  1  0  0  0
 22 32  1  0  0  0  0
 23 22  1  0  0  0  0
 23 24  2  0  0  0  0
 24 25  1  0  0  0  0
 25 26  1  0  0  0  0
 26 27  2  0  0  0  0
 26 28  1  0  0  0  0
 29 28  1  0  0  0  0
 29 30  1  0  0  0  0
 31 29  2  0  0  0  0
 32 25  2  0  0  0  0
 32 31  1  0  0  0  0
M  END
>  <CHROM.1>
167.79256959,75.22993134,-50.77662041,-25.16958490,-29.84946441,152.76628580
63.71812628,-36.35507310,178.89239921,94.42894858,0.94903547,3.11185671,-0.15780123
-2.65038481,-0.32137620,2.87356899

>  <Name>
lig.pdb

>  <RI>
1.2169e+07

>  <Rbt.Current_Directory>
/home/itssahil/PROJECTS/Mol_Feturizer/New_Systems/rnas/5lwj

>  <Rbt.Executable>
rbdock ($Id: //depot/dev/client3/rdock/2013.1/src/exe/rbdock.cxx#4 $)

>  <Rbt.Library>
libRbt.so (2013.1, Build901 2013/11/27)

>  <Rbt.Parameter_File>
/export/apps/rDock/src/rDock_2013.1_src/data/scripts/dock_solv.prm

>  <Rbt.Receptor>
prm/blind_docking_40.prm

>  <SCORE>
-22.18

>  <SCORE.INTER>
-29.527

>  <SCORE.INTER.CONST>
1

>  <SCORE.INTER.POLAR>
-2.04407

>  <SCORE.INTER.ROT>
8

>  <SCORE.INTER.SOLV>
25.1913

>  <SCORE.INTER.VDW>
-30.2015

>  <SCORE.INTER.norm>
-0.922717

>  <SCORE.INTRA>
-0.555119

>  <SCORE.INTRA.DIHEDRAL>
1.36889

>  <SCORE.INTRA.DIHEDRAL.0>
10.9248

>  <SCORE.INTRA.POLAR>
0

>  <SCORE.INTRA.POLAR.0>
0

>  <SCORE.INTRA.REPUL>
0

>  <SCORE.INTRA.REPUL.0>
0

>  <SCORE.INTRA.SOLV>
-0.610639

>  <SCORE.INTRA.SOLV.lig_0>
-51.4104

>  <SCORE.INTRA.VDW>
-0.934243

>  <SCORE.INTRA.VDW.0>
0.110327

>  <SCORE.INTRA.norm>
-0.0173475

>  <SCORE.RESTR>
7.90209

>  <SCORE.RESTR.CAVITY>
7.90209

>  <SCORE.RESTR.norm>
0.24694

>  <SCORE.SYSTEM>
0

>  <SCORE.SYSTEM.CONST>
0

>  <SCORE.SYSTEM.DIHEDRAL>
0

>  <SCORE.SYSTEM.SOLV>
0

>  <SCORE.SYSTEM.norm>
0

>  <SCORE.heavy>
32

>  <SCORE.norm>
-0.693125

>  <RMSD>
15.665

$$$$
lig.pdb
 OpenBabel11021811523D
libRbt.so/2013.1/901 2013/11/27
 32 34  0  0  0  0  0  0  0  0999 V2000
   -4.9363    5.4717   -0.5233 P   0  0  0  0  0  0  0  0  0  0  0  0
   -5.3552    6.7743   -1.1603 O   0  0  0  0  0  0  0  0  0  0  0  0
   -5.4160    5.6433    1.0172 O   0  0  0  0  0  0  0  0  0  0  0  0
   -5.6256    4.2032   -0.9603 O   0  0  0  0  0  0  0  0  0  0  0  0
   -3.5334    5.2989   -0.8468 O   0  0  0  0  0  0  0  0  0  0  0  0
   -2.7020    5.9279    0.2062 P   0  0  1  0  0  0  0  0  0  0  0  0
   -3.1331    7.3381    0.3537 O   0  0  0  0  0  0  0  0  0  0  0  0
   -2.8985    5.2254    1.4955 O   0  0  0  0  0  0  0  0  0  0  0  0
   -1.2726    5.8631   -0.1889 O   0  0  0  0  0  0  0  0  0  0  0  0
   -0.1710    6.1936    0.7460 P   0  0  1  0  0  0  0  0  0  0  0  0
    0.8589    7.0981    0.1956 O   0  0  0  0  0  0  0  0  0  0  0  0
   -0.5936    6.5015    2.1305 O   0  0  0  0  0  0  0  0  0  0  0  0
    0.6286    4.7918    0.8653 O   0  0  0  0  0  0  0  0  0  0  0  0
   -0.0173    3.5763    1.1940 C   0  0  0  0  0  0  0  0  0  0  0  0
    0.9734    2.4602    1.5534 C   0  0  1  0  0  0  0  0  0  0  0  0
    0.5240    1.2221    1.0421 O   0  0  0  0  0  0  0  0  0  0  0  0
    2.3404    2.5973    0.8604 C   0  0  1  0  0  0  0  0  0  0  0  0
    3.2133    3.5643    1.4199 O   0  0  0  0  0  0  0  0  0  0  0  0
    2.9107    1.1805    0.9219 C   0  0  1  0  0  0  0  0  0  0  0  0
    3.6946    0.9696    2.0829 O   0  0  0  0  0  0  0  0  0  0  0  0
    1.6365    0.3453    1.0326 C   0  0  2  0  0  0  0  0  0  0  0  0
    1.4796   -0.7108    0.0099 N   0  0  0  0  0  0  0  0  0  0  0  0
    2.0757   -0.8599   -1.2168 C   0  0  0  0  0  0  0  0  0  0  0  0
    1.6241   -1.8737   -1.9090 N   0  0  0  0  0  0  0  0  0  0  0  0
    0.6758   -2.4585   -1.0751 C   0  0  0  0  0  0  0  0  0  0  0  0
   -0.1908   -3.5787   -1.2855 C   0  0  0  0  0  0  0  0  0  0  0  0
   -0.3067   -4.2590   -2.3028 O   0  0  0  0  0  0  0  0  0  0  0  0
   -0.9835   -3.8690   -0.1669 N   0  0  0  0  0  0  0  0  0  0  0  0
   -0.9125   -3.1713    1.0295 C   0  0  0  0  0  0  0  0  0  0  0  0
   -1.6446   -3.6119    2.0588 N   0  0  0  0  0  0  0  0  0  0  0  0
   -0.1333   -2.0916    1.2057 N   0  0  0  0  0  0  0  0  0  0  0  0
    0.6283   -1.7824    0.1209 C   0  0  0  0  0  0  0  0  0  0  0  0
  1  2  2  0  0  0  0
  1  4  1  0  0  0  0
  1  3  1  0  0  0  0
  5  1  1  0  0  0  0
  6  7  2  1  0  0  0
  6  9  1  0  0  0  0
  6  5  1  0  0  0  0
  6  8  1  0  0  0  0
 10 11  2  6  0  0  0
 10 12  1  0  0  0  0
 10 13  1  0  0  0  0
 10  9  1  0  0  0  0
 13 14  1  0  0  0  0
 15 14  1  6  0  0  0
 15 16  1  0  0  0  0
 17 19  1  0  0  0  0
 17 15  1  0  0  0  0
 17 18  1  1  0  0  0
 19 21  1  0  0  0  0
 19 20  1  1  0  0  0
 21 16  1  0  0  0  0
 21 22  1  6  0  0  0
 22 32  1  0  0  0  0
 23 22  1  0  0  0  0
 23 24  2  0  0  0  0
 24 25  1  0  0  0  0
 25 26  1  0  0  0  0
 26 27  2  0  0  0  0
 26 28  1  0  0  0  0
 29 28  1  0  0  0  0
 29 30  1  0  0  0  0
 31 29  2  0  0  0  0
 32 25  2  0  0  0  0
 32 31  1  0  0  0  0
M  END
>  <CHROM.1>
89.78997077,-169.24209808,-54.43538043,-52.41494898,-132.61791301,-167.17081218
-141.79826034,-64.15792453,163.54974028,104.57796864,-0.79324378,2.54884417
0.31554116,2.00033244,-0.23334031,0.13035133

>  <Name>
lig.pdb

>  <RI>
2.72908e+07

>  <Rbt.Current_Directory>
/home/itssahil/PROJECTS/Mol_Feturizer/New_Systems/rnas/5lwj

>  <Rbt.Executable>
rbdock ($Id: //depot/dev/client3/rdock/2013.1/src/exe/rbdock.cxx#4 $)

>  <Rbt.Library>
libRbt.so (2013.1, Build901 2013/11/27)

>  <Rbt.Parameter_File>
/export/apps/rDock/src/rDock_2013.1_src/data/scripts/dock_solv.prm

>  <Rbt.Receptor>
prm/blind_docking_20.prm

>  <SCORE>
4.63509

>  <SCORE.INTER>
3.74574

>  <SCORE.INTER.CONST>
1

>  <SCORE.INTER.POLAR>
-1.40011

>  <SCORE.INTER.ROT>
8

>  <SCORE.INTER.SOLV>
25.6275

>  <SCORE.INTER.VDW>
-10.3117

>  <SCORE.INTER.norm>
0.117054

>  <SCORE.INTRA>
-3.13718

>  <SCORE.INTRA.DIHEDRAL>
1.60788

>  <SCORE.INTRA.DIHEDRAL.0>
10.9248

>  <SCORE.INTRA.POLAR>
-0.333126

>  <SCORE.INTRA.POLAR.0>
0

>  <SCORE.INTRA.REPUL>
0

>  <SCORE.INTRA.REPUL.0>
0

>  <SCORE.INTRA.SOLV>
-0.925036

>  <SCORE.INTRA.SOLV.lig_0>
-51.4104

>  <SCORE.INTRA.VDW>
-2.34598

>  <SCORE.INTRA.VDW.0>
0.110327

>  <SCORE.INTRA.norm>
-0.098037

>  <SCORE.RESTR>
4.02654

>  <SCORE.RESTR.CAVITY>
4.02654

>  <SCORE.RESTR.norm>
0.125829

>  <SCORE.SYSTEM>
0

>  <SCORE.SYSTEM.CONST>
0

>  <SCORE.SYSTEM.DIHEDRAL>
0

>  <SCORE.SYSTEM.SOLV>
0

>  <SCORE.SYSTEM.norm>
0

>  <SCORE.heavy>
32

>  <SCORE.norm>
0.144847

>  <RMSD>
15.687

$$$$
lig.pdb
 OpenBabel11021811523D
libRbt.so/2013.1/901 2013/11/27
 32 34  0  0  0  0  0  0  0  0999 V2000
    2.2385   -2.8748   -2.0689 P   0  0  0  0  0  0  0  0  0  0  0  0
    2.6397   -3.5611   -0.7859 O   0  0  0  0  0  0  0  0  0  0  0  0
    3.5573   -3.0339   -3.0005 O   0  0  0  0  0  0  0  0  0  0  0  0
    1.1477   -3.4953   -2.9057 O   0  0  0  0  0  0  0  0  0  0  0  0
    1.7553   -1.5616   -1.6881 O   0  0  0  0  0  0  0  0  0  0  0  0
    2.9073   -0.6594   -1.4549 P   0  0  1  0  0  0  0  0  0  0  0  0
    3.6918   -1.1967   -0.3184 O   0  0  0  0  0  0  0  0  0  0  0  0
    3.7694   -0.6150   -2.6588 O   0  0  0  0  0  0  0  0  0  0  0  0
    2.4110    0.7041   -1.1414 O   0  0  0  0  0  0  0  0  0  0  0  0
    1.4381    0.9685   -0.0549 P   0  0  1  0  0  0  0  0  0  0  0  0
    0.1103    0.3509   -0.2479 O   0  0  0  0  0  0  0  0  0  0  0  0
    1.9828    0.8566    1.3166 O   0  0  0  0  0  0  0  0  0  0  0  0
    1.1165    2.5437   -0.2393 O   0  0  0  0  0  0  0  0  0  0  0  0
    1.8796    3.5526    0.3951 C   0  0  0  0  0  0  0  0  0  0  0  0
    1.0580    4.8147    0.6923 C   0  0  1  0  0  0  0  0  0  0  0  0
    0.7882    5.5171   -0.5037 O   0  0  0  0  0  0  0  0  0  0  0  0
   -0.3645    4.5232    1.2013 C   0  0  1  0  0  0  0  0  0  0  0  0
   -0.4573    4.1322    2.5610 O   0  0  0  0  0  0  0  0  0  0  0  0
   -1.1172    5.8205    0.9069 C   0  0  1  0  0  0  0  0  0  0  0  0
   -1.0781    6.7212    1.9997 O   0  0  0  0  0  0  0  0  0  0  0  0
   -0.2862    6.4005   -0.2361 C   0  0  2  0  0  0  0  0  0  0  0  0
   -1.0384    6.7204   -1.4681 N   0  0  0  0  0  0  0  0  0  0  0  0
   -0.6473    7.3796   -2.6060 C   0  0  0  0  0  0  0  0  0  0  0  0
   -1.6118    7.5727   -3.4681 N   0  0  0  0  0  0  0  0  0  0  0  0
   -2.7214    6.9783   -2.8748 C   0  0  0  0  0  0  0  0  0  0  0  0
   -4.0829    6.8958   -3.3101 C   0  0  0  0  0  0  0  0  0  0  0  0
   -4.5799    7.3866   -4.3218 O   0  0  0  0  0  0  0  0  0  0  0  0
   -4.8926    6.1711   -2.4251 N   0  0  0  0  0  0  0  0  0  0  0  0
   -4.4214    5.5663   -1.2696 C   0  0  0  0  0  0  0  0  0  0  0  0
   -5.2712    4.8126   -0.5628 N   0  0  0  0  0  0  0  0  0  0  0  0
   -3.1544    5.6872   -0.8408 N   0  0  0  0  0  0  0  0  0  0  0  0
   -2.3585    6.4066   -1.6784 C   0  0  0  0  0  0  0  0  0  0  0  0
  1  2  2  0  0  0  0
  1  4  1  0  0  0  0
  1  3  1  0  0  0  0
  5  1  1  0  0  0  0
  6  7  2  1  0  0  0
  6  9  1  0  0  0  0
  6  5  1  0  0  0  0
  6  8  1  0  0  0  0
 10 11  2  6  0  0  0
 10 12  1  0  0  0  0
 10 13  1  0  0  0  0
 10  9  1  0  0  0  0
 13 14  1  0  0  0  0
 15 14  1  6  0  0  0
 15 16  1  0  0  0  0
 17 19  1  0  0  0  0
 17 15  1  0  0  0  0
 17 18  1  1  0  0  0
 19 21  1  0  0  0  0
 19 20  1  1  0  0  0
 21 16  1  0  0  0  0
 21 22  1  6  0  0  0
 22 32  1  0  0  0  0
 23 22  1  0  0  0  0
 23 24  2  0  0  0  0
 24 25  1  0  0  0  0
 25 26  1  0  0  0  0
 26 27  2  0  0  0  0
 26 28  1  0  0  0  0
 29 28  1  0  0  0  0
 29 30  1  0  0  0  0
 31 29  2  0  0  0  0
 32 25  2  0  0  0  0
 32 31  1  0  0  0  0
M  END
>  <CHROM.1>
80.07693498,54.17583370,-62.94879233,-88.86524932,-63.87487609,-150.54307924
-72.42585932,-48.60907545,-156.01252797,-64.07743271,0.14761004,2.60681459
-1.01676403,0.71356749,0.77939505,-2.45736214

>  <Name>
lig.pdb

>  <RI>
1.17715e+07

>  <Rbt.Current_Directory>
/home/itssahil/PROJECTS/Mol_Feturizer/New_Systems/rnas/5lwj

>  <Rbt.Executable>
rbdock ($Id: //depot/dev/client3/rdock/2013.1/src/exe/rbdock.cxx#4 $)

>  <Rbt.Library>
libRbt.so (2013.1, Build901 2013/11/27)

>  <Rbt.Parameter_File>
/export/apps/rDock/src/rDock_2013.1_src/data/scripts/dock_solv.prm

>  <Rbt.Receptor>
prm/blind_docking_60.prm

>  <SCORE>
-9.06789

>  <SCORE.INTER>
-7.96012

>  <SCORE.INTER.CONST>
1

>  <SCORE.INTER.POLAR>
-2.47884

>  <SCORE.INTER.ROT>
8

>  <SCORE.INTER.SOLV>
21.2174

>  <SCORE.INTER.VDW>
-13.0498

>  <SCORE.INTER.norm>
-0.248754

>  <SCORE.INTRA>
-1.32247

>  <SCORE.INTRA.DIHEDRAL>
0.835738

>  <SCORE.INTRA.DIHEDRAL.0>
10.9248

>  <SCORE.INTRA.POLAR>
0

>  <SCORE.INTRA.POLAR.0>
0

>  <SCORE.INTRA.REPUL>
0

>  <SCORE.INTRA.REPUL.0>
0

>  <SCORE.INTRA.SOLV>
0.088024

>  <SCORE.INTRA.SOLV.lig_0>
-51.4104

>  <SCORE.INTRA.VDW>
-1.78435

>  <SCORE.INTRA.VDW.0>
0.110327

>  <SCORE.INTRA.norm>
-0.0413273

>  <SCORE.RESTR>
0.214704

>  <SCORE.RESTR.CAVITY>
0.214704

>  <SCORE.RESTR.norm>
0.0067095

>  <SCORE.SYSTEM>
0

>  <SCORE.SYSTEM.CONST>
0

>  <SCORE.SYSTEM.DIHEDRAL>
0

>  <SCORE.SYSTEM.SOLV>
0

>  <SCORE.SYSTEM.norm>
0

>  <SCORE.heavy>
32

>  <SCORE.norm>
-0.283371

>  <RMSD>
15.703

$$$$
lig.pdb
 OpenBabel11021811523D
libRbt.so/2013.1/901 2013/11/27
 32 34  0  0  0  0  0  0  0  0999 V2000
   -1.0024    7.6024   -1.8227 P   0  0  0  0  0  0  0  0  0  0  0  0
   -1.1479    8.9871   -2.4052 O   0  0  0  0  0  0  0  0  0  0  0  0
   -2.0806    6.7320   -2.6668 O   0  0  0  0  0  0  0  0  0  0  0  0
    0.2916    6.8603   -2.0467 O   0  0  0  0  0  0  0  0  0  0  0  0
   -1.1353    7.7543   -0.3868 O   0  0  0  0  0  0  0  0  0  0  0  0
   -1.4819    6.4471    0.2188 P   0  0  1  0  0  0  0  0  0  0  0  0
   -1.6931    6.6526    1.6711 O   0  0  0  0  0  0  0  0  0  0  0  0
   -2.7312    5.9246   -0.3819 O   0  0  0  0  0  0  0  0  0  0  0  0
   -0.3735    5.4869   -0.0115 O   0  0  0  0  0  0  0  0  0  0  0  0
    0.3518    4.8250    1.0988 P   0  0  1  0  0  0  0  0  0  0  0  0
    1.5867    5.5117    1.5291 O   0  0  0  0  0  0  0  0  0  0  0  0
   -0.5031    4.3330    2.2021 O   0  0  0  0  0  0  0  0  0  0  0  0
    0.9279    3.4841    0.3995 O   0  0  0  0  0  0  0  0  0  0  0  0
    2.3142    3.2458    0.2444 C   0  0  0  0  0  0  0  0  0  0  0  0
    2.7371    1.8644    0.7632 C   0  0  1  0  0  0  0  0  0  0  0  0
    1.8045    0.8826    0.3599 O   0  0  0  0  0  0  0  0  0  0  0  0
    4.0331    1.3327    0.1266 C   0  0  1  0  0  0  0  0  0  0  0  0
    5.2339    1.8974    0.6260 O   0  0  0  0  0  0  0  0  0  0  0  0
    3.9477   -0.1754    0.3598 C   0  0  1  0  0  0  0  0  0  0  0  0
    4.5675   -0.5649    1.5727 O   0  0  0  0  0  0  0  0  0  0  0  0
    2.4394   -0.3766    0.4936 C   0  0  2  0  0  0  0  0  0  0  0  0
    1.8492   -1.3760   -0.4224 N   0  0  0  0  0  0  0  0  0  0  0  0
    0.6140   -1.9731   -0.4147 C   0  0  0  0  0  0  0  0  0  0  0  0
    0.4620   -2.8947   -1.3302 N   0  0  0  0  0  0  0  0  0  0  0  0
    1.6737   -2.8965   -2.0146 C   0  0  0  0  0  0  0  0  0  0  0  0
    2.1356   -3.7129   -3.0963 C   0  0  0  0  0  0  0  0  0  0  0  0
    1.5460   -4.6443   -3.6404 O   0  0  0  0  0  0  0  0  0  0  0  0
    3.4241   -3.3668   -3.5253 N   0  0  0  0  0  0  0  0  0  0  0  0
    4.1608   -2.3226   -2.9869 C   0  0  0  0  0  0  0  0  0  0  0  0
    5.3350   -2.0235   -3.5538 N   0  0  0  0  0  0  0  0  0  0  0  0
    3.7430   -1.5912   -1.9407 N   0  0  0  0  0  0  0  0  0  0  0  0
    2.5013   -1.9284   -1.4971 C   0  0  0  0  0  0  0  0  0  0  0  0
  1  2  2  0  0  0  0
  1  4  1  0  0  0  0
  1  3  1  0  0  0  0
  5  1  1  0  0  0  0
  6  7  2  1  0  0  0
  6  9  1  0  0  0  0
  6  5  1  0  0  0  0
  6  8  1  0  0  0  0
 10 11  2  1  0  0  0
 10 12  1  0  0  0  0
 10 13  1  0  0  0  0
 10  9  1  0  0  0  0
 13 14  1  0  0  0  0
 15 14  1  6  0  0  0
 15 16  1  0  0  0  0
 17 19  1  0  0  0  0
 17 15  1  0  0  0  0
 17 18  1  1  0  0  0
 19 21  1  0  0  0  0
 19 20  1  1  0  0  0
 21 16  1  0  0  0  0
 21 22  1  6  0  0  0
 22 32  1  0  0  0  0
 23 22  1  0  0  0  0
 23 24  2  0  0  0  0
 24 25  1  0  0  0  0
 25 26  1  0  0  0  0
 26 27  2  0  0  0  0
 26 28  1  0  0  0  0
 29 28  1  0  0  0  0
 29 30  1  0  0  0  0
 31 29  2  0  0  0  0
 32 25  2  0  0  0  0
 32 31  1  0  0  0  0
M  END
>  <CHROM.1>
160.17586625,120.77103723,-176.52748441,115.47647745,-93.93583960,129.11014013
43.15832718,-175.64373985,-172.98348033,-69.11564867,1.16680580,2.48829402
-0.62038468,2.19391763,-0.80525581,0.62077291

>  <Name>
lig.pdb

>  <RI>
2.72908e+07

>  <Rbt.Current_Directory>
/home/itssahil/PROJECTS/Mol_Feturizer/New_Systems/rnas/5lwj

>  <Rbt.Executable>
rbdock ($Id: //depot/dev/client3/rdock/2013.1/src/exe/rbdock.cxx#4 $)

>  <Rbt.Library>
libRbt.so (2013.1, Build901 2013/11/27)

>  <Rbt.Parameter_File>
/export/apps/rDock/src/rDock_2013.1_src/data/scripts/dock_solv.prm

>  <Rbt.Receptor>
prm/blind_docking_20.prm

>  <SCORE>
-18.2912

>  <SCORE.INTER>
-20.6994

>  <SCORE.INTER.CONST>
1

>  <SCORE.INTER.POLAR>
-0.86205

>  <SCORE.INTER.ROT>
8

>  <SCORE.INTER.SOLV>
25.1334

>  <SCORE.INTER.VDW>
-28.2372

>  <SCORE.INTER.norm>
-0.646855

>  <SCORE.INTRA>
1.94275

>  <SCORE.INTRA.DIHEDRAL>
5.9255

>  <SCORE.INTRA.DIHEDRAL.0>
10.9248

>  <SCORE.INTRA.POLAR>
0

>  <SCORE.INTRA.POLAR.0>
0

>  <SCORE.INTRA.REPUL>
0

>  <SCORE.INTRA.REPUL.0>
0

>  <SCORE.INTRA.SOLV>
-0.488831

>  <SCORE.INTRA.SOLV.lig_0>
-51.4104

>  <SCORE.INTRA.VDW>
-0.77559

>  <SCORE.INTRA.VDW.0>
0.110327

>  <SCORE.INTRA.norm>
0.0607109

>  <SCORE.RESTR>
0.465461

>  <SCORE.RESTR.CAVITY>
0.465461

>  <SCORE.RESTR.norm>
0.0145456

>  <SCORE.SYSTEM>
0

>  <SCORE.SYSTEM.CONST>
0

>  <SCORE.SYSTEM.DIHEDRAL>
0

>  <SCORE.SYSTEM.SOLV>
0

>  <SCORE.SYSTEM.norm>
0

>  <SCORE.heavy>
32

>  <SCORE.norm>
-0.571599

>  <RMSD>
15.709

$$$$
lig.pdb
 OpenBabel11021811523D
libRbt.so/2013.1/901 2013/11/27
 32 34  0  0  0  0  0  0  0  0999 V2000
   -3.9322    5.2534   -0.5059 P   0  0  0  0  0  0  0  0  0  0  0  0
   -5.4016    4.9138   -0.5631 O   0  0  0  0  0  0  0  0  0  0  0  0
   -3.2233    3.8013   -0.3602 O   0  0  0  0  0  0  0  0  0  0  0  0
   -3.2799    5.8343   -1.7356 O   0  0  0  0  0  0  0  0  0  0  0  0
   -3.7910    6.2536    0.5345 O   0  0  0  0  0  0  0  0  0  0  0  0
   -2.5109    6.0447    1.2509 P   0  0  1  0  0  0  0  0  0  0  0  0
   -2.1960    7.2816    2.0038 O   0  0  0  0  0  0  0  0  0  0  0  0
   -2.6407    4.9185    2.2046 O   0  0  0  0  0  0  0  0  0  0  0  0
   -1.4377    5.7503    0.2685 O   0  0  0  0  0  0  0  0  0  0  0  0
   -0.0348    6.1866    0.4652 P   0  0  1  0  0  0  0  0  0  0  0  0
    0.4669    7.1364   -0.5487 O   0  0  0  0  0  0  0  0  0  0  0  0
    0.3303    6.5163    1.8609 O   0  0  0  0  0  0  0  0  0  0  0  0
    0.8065    4.8458    0.1288 O   0  0  0  0  0  0  0  0  0  0  0  0
    1.2141    3.9349    1.1321 C   0  0  0  0  0  0  0  0  0  0  0  0
    1.2731    2.4870    0.6256 C   0  0  1  0  0  0  0  0  0  0  0  0
    1.8717    2.4389   -0.6533 O   0  0  0  0  0  0  0  0  0  0  0  0
    2.2179    1.5838    1.4377 C   0  0  1  0  0  0  0  0  0  0  0  0
    1.7115    1.1363    2.6841 O   0  0  0  0  0  0  0  0  0  0  0  0
    2.5207    0.4350    0.4761 C   0  0  1  0  0  0  0  0  0  0  0  0
    1.6130   -0.6422    0.6273 O   0  0  0  0  0  0  0  0  0  0  0  0
    2.2723    1.0988   -0.8771 C   0  0  2  0  0  0  0  0  0  0  0  0
    3.3966    1.0267   -1.8346 N   0  0  0  0  0  0  0  0  0  0  0  0
    4.0913    2.0240   -2.4711 C   0  0  0  0  0  0  0  0  0  0  0  0
    4.9713    1.5916   -3.3368 N   0  0  0  0  0  0  0  0  0  0  0  0
    4.8752    0.2057   -3.2550 C   0  0  0  0  0  0  0  0  0  0  0  0
    5.5521   -0.8234   -3.9849 C   0  0  0  0  0  0  0  0  0  0  0  0
    6.3635   -0.6879   -4.8984 O   0  0  0  0  0  0  0  0  0  0  0  0
    5.1885   -2.1117   -3.5700 N   0  0  0  0  0  0  0  0  0  0  0  0
    4.2968   -2.3659   -2.5388 C   0  0  0  0  0  0  0  0  0  0  0  0
    4.1128   -3.6373   -2.1656 N   0  0  0  0  0  0  0  0  0  0  0  0
    3.6283   -1.3985   -1.8899 N   0  0  0  0  0  0  0  0  0  0  0  0
    3.9537   -0.1406   -2.2954 C   0  0  0  0  0  0  0  0  0  0  0  0
  1  2  2  0  0  0  0
  1  4  1  0  0  0  0
  1  3  1  0  0  0  0
  5  1  1  0  0  0  0
  6  7  2  1  0  0  0
  6  9  1  0  0  0  0
  6  5  1  0  0  0  0
  6  8  1  0  0  0  0
 10 11  2  6  0  0  0
 10 12  1  0  0  0  0
 10 13  1  0  0  0  0
 10  9  1  0  0  0  0
 13 14  1  0  0  0  0
 15 14  1  1  0  0  0
 15 16  1  0  0  0  0
 17 19  1  0  0  0  0
 17 15  1  0  0  0  0
 17 18  1  1  0  0  0
 19 21  1  0  0  0  0
 19 20  1  1  0  0  0
 21 16  1  0  0  0  0
 21 22  1  6  0  0  0
 22 32  1  0  0  0  0
 23 22  1  0  0  0  0
 23 24  2  0  0  0  0
 24 25  1  0  0  0  0
 25 26  1  0  0  0  0
 26 27  2  0  0  0  0
 26 28  1  0  0  0  0
 29 28  1  0  0  0  0
 29 30  1  0  0  0  0
 31 29  2  0  0  0  0
 32 25  2  0  0  0  0
 32 31  1  0  0  0  0
M  END
>  <CHROM.1>
144.26579838,146.29863825,163.07697077,-94.11093830,-116.93000686,148.43437018
43.19381887,-64.80301176,-54.53422087,2.00401859,0.72481312,2.96029510,-0.50063172
2.45077635,0.46465933,-0.06848336

>  <Name>
lig.pdb

>  <RI>
1.17715e+07

>  <Rbt.Current_Directory>
/home/itssahil/PROJECTS/Mol_Feturizer/New_Systems/rnas/5lwj

>  <Rbt.Executable>
rbdock ($Id: //depot/dev/client3/rdock/2013.1/src/exe/rbdock.cxx#4 $)

>  <Rbt.Library>
libRbt.so (2013.1, Build901 2013/11/27)

>  <Rbt.Parameter_File>
/export/apps/rDock/src/rDock_2013.1_src/data/scripts/dock_solv.prm

>  <Rbt.Receptor>
prm/blind_docking_60.prm

>  <SCORE>
-27.8892

>  <SCORE.INTER>
-28.4718

>  <SCORE.INTER.CONST>
1

>  <SCORE.INTER.POLAR>
-2.08196

>  <SCORE.INTER.ROT>
8

>  <SCORE.INTER.SOLV>
25.3111

>  <SCORE.INTER.VDW>
-29.4117

>  <SCORE.INTER.norm>
-0.889745

>  <SCORE.INTRA>
-0.89053

>  <SCORE.INTRA.DIHEDRAL>
3.59145

>  <SCORE.INTRA.DIHEDRAL.0>
10.9248

>  <SCORE.INTRA.POLAR>
-0.0242086

>  <SCORE.INTRA.POLAR.0>
0

>  <SCORE.INTRA.REPUL>
0

>  <SCORE.INTRA.REPUL.0>
0

>  <SCORE.INTRA.SOLV>
-0.538319

>  <SCORE.INTRA.SOLV.lig_0>
-51.4104

>  <SCORE.INTRA.VDW>
-2.33479

>  <SCORE.INTRA.VDW.0>
0.110327

>  <SCORE.INTRA.norm>
-0.0278291

>  <SCORE.RESTR>
1.47312

>  <SCORE.RESTR.CAVITY>
1.47312

>  <SCORE.RESTR.norm>
0.0460351

>  <SCORE.SYSTEM>
0

>  <SCORE.SYSTEM.CONST>
0

>  <SCORE.SYSTEM.DIHEDRAL>
0

>  <SCORE.SYSTEM.SOLV>
0

>  <SCORE.SYSTEM.norm>
0

>  <SCORE.heavy>
32

>  <SCORE.norm>
-0.871539

>  <RMSD>
15.729

$$$$
lig.pdb
 OpenBabel11021811523D
libRbt.so/2013.1/901 2013/11/27
 32 34  0  0  0  0  0  0  0  0999 V2000
   -3.2787    6.3883   -0.6229 P   0  0  0  0  0  0  0  0  0  0  0  0
   -2.6601    7.7563   -0.7777 O   0  0  0  0  0  0  0  0  0  0  0  0
   -4.4620    6.6387    0.4586 O   0  0  0  0  0  0  0  0  0  0  0  0
   -4.0080    5.7915   -1.8007 O   0  0  0  0  0  0  0  0  0  0  0  0
   -2.1848    5.4836   -0.3270 O   0  0  0  0  0  0  0  0  0  0  0  0
   -1.8755    5.5387    1.1210 P   0  0  1  0  0  0  0  0  0  0  0  0
   -1.5758    6.9460    1.4759 O   0  0  0  0  0  0  0  0  0  0  0  0
   -3.0442    5.0805    1.9077 O   0  0  0  0  0  0  0  0  0  0  0  0
   -0.7048    4.6726    1.4092 O   0  0  0  0  0  0  0  0  0  0  0  0
    0.6682    5.0146    0.9675 P   0  0  1  0  0  0  0  0  0  0  0  0
    0.8875    4.9373   -0.4911 O   0  0  0  0  0  0  0  0  0  0  0  0
    1.2617    6.2008    1.6238 O   0  0  0  0  0  0  0  0  0  0  0  0
    1.5404    3.7661    1.5146 O   0  0  0  0  0  0  0  0  0  0  0  0
    1.4274    2.4654    0.9686 C   0  0  0  0  0  0  0  0  0  0  0  0
    2.6418    2.0769    0.1137 C   0  0  1  0  0  0  0  0  0  0  0  0
    2.8631    0.6831    0.1810 O   0  0  0  0  0  0  0  0  0  0  0  0
    2.4270    2.2783   -1.3966 C   0  0  1  0  0  0  0  0  0  0  0  0
    2.5232    3.6172   -1.8529 O   0  0  0  0  0  0  0  0  0  0  0  0
    3.4757    1.3623   -2.0271 C   0  0  1  0  0  0  0  0  0  0  0  0
    4.6982    2.0361   -2.2688 O   0  0  0  0  0  0  0  0  0  0  0  0
    3.6922    0.3383   -0.9145 C   0  0  2  0  0  0  0  0  0  0  0  0
    3.5035   -1.0745   -1.3075 N   0  0  0  0  0  0  0  0  0  0  0  0
    4.3142   -1.9162   -2.0264 C   0  0  0  0  0  0  0  0  0  0  0  0
    3.7828   -3.0855   -2.2736 N   0  0  0  0  0  0  0  0  0  0  0  0
    2.5377   -3.0302   -1.6546 C   0  0  0  0  0  0  0  0  0  0  0  0
    1.4742   -3.9876   -1.6056 C   0  0  0  0  0  0  0  0  0  0  0  0
    1.4257   -5.0861   -2.1553 O   0  0  0  0  0  0  0  0  0  0  0  0
    0.3859   -3.5509   -0.8383 N   0  0  0  0  0  0  0  0  0  0  0  0
    0.3541   -2.3379   -0.1670 C   0  0  0  0  0  0  0  0  0  0  0  0
   -0.6976   -2.0816    0.6191 N   0  0  0  0  0  0  0  0  0  0  0  0
    1.3333   -1.4230   -0.2553 N   0  0  0  0  0  0  0  0  0  0  0  0
    2.3898   -1.8224   -1.0148 C   0  0  0  0  0  0  0  0  0  0  0  0
  1  2  2  0  0  0  0
  1  4  1  0  0  0  0
  1  3  1  0  0  0  0
  5  1  1  0  0  0  0
  6  7  2  1  0  0  0
  6  9  1  0  0  0  0
  6  5  1  0  0  0  0
  6  8  1  0  0  0  0
 10 11  2  6  0  0  0
 10 12  1  0  0  0  0
 10 13  1  0  0  0  0
 10  9  1  0  0  0  0
 13 14  1  0  0  0  0
 15 14  1  1  0  0  0
 15 16  1  0  0  0  0
 17 19  1  0  0  0  0
 17 15  1  0  0  0  0
 17 18  1  1  0  0  0
 19 21  1  0  0  0  0
 19 20  1  1  0  0  0
 21 16  1  0  0  0  0
 21 22  1  6  0  0  0
 22 32  1  0  0  0  0
 23 22  1  0  0  0  0
 23 24  2  0  0  0  0
 24 25  1  0  0  0  0
 25 26  1  0  0  0  0
 26 27  2  0  0  0  0
 26 28  1  0  0  0  0
 29 28  1  0  0  0  0
 29 30  1  0  0  0  0
 31 29  2  0  0  0  0
 32 25  2  0  0  0  0
 32 31  1  0  0  0  0
M  END
>  <CHROM.1>
82.92172025,70.28329489,-56.45037429,69.44607328,-69.34558794,106.96588203
149.04281894,-160.52364220,-62.86617422,-159.74093069,0.46825433,2.42025711
-0.29816500,2.07079967,0.11532449,0.13834982

>  <Name>
lig.pdb

>  <RI>
4.14043e+07

>  <Rbt.Current_Directory>
/home/itssahil/PROJECTS/Mol_Feturizer/New_Systems/rnas/5lwj

>  <Rbt.Executable>
rbdock ($Id: //depot/dev/client3/rdock/2013.1/src/exe/rbdock.cxx#4 $)

>  <Rbt.Library>
libRbt.so (2013.1, Build901 2013/11/27)

>  <Rbt.Parameter_File>
/export/apps/rDock/src/rDock_2013.1_src/data/scripts/dock_solv.prm

>  <Rbt.Receptor>
prm/blind_docking_80.prm

>  <SCORE>
-29.9944

>  <SCORE.INTER>
-30.9407

>  <SCORE.INTER.CONST>
1

>  <SCORE.INTER.POLAR>
-1.96465

>  <SCORE.INTER.ROT>
8

>  <SCORE.INTER.SOLV>
23.1845

>  <SCORE.INTER.VDW>
-30.7398

>  <SCORE.INTER.norm>
-0.966896

>  <SCORE.INTRA>
0.705965

>  <SCORE.INTRA.DIHEDRAL>
4.08246

>  <SCORE.INTRA.DIHEDRAL.0>
10.9248

>  <SCORE.INTRA.POLAR>
0

>  <SCORE.INTRA.POLAR.0>
0

>  <SCORE.INTRA.REPUL>
0.135224

>  <SCORE.INTRA.REPUL.0>
0

>  <SCORE.INTRA.SOLV>
2.15255

>  <SCORE.INTRA.SOLV.lig_0>
-51.4104

>  <SCORE.INTRA.VDW>
-3.08766

>  <SCORE.INTRA.VDW.0>
0.110327

>  <SCORE.INTRA.norm>
0.0220614

>  <SCORE.RESTR>
0.240342

>  <SCORE.RESTR.CAVITY>
0.240342

>  <SCORE.RESTR.norm>
0.0075107

>  <SCORE.SYSTEM>
0

>  <SCORE.SYSTEM.CONST>
0

>  <SCORE.SYSTEM.DIHEDRAL>
0

>  <SCORE.SYSTEM.SOLV>
0

>  <SCORE.SYSTEM.norm>
0

>  <SCORE.heavy>
32

>  <SCORE.norm>
-0.937324

>  <RMSD>
15.730

$$$$
lig.pdb
 OpenBabel11021811523D
libRbt.so/2013.1/901 2013/11/27
 32 34  0  0  0  0  0  0  0  0999 V2000
   -0.0382    7.3016   -0.6654 P   0  0  0  0  0  0  0  0  0  0  0  0
   -1.4478    7.8049   -0.4718 O   0  0  0  0  0  0  0  0  0  0  0  0
   -0.1805    6.2777   -1.9160 O   0  0  0  0  0  0  0  0  0  0  0  0
    1.0149    8.2746   -1.1339 O   0  0  0  0  0  0  0  0  0  0  0  0
    0.4014    6.8278    0.6327 O   0  0  0  0  0  0  0  0  0  0  0  0
   -0.0943    5.4484    0.8494 P   0  0  1  0  0  0  0  0  0  0  0  0
   -0.3217    5.2624    2.3019 O   0  0  0  0  0  0  0  0  0  0  0  0
   -1.3745    5.2501    0.1308 O   0  0  0  0  0  0  0  0  0  0  0  0
    0.9147    4.4779    0.3559 O   0  0  0  0  0  0  0  0  0  0  0  0
    0.9941    3.0854    0.8575 P   0  0  1  0  0  0  0  0  0  0  0  0
    1.8533    2.9023    2.0450 O   0  0  0  0  0  0  0  0  0  0  0  0
   -0.2953    2.3606    0.9050 O   0  0  0  0  0  0  0  0  0  0  0  0
    1.8411    2.3366   -0.3004 O   0  0  0  0  0  0  0  0  0  0  0  0
    3.1286    2.7691   -0.6976 C   0  0  0  0  0  0  0  0  0  0  0  0
    3.9767    1.6333   -1.2868 C   0  0  1  0  0  0  0  0  0  0  0  0
    3.3361    0.3896   -1.0890 O   0  0  0  0  0  0  0  0  0  0  0  0
    4.0911    1.6760   -2.8207 C   0  0  1  0  0  0  0  0  0  0  0  0
    4.9992    2.6340   -3.3379 O   0  0  0  0  0  0  0  0  0  0  0  0
    4.4735    0.2419   -3.1859 C   0  0  1  0  0  0  0  0  0  0  0  0
    5.8774    0.0605   -3.2415 O   0  0  0  0  0  0  0  0  0  0  0  0
    3.9265   -0.5322   -1.9880 C   0  0  2  0  0  0  0  0  0  0  0  0
    2.9965   -1.6339   -2.3159 N   0  0  0  0  0  0  0  0  0  0  0  0
    2.9126   -2.4280   -3.4315 C   0  0  0  0  0  0  0  0  0  0  0  0
    1.8938   -3.2482   -3.4265 N   0  0  0  0  0  0  0  0  0  0  0  0
    1.2659   -3.0019   -2.2092 C   0  0  0  0  0  0  0  0  0  0  0  0
    0.0733   -3.5562   -1.6431 C   0  0  0  0  0  0  0  0  0  0  0  0
   -0.6937   -4.3699   -2.1539 O   0  0  0  0  0  0  0  0  0  0  0  0
   -0.2020   -3.0575   -0.3627 N   0  0  0  0  0  0  0  0  0  0  0  0
    0.6108   -2.1521    0.3025 C   0  0  0  0  0  0  0  0  0  0  0  0
    0.2969   -1.8333    1.5633 N   0  0  0  0  0  0  0  0  0  0  0  0
    1.7019   -1.5987   -0.2516 N   0  0  0  0  0  0  0  0  0  0  0  0
    1.9724   -2.0562   -1.5046 C   0  0  0  0  0  0  0  0  0  0  0  0
  1  2  2  0  0  0  0
  1  4  1  0  0  0  0
  1  3  1  0  0  0  0
  5  1  1  0  0  0  0
  6  7  2  1  0  0  0
  6  9  1  0  0  0  0
  6  5  1  0  0  0  0
  6  8  1  0  0  0  0
 10 11  2  1  0  0  0
 10 12  1  0  0  0  0
 10 13  1  0  0  0  0
 10  9  1  0  0  0  0
 13 14  1  0  0  0  0
 15 14  1  6  0  0  0
 15 16  1  0  0  0  0
 17 19  1  0  0  0  0
 17 15  1  0  0  0  0
 17 18  1  1  0  0  0
 19 21  1  0  0  0  0
 19 20  1  1  0  0  0
 21 16  1  0  0  0  0
 21 22  1  6  0  0  0
 22 32  1  0  0  0  0
 23 22  1  0  0  0  0
 23 24  2  0  0  0  0
 24 25  1  0  0  0  0
 25 26  1  0  0  0  0
 26 27  2  0  0  0  0
 26 28  1  0  0  0  0
 29 28  1  0  0  0  0
 29 30  1  0  0  0  0
 31 29  2  0  0  0  0
 32 25  2  0  0  0  0
 32 31  1  0  0  0  0
M  END
>  <CHROM.1>
82.81437914,156.18501371,-149.01904664,56.75636213,-88.75009676,153.93015579
-9.39680638,-91.60964873,-170.82403186,153.04450949,1.40309294,2.02638308
-0.75166903,-1.85024350,-0.62078696,-3.08242444

>  <Name>
lig.pdb

>  <RI>
4.14043e+07

>  <Rbt.Current_Directory>
/home/itssahil/PROJECTS/Mol_Feturizer/New_Systems/rnas/5lwj

>  <Rbt.Executable>
rbdock ($Id: //depot/dev/client3/rdock/2013.1/src/exe/rbdock.cxx#4 $)

>  <Rbt.Library>
libRbt.so (2013.1, Build901 2013/11/27)

>  <Rbt.Parameter_File>
/export/apps/rDock/src/rDock_2013.1_src/data/scripts/dock_solv.prm

>  <Rbt.Receptor>
prm/blind_docking_80.prm

>  <SCORE>
-23.1986

>  <SCORE.INTER>
-28.8226

>  <SCORE.INTER.CONST>
1

>  <SCORE.INTER.POLAR>
-3.29194

>  <SCORE.INTER.ROT>
8

>  <SCORE.INTER.SOLV>
28.794

>  <SCORE.INTER.VDW>
-26.7733

>  <SCORE.INTER.norm>
-0.900707

>  <SCORE.INTRA>
4.56312

>  <SCORE.INTRA.DIHEDRAL>
7.29603

>  <SCORE.INTRA.DIHEDRAL.0>
10.9248

>  <SCORE.INTRA.POLAR>
0

>  <SCORE.INTRA.POLAR.0>
0

>  <SCORE.INTRA.REPUL>
0.557591

>  <SCORE.INTRA.REPUL.0>
0

>  <SCORE.INTRA.SOLV>
-0.805551

>  <SCORE.INTRA.SOLV.lig_0>
-51.4104

>  <SCORE.INTRA.VDW>
-1.47007

>  <SCORE.INTRA.VDW.0>
0.110327

>  <SCORE.INTRA.norm>
0.142598

>  <SCORE.RESTR>
1.0609

>  <SCORE.RESTR.CAVITY>
1.0609

>  <SCORE.RESTR.norm>
0.0331532

>  <SCORE.SYSTEM>
0

>  <SCORE.SYSTEM.CONST>
0

>  <SCORE.SYSTEM.DIHEDRAL>
0

>  <SCORE.SYSTEM.SOLV>
0

>  <SCORE.SYSTEM.norm>
0

>  <SCORE.heavy>
32

>  <SCORE.norm>
-0.724956

>  <RMSD>
15.749

$$$$
lig.pdb
 OpenBabel11021811523D
libRbt.so/2013.1/901 2013/11/27
 32 34  0  0  0  0  0  0  0  0999 V2000
   -2.8445    7.4771   -1.8419 P   0  0  0  0  0  0  0  0  0  0  0  0
   -3.4467    8.8610   -1.8332 O   0  0  0  0  0  0  0  0  0  0  0  0
   -4.1399    6.5120   -1.9934 O   0  0  0  0  0  0  0  0  0  0  0  0
   -1.9776    7.0774   -3.0097 O   0  0  0  0  0  0  0  0  0  0  0  0
   -1.9974    7.4000   -0.6675 O   0  0  0  0  0  0  0  0  0  0  0  0
   -2.4806    6.3166    0.2204 P   0  0  1  0  0  0  0  0  0  0  0  0
   -3.7458    6.7644    0.8487 O   0  0  0  0  0  0  0  0  0  0  0  0
   -2.7410    5.0908   -0.5696 O   0  0  0  0  0  0  0  0  0  0  0  0
   -1.4581    6.0371    1.2597 O   0  0  0  0  0  0  0  0  0  0  0  0
   -0.0234    5.8510    0.9374 P   0  0  1  0  0  0  0  0  0  0  0  0
    0.3328    6.1039   -0.4736 O   0  0  0  0  0  0  0  0  0  0  0  0
    0.9209    6.4141    1.9279 O   0  0  0  0  0  0  0  0  0  0  0  0
    0.1647    4.2483    1.0591 O   0  0  0  0  0  0  0  0  0  0  0  0
    1.4134    3.6140    0.8563 C   0  0  0  0  0  0  0  0  0  0  0  0
    1.2690    2.1295    0.4932 C   0  0  1  0  0  0  0  0  0  0  0  0
    1.8444    1.8760   -0.7721 O   0  0  0  0  0  0  0  0  0  0  0  0
    2.0879    1.1882    1.3938 C   0  0  1  0  0  0  0  0  0  0  0  0
    1.5357    0.9374    2.6753 O   0  0  0  0  0  0  0  0  0  0  0  0
    2.2221   -0.0791    0.5498 C   0  0  1  0  0  0  0  0  0  0  0  0
    1.1766   -1.0016    0.8006 O   0  0  0  0  0  0  0  0  0  0  0  0
    2.0555    0.4783   -0.8626 C   0  0  2  0  0  0  0  0  0  0  0  0
    3.1511    0.1600   -1.8031 N   0  0  0  0  0  0  0  0  0  0  0  0
    4.1396    0.9567   -2.3232 C   0  0  0  0  0  0  0  0  0  0  0  0
    4.8908    0.3612   -3.2131 N   0  0  0  0  0  0  0  0  0  0  0  0
    4.3835   -0.9332   -3.2741 C   0  0  0  0  0  0  0  0  0  0  0  0
    4.7574   -2.0466   -4.0930 C   0  0  0  0  0  0  0  0  0  0  0  0
    5.6142   -2.0778   -4.9740 O   0  0  0  0  0  0  0  0  0  0  0  0
    4.0085   -3.1985   -3.8173 N   0  0  0  0  0  0  0  0  0  0  0  0
    3.0344   -3.2667   -2.8326 C   0  0  0  0  0  0  0  0  0  0  0  0
    2.4636   -4.4528   -2.5936 N   0  0  0  0  0  0  0  0  0  0  0  0
    2.6540   -2.2070   -2.1004 N   0  0  0  0  0  0  0  0  0  0  0  0
    3.3570   -1.0733   -2.3704 C   0  0  0  0  0  0  0  0  0  0  0  0
  1  2  2  0  0  0  0
  1  4  1  0  0  0  0
  1  3  1  0  0  0  0
  5  1  1  0  0  0  0
  6  7  2  1  0  0  0
  6  9  1  0  0  0  0
  6  5  1  0  0  0  0
  6  8  1  0  0  0  0
 10 11  2  6  0  0  0
 10 12  1  0  0  0  0
 10 13  1  0  0  0  0
 10  9  1  0  0  0  0
 13 14  1  0  0  0  0
 15 14  1  1  0  0  0
 15 16  1  0  0  0  0
 17 19  1  0  0  0  0
 17 15  1  0  0  0  0
 17 18  1  1  0  0  0
 19 21  1  0  0  0  0
 19 20  1  1  0  0  0
 21 16  1  0  0  0  0
 21 22  1  6  0  0  0
 22 32  1  0  0  0  0
 23 22  1  0  0  0  0
 23 24  2  0  0  0  0
 24 25  1  0  0  0  0
 25 26  1  0  0  0  0
 26 27  2  0  0  0  0
 26 28  1  0  0  0  0
 29 28  1  0  0  0  0
 29 30  1  0  0  0  0
 31 29  2  0  0  0  0
 32 25  2  0  0  0  0
 32 31  1  0  0  0  0
M  END
>  <CHROM.1>
119.37978852,-47.88104193,-72.09299461,-178.66832728,6.10048066,-158.06687871
120.13579288,164.77940990,-68.80818359,16.82678740,0.61617119,2.91642604
-0.87758276,2.91234970,-0.96655436,1.52595476

>  <Name>
lig.pdb

>  <RI>
3.17878e+07

>  <Rbt.Current_Directory>
/home/itssahil/PROJECTS/Mol_Feturizer/New_Systems/rnas/5lwj

>  <Rbt.Executable>
rbdock ($Id: //depot/dev/client3/rdock/2013.1/src/exe/rbdock.cxx#4 $)

>  <Rbt.Library>
libRbt.so (2013.1, Build901 2013/11/27)

>  <Rbt.Parameter_File>
/export/apps/rDock/src/rDock_2013.1_src/data/scripts/dock_solv.prm

>  <Rbt.Receptor>
prm/blind_docking_100.prm

>  <SCORE>
-27.4093

>  <SCORE.INTER>
-28.1682

>  <SCORE.INTER.CONST>
1

>  <SCORE.INTER.POLAR>
-1.56905

>  <SCORE.INTER.ROT>
8

>  <SCORE.INTER.SOLV>
23.1404

>  <SCORE.INTER.VDW>
-30.1954

>  <SCORE.INTER.norm>
-0.880255

>  <SCORE.INTRA>
0.691018

>  <SCORE.INTRA.DIHEDRAL>
5.2628

>  <SCORE.INTRA.DIHEDRAL.0>
10.9248

>  <SCORE.INTRA.POLAR>
0

>  <SCORE.INTRA.POLAR.0>
0

>  <SCORE.INTRA.REPUL>
0

>  <SCORE.INTRA.REPUL.0>
0

>  <SCORE.INTRA.SOLV>
-0.0874267

>  <SCORE.INTRA.SOLV.lig_0>
-51.4104

>  <SCORE.INTRA.VDW>
-1.89667

>  <SCORE.INTRA.VDW.0>
0.110327

>  <SCORE.INTRA.norm>
0.0215943

>  <SCORE.RESTR>
0.0678972

>  <SCORE.RESTR.CAVITY>
0.0678972

>  <SCORE.RESTR.norm>
0.00212179

>  <SCORE.SYSTEM>
0

>  <SCORE.SYSTEM.CONST>
0

>  <SCORE.SYSTEM.DIHEDRAL>
0

>  <SCORE.SYSTEM.SOLV>
0

>  <SCORE.SYSTEM.norm>
0

>  <SCORE.heavy>
32

>  <SCORE.norm>
-0.856539

>  <RMSD>
15.754

$$$$
lig.pdb
 OpenBabel11021811523D
libRbt.so/2013.1/901 2013/11/27
 32 34  0  0  0  0  0  0  0  0999 V2000
   -4.4267    6.3166    0.9226 P   0  0  0  0  0  0  0  0  0  0  0  0
   -4.5970    4.9411    0.3251 O   0  0  0  0  0  0  0  0  0  0  0  0
   -4.8132    7.3031   -0.3063 O   0  0  0  0  0  0  0  0  0  0  0  0
   -5.3689    6.7460    2.0194 O   0  0  0  0  0  0  0  0  0  0  0  0
   -3.0975    6.3416    1.5017 O   0  0  0  0  0  0  0  0  0  0  0  0
   -2.1107    5.8861    0.4946 P   0  0  1  0  0  0  0  0  0  0  0  0
   -2.1593    4.4061    0.4371 O   0  0  0  0  0  0  0  0  0  0  0  0
   -2.4560    6.4329   -0.8382 O   0  0  0  0  0  0  0  0  0  0  0  0
   -0.7549    6.3436    0.8898 O   0  0  0  0  0  0  0  0  0  0  0  0
    0.3590    5.4021    1.1540 P   0  0  1  0  0  0  0  0  0  0  0  0
    1.6101    6.0362    1.6172 O   0  0  0  0  0  0  0  0  0  0  0  0
   -0.0196    4.1695    1.8803 O   0  0  0  0  0  0  0  0  0  0  0  0
    0.7577    4.8953   -0.3303 O   0  0  0  0  0  0  0  0  0  0  0  0
    1.6812    3.8460   -0.5505 C   0  0  0  0  0  0  0  0  0  0  0  0
    1.4227    2.6330    0.3542 C   0  0  1  0  0  0  0  0  0  0  0  0
    1.0287    1.5188   -0.4203 O   0  0  0  0  0  0  0  0  0  0  0  0
    2.6879    2.0924    1.0433 C   0  0  1  0  0  0  0  0  0  0  0  0
    3.1404    2.8397    2.1599 O   0  0  0  0  0  0  0  0  0  0  0  0
    2.3053    0.6582    1.4079 C   0  0  1  0  0  0  0  0  0  0  0  0
    1.7472    0.5674    2.7068 O   0  0  0  0  0  0  0  0  0  0  0  0
    1.2110    0.3663    0.3828 C   0  0  2  0  0  0  0  0  0  0  0  0
    1.4244   -0.8386   -0.4470 N   0  0  0  0  0  0  0  0  0  0  0  0
    2.3793   -1.1120   -1.3934 C   0  0  0  0  0  0  0  0  0  0  0  0
    2.2080   -2.2533   -2.0090 N   0  0  0  0  0  0  0  0  0  0  0  0
    1.0713   -2.7925   -1.4142 C   0  0  0  0  0  0  0  0  0  0  0  0
    0.3600   -4.0052   -1.6849 C   0  0  0  0  0  0  0  0  0  0  0  0
    0.5953   -4.8355   -2.5604 O   0  0  0  0  0  0  0  0  0  0  0  0
   -0.7299   -4.1983   -0.8254 N   0  0  0  0  0  0  0  0  0  0  0  0
   -1.0645   -3.3286    0.2017 C   0  0  0  0  0  0  0  0  0  0  0  0
   -2.0629   -3.6775    1.0209 N   0  0  0  0  0  0  0  0  0  0  0  0
   -0.4238   -2.1687    0.4207 N   0  0  0  0  0  0  0  0  0  0  0  0
    0.6253   -1.9548   -0.4196 C   0  0  0  0  0  0  0  0  0  0  0  0
  1  2  2  0  0  0  0
  1  4  1  0  0  0  0
  1  3  1  0  0  0  0
  5  1  1  0  0  0  0
  6  7  2  6  0  0  0
  6  9  1  0  0  0  0
  6  5  1  0  0  0  0
  6  8  1  0  0  0  0
 10 11  2  1  0  0  0
 10 12  1  0  0  0  0
 10 13  1  0  0  0  0
 10  9  1  0  0  0  0
 13 14  1  0  0  0  0
 15 14  1  6  0  0  0
 15 16  1  0  0  0  0
 17 19  1  0  0  0  0
 17 15  1  0  0  0  0
 17 18  1  1  0  0  0
 19 21  1  0  0  0  0
 19 20  1  1  0  0  0
 21 16  1  0  0  0  0
 21 22  1  6  0  0  0
 22 32  1  0  0  0  0
 23 22  1  0  0  0  0
 23 24  2  0  0  0  0
 24 25  1  0  0  0  0
 25 26  1  0  0  0  0
 26 27  2  0  0  0  0
 26 28  1  0  0  0  0
 29 28  1  0  0  0  0
 29 30  1  0  0  0  0
 31 29  2  0  0  0  0
 32 25  2  0  0  0  0
 32 31  1  0  0  0  0
M  END
>  <CHROM.1>
51.27862435,119.84928445,-79.27210369,-171.99042762,-176.34005061,46.11074487
114.18039394,-51.45601268,172.77554053,57.94647601,-0.48441286,2.39715447
0.34950791,1.93951964,-0.10649396,0.20073003

>  <Name>
lig.pdb

>  <RI>
2.72908e+07

>  <Rbt.Current_Directory>
/home/itssahil/PROJECTS/Mol_Feturizer/New_Systems/rnas/5lwj

>  <Rbt.Executable>
rbdock ($Id: //depot/dev/client3/rdock/2013.1/src/exe/rbdock.cxx#4 $)

>  <Rbt.Library>
libRbt.so (2013.1, Build901 2013/11/27)

>  <Rbt.Parameter_File>
/export/apps/rDock/src/rDock_2013.1_src/data/scripts/dock_solv.prm

>  <Rbt.Receptor>
prm/blind_docking_20.prm

>  <SCORE>
12.4002

>  <SCORE.INTER>
4.67407

>  <SCORE.INTER.CONST>
1

>  <SCORE.INTER.POLAR>
-3.6473

>  <SCORE.INTER.ROT>
8

>  <SCORE.INTER.SOLV>
29.6187

>  <SCORE.INTER.VDW>
-3.5325

>  <SCORE.INTER.norm>
0.146065

>  <SCORE.INTRA>
1.77015

>  <SCORE.INTRA.DIHEDRAL>
1.74641

>  <SCORE.INTRA.DIHEDRAL.0>
10.9248

>  <SCORE.INTRA.POLAR>
0

>  <SCORE.INTRA.POLAR.0>
0

>  <SCORE.INTRA.REPUL>
0

>  <SCORE.INTRA.REPUL.0>
0

>  <SCORE.INTRA.SOLV>
0.758638

>  <SCORE.INTRA.SOLV.lig_0>
-51.4104

>  <SCORE.INTRA.VDW>
0.517627

>  <SCORE.INTRA.VDW.0>
0.110327

>  <SCORE.INTRA.norm>
0.0553172

>  <SCORE.RESTR>
5.95597

>  <SCORE.RESTR.CAVITY>
5.95597

>  <SCORE.RESTR.norm>
0.186124

>  <SCORE.SYSTEM>
0

>  <SCORE.SYSTEM.CONST>
0

>  <SCORE.SYSTEM.DIHEDRAL>
0

>  <SCORE.SYSTEM.SOLV>
0

>  <SCORE.SYSTEM.norm>
0

>  <SCORE.heavy>
32

>  <SCORE.norm>
0.387506

>  <RMSD>
15.775

$$$$
lig.pdb
 OpenBabel11021811523D
libRbt.so/2013.1/901 2013/11/27
 32 34  0  0  0  0  0  0  0  0999 V2000
   -4.9927    6.0767    0.4123 P   0  0  0  0  0  0  0  0  0  0  0  0
   -4.9478    7.3120   -0.4538 O   0  0  0  0  0  0  0  0  0  0  0  0
   -5.3047    6.6726    1.8889 O   0  0  0  0  0  0  0  0  0  0  0  0
   -6.1104    5.0872    0.1961 O   0  0  0  0  0  0  0  0  0  0  0  0
   -3.7618    5.3567    0.1497 O   0  0  0  0  0  0  0  0  0  0  0  0
   -2.6514    5.9838    0.9042 P   0  0  1  0  0  0  0  0  0  0  0  0
   -2.5783    7.4121    0.5160 O   0  0  0  0  0  0  0  0  0  0  0  0
   -2.9109    5.8916    2.3598 O   0  0  0  0  0  0  0  0  0  0  0  0
   -1.3791    5.2932    0.5756 O   0  0  0  0  0  0  0  0  0  0  0  0
   -0.0703    5.9888    0.5783 P   0  0  1  0  0  0  0  0  0  0  0  0
    0.1128    6.9696   -0.5109 O   0  0  0  0  0  0  0  0  0  0  0  0
    0.3978    6.4407    1.9075 O   0  0  0  0  0  0  0  0  0  0  0  0
    0.9598    4.8127    0.1607 O   0  0  0  0  0  0  0  0  0  0  0  0
    1.3589    3.7986    1.0635 C   0  0  0  0  0  0  0  0  0  0  0  0
    1.3155    2.3987    0.4351 C   0  0  1  0  0  0  0  0  0  0  0  0
    1.9935    2.3966   -0.8046 O   0  0  0  0  0  0  0  0  0  0  0  0
    2.1126    1.3417    1.2195 C   0  0  1  0  0  0  0  0  0  0  0  0
    1.4816    0.8460    2.3883 O   0  0  0  0  0  0  0  0  0  0  0  0
    2.3709    0.2516    0.1797 C   0  0  1  0  0  0  0  0  0  0  0  0
    1.3572   -0.7382    0.1796 O   0  0  0  0  0  0  0  0  0  0  0  0
    2.2801    1.0461   -1.1217 C   0  0  2  0  0  0  0  0  0  0  0  0
    3.4558    0.9411   -2.0121 N   0  0  0  0  0  0  0  0  0  0  0  0
    4.2194    1.9176   -2.6001 C   0  0  0  0  0  0  0  0  0  0  0  0
    5.1340    1.4602   -3.4156 N   0  0  0  0  0  0  0  0  0  0  0  0
    4.9874    0.0779   -3.3489 C   0  0  0  0  0  0  0  0  0  0  0  0
    5.6716   -0.9698   -4.0447 C   0  0  0  0  0  0  0  0  0  0  0  0
    6.5394   -0.8571   -4.9082 O   0  0  0  0  0  0  0  0  0  0  0  0
    5.2418   -2.2471   -3.6606 N   0  0  0  0  0  0  0  0  0  0  0  0
    4.2831   -2.4763   -2.6852 C   0  0  0  0  0  0  0  0  0  0  0  0
    4.0354   -3.7426   -2.3320 N   0  0  0  0  0  0  0  0  0  0  0  0
    3.6099   -1.4902   -2.0701 N   0  0  0  0  0  0  0  0  0  0  0  0
    4.0001   -0.2420   -2.4473 C   0  0  0  0  0  0  0  0  0  0  0  0
  1  2  2  0  0  0  0
  1  4  1  0  0  0  0
  1  3  1  0  0  0  0
  5  1  1  0  0  0  0
  6  7  2  6  0  0  0
  6  9  1  0  0  0  0
  6  5  1  0  0  0  0
  6  8  1  0  0  0  0
 10 11  2  6  0  0  0
 10 12  1  0  0  0  0
 10 13  1  0  0  0  0
 10  9  1  0  0  0  0
 13 14  1  0  0  0  0
 15 14  1  1  0  0  0
 15 16  1  0  0  0  0
 17 19  1  0  0  0  0
 17 15  1  0  0  0  0
 17 18  1  1  0  0  0
 19 21  1  0  0  0  0
 19 20  1  6  0  0  0
 21 16  1  0  0  0  0
 21 22  1  1  0  0  0
 22 32  1  0  0  0  0
 23 22  1  0  0  0  0
 23 24  2  0  0  0  0
 24 25  1  0  0  0  0
 25 26  1  0  0  0  0
 26 27  2  0  0  0  0
 26 28  1  0  0  0  0
 29 28  1  0  0  0  0
 29 30  1  0  0  0  0
 31 29  2  0  0  0  0
 32 25  2  0  0  0  0
 32 31  1  0  0  0  0
M  END
>  <CHROM.1>
79.24275511,149.13232779,-56.58942856,-75.64070093,-69.70944482,134.31195558
49.98647686,177.19061143,53.90535352,-3.89236905,0.49774093,3.04923139,-0.45801492
2.44867218,0.40578639,0.00049591

>  <Name>
lig.pdb

>  <RI>
1.17715e+07

>  <Rbt.Current_Directory>
/home/itssahil/PROJECTS/Mol_Feturizer/New_Systems/rnas/5lwj

>  <Rbt.Executable>
rbdock ($Id: //depot/dev/client3/rdock/2013.1/src/exe/rbdock.cxx#4 $)

>  <Rbt.Library>
libRbt.so (2013.1, Build901 2013/11/27)

>  <Rbt.Parameter_File>
/export/apps/rDock/src/rDock_2013.1_src/data/scripts/dock_solv.prm

>  <Rbt.Receptor>
prm/blind_docking_60.prm

>  <SCORE>
-33.5693

>  <SCORE.INTER>
-33.2443

>  <SCORE.INTER.CONST>
1

>  <SCORE.INTER.POLAR>
-2.45195

>  <SCORE.INTER.ROT>
8

>  <SCORE.INTER.SOLV>
23.853

>  <SCORE.INTER.VDW>
-30.8741

>  <SCORE.INTER.norm>
-1.03889

>  <SCORE.INTRA>
-1.75228

>  <SCORE.INTRA.DIHEDRAL>
1.038

>  <SCORE.INTRA.DIHEDRAL.0>
10.9248

>  <SCORE.INTRA.POLAR>
0

>  <SCORE.INTRA.POLAR.0>
0

>  <SCORE.INTRA.REPUL>
0

>  <SCORE.INTRA.REPUL.0>
0

>  <SCORE.INTRA.SOLV>
-0.436215

>  <SCORE.INTRA.SOLV.lig_0>
-51.4104

>  <SCORE.INTRA.VDW>
-2.05317

>  <SCORE.INTRA.VDW.0>
0.110327

>  <SCORE.INTRA.norm>
-0.0547586

>  <SCORE.RESTR>
1.42728

>  <SCORE.RESTR.CAVITY>
1.42728

>  <SCORE.RESTR.norm>
0.0446025

>  <SCORE.SYSTEM>
0

>  <SCORE.SYSTEM.CONST>
0

>  <SCORE.SYSTEM.DIHEDRAL>
0

>  <SCORE.SYSTEM.SOLV>
0

>  <SCORE.SYSTEM.norm>
0

>  <SCORE.heavy>
32

>  <SCORE.norm>
-1.04904

>  <RMSD>
15.779

$$$$
lig.pdb
 OpenBabel11021811523D
libRbt.so/2013.1/901 2013/11/27
 32 34  0  0  0  0  0  0  0  0999 V2000
   -4.0425    6.2282   -1.1187 P   0  0  0  0  0  0  0  0  0  0  0  0
   -4.6850    7.5924   -1.0534 O   0  0  0  0  0  0  0  0  0  0  0  0
   -5.1017    5.3631   -1.9918 O   0  0  0  0  0  0  0  0  0  0  0  0
   -2.7545    6.0760   -1.8887 O   0  0  0  0  0  0  0  0  0  0  0  0
   -3.7380    5.8613    0.2507 O   0  0  0  0  0  0  0  0  0  0  0  0
   -2.4606    6.4914    0.6591 P   0  0  1  0  0  0  0  0  0  0  0  0
   -2.3429    7.7921   -0.0411 O   0  0  0  0  0  0  0  0  0  0  0  0
   -2.4558    6.7279    2.1215 O   0  0  0  0  0  0  0  0  0  0  0  0
   -1.3310    5.6018    0.2900 O   0  0  0  0  0  0  0  0  0  0  0  0
    0.0857    5.9795    0.5075 P   0  0  1  0  0  0  0  0  0  0  0  0
    0.5946    7.0267   -0.4014 O   0  0  0  0  0  0  0  0  0  0  0  0
    0.4826    6.1388    1.9242 O   0  0  0  0  0  0  0  0  0  0  0  0
    0.8864    4.6664    0.0042 O   0  0  0  0  0  0  0  0  0  0  0  0
    1.5312    3.7817    0.9010 C   0  0  0  0  0  0  0  0  0  0  0  0
    1.3210    2.3074    0.5287 C   0  0  1  0  0  0  0  0  0  0  0  0
    1.9033    2.0313   -0.7287 O   0  0  0  0  0  0  0  0  0  0  0  0
    2.0790    1.3239    1.4375 C   0  0  1  0  0  0  0  0  0  0  0  0
    1.4951    1.0951    2.7090 O   0  0  0  0  0  0  0  0  0  0  0  0
    2.1650    0.0550    0.5897 C   0  0  1  0  0  0  0  0  0  0  0  0
    1.0723   -0.8168    0.8197 O   0  0  0  0  0  0  0  0  0  0  0  0
    2.0480    0.6253   -0.8225 C   0  0  2  0  0  0  0  0  0  0  0  0
    3.1416    0.2582   -1.7473 N   0  0  0  0  0  0  0  0  0  0  0  0
    4.1877    1.0022   -2.2315 C   0  0  0  0  0  0  0  0  0  0  0  0
    4.9197    0.3786   -3.1182 N   0  0  0  0  0  0  0  0  0  0  0  0
    4.3357   -0.8808   -3.2152 C   0  0  0  0  0  0  0  0  0  0  0  0
    4.6580   -1.9995   -4.0487 C   0  0  0  0  0  0  0  0  0  0  0  0
    5.5296   -2.0667   -4.9130 O   0  0  0  0  0  0  0  0  0  0  0  0
    3.8345   -3.1082   -3.8111 N   0  0  0  0  0  0  0  0  0  0  0  0
    2.8376   -3.1349   -2.8475 C   0  0  0  0  0  0  0  0  0  0  0  0
    2.1906   -4.2880   -2.6438 N   0  0  0  0  0  0  0  0  0  0  0  0
    2.5073   -2.0678   -2.1019 N   0  0  0  0  0  0  0  0  0  0  0  0
    3.2838   -0.9745   -2.3351 C   0  0  0  0  0  0  0  0  0  0  0  0
  1  2  2  0  0  0  0
  1  4  1  0  0  0  0
  1  3  1  0  0  0  0
  5  1  1  0  0  0  0
  6  7  2  6  0  0  0
  6  9  1  0  0  0  0
  6  5  1  0  0  0  0
  6  8  1  0  0  0  0
 10 11  2  6  0  0  0
 10 12  1  0  0  0  0
 10 13  1  0  0  0  0
 10  9  1  0  0  0  0
 13 14  1  0  0  0  0
 15 14  1  1  0  0  0
 15 16  1  0  0  0  0
 17 19  1  0  0  0  0
 17 15  1  0  0  0  0
 17 18  1  1  0  0  0
 19 21  1  0  0  0  0
 19 20  1  1  0  0  0
 21 16  1  0  0  0  0
 21 22  1  6  0  0  0
 22 32  1  0  0  0  0
 23 22  1  0  0  0  0
 23 24  2  0  0  0  0
 24 25  1  0  0  0  0
 25 26  1  0  0  0  0
 26 27  2  0  0  0  0
 26 28  1  0  0  0  0
 29 28  1  0  0  0  0
 29 30  1  0  0  0  0
 31 29  2  0  0  0  0
 32 25  2  0  0  0  0
 32 31  1  0  0  0  0
M  END
>  <CHROM.1>
-82.26849046,177.00173738,32.48633520,-107.74373168,-72.06640744,138.19254142
63.42546631,164.90310673,-175.40676655,17.99684188,0.45131299,2.86702936
-0.73656304,2.38004555,-0.62008373,0.84433125

>  <Name>
lig.pdb

>  <RI>
1.2169e+07

>  <Rbt.Current_Directory>
/home/itssahil/PROJECTS/Mol_Feturizer/New_Systems/rnas/5lwj

>  <Rbt.Executable>
rbdock ($Id: //depot/dev/client3/rdock/2013.1/src/exe/rbdock.cxx#4 $)

>  <Rbt.Library>
libRbt.so (2013.1, Build901 2013/11/27)

>  <Rbt.Parameter_File>
/export/apps/rDock/src/rDock_2013.1_src/data/scripts/dock_solv.prm

>  <Rbt.Receptor>
prm/blind_docking_40.prm

>  <SCORE>
-19.6854

>  <SCORE.INTER>
-22.3125

>  <SCORE.INTER.CONST>
1

>  <SCORE.INTER.POLAR>
-0.987629

>  <SCORE.INTER.ROT>
8

>  <SCORE.INTER.SOLV>
22.7863

>  <SCORE.INTER.VDW>
-28.1117

>  <SCORE.INTER.norm>
-0.697264

>  <SCORE.INTRA>
2.55792

>  <SCORE.INTRA.DIHEDRAL>
2.52651

>  <SCORE.INTRA.DIHEDRAL.0>
10.9248

>  <SCORE.INTRA.POLAR>
0

>  <SCORE.INTRA.POLAR.0>
0

>  <SCORE.INTRA.REPUL>
0

>  <SCORE.INTRA.REPUL.0>
0

>  <SCORE.INTRA.SOLV>
-0.0428594

>  <SCORE.INTRA.SOLV.lig_0>
-51.4104

>  <SCORE.INTRA.VDW>
1.3161

>  <SCORE.INTRA.VDW.0>
0.110327

>  <SCORE.INTRA.norm>
0.0799352

>  <SCORE.RESTR>
0.0691214

>  <SCORE.RESTR.CAVITY>
0.0691214

>  <SCORE.RESTR.norm>
0.00216004

>  <SCORE.SYSTEM>
0

>  <SCORE.SYSTEM.CONST>
0

>  <SCORE.SYSTEM.DIHEDRAL>
0

>  <SCORE.SYSTEM.SOLV>
0

>  <SCORE.SYSTEM.norm>
0

>  <SCORE.heavy>
32

>  <SCORE.norm>
-0.615169

>  <RMSD>
15.820

$$$$
lig.pdb
 OpenBabel11021811523D
libRbt.so/2013.1/901 2013/11/27
 32 34  0  0  0  0  0  0  0  0999 V2000
   -2.4001    7.3427   -1.7612 P   0  0  0  0  0  0  0  0  0  0  0  0
   -2.5939    6.9002   -3.1911 O   0  0  0  0  0  0  0  0  0  0  0  0
   -1.6744    8.7855   -1.9167 O   0  0  0  0  0  0  0  0  0  0  0  0
   -3.6214    7.6578   -0.9341 O   0  0  0  0  0  0  0  0  0  0  0  0
   -1.7308    6.2463   -1.0884 O   0  0  0  0  0  0  0  0  0  0  0  0
   -0.2859    6.5504   -0.9643 P   0  0  1  0  0  0  0  0  0  0  0  0
    0.2225    6.9301   -2.3034 O   0  0  0  0  0  0  0  0  0  0  0  0
   -0.0838    7.6835   -0.0317 O   0  0  0  0  0  0  0  0  0  0  0  0
    0.4296    5.3511   -0.4608 O   0  0  0  0  0  0  0  0  0  0  0  0
    0.5805    5.0609    0.9848 P   0  0  1  0  0  0  0  0  0  0  0  0
    1.5292    5.9403    1.6979 O   0  0  0  0  0  0  0  0  0  0  0  0
   -0.6833    4.7940    1.7069 O   0  0  0  0  0  0  0  0  0  0  0  0
    1.3583    3.6419    0.9846 O   0  0  0  0  0  0  0  0  0  0  0  0
    0.6911    2.4117    0.7742 C   0  0  0  0  0  0  0  0  0  0  0  0
    1.6202    1.2009    0.9389 C   0  0  1  0  0  0  0  0  0  0  0  0
    1.0651    0.0670    0.3047 O   0  0  0  0  0  0  0  0  0  0  0  0
    2.9594    1.3409    0.1941 C   0  0  1  0  0  0  0  0  0  0  0  0
    3.9207    2.1745    0.8196 O   0  0  0  0  0  0  0  0  0  0  0  0
    3.4353   -0.1044    0.0496 C   0  0  1  0  0  0  0  0  0  0  0  0
    4.2568   -0.5076    1.1312 O   0  0  0  0  0  0  0  0  0  0  0  0
    2.1144   -0.8677    0.1265 C   0  0  2  0  0  0  0  0  0  0  0  0
    1.8392   -1.7748   -1.0082 N   0  0  0  0  0  0  0  0  0  0  0  0
    0.7837   -2.6206   -1.2381 C   0  0  0  0  0  0  0  0  0  0  0  0
    0.9146   -3.3565   -2.3115 N   0  0  0  0  0  0  0  0  0  0  0  0
    2.1334   -2.9561   -2.8510 C   0  0  0  0  0  0  0  0  0  0  0  0
    2.8449   -3.4228   -4.0024 C   0  0  0  0  0  0  0  0  0  0  0  0
    2.5301   -4.3374   -4.7612 O   0  0  0  0  0  0  0  0  0  0  0  0
    4.0388   -2.7229   -4.2229 N   0  0  0  0  0  0  0  0  0  0  0  0
    4.4696   -1.6669   -3.4341 C   0  0  0  0  0  0  0  0  0  0  0  0
    5.5729   -1.0103   -3.8100 N   0  0  0  0  0  0  0  0  0  0  0  0
    3.8234   -1.2646   -2.3275 N   0  0  0  0  0  0  0  0  0  0  0  0
    2.6717   -1.9485   -2.0861 C   0  0  0  0  0  0  0  0  0  0  0  0
  1  2  2  0  0  0  0
  1  4  1  0  0  0  0
  1  3  1  0  0  0  0
  5  1  1  0  0  0  0
  6  7  2  6  0  0  0
  6  9  1  0  0  0  0
  6  5  1  0  0  0  0
  6  8  1  0  0  0  0
 10 11  2  1  0  0  0
 10 12  1  0  0  0  0
 10 13  1  0  0  0  0
 10  9  1  0  0  0  0
 13 14  1  0  0  0  0
 15 14  1  6  0  0  0
 15 16  1  0  0  0  0
 17 19  1  0  0  0  0
 17 15  1  0  0  0  0
 17 18  1  1  0  0  0
 19 21  1  0  0  0  0
 19 20  1  1  0  0  0
 21 16  1  0  0  0  0
 21 22  1  6  0  0  0
 22 32  1  0  0  0  0
 23 22  1  0  0  0  0
 23 24  2  0  0  0  0
 24 25  1  0  0  0  0
 25 26  1  0  0  0  0
 26 27  2  0  0  0  0
 26 28  1  0  0  0  0
 29 28  1  0  0  0  0
 29 30  1  0  0  0  0
 31 29  2  0  0  0  0
 32 25  2  0  0  0  0
 32 31  1  0  0  0  0
M  END
>  <CHROM.1>
100.96167227,-87.24747953,-51.41544366,-80.14282937,-72.23144645,-175.08812846
-160.51995452,-52.95286617,-42.08639714,-57.70018949,1.08406469,2.55263305
-1.00490977,2.33239444,-0.91786727,0.81064528

>  <Name>
lig.pdb

>  <RI>
2.72908e+07

>  <Rbt.Current_Directory>
/home/itssahil/PROJECTS/Mol_Feturizer/New_Systems/rnas/5lwj

>  <Rbt.Executable>
rbdock ($Id: //depot/dev/client3/rdock/2013.1/src/exe/rbdock.cxx#4 $)

>  <Rbt.Library>
libRbt.so (2013.1, Build901 2013/11/27)

>  <Rbt.Parameter_File>
/export/apps/rDock/src/rDock_2013.1_src/data/scripts/dock_solv.prm

>  <Rbt.Receptor>
prm/blind_docking_20.prm

>  <SCORE>
-28.5891

>  <SCORE.INTER>
-25.251

>  <SCORE.INTER.CONST>
1

>  <SCORE.INTER.POLAR>
-1.44891

>  <SCORE.INTER.ROT>
8

>  <SCORE.INTER.SOLV>
25.1692

>  <SCORE.INTER.VDW>
-29.3273

>  <SCORE.INTER.norm>
-0.789093

>  <SCORE.INTRA>
-4.59476

>  <SCORE.INTRA.DIHEDRAL>
-1.38955

>  <SCORE.INTRA.DIHEDRAL.0>
10.9248

>  <SCORE.INTRA.POLAR>
-0.598816

>  <SCORE.INTRA.POLAR.0>
0

>  <SCORE.INTRA.REPUL>
0

>  <SCORE.INTRA.REPUL.0>
0

>  <SCORE.INTRA.SOLV>
-0.595327

>  <SCORE.INTRA.SOLV.lig_0>
-51.4104

>  <SCORE.INTRA.VDW>
-1.56634

>  <SCORE.INTRA.VDW.0>
0.110327

>  <SCORE.INTRA.norm>
-0.143586

>  <SCORE.RESTR>
1.25662

>  <SCORE.RESTR.CAVITY>
1.25662

>  <SCORE.RESTR.norm>
0.0392694

>  <SCORE.SYSTEM>
0

>  <SCORE.SYSTEM.CONST>
0

>  <SCORE.SYSTEM.DIHEDRAL>
0

>  <SCORE.SYSTEM.SOLV>
0

>  <SCORE.SYSTEM.norm>
0

>  <SCORE.heavy>
32

>  <SCORE.norm>
-0.893409

>  <RMSD>
15.831

$$$$
lig.pdb
 OpenBabel11021811523D
libRbt.so/2013.1/901 2013/11/27
 32 34  0  0  0  0  0  0  0  0999 V2000
   -4.2066    5.9999    0.5050 P   0  0  0  0  0  0  0  0  0  0  0  0
   -3.6107    5.2363    1.6625 O   0  0  0  0  0  0  0  0  0  0  0  0
   -4.3940    4.8583   -0.6327 O   0  0  0  0  0  0  0  0  0  0  0  0
   -5.5958    6.5674    0.6568 O   0  0  0  0  0  0  0  0  0  0  0  0
   -3.3316    7.1339    0.2785 O   0  0  0  0  0  0  0  0  0  0  0  0
   -2.2428    6.7414   -0.6467 P   0  0  1  0  0  0  0  0  0  0  0  0
   -2.8385    6.4894   -1.9800 O   0  0  0  0  0  0  0  0  0  0  0  0
   -1.2525    7.8373   -0.7593 O   0  0  0  0  0  0  0  0  0  0  0  0
   -1.5797    5.5150   -0.1368 O   0  0  0  0  0  0  0  0  0  0  0  0
   -0.5431    5.5504    0.9219 P   0  0  1  0  0  0  0  0  0  0  0  0
   -0.0058    6.8938    1.2189 O   0  0  0  0  0  0  0  0  0  0  0  0
   -0.8322    4.7191    2.1117 O   0  0  0  0  0  0  0  0  0  0  0  0
    0.7167    4.8237    0.2123 O   0  0  0  0  0  0  0  0  0  0  0  0
    1.5864    3.9565    0.9155 C   0  0  0  0  0  0  0  0  0  0  0  0
    1.2357    2.4761    0.7109 C   0  0  1  0  0  0  0  0  0  0  0  0
    1.6128    2.0574   -0.5848 O   0  0  0  0  0  0  0  0  0  0  0  0
    2.0559    1.5170    1.5912 C   0  0  1  0  0  0  0  0  0  0  0  0
    1.6487    1.4350    2.9468 O   0  0  0  0  0  0  0  0  0  0  0  0
    1.9417    0.1807    0.8581 C   0  0  1  0  0  0  0  0  0  0  0  0
    0.8428   -0.5878    1.3151 O   0  0  0  0  0  0  0  0  0  0  0  0
    1.6570    0.6417   -0.5701 C   0  0  2  0  0  0  0  0  0  0  0  0
    2.5816    0.1222   -1.6004 N   0  0  0  0  0  0  0  0  0  0  0  0
    3.6396    0.7234   -2.2339 C   0  0  0  0  0  0  0  0  0  0  0  0
    4.1829   -0.0067   -3.1734 N   0  0  0  0  0  0  0  0  0  0  0  0
    3.4512   -1.1903   -3.1492 C   0  0  0  0  0  0  0  0  0  0  0  0
    3.5403   -2.3617   -3.9676 C   0  0  0  0  0  0  0  0  0  0  0  0
    4.2876   -2.5555   -4.9243 O   0  0  0  0  0  0  0  0  0  0  0  0
    2.6301   -3.3581   -3.5897 N   0  0  0  0  0  0  0  0  0  0  0  0
    1.7606   -3.2399   -2.5159 C   0  0  0  0  0  0  0  0  0  0  0  0
    1.0153   -4.3021   -2.1904 N   0  0  0  0  0  0  0  0  0  0  0  0
    1.6471   -2.1210   -1.7817 N   0  0  0  0  0  0  0  0  0  0  0  0
    2.5096   -1.1344   -2.1491 C   0  0  0  0  0  0  0  0  0  0  0  0
  1  2  2  0  0  0  0
  1  4  1  0  0  0  0
  1  3  1  0  0  0  0
  5  1  1  0  0  0  0
  6  7  2  6  0  0  0
  6  9  1  0  0  0  0
  6  5  1  0  0  0  0
  6  8  1  0  0  0  0
 10 11  2  1  0  0  0
 10 12  1  0  0  0  0
 10 13  1  0  0  0  0
 10  9  1  0  0  0  0
 13 14  1  0  0  0  0
 15 14  1  1  0  0  0
 15 16  1  0  0  0  0
 17 19  1  0  0  0  0
 17 15  1  0  0  0  0
 17 18  1  1  0  0  0
 19 21  1  0  0  0  0
 19 20  1  1  0  0  0
 21 16  1  0  0  0  0
 21 22  1  6  0  0  0
 22 32  1  0  0  0  0
 23 22  1  0  0  0  0
 23 24  2  0  0  0  0
 24 25  1  0  0  0  0
 25 26  1  0  0  0  0
 26 27  2  0  0  0  0
 26 28  1  0  0  0  0
 29 28  1  0  0  0  0
 29 30  1  0  0  0  0
 31 29  2  0  0  0  0
 32 25  2  0  0  0  0
 32 31  1  0  0  0  0
M  END
>  <CHROM.1>
87.61061221,-81.50693273,67.76934394,-142.33418713,-12.91969858,97.94796383
73.67167966,-37.30184826,-68.36746240,22.30734364,0.04652899,2.73151662,-0.48796955
2.31603335,-0.64574959,0.82881921

>  <Name>
lig.pdb

>  <RI>
1.2169e+07

>  <Rbt.Current_Directory>
/home/itssahil/PROJECTS/Mol_Feturizer/New_Systems/rnas/5lwj

>  <Rbt.Executable>
rbdock ($Id: //depot/dev/client3/rdock/2013.1/src/exe/rbdock.cxx#4 $)

>  <Rbt.Library>
libRbt.so (2013.1, Build901 2013/11/27)

>  <Rbt.Parameter_File>
/export/apps/rDock/src/rDock_2013.1_src/data/scripts/dock_solv.prm

>  <Rbt.Receptor>
prm/blind_docking_40.prm

>  <SCORE>
-25.2426

>  <SCORE.INTER>
-26.8967

>  <SCORE.INTER.CONST>
1

>  <SCORE.INTER.POLAR>
-1.46676

>  <SCORE.INTER.ROT>
8

>  <SCORE.INTER.SOLV>
25.6557

>  <SCORE.INTER.VDW>
-30.5271

>  <SCORE.INTER.norm>
-0.840521

>  <SCORE.INTRA>
1.01048

>  <SCORE.INTRA.DIHEDRAL>
6.02369

>  <SCORE.INTRA.DIHEDRAL.0>
10.9248

>  <SCORE.INTRA.POLAR>
0

>  <SCORE.INTRA.POLAR.0>
0

>  <SCORE.INTRA.REPUL>
0

>  <SCORE.INTRA.REPUL.0>
0

>  <SCORE.INTRA.SOLV>
1.41036

>  <SCORE.INTRA.SOLV.lig_0>
-51.4104

>  <SCORE.INTRA.VDW>
-2.70654

>  <SCORE.INTRA.VDW.0>
0.110327

>  <SCORE.INTRA.norm>
0.0315776

>  <SCORE.RESTR>
0.643634

>  <SCORE.RESTR.CAVITY>
0.643634

>  <SCORE.RESTR.norm>
0.0201136

>  <SCORE.SYSTEM>
0

>  <SCORE.SYSTEM.CONST>
0

>  <SCORE.SYSTEM.DIHEDRAL>
0

>  <SCORE.SYSTEM.SOLV>
0

>  <SCORE.SYSTEM.norm>
0

>  <SCORE.heavy>
32

>  <SCORE.norm>
-0.78883

>  <RMSD>
15.834

$$$$
lig.pdb
 OpenBabel11021811523D
libRbt.so/2013.1/901 2013/11/27
 32 34  0  0  0  0  0  0  0  0999 V2000
   -3.3359    6.8507   -1.4827 P   0  0  0  0  0  0  0  0  0  0  0  0
   -3.4315    8.2359   -0.8910 O   0  0  0  0  0  0  0  0  0  0  0  0
   -4.4491    6.0155   -0.6484 O   0  0  0  0  0  0  0  0  0  0  0  0
   -3.7576    6.6507   -2.9170 O   0  0  0  0  0  0  0  0  0  0  0  0
   -1.9347    6.4829   -1.4206 O   0  0  0  0  0  0  0  0  0  0  0  0
   -1.6233    5.9467   -0.0749 P   0  0  1  0  0  0  0  0  0  0  0  0
   -1.8363    7.0296    0.9141 O   0  0  0  0  0  0  0  0  0  0  0  0
   -2.5274    4.8172    0.2434 O   0  0  0  0  0  0  0  0  0  0  0  0
   -0.2124    5.4863   -0.0411 O   0  0  0  0  0  0  0  0  0  0  0  0
    0.3546    4.7364    1.1048 P   0  0  1  0  0  0  0  0  0  0  0  0
    1.7192    5.1430    1.4975 O   0  0  0  0  0  0  0  0  0  0  0  0
   -0.5772    4.5147    2.2329 O   0  0  0  0  0  0  0  0  0  0  0  0
    0.5991    3.2632    0.4815 O   0  0  0  0  0  0  0  0  0  0  0  0
    0.7322    2.1101    1.2910 C   0  0  0  0  0  0  0  0  0  0  0  0
    0.5317    0.8088    0.5017 C   0  0  1  0  0  0  0  0  0  0  0  0
    1.4178    0.7608   -0.5978 O   0  0  0  0  0  0  0  0  0  0  0  0
    0.9401   -0.4560    1.2770 C   0  0  1  0  0  0  0  0  0  0  0  0
    0.0139   -0.8968    2.2557 O   0  0  0  0  0  0  0  0  0  0  0  0
    1.1690   -1.4879    0.1728 C   0  0  1  0  0  0  0  0  0  0  0  0
   -0.0021   -2.2311   -0.1156 O   0  0  0  0  0  0  0  0  0  0  0  0
    1.4855   -0.5892   -1.0212 C   0  0  2  0  0  0  0  0  0  0  0  0
    2.7638   -0.8736   -1.7076 N   0  0  0  0  0  0  0  0  0  0  0  0
    3.5159   -2.0202   -1.7530 C   0  0  0  0  0  0  0  0  0  0  0  0
    4.6546   -1.8860   -2.3824 N   0  0  0  0  0  0  0  0  0  0  0  0
    4.6522   -0.5616   -2.8096 C   0  0  0  0  0  0  0  0  0  0  0  0
    5.6417    0.1952   -3.5154 C   0  0  0  0  0  0  0  0  0  0  0  0
    6.7590   -0.1744   -3.8705 O   0  0  0  0  0  0  0  0  0  0  0  0
    5.2299    1.5070   -3.7867 N   0  0  0  0  0  0  0  0  0  0  0  0
    3.9844    2.0102   -3.4424 C   0  0  0  0  0  0  0  0  0  0  0  0
    3.6701    3.2447   -3.8507 N   0  0  0  0  0  0  0  0  0  0  0  0
    3.0786    1.3120   -2.7382 N   0  0  0  0  0  0  0  0  0  0  0  0
    3.4711    0.0416   -2.4473 C   0  0  0  0  0  0  0  0  0  0  0  0
  1  2  2  0  0  0  0
  1  4  1  0  0  0  0
  1  3  1  0  0  0  0
  5  1  1  0  0  0  0
  6  7  2  1  0  0  0
  6  9  1  0  0  0  0
  6  5  1  0  0  0  0
  6  8  1  0  0  0  0
 10 11  2  1  0  0  0
 10 12  1  0  0  0  0
 10 13  1  0  0  0  0
 10  9  1  0  0  0  0
 13 14  1  0  0  0  0
 15 14  1  1  0  0  0
 15 16  1  0  0  0  0
 17 19  1  0  0  0  0
 17 15  1  0  0  0  0
 17 18  1  1  0  0  0
 19 21  1  0  0  0  0
 19 20  1  6  0  0  0
 21 16  1  0  0  0  0
 21 22  1  1  0  0  0
 22 32  1  0  0  0  0
 23 22  1  0  0  0  0
 23 24  2  0  0  0  0
 24 25  1  0  0  0  0
 25 26  1  0  0  0  0
 26 27  2  0  0  0  0
 26 28  1  0  0  0  0
 29 28  1  0  0  0  0
 29 30  1  0  0  0  0
 31 29  2  0  0  0  0
 32 25  2  0  0  0  0
 32 31  1  0  0  0  0
M  END
>  <CHROM.1>
83.45784660,-171.74443433,-63.50210389,-159.66409973,-138.48519590,162.66879908
55.38431889,-171.87516252,-60.34064047,147.39005658,0.64288175,2.84548609
-0.79145267,-2.59555177,-0.68601546,2.57583934

>  <Name>
lig.pdb

>  <RI>
1.2169e+07

>  <Rbt.Current_Directory>
/home/itssahil/PROJECTS/Mol_Feturizer/New_Systems/rnas/5lwj

>  <Rbt.Executable>
rbdock ($Id: //depot/dev/client3/rdock/2013.1/src/exe/rbdock.cxx#4 $)

>  <Rbt.Library>
libRbt.so (2013.1, Build901 2013/11/27)

>  <Rbt.Parameter_File>
/export/apps/rDock/src/rDock_2013.1_src/data/scripts/dock_solv.prm

>  <Rbt.Receptor>
prm/blind_docking_40.prm

>  <SCORE>
-22.0393

>  <SCORE.INTER>
-21.5913

>  <SCORE.INTER.CONST>
1

>  <SCORE.INTER.POLAR>
-2.33723

>  <SCORE.INTER.ROT>
8

>  <SCORE.INTER.SOLV>
29.4438

>  <SCORE.INTER.VDW>
-25.3514

>  <SCORE.INTER.norm>
-0.674729

>  <SCORE.INTRA>
-2.3213

>  <SCORE.INTRA.DIHEDRAL>
-2.49

>  <SCORE.INTRA.DIHEDRAL.0>
10.9248

>  <SCORE.INTRA.POLAR>
0

>  <SCORE.INTRA.POLAR.0>
0

>  <SCORE.INTRA.REPUL>
0.254762

>  <SCORE.INTRA.REPUL.0>
0

>  <SCORE.INTRA.SOLV>
-1.28461

>  <SCORE.INTRA.SOLV.lig_0>
-51.4104

>  <SCORE.INTRA.VDW>
-1.7078

>  <SCORE.INTRA.VDW.0>
0.110327

>  <SCORE.INTRA.norm>
-0.0725405

>  <SCORE.RESTR>
1.87336

>  <SCORE.RESTR.CAVITY>
1.87336

>  <SCORE.RESTR.norm>
0.0585424

>  <SCORE.SYSTEM>
0

>  <SCORE.SYSTEM.CONST>
0

>  <SCORE.SYSTEM.DIHEDRAL>
0

>  <SCORE.SYSTEM.SOLV>
0

>  <SCORE.SYSTEM.norm>
0

>  <SCORE.heavy>
32

>  <SCORE.norm>
-0.688727

>  <RMSD>
15.859

$$$$
lig.pdb
 OpenBabel11021811523D
libRbt.so/2013.1/901 2013/11/27
 32 34  0  0  0  0  0  0  0  0999 V2000
   -2.5554    6.1913   -0.8090 P   0  0  0  0  0  0  0  0  0  0  0  0
   -3.7332    6.0507   -1.7423 O   0  0  0  0  0  0  0  0  0  0  0  0
   -3.0279    7.3649    0.2069 O   0  0  0  0  0  0  0  0  0  0  0  0
   -2.2295    5.0449    0.1155 O   0  0  0  0  0  0  0  0  0  0  0  0
   -1.3912    6.3691   -1.6550 O   0  0  0  0  0  0  0  0  0  0  0  0
   -0.2121    6.6823   -0.8140 P   0  0  1  0  0  0  0  0  0  0  0  0
    0.7312    7.4890   -1.6237 O   0  0  0  0  0  0  0  0  0  0  0  0
   -0.6277    7.4694    0.3702 O   0  0  0  0  0  0  0  0  0  0  0  0
    0.4323    5.4185   -0.3767 O   0  0  0  0  0  0  0  0  0  0  0  0
    0.6056    5.0645    1.0521 P   0  0  1  0  0  0  0  0  0  0  0  0
    1.0806    6.1683    1.9110 O   0  0  0  0  0  0  0  0  0  0  0  0
   -0.4837    4.2486    1.6334 O   0  0  0  0  0  0  0  0  0  0  0  0
    1.8856    4.0749    1.0219 O   0  0  0  0  0  0  0  0  0  0  0  0
    2.0990    3.1431   -0.0217 C   0  0  0  0  0  0  0  0  0  0  0  0
    2.6398    1.8000    0.4881 C   0  0  1  0  0  0  0  0  0  0  0  0
    1.7452    0.7559    0.1628 O   0  0  0  0  0  0  0  0  0  0  0  0
    3.9214    1.3360   -0.2261 C   0  0  1  0  0  0  0  0  0  0  0  0
    5.1153    1.9819    0.1831 O   0  0  0  0  0  0  0  0  0  0  0  0
    3.9449   -0.1699    0.0346 C   0  0  1  0  0  0  0  0  0  0  0  0
    4.6664   -0.4980    1.2089 O   0  0  0  0  0  0  0  0  0  0  0  0
    2.4641   -0.4597    0.2723 C   0  0  2  0  0  0  0  0  0  0  0  0
    1.8776   -1.5102   -0.5871 N   0  0  0  0  0  0  0  0  0  0  0  0
    0.7025   -2.2080   -0.4665 C   0  0  0  0  0  0  0  0  0  0  0  0
    0.5444   -3.1446   -1.3657 N   0  0  0  0  0  0  0  0  0  0  0  0
    1.6838   -3.0495   -2.1589 C   0  0  0  0  0  0  0  0  0  0  0  0
    2.1108   -3.8310   -3.2801 C   0  0  0  0  0  0  0  0  0  0  0  0
    1.5534   -4.8115   -3.7691 O   0  0  0  0  0  0  0  0  0  0  0  0
    3.3208   -3.3813   -3.8255 N   0  0  0  0  0  0  0  0  0  0  0  0
    4.0142   -2.2762   -3.3555 C   0  0  0  0  0  0  0  0  0  0  0  0
    5.1021   -1.8837   -4.0278 N   0  0  0  0  0  0  0  0  0  0  0  0
    3.6349   -1.5759   -2.2740 N   0  0  0  0  0  0  0  0  0  0  0  0
    2.4718   -2.0127   -1.7183 C   0  0  0  0  0  0  0  0  0  0  0  0
  1  2  2  0  0  0  0
  1  4  1  0  0  0  0
  1  3  1  0  0  0  0
  5  1  1  0  0  0  0
  6  7  2  6  0  0  0
  6  9  1  0  0  0  0
  6  5  1  0  0  0  0
  6  8  1  0  0  0  0
 10 11  2  1  0  0  0
 10 12  1  0  0  0  0
 10 13  1  0  0  0  0
 10  9  1  0  0  0  0
 13 14  1  0  0  0  0
 15 14  1  6  0  0  0
 15 16  1  0  0  0  0
 17 19  1  0  0  0  0
 17 15  1  0  0  0  0
 17 18  1  1  0  0  0
 19 21  1  0  0  0  0
 19 20  1  1  0  0  0
 21 16  1  0  0  0  0
 21 22  1  6  0  0  0
 22 32  1  0  0  0  0
 23 22  1  0  0  0  0
 23 24  2  0  0  0  0
 24 25  1  0  0  0  0
 25 26  1  0  0  0  0
 26 27  2  0  0  0  0
 26 28  1  0  0  0  0
 29 28  1  0  0  0  0
 29 30  1  0  0  0  0
 31 29  2  0  0  0  0
 32 25  2  0  0  0  0
 32 31  1  0  0  0  0
M  END
>  <CHROM.1>
173.06133049,-121.10691320,-152.22613882,-37.41950122,-43.91635205,-140.51685339
119.58177939,62.99796016,90.48342147,-71.24056917,1.12191924,2.34280902,-0.69336426
2.04727559,-0.44264391,0.42855811

>  <Name>
lig.pdb

>  <RI>
1.2169e+07

>  <Rbt.Current_Directory>
/home/itssahil/PROJECTS/Mol_Feturizer/New_Systems/rnas/5lwj

>  <Rbt.Executable>
rbdock ($Id: //depot/dev/client3/rdock/2013.1/src/exe/rbdock.cxx#4 $)

>  <Rbt.Library>
libRbt.so (2013.1, Build901 2013/11/27)

>  <Rbt.Parameter_File>
/export/apps/rDock/src/rDock_2013.1_src/data/scripts/dock_solv.prm

>  <Rbt.Receptor>
prm/blind_docking_40.prm

>  <SCORE>
-14.6401

>  <SCORE.INTER>
-22.3319

>  <SCORE.INTER.CONST>
1

>  <SCORE.INTER.POLAR>
-1.45205

>  <SCORE.INTER.ROT>
8

>  <SCORE.INTER.SOLV>
24.9389

>  <SCORE.INTER.VDW>
-27.2941

>  <SCORE.INTER.norm>
-0.697873

>  <SCORE.INTRA>
7.09964

>  <SCORE.INTRA.DIHEDRAL>
10.7909

>  <SCORE.INTRA.DIHEDRAL.0>
10.9248

>  <SCORE.INTRA.POLAR>
-0.00343816

>  <SCORE.INTRA.POLAR.0>
0

>  <SCORE.INTRA.REPUL>
0

>  <SCORE.INTRA.REPUL.0>
0

>  <SCORE.INTRA.SOLV>
-0.0476771

>  <SCORE.INTRA.SOLV.lig_0>
-51.4104

>  <SCORE.INTRA.VDW>
1.7397

>  <SCORE.INTRA.VDW.0>
0.110327

>  <SCORE.INTRA.norm>
0.221864

>  <SCORE.RESTR>
0.592206

>  <SCORE.RESTR.CAVITY>
0.592206

>  <SCORE.RESTR.norm>
0.0185064

>  <SCORE.SYSTEM>
0

>  <SCORE.SYSTEM.CONST>
0

>  <SCORE.SYSTEM.DIHEDRAL>
0

>  <SCORE.SYSTEM.SOLV>
0

>  <SCORE.SYSTEM.norm>
0

>  <SCORE.heavy>
32

>  <SCORE.norm>
-0.457502

>  <RMSD>
15.864

$$$$
lig.pdb
 OpenBabel11021811523D
libRbt.so/2013.1/901 2013/11/27
 32 34  0  0  0  0  0  0  0  0999 V2000
    0.8304   -3.0281   -0.4183 P   0  0  0  0  0  0  0  0  0  0  0  0
    0.3583   -4.3741   -0.9118 O   0  0  0  0  0  0  0  0  0  0  0  0
    1.9842   -3.4129    0.6556 O   0  0  0  0  0  0  0  0  0  0  0  0
    1.5476   -2.1189   -1.3848 O   0  0  0  0  0  0  0  0  0  0  0  0
   -0.3599   -2.3127   -0.0012 O   0  0  0  0  0  0  0  0  0  0  0  0
   -0.0102   -1.3556    1.0745 P   0  0  1  0  0  0  0  0  0  0  0  0
   -1.1694   -0.4574    1.2881 O   0  0  0  0  0  0  0  0  0  0  0  0
    0.2730   -2.0862    2.3318 O   0  0  0  0  0  0  0  0  0  0  0  0
    1.1833   -0.5715    0.6690 O   0  0  0  0  0  0  0  0  0  0  0  0
    1.1131    0.5384   -0.3108 P   0  0  1  0  0  0  0  0  0  0  0  0
    2.0653    0.4339   -1.4352 O   0  0  0  0  0  0  0  0  0  0  0  0
   -0.2552    0.9547   -0.6911 O   0  0  0  0  0  0  0  0  0  0  0  0
    1.7034    1.7913    0.5262 O   0  0  0  0  0  0  0  0  0  0  0  0
    2.1414    2.9824   -0.0999 C   0  0  0  0  0  0  0  0  0  0  0  0
    1.4928    4.2374    0.5007 C   0  0  1  0  0  0  0  0  0  0  0  0
    1.0760    5.1134   -0.5267 O   0  0  0  0  0  0  0  0  0  0  0  0
    0.1629    3.9626    1.2243 C   0  0  1  0  0  0  0  0  0  0  0  0
    0.2789    3.3932    2.5175 O   0  0  0  0  0  0  0  0  0  0  0  0
   -0.5193    5.3303    1.2398 C   0  0  1  0  0  0  0  0  0  0  0  0
   -0.2136    6.0671    2.4106 O   0  0  0  0  0  0  0  0  0  0  0  0
    0.1427    6.0130    0.0444 C   0  0  2  0  0  0  0  0  0  0  0  0
   -0.7854    6.5443   -0.9765 N   0  0  0  0  0  0  0  0  0  0  0  0
   -0.5350    7.1156   -2.1985 C   0  0  0  0  0  0  0  0  0  0  0  0
   -1.6026    7.5671   -2.8045 N   0  0  0  0  0  0  0  0  0  0  0  0
   -2.6440    7.2529   -1.9365 C   0  0  0  0  0  0  0  0  0  0  0  0
   -4.0470    7.5253   -2.0218 C   0  0  0  0  0  0  0  0  0  0  0  0
   -4.6394    8.1522   -2.8978 O   0  0  0  0  0  0  0  0  0  0  0  0
   -4.7680    7.0022   -0.9399 N   0  0  0  0  0  0  0  0  0  0  0  0
   -4.1928    6.2675    0.0860 C   0  0  0  0  0  0  0  0  0  0  0  0
   -5.0025    5.7311    1.0059 N   0  0  0  0  0  0  0  0  0  0  0  0
   -2.8703    6.0561    0.1867 N   0  0  0  0  0  0  0  0  0  0  0  0
   -2.1519    6.5763   -0.8456 C   0  0  0  0  0  0  0  0  0  0  0  0
  1  2  2  0  0  0  0
  1  4  1  0  0  0  0
  1  3  1  0  0  0  0
  5  1  1  0  0  0  0
  6  7  2  1  0  0  0
  6  9  1  0  0  0  0
  6  5  1  0  0  0  0
  6  8  1  0  0  0  0
 10 11  2  6  0  0  0
 10 12  1  0  0  0  0
 10 13  1  0  0  0  0
 10  9  1  0  0  0  0
 13 14  1  0  0  0  0
 15 14  1  6  0  0  0
 15 16  1  0  0  0  0
 17 19  1  0  0  0  0
 17 15  1  0  0  0  0
 17 18  1  1  0  0  0
 19 21  1  0  0  0  0
 19 20  1  1  0  0  0
 21 16  1  0  0  0  0
 21 22  1  6  0  0  0
 22 32  1  0  0  0  0
 23 22  1  0  0  0  0
 23 24  2  0  0  0  0
 24 25  1  0  0  0  0
 25 26  1  0  0  0  0
 26 27  2  0  0  0  0
 26 28  1  0  0  0  0
 29 28  1  0  0  0  0
 29 30  1  0  0  0  0
 31 29  2  0  0  0  0
 32 25  2  0  0  0  0
 32 31  1  0  0  0  0
M  END
>  <CHROM.1>
151.33471653,76.44170366,168.77894669,163.56652041,-127.24138207,127.57216809
-135.61781755,-48.53718089,-169.89082009,-50.41537971,-0.42868028,2.42602254
-0.07456201,1.19622079,0.21897590,3.11298789

>  <Name>
lig.pdb

>  <RI>
4.14043e+07

>  <Rbt.Current_Directory>
/home/itssahil/PROJECTS/Mol_Feturizer/New_Systems/rnas/5lwj

>  <Rbt.Executable>
rbdock ($Id: //depot/dev/client3/rdock/2013.1/src/exe/rbdock.cxx#4 $)

>  <Rbt.Library>
libRbt.so (2013.1, Build901 2013/11/27)

>  <Rbt.Parameter_File>
/export/apps/rDock/src/rDock_2013.1_src/data/scripts/dock_solv.prm

>  <Rbt.Receptor>
prm/blind_docking_80.prm

>  <SCORE>
1.38915

>  <SCORE.INTER>
-1.15043

>  <SCORE.INTER.CONST>
1

>  <SCORE.INTER.POLAR>
-1.83313

>  <SCORE.INTER.ROT>
8

>  <SCORE.INTER.SOLV>
23.8463

>  <SCORE.INTER.VDW>
-11.5386

>  <SCORE.INTER.norm>
-0.0359509

>  <SCORE.INTRA>
1.91397

>  <SCORE.INTRA.DIHEDRAL>
8.46316

>  <SCORE.INTRA.DIHEDRAL.0>
10.9248

>  <SCORE.INTRA.POLAR>
-0.306903

>  <SCORE.INTRA.POLAR.0>
0

>  <SCORE.INTRA.REPUL>
0

>  <SCORE.INTRA.REPUL.0>
0

>  <SCORE.INTRA.SOLV>
1.53327

>  <SCORE.INTRA.SOLV.lig_0>
-51.4104

>  <SCORE.INTRA.VDW>
-2.04077

>  <SCORE.INTRA.VDW.0>
0.110327

>  <SCORE.INTRA.norm>
0.0598117

>  <SCORE.RESTR>
0.625605

>  <SCORE.RESTR.CAVITY>
0.625605

>  <SCORE.RESTR.norm>
0.0195502

>  <SCORE.SYSTEM>
0

>  <SCORE.SYSTEM.CONST>
0

>  <SCORE.SYSTEM.DIHEDRAL>
0

>  <SCORE.SYSTEM.SOLV>
0

>  <SCORE.SYSTEM.norm>
0

>  <SCORE.heavy>
32

>  <SCORE.norm>
0.0434109

>  <RMSD>
15.885

$$$$
lig.pdb
 OpenBabel11021811523D
libRbt.so/2013.1/901 2013/11/27
 32 34  0  0  0  0  0  0  0  0999 V2000
   -4.9596    6.4945    0.2270 P   0  0  0  0  0  0  0  0  0  0  0  0
   -4.9605    6.6460    1.7287 O   0  0  0  0  0  0  0  0  0  0  0  0
   -6.4594    5.9635   -0.0912 O   0  0  0  0  0  0  0  0  0  0  0  0
   -4.8459    7.7367   -0.6210 O   0  0  0  0  0  0  0  0  0  0  0  0
   -3.8028    5.6812   -0.0943 O   0  0  0  0  0  0  0  0  0  0  0  0
   -2.5665    6.4219    0.2501 P   0  0  1  0  0  0  0  0  0  0  0  0
   -2.4817    7.6123   -0.6285 O   0  0  0  0  0  0  0  0  0  0  0  0
   -2.6177    6.8665    1.6623 O   0  0  0  0  0  0  0  0  0  0  0  0
   -1.3895    5.5415    0.0425 O   0  0  0  0  0  0  0  0  0  0  0  0
   -0.0572    5.8423    0.6182 P   0  0  1  0  0  0  0  0  0  0  0  0
    0.6171    7.0214    0.0378 O   0  0  0  0  0  0  0  0  0  0  0  0
    0.0275    5.7402    2.0922 O   0  0  0  0  0  0  0  0  0  0  0  0
    0.8520    4.6205    0.0713 O   0  0  0  0  0  0  0  0  0  0  0  0
    1.5438    3.7427    0.9394 C   0  0  0  0  0  0  0  0  0  0  0  0
    1.3498    2.2670    0.5636 C   0  0  1  0  0  0  0  0  0  0  0  0
    1.9296    2.0019   -0.6973 O   0  0  0  0  0  0  0  0  0  0  0  0
    2.1241    1.2902    1.4658 C   0  0  1  0  0  0  0  0  0  0  0  0
    1.5491    1.0504    2.7394 O   0  0  0  0  0  0  0  0  0  0  0  0
    2.2217    0.0250    0.6138 C   0  0  1  0  0  0  0  0  0  0  0  0
    1.1408   -0.8609    0.8462 O   0  0  0  0  0  0  0  0  0  0  0  0
    2.0910    0.5981   -0.7962 C   0  0  2  0  0  0  0  0  0  0  0  0
    3.1846    0.2471   -1.7272 N   0  0  0  0  0  0  0  0  0  0  0  0
    4.2477    0.9900   -2.1748 C   0  0  0  0  0  0  0  0  0  0  0  0
    4.9748    0.3881   -3.0802 N   0  0  0  0  0  0  0  0  0  0  0  0
    4.3687   -0.8556   -3.2304 C   0  0  0  0  0  0  0  0  0  0  0  0
    4.6769   -1.9466   -4.1049 C   0  0  0  0  0  0  0  0  0  0  0  0
    5.5535   -1.9961   -4.9653 O   0  0  0  0  0  0  0  0  0  0  0  0
    3.8315   -3.0484   -3.9165 N   0  0  0  0  0  0  0  0  0  0  0  0
    2.8271   -3.0942   -2.9614 C   0  0  0  0  0  0  0  0  0  0  0  0
    2.1577   -4.2422   -2.8074 N   0  0  0  0  0  0  0  0  0  0  0  0
    2.5107   -2.0511   -2.1769 N   0  0  0  0  0  0  0  0  0  0  0  0
    3.3087   -0.9641   -2.3618 C   0  0  0  0  0  0  0  0  0  0  0  0
  1  2  2  0  0  0  0
  1  4  1  0  0  0  0
  1  3  1  0  0  0  0
  5  1  1  0  0  0  0
  6  7  2  6  0  0  0
  6  9  1  0  0  0  0
  6  5  1  0  0  0  0
  6  8  1  0  0  0  0
 10 11  2  6  0  0  0
 10 12  1  0  0  0  0
 10 13  1  0  0  0  0
 10  9  1  0  0  0  0
 13 14  1  0  0  0  0
 15 14  1  1  0  0  0
 15 16  1  0  0  0  0
 17 19  1  0  0  0  0
 17 15  1  0  0  0  0
 17 18  1  1  0  0  0
 19 21  1  0  0  0  0
 19 20  1  1  0  0  0
 21 16  1  0  0  0  0
 21 22  1  6  0  0  0
 22 32  1  0  0  0  0
 23 22  1  0  0  0  0
 23 24  2  0  0  0  0
 24 25  1  0  0  0  0
 25 26  1  0  0  0  0
 26 27  2  0  0  0  0
 26 28  1  0  0  0  0
 29 28  1  0  0  0  0
 29 30  1  0  0  0  0
 31 29  2  0  0  0  0
 32 25  2  0  0  0  0
 32 31  1  0  0  0  0
M  END
>  <CHROM.1>
-65.65517317,-163.63100523,-65.07608388,-121.76778882,-68.34517295,133.00359385
65.14974993,157.38406604,65.80304638,20.79032008,0.25238251,2.89114040,-0.52720057
2.27231006,-0.23849452,0.55194092

>  <Name>
lig.pdb

>  <RI>
1.2169e+07

>  <Rbt.Current_Directory>
/home/itssahil/PROJECTS/Mol_Feturizer/New_Systems/rnas/5lwj

>  <Rbt.Executable>
rbdock ($Id: //depot/dev/client3/rdock/2013.1/src/exe/rbdock.cxx#4 $)

>  <Rbt.Library>
libRbt.so (2013.1, Build901 2013/11/27)

>  <Rbt.Parameter_File>
/export/apps/rDock/src/rDock_2013.1_src/data/scripts/dock_solv.prm

>  <Rbt.Receptor>
prm/blind_docking_40.prm

>  <SCORE>
-22.16

>  <SCORE.INTER>
-25.0682

>  <SCORE.INTER.CONST>
1

>  <SCORE.INTER.POLAR>
-1.49594

>  <SCORE.INTER.ROT>
8

>  <SCORE.INTER.SOLV>
24.5179

>  <SCORE.INTER.VDW>
-28.8317

>  <SCORE.INTER.norm>
-0.783382

>  <SCORE.INTRA>
2.86803

>  <SCORE.INTRA.DIHEDRAL>
3.64408

>  <SCORE.INTRA.DIHEDRAL.0>
10.9248

>  <SCORE.INTRA.POLAR>
0

>  <SCORE.INTRA.POLAR.0>
0

>  <SCORE.INTRA.REPUL>
0

>  <SCORE.INTRA.REPUL.0>
0

>  <SCORE.INTRA.SOLV>
-0.947125

>  <SCORE.INTRA.SOLV.lig_0>
-51.4104

>  <SCORE.INTRA.VDW>
1.51955

>  <SCORE.INTRA.VDW.0>
0.110327

>  <SCORE.INTRA.norm>
0.0896258

>  <SCORE.RESTR>
0.0401516

>  <SCORE.RESTR.CAVITY>
0.0401516

>  <SCORE.RESTR.norm>
0.00125474

>  <SCORE.SYSTEM>
0

>  <SCORE.SYSTEM.CONST>
0

>  <SCORE.SYSTEM.DIHEDRAL>
0

>  <SCORE.SYSTEM.SOLV>
0

>  <SCORE.SYSTEM.norm>
0

>  <SCORE.heavy>
32

>  <SCORE.norm>
-0.692502

>  <RMSD>
15.890

$$$$
lig.pdb
 OpenBabel11021811523D
libRbt.so/2013.1/901 2013/11/27
 32 34  0  0  0  0  0  0  0  0999 V2000
   -2.8418    7.4366   -0.9271 P   0  0  0  0  0  0  0  0  0  0  0  0
   -4.2802    7.8878   -1.0011 O   0  0  0  0  0  0  0  0  0  0  0  0
   -2.7886    6.2004   -1.9767 O   0  0  0  0  0  0  0  0  0  0  0  0
   -1.7691    8.3673   -1.4351 O   0  0  0  0  0  0  0  0  0  0  0  0
   -2.5584    7.2261    0.4794 O   0  0  0  0  0  0  0  0  0  0  0  0
   -2.7982    5.8052    0.8249 P   0  0  1  0  0  0  0  0  0  0  0  0
   -2.8599    5.6932    2.3012 O   0  0  0  0  0  0  0  0  0  0  0  0
   -4.0876    5.3539    0.2518 O   0  0  0  0  0  0  0  0  0  0  0  0
   -1.6914    4.9734    0.2893 O   0  0  0  0  0  0  0  0  0  0  0  0
   -0.3401    4.9563    0.8979 P   0  0  1  0  0  0  0  0  0  0  0  0
    0.7489    5.3958    0.0020 O   0  0  0  0  0  0  0  0  0  0  0  0
   -0.2653    5.4901    2.2762 O   0  0  0  0  0  0  0  0  0  0  0  0
   -0.0398    3.3740    1.0560 O   0  0  0  0  0  0  0  0  0  0  0  0
    1.0618    2.8816    1.7954 C   0  0  0  0  0  0  0  0  0  0  0  0
    2.0095    2.0263    0.9429 C   0  0  1  0  0  0  0  0  0  0  0  0
    1.7172    0.6543    1.1115 O   0  0  0  0  0  0  0  0  0  0  0  0
    1.8049    2.1968   -0.5726 C   0  0  1  0  0  0  0  0  0  0  0  0
    2.3533    3.3782   -1.1327 O   0  0  0  0  0  0  0  0  0  0  0  0
    2.4197    0.9253   -1.1568 C   0  0  1  0  0  0  0  0  0  0  0  0
    3.7889    1.0930   -1.4799 O   0  0  0  0  0  0  0  0  0  0  0  0
    2.3095   -0.0357    0.0255 C   0  0  2  0  0  0  0  0  0  0  0  0
    1.6049   -1.3054   -0.2530 N   0  0  0  0  0  0  0  0  0  0  0  0
    0.3717   -1.7488    0.1532 C   0  0  0  0  0  0  0  0  0  0  0  0
    0.1033   -2.9782   -0.2036 N   0  0  0  0  0  0  0  0  0  0  0  0
    1.2274   -3.3765   -0.9209 C   0  0  0  0  0  0  0  0  0  0  0  0
    1.5508   -4.6300   -1.5324 C   0  0  0  0  0  0  0  0  0  0  0  0
    0.8907   -5.6670   -1.5163 O   0  0  0  0  0  0  0  0  0  0  0  0
    2.7849   -4.6076   -2.1960 N   0  0  0  0  0  0  0  0  0  0  0  0
    3.5918   -3.4831   -2.2842 C   0  0  0  0  0  0  0  0  0  0  0  0
    4.6959   -3.5587   -3.0358 N   0  0  0  0  0  0  0  0  0  0  0  0
    3.3071   -2.3241   -1.6683 N   0  0  0  0  0  0  0  0  0  0  0  0
    2.1212   -2.3349   -1.0006 C   0  0  0  0  0  0  0  0  0  0  0  0
  1  2  2  0  0  0  0
  1  4  1  0  0  0  0
  1  3  1  0  0  0  0
  5  1  1  0  0  0  0
  6  7  2  1  0  0  0
  6  9  1  0  0  0  0
  6  5  1  0  0  0  0
  6  8  1  0  0  0  0
 10 11  2  6  0  0  0
 10 12  1  0  0  0  0
 10 13  1  0  0  0  0
 10  9  1  0  0  0  0
 13 14  1  0  0  0  0
 15 14  1  1  0  0  0
 15 16  1  0  0  0  0
 17 19  1  0  0  0  0
 17 15  1  0  0  0  0
 17 18  1  6  0  0  0
 19 21  1  0  0  0  0
 19 20  1  1  0  0  0
 21 16  1  0  0  0  0
 21 22  1  6  0  0  0
 22 32  1  0  0  0  0
 23 22  1  0  0  0  0
 23 24  2  0  0  0  0
 24 25  1  0  0  0  0
 25 26  1  0  0  0  0
 26 27  2  0  0  0  0
 26 28  1  0  0  0  0
 29 28  1  0  0  0  0
 29 30  1  0  0  0  0
 31 29  2  0  0  0  0
 32 25  2  0  0  0  0
 32 31  1  0  0  0  0
M  END
>  <CHROM.1>
93.25344767,73.95598447,-164.97838302,-169.61287406,-119.42621440,-120.80274831
-97.01910371,69.80125493,-65.42643268,15.63554300,0.13465861,2.34602798,-0.29877971
2.03646965,0.10413356,0.09793638

>  <Name>
lig.pdb

>  <RI>
4.14043e+07

>  <Rbt.Current_Directory>
/home/itssahil/PROJECTS/Mol_Feturizer/New_Systems/rnas/5lwj

>  <Rbt.Executable>
rbdock ($Id: //depot/dev/client3/rdock/2013.1/src/exe/rbdock.cxx#4 $)

>  <Rbt.Library>
libRbt.so (2013.1, Build901 2013/11/27)

>  <Rbt.Parameter_File>
/export/apps/rDock/src/rDock_2013.1_src/data/scripts/dock_solv.prm

>  <Rbt.Receptor>
prm/blind_docking_80.prm

>  <SCORE>
-19.9468

>  <SCORE.INTER>
-22.4376

>  <SCORE.INTER.CONST>
1

>  <SCORE.INTER.POLAR>
-2.65005

>  <SCORE.INTER.ROT>
8

>  <SCORE.INTER.SOLV>
21.0866

>  <SCORE.INTER.VDW>
-22.0871

>  <SCORE.INTER.norm>
-0.701174

>  <SCORE.INTRA>
1.75031

>  <SCORE.INTRA.DIHEDRAL>
7.61607

>  <SCORE.INTRA.DIHEDRAL.0>
10.9248

>  <SCORE.INTRA.POLAR>
0

>  <SCORE.INTRA.POLAR.0>
0

>  <SCORE.INTRA.REPUL>
0

>  <SCORE.INTRA.REPUL.0>
0

>  <SCORE.INTRA.SOLV>
1.517

>  <SCORE.INTRA.SOLV.lig_0>
-51.4104

>  <SCORE.INTRA.VDW>
-2.81622

>  <SCORE.INTRA.VDW.0>
0.110327

>  <SCORE.INTRA.norm>
0.0546973

>  <SCORE.RESTR>
0.740494

>  <SCORE.RESTR.CAVITY>
0.740494

>  <SCORE.RESTR.norm>
0.0231404

>  <SCORE.SYSTEM>
0

>  <SCORE.SYSTEM.CONST>
0

>  <SCORE.SYSTEM.DIHEDRAL>
0

>  <SCORE.SYSTEM.SOLV>
0

>  <SCORE.SYSTEM.norm>
0

>  <SCORE.heavy>
32

>  <SCORE.norm>
-0.623336

>  <RMSD>
15.904

$$$$
lig.pdb
 OpenBabel11021811523D
libRbt.so/2013.1/901 2013/11/27
 32 34  0  0  0  0  0  0  0  0999 V2000
   -1.0509    7.8930   -1.7221 P   0  0  0  0  0  0  0  0  0  0  0  0
   -0.0076    6.8945   -2.1608 O   0  0  0  0  0  0  0  0  0  0  0  0
   -0.6209    9.2455   -2.5085 O   0  0  0  0  0  0  0  0  0  0  0  0
   -2.4790    7.6794   -2.1581 O   0  0  0  0  0  0  0  0  0  0  0  0
   -1.0626    7.8516   -0.2727 O   0  0  0  0  0  0  0  0  0  0  0  0
   -1.3758    6.4759    0.1802 P   0  0  1  0  0  0  0  0  0  0  0  0
   -1.6095    6.5135    1.6430 O   0  0  0  0  0  0  0  0  0  0  0  0
   -2.6017    5.9867   -0.4925 O   0  0  0  0  0  0  0  0  0  0  0  0
   -0.2360    5.5798   -0.1383 O   0  0  0  0  0  0  0  0  0  0  0  0
    0.5796    4.9233    0.9109 P   0  0  1  0  0  0  0  0  0  0  0  0
    1.5644    5.8035    1.5720 O   0  0  0  0  0  0  0  0  0  0  0  0
   -0.1709    4.0331    1.8243 O   0  0  0  0  0  0  0  0  0  0  0  0
    1.5259    3.9271    0.0560 O   0  0  0  0  0  0  0  0  0  0  0  0
    1.9766    2.6862    0.5658 C   0  0  0  0  0  0  0  0  0  0  0  0
    2.7965    1.8902   -0.4591 C   0  0  1  0  0  0  0  0  0  0  0  0
    2.6808    0.5043   -0.2096 O   0  0  0  0  0  0  0  0  0  0  0  0
    2.2553    1.9868   -1.8962 C   0  0  1  0  0  0  0  0  0  0  0  0
    2.5541    3.1920   -2.5804 O   0  0  0  0  0  0  0  0  0  0  0  0
    2.8495    0.7559   -2.5804 C   0  0  1  0  0  0  0  0  0  0  0  0
    4.0945    1.0352   -3.1962 O   0  0  0  0  0  0  0  0  0  0  0  0
    3.0891   -0.1679   -1.3877 C   0  0  2  0  0  0  0  0  0  0  0  0
    2.4667   -1.5054   -1.4865 N   0  0  0  0  0  0  0  0  0  0  0  0
    1.4168   -2.0538   -0.7942 C   0  0  0  0  0  0  0  0  0  0  0  0
    1.1928   -3.3117   -1.0743 N   0  0  0  0  0  0  0  0  0  0  0  0
    2.1455   -3.6190   -2.0411 C   0  0  0  0  0  0  0  0  0  0  0  0
    2.4344   -4.8509   -2.7111 C   0  0  0  0  0  0  0  0  0  0  0  0
    1.9027   -5.9452   -2.5350 O   0  0  0  0  0  0  0  0  0  0  0  0
    3.4648   -4.7276   -3.6528 N   0  0  0  0  0  0  0  0  0  0  0  0
    4.1124   -3.5341   -3.9343 C   0  0  0  0  0  0  0  0  0  0  0  0
    5.0058   -3.5229   -4.9300 N   0  0  0  0  0  0  0  0  0  0  0  0
    3.8713   -2.3924   -3.2694 N   0  0  0  0  0  0  0  0  0  0  0  0
    2.8871   -2.4994   -2.3353 C   0  0  0  0  0  0  0  0  0  0  0  0
  1  2  2  0  0  0  0
  1  4  1  0  0  0  0
  1  3  1  0  0  0  0
  5  1  1  0  0  0  0
  6  7  2  1  0  0  0
  6  9  1  0  0  0  0
  6  5  1  0  0  0  0
  6  8  1  0  0  0  0
 10 11  2  1  0  0  0
 10 12  1  0  0  0  0
 10 13  1  0  0  0  0
 10  9  1  0  0  0  0
 13 14  1  0  0  0  0
 15 14  1  1  0  0  0
 15 16  1  0  0  0  0
 17 19  1  0  0  0  0
 17 15  1  0  0  0  0
 17 18  1  6  0  0  0
 19 21  1  0  0  0  0
 19 20  1  1  0  0  0
 21 16  1  0  0  0  0
 21 22  1  6  0  0  0
 22 32  1  0  0  0  0
 23 22  1  0  0  0  0
 23 24  2  0  0  0  0
 24 25  1  0  0  0  0
 25 26  1  0  0  0  0
 26 27  2  0  0  0  0
 26 28  1  0  0  0  0
 29 28  1  0  0  0  0
 29 30  1  0  0  0  0
 31 29  2  0  0  0  0
 32 25  2  0  0  0  0
 32 31  1  0  0  0  0
M  END
>  <CHROM.1>
-58.60731261,114.71114436,-170.43690173,-148.26239708,-77.18598732,176.90486895
-151.95870720,58.43293835,-64.52258776,14.01613296,1.16692470,2.43661389
-1.22984395,-2.42985665,-1.08184006,2.56381745

>  <Name>
lig.pdb

>  <RI>
4.14043e+07

>  <Rbt.Current_Directory>
/home/itssahil/PROJECTS/Mol_Feturizer/New_Systems/rnas/5lwj

>  <Rbt.Executable>
rbdock ($Id: //depot/dev/client3/rdock/2013.1/src/exe/rbdock.cxx#4 $)

>  <Rbt.Library>
libRbt.so (2013.1, Build901 2013/11/27)

>  <Rbt.Parameter_File>
/export/apps/rDock/src/rDock_2013.1_src/data/scripts/dock_solv.prm

>  <Rbt.Receptor>
prm/blind_docking_80.prm

>  <SCORE>
-36.6742

>  <SCORE.INTER>
-36.3692

>  <SCORE.INTER.CONST>
1

>  <SCORE.INTER.POLAR>
-2.2617

>  <SCORE.INTER.ROT>
8

>  <SCORE.INTER.SOLV>
27.4946

>  <SCORE.INTER.VDW>
-34.8053

>  <SCORE.INTER.norm>
-1.13654

>  <SCORE.INTRA>
-0.304964

>  <SCORE.INTRA.DIHEDRAL>
-1.69205

>  <SCORE.INTRA.DIHEDRAL.0>
10.9248

>  <SCORE.INTRA.POLAR>
0

>  <SCORE.INTRA.POLAR.0>
0

>  <SCORE.INTRA.REPUL>
0.00146166

>  <SCORE.INTRA.REPUL.0>
0

>  <SCORE.INTRA.SOLV>
0.428287

>  <SCORE.INTRA.SOLV.lig_0>
-51.4104

>  <SCORE.INTRA.VDW>
0.319609

>  <SCORE.INTRA.VDW.0>
0.110327

>  <SCORE.INTRA.norm>
-0.00953014

>  <SCORE.RESTR>
0

>  <SCORE.RESTR.CAVITY>
0

>  <SCORE.RESTR.norm>
0

>  <SCORE.SYSTEM>
0

>  <SCORE.SYSTEM.CONST>
0

>  <SCORE.SYSTEM.DIHEDRAL>
0

>  <SCORE.SYSTEM.SOLV>
0

>  <SCORE.SYSTEM.norm>
0

>  <SCORE.heavy>
32

>  <SCORE.norm>
-1.14607

>  <RMSD>
15.915

$$$$
lig.pdb
 OpenBabel11021811523D
libRbt.so/2013.1/901 2013/11/27
 32 34  0  0  0  0  0  0  0  0999 V2000
   -3.6781    4.7153   -0.1452 P   0  0  0  0  0  0  0  0  0  0  0  0
   -3.3555    5.6185   -1.3105 O   0  0  0  0  0  0  0  0  0  0  0  0
   -5.0932    4.0485   -0.5759 O   0  0  0  0  0  0  0  0  0  0  0  0
   -2.7941    3.5187    0.1035 O   0  0  0  0  0  0  0  0  0  0  0  0
   -3.5803    5.5412    1.0427 O   0  0  0  0  0  0  0  0  0  0  0  0
   -2.3119    6.3065    1.0097 P   0  0  1  0  0  0  0  0  0  0  0  0
   -2.4418    7.3715   -0.0125 O   0  0  0  0  0  0  0  0  0  0  0  0
   -2.0616    6.9315    2.3294 O   0  0  0  0  0  0  0  0  0  0  0  0
   -1.1932    5.3936    0.6656 O   0  0  0  0  0  0  0  0  0  0  0  0
    0.2092    5.8592    0.5490 P   0  0  1  0  0  0  0  0  0  0  0  0
    0.4627    6.7887   -0.5706 O   0  0  0  0  0  0  0  0  0  0  0  0
    0.8546    6.2339    1.8269 O   0  0  0  0  0  0  0  0  0  0  0  0
    0.9901    4.5241    0.0731 O   0  0  0  0  0  0  0  0  0  0  0  0
    1.1969    3.4196    0.9334 C   0  0  0  0  0  0  0  0  0  0  0  0
    2.2210    2.4212    0.3758 C   0  0  1  0  0  0  0  0  0  0  0  0
    1.8426    1.0988    0.6988 O   0  0  0  0  0  0  0  0  0  0  0  0
    2.2552    2.3610   -1.1614 C   0  0  1  0  0  0  0  0  0  0  0  0
    2.9365    3.4289   -1.7983 O   0  0  0  0  0  0  0  0  0  0  0  0
    2.8907    1.0006   -1.4470 C   0  0  1  0  0  0  0  0  0  0  0  0
    4.2993    1.0845   -1.5739 O   0  0  0  0  0  0  0  0  0  0  0  0
    2.5587    0.2360   -0.1669 C   0  0  2  0  0  0  0  0  0  0  0  0
    1.8454   -1.0445   -0.3601 N   0  0  0  0  0  0  0  0  0  0  0  0
    0.6187   -1.4593    0.0933 C   0  0  0  0  0  0  0  0  0  0  0  0
    0.3401   -2.7058   -0.1885 N   0  0  0  0  0  0  0  0  0  0  0  0
    1.4494   -3.1485   -0.9027 C   0  0  0  0  0  0  0  0  0  0  0  0
    1.7577   -4.4359   -1.4482 C   0  0  0  0  0  0  0  0  0  0  0  0
    1.0950   -5.4676   -1.3613 O   0  0  0  0  0  0  0  0  0  0  0  0
    2.9793   -4.4558   -2.1347 N   0  0  0  0  0  0  0  0  0  0  0  0
    3.7876   -3.3414   -2.3012 C   0  0  0  0  0  0  0  0  0  0  0  0
    4.8773   -3.4637   -3.0676 N   0  0  0  0  0  0  0  0  0  0  0  0
    3.5179   -2.1482   -1.7467 N   0  0  0  0  0  0  0  0  0  0  0  0
    2.3446   -2.1167   -1.0577 C   0  0  0  0  0  0  0  0  0  0  0  0
  1  2  2  0  0  0  0
  1  4  1  0  0  0  0
  1  3  1  0  0  0  0
  5  1  1  0  0  0  0
  6  7  2  6  0  0  0
  6  9  1  0  0  0  0
  6  5  1  0  0  0  0
  6  8  1  0  0  0  0
 10 11  2  6  0  0  0
 10 12  1  0  0  0  0
 10 13  1  0  0  0  0
 10  9  1  0  0  0  0
 13 14  1  0  0  0  0
 15 14  1  6  0  0  0
 15 16  1  0  0  0  0
 17 19  1  0  0  0  0
 17 15  1  0  0  0  0
 17 18  1  1  0  0  0
 19 21  1  0  0  0  0
 19 20  1  1  0  0  0
 21 16  1  0  0  0  0
 21 22  1  6  0  0  0
 22 32  1  0  0  0  0
 23 22  1  0  0  0  0
 23 24  2  0  0  0  0
 24 25  1  0  0  0  0
 25 26  1  0  0  0  0
 26 27  2  0  0  0  0
 26 28  1  0  0  0  0
 29 28  1  0  0  0  0
 29 30  1  0  0  0  0
 31 29  2  0  0  0  0
 32 25  2  0  0  0  0
 32 31  1  0  0  0  0
M  END
>  <CHROM.1>
-48.36461470,179.79236508,72.75347823,-70.65168128,-66.28197298,-166.95717244
-143.60300368,-143.89820464,-167.55971375,4.14805902,0.32663983,2.25229873
-0.32372353,2.06773721,0.09420765,0.17404400

>  <Name>
lig.pdb

>  <RI>
4.14043e+07

>  <Rbt.Current_Directory>
/home/itssahil/PROJECTS/Mol_Feturizer/New_Systems/rnas/5lwj

>  <Rbt.Executable>
rbdock ($Id: //depot/dev/client3/rdock/2013.1/src/exe/rbdock.cxx#4 $)

>  <Rbt.Library>
libRbt.so (2013.1, Build901 2013/11/27)

>  <Rbt.Parameter_File>
/export/apps/rDock/src/rDock_2013.1_src/data/scripts/dock_solv.prm

>  <Rbt.Receptor>
prm/blind_docking_80.prm

>  <SCORE>
-32.0256

>  <SCORE.INTER>
-33.9066

>  <SCORE.INTER.CONST>
1

>  <SCORE.INTER.POLAR>
-2.87358

>  <SCORE.INTER.ROT>
8

>  <SCORE.INTER.SOLV>
22.5421

>  <SCORE.INTER.VDW>
-29.4732

>  <SCORE.INTER.norm>
-1.05958

>  <SCORE.INTRA>
1.22487

>  <SCORE.INTRA.DIHEDRAL>
2.29011

>  <SCORE.INTRA.DIHEDRAL.0>
10.9248

>  <SCORE.INTRA.POLAR>
0

>  <SCORE.INTRA.POLAR.0>
0

>  <SCORE.INTRA.REPUL>
0

>  <SCORE.INTRA.REPUL.0>
0

>  <SCORE.INTRA.SOLV>
1.13191

>  <SCORE.INTRA.SOLV.lig_0>
-51.4104

>  <SCORE.INTRA.VDW>
-0.486143

>  <SCORE.INTRA.VDW.0>
0.110327

>  <SCORE.INTRA.norm>
0.0382771

>  <SCORE.RESTR>
0.656211

>  <SCORE.RESTR.CAVITY>
0.656211

>  <SCORE.RESTR.norm>
0.0205066

>  <SCORE.SYSTEM>
0

>  <SCORE.SYSTEM.CONST>
0

>  <SCORE.SYSTEM.DIHEDRAL>
0

>  <SCORE.SYSTEM.SOLV>
0

>  <SCORE.SYSTEM.norm>
0

>  <SCORE.heavy>
32

>  <SCORE.norm>
-1.0008

>  <RMSD>
15.951

$$$$
lig.pdb
 OpenBabel11021811523D
libRbt.so/2013.1/901 2013/11/27
 32 34  0  0  0  0  0  0  0  0999 V2000
    1.1779   -3.0519   -1.1304 P   0  0  0  0  0  0  0  0  0  0  0  0
    1.4083   -4.0249    0.0002 O   0  0  0  0  0  0  0  0  0  0  0  0
    2.6261   -2.3421   -1.3071 O   0  0  0  0  0  0  0  0  0  0  0  0
    0.8928   -3.6020   -2.5057 O   0  0  0  0  0  0  0  0  0  0  0  0
    0.0123   -2.2732   -0.7594 O   0  0  0  0  0  0  0  0  0  0  0  0
    0.3476   -1.3969    0.3874 P   0  0  1  0  0  0  0  0  0  0  0  0
   -0.7770   -0.4538    0.5920 O   0  0  0  0  0  0  0  0  0  0  0  0
    0.5252   -2.2101    1.6129 O   0  0  0  0  0  0  0  0  0  0  0  0
    1.5981   -0.6536    0.0917 O   0  0  0  0  0  0  0  0  0  0  0  0
    2.0519    0.4993    0.9052 P   0  0  1  0  0  0  0  0  0  0  0  0
    1.4242    0.6028    2.2383 O   0  0  0  0  0  0  0  0  0  0  0  0
    3.5107    0.7476    0.8836 O   0  0  0  0  0  0  0  0  0  0  0  0
    1.4110    1.7625    0.1227 O   0  0  0  0  0  0  0  0  0  0  0  0
    2.1493    2.9382   -0.1519 C   0  0  0  0  0  0  0  0  0  0  0  0
    1.5093    4.1928    0.4585 C   0  0  1  0  0  0  0  0  0  0  0  0
    1.1018    5.0812   -0.5618 O   0  0  0  0  0  0  0  0  0  0  0  0
    0.1756    3.9220    1.1766 C   0  0  1  0  0  0  0  0  0  0  0  0
    0.2842    3.3400    2.4649 O   0  0  0  0  0  0  0  0  0  0  0  0
   -0.4958    5.2948    1.2030 C   0  0  1  0  0  0  0  0  0  0  0  0
   -0.1869    6.0186    2.3811 O   0  0  0  0  0  0  0  0  0  0  0  0
    0.1743    5.9831    0.0153 C   0  0  2  0  0  0  0  0  0  0  0  0
   -0.7473    6.5309   -1.0028 N   0  0  0  0  0  0  0  0  0  0  0  0
   -2.0989    6.3610   -1.1659 C   0  0  0  0  0  0  0  0  0  0  0  0
   -2.5800    6.9213   -2.2453 N   0  0  0  0  0  0  0  0  0  0  0  0
   -1.4752    7.5303   -2.8329 C   0  0  0  0  0  0  0  0  0  0  0  0
   -1.3522    8.2644   -4.0560 C   0  0  0  0  0  0  0  0  0  0  0  0
   -2.2263    8.4842   -4.8920 O   0  0  0  0  0  0  0  0  0  0  0  0
   -0.0540    8.7462   -4.2714 N   0  0  0  0  0  0  0  0  0  0  0  0
    0.9927    8.5649   -3.3800 C   0  0  0  0  0  0  0  0  0  0  0  0
    2.1581    9.1644   -3.6482 N   0  0  0  0  0  0  0  0  0  0  0  0
    0.8845    7.8347   -2.2580 N   0  0  0  0  0  0  0  0  0  0  0  0
   -0.3655    7.3407   -2.0438 C   0  0  0  0  0  0  0  0  0  0  0  0
  1  2  2  0  0  0  0
  1  4  1  0  0  0  0
  1  3  1  0  0  0  0
  5  1  1  0  0  0  0
  6  7  2  1  0  0  0
  6  9  1  0  0  0  0
  6  5  1  0  0  0  0
  6  8  1  0  0  0  0
 10 11  2  1  0  0  0
 10 12  1  0  0  0  0
 10 13  1  0  0  0  0
 10  9  1  0  0  0  0
 13 14  1  0  0  0  0
 15 14  1  6  0  0  0
 15 16  1  0  0  0  0
 17 19  1  0  0  0  0
 17 15  1  0  0  0  0
 17 18  1  1  0  0  0
 19 21  1  0  0  0  0
 19 20  1  1  0  0  0
 21 16  1  0  0  0  0
 21 22  1  6  0  0  0
 22 32  1  0  0  0  0
 23 22  1  0  0  0  0
 23 24  2  0  0  0  0
 24 25  1  0  0  0  0
 25 26  1  0  0  0  0
 26 27  2  0  0  0  0
 26 28  1  0  0  0  0
 29 28  1  0  0  0  0
 29 30  1  0  0  0  0
 31 29  2  0  0  0  0
 32 25  2  0  0  0  0
 32 31  1  0  0  0  0
M  END
>  <CHROM.1>
68.93265228,167.18914194,170.37481800,-134.89328810,17.78799576,-121.29548700
-115.93039111,146.15291194,43.76055412,113.43045932,0.56154066,2.67650241
-0.60174610,0.68993591,1.36661672,-2.51707412

>  <Name>
lig.pdb

>  <RI>
4.14043e+07

>  <Rbt.Current_Directory>
/home/itssahil/PROJECTS/Mol_Feturizer/New_Systems/rnas/5lwj

>  <Rbt.Executable>
rbdock ($Id: //depot/dev/client3/rdock/2013.1/src/exe/rbdock.cxx#4 $)

>  <Rbt.Library>
libRbt.so (2013.1, Build901 2013/11/27)

>  <Rbt.Parameter_File>
/export/apps/rDock/src/rDock_2013.1_src/data/scripts/dock_solv.prm

>  <Rbt.Receptor>
prm/blind_docking_80.prm

>  <SCORE>
6.84262

>  <SCORE.INTER>
0.136526

>  <SCORE.INTER.CONST>
1

>  <SCORE.INTER.POLAR>
-2.7485

>  <SCORE.INTER.ROT>
8

>  <SCORE.INTER.SOLV>
24.9713

>  <SCORE.INTER.VDW>
-8.00441

>  <SCORE.INTER.norm>
0.00426643

>  <SCORE.INTRA>
6.47352

>  <SCORE.INTRA.DIHEDRAL>
13.6129

>  <SCORE.INTRA.DIHEDRAL.0>
10.9248

>  <SCORE.INTRA.POLAR>
0

>  <SCORE.INTRA.POLAR.0>
0

>  <SCORE.INTRA.REPUL>
0

>  <SCORE.INTRA.REPUL.0>
0

>  <SCORE.INTRA.SOLV>
1.53413

>  <SCORE.INTRA.SOLV.lig_0>
-51.4104

>  <SCORE.INTRA.VDW>
-1.10001

>  <SCORE.INTRA.VDW.0>
0.110327

>  <SCORE.INTRA.norm>
0.202297

>  <SCORE.RESTR>
0.232575

>  <SCORE.RESTR.CAVITY>
0.232575

>  <SCORE.RESTR.norm>
0.00726796

>  <SCORE.SYSTEM>
0

>  <SCORE.SYSTEM.CONST>
0

>  <SCORE.SYSTEM.DIHEDRAL>
0

>  <SCORE.SYSTEM.SOLV>
0

>  <SCORE.SYSTEM.norm>
0

>  <SCORE.heavy>
32

>  <SCORE.norm>
0.213832

>  <RMSD>
15.963

$$$$
lig.pdb
 OpenBabel11021811523D
libRbt.so/2013.1/901 2013/11/27
 32 34  0  0  0  0  0  0  0  0999 V2000
   -1.0103    7.9274   -1.4179 P   0  0  0  0  0  0  0  0  0  0  0  0
   -2.4849    8.0955   -1.6922 O   0  0  0  0  0  0  0  0  0  0  0  0
   -0.5706    6.7667   -2.4628 O   0  0  0  0  0  0  0  0  0  0  0  0
   -0.0814    9.0666   -1.7563 O   0  0  0  0  0  0  0  0  0  0  0  0
   -0.8885    7.7207    0.0122 O   0  0  0  0  0  0  0  0  0  0  0  0
   -1.1747    6.3027    0.3330 P   0  0  1  0  0  0  0  0  0  0  0  0
   -1.4001    6.1962    1.7938 O   0  0  0  0  0  0  0  0  0  0  0  0
   -2.3960    5.8578   -0.3779 O   0  0  0  0  0  0  0  0  0  0  0  0
   -0.0213    5.4617   -0.0745 O   0  0  0  0  0  0  0  0  0  0  0  0
    0.7496    4.6432    0.8912 P   0  0  1  0  0  0  0  0  0  0  0  0
    1.8284    5.3666    1.5945 O   0  0  0  0  0  0  0  0  0  0  0  0
   -0.0634    3.7520    1.7486 O   0  0  0  0  0  0  0  0  0  0  0  0
    1.5772    3.6400   -0.0718 O   0  0  0  0  0  0  0  0  0  0  0  0
    2.4906    2.6849    0.4342 C   0  0  0  0  0  0  0  0  0  0  0  0
    3.3492    2.0482   -0.6675 C   0  0  1  0  0  0  0  0  0  0  0  0
    3.3393    0.6406   -0.5449 O   0  0  0  0  0  0  0  0  0  0  0  0
    2.7781    2.2342   -2.0842 C   0  0  1  0  0  0  0  0  0  0  0  0
    2.9764    3.5154   -2.6581 O   0  0  0  0  0  0  0  0  0  0  0  0
    3.4493    1.1180   -2.8843 C   0  0  1  0  0  0  0  0  0  0  0  0
    4.6599    1.5438   -3.4844 O   0  0  0  0  0  0  0  0  0  0  0  0
    3.7759    0.1103   -1.7837 C   0  0  2  0  0  0  0  0  0  0  0  0
    3.2514   -1.2553   -1.9984 N   0  0  0  0  0  0  0  0  0  0  0  0
    2.2743   -1.9505   -1.3317 C   0  0  0  0  0  0  0  0  0  0  0  0
    2.1335   -3.1878   -1.7316 N   0  0  0  0  0  0  0  0  0  0  0  0
    3.0663   -3.3218   -2.7556 C   0  0  0  0  0  0  0  0  0  0  0  0
    3.4187   -4.4544   -3.5575 C   0  0  0  0  0  0  0  0  0  0  0  0
    2.9777   -5.5991   -3.4769 O   0  0  0  0  0  0  0  0  0  0  0  0
    4.3979   -4.1577   -4.5151 N   0  0  0  0  0  0  0  0  0  0  0  0
    4.9426   -2.8950   -4.6941 C   0  0  0  0  0  0  0  0  0  0  0  0
    5.7914   -2.7149   -5.7123 N   0  0  0  0  0  0  0  0  0  0  0  0
    4.6443   -1.8476   -3.9081 N   0  0  0  0  0  0  0  0  0  0  0  0
    3.7098   -2.1239   -2.9579 C   0  0  0  0  0  0  0  0  0  0  0  0
  1  2  2  0  0  0  0
  1  4  1  0  0  0  0
  1  3  1  0  0  0  0
  5  1  1  0  0  0  0
  6  7  2  1  0  0  0
  6  9  1  0  0  0  0
  6  5  1  0  0  0  0
  6  8  1  0  0  0  0
 10 11  2  1  0  0  0
 10 12  1  0  0  0  0
 10 13  1  0  0  0  0
 10  9  1  0  0  0  0
 13 14  1  0  0  0  0
 15 14  1  1  0  0  0
 15 16  1  0  0  0  0
 17 19  1  0  0  0  0
 17 15  1  0  0  0  0
 17 18  1  6  0  0  0
 19 21  1  0  0  0  0
 19 20  1  1  0  0  0
 21 16  1  0  0  0  0
 21 22  1  6  0  0  0
 22 32  1  0  0  0  0
 23 22  1  0  0  0  0
 23 24  2  0  0  0  0
 24 25  1  0  0  0  0
 25 26  1  0  0  0  0
 26 27  2  0  0  0  0
 26 28  1  0  0  0  0
 29 28  1  0  0  0  0
 29 30  1  0  0  0  0
 31 29  2  0  0  0  0
 32 25  2  0  0  0  0
 32 31  1  0  0  0  0
M  END
>  <CHROM.1>
81.40739108,119.38530780,-165.10436332,178.28290769,-85.01416287,-168.68637706
-130.77900986,-147.37422870,-159.50614791,12.54834510,1.60715209,2.53740436
-1.42528040,-2.58269484,-1.04697781,2.51341985

>  <Name>
lig.pdb

>  <RI>
1.2169e+07

>  <Rbt.Current_Directory>
/home/itssahil/PROJECTS/Mol_Feturizer/New_Systems/rnas/5lwj

>  <Rbt.Executable>
rbdock ($Id: //depot/dev/client3/rdock/2013.1/src/exe/rbdock.cxx#4 $)

>  <Rbt.Library>
libRbt.so (2013.1, Build901 2013/11/27)

>  <Rbt.Parameter_File>
/export/apps/rDock/src/rDock_2013.1_src/data/scripts/dock_solv.prm

>  <Rbt.Receptor>
prm/blind_docking_40.prm

>  <SCORE>
-38.5441

>  <SCORE.INTER>
-40.2692

>  <SCORE.INTER.CONST>
1

>  <SCORE.INTER.POLAR>
-4.03262

>  <SCORE.INTER.ROT>
8

>  <SCORE.INTER.SOLV>
29.0183

>  <SCORE.INTER.VDW>
-32.0101

>  <SCORE.INTER.norm>
-1.25841

>  <SCORE.INTRA>
1.00336

>  <SCORE.INTRA.DIHEDRAL>
6.98984

>  <SCORE.INTRA.DIHEDRAL.0>
10.9248

>  <SCORE.INTRA.POLAR>
0

>  <SCORE.INTRA.POLAR.0>
0

>  <SCORE.INTRA.REPUL>
0

>  <SCORE.INTRA.REPUL.0>
0

>  <SCORE.INTRA.SOLV>
-0.195077

>  <SCORE.INTRA.SOLV.lig_0>
-51.4104

>  <SCORE.INTRA.VDW>
-2.39402

>  <SCORE.INTRA.VDW.0>
0.110327

>  <SCORE.INTRA.norm>
0.031355

>  <SCORE.RESTR>
0.721666

>  <SCORE.RESTR.CAVITY>
0.721666

>  <SCORE.RESTR.norm>
0.0225521

>  <SCORE.SYSTEM>
0

>  <SCORE.SYSTEM.CONST>
0

>  <SCORE.SYSTEM.DIHEDRAL>
0

>  <SCORE.SYSTEM.SOLV>
0

>  <SCORE.SYSTEM.norm>
0

>  <SCORE.heavy>
32

>  <SCORE.norm>
-1.2045

>  <RMSD>
15.969

$$$$
lig.pdb
 OpenBabel11021811523D
libRbt.so/2013.1/901 2013/11/27
 32 34  0  0  0  0  0  0  0  0999 V2000
   -3.7212    6.5414   -1.0824 P   0  0  0  0  0  0  0  0  0  0  0  0
   -4.8504    6.0297   -0.2214 O   0  0  0  0  0  0  0  0  0  0  0  0
   -4.3565    6.5193   -2.5752 O   0  0  0  0  0  0  0  0  0  0  0  0
   -3.2819    7.9746   -0.9152 O   0  0  0  0  0  0  0  0  0  0  0  0
   -2.5667    5.7265   -0.7572 O   0  0  0  0  0  0  0  0  0  0  0  0
   -2.3667    5.7158    0.7110 P   0  0  1  0  0  0  0  0  0  0  0  0
   -2.4951    7.1072    1.2045 O   0  0  0  0  0  0  0  0  0  0  0  0
   -3.4015    4.8763    1.3583 O   0  0  0  0  0  0  0  0  0  0  0  0
   -1.0177    5.1797    1.0216 O   0  0  0  0  0  0  0  0  0  0  0  0
    0.2261    5.8103    0.5194 P   0  0  1  0  0  0  0  0  0  0  0  0
    0.0556    6.6406   -0.6902 O   0  0  0  0  0  0  0  0  0  0  0  0
    1.0959    6.4002    1.5613 O   0  0  0  0  0  0  0  0  0  0  0  0
    1.0644    4.5462   -0.0447 O   0  0  0  0  0  0  0  0  0  0  0  0
    1.6965    3.6130    0.8109 C   0  0  0  0  0  0  0  0  0  0  0  0
    1.4510    2.1595    0.3826 C   0  0  1  0  0  0  0  0  0  0  0  0
    2.0597    1.9071   -0.8672 O   0  0  0  0  0  0  0  0  0  0  0  0
    2.1522    1.1223    1.2773 C   0  0  1  0  0  0  0  0  0  0  0  0
    1.5259    0.8699    2.5240 O   0  0  0  0  0  0  0  0  0  0  0  0
    2.2226   -0.1196    0.3891 C   0  0  1  0  0  0  0  0  0  0  0  0
    1.0972   -0.9632    0.5593 O   0  0  0  0  0  0  0  0  0  0  0  0
    2.1632    0.5012   -1.0054 C   0  0  2  0  0  0  0  0  0  0  0  0
    3.2705    0.1303   -1.9122 N   0  0  0  0  0  0  0  0  0  0  0  0
    4.3010    0.8831   -2.4158 C   0  0  0  0  0  0  0  0  0  0  0  0
    5.0528    0.2486   -3.2778 N   0  0  0  0  0  0  0  0  0  0  0  0
    4.4998   -1.0272   -3.3358 C   0  0  0  0  0  0  0  0  0  0  0  0
    4.8537   -2.1646   -4.1303 C   0  0  0  0  0  0  0  0  0  0  0  0
    5.7315   -2.2391   -4.9877 O   0  0  0  0  0  0  0  0  0  0  0  0
    4.0558   -3.2845   -3.8600 N   0  0  0  0  0  0  0  0  0  0  0  0
    3.0545   -3.3036   -2.9008 C   0  0  0  0  0  0  0  0  0  0  0  0
    2.4343   -4.4647   -2.6621 N   0  0  0  0  0  0  0  0  0  0  0  0
    2.6944   -2.2208   -2.1926 N   0  0  0  0  0  0  0  0  0  0  0  0
    3.4456   -1.1173   -2.4581 C   0  0  0  0  0  0  0  0  0  0  0  0
  1  2  2  0  0  0  0
  1  4  1  0  0  0  0
  1  3  1  0  0  0  0
  5  1  1  0  0  0  0
  6  7  2  1  0  0  0
  6  9  1  0  0  0  0
  6  5  1  0  0  0  0
  6  8  1  0  0  0  0
 10 11  2  6  0  0  0
 10 12  1  0  0  0  0
 10 13  1  0  0  0  0
 10  9  1  0  0  0  0
 13 14  1  0  0  0  0
 15 14  1  1  0  0  0
 15 16  1  0  0  0  0
 17 19  1  0  0  0  0
 17 15  1  0  0  0  0
 17 18  1  1  0  0  0
 19 21  1  0  0  0  0
 19 20  1  1  0  0  0
 21 16  1  0  0  0  0
 21 22  1  6  0  0  0
 22 32  1  0  0  0  0
 23 22  1  0  0  0  0
 23 24  2  0  0  0  0
 24 25  1  0  0  0  0
 25 26  1  0  0  0  0
 26 27  2  0  0  0  0
 26 28  1  0  0  0  0
 29 28  1  0  0  0  0
 29 30  1  0  0  0  0
 31 29  2  0  0  0  0
 32 25  2  0  0  0  0
 32 31  1  0  0  0  0
M  END
>  <CHROM.1>
-51.87575080,59.41608163,-45.67439049,-73.87603589,-22.82616280,134.68457732
65.57210633,160.02692942,-65.26876296,12.83797746,0.57814701,2.69201856,-0.77288339
2.48000378,-0.71918620,1.01476461

>  <Name>
lig.pdb

>  <RI>
2.72908e+07

>  <Rbt.Current_Directory>
/home/itssahil/PROJECTS/Mol_Feturizer/New_Systems/rnas/5lwj

>  <Rbt.Executable>
rbdock ($Id: //depot/dev/client3/rdock/2013.1/src/exe/rbdock.cxx#4 $)

>  <Rbt.Library>
libRbt.so (2013.1, Build901 2013/11/27)

>  <Rbt.Parameter_File>
/export/apps/rDock/src/rDock_2013.1_src/data/scripts/dock_solv.prm

>  <Rbt.Receptor>
prm/blind_docking_20.prm

>  <SCORE>
-27.0832

>  <SCORE.INTER>
-30.2772

>  <SCORE.INTER.CONST>
1

>  <SCORE.INTER.POLAR>
-2.0425

>  <SCORE.INTER.ROT>
8

>  <SCORE.INTER.SOLV>
22.2624

>  <SCORE.INTER.VDW>
-29.7306

>  <SCORE.INTER.norm>
-0.946163

>  <SCORE.INTRA>
2.28054

>  <SCORE.INTRA.DIHEDRAL>
2.86022

>  <SCORE.INTRA.DIHEDRAL.0>
10.9248

>  <SCORE.INTRA.POLAR>
0

>  <SCORE.INTRA.POLAR.0>
0

>  <SCORE.INTRA.REPUL>
0

>  <SCORE.INTRA.REPUL.0>
0

>  <SCORE.INTRA.SOLV>
0.96885

>  <SCORE.INTRA.SOLV.lig_0>
-51.4104

>  <SCORE.INTRA.VDW>
0.366005

>  <SCORE.INTRA.VDW.0>
0.110327

>  <SCORE.INTRA.norm>
0.0712669

>  <SCORE.RESTR>
0.913476

>  <SCORE.RESTR.CAVITY>
0.913476

>  <SCORE.RESTR.norm>
0.0285461

>  <SCORE.SYSTEM>
0

>  <SCORE.SYSTEM.CONST>
0

>  <SCORE.SYSTEM.DIHEDRAL>
0

>  <SCORE.SYSTEM.SOLV>
0

>  <SCORE.SYSTEM.norm>
0

>  <SCORE.heavy>
32

>  <SCORE.norm>
-0.84635

>  <RMSD>
15.981

$$$$
lig.pdb
 OpenBabel11021811523D
libRbt.so/2013.1/901 2013/11/27
 32 34  0  0  0  0  0  0  0  0999 V2000
   -1.5062    6.9384   -0.2817 P   0  0  0  0  0  0  0  0  0  0  0  0
   -0.4993    7.9633   -0.7441 O   0  0  0  0  0  0  0  0  0  0  0  0
   -2.8447    7.8215   -0.0345 O   0  0  0  0  0  0  0  0  0  0  0  0
   -1.9628    5.8860   -1.2610 O   0  0  0  0  0  0  0  0  0  0  0  0
   -0.8785    6.2236    0.8128 O   0  0  0  0  0  0  0  0  0  0  0  0
    0.5354    5.9404    0.4721 P   0  0  1  0  0  0  0  0  0  0  0  0
    0.5814    5.4252   -0.9166 O   0  0  0  0  0  0  0  0  0  0  0  0
    1.3361    7.1842    0.5526 O   0  0  0  0  0  0  0  0  0  0  0  0
    1.0781    4.9313    1.4159 O   0  0  0  0  0  0  0  0  0  0  0  0
    0.8733    3.4750    1.2310 P   0  0  1  0  0  0  0  0  0  0  0  0
    1.3909    2.6319    2.3279 O   0  0  0  0  0  0  0  0  0  0  0  0
   -0.4630    3.0879    0.7264 O   0  0  0  0  0  0  0  0  0  0  0  0
    1.8854    3.1234    0.0182 O   0  0  0  0  0  0  0  0  0  0  0  0
    2.5681    1.8867   -0.0652 C   0  0  0  0  0  0  0  0  0  0  0  0
    3.6713    1.8925   -1.1325 C   0  0  1  0  0  0  0  0  0  0  0  0
    4.2145    0.5969   -1.2834 O   0  0  0  0  0  0  0  0  0  0  0  0
    3.1566    2.1741   -2.5550 C   0  0  1  0  0  0  0  0  0  0  0  0
    2.8623    3.5316   -2.8393 O   0  0  0  0  0  0  0  0  0  0  0  0
    4.2611    1.6093   -3.4480 C   0  0  1  0  0  0  0  0  0  0  0  0
    5.2354    2.5845   -3.7749 O   0  0  0  0  0  0  0  0  0  0  0  0
    4.8969    0.5719   -2.5245 C   0  0  2  0  0  0  0  0  0  0  0  0
    4.9717   -0.8007   -3.0690 N   0  0  0  0  0  0  0  0  0  0  0  0
    5.6953   -1.3050   -4.1199 C   0  0  0  0  0  0  0  0  0  0  0  0
    5.4423   -2.5601   -4.3874 N   0  0  0  0  0  0  0  0  0  0  0  0
    4.5003   -2.9278   -3.4313 C   0  0  0  0  0  0  0  0  0  0  0  0
    3.8052   -4.1632   -3.2299 C   0  0  0  0  0  0  0  0  0  0  0  0
    3.8726   -5.1837   -3.9121 O   0  0  0  0  0  0  0  0  0  0  0  0
    2.9529   -4.1311   -2.1180 N   0  0  0  0  0  0  0  0  0  0  0  0
    2.8219   -3.0347   -1.2792 C   0  0  0  0  0  0  0  0  0  0  0  0
    2.0567   -3.1643   -0.1895 N   0  0  0  0  0  0  0  0  0  0  0  0
    3.4390   -1.8624   -1.5000 N   0  0  0  0  0  0  0  0  0  0  0  0
    4.2551   -1.8691   -2.5892 C   0  0  0  0  0  0  0  0  0  0  0  0
  1  2  2  0  0  0  0
  1  4  1  0  0  0  0
  1  3  1  0  0  0  0
  5  1  1  0  0  0  0
  6  7  2  6  0  0  0
  6  9  1  0  0  0  0
  6  5  1  0  0  0  0
  6  8  1  0  0  0  0
 10 11  2  1  0  0  0
 10 12  1  0  0  0  0
 10 13  1  0  0  0  0
 10  9  1  0  0  0  0
 13 14  1  0  0  0  0
 15 14  1  1  0  0  0
 15 16  1  0  0  0  0
 17 19  1  0  0  0  0
 17 15  1  0  0  0  0
 17 18  1  1  0  0  0
 19 21  1  0  0  0  0
 19 20  1  1  0  0  0
 21 16  1  0  0  0  0
 21 22  1  6  0  0  0
 22 32  1  0  0  0  0
 23 22  1  0  0  0  0
 23 24  2  0  0  0  0
 24 25  1  0  0  0  0
 25 26  1  0  0  0  0
 26 27  2  0  0  0  0
 26 28  1  0  0  0  0
 29 28  1  0  0  0  0
 29 30  1  0  0  0  0
 31 29  2  0  0  0  0
 32 25  2  0  0  0  0
 32 31  1  0  0  0  0
M  END
>  <CHROM.1>
-42.31623672,83.18607944,-45.62266212,145.80035427,-175.21868745,-168.48546022
-173.20966932,124.66943942,52.45733268,-169.20153120,1.98814434,2.24632412
-1.10033672,-2.26255801,-0.78181145,2.94785364

>  <Name>
lig.pdb

>  <RI>
2.72908e+07

>  <Rbt.Current_Directory>
/home/itssahil/PROJECTS/Mol_Feturizer/New_Systems/rnas/5lwj

>  <Rbt.Executable>
rbdock ($Id: //depot/dev/client3/rdock/2013.1/src/exe/rbdock.cxx#4 $)

>  <Rbt.Library>
libRbt.so (2013.1, Build901 2013/11/27)

>  <Rbt.Parameter_File>
/export/apps/rDock/src/rDock_2013.1_src/data/scripts/dock_solv.prm

>  <Rbt.Receptor>
prm/blind_docking_20.prm

>  <SCORE>
-19.7855

>  <SCORE.INTER>
-29.4798

>  <SCORE.INTER.CONST>
1

>  <SCORE.INTER.POLAR>
-3.31247

>  <SCORE.INTER.ROT>
8

>  <SCORE.INTER.SOLV>
28.403

>  <SCORE.INTER.VDW>
-27.0126

>  <SCORE.INTER.norm>
-0.921242

>  <SCORE.INTRA>
8.36016

>  <SCORE.INTRA.DIHEDRAL>
3.61127

>  <SCORE.INTRA.DIHEDRAL.0>
10.9248

>  <SCORE.INTRA.POLAR>
0

>  <SCORE.INTRA.POLAR.0>
0

>  <SCORE.INTRA.REPUL>
0.827862

>  <SCORE.INTRA.REPUL.0>
0

>  <SCORE.INTRA.SOLV>
0.959723

>  <SCORE.INTRA.SOLV.lig_0>
-51.4104

>  <SCORE.INTRA.VDW>
1.93536

>  <SCORE.INTRA.VDW.0>
0.110327

>  <SCORE.INTRA.norm>
0.261255

>  <SCORE.RESTR>
1.33406

>  <SCORE.RESTR.CAVITY>
1.33406

>  <SCORE.RESTR.norm>
0.0416894

>  <SCORE.SYSTEM>
0

>  <SCORE.SYSTEM.CONST>
0

>  <SCORE.SYSTEM.DIHEDRAL>
0

>  <SCORE.SYSTEM.SOLV>
0

>  <SCORE.SYSTEM.norm>
0

>  <SCORE.heavy>
32

>  <SCORE.norm>
-0.618298

>  <RMSD>
15.996

$$$$
lig.pdb
 OpenBabel11021811523D
libRbt.so/2013.1/901 2013/11/27
 32 34  0  0  0  0  0  0  0  0999 V2000
   -3.5634    6.6303    0.3893 P   0  0  0  0  0  0  0  0  0  0  0  0
   -4.3438    6.6045    1.6809 O   0  0  0  0  0  0  0  0  0  0  0  0
   -4.4192    5.6487   -0.5785 O   0  0  0  0  0  0  0  0  0  0  0  0
   -3.5060    7.9201   -0.3906 O   0  0  0  0  0  0  0  0  0  0  0  0
   -2.1931    6.3120    0.7412 O   0  0  0  0  0  0  0  0  0  0  0  0
   -1.3175    6.5294   -0.4342 P   0  0  1  0  0  0  0  0  0  0  0  0
   -2.0806    6.1670   -1.6517 O   0  0  0  0  0  0  0  0  0  0  0  0
   -0.9240    7.9552   -0.5174 O   0  0  0  0  0  0  0  0  0  0  0  0
   -0.1063    5.6800   -0.3115 O   0  0  0  0  0  0  0  0  0  0  0  0
    0.4793    5.3106    0.9991 P   0  0  1  0  0  0  0  0  0  0  0  0
    1.3385    6.3463    1.6082 O   0  0  0  0  0  0  0  0  0  0  0  0
   -0.4511    4.6437    1.9370 O   0  0  0  0  0  0  0  0  0  0  0  0
    1.5497    4.1640    0.6013 O   0  0  0  0  0  0  0  0  0  0  0  0
    1.2679    2.7839    0.7372 C   0  0  0  0  0  0  0  0  0  0  0  0
    2.3569    1.8958    0.1192 C   0  0  1  0  0  0  0  0  0  0  0  0
    2.1686    0.5494    0.5043 O   0  0  0  0  0  0  0  0  0  0  0  0
    2.2737    1.7882   -1.4135 C   0  0  1  0  0  0  0  0  0  0  0  0
    2.7671    2.9072   -2.1308 O   0  0  0  0  0  0  0  0  0  0  0  0
    3.0440    0.5039   -1.7192 C   0  0  1  0  0  0  0  0  0  0  0  0
    4.4172    0.7499   -1.9663 O   0  0  0  0  0  0  0  0  0  0  0  0
    2.9115   -0.2510   -0.3978 C   0  0  2  0  0  0  0  0  0  0  0  0
    2.3451   -1.6129   -0.4997 N   0  0  0  0  0  0  0  0  0  0  0  0
    1.5848   -2.3313    0.3882 C   0  0  0  0  0  0  0  0  0  0  0  0
    1.3375   -3.5579    0.0073 N   0  0  0  0  0  0  0  0  0  0  0  0
    1.9558   -3.6587   -1.2353 C   0  0  0  0  0  0  0  0  0  0  0  0
    2.0738   -4.7670   -2.1341 C   0  0  0  0  0  0  0  0  0  0  0  0
    1.6686   -5.9157   -1.9685 O   0  0  0  0  0  0  0  0  0  0  0  0
    2.7559   -4.4388   -3.3135 N   0  0  0  0  0  0  0  0  0  0  0  0
    3.2343   -3.1688   -3.5987 C   0  0  0  0  0  0  0  0  0  0  0  0
    3.7742   -2.9562   -4.8041 N   0  0  0  0  0  0  0  0  0  0  0  0
    3.1639   -2.1450   -2.7323 N   0  0  0  0  0  0  0  0  0  0  0  0
    2.5228   -2.4523   -1.5716 C   0  0  0  0  0  0  0  0  0  0  0  0
  1  2  2  0  0  0  0
  1  4  1  0  0  0  0
  1  3  1  0  0  0  0
  5  1  1  0  0  0  0
  6  7  2  6  0  0  0
  6  9  1  0  0  0  0
  6  5  1  0  0  0  0
  6  8  1  0  0  0  0
 10 11  2  1  0  0  0
 10 12  1  0  0  0  0
 10 13  1  0  0  0  0
 10  9  1  0  0  0  0
 13 14  1  0  0  0  0
 15 14  1  1  0  0  0
 15 16  1  0  0  0  0
 17 19  1  0  0  0  0
 17 15  1  0  0  0  0
 17 18  1  6  0  0  0
 19 21  1  0  0  0  0
 19 20  1  1  0  0  0
 21 16  1  0  0  0  0
 21 22  1  6  0  0  0
 22 32  1  0  0  0  0
 23 22  1  0  0  0  0
 23 24  2  0  0  0  0
 24 25  1  0  0  0  0
 25 26  1  0  0  0  0
 26 27  2  0  0  0  0
 26 28  1  0  0  0  0
 29 28  1  0  0  0  0
 29 30  1  0  0  0  0
 31 29  2  0  0  0  0
 32 25  2  0  0  0  0
 32 31  1  0  0  0  0
M  END
>  <CHROM.1>
-170.93083272,-30.70826287,-34.72296498,-99.16002685,-81.10026494,172.14288227
168.56030005,-95.02149473,-57.11733507,-24.70368315,0.57105567,2.32465515
-0.61572657,2.02375234,0.09456998,0.19428263

>  <Name>
lig.pdb

>  <RI>
4.14043e+07

>  <Rbt.Current_Directory>
/home/itssahil/PROJECTS/Mol_Feturizer/New_Systems/rnas/5lwj

>  <Rbt.Executable>
rbdock ($Id: //depot/dev/client3/rdock/2013.1/src/exe/rbdock.cxx#4 $)

>  <Rbt.Library>
libRbt.so (2013.1, Build901 2013/11/27)

>  <Rbt.Parameter_File>
/export/apps/rDock/src/rDock_2013.1_src/data/scripts/dock_solv.prm

>  <Rbt.Receptor>
prm/blind_docking_80.prm

>  <SCORE>
-33.7355

>  <SCORE.INTER>
-35.8932

>  <SCORE.INTER.CONST>
1

>  <SCORE.INTER.POLAR>
-2.6533

>  <SCORE.INTER.ROT>
8

>  <SCORE.INTER.SOLV>
23.2938

>  <SCORE.INTER.VDW>
-31.7824

>  <SCORE.INTER.norm>
-1.12166

>  <SCORE.INTRA>
1.96265

>  <SCORE.INTRA.DIHEDRAL>
1.56402

>  <SCORE.INTRA.DIHEDRAL.0>
10.9248

>  <SCORE.INTRA.POLAR>
-0.00665051

>  <SCORE.INTRA.POLAR.0>
0

>  <SCORE.INTRA.REPUL>
0

>  <SCORE.INTRA.REPUL.0>
0

>  <SCORE.INTRA.SOLV>
-0.468222

>  <SCORE.INTRA.SOLV.lig_0>
-51.4104

>  <SCORE.INTRA.VDW>
1.43736

>  <SCORE.INTRA.VDW.0>
0.110327

>  <SCORE.INTRA.norm>
0.0613329

>  <SCORE.RESTR>
0.195036

>  <SCORE.RESTR.CAVITY>
0.195036

>  <SCORE.RESTR.norm>
0.00609489

>  <SCORE.SYSTEM>
0

>  <SCORE.SYSTEM.CONST>
0

>  <SCORE.SYSTEM.DIHEDRAL>
0

>  <SCORE.SYSTEM.SOLV>
0

>  <SCORE.SYSTEM.norm>
0

>  <SCORE.heavy>
32

>  <SCORE.norm>
-1.05423

>  <RMSD>
16.016

$$$$
lig.pdb
 OpenBabel11021811523D
libRbt.so/2013.1/901 2013/11/27
 32 34  0  0  0  0  0  0  0  0999 V2000
   -4.5654    4.2435   -0.8102 P   0  0  0  0  0  0  0  0  0  0  0  0
   -3.4818    3.2654   -0.4264 O   0  0  0  0  0  0  0  0  0  0  0  0
   -5.6989    3.2946   -1.4790 O   0  0  0  0  0  0  0  0  0  0  0  0
   -5.3147    4.9543    0.2890 O   0  0  0  0  0  0  0  0  0  0  0  0
   -3.9144    5.2797   -1.5881 O   0  0  0  0  0  0  0  0  0  0  0  0
   -3.0295    6.0772   -0.7070 P   0  0  1  0  0  0  0  0  0  0  0  0
   -2.1963    6.9551   -1.5621 O   0  0  0  0  0  0  0  0  0  0  0  0
   -3.8425    6.9186    0.2018 O   0  0  0  0  0  0  0  0  0  0  0  0
   -2.1706    5.1637    0.0876 O   0  0  0  0  0  0  0  0  0  0  0  0
   -0.8852    5.5964    0.6856 P   0  0  1  0  0  0  0  0  0  0  0  0
    0.0400    6.2661   -0.2511 O   0  0  0  0  0  0  0  0  0  0  0  0
   -0.9953    6.2365    2.0154 O   0  0  0  0  0  0  0  0  0  0  0  0
   -0.1329    4.1920    0.9693 O   0  0  0  0  0  0  0  0  0  0  0  0
    1.2703    4.1026    1.1300 C   0  0  0  0  0  0  0  0  0  0  0  0
    1.7576    2.6531    1.2639 C   0  0  1  0  0  0  0  0  0  0  0  0
    1.4606    1.9255    0.0897 O   0  0  0  0  0  0  0  0  0  0  0  0
    3.2890    2.5169    1.3270 C   0  0  1  0  0  0  0  0  0  0  0  0
    3.8788    2.8397    2.5753 O   0  0  0  0  0  0  0  0  0  0  0  0
    3.5310    1.0645    0.9170 C   0  0  1  0  0  0  0  0  0  0  0  0
    3.5629    0.1921    2.0328 O   0  0  0  0  0  0  0  0  0  0  0  0
    2.2761    0.7673    0.0983 C   0  0  2  0  0  0  0  0  0  0  0  0
    2.5166    0.2692   -1.2728 N   0  0  0  0  0  0  0  0  0  0  0  0
    2.6605    0.9485   -2.4561 C   0  0  0  0  0  0  0  0  0  0  0  0
    2.7651    0.1747   -3.5054 N   0  0  0  0  0  0  0  0  0  0  0  0
    2.7121   -1.1142   -2.9833 C   0  0  0  0  0  0  0  0  0  0  0  0
    2.7351   -2.3889   -3.6350 C   0  0  0  0  0  0  0  0  0  0  0  0
    2.7697   -2.6153   -4.8428 O   0  0  0  0  0  0  0  0  0  0  0  0
    2.6947   -3.4603   -2.7326 N   0  0  0  0  0  0  0  0  0  0  0  0
    2.6719   -3.3065   -1.3546 C   0  0  0  0  0  0  0  0  0  0  0  0
    2.7421   -4.4072   -0.5977 N   0  0  0  0  0  0  0  0  0  0  0  0
    2.6016   -2.1094   -0.7498 N   0  0  0  0  0  0  0  0  0  0  0  0
    2.6183   -1.0572   -1.6130 C   0  0  0  0  0  0  0  0  0  0  0  0
  1  2  2  0  0  0  0
  1  4  1  0  0  0  0
  1  3  1  0  0  0  0
  5  1  1  0  0  0  0
  6  7  2  6  0  0  0
  6  9  1  0  0  0  0
  6  5  1  0  0  0  0
  6  8  1  0  0  0  0
 10 11  2  6  0  0  0
 10 12  1  0  0  0  0
 10 13  1  0  0  0  0
 10  9  1  0  0  0  0
 13 14  1  0  0  0  0
 15 14  1  6  0  0  0
 15 16  1  0  0  0  0
 17 19  1  0  0  0  0
 17 15  1  0  0  0  0
 17 18  1  1  0  0  0
 19 21  1  0  0  0  0
 19 20  1  1  0  0  0
 21 16  1  0  0  0  0
 21 22  1  6  0  0  0
 22 32  1  0  0  0  0
 23 22  1  0  0  0  0
 23 24  2  0  0  0  0
 24 25  1  0  0  0  0
 25 26  1  0  0  0  0
 26 27  2  0  0  0  0
 26 28  1  0  0  0  0
 29 28  1  0  0  0  0
 29 30  1  0  0  0  0
 31 29  2  0  0  0  0
 32 25  2  0  0  0  0
 32 31  1  0  0  0  0
M  END
>  <CHROM.1>
-69.06445505,157.79439945,169.70297811,159.02724882,-50.96512892,-174.88028873
62.21821885,-89.74318111,67.78332957,34.12338852,0.01001442,2.49202963,-0.50683214
2.37161688,-0.45114961,0.60383439

>  <Name>
lig.pdb

>  <RI>
4.14043e+07

>  <Rbt.Current_Directory>
/home/itssahil/PROJECTS/Mol_Feturizer/New_Systems/rnas/5lwj

>  <Rbt.Executable>
rbdock ($Id: //depot/dev/client3/rdock/2013.1/src/exe/rbdock.cxx#4 $)

>  <Rbt.Library>
libRbt.so (2013.1, Build901 2013/11/27)

>  <Rbt.Parameter_File>
/export/apps/rDock/src/rDock_2013.1_src/data/scripts/dock_solv.prm

>  <Rbt.Receptor>
prm/blind_docking_80.prm

>  <SCORE>
-0.349749

>  <SCORE.INTER>
-0.506873

>  <SCORE.INTER.CONST>
1

>  <SCORE.INTER.POLAR>
-1.57119

>  <SCORE.INTER.ROT>
8

>  <SCORE.INTER.SOLV>
26.3411

>  <SCORE.INTER.VDW>
-12.8143

>  <SCORE.INTER.norm>
-0.0158398

>  <SCORE.INTRA>
-0.752644

>  <SCORE.INTRA.DIHEDRAL>
-2.17345

>  <SCORE.INTRA.DIHEDRAL.0>
10.9248

>  <SCORE.INTRA.POLAR>
0

>  <SCORE.INTRA.POLAR.0>
0

>  <SCORE.INTRA.REPUL>
0.02592

>  <SCORE.INTRA.REPUL.0>
0

>  <SCORE.INTRA.SOLV>
-0.0457126

>  <SCORE.INTRA.SOLV.lig_0>
-51.4104

>  <SCORE.INTRA.VDW>
0.227337

>  <SCORE.INTRA.VDW.0>
0.110327

>  <SCORE.INTRA.norm>
-0.0235201

>  <SCORE.RESTR>
0.909768

>  <SCORE.RESTR.CAVITY>
0.909768

>  <SCORE.RESTR.norm>
0.0284303

>  <SCORE.SYSTEM>
0

>  <SCORE.SYSTEM.CONST>
0

>  <SCORE.SYSTEM.DIHEDRAL>
0

>  <SCORE.SYSTEM.SOLV>
0

>  <SCORE.SYSTEM.norm>
0

>  <SCORE.heavy>
32

>  <SCORE.norm>
-0.0109296

>  <RMSD>
16.025

$$$$
lig.pdb
 OpenBabel11021811523D
libRbt.so/2013.1/901 2013/11/27
 32 34  0  0  0  0  0  0  0  0999 V2000
   -1.0992    7.6310   -1.6496 P   0  0  0  0  0  0  0  0  0  0  0  0
   -0.4709    6.9809   -2.8581 O   0  0  0  0  0  0  0  0  0  0  0  0
    0.1827    8.0451   -0.7453 O   0  0  0  0  0  0  0  0  0  0  0  0
   -1.8285    8.9384   -1.8340 O   0  0  0  0  0  0  0  0  0  0  0  0
   -2.0827    6.6888   -1.1519 O   0  0  0  0  0  0  0  0  0  0  0  0
   -1.5604    6.0259    0.0660 P   0  0  1  0  0  0  0  0  0  0  0  0
   -1.5482    7.0210    1.1640 O   0  0  0  0  0  0  0  0  0  0  0  0
   -2.4409    4.8971    0.4469 O   0  0  0  0  0  0  0  0  0  0  0  0
   -0.1869    5.5265   -0.1941 O   0  0  0  0  0  0  0  0  0  0  0  0
    0.6114    4.8163    0.8332 P   0  0  1  0  0  0  0  0  0  0  0  0
    1.5929    5.6582    1.5470 O   0  0  0  0  0  0  0  0  0  0  0  0
   -0.1560    3.8893    1.6945 O   0  0  0  0  0  0  0  0  0  0  0  0
    1.5626    3.8550   -0.0556 O   0  0  0  0  0  0  0  0  0  0  0  0
    2.0999    2.6460    0.4467 C   0  0  0  0  0  0  0  0  0  0  0  0
    2.9371    1.8938   -0.5971 C   0  0  1  0  0  0  0  0  0  0  0  0
    2.8989    0.5037   -0.3472 O   0  0  0  0  0  0  0  0  0  0  0  0
    2.3600    1.9627   -2.0219 C   0  0  1  0  0  0  0  0  0  0  0  0
    2.5808    3.1821   -2.7107 O   0  0  0  0  0  0  0  0  0  0  0  0
    3.0020    0.7646   -2.7208 C   0  0  1  0  0  0  0  0  0  0  0  0
    4.2169    1.1083   -3.3634 O   0  0  0  0  0  0  0  0  0  0  0  0
    3.3154   -0.1460   -1.5350 C   0  0  2  0  0  0  0  0  0  0  0  0
    2.7611   -1.5139   -1.6220 N   0  0  0  0  0  0  0  0  0  0  0  0
    1.7925   -2.1330   -0.8731 C   0  0  0  0  0  0  0  0  0  0  0  0
    1.6183   -3.3958   -1.1661 N   0  0  0  0  0  0  0  0  0  0  0  0
    2.5177   -3.6311   -2.2017 C   0  0  0  0  0  0  0  0  0  0  0  0
    2.8262   -4.8320   -2.9176 C   0  0  0  0  0  0  0  0  0  0  0  0
    2.3680   -5.9574   -2.7310 O   0  0  0  0  0  0  0  0  0  0  0  0
    3.7814   -4.6337   -3.9237 N   0  0  0  0  0  0  0  0  0  0  0  0
    4.3424   -3.4008   -4.2210 C   0  0  0  0  0  0  0  0  0  0  0  0
    5.1634   -3.3210   -5.2742 N   0  0  0  0  0  0  0  0  0  0  0  0
    4.0859   -2.2872   -3.5154 N   0  0  0  0  0  0  0  0  0  0  0  0
    3.1756   -2.4666   -2.5197 C   0  0  0  0  0  0  0  0  0  0  0  0
  1  2  2  0  0  0  0
  1  4  1  0  0  0  0
  1  3  1  0  0  0  0
  5  1  1  0  0  0  0
  6  7  2  1  0  0  0
  6  9  1  0  0  0  0
  6  5  1  0  0  0  0
  6  8  1  0  0  0  0
 10 11  2  1  0  0  0
 10 12  1  0  0  0  0
 10 13  1  0  0  0  0
 10  9  1  0  0  0  0
 13 14  1  0  0  0  0
 15 14  1  1  0  0  0
 15 16  1  0  0  0  0
 17 19  1  0  0  0  0
 17 15  1  0  0  0  0
 17 18  1  6  0  0  0
 19 21  1  0  0  0  0
 19 20  1  1  0  0  0
 21 16  1  0  0  0  0
 21 22  1  6  0  0  0
 22 32  1  0  0  0  0
 23 22  1  0  0  0  0
 23 24  2  0  0  0  0
 24 25  1  0  0  0  0
 25 26  1  0  0  0  0
 26 27  2  0  0  0  0
 26 28  1  0  0  0  0
 29 28  1  0  0  0  0
 29 30  1  0  0  0  0
 31 29  2  0  0  0  0
 32 25  2  0  0  0  0
 32 31  1  0  0  0  0
M  END
>  <CHROM.1>
104.46288461,179.86771289,71.00236186,-154.22974580,-98.46061129,178.41337781
-151.32643877,62.14159054,-60.18505449,11.12895049,1.28793618,2.33808130
-1.30683662,-2.39621591,-1.01982347,2.64934341

>  <Name>
lig.pdb

>  <RI>
3.17878e+07

>  <Rbt.Current_Directory>
/home/itssahil/PROJECTS/Mol_Feturizer/New_Systems/rnas/5lwj

>  <Rbt.Executable>
rbdock ($Id: //depot/dev/client3/rdock/2013.1/src/exe/rbdock.cxx#4 $)

>  <Rbt.Library>
libRbt.so (2013.1, Build901 2013/11/27)

>  <Rbt.Parameter_File>
/export/apps/rDock/src/rDock_2013.1_src/data/scripts/dock_solv.prm

>  <Rbt.Receptor>
prm/blind_docking_100.prm

>  <SCORE>
-36.316

>  <SCORE.INTER>
-33.311

>  <SCORE.INTER.CONST>
1

>  <SCORE.INTER.POLAR>
-2.3694

>  <SCORE.INTER.ROT>
8

>  <SCORE.INTER.SOLV>
27.6455

>  <SCORE.INTER.VDW>
-32.4578

>  <SCORE.INTER.norm>
-1.04097

>  <SCORE.INTRA>
-3.08531

>  <SCORE.INTRA.DIHEDRAL>
-1.30747

>  <SCORE.INTRA.DIHEDRAL.0>
10.9248

>  <SCORE.INTRA.POLAR>
0

>  <SCORE.INTRA.POLAR.0>
0

>  <SCORE.INTRA.REPUL>
0

>  <SCORE.INTRA.REPUL.0>
0

>  <SCORE.INTRA.SOLV>
0.339684

>  <SCORE.INTRA.SOLV.lig_0>
-51.4104

>  <SCORE.INTRA.VDW>
-2.60142

>  <SCORE.INTRA.VDW.0>
0.110327

>  <SCORE.INTRA.norm>
-0.096416

>  <SCORE.RESTR>
0.0803367

>  <SCORE.RESTR.CAVITY>
0.0803367

>  <SCORE.RESTR.norm>
0.00251052

>  <SCORE.SYSTEM>
0

>  <SCORE.SYSTEM.CONST>
0

>  <SCORE.SYSTEM.DIHEDRAL>
0

>  <SCORE.SYSTEM.SOLV>
0

>  <SCORE.SYSTEM.norm>
0

>  <SCORE.heavy>
32

>  <SCORE.norm>
-1.13487

>  <RMSD>
16.028

$$$$
lig.pdb
 OpenBabel11021811523D
libRbt.so/2013.1/901 2013/11/27
 32 34  0  0  0  0  0  0  0  0999 V2000
    2.8160   -3.8097   -3.4163 P   0  0  0  0  0  0  0  0  0  0  0  0
    3.6458   -4.2327   -2.2286 O   0  0  0  0  0  0  0  0  0  0  0  0
    3.8023   -4.0893   -4.6739 O   0  0  0  0  0  0  0  0  0  0  0  0
    1.5858   -4.6133   -3.7569 O   0  0  0  0  0  0  0  0  0  0  0  0
    2.3513   -2.4675   -3.1244 O   0  0  0  0  0  0  0  0  0  0  0  0
    3.5154   -1.5813   -2.8892 P   0  0  1  0  0  0  0  0  0  0  0  0
    4.0333   -1.8513   -1.5273 O   0  0  0  0  0  0  0  0  0  0  0  0
    4.5808   -1.8698   -3.8772 O   0  0  0  0  0  0  0  0  0  0  0  0
    3.0893   -0.1643   -3.0085 O   0  0  0  0  0  0  0  0  0  0  0  0
    3.9693    0.9674   -2.6322 P   0  0  1  0  0  0  0  0  0  0  0  0
    4.7404    0.7662   -1.3885 O   0  0  0  0  0  0  0  0  0  0  0  0
    4.7345    1.5660   -3.7485 O   0  0  0  0  0  0  0  0  0  0  0  0
    2.9116    2.1138   -2.2011 O   0  0  0  0  0  0  0  0  0  0  0  0
    2.2410    2.0967   -0.9550 C   0  0  0  0  0  0  0  0  0  0  0  0
    2.1757    3.4839   -0.3010 C   0  0  1  0  0  0  0  0  0  0  0  0
    1.2208    4.2915   -0.9586 O   0  0  0  0  0  0  0  0  0  0  0  0
    1.6230    3.4673    1.1349 C   0  0  1  0  0  0  0  0  0  0  0  0
    2.5307    3.0303    2.1325 O   0  0  0  0  0  0  0  0  0  0  0  0
    1.1568    4.9070    1.3500 C   0  0  1  0  0  0  0  0  0  0  0  0
    2.1710    5.7186    1.9156 O   0  0  0  0  0  0  0  0  0  0  0  0
    0.9084    5.3632   -0.0865 C   0  0  2  0  0  0  0  0  0  0  0  0
   -0.4425    5.8996   -0.3569 N   0  0  0  0  0  0  0  0  0  0  0  0
   -1.6309    5.6949    0.2976 C   0  0  0  0  0  0  0  0  0  0  0  0
   -2.6610    6.2569   -0.2800 N   0  0  0  0  0  0  0  0  0  0  0  0
   -2.1186    6.9043   -1.3861 C   0  0  0  0  0  0  0  0  0  0  0  0
   -2.7459    7.6586   -2.4289 C   0  0  0  0  0  0  0  0  0  0  0  0
   -3.9471    7.8661   -2.5886 O   0  0  0  0  0  0  0  0  0  0  0  0
   -1.8270    8.1791   -3.3501 N   0  0  0  0  0  0  0  0  0  0  0  0
   -0.4541    8.0141   -3.2456 C   0  0  0  0  0  0  0  0  0  0  0  0
    0.3247    8.6492   -4.1287 N   0  0  0  0  0  0  0  0  0  0  0  0
    0.1259    7.2655   -2.2932 N   0  0  0  0  0  0  0  0  0  0  0  0
   -0.7545    6.7343   -1.4015 C   0  0  0  0  0  0  0  0  0  0  0  0
  1  2  2  0  0  0  0
  1  4  1  0  0  0  0
  1  3  1  0  0  0  0
  5  1  1  0  0  0  0
  6  7  2  1  0  0  0
  6  9  1  0  0  0  0
  6  5  1  0  0  0  0
  6  8  1  0  0  0  0
 10 11  2  1  0  0  0
 10 12  1  0  0  0  0
 10 13  1  0  0  0  0
 10  9  1  0  0  0  0
 13 14  1  0  0  0  0
 15 14  1  6  0  0  0
 15 16  1  0  0  0  0
 17 19  1  0  0  0  0
 17 15  1  0  0  0  0
 17 18  1  1  0  0  0
 19 21  1  0  0  0  0
 19 20  1  6  0  0  0
 21 16  1  0  0  0  0
 21 22  1  1  0  0  0
 22 32  1  0  0  0  0
 23 22  1  0  0  0  0
 23 24  2  0  0  0  0
 24 25  1  0  0  0  0
 25 26  1  0  0  0  0
 26 27  2  0  0  0  0
 26 28  1  0  0  0  0
 29 28  1  0  0  0  0
 29 30  1  0  0  0  0
 31 29  2  0  0  0  0
 32 25  2  0  0  0  0
 32 31  1  0  0  0  0
M  END
>  <CHROM.1>
57.87003837,170.66262388,-77.12485031,77.01116781,-41.45419124,137.59447352
74.60701079,-56.20514953,-177.14928682,101.03415411,1.68120750,2.27887044
-1.88797703,0.84565723,0.88857876,-2.36400952

>  <Name>
lig.pdb

>  <RI>
3.17878e+07

>  <Rbt.Current_Directory>
/home/itssahil/PROJECTS/Mol_Feturizer/New_Systems/rnas/5lwj

>  <Rbt.Executable>
rbdock ($Id: //depot/dev/client3/rdock/2013.1/src/exe/rbdock.cxx#4 $)

>  <Rbt.Library>
libRbt.so (2013.1, Build901 2013/11/27)

>  <Rbt.Parameter_File>
/export/apps/rDock/src/rDock_2013.1_src/data/scripts/dock_solv.prm

>  <Rbt.Receptor>
prm/blind_docking_100.prm

>  <SCORE>
21.4904

>  <SCORE.INTER>
20.9534

>  <SCORE.INTER.CONST>
1

>  <SCORE.INTER.POLAR>
-0.918261

>  <SCORE.INTER.ROT>
8

>  <SCORE.INTER.SOLV>
22.5745

>  <SCORE.INTER.VDW>
0.571671

>  <SCORE.INTER.norm>
0.654795

>  <SCORE.INTRA>
-0.74924

>  <SCORE.INTRA.DIHEDRAL>
0.648106

>  <SCORE.INTRA.DIHEDRAL.0>
10.9248

>  <SCORE.INTRA.POLAR>
0

>  <SCORE.INTRA.POLAR.0>
0

>  <SCORE.INTRA.REPUL>
0

>  <SCORE.INTRA.REPUL.0>
0

>  <SCORE.INTRA.SOLV>
-0.615123

>  <SCORE.INTRA.SOLV.lig_0>
-51.4104

>  <SCORE.INTRA.VDW>
-0.765731

>  <SCORE.INTRA.VDW.0>
0.110327

>  <SCORE.INTRA.norm>
-0.0234138

>  <SCORE.RESTR>
1.28621

>  <SCORE.RESTR.CAVITY>
1.28621

>  <SCORE.RESTR.norm>
0.0401941

>  <SCORE.SYSTEM>
0

>  <SCORE.SYSTEM.CONST>
0

>  <SCORE.SYSTEM.DIHEDRAL>
0

>  <SCORE.SYSTEM.SOLV>
0

>  <SCORE.SYSTEM.norm>
0

>  <SCORE.heavy>
32

>  <SCORE.norm>
0.671575

>  <RMSD>
16.089

$$$$
lig.pdb
 OpenBabel11021811523D
libRbt.so/2013.1/901 2013/11/27
 32 34  0  0  0  0  0  0  0  0999 V2000
   -3.5831    6.6126   -0.9519 P   0  0  0  0  0  0  0  0  0  0  0  0
   -3.3145    8.0812   -0.7305 O   0  0  0  0  0  0  0  0  0  0  0  0
   -4.8764    6.3287   -0.0141 O   0  0  0  0  0  0  0  0  0  0  0  0
   -4.0411    6.1630   -2.3169 O   0  0  0  0  0  0  0  0  0  0  0  0
   -2.3264    5.9324   -0.7052 O   0  0  0  0  0  0  0  0  0  0  0  0
   -2.3614    5.2992    0.6339 P   0  0  1  0  0  0  0  0  0  0  0  0
   -2.6631    6.3504    1.6339 O   0  0  0  0  0  0  0  0  0  0  0  0
   -3.4245    4.2686    0.6807 O   0  0  0  0  0  0  0  0  0  0  0  0
   -1.0446    4.6765    0.9202 O   0  0  0  0  0  0  0  0  0  0  0  0
    0.2236    5.4431    0.8901 P   0  0  1  0  0  0  0  0  0  0  0  0
    0.5434    6.0616   -0.4125 O   0  0  0  0  0  0  0  0  0  0  0  0
    0.4609    6.3104    2.0655 O   0  0  0  0  0  0  0  0  0  0  0  0
    1.3451    4.2823    1.0060 O   0  0  0  0  0  0  0  0  0  0  0  0
    1.0115    2.9079    1.0548 C   0  0  0  0  0  0  0  0  0  0  0  0
    2.0353    2.0260    0.3266 C   0  0  1  0  0  0  0  0  0  0  0  0
    1.8632    0.6718    0.6909 O   0  0  0  0  0  0  0  0  0  0  0  0
    1.8253    1.9603   -1.1964 C   0  0  1  0  0  0  0  0  0  0  0  0
    2.2716    3.0931   -1.9228 O   0  0  0  0  0  0  0  0  0  0  0  0
    2.5525    0.6771   -1.5976 C   0  0  1  0  0  0  0  0  0  0  0  0
    3.9036    0.9161   -1.9505 O   0  0  0  0  0  0  0  0  0  0  0  0
    2.5198   -0.1115   -0.2897 C   0  0  2  0  0  0  0  0  0  0  0  0
    1.9307   -1.4646   -0.3797 N   0  0  0  0  0  0  0  0  0  0  0  0
    1.1837   -2.1741    0.5264 C   0  0  0  0  0  0  0  0  0  0  0  0
    0.9081   -3.3959    0.1493 N   0  0  0  0  0  0  0  0  0  0  0  0
    1.4917   -3.5023   -1.1096 C   0  0  0  0  0  0  0  0  0  0  0  0
    1.5693   -4.6097   -2.0138 C   0  0  0  0  0  0  0  0  0  0  0  0
    1.1516   -5.7528   -1.8402 O   0  0  0  0  0  0  0  0  0  0  0  0
    2.2246   -4.2884   -3.2101 N   0  0  0  0  0  0  0  0  0  0  0  0
    2.7142   -3.0249   -3.5050 C   0  0  0  0  0  0  0  0  0  0  0  0
    3.2250   -2.8170   -4.7238 N   0  0  0  0  0  0  0  0  0  0  0  0
    2.6820   -2.0026   -2.6345 N   0  0  0  0  0  0  0  0  0  0  0  0
    2.0674   -2.3035   -1.4580 C   0  0  0  0  0  0  0  0  0  0  0  0
  1  2  2  0  0  0  0
  1  4  1  0  0  0  0
  1  3  1  0  0  0  0
  5  1  1  0  0  0  0
  6  7  2  1  0  0  0
  6  9  1  0  0  0  0
  6  5  1  0  0  0  0
  6  8  1  0  0  0  0
 10 11  2  6  0  0  0
 10 12  1  0  0  0  0
 10 13  1  0  0  0  0
 10  9  1  0  0  0  0
 13 14  1  0  0  0  0
 15 14  1  1  0  0  0
 15 16  1  0  0  0  0
 17 19  1  0  0  0  0
 17 15  1  0  0  0  0
 17 18  1  6  0  0  0
 19 21  1  0  0  0  0
 19 20  1  1  0  0  0
 21 16  1  0  0  0  0
 21 22  1  6  0  0  0
 22 32  1  0  0  0  0
 23 22  1  0  0  0  0
 23 24  2  0  0  0  0
 24 25  1  0  0  0  0
 25 26  1  0  0  0  0
 26 27  2  0  0  0  0
 26 28  1  0  0  0  0
 29 28  1  0  0  0  0
 29 30  1  0  0  0  0
 31 29  2  0  0  0  0
 32 25  2  0  0  0  0
 32 31  1  0  0  0  0
M  END
>  <CHROM.1>
102.43165646,56.52356823,-56.19357341,2.38358518,-60.26534934,144.48321059
164.69056236,65.28205848,59.54601748,-21.22310709,0.13674180,2.24252337,-0.59451380
2.04774515,-0.23529770,0.33946133

>  <Name>
lig.pdb

>  <RI>
4.14043e+07

>  <Rbt.Current_Directory>
/home/itssahil/PROJECTS/Mol_Feturizer/New_Systems/rnas/5lwj

>  <Rbt.Executable>
rbdock ($Id: //depot/dev/client3/rdock/2013.1/src/exe/rbdock.cxx#4 $)

>  <Rbt.Library>
libRbt.so (2013.1, Build901 2013/11/27)

>  <Rbt.Parameter_File>
/export/apps/rDock/src/rDock_2013.1_src/data/scripts/dock_solv.prm

>  <Rbt.Receptor>
prm/blind_docking_80.prm

>  <SCORE>
-33.3927

>  <SCORE.INTER>
-33.2757

>  <SCORE.INTER.CONST>
1

>  <SCORE.INTER.POLAR>
-2.44627

>  <SCORE.INTER.ROT>
8

>  <SCORE.INTER.SOLV>
22.8258

>  <SCORE.INTER.VDW>
-30.5715

>  <SCORE.INTER.norm>
-1.03987

>  <SCORE.INTRA>
-0.58983

>  <SCORE.INTRA.DIHEDRAL>
2.09818

>  <SCORE.INTRA.DIHEDRAL.0>
10.9248

>  <SCORE.INTRA.POLAR>
0

>  <SCORE.INTRA.POLAR.0>
0

>  <SCORE.INTRA.REPUL>
0

>  <SCORE.INTRA.REPUL.0>
0

>  <SCORE.INTRA.SOLV>
0.943497

>  <SCORE.INTRA.SOLV.lig_0>
-51.4104

>  <SCORE.INTRA.VDW>
-2.11067

>  <SCORE.INTRA.VDW.0>
0.110327

>  <SCORE.INTRA.norm>
-0.0184322

>  <SCORE.RESTR>
0.472816

>  <SCORE.RESTR.CAVITY>
0.472816

>  <SCORE.RESTR.norm>
0.0147755

>  <SCORE.SYSTEM>
0

>  <SCORE.SYSTEM.CONST>
0

>  <SCORE.SYSTEM.DIHEDRAL>
0

>  <SCORE.SYSTEM.SOLV>
0

>  <SCORE.SYSTEM.norm>
0

>  <SCORE.heavy>
32

>  <SCORE.norm>
-1.04352

>  <RMSD>
16.096

$$$$
lig.pdb
 OpenBabel11021811523D
libRbt.so/2013.1/901 2013/11/27
 32 34  0  0  0  0  0  0  0  0999 V2000
   -3.9254    6.0990    0.5288 P   0  0  0  0  0  0  0  0  0  0  0  0
   -4.5775    4.9747   -0.2385 O   0  0  0  0  0  0  0  0  0  0  0  0
   -4.3384    7.4159   -0.3242 O   0  0  0  0  0  0  0  0  0  0  0  0
   -4.4319    6.4123    1.9146 O   0  0  0  0  0  0  0  0  0  0  0  0
   -2.5332    5.7247    0.6847 O   0  0  0  0  0  0  0  0  0  0  0  0
   -1.7197    6.4036   -0.3511 P   0  0  1  0  0  0  0  0  0  0  0  0
   -2.4060    6.2445   -1.6548 O   0  0  0  0  0  0  0  0  0  0  0  0
   -1.6030    7.8472   -0.0396 O   0  0  0  0  0  0  0  0  0  0  0  0
   -0.3692    5.7890   -0.3996 O   0  0  0  0  0  0  0  0  0  0  0  0
    0.2763    5.1872    0.7912 P   0  0  1  0  0  0  0  0  0  0  0  0
    1.1539    6.1020    1.5494 O   0  0  0  0  0  0  0  0  0  0  0  0
   -0.6069    4.3403    1.6235 O   0  0  0  0  0  0  0  0  0  0  0  0
    1.3366    4.1536    0.1383 O   0  0  0  0  0  0  0  0  0  0  0  0
    1.6152    2.8903    0.7119 C   0  0  0  0  0  0  0  0  0  0  0  0
    2.5932    2.0617   -0.1327 C   0  0  1  0  0  0  0  0  0  0  0  0
    2.3478    0.6818    0.0455 O   0  0  0  0  0  0  0  0  0  0  0  0
    2.3857    2.2141   -1.6498 C   0  0  1  0  0  0  0  0  0  0  0  0
    2.8945    3.4094   -2.2177 O   0  0  0  0  0  0  0  0  0  0  0  0
    3.0449    0.9601   -2.2236 C   0  0  1  0  0  0  0  0  0  0  0  0
    4.4081    1.1723   -2.5457 O   0  0  0  0  0  0  0  0  0  0  0  0
    2.9653    0.0045   -1.0345 C   0  0  2  0  0  0  0  0  0  0  0  0
    2.3052   -1.2905   -1.3047 N   0  0  0  0  0  0  0  0  0  0  0  0
    1.2235   -1.8828   -0.7035 C   0  0  0  0  0  0  0  0  0  0  0  0
    0.9681   -3.0903   -1.1365 N   0  0  0  0  0  0  0  0  0  0  0  0
    1.9331   -3.3113   -2.1145 C   0  0  0  0  0  0  0  0  0  0  0  0
    2.2000   -4.4635   -2.9215 C   0  0  0  0  0  0  0  0  0  0  0  0
    1.6315   -5.5530   -2.8880 O   0  0  0  0  0  0  0  0  0  0  0  0
    3.2552   -4.2628   -3.8217 N   0  0  0  0  0  0  0  0  0  0  0  0
    3.9448   -3.0661   -3.9457 C   0  0  0  0  0  0  0  0  0  0  0  0
    4.8609   -2.9658   -4.9154 N   0  0  0  0  0  0  0  0  0  0  0  0
    3.7231   -2.0044   -3.1536 N   0  0  0  0  0  0  0  0  0  0  0  0
    2.7149   -2.1896   -2.2581 C   0  0  0  0  0  0  0  0  0  0  0  0
  1  2  2  0  0  0  0
  1  4  1  0  0  0  0
  1  3  1  0  0  0  0
  5  1  1  0  0  0  0
  6  7  2  6  0  0  0
  6  9  1  0  0  0  0
  6  5  1  0  0  0  0
  6  8  1  0  0  0  0
 10 11  2  1  0  0  0
 10 12  1  0  0  0  0
 10 13  1  0  0  0  0
 10  9  1  0  0  0  0
 13 14  1  0  0  0  0
 15 14  1  1  0  0  0
 15 16  1  0  0  0  0
 17 19  1  0  0  0  0
 17 15  1  0  0  0  0
 17 18  1  6  0  0  0
 19 21  1  0  0  0  0
 19 20  1  1  0  0  0
 21 16  1  0  0  0  0
 21 22  1  6  0  0  0
 22 32  1  0  0  0  0
 23 22  1  0  0  0  0
 23 24  2  0  0  0  0
 24 25  1  0  0  0  0
 25 26  1  0  0  0  0
 26 27  2  0  0  0  0
 26 28  1  0  0  0  0
 29 28  1  0  0  0  0
 29 30  1  0  0  0  0
 31 29  2  0  0  0  0
 32 25  2  0  0  0  0
 32 31  1  0  0  0  0
M  END
>  <CHROM.1>
98.28998908,-30.13747738,-46.59791474,-142.76061516,-93.10819804,176.73426400
-150.75319997,-106.02394845,-53.59715087,1.24893645,0.50824244,2.34878702
-0.88765949,2.09573627,0.13856031,0.25455921

>  <Name>
lig.pdb

>  <RI>
2.72908e+07

>  <Rbt.Current_Directory>
/home/itssahil/PROJECTS/Mol_Feturizer/New_Systems/rnas/5lwj

>  <Rbt.Executable>
rbdock ($Id: //depot/dev/client3/rdock/2013.1/src/exe/rbdock.cxx#4 $)

>  <Rbt.Library>
libRbt.so (2013.1, Build901 2013/11/27)

>  <Rbt.Parameter_File>
/export/apps/rDock/src/rDock_2013.1_src/data/scripts/dock_solv.prm

>  <Rbt.Receptor>
prm/blind_docking_20.prm

>  <SCORE>
-35.2974

>  <SCORE.INTER>
-37.4168

>  <SCORE.INTER.CONST>
1

>  <SCORE.INTER.POLAR>
-2.53799

>  <SCORE.INTER.ROT>
8

>  <SCORE.INTER.SOLV>
23.6479

>  <SCORE.INTER.VDW>
-33.3006

>  <SCORE.INTER.norm>
-1.16928

>  <SCORE.INTRA>
1.61476

>  <SCORE.INTRA.DIHEDRAL>
6.72041

>  <SCORE.INTRA.DIHEDRAL.0>
10.9248

>  <SCORE.INTRA.POLAR>
-0.0270471

>  <SCORE.INTRA.POLAR.0>
0

>  <SCORE.INTRA.REPUL>
0

>  <SCORE.INTRA.REPUL.0>
0

>  <SCORE.INTRA.SOLV>
-0.105073

>  <SCORE.INTRA.SOLV.lig_0>
-51.4104

>  <SCORE.INTRA.VDW>
-1.60095

>  <SCORE.INTRA.VDW.0>
0.110327

>  <SCORE.INTRA.norm>
0.0504612

>  <SCORE.RESTR>
0.504646

>  <SCORE.RESTR.CAVITY>
0.504646

>  <SCORE.RESTR.norm>
0.0157702

>  <SCORE.SYSTEM>
0

>  <SCORE.SYSTEM.CONST>
0

>  <SCORE.SYSTEM.DIHEDRAL>
0

>  <SCORE.SYSTEM.SOLV>
0

>  <SCORE.SYSTEM.norm>
0

>  <SCORE.heavy>
32

>  <SCORE.norm>
-1.10305

>  <RMSD>
16.126

$$$$
lig.pdb
 OpenBabel11021811523D
libRbt.so/2013.1/901 2013/11/27
 32 34  0  0  0  0  0  0  0  0999 V2000
   -4.0260    5.9153   -0.2017 P   0  0  0  0  0  0  0  0  0  0  0  0
   -3.6601    7.3069   -0.6572 O   0  0  0  0  0  0  0  0  0  0  0  0
   -4.9781    6.1864    1.0838 O   0  0  0  0  0  0  0  0  0  0  0  0
   -4.8924    5.0689   -1.1006 O   0  0  0  0  0  0  0  0  0  0  0  0
   -2.7744    5.1975   -0.0574 O   0  0  0  0  0  0  0  0  0  0  0  0
   -2.1823    5.4972    1.2674 P   0  0  1  0  0  0  0  0  0  0  0  0
   -2.0392    6.9672    1.3872 O   0  0  0  0  0  0  0  0  0  0  0  0
   -3.0748    5.0093    2.3445 O   0  0  0  0  0  0  0  0  0  0  0  0
   -0.8565    4.8383    1.3762 O   0  0  0  0  0  0  0  0  0  0  0  0
    0.3612    5.3854    0.7322 P   0  0  1  0  0  0  0  0  0  0  0  0
    0.1074    6.2679   -0.4248 O   0  0  0  0  0  0  0  0  0  0  0  0
    1.4024    5.8685    1.6663 O   0  0  0  0  0  0  0  0  0  0  0  0
    1.0132    4.0793    0.0339 O   0  0  0  0  0  0  0  0  0  0  0  0
    1.7215    3.1001    0.7701 C   0  0  0  0  0  0  0  0  0  0  0  0
    2.7439    2.3419   -0.0879 C   0  0  1  0  0  0  0  0  0  0  0  0
    2.6424    0.9516    0.1423 O   0  0  0  0  0  0  0  0  0  0  0  0
    2.4655    2.4211   -1.5992 C   0  0  1  0  0  0  0  0  0  0  0  0
    2.8324    3.6400   -2.2236 O   0  0  0  0  0  0  0  0  0  0  0  0
    3.2229    1.2181   -2.1608 C   0  0  1  0  0  0  0  0  0  0  0  0
    4.5455    1.5506   -2.5446 O   0  0  0  0  0  0  0  0  0  0  0  0
    3.2826    0.3008   -0.9408 C   0  0  2  0  0  0  0  0  0  0  0  0
    2.7436   -1.0608   -1.1442 N   0  0  0  0  0  0  0  0  0  0  0  0
    1.6633   -1.6865   -0.5752 C   0  0  0  0  0  0  0  0  0  0  0  0
    1.5332   -2.9420   -0.9179 N   0  0  0  0  0  0  0  0  0  0  0  0
    2.5879   -3.1646   -1.7982 C   0  0  0  0  0  0  0  0  0  0  0  0
    3.0031   -4.3540   -2.4785 C   0  0  0  0  0  0  0  0  0  0  0  0
    2.5155   -5.4791   -2.3915 O   0  0  0  0  0  0  0  0  0  0  0  0
    4.1100   -4.1439   -3.3119 N   0  0  0  0  0  0  0  0  0  0  0  0
    4.7176   -2.9100   -3.4893 C   0  0  0  0  0  0  0  0  0  0  0  0
    5.6992   -2.8166   -4.3933 N   0  0  0  0  0  0  0  0  0  0  0  0
    4.3550   -1.8081   -2.8125 N   0  0  0  0  0  0  0  0  0  0  0  0
    3.2940   -1.9994   -1.9816 C   0  0  0  0  0  0  0  0  0  0  0  0
  1  2  2  0  0  0  0
  1  4  1  0  0  0  0
  1  3  1  0  0  0  0
  5  1  1  0  0  0  0
  6  7  2  1  0  0  0
  6  9  1  0  0  0  0
  6  5  1  0  0  0  0
  6  8  1  0  0  0  0
 10 11  2  6  0  0  0
 10 12  1  0  0  0  0
 10 13  1  0  0  0  0
 10  9  1  0  0  0  0
 13 14  1  0  0  0  0
 15 14  1  1  0  0  0
 15 16  1  0  0  0  0
 17 19  1  0  0  0  0
 17 15  1  0  0  0  0
 17 18  1  6  0  0  0
 19 21  1  0  0  0  0
 19 20  1  1  0  0  0
 21 16  1  0  0  0  0
 21 22  1  6  0  0  0
 22 32  1  0  0  0  0
 23 22  1  0  0  0  0
 23 24  2  0  0  0  0
 24 25  1  0  0  0  0
 25 26  1  0  0  0  0
 26 27  2  0  0  0  0
 26 28  1  0  0  0  0
 29 28  1  0  0  0  0
 29 30  1  0  0  0  0
 31 29  2  0  0  0  0
 32 25  2  0  0  0  0
 32 31  1  0  0  0  0
M  END
>  <CHROM.1>
83.27862320,78.05689953,-55.78530625,-76.77754003,-23.45805810,-154.27667618
-133.53082604,-151.09039442,-58.60461111,8.70429017,0.66828962,2.33103868
-0.65120977,2.18629318,0.13416249,0.25211707

>  <Name>
lig.pdb

>  <RI>
2.72908e+07

>  <Rbt.Current_Directory>
/home/itssahil/PROJECTS/Mol_Feturizer/New_Systems/rnas/5lwj

>  <Rbt.Executable>
rbdock ($Id: //depot/dev/client3/rdock/2013.1/src/exe/rbdock.cxx#4 $)

>  <Rbt.Library>
libRbt.so (2013.1, Build901 2013/11/27)

>  <Rbt.Parameter_File>
/export/apps/rDock/src/rDock_2013.1_src/data/scripts/dock_solv.prm

>  <Rbt.Receptor>
prm/blind_docking_20.prm

>  <SCORE>
-31.5242

>  <SCORE.INTER>
-33.3457

>  <SCORE.INTER.CONST>
1

>  <SCORE.INTER.POLAR>
-2.52778

>  <SCORE.INTER.ROT>
8

>  <SCORE.INTER.SOLV>
23.718

>  <SCORE.INTER.VDW>
-30.6439

>  <SCORE.INTER.norm>
-1.04205

>  <SCORE.INTRA>
1.13616

>  <SCORE.INTRA.DIHEDRAL>
6.44523

>  <SCORE.INTRA.DIHEDRAL.0>
10.9248

>  <SCORE.INTRA.POLAR>
0

>  <SCORE.INTRA.POLAR.0>
0

>  <SCORE.INTRA.REPUL>
0

>  <SCORE.INTRA.REPUL.0>
0

>  <SCORE.INTRA.SOLV>
0.74171

>  <SCORE.INTRA.SOLV.lig_0>
-51.4104

>  <SCORE.INTRA.VDW>
-2.45731

>  <SCORE.INTRA.VDW.0>
0.110327

>  <SCORE.INTRA.norm>
0.035505

>  <SCORE.RESTR>
0.685422

>  <SCORE.RESTR.CAVITY>
0.685422

>  <SCORE.RESTR.norm>
0.0214194

>  <SCORE.SYSTEM>
0

>  <SCORE.SYSTEM.CONST>
0

>  <SCORE.SYSTEM.DIHEDRAL>
0

>  <SCORE.SYSTEM.SOLV>
0

>  <SCORE.SYSTEM.norm>
0

>  <SCORE.heavy>
32

>  <SCORE.norm>
-0.98513

>  <RMSD>
16.135

$$$$
lig.pdb
 OpenBabel11021811523D
libRbt.so/2013.1/901 2013/11/27
 32 34  0  0  0  0  0  0  0  0999 V2000
   -4.8453    6.3686    0.3540 P   0  0  0  0  0  0  0  0  0  0  0  0
   -6.0980    6.3595    1.1958 O   0  0  0  0  0  0  0  0  0  0  0  0
   -5.0681    5.1156   -0.6525 O   0  0  0  0  0  0  0  0  0  0  0  0
   -4.6172    7.5281   -0.5834 O   0  0  0  0  0  0  0  0  0  0  0  0
   -3.7346    6.3806    1.2861 O   0  0  0  0  0  0  0  0  0  0  0  0
   -2.5390    5.7920    0.6384 P   0  0  1  0  0  0  0  0  0  0  0  0
   -2.8012    4.3520    0.4071 O   0  0  0  0  0  0  0  0  0  0  0  0
   -2.2899    6.4529   -0.6638 O   0  0  0  0  0  0  0  0  0  0  0  0
   -1.3609    5.9670    1.5245 O   0  0  0  0  0  0  0  0  0  0  0  0
    0.0299    5.7747    1.0494 P   0  0  1  0  0  0  0  0  0  0  0  0
    0.2279    6.0011   -0.3967 O   0  0  0  0  0  0  0  0  0  0  0  0
    1.0765    6.3564    1.9191 O   0  0  0  0  0  0  0  0  0  0  0  0
    0.2335    4.1747    1.1796 O   0  0  0  0  0  0  0  0  0  0  0  0
    1.4532    3.5365    0.8516 C   0  0  0  0  0  0  0  0  0  0  0  0
    1.2766    2.0392    0.5628 C   0  0  1  0  0  0  0  0  0  0  0  0
    1.7912    1.7221   -0.7143 O   0  0  0  0  0  0  0  0  0  0  0  0
    2.1255    1.1287    1.4674 C   0  0  1  0  0  0  0  0  0  0  0  0
    1.6294    0.9425    2.7824 O   0  0  0  0  0  0  0  0  0  0  0  0
    2.2076   -0.1766    0.6764 C   0  0  1  0  0  0  0  0  0  0  0  0
    1.1648   -1.0737    1.0153 O   0  0  0  0  0  0  0  0  0  0  0  0
    1.9830    0.3191   -0.7509 C   0  0  2  0  0  0  0  0  0  0  0  0
    3.0313   -0.0547   -1.7243 N   0  0  0  0  0  0  0  0  0  0  0  0
    4.0790    0.6726   -2.2300 C   0  0  0  0  0  0  0  0  0  0  0  0
    4.7603    0.0512   -3.1577 N   0  0  0  0  0  0  0  0  0  0  0  0
    4.1385   -1.1894   -3.2620 C   0  0  0  0  0  0  0  0  0  0  0  0
    4.3988   -2.2957   -4.1327 C   0  0  0  0  0  0  0  0  0  0  0  0
    5.2359   -2.3653   -5.0304 O   0  0  0  0  0  0  0  0  0  0  0  0
    3.5543   -3.3874   -3.8903 N   0  0  0  0  0  0  0  0  0  0  0  0
    2.5932   -3.4107   -2.8909 C   0  0  0  0  0  0  0  0  0  0  0  0
    1.9224   -4.5506   -2.6899 N   0  0  0  0  0  0  0  0  0  0  0  0
    2.3202   -2.3536   -2.1088 N   0  0  0  0  0  0  0  0  0  0  0  0
    3.1175   -1.2762   -2.3455 C   0  0  0  0  0  0  0  0  0  0  0  0
  1  2  2  0  0  0  0
  1  4  1  0  0  0  0
  1  3  1  0  0  0  0
  5  1  1  0  0  0  0
  6  7  2  6  0  0  0
  6  9  1  0  0  0  0
  6  5  1  0  0  0  0
  6  8  1  0  0  0  0
 10 11  2  6  0  0  0
 10 12  1  0  0  0  0
 10 13  1  0  0  0  0
 10  9  1  0  0  0  0
 13 14  1  0  0  0  0
 15 14  1  1  0  0  0
 15 16  1  0  0  0  0
 17 19  1  0  0  0  0
 17 15  1  0  0  0  0
 17 18  1  1  0  0  0
 19 21  1  0  0  0  0
 19 20  1  1  0  0  0
 21 16  1  0  0  0  0
 21 22  1  6  0  0  0
 22 32  1  0  0  0  0
 23 22  1  0  0  0  0
 23 24  2  0  0  0  0
 24 25  1  0  0  0  0
 25 26  1  0  0  0  0
 26 27  2  0  0  0  0
 26 28  1  0  0  0  0
 29 28  1  0  0  0  0
 29 30  1  0  0  0  0
 31 29  2  0  0  0  0
 32 25  2  0  0  0  0
 32 31  1  0  0  0  0
M  END
>  <CHROM.1>
154.66751918,-165.56385480,-67.14662569,-178.70623830,26.31949651,-159.24263405
124.56924280,-63.24923955,-69.29512588,23.68042649,0.21246239,2.55679785
-0.42855169,2.26594251,-0.31795375,0.63099127

>  <Name>
lig.pdb

>  <RI>
4.14043e+07

>  <Rbt.Current_Directory>
/home/itssahil/PROJECTS/Mol_Feturizer/New_Systems/rnas/5lwj

>  <Rbt.Executable>
rbdock ($Id: //depot/dev/client3/rdock/2013.1/src/exe/rbdock.cxx#4 $)

>  <Rbt.Library>
libRbt.so (2013.1, Build901 2013/11/27)

>  <Rbt.Parameter_File>
/export/apps/rDock/src/rDock_2013.1_src/data/scripts/dock_solv.prm

>  <Rbt.Receptor>
prm/blind_docking_80.prm

>  <SCORE>
-31.3927

>  <SCORE.INTER>
-29.0778

>  <SCORE.INTER.CONST>
1

>  <SCORE.INTER.POLAR>
-1.43707

>  <SCORE.INTER.ROT>
8

>  <SCORE.INTER.SOLV>
26.1695

>  <SCORE.INTER.VDW>
-32.2515

>  <SCORE.INTER.norm>
-0.90868

>  <SCORE.INTRA>
-2.31489

>  <SCORE.INTRA.DIHEDRAL>
1.15793

>  <SCORE.INTRA.DIHEDRAL.0>
10.9248

>  <SCORE.INTRA.POLAR>
0

>  <SCORE.INTRA.POLAR.0>
0

>  <SCORE.INTRA.REPUL>
0

>  <SCORE.INTRA.REPUL.0>
0

>  <SCORE.INTRA.SOLV>
-1.05284

>  <SCORE.INTRA.SOLV.lig_0>
-51.4104

>  <SCORE.INTRA.VDW>
-2.36744

>  <SCORE.INTRA.VDW.0>
0.110327

>  <SCORE.INTRA.norm>
-0.0723404

>  <SCORE.RESTR>
0

>  <SCORE.RESTR.CAVITY>
0

>  <SCORE.RESTR.norm>
0

>  <SCORE.SYSTEM>
0

>  <SCORE.SYSTEM.CONST>
0

>  <SCORE.SYSTEM.DIHEDRAL>
0

>  <SCORE.SYSTEM.SOLV>
0

>  <SCORE.SYSTEM.norm>
0

>  <SCORE.heavy>
32

>  <SCORE.norm>
-0.981021

>  <RMSD>
16.151

$$$$
lig.pdb
 OpenBabel11021811523D
libRbt.so/2013.1/901 2013/11/27
 32 34  0  0  0  0  0  0  0  0999 V2000
   -3.6638    5.3955   -0.4925 P   0  0  0  0  0  0  0  0  0  0  0  0
   -4.9969    5.4307    0.2143 O   0  0  0  0  0  0  0  0  0  0  0  0
   -3.2747    3.8205   -0.4678 O   0  0  0  0  0  0  0  0  0  0  0  0
   -3.6189    5.7393   -1.9604 O   0  0  0  0  0  0  0  0  0  0  0  0
   -2.8287    6.3748    0.1755 O   0  0  0  0  0  0  0  0  0  0  0  0
   -2.2699    5.7852    1.4148 P   0  0  1  0  0  0  0  0  0  0  0  0
   -1.6852    6.8802    2.2241 O   0  0  0  0  0  0  0  0  0  0  0  0
   -3.3453    5.1293    2.1946 O   0  0  0  0  0  0  0  0  0  0  0  0
   -1.2267    4.7900    1.0613 O   0  0  0  0  0  0  0  0  0  0  0  0
    0.1995    5.1559    0.8912 P   0  0  1  0  0  0  0  0  0  0  0  0
    0.6076    5.4284   -0.5020 O   0  0  0  0  0  0  0  0  0  0  0  0
    0.7265    6.1104    1.8918 O   0  0  0  0  0  0  0  0  0  0  0  0
    0.9649    3.7661    1.2098 O   0  0  0  0  0  0  0  0  0  0  0  0
    2.0338    3.2897    0.4141 C   0  0  0  0  0  0  0  0  0  0  0  0
    2.5344    1.9099    0.8635 C   0  0  1  0  0  0  0  0  0  0  0  0
    1.6385    0.9020    0.4418 O   0  0  0  0  0  0  0  0  0  0  0  0
    3.8366    1.4675    0.1733 C   0  0  1  0  0  0  0  0  0  0  0  0
    5.0225    2.0681    0.6666 O   0  0  0  0  0  0  0  0  0  0  0  0
    3.8281   -0.0513    0.3445 C   0  0  1  0  0  0  0  0  0  0  0  0
    4.4973   -0.4602    1.5243 O   0  0  0  0  0  0  0  0  0  0  0  0
    2.3349   -0.3298    0.5066 C   0  0  2  0  0  0  0  0  0  0  0  0
    1.7681   -1.3177   -0.4362 N   0  0  0  0  0  0  0  0  0  0  0  0
    0.5846   -2.0106   -0.3972 C   0  0  0  0  0  0  0  0  0  0  0  0
    0.4480   -2.8864   -1.3591 N   0  0  0  0  0  0  0  0  0  0  0  0
    1.6127   -2.7518   -2.1087 C   0  0  0  0  0  0  0  0  0  0  0  0
    2.0691   -3.4642   -3.2637 C   0  0  0  0  0  0  0  0  0  0  0  0
    1.5201   -4.4062   -3.8316 O   0  0  0  0  0  0  0  0  0  0  0  0
    3.2991   -2.9922   -3.7413 N   0  0  0  0  0  0  0  0  0  0  0  0
    3.9855   -1.9260   -3.1801 C   0  0  0  0  0  0  0  0  0  0  0  0
    5.0971   -1.5017   -3.7916 N   0  0  0  0  0  0  0  0  0  0  0  0
    3.5774   -1.2925   -2.0683 N   0  0  0  0  0  0  0  0  0  0  0  0
    2.3940   -1.7527   -1.5782 C   0  0  0  0  0  0  0  0  0  0  0  0
  1  2  2  0  0  0  0
  1  4  1  0  0  0  0
  1  3  1  0  0  0  0
  5  1  1  0  0  0  0
  6  7  2  1  0  0  0
  6  9  1  0  0  0  0
  6  5  1  0  0  0  0
  6  8  1  0  0  0  0
 10 11  2  6  0  0  0
 10 12  1  0  0  0  0
 10 13  1  0  0  0  0
 10  9  1  0  0  0  0
 13 14  1  0  0  0  0
 15 14  1  6  0  0  0
 15 16  1  0  0  0  0
 17 19  1  0  0  0  0
 17 15  1  0  0  0  0
 17 18  1  1  0  0  0
 19 21  1  0  0  0  0
 19 20  1  1  0  0  0
 21 16  1  0  0  0  0
 21 22  1  6  0  0  0
 22 32  1  0  0  0  0
 23 22  1  0  0  0  0
 23 24  2  0  0  0  0
 24 25  1  0  0  0  0
 25 26  1  0  0  0  0
 26 27  2  0  0  0  0
 26 28  1  0  0  0  0
 29 28  1  0  0  0  0
 29 30  1  0  0  0  0
 31 29  2  0  0  0  0
 32 25  2  0  0  0  0
 32 31  1  0  0  0  0
M  END
>  <CHROM.1>
80.99092237,89.25231611,-167.32086804,135.76368886,-95.19389922,-176.29791887
76.34649644,-173.45154646,91.03712351,-71.90624286,0.51974348,2.16981874
-0.25576027,2.19964222,-0.31240451,0.54482455

>  <Name>
lig.pdb

>  <RI>
3.17878e+07

>  <Rbt.Current_Directory>
/home/itssahil/PROJECTS/Mol_Feturizer/New_Systems/rnas/5lwj

>  <Rbt.Executable>
rbdock ($Id: //depot/dev/client3/rdock/2013.1/src/exe/rbdock.cxx#4 $)

>  <Rbt.Library>
libRbt.so (2013.1, Build901 2013/11/27)

>  <Rbt.Parameter_File>
/export/apps/rDock/src/rDock_2013.1_src/data/scripts/dock_solv.prm

>  <Rbt.Receptor>
prm/blind_docking_100.prm

>  <SCORE>
-24.4483

>  <SCORE.INTER>
-24.981

>  <SCORE.INTER.CONST>
1

>  <SCORE.INTER.POLAR>
-2.04085

>  <SCORE.INTER.ROT>
8

>  <SCORE.INTER.SOLV>
26.6442

>  <SCORE.INTER.VDW>
-27.6659

>  <SCORE.INTER.norm>
-0.780656

>  <SCORE.INTRA>
0.384199

>  <SCORE.INTRA.DIHEDRAL>
1.7835

>  <SCORE.INTRA.DIHEDRAL.0>
10.9248

>  <SCORE.INTRA.POLAR>
0

>  <SCORE.INTRA.POLAR.0>
0

>  <SCORE.INTRA.REPUL>
0

>  <SCORE.INTRA.REPUL.0>
0

>  <SCORE.INTRA.SOLV>
-0.00431279

>  <SCORE.INTRA.SOLV.lig_0>
-51.4104

>  <SCORE.INTRA.VDW>
-0.505394

>  <SCORE.INTRA.VDW.0>
0.110327

>  <SCORE.INTRA.norm>
0.0120062

>  <SCORE.RESTR>
0.148505

>  <SCORE.RESTR.CAVITY>
0.148505

>  <SCORE.RESTR.norm>
0.00464077

>  <SCORE.SYSTEM>
0

>  <SCORE.SYSTEM.CONST>
0

>  <SCORE.SYSTEM.DIHEDRAL>
0

>  <SCORE.SYSTEM.SOLV>
0

>  <SCORE.SYSTEM.norm>
0

>  <SCORE.heavy>
32

>  <SCORE.norm>
-0.764009

>  <RMSD>
16.176

$$$$
lig.pdb
 OpenBabel11021811523D
libRbt.so/2013.1/901 2013/11/27
 32 34  0  0  0  0  0  0  0  0999 V2000
   -0.5183    6.3653   -0.5761 P   0  0  0  0  0  0  0  0  0  0  0  0
   -0.2440    7.1058   -1.8623 O   0  0  0  0  0  0  0  0  0  0  0  0
   -0.7205    7.5608    0.5021 O   0  0  0  0  0  0  0  0  0  0  0  0
   -1.7981    5.5755   -0.4599 O   0  0  0  0  0  0  0  0  0  0  0  0
    0.5602    5.4076   -0.4257 O   0  0  0  0  0  0  0  0  0  0  0  0
    0.6570    4.9906    0.9928 P   0  0  1  0  0  0  0  0  0  0  0  0
    0.7802    6.2104    1.8252 O   0  0  0  0  0  0  0  0  0  0  0  0
   -0.5664    4.2558    1.3906 O   0  0  0  0  0  0  0  0  0  0  0  0
    1.8464    4.1205    1.1716 O   0  0  0  0  0  0  0  0  0  0  0  0
    2.0142    2.8399    0.4446 P   0  0  1  0  0  0  0  0  0  0  0  0
    1.7105    2.9024   -0.9996 O   0  0  0  0  0  0  0  0  0  0  0  0
    3.2335    2.0762    0.7913 O   0  0  0  0  0  0  0  0  0  0  0  0
    0.7944    1.9428    1.0155 O   0  0  0  0  0  0  0  0  0  0  0  0
    0.9782    0.6161    1.4725 C   0  0  0  0  0  0  0  0  0  0  0  0
    0.8436   -0.4194    0.3474 C   0  0  1  0  0  0  0  0  0  0  0  0
    1.7322   -0.1150   -0.7081 O   0  0  0  0  0  0  0  0  0  0  0  0
    1.3136   -1.8301    0.7433 C   0  0  1  0  0  0  0  0  0  0  0  0
    0.4093   -2.5712    1.5453 O   0  0  0  0  0  0  0  0  0  0  0  0
    1.5947   -2.4987   -0.6021 C   0  0  1  0  0  0  0  0  0  0  0  0
    0.4623   -3.1858   -1.1048 O   0  0  0  0  0  0  0  0  0  0  0  0
    1.8675   -1.2872   -1.4917 C   0  0  2  0  0  0  0  0  0  0  0  0
    3.1591   -1.3067   -2.2110 N   0  0  0  0  0  0  0  0  0  0  0  0
    4.0377   -2.3356   -2.4387 C   0  0  0  0  0  0  0  0  0  0  0  0
    5.1432   -1.9702   -3.0346 N   0  0  0  0  0  0  0  0  0  0  0  0
    4.9813   -0.6037   -3.2421 C   0  0  0  0  0  0  0  0  0  0  0  0
    5.8656    0.3668   -3.8132 C   0  0  0  0  0  0  0  0  0  0  0  0
    7.0125    0.1918   -4.2198 O   0  0  0  0  0  0  0  0  0  0  0  0
    5.3010    1.6482   -3.8701 N   0  0  0  0  0  0  0  0  0  0  0  0
    4.0113    1.9409   -3.4530 C   0  0  0  0  0  0  0  0  0  0  0  0
    3.5502    3.1800   -3.6574 N   0  0  0  0  0  0  0  0  0  0  0  0
    3.2033    1.0379   -2.8738 N   0  0  0  0  0  0  0  0  0  0  0  0
    3.7444   -0.2083   -2.7908 C   0  0  0  0  0  0  0  0  0  0  0  0
  1  2  2  0  0  0  0
  1  4  1  0  0  0  0
  1  3  1  0  0  0  0
  5  1  1  0  0  0  0
  6  7  2  1  0  0  0
  6  9  1  0  0  0  0
  6  5  1  0  0  0  0
  6  8  1  0  0  0  0
 10 11  2  6  0  0  0
 10 12  1  0  0  0  0
 10 13  1  0  0  0  0
 10  9  1  0  0  0  0
 13 14  1  0  0  0  0
 15 14  1  1  0  0  0
 15 16  1  0  0  0  0
 17 19  1  0  0  0  0
 17 15  1  0  0  0  0
 17 18  1  6  0  0  0
 19 21  1  0  0  0  0
 19 20  1  6  0  0  0
 21 16  1  0  0  0  0
 21 22  1  1  0  0  0
 22 32  1  0  0  0  0
 23 22  1  0  0  0  0
 23 24  2  0  0  0  0
 24 25  1  0  0  0  0
 25 26  1  0  0  0  0
 26 27  2  0  0  0  0
 26 28  1  0  0  0  0
 29 28  1  0  0  0  0
 29 30  1  0  0  0  0
 31 29  2  0  0  0  0
 32 25  2  0  0  0  0
 32 31  1  0  0  0  0
M  END
>  <CHROM.1>
159.71526092,-59.95730334,-53.92521440,-131.72563086,45.82240476,-88.20510113
55.13801832,-173.25335041,51.70402775,139.37366436,1.87109100,2.04358821
-0.79373408,-2.24796393,-0.76866796,2.97599517

>  <Name>
lig.pdb

>  <RI>
3.17878e+07

>  <Rbt.Current_Directory>
/home/itssahil/PROJECTS/Mol_Feturizer/New_Systems/rnas/5lwj

>  <Rbt.Executable>
rbdock ($Id: //depot/dev/client3/rdock/2013.1/src/exe/rbdock.cxx#4 $)

>  <Rbt.Library>
libRbt.so (2013.1, Build901 2013/11/27)

>  <Rbt.Parameter_File>
/export/apps/rDock/src/rDock_2013.1_src/data/scripts/dock_solv.prm

>  <Rbt.Receptor>
prm/blind_docking_100.prm

>  <SCORE>
-37.9273

>  <SCORE.INTER>
-37.6268

>  <SCORE.INTER.CONST>
1

>  <SCORE.INTER.POLAR>
-3.61967

>  <SCORE.INTER.ROT>
8

>  <SCORE.INTER.SOLV>
29.1999

>  <SCORE.INTER.VDW>
-31.6856

>  <SCORE.INTER.norm>
-1.17584

>  <SCORE.INTRA>
-1.83347

>  <SCORE.INTRA.DIHEDRAL>
-1.55436

>  <SCORE.INTRA.DIHEDRAL.0>
10.9248

>  <SCORE.INTRA.POLAR>
0

>  <SCORE.INTRA.POLAR.0>
0

>  <SCORE.INTRA.REPUL>
0.151237

>  <SCORE.INTRA.REPUL.0>
0

>  <SCORE.INTRA.SOLV>
1.53672

>  <SCORE.INTRA.SOLV.lig_0>
-51.4104

>  <SCORE.INTRA.VDW>
-2.58083

>  <SCORE.INTRA.VDW.0>
0.110327

>  <SCORE.INTRA.norm>
-0.0572958

>  <SCORE.RESTR>
1.53304

>  <SCORE.RESTR.CAVITY>
1.53304

>  <SCORE.RESTR.norm>
0.0479075

>  <SCORE.SYSTEM>
0

>  <SCORE.SYSTEM.CONST>
0

>  <SCORE.SYSTEM.DIHEDRAL>
0

>  <SCORE.SYSTEM.SOLV>
0

>  <SCORE.SYSTEM.norm>
0

>  <SCORE.heavy>
32

>  <SCORE.norm>
-1.18523

>  <RMSD>
16.189

$$$$
lig.pdb
 OpenBabel11021811523D
libRbt.so/2013.1/901 2013/11/27
 32 34  0  0  0  0  0  0  0  0999 V2000
   -2.9570    6.4820   -0.5991 P   0  0  0  0  0  0  0  0  0  0  0  0
   -2.3495    7.8620   -0.6664 O   0  0  0  0  0  0  0  0  0  0  0  0
   -4.2157    6.6816    0.4051 O   0  0  0  0  0  0  0  0  0  0  0  0
   -3.5943    5.9153   -1.8432 O   0  0  0  0  0  0  0  0  0  0  0  0
   -1.8728    5.5818   -0.2570 O   0  0  0  0  0  0  0  0  0  0  0  0
   -1.6955    5.5577    1.2139 P   0  0  1  0  0  0  0  0  0  0  0  0
   -1.4221    6.9413    1.6686 O   0  0  0  0  0  0  0  0  0  0  0  0
   -2.9329    5.0704    1.8665 O   0  0  0  0  0  0  0  0  0  0  0  0
   -0.5601    4.6662    1.5598 O   0  0  0  0  0  0  0  0  0  0  0  0
    0.8199    4.9080    1.0760 P   0  0  1  0  0  0  0  0  0  0  0  0
    1.0144    4.6986   -0.3732 O   0  0  0  0  0  0  0  0  0  0  0  0
    1.4741    6.1174    1.6231 O   0  0  0  0  0  0  0  0  0  0  0  0
    1.6446    3.6721    1.7172 O   0  0  0  0  0  0  0  0  0  0  0  0
    2.5189    2.8653    0.9509 C   0  0  0  0  0  0  0  0  0  0  0  0
    1.7709    1.9517   -0.0301 C   0  0  1  0  0  0  0  0  0  0  0  0
    2.5828    0.8543   -0.3945 O   0  0  0  0  0  0  0  0  0  0  0  0
    0.5561    1.2387    0.5895 C   0  0  1  0  0  0  0  0  0  0  0  0
   -0.6052    2.0370    0.7452 O   0  0  0  0  0  0  0  0  0  0  0  0
    0.3338    0.0472   -0.3416 C   0  0  1  0  0  0  0  0  0  0  0  0
   -0.5726    0.3482   -1.3880 O   0  0  0  0  0  0  0  0  0  0  0  0
    1.7280   -0.1356   -0.9385 C   0  0  2  0  0  0  0  0  0  0  0  0
    2.3087   -1.4872   -0.7909 N   0  0  0  0  0  0  0  0  0  0  0  0
    2.4954   -2.2605    0.3269 C   0  0  0  0  0  0  0  0  0  0  0  0
    3.1359   -3.3783    0.1007 N   0  0  0  0  0  0  0  0  0  0  0  0
    3.3724   -3.3624   -1.2706 C   0  0  0  0  0  0  0  0  0  0  0  0
    4.0678   -4.2903   -2.1105 C   0  0  0  0  0  0  0  0  0  0  0  0
    4.6563   -5.3154   -1.7726 O   0  0  0  0  0  0  0  0  0  0  0  0
    4.0512   -3.9172   -3.4612 N   0  0  0  0  0  0  0  0  0  0  0  0
    3.4007   -2.7905   -3.9413 C   0  0  0  0  0  0  0  0  0  0  0  0
    3.3672   -2.5998   -5.2649 N   0  0  0  0  0  0  0  0  0  0  0  0
    2.7912   -1.8981   -3.1439 N   0  0  0  0  0  0  0  0  0  0  0  0
    2.8163   -2.2341   -1.8252 C   0  0  0  0  0  0  0  0  0  0  0  0
  1  2  2  0  0  0  0
  1  4  1  0  0  0  0
  1  3  1  0  0  0  0
  5  1  1  0  0  0  0
  6  7  2  1  0  0  0
  6  9  1  0  0  0  0
  6  5  1  0  0  0  0
  6  8  1  0  0  0  0
 10 11  2  6  0  0  0
 10 12  1  0  0  0  0
 10 13  1  0  0  0  0
 10  9  1  0  0  0  0
 13 14  1  0  0  0  0
 15 14  1  1  0  0  0
 15 16  1  0  0  0  0
 17 19  1  0  0  0  0
 17 15  1  0  0  0  0
 17 18  1  6  0  0  0
 19 21  1  0  0  0  0
 19 20  1  6  0  0  0
 21 16  1  0  0  0  0
 21 22  1  1  0  0  0
 22 32  1  0  0  0  0
 23 22  1  0  0  0  0
 23 24  2  0  0  0  0
 24 25  1  0  0  0  0
 25 26  1  0  0  0  0
 26 27  2  0  0  0  0
 26 28  1  0  0  0  0
 29 28  1  0  0  0  0
 29 30  1  0  0  0  0
 31 29  2  0  0  0  0
 32 25  2  0  0  0  0
 32 31  1  0  0  0  0
M  END
>  <CHROM.1>
84.83766502,60.26810418,-58.10976633,131.04266353,-69.44530005,-71.07010495
-158.24468356,145.00737771,-53.73073753,70.40712841,0.55869185,2.14272279
-0.37583701,2.27931012,-0.73172490,0.80039873

>  <Name>
lig.pdb

>  <RI>
3.17878e+07

>  <Rbt.Current_Directory>
/home/itssahil/PROJECTS/Mol_Feturizer/New_Systems/rnas/5lwj

>  <Rbt.Executable>
rbdock ($Id: //depot/dev/client3/rdock/2013.1/src/exe/rbdock.cxx#4 $)

>  <Rbt.Library>
libRbt.so (2013.1, Build901 2013/11/27)

>  <Rbt.Parameter_File>
/export/apps/rDock/src/rDock_2013.1_src/data/scripts/dock_solv.prm

>  <Rbt.Receptor>
prm/blind_docking_100.prm

>  <SCORE>
2.89377

>  <SCORE.INTER>
-0.0486973

>  <SCORE.INTER.CONST>
1

>  <SCORE.INTER.POLAR>
-2.41014

>  <SCORE.INTER.ROT>
8

>  <SCORE.INTER.SOLV>
27.4561

>  <SCORE.INTER.VDW>
-10.084

>  <SCORE.INTER.norm>
-0.00152179

>  <SCORE.INTRA>
1.73914

>  <SCORE.INTRA.DIHEDRAL>
2.04539

>  <SCORE.INTRA.DIHEDRAL.0>
10.9248

>  <SCORE.INTRA.POLAR>
0

>  <SCORE.INTRA.POLAR.0>
0

>  <SCORE.INTRA.REPUL>
0.204809

>  <SCORE.INTRA.REPUL.0>
0

>  <SCORE.INTRA.SOLV>
2.4497

>  <SCORE.INTRA.SOLV.lig_0>
-51.4104

>  <SCORE.INTRA.VDW>
-1.53246

>  <SCORE.INTRA.VDW.0>
0.110327

>  <SCORE.INTRA.norm>
0.054348

>  <SCORE.RESTR>
1.20334

>  <SCORE.RESTR.CAVITY>
1.20334

>  <SCORE.RESTR.norm>
0.0376042

>  <SCORE.SYSTEM>
0

>  <SCORE.SYSTEM.CONST>
0

>  <SCORE.SYSTEM.DIHEDRAL>
0

>  <SCORE.SYSTEM.SOLV>
0

>  <SCORE.SYSTEM.norm>
0

>  <SCORE.heavy>
32

>  <SCORE.norm>
0.0904304

>  <RMSD>
16.198

$$$$
lig.pdb
 OpenBabel11021811523D
libRbt.so/2013.1/901 2013/11/27
 32 34  0  0  0  0  0  0  0  0999 V2000
   -4.4834    6.0094    0.4349 P   0  0  0  0  0  0  0  0  0  0  0  0
   -5.5069    4.9947   -0.0130 O   0  0  0  0  0  0  0  0  0  0  0  0
   -4.8939    7.3399   -0.3979 O   0  0  0  0  0  0  0  0  0  0  0  0
   -4.5136    6.4765    1.8688 O   0  0  0  0  0  0  0  0  0  0  0  0
   -3.1884    5.3859    0.2425 O   0  0  0  0  0  0  0  0  0  0  0  0
   -2.1314    6.4241    0.2661 P   0  0  1  0  0  0  0  0  0  0  0  0
   -2.4680    7.4488   -0.7500 O   0  0  0  0  0  0  0  0  0  0  0  0
   -2.0795    7.0656    1.6004 O   0  0  0  0  0  0  0  0  0  0  0  0
   -0.8201    5.8008   -0.0432 O   0  0  0  0  0  0  0  0  0  0  0  0
    0.0746    5.2617    1.0083 P   0  0  1  0  0  0  0  0  0  0  0  0
    0.9183    6.2702    1.6813 O   0  0  0  0  0  0  0  0  0  0  0  0
   -0.5460    4.2672    1.9116 O   0  0  0  0  0  0  0  0  0  0  0  0
    1.1599    4.4173    0.1552 O   0  0  0  0  0  0  0  0  0  0  0  0
    2.0048    3.4500    0.7494 C   0  0  0  0  0  0  0  0  0  0  0  0
    1.5572    2.0124    0.4505 C   0  0  1  0  0  0  0  0  0  0  0  0
    2.0315    1.6046   -0.8165 O   0  0  0  0  0  0  0  0  0  0  0  0
    2.2001    0.9588    1.3694 C   0  0  1  0  0  0  0  0  0  0  0  0
    1.6488    0.8687    2.6725 O   0  0  0  0  0  0  0  0  0  0  0  0
    2.0538   -0.3387    0.5748 C   0  0  1  0  0  0  0  0  0  0  0  0
    0.8540   -1.0245    0.8871 O   0  0  0  0  0  0  0  0  0  0  0  0
    1.9578    0.1905   -0.8549 C   0  0  2  0  0  0  0  0  0  0  0  0
    2.9388   -0.3730   -1.8068 N   0  0  0  0  0  0  0  0  0  0  0  0
    4.0494    0.1913   -2.3816 C   0  0  0  0  0  0  0  0  0  0  0  0
    4.6396   -0.5731   -3.2638 N   0  0  0  0  0  0  0  0  0  0  0  0
    3.8836   -1.7416   -3.2602 C   0  0  0  0  0  0  0  0  0  0  0  0
    4.0035   -2.9354   -4.0415 C   0  0  0  0  0  0  0  0  0  0  0  0
    4.8094   -3.1681   -4.9401 O   0  0  0  0  0  0  0  0  0  0  0  0
    3.0495   -3.9041   -3.7018 N   0  0  0  0  0  0  0  0  0  0  0  0
    2.1122   -3.7416   -2.6928 C   0  0  0  0  0  0  0  0  0  0  0  0
    1.3248   -4.7807   -2.3926 N   0  0  0  0  0  0  0  0  0  0  0  0
    1.9725   -2.6021   -1.9958 N   0  0  0  0  0  0  0  0  0  0  0  0
    2.8781   -1.6419   -2.3280 C   0  0  0  0  0  0  0  0  0  0  0  0
  1  2  2  0  0  0  0
  1  4  1  0  0  0  0
  1  3  1  0  0  0  0
  5  1  1  0  0  0  0
  6  7  2  6  0  0  0
  6  9  1  0  0  0  0
  6  5  1  0  0  0  0
  6  8  1  0  0  0  0
 10 11  2  1  0  0  0
 10 12  1  0  0  0  0
 10 13  1  0  0  0  0
 10  9  1  0  0  0  0
 13 14  1  0  0  0  0
 15 14  1  1  0  0  0
 15 16  1  0  0  0  0
 17 19  1  0  0  0  0
 17 15  1  0  0  0  0
 17 18  1  1  0  0  0
 19 21  1  0  0  0  0
 19 20  1  1  0  0  0
 21 16  1  0  0  0  0
 21 22  1  6  0  0  0
 22 32  1  0  0  0  0
 23 22  1  0  0  0  0
 23 24  2  0  0  0  0
 24 25  1  0  0  0  0
 25 26  1  0  0  0  0
 26 27  2  0  0  0  0
 26 28  1  0  0  0  0
 29 28  1  0  0  0  0
 29 30  1  0  0  0  0
 31 29  2  0  0  0  0
 32 25  2  0  0  0  0
 32 31  1  0  0  0  0
M  END
>  <CHROM.1>
163.19002756,-90.58577269,-55.05169540,-163.26916883,-82.26983025,104.10358571
82.55291375,-57.75654557,-68.54443088,16.82359749,0.26092969,2.41284443,-0.42154035
2.17760072,-0.26564718,0.53691915

>  <Name>
lig.pdb

>  <RI>
4.14043e+07

>  <Rbt.Current_Directory>
/home/itssahil/PROJECTS/Mol_Feturizer/New_Systems/rnas/5lwj

>  <Rbt.Executable>
rbdock ($Id: //depot/dev/client3/rdock/2013.1/src/exe/rbdock.cxx#4 $)

>  <Rbt.Library>
libRbt.so (2013.1, Build901 2013/11/27)

>  <Rbt.Parameter_File>
/export/apps/rDock/src/rDock_2013.1_src/data/scripts/dock_solv.prm

>  <Rbt.Receptor>
prm/blind_docking_80.prm

>  <SCORE>
-34.9479

>  <SCORE.INTER>
-33.1655

>  <SCORE.INTER.CONST>
1

>  <SCORE.INTER.POLAR>
-1.9293

>  <SCORE.INTER.ROT>
8

>  <SCORE.INTER.SOLV>
24.7285

>  <SCORE.INTER.VDW>
-32.8555

>  <SCORE.INTER.norm>
-1.03642

>  <SCORE.INTRA>
-1.78245

>  <SCORE.INTRA.DIHEDRAL>
2.06963

>  <SCORE.INTRA.DIHEDRAL.0>
10.9248

>  <SCORE.INTRA.POLAR>
0

>  <SCORE.INTRA.POLAR.0>
0

>  <SCORE.INTRA.REPUL>
0

>  <SCORE.INTRA.REPUL.0>
0

>  <SCORE.INTRA.SOLV>
-1.62821

>  <SCORE.INTRA.SOLV.lig_0>
-51.4104

>  <SCORE.INTRA.VDW>
-2.00316

>  <SCORE.INTRA.VDW.0>
0.110327

>  <SCORE.INTRA.norm>
-0.0557016

>  <SCORE.RESTR>
0

>  <SCORE.RESTR.CAVITY>
0

>  <SCORE.RESTR.norm>
0

>  <SCORE.SYSTEM>
0

>  <SCORE.SYSTEM.CONST>
0

>  <SCORE.SYSTEM.DIHEDRAL>
0

>  <SCORE.SYSTEM.SOLV>
0

>  <SCORE.SYSTEM.norm>
0

>  <SCORE.heavy>
32

>  <SCORE.norm>
-1.09212

>  <RMSD>
16.200

$$$$
lig.pdb
 OpenBabel11021811523D
libRbt.so/2013.1/901 2013/11/27
 32 34  0  0  0  0  0  0  0  0999 V2000
   -5.0424    6.3538    0.7314 P   0  0  0  0  0  0  0  0  0  0  0  0
   -5.9360    7.3429    0.0233 O   0  0  0  0  0  0  0  0  0  0  0  0
   -5.6985    6.2582    2.2122 O   0  0  0  0  0  0  0  0  0  0  0  0
   -5.0413    4.9207    0.2610 O   0  0  0  0  0  0  0  0  0  0  0  0
   -3.6869    6.8368    0.5522 O   0  0  0  0  0  0  0  0  0  0  0  0
   -2.7699    6.0740    1.4314 P   0  0  1  0  0  0  0  0  0  0  0  0
   -2.1269    7.0275    2.3659 O   0  0  0  0  0  0  0  0  0  0  0  0
   -3.5318    5.0718    2.2123 O   0  0  0  0  0  0  0  0  0  0  0  0
   -1.7447    5.3918    0.6025 O   0  0  0  0  0  0  0  0  0  0  0  0
   -0.2922    5.5114    0.8724 P   0  0  1  0  0  0  0  0  0  0  0  0
    0.5335    5.8332   -0.3093 O   0  0  0  0  0  0  0  0  0  0  0  0
    0.0589    6.2608    2.0993 O   0  0  0  0  0  0  0  0  0  0  0  0
    0.1388    3.9841    1.1894 O   0  0  0  0  0  0  0  0  0  0  0  0
    1.3830    3.4473    0.7813 C   0  0  0  0  0  0  0  0  0  0  0  0
    1.3027    1.9476    0.4636 C   0  0  1  0  0  0  0  0  0  0  0  0
    1.8566    1.6857   -0.8095 O   0  0  0  0  0  0  0  0  0  0  0  0
    2.1904    1.0738    1.3671 C   0  0  1  0  0  0  0  0  0  0  0  0
    1.6850    0.8338    2.6698 O   0  0  0  0  0  0  0  0  0  0  0  0
    2.3649   -0.2094    0.5553 C   0  0  1  0  0  0  0  0  0  0  0  0
    1.3732   -1.1741    0.8602 O   0  0  0  0  0  0  0  0  0  0  0  0
    2.1342    0.2979   -0.8670 C   0  0  2  0  0  0  0  0  0  0  0  0
    3.2191    0.0061   -1.8281 N   0  0  0  0  0  0  0  0  0  0  0  0
    4.1775    0.8266   -2.3672 C   0  0  0  0  0  0  0  0  0  0  0  0
    4.9262    0.2493   -3.2711 N   0  0  0  0  0  0  0  0  0  0  0  0
    4.4501   -1.0574   -3.3220 C   0  0  0  0  0  0  0  0  0  0  0  0
    4.8358   -2.1618   -4.1475 C   0  0  0  0  0  0  0  0  0  0  0  0
    5.6761   -2.1724   -5.0447 O   0  0  0  0  0  0  0  0  0  0  0  0
    4.1210   -3.3317   -3.8572 N   0  0  0  0  0  0  0  0  0  0  0  0
    3.1679   -3.4232   -2.8541 C   0  0  0  0  0  0  0  0  0  0  0  0
    2.6314   -4.6229   -2.6039 N   0  0  0  0  0  0  0  0  0  0  0  0
    2.7753   -2.3727   -2.1151 N   0  0  0  0  0  0  0  0  0  0  0  0
    3.4447   -1.2221   -2.3989 C   0  0  0  0  0  0  0  0  0  0  0  0
  1  2  2  0  0  0  0
  1  4  1  0  0  0  0
  1  3  1  0  0  0  0
  5  1  1  0  0  0  0
  6  7  2  1  0  0  0
  6  9  1  0  0  0  0
  6  5  1  0  0  0  0
  6  8  1  0  0  0  0
 10 11  2  6  0  0  0
 10 12  1  0  0  0  0
 10 13  1  0  0  0  0
 10  9  1  0  0  0  0
 13 14  1  0  0  0  0
 15 14  1  1  0  0  0
 15 16  1  0  0  0  0
 17 19  1  0  0  0  0
 17 15  1  0  0  0  0
 17 18  1  1  0  0  0
 19 21  1  0  0  0  0
 19 20  1  1  0  0  0
 21 16  1  0  0  0  0
 21 22  1  6  0  0  0
 22 32  1  0  0  0  0
 23 22  1  0  0  0  0
 23 24  2  0  0  0  0
 24 25  1  0  0  0  0
 25 26  1  0  0  0  0
 26 27  2  0  0  0  0
 26 28  1  0  0  0  0
 29 28  1  0  0  0  0
 29 30  1  0  0  0  0
 31 29  2  0  0  0  0
 32 25  2  0  0  0  0
 32 31  1  0  0  0  0
M  END
>  <CHROM.1>
169.14926607,128.42193038,-119.27741817,143.29273339,-131.49214753,-148.08132966
128.70866597,-63.38243047,-59.24661631,18.99217701,0.22067854,2.57188866
-0.21730172,2.26393115,-0.10935195,0.53448913

>  <Name>
lig.pdb

>  <RI>
3.17878e+07

>  <Rbt.Current_Directory>
/home/itssahil/PROJECTS/Mol_Feturizer/New_Systems/rnas/5lwj

>  <Rbt.Executable>
rbdock ($Id: //depot/dev/client3/rdock/2013.1/src/exe/rbdock.cxx#4 $)

>  <Rbt.Library>
libRbt.so (2013.1, Build901 2013/11/27)

>  <Rbt.Parameter_File>
/export/apps/rDock/src/rDock_2013.1_src/data/scripts/dock_solv.prm

>  <Rbt.Receptor>
prm/blind_docking_100.prm

>  <SCORE>
-22.7039

>  <SCORE.INTER>
-31.2651

>  <SCORE.INTER.CONST>
1

>  <SCORE.INTER.POLAR>
-2.6373

>  <SCORE.INTER.ROT>
8

>  <SCORE.INTER.SOLV>
26.7519

>  <SCORE.INTER.VDW>
-29.903

>  <SCORE.INTER.norm>
-0.977034

>  <SCORE.INTRA>
8.27847

>  <SCORE.INTRA.DIHEDRAL>
9.22985

>  <SCORE.INTRA.DIHEDRAL.0>
10.9248

>  <SCORE.INTRA.POLAR>
0

>  <SCORE.INTRA.POLAR.0>
0

>  <SCORE.INTRA.REPUL>
0

>  <SCORE.INTRA.REPUL.0>
0

>  <SCORE.INTRA.SOLV>
-1.79616

>  <SCORE.INTRA.SOLV.lig_0>
-51.4104

>  <SCORE.INTRA.VDW>
4.56163

>  <SCORE.INTRA.VDW.0>
0.110327

>  <SCORE.INTRA.norm>
0.258702

>  <SCORE.RESTR>
0.282767

>  <SCORE.RESTR.CAVITY>
0.282767

>  <SCORE.RESTR.norm>
0.00883645

>  <SCORE.SYSTEM>
0

>  <SCORE.SYSTEM.CONST>
0

>  <SCORE.SYSTEM.DIHEDRAL>
0

>  <SCORE.SYSTEM.SOLV>
0

>  <SCORE.SYSTEM.norm>
0

>  <SCORE.heavy>
32

>  <SCORE.norm>
-0.709496

>  <RMSD>
16.209

$$$$
lig.pdb
 OpenBabel11021811523D
libRbt.so/2013.1/901 2013/11/27
 32 34  0  0  0  0  0  0  0  0999 V2000
   -4.6285    6.1213    0.3648 P   0  0  0  0  0  0  0  0  0  0  0  0
   -4.8206    7.3265   -0.5232 O   0  0  0  0  0  0  0  0  0  0  0  0
   -4.9344    6.7034    1.8481 O   0  0  0  0  0  0  0  0  0  0  0  0
   -5.5980    4.9727    0.2379 O   0  0  0  0  0  0  0  0  0  0  0  0
   -3.3227    5.5834    0.0356 O   0  0  0  0  0  0  0  0  0  0  0  0
   -2.4890    5.5254    1.2592 P   0  0  1  0  0  0  0  0  0  0  0  0
   -2.1207    6.9113    1.6329 O   0  0  0  0  0  0  0  0  0  0  0  0
   -3.2572    4.9139    2.3685 O   0  0  0  0  0  0  0  0  0  0  0  0
   -1.2705    4.7219    0.9887 O   0  0  0  0  0  0  0  0  0  0  0  0
    0.0757    5.3304    0.8686 P   0  0  1  0  0  0  0  0  0  0  0  0
    0.4064    5.8434   -0.4765 O   0  0  0  0  0  0  0  0  0  0  0  0
    0.4651    6.2189    1.9863 O   0  0  0  0  0  0  0  0  0  0  0  0
    1.0586    4.0518    1.0018 O   0  0  0  0  0  0  0  0  0  0  0  0
    1.5830    3.3779   -0.1267 C   0  0  0  0  0  0  0  0  0  0  0  0
    2.2220    2.0299    0.2354 C   0  0  1  0  0  0  0  0  0  0  0  0
    2.5025    1.2901   -0.9352 O   0  0  0  0  0  0  0  0  0  0  0  0
    3.6231    2.1552    0.8590 C   0  0  1  0  0  0  0  0  0  0  0  0
    3.6511    2.5444    2.2221 O   0  0  0  0  0  0  0  0  0  0  0  0
    4.2376    0.7753    0.6258 C   0  0  1  0  0  0  0  0  0  0  0  0
    4.0032   -0.1048    1.7109 O   0  0  0  0  0  0  0  0  0  0  0  0
    3.4390    0.2879   -0.5818 C   0  0  2  0  0  0  0  0  0  0  0  0
    4.2453   -0.1297   -1.7486 N   0  0  0  0  0  0  0  0  0  0  0  0
    5.2168    0.5411   -2.4475 C   0  0  0  0  0  0  0  0  0  0  0  0
    5.6571   -0.1014   -3.4982 N   0  0  0  0  0  0  0  0  0  0  0  0
    4.9467   -1.2980   -3.4868 C   0  0  0  0  0  0  0  0  0  0  0  0
    4.9548   -2.3992   -4.4017 C   0  0  0  0  0  0  0  0  0  0  0  0
    5.5897   -2.5017   -5.4494 O   0  0  0  0  0  0  0  0  0  0  0  0
    4.1054   -3.4408   -4.0046 N   0  0  0  0  0  0  0  0  0  0  0  0
    3.3633   -3.4254   -2.8332 C   0  0  0  0  0  0  0  0  0  0  0  0
    2.6725   -4.5251   -2.5120 N   0  0  0  0  0  0  0  0  0  0  0  0
    3.3219   -2.3705   -2.0031 N   0  0  0  0  0  0  0  0  0  0  0  0
    4.1253   -1.3404   -2.3851 C   0  0  0  0  0  0  0  0  0  0  0  0
  1  2  2  0  0  0  0
  1  4  1  0  0  0  0
  1  3  1  0  0  0  0
  5  1  1  0  0  0  0
  6  7  2  1  0  0  0
  6  9  1  0  0  0  0
  6  5  1  0  0  0  0
  6  8  1  0  0  0  0
 10 11  2  6  0  0  0
 10 12  1  0  0  0  0
 10 13  1  0  0  0  0
 10  9  1  0  0  0  0
 13 14  1  0  0  0  0
 15 14  1  6  0  0  0
 15 16  1  0  0  0  0
 17 19  1  0  0  0  0
 17 15  1  0  0  0  0
 17 18  1  1  0  0  0
 19 21  1  0  0  0  0
 19 20  1  1  0  0  0
 21 16  1  0  0  0  0
 21 22  1  6  0  0  0
 22 32  1  0  0  0  0
 23 22  1  0  0  0  0
 23 24  2  0  0  0  0
 24 25  1  0  0  0  0
 25 26  1  0  0  0  0
 26 27  2  0  0  0  0
 26 28  1  0  0  0  0
 29 28  1  0  0  0  0
 29 30  1  0  0  0  0
 31 29  2  0  0  0  0
 32 25  2  0  0  0  0
 32 31  1  0  0  0  0
M  END
>  <CHROM.1>
123.21680957,108.26178364,-71.49709610,96.10412148,-85.18998717,-167.20471131
169.10173806,-146.36129313,58.80309167,70.08537112,0.83065102,2.54877664
-0.36737602,2.34057768,-0.29944057,0.71411004

>  <Name>
lig.pdb

>  <RI>
2.72908e+07

>  <Rbt.Current_Directory>
/home/itssahil/PROJECTS/Mol_Feturizer/New_Systems/rnas/5lwj

>  <Rbt.Executable>
rbdock ($Id: //depot/dev/client3/rdock/2013.1/src/exe/rbdock.cxx#4 $)

>  <Rbt.Library>
libRbt.so (2013.1, Build901 2013/11/27)

>  <Rbt.Parameter_File>
/export/apps/rDock/src/rDock_2013.1_src/data/scripts/dock_solv.prm

>  <Rbt.Receptor>
prm/blind_docking_20.prm

>  <SCORE>
-3.36454

>  <SCORE.INTER>
-4.77421

>  <SCORE.INTER.CONST>
1

>  <SCORE.INTER.POLAR>
-1.69357

>  <SCORE.INTER.ROT>
8

>  <SCORE.INTER.SOLV>
24.9494

>  <SCORE.INTER.VDW>
-14.7874

>  <SCORE.INTER.norm>
-0.149194

>  <SCORE.INTRA>
0.392063

>  <SCORE.INTRA.DIHEDRAL>
4.12675

>  <SCORE.INTRA.DIHEDRAL.0>
10.9248

>  <SCORE.INTRA.POLAR>
0

>  <SCORE.INTRA.POLAR.0>
0

>  <SCORE.INTRA.REPUL>
0

>  <SCORE.INTRA.REPUL.0>
0

>  <SCORE.INTRA.SOLV>
-1.29902

>  <SCORE.INTRA.SOLV.lig_0>
-51.4104

>  <SCORE.INTRA.VDW>
-1.0218

>  <SCORE.INTRA.VDW.0>
0.110327

>  <SCORE.INTRA.norm>
0.012252

>  <SCORE.RESTR>
1.01761

>  <SCORE.RESTR.CAVITY>
1.01761

>  <SCORE.RESTR.norm>
0.0318002

>  <SCORE.SYSTEM>
0

>  <SCORE.SYSTEM.CONST>
0

>  <SCORE.SYSTEM.DIHEDRAL>
0

>  <SCORE.SYSTEM.SOLV>
0

>  <SCORE.SYSTEM.norm>
0

>  <SCORE.heavy>
32

>  <SCORE.norm>
-0.105142

>  <RMSD>
16.214

$$$$
lig.pdb
 OpenBabel11021811523D
libRbt.so/2013.1/901 2013/11/27
 32 34  0  0  0  0  0  0  0  0999 V2000
   -4.3890    5.9587    0.4969 P   0  0  0  0  0  0  0  0  0  0  0  0
   -5.4479    4.9700    0.0736 O   0  0  0  0  0  0  0  0  0  0  0  0
   -4.7488    7.2799   -0.3734 O   0  0  0  0  0  0  0  0  0  0  0  0
   -4.4053    6.4658    1.9173 O   0  0  0  0  0  0  0  0  0  0  0  0
   -3.1172    5.2834    0.3257 O   0  0  0  0  0  0  0  0  0  0  0  0
   -2.0291    6.2872    0.2616 P   0  0  1  0  0  0  0  0  0  0  0  0
   -2.3465    7.2434   -0.8250 O   0  0  0  0  0  0  0  0  0  0  0  0
   -1.9421    7.0243    1.5437 O   0  0  0  0  0  0  0  0  0  0  0  0
   -0.7410    5.6022   -0.0127 O   0  0  0  0  0  0  0  0  0  0  0  0
    0.1581    5.1317    1.0677 P   0  0  1  0  0  0  0  0  0  0  0  0
    1.0594    6.1645    1.6179 O   0  0  0  0  0  0  0  0  0  0  0  0
   -0.4789    4.2592    2.0791 O   0  0  0  0  0  0  0  0  0  0  0  0
    1.1854    4.1609    0.2797 O   0  0  0  0  0  0  0  0  0  0  0  0
    1.4554    2.8383    0.7043 C   0  0  0  0  0  0  0  0  0  0  0  0
    2.4820    2.1295   -0.1901 C   0  0  1  0  0  0  0  0  0  0  0  0
    2.4658    0.7377    0.0527 O   0  0  0  0  0  0  0  0  0  0  0  0
    2.1387    2.1807   -1.6892 C   0  0  1  0  0  0  0  0  0  0  0  0
    2.4130    3.4124   -2.3357 O   0  0  0  0  0  0  0  0  0  0  0  0
    2.9372    1.0158   -2.2739 C   0  0  1  0  0  0  0  0  0  0  0  0
    4.2231    1.4163   -2.7135 O   0  0  0  0  0  0  0  0  0  0  0  0
    3.0962    0.1135   -1.0516 C   0  0  2  0  0  0  0  0  0  0  0  0
    2.6243   -1.2770   -1.2243 N   0  0  0  0  0  0  0  0  0  0  0  0
    1.6049   -1.9562   -0.6063 C   0  0  0  0  0  0  0  0  0  0  0  0
    1.5294   -3.2196   -0.9362 N   0  0  0  0  0  0  0  0  0  0  0  0
    2.5565   -3.3912   -1.8595 C   0  0  0  0  0  0  0  0  0  0  0  0
    3.0070   -4.5616   -2.5503 C   0  0  0  0  0  0  0  0  0  0  0  0
    2.5858   -5.7109   -2.4364 O   0  0  0  0  0  0  0  0  0  0  0  0
    4.0645   -4.2981   -3.4313 N   0  0  0  0  0  0  0  0  0  0  0  0
    4.5956   -3.0344   -3.6413 C   0  0  0  0  0  0  0  0  0  0  0  0
    5.5315   -2.8947   -4.5869 N   0  0  0  0  0  0  0  0  0  0  0  0
    4.2022   -1.9486   -2.9557 N   0  0  0  0  0  0  0  0  0  0  0  0
    3.1894   -2.1908   -2.0793 C   0  0  0  0  0  0  0  0  0  0  0  0
  1  2  2  0  0  0  0
  1  4  1  0  0  0  0
  1  3  1  0  0  0  0
  5  1  1  0  0  0  0
  6  7  2  6  0  0  0
  6  9  1  0  0  0  0
  6  5  1  0  0  0  0
  6  8  1  0  0  0  0
 10 11  2  1  0  0  0
 10 12  1  0  0  0  0
 10 13  1  0  0  0  0
 10  9  1  0  0  0  0
 13 14  1  0  0  0  0
 15 14  1  1  0  0  0
 15 16  1  0  0  0  0
 17 19  1  0  0  0  0
 17 15  1  0  0  0  0
 17 18  1  6  0  0  0
 19 21  1  0  0  0  0
 19 20  1  1  0  0  0
 21 16  1  0  0  0  0
 21 22  1  6  0  0  0
 22 32  1  0  0  0  0
 23 22  1  0  0  0  0
 23 24  2  0  0  0  0
 24 25  1  0  0  0  0
 25 26  1  0  0  0  0
 26 27  2  0  0  0  0
 26 28  1  0  0  0  0
 29 28  1  0  0  0  0
 29 30  1  0  0  0  0
 31 29  2  0  0  0  0
 32 25  2  0  0  0  0
 32 31  1  0  0  0  0
M  END
>  <CHROM.1>
160.59996554,-91.43457668,-55.62176797,-128.52588453,-83.41060207,-178.90761657
-165.09169327,77.27467376,-177.73013356,8.59468747,0.52696180,2.31208559
-0.66905062,2.16968116,0.15988253,0.23412320

>  <Name>
lig.pdb

>  <RI>
2.72908e+07

>  <Rbt.Current_Directory>
/home/itssahil/PROJECTS/Mol_Feturizer/New_Systems/rnas/5lwj

>  <Rbt.Executable>
rbdock ($Id: //depot/dev/client3/rdock/2013.1/src/exe/rbdock.cxx#4 $)

>  <Rbt.Library>
libRbt.so (2013.1, Build901 2013/11/27)

>  <Rbt.Parameter_File>
/export/apps/rDock/src/rDock_2013.1_src/data/scripts/dock_solv.prm

>  <Rbt.Receptor>
prm/blind_docking_20.prm

>  <SCORE>
-34.6497

>  <SCORE.INTER>
-31.4963

>  <SCORE.INTER.CONST>
1

>  <SCORE.INTER.POLAR>
-1.93188

>  <SCORE.INTER.ROT>
8

>  <SCORE.INTER.SOLV>
24.5361

>  <SCORE.INTER.VDW>
-31.67

>  <SCORE.INTER.norm>
-0.984259

>  <SCORE.INTRA>
-3.38834

>  <SCORE.INTRA.DIHEDRAL>
-1.68059

>  <SCORE.INTRA.DIHEDRAL.0>
10.9248

>  <SCORE.INTRA.POLAR>
-0.152949

>  <SCORE.INTRA.POLAR.0>
0

>  <SCORE.INTRA.REPUL>
0

>  <SCORE.INTRA.REPUL.0>
0

>  <SCORE.INTRA.SOLV>
-1.31356

>  <SCORE.INTRA.SOLV.lig_0>
-51.4104

>  <SCORE.INTRA.VDW>
-1.37124

>  <SCORE.INTRA.VDW.0>
0.110327

>  <SCORE.INTRA.norm>
-0.105886

>  <SCORE.RESTR>
0.234916

>  <SCORE.RESTR.CAVITY>
0.234916

>  <SCORE.RESTR.norm>
0.00734114

>  <SCORE.SYSTEM>
0

>  <SCORE.SYSTEM.CONST>
0

>  <SCORE.SYSTEM.DIHEDRAL>
0

>  <SCORE.SYSTEM.SOLV>
0

>  <SCORE.SYSTEM.norm>
0

>  <SCORE.heavy>
32

>  <SCORE.norm>
-1.0828

>  <RMSD>
16.217

$$$$
lig.pdb
 OpenBabel11021811523D
libRbt.so/2013.1/901 2013/11/27
 32 34  0  0  0  0  0  0  0  0999 V2000
   -4.7550    5.5421   -0.0363 P   0  0  0  0  0  0  0  0  0  0  0  0
   -4.4164    6.4375   -1.2032 O   0  0  0  0  0  0  0  0  0  0  0  0
   -5.1732    6.5936    1.1264 O   0  0  0  0  0  0  0  0  0  0  0  0
   -5.9644    4.6472   -0.1438 O   0  0  0  0  0  0  0  0  0  0  0  0
   -3.6168    4.6606    0.1375 O   0  0  0  0  0  0  0  0  0  0  0  0
   -2.5360    5.3829    0.8487 P   0  0  1  0  0  0  0  0  0  0  0  0
   -2.2488    6.6321    0.1052 O   0  0  0  0  0  0  0  0  0  0  0  0
   -2.9735    5.7275    2.2215 O   0  0  0  0  0  0  0  0  0  0  0  0
   -1.3251    4.5262    0.9072 O   0  0  0  0  0  0  0  0  0  0  0  0
    0.0454    5.0863    0.9779 P   0  0  1  0  0  0  0  0  0  0  0  0
    0.6089    5.5121   -0.3194 O   0  0  0  0  0  0  0  0  0  0  0  0
    0.2832    6.0247    2.0973 O   0  0  0  0  0  0  0  0  0  0  0  0
    0.9434    3.7884    1.3353 O   0  0  0  0  0  0  0  0  0  0  0  0
    1.9467    3.2980    0.4660 C   0  0  0  0  0  0  0  0  0  0  0  0
    2.4743    1.9208    0.8915 C   0  0  1  0  0  0  0  0  0  0  0  0
    1.5863    0.9047    0.4728 O   0  0  0  0  0  0  0  0  0  0  0  0
    3.7714    1.5052    0.1755 C   0  0  1  0  0  0  0  0  0  0  0  0
    4.9563    2.1174    0.6564 O   0  0  0  0  0  0  0  0  0  0  0  0
    3.7875   -0.0155    0.3294 C   0  0  1  0  0  0  0  0  0  0  0  0
    4.4817   -0.4277    1.4935 O   0  0  0  0  0  0  0  0  0  0  0  0
    2.3013   -0.3175    0.5122 C   0  0  2  0  0  0  0  0  0  0  0  0
    1.7336   -1.3030   -0.4325 N   0  0  0  0  0  0  0  0  0  0  0  0
    0.5431   -1.9842   -0.4022 C   0  0  0  0  0  0  0  0  0  0  0  0
    0.4067   -2.8618   -1.3624 N   0  0  0  0  0  0  0  0  0  0  0  0
    1.5796   -2.7410   -2.1017 C   0  0  0  0  0  0  0  0  0  0  0  0
    2.0396   -3.4616   -3.2502 C   0  0  0  0  0  0  0  0  0  0  0  0
    1.4867   -4.4001   -3.8201 O   0  0  0  0  0  0  0  0  0  0  0  0
    3.2785   -3.0032   -3.7180 N   0  0  0  0  0  0  0  0  0  0  0  0
    3.9701   -1.9418   -3.1539 C   0  0  0  0  0  0  0  0  0  0  0  0
    5.0913   -1.5304   -3.7566 N   0  0  0  0  0  0  0  0  0  0  0  0
    3.5580   -1.3007   -2.0480 N   0  0  0  0  0  0  0  0  0  0  0  0
    2.3657   -1.7478   -1.5673 C   0  0  0  0  0  0  0  0  0  0  0  0
  1  2  2  0  0  0  0
  1  4  1  0  0  0  0
  1  3  1  0  0  0  0
  5  1  1  0  0  0  0
  6  7  2  6  0  0  0
  6  9  1  0  0  0  0
  6  5  1  0  0  0  0
  6  8  1  0  0  0  0
 10 11  2  6  0  0  0
 10 12  1  0  0  0  0
 10 13  1  0  0  0  0
 10  9  1  0  0  0  0
 13 14  1  0  0  0  0
 15 14  1  6  0  0  0
 15 16  1  0  0  0  0
 17 19  1  0  0  0  0
 17 15  1  0  0  0  0
 17 18  1  1  0  0  0
 19 21  1  0  0  0  0
 19 20  1  1  0  0  0
 21 16  1  0  0  0  0
 21 22  1  6  0  0  0
 22 32  1  0  0  0  0
 23 22  1  0  0  0  0
 23 24  2  0  0  0  0
 24 25  1  0  0  0  0
 25 26  1  0  0  0  0
 26 27  2  0  0  0  0
 26 28  1  0  0  0  0
 29 28  1  0  0  0  0
 29 30  1  0  0  0  0
 31 29  2  0  0  0  0
 32 25  2  0  0  0  0
 32 31  1  0  0  0  0
M  END
>  <CHROM.1>
78.90570263,152.10793151,-54.16445108,117.24807343,-81.31228501,-169.18273896
80.17517239,-174.92292498,78.33199212,-69.73057566,0.24975379,2.18995062
-0.24474978,2.26907329,-0.25715987,0.51643653

>  <Name>
lig.pdb

>  <RI>
1.2169e+07

>  <Rbt.Current_Directory>
/home/itssahil/PROJECTS/Mol_Feturizer/New_Systems/rnas/5lwj

>  <Rbt.Executable>
rbdock ($Id: //depot/dev/client3/rdock/2013.1/src/exe/rbdock.cxx#4 $)

>  <Rbt.Library>
libRbt.so (2013.1, Build901 2013/11/27)

>  <Rbt.Parameter_File>
/export/apps/rDock/src/rDock_2013.1_src/data/scripts/dock_solv.prm

>  <Rbt.Receptor>
prm/blind_docking_40.prm

>  <SCORE>
-24.4514

>  <SCORE.INTER>
-23.7736

>  <SCORE.INTER.CONST>
1

>  <SCORE.INTER.POLAR>
-1.41333

>  <SCORE.INTER.ROT>
8

>  <SCORE.INTER.SOLV>
23.9092

>  <SCORE.INTER.VDW>
-28.041

>  <SCORE.INTER.norm>
-0.742924

>  <SCORE.INTRA>
-0.740475

>  <SCORE.INTRA.DIHEDRAL>
-0.250517

>  <SCORE.INTRA.DIHEDRAL.0>
10.9248

>  <SCORE.INTRA.POLAR>
0

>  <SCORE.INTRA.POLAR.0>
0

>  <SCORE.INTRA.REPUL>
0

>  <SCORE.INTRA.REPUL.0>
0

>  <SCORE.INTRA.SOLV>
-0.485624

>  <SCORE.INTRA.SOLV.lig_0>
-51.4104

>  <SCORE.INTRA.VDW>
-0.372404

>  <SCORE.INTRA.VDW.0>
0.110327

>  <SCORE.INTRA.norm>
-0.0231398

>  <SCORE.RESTR>
0.0626707

>  <SCORE.RESTR.CAVITY>
0.0626707

>  <SCORE.RESTR.norm>
0.00195846

>  <SCORE.SYSTEM>
0

>  <SCORE.SYSTEM.CONST>
0

>  <SCORE.SYSTEM.DIHEDRAL>
0

>  <SCORE.SYSTEM.SOLV>
0

>  <SCORE.SYSTEM.norm>
0

>  <SCORE.heavy>
32

>  <SCORE.norm>
-0.764106

>  <RMSD>
16.246

$$$$
lig.pdb
 OpenBabel11021811523D
libRbt.so/2013.1/901 2013/11/27
 32 34  0  0  0  0  0  0  0  0999 V2000
   -3.2002    5.3685    0.0600 P   0  0  0  0  0  0  0  0  0  0  0  0
   -3.6183    5.8137    1.4403 O   0  0  0  0  0  0  0  0  0  0  0  0
   -2.4211    3.9736    0.3426 O   0  0  0  0  0  0  0  0  0  0  0  0
   -4.2730    4.9718   -0.9233 O   0  0  0  0  0  0  0  0  0  0  0  0
   -2.5078    6.4959   -0.5335 O   0  0  0  0  0  0  0  0  0  0  0  0
   -1.1863    6.6620    0.1157 P   0  0  1  0  0  0  0  0  0  0  0  0
   -0.5378    7.8644   -0.4585 O   0  0  0  0  0  0  0  0  0  0  0  0
   -1.3578    6.8557    1.5743 O   0  0  0  0  0  0  0  0  0  0  0  0
   -0.3569    5.4571   -0.1373 O   0  0  0  0  0  0  0  0  0  0  0  0
    0.5345    4.8719    0.8921 P   0  0  1  0  0  0  0  0  0  0  0  0
    1.4810    5.8249    1.5067 O   0  0  0  0  0  0  0  0  0  0  0  0
   -0.1251    3.9497    1.8431 O   0  0  0  0  0  0  0  0  0  0  0  0
    1.5150    3.9258    0.0192 O   0  0  0  0  0  0  0  0  0  0  0  0
    2.0966    2.7473    0.5443 C   0  0  0  0  0  0  0  0  0  0  0  0
    2.8977    1.9659   -0.5064 C   0  0  1  0  0  0  0  0  0  0  0  0
    2.7271    0.5759   -0.3192 O   0  0  0  0  0  0  0  0  0  0  0  0
    2.3768    2.1454   -1.9432 C   0  0  1  0  0  0  0  0  0  0  0  0
    2.7284    3.3671   -2.5710 O   0  0  0  0  0  0  0  0  0  0  0  0
    2.9322    0.9238   -2.6749 C   0  0  1  0  0  0  0  0  0  0  0  0
    4.1936    1.1821   -3.2657 O   0  0  0  0  0  0  0  0  0  0  0  0
    3.1233   -0.0595   -1.5216 C   0  0  2  0  0  0  0  0  0  0  0  0
    2.4523   -1.3668   -1.6850 N   0  0  0  0  0  0  0  0  0  0  0  0
    1.3445   -1.8846   -1.0629 C   0  0  0  0  0  0  0  0  0  0  0  0
    1.0842   -3.1254   -1.3842 N   0  0  0  0  0  0  0  0  0  0  0  0
    2.0744   -3.4524   -2.3057 C   0  0  0  0  0  0  0  0  0  0  0  0
    2.3480   -4.6809   -2.9882 C   0  0  0  0  0  0  0  0  0  0  0  0
    1.7626   -5.7551   -2.8666 O   0  0  0  0  0  0  0  0  0  0  0  0
    3.4323   -4.5816   -3.8704 N   0  0  0  0  0  0  0  0  0  0  0  0
    4.1431   -3.4111   -4.0887 C   0  0  0  0  0  0  0  0  0  0  0  0
    5.0890   -3.4168   -5.0347 N   0  0  0  0  0  0  0  0  0  0  0  0
    3.9137   -2.2746   -3.4108 N   0  0  0  0  0  0  0  0  0  0  0  0
    2.8767   -2.3595   -2.5333 C   0  0  0  0  0  0  0  0  0  0  0  0
  1  2  2  0  0  0  0
  1  4  1  0  0  0  0
  1  3  1  0  0  0  0
  5  1  1  0  0  0  0
  6  7  2  6  0  0  0
  6  9  1  0  0  0  0
  6  5  1  0  0  0  0
  6  8  1  0  0  0  0
 10 11  2  1  0  0  0
 10 12  1  0  0  0  0
 10 13  1  0  0  0  0
 10  9  1  0  0  0  0
 13 14  1  0  0  0  0
 15 14  1  1  0  0  0
 15 16  1  0  0  0  0
 17 19  1  0  0  0  0
 17 15  1  0  0  0  0
 17 18  1  6  0  0  0
 19 21  1  0  0  0  0
 19 20  1  1  0  0  0
 21 16  1  0  0  0  0
 21 22  1  6  0  0  0
 22 32  1  0  0  0  0
 23 22  1  0  0  0  0
 23 24  2  0  0  0  0
 24 25  1  0  0  0  0
 25 26  1  0  0  0  0
 26 27  2  0  0  0  0
 26 28  1  0  0  0  0
 29 28  1  0  0  0  0
 29 30  1  0  0  0  0
 31 29  2  0  0  0  0
 32 25  2  0  0  0  0
 32 31  1  0  0  0  0
M  END
>  <CHROM.1>
72.04773141,-140.96833453,-176.87138066,-150.30988356,-52.81254521,175.54701365
-142.34069376,68.84845240,57.04613708,16.79064318,0.86066086,2.10542396,-0.97942370
2.04080654,0.20934637,0.26435758

>  <Name>
lig.pdb

>  <RI>
3.17878e+07

>  <Rbt.Current_Directory>
/home/itssahil/PROJECTS/Mol_Feturizer/New_Systems/rnas/5lwj

>  <Rbt.Executable>
rbdock ($Id: //depot/dev/client3/rdock/2013.1/src/exe/rbdock.cxx#4 $)

>  <Rbt.Library>
libRbt.so (2013.1, Build901 2013/11/27)

>  <Rbt.Parameter_File>
/export/apps/rDock/src/rDock_2013.1_src/data/scripts/dock_solv.prm

>  <Rbt.Receptor>
prm/blind_docking_100.prm

>  <SCORE>
-39.0862

>  <SCORE.INTER>
-37.2186

>  <SCORE.INTER.CONST>
1

>  <SCORE.INTER.POLAR>
-2.91221

>  <SCORE.INTER.ROT>
8

>  <SCORE.INTER.SOLV>
27.9633

>  <SCORE.INTER.VDW>
-33.3595

>  <SCORE.INTER.norm>
-1.16308

>  <SCORE.INTRA>
-2.12919

>  <SCORE.INTRA.DIHEDRAL>
-0.327336

>  <SCORE.INTRA.DIHEDRAL.0>
10.9248

>  <SCORE.INTRA.POLAR>
0

>  <SCORE.INTRA.POLAR.0>
0

>  <SCORE.INTRA.REPUL>
0

>  <SCORE.INTRA.REPUL.0>
0

>  <SCORE.INTRA.SOLV>
0.585944

>  <SCORE.INTRA.SOLV.lig_0>
-51.4104

>  <SCORE.INTRA.VDW>
-2.2585

>  <SCORE.INTRA.VDW.0>
0.110327

>  <SCORE.INTRA.norm>
-0.0665373

>  <SCORE.RESTR>
0.261633

>  <SCORE.RESTR.CAVITY>
0.261633

>  <SCORE.RESTR.norm>
0.00817604

>  <SCORE.SYSTEM>
0

>  <SCORE.SYSTEM.CONST>
0

>  <SCORE.SYSTEM.DIHEDRAL>
0

>  <SCORE.SYSTEM.SOLV>
0

>  <SCORE.SYSTEM.norm>
0

>  <SCORE.heavy>
32

>  <SCORE.norm>
-1.22144

>  <RMSD>
16.254

$$$$
lig.pdb
 OpenBabel11021811523D
libRbt.so/2013.1/901 2013/11/27
 32 34  0  0  0  0  0  0  0  0999 V2000
   -3.2671    6.1363   -0.8237 P   0  0  0  0  0  0  0  0  0  0  0  0
   -4.0303    4.8356   -0.7624 O   0  0  0  0  0  0  0  0  0  0  0  0
   -3.5469    6.6574   -2.3346 O   0  0  0  0  0  0  0  0  0  0  0  0
   -3.7372    7.2869    0.0310 O   0  0  0  0  0  0  0  0  0  0  0  0
   -1.9194    5.8327   -0.3831 O   0  0  0  0  0  0  0  0  0  0  0  0
   -1.9115    5.6370    1.0856 P   0  0  1  0  0  0  0  0  0  0  0  0
   -1.8155    6.9688    1.7283 O   0  0  0  0  0  0  0  0  0  0  0  0
   -3.1681    4.9818    1.5172 O   0  0  0  0  0  0  0  0  0  0  0  0
   -0.7494    4.7949    1.4653 O   0  0  0  0  0  0  0  0  0  0  0  0
    0.6137    5.0302    0.9331 P   0  0  1  0  0  0  0  0  0  0  0  0
    0.6859    5.2030   -0.5321 O   0  0  0  0  0  0  0  0  0  0  0  0
    1.4368    5.9813    1.7129 O   0  0  0  0  0  0  0  0  0  0  0  0
    1.3330    3.5965    1.1475 O   0  0  0  0  0  0  0  0  0  0  0  0
    0.7215    2.3775    0.7695 C   0  0  0  0  0  0  0  0  0  0  0  0
    1.6589    1.1726    0.9301 C   0  0  1  0  0  0  0  0  0  0  0  0
    1.1154    0.0391    0.2851 O   0  0  0  0  0  0  0  0  0  0  0  0
    3.0006    1.3279    0.1929 C   0  0  1  0  0  0  0  0  0  0  0  0
    3.9525    2.1642    0.8290 O   0  0  0  0  0  0  0  0  0  0  0  0
    3.4880   -0.1127    0.0404 C   0  0  1  0  0  0  0  0  0  0  0  0
    4.3073   -0.5174    1.1230 O   0  0  0  0  0  0  0  0  0  0  0  0
    2.1725   -0.8864    0.1054 C   0  0  2  0  0  0  0  0  0  0  0  0
    1.9097   -1.7874   -1.0371 N   0  0  0  0  0  0  0  0  0  0  0  0
    0.8704   -2.6522   -1.2701 C   0  0  0  0  0  0  0  0  0  0  0  0
    1.0104   -3.3743   -2.3517 N   0  0  0  0  0  0  0  0  0  0  0  0
    2.2177   -2.9436   -2.8934 C   0  0  0  0  0  0  0  0  0  0  0  0
    2.9323   -3.3839   -4.0534 C   0  0  0  0  0  0  0  0  0  0  0  0
    2.6321   -4.2970   -4.8198 O   0  0  0  0  0  0  0  0  0  0  0  0
    4.1104   -2.6575   -4.2730 N   0  0  0  0  0  0  0  0  0  0  0  0
    4.5240   -1.6010   -3.4757 C   0  0  0  0  0  0  0  0  0  0  0  0
    5.6115   -0.9181   -3.8507 N   0  0  0  0  0  0  0  0  0  0  0  0
    3.8758   -1.2233   -2.3616 N   0  0  0  0  0  0  0  0  0  0  0  0
    2.7396   -1.9330   -2.1212 C   0  0  0  0  0  0  0  0  0  0  0  0
  1  2  2  0  0  0  0
  1  4  1  0  0  0  0
  1  3  1  0  0  0  0
  5  1  1  0  0  0  0
  6  7  2  1  0  0  0
  6  9  1  0  0  0  0
  6  5  1  0  0  0  0
  6  8  1  0  0  0  0
 10 11  2  6  0  0  0
 10 12  1  0  0  0  0
 10 13  1  0  0  0  0
 10  9  1  0  0  0  0
 13 14  1  0  0  0  0
 15 14  1  6  0  0  0
 15 16  1  0  0  0  0
 17 19  1  0  0  0  0
 17 15  1  0  0  0  0
 17 18  1  1  0  0  0
 19 21  1  0  0  0  0
 19 20  1  1  0  0  0
 21 16  1  0  0  0  0
 21 22  1  6  0  0  0
 22 32  1  0  0  0  0
 23 22  1  0  0  0  0
 23 24  2  0  0  0  0
 24 25  1  0  0  0  0
 25 26  1  0  0  0  0
 26 27  2  0  0  0  0
 26 28  1  0  0  0  0
 29 28  1  0  0  0  0
 29 30  1  0  0  0  0
 31 29  2  0  0  0  0
 32 25  2  0  0  0  0
 32 31  1  0  0  0  0
M  END
>  <CHROM.1>
-74.37859545,46.11833132,-83.58091675,47.50768105,-48.42603548,173.67468032
-167.65759160,-48.85318917,66.30903807,-58.66066006,0.69918826,2.18715923
-0.56096624,2.22001888,-0.49876834,0.68198061

>  <Name>
lig.pdb

>  <RI>
1.17715e+07

>  <Rbt.Current_Directory>
/home/itssahil/PROJECTS/Mol_Feturizer/New_Systems/rnas/5lwj

>  <Rbt.Executable>
rbdock ($Id: //depot/dev/client3/rdock/2013.1/src/exe/rbdock.cxx#4 $)

>  <Rbt.Library>
libRbt.so (2013.1, Build901 2013/11/27)

>  <Rbt.Parameter_File>
/export/apps/rDock/src/rDock_2013.1_src/data/scripts/dock_solv.prm

>  <Rbt.Receptor>
prm/blind_docking_60.prm

>  <SCORE>
-32.9791

>  <SCORE.INTER>
-31.4084

>  <SCORE.INTER.CONST>
1

>  <SCORE.INTER.POLAR>
-2.58148

>  <SCORE.INTER.ROT>
8

>  <SCORE.INTER.SOLV>
24.3103

>  <SCORE.INTER.VDW>
-29.3708

>  <SCORE.INTER.norm>
-0.981513

>  <SCORE.INTRA>
-2.12634

>  <SCORE.INTRA.DIHEDRAL>
-4.44542

>  <SCORE.INTRA.DIHEDRAL.0>
10.9248

>  <SCORE.INTRA.POLAR>
-0.41688

>  <SCORE.INTRA.POLAR.0>
0

>  <SCORE.INTRA.REPUL>
0

>  <SCORE.INTRA.REPUL.0>
0

>  <SCORE.INTRA.SOLV>
0.732127

>  <SCORE.INTRA.SOLV.lig_0>
-51.4104

>  <SCORE.INTRA.VDW>
1.1477

>  <SCORE.INTRA.VDW.0>
0.110327

>  <SCORE.INTRA.norm>
-0.0664481

>  <SCORE.RESTR>
0.555696

>  <SCORE.RESTR.CAVITY>
0.555696

>  <SCORE.RESTR.norm>
0.0173655

>  <SCORE.SYSTEM>
0

>  <SCORE.SYSTEM.CONST>
0

>  <SCORE.SYSTEM.DIHEDRAL>
0

>  <SCORE.SYSTEM.SOLV>
0

>  <SCORE.SYSTEM.norm>
0

>  <SCORE.heavy>
32

>  <SCORE.norm>
-1.0306

>  <RMSD>
16.269

$$$$
lig.pdb
 OpenBabel11021811523D
libRbt.so/2013.1/901 2013/11/27
 32 34  0  0  0  0  0  0  0  0999 V2000
   -2.3934    5.3349    0.8500 P   0  0  0  0  0  0  0  0  0  0  0  0
   -3.2590    4.7248   -0.2253 O   0  0  0  0  0  0  0  0  0  0  0  0
   -2.4095    6.9155    0.4840 O   0  0  0  0  0  0  0  0  0  0  0  0
   -2.8884    5.3053    2.2746 O   0  0  0  0  0  0  0  0  0  0  0  0
   -1.1520    4.5855    0.8402 O   0  0  0  0  0  0  0  0  0  0  0  0
   -0.0068    5.5257    0.8457 P   0  0  1  0  0  0  0  0  0  0  0  0
   -0.1111    6.3874   -0.3554 O   0  0  0  0  0  0  0  0  0  0  0  0
   -0.0550    6.3774    2.0569 O   0  0  0  0  0  0  0  0  0  0  0  0
    1.2630    4.7572    0.8217 O   0  0  0  0  0  0  0  0  0  0  0  0
    1.3170    3.2979    1.0754 P   0  0  1  0  0  0  0  0  0  0  0  0
    0.8887    2.8876    2.4282 O   0  0  0  0  0  0  0  0  0  0  0  0
    0.8034    2.4502   -0.0235 O   0  0  0  0  0  0  0  0  0  0  0  0
    2.9073    3.0005    1.1116 O   0  0  0  0  0  0  0  0  0  0  0  0
    3.4545    1.7545    0.7233 C   0  0  0  0  0  0  0  0  0  0  0  0
    3.9230    1.7458   -0.7385 C   0  0  1  0  0  0  0  0  0  0  0  0
    4.4345    0.4742   -1.0819 O   0  0  0  0  0  0  0  0  0  0  0  0
    2.7798    1.8989   -1.7571 C   0  0  1  0  0  0  0  0  0  0  0  0
    2.2779    3.2152   -1.9168 O   0  0  0  0  0  0  0  0  0  0  0  0
    3.3775    1.3340   -3.0455 C   0  0  1  0  0  0  0  0  0  0  0  0
    4.0018    2.3355   -3.8293 O   0  0  0  0  0  0  0  0  0  0  0  0
    4.4540    0.3997   -2.4963 C   0  0  2  0  0  0  0  0  0  0  0  0
    4.3751   -1.0015   -2.9617 N   0  0  0  0  0  0  0  0  0  0  0  0
    5.1942   -1.7085   -3.8052 C   0  0  0  0  0  0  0  0  0  0  0  0
    4.7652   -2.9135   -4.0785 N   0  0  0  0  0  0  0  0  0  0  0  0
    3.5879   -3.0290   -3.3455 C   0  0  0  0  0  0  0  0  0  0  0  0
    2.6394   -4.0982   -3.2618 C   0  0  0  0  0  0  0  0  0  0  0  0
    2.6512   -5.1635   -3.8753 O   0  0  0  0  0  0  0  0  0  0  0  0
    1.5923   -3.8262   -2.3711 N   0  0  0  0  0  0  0  0  0  0  0  0
    1.5009   -2.6628   -1.6220 C   0  0  0  0  0  0  0  0  0  0  0  0
    0.5106   -2.5668   -0.7277 N   0  0  0  0  0  0  0  0  0  0  0  0
    2.3666   -1.6427   -1.7398 N   0  0  0  0  0  0  0  0  0  0  0  0
    3.3791   -1.8817   -2.6175 C   0  0  0  0  0  0  0  0  0  0  0  0
  1  2  2  0  0  0  0
  1  4  1  0  0  0  0
  1  3  1  0  0  0  0
  5  1  1  0  0  0  0
  6  7  2  6  0  0  0
  6  9  1  0  0  0  0
  6  5  1  0  0  0  0
  6  8  1  0  0  0  0
 10 11  2  1  0  0  0
 10 12  1  0  0  0  0
 10 13  1  0  0  0  0
 10  9  1  0  0  0  0
 13 14  1  0  0  0  0
 15 14  1  1  0  0  0
 15 16  1  0  0  0  0
 17 19  1  0  0  0  0
 17 15  1  0  0  0  0
 17 18  1  6  0  0  0
 19 21  1  0  0  0  0
 19 20  1  6  0  0  0
 21 16  1  0  0  0  0
 21 22  1  1  0  0  0
 22 32  1  0  0  0  0
 23 22  1  0  0  0  0
 23 24  2  0  0  0  0
 24 25  1  0  0  0  0
 25 26  1  0  0  0  0
 26 27  2  0  0  0  0
 26 28  1  0  0  0  0
 29 28  1  0  0  0  0
 29 30  1  0  0  0  0
 31 29  2  0  0  0  0
 32 25  2  0  0  0  0
 32 31  1  0  0  0  0
M  END
>  <CHROM.1>
132.33020638,-12.87469388,-59.15993492,-150.35776434,-63.20786068,95.43192813
-178.82209750,70.51279332,-177.01880230,-125.68748351,1.45220476,1.87116613
-0.74286011,2.07232785,0.32343064,0.29686666

>  <Name>
lig.pdb

>  <RI>
3.17878e+07

>  <Rbt.Current_Directory>
/home/itssahil/PROJECTS/Mol_Feturizer/New_Systems/rnas/5lwj

>  <Rbt.Executable>
rbdock ($Id: //depot/dev/client3/rdock/2013.1/src/exe/rbdock.cxx#4 $)

>  <Rbt.Library>
libRbt.so (2013.1, Build901 2013/11/27)

>  <Rbt.Parameter_File>
/export/apps/rDock/src/rDock_2013.1_src/data/scripts/dock_solv.prm

>  <Rbt.Receptor>
prm/blind_docking_100.prm

>  <SCORE>
-39.4532

>  <SCORE.INTER>
-38.7678

>  <SCORE.INTER.CONST>
1

>  <SCORE.INTER.POLAR>
-2.57061

>  <SCORE.INTER.ROT>
8

>  <SCORE.INTER.SOLV>
27.2753

>  <SCORE.INTER.VDW>
-35.3016

>  <SCORE.INTER.norm>
-1.21149

>  <SCORE.INTRA>
-0.760054

>  <SCORE.INTRA.DIHEDRAL>
2.5449

>  <SCORE.INTRA.DIHEDRAL.0>
10.9248

>  <SCORE.INTRA.POLAR>
-0.0772476

>  <SCORE.INTRA.POLAR.0>
0

>  <SCORE.INTRA.REPUL>
0

>  <SCORE.INTRA.REPUL.0>
0

>  <SCORE.INTRA.SOLV>
1.45782

>  <SCORE.INTRA.SOLV.lig_0>
-51.4104

>  <SCORE.INTRA.VDW>
-2.49877

>  <SCORE.INTRA.VDW.0>
0.110327

>  <SCORE.INTRA.norm>
-0.0237517

>  <SCORE.RESTR>
0.0746474

>  <SCORE.RESTR.CAVITY>
0.0746474

>  <SCORE.RESTR.norm>
0.00233273

>  <SCORE.SYSTEM>
0

>  <SCORE.SYSTEM.CONST>
0

>  <SCORE.SYSTEM.DIHEDRAL>
0

>  <SCORE.SYSTEM.SOLV>
0

>  <SCORE.SYSTEM.norm>
0

>  <SCORE.heavy>
32

>  <SCORE.norm>
-1.23291

>  <RMSD>
16.272

$$$$
lig.pdb
 OpenBabel11021811523D
libRbt.so/2013.1/901 2013/11/27
 32 34  0  0  0  0  0  0  0  0999 V2000
   -3.8167    5.2301   -0.3722 P   0  0  0  0  0  0  0  0  0  0  0  0
   -5.0782    5.2661    0.4556 O   0  0  0  0  0  0  0  0  0  0  0  0
   -3.3979    3.6629   -0.3387 O   0  0  0  0  0  0  0  0  0  0  0  0
   -3.9157    5.5295   -1.8472 O   0  0  0  0  0  0  0  0  0  0  0  0
   -2.9409    6.2423    0.1855 O   0  0  0  0  0  0  0  0  0  0  0  0
   -2.3359    5.7361    1.4399 P   0  0  1  0  0  0  0  0  0  0  0  0
   -1.7387    6.8848    2.1608 O   0  0  0  0  0  0  0  0  0  0  0  0
   -3.3780    5.1192    2.2933 O   0  0  0  0  0  0  0  0  0  0  0  0
   -1.2928    4.7312    1.1146 O   0  0  0  0  0  0  0  0  0  0  0  0
    0.1378    5.0876    0.9617 P   0  0  1  0  0  0  0  0  0  0  0  0
    0.5704    5.3326   -0.4292 O   0  0  0  0  0  0  0  0  0  0  0  0
    0.6525    6.0580    1.9534 O   0  0  0  0  0  0  0  0  0  0  0  0
    0.8912    3.7006    1.3185 O   0  0  0  0  0  0  0  0  0  0  0  0
    0.5384    2.4696    0.7161 C   0  0  0  0  0  0  0  0  0  0  0  0
    1.5445    1.3520    1.0248 C   0  0  1  0  0  0  0  0  0  0  0  0
    1.1855    0.1672    0.3439 O   0  0  0  0  0  0  0  0  0  0  0  0
    2.9526    1.6120    0.4612 C   0  0  1  0  0  0  0  0  0  0  0  0
    3.7410    2.5357    1.1928 O   0  0  0  0  0  0  0  0  0  0  0  0
    3.5742    0.2166    0.4079 C   0  0  1  0  0  0  0  0  0  0  0  0
    4.2775   -0.1012    1.5959 O   0  0  0  0  0  0  0  0  0  0  0  0
    2.3306   -0.6664    0.3235 C   0  0  2  0  0  0  0  0  0  0  0  0
    2.2938   -1.6022   -0.8205 N   0  0  0  0  0  0  0  0  0  0  0  0
    1.4673   -2.6673   -1.0753 C   0  0  0  0  0  0  0  0  0  0  0  0
    1.7847   -3.3431   -2.1492 N   0  0  0  0  0  0  0  0  0  0  0  0
    2.8872   -2.6666   -2.6625 C   0  0  0  0  0  0  0  0  0  0  0  0
    3.7085   -2.9455   -3.8016 C   0  0  0  0  0  0  0  0  0  0  0  0
    3.6280   -3.9012   -4.5707 O   0  0  0  0  0  0  0  0  0  0  0  0
    4.7116   -1.9862   -3.9952 N   0  0  0  0  0  0  0  0  0  0  0  0
    4.8715   -0.8663   -3.1932 C   0  0  0  0  0  0  0  0  0  0  0  0
    5.7993    0.0312   -3.5441 N   0  0  0  0  0  0  0  0  0  0  0  0
    4.1296   -0.6346   -2.0979 N   0  0  0  0  0  0  0  0  0  0  0  0
    3.1634   -1.5687   -1.8825 C   0  0  0  0  0  0  0  0  0  0  0  0
  1  2  2  0  0  0  0
  1  4  1  0  0  0  0
  1  3  1  0  0  0  0
  5  1  1  0  0  0  0
  6  7  2  1  0  0  0
  6  9  1  0  0  0  0
  6  5  1  0  0  0  0
  6  8  1  0  0  0  0
 10 11  2  6  0  0  0
 10 12  1  0  0  0  0
 10 13  1  0  0  0  0
 10  9  1  0  0  0  0
 13 14  1  0  0  0  0
 15 14  1  6  0  0  0
 15 16  1  0  0  0  0
 17 19  1  0  0  0  0
 17 15  1  0  0  0  0
 17 18  1  1  0  0  0
 19 21  1  0  0  0  0
 19 20  1  1  0  0  0
 21 16  1  0  0  0  0
 21 22  1  6  0  0  0
 22 32  1  0  0  0  0
 23 22  1  0  0  0  0
 23 24  2  0  0  0  0
 24 25  1  0  0  0  0
 25 26  1  0  0  0  0
 26 27  2  0  0  0  0
 26 28  1  0  0  0  0
 29 28  1  0  0  0  0
 29 30  1  0  0  0  0
 31 29  2  0  0  0  0
 32 25  2  0  0  0  0
 32 31  1  0  0  0  0
M  END
>  <CHROM.1>
76.75939951,93.29134286,-165.61854246,50.49432075,-95.55558755,169.94139512
-176.88221610,58.54492617,176.20609172,-68.12699530,0.63798702,2.20962001
-0.28727644,2.29147556,-0.34364693,0.67947351

>  <Name>
lig.pdb

>  <RI>
1.2169e+07

>  <Rbt.Current_Directory>
/home/itssahil/PROJECTS/Mol_Feturizer/New_Systems/rnas/5lwj

>  <Rbt.Executable>
rbdock ($Id: //depot/dev/client3/rdock/2013.1/src/exe/rbdock.cxx#4 $)

>  <Rbt.Library>
libRbt.so (2013.1, Build901 2013/11/27)

>  <Rbt.Parameter_File>
/export/apps/rDock/src/rDock_2013.1_src/data/scripts/dock_solv.prm

>  <Rbt.Receptor>
prm/blind_docking_40.prm

>  <SCORE>
-20.7542

>  <SCORE.INTER>
-17.8568

>  <SCORE.INTER.CONST>
1

>  <SCORE.INTER.POLAR>
-1.21229

>  <SCORE.INTER.ROT>
8

>  <SCORE.INTER.SOLV>
25.4944

>  <SCORE.INTER.VDW>
-25.295

>  <SCORE.INTER.norm>
-0.558026

>  <SCORE.INTRA>
-3.41849

>  <SCORE.INTRA.DIHEDRAL>
-4.07883

>  <SCORE.INTRA.DIHEDRAL.0>
10.9248

>  <SCORE.INTRA.POLAR>
0

>  <SCORE.INTRA.POLAR.0>
0

>  <SCORE.INTRA.REPUL>
0

>  <SCORE.INTRA.REPUL.0>
0

>  <SCORE.INTRA.SOLV>
0.353218

>  <SCORE.INTRA.SOLV.lig_0>
-51.4104

>  <SCORE.INTRA.VDW>
-1.55569

>  <SCORE.INTRA.VDW.0>
0.110327

>  <SCORE.INTRA.norm>
-0.106828

>  <SCORE.RESTR>
0.521151

>  <SCORE.RESTR.CAVITY>
0.521151

>  <SCORE.RESTR.norm>
0.016286

>  <SCORE.SYSTEM>
0

>  <SCORE.SYSTEM.CONST>
0

>  <SCORE.SYSTEM.DIHEDRAL>
0

>  <SCORE.SYSTEM.SOLV>
0

>  <SCORE.SYSTEM.norm>
0

>  <SCORE.heavy>
32

>  <SCORE.norm>
-0.648568

>  <RMSD>
16.301

$$$$
lig.pdb
 OpenBabel11021811523D
libRbt.so/2013.1/901 2013/11/27
 32 34  0  0  0  0  0  0  0  0999 V2000
    3.1007   -3.6070   -3.3578 P   0  0  0  0  0  0  0  0  0  0  0  0
    1.7172   -3.0642   -3.6213 O   0  0  0  0  0  0  0  0  0  0  0  0
    2.9183   -4.4223   -1.9669 O   0  0  0  0  0  0  0  0  0  0  0  0
    3.6559   -4.6478   -4.2978 O   0  0  0  0  0  0  0  0  0  0  0  0
    3.9998   -2.4722   -3.4381 O   0  0  0  0  0  0  0  0  0  0  0  0
    3.7597   -1.5687   -2.2886 P   0  0  1  0  0  0  0  0  0  0  0  0
    2.3813   -1.0362   -2.4001 O   0  0  0  0  0  0  0  0  0  0  0  0
    3.8862   -2.3193   -1.0177 O   0  0  0  0  0  0  0  0  0  0  0  0
    4.7460   -0.4597   -2.3177 O   0  0  0  0  0  0  0  0  0  0  0  0
    4.4165    0.9128   -1.8655 P   0  0  1  0  0  0  0  0  0  0  0  0
    5.4738    1.9157   -2.1068 O   0  0  0  0  0  0  0  0  0  0  0  0
    3.0444    1.3665   -2.1843 O   0  0  0  0  0  0  0  0  0  0  0  0
    4.4358    0.7717   -0.2535 O   0  0  0  0  0  0  0  0  0  0  0  0
    4.1592    1.8612    0.6062 C   0  0  0  0  0  0  0  0  0  0  0  0
    2.6971    1.8881    1.0729 C   0  0  1  0  0  0  0  0  0  0  0  0
    2.2978    3.2130    1.3588 O   0  0  0  0  0  0  0  0  0  0  0  0
    1.6892    1.4962   -0.0218 C   0  0  1  0  0  0  0  0  0  0  0  0
    1.5878    0.1074   -0.2881 O   0  0  0  0  0  0  0  0  0  0  0  0
    0.3760    2.1001    0.4753 C   0  0  1  0  0  0  0  0  0  0  0  0
   -0.3657    1.1888    1.2668 O   0  0  0  0  0  0  0  0  0  0  0  0
    0.8815    3.2290    1.3716 C   0  0  2  0  0  0  0  0  0  0  0  0
    0.3564    4.5742    1.0540 N   0  0  0  0  0  0  0  0  0  0  0  0
    0.9735    5.7994    1.0713 C   0  0  0  0  0  0  0  0  0  0  0  0
    0.1720    6.8033    0.8251 N   0  0  0  0  0  0  0  0  0  0  0  0
   -1.0642    6.2040    0.6030 C   0  0  0  0  0  0  0  0  0  0  0  0
   -2.3461    6.7790    0.3271 C   0  0  0  0  0  0  0  0  0  0  0  0
   -2.6376    7.9716    0.2647 O   0  0  0  0  0  0  0  0  0  0  0  0
   -3.3430    5.8136    0.1319 N   0  0  0  0  0  0  0  0  0  0  0  0
   -3.1091    4.4471    0.1653 C   0  0  0  0  0  0  0  0  0  0  0  0
   -4.1213    3.6281   -0.1421 N   0  0  0  0  0  0  0  0  0  0  0  0
   -1.9156    3.9129    0.4720 N   0  0  0  0  0  0  0  0  0  0  0  0
   -0.9399    4.8374    0.6859 C   0  0  0  0  0  0  0  0  0  0  0  0
  1  2  2  0  0  0  0
  1  4  1  0  0  0  0
  1  3  1  0  0  0  0
  5  1  1  0  0  0  0
  6  7  2  6  0  0  0
  6  9  1  0  0  0  0
  6  5  1  0  0  0  0
  6  8  1  0  0  0  0
 10 11  2  6  0  0  0
 10 12  1  0  0  0  0
 10 13  1  0  0  0  0
 10  9  1  0  0  0  0
 13 14  1  0  0  0  0
 15 14  1  6  0  0  0
 15 16  1  0  0  0  0
 17 19  1  0  0  0  0
 17 15  1  0  0  0  0
 17 18  1  1  0  0  0
 19 21  1  0  0  0  0
 19 20  1  1  0  0  0
 21 16  1  0  0  0  0
 21 22  1  6  0  0  0
 22 32  1  0  0  0  0
 23 22  1  0  0  0  0
 23 24  2  0  0  0  0
 24 25  1  0  0  0  0
 25 26  1  0  0  0  0
 26 27  2  0  0  0  0
 26 28  1  0  0  0  0
 29 28  1  0  0  0  0
 29 30  1  0  0  0  0
 31 29  2  0  0  0  0
 32 25  2  0  0  0  0
 32 31  1  0  0  0  0
M  END
>  <CHROM.1>
68.97514093,145.92745183,-63.80930439,-179.50677256,-173.53375402,96.19375370
-152.30884880,-121.27237271,-52.60360070,-17.32769855,1.66119763,1.30967193
-0.87710289,1.02457664,0.03786712,-2.71978907

>  <Name>
lig.pdb

>  <RI>
3.17878e+07

>  <Rbt.Current_Directory>
/home/itssahil/PROJECTS/Mol_Feturizer/New_Systems/rnas/5lwj

>  <Rbt.Executable>
rbdock ($Id: //depot/dev/client3/rdock/2013.1/src/exe/rbdock.cxx#4 $)

>  <Rbt.Library>
libRbt.so (2013.1, Build901 2013/11/27)

>  <Rbt.Parameter_File>
/export/apps/rDock/src/rDock_2013.1_src/data/scripts/dock_solv.prm

>  <Rbt.Receptor>
prm/blind_docking_100.prm

>  <SCORE>
-4.23782

>  <SCORE.INTER>
-5.63244

>  <SCORE.INTER.CONST>
1

>  <SCORE.INTER.POLAR>
-1.5474

>  <SCORE.INTER.ROT>
8

>  <SCORE.INTER.SOLV>
22.779

>  <SCORE.INTER.VDW>
-15.1233

>  <SCORE.INTER.norm>
-0.176014

>  <SCORE.INTRA>
1.22513

>  <SCORE.INTRA.DIHEDRAL>
8.45654

>  <SCORE.INTRA.DIHEDRAL.0>
10.9248

>  <SCORE.INTRA.POLAR>
-1.21632

>  <SCORE.INTRA.POLAR.0>
0

>  <SCORE.INTRA.REPUL>
0

>  <SCORE.INTRA.REPUL.0>
0

>  <SCORE.INTRA.SOLV>
3.09097

>  <SCORE.INTRA.SOLV.lig_0>
-51.4104

>  <SCORE.INTRA.VDW>
-0.413154

>  <SCORE.INTRA.VDW.0>
0.110327

>  <SCORE.INTRA.norm>
0.0382852

>  <SCORE.RESTR>
0.169495

>  <SCORE.RESTR.CAVITY>
0.169495

>  <SCORE.RESTR.norm>
0.00529672

>  <SCORE.SYSTEM>
0

>  <SCORE.SYSTEM.CONST>
0

>  <SCORE.SYSTEM.DIHEDRAL>
0

>  <SCORE.SYSTEM.SOLV>
0

>  <SCORE.SYSTEM.norm>
0

>  <SCORE.heavy>
32

>  <SCORE.norm>
-0.132432

>  <RMSD>
16.313

$$$$
lig.pdb
 OpenBabel11021811523D
libRbt.so/2013.1/901 2013/11/27
 32 34  0  0  0  0  0  0  0  0999 V2000
   -3.8408    6.1086    0.4197 P   0  0  0  0  0  0  0  0  0  0  0  0
   -4.9644    5.2093   -0.0349 O   0  0  0  0  0  0  0  0  0  0  0  0
   -4.1177    7.4850   -0.3936 O   0  0  0  0  0  0  0  0  0  0  0  0
   -3.8165    6.5572    1.8596 O   0  0  0  0  0  0  0  0  0  0  0  0
   -2.6169    5.3593    0.2114 O   0  0  0  0  0  0  0  0  0  0  0  0
   -1.4622    6.2879    0.2130 P   0  0  1  0  0  0  0  0  0  0  0  0
   -1.7169    7.3428   -0.7961 O   0  0  0  0  0  0  0  0  0  0  0  0
   -1.3197    6.9186    1.5458 O   0  0  0  0  0  0  0  0  0  0  0  0
   -0.2256    5.5387   -0.1235 O   0  0  0  0  0  0  0  0  0  0  0  0
    0.5838    4.8350    0.8996 P   0  0  1  0  0  0  0  0  0  0  0  0
    1.5920    5.6749    1.5778 O   0  0  0  0  0  0  0  0  0  0  0  0
   -0.1785    3.9346    1.7931 O   0  0  0  0  0  0  0  0  0  0  0  0
    1.5023    3.8444    0.0086 O   0  0  0  0  0  0  0  0  0  0  0  0
    2.0222    2.6306    0.5173 C   0  0  0  0  0  0  0  0  0  0  0  0
    2.8861    1.8831   -0.5080 C   0  0  1  0  0  0  0  0  0  0  0  0
    2.8406    0.4917   -0.2662 O   0  0  0  0  0  0  0  0  0  0  0  0
    2.3463    1.9594   -1.9470 C   0  0  1  0  0  0  0  0  0  0  0  0
    2.5856    3.1821   -2.6238 O   0  0  0  0  0  0  0  0  0  0  0  0
    3.0058    0.7643   -2.6349 C   0  0  1  0  0  0  0  0  0  0  0  0
    4.2372    1.1105   -3.2439 O   0  0  0  0  0  0  0  0  0  0  0  0
    3.2877   -0.1523   -1.4459 C   0  0  2  0  0  0  0  0  0  0  0  0
    2.7352   -1.5194   -1.5542 N   0  0  0  0  0  0  0  0  0  0  0  0
    1.7689   -2.1521   -0.8137 C   0  0  0  0  0  0  0  0  0  0  0  0
    1.5960   -3.4102   -1.1269 N   0  0  0  0  0  0  0  0  0  0  0  0
    2.4936   -3.6272   -2.1680 C   0  0  0  0  0  0  0  0  0  0  0  0
    2.8024   -4.8158   -2.9041 C   0  0  0  0  0  0  0  0  0  0  0  0
    2.3462   -5.9448   -2.7350 O   0  0  0  0  0  0  0  0  0  0  0  0
    3.7553   -4.5996   -3.9087 N   0  0  0  0  0  0  0  0  0  0  0  0
    4.3139   -3.3613   -4.1869 C   0  0  0  0  0  0  0  0  0  0  0  0
    5.1327   -3.2631   -5.2402 N   0  0  0  0  0  0  0  0  0  0  0  0
    4.0573   -2.2597   -3.4627 N   0  0  0  0  0  0  0  0  0  0  0  0
    3.1492   -2.4567   -2.4682 C   0  0  0  0  0  0  0  0  0  0  0  0
  1  2  2  0  0  0  0
  1  4  1  0  0  0  0
  1  3  1  0  0  0  0
  5  1  1  0  0  0  0
  6  7  2  6  0  0  0
  6  9  1  0  0  0  0
  6  5  1  0  0  0  0
  6  8  1  0  0  0  0
 10 11  2  1  0  0  0
 10 12  1  0  0  0  0
 10 13  1  0  0  0  0
 10  9  1  0  0  0  0
 13 14  1  0  0  0  0
 15 14  1  1  0  0  0
 15 16  1  0  0  0  0
 17 19  1  0  0  0  0
 17 15  1  0  0  0  0
 17 18  1  6  0  0  0
 19 21  1  0  0  0  0
 19 20  1  1  0  0  0
 21 16  1  0  0  0  0
 21 22  1  6  0  0  0
 22 32  1  0  0  0  0
 23 22  1  0  0  0  0
 23 24  2  0  0  0  0
 24 25  1  0  0  0  0
 25 26  1  0  0  0  0
 26 27  2  0  0  0  0
 26 28  1  0  0  0  0
 29 28  1  0  0  0  0
 29 30  1  0  0  0  0
 31 29  2  0  0  0  0
 32 25  2  0  0  0  0
 32 31  1  0  0  0  0
M  END
>  <CHROM.1>
161.99143671,-86.37802868,-54.58742798,-153.61830070,-86.38230233,-178.76922848
-151.51425751,70.01824529,-148.22613365,9.38959413,0.79327887,2.15276505
-0.90586463,2.10275948,0.17827078,0.25964275

>  <Name>
lig.pdb

>  <RI>
1.2169e+07

>  <Rbt.Current_Directory>
/home/itssahil/PROJECTS/Mol_Feturizer/New_Systems/rnas/5lwj

>  <Rbt.Executable>
rbdock ($Id: //depot/dev/client3/rdock/2013.1/src/exe/rbdock.cxx#4 $)

>  <Rbt.Library>
libRbt.so (2013.1, Build901 2013/11/27)

>  <Rbt.Parameter_File>
/export/apps/rDock/src/rDock_2013.1_src/data/scripts/dock_solv.prm

>  <Rbt.Receptor>
prm/blind_docking_40.prm

>  <SCORE>
-40.0249

>  <SCORE.INTER>
-39.0652

>  <SCORE.INTER.CONST>
1

>  <SCORE.INTER.POLAR>
-3.02302

>  <SCORE.INTER.ROT>
8

>  <SCORE.INTER.SOLV>
25.2777

>  <SCORE.INTER.VDW>
-33.326

>  <SCORE.INTER.norm>
-1.22079

>  <SCORE.INTRA>
-1.83501

>  <SCORE.INTRA.DIHEDRAL>
1.15672

>  <SCORE.INTRA.DIHEDRAL.0>
10.9248

>  <SCORE.INTRA.POLAR>
-0.0563466

>  <SCORE.INTRA.POLAR.0>
0

>  <SCORE.INTRA.REPUL>
0

>  <SCORE.INTRA.REPUL.0>
0

>  <SCORE.INTRA.SOLV>
-1.13895

>  <SCORE.INTRA.SOLV.lig_0>
-51.4104

>  <SCORE.INTRA.VDW>
-1.65232

>  <SCORE.INTRA.VDW.0>
0.110327

>  <SCORE.INTRA.norm>
-0.0573442

>  <SCORE.RESTR>
0.875275

>  <SCORE.RESTR.CAVITY>
0.875275

>  <SCORE.RESTR.norm>
0.0273523

>  <SCORE.SYSTEM>
0

>  <SCORE.SYSTEM.CONST>
0

>  <SCORE.SYSTEM.DIHEDRAL>
0

>  <SCORE.SYSTEM.SOLV>
0

>  <SCORE.SYSTEM.norm>
0

>  <SCORE.heavy>
32

>  <SCORE.norm>
-1.25078

>  <RMSD>
16.333

$$$$
lig.pdb
 OpenBabel11021811523D
libRbt.so/2013.1/901 2013/11/27
 32 34  0  0  0  0  0  0  0  0999 V2000
   -1.9472    5.9085    0.2062 P   0  0  0  0  0  0  0  0  0  0  0  0
   -3.2766    6.5178    0.5796 O   0  0  0  0  0  0  0  0  0  0  0  0
   -2.2607    4.3166    0.1962 O   0  0  0  0  0  0  0  0  0  0  0  0
   -1.4033    6.1620   -1.1777 O   0  0  0  0  0  0  0  0  0  0  0  0
   -0.9765    6.4660    1.1279 O   0  0  0  0  0  0  0  0  0  0  0  0
    0.3870    6.0548    0.7187 P   0  0  1  0  0  0  0  0  0  0  0  0
    0.7654    6.8392   -0.4802 O   0  0  0  0  0  0  0  0  0  0  0  0
    1.3513    6.3398    1.8066 O   0  0  0  0  0  0  0  0  0  0  0  0
    0.3929    4.6029    0.4093 O   0  0  0  0  0  0  0  0  0  0  0  0
    1.2008    3.6269    1.1784 P   0  0  1  0  0  0  0  0  0  0  0  0
    2.6256    3.9853    1.3312 O   0  0  0  0  0  0  0  0  0  0  0  0
    0.5558    3.1050    2.4038 O   0  0  0  0  0  0  0  0  0  0  0  0
    1.2698    2.3552    0.1800 O   0  0  0  0  0  0  0  0  0  0  0  0
    1.7821    2.4513   -1.1357 C   0  0  0  0  0  0  0  0  0  0  0  0
    3.1881    1.8494   -1.2668 C   0  0  1  0  0  0  0  0  0  0  0  0
    3.2385    0.5813   -0.6456 O   0  0  0  0  0  0  0  0  0  0  0  0
    3.5791    1.4957   -2.7124 C   0  0  1  0  0  0  0  0  0  0  0  0
    3.9631    2.5917   -3.5256 O   0  0  0  0  0  0  0  0  0  0  0  0
    4.6993    0.4711   -2.5341 C   0  0  1  0  0  0  0  0  0  0  0  0
    5.9789    1.0782   -2.5012 O   0  0  0  0  0  0  0  0  0  0  0  0
    4.3844   -0.0840   -1.1462 C   0  0  2  0  0  0  0  0  0  0  0  0
    4.2291   -1.5524   -1.0708 N   0  0  0  0  0  0  0  0  0  0  0  0
    4.3213   -2.4051    0.0001 C   0  0  0  0  0  0  0  0  0  0  0  0
    4.2227   -3.6704   -0.3163 N   0  0  0  0  0  0  0  0  0  0  0  0
    4.0258   -3.6614   -1.6939 C   0  0  0  0  0  0  0  0  0  0  0  0
    3.8887   -4.7395   -2.6261 C   0  0  0  0  0  0  0  0  0  0  0  0
    3.9574   -5.9453   -2.3965 O   0  0  0  0  0  0  0  0  0  0  0  0
    3.6687   -4.2979   -3.9377 N   0  0  0  0  0  0  0  0  0  0  0  0
    3.5585   -2.9619   -4.2924 C   0  0  0  0  0  0  0  0  0  0  0  0
    3.2418   -2.6716   -5.5594 N   0  0  0  0  0  0  0  0  0  0  0  0
    3.7359   -1.9535   -3.4232 N   0  0  0  0  0  0  0  0  0  0  0  0
    3.9720   -2.3647   -2.1474 C   0  0  0  0  0  0  0  0  0  0  0  0
  1  2  2  0  0  0  0
  1  4  1  0  0  0  0
  1  3  1  0  0  0  0
  5  1  1  0  0  0  0
  6  7  2  6  0  0  0
  6  9  1  0  0  0  0
  6  5  1  0  0  0  0
  6  8  1  0  0  0  0
 10 11  2  1  0  0  0
 10 12  1  0  0  0  0
 10 13  1  0  0  0  0
 10  9  1  0  0  0  0
 13 14  1  0  0  0  0
 15 14  1  6  0  0  0
 15 16  1  0  0  0  0
 17 19  1  0  0  0  0
 17 15  1  0  0  0  0
 17 18  1  1  0  0  0
 19 21  1  0  0  0  0
 19 20  1  1  0  0  0
 21 16  1  0  0  0  0
 21 22  1  6  0  0  0
 22 32  1  0  0  0  0
 23 22  1  0  0  0  0
 23 24  2  0  0  0  0
 24 25  1  0  0  0  0
 25 26  1  0  0  0  0
 26 27  2  0  0  0  0
 26 28  1  0  0  0  0
 29 28  1  0  0  0  0
 29 30  1  0  0  0  0
 31 29  2  0  0  0  0
 32 25  2  0  0  0  0
 32 31  1  0  0  0  0
M  END
>  <CHROM.1>
-172.67914873,-117.09467861,74.20469821,57.05557827,-51.05629495,104.40601532
47.03140312,-37.31496178,-158.21128261,-76.45283525,1.94241302,1.82800945
-0.85933688,2.94117269,-1.08969506,1.70695712

>  <Name>
lig.pdb

>  <RI>
3.17878e+07

>  <Rbt.Current_Directory>
/home/itssahil/PROJECTS/Mol_Feturizer/New_Systems/rnas/5lwj

>  <Rbt.Executable>
rbdock ($Id: //depot/dev/client3/rdock/2013.1/src/exe/rbdock.cxx#4 $)

>  <Rbt.Library>
libRbt.so (2013.1, Build901 2013/11/27)

>  <Rbt.Parameter_File>
/export/apps/rDock/src/rDock_2013.1_src/data/scripts/dock_solv.prm

>  <Rbt.Receptor>
prm/blind_docking_100.prm

>  <SCORE>
2.41368

>  <SCORE.INTER>
-1.9451

>  <SCORE.INTER.CONST>
1

>  <SCORE.INTER.POLAR>
-1.13248

>  <SCORE.INTER.ROT>
8

>  <SCORE.INTER.SOLV>
25.8711

>  <SCORE.INTER.VDW>
-15.0789

>  <SCORE.INTER.norm>
-0.0607845

>  <SCORE.INTRA>
3.52202

>  <SCORE.INTRA.DIHEDRAL>
5.99996

>  <SCORE.INTRA.DIHEDRAL.0>
10.9248

>  <SCORE.INTRA.POLAR>
0

>  <SCORE.INTRA.POLAR.0>
0

>  <SCORE.INTRA.REPUL>
0

>  <SCORE.INTRA.REPUL.0>
0

>  <SCORE.INTRA.SOLV>
0.435331

>  <SCORE.INTRA.SOLV.lig_0>
-51.4104

>  <SCORE.INTRA.VDW>
0.304372

>  <SCORE.INTRA.VDW.0>
0.110327

>  <SCORE.INTRA.norm>
0.110063

>  <SCORE.RESTR>
0.836759

>  <SCORE.RESTR.CAVITY>
0.836759

>  <SCORE.RESTR.norm>
0.0261487

>  <SCORE.SYSTEM>
0

>  <SCORE.SYSTEM.CONST>
0

>  <SCORE.SYSTEM.DIHEDRAL>
0

>  <SCORE.SYSTEM.SOLV>
0

>  <SCORE.SYSTEM.norm>
0

>  <SCORE.heavy>
32

>  <SCORE.norm>
0.0754274

>  <RMSD>
16.393

$$$$
lig.pdb
 OpenBabel11021811523D
libRbt.so/2013.1/901 2013/11/27
 32 34  0  0  0  0  0  0  0  0999 V2000
   -2.4396    5.7045    1.1858 P   0  0  0  0  0  0  0  0  0  0  0  0
   -2.9351    6.1719   -0.1611 O   0  0  0  0  0  0  0  0  0  0  0  0
   -2.1457    7.0927    1.9727 O   0  0  0  0  0  0  0  0  0  0  0  0
   -3.4039    4.9880    2.0978 O   0  0  0  0  0  0  0  0  0  0  0  0
   -1.3680    4.7655    0.9162 O   0  0  0  0  0  0  0  0  0  0  0  0
   -0.1127    5.5088    0.6567 P   0  0  1  0  0  0  0  0  0  0  0  0
   -0.3585    6.4555   -0.4565 O   0  0  0  0  0  0  0  0  0  0  0  0
    0.2832    6.2731    1.8624 O   0  0  0  0  0  0  0  0  0  0  0  0
    0.9619    4.5513    0.2931 O   0  0  0  0  0  0  0  0  0  0  0  0
    1.3230    3.3955    1.1478 P   0  0  1  0  0  0  0  0  0  0  0  0
    2.7708    3.2328    1.3912 O   0  0  0  0  0  0  0  0  0  0  0  0
    0.4665    3.2039    2.3394 O   0  0  0  0  0  0  0  0  0  0  0  0
    0.9883    2.1298    0.1966 O   0  0  0  0  0  0  0  0  0  0  0  0
    1.8742    1.0360    0.0507 C   0  0  0  0  0  0  0  0  0  0  0  0
    3.0205    1.3314   -0.9266 C   0  0  1  0  0  0  0  0  0  0  0  0
    3.7176    0.1426   -1.2385 O   0  0  0  0  0  0  0  0  0  0  0  0
    2.5472    1.7810   -2.3200 C   0  0  1  0  0  0  0  0  0  0  0  0
    2.1113    3.1270   -2.4109 O   0  0  0  0  0  0  0  0  0  0  0  0
    3.7526    1.4887   -3.2132 C   0  0  1  0  0  0  0  0  0  0  0  0
    4.6217    2.6024   -3.3199 O   0  0  0  0  0  0  0  0  0  0  0  0
    4.4586    0.3905   -2.4200 C   0  0  2  0  0  0  0  0  0  0  0  0
    4.7194   -0.8607   -3.1633 N   0  0  0  0  0  0  0  0  0  0  0  0
    5.7508   -1.2018   -4.0012 C   0  0  0  0  0  0  0  0  0  0  0  0
    5.6103   -2.3709   -4.5707 N   0  0  0  0  0  0  0  0  0  0  0  0
    4.4113   -2.8565   -4.0575 C   0  0  0  0  0  0  0  0  0  0  0  0
    3.6998   -4.0686   -4.3307 C   0  0  0  0  0  0  0  0  0  0  0  0
    3.9954   -4.9486   -5.1366 O   0  0  0  0  0  0  0  0  0  0  0  0
    2.5311   -4.1953   -3.5679 N   0  0  0  0  0  0  0  0  0  0  0  0
    2.1237   -3.2661   -2.6226 C   0  0  0  0  0  0  0  0  0  0  0  0
    1.0461   -3.5522   -1.8832 N   0  0  0  0  0  0  0  0  0  0  0  0
    2.7684   -2.1082   -2.4046 N   0  0  0  0  0  0  0  0  0  0  0  0
    3.8952   -1.9589   -3.1532 C   0  0  0  0  0  0  0  0  0  0  0  0
  1  2  2  0  0  0  0
  1  4  1  0  0  0  0
  1  3  1  0  0  0  0
  5  1  1  0  0  0  0
  6  7  2  6  0  0  0
  6  9  1  0  0  0  0
  6  5  1  0  0  0  0
  6  8  1  0  0  0  0
 10 11  2  1  0  0  0
 10 12  1  0  0  0  0
 10 13  1  0  0  0  0
 10  9  1  0  0  0  0
 13 14  1  0  0  0  0
 15 14  1  1  0  0  0
 15 16  1  0  0  0  0
 17 19  1  0  0  0  0
 17 15  1  0  0  0  0
 17 18  1  1  0  0  0
 19 21  1  0  0  0  0
 19 20  1  1  0  0  0
 21 16  1  0  0  0  0
 21 22  1  6  0  0  0
 22 32  1  0  0  0  0
 23 22  1  0  0  0  0
 23 24  2  0  0  0  0
 24 25  1  0  0  0  0
 25 26  1  0  0  0  0
 26 27  2  0  0  0  0
 26 28  1  0  0  0  0
 29 28  1  0  0  0  0
 29 30  1  0  0  0  0
 31 29  2  0  0  0  0
 32 25  2  0  0  0  0
 32 31  1  0  0  0  0
M  END
>  <CHROM.1>
82.00553755,-54.22427347,-56.02419709,134.54091389,-132.24676724,-79.90910561
-168.54233063,65.38790104,64.06701189,-151.63017091,1.56454128,1.88345320
-0.96510517,2.12244590,0.42749348,0.28234518

>  <Name>
lig.pdb

>  <RI>
4.14043e+07

>  <Rbt.Current_Directory>
/home/itssahil/PROJECTS/Mol_Feturizer/New_Systems/rnas/5lwj

>  <Rbt.Executable>
rbdock ($Id: //depot/dev/client3/rdock/2013.1/src/exe/rbdock.cxx#4 $)

>  <Rbt.Library>
libRbt.so (2013.1, Build901 2013/11/27)

>  <Rbt.Parameter_File>
/export/apps/rDock/src/rDock_2013.1_src/data/scripts/dock_solv.prm

>  <Rbt.Receptor>
prm/blind_docking_80.prm

>  <SCORE>
-39.9339

>  <SCORE.INTER>
-38.577

>  <SCORE.INTER.CONST>
1

>  <SCORE.INTER.POLAR>
-2.51647

>  <SCORE.INTER.ROT>
8

>  <SCORE.INTER.SOLV>
27.5545

>  <SCORE.INTER.VDW>
-35.4479

>  <SCORE.INTER.norm>
-1.20553

>  <SCORE.INTRA>
-1.90668

>  <SCORE.INTRA.DIHEDRAL>
-0.245007

>  <SCORE.INTRA.DIHEDRAL.0>
10.9248

>  <SCORE.INTRA.POLAR>
0

>  <SCORE.INTRA.POLAR.0>
0

>  <SCORE.INTRA.REPUL>
0

>  <SCORE.INTRA.REPUL.0>
0

>  <SCORE.INTRA.SOLV>
1.41082

>  <SCORE.INTRA.SOLV.lig_0>
-51.4104

>  <SCORE.INTRA.VDW>
-2.48959

>  <SCORE.INTRA.VDW.0>
0.110327

>  <SCORE.INTRA.norm>
-0.0595839

>  <SCORE.RESTR>
0.549787

>  <SCORE.RESTR.CAVITY>
0.549787

>  <SCORE.RESTR.norm>
0.0171809

>  <SCORE.SYSTEM>
0

>  <SCORE.SYSTEM.CONST>
0

>  <SCORE.SYSTEM.DIHEDRAL>
0

>  <SCORE.SYSTEM.SOLV>
0

>  <SCORE.SYSTEM.norm>
0

>  <SCORE.heavy>
32

>  <SCORE.norm>
-1.24793

>  <RMSD>
16.466

$$$$
lig.pdb
 OpenBabel11021811523D
libRbt.so/2013.1/901 2013/11/27
 32 34  0  0  0  0  0  0  0  0999 V2000
   -4.8652    1.8780   -6.1681 P   0  0  0  0  0  0  0  0  0  0  0  0
   -4.9002    0.5147   -6.8148 O   0  0  0  0  0  0  0  0  0  0  0  0
   -3.8040    1.6843   -4.9561 O   0  0  0  0  0  0  0  0  0  0  0  0
   -4.2884    3.0308   -6.9512 O   0  0  0  0  0  0  0  0  0  0  0  0
   -6.2454    2.2286   -5.8943 O   0  0  0  0  0  0  0  0  0  0  0  0
   -6.6536    1.6504   -4.5925 P   0  0  1  0  0  0  0  0  0  0  0  0
   -8.0532    2.0575   -4.3251 O   0  0  0  0  0  0  0  0  0  0  0  0
   -6.5831    0.1717   -4.6493 O   0  0  0  0  0  0  0  0  0  0  0  0
   -5.7553    2.1558   -3.5243 O   0  0  0  0  0  0  0  0  0  0  0  0
   -5.9488    1.8190   -2.0939 P   0  0  1  0  0  0  0  0  0  0  0  0
   -6.6459    0.5404   -1.8469 O   0  0  0  0  0  0  0  0  0  0  0  0
   -4.7753    2.0653   -1.2265 O   0  0  0  0  0  0  0  0  0  0  0  0
   -7.0457    2.9085   -1.6159 O   0  0  0  0  0  0  0  0  0  0  0  0
   -6.8173    4.3024   -1.7023 C   0  0  0  0  0  0  0  0  0  0  0  0
   -6.1933    4.8783   -0.4235 C   0  0  1  0  0  0  0  0  0  0  0  0
   -4.7910    4.7060   -0.4415 O   0  0  0  0  0  0  0  0  0  0  0  0
   -6.3103    6.4085   -0.3109 C   0  0  1  0  0  0  0  0  0  0  0  0
   -7.5831    6.8954    0.0805 O   0  0  0  0  0  0  0  0  0  0  0  0
   -5.2069    6.7745    0.6814 C   0  0  1  0  0  0  0  0  0  0  0  0
   -5.6755    6.7959    2.0182 O   0  0  0  0  0  0  0  0  0  0  0  0
   -4.2483    5.5966    0.5170 C   0  0  2  0  0  0  0  0  0  0  0  0
   -2.8527    5.9561    0.1869 N   0  0  0  0  0  0  0  0  0  0  0  0
   -1.7205    5.9402    0.9616 C   0  0  0  0  0  0  0  0  0  0  0  0
   -0.6603    6.4217    0.3658 N   0  0  0  0  0  0  0  0  0  0  0  0
   -1.1106    6.7610   -0.9065 C   0  0  0  0  0  0  0  0  0  0  0  0
   -0.4293    7.3716   -2.0078 C   0  0  0  0  0  0  0  0  0  0  0  0
    0.7321    7.7731   -2.0441 O   0  0  0  0  0  0  0  0  0  0  0  0
   -1.2444    7.5131   -3.1389 N   0  0  0  0  0  0  0  0  0  0  0  0
   -2.5591    7.0764   -3.2005 C   0  0  0  0  0  0  0  0  0  0  0  0
   -3.1993    7.1720   -4.3713 N   0  0  0  0  0  0  0  0  0  0  0  0
   -3.2082    6.5484   -2.1500 N   0  0  0  0  0  0  0  0  0  0  0  0
   -2.4370    6.4232   -1.0355 C   0  0  0  0  0  0  0  0  0  0  0  0
  1  2  2  0  0  0  0
  1  4  1  0  0  0  0
  1  3  1  0  0  0  0
  5  1  1  0  0  0  0
  6  7  2  1  0  0  0
  6  9  1  0  0  0  0
  6  5  1  0  0  0  0
  6  8  1  0  0  0  0
 10 11  2  1  0  0  0
 10 12  1  0  0  0  0
 10 13  1  0  0  0  0
 10  9  1  0  0  0  0
 13 14  1  0  0  0  0
 15 14  1  6  0  0  0
 15 16  1  0  0  0  0
 17 19  1  0  0  0  0
 17 15  1  0  0  0  0
 17 18  1  1  0  0  0
 19 21  1  0  0  0  0
 19 20  1  1  0  0  0
 21 16  1  0  0  0  0
 21 22  1  6  0  0  0
 22 32  1  0  0  0  0
 23 22  1  0  0  0  0
 23 24  2  0  0  0  0
 24 25  1  0  0  0  0
 25 26  1  0  0  0  0
 26 27  2  0  0  0  0
 26 28  1  0  0  0  0
 29 28  1  0  0  0  0
 29 30  1  0  0  0  0
 31 29  2  0  0  0  0
 32 25  2  0  0  0  0
 32 31  1  0  0  0  0
M  END
>  <CHROM.1>
85.25577816,176.59556186,178.44414972,-59.18406253,26.30232972,-91.26471031
83.86764580,175.85891655,51.02403949,-129.96593542,-4.63822121,4.13533411
-2.51031505,-2.12662800,0.57578460,0.99706045

>  <Name>
lig.pdb

>  <RI>
2.72908e+07

>  <Rbt.Current_Directory>
/home/itssahil/PROJECTS/Mol_Feturizer/New_Systems/rnas/5lwj

>  <Rbt.Executable>
rbdock ($Id: //depot/dev/client3/rdock/2013.1/src/exe/rbdock.cxx#4 $)

>  <Rbt.Library>
libRbt.so (2013.1, Build901 2013/11/27)

>  <Rbt.Parameter_File>
/export/apps/rDock/src/rDock_2013.1_src/data/scripts/dock_solv.prm

>  <Rbt.Receptor>
prm/blind_docking_20.prm

>  <SCORE>
-36.5754

>  <SCORE.INTER>
-35.3355

>  <SCORE.INTER.CONST>
1

>  <SCORE.INTER.POLAR>
-2.98369

>  <SCORE.INTER.ROT>
8

>  <SCORE.INTER.SOLV>
22.4063

>  <SCORE.INTER.VDW>
-30.0134

>  <SCORE.INTER.norm>
-1.10423

>  <SCORE.INTRA>
-3.46403

>  <SCORE.INTRA.DIHEDRAL>
-0.0267645

>  <SCORE.INTRA.DIHEDRAL.0>
10.9248

>  <SCORE.INTRA.POLAR>
0

>  <SCORE.INTRA.POLAR.0>
0

>  <SCORE.INTRA.REPUL>
0

>  <SCORE.INTRA.REPUL.0>
0

>  <SCORE.INTRA.SOLV>
1.03158

>  <SCORE.INTRA.SOLV.lig_0>
-51.4104

>  <SCORE.INTRA.VDW>
-3.96644

>  <SCORE.INTRA.VDW.0>
0.110327

>  <SCORE.INTRA.norm>
-0.108251

>  <SCORE.RESTR>
2.22408

>  <SCORE.RESTR.CAVITY>
2.22408

>  <SCORE.RESTR.norm>
0.0695026

>  <SCORE.SYSTEM>
0

>  <SCORE.SYSTEM.CONST>
0

>  <SCORE.SYSTEM.DIHEDRAL>
0

>  <SCORE.SYSTEM.SOLV>
0

>  <SCORE.SYSTEM.norm>
0

>  <SCORE.heavy>
32

>  <SCORE.norm>
-1.14298

>  <RMSD>
16.470

$$$$
lig.pdb
 OpenBabel11021811523D
libRbt.so/2013.1/901 2013/11/27
 32 34  0  0  0  0  0  0  0  0999 V2000
   -0.1124    6.3313    0.8695 P   0  0  0  0  0  0  0  0  0  0  0  0
   -1.0984    6.6924    1.9538 O   0  0  0  0  0  0  0  0  0  0  0  0
   -1.0526    5.6831   -0.2830 O   0  0  0  0  0  0  0  0  0  0  0  0
    0.6014    7.4460    0.1464 O   0  0  0  0  0  0  0  0  0  0  0  0
    0.9208    5.5425    1.5122 O   0  0  0  0  0  0  0  0  0  0  0  0
    0.9166    4.1710    0.9514 P   0  0  1  0  0  0  0  0  0  0  0  0
   -0.4838    3.6870    0.9261 O   0  0  0  0  0  0  0  0  0  0  0  0
    1.4475    4.1863   -0.4315 O   0  0  0  0  0  0  0  0  0  0  0  0
    1.7535    3.2875    1.8015 O   0  0  0  0  0  0  0  0  0  0  0  0
    1.7791    1.8145    1.6379 P   0  0  1  0  0  0  0  0  0  0  0  0
    1.9674    1.0549    2.8907 O   0  0  0  0  0  0  0  0  0  0  0  0
    0.7503    1.2660    0.7265 O   0  0  0  0  0  0  0  0  0  0  0  0
    3.1809    1.5652    0.8688 O   0  0  0  0  0  0  0  0  0  0  0  0
    3.4698    2.1472   -0.3883 C   0  0  0  0  0  0  0  0  0  0  0  0
    4.5072    1.3445   -1.1857 C   0  0  1  0  0  0  0  0  0  0  0  0
    4.3292   -0.0401   -0.9674 O   0  0  0  0  0  0  0  0  0  0  0  0
    4.3251    1.4379   -2.7108 C   0  0  1  0  0  0  0  0  0  0  0  0
    4.7839    2.6396   -3.3070 O   0  0  0  0  0  0  0  0  0  0  0  0
    5.0601    0.2024   -3.2300 C   0  0  1  0  0  0  0  0  0  0  0  0
    6.4173    0.4750   -3.5315 O   0  0  0  0  0  0  0  0  0  0  0  0
    5.0041   -0.7179   -2.0121 C   0  0  2  0  0  0  0  0  0  0  0  0
    4.4174   -2.0535   -2.2531 N   0  0  0  0  0  0  0  0  0  0  0  0
    4.9507   -3.1671   -2.8514 C   0  0  0  0  0  0  0  0  0  0  0  0
    4.1059   -4.1568   -2.9842 N   0  0  0  0  0  0  0  0  0  0  0  0
    2.9308   -3.6792   -2.4116 C   0  0  0  0  0  0  0  0  0  0  0  0
    1.6380   -4.2821   -2.2890 C   0  0  0  0  0  0  0  0  0  0  0  0
    1.2750   -5.3762   -2.7160 O   0  0  0  0  0  0  0  0  0  0  0  0
    0.7229   -3.4693   -1.6063 N   0  0  0  0  0  0  0  0  0  0  0  0
    1.0421   -2.2295   -1.0733 C   0  0  0  0  0  0  0  0  0  0  0  0
    0.1106   -1.5968   -0.3511 N   0  0  0  0  0  0  0  0  0  0  0  0
    2.2420   -1.6476   -1.2328 N   0  0  0  0  0  0  0  0  0  0  0  0
    3.1372   -2.4149   -1.9128 C   0  0  0  0  0  0  0  0  0  0  0  0
  1  2  2  0  0  0  0
  1  4  1  0  0  0  0
  1  3  1  0  0  0  0
  5  1  1  0  0  0  0
  6  7  2  6  0  0  0
  6  9  1  0  0  0  0
  6  5  1  0  0  0  0
  6  8  1  0  0  0  0
 10 11  2  1  0  0  0
 10 12  1  0  0  0  0
 10 13  1  0  0  0  0
 10  9  1  0  0  0  0
 13 14  1  0  0  0  0
 15 14  1  1  0  0  0
 15 16  1  0  0  0  0
 17 19  1  0  0  0  0
 17 15  1  0  0  0  0
 17 18  1  6  0  0  0
 19 21  1  0  0  0  0
 19 20  1  1  0  0  0
 21 16  1  0  0  0  0
 21 22  1  6  0  0  0
 22 32  1  0  0  0  0
 23 22  1  0  0  0  0
 23 24  2  0  0  0  0
 24 25  1  0  0  0  0
 25 26  1  0  0  0  0
 26 27  2  0  0  0  0
 26 28  1  0  0  0  0
 29 28  1  0  0  0  0
 29 30  1  0  0  0  0
 31 29  2  0  0  0  0
 32 25  2  0  0  0  0
 32 31  1  0  0  0  0
M  END
>  <CHROM.1>
116.13230880,169.88839162,-47.32146825,-58.90860260,-146.47261367,-155.08002523
36.12248795,98.43297160,175.46431122,-158.56040433,2.14822019,1.29583899
-0.54036020,1.96768378,0.55841223,0.17694508

>  <Name>
lig.pdb

>  <RI>
4.14043e+07

>  <Rbt.Current_Directory>
/home/itssahil/PROJECTS/Mol_Feturizer/New_Systems/rnas/5lwj

>  <Rbt.Executable>
rbdock ($Id: //depot/dev/client3/rdock/2013.1/src/exe/rbdock.cxx#4 $)

>  <Rbt.Library>
libRbt.so (2013.1, Build901 2013/11/27)

>  <Rbt.Parameter_File>
/export/apps/rDock/src/rDock_2013.1_src/data/scripts/dock_solv.prm

>  <Rbt.Receptor>
prm/blind_docking_80.prm

>  <SCORE>
-24.3146

>  <SCORE.INTER>
-22.7634

>  <SCORE.INTER.CONST>
1

>  <SCORE.INTER.POLAR>
-1.53216

>  <SCORE.INTER.ROT>
8

>  <SCORE.INTER.SOLV>
27.5312

>  <SCORE.INTER.VDW>
-28.1788

>  <SCORE.INTER.norm>
-0.711356

>  <SCORE.INTRA>
-2.36208

>  <SCORE.INTRA.DIHEDRAL>
6.13335

>  <SCORE.INTRA.DIHEDRAL.0>
10.9248

>  <SCORE.INTRA.POLAR>
-1.32074

>  <SCORE.INTRA.POLAR.0>
0

>  <SCORE.INTRA.REPUL>
0.114051

>  <SCORE.INTRA.REPUL.0>
0

>  <SCORE.INTRA.SOLV>
-0.147697

>  <SCORE.INTRA.SOLV.lig_0>
-51.4104

>  <SCORE.INTRA.VDW>
-1.43464

>  <SCORE.INTRA.VDW.0>
0.110327

>  <SCORE.INTRA.norm>
-0.0738149

>  <SCORE.RESTR>
0.810909

>  <SCORE.RESTR.CAVITY>
0.810909

>  <SCORE.RESTR.norm>
0.0253409

>  <SCORE.SYSTEM>
0

>  <SCORE.SYSTEM.CONST>
0

>  <SCORE.SYSTEM.DIHEDRAL>
0

>  <SCORE.SYSTEM.SOLV>
0

>  <SCORE.SYSTEM.norm>
0

>  <SCORE.heavy>
32

>  <SCORE.norm>
-0.75983

>  <RMSD>
16.477

$$$$
lig.pdb
 OpenBabel11021811523D
libRbt.so/2013.1/901 2013/11/27
 32 34  0  0  0  0  0  0  0  0999 V2000
   -3.6509    4.9130   -0.1586 P   0  0  0  0  0  0  0  0  0  0  0  0
   -3.2220    3.4901    0.1053 O   0  0  0  0  0  0  0  0  0  0  0  0
   -4.4066    4.8108   -1.5907 O   0  0  0  0  0  0  0  0  0  0  0  0
   -4.6950    5.5277    0.7397 O   0  0  0  0  0  0  0  0  0  0  0  0
   -2.4602    5.7265   -0.0064 O   0  0  0  0  0  0  0  0  0  0  0  0
   -1.9088    5.5459    1.3570 P   0  0  1  0  0  0  0  0  0  0  0  0
   -1.4334    6.8634    1.8410 O   0  0  0  0  0  0  0  0  0  0  0  0
   -2.9642    5.0481    2.2697 O   0  0  0  0  0  0  0  0  0  0  0  0
   -0.7857    4.5763    1.3110 O   0  0  0  0  0  0  0  0  0  0  0  0
    0.5813    4.9589    0.8846 P   0  0  1  0  0  0  0  0  0  0  0  0
    0.7375    5.1851   -0.5667 O   0  0  0  0  0  0  0  0  0  0  0  0
    1.2506    5.9593    1.7456 O   0  0  0  0  0  0  0  0  0  0  0  0
    1.4216    3.5951    1.1140 O   0  0  0  0  0  0  0  0  0  0  0  0
    1.9443    2.8369    0.0395 C   0  0  0  0  0  0  0  0  0  0  0  0
    2.4213    1.4450    0.4768 C   0  0  1  0  0  0  0  0  0  0  0  0
    1.6443    0.4424   -0.1457 O   0  0  0  0  0  0  0  0  0  0  0  0
    3.8331    1.0884   -0.0208 C   0  0  1  0  0  0  0  0  0  0  0  0
    4.9008    1.6883    0.6935 O   0  0  0  0  0  0  0  0  0  0  0  0
    3.8575   -0.4381    0.0517 C   0  0  1  0  0  0  0  0  0  0  0  0
    4.3465   -0.9065    1.2961 O   0  0  0  0  0  0  0  0  0  0  0  0
    2.3698   -0.7702   -0.0465 C   0  0  2  0  0  0  0  0  0  0  0  0
    1.9995   -1.7080   -1.1280 N   0  0  0  0  0  0  0  0  0  0  0  0
    0.8834   -2.4898   -1.2872 C   0  0  0  0  0  0  0  0  0  0  0  0
    0.9313   -3.2816   -2.3272 N   0  0  0  0  0  0  0  0  0  0  0  0
    2.1566   -2.9903   -2.9193 C   0  0  0  0  0  0  0  0  0  0  0  0
    2.7991   -3.5570   -4.0665 C   0  0  0  0  0  0  0  0  0  0  0  0
    2.4006   -4.4821   -4.7711 O   0  0  0  0  0  0  0  0  0  0  0  0
    4.0295   -2.9507   -4.3539 N   0  0  0  0  0  0  0  0  0  0  0  0
    4.5540   -1.8911   -3.6293 C   0  0  0  0  0  0  0  0  0  0  0  0
    5.6862   -1.3290   -4.0673 N   0  0  0  0  0  0  0  0  0  0  0  0
    3.9710   -1.3952   -2.5257 N   0  0  0  0  0  0  0  0  0  0  0  0
    2.7844   -1.9874   -2.2193 C   0  0  0  0  0  0  0  0  0  0  0  0
  1  2  2  0  0  0  0
  1  4  1  0  0  0  0
  1  3  1  0  0  0  0
  5  1  1  0  0  0  0
  6  7  2  1  0  0  0
  6  9  1  0  0  0  0
  6  5  1  0  0  0  0
  6  8  1  0  0  0  0
 10 11  2  6  0  0  0
 10 12  1  0  0  0  0
 10 13  1  0  0  0  0
 10  9  1  0  0  0  0
 13 14  1  0  0  0  0
 15 14  1  6  0  0  0
 15 16  1  0  0  0  0
 17 19  1  0  0  0  0
 17 15  1  0  0  0  0
 17 18  1  1  0  0  0
 19 21  1  0  0  0  0
 19 20  1  1  0  0  0
 21 16  1  0  0  0  0
 21 22  1  6  0  0  0
 22 32  1  0  0  0  0
 23 22  1  0  0  0  0
 23 24  2  0  0  0  0
 24 25  1  0  0  0  0
 25 26  1  0  0  0  0
 26 27  2  0  0  0  0
 26 28  1  0  0  0  0
 29 28  1  0  0  0  0
 29 30  1  0  0  0  0
 31 29  2  0  0  0  0
 32 25  2  0  0  0  0
 32 31  1  0  0  0  0
M  END
>  <CHROM.1>
-58.43765121,80.44511236,-140.63511503,111.55700612,-73.65126894,-167.17006764
115.89980117,-140.75493845,83.54694409,-75.84136383,0.77319243,1.89423938
-0.47906731,2.19066894,-0.25773927,0.59623594

>  <Name>
lig.pdb

>  <RI>
2.72908e+07

>  <Rbt.Current_Directory>
/home/itssahil/PROJECTS/Mol_Feturizer/New_Systems/rnas/5lwj

>  <Rbt.Executable>
rbdock ($Id: //depot/dev/client3/rdock/2013.1/src/exe/rbdock.cxx#4 $)

>  <Rbt.Library>
libRbt.so (2013.1, Build901 2013/11/27)

>  <Rbt.Parameter_File>
/export/apps/rDock/src/rDock_2013.1_src/data/scripts/dock_solv.prm

>  <Rbt.Receptor>
prm/blind_docking_20.prm

>  <SCORE>
-18.9063

>  <SCORE.INTER>
-28.1614

>  <SCORE.INTER.CONST>
1

>  <SCORE.INTER.POLAR>
-2.94873

>  <SCORE.INTER.ROT>
8

>  <SCORE.INTER.SOLV>
27.9096

>  <SCORE.INTER.VDW>
-27.1817

>  <SCORE.INTER.norm>
-0.880043

>  <SCORE.INTRA>
8.01768

>  <SCORE.INTRA.DIHEDRAL>
9.93527

>  <SCORE.INTRA.DIHEDRAL.0>
10.9248

>  <SCORE.INTRA.POLAR>
0

>  <SCORE.INTRA.POLAR.0>
0

>  <SCORE.INTRA.REPUL>
0

>  <SCORE.INTRA.REPUL.0>
0

>  <SCORE.INTRA.SOLV>
-0.0375391

>  <SCORE.INTRA.SOLV.lig_0>
-51.4104

>  <SCORE.INTRA.VDW>
3.06881

>  <SCORE.INTRA.VDW.0>
0.110327

>  <SCORE.INTRA.norm>
0.250552

>  <SCORE.RESTR>
1.23738

>  <SCORE.RESTR.CAVITY>
1.23738

>  <SCORE.RESTR.norm>
0.0386681

>  <SCORE.SYSTEM>
0

>  <SCORE.SYSTEM.CONST>
0

>  <SCORE.SYSTEM.DIHEDRAL>
0

>  <SCORE.SYSTEM.SOLV>
0

>  <SCORE.SYSTEM.norm>
0

>  <SCORE.heavy>
32

>  <SCORE.norm>
-0.590822

>  <RMSD>
16.530

$$$$
lig.pdb
 OpenBabel11021811523D
libRbt.so/2013.1/901 2013/11/27
 32 34  0  0  0  0  0  0  0  0999 V2000
   -8.0781    1.4620   -4.9363 P   0  0  0  0  0  0  0  0  0  0  0  0
   -9.3900    2.0825   -5.3510 O   0  0  0  0  0  0  0  0  0  0  0  0
   -8.0172    1.7587   -3.3423 O   0  0  0  0  0  0  0  0  0  0  0  0
   -7.9354   -0.0375   -5.0142 O   0  0  0  0  0  0  0  0  0  0  0  0
   -7.0749    2.0082   -5.8297 O   0  0  0  0  0  0  0  0  0  0  0  0
   -5.8081    2.2081   -5.0875 P   0  0  1  0  0  0  0  0  0  0  0  0
   -4.6899    2.1459   -6.0579 O   0  0  0  0  0  0  0  0  0  0  0  0
   -5.8069    3.5376   -4.4339 O   0  0  0  0  0  0  0  0  0  0  0  0
   -5.6630    1.1440   -4.0628 O   0  0  0  0  0  0  0  0  0  0  0  0
   -4.7020    1.2448   -2.9388 P   0  0  1  0  0  0  0  0  0  0  0  0
   -4.9005    0.2528   -1.8626 O   0  0  0  0  0  0  0  0  0  0  0  0
   -3.2923    1.4589   -3.3353 O   0  0  0  0  0  0  0  0  0  0  0  0
   -5.1382    2.6271   -2.2193 O   0  0  0  0  0  0  0  0  0  0  0  0
   -4.8823    2.8832   -0.8512 C   0  0  0  0  0  0  0  0  0  0  0  0
   -4.7937    4.3834   -0.5383 C   0  0  1  0  0  0  0  0  0  0  0  0
   -3.4553    4.7510   -0.2741 O   0  0  0  0  0  0  0  0  0  0  0  0
   -5.1264    5.2879   -1.7379 C   0  0  1  0  0  0  0  0  0  0  0  0
   -6.5060    5.4226   -2.0358 O   0  0  0  0  0  0  0  0  0  0  0  0
   -4.4687    6.6176   -1.3701 C   0  0  1  0  0  0  0  0  0  0  0  0
   -5.3539    7.4777   -0.6746 O   0  0  0  0  0  0  0  0  0  0  0  0
   -3.3744    6.1588   -0.4080 C   0  0  2  0  0  0  0  0  0  0  0  0
   -2.0030    6.5876   -0.7565 N   0  0  0  0  0  0  0  0  0  0  0  0
   -0.8321    6.4938   -0.0476 C   0  0  0  0  0  0  0  0  0  0  0  0
    0.1888    7.0714   -0.6264 N   0  0  0  0  0  0  0  0  0  0  0  0
   -0.3316    7.5650   -1.8189 C   0  0  0  0  0  0  0  0  0  0  0  0
    0.2831    8.3289   -2.8623 C   0  0  0  0  0  0  0  0  0  0  0  0
    1.4352    8.7558   -2.9028 O   0  0  0  0  0  0  0  0  0  0  0  0
   -0.5915    8.6005   -3.9231 N   0  0  0  0  0  0  0  0  0  0  0  0
   -1.9013    8.1482   -3.9767 C   0  0  0  0  0  0  0  0  0  0  0  0
   -2.6026    8.3831   -5.0914 N   0  0  0  0  0  0  0  0  0  0  0  0
   -2.4876    7.4736   -2.9742 N   0  0  0  0  0  0  0  0  0  0  0  0
   -1.6579    7.2195   -1.9256 C   0  0  0  0  0  0  0  0  0  0  0  0
  1  2  2  0  0  0  0
  1  4  1  0  0  0  0
  1  3  1  0  0  0  0
  5  1  1  0  0  0  0
  6  7  2  6  0  0  0
  6  9  1  0  0  0  0
  6  5  1  0  0  0  0
  6  8  1  0  0  0  0
 10 11  2  1  0  0  0
 10 12  1  0  0  0  0
 10 13  1  0  0  0  0
 10  9  1  0  0  0  0
 13 14  1  0  0  0  0
 15 14  1  6  0  0  0
 15 16  1  0  0  0  0
 17 19  1  0  0  0  0
 17 15  1  0  0  0  0
 17 18  1  1  0  0  0
 19 21  1  0  0  0  0
 19 20  1  1  0  0  0
 21 16  1  0  0  0  0
 21 22  1  6  0  0  0
 22 32  1  0  0  0  0
 23 22  1  0  0  0  0
 23 24  2  0  0  0  0
 24 25  1  0  0  0  0
 25 26  1  0  0  0  0
 26 27  2  0  0  0  0
 26 28  1  0  0  0  0
 29 28  1  0  0  0  0
 29 30  1  0  0  0  0
 31 29  2  0  0  0  0
 32 25  2  0  0  0  0
 32 31  1  0  0  0  0
M  END
>  <CHROM.1>
144.00268331,-164.05063113,154.08101407,154.67840709,167.00181610,154.56181925
-107.88089272,54.19068905,161.56508299,-64.54093685,-4.36308580,4.26315324
-2.99887999,-3.05444921,0.85170210,1.81332773

>  <Name>
lig.pdb

>  <RI>
2.72908e+07

>  <Rbt.Current_Directory>
/home/itssahil/PROJECTS/Mol_Feturizer/New_Systems/rnas/5lwj

>  <Rbt.Executable>
rbdock ($Id: //depot/dev/client3/rdock/2013.1/src/exe/rbdock.cxx#4 $)

>  <Rbt.Library>
libRbt.so (2013.1, Build901 2013/11/27)

>  <Rbt.Parameter_File>
/export/apps/rDock/src/rDock_2013.1_src/data/scripts/dock_solv.prm

>  <Rbt.Receptor>
prm/blind_docking_20.prm

>  <SCORE>
-21.0968

>  <SCORE.INTER>
-25.0927

>  <SCORE.INTER.CONST>
1

>  <SCORE.INTER.POLAR>
-1.02186

>  <SCORE.INTER.ROT>
8

>  <SCORE.INTER.SOLV>
19.2908

>  <SCORE.INTER.VDW>
-28.6859

>  <SCORE.INTER.norm>
-0.784147

>  <SCORE.INTRA>
1.71794

>  <SCORE.INTRA.DIHEDRAL>
4.45851

>  <SCORE.INTRA.DIHEDRAL.0>
10.9248

>  <SCORE.INTRA.POLAR>
0

>  <SCORE.INTRA.POLAR.0>
0

>  <SCORE.INTRA.REPUL>
0.00633272

>  <SCORE.INTRA.REPUL.0>
0

>  <SCORE.INTRA.SOLV>
0.282771

>  <SCORE.INTRA.SOLV.lig_0>
-51.4104

>  <SCORE.INTRA.VDW>
-0.684363

>  <SCORE.INTRA.VDW.0>
0.110327

>  <SCORE.INTRA.norm>
0.0536857

>  <SCORE.RESTR>
2.27794

>  <SCORE.RESTR.CAVITY>
2.27794

>  <SCORE.RESTR.norm>
0.0711857

>  <SCORE.SYSTEM>
0

>  <SCORE.SYSTEM.CONST>
0

>  <SCORE.SYSTEM.DIHEDRAL>
0

>  <SCORE.SYSTEM.SOLV>
0

>  <SCORE.SYSTEM.norm>
0

>  <SCORE.heavy>
32

>  <SCORE.norm>
-0.659276

>  <RMSD>
16.579

$$$$
lig.pdb
 OpenBabel11021811523D
libRbt.so/2013.1/901 2013/11/27
 32 34  0  0  0  0  0  0  0  0999 V2000
   -0.4089    6.8346   -0.6919 P   0  0  0  0  0  0  0  0  0  0  0  0
    0.8119    7.7163   -0.5900 O   0  0  0  0  0  0  0  0  0  0  0  0
   -1.5111    7.6265    0.1973 O   0  0  0  0  0  0  0  0  0  0  0  0
   -1.0841    6.6936   -2.0333 O   0  0  0  0  0  0  0  0  0  0  0  0
    0.0250    5.5024   -0.3182 O   0  0  0  0  0  0  0  0  0  0  0  0
   -0.1047    5.3332    1.1481 P   0  0  1  0  0  0  0  0  0  0  0  0
    0.8006    6.3041    1.8067 O   0  0  0  0  0  0  0  0  0  0  0  0
   -1.4979    5.6090    1.5697 O   0  0  0  0  0  0  0  0  0  0  0  0
    0.2676    3.9451    1.5198 O   0  0  0  0  0  0  0  0  0  0  0  0
    1.4818    3.2771    0.9939 P   0  0  1  0  0  0  0  0  0  0  0  0
    1.4540    2.9918   -0.4551 O   0  0  0  0  0  0  0  0  0  0  0  0
    2.7640    3.8185    1.4969 O   0  0  0  0  0  0  0  0  0  0  0  0
    1.3824    1.7965    1.6394 O   0  0  0  0  0  0  0  0  0  0  0  0
    2.1494    0.7078    1.1608 C   0  0  0  0  0  0  0  0  0  0  0  0
    1.3399   -0.2317    0.2562 C   0  0  1  0  0  0  0  0  0  0  0  0
    2.0630   -0.5208   -0.9228 O   0  0  0  0  0  0  0  0  0  0  0  0
    1.1411   -1.6398    0.8439 C   0  0  1  0  0  0  0  0  0  0  0  0
    0.1511   -1.7448    1.8534 O   0  0  0  0  0  0  0  0  0  0  0  0
    0.8255   -2.4933   -0.3842 C   0  0  1  0  0  0  0  0  0  0  0  0
   -0.5661   -2.5717   -0.6376 O   0  0  0  0  0  0  0  0  0  0  0  0
    1.4811   -1.6775   -1.4969 C   0  0  2  0  0  0  0  0  0  0  0  0
    2.4560   -2.4119   -2.3314 N   0  0  0  0  0  0  0  0  0  0  0  0
    2.4941   -3.7311   -2.7061 C   0  0  0  0  0  0  0  0  0  0  0  0
    3.5673   -4.0642   -3.3755 N   0  0  0  0  0  0  0  0  0  0  0  0
    4.2862   -2.8769   -3.4767 C   0  0  0  0  0  0  0  0  0  0  0  0
    5.5646   -2.6047   -4.0612 C   0  0  0  0  0  0  0  0  0  0  0  0
    6.3390   -3.4048   -4.5820 O   0  0  0  0  0  0  0  0  0  0  0  0
    5.9205   -1.2516   -3.9814 N   0  0  0  0  0  0  0  0  0  0  0  0
    5.1081   -0.2726   -3.4293 C   0  0  0  0  0  0  0  0  0  0  0  0
    5.5140    0.9996   -3.5084 N   0  0  0  0  0  0  0  0  0  0  0  0
    3.9317   -0.5404   -2.8393 N   0  0  0  0  0  0  0  0  0  0  0  0
    3.5801   -1.8543   -2.8888 C   0  0  0  0  0  0  0  0  0  0  0  0
  1  2  2  0  0  0  0
  1  4  1  0  0  0  0
  1  3  1  0  0  0  0
  5  1  1  0  0  0  0
  6  7  2  1  0  0  0
  6  9  1  0  0  0  0
  6  5  1  0  0  0  0
  6  8  1  0  0  0  0
 10 11  2  6  0  0  0
 10 12  1  0  0  0  0
 10 13  1  0  0  0  0
 10  9  1  0  0  0  0
 13 14  1  0  0  0  0
 15 14  1  1  0  0  0
 15 16  1  0  0  0  0
 17 19  1  0  0  0  0
 17 15  1  0  0  0  0
 17 18  1  1  0  0  0
 19 21  1  0  0  0  0
 19 20  1  6  0  0  0
 21 16  1  0  0  0  0
 21 22  1  1  0  0  0
 22 32  1  0  0  0  0
 23 22  1  0  0  0  0
 23 24  2  0  0  0  0
 24 25  1  0  0  0  0
 25 26  1  0  0  0  0
 26 27  2  0  0  0  0
 26 28  1  0  0  0  0
 29 28  1  0  0  0  0
 29 30  1  0  0  0  0
 31 29  2  0  0  0  0
 32 25  2  0  0  0  0
 32 31  1  0  0  0  0
M  END
>  <CHROM.1>
88.61774242,46.18851154,-62.86454844,164.21646301,-67.27157535,-101.20192918
132.37895858,-69.13784669,-175.65702539,156.31425984,1.69051532,1.66719183
-0.72578251,-2.18325352,-0.80248470,3.03707017

>  <Name>
lig.pdb

>  <RI>
4.14043e+07

>  <Rbt.Current_Directory>
/home/itssahil/PROJECTS/Mol_Feturizer/New_Systems/rnas/5lwj

>  <Rbt.Executable>
rbdock ($Id: //depot/dev/client3/rdock/2013.1/src/exe/rbdock.cxx#4 $)

>  <Rbt.Library>
libRbt.so (2013.1, Build901 2013/11/27)

>  <Rbt.Parameter_File>
/export/apps/rDock/src/rDock_2013.1_src/data/scripts/dock_solv.prm

>  <Rbt.Receptor>
prm/blind_docking_80.prm

>  <SCORE>
-23.2162

>  <SCORE.INTER>
-25.5695

>  <SCORE.INTER.CONST>
1

>  <SCORE.INTER.POLAR>
-1.81376

>  <SCORE.INTER.ROT>
8

>  <SCORE.INTER.SOLV>
29.028

>  <SCORE.INTER.VDW>
-29.6098

>  <SCORE.INTER.norm>
-0.799048

>  <SCORE.INTRA>
1.64396

>  <SCORE.INTRA.DIHEDRAL>
4.42429

>  <SCORE.INTRA.DIHEDRAL.0>
10.9248

>  <SCORE.INTRA.POLAR>
0

>  <SCORE.INTRA.POLAR.0>
0

>  <SCORE.INTRA.REPUL>
0.374702

>  <SCORE.INTRA.REPUL.0>
0

>  <SCORE.INTRA.SOLV>
0.0972995

>  <SCORE.INTRA.SOLV.lig_0>
-51.4104

>  <SCORE.INTRA.VDW>
-2.49035

>  <SCORE.INTRA.VDW.0>
0.110327

>  <SCORE.INTRA.norm>
0.0513736

>  <SCORE.RESTR>
0.709409

>  <SCORE.RESTR.CAVITY>
0.709409

>  <SCORE.RESTR.norm>
0.022169

>  <SCORE.SYSTEM>
0

>  <SCORE.SYSTEM.CONST>
0

>  <SCORE.SYSTEM.DIHEDRAL>
0

>  <SCORE.SYSTEM.SOLV>
0

>  <SCORE.SYSTEM.norm>
0

>  <SCORE.heavy>
32

>  <SCORE.norm>
-0.725505

>  <RMSD>
16.613

$$$$
lig.pdb
 OpenBabel11021811523D
libRbt.so/2013.1/901 2013/11/27
 32 34  0  0  0  0  0  0  0  0999 V2000
    3.3600   -4.2055   -3.8970 P   0  0  0  0  0  0  0  0  0  0  0  0
    3.6049   -3.8496   -5.3432 O   0  0  0  0  0  0  0  0  0  0  0  0
    1.7650   -3.9646   -3.7228 O   0  0  0  0  0  0  0  0  0  0  0  0
    3.5414   -5.6404   -3.4688 O   0  0  0  0  0  0  0  0  0  0  0  0
    4.3139   -3.4322   -3.1257 O   0  0  0  0  0  0  0  0  0  0  0  0
    3.6066   -2.3412   -2.4151 P   0  0  1  0  0  0  0  0  0  0  0  0
    2.9543   -1.4777   -3.4275 O   0  0  0  0  0  0  0  0  0  0  0  0
    2.5690   -2.9064   -1.5215 O   0  0  0  0  0  0  0  0  0  0  0  0
    4.5829   -1.5565   -1.6185 O   0  0  0  0  0  0  0  0  0  0  0  0
    4.5389   -0.0772   -1.5355 P   0  0  1  0  0  0  0  0  0  0  0  0
    5.0045    0.4858   -0.2518 O   0  0  0  0  0  0  0  0  0  0  0  0
    5.0245    0.6339   -2.7392 O   0  0  0  0  0  0  0  0  0  0  0  0
    2.9508    0.2307   -1.4921 O   0  0  0  0  0  0  0  0  0  0  0  0
    2.4318    1.5460   -1.5492 C   0  0  0  0  0  0  0  0  0  0  0  0
    2.2366    2.1641   -0.1577 C   0  0  1  0  0  0  0  0  0  0  0  0
    1.9560    3.5444   -0.2693 O   0  0  0  0  0  0  0  0  0  0  0  0
    0.9826    1.6571    0.5759 C   0  0  1  0  0  0  0  0  0  0  0  0
    1.0946    0.3677    1.1548 O   0  0  0  0  0  0  0  0  0  0  0  0
    0.7144    2.7487    1.6116 C   0  0  1  0  0  0  0  0  0  0  0  0
    1.3548    2.4826    2.8470 O   0  0  0  0  0  0  0  0  0  0  0  0
    1.3872    3.9559    0.9610 C   0  0  2  0  0  0  0  0  0  0  0  0
    0.5244    5.1435    0.7836 N   0  0  0  0  0  0  0  0  0  0  0  0
    0.8372    6.4793    0.7713 C   0  0  0  0  0  0  0  0  0  0  0  0
   -0.2019    7.2691    0.6873 N   0  0  0  0  0  0  0  0  0  0  0  0
   -1.2850    6.3984    0.6133 C   0  0  0  0  0  0  0  0  0  0  0  0
   -2.6914    6.6586    0.5474 C   0  0  0  0  0  0  0  0  0  0  0  0
   -3.2566    7.7498    0.5825 O   0  0  0  0  0  0  0  0  0  0  0  0
   -3.4557    5.4881    0.4493 N   0  0  0  0  0  0  0  0  0  0  0  0
   -2.9100    4.2149    0.3855 C   0  0  0  0  0  0  0  0  0  0  0  0
   -3.7393    3.1845    0.1854 N   0  0  0  0  0  0  0  0  0  0  0  0
   -1.5935    3.9730    0.4963 N   0  0  0  0  0  0  0  0  0  0  0  0
   -0.8373    5.0986    0.6140 C   0  0  0  0  0  0  0  0  0  0  0  0
  1  2  2  0  0  0  0
  1  4  1  0  0  0  0
  1  3  1  0  0  0  0
  5  1  1  0  0  0  0
  6  7  2  6  0  0  0
  6  9  1  0  0  0  0
  6  5  1  0  0  0  0
  6  8  1  0  0  0  0
 10 11  2  1  0  0  0
 10 12  1  0  0  0  0
 10 13  1  0  0  0  0
 10  9  1  0  0  0  0
 13 14  1  0  0  0  0
 15 14  1  6  0  0  0
 15 16  1  0  0  0  0
 17 19  1  0  0  0  0
 17 15  1  0  0  0  0
 17 18  1  1  0  0  0
 19 21  1  0  0  0  0
 19 20  1  1  0  0  0
 21 16  1  0  0  0  0
 21 22  1  6  0  0  0
 22 32  1  0  0  0  0
 23 22  1  0  0  0  0
 23 24  2  0  0  0  0
 24 25  1  0  0  0  0
 25 26  1  0  0  0  0
 26 27  2  0  0  0  0
 26 28  1  0  0  0  0
 29 28  1  0  0  0  0
 29 30  1  0  0  0  0
 31 29  2  0  0  0  0
 32 25  2  0  0  0  0
 32 31  1  0  0  0  0
M  END
>  <CHROM.1>
107.40091215,138.66490511,-60.12685473,-173.33937521,148.07718689,-91.46132248
169.24845750,-70.71007040,-21.69563304,-85.72725073,1.63471236,1.06485650
-0.97804364,1.07155623,0.11260383,-2.65341465

>  <Name>
lig.pdb

>  <RI>
3.17878e+07

>  <Rbt.Current_Directory>
/home/itssahil/PROJECTS/Mol_Feturizer/New_Systems/rnas/5lwj

>  <Rbt.Executable>
rbdock ($Id: //depot/dev/client3/rdock/2013.1/src/exe/rbdock.cxx#4 $)

>  <Rbt.Library>
libRbt.so (2013.1, Build901 2013/11/27)

>  <Rbt.Parameter_File>
/export/apps/rDock/src/rDock_2013.1_src/data/scripts/dock_solv.prm

>  <Rbt.Receptor>
prm/blind_docking_100.prm

>  <SCORE>
0.343904

>  <SCORE.INTER>
0.190614

>  <SCORE.INTER.CONST>
1

>  <SCORE.INTER.POLAR>
-2.18464

>  <SCORE.INTER.ROT>
8

>  <SCORE.INTER.SOLV>
23.9886

>  <SCORE.INTER.VDW>
-9.52033

>  <SCORE.INTER.norm>
0.0059567

>  <SCORE.INTRA>
0.15329

>  <SCORE.INTRA.DIHEDRAL>
6.29611

>  <SCORE.INTRA.DIHEDRAL.0>
10.9248

>  <SCORE.INTRA.POLAR>
-0.340988

>  <SCORE.INTRA.POLAR.0>
0

>  <SCORE.INTRA.REPUL>
0

>  <SCORE.INTRA.REPUL.0>
0

>  <SCORE.INTRA.SOLV>
0.129609

>  <SCORE.INTRA.SOLV.lig_0>
-51.4104

>  <SCORE.INTRA.VDW>
-1.90021

>  <SCORE.INTRA.VDW.0>
0.110327

>  <SCORE.INTRA.norm>
0.00479031

>  <SCORE.RESTR>
0

>  <SCORE.RESTR.CAVITY>
0

>  <SCORE.RESTR.norm>
0

>  <SCORE.SYSTEM>
0

>  <SCORE.SYSTEM.CONST>
0

>  <SCORE.SYSTEM.DIHEDRAL>
0

>  <SCORE.SYSTEM.SOLV>
0

>  <SCORE.SYSTEM.norm>
0

>  <SCORE.heavy>
32

>  <SCORE.norm>
0.010747

>  <RMSD>
16.632

$$$$
lig.pdb
 OpenBabel11021811523D
libRbt.so/2013.1/901 2013/11/27
 32 34  0  0  0  0  0  0  0  0999 V2000
   -2.1052    6.4915    0.4172 P   0  0  0  0  0  0  0  0  0  0  0  0
   -3.2537    6.4656   -0.5617 O   0  0  0  0  0  0  0  0  0  0  0  0
   -1.0947    7.5845   -0.2284 O   0  0  0  0  0  0  0  0  0  0  0  0
   -2.3546    7.0289    1.8044 O   0  0  0  0  0  0  0  0  0  0  0  0
   -1.6921    5.1122    0.5888 O   0  0  0  0  0  0  0  0  0  0  0  0
   -0.2660    5.0692    0.9888 P   0  0  1  0  0  0  0  0  0  0  0  0
    0.5526    5.4824   -0.1753 O   0  0  0  0  0  0  0  0  0  0  0  0
   -0.0240    6.0096    2.1077 O   0  0  0  0  0  0  0  0  0  0  0  0
    0.0884    3.6894    1.4062 O   0  0  0  0  0  0  0  0  0  0  0  0
    1.4519    3.1320    1.2421 P   0  0  1  0  0  0  0  0  0  0  0  0
    2.5477    4.0736    1.5494 O   0  0  0  0  0  0  0  0  0  0  0  0
    1.6394    1.7641    1.7749 O   0  0  0  0  0  0  0  0  0  0  0  0
    1.5790    2.9661   -0.3626 O   0  0  0  0  0  0  0  0  0  0  0  0
    2.7642    2.5087   -0.9860 C   0  0  0  0  0  0  0  0  0  0  0  0
    3.1507    1.0890   -0.5487 C   0  0  1  0  0  0  0  0  0  0  0  0
    2.4335    0.1319   -1.3011 O   0  0  0  0  0  0  0  0  0  0  0  0
    4.6045    0.7111   -0.8828 C   0  0  1  0  0  0  0  0  0  0  0  0
    5.5893    1.2544   -0.0196 O   0  0  0  0  0  0  0  0  0  0  0  0
    4.5839   -0.8172   -0.8682 C   0  0  1  0  0  0  0  0  0  0  0  0
    4.9039   -1.3440    0.4074 O   0  0  0  0  0  0  0  0  0  0  0  0
    3.1124   -1.1035   -1.1615 C   0  0  2  0  0  0  0  0  0  0  0  0
    2.8569   -1.9905   -2.3165 N   0  0  0  0  0  0  0  0  0  0  0  0
    1.7927   -2.8112   -2.5925 C   0  0  0  0  0  0  0  0  0  0  0  0
    1.9445   -3.5362   -3.6705 N   0  0  0  0  0  0  0  0  0  0  0  0
    3.1886   -3.1548   -4.1637 C   0  0  0  0  0  0  0  0  0  0  0  0
    3.9287   -3.6220   -5.2968 C   0  0  0  0  0  0  0  0  0  0  0  0
    3.6210   -4.5204   -6.0775 O   0  0  0  0  0  0  0  0  0  0  0  0
    5.1435   -2.9445   -5.4683 N   0  0  0  0  0  0  0  0  0  0  0  0
    5.5690   -1.9076   -4.6518 C   0  0  0  0  0  0  0  0  0  0  0  0
    6.6975   -1.2695   -4.9822 N   0  0  0  0  0  0  0  0  0  0  0  0
    4.8944   -1.5056   -3.5622 N   0  0  0  0  0  0  0  0  0  0  0  0
    3.7215   -2.1682   -3.3683 C   0  0  0  0  0  0  0  0  0  0  0  0
  1  2  2  0  0  0  0
  1  4  1  0  0  0  0
  1  3  1  0  0  0  0
  5  1  1  0  0  0  0
  6  7  2  6  0  0  0
  6  9  1  0  0  0  0
  6  5  1  0  0  0  0
  6  8  1  0  0  0  0
 10 11  2  1  0  0  0
 10 12  1  0  0  0  0
 10 13  1  0  0  0  0
 10  9  1  0  0  0  0
 13 14  1  0  0  0  0
 15 14  1  6  0  0  0
 15 16  1  0  0  0  0
 17 19  1  0  0  0  0
 17 15  1  0  0  0  0
 17 18  1  1  0  0  0
 19 21  1  0  0  0  0
 19 20  1  1  0  0  0
 21 16  1  0  0  0  0
 21 22  1  6  0  0  0
 22 32  1  0  0  0  0
 23 22  1  0  0  0  0
 23 24  2  0  0  0  0
 24 25  1  0  0  0  0
 25 26  1  0  0  0  0
 26 27  2  0  0  0  0
 26 28  1  0  0  0  0
 29 28  1  0  0  0  0
 29 30  1  0  0  0  0
 31 29  2  0  0  0  0
 32 25  2  0  0  0  0
 32 31  1  0  0  0  0
M  END
>  <CHROM.1>
154.05780178,149.85842222,-70.11451117,177.26257728,40.38896729,61.34825111
83.03049413,-54.20624632,-51.95849225,-81.37031798,1.92138297,1.71688729
-0.96691601,2.16156656,-0.50779823,0.82572560

>  <Name>
lig.pdb

>  <RI>
3.17878e+07

>  <Rbt.Current_Directory>
/home/itssahil/PROJECTS/Mol_Feturizer/New_Systems/rnas/5lwj

>  <Rbt.Executable>
rbdock ($Id: //depot/dev/client3/rdock/2013.1/src/exe/rbdock.cxx#4 $)

>  <Rbt.Library>
libRbt.so (2013.1, Build901 2013/11/27)

>  <Rbt.Parameter_File>
/export/apps/rDock/src/rDock_2013.1_src/data/scripts/dock_solv.prm

>  <Rbt.Receptor>
prm/blind_docking_100.prm

>  <SCORE>
-40.6654

>  <SCORE.INTER>
-37.4985

>  <SCORE.INTER.CONST>
1

>  <SCORE.INTER.POLAR>
-2.62699

>  <SCORE.INTER.ROT>
8

>  <SCORE.INTER.SOLV>
24.9312

>  <SCORE.INTER.VDW>
-33.4861

>  <SCORE.INTER.norm>
-1.17183

>  <SCORE.INTRA>
-4.29046

>  <SCORE.INTRA.DIHEDRAL>
-3.75607

>  <SCORE.INTRA.DIHEDRAL.0>
10.9248

>  <SCORE.INTRA.POLAR>
-0.0453153

>  <SCORE.INTRA.POLAR.0>
0

>  <SCORE.INTRA.REPUL>
0

>  <SCORE.INTRA.REPUL.0>
0

>  <SCORE.INTRA.SOLV>
0.0793871

>  <SCORE.INTRA.SOLV.lig_0>
-51.4104

>  <SCORE.INTRA.VDW>
-2.29805

>  <SCORE.INTRA.VDW.0>
0.110327

>  <SCORE.INTRA.norm>
-0.134077

>  <SCORE.RESTR>
1.12359

>  <SCORE.RESTR.CAVITY>
1.12359

>  <SCORE.RESTR.norm>
0.0351122

>  <SCORE.SYSTEM>
0

>  <SCORE.SYSTEM.CONST>
0

>  <SCORE.SYSTEM.DIHEDRAL>
0

>  <SCORE.SYSTEM.SOLV>
0

>  <SCORE.SYSTEM.norm>
0

>  <SCORE.heavy>
32

>  <SCORE.norm>
-1.27079

>  <RMSD>
16.693

$$$$
lig.pdb
 OpenBabel11021811523D
libRbt.so/2013.1/901 2013/11/27
 32 34  0  0  0  0  0  0  0  0999 V2000
   -0.5013    6.9678   -0.9746 P   0  0  0  0  0  0  0  0  0  0  0  0
    0.4230    8.1609   -0.9588 O   0  0  0  0  0  0  0  0  0  0  0  0
   -1.7121    7.4262    0.0033 O   0  0  0  0  0  0  0  0  0  0  0  0
   -1.2085    6.6230   -2.2615 O   0  0  0  0  0  0  0  0  0  0  0  0
    0.3201    5.8186   -0.6470 O   0  0  0  0  0  0  0  0  0  0  0  0
    0.1509    5.4823    0.7862 P   0  0  1  0  0  0  0  0  0  0  0  0
    0.1188    6.7478    1.5566 O   0  0  0  0  0  0  0  0  0  0  0  0
   -1.1261    4.7597    0.9907 O   0  0  0  0  0  0  0  0  0  0  0  0
    1.2851    4.6346    1.2317 O   0  0  0  0  0  0  0  0  0  0  0  0
    1.3229    3.1701    1.0064 P   0  0  1  0  0  0  0  0  0  0  0  0
    2.3807    2.4557    1.7496 O   0  0  0  0  0  0  0  0  0  0  0  0
    0.0030    2.5008    1.0054 O   0  0  0  0  0  0  0  0  0  0  0  0
    1.8391    3.0575   -0.5231 O   0  0  0  0  0  0  0  0  0  0  0  0
    1.9342    1.8194   -1.2019 C   0  0  0  0  0  0  0  0  0  0  0  0
    2.7281    0.7716   -0.4094 C   0  0  1  0  0  0  0  0  0  0  0  0
    2.1749   -0.5138   -0.6048 O   0  0  0  0  0  0  0  0  0  0  0  0
    4.1649    0.5652   -0.9202 C   0  0  1  0  0  0  0  0  0  0  0  0
    5.0953    1.5669   -0.5445 O   0  0  0  0  0  0  0  0  0  0  0  0
    4.5352   -0.8169   -0.3825 C   0  0  1  0  0  0  0  0  0  0  0  0
    5.1621   -0.7467    0.8861 O   0  0  0  0  0  0  0  0  0  0  0  0
    3.1580   -1.4557   -0.2139 C   0  0  2  0  0  0  0  0  0  0  0  0
    2.9694   -2.7482   -0.9066 N   0  0  0  0  0  0  0  0  0  0  0  0
    2.2246   -3.8465   -0.5581 C   0  0  0  0  0  0  0  0  0  0  0  0
    2.3674   -4.8653   -1.3659 N   0  0  0  0  0  0  0  0  0  0  0  0
    3.2518   -4.4067   -2.3375 C   0  0  0  0  0  0  0  0  0  0  0  0
    3.8267   -5.0718   -3.4676 C   0  0  0  0  0  0  0  0  0  0  0  0
    3.6805   -6.2451   -3.8040 O   0  0  0  0  0  0  0  0  0  0  0  0
    4.6552   -4.2342   -4.2265 N   0  0  0  0  0  0  0  0  0  0  0  0
    4.8684   -2.8947   -3.9377 C   0  0  0  0  0  0  0  0  0  0  0  0
    5.5958   -2.1738   -4.7985 N   0  0  0  0  0  0  0  0  0  0  0  0
    4.3657   -2.2882   -2.8500 N   0  0  0  0  0  0  0  0  0  0  0  0
    3.5752   -3.0937   -2.0893 C   0  0  0  0  0  0  0  0  0  0  0  0
  1  2  2  0  0  0  0
  1  4  1  0  0  0  0
  1  3  1  0  0  0  0
  5  1  1  0  0  0  0
  6  7  2  1  0  0  0
  6  9  1  0  0  0  0
  6  5  1  0  0  0  0
  6  8  1  0  0  0  0
 10 11  2  1  0  0  0
 10 12  1  0  0  0  0
 10 13  1  0  0  0  0
 10  9  1  0  0  0  0
 13 14  1  0  0  0  0
 15 14  1  6  0  0  0
 15 16  1  0  0  0  0
 17 19  1  0  0  0  0
 17 15  1  0  0  0  0
 17 18  1  1  0  0  0
 19 21  1  0  0  0  0
 19 20  1  1  0  0  0
 21 16  1  0  0  0  0
 21 22  1  6  0  0  0
 22 32  1  0  0  0  0
 23 22  1  0  0  0  0
 23 24  2  0  0  0  0
 24 25  1  0  0  0  0
 25 26  1  0  0  0  0
 26 27  2  0  0  0  0
 26 28  1  0  0  0  0
 29 28  1  0  0  0  0
 29 30  1  0  0  0  0
 31 29  2  0  0  0  0
 32 25  2  0  0  0  0
 32 31  1  0  0  0  0
M  END
>  <CHROM.1>
99.32115541,-82.43856154,-41.05423369,-175.33687096,-168.09159466,-51.86958198
144.23474970,55.44871754,-61.56576600,-89.14341829,2.05162669,1.47484587
-0.78789671,2.87900734,-1.16631338,1.54538835

>  <Name>
lig.pdb

>  <RI>
4.14043e+07

>  <Rbt.Current_Directory>
/home/itssahil/PROJECTS/Mol_Feturizer/New_Systems/rnas/5lwj

>  <Rbt.Executable>
rbdock ($Id: //depot/dev/client3/rdock/2013.1/src/exe/rbdock.cxx#4 $)

>  <Rbt.Library>
libRbt.so (2013.1, Build901 2013/11/27)

>  <Rbt.Parameter_File>
/export/apps/rDock/src/rDock_2013.1_src/data/scripts/dock_solv.prm

>  <Rbt.Receptor>
prm/blind_docking_80.prm

>  <SCORE>
-33.9728

>  <SCORE.INTER>
-33.1911

>  <SCORE.INTER.CONST>
1

>  <SCORE.INTER.POLAR>
-2.93598

>  <SCORE.INTER.ROT>
8

>  <SCORE.INTER.SOLV>
26.1959

>  <SCORE.INTER.VDW>
-30.0061

>  <SCORE.INTER.norm>
-1.03722

>  <SCORE.INTRA>
-1.00563

>  <SCORE.INTRA.DIHEDRAL>
-0.697616

>  <SCORE.INTRA.DIHEDRAL.0>
10.9248

>  <SCORE.INTRA.POLAR>
0

>  <SCORE.INTRA.POLAR.0>
0

>  <SCORE.INTRA.REPUL>
0.0510882

>  <SCORE.INTRA.REPUL.0>
0

>  <SCORE.INTRA.SOLV>
0.44015

>  <SCORE.INTRA.SOLV.lig_0>
-51.4104

>  <SCORE.INTRA.VDW>
-1.13233

>  <SCORE.INTRA.VDW.0>
0.110327

>  <SCORE.INTRA.norm>
-0.0314258

>  <SCORE.RESTR>
0.223953

>  <SCORE.RESTR.CAVITY>
0.223953

>  <SCORE.RESTR.norm>
0.00699852

>  <SCORE.SYSTEM>
0

>  <SCORE.SYSTEM.CONST>
0

>  <SCORE.SYSTEM.DIHEDRAL>
0

>  <SCORE.SYSTEM.SOLV>
0

>  <SCORE.SYSTEM.norm>
0

>  <SCORE.heavy>
32

>  <SCORE.norm>
-1.06165

>  <RMSD>
16.696

$$$$
lig.pdb
 OpenBabel11021811523D
libRbt.so/2013.1/901 2013/11/27
 32 34  0  0  0  0  0  0  0  0999 V2000
    3.9340   -4.0138   -4.7421 P   0  0  0  0  0  0  0  0  0  0  0  0
    5.3087   -3.5885   -4.2868 O   0  0  0  0  0  0  0  0  0  0  0  0
    4.2360   -4.8375   -6.1070 O   0  0  0  0  0  0  0  0  0  0  0  0
    3.1731   -5.0075   -3.9003 O   0  0  0  0  0  0  0  0  0  0  0  0
    3.1283   -2.8085   -4.7679 O   0  0  0  0  0  0  0  0  0  0  0  0
    2.8775   -2.3515   -3.3809 P   0  0  1  0  0  0  0  0  0  0  0  0
    1.4417   -2.5597   -3.0788 O   0  0  0  0  0  0  0  0  0  0  0  0
    3.6911   -3.1444   -2.4301 O   0  0  0  0  0  0  0  0  0  0  0  0
    3.2270   -0.9135   -3.2640 O   0  0  0  0  0  0  0  0  0  0  0  0
    3.1923   -0.1868   -1.9726 P   0  0  1  0  0  0  0  0  0  0  0  0
    2.7299   -0.9892   -0.8219 O   0  0  0  0  0  0  0  0  0  0  0  0
    4.3691    0.6686   -1.7017 O   0  0  0  0  0  0  0  0  0  0  0  0
    1.9705    0.8536   -2.1813 O   0  0  0  0  0  0  0  0  0  0  0  0
    2.0947    2.2350   -1.9000 C   0  0  0  0  0  0  0  0  0  0  0  0
    2.0127    2.5408   -0.3979 C   0  0  1  0  0  0  0  0  0  0  0  0
    1.5636    3.8644   -0.1908 O   0  0  0  0  0  0  0  0  0  0  0  0
    0.9313    1.7335    0.3414 C   0  0  1  0  0  0  0  0  0  0  0  0
    1.2647    0.3850    0.6253 O   0  0  0  0  0  0  0  0  0  0  0  0
    0.6769    2.5576    1.6032 C   0  0  1  0  0  0  0  0  0  0  0  0
    1.4989    2.1501    2.6828 O   0  0  0  0  0  0  0  0  0  0  0  0
    1.1164    3.9488    1.1506 C   0  0  2  0  0  0  0  0  0  0  0  0
    0.1076    5.0171    1.3145 N   0  0  0  0  0  0  0  0  0  0  0  0
    0.2293    6.2900    1.8120 C   0  0  0  0  0  0  0  0  0  0  0  0
   -0.9036    6.9374    1.9020 N   0  0  0  0  0  0  0  0  0  0  0  0
   -1.8466    6.0421    1.4062 C   0  0  0  0  0  0  0  0  0  0  0  0
   -3.2689    6.1536    1.2850 C   0  0  0  0  0  0  0  0  0  0  0  0
   -3.9832    7.0874    1.6441 O   0  0  0  0  0  0  0  0  0  0  0  0
   -3.8532    5.0248    0.6948 N   0  0  0  0  0  0  0  0  0  0  0  0
   -3.1307    3.9311    0.2421 C   0  0  0  0  0  0  0  0  0  0  0  0
   -3.7928    2.9621   -0.4000 N   0  0  0  0  0  0  0  0  0  0  0  0
   -1.8026    3.8104    0.4018 N   0  0  0  0  0  0  0  0  0  0  0  0
   -1.2213    4.8896    0.9933 C   0  0  0  0  0  0  0  0  0  0  0  0
  1  2  2  0  0  0  0
  1  4  1  0  0  0  0
  1  3  1  0  0  0  0
  5  1  1  0  0  0  0
  6  7  2  1  0  0  0
  6  9  1  0  0  0  0
  6  5  1  0  0  0  0
  6  8  1  0  0  0  0
 10 11  2  1  0  0  0
 10 12  1  0  0  0  0
 10 13  1  0  0  0  0
 10  9  1  0  0  0  0
 13 14  1  0  0  0  0
 15 14  1  6  0  0  0
 15 16  1  0  0  0  0
 17 19  1  0  0  0  0
 17 15  1  0  0  0  0
 17 18  1  1  0  0  0
 19 21  1  0  0  0  0
 19 20  1  1  0  0  0
 21 16  1  0  0  0  0
 21 22  1  6  0  0  0
 22 32  1  0  0  0  0
 23 22  1  0  0  0  0
 23 24  2  0  0  0  0
 24 25  1  0  0  0  0
 25 26  1  0  0  0  0
 26 27  2  0  0  0  0
 26 28  1  0  0  0  0
 29 28  1  0  0  0  0
 29 30  1  0  0  0  0
 31 29  2  0  0  0  0
 32 25  2  0  0  0  0
 32 31  1  0  0  0  0
M  END
>  <CHROM.1>
-70.14318277,-174.88446418,-110.51885456,-130.19861944,-2.40226010,-77.88181399
-154.61607551,-64.74341465,-164.81319633,-100.94127867,1.29840352,0.97679844
-1.19521313,1.06035549,0.20191165,-2.47625080

>  <Name>
lig.pdb

>  <RI>
3.17878e+07

>  <Rbt.Current_Directory>
/home/itssahil/PROJECTS/Mol_Feturizer/New_Systems/rnas/5lwj

>  <Rbt.Executable>
rbdock ($Id: //depot/dev/client3/rdock/2013.1/src/exe/rbdock.cxx#4 $)

>  <Rbt.Library>
libRbt.so (2013.1, Build901 2013/11/27)

>  <Rbt.Parameter_File>
/export/apps/rDock/src/rDock_2013.1_src/data/scripts/dock_solv.prm

>  <Rbt.Receptor>
prm/blind_docking_100.prm

>  <SCORE>
19.4795

>  <SCORE.INTER>
15.4164

>  <SCORE.INTER.CONST>
1

>  <SCORE.INTER.POLAR>
-1.23039

>  <SCORE.INTER.ROT>
8

>  <SCORE.INTER.SOLV>
29.8084

>  <SCORE.INTER.VDW>
-4.49057

>  <SCORE.INTER.norm>
0.481762

>  <SCORE.INTRA>
3.54582

>  <SCORE.INTRA.DIHEDRAL>
3.22449

>  <SCORE.INTRA.DIHEDRAL.0>
10.9248

>  <SCORE.INTRA.POLAR>
-0.458097

>  <SCORE.INTRA.POLAR.0>
0

>  <SCORE.INTRA.REPUL>
0

>  <SCORE.INTRA.REPUL.0>
0

>  <SCORE.INTRA.SOLV>
1.73522

>  <SCORE.INTRA.SOLV.lig_0>
-51.4104

>  <SCORE.INTRA.VDW>
2.62349

>  <SCORE.INTRA.VDW.0>
0.110327

>  <SCORE.INTRA.norm>
0.110807

>  <SCORE.RESTR>
0.517288

>  <SCORE.RESTR.CAVITY>
0.517288

>  <SCORE.RESTR.norm>
0.0161653

>  <SCORE.SYSTEM>
0

>  <SCORE.SYSTEM.CONST>
0

>  <SCORE.SYSTEM.DIHEDRAL>
0

>  <SCORE.SYSTEM.SOLV>
0

>  <SCORE.SYSTEM.norm>
0

>  <SCORE.heavy>
32

>  <SCORE.norm>
0.608734

>  <RMSD>
16.716

$$$$
lig.pdb
 OpenBabel11021811523D
libRbt.so/2013.1/901 2013/11/27
 32 34  0  0  0  0  0  0  0  0999 V2000
   -0.9314    6.3191    1.0029 P   0  0  0  0  0  0  0  0  0  0  0  0
   -2.0182    6.8351    1.9142 O   0  0  0  0  0  0  0  0  0  0  0  0
   -1.7620    5.6133   -0.1990 O   0  0  0  0  0  0  0  0  0  0  0  0
   -0.0627    7.3192    0.2816 O   0  0  0  0  0  0  0  0  0  0  0  0
   -0.0389    5.5424    1.8414 O   0  0  0  0  0  0  0  0  0  0  0  0
    0.6877    4.5553    1.0087 P   0  0  1  0  0  0  0  0  0  0  0  0
    0.7767    5.0909   -0.3701 O   0  0  0  0  0  0  0  0  0  0  0  0
    2.0566    4.3543    1.5382 O   0  0  0  0  0  0  0  0  0  0  0  0
   -0.0484    3.2662    1.0159 O   0  0  0  0  0  0  0  0  0  0  0  0
    0.6121    1.9691    0.7362 P   0  0  1  0  0  0  0  0  0  0  0  0
    1.4923    1.4763    1.8152 O   0  0  0  0  0  0  0  0  0  0  0  0
   -0.2584    0.9403    0.1248 O   0  0  0  0  0  0  0  0  0  0  0  0
    1.6712    2.3512   -0.4261 O   0  0  0  0  0  0  0  0  0  0  0  0
    3.0301    2.6341   -0.1503 C   0  0  0  0  0  0  0  0  0  0  0  0
    3.9922    1.7656   -0.9728 C   0  0  1  0  0  0  0  0  0  0  0  0
    3.8552    0.4062   -0.6127 O   0  0  0  0  0  0  0  0  0  0  0  0
    3.6560    1.7182   -2.4736 C   0  0  1  0  0  0  0  0  0  0  0  0
    4.0366    2.8619   -3.2201 O   0  0  0  0  0  0  0  0  0  0  0  0
    4.3510    0.4431   -2.9505 C   0  0  1  0  0  0  0  0  0  0  0  0
    5.6672    0.6921   -3.4119 O   0  0  0  0  0  0  0  0  0  0  0  0
    4.4301   -0.3620   -1.6548 C   0  0  2  0  0  0  0  0  0  0  0  0
    3.8396   -1.7162   -1.7126 N   0  0  0  0  0  0  0  0  0  0  0  0
    3.0332   -2.3764   -0.8204 C   0  0  0  0  0  0  0  0  0  0  0  0
    2.7743   -3.6151   -1.1515 N   0  0  0  0  0  0  0  0  0  0  0  0
    3.4348   -3.7874   -2.3642 C   0  0  0  0  0  0  0  0  0  0  0  0
    3.5621   -4.9397   -3.2043 C   0  0  0  0  0  0  0  0  0  0  0  0
    3.1275   -6.0713   -2.9994 O   0  0  0  0  0  0  0  0  0  0  0  0
    4.2929   -4.6818   -4.3719 N   0  0  0  0  0  0  0  0  0  0  0  0
    4.8075   -3.4364   -4.6993 C   0  0  0  0  0  0  0  0  0  0  0  0
    5.3948   -3.2925   -5.8926 N   0  0  0  0  0  0  0  0  0  0  0  0
    4.7271   -2.3709   -3.8857 N   0  0  0  0  0  0  0  0  0  0  0  0
    4.0384   -2.6095   -2.7362 C   0  0  0  0  0  0  0  0  0  0  0  0
  1  2  2  0  0  0  0
  1  4  1  0  0  0  0
  1  3  1  0  0  0  0
  5  1  1  0  0  0  0
  6  7  2  6  0  0  0
  6  9  1  0  0  0  0
  6  5  1  0  0  0  0
  6  8  1  0  0  0  0
 10 11  2  1  0  0  0
 10 12  1  0  0  0  0
 10 13  1  0  0  0  0
 10  9  1  0  0  0  0
 13 14  1  0  0  0  0
 15 14  1  1  0  0  0
 15 16  1  0  0  0  0
 17 19  1  0  0  0  0
 17 15  1  0  0  0  0
 17 18  1  6  0  0  0
 19 21  1  0  0  0  0
 19 20  1  1  0  0  0
 21 16  1  0  0  0  0
 21 22  1  6  0  0  0
 22 32  1  0  0  0  0
 23 22  1  0  0  0  0
 23 24  2  0  0  0  0
 24 25  1  0  0  0  0
 25 26  1  0  0  0  0
 26 27  2  0  0  0  0
 26 28  1  0  0  0  0
 29 28  1  0  0  0  0
 29 30  1  0  0  0  0
 31 29  2  0  0  0  0
 32 25  2  0  0  0  0
 32 31  1  0  0  0  0
M  END
>  <CHROM.1>
156.03450010,-156.42268582,26.93659313,96.83535128,72.65825364,125.76012107
-64.76235359,50.25228349,-175.16639288,-12.06953723,2.14747283,1.33868488
-0.95347563,-2.18184344,-0.74737088,-3.11882035

>  <Name>
lig.pdb

>  <RI>
2.72908e+07

>  <Rbt.Current_Directory>
/home/itssahil/PROJECTS/Mol_Feturizer/New_Systems/rnas/5lwj

>  <Rbt.Executable>
rbdock ($Id: //depot/dev/client3/rdock/2013.1/src/exe/rbdock.cxx#4 $)

>  <Rbt.Library>
libRbt.so (2013.1, Build901 2013/11/27)

>  <Rbt.Parameter_File>
/export/apps/rDock/src/rDock_2013.1_src/data/scripts/dock_solv.prm

>  <Rbt.Receptor>
prm/blind_docking_20.prm

>  <SCORE>
-27.8951

>  <SCORE.INTER>
-34.026

>  <SCORE.INTER.CONST>
1

>  <SCORE.INTER.POLAR>
-3.19733

>  <SCORE.INTER.ROT>
8

>  <SCORE.INTER.SOLV>
29.2679

>  <SCORE.INTER.VDW>
-30.7155

>  <SCORE.INTER.norm>
-1.06331

>  <SCORE.INTRA>
5.28286

>  <SCORE.INTRA.DIHEDRAL>
4.81272

>  <SCORE.INTRA.DIHEDRAL.0>
10.9248

>  <SCORE.INTRA.POLAR>
0

>  <SCORE.INTRA.POLAR.0>
0

>  <SCORE.INTRA.REPUL>
0

>  <SCORE.INTRA.REPUL.0>
0

>  <SCORE.INTRA.SOLV>
0.918784

>  <SCORE.INTRA.SOLV.lig_0>
-51.4104

>  <SCORE.INTRA.VDW>
2.41711

>  <SCORE.INTRA.VDW.0>
0.110327

>  <SCORE.INTRA.norm>
0.165089

>  <SCORE.RESTR>
0.847972

>  <SCORE.RESTR.CAVITY>
0.847972

>  <SCORE.RESTR.norm>
0.0264991

>  <SCORE.SYSTEM>
0

>  <SCORE.SYSTEM.CONST>
0

>  <SCORE.SYSTEM.DIHEDRAL>
0

>  <SCORE.SYSTEM.SOLV>
0

>  <SCORE.SYSTEM.norm>
0

>  <SCORE.heavy>
32

>  <SCORE.norm>
-0.871723

>  <RMSD>
16.746

$$$$
lig.pdb
 OpenBabel11021811523D
libRbt.so/2013.1/901 2013/11/27
 32 34  0  0  0  0  0  0  0  0999 V2000
    3.1424   -3.9981   -2.4452 P   0  0  0  0  0  0  0  0  0  0  0  0
    4.0742   -4.8896   -3.2294 O   0  0  0  0  0  0  0  0  0  0  0  0
    1.7004   -4.2724   -3.1367 O   0  0  0  0  0  0  0  0  0  0  0  0
    2.8948   -4.3177   -0.9920 O   0  0  0  0  0  0  0  0  0  0  0  0
    3.7356   -2.6752   -2.4704 O   0  0  0  0  0  0  0  0  0  0  0  0
    2.7040   -1.6776   -2.8394 P   0  0  1  0  0  0  0  0  0  0  0  0
    3.3222   -0.3320   -2.7834 O   0  0  0  0  0  0  0  0  0  0  0  0
    2.2225   -1.9310   -4.2173 O   0  0  0  0  0  0  0  0  0  0  0  0
    1.5693   -1.7651   -1.8863 O   0  0  0  0  0  0  0  0  0  0  0  0
    1.6696   -1.3011   -0.4822 P   0  0  1  0  0  0  0  0  0  0  0  0
    1.8010   -2.3791    0.5191 O   0  0  0  0  0  0  0  0  0  0  0  0
    2.5615   -0.1400   -0.2668 O   0  0  0  0  0  0  0  0  0  0  0  0
    0.1829   -0.7345   -0.1865 O   0  0  0  0  0  0  0  0  0  0  0  0
   -0.0911    0.1555    0.8791 C   0  0  0  0  0  0  0  0  0  0  0  0
    0.6408    1.4966    0.7306 C   0  0  1  0  0  0  0  0  0  0  0  0
   -0.2857    2.5380    0.4991 O   0  0  0  0  0  0  0  0  0  0  0  0
    1.3223    1.9778    2.0236 C   0  0  1  0  0  0  0  0  0  0  0  0
    2.5453    1.3358    2.3434 O   0  0  0  0  0  0  0  0  0  0  0  0
    1.4851    3.4808    1.7982 C   0  0  1  0  0  0  0  0  0  0  0  0
    2.7318    3.8007    1.2062 O   0  0  0  0  0  0  0  0  0  0  0  0
    0.3761    3.7573    0.7848 C   0  0  2  0  0  0  0  0  0  0  0  0
   -0.5849    4.8132    1.1688 N   0  0  0  0  0  0  0  0  0  0  0  0
   -0.4087    5.9511    1.9147 C   0  0  0  0  0  0  0  0  0  0  0  0
   -1.5121    6.6160    2.1412 N   0  0  0  0  0  0  0  0  0  0  0  0
   -2.4920    5.8832    1.4784 C   0  0  0  0  0  0  0  0  0  0  0  0
   -3.9075    6.0798    1.3903 C   0  0  0  0  0  0  0  0  0  0  0  0
   -4.5810    6.9513    1.9363 O   0  0  0  0  0  0  0  0  0  0  0  0
   -4.5392    5.1221    0.5855 N   0  0  0  0  0  0  0  0  0  0  0  0
   -3.8643    4.1130   -0.0848 C   0  0  0  0  0  0  0  0  0  0  0  0
   -4.5664    3.3256   -0.9074 N   0  0  0  0  0  0  0  0  0  0  0  0
   -2.5435    3.9037    0.0396 N   0  0  0  0  0  0  0  0  0  0  0  0
   -1.9169    4.8127    0.8356 C   0  0  0  0  0  0  0  0  0  0  0  0
  1  2  2  0  0  0  0
  1  4  1  0  0  0  0
  1  3  1  0  0  0  0
  5  1  1  0  0  0  0
  6  7  2  1  0  0  0
  6  9  1  0  0  0  0
  6  5  1  0  0  0  0
  6  8  1  0  0  0  0
 10 11  2  1  0  0  0
 10 12  1  0  0  0  0
 10 13  1  0  0  0  0
 10  9  1  0  0  0  0
 13 14  1  0  0  0  0
 15 14  1  1  0  0  0
 15 16  1  0  0  0  0
 17 19  1  0  0  0  0
 17 15  1  0  0  0  0
 17 18  1  6  0  0  0
 19 21  1  0  0  0  0
 19 20  1  6  0  0  0
 21 16  1  0  0  0  0
 21 22  1  1  0  0  0
 22 32  1  0  0  0  0
 23 22  1  0  0  0  0
 23 24  2  0  0  0  0
 24 25  1  0  0  0  0
 25 26  1  0  0  0  0
 26 27  2  0  0  0  0
 26 28  1  0  0  0  0
 29 28  1  0  0  0  0
 29 30  1  0  0  0  0
 31 29  2  0  0  0  0
 32 25  2  0  0  0  0
 32 31  1  0  0  0  0
M  END
>  <CHROM.1>
131.96143388,71.57714427,176.92463454,-161.04007602,-103.94602838,62.85284966
112.67047055,154.25057544,-179.71187012,156.12802667,0.61506444,0.89402311
-0.35937307,0.99406857,0.37255970,-2.51101898

>  <Name>
lig.pdb

>  <RI>
3.17878e+07

>  <Rbt.Current_Directory>
/home/itssahil/PROJECTS/Mol_Feturizer/New_Systems/rnas/5lwj

>  <Rbt.Executable>
rbdock ($Id: //depot/dev/client3/rdock/2013.1/src/exe/rbdock.cxx#4 $)

>  <Rbt.Library>
libRbt.so (2013.1, Build901 2013/11/27)

>  <Rbt.Parameter_File>
/export/apps/rDock/src/rDock_2013.1_src/data/scripts/dock_solv.prm

>  <Rbt.Receptor>
prm/blind_docking_100.prm

>  <SCORE>
7.61384

>  <SCORE.INTER>
5.38058

>  <SCORE.INTER.CONST>
1

>  <SCORE.INTER.POLAR>
-3.00764

>  <SCORE.INTER.ROT>
8

>  <SCORE.INTER.SOLV>
26.1447

>  <SCORE.INTER.VDW>
-4.03574

>  <SCORE.INTER.norm>
0.168143

>  <SCORE.INTRA>
1.58274

>  <SCORE.INTRA.DIHEDRAL>
3.82459

>  <SCORE.INTRA.DIHEDRAL.0>
10.9248

>  <SCORE.INTRA.POLAR>
0

>  <SCORE.INTRA.POLAR.0>
0

>  <SCORE.INTRA.REPUL>
0.375173

>  <SCORE.INTRA.REPUL.0>
0

>  <SCORE.INTRA.SOLV>
1.52193

>  <SCORE.INTRA.SOLV.lig_0>
-51.4104

>  <SCORE.INTRA.VDW>
-2.96638

>  <SCORE.INTRA.VDW.0>
0.110327

>  <SCORE.INTRA.norm>
0.0494607

>  <SCORE.RESTR>
0.650516

>  <SCORE.RESTR.CAVITY>
0.650516

>  <SCORE.RESTR.norm>
0.0203286

>  <SCORE.SYSTEM>
0

>  <SCORE.SYSTEM.CONST>
0

>  <SCORE.SYSTEM.DIHEDRAL>
0

>  <SCORE.SYSTEM.SOLV>
0

>  <SCORE.SYSTEM.norm>
0

>  <SCORE.heavy>
32

>  <SCORE.norm>
0.237933

>  <RMSD>
16.763

$$$$
lig.pdb
 OpenBabel11021811523D
libRbt.so/2013.1/901 2013/11/27
 32 34  0  0  0  0  0  0  0  0999 V2000
   -2.0296    5.7025    1.0217 P   0  0  0  0  0  0  0  0  0  0  0  0
   -3.3114    4.9709    1.3376 O   0  0  0  0  0  0  0  0  0  0  0  0
   -2.2769    6.2450   -0.4873 O   0  0  0  0  0  0  0  0  0  0  0  0
   -1.7100    6.9590    1.7924 O   0  0  0  0  0  0  0  0  0  0  0  0
   -0.9548    4.7717    1.3067 O   0  0  0  0  0  0  0  0  0  0  0  0
    0.3357    5.3603    0.8781 P   0  0  1  0  0  0  0  0  0  0  0  0
    0.1543    5.9342   -0.4760 O   0  0  0  0  0  0  0  0  0  0  0  0
    0.7360    6.4396    1.8106 O   0  0  0  0  0  0  0  0  0  0  0  0
    1.3775    4.3030    0.8560 O   0  0  0  0  0  0  0  0  0  0  0  0
    1.0933    2.8956    1.2237 P   0  0  1  0  0  0  0  0  0  0  0  0
    1.4833    2.5233    2.5989 O   0  0  0  0  0  0  0  0  0  0  0  0
   -0.2289    2.3888    0.7934 O   0  0  0  0  0  0  0  0  0  0  0  0
    2.1584    2.0705    0.3274 O   0  0  0  0  0  0  0  0  0  0  0  0
    2.8982    2.6737   -0.7174 C   0  0  0  0  0  0  0  0  0  0  0  0
    3.9792    1.7447   -1.2873 C   0  0  1  0  0  0  0  0  0  0  0  0
    3.7690    0.4191   -0.8460 O   0  0  0  0  0  0  0  0  0  0  0  0
    3.9063    1.5720   -2.8146 C   0  0  1  0  0  0  0  0  0  0  0  0
    4.4209    2.6520   -3.5755 O   0  0  0  0  0  0  0  0  0  0  0  0
    4.6607    0.2652   -3.0581 C   0  0  1  0  0  0  0  0  0  0  0  0
    6.0391    0.4813   -3.3043 O   0  0  0  0  0  0  0  0  0  0  0  0
    4.5075   -0.4299   -1.7065 C   0  0  2  0  0  0  0  0  0  0  0  0
    3.9227   -1.7870   -1.7541 N   0  0  0  0  0  0  0  0  0  0  0  0
    3.1398   -2.4531   -0.8454 C   0  0  0  0  0  0  0  0  0  0  0  0
    2.8799   -3.6924   -1.1732 N   0  0  0  0  0  0  0  0  0  0  0  0
    3.5139   -3.8588   -2.4009 C   0  0  0  0  0  0  0  0  0  0  0  0
    3.6281   -5.0088   -3.2461 C   0  0  0  0  0  0  0  0  0  0  0  0
    3.2039   -6.1430   -3.0340 O   0  0  0  0  0  0  0  0  0  0  0  0
    4.3311   -4.7447   -4.4293 N   0  0  0  0  0  0  0  0  0  0  0  0
    4.8320   -3.4960   -4.7654 C   0  0  0  0  0  0  0  0  0  0  0  0
    5.3915   -3.3467   -5.9713 N   0  0  0  0  0  0  0  0  0  0  0  0
    4.7645   -2.4326   -3.9479 N   0  0  0  0  0  0  0  0  0  0  0  0
    4.1030   -2.6772   -2.7838 C   0  0  0  0  0  0  0  0  0  0  0  0
  1  2  2  0  0  0  0
  1  4  1  0  0  0  0
  1  3  1  0  0  0  0
  5  1  1  0  0  0  0
  6  7  2  6  0  0  0
  6  9  1  0  0  0  0
  6  5  1  0  0  0  0
  6  8  1  0  0  0  0
 10 11  2  1  0  0  0
 10 12  1  0  0  0  0
 10 13  1  0  0  0  0
 10  9  1  0  0  0  0
 13 14  1  0  0  0  0
 15 14  1  1  0  0  0
 15 16  1  0  0  0  0
 17 19  1  0  0  0  0
 17 15  1  0  0  0  0
 17 18  1  6  0  0  0
 19 21  1  0  0  0  0
 19 20  1  1  0  0  0
 21 16  1  0  0  0  0
 21 22  1  6  0  0  0
 22 32  1  0  0  0  0
 23 22  1  0  0  0  0
 23 24  2  0  0  0  0
 24 25  1  0  0  0  0
 25 26  1  0  0  0  0
 26 27  2  0  0  0  0
 26 28  1  0  0  0  0
 29 28  1  0  0  0  0
 29 30  1  0  0  0  0
 31 29  2  0  0  0  0
 32 25  2  0  0  0  0
 32 31  1  0  0  0  0
M  END
>  <CHROM.1>
173.68940962,-0.14797819,-45.94103218,-11.77658815,-99.40889190,171.93150604
13.56486032,173.16509328,-62.02591190,-24.31676477,2.00404924,1.48242277
-0.92719101,2.20570449,0.64916662,0.06673525

>  <Name>
lig.pdb

>  <RI>
1.17715e+07

>  <Rbt.Current_Directory>
/home/itssahil/PROJECTS/Mol_Feturizer/New_Systems/rnas/5lwj

>  <Rbt.Executable>
rbdock ($Id: //depot/dev/client3/rdock/2013.1/src/exe/rbdock.cxx#4 $)

>  <Rbt.Library>
libRbt.so (2013.1, Build901 2013/11/27)

>  <Rbt.Parameter_File>
/export/apps/rDock/src/rDock_2013.1_src/data/scripts/dock_solv.prm

>  <Rbt.Receptor>
prm/blind_docking_60.prm

>  <SCORE>
-36.7857

>  <SCORE.INTER>
-39.4533

>  <SCORE.INTER.CONST>
1

>  <SCORE.INTER.POLAR>
-3.10459

>  <SCORE.INTER.ROT>
8

>  <SCORE.INTER.SOLV>
30.0327

>  <SCORE.INTER.VDW>
-34.8978

>  <SCORE.INTER.norm>
-1.23292

>  <SCORE.INTRA>
2.54151

>  <SCORE.INTRA.DIHEDRAL>
3.03779

>  <SCORE.INTRA.DIHEDRAL.0>
10.9248

>  <SCORE.INTRA.POLAR>
0

>  <SCORE.INTRA.POLAR.0>
0

>  <SCORE.INTRA.REPUL>
0.0245708

>  <SCORE.INTRA.REPUL.0>
0

>  <SCORE.INTRA.SOLV>
0.0830734

>  <SCORE.INTRA.SOLV.lig_0>
-51.4104

>  <SCORE.INTRA.VDW>
0.858227

>  <SCORE.INTRA.VDW.0>
0.110327

>  <SCORE.INTRA.norm>
0.0794222

>  <SCORE.RESTR>
0.12606

>  <SCORE.RESTR.CAVITY>
0.12606

>  <SCORE.RESTR.norm>
0.00393937

>  <SCORE.SYSTEM>
0

>  <SCORE.SYSTEM.CONST>
0

>  <SCORE.SYSTEM.DIHEDRAL>
0

>  <SCORE.SYSTEM.SOLV>
0

>  <SCORE.SYSTEM.norm>
0

>  <SCORE.heavy>
32

>  <SCORE.norm>
-1.14955

>  <RMSD>
16.787

$$$$
lig.pdb
 OpenBabel11021811523D
libRbt.so/2013.1/901 2013/11/27
 32 34  0  0  0  0  0  0  0  0999 V2000
   -1.7193    6.8716   -0.3853 P   0  0  0  0  0  0  0  0  0  0  0  0
   -1.7465    8.2107   -1.0809 O   0  0  0  0  0  0  0  0  0  0  0  0
   -2.3838    7.1928    1.0596 O   0  0  0  0  0  0  0  0  0  0  0  0
   -2.5874    5.7627   -0.9258 O   0  0  0  0  0  0  0  0  0  0  0  0
   -0.3529    6.3959   -0.4822 O   0  0  0  0  0  0  0  0  0  0  0  0
   -0.0606    5.4958    0.6579 P   0  0  1  0  0  0  0  0  0  0  0  0
    0.2152    6.3336    1.8487 O   0  0  0  0  0  0  0  0  0  0  0  0
   -1.2315    4.6318    0.9359 O   0  0  0  0  0  0  0  0  0  0  0  0
    1.1188    4.6548    0.3333 O   0  0  0  0  0  0  0  0  0  0  0  0
    1.4282    3.4005    1.0598 P   0  0  1  0  0  0  0  0  0  0  0  0
    2.8426    3.2469    1.4571 O   0  0  0  0  0  0  0  0  0  0  0  0
    0.4455    3.0174    2.0979 O   0  0  0  0  0  0  0  0  0  0  0  0
    1.2680    2.2732   -0.0900 O   0  0  0  0  0  0  0  0  0  0  0  0
    0.5962    1.0486    0.1373 C   0  0  0  0  0  0  0  0  0  0  0  0
    1.5632   -0.1281    0.3288 C   0  0  1  0  0  0  0  0  0  0  0  0
    1.2154   -1.1937   -0.5315 O   0  0  0  0  0  0  0  0  0  0  0  0
    3.0026    0.1717   -0.1252 C   0  0  1  0  0  0  0  0  0  0  0  0
    3.7716    0.9602    0.7676 O   0  0  0  0  0  0  0  0  0  0  0  0
    3.5984   -1.2179   -0.3494 C   0  0  1  0  0  0  0  0  0  0  0  0
    4.2348   -1.7206    0.8121 O   0  0  0  0  0  0  0  0  0  0  0  0
    2.3433   -2.0462   -0.6179 C   0  0  2  0  0  0  0  0  0  0  0  0
    2.3453   -2.8080   -1.8851 N   0  0  0  0  0  0  0  0  0  0  0  0
    1.5037   -3.7940   -2.3342 C   0  0  0  0  0  0  0  0  0  0  0  0
    1.8628   -4.3219   -3.4758 N   0  0  0  0  0  0  0  0  0  0  0  0
    3.0130   -3.6216   -3.8267 C   0  0  0  0  0  0  0  0  0  0  0  0
    3.8906   -3.7668   -4.9487 C   0  0  0  0  0  0  0  0  0  0  0  0
    3.8266   -4.5998   -5.8505 O   0  0  0  0  0  0  0  0  0  0  0  0
    4.9314   -2.8284   -4.9483 N   0  0  0  0  0  0  0  0  0  0  0  0
    5.0778   -1.8407   -3.9860 C   0  0  0  0  0  0  0  0  0  0  0  0
    6.0508   -0.9381   -4.1540 N   0  0  0  0  0  0  0  0  0  0  0  0
    4.2805   -1.7390   -2.9099 N   0  0  0  0  0  0  0  0  0  0  0  0
    3.2760   -2.6569   -2.8832 C   0  0  0  0  0  0  0  0  0  0  0  0
  1  2  2  0  0  0  0
  1  4  1  0  0  0  0
  1  3  1  0  0  0  0
  5  1  1  0  0  0  0
  6  7  2  1  0  0  0
  6  9  1  0  0  0  0
  6  5  1  0  0  0  0
  6  8  1  0  0  0  0
 10 11  2  1  0  0  0
 10 12  1  0  0  0  0
 10 13  1  0  0  0  0
 10  9  1  0  0  0  0
 13 14  1  0  0  0  0
 15 14  1  6  0  0  0
 15 16  1  0  0  0  0
 17 19  1  0  0  0  0
 17 15  1  0  0  0  0
 17 18  1  1  0  0  0
 19 21  1  0  0  0  0
 19 20  1  1  0  0  0
 21 16  1  0  0  0  0
 21 22  1  6  0  0  0
 22 32  1  0  0  0  0
 23 22  1  0  0  0  0
 23 24  2  0  0  0  0
 24 25  1  0  0  0  0
 25 26  1  0  0  0  0
 26 27  2  0  0  0  0
 26 28  1  0  0  0  0
 29 28  1  0  0  0  0
 29 30  1  0  0  0  0
 31 29  2  0  0  0  0
 32 25  2  0  0  0  0
 32 31  1  0  0  0  0
M  END
>  <CHROM.1>
152.67647729,-161.41809727,-79.20787206,-136.13402737,-134.37562759,-103.13219359
-128.44297442,178.75677765,-55.25517472,-67.38481619,1.55672729,1.56127920
-0.83887891,2.38312137,-0.94611440,1.09431953

>  <Name>
lig.pdb

>  <RI>
4.14043e+07

>  <Rbt.Current_Directory>
/home/itssahil/PROJECTS/Mol_Feturizer/New_Systems/rnas/5lwj

>  <Rbt.Executable>
rbdock ($Id: //depot/dev/client3/rdock/2013.1/src/exe/rbdock.cxx#4 $)

>  <Rbt.Library>
libRbt.so (2013.1, Build901 2013/11/27)

>  <Rbt.Parameter_File>
/export/apps/rDock/src/rDock_2013.1_src/data/scripts/dock_solv.prm

>  <Rbt.Receptor>
prm/blind_docking_80.prm

>  <SCORE>
-31.9457

>  <SCORE.INTER>
-37.075

>  <SCORE.INTER.CONST>
1

>  <SCORE.INTER.POLAR>
-2.70998

>  <SCORE.INTER.ROT>
8

>  <SCORE.INTER.SOLV>
24.8519

>  <SCORE.INTER.VDW>
-32.9007

>  <SCORE.INTER.norm>
-1.15859

>  <SCORE.INTRA>
4.11617

>  <SCORE.INTRA.DIHEDRAL>
8.89006

>  <SCORE.INTRA.DIHEDRAL.0>
10.9248

>  <SCORE.INTRA.POLAR>
0

>  <SCORE.INTRA.POLAR.0>
0

>  <SCORE.INTRA.REPUL>
0

>  <SCORE.INTRA.REPUL.0>
0

>  <SCORE.INTRA.SOLV>
0.511989

>  <SCORE.INTRA.SOLV.lig_0>
-51.4104

>  <SCORE.INTRA.VDW>
-0.58486

>  <SCORE.INTRA.VDW.0>
0.110327

>  <SCORE.INTRA.norm>
0.12863

>  <SCORE.RESTR>
1.01304

>  <SCORE.RESTR.CAVITY>
1.01304

>  <SCORE.RESTR.norm>
0.0316576

>  <SCORE.SYSTEM>
0

>  <SCORE.SYSTEM.CONST>
0

>  <SCORE.SYSTEM.DIHEDRAL>
0

>  <SCORE.SYSTEM.SOLV>
0

>  <SCORE.SYSTEM.norm>
0

>  <SCORE.heavy>
32

>  <SCORE.norm>
-0.998304

>  <RMSD>
16.790

$$$$
lig.pdb
 OpenBabel11021811523D
libRbt.so/2013.1/901 2013/11/27
 32 34  0  0  0  0  0  0  0  0999 V2000
   -1.6654    6.4001   -0.5852 P   0  0  0  0  0  0  0  0  0  0  0  0
   -2.0535    7.5858    0.2643 O   0  0  0  0  0  0  0  0  0  0  0  0
   -2.7842    5.2894   -0.2015 O   0  0  0  0  0  0  0  0  0  0  0  0
   -1.7937    6.5161   -2.0836 O   0  0  0  0  0  0  0  0  0  0  0  0
   -0.2606    6.1580   -0.3195 O   0  0  0  0  0  0  0  0  0  0  0  0
   -0.1042    5.5996    1.0441 P   0  0  1  0  0  0  0  0  0  0  0  0
    1.2690    5.9018    1.5120 O   0  0  0  0  0  0  0  0  0  0  0  0
   -1.0782    6.2297    1.9655 O   0  0  0  0  0  0  0  0  0  0  0  0
   -0.3257    4.1322    1.0051 O   0  0  0  0  0  0  0  0  0  0  0  0
    0.7889    3.1561    1.0466 P   0  0  1  0  0  0  0  0  0  0  0  0
    1.7673    3.2851   -0.0525 O   0  0  0  0  0  0  0  0  0  0  0  0
    1.3820    2.9368    2.3847 O   0  0  0  0  0  0  0  0  0  0  0  0
    0.0533    1.7591    0.6920 O   0  0  0  0  0  0  0  0  0  0  0  0
    0.4465    0.9515   -0.4016 C   0  0  0  0  0  0  0  0  0  0  0  0
    1.6019    0.0040   -0.0499 C   0  0  1  0  0  0  0  0  0  0  0  0
    2.0135   -0.7137   -1.1952 O   0  0  0  0  0  0  0  0  0  0  0  0
    2.9024    0.7291    0.3383 C   0  0  1  0  0  0  0  0  0  0  0  0
    2.9325    1.2667    1.6498 O   0  0  0  0  0  0  0  0  0  0  0  0
    3.9792   -0.3312    0.1094 C   0  0  1  0  0  0  0  0  0  0  0  0
    4.2378   -1.0914    1.2766 O   0  0  0  0  0  0  0  0  0  0  0  0
    3.3031   -1.2322   -0.9223 C   0  0  2  0  0  0  0  0  0  0  0  0
    4.0677   -1.4544   -2.1682 N   0  0  0  0  0  0  0  0  0  0  0  0
    4.8177   -0.5866   -2.9211 C   0  0  0  0  0  0  0  0  0  0  0  0
    5.2808   -1.1055   -4.0288 N   0  0  0  0  0  0  0  0  0  0  0  0
    4.8286   -2.4214   -4.0023 C   0  0  0  0  0  0  0  0  0  0  0  0
    4.9743   -3.4798   -4.9554 C   0  0  0  0  0  0  0  0  0  0  0  0
    5.5193   -3.4305   -6.0563 O   0  0  0  0  0  0  0  0  0  0  0  0
    4.3904   -4.6796   -4.5273 N   0  0  0  0  0  0  0  0  0  0  0  0
    3.7696   -4.8384   -3.2975 C   0  0  0  0  0  0  0  0  0  0  0  0
    3.3451   -6.0615   -2.9606 N   0  0  0  0  0  0  0  0  0  0  0  0
    3.5929   -3.8304   -2.4277 N   0  0  0  0  0  0  0  0  0  0  0  0
    4.1356   -2.6514   -2.8374 C   0  0  0  0  0  0  0  0  0  0  0  0
  1  2  2  0  0  0  0
  1  4  1  0  0  0  0
  1  3  1  0  0  0  0
  5  1  1  0  0  0  0
  6  7  2  1  0  0  0
  6  9  1  0  0  0  0
  6  5  1  0  0  0  0
  6  8  1  0  0  0  0
 10 11  2  6  0  0  0
 10 12  1  0  0  0  0
 10 13  1  0  0  0  0
 10  9  1  0  0  0  0
 13 14  1  0  0  0  0
 15 14  1  6  0  0  0
 15 16  1  0  0  0  0
 17 19  1  0  0  0  0
 17 15  1  0  0  0  0
 17 18  1  1  0  0  0
 19 21  1  0  0  0  0
 19 20  1  1  0  0  0
 21 16  1  0  0  0  0
 21 22  1  6  0  0  0
 22 32  1  0  0  0  0
 23 22  1  0  0  0  0
 23 24  2  0  0  0  0
 24 25  1  0  0  0  0
 25 26  1  0  0  0  0
 26 27  2  0  0  0  0
 26 28  1  0  0  0  0
 29 28  1  0  0  0  0
 29 30  1  0  0  0  0
 31 29  2  0  0  0  0
 32 25  2  0  0  0  0
 32 31  1  0  0  0  0
M  END
>  <CHROM.1>
71.50934031,102.66815169,-155.88057058,122.70389728,-59.22594291,85.18498512
-176.13419432,57.83818718,-61.54909518,83.85318107,1.70802328,1.49885975
-0.77819638,2.59947833,-0.99363648,1.34326737

>  <Name>
lig.pdb

>  <RI>
3.17878e+07

>  <Rbt.Current_Directory>
/home/itssahil/PROJECTS/Mol_Feturizer/New_Systems/rnas/5lwj

>  <Rbt.Executable>
rbdock ($Id: //depot/dev/client3/rdock/2013.1/src/exe/rbdock.cxx#4 $)

>  <Rbt.Library>
libRbt.so (2013.1, Build901 2013/11/27)

>  <Rbt.Parameter_File>
/export/apps/rDock/src/rDock_2013.1_src/data/scripts/dock_solv.prm

>  <Rbt.Receptor>
prm/blind_docking_100.prm

>  <SCORE>
-28.113

>  <SCORE.INTER>
-30.5728

>  <SCORE.INTER.CONST>
1

>  <SCORE.INTER.POLAR>
-2.85801

>  <SCORE.INTER.ROT>
8

>  <SCORE.INTER.SOLV>
28.4984

>  <SCORE.INTER.VDW>
-29.2879

>  <SCORE.INTER.norm>
-0.955399

>  <SCORE.INTRA>
1.88513

>  <SCORE.INTRA.DIHEDRAL>
0.455071

>  <SCORE.INTRA.DIHEDRAL.0>
10.9248

>  <SCORE.INTRA.POLAR>
0

>  <SCORE.INTRA.POLAR.0>
0

>  <SCORE.INTRA.REPUL>
0

>  <SCORE.INTRA.REPUL.0>
0

>  <SCORE.INTRA.SOLV>
2.1762

>  <SCORE.INTRA.SOLV.lig_0>
-51.4104

>  <SCORE.INTRA.VDW>
0.569498

>  <SCORE.INTRA.VDW.0>
0.110327

>  <SCORE.INTRA.norm>
0.0589104

>  <SCORE.RESTR>
0.574654

>  <SCORE.RESTR.CAVITY>
0.574654

>  <SCORE.RESTR.norm>
0.017958

>  <SCORE.SYSTEM>
0

>  <SCORE.SYSTEM.CONST>
0

>  <SCORE.SYSTEM.DIHEDRAL>
0

>  <SCORE.SYSTEM.SOLV>
0

>  <SCORE.SYSTEM.norm>
0

>  <SCORE.heavy>
32

>  <SCORE.norm>
-0.87853

>  <RMSD>
16.866

$$$$
lig.pdb
 OpenBabel11021811523D
libRbt.so/2013.1/901 2013/11/27
 32 34  0  0  0  0  0  0  0  0999 V2000
   -2.4937    5.5169    0.8883 P   0  0  0  0  0  0  0  0  0  0  0  0
   -3.1007    5.4646   -0.4926 O   0  0  0  0  0  0  0  0  0  0  0  0
   -2.4067    7.1082    1.1930 O   0  0  0  0  0  0  0  0  0  0  0  0
   -3.2990    4.9867    2.0483 O   0  0  0  0  0  0  0  0  0  0  0  0
   -1.2918    4.7077    0.8300 O   0  0  0  0  0  0  0  0  0  0  0  0
   -0.1045    5.5907    0.7525 P   0  0  1  0  0  0  0  0  0  0  0  0
   -0.3656    6.6264   -0.2747 O   0  0  0  0  0  0  0  0  0  0  0  0
    0.1225    6.2521    2.0585 O   0  0  0  0  0  0  0  0  0  0  0  0
    1.0866    4.7853    0.3832 O   0  0  0  0  0  0  0  0  0  0  0  0
    1.3463    3.4401    0.9488 P   0  0  1  0  0  0  0  0  0  0  0  0
    2.7235    3.2293    1.4395 O   0  0  0  0  0  0  0  0  0  0  0  0
    0.2832    2.9155    1.8346 O   0  0  0  0  0  0  0  0  0  0  0  0
    1.2957    2.4875   -0.3583 O   0  0  0  0  0  0  0  0  0  0  0  0
    2.4664    2.0173   -0.9995 C   0  0  0  0  0  0  0  0  0  0  0  0
    3.1370    0.8679   -0.2342 C   0  0  1  0  0  0  0  0  0  0  0  0
    2.4759   -0.3516   -0.5028 O   0  0  0  0  0  0  0  0  0  0  0  0
    4.5644    0.5523   -0.7146 C   0  0  1  0  0  0  0  0  0  0  0  0
    5.5695    1.4473   -0.2687 O   0  0  0  0  0  0  0  0  0  0  0  0
    4.7910   -0.8796   -0.2305 C   0  0  1  0  0  0  0  0  0  0  0  0
    5.3817   -0.9217    1.0565 O   0  0  0  0  0  0  0  0  0  0  0  0
    3.3569   -1.3957   -0.1285 C   0  0  2  0  0  0  0  0  0  0  0  0
    3.0736   -2.6346   -0.8842 N   0  0  0  0  0  0  0  0  0  0  0  0
    2.2252   -3.6758   -0.6041 C   0  0  0  0  0  0  0  0  0  0  0  0
    2.2993   -4.6670   -1.4543 N   0  0  0  0  0  0  0  0  0  0  0  0
    3.2472   -4.2476   -2.3829 C   0  0  0  0  0  0  0  0  0  0  0  0
    3.7918   -4.9116   -3.5285 C   0  0  0  0  0  0  0  0  0  0  0  0
    3.5514   -6.0512   -3.9219 O   0  0  0  0  0  0  0  0  0  0  0  0
    4.7117   -4.1194   -4.2284 N   0  0  0  0  0  0  0  0  0  0  0  0
    5.0348   -2.8183   -3.8735 C   0  0  0  0  0  0  0  0  0  0  0  0
    5.8465   -2.1287   -4.6830 N   0  0  0  0  0  0  0  0  0  0  0  0
    4.5581   -2.2173   -2.7711 N   0  0  0  0  0  0  0  0  0  0  0  0
    3.6787   -2.9811   -2.0670 C   0  0  0  0  0  0  0  0  0  0  0  0
  1  2  2  0  0  0  0
  1  4  1  0  0  0  0
  1  3  1  0  0  0  0
  5  1  1  0  0  0  0
  6  7  2  6  0  0  0
  6  9  1  0  0  0  0
  6  5  1  0  0  0  0
  6  8  1  0  0  0  0
 10 11  2  1  0  0  0
 10 12  1  0  0  0  0
 10 13  1  0  0  0  0
 10  9  1  0  0  0  0
 13 14  1  0  0  0  0
 15 14  1  6  0  0  0
 15 16  1  0  0  0  0
 17 19  1  0  0  0  0
 17 15  1  0  0  0  0
 17 18  1  1  0  0  0
 19 21  1  0  0  0  0
 19 20  1  1  0  0  0
 21 16  1  0  0  0  0
 21 22  1  6  0  0  0
 22 32  1  0  0  0  0
 23 22  1  0  0  0  0
 23 24  2  0  0  0  0
 24 25  1  0  0  0  0
 25 26  1  0  0  0  0
 26 27  2  0  0  0  0
 26 28  1  0  0  0  0
 29 28  1  0  0  0  0
 29 30  1  0  0  0  0
 31 29  2  0  0  0  0
 32 25  2  0  0  0  0
 32 31  1  0  0  0  0
M  END
>  <CHROM.1>
102.92073137,-41.06485266,-46.88878150,100.88316132,-132.51553417,76.54068136
80.18901651,-56.01906508,-175.73459241,-89.39222998,1.78805063,1.33778580
-0.44578855,2.08669579,-0.09557326,0.42764252

>  <Name>
lig.pdb

>  <RI>
3.17878e+07

>  <Rbt.Current_Directory>
/home/itssahil/PROJECTS/Mol_Feturizer/New_Systems/rnas/5lwj

>  <Rbt.Executable>
rbdock ($Id: //depot/dev/client3/rdock/2013.1/src/exe/rbdock.cxx#4 $)

>  <Rbt.Library>
libRbt.so (2013.1, Build901 2013/11/27)

>  <Rbt.Parameter_File>
/export/apps/rDock/src/rDock_2013.1_src/data/scripts/dock_solv.prm

>  <Rbt.Receptor>
prm/blind_docking_100.prm

>  <SCORE>
-31.7092

>  <SCORE.INTER>
-32.197

>  <SCORE.INTER.CONST>
1

>  <SCORE.INTER.POLAR>
-2.98682

>  <SCORE.INTER.ROT>
8

>  <SCORE.INTER.SOLV>
24.3383

>  <SCORE.INTER.VDW>
-28.5547

>  <SCORE.INTER.norm>
-1.00616

>  <SCORE.INTRA>
-0.714899

>  <SCORE.INTRA.DIHEDRAL>
1.60791

>  <SCORE.INTRA.DIHEDRAL.0>
10.9248

>  <SCORE.INTRA.POLAR>
0

>  <SCORE.INTRA.POLAR.0>
0

>  <SCORE.INTRA.REPUL>
0

>  <SCORE.INTRA.REPUL.0>
0

>  <SCORE.INTRA.SOLV>
0.181447

>  <SCORE.INTRA.SOLV.lig_0>
-51.4104

>  <SCORE.INTRA.VDW>
-1.60958

>  <SCORE.INTRA.VDW.0>
0.110327

>  <SCORE.INTRA.norm>
-0.0223406

>  <SCORE.RESTR>
1.20274

>  <SCORE.RESTR.CAVITY>
1.20274

>  <SCORE.RESTR.norm>
0.0375857

>  <SCORE.SYSTEM>
0

>  <SCORE.SYSTEM.CONST>
0

>  <SCORE.SYSTEM.DIHEDRAL>
0

>  <SCORE.SYSTEM.SOLV>
0

>  <SCORE.SYSTEM.norm>
0

>  <SCORE.heavy>
32

>  <SCORE.norm>
-0.990912

>  <RMSD>
16.894

$$$$
lig.pdb
 OpenBabel11021811523D
libRbt.so/2013.1/901 2013/11/27
 32 34  0  0  0  0  0  0  0  0999 V2000
   -2.1911    6.4873    0.5378 P   0  0  0  0  0  0  0  0  0  0  0  0
   -3.3441    6.4908   -0.4362 O   0  0  0  0  0  0  0  0  0  0  0  0
   -1.1903    7.6099   -0.0712 O   0  0  0  0  0  0  0  0  0  0  0  0
   -2.4372    6.9710    1.9451 O   0  0  0  0  0  0  0  0  0  0  0  0
   -1.7689    5.1051    0.6558 O   0  0  0  0  0  0  0  0  0  0  0  0
   -0.3259    5.0556    0.9890 P   0  0  1  0  0  0  0  0  0  0  0  0
    0.4367    5.5262   -0.1913 O   0  0  0  0  0  0  0  0  0  0  0  0
   -0.0389    5.9474    2.1365 O   0  0  0  0  0  0  0  0  0  0  0  0
    0.0550    3.6615    1.3281 O   0  0  0  0  0  0  0  0  0  0  0  0
    1.4477    3.1662    1.2185 P   0  0  1  0  0  0  0  0  0  0  0  0
    2.4884    4.1707    1.5179 O   0  0  0  0  0  0  0  0  0  0  0  0
    1.6866    1.8290    1.8060 O   0  0  0  0  0  0  0  0  0  0  0  0
    1.6251    2.9496   -0.3753 O   0  0  0  0  0  0  0  0  0  0  0  0
    1.5389    1.6736   -0.9812 C   0  0  0  0  0  0  0  0  0  0  0  0
    2.8252    0.8528   -0.8136 C   0  0  1  0  0  0  0  0  0  0  0  0
    2.5129   -0.4975   -0.5388 O   0  0  0  0  0  0  0  0  0  0  0  0
    3.6477    0.7176   -2.1070 C   0  0  1  0  0  0  0  0  0  0  0  0
    4.4112    1.8571   -2.4658 O   0  0  0  0  0  0  0  0  0  0  0  0
    4.5127   -0.5156   -1.8476 C   0  0  1  0  0  0  0  0  0  0  0  0
    5.7629   -0.1803   -1.2718 O   0  0  0  0  0  0  0  0  0  0  0  0
    3.6772   -1.2585   -0.8068 C   0  0  2  0  0  0  0  0  0  0  0  0
    3.3387   -2.6572   -1.1462 N   0  0  0  0  0  0  0  0  0  0  0  0
    2.6827   -3.6177   -0.4186 C   0  0  0  0  0  0  0  0  0  0  0  0
    2.6439   -4.7903   -0.9969 N   0  0  0  0  0  0  0  0  0  0  0  0
    3.2993   -4.5931   -2.2086 C   0  0  0  0  0  0  0  0  0  0  0  0
    3.6142   -5.5105   -3.2617 C   0  0  0  0  0  0  0  0  0  0  0  0
    3.3945   -6.7195   -3.2963 O   0  0  0  0  0  0  0  0  0  0  0  0
    4.2624   -4.8955   -4.3413 N   0  0  0  0  0  0  0  0  0  0  0  0
    4.5379   -3.5377   -4.4023 C   0  0  0  0  0  0  0  0  0  0  0  0
    5.0649   -3.0531   -5.5324 N   0  0  0  0  0  0  0  0  0  0  0  0
    4.2842   -2.6901   -3.3919 N   0  0  0  0  0  0  0  0  0  0  0  0
    3.6736   -3.2754   -2.3255 C   0  0  0  0  0  0  0  0  0  0  0  0
  1  2  2  0  0  0  0
  1  4  1  0  0  0  0
  1  3  1  0  0  0  0
  5  1  1  0  0  0  0
  6  7  2  6  0  0  0
  6  9  1  0  0  0  0
  6  5  1  0  0  0  0
  6  8  1  0  0  0  0
 10 11  2  1  0  0  0
 10 12  1  0  0  0  0
 10 13  1  0  0  0  0
 10  9  1  0  0  0  0
 13 14  1  0  0  0  0
 15 14  1  6  0  0  0
 15 16  1  0  0  0  0
 17 19  1  0  0  0  0
 17 15  1  0  0  0  0
 17 18  1  1  0  0  0
 19 21  1  0  0  0  0
 19 20  1  1  0  0  0
 21 16  1  0  0  0  0
 21 22  1  6  0  0  0
 22 32  1  0  0  0  0
 23 22  1  0  0  0  0
 23 24  2  0  0  0  0
 24 25  1  0  0  0  0
 25 26  1  0  0  0  0
 26 27  2  0  0  0  0
 26 28  1  0  0  0  0
 29 28  1  0  0  0  0
 29 30  1  0  0  0  0
 31 29  2  0  0  0  0
 32 25  2  0  0  0  0
 32 31  1  0  0  0  0
M  END
>  <CHROM.1>
151.57783737,156.79049930,-68.95908084,-101.03318878,33.57237827,-78.90517752
139.51418540,79.96556980,-178.52912531,-60.04778448,1.76176069,1.30574945
-0.72711756,2.06095640,0.36835963,0.18310036

>  <Name>
lig.pdb

>  <RI>
2.72908e+07

>  <Rbt.Current_Directory>
/home/itssahil/PROJECTS/Mol_Feturizer/New_Systems/rnas/5lwj

>  <Rbt.Executable>
rbdock ($Id: //depot/dev/client3/rdock/2013.1/src/exe/rbdock.cxx#4 $)

>  <Rbt.Library>
libRbt.so (2013.1, Build901 2013/11/27)

>  <Rbt.Parameter_File>
/export/apps/rDock/src/rDock_2013.1_src/data/scripts/dock_solv.prm

>  <Rbt.Receptor>
prm/blind_docking_20.prm

>  <SCORE>
-27.4566

>  <SCORE.INTER>
-28.8991

>  <SCORE.INTER.CONST>
1

>  <SCORE.INTER.POLAR>
-2.5105

>  <SCORE.INTER.ROT>
8

>  <SCORE.INTER.SOLV>
24.9709

>  <SCORE.INTER.VDW>
-28.1547

>  <SCORE.INTER.norm>
-0.903098

>  <SCORE.INTRA>
-0.745615

>  <SCORE.INTRA.DIHEDRAL>
3.2033

>  <SCORE.INTRA.DIHEDRAL.0>
10.9248

>  <SCORE.INTRA.POLAR>
-0.184308

>  <SCORE.INTRA.POLAR.0>
0

>  <SCORE.INTRA.REPUL>
0

>  <SCORE.INTRA.REPUL.0>
0

>  <SCORE.INTRA.SOLV>
-0.0661198

>  <SCORE.INTRA.SOLV.lig_0>
-51.4104

>  <SCORE.INTRA.VDW>
-1.68756

>  <SCORE.INTRA.VDW.0>
0.110327

>  <SCORE.INTRA.norm>
-0.0233005

>  <SCORE.RESTR>
2.18816

>  <SCORE.RESTR.CAVITY>
2.18816

>  <SCORE.RESTR.norm>
0.0683799

>  <SCORE.SYSTEM>
0

>  <SCORE.SYSTEM.CONST>
0

>  <SCORE.SYSTEM.DIHEDRAL>
0

>  <SCORE.SYSTEM.SOLV>
0

>  <SCORE.SYSTEM.norm>
0

>  <SCORE.heavy>
32

>  <SCORE.norm>
-0.858018

>  <RMSD>
16.933

$$$$
lig.pdb
 OpenBabel11021811523D
libRbt.so/2013.1/901 2013/11/27
 32 34  0  0  0  0  0  0  0  0999 V2000
   -2.2003    5.7317    0.7587 P   0  0  0  0  0  0  0  0  0  0  0  0
   -2.2289    4.2626    0.4139 O   0  0  0  0  0  0  0  0  0  0  0  0
   -3.5116    6.3141    0.0011 O   0  0  0  0  0  0  0  0  0  0  0  0
   -2.4221    6.1379    2.1943 O   0  0  0  0  0  0  0  0  0  0  0  0
   -0.8737    6.2011    0.4085 O   0  0  0  0  0  0  0  0  0  0  0  0
    0.1425    5.3612    1.0849 P   0  0  1  0  0  0  0  0  0  0  0  0
    1.1332    6.2596    1.7233 O   0  0  0  0  0  0  0  0  0  0  0  0
   -0.4995    4.5300    2.1297 O   0  0  0  0  0  0  0  0  0  0  0  0
    0.8061    4.4877    0.0848 O   0  0  0  0  0  0  0  0  0  0  0  0
    1.7397    3.4023    0.4686 P   0  0  1  0  0  0  0  0  0  0  0  0
    2.5833    2.8925   -0.6315 O   0  0  0  0  0  0  0  0  0  0  0  0
    2.4479    3.6077    1.7517 O   0  0  0  0  0  0  0  0  0  0  0  0
    0.7444    2.1569    0.7463 O   0  0  0  0  0  0  0  0  0  0  0  0
    0.6979    1.0212   -0.0966 C   0  0  0  0  0  0  0  0  0  0  0  0
    1.8395    0.0333    0.1809 C   0  0  1  0  0  0  0  0  0  0  0  0
    2.1668   -0.6805   -0.9937 O   0  0  0  0  0  0  0  0  0  0  0  0
    3.1812    0.7120    0.5082 C   0  0  1  0  0  0  0  0  0  0  0  0
    3.2978    1.2296    1.8230 O   0  0  0  0  0  0  0  0  0  0  0  0
    4.2101   -0.3780    0.2088 C   0  0  1  0  0  0  0  0  0  0  0  0
    4.5058   -1.1624    1.3509 O   0  0  0  0  0  0  0  0  0  0  0  0
    3.4519   -1.2427   -0.7966 C   0  0  2  0  0  0  0  0  0  0  0  0
    4.1420   -1.4707   -2.0842 N   0  0  0  0  0  0  0  0  0  0  0  0
    4.8435   -0.6058   -2.8856 C   0  0  0  0  0  0  0  0  0  0  0  0
    5.2417   -1.1304   -4.0156 N   0  0  0  0  0  0  0  0  0  0  0  0
    4.7957   -2.4473   -3.9542 C   0  0  0  0  0  0  0  0  0  0  0  0
    4.8879   -3.5113   -4.9078 C   0  0  0  0  0  0  0  0  0  0  0  0
    5.3665   -3.4675   -6.0393 O   0  0  0  0  0  0  0  0  0  0  0  0
    4.3340   -4.7099   -4.4384 N   0  0  0  0  0  0  0  0  0  0  0  0
    3.7876   -4.8626   -3.1731 C   0  0  0  0  0  0  0  0  0  0  0  0
    3.3875   -6.0846   -2.8040 N   0  0  0  0  0  0  0  0  0  0  0  0
    3.6598   -3.8496   -2.3005 N   0  0  0  0  0  0  0  0  0  0  0  0
    4.1737   -2.6717   -2.7489 C   0  0  0  0  0  0  0  0  0  0  0  0
  1  2  2  0  0  0  0
  1  4  1  0  0  0  0
  1  3  1  0  0  0  0
  5  1  1  0  0  0  0
  6  7  2  1  0  0  0
  6  9  1  0  0  0  0
  6  5  1  0  0  0  0
  6  8  1  0  0  0  0
 10 11  2  6  0  0  0
 10 12  1  0  0  0  0
 10 13  1  0  0  0  0
 10  9  1  0  0  0  0
 13 14  1  0  0  0  0
 15 14  1  6  0  0  0
 15 16  1  0  0  0  0
 17 19  1  0  0  0  0
 17 15  1  0  0  0  0
 17 18  1  1  0  0  0
 19 21  1  0  0  0  0
 19 20  1  1  0  0  0
 21 16  1  0  0  0  0
 21 22  1  6  0  0  0
 22 32  1  0  0  0  0
 23 22  1  0  0  0  0
 23 24  2  0  0  0  0
 24 25  1  0  0  0  0
 25 26  1  0  0  0  0
 26 27  2  0  0  0  0
 26 28  1  0  0  0  0
 29 28  1  0  0  0  0
 29 30  1  0  0  0  0
 31 29  2  0  0  0  0
 32 25  2  0  0  0  0
 32 31  1  0  0  0  0
M  END
>  <CHROM.1>
-54.42372154,-171.54211117,-132.03652352,110.95995283,-163.70904550,79.87533915
-151.32341807,-158.24559669,50.07707020,81.56198661,1.86030615,1.36073184
-0.55887504,2.19946168,-0.61771968,0.85916907

>  <Name>
lig.pdb

>  <RI>
2.72908e+07

>  <Rbt.Current_Directory>
/home/itssahil/PROJECTS/Mol_Feturizer/New_Systems/rnas/5lwj

>  <Rbt.Executable>
rbdock ($Id: //depot/dev/client3/rdock/2013.1/src/exe/rbdock.cxx#4 $)

>  <Rbt.Library>
libRbt.so (2013.1, Build901 2013/11/27)

>  <Rbt.Parameter_File>
/export/apps/rDock/src/rDock_2013.1_src/data/scripts/dock_solv.prm

>  <Rbt.Receptor>
prm/blind_docking_20.prm

>  <SCORE>
-17.091

>  <SCORE.INTER>
-25.6742

>  <SCORE.INTER.CONST>
1

>  <SCORE.INTER.POLAR>
-2.46033

>  <SCORE.INTER.ROT>
8

>  <SCORE.INTER.SOLV>
28.9231

>  <SCORE.INTER.VDW>
-27.4894

>  <SCORE.INTER.norm>
-0.802317

>  <SCORE.INTRA>
7.78807

>  <SCORE.INTRA.DIHEDRAL>
4.24798

>  <SCORE.INTRA.DIHEDRAL.0>
10.9248

>  <SCORE.INTRA.POLAR>
0

>  <SCORE.INTRA.POLAR.0>
0

>  <SCORE.INTRA.REPUL>
0

>  <SCORE.INTRA.REPUL.0>
0

>  <SCORE.INTRA.SOLV>
2.37216

>  <SCORE.INTRA.SOLV.lig_0>
-51.4104

>  <SCORE.INTRA.VDW>
4.478

>  <SCORE.INTRA.VDW.0>
0.110327

>  <SCORE.INTRA.norm>
0.243377

>  <SCORE.RESTR>
0.795095

>  <SCORE.RESTR.CAVITY>
0.795095

>  <SCORE.RESTR.norm>
0.0248467

>  <SCORE.SYSTEM>
0

>  <SCORE.SYSTEM.CONST>
0

>  <SCORE.SYSTEM.DIHEDRAL>
0

>  <SCORE.SYSTEM.SOLV>
0

>  <SCORE.SYSTEM.norm>
0

>  <SCORE.heavy>
32

>  <SCORE.norm>
-0.534093

>  <RMSD>
16.936

$$$$
lig.pdb
 OpenBabel11021811523D
libRbt.so/2013.1/901 2013/11/27
 32 34  0  0  0  0  0  0  0  0999 V2000
   -0.3641   -2.4017    0.9984 P   0  0  0  0  0  0  0  0  0  0  0  0
    0.4357   -2.9523   -0.1571 O   0  0  0  0  0  0  0  0  0  0  0  0
   -1.7751   -1.9935    0.3091 O   0  0  0  0  0  0  0  0  0  0  0  0
   -0.7782   -3.3446    2.1004 O   0  0  0  0  0  0  0  0  0  0  0  0
    0.4727   -1.3958    1.6233 O   0  0  0  0  0  0  0  0  0  0  0  0
    0.5071   -0.1831    0.7726 P   0  0  1  0  0  0  0  0  0  0  0  0
    0.9755   -0.5787   -0.5765 O   0  0  0  0  0  0  0  0  0  0  0  0
   -0.8511    0.3978    0.6614 O   0  0  0  0  0  0  0  0  0  0  0  0
    1.4323    0.8126    1.3695 O   0  0  0  0  0  0  0  0  0  0  0  0
    1.3823    2.2537    1.0265 P   0  0  1  0  0  0  0  0  0  0  0  0
    0.0454    2.8717    1.1390 O   0  0  0  0  0  0  0  0  0  0  0  0
    2.4917    3.0677    1.5712 O   0  0  0  0  0  0  0  0  0  0  0  0
    1.6268    2.2485   -0.5732 O   0  0  0  0  0  0  0  0  0  0  0  0
    2.7173    2.9198   -1.1756 C   0  0  0  0  0  0  0  0  0  0  0  0
    3.8671    1.9698   -1.5387 C   0  0  1  0  0  0  0  0  0  0  0  0
    3.6396    0.6903   -0.9843 O   0  0  0  0  0  0  0  0  0  0  0  0
    3.9492    1.6408   -3.0396 C   0  0  1  0  0  0  0  0  0  0  0  0
    4.5159    2.6525   -3.8554 O   0  0  0  0  0  0  0  0  0  0  0  0
    4.7490    0.3386   -3.0719 C   0  0  1  0  0  0  0  0  0  0  0  0
    6.1405    0.5689   -3.2049 O   0  0  0  0  0  0  0  0  0  0  0  0
    4.4758   -0.2197   -1.6765 C   0  0  2  0  0  0  0  0  0  0  0  0
    3.9247   -1.5912   -1.6390 N   0  0  0  0  0  0  0  0  0  0  0  0
    3.1848   -2.2290   -0.6756 C   0  0  0  0  0  0  0  0  0  0  0  0
    2.9475   -3.4891   -0.9333 N   0  0  0  0  0  0  0  0  0  0  0  0
    3.5509   -3.7024   -2.1690 C   0  0  0  0  0  0  0  0  0  0  0  0
    3.6708   -4.8907   -2.9587 C   0  0  0  0  0  0  0  0  0  0  0  0
    3.2818   -6.0225   -2.6777 O   0  0  0  0  0  0  0  0  0  0  0  0
    4.3335   -4.6702   -4.1736 N   0  0  0  0  0  0  0  0  0  0  0  0
    4.7927   -3.4285   -4.5863 C   0  0  0  0  0  0  0  0  0  0  0  0
    5.3144   -3.3271   -5.8140 N   0  0  0  0  0  0  0  0  0  0  0  0
    4.7211   -2.3269   -3.8214 N   0  0  0  0  0  0  0  0  0  0  0  0
    4.0988   -2.5279   -2.6277 C   0  0  0  0  0  0  0  0  0  0  0  0
  1  2  2  0  0  0  0
  1  4  1  0  0  0  0
  1  3  1  0  0  0  0
  5  1  1  0  0  0  0
  6  7  2  6  0  0  0
  6  9  1  0  0  0  0
  6  5  1  0  0  0  0
  6  8  1  0  0  0  0
 10 11  2  1  0  0  0
 10 12  1  0  0  0  0
 10 13  1  0  0  0  0
 10  9  1  0  0  0  0
 13 14  1  0  0  0  0
 15 14  1  6  0  0  0
 15 16  1  0  0  0  0
 17 19  1  0  0  0  0
 17 15  1  0  0  0  0
 17 18  1  6  0  0  0
 19 21  1  0  0  0  0
 19 20  1  1  0  0  0
 21 16  1  0  0  0  0
 21 22  1  6  0  0  0
 22 32  1  0  0  0  0
 23 22  1  0  0  0  0
 23 24  2  0  0  0  0
 24 25  1  0  0  0  0
 25 26  1  0  0  0  0
 26 27  2  0  0  0  0
 26 28  1  0  0  0  0
 29 28  1  0  0  0  0
 29 30  1  0  0  0  0
 31 29  2  0  0  0  0
 32 25  2  0  0  0  0
 32 31  1  0  0  0  0
M  END
>  <CHROM.1>
74.25586399,-160.40090378,-56.13883181,-120.30002854,51.27357309,100.58121200
-9.46818382,-56.17751296,-56.39584164,-32.18341817,2.33486772,-0.76176481
-0.99210351,2.46197064,0.74556436,0.22003385

>  <Name>
lig.pdb

>  <RI>
4.14043e+07

>  <Rbt.Current_Directory>
/home/itssahil/PROJECTS/Mol_Feturizer/New_Systems/rnas/5lwj

>  <Rbt.Executable>
rbdock ($Id: //depot/dev/client3/rdock/2013.1/src/exe/rbdock.cxx#4 $)

>  <Rbt.Library>
libRbt.so (2013.1, Build901 2013/11/27)

>  <Rbt.Parameter_File>
/export/apps/rDock/src/rDock_2013.1_src/data/scripts/dock_solv.prm

>  <Rbt.Receptor>
prm/blind_docking_80.prm

>  <SCORE>
-41.4975

>  <SCORE.INTER>
-43.6449

>  <SCORE.INTER.CONST>
1

>  <SCORE.INTER.POLAR>
-4.5098

>  <SCORE.INTER.ROT>
8

>  <SCORE.INTER.SOLV>
23.0578

>  <SCORE.INTER.VDW>
-30.6832

>  <SCORE.INTER.norm>
-1.3639

>  <SCORE.INTRA>
2.10697

>  <SCORE.INTRA.DIHEDRAL>
5.9115

>  <SCORE.INTRA.DIHEDRAL.0>
10.9248

>  <SCORE.INTRA.POLAR>
-0.0113831

>  <SCORE.INTRA.POLAR.0>
0

>  <SCORE.INTRA.REPUL>
0.0296106

>  <SCORE.INTRA.REPUL.0>
0

>  <SCORE.INTRA.SOLV>
3.39699

>  <SCORE.INTRA.SOLV.lig_0>
-51.4104

>  <SCORE.INTRA.VDW>
-2.65663

>  <SCORE.INTRA.VDW.0>
0.110327

>  <SCORE.INTRA.norm>
0.0658428

>  <SCORE.RESTR>
0.0404985

>  <SCORE.RESTR.CAVITY>
0.0404985

>  <SCORE.RESTR.norm>
0.00126558

>  <SCORE.SYSTEM>
0

>  <SCORE.SYSTEM.CONST>
0

>  <SCORE.SYSTEM.DIHEDRAL>
0

>  <SCORE.SYSTEM.SOLV>
0

>  <SCORE.SYSTEM.norm>
0

>  <SCORE.heavy>
32

>  <SCORE.norm>
-1.2968

>  <RMSD>
18.585

$$$$
lig.pdb
 OpenBabel11021811523D
libRbt.so/2013.1/901 2013/11/27
 32 34  0  0  0  0  0  0  0  0999 V2000
    3.7125    0.4815   -2.2787 P   0  0  0  0  0  0  0  0  0  0  0  0
    4.3396   -0.0447   -1.0106 O   0  0  0  0  0  0  0  0  0  0  0  0
    4.9539    1.2071   -3.0305 O   0  0  0  0  0  0  0  0  0  0  0  0
    3.2206   -0.5104   -3.3030 O   0  0  0  0  0  0  0  0  0  0  0  0
    2.5498    1.2433   -1.8660 O   0  0  0  0  0  0  0  0  0  0  0  0
    2.9821    2.5591   -1.3392 P   0  0  1  0  0  0  0  0  0  0  0  0
    4.3294    2.3978   -0.7435 O   0  0  0  0  0  0  0  0  0  0  0  0
    3.0559    3.5475   -2.4402 O   0  0  0  0  0  0  0  0  0  0  0  0
    2.0151    3.0217   -0.3123 O   0  0  0  0  0  0  0  0  0  0  0  0
    1.4542    2.1177    0.7197 P   0  0  1  0  0  0  0  0  0  0  0  0
    2.4592    1.4544    1.5753 O   0  0  0  0  0  0  0  0  0  0  0  0
    0.2735    2.6435    1.4404 O   0  0  0  0  0  0  0  0  0  0  0  0
    0.8811    0.8853   -0.1587 O   0  0  0  0  0  0  0  0  0  0  0  0
    0.6772   -0.4043    0.3871 C   0  0  0  0  0  0  0  0  0  0  0  0
    0.6733   -1.5042   -0.6837 C   0  0  1  0  0  0  0  0  0  0  0  0
    1.9225   -1.5519   -1.3422 O   0  0  0  0  0  0  0  0  0  0  0  0
    0.5775   -2.9286   -0.1095 C   0  0  1  0  0  0  0  0  0  0  0  0
   -0.7140   -3.3281    0.3178 O   0  0  0  0  0  0  0  0  0  0  0  0
    1.1224   -3.8018   -1.2395 C   0  0  1  0  0  0  0  0  0  0  0  0
    0.0984   -4.2508   -2.1095 O   0  0  0  0  0  0  0  0  0  0  0  0
    2.0043   -2.8076   -1.9927 C   0  0  2  0  0  0  0  0  0  0  0  0
    3.4102   -3.2240   -2.1823 N   0  0  0  0  0  0  0  0  0  0  0  0
    4.3205   -3.7253   -1.2865 C   0  0  0  0  0  0  0  0  0  0  0  0
    5.5185   -3.8956   -1.7831 N   0  0  0  0  0  0  0  0  0  0  0  0
    5.3938   -3.5034   -3.1124 C   0  0  0  0  0  0  0  0  0  0  0  0
    6.3675   -3.4234   -4.1591 C   0  0  0  0  0  0  0  0  0  0  0  0
    7.5719   -3.6585   -4.0853 O   0  0  0  0  0  0  0  0  0  0  0  0
    5.8191   -3.0064   -5.3795 N   0  0  0  0  0  0  0  0  0  0  0  0
    4.4720   -2.7350   -5.5660 C   0  0  0  0  0  0  0  0  0  0  0  0
    4.0537   -2.4485   -6.8040 N   0  0  0  0  0  0  0  0  0  0  0  0
    3.5714   -2.7647   -4.5701 N   0  0  0  0  0  0  0  0  0  0  0  0
    4.0916   -3.1474   -3.3719 C   0  0  0  0  0  0  0  0  0  0  0  0
  1  2  2  0  0  0  0
  1  4  1  0  0  0  0
  1  3  1  0  0  0  0
  5  1  1  0  0  0  0
  6  7  2  1  0  0  0
  6  9  1  0  0  0  0
  6  5  1  0  0  0  0
  6  8  1  0  0  0  0
 10 11  2  1  0  0  0
 10 12  1  0  0  0  0
 10 13  1  0  0  0  0
 10  9  1  0  0  0  0
 13 14  1  0  0  0  0
 15 14  1  1  0  0  0
 15 16  1  0  0  0  0
 17 19  1  0  0  0  0
 17 15  1  0  0  0  0
 17 18  1  6  0  0  0
 19 21  1  0  0  0  0
 19 20  1  6  0  0  0
 21 16  1  0  0  0  0
 21 22  1  1  0  0  0
 22 32  1  0  0  0  0
 23 22  1  0  0  0  0
 23 24  2  0  0  0  0
 24 25  1  0  0  0  0
 25 26  1  0  0  0  0
 26 27  2  0  0  0  0
 26 28  1  0  0  0  0
 29 28  1  0  0  0  0
 29 30  1  0  0  0  0
 31 29  2  0  0  0  0
 32 25  2  0  0  0  0
 32 31  1  0  0  0  0
M  END
>  <CHROM.1>
77.06013791,42.78106980,-29.99455938,157.46817985,57.74749357,-157.32598756
61.75509464,55.36977511,-59.12199237,75.77372592,2.95945295,-0.71975631,-1.79975088
-2.15447279,-0.68818612,-2.86820880

>  <Name>
lig.pdb

>  <RI>
4.14043e+07

>  <Rbt.Current_Directory>
/home/itssahil/PROJECTS/Mol_Feturizer/New_Systems/rnas/5lwj

>  <Rbt.Executable>
rbdock ($Id: //depot/dev/client3/rdock/2013.1/src/exe/rbdock.cxx#4 $)

>  <Rbt.Library>
libRbt.so (2013.1, Build901 2013/11/27)

>  <Rbt.Parameter_File>
/export/apps/rDock/src/rDock_2013.1_src/data/scripts/dock_solv.prm

>  <Rbt.Receptor>
prm/blind_docking_80.prm

>  <SCORE>
-22.6557

>  <SCORE.INTER>
-25.5417

>  <SCORE.INTER.CONST>
1

>  <SCORE.INTER.POLAR>
-2.69483

>  <SCORE.INTER.ROT>
8

>  <SCORE.INTER.SOLV>
21.9308

>  <SCORE.INTER.VDW>
-24.2886

>  <SCORE.INTER.norm>
-0.798179

>  <SCORE.INTRA>
-0.3356

>  <SCORE.INTRA.DIHEDRAL>
-2.6294

>  <SCORE.INTRA.DIHEDRAL.0>
10.9248

>  <SCORE.INTRA.POLAR>
0

>  <SCORE.INTRA.POLAR.0>
0

>  <SCORE.INTRA.REPUL>
0.0231765

>  <SCORE.INTRA.REPUL.0>
0

>  <SCORE.INTRA.SOLV>
5.36848

>  <SCORE.INTRA.SOLV.lig_0>
-51.4104

>  <SCORE.INTRA.VDW>
-1.82102

>  <SCORE.INTRA.VDW.0>
0.110327

>  <SCORE.INTRA.norm>
-0.0104875

>  <SCORE.RESTR>
3.2216

>  <SCORE.RESTR.CAVITY>
3.2216

>  <SCORE.RESTR.norm>
0.100675

>  <SCORE.SYSTEM>
0

>  <SCORE.SYSTEM.CONST>
0

>  <SCORE.SYSTEM.DIHEDRAL>
0

>  <SCORE.SYSTEM.SOLV>
0

>  <SCORE.SYSTEM.norm>
0

>  <SCORE.heavy>
32

>  <SCORE.norm>
-0.707991

>  <RMSD>
18.623

$$$$
lig.pdb
 OpenBabel11021811523D
libRbt.so/2013.1/901 2013/11/27
 32 34  0  0  0  0  0  0  0  0999 V2000
   -0.2267   -2.4373    0.1007 P   0  0  0  0  0  0  0  0  0  0  0  0
   -1.5945   -1.9387   -0.2978 O   0  0  0  0  0  0  0  0  0  0  0  0
   -0.5081   -3.2065    1.5013 O   0  0  0  0  0  0  0  0  0  0  0  0
    0.4283   -3.4969   -0.7497 O   0  0  0  0  0  0  0  0  0  0  0  0
    0.6511   -1.2841    0.0530 O   0  0  0  0  0  0  0  0  0  0  0  0
    0.2961   -0.3470    1.1444 P   0  0  1  0  0  0  0  0  0  0  0  0
   -1.0228    0.2506    0.8291 O   0  0  0  0  0  0  0  0  0  0  0  0
    0.2007   -1.0773    2.4298 O   0  0  0  0  0  0  0  0  0  0  0  0
    1.3325    0.7112    1.2432 O   0  0  0  0  0  0  0  0  0  0  0  0
    1.2047    2.0192    0.5578 P   0  0  1  0  0  0  0  0  0  0  0  0
    1.1047    1.9407   -0.9138 O   0  0  0  0  0  0  0  0  0  0  0  0
    0.2698    2.9732    1.1948 O   0  0  0  0  0  0  0  0  0  0  0  0
    2.6677    2.6777    0.7699 O   0  0  0  0  0  0  0  0  0  0  0  0
    3.8048    1.9057    1.1069 C   0  0  0  0  0  0  0  0  0  0  0  0
    4.4491    1.2390   -0.1165 C   0  0  1  0  0  0  0  0  0  0  0  0
    4.4091   -0.1673    0.0136 O   0  0  0  0  0  0  0  0  0  0  0  0
    3.6617    1.4461   -1.4222 C   0  0  1  0  0  0  0  0  0  0  0  0
    3.8094    2.7197   -2.0277 O   0  0  0  0  0  0  0  0  0  0  0  0
    4.1532    0.3069   -2.3149 C   0  0  1  0  0  0  0  0  0  0  0  0
    5.2642    0.6891   -3.1066 O   0  0  0  0  0  0  0  0  0  0  0  0
    4.6187   -0.7125   -1.2769 C   0  0  2  0  0  0  0  0  0  0  0  0
    4.0179   -2.0582   -1.3958 N   0  0  0  0  0  0  0  0  0  0  0  0
    3.2567   -2.7767   -0.5088 C   0  0  0  0  0  0  0  0  0  0  0  0
    2.9730   -3.9888   -0.9099 N   0  0  0  0  0  0  0  0  0  0  0  0
    3.5662   -4.0784   -2.1656 C   0  0  0  0  0  0  0  0  0  0  0  0
    3.6411   -5.1702   -3.0888 C   0  0  0  0  0  0  0  0  0  0  0  0
    3.2114   -6.3122   -2.9392 O   0  0  0  0  0  0  0  0  0  0  0  0
    4.3094   -4.8338   -4.2738 N   0  0  0  0  0  0  0  0  0  0  0  0
    4.8131   -3.5699   -4.5419 C   0  0  0  0  0  0  0  0  0  0  0  0
    5.3360   -3.3452   -5.7526 N   0  0  0  0  0  0  0  0  0  0  0  0
    4.7831   -2.5630   -3.6537 N   0  0  0  0  0  0  0  0  0  0  0  0
    4.1559   -2.8790   -2.4878 C   0  0  0  0  0  0  0  0  0  0  0  0
  1  2  2  0  0  0  0
  1  4  1  0  0  0  0
  1  3  1  0  0  0  0
  5  1  1  0  0  0  0
  6  7  2  6  0  0  0
  6  9  1  0  0  0  0
  6  5  1  0  0  0  0
  6  8  1  0  0  0  0
 10 11  2  6  0  0  0
 10 12  1  0  0  0  0
 10 13  1  0  0  0  0
 10  9  1  0  0  0  0
 13 14  1  0  0  0  0
 15 14  1  1  0  0  0
 15 16  1  0  0  0  0
 17 19  1  0  0  0  0
 17 15  1  0  0  0  0
 17 18  1  6  0  0  0
 19 21  1  0  0  0  0
 19 20  1  6  0  0  0
 21 16  1  0  0  0  0
 21 22  1  1  0  0  0
 22 32  1  0  0  0  0
 23 22  1  0  0  0  0
 23 24  2  0  0  0  0
 24 25  1  0  0  0  0
 25 26  1  0  0  0  0
 26 27  2  0  0  0  0
 26 28  1  0  0  0  0
 29 28  1  0  0  0  0
 29 30  1  0  0  0  0
 31 29  2  0  0  0  0
 32 25  2  0  0  0  0
 32 31  1  0  0  0  0
M  END
>  <CHROM.1>
69.03602064,94.26643612,-69.40361075,18.96525696,-60.45136470,82.06117597
-118.17209916,67.05308828,66.34904462,4.41972492,2.31009455,-1.00927351,-0.82423777
2.18558162,0.63040988,0.33179423

>  <Name>
lig.pdb

>  <RI>
3.17878e+07

>  <Rbt.Current_Directory>
/home/itssahil/PROJECTS/Mol_Feturizer/New_Systems/rnas/5lwj

>  <Rbt.Executable>
rbdock ($Id: //depot/dev/client3/rdock/2013.1/src/exe/rbdock.cxx#4 $)

>  <Rbt.Library>
libRbt.so (2013.1, Build901 2013/11/27)

>  <Rbt.Parameter_File>
/export/apps/rDock/src/rDock_2013.1_src/data/scripts/dock_solv.prm

>  <Rbt.Receptor>
prm/blind_docking_100.prm

>  <SCORE>
-29.7088

>  <SCORE.INTER>
-31.9417

>  <SCORE.INTER.CONST>
1

>  <SCORE.INTER.POLAR>
-3.45087

>  <SCORE.INTER.ROT>
8

>  <SCORE.INTER.SOLV>
23.0971

>  <SCORE.INTER.VDW>
-26.4239

>  <SCORE.INTER.norm>
-0.998179

>  <SCORE.INTRA>
1.68367

>  <SCORE.INTRA.DIHEDRAL>
3.3602

>  <SCORE.INTRA.DIHEDRAL.0>
10.9248

>  <SCORE.INTRA.POLAR>
0

>  <SCORE.INTRA.POLAR.0>
0

>  <SCORE.INTRA.REPUL>
0

>  <SCORE.INTRA.REPUL.0>
0

>  <SCORE.INTRA.SOLV>
4.05841

>  <SCORE.INTRA.SOLV.lig_0>
-51.4104

>  <SCORE.INTRA.VDW>
-2.02563

>  <SCORE.INTRA.VDW.0>
0.110327

>  <SCORE.INTRA.norm>
0.0526148

>  <SCORE.RESTR>
0.549272

>  <SCORE.RESTR.CAVITY>
0.549272

>  <SCORE.RESTR.norm>
0.0171647

>  <SCORE.SYSTEM>
0

>  <SCORE.SYSTEM.CONST>
0

>  <SCORE.SYSTEM.DIHEDRAL>
0

>  <SCORE.SYSTEM.SOLV>
0

>  <SCORE.SYSTEM.norm>
0

>  <SCORE.heavy>
32

>  <SCORE.norm>
-0.928399

>  <RMSD>
18.790

$$$$
lig.pdb
 OpenBabel11021811523D
libRbt.so/2013.1/901 2013/11/27
 32 34  0  0  0  0  0  0  0  0999 V2000
    2.9852   -3.5336   -3.8768 P   0  0  0  0  0  0  0  0  0  0  0  0
    3.7879   -4.1714   -4.9844 O   0  0  0  0  0  0  0  0  0  0  0  0
    4.1140   -3.1532   -2.7751 O   0  0  0  0  0  0  0  0  0  0  0  0
    2.3083   -2.2132   -4.1477 O   0  0  0  0  0  0  0  0  0  0  0  0
    1.9255   -4.4705   -3.5575 O   0  0  0  0  0  0  0  0  0  0  0  0
    2.1614   -5.0440   -2.2117 P   0  0  1  0  0  0  0  0  0  0  0  0
    1.1852   -6.1384   -1.9987 O   0  0  0  0  0  0  0  0  0  0  0  0
    3.5331   -5.5973   -2.1289 O   0  0  0  0  0  0  0  0  0  0  0  0
    1.9833   -3.9859   -1.1859 O   0  0  0  0  0  0  0  0  0  0  0  0
    1.0350   -2.8598   -1.3580 P   0  0  1  0  0  0  0  0  0  0  0  0
    1.6664   -1.5565   -1.6488 O   0  0  0  0  0  0  0  0  0  0  0  0
   -0.1625   -3.1661   -2.1717 O   0  0  0  0  0  0  0  0  0  0  0  0
    0.4653   -2.6408    0.1407 O   0  0  0  0  0  0  0  0  0  0  0  0
   -0.2730   -1.4916    0.5107 C   0  0  0  0  0  0  0  0  0  0  0  0
    0.6242   -0.3470    1.0020 C   0  0  1  0  0  0  0  0  0  0  0  0
    1.9845   -0.6645    0.7898 O   0  0  0  0  0  0  0  0  0  0  0  0
    0.4826    0.9477    0.1825 C   0  0  1  0  0  0  0  0  0  0  0  0
   -0.6721    1.7219    0.4604 O   0  0  0  0  0  0  0  0  0  0  0  0
    1.7816    1.6966    0.4790 C   0  0  1  0  0  0  0  0  0  0  0  0
    1.6548    2.5688    1.5882 O   0  0  0  0  0  0  0  0  0  0  0  0
    2.7129    0.5481    0.8627 C   0  0  2  0  0  0  0  0  0  0  0  0
    3.9709    0.4667    0.0901 N   0  0  0  0  0  0  0  0  0  0  0  0
    5.1251   -0.2328    0.3364 C   0  0  0  0  0  0  0  0  0  0  0  0
    6.0861    0.0068   -0.5179 N   0  0  0  0  0  0  0  0  0  0  0  0
    5.5258    0.9125   -1.4137 C   0  0  0  0  0  0  0  0  0  0  0  0
    6.0927    1.5798   -2.5465 C   0  0  0  0  0  0  0  0  0  0  0  0
    7.2504    1.5159   -2.9551 O   0  0  0  0  0  0  0  0  0  0  0  0
    5.1700    2.3980   -3.2121 N   0  0  0  0  0  0  0  0  0  0  0  0
    3.8403    2.5218   -2.8383 C   0  0  0  0  0  0  0  0  0  0  0  0
    3.0333    3.2508   -3.6174 N   0  0  0  0  0  0  0  0  0  0  0  0
    3.3256    1.9320   -1.7470 N   0  0  0  0  0  0  0  0  0  0  0  0
    4.2145    1.1497   -1.0758 C   0  0  0  0  0  0  0  0  0  0  0  0
  1  2  2  0  0  0  0
  1  4  1  0  0  0  0
  1  3  1  0  0  0  0
  5  1  1  0  0  0  0
  6  7  2  1  0  0  0
  6  9  1  0  0  0  0
  6  5  1  0  0  0  0
  6  8  1  0  0  0  0
 10 11  2  6  0  0  0
 10 12  1  0  0  0  0
 10 13  1  0  0  0  0
 10  9  1  0  0  0  0
 13 14  1  0  0  0  0
 15 14  1  6  0  0  0
 15 16  1  0  0  0  0
 17 19  1  0  0  0  0
 17 15  1  0  0  0  0
 17 18  1  1  0  0  0
 19 21  1  0  0  0  0
 19 20  1  1  0  0  0
 21 16  1  0  0  0  0
 21 22  1  6  0  0  0
 22 32  1  0  0  0  0
 23 22  1  0  0  0  0
 23 24  2  0  0  0  0
 24 25  1  0  0  0  0
 25 26  1  0  0  0  0
 26 27  2  0  0  0  0
 26 28  1  0  0  0  0
 29 28  1  0  0  0  0
 29 30  1  0  0  0  0
 31 29  2  0  0  0  0
 32 25  2  0  0  0  0
 32 31  1  0  0  0  0
M  END
>  <CHROM.1>
111.08148751,31.15022478,-171.64120560,166.91734583,-106.38609159,-88.94701033
7.99399302,-65.59097151,65.13399856,-70.96713119,2.64548289,-1.25632486,-1.55914082
-1.86790494,0.62432093,0.42479207

>  <Name>
lig.pdb

>  <RI>
4.14043e+07

>  <Rbt.Current_Directory>
/home/itssahil/PROJECTS/Mol_Feturizer/New_Systems/rnas/5lwj

>  <Rbt.Executable>
rbdock ($Id: //depot/dev/client3/rdock/2013.1/src/exe/rbdock.cxx#4 $)

>  <Rbt.Library>
libRbt.so (2013.1, Build901 2013/11/27)

>  <Rbt.Parameter_File>
/export/apps/rDock/src/rDock_2013.1_src/data/scripts/dock_solv.prm

>  <Rbt.Receptor>
prm/blind_docking_80.prm

>  <SCORE>
-35.2498

>  <SCORE.INTER>
-38.7274

>  <SCORE.INTER.CONST>
1

>  <SCORE.INTER.POLAR>
-3.44124

>  <SCORE.INTER.ROT>
8

>  <SCORE.INTER.SOLV>
21.9484

>  <SCORE.INTER.VDW>
-30.5969

>  <SCORE.INTER.norm>
-1.21023

>  <SCORE.INTRA>
1.29614

>  <SCORE.INTRA.DIHEDRAL>
5.7002

>  <SCORE.INTRA.DIHEDRAL.0>
10.9248

>  <SCORE.INTRA.POLAR>
0

>  <SCORE.INTRA.POLAR.0>
0

>  <SCORE.INTRA.REPUL>
0

>  <SCORE.INTRA.REPUL.0>
0

>  <SCORE.INTRA.SOLV>
3.57174

>  <SCORE.INTRA.SOLV.lig_0>
-51.4104

>  <SCORE.INTRA.VDW>
-3.33983

>  <SCORE.INTRA.VDW.0>
0.110327

>  <SCORE.INTRA.norm>
0.0405043

>  <SCORE.RESTR>
2.18139

>  <SCORE.RESTR.CAVITY>
2.18139

>  <SCORE.RESTR.norm>
0.0681684

>  <SCORE.SYSTEM>
0

>  <SCORE.SYSTEM.CONST>
0

>  <SCORE.SYSTEM.DIHEDRAL>
0

>  <SCORE.SYSTEM.SOLV>
0

>  <SCORE.SYSTEM.norm>
0

>  <SCORE.heavy>
32

>  <SCORE.norm>
-1.10156

>  <RMSD>
19.053

$$$$
lig.pdb
 OpenBabel11021811523D
libRbt.so/2013.1/901 2013/11/27
 32 34  0  0  0  0  0  0  0  0999 V2000
    4.1198    1.4958    0.3678 P   0  0  0  0  0  0  0  0  0  0  0  0
    4.2181    2.3556   -0.8688 O   0  0  0  0  0  0  0  0  0  0  0  0
    5.6555    1.0375    0.6214 O   0  0  0  0  0  0  0  0  0  0  0  0
    3.7354    2.1513    1.6707 O   0  0  0  0  0  0  0  0  0  0  0  0
    3.0898    0.5128    0.0931 O   0  0  0  0  0  0  0  0  0  0  0  0
    1.7595    1.1635    0.1421 P   0  0  1  0  0  0  0  0  0  0  0  0
    1.3945    1.3611    1.5647 O   0  0  0  0  0  0  0  0  0  0  0  0
    1.8143    2.4824   -0.5302 O   0  0  0  0  0  0  0  0  0  0  0  0
    0.7607    0.2967   -0.5321 O   0  0  0  0  0  0  0  0  0  0  0  0
    0.3355   -1.0105    0.0225 P   0  0  1  0  0  0  0  0  0  0  0  0
    1.1168   -1.4733    1.1874 O   0  0  0  0  0  0  0  0  0  0  0  0
   -1.1279   -1.1960    0.1415 O   0  0  0  0  0  0  0  0  0  0  0  0
    0.7866   -2.0514   -1.1315 O   0  0  0  0  0  0  0  0  0  0  0  0
    0.1513   -3.3027   -1.3143 C   0  0  0  0  0  0  0  0  0  0  0  0
    1.1107   -4.3807   -1.8374 C   0  0  1  0  0  0  0  0  0  0  0  0
    1.5729   -4.0411   -3.1287 O   0  0  0  0  0  0  0  0  0  0  0  0
    2.4325   -4.4674   -1.0544 C   0  0  1  0  0  0  0  0  0  0  0  0
    2.3573   -5.1293    0.1972 O   0  0  0  0  0  0  0  0  0  0  0  0
    3.3780   -5.1618   -2.0342 C   0  0  1  0  0  0  0  0  0  0  0  0
    3.3721   -6.5697   -1.8762 O   0  0  0  0  0  0  0  0  0  0  0  0
    2.7324   -4.8165   -3.3749 C   0  0  2  0  0  0  0  0  0  0  0  0
    3.6212   -4.1578   -4.3557 N   0  0  0  0  0  0  0  0  0  0  0  0
    3.9492   -4.5111   -5.6402 C   0  0  0  0  0  0  0  0  0  0  0  0
    4.8526   -3.7418   -6.1903 N   0  0  0  0  0  0  0  0  0  0  0  0
    5.1303   -2.7915   -5.2123 C   0  0  0  0  0  0  0  0  0  0  0  0
    6.0640   -1.7061   -5.2013 C   0  0  0  0  0  0  0  0  0  0  0  0
    6.8728   -1.4011   -6.0754 O   0  0  0  0  0  0  0  0  0  0  0  0
    6.0080   -0.9543   -4.0199 N   0  0  0  0  0  0  0  0  0  0  0  0
    5.1196   -1.2091   -2.9861 C   0  0  0  0  0  0  0  0  0  0  0  0
    5.0910   -0.3552   -1.9566 N   0  0  0  0  0  0  0  0  0  0  0  0
    4.2795   -2.2569   -2.9803 N   0  0  0  0  0  0  0  0  0  0  0  0
    4.3358   -3.0110   -4.1120 C   0  0  0  0  0  0  0  0  0  0  0  0
  1  2  2  0  0  0  0
  1  4  1  0  0  0  0
  1  3  1  0  0  0  0
  5  1  1  0  0  0  0
  6  7  2  1  0  0  0
  6  9  1  0  0  0  0
  6  5  1  0  0  0  0
  6  8  1  0  0  0  0
 10 11  2  1  0  0  0
 10 12  1  0  0  0  0
 10 13  1  0  0  0  0
 10  9  1  0  0  0  0
 13 14  1  0  0  0  0
 15 14  1  1  0  0  0
 15 16  1  0  0  0  0
 17 19  1  0  0  0  0
 17 15  1  0  0  0  0
 17 18  1  1  0  0  0
 19 21  1  0  0  0  0
 19 20  1  1  0  0  0
 21 16  1  0  0  0  0
 21 22  1  6  0  0  0
 22 32  1  0  0  0  0
 23 22  1  0  0  0  0
 23 24  2  0  0  0  0
 24 25  1  0  0  0  0
 25 26  1  0  0  0  0
 26 27  2  0  0  0  0
 26 28  1  0  0  0  0
 29 28  1  0  0  0  0
 29 30  1  0  0  0  0
 31 29  2  0  0  0  0
 32 25  2  0  0  0  0
 32 31  1  0  0  0  0
M  END
>  <CHROM.1>
-73.50985492,68.11079025,-77.01486431,-154.28724047,-8.35553509,-148.27781574
-64.35582307,61.10196378,65.12572176,-111.81957029,2.97651771,-1.47221758
-1.56956445,-1.93400205,-0.66263693,-2.61194246

>  <Name>
lig.pdb

>  <RI>
4.14043e+07

>  <Rbt.Current_Directory>
/home/itssahil/PROJECTS/Mol_Feturizer/New_Systems/rnas/5lwj

>  <Rbt.Executable>
rbdock ($Id: //depot/dev/client3/rdock/2013.1/src/exe/rbdock.cxx#4 $)

>  <Rbt.Library>
libRbt.so (2013.1, Build901 2013/11/27)

>  <Rbt.Parameter_File>
/export/apps/rDock/src/rDock_2013.1_src/data/scripts/dock_solv.prm

>  <Rbt.Receptor>
prm/blind_docking_80.prm

>  <SCORE>
-22.8665

>  <SCORE.INTER>
-25.7531

>  <SCORE.INTER.CONST>
1

>  <SCORE.INTER.POLAR>
-2.56993

>  <SCORE.INTER.ROT>
8

>  <SCORE.INTER.SOLV>
16.4977

>  <SCORE.INTER.VDW>
-23.0349

>  <SCORE.INTER.norm>
-0.804786

>  <SCORE.INTRA>
0.601999

>  <SCORE.INTRA.DIHEDRAL>
-0.0465196

>  <SCORE.INTRA.DIHEDRAL.0>
10.9248

>  <SCORE.INTRA.POLAR>
-0.888064

>  <SCORE.INTRA.POLAR.0>
0

>  <SCORE.INTRA.REPUL>
0.607157

>  <SCORE.INTRA.REPUL.0>
0

>  <SCORE.INTRA.SOLV>
3.34939

>  <SCORE.INTRA.SOLV.lig_0>
-51.4104

>  <SCORE.INTRA.VDW>
-1.0658

>  <SCORE.INTRA.VDW.0>
0.110327

>  <SCORE.INTRA.norm>
0.0188125

>  <SCORE.RESTR>
2.28468

>  <SCORE.RESTR.CAVITY>
2.28468

>  <SCORE.RESTR.norm>
0.0713964

>  <SCORE.SYSTEM>
0

>  <SCORE.SYSTEM.CONST>
0

>  <SCORE.SYSTEM.DIHEDRAL>
0

>  <SCORE.SYSTEM.SOLV>
0

>  <SCORE.SYSTEM.norm>
0

>  <SCORE.heavy>
32

>  <SCORE.norm>
-0.714577

>  <RMSD>
19.365

$$$$
lig.pdb
 OpenBabel11021811523D
libRbt.so/2013.1/901 2013/11/27
 32 34  0  0  0  0  0  0  0  0999 V2000
    0.4355   -3.5452   -0.7605 P   0  0  0  0  0  0  0  0  0  0  0  0
    0.5857   -3.9048   -2.2186 O   0  0  0  0  0  0  0  0  0  0  0  0
   -0.7941   -4.4850   -0.2734 O   0  0  0  0  0  0  0  0  0  0  0  0
    1.5483   -3.9127    0.1891 O   0  0  0  0  0  0  0  0  0  0  0  0
    0.3267   -2.1000   -0.7121 O   0  0  0  0  0  0  0  0  0  0  0  0
   -0.4008   -1.6997    0.5151 P   0  0  1  0  0  0  0  0  0  0  0  0
   -1.7666   -2.2711    0.4492 O   0  0  0  0  0  0  0  0  0  0  0  0
    0.2894   -2.2347    1.7118 O   0  0  0  0  0  0  0  0  0  0  0  0
   -0.4634   -0.2185    0.5911 O   0  0  0  0  0  0  0  0  0  0  0  0
    0.7387    0.6203    0.8103 P   0  0  1  0  0  0  0  0  0  0  0  0
    0.6834    1.9581    0.1865 O   0  0  0  0  0  0  0  0  0  0  0  0
    1.2766    0.5986    2.1889 O   0  0  0  0  0  0  0  0  0  0  0  0
    1.8640   -0.1292   -0.0789 O   0  0  0  0  0  0  0  0  0  0  0  0
    3.2458   -0.0370    0.2123 C   0  0  0  0  0  0  0  0  0  0  0  0
    4.1265   -0.5351   -0.9421 C   0  0  1  0  0  0  0  0  0  0  0  0
    4.0057   -1.9359   -1.0819 O   0  0  0  0  0  0  0  0  0  0  0  0
    3.6655   -0.0504   -2.3278 C   0  0  1  0  0  0  0  0  0  0  0  0
    3.9943    1.2919   -2.6446 O   0  0  0  0  0  0  0  0  0  0  0  0
    4.3046   -1.0569   -3.2842 C   0  0  1  0  0  0  0  0  0  0  0  0
    5.5801   -0.6332   -3.7322 O   0  0  0  0  0  0  0  0  0  0  0  0
    4.4833   -2.2698   -2.3730 C   0  0  2  0  0  0  0  0  0  0  0  0
    3.8758   -3.5257   -2.8625 N   0  0  0  0  0  0  0  0  0  0  0  0
    3.0668   -3.7623   -3.9451 C   0  0  0  0  0  0  0  0  0  0  0  0
    2.6281   -4.9920   -4.0238 N   0  0  0  0  0  0  0  0  0  0  0  0
    3.2051   -5.6289   -2.9293 C   0  0  0  0  0  0  0  0  0  0  0  0
    3.0727   -6.9723   -2.4521 C   0  0  0  0  0  0  0  0  0  0  0  0
    2.3625   -7.8658   -2.9088 O   0  0  0  0  0  0  0  0  0  0  0  0
    3.8590   -7.2260   -1.3202 N   0  0  0  0  0  0  0  0  0  0  0  0
    4.7037   -6.2897   -0.7435 C   0  0  0  0  0  0  0  0  0  0  0  0
    5.4827   -6.6851    0.2697 N   0  0  0  0  0  0  0  0  0  0  0  0
    4.7880   -5.0174   -1.1652 N   0  0  0  0  0  0  0  0  0  0  0  0
    4.0139   -4.7476   -2.2517 C   0  0  0  0  0  0  0  0  0  0  0  0
  1  2  2  0  0  0  0
  1  4  1  0  0  0  0
  1  3  1  0  0  0  0
  5  1  1  0  0  0  0
  6  7  2  6  0  0  0
  6  9  1  0  0  0  0
  6  5  1  0  0  0  0
  6  8  1  0  0  0  0
 10 11  2  6  0  0  0
 10 12  1  0  0  0  0
 10 13  1  0  0  0  0
 10  9  1  0  0  0  0
 13 14  1  0  0  0  0
 15 14  1  1  0  0  0
 15 16  1  0  0  0  0
 17 19  1  0  0  0  0
 17 15  1  0  0  0  0
 17 18  1  6  0  0  0
 19 21  1  0  0  0  0
 19 20  1  1  0  0  0
 21 16  1  0  0  0  0
 21 22  1  6  0  0  0
 22 32  1  0  0  0  0
 23 22  1  0  0  0  0
 23 24  2  0  0  0  0
 24 25  1  0  0  0  0
 25 26  1  0  0  0  0
 26 27  2  0  0  0  0
 26 28  1  0  0  0  0
 29 28  1  0  0  0  0
 29 30  1  0  0  0  0
 31 29  2  0  0  0  0
 32 25  2  0  0  0  0
 32 31  1  0  0  0  0
M  END
>  <CHROM.1>
154.99488255,-67.68752778,-62.00082968,-154.13483226,149.29472112,-166.06190330
-69.60156547,-55.44163271,-67.56493895,117.30778942,2.17835593,-2.59165009
-0.99099753,2.08855165,0.56280097,0.12042586

>  <Name>
lig.pdb

>  <RI>
4.14043e+07

>  <Rbt.Current_Directory>
/home/itssahil/PROJECTS/Mol_Feturizer/New_Systems/rnas/5lwj

>  <Rbt.Executable>
rbdock ($Id: //depot/dev/client3/rdock/2013.1/src/exe/rbdock.cxx#4 $)

>  <Rbt.Library>
libRbt.so (2013.1, Build901 2013/11/27)

>  <Rbt.Parameter_File>
/export/apps/rDock/src/rDock_2013.1_src/data/scripts/dock_solv.prm

>  <Rbt.Receptor>
prm/blind_docking_80.prm

>  <SCORE>
-23.3199

>  <SCORE.INTER>
-23.3621

>  <SCORE.INTER.CONST>
1

>  <SCORE.INTER.POLAR>
-3.58666

>  <SCORE.INTER.ROT>
8

>  <SCORE.INTER.SOLV>
20.4867

>  <SCORE.INTER.VDW>
-19.3814

>  <SCORE.INTER.norm>
-0.730065

>  <SCORE.INTRA>
-6.13788

>  <SCORE.INTRA.DIHEDRAL>
-4.09735

>  <SCORE.INTRA.DIHEDRAL.0>
10.9248

>  <SCORE.INTRA.POLAR>
0

>  <SCORE.INTRA.POLAR.0>
0

>  <SCORE.INTRA.REPUL>
0.0256987

>  <SCORE.INTRA.REPUL.0>
0

>  <SCORE.INTRA.SOLV>
1.48157

>  <SCORE.INTRA.SOLV.lig_0>
-51.4104

>  <SCORE.INTRA.VDW>
-4.95849

>  <SCORE.INTRA.VDW.0>
0.110327

>  <SCORE.INTRA.norm>
-0.191809

>  <SCORE.RESTR>
6.18011

>  <SCORE.RESTR.CAVITY>
6.18011

>  <SCORE.RESTR.norm>
0.193128

>  <SCORE.SYSTEM>
0

>  <SCORE.SYSTEM.CONST>
0

>  <SCORE.SYSTEM.DIHEDRAL>
0

>  <SCORE.SYSTEM.SOLV>
0

>  <SCORE.SYSTEM.norm>
0

>  <SCORE.heavy>
32

>  <SCORE.norm>
-0.728746

>  <RMSD>
20.131

$$$$
