@<TRIPOS>MOLECULE
5lwj_rdock.pdb
 1068 1152 0 0 0
SMALL
GASTEIGER

@<TRIPOS>ATOM
      1  O5'      -14.7660  -16.6100    1.9580 O.3     1  G1         -0.2320
      2  C5'      -13.6270  -16.1860    1.2390 C.3     1  G1          0.1116
      3  C4'      -12.4270  -16.9870    1.7260 C.3     1  G1          0.1165
      4  O4'      -12.4240  -18.2970    1.1860 O.3     1  G1         -0.3455
      5  C3'      -11.1070  -16.3680    1.2880 C.3     1  G1          0.1242
      6  O3'      -10.7960  -15.2530    2.1050 O.3     1  G1         -0.3187
      7  C2'      -10.1910  -17.5620    1.5360 C.3     1  G1          0.1292
      8  O2'       -9.8240  -17.6070    2.9000 O.3     1  G1         -0.3846
      9  C1'      -11.0740  -18.7540    1.1750 C.3     1  G1          0.1667
     10   N9      -10.6480  -19.2790   -0.1400 N.ar    1  G1         -0.2854
     11   C8      -11.2260  -19.1450   -1.3750 C.ar    1  G1          0.1005
     12   N7      -10.5860  -19.7560   -2.3420 N.ar    1  G1         -0.2286
     13   C5       -9.4780  -20.3060   -1.7030 C.ar    1  G1          0.1721
     14   C6       -8.3780  -21.0550   -2.2340 C.ar    1  G1          0.2803
     15   O6       -8.1750  -21.4180   -3.3990 O.2     1  G1         -0.2654
     16   N.1      -7.4490  -21.3820   -1.2540 N.ar    1  G1         -0.2934
     17   C.2      -7.5730  -21.0600    0.0820 C.ar    1  G1          0.1950
     18   N.2      -6.6440  -21.4840    0.9260 N.pl3   1  G1         -0.3289
     19   N.3      -8.5980  -20.3690    0.5930 N.ar    1  G1         -0.1963
     20   C4       -9.5130  -20.0160   -0.3550 C.ar    1  G1          0.1712
     21  H5'      -13.4560  -15.1300    1.4470 H       1  G1          0.0618
     22 H5''      -13.7680  -16.3150    0.1640 H       1  G1          0.0618
     23  H4'      -12.4280  -17.0400    2.8180 H       1  G1          0.0648
     24  H3'      -11.1280  -16.0970    0.2250 H       1  G1          0.0655
     25  H2'       -9.3160  -17.5080    0.8970 H       1  G1          0.0666
     26 HO2'       -9.4210  -16.7380    3.0770 H       1  G1          0.2101
     27  H1'      -10.9280  -19.5420    1.9060 H       1  G1          0.0866
     28   H8      -12.1310  -18.5680   -1.5040 H       1  G1          0.1030
     29   H1       -6.6420  -21.8750   -1.6080 H       1  G1          0.1716
     30  H21       -5.9210  -22.1330    0.6220 H       1  G1          0.1451
     31  H22       -6.6540  -21.1700    1.8850 H       1  G1          0.1451
     32    P.3     -9.5340  -14.3220    1.8230 P.3     2  G2          0.2131
     33  OP1       -9.8320  -13.0450    2.4910 O.3     2  G2         -0.4373
     34  OP2       -9.2330  -14.3590    0.3790 O.2     2  G2         -0.5172
     35  O5'       -8.3890  -15.1090    2.6130 O.3     2  G2         -0.3248
     36  C5'       -8.2290  -14.9750    4.0150 C.3     2  G2          0.0837
     37  C4'       -7.0880  -15.8650    4.5160 C.3     2  G2          0.1139
     38  O4'       -7.0920  -17.1190    3.8470 O.3     2  G2         -0.3456
     39  C3'       -5.7140  -15.2460    4.3130 C.3     2  G2          0.1241
     40  O3'       -5.1850  -14.7880    5.5590 O.3     2  G2         -0.3187
     41  C2'       -4.8380  -16.3830    3.8180 C.3     2  G2          0.1292
     42  O2'       -4.1790  -16.9610    4.9290 O.3     2  G2         -0.3846
     43  C1'       -5.8210  -17.4030    3.2720 C.3     2  G2          0.1667
     44   N9       -5.7840  -17.5150    1.7930 N.ar    2  G2         -0.2854
     45   C8       -6.6720  -17.1470    0.8050 C.ar    2  G2          0.1005
     46   N7       -6.3730  -17.6150   -0.3810 N.ar    2  G2         -0.2286
     47   C5       -5.1510  -18.2480   -0.1900 C.ar    2  G2          0.1721
     48   C6       -4.3090  -18.9490   -1.1130 C.ar    2  G2          0.2803
     49   O6       -4.5350  -19.2150   -2.2960 O.2     2  G2         -0.2654
     50   N.1      -3.1180  -19.3770   -0.5390 N.ar    2  G2         -0.2934
     51   C.2      -2.8060  -19.2200    0.7950 C.ar    2  G2          0.1950
     52   N.2      -1.6490  -19.6690    1.2690 N.pl3   2  G2         -0.3289
     53   N.3      -3.6290  -18.6550    1.6910 N.ar    2  G2         -0.1963
     54   C4       -4.7670  -18.1530    1.1280 C.ar    2  G2          0.1712
     55  H5'       -9.1530  -15.2680    4.5090 H       2  G2          0.0591
     56 H5''       -8.0130  -13.9330    4.2590 H       2  G2          0.0591
     57  H4'       -7.2160  -16.0270    5.5870 H       2  G2          0.0647
     58  H3'       -5.7710  -14.4560    3.5690 H       2  G2          0.0655
     59  H2'       -4.1140  -16.0370    3.0840 H       2  G2          0.0666
     60 HO2'       -4.0930  -16.1960    5.5250 H       2  G2          0.2101
     61  H1'       -5.4740  -18.3680    3.6220 H       2  G2          0.0866
     62   H8       -7.5660  -16.5650    0.9760 H       2  G2          0.1030
     63   H1       -2.4950  -19.8340   -1.1890 H       2  G2          0.1716
     64  H21       -0.9340  -20.0910    0.6870 H       2  G2          0.1451
     65  H22       -1.4970  -19.5930    2.2670 H       2  G2          0.1451
     66    P.3     -4.1490  -13.5800    5.6220 P.3     3  C.3         0.2131
     67  OP1       -3.6930  -13.5260    7.0230 O.3     3  C.3        -0.4373
     68  OP2       -4.7950  -12.3960    5.0360 O.2     3  C.3        -0.5172
     69  O5'       -2.9250  -14.0450    4.7060 O.3     3  C.3        -0.3248
     70  C5'       -1.8400  -14.7470    5.2800 C.3     3  C.3         0.0837
     71  C4'       -0.8540  -15.3240    4.2680 C.3     3  C.3         0.1139
     72  O4'       -1.4880  -16.1140    3.2780 O.3     3  C.3        -0.3456
     73  C3'       -0.0270  -14.2970    3.5240 C.3     3  C.3         0.1241
     74  O3'        1.0930  -13.9570    4.3100 O.3     3  C.3        -0.3187
     75  C2'        0.4330  -15.1200    2.3320 C.3     3  C.3         0.1293
     76  O2'        1.5660  -15.8920    2.7000 O.3     3  C.3        -0.3846
     77  C1'       -0.7420  -16.0670    2.0710 C.3     3  C.3         0.1680
     78   N.1      -1.5830  -15.7430    0.8860 N.ar    3  C.3        -0.2700
     79   C.2      -1.2300  -16.3130   -0.3410 C.ar    3  C.3         0.3522
     80   O.2      -0.1760  -16.9460   -0.4790 O.2     3  C.3        -0.2444
     81   N.3      -2.0700  -16.2330   -1.4150 N.ar    3  C.3        -0.1783
     82   C4       -3.2270  -15.5700   -1.2940 C.ar    3  C.3         0.1230
     83   N.4      -4.0360  -15.5500   -2.3450 N.pl3   3  C.3        -0.3430
     84   C5       -3.6000  -14.9240   -0.0740 C.ar    3  C.3        -0.0056
     85   C6       -2.7490  -15.0250    0.9840 C.ar    3  C.3         0.0152
     86  H5'       -2.2350  -15.5650    5.8740 H       3  C.3         0.0591
     87 H5''       -1.3010  -14.0860    5.9590 H       3  C.3         0.0591
     88  H4'       -0.1620  -15.9600    4.8330 H       3  C.3         0.0647
     89  H3'       -0.6340  -13.4400    3.2280 H       3  C.3         0.0655
     90  H2'        0.7280  -14.4620    1.5060 H       3  C.3         0.0666
     91 HO2'        2.2050  -15.2110    2.9770 H       3  C.3         0.2101
     92  H1'       -0.3370  -17.0510    1.8670 H       3  C.3         0.0867
     93  H41       -3.7870  -15.9780   -3.2330 H       3  C.3         0.1437
     94  H42       -4.9280  -15.0830   -2.2720 H       3  C.3         0.1437
     95   H5       -4.5050  -14.3530    0.0840 H       3  C.3         0.0666
     96   H6       -3.0020  -14.5380    1.9160 H       3  C.3         0.0812
     97    P.3      2.0400  -12.7440    3.9470 P.3     4  A4          0.2131
     98  OP1        3.1230  -12.8400    4.9400 O.3     4  A4         -0.4373
     99  OP2        1.2490  -11.5070    3.8530 O.2     4  A4         -0.5172
    100  O5'        2.6160  -13.1430    2.5040 O.3     4  A4         -0.3248
    101  C5'        3.9830  -13.4580    2.3480 C.3     4  A4          0.0837
    102  C4'        4.4350  -13.6450    0.9000 C.3     4  A4          0.1139
    103  O4'        3.6370  -14.5910    0.2020 O.3     4  A4         -0.3456
    104  C3'        4.4680  -12.3810    0.0500 C.3     4  A4          0.1241
    105  O3'        5.6670  -11.6510    0.2470 O.3     4  A4         -0.3187
    106  C2'        4.4580  -12.9820   -1.3450 C.3     4  A4          0.1292
    107  O2'        5.7540  -13.4440   -1.7180 O.3     4  A4         -0.3846
    108  C1'        3.5620  -14.1980   -1.1690 C.3     4  A4          0.1667
    109   N9        2.1730  -13.9290   -1.5950 N.ar    4  A4         -0.2855
    110   C8        1.1340  -13.3970   -0.8770 C.ar    4  A4          0.1004
    111   N7        0.0110  -13.3570   -1.5270 N.ar    4  A4         -0.2306
    112   C5        0.3380  -13.8290   -2.7910 C.ar    4  A4          0.1473
    113   C6       -0.4000  -14.0210   -3.9710 C.ar    4  A4          0.1472
    114   N6       -1.7090  -13.7550   -4.0390 N.pl3   4  A4         -0.3413
    115   N.1       0.2230  -14.4790   -5.0830 N.ar    4  A4         -0.2188
    116   C.2       1.5240  -14.7680   -4.9940 C.ar    4  A4          0.1205
    117   N.3       2.3210  -14.6750   -3.9270 N.ar    4  A4         -0.2159
    118   C4        1.6590  -14.1690   -2.8420 C.ar    4  A4          0.1674
    119  H5'        4.2200  -14.3410    2.9450 H       4  A4          0.0591
    120 H5''        4.5110  -12.6100    2.7550 H       4  A4          0.0591
    121  H4'        5.4660  -14.0080    0.9340 H       4  A4          0.0647
    122  H3'        3.5790  -11.7810    0.2320 H       4  A4          0.0655
    123  H2'        4.0740  -12.2890   -2.0950 H       4  A4          0.0666
    124 HO2'        6.2770  -12.6420   -1.8590 H       4  A4          0.2101
    125  H1'        3.9410  -14.9710   -1.8340 H       4  A4          0.0866
    126   H8        1.2520  -13.0510    0.1410 H       4  A4          0.1030
    127  H61       -2.2680  -13.9000   -4.8780 H       4  A4          0.1438
    128  H62       -2.1340  -13.3490   -3.2120 H       4  A4          0.1438
    129   H2        1.9870  -15.1170   -5.9050 H       4  A4          0.1048
    130    P.3      5.8370  -10.1320   -0.1890 P.3     5  G5          0.2131
    131  OP1        7.2100   -9.7410    0.2150 O.2     5  G5         -0.5172
    132  OP2        4.6690   -9.3550    0.2760 O.3     5  G5         -0.4373
    133  O5'        5.7840  -10.1590   -1.7900 O.3     5  G5         -0.3248
    134  C5'        6.9670  -10.2430   -2.5620 C.3     5  G5          0.0837
    135  C4'        6.6350  -10.2630   -4.0530 C.3     5  G5          0.1139
    136  O4'        5.6320  -11.2210   -4.3360 O.3     5  G5         -0.3456
    137  C3'        6.0890   -8.9370   -4.5800 C.3     5  G5          0.1241
    138  O3'        7.1680   -8.0710   -4.9090 O.3     5  G5         -0.3187
    139  C2'        5.3700   -9.4080   -5.8350 C.3     5  G5          0.1292
    140  O2'        6.3910   -9.5130   -6.8110 O.3     5  G5         -0.3846
    141  C1'        4.8260  -10.7750   -5.4250 C.3     5  G5          0.1667
    142   N9        3.4030  -10.7270   -5.0000 N.ar    5  G5         -0.2854
    143   C8        2.8720  -10.5360   -3.7430 C.ar    5  G5          0.1005
    144   N7        1.5700  -10.6110   -3.7040 N.ar    5  G5         -0.2286
    145   C5        1.1960  -10.7950   -5.0330 C.ar    5  G5          0.1721
    146   C6       -0.0990  -10.8900   -5.6410 C.ar    5  G5          0.2803
    147   O6       -1.2170  -10.8590   -5.1140 O.2     5  G5         -0.2654
    148   N.1      -0.0380  -11.0380   -7.0250 N.ar    5  G5         -0.2934
    149   C.2       1.1390  -11.1450   -7.7320 C.ar    5  G5          0.1950
    150   N.2       1.0800  -11.3430   -9.0420 N.pl3   5  G5         -0.3289
    151   N.3       2.3550  -11.0970   -7.1770 N.ar    5  G5         -0.1963
    152   C4        2.3180  -10.8870   -5.8250 C.ar    5  G5          0.1712
    153  H5'        7.5170  -11.1380   -2.2870 H       5  G5          0.0591
    154 H5''        7.6010   -9.3810   -2.3670 H       5  G5          0.0591
    155  H4'        7.5360  -10.5190   -4.6160 H       5  G5          0.0647
    156  H3'        5.3900   -8.5000   -3.8690 H       5  G5          0.0655
    157  H2'        4.5760   -8.7300   -6.1420 H       5  G5          0.0666
    158 HO2'        7.0270   -8.8480   -6.4860 H       5  G5          0.2101
    159  H1'        4.8890  -11.4740   -6.2540 H       5  G5          0.0866
    160   H8        3.4960  -10.3610   -2.8760 H       5  G5          0.1030
    161   H1       -0.9360  -11.0640   -7.4960 H       5  G5          0.1716
    162  H21        0.1810  -11.3640   -9.5100 H       5  G5          0.1451
    163  H22        1.9330  -11.4690   -9.5550 H       5  G5          0.1451
    164    P.3      7.0150   -6.4780   -4.8990 P.3     6  C6          0.2131
    165  OP1        8.3730   -5.9470   -5.1410 O.2     6  C6         -0.5172
    166  OP2        6.2960   -6.0820   -3.6740 O.3     6  C6         -0.4373
    167  O5'        6.0990   -6.1810   -6.1630 O.3     6  C6         -0.3248
    168  C5'        6.6650   -6.1080   -7.4570 C.3     6  C6          0.0837
    169  C4'        5.6000   -6.1220   -8.5550 C.3     6  C6          0.1139
    170  O4'        4.6420   -7.1220   -8.2820 O.3     6  C6         -0.3456
    171  C3'        4.8580   -4.8090   -8.7620 C.3     6  C6          0.1241
    172  O3'        5.2790   -4.2240  -10.0030 O.3     6  C6         -0.3187
    173  C2'        3.3800   -5.1920   -8.8560 C.3     6  C6          0.1293
    174  O2'        2.9260   -4.9330  -10.1640 O.3     6  C6         -0.3846
    175  C1'        3.3350   -6.6980   -8.6440 C.3     6  C6          0.1680
    176   N.1       2.3130   -7.0230   -7.6200 N.ar    6  C6         -0.2700
    177   C.2       1.0210   -7.3460   -8.0370 C.ar    6  C6          0.3522
    178   O.2       0.7260   -7.4430   -9.2390 O.2     6  C6         -0.2444
    179   N.3       0.0440   -7.5350   -7.1050 N.ar    6  C6         -0.1783
    180   C4        0.3370   -7.4670   -5.7960 C.ar    6  C6          0.1230
    181   N.4      -0.6430   -7.6120   -4.9150 N.pl3   6  C6         -0.3430
    182   C5        1.6710   -7.2150   -5.3440 C.ar    6  C6         -0.0056
    183   C6        2.6170   -6.9760   -6.2850 C.ar    6  C6          0.0152
    184  H5'        7.3250   -6.9620   -7.6060 H       6  C6          0.0591
    185 H5''        7.2680   -5.2030   -7.5260 H       6  C6          0.0591
    186  H4'        6.0960   -6.3550   -9.4940 H       6  C6          0.0647
    187  H3'        5.0160   -4.1390   -7.9160 H       6  C6          0.0655
    188  H2'        2.7880   -4.6400   -8.1180 H       6  C6          0.0666
    189 HO2'        3.5710   -4.2820  -10.4890 H       6  C6          0.2101
    190  H1'        3.0390   -7.1770   -9.5820 H       6  C6          0.0867
    191  H41       -1.6090   -7.7850   -5.1890 H       6  C6          0.1437
    192  H42       -0.4140   -7.5370   -3.9300 H       6  C6          0.1437
    193   H5        1.9600   -7.1760   -4.3020 H       6  C6          0.0666
    194   H6        3.6210   -6.7290   -5.9750 H       6  C6          0.0812
    195    P.3      5.4980   -2.6560  -10.1940 P.3     7  C7          0.2131
    196  OP1        6.0150   -2.5090  -11.5740 O.2     7  C7         -0.5172
    197  OP2        6.3180   -2.1930   -9.0580 O.3     7  C7         -0.4373
    198  O5'        4.0060   -2.0790  -10.1330 O.3     7  C7         -0.3248
    199  C5'        3.3060   -1.8310  -11.3440 C.3     7  C7          0.0837
    200  C4'        1.8120   -1.5660  -11.1740 C.3     7  C7          0.1139
    201  O4'        1.1760   -2.6420  -10.5260 O.3     7  C7         -0.3456
    202  C3'        1.4280   -0.3290  -10.3730 C.3     7  C7          0.1241
    203  O3'        1.6680    0.8310  -11.1650 O.3     7  C7         -0.3187
    204  C2'       -0.0500   -0.6420  -10.1250 C.3     7  C7          0.1293
    205  O2'       -0.8420   -0.2100  -11.2250 O.3     7  C7         -0.3846
    206  C1'       -0.0510   -2.1700   -9.9980 C.3     7  C7          0.1680
    207   N.1      -0.2350   -2.5800   -8.5880 N.ar    7  C7         -0.2700
    208   C.2      -1.5110   -2.9460   -8.1510 C.ar    7  C7          0.3522
    209   O.2      -2.4900   -2.8610   -8.9050 O.2     7  C7         -0.2444
    210   N.3      -1.6900   -3.3990   -6.8780 N.ar    7  C7         -0.1783
    211   C4       -0.6510   -3.4400   -6.0260 C.ar    7  C7          0.1230
    212   N.4      -0.8560   -3.9320   -4.8150 N.pl3   7  C7         -0.3430
    213   C5        0.6450   -2.9700   -6.4270 C.ar    7  C7         -0.0056
    214   C6        0.8110   -2.5760   -7.7050 C.ar    7  C7          0.0152
    215  H5'        3.4100   -2.7030  -11.9880 H       7  C7          0.0591
    216 H5''        3.7640   -0.9850  -11.8580 H       7  C7          0.0591
    217  H4'        1.3850   -1.4590  -12.1710 H       7  C7          0.0647
    218  H3'        1.9680   -0.3150   -9.4210 H       7  C7          0.0655
    219  H2'       -0.3900   -0.1560   -9.2100 H       7  C7          0.0666
    220 HO2'       -0.7370    0.7770  -11.1920 H       7  C7          0.2101
    221  H1'       -0.8690   -2.6030  -10.5620 H       7  C7          0.0867
    222  H41       -1.7800   -4.2600   -4.5330 H       7  C7          0.1437
    223  H42       -0.0860   -4.0020   -4.1510 H       7  C7          0.1437
    224   H5        1.5190   -2.9080   -5.7970 H       7  C7          0.0666
    225   H6        1.7880   -2.2550   -8.0370 H       7  C7          0.0812
    226    P.3      1.1720    2.2910  -10.7530 P.3     8  A8          0.2131
    227  OP1       -0.3070    2.2800  -10.7970 O.3     8  A8         -0.4373
    228  OP2        1.8860    3.2710  -11.5910 O.2     8  A8         -0.5172
    229  O5'        1.6260    2.4230   -9.2400 O.3     8  A8         -0.3248
    230  C5'        2.6770    3.2860   -8.8490 C.3     8  A8          0.0837
    231  C4'        3.0690    2.9890   -7.3990 C.3     8  A8          0.1139
    232  O4'        1.9110    2.8770   -6.5970 O.3     8  A8         -0.3456
    233  C3'        3.8110    1.6580   -7.3030 C.3     8  A8          0.1241
    234  O3'        5.0890    1.8380   -6.7010 O.3     8  A8         -0.3187
    235  C2'        2.8810    0.7330   -6.4970 C.3     8  A8          0.1292
    236  O2'        3.5970   -0.0050   -5.5260 O.3     8  A8         -0.3846
    237  C1'        1.8550    1.6640   -5.8560 C.3     8  A8          0.1667
    238   N9        0.4650    1.1270   -5.8960 N.ar    8  A8         -0.2855
    239   C8       -0.4650    1.2570   -6.8980 C.ar    8  A8          0.1004
    240   N7       -1.6190    0.6820   -6.6630 N.ar    8  A8         -0.2306
    241   C5       -1.4500    0.1440   -5.3910 C.ar    8  A8          0.1473
    242   C6       -2.3070   -0.5690   -4.5170 C.ar    8  A8          0.1472
    243   N6       -3.5650   -0.8820   -4.8210 N.pl3   8  A8         -0.3413
    244   N.1      -1.8690   -0.9460   -3.3080 N.ar    8  A8         -0.2188
    245   C.2      -0.6160   -0.6250   -2.9760 C.ar    8  A8          0.1205
    246   N.3       0.2910    0.0360   -3.6970 N.ar    8  A8         -0.2159
    247   C4       -0.1880    0.4090   -4.9150 C.ar    8  A8          0.1674
    248  H5'        2.3530    4.3180   -8.9570 H       8  A8          0.0591
    249 H5''        3.5400    3.1350   -9.4990 H       8  A8          0.0591
    250  H4'        3.6930    3.8070   -7.0170 H       8  A8          0.0647
    251  H3'        3.9460    1.2260   -8.2980 H       8  A8          0.0655
    252  H2'        2.3730    0.0540   -7.1900 H       8  A8          0.0666
    253 HO2'        4.3990   -0.3570   -5.9780 H       8  A8          0.2101
    254  H1'        2.1310    1.8490   -4.8130 H       8  A8          0.0866
    255   H8       -0.2500    1.7940   -7.8100 H       8  A8          0.1030
    256  H61       -4.1320   -1.4010   -4.1540 H       8  A8          0.1438
    257  H62       -3.9340   -0.6210   -5.7280 H       8  A8          0.1438
    258   H2       -0.3050   -0.9440   -1.9920 H       8  A8          0.1048
    259    P.3      6.2950    2.5790   -7.4640 P.3     9  G9          0.2131
    260  OP1        6.1870    2.4020   -8.9320 O.2     9  G9         -0.5172
    261  OP2        7.5680    2.2140   -6.8000 O.3     9  G9         -0.4373
    262  O5'        6.0420    4.1420   -7.2090 O.3     9  G9         -0.3248
    263  C5'        6.2100    4.7170   -5.9290 C.3     9  G9          0.0837
    264  C4'        5.1600    5.8260   -5.7240 C.3     9  G9          0.1139
    265  O4'        4.3460    5.4080   -4.6530 O.3     9  G9         -0.3456
    266  C3'        5.7450    7.1810   -5.3050 C.3     9  G9          0.1241
    267  O3'        4.9900    8.3450   -5.6570 O.3     9  G9         -0.3187
    268  C2'        5.6920    7.1170   -3.7820 C.3     9  G9          0.1292
    269  O2'        5.6800    8.4220   -3.2200 O.3     9  G9         -0.3846
    270  C1'        4.3570    6.3850   -3.6310 C.3     9  G9          0.1667
    271   N9        4.1560    5.8580   -2.2660 N.ar    9  G9         -0.2854
    272   C8        3.1020    6.1230   -1.4340 C.ar    9  G9          0.1005
    273   N7        3.3010    5.7640   -0.2030 N.ar    9  G9         -0.2286
    274   C5        4.5500    5.1700   -0.2220 C.ar    9  G9          0.1721
    275   C6        5.3280    4.6400    0.8490 C.ar    9  G9          0.2803
    276   O6        5.0850    4.6390    2.0520 O.2     9  G9         -0.2654
    277   N.1       6.5150    4.0860    0.4160 N.ar    9  G9         -0.2934
    278   C.2       6.9110    4.0270   -0.9000 C.ar    9  G9          0.1950
    279   N.2       8.0600    3.4360   -1.2000 N.pl3   9  G9         -0.3289
    280   N.3       6.2050    4.5430   -1.9150 N.ar    9  G9         -0.1963
    281   C4        5.0370    5.1210   -1.5070 C.ar    9  G9          0.1712
    282  H5'        7.2250    5.0990   -5.8320 H       9  G9          0.0591
    283 H5''        6.0700    3.9430   -5.1700 H       9  G9          0.0591
    284  H4'        4.5600    5.9270   -6.6270 H       9  G9          0.0647
    285  H3'        6.7500    7.2490   -5.6920 H       9  G9          0.0655
    286  H2'        6.5190    6.5180   -3.4030 H       9  G9          0.0666
    287 HO2'        5.3100    8.9840   -3.9180 H       9  G9          0.2101
    288  H1'        3.5480    7.0880   -3.8150 H       9  G9          0.0866
    289   H8        2.2020    6.6140   -1.7660 H       9  G9          0.1030
    290   H1        7.0700    3.7170    1.1790 H       9  G9          0.1716
    291  H21        8.6500    3.0750   -0.4590 H       9  G9          0.1451
    292  H22        8.3020    3.3360   -2.1850 H       9  G9          0.1451
    293    P.3      4.7900    8.8430   -7.1500 P.3    10  A10         0.2131
    294  OP1        5.9720    8.4990   -7.9600 O.2    10  A10        -0.5172
    295  OP2        4.3620   10.2650   -7.0970 O.3    10  A10        -0.4373
    296  O5'        3.5460    8.0130   -7.6710 O.3    10  A10        -0.3248
    297  C5'        2.3260    8.0960   -6.9570 C.3    10  A10         0.0838
    298  C4'        1.1930    7.4250   -7.7250 C.3    10  A10         0.1165
    299  O4'        1.2980    6.0170   -7.6340 O.3    10  A10        -0.3455
    300  C3'       -0.1770    7.7830   -7.1470 C.3    10  A10         0.1518
    301  O3'       -0.6460    9.0460   -7.6270 O.3    10  A10        -0.2255
    302  C2'       -0.9690    6.5460   -7.5890 C.3    10  A10         0.1318
    303  O2'       -1.2120    6.5560   -8.9910 O.3    10  A10        -0.3845
    304  C1'        0.0510    5.4610   -7.2270 C.3    10  A10         0.1668
    305   N9        0.1010    5.1730   -5.7660 N.ar   10  A10        -0.2855
    306   C8        1.1950    5.2270   -4.9420 C.ar   10  A10         0.1004
    307   N7        0.9880    4.8580   -3.7120 N.ar   10  A10        -0.2306
    308   C5       -0.3510    4.4900   -3.7280 C.ar   10  A10         0.1473
    309   C6       -1.1970    3.9400   -2.7450 C.ar   10  A10         0.1472
    310   N6       -0.7450    3.6060   -1.5430 N.pl3  10  A10        -0.3413
    311   N.1      -2.4950    3.7460   -3.0340 N.ar   10  A10        -0.2188
    312   C.2      -2.9110    4.0300   -4.2680 C.ar   10  A10         0.1205
    313   N.3      -2.2170    4.5030   -5.3020 N.ar   10  A10        -0.2159
    314   C4       -0.9200    4.7230   -4.9580 C.ar   10  A10         0.1674
    315  H5'        2.0640    9.1410   -6.7910 H      10  A10         0.0591
    316 H5''        2.4460    7.6250   -5.9810 H      10  A10         0.0591
    317  H4'        1.2250    7.7140   -8.7790 H      10  A10         0.0648
    318  H3'       -0.1210    7.8060   -6.0520 H      10  A10         0.0683
    319  H2'       -1.9030    6.4350   -7.0380 H      10  A10         0.0667
    320 HO2'       -1.4320    5.6590   -9.2950 H      10  A10         0.2101
    321  H1'       -0.1560    4.5200   -7.7450 H      10  A10         0.0866
    322   H8        2.1530    5.5330   -5.3160 H      10  A10         0.1030
    323  H61       -1.3370    3.2750   -0.8050 H      10  A10         0.1438
    324  H62        0.2560    3.6690   -1.3810 H      10  A10         0.1438
    325   H2       -3.9560    3.8530   -4.4530 H      10  A10         0.1048
    326    P.3     -5.6640   11.8710   -1.9240 Pac    12  G12         0.3935
    327  OP1       -7.0460   12.4010   -2.0280 O.3    12  G12        -0.1425
    328  OP2       -4.5650   12.7920   -2.3210 O.3    12  G12        -0.1425
    329  O5'       -5.4400   11.4690   -0.3930 O.3    12  G12        -0.3060
    330  C5'       -6.4200   10.7290    0.3260 C.3    12  G12         0.0853
    331  C4'       -5.8530   10.1810    1.6390 C.3    12  G12         0.1140
    332  O4'       -4.7910    9.2860    1.3490 O.3    12  G12        -0.3456
    333  C3'       -5.2910   11.2250    2.6030 C.3    12  G12         0.1241
    334  O3'       -6.2150   11.6570    3.6000 O.3    12  G12        -0.3187
    335  C2'       -4.1940   10.4380    3.3180 C.3    12  G12         0.1292
    336  O2'       -4.7520    9.7770    4.4410 O.3    12  G12        -0.3846
    337  C1'       -3.7170    9.4390    2.2710 C.3    12  G12         0.1667
    338   N9       -2.4880    9.9040    1.5760 N.ar   12  G12        -0.2854
    339   C8       -2.3520   10.5980    0.4000 C.ar   12  G12         0.1005
    340   N7       -1.1220   10.7710    0.0000 N.ar   12  G12        -0.2286
    341   C5       -0.3750   10.1170    0.9810 C.ar   12  G12         0.1721
    342   C6        1.0350    9.8670    1.0580 C.ar   12  G12         0.2803
    343   O6        1.9030   10.1810    0.2310 O.2    12  G12        -0.2654
    344   N.1       1.3810    9.1740    2.2180 N.ar   12  G12        -0.2934
    345   C.2       0.4940    8.7830    3.1890 C.ar   12  G12         0.1950
    346   N.2       1.0010    8.1500    4.2310 N.pl3  12  G12        -0.3289
    347   N.3      -0.8280    9.0200    3.1310 N.ar   12  G12        -0.1963
    348   C4       -1.2010    9.6600    1.9870 C.ar   12  G12         0.1712
    349  H5'       -6.7670    9.8870   -0.2770 H      12  G12         0.0591
    350 H5''       -7.2750   11.3670    0.5450 H      12  G12         0.0591
    351  H4'       -6.6400    9.6310    2.1610 H      12  G12         0.0647
    352  H3'       -4.8480   12.0670    2.0680 H      12  G12         0.0655
    353  H2'       -3.3890   11.0910    3.6350 H      12  G12         0.0666
    354 HO2'       -5.5420   10.2980    4.6500 H      12  G12         0.2101
    355  H1'       -3.4750    8.4910    2.7610 H      12  G12         0.0866
    356   H8       -3.1950   10.9590   -0.1600 H      12  G12         0.1030
    357   H1        2.3460    8.8950    2.3690 H      12  G12         0.1716
    358  H21        1.9990    7.9310    4.2780 H      12  G12         0.1451
    359  H22        0.4220    7.8380    5.0080 H      12  G12         0.1451
    360    P.3     -7.1430   12.9590    3.4570 P.3    13  A13         0.2131
    361  OP1       -6.9900   13.5600    2.1140 O.2    13  A13        -0.5172
    362  OP2       -6.8320   13.8090    4.6260 O.3    13  A13        -0.4373
    363  O5'       -8.6530   12.4380    3.6010 O.3    13  A13        -0.3248
    364  C5'       -9.0090   11.5540    4.6590 C.3    13  A13         0.0837
    365  C4'      -10.5080   11.4580    5.0130 C.3    13  A13         0.1139
    366  O4'      -10.9710   12.7350    5.4230 O.3    13  A13        -0.3456
    367  C3'      -11.4620   10.9990    3.9060 C.3    13  A13         0.1241
    368  O3'      -12.6350   10.4710    4.5240 O.3    13  A13        -0.3187
    369  C2'      -11.7630   12.3410    3.2400 C.3    13  A13         0.1292
    370  O2'      -12.9570   12.3720    2.4760 O.3    13  A13        -0.3846
    371  C1'      -11.8850   13.2440    4.4630 C.3    13  A13         0.1667
    372   N9      -11.6690   14.6620    4.0710 N.ar   13  A13        -0.2855
    373   C8      -12.2980   15.3450    3.0580 C.ar   13  A13         0.1004
    374   N7      -11.8560   16.5640    2.8800 N.ar   13  A13        -0.2306
    375   C5      -10.8860   16.7090    3.8730 C.ar   13  A13         0.1473
    376   C6      -10.0300   17.7710    4.2550 C.ar   13  A13         0.1472
    377   N6      -10.0110   18.9420    3.6160 N.pl3  13  A13        -0.3413
    378   N.1      -9.1930   17.6180    5.2950 N.ar   13  A13        -0.2188
    379   C.2      -9.1910   16.4390    5.9220 C.ar   13  A13         0.1205
    380   N.3      -9.9580   15.3820    5.6880 N.ar   13  A13        -0.2159
    381   C4      -10.7860   15.5660    4.6250 C.ar   13  A13         0.1674
    382  H5'       -8.5050   11.8860    5.5630 H      13  A13         0.0591
    383 H5''       -8.6340   10.5640    4.4090 H      13  A13         0.0591
    384  H4'      -10.5940   10.7670    5.8540 H      13  A13         0.0647
    385  H3'      -10.9940   10.2820    3.2300 H      13  A13         0.0655
    386  H2'      -10.9090   12.6380    2.6320 H      13  A13         0.0666
    387 HO2'      -13.3130   11.4540    2.4910 H      13  A13         0.2101
    388  H1'      -12.8860   13.1160    4.8730 H      13  A13         0.0866
    389   H8      -13.0750   14.8910    2.4510 H      13  A13         0.1030
    390  H61       -9.4170   19.6860    3.9540 H      13  A13         0.1438
    391  H62      -10.5750   19.0720    2.7870 H      13  A13         0.1438
    392   H2       -8.5000   16.3230    6.7460 H      13  A13         0.1048
    393    P.3    -13.7210    9.5860    3.7680 P.3    14  G14         0.2131
    394  OP1      -13.6330    9.8460    2.3150 O.2    14  G14        -0.5172
    395  OP2      -14.9930    9.8620    4.4680 O.3    14  G14        -0.4373
    396  O5'      -13.3690    8.0690    4.1020 O.3    14  G14        -0.3248
    397  C5'      -12.2690    7.3840    3.5230 C.3    14  G14         0.0837
    398  C4'      -12.0540    6.0770    4.2900 C.3    14  G14         0.1139
    399  O4'      -11.6500    4.9930    3.4780 O.3    14  G14        -0.3456
    400  C3'      -10.9700    6.2200    5.3530 C.3    14  G14         0.1241
    401  O3'      -11.4350    6.8600    6.5340 O.3    14  G14        -0.3187
    402  C2'      -10.6300    4.7640    5.6030 C.3    14  G14         0.1292
    403  O2'      -11.6170    4.2300    6.4700 O.3    14  G14        -0.3846
    404  C1'      -10.7090    4.1850    4.1910 C.3    14  G14         0.1667
    405   N9       -9.3990    4.2110    3.4950 N.ar   14  G14        -0.2854
    406   C8       -9.0550    4.9000    2.3640 C.ar   14  G14         0.1005
    407   N7       -7.8510    4.6500    1.9150 N.ar   14  G14        -0.2286
    408   C5       -7.3310    3.7630    2.8510 C.ar   14  G14         0.1721
    409   C6       -6.0350    3.1620    2.9110 C.ar   14  G14         0.2803
    410   O6       -5.1220    3.2640    2.0900 O.2    14  G14        -0.2654
    411   N.1      -5.8630    2.4140    4.0660 N.ar   14  G14        -0.2934
    412   C.2      -6.8410    2.1980    5.0160 C.ar   14  G14         0.1950
    413   N.2      -6.5490    1.4690    6.0870 N.pl3  14  G14        -0.3289
    414   N.3      -8.0870    2.6990    4.9360 N.ar   14  G14        -0.1963
    415   C4       -8.2630    3.4970    3.8380 C.ar   14  G14         0.1712
    416  H5'      -11.3610    7.9880    3.6020 H      14  G14         0.0591
    417 H5''      -12.4900    7.1750    2.4770 H      14  G14         0.0591
    418  H4'      -12.9820    5.7880    4.7850 H      14  G14         0.0647
    419  H3'      -10.1070    6.7220    4.9240 H      14  G14         0.0655
    420  H2'       -9.6460    4.6550    6.0420 H      14  G14         0.0666
    421 HO2'      -11.7850    4.9660    7.0760 H      14  G14         0.2101
    422  H1'      -11.0130    3.1400    4.2330 H      14  G14         0.0866
    423   H8       -9.7490    5.5730    1.8900 H      14  G14         0.1030
    424   H1       -4.9240    2.0430    4.1730 H      14  G14         0.1716
    425  H21       -5.6020    1.0920    6.1890 H      14  G14         0.1451
    426  H22       -7.2320    1.3200    6.8080 H      14  G14         0.1451
    427    P.3    -10.4610    7.8270    7.3640 P.3    15  C15         0.2131
    428  OP1      -11.3220    8.5450    8.3260 O.3    15  C15        -0.4373
    429  OP2       -9.5960    8.5770    6.4270 O.2    15  C15        -0.5172
    430  O5'       -9.5310    6.8030    8.1490 O.3    15  C15        -0.3248
    431  C5'       -9.9990    6.1110    9.2860 C.3    15  C15         0.0837
    432  C4'       -8.9360    5.1700    9.8410 C.3    15  C15         0.1139
    433  O4'       -8.4200    4.3250    8.8400 O.3    15  C15        -0.3456
    434  C3'       -7.7590    5.9460   10.4250 C.3    15  C15         0.1241
    435  O3'       -7.9720    6.3130   11.7830 O.3    15  C15        -0.3187
    436  C2'       -6.6390    4.9300   10.2860 C.3    15  C15         0.1293
    437  O2'       -6.6740    3.9740   11.3350 O.3    15  C15        -0.3846
    438  C1'       -7.0060    4.2490    8.9690 C.3    15  C15         0.1680
    439   N.1      -6.2810    4.7930    7.7780 N.ar   15  C15        -0.2700
    440   C.2      -4.9060    4.5230    7.6330 C.ar   15  C15         0.3522
    441   O.2      -4.2900    3.8320    8.4520 O.2    15  C15        -0.2444
    442   N.3      -4.2280    5.0170    6.5600 N.ar   15  C15        -0.1783
    443   C4       -4.8540    5.7660    5.6460 C.ar   15  C15         0.1230
    444   N.4      -4.1960    6.2540    4.6160 N.pl3  15  C15        -0.3430
    445   C5       -6.2560    6.0280    5.7440 C.ar   15  C15        -0.0056
    446   C6       -6.9240    5.5220    6.8080 C.ar   15  C15         0.0152
    447  H5'      -10.8990    5.5570    9.0400 H      15  C15         0.0591
    448 H5''      -10.2080    6.8230   10.0690 H      15  C15         0.0591
    449  H4'       -9.3660    4.5540   10.6320 H      15  C15         0.0647
    450  H3'       -7.5490    6.8290    9.8110 H      15  C15         0.0655
    451  H2'       -5.6730    5.4180   10.2350 H      15  C15         0.0666
    452 HO2'       -5.7720    3.6490   11.4670 H      15  C15         0.2101
    453  H1'       -6.7520    3.2140    9.0630 H      15  C15         0.0867
    454  H41       -3.1970    6.1010    4.4990 H      15  C15         0.1437
    455  H42       -4.6990    6.7940    3.9290 H      15  C15         0.1437
    456   H5       -6.8040    6.6100    5.0180 H      15  C15         0.0666
    457   H6       -7.9830    5.7110    6.8530 H      15  C15         0.0812
    458    P.3     -7.1600    7.5330   12.4140 P.3    16  A16         0.2131
    459  OP1       -7.5370    7.6060   13.8400 O.3    16  A16        -0.4373
    460  OP2       -7.4030    8.7320   11.5890 O.2    16  A16        -0.5172
    461  O5'       -5.6200    7.1220   12.3410 O.3    16  A16        -0.3248
    462  C5'       -5.0960    6.2190   13.2960 C.3    16  A16         0.0837
    463  C4'       -3.7160    5.6770   12.9280 C.3    16  A16         0.1139
    464  O4'       -3.6540    5.1670   11.6070 O.3    16  A16        -0.3456
    465  C3'       -2.5540    6.6490   13.0810 C.3    16  A16         0.1241
    466  O3'       -2.1210    6.6640   14.4360 O.3    16  A16        -0.3187
    467  C2'       -1.5350    5.9540   12.1720 C.3    16  A16         0.1292
    468  O2'       -1.0030    4.8060   12.8320 O.3    16  A16        -0.3846
    469  C1'       -2.4010    5.4840   11.0030 C.3    16  A16         0.1667
    470   N9       -2.5530    6.4810    9.9010 N.ar   16  A16        -0.2855
    471   C8       -3.6700    7.2010    9.5400 C.ar   16  A16         0.1004
    472   N7       -3.5630    7.8540    8.4170 N.ar   16  A16        -0.2306
    473   C5       -2.2600    7.5770    8.0110 C.ar   16  A16         0.1473
    474   C6       -1.5070    7.9470    6.8760 C.ar   16  A16         0.1472
    475   N6       -2.0000    8.6310    5.8500 N.pl3  16  A16        -0.3413
    476   N.1      -0.2200    7.5990    6.8040 N.ar   16  A16        -0.2188
    477   C.2       0.3140    6.9030    7.7960 C.ar   16  A16         0.1205
    478   N.3      -0.2890    6.4290    8.8970 N.ar   16  A16        -0.2159
    479   C4       -1.6040    6.8060    8.9430 C.ar   16  A16         0.1674
    480  H5'       -5.7740    5.3730   13.4010 H      16  A16         0.0591
    481 H5''       -5.0380    6.7150   14.2680 H      16  A16         0.0591
    482  H4'       -3.5200    4.8460   13.6080 H      16  A16         0.0647
    483  H3'       -2.8320    7.6370   12.7100 H      16  A16         0.0655
    484  H2'       -0.7510    6.6270   11.8270 H      16  A16         0.0666
    485 HO2'       -1.7180    4.1640   12.9080 H      16  A16         0.2101
    486  H1'       -1.9620    4.5960   10.5470 H      16  A16         0.0866
    487   H8       -4.5760    7.2080   10.1200 H      16  A16         0.1030
    488  H61       -1.4410    8.7920    5.0160 H      16  A16         0.1438
    489  H62       -2.9500    8.9590    5.8950 H      16  A16         0.1438
    490   H2        1.3730    6.7210    7.6470 H      16  A16         0.1048
    491    P.3     -1.5130    7.9510   15.1600 P.3    17  C17         0.2131
    492  OP1       -1.1630    7.4700   16.5240 O.3    17  C17        -0.4373
    493  OP2       -2.4790    9.0570   15.0510 O.2    17  C17        -0.5172
    494  O5'       -0.1590    8.3630   14.4300 O.3    17  C17        -0.3248
    495  C5'        1.0310    7.6120   14.5830 C.3    17  C17         0.0837
    496  C4'        1.9960    7.8250   13.4120 C.3    17  C17         0.1139
    497  O4'        1.3540    7.4940   12.1980 O.3    17  C17        -0.3456
    498  C3'        2.5740    9.2260   13.2250 C.3    17  C17         0.1241
    499  O3'        3.7770    9.3900   13.9670 O.3    17  C17        -0.3187
    500  C2'        2.8890    9.2070   11.7290 C.3    17  C17         0.1293
    501  O2'        4.1000    8.4970   11.5630 O.3    17  C17        -0.3846
    502  C1'        1.7500    8.3720   11.1510 C.3    17  C17         0.1680
    503   N.1       0.6180    9.1950   10.6300 N.ar   17  C17        -0.2700
    504   C.2       0.7970    9.8320    9.3990 C.ar   17  C17         0.3522
    505   O.2       1.8910    9.7740    8.8300 O.2    17  C17        -0.2444
    506   N.3      -0.2640   10.4970    8.8470 N.ar   17  C17        -0.1783
    507   C4       -1.4560   10.5110    9.4510 C.ar   17  C17         0.1230
    508   N.4      -2.4710   11.0960    8.8320 N.pl3  17  C17        -0.3430
    509   C5       -1.6590    9.9180   10.7380 C.ar   17  C17        -0.0056
    510   C6       -0.5890    9.2890   11.2820 C.ar   17  C17         0.0152
    511  H5'        0.7810    6.5530   14.6170 H      17  C17         0.0591
    512 H5''        1.5130    7.8790   15.5220 H      17  C17         0.0591
    513  H4'        2.8340    7.1350   13.5340 H      17  C17         0.0647
    514  H3'        1.8260    9.9860   13.4530 H      17  C17         0.0655
    515  H2'        2.9520   10.2050   11.2800 H      17  C17         0.0666
    516 HO2'        4.5330    8.5170   12.4280 H      17  C17         0.2101
    517  H1'        2.1330    7.7920   10.3060 H      17  C17         0.0867
    518  H41       -2.2750   11.5590    7.9570 H      17  C17         0.1437
    519  H42       -3.4140   11.0370    9.1760 H      17  C17         0.1437
    520   H5       -2.5960    9.9330   11.2830 H      17  C17         0.0666
    521   H6       -0.6950    8.8370   12.2430 H      17  C17         0.0812
    522    P.3      4.3340   10.8310   14.3290 P.3    18  G18         0.2131
    523  OP1        5.7120   10.6560   14.8450 O.2    18  G18        -0.5172
    524  OP2        3.3680   11.5160   15.2120 O.3    18  G18        -0.4373
    525  O5'        4.4050   11.6950   12.9970 O.3    18  G18        -0.3248
    526  C5'        5.4270   11.5860   12.0130 C.3    18  G18         0.0837
    527  C4'        5.3380   12.7910   11.0580 C.3    18  G18         0.1139
    528  O4'        4.1510   12.6890   10.2860 O.3    18  G18        -0.3456
    529  C3'        5.2400   14.1190   11.8170 C.3    18  G18         0.1241
    530  O3'        5.9580   15.1180   11.1090 O.3    18  G18        -0.3187
    531  C2'        3.7370   14.3890   11.7960 C.3    18  G18         0.1292
    532  O2'        3.3700   15.7300   12.0710 O.3    18  G18        -0.3846
    533  C1'        3.4260   13.8990   10.3860 C.3    18  G18         0.1667
    534   N9        1.9730   13.7320   10.1430 N.ar   18  G18        -0.2854
    535   C8        0.9690   13.3910   11.0170 C.ar   18  G18         0.1005
    536   N7       -0.2380   13.5090   10.5270 N.ar   18  G18        -0.2286
    537   C5       -0.0120   13.8910    9.2030 C.ar   18  G18         0.1721
    538   C6       -0.9400   14.1970    8.1530 C.ar   18  G18         0.2803
    539   O6       -2.1730   14.1820    8.1970 O.2    18  G18        -0.2654
    540   N.1      -0.3250   14.5990    6.9780 N.ar   18  G18        -0.2934
    541   C.2       1.0390   14.7160    6.8370 C.ar   18  G18         0.1950
    542   N.2       1.5180   15.1460    5.6810 N.pl3  18  G18        -0.3289
    543   N.3       1.9190   14.4530    7.8090 N.ar   18  G18        -0.1963
    544   C4        1.3360   14.0230    8.9630 C.ar   18  G18         0.1712
    545  H5'        5.3260   10.6640   11.4450 H      18  G18         0.0591
    546 H5''        6.4060   11.5830   12.4850 H      18  G18         0.0591
    547  H4'        6.2120   12.8080   10.3980 H      18  G18         0.0647
    548  H3'        5.6020   13.9990   12.8330 H      18  G18         0.0655
    549  H2'        3.2510   13.7320   12.5130 H      18  G18         0.0666
    550 HO2'        4.2010   16.2590   12.1150 H      18  G18         0.2101
    551  H1'        3.8270   14.6030    9.6520 H      18  G18         0.0866
    552   H8        1.1780   13.0810   12.0290 H      18  G18         0.1030
    553   H1       -0.9490   14.7870    6.2110 H      18  G18         0.1716
    554  H21        0.9220   15.4050    4.9070 H      18  G18         0.1451
    555  H22        2.5370   15.1570    5.6230 H      18  G18         0.1451
    556    P.3      6.5770   16.4000   11.8210 P.3    19  U19         0.2131
    557  OP1        7.6700   16.0340   12.7420 O.3    19  U19        -0.4373
    558  OP2        5.4640   17.2230   12.3250 O.2    19  U19        -0.5172
    559  O5'        7.2030   17.2240   10.6140 O.3    19  U19        -0.3248
    560  C5'        8.1310   16.6320    9.7200 C.3    19  U19         0.0837
    561  C4'        8.0580   17.3090    8.3410 C.3    19  U19         0.1139
    562  O4'        6.7710   17.1070    7.7920 O.3    19  U19        -0.3456
    563  C3'        8.2770   18.8290    8.3990 C.3    19  U19         0.1241
    564  O3'        8.8780   19.3770    7.2280 O.3    19  U19        -0.3187
    565  C2'        6.8320   19.3130    8.5050 C.3    19  U19         0.1293
    566  O2'        6.6130   20.6730    8.1860 O.3    19  U19        -0.3846
    567  C1'        6.1280   18.3470    7.5720 C.3    19  U19         0.1680
    568   N.1       4.6880   18.2840    7.9050 N.ar   19  U19        -0.2715
    569   C.2       3.8230   19.1840    7.2770 C.ar   19  U19         0.3314
    570   O.2       4.1990   20.0580    6.4910 O.2    19  U19        -0.2464
    571   N.3       2.4820   19.0530    7.5890 N.ar   19  U19        -0.2749
    572   C4        1.9270   18.1000    8.4290 C.ar   19  U19         0.2539
    573   O4        0.7050   17.9900    8.5190 O.2    19  U19        -0.2677
    574   C5        2.9010   17.2820    9.1100 C.ar   19  U19         0.0192
    575   C6        4.2220   17.3830    8.8340 C.ar   19  U19         0.0171
    576  H5'        7.9020   15.5730    9.5960 H      19  U19         0.0591
    577 H5''        9.1370   16.7150   10.1340 H      19  U19         0.0591
    578  H4'        8.7790   16.8210    7.6980 H      19  U19         0.0647
    579  H3'        8.8360   19.1130    9.2890 H      19  U19         0.0655
    580  H2'        6.4510   19.1280    9.5090 H      19  U19         0.0666
    581 HO2'        5.7770   20.9070    8.6340 H      19  U19         0.2101
    582  H1'        6.2740   18.6280    6.5280 H      19  U19         0.0867
    583   H3        1.8540   19.7150    7.1600 H      19  U19         0.1734
    584   H5        2.5570   16.5680    9.8360 H      19  U19         0.0686
    585   H6        4.9330   16.7470    9.3450 H      19  U19         0.0813
    586    P.3     10.4550   19.2830    6.9530 P.3    20  A20         0.2131
    587  OP1       11.1770   19.4840    8.2310 O.3    20  A20        -0.4373
    588  OP2       10.7830   20.1950    5.8380 O.2    20  A20        -0.5172
    589  O5'       10.7180   17.8020    6.4340 O.3    20  A20        -0.3248
    590  C5'       11.3410   16.8180    7.2470 C.3    20  A20         0.0837
    591  C4'       11.2180   15.4120    6.6440 C.3    20  A20         0.1139
    592  O4'        9.8570   15.0470    6.4450 O.3    20  A20        -0.3456
    593  C3'       11.8960   15.2840    5.2870 C.3    20  A20         0.1241
    594  O3'       12.4600   13.9940    5.1540 O.3    20  A20        -0.3187
    595  C2'       10.7600   15.4730    4.3020 C.3    20  A20         0.1292
    596  O2'       11.0500   14.7170    3.1460 O.3    20  A20        -0.3846
    597  C1'        9.5370   14.9450    5.0580 C.3    20  A20         0.1667
    598   N9        8.2780   15.6650    4.7120 N.ar   20  A20        -0.2855
    599   C8        8.0900   16.7030    3.8250 C.ar   20  A20         0.1004
    600   N7        6.8980   17.2300    3.8290 N.ar   20  A20        -0.2306
    601   C5        6.2080   16.3910    4.6900 C.ar   20  A20         0.1473
    602   C6        4.8630   16.3620    5.0950 C.ar   20  A20         0.1472
    603   N6        3.9840   17.2980    4.7530 N.pl3  20  A20        -0.3413
    604   N.1       4.4290   15.3660    5.8620 N.ar   20  A20        -0.2188
    605   C.2       5.3040   14.4450    6.2600 C.ar   20  A20         0.1205
    606   N.3       6.6160   14.3720    6.0060 N.ar   20  A20        -0.2159
    607   C4        7.0130   15.3950    5.1920 C.ar   20  A20         0.1674
    608  H5'       10.8930   16.8100    8.2420 H      20  A20         0.0591
    609 H5''       12.3960   17.0670    7.3680 H      20  A20         0.0591
    610  H4'       11.6770   14.7150    7.3470 H      20  A20         0.0647
    611  H3'       12.6530   16.0530    5.1310 H      20  A20         0.0655
    612  H2'       10.6670   16.5420    4.0940 H      20  A20         0.0666
    613 HO2'       11.4580   13.9030    3.4910 H      20  A20         0.2101
    614  H1'        9.3900   13.8910    4.8250 H      20  A20         0.0866
    615   H8        8.8660   17.0710    3.1790 H      20  A20         0.1030
    616  H61        3.0250   17.2500    5.0570 H      20  A20         0.1438
    617  H62        4.3330   18.0500    4.1760 H      20  A20         0.1438
    618   H2        4.8670   13.6710    6.8640 H      20  A20         0.1048
    619    P.3     13.9480   13.7270    5.6750 P.3    21  U21         0.2131
    620  OP1       14.0060   12.4020    6.3090 O.2    21  U21        -0.5172
    621  OP2       14.3990   14.8990    6.4550 O.3    21  U21        -0.4373
    622  O5'       14.7840   13.7030    4.3230 O.3    21  U21        -0.3248
    623  C5'       14.4710   12.7440    3.3320 C.3    21  U21         0.0837
    624  C4'       15.3000   12.9800    2.0750 C.3    21  U21         0.1139
    625  O4'       16.6110   12.4620    2.2170 O.3    21  U21        -0.3456
    626  C3'       14.7070   12.2490    0.8760 C.3    21  U21         0.1241
    627  O3'       13.6940   13.0290    0.2590 O.3    21  U21        -0.3187
    628  C2'       15.9330   12.0700   -0.0190 C.3    21  U21         0.1293
    629  O2'       15.9780   13.0650   -1.0250 O.3    21  U21        -0.3846
    630  C1'       17.1330   12.2630    0.9130 C.3    21  U21         0.1680
    631   N.1      18.0650   11.1050    0.8830 N.ar   21  U21        -0.2715
    632   C.2      19.3620   11.2910    0.3820 C.ar   21  U21         0.3314
    633   O.2      19.7850   12.3650   -0.0530 O.2    21  U21        -0.2464
    634   N.3      20.1950   10.1830    0.4260 N.ar   21  U21        -0.2749
    635   C4       19.8560    8.9280    0.9000 C.ar   21  U21         0.2539
    636   O4       20.7120    8.0480    0.9810 O.2    21  U21        -0.2677
    637   C5       18.4840    8.8010    1.3360 C.ar   21  U21         0.0192
    638   C6       17.6490    9.8680    1.3260 C.ar   21  U21         0.0171
    639  H5'       13.4150   12.8380    3.0820 H      21  U21         0.0591
    640 H5''       14.6460   11.7350    3.7090 H      21  U21         0.0591
    641  H4'       15.3390   14.0460    1.8520 H      21  U21         0.0647
    642  H3'       14.3280   11.2760    1.1900 H      21  U21         0.0655
    643  H2'       15.9260   11.0680   -0.4440 H      21  U21         0.0666
    644 HO2'       15.0740   13.4100   -1.0980 H      21  U21         0.2101
    645  H1'       17.6670   13.1610    0.6020 H      21  U21         0.0867
    646   H3       21.1300   10.2960    0.0680 H      21  U21         0.1734
    647   H5       18.1200    7.8490    1.6940 H      21  U21         0.0686
    648   H6       16.6380    9.7440    1.6830 H      21  U21         0.0813
    649    P.3     12.7560   12.4700   -0.9120 P.3    22  A22         0.2131
    650  OP1       13.2630   11.1650   -1.3720 O.3    22  A22        -0.4373
    651  OP2       12.7060   13.5660   -1.8950 O.2    22  A22        -0.5172
    652  O5'       11.2870   12.2690   -0.2980 O.3    22  A22        -0.3248
    653  C5'       10.8350   11.0000    0.1780 C.3    22  A22         0.0837
    654  C4'       11.1100   10.7510    1.6670 C.3    22  A22         0.1139
    655  O4'       10.4920   11.7360    2.4820 O.3    22  A22        -0.3456
    656  C3'       10.5350    9.4040    2.1120 C.3    22  A22         0.1241
    657  O3'       11.5180    8.3890    2.2730 O.3    22  A22        -0.3187
    658  C2'        9.8990    9.6880    3.4640 C.3    22  A22         0.1292
    659  O2'       10.8870    9.4920    4.4600 O.3    22  A22        -0.3846
    660  C1'        9.5390   11.1570    3.3710 C.3    22  A22         0.1667
    661   N9        8.1460   11.3800    2.9220 N.ar   22  A22        -0.2855
    662   C8        7.6910   11.8840    1.7320 C.ar   22  A22         0.1004
    663   N7        6.3910   11.9670    1.6290 N.ar   22  A22        -0.2306
    664   C5        5.9550   11.4800    2.8640 C.ar   22  A22         0.1473
    665   C6        4.6800   11.2780    3.4310 C.ar   22  A22         0.1472
    666   N6        3.5610   11.4810    2.7540 N.pl3  22  A22        -0.3413
    667   N.1       4.5640   10.8280    4.6900 N.ar   22  A22        -0.2188
    668   C.2       5.6780   10.5150    5.3450 C.ar   22  A22         0.1205
    669   N.3       6.9420   10.6400    4.9350 N.ar   22  A22        -0.2159
    670   C4        7.0130   11.1380    3.6660 C.ar   22  A22         0.1674
    671  H5'       11.2920   10.1930   -0.3980 H      22  A22         0.0591
    672 H5''        9.7650   10.9330    0.0020 H      22  A22         0.0591
    673  H4'       12.1820   10.7600    1.8390 H      22  A22         0.0647
    674  H3'        9.7660    9.0890    1.4070 H      22  A22         0.0655
    675  H2'        9.0210    9.0660    3.6270 H      22  A22         0.0666
    676 HO2'       11.5130    8.8700    4.0490 H      22  A22         0.2101
    677  H1'        9.6070   11.5760    4.3660 H      22  A22         0.0866
    678   H8        8.3750   12.1860    0.9550 H      22  A22         0.1030
    679  H61        2.6820   11.3230    3.2230 H      22  A22         0.1438
    680  H62        3.6210   11.7260    1.7760 H      22  A22         0.1438
    681   H2        5.5320   10.0720    6.3200 H      22  A22         0.1048
    682    P.3     11.1860    6.8890    1.8230 P.3    23  C23         0.2131
    683  OP1       12.3120    6.0290    2.2580 O.3    23  C23        -0.4373
    684  OP2       10.8710    6.9320    0.3850 O.2    23  C23        -0.5172
    685  O5'        9.8610    6.4920    2.6330 O.3    23  C23        -0.3248
    686  C5'        9.9010    6.0450    3.9850 C.3    23  C23         0.0837
    687  C4'        8.5430    6.0440    4.7160 C.3    23  C23         0.1139
    688  O4'        7.9610    7.3380    4.7420 O.3    23  C23        -0.3456
    689  C3'        7.4420    5.1120    4.2030 C.3    23  C23         0.1241
    690  O3'        7.5540    3.7720    4.6570 O.3    23  C23        -0.3187
    691  C2'        6.2210    5.7600    4.8500 C.3    23  C23         0.1293
    692  O2'        6.1760    5.3950    6.2170 O.3    23  C23        -0.3846
    693  C1'        6.5370    7.2340    4.6530 C.3    23  C23         0.1680
    694   N.1       5.9920    7.6570    3.3240 N.ar   23  C23        -0.2700
    695   C.2       4.6300    7.9450    3.2120 C.ar   23  C23         0.3522
    696   O.2       3.8630    7.8410    4.1750 O.2    23  C23        -0.2444
    697   N.3       4.1550    8.4010    2.0160 N.ar   23  C23        -0.1783
    698   C4        4.9460    8.4830    0.9420 C.ar   23  C23         0.1230
    699   N.4       4.4110    8.9160   -0.1910 N.pl3  23  C23        -0.3430
    700   C5        6.3330    8.1490    1.0050 C.ar   23  C23        -0.0056
    701   C6        6.7980    7.7540    2.2160 C.ar   23  C23         0.0152
    702  H5'       10.5820    6.6800    4.5510 H      23  C23         0.0591
    703 H5''       10.3050    5.0340    4.0020 H      23  C23         0.0591
    704  H4'        8.7330    5.7600    5.7510 H      23  C23         0.0647
    705  H3'        7.3610    5.1790    3.1160 H      23  C23         0.0655
    706  H2'        5.2830    5.5040    4.3570 H      23  C23         0.0666
    707 HO2'        6.3690    4.4470    6.2040 H      23  C23         0.2101
    708  H1'        6.0490    7.8240    5.4270 H      23  C23         0.0867
    709  H41        3.4390    9.2040   -0.1300 H      23  C23         0.1437
    710  H42        4.9280    8.9240   -1.0600 H      23  C23         0.1437
    711   H5        7.0050    8.1930    0.1610 H      23  C23         0.0666
    712   H6        7.8260    7.5020    2.3420 H      23  C23         0.0812
    713    P.3      8.2490    2.6590    3.7470 P.3    24  G24         0.2131
    714  OP1        9.5500    2.3120    4.3720 O.3    24  G24        -0.4373
    715  OP2        8.2410    3.0710    2.3340 O.2    24  G24        -0.5172
    716  O5'        7.2730    1.3940    3.8910 O.3    24  G24        -0.3248
    717  C5'        5.8890    1.4650    3.5540 C.3    24  G24         0.0837
    718  C4'        5.0610    1.3650    4.8370 C.3    24  G24         0.1139
    719  O4'        4.7190    2.6420    5.3470 O.3    24  G24        -0.3456
    720  C3'        3.7480    0.5890    4.7350 C.3    24  G24         0.1241
    721  O3'        3.9430   -0.8030    4.9380 O.3    24  G24        -0.3187
    722  C2'        2.9970    1.1400    5.9400 C.3    24  G24         0.1292
    723  O2'        3.4740    0.4510    7.0810 O.3    24  G24        -0.3846
    724  C1'        3.4400    2.6060    5.9760 C.3    24  G24         0.1667
    725   N9        2.4360    3.4750    5.3130 N.ar   24  G24        -0.2854
    726   C8        2.5780    4.2650    4.1960 C.ar   24  G24         0.1005
    727   N7        1.4790    4.8680    3.8320 N.ar   24  G24        -0.2286
    728   C5        0.5500    4.5090    4.8050 C.ar   24  G24         0.1721
    729   C6       -0.8160    4.9220    4.9760 C.ar   24  G24         0.2803
    730   O6       -1.4780    5.7150    4.3140 O.2    24  G24        -0.2654
    731   N.1      -1.4150    4.3300    6.0760 N.ar   24  G24        -0.2934
    732   C.2      -0.7760    3.4750    6.9360 C.ar   24  G24         0.1950
    733   N.2      -1.4780    2.9820    7.9520 N.pl3  24  G24        -0.3289
    734   N.3       0.5110    3.1010    6.8210 N.ar   24  G24        -0.1963
    735   C4        1.1240    3.6560    5.7220 C.ar   24  G24         0.1712
    736  H5'        5.6320    0.6280    2.9100 H      24  G24         0.0591
    737 H5''        5.6460    2.3880    3.0280 H      24  G24         0.0591
    738  H4'        5.6730    0.8580    5.5760 H      24  G24         0.0647
    739  H3'        3.2310    0.8200    3.8030 H      24  G24         0.0655
    740  H2'        1.9190    1.0060    5.8410 H      24  G24         0.0666
    741 HO2'        3.7700   -0.4120    6.7200 H      24  G24         0.2101
    742  H1'        3.5350    2.9620    6.9970 H      24  G24         0.0866
    743   H8        3.5150    4.3720    3.6590 H      24  G24         0.1030
    744   H1       -2.3870    4.5920    6.1970 H      24  G24         0.1716
    745  H21       -2.4540    3.2570    8.0600 H      24  G24         0.1451
    746  H22       -1.0510    2.3430    8.6020 H      24  G24         0.1451
    747    P.3      2.9020   -1.8800    4.3910 P.3    25  C25         0.2131
    748  OP1        3.5510   -3.1940    4.5640 O.3    25  C25        -0.4373
    749  OP2        2.5390   -1.4560    3.0310 O.2    25  C25        -0.5172
    750  O5'        1.6020   -1.8160    5.3260 O.3    25  C25        -0.3248
    751  C5'        1.5560   -2.3710    6.6340 C.3    25  C25         0.0837
    752  C4'        0.2040   -2.1050    7.3200 C.3    25  C25         0.1139
    753  O4'       -0.1000   -0.7180    7.2930 O.3    25  C25        -0.3456
    754  C3'       -1.0000   -2.8280    6.7140 C.3    25  C25         0.1241
    755  O3'       -1.2700   -4.0850    7.3360 O.3    25  C25        -0.3187
    756  C2'       -2.1510   -1.8560    6.9910 C.3    25  C25         0.1293
    757  O2'       -2.7380   -2.0260    8.2710 O.3    25  C25        -0.3846
    758  C1'       -1.4730   -0.4900    6.9710 C.3    25  C25         0.1680
    759   N.1      -1.6770    0.2310    5.6820 N.ar   25  C25        -0.2700
    760   C.2      -2.9490    0.7510    5.4160 C.ar   25  C25         0.3522
    761   O.2      -3.9140    0.5350    6.1570 O.2    25  C25        -0.2444
    762   N.3      -3.1370    1.5320    4.3170 N.ar   25  C25        -0.1783
    763   C4       -2.1230    1.7830    3.4800 C.ar   25  C25         0.1230
    764   N.4      -2.3290    2.5900    2.4540 N.pl3  25  C25        -0.3430
    765   C5       -0.8340    1.2110    3.6910 C.ar   25  C25        -0.0056
    766   C6       -0.6570    0.4470    4.7890 C.ar   25  C25         0.0152
    767  H5'        2.3400   -1.9180    7.2380 H      25  C25         0.0591
    768 H5''        1.7370   -3.4460    6.5910 H      25  C25         0.0591
    769  H4'        0.2870   -2.4040    8.3640 H      25  C25         0.0647
    770  H3'       -0.8470   -2.9430    5.6370 H      25  C25         0.0655
    771  H2'       -2.9240   -1.9360    6.2320 H      25  C25         0.0666
    772 HO2'       -3.6580   -1.7370    8.1940 H      25  C25         0.2101
    773  H1'       -1.9350    0.1380    7.7370 H      25  C25         0.0867
    774  H41       -3.2520    2.9740    2.2820 H      25  C25         0.1437
    775  H42       -1.5290    2.8330    1.8690 H      25  C25         0.1437
    776   H5       -0.0020    1.3590    3.0210 H      25  C25         0.0666
    777   H6        0.3110    0.0200    4.9520 H      25  C25         0.0812
    778    P.3     -2.1120   -5.2410    6.6060 P.3    26  A26         0.2131
    779  OP1       -2.1330   -6.3980    7.5360 O.3    26  A26        -0.4373
    780  OP2       -1.4910   -5.4320    5.2790 O.2    26  A26        -0.5172
    781  O5'       -3.6150   -4.6960    6.4420 O.3    26  A26        -0.3248
    782  C5'       -4.5060   -5.1340    5.4170 C.3    26  A26         0.0837
    783  C4'       -5.8820   -4.4860    5.6620 C.3    26  A26         0.1139
    784  O4'       -5.7200   -3.1100    6.0030 O.3    26  A26        -0.3456
    785  C3'       -6.9180   -4.4990    4.5180 C.3    26  A26         0.1241
    786  O3'       -8.0720   -5.2880    4.8070 O.3    26  A26        -0.3187
    787  C2'       -7.4260   -3.0610    4.4740 C.3    26  A26         0.1292
    788  O2'       -8.5110   -2.9100    5.3780 O.3    26  A26        -0.3846
    789  C1'       -6.2250   -2.2740    4.9730 C.3    26  A26         0.1667
    790   N9       -5.2550   -1.9550    3.8970 N.ar   26  A26        -0.2855
    791   C8       -3.9170   -2.2500    3.7590 C.ar   26  A26         0.1004
    792   N7       -3.3600   -1.7430    2.6920 N.ar   26  A26        -0.2306
    793   C5       -4.4080   -1.0660    2.0790 C.ar   26  A26         0.1473
    794   C6       -4.5130   -0.3030    0.8980 C.ar   26  A26         0.1472
    795   N6       -3.4630   -0.0640    0.1170 N.pl3  26  A26        -0.3413
    796   N.1      -5.7120    0.2050    0.5430 N.ar   26  A26        -0.2188
    797   C.2      -6.7520   -0.0210    1.3460 C.ar   26  A26         0.1205
    798   N.3      -6.7850   -0.6730    2.4990 N.ar   26  A26        -0.2159
    799   C4       -5.5640   -1.1890    2.8060 C.ar   26  A26         0.1674
    800  H5'       -4.6010   -6.2160    5.4570 H      26  A26         0.0591
    801 H5''       -4.1200   -4.8640    4.4380 H      26  A26         0.0591
    802  H4'       -6.3170   -5.0090    6.5100 H      26  A26         0.0647
    803  H3'       -6.4660   -4.7130    3.5440 H      26  A26         0.0655
    804  H2'       -7.7260   -2.7900    3.4640 H      26  A26         0.0666
    805 HO2'       -8.8370   -3.8270    5.4570 H      26  A26         0.2101
    806  H1'       -6.5640   -1.3170    5.3670 H      26  A26         0.0866
    807   H8       -3.3570   -2.8500    4.4630 H      26  A26         0.1030
    808  H61       -3.5310    0.4440   -0.7460 H      26  A26         0.1438
    809  H62       -2.5800   -0.4410    0.4300 H      26  A26         0.1438
    810   H2       -7.7140    0.3600    1.0500 H      26  A26         0.1048
    811    P.3     -8.5180   -6.5390    3.9130 P.3    27  A27         0.2131
    812  OP1       -9.6420   -7.1960    4.6000 O.3    27  A27        -0.4373
    813  OP2       -7.3240   -7.3530    3.6090 O.2    27  A27        -0.5172
    814  O5'       -9.0640   -5.9180    2.5280 O.3    27  A27        -0.3248
    815  C5'      -10.4590   -5.7060    2.3380 C.3    27  A27         0.0837
    816  C4'      -10.8060   -4.7440    1.1900 C.3    27  A27         0.1139
    817  O4'      -10.0430   -3.5610    1.2930 O.3    27  A27        -0.3456
    818  C3'      -10.7100   -5.2180   -0.2650 C.3    27  A27         0.1241
    819  O3'      -12.0000   -5.6660   -0.7280 O.3    27  A27        -0.3187
    820  C2'      -10.3340   -3.9460   -1.0200 C.3    27  A27         0.1292
    821  O2'      -11.5320   -3.3150   -1.4400 O.3    27  A27        -0.3846
    822  C1'       -9.5590   -3.1420    0.0270 C.3    27  A27         0.1667
    823   N9       -8.0880   -3.3240   -0.1080 N.ar   27  A27        -0.2855
    824   C8       -7.1610   -3.8650    0.7490 C.ar   27  A27         0.1004
    825   N7       -5.9180   -3.7220    0.3640 N.ar   27  A27        -0.2306
    826   C5       -6.0270   -3.0810   -0.8660 C.ar   27  A27         0.1473
    827   C6       -5.0930   -2.6110   -1.8250 C.ar   27  A27         0.1472
    828   N6       -3.7690   -2.6770   -1.6690 N.pl3  27  A27        -0.3413
    829   N.1      -5.5600   -2.0390   -2.9540 N.ar   27  A27        -0.2188
    830   C.2      -6.8800   -1.9320   -3.1030 C.ar   27  A27         0.1205
    831   N.3      -7.8590   -2.2940   -2.2910 N.ar   27  A27        -0.2159
    832   C4       -7.3530   -2.8680   -1.1700 C.ar   27  A27         0.1674
    833  H5'      -10.8690   -5.2800    3.2540 H      27  A27         0.0591
    834 H5''      -10.9500   -6.6650    2.1710 H      27  A27         0.0591
    835  H4'      -11.8440   -4.4510    1.3470 H      27  A27         0.0647
    836  H3'       -9.9040   -5.9370   -0.4190 H      27  A27         0.0655
    837  H2'       -9.7200   -4.1830   -1.8870 H      27  A27         0.0666
    838 HO2'      -12.0610   -4.0760   -1.7320 H      27  A27         0.2101
    839  H1'       -9.7460   -2.0770   -0.0990 H      27  A27         0.0866
    840   H8       -7.4430   -4.3490    1.6690 H      27  A27         0.1030
    841  H61       -3.1190   -2.2810   -2.3420 H      27  A27         0.1438
    842  H62       -3.3970   -3.1190   -0.8310 H      27  A27         0.1438
    843   H2       -7.2450   -1.5120   -4.0160 H      27  A27         0.1048
    844    P.3    -12.2080   -6.9600   -1.6640 P.3    28  G28         0.2131
    845  OP1      -13.6650   -7.1680   -1.8350 O.2    28  G28        -0.5172
    846  OP2      -11.3890   -8.0720   -1.1520 O.3    28  G28        -0.4373
    847  O5'      -11.6330   -6.4870   -3.0750 O.3    28  G28        -0.3248
    848  C5'      -12.4730   -5.8380   -4.0210 C.3    28  G28         0.0837
    849  C4'      -11.6660   -5.2630   -5.1880 C.3    28  G28         0.1139
    850  O4'      -10.5500   -4.5720   -4.6660 O.3    28  G28        -0.3456
    851  C3'      -11.1320   -6.2960   -6.1780 C.3    28  G28         0.1241
    852  O3'      -12.0120   -6.4460   -7.2970 O.3    28  G28        -0.3187
    853  C2'       -9.7870   -5.7060   -6.6100 C.3    28  G28         0.1292
    854  O2'       -9.8490   -5.1120   -7.8930 O.3    28  G28        -0.3846
    855  C1'       -9.4870   -4.6070   -5.5960 C.3    28  G28         0.1667
    856   N9       -8.1810   -4.8440   -4.9400 N.ar   28  G28        -0.2854
    857   C8       -7.9040   -5.4320   -3.7330 C.ar   28  G28         0.1005
    858   N7       -6.6300   -5.4970   -3.4530 N.ar   28  G28        -0.2286
    859   C5       -6.0050   -4.9200   -4.5580 C.ar   28  G28         0.1721
    860   C6       -4.6150   -4.7070   -4.8510 C.ar   28  G28         0.2803
    861   O6       -3.6270   -4.9600   -4.1600 O.2    28  G28        -0.2654
    862   N.1      -4.4160   -4.1640   -6.1150 N.ar   28  G28        -0.2934
    863   C.2      -5.4340   -3.8610   -6.9910 C.ar   28  G28         0.1950
    864   N.2      -5.1370   -3.4210   -8.2090 N.pl3  28  G28        -0.3289
    865   N.3      -6.7380   -3.9700   -6.7030 N.ar   28  G28        -0.1963
    866   C4       -6.9570   -4.5310   -5.4780 C.ar   28  G28         0.1712
    867  H5'      -12.9910   -5.0200   -3.5220 H      28  G28         0.0591
    868 H5''      -13.2160   -6.5430   -4.3980 H      28  G28         0.0591
    869  H4'      -12.2850   -4.5610   -5.7440 H      28  G28         0.0647
    870  H3'      -10.9690   -7.2480   -5.6650 H      28  G28         0.0655
    871  H2'       -9.0210   -6.4810   -6.5860 H      28  G28         0.0666
    872 HO2'       -9.8380   -5.8480   -8.5310 H      28  G28         0.2101
    873  H1'       -9.4440   -3.6560   -6.1230 H      28  G28         0.0866
    874   H8       -8.6840   -5.8010   -3.0820 H      28  G28         0.1030
    875   H1       -3.4350   -4.0120   -6.3360 H      28  G28         0.1716
    876  H21       -4.1580   -3.3220   -8.4900 H      28  G28         0.1451
    877  H22       -5.8710   -3.2560   -8.8830 H      28  G28         0.1451
    878    P.3    -11.9670   -7.7340   -8.2570 P.3    29  G29         0.2131
    879  OP1      -13.1220   -7.6440   -9.1810 O.2    29  G29        -0.5172
    880  OP2      -11.8150   -8.9350   -7.4230 O.3    29  G29        -0.4373
    881  O5'      -10.6340   -7.5300   -9.1390 O.3    29  G29        -0.3248
    882  C5'      -10.7030   -6.9540  -10.4340 C.3    29  G29         0.0837
    883  C4'       -9.3230   -6.8400  -11.0890 C.3    29  G29         0.1139
    884  O4'       -8.4210   -6.1970  -10.2110 O.3    29  G29        -0.3456
    885  C3'       -8.6690   -8.1660  -11.4640 C.3    29  G29         0.1241
    886  O3'       -9.0680   -8.6590  -12.7390 O.3    29  G29        -0.3187
    887  C2'       -7.1950   -7.7650  -11.4940 C.3    29  G29         0.1292
    888  O2'       -6.9090   -7.2520  -12.7800 O.3    29  G29        -0.3846
    889  C1'       -7.0970   -6.6550  -10.4520 C.3    29  G29         0.1667
    890   N9       -6.5030   -7.1180   -9.1780 N.ar   29  G29        -0.2854
    891   C8       -7.1260   -7.6370   -8.0730 C.ar   29  G29         0.1005
    892   N7       -6.3310   -7.8560   -7.0610 N.ar   29  G29        -0.2286
    893   C5       -5.0740   -7.4930   -7.5430 C.ar   29  G29         0.1721
    894   C6       -3.7860   -7.5270   -6.9060 C.ar   29  G29         0.2803
    895   O6       -3.5040   -7.8250   -5.7460 O.2    29  G29        -0.2654
    896   N.1      -2.7620   -7.1810   -7.7790 N.ar   29  G29        -0.2934
    897   C.2      -2.9490   -6.8210   -9.0900 C.ar   29  G29         0.1950
    898   N.2      -1.8810   -6.5750   -9.8360 N.pl3  29  G29        -0.3289
    899   N.3      -4.1460   -6.7150   -9.6860 N.ar   29  G29        -0.1963
    900   C4       -5.1680   -7.0840   -8.8550 C.ar   29  G29         0.1712
    901  H5'      -11.1300   -5.9550  -10.3510 H      29  G29         0.0591
    902 H5''      -11.3430   -7.5700  -11.0680 H      29  G29         0.0591
    903  H4'       -9.4050   -6.2410  -11.9960 H      29  G29         0.0647
    904  H3'       -8.8570   -8.8950  -10.6800 H      29  G29         0.0655
    905  H2'       -6.5420   -8.6060  -11.2690 H      29  G29         0.0666
    906 HO2'       -7.4330   -7.8080  -13.3740 H      29  G29         0.2101
    907  H1'       -6.4670   -5.8560  -10.8410 H      29  G29         0.0866
    908   H8       -8.1870   -7.8390   -8.0610 H      29  G29         0.1030
    909   H1       -1.8280   -7.2080   -7.3830 H      29  G29         0.1716
    910  H21       -0.9520   -6.7350   -9.4460 H      29  G29         0.1451
    911  H22       -1.9570   -6.2610  -10.7920 H      29  G29         0.1451
    912    P.3     -8.8810  -10.2130  -13.1110 P.3    30  C30         0.2131
    913  OP1       -9.3360  -10.3530  -14.5130 O.2    30  C30        -0.5172
    914  OP2       -9.5500  -11.0200  -12.0720 O.3    30  C30        -0.4373
    915  O5'       -7.3020  -10.4860  -13.0520 O.3    30  C30        -0.3248
    916  C5'       -6.4830  -10.3360  -14.2100 C.3    30  C30         0.0837
    917  C4'       -5.0090  -10.6490  -13.9310 C.3    30  C30         0.1139
    918  O4'       -4.4940   -9.8870  -12.8580 O.3    30  C30        -0.3456
    919  C3'       -4.6900  -12.1060  -13.6080 C.3    30  C30         0.1241
    920  O3'       -4.5790  -12.8260  -14.8290 O.3    30  C30        -0.3187
    921  C2'       -3.3200  -11.9590  -12.9430 C.3    30  C30         0.1293
    922  O2'       -2.2800  -11.9670  -13.9060 O.3    30  C30        -0.3846
    923  C1'       -3.3930  -10.5820  -12.2780 C.3    30  C30         0.1680
    924   N.1      -3.5350  -10.7180  -10.8090 N.ar   30  C30        -0.2700
    925   C.2      -2.3830  -10.9350  -10.0460 C.ar   30  C30         0.3522
    926   O.2      -1.2780  -11.0880  -10.5830 O.2    30  C30        -0.2444
    927   N.3      -2.4740  -10.9760   -8.6890 N.ar   30  C30        -0.1783
    928   C4       -3.6610  -10.8430   -8.0810 C.ar   30  C30         0.1230
    929   N.4      -3.6860  -10.8070   -6.7590 N.pl3  30  C30        -0.3430
    930   C5       -4.8730  -10.7170   -8.8420 C.ar   30  C30        -0.0056
    931   C6       -4.7600  -10.6570  -10.1860 C.ar   30  C30         0.0152
    932  H5'       -6.5630   -9.3170  -14.5890 H      30  C30         0.0591
    933 H5''       -6.8330  -10.9990  -15.0040 H      30  C30         0.0591
    934  H4'       -4.4460  -10.3910  -14.8290 H      30  C30         0.0647
    935  H3'       -5.4140  -12.5210  -12.8990 H      30  C30         0.0655
    936  H2'       -3.1580  -12.7650  -12.2250 H      30  C30         0.0666
    937 HO2'       -2.1870  -12.8980  -14.1440 H      30  C30         0.2101
    938  H1'       -2.4630  -10.0420  -12.4650 H      30  C30         0.0867
    939  H41       -2.8220  -10.8620   -6.2240 H      30  C30         0.1437
    940  H42       -4.5410  -10.6890   -6.2330 H      30  C30         0.1437
    941   H5       -5.8630  -10.6620   -8.4050 H      30  C30         0.0666
    942   H6       -5.6450  -10.5460  -10.7990 H      30  C30         0.0812
    943    P.3     -4.6330  -14.4120  -14.9540 P.3    31  U31         0.2131
    944  OP1       -4.1760  -14.6750  -16.3370 O.2    31  U31        -0.5172
    945  OP2       -5.9910  -14.8650  -14.5790 O.3    31  U31        -0.4373
    946  O5'       -3.5270  -15.0020  -13.9460 O.3    31  U31        -0.3248
    947  C5'       -2.2380  -15.3630  -14.4260 C.3    31  U31         0.0837
    948  C4'       -1.1920  -15.6130  -13.3340 C.3    31  U31         0.1139
    949  O4'       -1.2530  -14.6140  -12.3280 O.3    31  U31        -0.3456
    950  C3'       -1.2640  -16.9320  -12.5580 C.3    31  U31         0.1241
    951  O3'       -0.8290  -18.0720  -13.2920 O.3    31  U31        -0.3187
    952  C2'       -0.2850  -16.5910  -11.4340 C.3    31  U31         0.1293
    953  O2'        1.0560  -16.7170  -11.8880 O.3    31  U31        -0.3846
    954  C1'       -0.5960  -15.1120  -11.1660 C.3    31  U31         0.1680
    955   N.1      -1.3730  -14.9340   -9.9130 N.ar   31  U31        -0.2715
    956   C.2      -0.6380  -14.8730   -8.7220 C.ar   31  U31         0.3314
    957   O.2       0.5790  -15.0730   -8.6780 O.2    31  U31        -0.2464
    958   N.3      -1.3500  -14.5810   -7.5690 N.ar   31  U31        -0.2749
    959   C4       -2.7200  -14.4090   -7.4940 C.ar   31  U31         0.2539
    960   O4       -3.2520  -14.1490   -6.4210 O.2    31  U31        -0.2677
    961   C5       -3.4140  -14.5730   -8.7550 C.ar   31  U31         0.0192
    962   C6       -2.7440  -14.8210   -9.9110 C.ar   31  U31         0.0171
    963  H5'       -1.8640  -14.5660  -15.0670 H      31  U31         0.0591
    964 H5''       -2.3240  -16.2580  -15.0350 H      31  U31         0.0591
    965  H4'       -0.2100  -15.5710  -13.8120 H      31  U31         0.0647
    966  H3'       -2.2690  -17.0680  -12.1600 H      31  U31         0.0655
    967  H2'       -0.4560  -17.2080  -10.5560 H      31  U31         0.0666
    968 HO2'        1.4650  -15.8300  -11.9070 H      31  U31         0.2101
    969  H1'        0.3280  -14.5550  -11.0120 H      31  U31         0.0867
    970   H3       -0.8220  -14.4930   -6.7070 H      31  U31         0.1734
    971   H5       -4.4890  -14.4870   -8.7710 H      31  U31         0.0686
    972   H6       -3.2950  -14.9280  -10.8370 H      31  U31         0.0813
    973    P.3     -1.1190  -19.5650  -12.7900 P.3    32  G32         0.2131
    974  OP1       -0.5950  -20.4560  -13.8580 O.2    32  G32        -0.5172
    975  OP2       -2.5610  -19.6560  -12.4890 O.3    32  G32        -0.4373
    976  O5'       -0.3110  -19.8260  -11.4240 O.3    32  G32        -0.3248
    977  C5'        1.0710  -20.1430  -11.4300 C.3    32  G32         0.0837
    978  C4'        1.7200  -20.0050  -10.0530 C.3    32  G32         0.1139
    979  O4'        1.3940  -18.7450   -9.5030 O.3    32  G32        -0.3456
    980  C3'        1.3480  -21.0520   -8.9970 C.3    32  G32         0.1241
    981  O3'        2.1460  -22.2270   -9.0860 O.3    32  G32        -0.3187
    982  C2'        1.7070  -20.2780   -7.7260 C.3    32  G32         0.1292
    983  O2'        3.1110  -20.3260   -7.4840 O.3    32  G32        -0.3846
    984  C1'        1.2590  -18.8590   -8.1020 C.3    32  G32         0.1667
    985   N9       -0.1280  -18.5460   -7.6560 N.ar   32  G32        -0.2854
    986   C8       -1.3080  -18.4970   -8.3590 C.ar   32  G32         0.1005
    987   N7       -2.3290  -18.0630   -7.6660 N.ar   32  G32        -0.2286
    988   C5       -1.8060  -17.8430   -6.3870 C.ar   32  G32         0.1721
    989   C6       -2.4300  -17.4090   -5.1580 C.ar   32  G32         0.2803
    990   O6       -3.6090  -17.1200   -4.9230 O.2    32  G32        -0.2654
    991   N.1      -1.5240  -17.3570   -4.1020 N.ar   32  G32        -0.2934
    992   C.2      -0.2050  -17.7380   -4.1940 C.ar   32  G32         0.1950
    993   N.2       0.5570  -17.6920   -3.1140 N.pl3  32  G32        -0.3289
    994   N.3       0.3810  -18.1690   -5.3130 N.ar   32  G32        -0.1963
    995   C4       -0.4700  -18.1830   -6.3770 C.ar   32  G32         0.1712
    996  H5'        1.5760  -19.4650  -12.1180 H      32  G32         0.0591
    997 H5''        1.2130  -21.1640  -11.7640 H      32  G32         0.0591
    998  H4'        2.8040  -20.0430  -10.1920 H      32  G32         0.0647
    999  H3'        0.2790  -21.2770   -9.0410 H      32  G32         0.0655
   1000  H2'        1.1760  -20.6430   -6.8470 H      32  G32         0.0666
   1001 HO2'        3.4430  -19.4190   -7.3240 H      32  G32         0.2101
   1002  H1'        1.9070  -18.1280   -7.6300 H      32  G32         0.0866
   1003   H8       -1.3760  -18.7850   -9.3980 H      32  G32         0.1030
   1004   H1       -1.8920  -16.9960   -3.2300 H      32  G32         0.1716
   1005  H21        0.1880  -17.3790   -2.2170 H      32  G32         0.1451
   1006  H22        1.5280  -17.9510   -3.2110 H      32  G32         0.1451
   1007    P.3      1.6670  -23.6510   -8.5410 P.3    33  U33         0.2131
   1008  OP1        2.7790  -24.5860   -8.8420 O.3    33  U33        -0.4373
   1009  OP2        0.3250  -23.9290   -9.0930 O.2    33  U33        -0.5172
   1010  O5'        1.4910  -23.5700   -6.9650 O.3    33  U33        -0.3248
   1011  C5'        2.5600  -23.7700   -6.0650 C.3    33  U33         0.0837
   1012  C4'        2.0950  -23.5230   -4.6250 C.3    33  U33         0.1139
   1013  O4'        1.6030  -22.2020   -4.5140 O.3    33  U33        -0.3456
   1014  C3'        0.9850  -24.4500   -4.1370 C.3    33  U33         0.1241
   1015  O3'        1.5080  -25.6440   -3.5460 O.3    33  U33        -0.3187
   1016  C2'        0.3270  -23.5740   -3.0740 C.3    33  U33         0.1293
   1017  O2'        1.0100  -23.7710   -1.8550 O.3    33  U33        -0.3846
   1018  C1'        0.5130  -22.1490   -3.6030 C.3    33  U33         0.1680
   1019   N.1      -0.7390  -21.6580   -4.2610 N.ar   33  U33        -0.2715
   1020   C.2      -1.7410  -21.1100   -3.4490 C.ar   33  U33         0.3314
   1021   O.2      -1.6520  -21.0870   -2.2200 O.2    33  U33        -0.2464
   1022   N.3      -2.8810  -20.6310   -4.0940 N.ar   33  U33        -0.2749
   1023   C4       -3.1360  -20.7220   -5.4510 C.ar   33  U33         0.2539
   1024   O4       -4.2130  -20.3690   -5.9280 O.2    33  U33        -0.2677
   1025   C5       -2.0590  -21.3020   -6.2150 C.ar   33  U33         0.0192
   1026   C6       -0.9240  -21.7450   -5.6190 C.ar   33  U33         0.0171
   1027  H5'        3.3540  -23.0690   -6.3140 H      33  U33         0.0591
   1028 H5''        2.9330  -24.7900   -6.1620 H      33  U33         0.0591
   1029  H4'        2.9340  -23.6330   -3.9410 H      33  U33         0.0647
   1030  H3'        0.2840  -24.6620   -4.9480 H      33  U33         0.0655
   1031  H2'       -0.7200  -23.8150   -2.9500 H      33  U33         0.0666
   1032 HO2'        1.5650  -24.5500   -2.0250 H      33  U33         0.2101
   1033  H1'        0.7590  -21.4790   -2.7770 H      33  U33         0.0867
   1034   H3       -3.6070  -20.1820   -3.5410 H      33  U33         0.1734
   1035   H5       -2.1660  -21.3820   -7.2840 H      33  U33         0.0686
   1036   H6       -0.1600  -22.1750   -6.2400 H      33  U33         0.0813
   1037    P.3      0.6630  -27.0040   -3.4370 P.3    34  C34         0.2131
   1038  OP1        1.5690  -28.0920   -2.9860 O.3    34  C34        -0.4373
   1039  OP2       -0.1500  -27.1980   -4.6550 O.2    34  C34        -0.5172
   1040  O5'       -0.3670  -26.7590   -2.2680 O.3    34  C34        -0.3248
   1041  C5'        0.0210  -26.8660   -0.9110 C.3    34  C34         0.0836
   1042  C4'       -1.1640  -26.4760   -0.0320 C.3    34  C34         0.1133
   1043  O4'       -1.5850  -25.1800   -0.3980 O.3    34  C34        -0.3456
   1044  C3'       -2.3730  -27.3880   -0.2430 C.3    34  C34         0.1135
   1045  O3'       -2.4780  -28.4290    0.7030 O.3    34  C34        -0.3864
   1046  C2'       -3.5590  -26.4680    0.0320 C.3    34  C34         0.1286
   1047  O2'       -3.9590  -26.5720    1.3970 O.3    34  C34        -0.3847
   1048  C1'       -2.9920  -25.0770   -0.2650 C.3    34  C34         0.1680
   1049   N.1      -3.6380  -24.4730   -1.4500 N.ar   34  C34        -0.2700
   1050   C.2      -4.8290  -23.7830   -1.2370 C.ar   34  C34         0.3522
   1051   O.2      -5.3450  -23.7090   -0.1210 O.2    34  C34        -0.2444
   1052   N.3      -5.4630  -23.1970   -2.2800 N.ar   34  C34        -0.1783
   1053   C4       -4.9410  -23.2450   -3.5030 C.ar   34  C34         0.1230
   1054   N.4      -5.6240  -22.6330   -4.4560 N.pl3  34  C34        -0.3430
   1055   C5       -3.7140  -23.9460   -3.7540 C.ar   34  C34        -0.0056
   1056   C6       -3.1170  -24.5750   -2.7130 C.ar   34  C34         0.0152
   1057  H5'        0.8600  -26.1980   -0.7180 H      34  C34         0.0591
   1058 H5''        0.3190  -27.8910   -0.6860 H      34  C34         0.0591
   1059  H4'       -0.8700  -26.4720    1.0180 H      34  C34         0.0647
   1060  H3'       -2.4190  -27.7500   -1.2700 H      34  C34         0.0647
   1061 HO3'       -3.1170  -28.0060    1.3120 H      34  C34         0.2100
   1062  H2'       -4.3950  -26.7120   -0.6300 H      34  C34         0.0665
   1063 HO2'       -4.9150  -26.3300    1.4460 H      34  C34         0.2101
   1064  H1'       -3.2160  -24.3990    0.5510 H      34  C34         0.0867
   1065  H41       -6.4680  -22.1150   -4.2190 H      34  C34         0.1437
   1066  H42       -5.3070  -22.6120   -5.4130 H      34  C34         0.1437
   1067   H5       -3.2440  -24.0290   -4.7160 H      34  C34         0.0666
   1068   H6       -2.2150  -25.1560   -2.8730 H      34  C34         0.0812
@<TRIPOS>BOND
     1   944   943    2
     2   963   947    1
     3   964   947    1
     4   933   916    1
     5   943   920    1
     6   943   945    1
     7   943   946    1
     8   934   917    1
     9   920   919    1
    10   932   916    1
    11   913   912    2
    12   947   946    1
    13   947   948    1
    14   916   917    1
    15   916   915    1
    16   937   922    1
    17   917   919    1
    18   917   918    1
    19   922   921    1
    20   974   973    2
    21   965   948    1
    22   919   921    1
    23   919   935    1
    24   906   888    1
    25   948   950    1
    26   948   949    1
    27   951   973    1
    28   951   950    1
    29   912   915    1
    30   912   886    1
    31   912   914    1
    32   921   923    1
    33   921   936    1
    34   918   923    1
    35   973   975    1
    36   973   976    1
    37   888   887    1
    38   886   885    1
    39   950   966    1
    40   950   952    1
    41   938   923    1
    42   949   954    1
    43   923   924    1
    44   217   200    1
    45   996   977    1
    46   903   883    1
    47   215   199    1
    48   968   953    1
    49   953   952    1
    50   216   199    1
    51   997   977    1
    52   228   226    2
    53   196   195    2
    54   887   885    1
    55   887   905    1
    56   887   889    1
    57   885   883    1
    58   885   904    1
    59   952   954    1
    60   952   967    1
    61   977   976    1
    62   977   978    1
    63   199   200    1
    64   199   198    1
    65   205   220    1
    66   205   204    1
    67   200   201    1
    68   200   202    1
    69   954   969    1
    70   954   955    1
    71   203   226    1
    72   203   202    1
    73   883   882    1
    74   883   884    1
    75   902   882    1
    76   907   889    1
    77   972   962    1
    78   924   931   ar
    79   924   925   ar
    80   942   931    1
    81   227   226    1
    82   911   898    1
    83   226   229    1
    84   926   925    2
    85   221   206    1
    86   201   206    1
    87   189   174    1
    88   889   884    1
    89   889   890    1
    90   882   901    1
    91   882   881    1
    92   202   204    1
    93   202   218    1
    94   195   198    1
    95   195   172    1
    96   195   197    1
    97   998   978    1
    98   931   930   ar
    99   174   173    1
   100   204   206    1
   101   204   219    1
   102   978   979    1
   103   978   980    1
   104   925   927   ar
   105   172   171    1
   106   206   207    1
   107   955   962   ar
   108   955   956   ar
   109   962   961   ar
   110   898   910    1
   111   898   897    1
   112   899   897   ar
   113   899   900   ar
   114   190   175    1
   115   163   150    1
   116   162   150    1
   117   979   984    1
   118   249   230    1
   119   186   169    1
   120  1003   986    1
   121   320   303    1
   122   229   230    1
   123   178   177    2
   124   879   878    2
   125   890   900   ar
   126   890   891   ar
   127   881   878    1
   128  1009  1007    2
   129   897   896   ar
   130   981   980    1
   131   981  1007    1
   132   150   149    1
   133   999   980    1
   134   980   982    1
   135   303   302    1
   136   248   230    1
   137   260   259    2
   138   209   208    2
   139   877   864    1
   140   173   171    1
   141   173   175    1
   142   173   188    1
   143   900   893   ar
   144   230   231    1
   145  1008  1007    1
   146   930   941    1
   147   930   928   ar
   148   317   298    1
   149   971   961    1
   150   171   169    1
   151   171   187    1
   152   961   959   ar
   153   956   957    2
   154   956   958   ar
   155   927   928   ar
   156   175   170    1
   157   175   176    1
   158   207   208   ar
   159   207   214   ar
   160   169   170    1
   161   169   168    1
   162  1007  1010    1
   163   872   854    1
   164   876   864    1
   165   986   987   ar
   166   986   985   ar
   167   251   233    1
   168   878   880    1
   169   878   852    1
   170   864   863    1
   171   208   210   ar
   172   984   982    1
   173   984   985    1
   174   984  1002    1
   175   928   929    1
   176   891   908    1
   177   891   892   ar
   178   225   214    1
   179   177   176   ar
   180   177   179   ar
   181   294   293    2
   182   854   853    1
   183   255   239    1
   184   896   909    1
   185   896   894   ar
   186   321   304    1
   187   149   151   ar
   188   149   148   ar
   189   982   983    1
   190   982  1000    1
   191   298   299    1
   192   298   300    1
   193   298   297    1
   194   214   213   ar
   195   296   293    1
   196   296   297    1
   197   987   988   ar
   198   985   995   ar
   199   299   304    1
   200   301   300    1
   201   176   183   ar
   202   184   168    1
   203   302   304    1
   204   302   300    1
   205   302   319    1
   206   958   959   ar
   207   958   970    1
   208   893   892   ar
   209   893   894   ar
   210   185   168    1
   211   161   148    1
   212   959   960    2
   213   983  1001    1
   214   259   262    1
   215   259   261    1
   216   259   234    1
   217   168   167    1
   218   231   233    1
   219   231   250    1
   220   231   232    1
   221   233   234    1
   222   233   235    1
   223   852   851    1
   224  1035  1025    1
   225   304   305    1
   226   262   263    1
   227   252   235    1
   228   151   152   ar
   229   293   295    1
   230   293   267    1
   231   300   318    1
   232   179   180   ar
   233   148   146   ar
   234   863   865   ar
   235   863   862   ar
   236  1010  1011    1
   237   297   315    1
   238   297   316    1
   239   894   895    2
   240   239   240   ar
   241   239   238   ar
   242   210   211   ar
   243   140   158    1
   244   140   139    1
   245   929   940    1
   246   929   939    1
   247   865   866   ar
   248   240   241   ar
   249   284   264    1
   250   853   871    1
   251   853   851    1
   252   853   855    1
   253   232   237    1
   254   235   237    1
   255   235   236    1
   256   213   211   ar
   257   213   224    1
   258   988   995   ar
   259   988   989   ar
   260   995   994   ar
   261   875   862    1
   262  1027  1011    1
   263   183   194    1
   264   183   182   ar
   265   159   141    1
   266  1036  1026    1
   267  1025  1026   ar
   268  1025  1023   ar
   269   851   870    1
   270   851   849    1
   271   167   164    1
   272  1028  1011    1
   273   157   139    1
   274   873   855    1
   275   862   860   ar
   276  1011  1012    1
   277   211   212    1
   278   253   236    1
   279   263   282    1
   280   263   264    1
   281   263   283    1
   282  1024  1023    2
   283   129   116    1
   284   238   237    1
   285   238   247   ar
   286   237   254    1
   287   139   141    1
   288   139   137    1
   289   152   145   ar
   290   152   142   ar
   291   180   182   ar
   292   180   181    1
   293   305   314   ar
   294   305   306   ar
   295   869   849    1
   296   257   243    1
   297   264   266    1
   298   264   265    1
   299   285   266    1
   300   267   266    1
   301   146   147    2
   302   146   145   ar
   303  1026  1019   ar
   304   855   856    1
   305   855   850    1
   306   866   856   ar
   307   866   859   ar
   308  1023  1022   ar
   309   141   142    1
   310   141   136    1
   311  1066  1054    1
   312   241   247   ar
   313   241   242   ar
   314   182   193    1
   315   322   306    1
   316   994   992   ar
   317   266   268    1
   318   313   314   ar
   319   313   312   ar
   320   191   181    1
   321   849   850    1
   322   849   848    1
   323   989   990    2
   324   989   991   ar
   325   165   164    2
   326   115   116   ar
   327   115   113   ar
   328   145   144   ar
   329   142   143   ar
   330   116   117   ar
   331   314   308   ar
   332  1030  1014    1
   333   306   307   ar
   334   856   857   ar
   335   247   246   ar
   336   181   192    1
   337   138   164    1
   338   138   137    1
   339   164   166    1
   340   127   114    1
   341   860   859   ar
   342   860   861    2
   343   243   242    1
   344   243   256    1
   345   212   222    1
   346   212   223    1
   347  1067  1055    1
   348  1039  1037    2
   349   265   270    1
   350  1012  1013    1
   351  1012  1014    1
   352  1012  1029    1
   353   155   135    1
   354   137   135    1
   355   137   156    1
   356   859   858   ar
   357   242   244   ar
   358  1013  1018    1
   359  1054  1065    1
   360  1054  1053    1
   361   325   312    1
   362   868   848    1
   363   136   135    1
   364   312   311   ar
   365  1019  1018    1
   366  1019  1020   ar
   367   992   991   ar
   368   992   993    1
   369  1014  1015    1
   370  1014  1016    1
   371   991  1004    1
   372  1022  1034    1
   373  1022  1020   ar
   374   135   134    1
   375   114   113    1
   376   114   128    1
   377   848   867    1
   378   848   847    1
   379   843   830    1
   380   113   112   ar
   381   117   118   ar
   382   287   269    1
   383   288   270    1
   384   268   270    1
   385   268   286    1
   386   268   269    1
   387  1055  1053   ar
   388  1055  1056   ar
   389   143   144   ar
   390   143   160    1
   391   857   858   ar
   392   857   874    1
   393   308   307   ar
   394   308   309   ar
   395   246   245   ar
   396   270   271    1
   397  1018  1016    1
   398  1018  1033    1
   399  1015  1037    1
   400  1053  1052   ar
   401  1020  1021    2
   402  1037  1038    1
   403  1037  1040    1
   404    15    14    2
   405   244   245   ar
   406    93    83    1
   407  1006   993    1
   408   993  1005    1
   409   830   829   ar
   410   830   831   ar
   411   847   844    1
   412  1016  1031    1
   413  1016  1017    1
   414   311   309   ar
   415   245   258    1
   416   829   827   ar
   417  1068  1056    1
   418   118   112   ar
   419   118   109   ar
   420   112   111   ar
   421   309   310    1
   422  1056  1049   ar
   423   134   154    1
   424   134   153    1
   425   134   133    1
   426    83    94    1
   427    83    82    1
   428   841   828    1
   429    12    13   ar
   430    12    11   ar
   431   328   326    1
   432    49    48    2
   433   831   832   ar
   434  1052  1050   ar
   435  1040  1041    1
   436   271   281   ar
   437   271   272   ar
   438    14    13   ar
   439    14    16   ar
   440   292   279    1
   441   123   106    1
   442   327   326    1
   443  1032  1017    1
   444   326   329    1
   445   280   281   ar
   446   280   278   ar
   447   651   649    2
   448   837   820    1
   449   124   107    1
   450   845   844    2
   451   125   108    1
   452   827   828    1
   453   827   826   ar
   454   133   130    1
   455   289   272    1
   456   838   821    1
   457   107   106    1
   458    13    20   ar
   459   828   842    1
   460   844   846    1
   461   844   819    1
   462    29    16    1
   463   109   108    1
   464   109   110   ar
   465   310   324    1
   466   310   323    1
   467   111   110   ar
   468   281   274   ar
   469    28    11    1
   470  1049  1050   ar
   471  1049  1048    1
   472   821   820    1
   473   272   273   ar
   474    81    82   ar
   475    81    79   ar
   476    11    10   ar
   477   650   649    1
   478   106   108    1
   479   106   104    1
   480    82    84   ar
   481  1060  1044    1
   482    16    17   ar
   483  1050  1051    2
   484   279   278    1
   485   279   291    1
   486    63    50    1
   487   832   826   ar
   488   832   823   ar
   489   108   103    1
   490    48    50   ar
   491    48    47   ar
   492   644   629    1
   493   710   699    1
   494   629   628    1
   495   820   818    1
   496   820   822    1
   497   649   652    1
   498   649   627    1
   499  1041  1057    1
   500  1041  1058    1
   501  1041  1042    1
   502   278   277   ar
   503   110   126    1
   504   826   825   ar
   505   808   795    1
   506   819   818    1
   507  1062  1046    1
   508    50    51   ar
   509    80    79    2
   510   643   628    1
   511   836   818    1
   512   671   653    1
   513  1043  1048    1
   514  1043  1042    1
   515   329   330    1
   516    46    47   ar
   517    46    45   ar
   518    20    10   ar
   519    20    19   ar
   520    79    78   ar
   521   652   653    1
   522   349   330    1
   523  1048  1046    1
   524  1048  1064    1
   525   818   816    1
   526  1044  1042    1
   527  1044  1046    1
   528  1044  1045    1
   529   274   273   ar
   530   274   275   ar
   531   699   709    1
   532   699   698    1
   533    47    54   ar
   534   130   131    2
   535   130   105    1
   536   130   132    1
   537   356   339    1
   538    10     9    1
   539   823   822    1
   540   823   824   ar
   541   839   822    1
   542    84    95    1
   543    84    85   ar
   544   633   632    2
   545  1042  1059    1
   546   628   626    1
   547   628   630    1
   548   340   339   ar
   549   340   341   ar
   550   672   653    1
   551   822   817    1
   552  1046  1047    1
   553   104   122    1
   554   104   105    1
   555   104   102    1
   556   646   634    1
   557    17    19   ar
   558    17    18    1
   559   795   809    1
   560   795   794    1
   561   711   700    1
   562    22     2    1
   563   653   654    1
   564   103   102    1
   565    24     5    1
   566   343   342    2
   567   627   626    1
   568   330   350    1
   569   330   331    1
   570   825   824   ar
   571    34    32    2
   572   632   634   ar
   573   632   631   ar
   574   684   682    2
   575   339   338   ar
   576   277   275   ar
   577   277   290    1
   578   634   635   ar
   579   796   794   ar
   580   796   797   ar
   581   645   630    1
   582    30    18    1
   583    64    52    1
   584  1045  1061    1
   585   824   840    1
   586    51    52    1
   587    51    53   ar
   588    45    62    1
   589    45    44   ar
   590   275   276    2
   591   626   642    1
   592   626   624    1
   593   631   630    1
   594   631   638   ar
   595    78    85   ar
   596    78    77    1
   597    25     7    1
   598   794   793   ar
   599   102   121    1
   600   102   101    1
   601   635   636    2
   602   635   637   ar
   603   630   625    1
   604    18    31    1
   605   698   700   ar
   606   698   697   ar
   607   678   662    1
   608   341   342   ar
   609   341   348   ar
   610    85    96    1
   611   700   701   ar
   612   810   797    1
   613   342   344   ar
   614    54    53   ar
   615    54    44   ar
   616     9     4    1
   617     9     7    1
   618     9    27    1
   619     4     3    1
   620   816   817    1
   621   816   835    1
   622   816   815    1
   623     2    21    1
   624     2     3    1
   625     2     1    1
   626    52    65    1
   627     5     7    1
   628     5     3    1
   629     5     6    1
   630   638   637   ar
   631   638   648    1
   632   637   647    1
   633   797   798   ar
   634   332   331    1
   635   332   337    1
   636  1047  1063    1
   637   674   656    1
   638    90    75    1
   639     7     8    1
   640   338   348   ar
   641   338   337    1
   642   663   662   ar
   643   663   664   ar
   644   331   351    1
   645   331   333    1
   646   654   673    1
   647   654   656    1
   648   654   655    1
   649     3    23    1
   650   662   661   ar
   651   680   666    1
   652    44    43    1
   653    32     6    1
   654    32    33    1
   655    32    35    1
   656   682   683    1
   657   682   657    1
   658   682   685    1
   659   641   624    1
   660    92    77    1
   661   775   764    1
   662   423   406    1
   663   407   406   ar
   664   407   408   ar
   665   348   347   ar
   666   697   695   ar
   667   352   333    1
   668    77    75    1
   669    77    72    1
   670   624   625    1
   671   624   623    1
   672   793   792   ar
   673   793   799   ar
   674   410   409    2
   675   656   657    1
   676   656   658    1
   677   361   360    2
   678   834   815    1
   679   701   712    1
   680   701   694   ar
   681   344   357    1
   682   344   345   ar
   683   337   355    1
   684   337   335    1
   685   774   764    1
   686   394   393    2
   687    75    76    1
   688    75    73    1
   689   715   713    2
   690   815   814    1
   691   815   833    1
   692   101   100    1
   693   101   120    1
   694   101   119    1
   695   406   405   ar
   696   389   373    1
   697   764   763    1
   698   370   387    1
   699   370   369    1
   700   417   397    1
   701   655   660    1
   702   798   799   ar
   703   100    97    1
   704   814   811    1
   705   333   335    1
   706   333   334    1
   707    35    36    1
   708   386   369    1
   709   685   686    1
   710   792   791   ar
   711    76    91    1
   712   666   679    1
   713   666   665    1
   714   391   377    1
   715   799   790   ar
   716   408   409   ar
   717   408   415   ar
   718   664   665   ar
   719   664   670   ar
   720   374   373   ar
   721   374   375   ar
   722     8    26    1
   723   736   717    1
   724   409   411   ar
   725   661   660    1
   726   661   670   ar
   727   776   765    1
   728   737   717    1
   729   749   747    2
   730   373   372   ar
   731   639   623    1
   732    59    41    1
   733   705   689    1
   734   347   345   ar
   735   596   613    1
   736   596   595    1
   737   615   599    1
   738   345   346    1
   739   695   694   ar
   740   695   696    2
   741    89    73    1
   742   385   367    1
   743   369   367    1
   744   369   371    1
   745    43    61    1
   746    43    41    1
   747    43    38    1
   748    72    71    1
   749   335   353    1
   750   335   336    1
   751   694   693    1
   752   623   640    1
   753   623   622    1
   754   660   658    1
   755   660   677    1
   756   665   667   ar
   757   360   334    1
   758   360   363    1
   759   360   362    1
   760   658   675    1
   761   658   659    1
   762   804   787    1
   763   399   404    1
   764   399   398    1
   765   763   765   ar
   766   763   762   ar
   767   405   415   ar
   768   405   404    1
   769   397   416    1
   770   397   396    1
   771   397   398    1
   772    73    71    1
   773    73    74    1
   774   803   785    1
   775   717   716    1
   776   717   718    1
   777    58    39    1
   778   363   364    1
   779   813   811    2
   780   377   390    1
   781   377   376    1
   782   743   726    1
   783   670   669   ar
   784   765   766   ar
   785   713   716    1
   786   713   714    1
   787   713   690    1
   788   791   790   ar
   789   791   807    1
   790   393   396    1
   791   393   395    1
   792   393   368    1
   793   739   720    1
   794    41    39    1
   795    41    42    1
   796   599   600   ar
   797   599   598   ar
   798   600   601   ar
   799   727   726   ar
   800   727   728   ar
   801   415   414   ar
   802    38    37    1
   803    99    97    2
   804   375   376   ar
   805   375   381   ar
   806   790   789    1
   807   367   368    1
   808   367   365    1
   809   811   812    1
   810   811   786    1
   811   455   444    1
   812    97    74    1
   813    97    98    1
   814   686   703    1
   815   686   702    1
   816   686   687    1
   817    36    56    1
   818    36    55    1
   819    36    37    1
   820   676   659    1
   821   411   424    1
   822   411   412   ar
   823   372   371    1
   824   372   381   ar
   825   612   595    1
   826   617   603    1
   827   404   422    1
   828   404   402    1
   829   726   725   ar
   830   689   690    1
   831   689   687    1
   832   689   691    1
   833   346   358    1
   834   346   359    1
   835   376   378   ar
   836    71    88    1
   837    71    70    1
   838   398   418    1
   839   398   400    1
   840   595   597    1
   841   595   593    1
   842    39    37    1
   843    39    40    1
   844   730   729    2
   845   762   760   ar
   846   622   619    1
   847   706   691    1
   848   747   748    1
   849   747   721    1
   850   747   750    1
   851   383   364    1
   852   801   782    1
   853   336   354    1
   854   371   388    1
   855   371   366    1
   856   787   785    1
   857   787   789    1
   858   787   788    1
   859   454   444    1
   860    37    57    1
   861   785   786    1
   862   785   783    1
   863   444   443    1
   864   381   380   ar
   865   693   688    1
   866   693   691    1
   867   693   708    1
   868   364   365    1
   869   364   382    1
   870   667   668   ar
   871   601   602   ar
   872   601   607   ar
   873    69    70    1
   874    69    66    1
   875   598   597    1
   876   598   607   ar
   877   687   688    1
   878   687   704    1
   879   720   718    1
   880   720   721    1
   881   720   722    1
   882   603   616    1
   883   603   602    1
   884   766   777    1
   885   766   759   ar
   886   728   729   ar
   887   728   735   ar
   888   614   597    1
   889   718   719    1
   890   718   738    1
   891   691   692    1
   892   554   542    1
   893   419   400    1
   894    42    60    1
   895   669   668   ar
   896   414   412   ar
   897   789   806    1
   898   789   784    1
   899   729   731   ar
   900   365   366    1
   901   365   384    1
   902   412   413    1
   903   488   475    1
   904   456   445    1
   905    68    66    2
   906   597   592    1
   907   602   604   ar
   908   611   593    1
   909   594   593    1
   910   594   619    1
   911   607   606   ar
   912   780   778    2
   913    70    86    1
   914    70    87    1
   915   593   591    1
   916   378   379   ar
   917   725   735   ar
   918   725   724    1
   919   750   751    1
   920   668   681    1
   921   719   724    1
   922   400   402    1
   923   400   401    1
   924   788   805    1
   925   760   759   ar
   926   760   761    2
   927   782   800    1
   928   782   783    1
   929   782   781    1
   930    40    66    1
   931   402   420    1
   932   402   403    1
   933    66    67    1
   934   555   542    1
   935   770   754    1
   936   443   445   ar
   937   443   442   ar
   938   783   784    1
   939   783   802    1
   940   619   620    2
   941   619   621    1
   942   542   541    1
   943   759   758    1
   944   380   379   ar
   945   735   734   ar
   946   445   446   ar
   947   588   586    2
   948   740   722    1
   949   475   489    1
   950   475   474    1
   951   604   605   ar
   952   379   392    1
   953   722   724    1
   954   722   723    1
   955   724   742    1
   956   606   605   ar
   957   731   744    1
   958   731   732   ar
   959   413   425    1
   960   413   426    1
   961   707   692    1
   962   553   540    1
   963   771   756    1
   964   605   618    1
   965   429   427    2
   966   589   586    1
   967   589   590    1
   968   781   778    1
   969   592   591    1
   970   403   421    1
   971   570   569    2
   972   582   567    1
   973   401   427    1
   974   442   440   ar
   975   768   751    1
   976   778   755    1
   977   778   779    1
   978   751   767    1
   979   751   752    1
   980   591   590    1
   981   591   610    1
   982   754   756    1
   983   754   752    1
   984   754   755    1
   985   741   723    1
   986   476   474   ar
   987   476   477   ar
   988   446   457    1
   989   446   439   ar
   990   734   732   ar
   991   541   540   ar
   992   541   543   ar
   993   474   473   ar
   994   732   733    1
   995   586   564    1
   996   586   587    1
   997   758   756    1
   998   758   753    1
   999   758   773    1
  1000   540   538   ar
  1001   756   757    1
  1002   583   571    1
  1003   564   563    1
  1004   590   609    1
  1005   590   608    1
  1006   569   571   ar
  1007   569   568   ar
  1008   753   752    1
  1009   752   769    1
  1010   427   430    1
  1011   427   428    1
  1012   567   562    1
  1013   567   568    1
  1014   567   565    1
  1015   571   572   ar
  1016   440   439   ar
  1017   440   441    2
  1018   490   477    1
  1019   578   561    1
  1020   439   438    1
  1021   562   561    1
  1022   477   478   ar
  1023   543   544   ar
  1024   568   575   ar
  1025   733   745    1
  1026   733   746    1
  1027   518   508    1
  1028   473   472   ar
  1029   473   479   ar
  1030   430   431    1
  1031   538   539    2
  1032   538   537   ar
  1033   566   565    1
  1034   566   581    1
  1035   772   757    1
  1036   561   563    1
  1037   561   560    1
  1038   563   565    1
  1039   563   579    1
  1040   472   471   ar
  1041   572   573    2
  1042   572   574   ar
  1043   565   580    1
  1044   505   504    2
  1045   508   519    1
  1046   508   507    1
  1047   575   574   ar
  1048   575   585    1
  1049   433   438    1
  1050   433   432    1
  1051   506   504   ar
  1052   506   507   ar
  1053   478   479   ar
  1054   479   470   ar
  1055   544   537   ar
  1056   544   534   ar
  1057   438   453    1
  1058   438   436    1
  1059   447   431    1
  1060   574   584    1
  1061   537   536   ar
  1062   431   432    1
  1063   431   448    1
  1064   504   503   ar
  1065   507   509   ar
  1066   471   470   ar
  1067   471   487    1
  1068   576   560    1
  1069   551   533    1
  1070   560   577    1
  1071   560   559    1
  1072   450   434    1
  1073   432   434    1
  1074   432   449    1
  1075   470   469    1
  1076   534   533    1
  1077   534   535   ar
  1078   451   436    1
  1079   436   434    1
  1080   436   437    1
  1081   528   533    1
  1082   528   527    1
  1083   517   502    1
  1084   533   531    1
  1085   547   527    1
  1086   434   435    1
  1087   536   535   ar
  1088   486   469    1
  1089   559   556    1
  1090   503   502    1
  1091   503   510   ar
  1092   509   510   ar
  1093   509   520    1
  1094   469   464    1
  1095   469   467    1
  1096   535   552    1
  1097   527   529    1
  1098   527   526    1
  1099   530   529    1
  1100   530   556    1
  1101   502   500    1
  1102   502   497    1
  1103   515   500    1
  1104   510   521    1
  1105   437   452    1
  1106   545   526    1
  1107   501   500    1
  1108   501   516    1
  1109   460   458    2
  1110   464   463    1
  1111   500   498    1
  1112   435   458    1
  1113   531   529    1
  1114   531   532    1
  1115   531   549    1
  1116   529   548    1
  1117   556   558    2
  1118   556   557    1
  1119   484   467    1
  1120   526   546    1
  1121   526   525    1
  1122   532   550    1
  1123   467   468    1
  1124   467   465    1
  1125   497   496    1
  1126   461   458    1
  1127   461   462    1
  1128   458   459    1
  1129   483   465    1
  1130   468   485    1
  1131   463   465    1
  1132   463   462    1
  1133   463   482    1
  1134   525   522    1
  1135   465   466    1
  1136   498   496    1
  1137   498   514    1
  1138   498   499    1
  1139   462   480    1
  1140   462   481    1
  1141   496   513    1
  1142   496   495    1
  1143   499   522    1
  1144   522   523    2
  1145   522   524    1
  1146   494   495    1
  1147   494   491    1
  1148   466   491    1
  1149   495   511    1
  1150   495   512    1
  1151   493   491    2
  1152   491   492    1
