ligand
  PyMOL2.2          3D                             0

 31 33  0  0  0  0  0  0  0  0999 V2000
   -4.0540   13.6720    4.8600 C   0  0  0  0  0  0  0  0  0  0  0  0
   -4.5040   13.9800    6.1760 O   0  0  0  0  0  0  0  0  0  0  0  0
   -3.9650   12.4760   10.1170 C   0  0  0  0  0  0  0  0  0  0  0  0
   -4.0010   11.5790   11.2310 N   0  0  0  0  0  0  0  0  0  0  0  0
   -1.2810   10.2830    9.6610 C   0  0  0  0  0  0  0  0  0  0  0  0
   -3.2910   14.9550    4.3330 C   0  0  0  0  0  0  0  0  0  0  0  0
   -2.1810   15.2440    5.2350 N   0  0  0  0  0  0  0  0  0  0  0  0
   -5.4500   12.7120    9.6180 C   0  0  0  0  0  0  0  0  0  0  0  0
   -0.4020   10.4330   10.9430 C   0  0  0  0  0  0  0  0  0  0  0  0
   -1.2150   10.9310   11.9840 O   0  0  0  0  0  0  0  0  0  0  0  0
   -4.2780   16.1870    4.2500 C   0  0  0  0  0  0  0  0  0  0  0  0
   -5.4140   13.6970    8.3900 C   0  0  0  0  0  0  0  0  0  0  0  0
   -6.7920   13.9160    7.9180 N   0  0  0  0  0  0  0  0  0  0  0  0
    0.7570   11.4440   10.5990 C   0  0  0  0  0  0  0  0  0  0  0  0
    1.6280   11.6450   11.8040 N   0  0  0  0  0  0  0  0  0  0  0  0
   -5.7300   15.7650    3.7670 C   0  0  0  0  0  0  0  0  0  0  0  0
   -4.5250   13.0740    7.2250 C   0  0  0  0  0  0  0  0  0  0  0  0
    1.6440   10.8000    9.3920 C   0  0  0  0  0  0  0  0  0  0  0  0
    2.1850    9.5360    9.7370 O   0  0  0  0  0  0  0  0  0  0  0  0
   -6.0810   14.4560    3.6620 C   0  0  0  0  0  0  0  0  0  0  0  0
   -5.1770   13.3900    3.9750 O   0  0  0  0  0  0  0  0  0  0  0  0
   -3.0600   12.8410    7.7500 C   0  0  0  0  0  0  0  0  0  0  0  0
   -2.2640   12.2670    6.6910 O   0  0  0  0  0  0  0  0  0  0  0  0
    0.7470   10.5840    8.1300 C   0  0  0  0  0  0  0  0  0  0  0  0
   -0.4500    9.7520    8.5080 O   0  0  0  0  0  0  0  0  0  0  0  0
   -7.4660   14.0000    3.1990 C   0  0  0  0  0  0  0  0  0  0  0  0
   -7.9240   12.9660    4.1020 O   0  0  0  0  0  0  0  0  0  0  0  0
   -3.1140   11.8380    8.9610 C   0  0  0  0  0  0  0  0  0  0  0  0
   -1.8100   11.6240    9.4020 O   0  0  0  0  0  0  0  0  0  0  0  0
    2.8370   11.6680    8.9240 C   0  0  0  0  0  0  0  0  0  0  0  0
    1.4770   12.9260   12.5240 C   0  0  0  0  0  0  0  0  0  0  0  0
  1  2  1  0  0  0  0
  1  6  1  0  0  0  0
  1 21  1  0  0  0  0
  3  4  1  0  0  0  0
  3  8  1  0  0  0  0
  3 28  1  0  0  0  0
  5  9  1  0  0  0  0
  5 25  1  0  0  0  0
  5 29  1  0  0  0  0
  6  7  1  0  0  0  0
  6 11  1  0  0  0  0
  8 12  1  0  0  0  0
  9 10  1  0  0  0  0
  9 14  1  0  0  0  0
 11 16  1  0  0  0  0
 12 13  1  0  0  0  0
 12 17  1  0  0  0  0
 14 15  1  0  0  0  0
 14 18  1  0  0  0  0
 16 20  1  0  0  0  0
  2 17  1  0  0  0  0
 17 22  1  0  0  0  0
 18 19  1  0  0  0  0
 18 24  1  0  0  0  0
 18 30  1  0  0  0  0
 20 21  1  0  0  0  0
 20 26  1  0  0  0  0
 22 23  1  0  0  0  0
 22 28  1  0  0  0  0
 24 25  1  0  0  0  0
 26 27  1  0  0  0  0
 28 29  1  0  0  0  0
 15 31  1  0  0  0  0
M  END
$$$$
